MODEL 1
USER: ADFR SOLUTION from run 140
USER: SCORE 20.333415 LL:  -2.929 LR: -18.794 RR:   0.000 FEB: -12.828
USER: RMSD 10.085627
USER: SEED 139
USER: STATUS searching
USER: GENES 22
USER: genes 0 Translation |==|  0.62213 0.48833 0.52948
USER: genes 1 Rotation |==|  0.91108 0.28588 0.68609 0.52323
USER: genes 2 Torsion [N]-C--CA-[N] |==|  0.42274
USER: genes 3 Torsion [C]-CA--N-[C] |==|  0.81111
USER: genes 4 Torsion [N]-C--CA-[N] |==|  0.90299
USER: genes 5 Torsion [C]-CA--CB-[CG] |==|  0.13966
USER: genes 6 Torsion [CA]-CB--CG-[CD1] |==|  0.25529
USER: genes 7 Torsion [CE1]-CZ--OH-[HH] |==|  0.48369
USER: genes 8 Torsion [C]-CA--N-[C] |==|  0.67234
USER: genes 9 Torsion [N]-C--CA-[N] |==|  0.32437
USER: genes 10 Torsion [C]-CA--CB-[OG] |==|  0.52408
USER: genes 11 Torsion [CA]-CB--OG-[HG] |==|  0.33230
USER: genes 12 Torsion [C]-CA--CB-[CG] |==|  0.44804
USER: genes 13 Torsion [CA]-CB--CG-[CD2] |==|  0.72491
USER: genes 14 Torsion [N]-CA--C-[O] |==|  0.87569
USER: genes 15 Torsion [C]-N--CA-[CB] |==|  0.55274
USER: genes 16 Torsion [N]-CA--C-[N] |==|  0.85722
USER: genes 17 Torsion [N]-CA--C-[O] |==|  0.52835
USER: genes 18 Torsion [N]-CA--CB-[CG] |==|  0.76547
USER: genes 19 Torsion [CA]-CB--CG-[CD] |==|  0.73360
USER: genes 20 Torsion [CB]-CG--CD-[NE] |==|  0.43072
USER: genes 21 Torsion [CG]-CD--NE-[HE] |==|  0.07991
ROOT
ATOM      1  C   LEU C   7      -0.647 -32.948  -9.280  1.00 32.10 LIG 0.24  C 
ATOM      2 O    LEU C   7      -1.716 -32.391  -9.604  1.00 36.06 LIG-0.27  OA
ATOM      3  N   PRO C   8      -0.478 -33.579  -8.093  1.00 34.15 LIG-0.34  N 
ATOM      4  CA  PRO C   8      -1.636 -33.514  -7.222  1.00 36.52 LIG 0.18  C 
ATOM      5  CB  PRO C   8      -1.207 -34.299  -5.959  1.00 33.63 LIG 0.04  C 
ATOM      6  CG  PRO C   8      -0.194 -35.270  -6.457  1.00 36.13 LIG 0.02  C 
ATOM      7  CD  PRO C   8       0.535 -34.541  -7.589  1.00 34.25 LIG 0.13  C 
ENDROOT
BRANCH 1 8
ATOM      8  CA  LEU C   7       0.498 -33.020 -10.309  1.00 27.99 LIG 0.18  C 
BRANCH 8 9
ATOM      9  N   LEU C   7       0.088 -32.916 -11.724  1.00 26.55 LIG-0.35  N 
ATOM     10 H    LEU C   7       0.329 -32.205 -12.143  1.00 26.55 LIG 0.16  HD
ATOM     11  C   TYR C   6      -0.601 -33.906 -12.216  1.00 27.48 LIG 0.24  C 
ATOM     12 O    TYR C   6      -0.843 -34.926 -11.508  1.00 27.70 LIG-0.27  OA
BRANCH 11 13
ATOM     13  CA  TYR C   6      -1.136 -33.721 -13.609  1.00 25.37 LIG 0.18  C 
BRANCH 13 14
ATOM     14  CB  TYR C   6      -0.091 -34.190 -14.639  1.00 25.99 LIG 0.07  C 
BRANCH 14 15
ATOM     15  CG  TYR C   6       0.495 -35.578 -14.401  1.00 32.28 LIG-0.06  A 
ATOM     16  CD1 TYR C   6      -0.077 -36.710 -14.985  1.00 32.91 LIG 0.01  A 
ATOM     17  CE1 TYR C   6       0.451 -37.971 -14.780  1.00 37.22 LIG 0.04  A 
ATOM     18  CZ  TYR C   6       1.564 -38.116 -13.964  1.00 40.59 LIG 0.07  A 
ATOM     19  CE2 TYR C   6       2.149 -37.009 -13.350  1.00 40.82 LIG 0.04  A 
ATOM     20  CD2 TYR C   6       1.604 -35.747 -13.564  1.00 36.01 LIG 0.01  A 
BRANCH 18 21
ATOM     21 OH   TYR C   6       2.077 -39.384 -13.779  1.00 45.73 LIG-0.36  OA
ATOM     22 HH   TYR C   6       2.789 -39.336 -13.336  1.00 45.73 LIG 0.22  HD
ENDBRANCH 18 21
ENDBRANCH 14 15
ENDBRANCH 13 14
BRANCH 13 23
ATOM     23  N   TYR C   6      -1.521 -32.381 -13.894  1.00 26.32 LIG-0.34  N 
ATOM     24 H    TYR C   6      -0.887 -31.801 -13.857  1.00 26.32 LIG 0.16  HD
ATOM     25  C   SER C   5      -2.766 -32.114 -14.185  1.00 29.69 LIG 0.26  C 
ATOM     26 O    SER C   5      -3.673 -33.003 -14.123  1.00 27.24 LIG-0.27  OA
BRANCH 25 27
ATOM     27  CA  SER C   5      -3.017 -30.651 -14.692  1.00 35.45 LIG 0.42  C 
ATOM     28  N   SER C   5      -3.518 -30.671 -16.091  1.00 39.53 LIG 0.62  N 
BRANCH 27 29
ATOM     29  CB  SER C   5      -3.964 -29.854 -13.799  1.00 42.03 LIG 0.21  C 
BRANCH 29 30
ATOM     30 OG   SER C   5      -4.337 -28.615 -14.360  1.00 42.36 LIG-0.40  OA
ATOM     31 HG   SER C   5      -5.171 -28.592 -14.462  1.00 42.36 LIG 0.21  HD
ENDBRANCH 29 30
ENDBRANCH 27 29
ENDBRANCH 25 27
ENDBRANCH 13 23
ENDBRANCH 11 13
ENDBRANCH 8 9
BRANCH 8 32
ATOM     32  CB  LEU C   7       1.570 -32.035 -10.015  1.00 26.58 LIG 0.04  C 
BRANCH 32 33
ATOM     33  CG  LEU C   7       2.785 -32.564 -10.801  1.00 24.49 LIG-0.02  C 
ATOM     34  CD2 LEU C   7       3.641 -33.304  -9.815  1.00 27.30 LIG 0.01  C 
ATOM     35  CD1 LEU C   7       3.558 -31.339 -11.265  1.00 29.65 LIG 0.01  C 
ENDBRANCH 32 33
ENDBRANCH 8 32
ENDBRANCH 1 8
BRANCH 4 36
ATOM     36  C   PRO C   8      -2.019 -32.049  -6.955  1.00 40.02 LIG 0.24  C 
ATOM     37 O    PRO C   8      -1.171 -31.209  -6.685  1.00 40.33 LIG-0.27  OA
ATOM     38  N   ARG C   9      -3.298 -31.766  -7.145  1.00 39.93 LIG-0.35  N 
ATOM     39 H    ARG C   9      -3.862 -32.357  -7.414  1.00 39.93 LIG 0.16  HD
BRANCH 38 40
ATOM     40  CA  ARG C   9      -3.906 -30.463  -6.933  1.00 44.47 LIG 0.18  C 
BRANCH 40 41
ATOM     41  C   ARG C   9      -3.255 -29.815  -5.675  1.00 44.78 LIG 0.24  C 
ATOM     42  N   PRO C  10      -3.206 -30.540  -4.529  1.00 46.18 LIG-0.34  N 
ATOM     43  CA  PRO C  10      -2.650 -30.016  -3.242  1.00 48.25 LIG 0.17  C 
ATOM     44  CD  PRO C  10      -3.811 -31.881  -4.368  1.00 48.73 LIG 0.13  C 
ATOM     45  CB  PRO C  10      -2.853 -31.178  -2.249  1.00 49.47 LIG 0.04  C 
ATOM     46  CG  PRO C  10      -3.872 -32.077  -2.875  1.00 52.76 LIG 0.02  C 
ATOM     47 O    ARG C   9      -2.851 -28.650  -5.736  1.00 45.76 LIG-0.27  OA
BRANCH 43 48
ATOM     48  C   PRO C  10      -1.161 -29.637  -3.238  1.00 47.63 LIG 0.22  C 
ATOM     49 O    PRO C  10      -0.586 -29.379  -2.183  1.00 46.26 LIG-0.29  OA
ENDBRANCH 43 48
ENDBRANCH 40 41
BRANCH 40 50
ATOM     50  CB  ARG C   9      -5.452 -30.655  -6.792  1.00 49.80 LIG 0.04  C 
BRANCH 50 51
ATOM     51  CG  ARG C   9      -6.218 -30.710  -8.130  1.00 51.68 LIG 0.02  C 
BRANCH 51 52
ATOM     52  CD  ARG C   9      -6.827 -29.336  -8.561  1.00 46.90 LIG 0.14  C 
BRANCH 52 53
ATOM     53  NE  ARG C   9      -6.993 -29.305 -10.011  1.00 50.11 LIG-0.23  N 
ATOM     54 HE   ARG C   9      -7.126 -30.062 -10.397  1.00 50.11 LIG 0.18  HD
ATOM     55  CZ  ARG C   9      -6.962 -28.237 -10.803  1.00 44.95 LIG 0.67  C 
ATOM     56  NH1 ARG C   9      -7.133 -28.412 -12.085  1.00 55.49 LIG-0.23  N 
ATOM     57  NH2 ARG C   9      -6.777 -27.030 -10.345  1.00 40.08 LIG-0.23  N 
ATOM     58 1HH1 ARG C   9      -7.261 -29.203 -12.398  1.00 55.49 LIG 0.17  HD
ATOM     59 2HH1 ARG C   9      -7.116 -27.737 -12.618  1.00 55.49 LIG 0.17  HD
ATOM     60 1HH2 ARG C   9      -6.669 -26.902  -9.502  1.00 40.08 LIG 0.17  HD
ATOM     61 2HH2 ARG C   9      -6.762 -26.363 -10.887  1.00 40.08 LIG 0.17  HD
ENDBRANCH 52 53
ENDBRANCH 51 52
ENDBRANCH 50 51
ENDBRANCH 40 50
ENDBRANCH 38 40
ENDBRANCH 4 36
TORSDOF 20
ENDMDL
MODEL 2
USER: ADFR SOLUTION from run 158
USER: SCORE 20.627570 LL:  -2.763 LR: -18.480 RR:   0.000 FEB: -12.514
USER: RMSD 2.309342
USER: SEED 157
USER: STATUS no improvement in best in 5 clusters for 5 generations
USER: GENES 22
USER: genes 0 Translation |==|  0.62122 0.47302 0.53780
USER: genes 1 Rotation |==|  0.51875 0.53035 0.49491 0.99870
USER: genes 2 Torsion [N]-C--CA-[N] |==|  0.44998
USER: genes 3 Torsion [C]-CA--N-[C] |==|  0.80728
USER: genes 4 Torsion [N]-C--CA-[N] |==|  0.34123
USER: genes 5 Torsion [C]-CA--CB-[CG] |==|  0.36224
USER: genes 6 Torsion [CA]-CB--CG-[CD1] |==|  0.53207
USER: genes 7 Torsion [CE1]-CZ--OH-[HH] |==|  0.28461
USER: genes 8 Torsion [C]-CA--N-[C] |==|  0.66342
USER: genes 9 Torsion [N]-C--CA-[N] |==|  0.14770
USER: genes 10 Torsion [C]-CA--CB-[OG] |==|  0.32784
USER: genes 11 Torsion [CA]-CB--OG-[HG] |==|  0.59722
USER: genes 12 Torsion [C]-CA--CB-[CG] |==|  0.49818
USER: genes 13 Torsion [CA]-CB--CG-[CD2] |==|  0.73167
USER: genes 14 Torsion [N]-CA--C-[O] |==|  0.94005
USER: genes 15 Torsion [C]-N--CA-[CB] |==|  0.51667
USER: genes 16 Torsion [N]-CA--C-[N] |==|  0.46132
USER: genes 17 Torsion [N]-CA--C-[O] |==|  0.03089
USER: genes 18 Torsion [N]-CA--CB-[CG] |==|  0.80275
USER: genes 19 Torsion [CA]-CB--CG-[CD] |==|  0.47952
USER: genes 20 Torsion [CB]-CG--CD-[NE] |==|  0.28149
USER: genes 21 Torsion [CG]-CD--NE-[HE] |==|  0.15195
ROOT
ATOM      1  C   LEU C   7      -0.666 -33.224  -9.074  1.00 32.10 LIG 0.24  C 
ATOM      2 O    LEU C   7      -1.683 -32.646  -9.512  1.00 36.06 LIG-0.27  OA
ATOM      3  N   PRO C   8       0.519 -33.221  -9.730  1.00 34.15 LIG-0.34  N 
ATOM      4  CA  PRO C   8       0.487 -32.521 -11.000  1.00 36.52 LIG 0.18  C 
ATOM      5  CB  PRO C   8       1.932 -32.647 -11.541  1.00 33.63 LIG 0.04  C 
ATOM      6  CG  PRO C   8       2.772 -32.775 -10.319  1.00 36.13 LIG 0.02  C 
ATOM      7  CD  PRO C   8       1.908 -33.551  -9.320  1.00 34.25 LIG 0.13  C 
ENDROOT
BRANCH 1 8
ATOM      8  CA  LEU C   7      -0.721 -33.879  -7.680  1.00 27.99 LIG 0.18  C 
BRANCH 8 9
ATOM      9  N   LEU C   7      -1.882 -33.502  -6.848  1.00 26.55 LIG-0.35  N 
ATOM     10 H    LEU C   7      -2.468 -34.114  -6.705  1.00 26.55 LIG 0.16  HD
ATOM     11  C   TYR C   6      -1.920 -32.279  -6.401  1.00 27.48 LIG 0.24  C 
ATOM     12 O    TYR C   6      -0.962 -31.486  -6.635  1.00 27.70 LIG-0.27  OA
BRANCH 11 13
ATOM     13  CA  TYR C   6      -3.174 -31.869  -5.681  1.00 25.37 LIG 0.18  C 
BRANCH 13 14
ATOM     14  CB  TYR C   6      -3.913 -30.786  -6.489  1.00 25.99 LIG 0.07  C 
BRANCH 14 15
ATOM     15  CG  TYR C   6      -5.400 -31.032  -6.721  1.00 32.28 LIG-0.06  A 
ATOM     16  CD1 TYR C   6      -6.124 -30.258  -7.631  1.00 32.91 LIG 0.01  A 
ATOM     17  CE1 TYR C   6      -7.471 -30.478  -7.852  1.00 37.22 LIG 0.04  A 
ATOM     18  CZ  TYR C   6      -8.121 -31.479  -7.143  1.00 40.59 LIG 0.07  A 
ATOM     19  CE2 TYR C   6      -7.432 -32.258  -6.213  1.00 40.82 LIG 0.04  A 
ATOM     20  CD2 TYR C   6      -6.078 -32.022  -6.000  1.00 36.01 LIG 0.01  A 
BRANCH 18 21
ATOM     21 OH   TYR C   6      -9.464 -31.684  -7.385  1.00 45.73 LIG-0.36  OA
ATOM     22 HH   TYR C   6      -9.560 -32.360  -7.874  1.00 45.73 LIG 0.22  HD
ENDBRANCH 18 21
ENDBRANCH 14 15
ENDBRANCH 13 14
BRANCH 13 23
ATOM     23  N   TYR C   6      -2.940 -31.402  -4.358  1.00 26.32 LIG-0.34  N 
ATOM     24 H    TYR C   6      -2.415 -30.724  -4.294  1.00 26.32 LIG 0.16  HD
ATOM     25  C   SER C   5      -3.512 -32.003  -3.349  1.00 29.69 LIG 0.26  C 
ATOM     26 O    SER C   5      -4.198 -33.063  -3.503  1.00 27.24 LIG-0.27  OA
BRANCH 25 27
ATOM     27  CA  SER C   5      -3.354 -31.264  -1.975  1.00 35.45 LIG 0.42  C 
ATOM     28  N   SER C   5      -3.803 -29.853  -2.095  1.00 39.53 LIG 0.62  N 
BRANCH 27 29
ATOM     29  CB  SER C   5      -4.083 -31.958  -0.826  1.00 42.03 LIG 0.21  C 
BRANCH 29 30
ATOM     30 OG   SER C   5      -3.212 -32.392   0.195  1.00 42.36 LIG-0.40  OA
ATOM     31 HG   SER C   5      -3.496 -33.113   0.519  1.00 42.36 LIG 0.21  HD
ENDBRANCH 29 30
ENDBRANCH 27 29
ENDBRANCH 25 27
ENDBRANCH 13 23
ENDBRANCH 11 13
ENDBRANCH 8 9
BRANCH 8 32
ATOM     32  CB  LEU C   7      -0.607 -35.356  -7.757  1.00 26.58 LIG 0.04  C 
BRANCH 32 33
ATOM     33  CG  LEU C   7      -0.666 -35.810  -6.286  1.00 24.49 LIG-0.02  C 
ATOM     34  CD2 LEU C   7       0.756 -35.988  -5.838  1.00 27.30 LIG 0.01  C 
ATOM     35  CD1 LEU C   7      -1.330 -37.178  -6.288  1.00 29.65 LIG 0.01  C 
ENDBRANCH 32 33
ENDBRANCH 8 32
ENDBRANCH 1 8
BRANCH 4 36
ATOM     36  C   PRO C   8      -0.586 -33.131 -11.917  1.00 40.02 LIG 0.24  C 
ATOM     37 O    PRO C   8      -0.996 -34.272 -11.743  1.00 40.33 LIG-0.27  OA
ATOM     38  N   ARG C   9      -1.087 -32.300 -12.816  1.00 39.93 LIG-0.35  N 
ATOM     39 H    ARG C   9      -0.840 -31.477 -12.867  1.00 39.93 LIG 0.16  HD
BRANCH 38 40
ATOM     40  CA  ARG C   9      -2.090 -32.648 -13.808  1.00 44.47 LIG 0.18  C 
BRANCH 40 41
ATOM     41  C   ARG C   9      -1.622 -33.933 -14.553  1.00 44.78 LIG 0.24  C 
ATOM     42  N   PRO C  10      -2.524 -34.600 -15.316  1.00 46.18 LIG-0.34  N 
ATOM     43  CA  PRO C  10      -2.213 -35.870 -16.044  1.00 48.25 LIG 0.17  C 
ATOM     44  CD  PRO C  10      -3.954 -34.235 -15.420  1.00 48.73 LIG 0.13  C 
ATOM     45  CB  PRO C  10      -3.546 -36.249 -16.719  1.00 49.47 LIG 0.04  C 
ATOM     46  CG  PRO C  10      -4.602 -35.465 -16.005  1.00 52.76 LIG 0.02  C 
ATOM     47 O    ARG C   9      -0.467 -34.339 -14.391  1.00 45.76 LIG-0.27  OA
BRANCH 43 48
ATOM     48  C   PRO C  10      -1.130 -35.794 -17.132  1.00 47.63 LIG 0.22  C 
ATOM     49 O    PRO C  10      -0.422 -34.795 -17.238  1.00 46.26 LIG-0.29  OA
ENDBRANCH 43 48
ENDBRANCH 40 41
BRANCH 40 50
ATOM     50  CB  ARG C   9      -2.288 -31.424 -14.763  1.00 49.80 LIG 0.04  C 
BRANCH 50 51
ATOM     51  CG  ARG C   9      -3.007 -30.218 -14.123  1.00 51.68 LIG 0.02  C 
BRANCH 51 52
ATOM     52  CD  ARG C   9      -3.031 -28.947 -15.035  1.00 46.90 LIG 0.14  C 
BRANCH 52 53
ATOM     53  NE  ARG C   9      -4.339 -28.822 -15.670  1.00 50.11 LIG-0.23  N 
ATOM     54 HE   ARG C   9      -5.020 -28.815 -15.144  1.00 50.11 LIG 0.18  HD
ATOM     55  CZ  ARG C   9      -4.596 -28.717 -16.970  1.00 44.95 LIG 0.67  C 
ATOM     56  NH1 ARG C   9      -5.842 -28.612 -17.348  1.00 55.49 LIG-0.23  N 
ATOM     57  NH2 ARG C   9      -3.655 -28.705 -17.872  1.00 40.08 LIG-0.23  N 
ATOM     58 1HH1 ARG C   9      -6.470 -28.613 -16.760  1.00 55.49 LIG 0.17  HD
ATOM     59 2HH1 ARG C   9      -6.034 -28.543 -18.183  1.00 55.49 LIG 0.17  HD
ATOM     60 1HH2 ARG C   9      -2.831 -28.768 -17.635  1.00 40.08 LIG 0.17  HD
ATOM     61 2HH2 ARG C   9      -3.859 -28.636 -18.705  1.00 40.08 LIG 0.17  HD
ENDBRANCH 52 53
ENDBRANCH 51 52
ENDBRANCH 50 51
ENDBRANCH 40 50
ENDBRANCH 38 40
ENDBRANCH 4 36
TORSDOF 20
ENDMDL
MODEL 3
USER: ADFR SOLUTION from run 82
USER: SCORE 19.484301 LL:  -2.637 LR: -18.458 RR:   0.000 FEB: -12.492
USER: RMSD 10.171883
USER: SEED 81
USER: STATUS no improvement in best in 15 clusters for 5 generations
USER: GENES 22
USER: genes 0 Translation |==|  0.62695 0.47497 0.53150
USER: genes 1 Rotation |==|  0.94399 0.38588 0.69694 0.53258
USER: genes 2 Torsion [N]-C--CA-[N] |==|  0.48740
USER: genes 3 Torsion [C]-CA--N-[C] |==|  0.79952
USER: genes 4 Torsion [N]-C--CA-[N] |==|  0.94688
USER: genes 5 Torsion [C]-CA--CB-[CG] |==|  0.11840
USER: genes 6 Torsion [CA]-CB--CG-[CD1] |==|  0.26570
USER: genes 7 Torsion [CE1]-CZ--OH-[HH] |==|  0.46515
USER: genes 8 Torsion [C]-CA--N-[C] |==|  0.65556
USER: genes 9 Torsion [N]-C--CA-[N] |==|  0.25897
USER: genes 10 Torsion [C]-CA--CB-[OG] |==|  0.51696
USER: genes 11 Torsion [CA]-CB--OG-[HG] |==|  0.41289
USER: genes 12 Torsion [C]-CA--CB-[CG] |==|  0.42764
USER: genes 13 Torsion [CA]-CB--CG-[CD2] |==|  0.73256
USER: genes 14 Torsion [N]-CA--C-[O] |==|  0.92976
USER: genes 15 Torsion [C]-N--CA-[CB] |==|  0.22664
USER: genes 16 Torsion [N]-CA--C-[N] |==|  0.21483
USER: genes 17 Torsion [N]-CA--C-[O] |==|  0.43116
USER: genes 18 Torsion [N]-CA--CB-[CG] |==|  0.41514
USER: genes 19 Torsion [CA]-CB--CG-[CD] |==|  0.32637
USER: genes 20 Torsion [CB]-CG--CD-[NE] |==|  0.28102
USER: genes 21 Torsion [CG]-CD--NE-[HE] |==|  0.04058
ROOT
ATOM      1  C   LEU C   7      -0.546 -33.189  -9.230  1.00 32.10 LIG 0.24  C 
ATOM      2 O    LEU C   7      -1.749 -33.130  -9.559  1.00 36.06 LIG-0.27  OA
ATOM      3  N   PRO C   8      -0.143 -33.469  -7.968  1.00 34.15 LIG-0.34  N 
ATOM      4  CA  PRO C   8      -1.233 -33.656  -7.030  1.00 36.52 LIG 0.18  C 
ATOM      5  CB  PRO C   8      -0.530 -33.969  -5.687  1.00 33.63 LIG 0.04  C 
ATOM      6  CG  PRO C   8       0.765 -34.587  -6.084  1.00 36.13 LIG 0.02  C 
ATOM      7  CD  PRO C   8       1.160 -33.883  -7.386  1.00 34.25 LIG 0.13  C 
ENDROOT
BRANCH 1 8
ATOM      8  CA  LEU C   7       0.534 -33.044 -10.321  1.00 27.99 LIG 0.18  C 
BRANCH 8 9
ATOM      9  N   LEU C   7       0.026 -32.842 -11.693  1.00 26.55 LIG-0.35  N 
ATOM     10 H    LEU C   7       0.123 -32.056 -12.027  1.00 26.55 LIG 0.16  HD
ATOM     11  C   TYR C   6      -0.522 -33.867 -12.280  1.00 27.48 LIG 0.24  C 
ATOM     12 O    TYR C   6      -0.553 -34.991 -11.699  1.00 27.70 LIG-0.27  OA
BRANCH 11 13
ATOM     13  CA  TYR C   6      -1.164 -33.610 -13.615  1.00 25.37 LIG 0.18  C 
BRANCH 13 14
ATOM     14  CB  TYR C   6      -0.261 -34.143 -14.743  1.00 25.99 LIG 0.07  C 
BRANCH 14 15
ATOM     15  CG  TYR C   6       0.372 -35.508 -14.494  1.00 32.28 LIG-0.06  A 
ATOM     16  CD1 TYR C   6      -0.219 -36.675 -14.985  1.00 32.91 LIG 0.01  A 
ATOM     17  CE1 TYR C   6       0.350 -37.916 -14.771  1.00 37.22 LIG 0.04  A 
ATOM     18  CZ  TYR C   6       1.525 -38.006 -14.036  1.00 40.59 LIG 0.07  A 
ATOM     19  CE2 TYR C   6       2.131 -36.863 -13.515  1.00 40.82 LIG 0.04  A 
ATOM     20  CD2 TYR C   6       1.544 -35.622 -13.738  1.00 36.01 LIG 0.01  A 
BRANCH 18 21
ATOM     21 OH   TYR C   6       2.078 -39.255 -13.840  1.00 45.73 LIG-0.36  OA
ATOM     22 HH   TYR C   6       2.857 -39.172 -13.539  1.00 45.73 LIG 0.22  HD
ENDBRANCH 18 21
ENDBRANCH 14 15
ENDBRANCH 13 14
BRANCH 13 23
ATOM     23  N   TYR C   6      -1.458 -32.237 -13.846  1.00 26.32 LIG-0.34  N 
ATOM     24 H    TYR C   6      -0.788 -31.701 -13.779  1.00 26.32 LIG 0.16  HD
ATOM     25  C   SER C   5      -2.680 -31.877 -14.134  1.00 29.69 LIG 0.26  C 
ATOM     26 O    SER C   5      -3.643 -32.706 -14.117  1.00 27.24 LIG-0.27  OA
BRANCH 25 27
ATOM     27  CA  SER C   5      -2.830 -30.381 -14.581  1.00 35.45 LIG 0.42  C 
ATOM     28  N   SER C   5      -2.755 -30.276 -16.061  1.00 39.53 LIG 0.62  N 
BRANCH 27 29
ATOM     29  CB  SER C   5      -4.106 -29.719 -14.066  1.00 42.03 LIG 0.21  C 
BRANCH 29 30
ATOM     30 OG   SER C   5      -4.300 -28.422 -14.583  1.00 42.36 LIG-0.40  OA
ATOM     31 HG   SER C   5      -5.123 -28.267 -14.651  1.00 42.36 LIG 0.21  HD
ENDBRANCH 29 30
ENDBRANCH 27 29
ENDBRANCH 25 27
ENDBRANCH 13 23
ENDBRANCH 11 13
ENDBRANCH 8 9
BRANCH 8 32
ATOM     32  CB  LEU C   7       1.524 -31.991  -9.984  1.00 26.58 LIG 0.04  C 
BRANCH 32 33
ATOM     33  CG  LEU C   7       2.795 -32.422 -10.739  1.00 24.49 LIG-0.02  C 
ATOM     34  CD2 LEU C   7       3.642 -33.174  -9.754  1.00 27.30 LIG 0.01  C 
ATOM     35  CD1 LEU C   7       3.529 -31.141 -11.105  1.00 29.65 LIG 0.01  C 
ENDBRANCH 32 33
ENDBRANCH 8 32
ENDBRANCH 1 8
BRANCH 4 36
ATOM     36  C   PRO C   8      -2.127 -32.406  -6.998  1.00 40.02 LIG 0.24  C 
ATOM     37 O    PRO C   8      -1.690 -31.304  -7.304  1.00 40.33 LIG-0.27  OA
ATOM     38  N   ARG C   9      -3.400 -32.641  -6.724  1.00 39.93 LIG-0.35  N 
ATOM     39 H    ARG C   9      -3.701 -33.436  -6.591  1.00 39.93 LIG 0.16  HD
BRANCH 38 40
ATOM     40  CA  ARG C   9      -4.432 -31.623  -6.611  1.00 44.47 LIG 0.18  C 
BRANCH 40 41
ATOM     41  C   ARG C   9      -5.571 -32.174  -5.703  1.00 44.78 LIG 0.24  C 
ATOM     42  N   PRO C  10      -5.374 -32.187  -4.360  1.00 46.18 LIG-0.34  N 
ATOM     43  CA  PRO C  10      -6.369 -32.732  -3.384  1.00 48.25 LIG 0.17  C 
ATOM     44  CD  PRO C  10      -4.110 -31.790  -3.702  1.00 48.73 LIG 0.13  C 
ATOM     45  CB  PRO C  10      -5.680 -32.560  -2.015  1.00 49.47 LIG 0.04  C 
ATOM     46  CG  PRO C  10      -4.228 -32.361  -2.312  1.00 52.76 LIG 0.02  C 
ATOM     47 O    ARG C   9      -6.593 -32.631  -6.224  1.00 45.76 LIG-0.27  OA
BRANCH 43 48
ATOM     48  C   PRO C  10      -7.734 -32.028  -3.325  1.00 47.63 LIG 0.22  C 
ATOM     49 O    PRO C  10      -8.730 -32.630  -2.929  1.00 46.26 LIG-0.29  OA
ENDBRANCH 43 48
ENDBRANCH 40 41
BRANCH 40 50
ATOM     50  CB  ARG C   9      -4.922 -31.254  -8.050  1.00 49.80 LIG 0.04  C 
BRANCH 50 51
ATOM     51  CG  ARG C   9      -6.399 -30.815  -8.134  1.00 51.68 LIG 0.02  C 
BRANCH 51 52
ATOM     52  CD  ARG C   9      -6.588 -29.343  -8.629  1.00 46.90 LIG 0.14  C 
BRANCH 52 53
ATOM     53  NE  ARG C   9      -6.969 -29.344 -10.038  1.00 50.11 LIG-0.23  N 
ATOM     54 HE   ARG C   9      -7.231 -30.096 -10.363  1.00 50.11 LIG 0.18  HD
ATOM     55  CZ  ARG C   9      -6.958 -28.312 -10.876  1.00 44.95 LIG 0.67  C 
ATOM     56  NH1 ARG C   9      -7.338 -28.512 -12.109  1.00 55.49 LIG-0.23  N 
ATOM     57  NH2 ARG C   9      -6.592 -27.115 -10.510  1.00 40.08 LIG-0.23  N 
ATOM     58 1HH1 ARG C   9      -7.587 -29.296 -12.361  1.00 55.49 LIG 0.17  HD
ATOM     59 2HH1 ARG C   9      -7.339 -27.860 -12.670  1.00 55.49 LIG 0.17  HD
ATOM     60 1HH2 ARG C   9      -6.345 -26.971  -9.699  1.00 40.08 LIG 0.17  HD
ATOM     61 2HH2 ARG C   9      -6.597 -26.471 -11.079  1.00 40.08 LIG 0.17  HD
ENDBRANCH 52 53
ENDBRANCH 51 52
ENDBRANCH 50 51
ENDBRANCH 40 50
ENDBRANCH 38 40
ENDBRANCH 4 36
TORSDOF 20
ENDMDL
MODEL 4
USER: ADFR SOLUTION from run 173
USER: SCORE 18.744821 LL:  -2.473 LR: -18.248 RR:   0.000 FEB: -12.282
USER: RMSD 9.505119
USER: SEED 172
USER: STATUS no improvement in best in 18 clusters for 5 generations
USER: GENES 22
USER: genes 0 Translation |==|  0.64486 0.49324 0.53019
USER: genes 1 Rotation |==|  0.10912 0.72102 0.28082 0.51799
USER: genes 2 Torsion [N]-C--CA-[N] |==|  0.57759
USER: genes 3 Torsion [C]-CA--N-[C] |==|  0.78252
USER: genes 4 Torsion [N]-C--CA-[N] |==|  0.20555
USER: genes 5 Torsion [C]-CA--CB-[CG] |==|  0.35932
USER: genes 6 Torsion [CA]-CB--CG-[CD1] |==|  0.12671
USER: genes 7 Torsion [CE1]-CZ--OH-[HH] |==|  0.81045
USER: genes 8 Torsion [C]-CA--N-[C] |==|  0.78136
USER: genes 9 Torsion [N]-C--CA-[N] |==|  0.40873
USER: genes 10 Torsion [C]-CA--CB-[OG] |==|  0.14827
USER: genes 11 Torsion [CA]-CB--OG-[HG] |==|  0.98536
USER: genes 12 Torsion [C]-CA--CB-[CG] |==|  0.43209
USER: genes 13 Torsion [CA]-CB--CG-[CD2] |==|  0.84778
USER: genes 14 Torsion [N]-CA--C-[O] |==|  0.91362
USER: genes 15 Torsion [C]-N--CA-[CB] |==|  0.56239
USER: genes 16 Torsion [N]-CA--C-[N] |==|  0.83950
USER: genes 17 Torsion [N]-CA--C-[O] |==|  0.51863
USER: genes 18 Torsion [N]-CA--CB-[CG] |==|  0.73917
USER: genes 19 Torsion [CA]-CB--CG-[CD] |==|  0.78737
USER: genes 20 Torsion [CB]-CG--CD-[NE] |==|  0.42162
USER: genes 21 Torsion [CG]-CD--NE-[HE] |==|  0.03651
ROOT
ATOM      1  C   LEU C   7      -0.170 -32.860  -9.263  1.00 32.10 LIG 0.24  C 
ATOM      2 O    LEU C   7      -1.158 -32.278  -9.756  1.00 36.06 LIG-0.27  OA
ATOM      3  N   PRO C   8      -0.241 -33.590  -8.124  1.00 34.15 LIG-0.34  N 
ATOM      4  CA  PRO C   8      -1.556 -33.601  -7.513  1.00 36.52 LIG 0.18  C 
ATOM      5  CB  PRO C   8      -1.385 -34.492  -6.258  1.00 33.63 LIG 0.04  C 
ATOM      6  CG  PRO C   8      -0.272 -35.415  -6.611  1.00 36.13 LIG 0.02  C 
ATOM      7  CD  PRO C   8       0.663 -34.591  -7.501  1.00 34.25 LIG 0.13  C 
ENDROOT
BRANCH 1 8
ATOM      8  CA  LEU C   7       1.167 -32.842 -10.030  1.00 27.99 LIG 0.18  C 
BRANCH 8 9
ATOM      9  N   LEU C   7       1.425 -31.624 -10.826  1.00 26.55 LIG-0.35  N 
ATOM     10 H    LEU C   7       1.966 -31.049 -10.485  1.00 26.55 LIG 0.16  HD
ATOM     11  C   TYR C   6       0.814 -31.524 -11.972  1.00 27.48 LIG 0.24  C 
ATOM     12 O    TYR C   6       0.083 -32.469 -12.388  1.00 27.70 LIG-0.27  OA
BRANCH 11 13
ATOM     13  CA  TYR C   6       0.970 -30.218 -12.701  1.00 25.37 LIG 0.18  C 
BRANCH 13 14
ATOM     14  CB  TYR C   6      -0.118 -30.088 -13.784  1.00 25.99 LIG 0.07  C 
BRANCH 14 15
ATOM     15  CG  TYR C   6      -0.909 -28.784 -13.772  1.00 32.28 LIG-0.06  A 
ATOM     16  CD1 TYR C   6      -0.262 -27.552 -13.642  1.00 32.91 LIG 0.01  A 
ATOM     17  CE1 TYR C   6      -0.969 -26.365 -13.638  1.00 37.22 LIG 0.04  A 
ATOM     18  CZ  TYR C   6      -2.353 -26.398 -13.748  1.00 40.59 LIG 0.07  A 
ATOM     19  CE2 TYR C   6      -3.031 -27.612 -13.860  1.00 40.82 LIG 0.04  A 
ATOM     20  CD2 TYR C   6      -2.305 -28.798 -13.861  1.00 36.01 LIG 0.01  A 
BRANCH 18 21
ATOM     21 OH   TYR C   6      -3.037 -25.199 -13.747  1.00 45.73 LIG-0.36  OA
ATOM     22 HH   TYR C   6      -2.979 -24.845 -12.988  1.00 45.73 LIG 0.22  HD
ENDBRANCH 18 21
ENDBRANCH 14 15
ENDBRANCH 13 14
BRANCH 13 23
ATOM     23  N   TYR C   6       2.254 -30.049 -13.290  1.00 26.32 LIG-0.34  N 
ATOM     24 H    TYR C   6       2.293 -30.197 -14.136  1.00 26.32 LIG 0.16  HD
ATOM     25  C   SER C   5       3.266 -29.693 -12.544  1.00 29.69 LIG 0.26  C 
ATOM     26 O    SER C   5       3.162 -29.588 -11.282  1.00 27.24 LIG-0.27  OA
BRANCH 25 27
ATOM     27  CA  SER C   5       4.566 -29.327 -13.342  1.00 35.45 LIG 0.42  C 
ATOM     28  N   SER C   5       5.320 -28.260 -12.635  1.00 39.53 LIG 0.62  N 
BRANCH 27 29
ATOM     29  CB  SER C   5       5.470 -30.527 -13.611  1.00 42.03 LIG 0.21  C 
BRANCH 29 30
ATOM     30 OG   SER C   5       4.793 -31.596 -14.235  1.00 42.36 LIG-0.40  OA
ATOM     31 HG   SER C   5       3.974 -31.417 -14.291  1.00 42.36 LIG 0.21  HD
ENDBRANCH 29 30
ENDBRANCH 27 29
ENDBRANCH 25 27
ENDBRANCH 13 23
ENDBRANCH 11 13
ENDBRANCH 8 9
BRANCH 8 32
ATOM     32  CB  LEU C   7       2.321 -33.123  -9.140  1.00 26.58 LIG 0.04  C 
BRANCH 32 33
ATOM     33  CG  LEU C   7       3.397 -33.677 -10.093  1.00 24.49 LIG-0.02  C 
ATOM     34  CD2 LEU C   7       2.770 -34.833 -10.818  1.00 27.30 LIG 0.01  C 
ATOM     35  CD1 LEU C   7       4.507 -34.226  -9.210  1.00 29.65 LIG 0.01  C 
ENDBRANCH 32 33
ENDBRANCH 8 32
ENDBRANCH 1 8
BRANCH 4 36
ATOM     36  C   PRO C   8      -2.015 -32.166  -7.211  1.00 40.02 LIG 0.24  C 
ATOM     37 O    PRO C   8      -1.209 -31.286  -6.934  1.00 40.33 LIG-0.27  OA
ATOM     38  N   ARG C   9      -3.309 -31.949  -7.378  1.00 39.93 LIG-0.35  N 
ATOM     39 H    ARG C   9      -3.845 -32.564  -7.651  1.00 39.93 LIG 0.16  HD
BRANCH 38 40
ATOM     40  CA  ARG C   9      -3.984 -30.686  -7.130  1.00 44.47 LIG 0.18  C 
BRANCH 40 41
ATOM     41  C   ARG C   9      -3.293 -29.986  -5.922  1.00 44.78 LIG 0.24  C 
ATOM     42  N   PRO C  10      -3.239 -30.649  -4.739  1.00 46.18 LIG-0.34  N 
ATOM     43  CA  PRO C  10      -2.646 -30.070  -3.493  1.00 48.25 LIG 0.17  C 
ATOM     44  CD  PRO C  10      -3.872 -31.964  -4.495  1.00 48.73 LIG 0.13  C 
ATOM     45  CB  PRO C  10      -2.856 -31.171  -2.434  1.00 49.47 LIG 0.04  C 
ATOM     46  CG  PRO C  10      -3.908 -32.077  -2.992  1.00 52.76 LIG 0.02  C 
ATOM     47 O    ARG C   9      -2.863 -28.836  -6.054  1.00 45.76 LIG-0.27  OA
BRANCH 43 48
ATOM     48  C   PRO C  10      -1.148 -29.728  -3.537  1.00 47.63 LIG 0.22  C 
ATOM     49 O    PRO C  10      -0.561 -29.365  -2.520  1.00 46.26 LIG-0.29  OA
ENDBRANCH 43 48
ENDBRANCH 40 41
BRANCH 40 50
ATOM     50  CB  ARG C   9      -5.502 -30.974  -6.885  1.00 49.80 LIG 0.04  C 
BRANCH 50 51
ATOM     51  CG  ARG C   9      -6.389 -30.864  -8.143  1.00 51.68 LIG 0.02  C 
BRANCH 51 52
ATOM     52  CD  ARG C   9      -6.695 -29.389  -8.566  1.00 46.90 LIG 0.14  C 
BRANCH 52 53
ATOM     53  NE  ARG C   9      -6.917 -29.328 -10.007  1.00 50.11 LIG-0.23  N 
ATOM     54 HE   ARG C   9      -7.031 -30.080 -10.409  1.00 50.11 LIG 0.18  HD
ATOM     55  CZ  ARG C   9      -6.962 -28.239 -10.769  1.00 44.95 LIG 0.67  C 
ATOM     56  NH1 ARG C   9      -7.173 -28.389 -12.049  1.00 55.49 LIG-0.23  N 
ATOM     57  NH2 ARG C   9      -6.813 -27.038 -10.286  1.00 40.08 LIG-0.23  N 
ATOM     58 1HH1 ARG C   9      -7.279 -29.176 -12.379  1.00 55.49 LIG 0.17  HD
ATOM     59 2HH1 ARG C   9      -7.207 -27.700 -12.563  1.00 55.49 LIG 0.17  HD
ATOM     60 1HH2 ARG C   9      -6.678 -26.927  -9.444  1.00 40.08 LIG 0.17  HD
ATOM     61 2HH2 ARG C   9      -6.848 -26.356 -10.809  1.00 40.08 LIG 0.17  HD
ENDBRANCH 52 53
ENDBRANCH 51 52
ENDBRANCH 50 51
ENDBRANCH 40 50
ENDBRANCH 38 40
ENDBRANCH 4 36
TORSDOF 20
ENDMDL
MODEL 5
USER: ADFR SOLUTION from run 82
USER: SCORE 19.997204 LL:  -2.925 LR: -18.073 RR:   0.000 FEB: -12.107
USER: RMSD 9.508441
USER: SEED 81
USER: STATUS no improvement in best in 15 clusters for 5 generations
USER: GENES 22
USER: genes 0 Translation |==|  0.63542 0.47188 0.53604
USER: genes 1 Rotation |==|  0.94578 0.35547 0.67309 0.52076
USER: genes 2 Torsion [N]-C--CA-[N] |==|  0.46004
USER: genes 3 Torsion [C]-CA--N-[C] |==|  0.81100
USER: genes 4 Torsion [N]-C--CA-[N] |==|  0.93643
USER: genes 5 Torsion [C]-CA--CB-[CG] |==|  0.11735
USER: genes 6 Torsion [CA]-CB--CG-[CD1] |==|  0.27382
USER: genes 7 Torsion [CE1]-CZ--OH-[HH] |==|  0.42147
USER: genes 8 Torsion [C]-CA--N-[C] |==|  0.61202
USER: genes 9 Torsion [N]-C--CA-[N] |==|  0.33351
USER: genes 10 Torsion [C]-CA--CB-[OG] |==|  0.53686
USER: genes 11 Torsion [CA]-CB--OG-[HG] |==|  0.35637
USER: genes 12 Torsion [C]-CA--CB-[CG] |==|  0.43512
USER: genes 13 Torsion [CA]-CB--CG-[CD2] |==|  0.74077
USER: genes 14 Torsion [N]-CA--C-[O] |==|  0.96533
USER: genes 15 Torsion [C]-N--CA-[CB] |==|  0.87778
USER: genes 16 Torsion [N]-CA--C-[N] |==|  0.33764
USER: genes 17 Torsion [N]-CA--C-[O] |==|  0.50267
USER: genes 18 Torsion [N]-CA--CB-[CG] |==|  0.33135
USER: genes 19 Torsion [CA]-CB--CG-[CD] |==|  0.47140
USER: genes 20 Torsion [CB]-CG--CD-[NE] |==|  0.26184
USER: genes 21 Torsion [CG]-CD--NE-[HE] |==|  0.85138
ROOT
ATOM      1  C   LEU C   7      -0.368 -33.244  -9.118  1.00 32.10 LIG 0.24  C 
ATOM      2 O    LEU C   7      -1.578 -33.040  -9.349  1.00 36.06 LIG-0.27  OA
ATOM      3  N   PRO C   8       0.085 -33.703  -7.927  1.00 34.15 LIG-0.34  N 
ATOM      4  CA  PRO C   8      -0.956 -33.898  -6.937  1.00 36.52 LIG 0.18  C 
ATOM      5  CB  PRO C   8      -0.204 -34.425  -5.691  1.00 33.63 LIG 0.04  C 
ATOM      6  CG  PRO C   8       0.996 -35.108  -6.248  1.00 36.13 LIG 0.02  C 
ATOM      7  CD  PRO C   8       1.375 -34.297  -7.491  1.00 34.25 LIG 0.13  C 
ENDROOT
BRANCH 1 8
ATOM      8  CA  LEU C   7       0.649 -33.072 -10.263  1.00 27.99 LIG 0.18  C 
BRANCH 8 9
ATOM      9  N   LEU C   7       0.066 -32.894 -11.608  1.00 26.55 LIG-0.35  N 
ATOM     10 H    LEU C   7       0.170 -32.122 -11.973  1.00 26.55 LIG 0.16  HD
ATOM     11  C   TYR C   6      -0.552 -33.916 -12.127  1.00 27.48 LIG 0.24  C 
ATOM     12 O    TYR C   6      -0.586 -35.019 -11.510  1.00 27.70 LIG-0.27  OA
BRANCH 11 13
ATOM     13  CA  TYR C   6      -1.265 -33.675 -13.429  1.00 25.37 LIG 0.18  C 
BRANCH 13 14
ATOM     14  CB  TYR C   6      -0.408 -34.192 -14.600  1.00 25.99 LIG 0.07  C 
BRANCH 14 15
ATOM     15  CG  TYR C   6       0.273 -35.538 -14.378  1.00 32.28 LIG-0.06  A 
ATOM     16  CD1 TYR C   6      -0.280 -36.716 -14.885  1.00 32.91 LIG 0.01  A 
ATOM     17  CE1 TYR C   6       0.333 -37.940 -14.694  1.00 37.22 LIG 0.04  A 
ATOM     18  CZ  TYR C   6       1.515 -38.001 -13.969  1.00 40.59 LIG 0.07  A 
ATOM     19  CE2 TYR C   6       2.085 -36.846 -13.433  1.00 40.82 LIG 0.04  A 
ATOM     20  CD2 TYR C   6       1.454 -35.623 -13.632  1.00 36.01 LIG 0.01  A 
BRANCH 18 21
ATOM     21 OH   TYR C   6       2.112 -39.234 -13.796  1.00 45.73 LIG-0.36  OA
ATOM     22 HH   TYR C   6       2.941 -39.133 -13.710  1.00 45.73 LIG 0.22  HD
ENDBRANCH 18 21
ENDBRANCH 14 15
ENDBRANCH 13 14
BRANCH 13 23
ATOM     23  N   TYR C   6      -1.600 -32.310 -13.647  1.00 26.32 LIG-0.34  N 
ATOM     24 H    TYR C   6      -0.999 -31.741 -13.412  1.00 26.32 LIG 0.16  HD
ATOM     25  C   SER C   5      -2.757 -32.003 -14.171  1.00 29.69 LIG 0.26  C 
ATOM     26 O    SER C   5      -3.641 -32.886 -14.402  1.00 27.24 LIG-0.27  OA
BRANCH 25 27
ATOM     27  CA  SER C   5      -2.915 -30.493 -14.562  1.00 35.45 LIG 0.42  C 
ATOM     28  N   SER C   5      -3.180 -30.364 -16.019  1.00 39.53 LIG 0.62  N 
BRANCH 27 29
ATOM     29  CB  SER C   5      -3.992 -29.768 -13.760  1.00 42.03 LIG 0.21  C 
BRANCH 29 30
ATOM     30 OG   SER C   5      -4.337 -28.514 -14.307  1.00 42.36 LIG-0.40  OA
ATOM     31 HG   SER C   5      -5.170 -28.468 -14.401  1.00 42.36 LIG 0.21  HD
ENDBRANCH 29 30
ENDBRANCH 27 29
ENDBRANCH 25 27
ENDBRANCH 13 23
ENDBRANCH 11 13
ENDBRANCH 8 9
BRANCH 8 32
ATOM     32  CB  LEU C   7       1.623 -31.988  -9.981  1.00 26.58 LIG 0.04  C 
BRANCH 32 33
ATOM     33  CG  LEU C   7       2.841 -32.348 -10.854  1.00 24.49 LIG-0.02  C 
ATOM     34  CD2 LEU C   7       3.765 -33.151  -9.985  1.00 27.30 LIG 0.01  C 
ATOM     35  CD1 LEU C   7       3.533 -31.033 -11.182  1.00 29.65 LIG 0.01  C 
ENDBRANCH 32 33
ENDBRANCH 8 32
ENDBRANCH 1 8
BRANCH 4 36
ATOM     36  C   PRO C   8      -1.721 -32.585  -6.703  1.00 40.02 LIG 0.24  C 
ATOM     37 O    PRO C   8      -1.297 -31.518  -7.130  1.00 40.33 LIG-0.27  OA
ATOM     38  N   ARG C   9      -2.897 -32.724  -6.112  1.00 39.93 LIG-0.35  N 
ATOM     39 H    ARG C   9      -3.211 -33.494  -5.894  1.00 39.93 LIG 0.16  HD
BRANCH 38 40
ATOM     40  CA  ARG C   9      -3.790 -31.632  -5.762  1.00 44.47 LIG 0.18  C 
BRANCH 40 41
ATOM     41  C   ARG C   9      -4.550 -31.186  -7.047  1.00 44.78 LIG 0.24  C 
ATOM     42  N   PRO C  10      -5.906 -31.237  -7.042  1.00 46.18 LIG-0.34  N 
ATOM     43  CA  PRO C  10      -6.751 -30.881  -8.226  1.00 48.25 LIG 0.17  C 
ATOM     44  CD  PRO C  10      -6.714 -31.772  -5.924  1.00 48.73 LIG 0.13  C 
ATOM     45  CB  PRO C  10      -8.193 -31.134  -7.744  1.00 49.47 LIG 0.04  C 
ATOM     46  CG  PRO C  10      -8.072 -32.007  -6.535  1.00 52.76 LIG 0.02  C 
ATOM     47 O    ARG C   9      -3.906 -30.852  -8.045  1.00 45.76 LIG-0.27  OA
BRANCH 43 48
ATOM     48  C   PRO C  10      -6.661 -29.431  -8.726  1.00 47.63 LIG 0.22  C 
ATOM     49 O    PRO C  10      -7.337 -29.057  -9.682  1.00 46.26 LIG-0.29  OA
ENDBRANCH 43 48
ENDBRANCH 40 41
BRANCH 40 50
ATOM     50  CB  ARG C   9      -2.942 -30.483  -5.123  1.00 49.80 LIG 0.04  C 
BRANCH 50 51
ATOM     51  CG  ARG C   9      -2.995 -29.143  -5.888  1.00 51.68 LIG 0.02  C 
BRANCH 51 52
ATOM     52  CD  ARG C   9      -2.356 -27.950  -5.105  1.00 46.90 LIG 0.14  C 
BRANCH 52 53
ATOM     53  NE  ARG C   9      -0.962 -27.789  -5.505  1.00 50.11 LIG-0.23  N 
ATOM     54 HE   ARG C   9      -0.464 -28.489  -5.449  1.00 50.11 LIG 0.18  HD
ATOM     55  CZ  ARG C   9      -0.373 -26.682  -5.948  1.00 44.95 LIG 0.67  C 
ATOM     56  NH1 ARG C   9       0.894 -26.737  -6.260  1.00 55.49 LIG-0.23  N 
ATOM     57  NH2 ARG C   9      -1.014 -25.556  -6.088  1.00 40.08 LIG-0.23  N 
ATOM     58 1HH1 ARG C   9       1.325 -27.477  -6.177  1.00 55.49 LIG 0.17  HD
ATOM     59 2HH1 ARG C   9       1.297 -26.034  -6.548  1.00 55.49 LIG 0.17  HD
ATOM     60 1HH2 ARG C   9      -1.849 -25.509  -5.891  1.00 40.08 LIG 0.17  HD
ATOM     61 2HH2 ARG C   9      -0.601 -24.859  -6.377  1.00 40.08 LIG 0.17  HD
ENDBRANCH 52 53
ENDBRANCH 51 52
ENDBRANCH 50 51
ENDBRANCH 40 50
ENDBRANCH 38 40
ENDBRANCH 4 36
TORSDOF 20
ENDMDL
MODEL 6
USER: ADFR SOLUTION from run 118
USER: SCORE 20.204921 LL:  -2.878 LR: -17.900 RR:   0.000 FEB: -11.934
USER: RMSD 3.445170
USER: SEED 117
USER: STATUS no improvement in best in 3 clusters for 5 generations
USER: GENES 22
USER: genes 0 Translation |==|  0.61012 0.47528 0.54973
USER: genes 1 Rotation |==|  0.50907 0.50997 0.47392 0.99914
USER: genes 2 Torsion [N]-C--CA-[N] |==|  0.42649
USER: genes 3 Torsion [C]-CA--N-[C] |==|  0.82655
USER: genes 4 Torsion [N]-C--CA-[N] |==|  0.29088
USER: genes 5 Torsion [C]-CA--CB-[CG] |==|  0.76039
USER: genes 6 Torsion [CA]-CB--CG-[CD1] |==|  0.71977
USER: genes 7 Torsion [CE1]-CZ--OH-[HH] |==|  0.41041
USER: genes 8 Torsion [C]-CA--N-[C] |==|  0.75297
USER: genes 9 Torsion [N]-C--CA-[N] |==|  0.10635
USER: genes 10 Torsion [C]-CA--CB-[OG] |==|  0.42236
USER: genes 11 Torsion [CA]-CB--OG-[HG] |==|  0.59360
USER: genes 12 Torsion [C]-CA--CB-[CG] |==|  0.43839
USER: genes 13 Torsion [CA]-CB--CG-[CD2] |==|  0.83859
USER: genes 14 Torsion [N]-CA--C-[O] |==|  0.93488
USER: genes 15 Torsion [C]-N--CA-[CB] |==|  0.51668
USER: genes 16 Torsion [N]-CA--C-[N] |==|  0.47044
USER: genes 17 Torsion [N]-CA--C-[O] |==|  0.99337
USER: genes 18 Torsion [N]-CA--CB-[CG] |==|  0.69258
USER: genes 19 Torsion [CA]-CB--CG-[CD] |==|  0.44204
USER: genes 20 Torsion [CB]-CG--CD-[NE] |==|  0.40619
USER: genes 21 Torsion [CG]-CD--NE-[HE] |==|  0.21167
ROOT
ATOM      1  C   LEU C   7      -0.900 -33.183  -8.779  1.00 32.10 LIG 0.24  C 
ATOM      2 O    LEU C   7      -1.827 -32.545  -9.319  1.00 36.06 LIG-0.27  OA
ATOM      3  N   PRO C   8       0.328 -33.309  -9.338  1.00 34.15 LIG-0.34  N 
ATOM      4  CA  PRO C   8       0.452 -32.671 -10.635  1.00 36.52 LIG 0.18  C 
ATOM      5  CB  PRO C   8       1.918 -32.941 -11.053  1.00 33.63 LIG 0.04  C 
ATOM      6  CG  PRO C   8       2.649 -33.080  -9.763  1.00 36.13 LIG 0.02  C 
ATOM      7  CD  PRO C   8       1.648 -33.734  -8.806  1.00 34.25 LIG 0.13  C 
ENDROOT
BRANCH 1 8
ATOM      8  CA  LEU C   7      -1.116 -33.764  -7.368  1.00 27.99 LIG 0.18  C 
BRANCH 8 9
ATOM      9  N   LEU C   7      -2.180 -33.117  -6.573  1.00 26.55 LIG-0.35  N 
ATOM     10 H    LEU C   7      -2.846 -33.611  -6.347  1.00 26.55 LIG 0.16  HD
ATOM     11  C   TYR C   6      -2.019 -31.858  -6.281  1.00 27.48 LIG 0.24  C 
ATOM     12 O    TYR C   6      -0.962 -31.255  -6.625  1.00 27.70 LIG-0.27  OA
BRANCH 11 13
ATOM     13  CA  TYR C   6      -3.174 -31.178  -5.599  1.00 25.37 LIG 0.18  C 
BRANCH 13 14
ATOM     14  CB  TYR C   6      -3.477 -29.836  -6.294  1.00 25.99 LIG 0.07  C 
BRANCH 14 15
ATOM     15  CG  TYR C   6      -2.667 -28.641  -5.804  1.00 32.28 LIG-0.06  A 
ATOM     16  CD1 TYR C   6      -3.219 -27.714  -4.916  1.00 32.91 LIG 0.01  A 
ATOM     17  CE1 TYR C   6      -2.490 -26.630  -4.461  1.00 37.22 LIG 0.04  A 
ATOM     18  CZ  TYR C   6      -1.189 -26.451  -4.910  1.00 40.59 LIG 0.07  A 
ATOM     19  CE2 TYR C   6      -0.614 -27.347  -5.811  1.00 40.82 LIG 0.04  A 
ATOM     20  CD2 TYR C   6      -1.361 -28.431  -6.261  1.00 36.01 LIG 0.01  A 
BRANCH 18 21
ATOM     21 OH   TYR C   6      -0.480 -25.365  -4.437  1.00 45.73 LIG-0.36  OA
ATOM     22 HH   TYR C   6       0.335 -25.563  -4.388  1.00 45.73 LIG 0.22  HD
ENDBRANCH 18 21
ENDBRANCH 14 15
ENDBRANCH 13 14
BRANCH 13 23
ATOM     23  N   TYR C   6      -2.962 -30.959  -4.209  1.00 26.32 LIG-0.34  N 
ATOM     24 H    TYR C   6      -2.604 -30.204  -4.006  1.00 26.32 LIG 0.16  HD
ATOM     25  C   SER C   5      -3.307 -31.880  -3.350  1.00 29.69 LIG 0.26  C 
ATOM     26 O    SER C   5      -3.738 -33.016  -3.724  1.00 27.24 LIG-0.27  OA
BRANCH 25 27
ATOM     27  CA  SER C   5      -3.228 -31.434  -1.849  1.00 35.45 LIG 0.42  C 
ATOM     28  N   SER C   5      -3.678 -30.024  -1.707  1.00 39.53 LIG 0.62  N 
BRANCH 27 29
ATOM     29  CB  SER C   5      -4.014 -32.340  -0.904  1.00 42.03 LIG 0.21  C 
BRANCH 29 30
ATOM     30 OG   SER C   5      -3.485 -32.363   0.403  1.00 42.36 LIG-0.40  OA
ATOM     31 HG   SER C   5      -3.594 -33.126   0.737  1.00 42.36 LIG 0.21  HD
ENDBRANCH 29 30
ENDBRANCH 27 29
ENDBRANCH 25 27
ENDBRANCH 13 23
ENDBRANCH 11 13
ENDBRANCH 8 9
BRANCH 8 32
ATOM     32  CB  LEU C   7      -1.325 -35.233  -7.399  1.00 26.58 LIG 0.04  C 
BRANCH 32 33
ATOM     33  CG  LEU C   7      -0.952 -35.691  -5.976  1.00 24.49 LIG-0.02  C 
ATOM     34  CD2 LEU C   7       0.466 -35.256  -5.747  1.00 27.30 LIG 0.01  C 
ATOM     35  CD1 LEU C   7      -0.977 -37.212  -5.998  1.00 29.65 LIG 0.01  C 
ENDBRANCH 32 33
ENDBRANCH 8 32
ENDBRANCH 1 8
BRANCH 4 36
ATOM     36  C   PRO C   8      -0.596 -33.234 -11.608  1.00 40.02 LIG 0.24  C 
ATOM     37 O    PRO C   8      -1.090 -34.341 -11.439  1.00 40.33 LIG-0.27  OA
ATOM     38  N   ARG C   9      -0.983 -32.394 -12.554  1.00 39.93 LIG-0.35  N 
ATOM     39 H    ARG C   9      -0.680 -31.590 -12.605  1.00 39.93 LIG 0.16  HD
BRANCH 38 40
ATOM     40  CA  ARG C   9      -1.940 -32.701 -13.604  1.00 44.47 LIG 0.18  C 
BRANCH 40 41
ATOM     41  C   ARG C   9      -1.509 -34.031 -14.290  1.00 44.78 LIG 0.24  C 
ATOM     42  N   PRO C  10      -2.376 -34.622 -15.150  1.00 46.18 LIG-0.34  N 
ATOM     43  CA  PRO C  10      -2.102 -35.924 -15.837  1.00 48.25 LIG 0.17  C 
ATOM     44  CD  PRO C  10      -3.747 -34.132 -15.416  1.00 48.73 LIG 0.13  C 
ATOM     45  CB  PRO C  10      -3.379 -36.187 -16.659  1.00 49.47 LIG 0.04  C 
ATOM     46  CG  PRO C  10      -4.433 -35.304 -16.070  1.00 52.76 LIG 0.02  C 
ATOM     47 O    ARG C   9      -0.422 -34.538 -13.997  1.00 45.76 LIG-0.27  OA
BRANCH 43 48
ATOM     48  C   PRO C  10      -0.901 -35.957 -16.795  1.00 47.63 LIG 0.22  C 
ATOM     49 O    PRO C  10      -0.241 -34.942 -17.005  1.00 46.26 LIG-0.29  OA
ENDBRANCH 43 48
ENDBRANCH 40 41
BRANCH 40 50
ATOM     50  CB  ARG C   9      -1.995 -31.492 -14.594  1.00 49.80 LIG 0.04  C 
BRANCH 50 51
ATOM     51  CG  ARG C   9      -3.314 -30.690 -14.559  1.00 51.68 LIG 0.02  C 
BRANCH 51 52
ATOM     52  CD  ARG C   9      -3.182 -29.241 -15.130  1.00 46.90 LIG 0.14  C 
BRANCH 52 53
ATOM     53  NE  ARG C   9      -4.423 -28.859 -15.795  1.00 50.11 LIG-0.23  N 
ATOM     54 HE   ARG C   9      -5.081 -28.645 -15.284  1.00 50.11 LIG 0.18  HD
ATOM     55  CZ  ARG C   9      -4.652 -28.805 -17.104  1.00 44.95 LIG 0.67  C 
ATOM     56  NH1 ARG C   9      -5.838 -28.437 -17.510  1.00 55.49 LIG-0.23  N 
ATOM     57  NH2 ARG C   9      -3.740 -29.096 -17.988  1.00 40.08 LIG-0.23  N 
ATOM     58 1HH1 ARG C   9      -6.446 -28.238 -16.936  1.00 55.49 LIG 0.17  HD
ATOM     59 2HH1 ARG C   9      -6.011 -28.395 -18.351  1.00 55.49 LIG 0.17  HD
ATOM     60 1HH2 ARG C   9      -2.954 -29.334 -17.733  1.00 40.08 LIG 0.17  HD
ATOM     61 2HH2 ARG C   9      -3.923 -29.050 -18.827  1.00 40.08 LIG 0.17  HD
ENDBRANCH 52 53
ENDBRANCH 51 52
ENDBRANCH 50 51
ENDBRANCH 40 50
ENDBRANCH 38 40
ENDBRANCH 4 36
TORSDOF 20
ENDMDL
MODEL 7
USER: ADFR SOLUTION from run 195
USER: SCORE 19.270744 LL:  -3.173 LR: -17.852 RR:   0.000 FEB: -11.886
USER: RMSD 10.138540
USER: SEED 194
USER: STATUS no improvement in best in 9 clusters for 5 generations
USER: GENES 22
USER: genes 0 Translation |==|  0.59819 0.48029 0.53447
USER: genes 1 Rotation |==|  0.96091 0.41106 0.65899 0.56613
USER: genes 2 Torsion [N]-C--CA-[N] |==|  0.95855
USER: genes 3 Torsion [C]-CA--N-[C] |==|  0.66404
USER: genes 4 Torsion [N]-C--CA-[N] |==|  0.17805
USER: genes 5 Torsion [C]-CA--CB-[CG] |==|  0.78302
USER: genes 6 Torsion [CA]-CB--CG-[CD1] |==|  0.25879
USER: genes 7 Torsion [CE1]-CZ--OH-[HH] |==|  0.15760
USER: genes 8 Torsion [C]-CA--N-[C] |==|  0.78502
USER: genes 9 Torsion [N]-C--CA-[N] |==|  0.09122
USER: genes 10 Torsion [C]-CA--CB-[OG] |==|  0.95178
USER: genes 11 Torsion [CA]-CB--OG-[HG] |==|  0.26254
USER: genes 12 Torsion [C]-CA--CB-[CG] |==|  0.71526
USER: genes 13 Torsion [CA]-CB--CG-[CD2] |==|  0.57995
USER: genes 14 Torsion [N]-CA--C-[O] |==|  0.87108
USER: genes 15 Torsion [C]-N--CA-[CB] |==|  0.23254
USER: genes 16 Torsion [N]-CA--C-[N] |==|  0.22342
USER: genes 17 Torsion [N]-CA--C-[O] |==|  0.05536
USER: genes 18 Torsion [N]-CA--CB-[CG] |==|  0.41668
USER: genes 19 Torsion [CA]-CB--CG-[CD] |==|  0.34720
USER: genes 20 Torsion [CB]-CG--CD-[NE] |==|  0.27913
USER: genes 21 Torsion [CG]-CD--NE-[HE] |==|  0.04851
ROOT
ATOM      1  C   LEU C   7      -1.150 -33.093  -9.157  1.00 32.10 LIG 0.24  C 
ATOM      2 O    LEU C   7      -2.395 -33.111  -9.243  1.00 36.06 LIG-0.27  OA
ATOM      3  N   PRO C   8      -0.494 -33.204  -7.977  1.00 34.15 LIG-0.34  N 
ATOM      4  CA  PRO C   8      -1.369 -33.306  -6.825  1.00 36.52 LIG 0.18  C 
ATOM      5  CB  PRO C   8      -0.402 -33.430  -5.622  1.00 33.63 LIG 0.04  C 
ATOM      6  CG  PRO C   8       0.821 -34.054  -6.197  1.00 36.13 LIG 0.02  C 
ATOM      7  CD  PRO C   8       0.917 -33.503  -7.623  1.00 34.25 LIG 0.13  C 
ENDROOT
BRANCH 1 8
ATOM      8  CA  LEU C   7      -0.313 -33.051 -10.450  1.00 27.99 LIG 0.18  C 
BRANCH 8 9
ATOM      9  N   LEU C   7       1.130 -32.792 -10.263  1.00 26.55 LIG-0.35  N 
ATOM     10 H    LEU C   7       1.561 -33.352  -9.774  1.00 26.55 LIG 0.16  HD
ATOM     11  C   TYR C   6       1.625 -31.742 -10.854  1.00 27.48 LIG 0.24  C 
ATOM     12 O    TYR C   6       0.894 -31.025 -11.597  1.00 27.70 LIG-0.27  OA
BRANCH 11 13
ATOM     13  CA  TYR C   6       3.057 -31.410 -10.536  1.00 25.37 LIG 0.18  C 
BRANCH 13 14
ATOM     14  CB  TYR C   6       3.433 -30.054 -11.164  1.00 25.99 LIG 0.07  C 
BRANCH 14 15
ATOM     15  CG  TYR C   6       3.727 -30.076 -12.660  1.00 32.28 LIG-0.06  A 
ATOM     16  CD1 TYR C   6       2.723 -29.809 -13.594  1.00 32.91 LIG 0.01  A 
ATOM     17  CE1 TYR C   6       2.981 -29.820 -14.952  1.00 37.22 LIG 0.04  A 
ATOM     18  CZ  TYR C   6       4.260 -30.121 -15.397  1.00 40.59 LIG 0.07  A 
ATOM     19  CE2 TYR C   6       5.282 -30.412 -14.492  1.00 40.82 LIG 0.04  A 
ATOM     20  CD2 TYR C   6       5.005 -30.398 -13.129  1.00 36.01 LIG 0.01  A 
BRANCH 18 21
ATOM     21 OH   TYR C   6       4.495 -30.120 -16.757  1.00 45.73 LIG-0.36  OA
ATOM     22 HH   TYR C   6       4.289 -29.372 -17.077  1.00 45.73 LIG 0.22  HD
ENDBRANCH 18 21
ENDBRANCH 14 15
ENDBRANCH 13 14
BRANCH 13 23
ATOM     23  N   TYR C   6       3.978 -32.407 -10.965  1.00 26.32 LIG-0.34  N 
ATOM     24 H    TYR C   6       4.411 -32.222 -11.684  1.00 26.32 LIG 0.16  HD
ATOM     25  C   SER C   5       4.110 -33.505 -10.271  1.00 29.69 LIG 0.26  C 
ATOM     26 O    SER C   5       3.366 -33.760  -9.273  1.00 27.24 LIG-0.27  OA
BRANCH 25 27
ATOM     27  CA  SER C   5       5.304 -34.418 -10.718  1.00 35.45 LIG 0.42  C 
ATOM     28  N   SER C   5       6.429 -33.586 -11.218  1.00 39.53 LIG 0.62  N 
BRANCH 27 29
ATOM     29  CB  SER C   5       5.789 -35.363  -9.622  1.00 42.03 LIG 0.21  C 
BRANCH 29 30
ATOM     30 OG   SER C   5       5.356 -34.980  -8.335  1.00 42.36 LIG-0.40  OA
ATOM     31 HG   SER C   5       4.648 -35.390  -8.143  1.00 42.36 LIG 0.21  HD
ENDBRANCH 29 30
ENDBRANCH 27 29
ENDBRANCH 25 27
ENDBRANCH 13 23
ENDBRANCH 11 13
ENDBRANCH 8 9
BRANCH 8 32
ATOM     32  CB  LEU C   7      -0.509 -34.267 -11.278  1.00 26.58 LIG 0.04  C 
BRANCH 32 33
ATOM     33  CG  LEU C   7       0.755 -35.106 -11.009  1.00 24.49 LIG-0.02  C 
ATOM     34  CD2 LEU C   7       0.995 -35.922 -12.246  1.00 27.30 LIG 0.01  C 
ATOM     35  CD1 LEU C   7       0.401 -36.061  -9.880  1.00 29.65 LIG 0.01  C 
ENDBRANCH 32 33
ENDBRANCH 8 32
ENDBRANCH 1 8
BRANCH 4 36
ATOM     36  C   PRO C   8      -2.306 -32.089  -6.758  1.00 40.02 LIG 0.24  C 
ATOM     37 O    PRO C   8      -1.881 -30.951  -6.910  1.00 40.33 LIG-0.27  OA
ATOM     38  N   ARG C   9      -3.590 -32.383  -6.634  1.00 39.93 LIG-0.35  N 
ATOM     39 H    ARG C   9      -3.874 -33.195  -6.610  1.00 39.93 LIG 0.16  HD
BRANCH 38 40
ATOM     40  CA  ARG C   9      -4.663 -31.409  -6.524  1.00 44.47 LIG 0.18  C 
BRANCH 40 41
ATOM     41  C   ARG C   9      -5.842 -32.060  -5.742  1.00 44.78 LIG 0.24  C 
ATOM     42  N   PRO C  10      -5.768 -32.108  -4.388  1.00 46.18 LIG-0.34  N 
ATOM     43  CA  PRO C  10      -6.811 -32.748  -3.525  1.00 48.25 LIG 0.17  C 
ATOM     44  CD  PRO C  10      -4.597 -31.659  -3.604  1.00 48.73 LIG 0.13  C 
ATOM     45  CB  PRO C  10      -6.262 -32.583  -2.094  1.00 49.47 LIG 0.04  C 
ATOM     46  CG  PRO C  10      -4.804 -32.284  -2.248  1.00 52.76 LIG 0.02  C 
ATOM     47 O    ARG C   9      -6.782 -32.559  -6.370  1.00 45.76 LIG-0.27  OA
BRANCH 43 48
ATOM     48  C   PRO C  10      -8.218 -32.131  -3.572  1.00 47.63 LIG 0.22  C 
ATOM     49 O    PRO C  10      -8.559 -31.426  -4.520  1.00 46.26 LIG-0.29  OA
ENDBRANCH 43 48
ENDBRANCH 40 41
BRANCH 40 50
ATOM     50  CB  ARG C   9      -5.065 -30.949  -7.965  1.00 49.80 LIG 0.04  C 
BRANCH 50 51
ATOM     51  CG  ARG C   9      -6.544 -30.537  -8.120  1.00 51.68 LIG 0.02  C 
BRANCH 51 52
ATOM     52  CD  ARG C   9      -6.736 -29.099  -8.702  1.00 46.90 LIG 0.14  C 
BRANCH 52 53
ATOM     53  NE  ARG C   9      -7.054 -29.182 -10.124  1.00 50.11 LIG-0.23  N 
ATOM     54 HE   ARG C   9      -7.325 -29.946 -10.411  1.00 50.11 LIG 0.18  HD
ATOM     55  CZ  ARG C   9      -6.974 -28.208 -11.026  1.00 44.95 LIG 0.67  C 
ATOM     56  NH1 ARG C   9      -7.305 -28.479 -12.260  1.00 55.49 LIG-0.23  N 
ATOM     57  NH2 ARG C   9      -6.587 -27.001 -10.722  1.00 40.08 LIG-0.23  N 
ATOM     58 1HH1 ARG C   9      -7.567 -29.271 -12.471  1.00 55.49 LIG 0.17  HD
ATOM     59 2HH1 ARG C   9      -7.261 -27.866 -12.862  1.00 55.49 LIG 0.17  HD
ATOM     60 1HH2 ARG C   9      -6.372 -26.810  -9.912  1.00 40.08 LIG 0.17  HD
ATOM     61 2HH2 ARG C   9      -6.547 -26.396 -11.332  1.00 40.08 LIG 0.17  HD
ENDBRANCH 52 53
ENDBRANCH 51 52
ENDBRANCH 50 51
ENDBRANCH 40 50
ENDBRANCH 38 40
ENDBRANCH 4 36
TORSDOF 20
ENDMDL
MODEL 8
USER: ADFR SOLUTION from run 107
USER: SCORE 20.323925 LL:  -3.625 LR: -17.770 RR:   0.000 FEB: -11.804
USER: RMSD 4.210980
USER: SEED 106
USER: STATUS no improvement in best in 5 clusters for 5 generations
USER: GENES 22
USER: genes 0 Translation |==|  0.67081 0.44282 0.59452
USER: genes 1 Rotation |==|  0.44506 0.53024 0.03811 0.68089
USER: genes 2 Torsion [N]-C--CA-[N] |==|  0.89604
USER: genes 3 Torsion [C]-CA--N-[C] |==|  0.81342
USER: genes 4 Torsion [N]-C--CA-[N] |==|  0.17955
USER: genes 5 Torsion [C]-CA--CB-[CG] |==|  0.35995
USER: genes 6 Torsion [CA]-CB--CG-[CD1] |==|  0.54213
USER: genes 7 Torsion [CE1]-CZ--OH-[HH] |==|  0.30316
USER: genes 8 Torsion [C]-CA--N-[C] |==|  0.62453
USER: genes 9 Torsion [N]-C--CA-[N] |==|  0.35144
USER: genes 10 Torsion [C]-CA--CB-[OG] |==|  0.61144
USER: genes 11 Torsion [CA]-CB--OG-[HG] |==|  0.30778
USER: genes 12 Torsion [C]-CA--CB-[CG] |==|  0.95037
USER: genes 13 Torsion [CA]-CB--CG-[CD2] |==|  0.67568
USER: genes 14 Torsion [N]-CA--C-[O] |==|  0.95678
USER: genes 15 Torsion [C]-N--CA-[CB] |==|  0.80000
USER: genes 16 Torsion [N]-CA--C-[N] |==|  0.16122
USER: genes 17 Torsion [N]-CA--C-[O] |==|  0.12916
USER: genes 18 Torsion [N]-CA--CB-[CG] |==|  0.57404
USER: genes 19 Torsion [CA]-CB--CG-[CD] |==|  0.73104
USER: genes 20 Torsion [CB]-CG--CD-[NE] |==|  0.86407
USER: genes 21 Torsion [CG]-CD--NE-[HE] |==|  0.16019
ROOT
ATOM      1  C   LEU C   7       0.375 -33.767  -7.671  1.00 32.10 LIG 0.24  C 
ATOM      2 O    LEU C   7       1.256 -33.469  -8.503  1.00 36.06 LIG-0.27  OA
ATOM      3  N   PRO C   8      -0.657 -34.595  -7.959  1.00 34.15 LIG-0.34  N 
ATOM      4  CA  PRO C   8      -0.667 -35.070  -9.329  1.00 36.52 LIG 0.18  C 
ATOM      5  CB  PRO C   8      -1.911 -35.988  -9.406  1.00 33.63 LIG 0.04  C 
ATOM      6  CG  PRO C   8      -2.086 -36.487  -8.014  1.00 36.13 LIG 0.02  C 
ATOM      7  CD  PRO C   8      -1.636 -35.330  -7.116  1.00 34.25 LIG 0.13  C 
ENDROOT
BRANCH 1 8
ATOM      8  CA  LEU C   7       0.517 -33.264  -6.221  1.00 27.99 LIG 0.18  C 
BRANCH 8 9
ATOM      9  N   LEU C   7      -0.751 -32.966  -5.526  1.00 26.55 LIG-0.35  N 
ATOM     10 H    LEU C   7      -0.958 -33.476  -4.866  1.00 26.55 LIG 0.16  HD
ATOM     11  C   TYR C   6      -1.448 -31.958  -5.969  1.00 27.48 LIG 0.24  C 
ATOM     12 O    TYR C   6      -1.005 -31.246  -6.916  1.00 27.70 LIG-0.27  OA
BRANCH 11 13
ATOM     13  CA  TYR C   6      -2.803 -31.757  -5.348  1.00 25.37 LIG 0.18  C 
BRANCH 13 14
ATOM     14  CB  TYR C   6      -3.570 -30.659  -6.108  1.00 25.99 LIG 0.07  C 
BRANCH 14 15
ATOM     15  CG  TYR C   6      -4.987 -31.021  -6.542  1.00 32.28 LIG-0.06  A 
ATOM     16  CD1 TYR C   6      -5.666 -30.255  -7.492  1.00 32.91 LIG 0.01  A 
ATOM     17  CE1 TYR C   6      -6.947 -30.579  -7.898  1.00 37.22 LIG 0.04  A 
ATOM     18  CZ  TYR C   6      -7.578 -31.680  -7.336  1.00 40.59 LIG 0.07  A 
ATOM     19  CE2 TYR C   6      -6.936 -32.456  -6.370  1.00 40.82 LIG 0.04  A 
ATOM     20  CD2 TYR C   6      -5.647 -32.115  -5.972  1.00 36.01 LIG 0.01  A 
BRANCH 18 21
ATOM     21 OH   TYR C   6      -8.855 -31.988  -7.760  1.00 45.73 LIG-0.36  OA
ATOM     22 HH   TYR C   6      -8.835 -32.690  -8.221  1.00 45.73 LIG 0.22  HD
ENDBRANCH 18 21
ENDBRANCH 14 15
ENDBRANCH 13 14
BRANCH 13 23
ATOM     23  N   TYR C   6      -2.749 -31.434  -3.964  1.00 26.32 LIG-0.34  N 
ATOM     24 H    TYR C   6      -2.163 -30.843  -3.746  1.00 26.32 LIG 0.16  HD
ATOM     25  C   SER C   5      -3.560 -32.027  -3.129  1.00 29.69 LIG 0.26  C 
ATOM     26 O    SER C   5      -4.333 -32.965  -3.501  1.00 27.24 LIG-0.27  OA
BRANCH 25 27
ATOM     27  CA  SER C   5      -3.555 -31.429  -1.679  1.00 35.45 LIG 0.42  C 
ATOM     28  N   SER C   5      -4.938 -31.083  -1.261  1.00 39.53 LIG 0.62  N 
BRANCH 27 29
ATOM     29  CB  SER C   5      -2.901 -32.344  -0.648  1.00 42.03 LIG 0.21  C 
BRANCH 29 30
ATOM     30 OG   SER C   5      -3.587 -32.362   0.585  1.00 42.36 LIG-0.40  OA
ATOM     31 HG   SER C   5      -3.949 -33.113   0.694  1.00 42.36 LIG 0.21  HD
ENDBRANCH 29 30
ENDBRANCH 27 29
ENDBRANCH 25 27
ENDBRANCH 13 23
ENDBRANCH 11 13
ENDBRANCH 8 9
BRANCH 8 32
ATOM     32  CB  LEU C   7       1.348 -34.176  -5.396  1.00 26.58 LIG 0.04  C 
BRANCH 32 33
ATOM     33  CG  LEU C   7       1.359 -35.493  -6.196  1.00 24.49 LIG-0.02  C 
ATOM     34  CD2 LEU C   7       0.683 -36.520  -5.335  1.00 27.30 LIG 0.01  C 
ATOM     35  CD1 LEU C   7       2.820 -35.891  -6.340  1.00 29.65 LIG 0.01  C 
ENDBRANCH 32 33
ENDBRANCH 8 32
ENDBRANCH 1 8
BRANCH 4 36
ATOM     36  C   PRO C   8      -0.697 -33.882 -10.303  1.00 40.02 LIG 0.24  C 
ATOM     37 O    PRO C   8      -0.992 -32.756  -9.923  1.00 40.33 LIG-0.27  OA
ATOM     38  N   ARG C   9      -0.285 -34.159 -11.530  1.00 39.93 LIG-0.35  N 
ATOM     39 H    ARG C   9      -0.006 -34.941 -11.753  1.00 39.93 LIG 0.16  HD
BRANCH 38 40
ATOM     40  CA  ARG C   9      -0.247 -33.212 -12.632  1.00 44.47 LIG 0.18  C 
BRANCH 40 41
ATOM     41  C   ARG C   9       0.500 -31.931 -12.156  1.00 44.78 LIG 0.24  C 
ATOM     42  N   PRO C  10       1.772 -32.059 -11.701  1.00 46.18 LIG-0.34  N 
ATOM     43  CA  PRO C  10       2.580 -30.915 -11.172  1.00 48.25 LIG 0.17  C 
ATOM     44  CD  PRO C  10       2.471 -33.353 -11.543  1.00 48.73 LIG 0.13  C 
ATOM     45  CB  PRO C  10       3.913 -31.565 -10.750  1.00 49.47 LIG 0.04  C 
ATOM     46  CG  PRO C  10       3.636 -33.031 -10.642  1.00 52.76 LIG 0.02  C 
ATOM     47 O    ARG C   9      -0.095 -30.849 -12.155  1.00 45.76 LIG-0.27  OA
BRANCH 43 48
ATOM     48  C   PRO C  10       2.893 -29.779 -12.159  1.00 47.63 LIG 0.22  C 
ATOM     49 O    PRO C  10       2.008 -29.310 -12.871  1.00 46.26 LIG-0.29  OA
ENDBRANCH 43 48
ENDBRANCH 40 41
BRANCH 40 50
ATOM     50  CB  ARG C   9      -1.715 -32.929 -13.092  1.00 49.80 LIG 0.04  C 
BRANCH 50 51
ATOM     51  CG  ARG C   9      -1.856 -32.504 -14.569  1.00 51.68 LIG 0.02  C 
BRANCH 51 52
ATOM     52  CD  ARG C   9      -1.937 -30.955 -14.771  1.00 46.90 LIG 0.14  C 
BRANCH 52 53
ATOM     53  NE  ARG C   9      -2.925 -30.391 -13.857  1.00 50.11 LIG-0.23  N 
ATOM     54 HE   ARG C   9      -2.797 -30.537 -13.018  1.00 50.11 LIG 0.18  HD
ATOM     55  CZ  ARG C   9      -4.000 -29.677 -14.173  1.00 44.95 LIG 0.67  C 
ATOM     56  NH1 ARG C   9      -4.771 -29.256 -13.206  1.00 55.49 LIG-0.23  N 
ATOM     57  NH2 ARG C   9      -4.305 -29.377 -15.405  1.00 40.08 LIG-0.23  N 
ATOM     58 1HH1 ARG C   9      -4.576 -29.444 -12.389  1.00 55.49 LIG 0.17  HD
ATOM     59 2HH1 ARG C   9      -5.472 -28.793 -13.386  1.00 55.49 LIG 0.17  HD
ATOM     60 1HH2 ARG C   9      -3.803 -29.644 -16.049  1.00 40.08 LIG 0.17  HD
ATOM     61 2HH2 ARG C   9      -5.010 -28.913 -15.573  1.00 40.08 LIG 0.17  HD
ENDBRANCH 52 53
ENDBRANCH 51 52
ENDBRANCH 50 51
ENDBRANCH 40 50
ENDBRANCH 38 40
ENDBRANCH 4 36
TORSDOF 20
ENDMDL
MODEL 9
USER: ADFR SOLUTION from run 80
USER: SCORE 18.982236 LL:  -3.033 LR: -17.760 RR:   0.000 FEB: -11.794
USER: RMSD 10.267910
USER: SEED 79
USER: STATUS no improvement in best in 8 clusters for 5 generations
USER: GENES 22
USER: genes 0 Translation |==|  0.62202 0.51483 0.50805
USER: genes 1 Rotation |==|  0.03755 0.62794 0.35942 0.50348
USER: genes 2 Torsion [N]-C--CA-[N] |==|  0.14212
USER: genes 3 Torsion [C]-CA--N-[C] |==|  0.16667
USER: genes 4 Torsion [N]-C--CA-[N] |==|  0.07969
USER: genes 5 Torsion [C]-CA--CB-[CG] |==|  0.35310
USER: genes 6 Torsion [CA]-CB--CG-[CD1] |==|  0.81049
USER: genes 7 Torsion [CE1]-CZ--OH-[HH] |==|  0.12961
USER: genes 8 Torsion [C]-CA--N-[C] |==|  0.17162
USER: genes 9 Torsion [N]-C--CA-[N] |==|  0.03546
USER: genes 10 Torsion [C]-CA--CB-[OG] |==|  0.30640
USER: genes 11 Torsion [CA]-CB--OG-[HG] |==|  0.78183
USER: genes 12 Torsion [C]-CA--CB-[CG] |==|  0.46401
USER: genes 13 Torsion [CA]-CB--CG-[CD2] |==|  0.65394
USER: genes 14 Torsion [N]-CA--C-[O] |==|  0.85690
USER: genes 15 Torsion [C]-N--CA-[CB] |==|  0.29893
USER: genes 16 Torsion [N]-CA--C-[N] |==|  0.26008
USER: genes 17 Torsion [N]-CA--C-[O] |==|  0.29913
USER: genes 18 Torsion [N]-CA--CB-[CG] |==|  0.39237
USER: genes 19 Torsion [CA]-CB--CG-[CD] |==|  0.36689
USER: genes 20 Torsion [CB]-CG--CD-[NE] |==|  0.22930
USER: genes 21 Torsion [CG]-CD--NE-[HE] |==|  0.05393
ROOT
ATOM      1  C   LEU C   7      -0.650 -32.471  -9.811  1.00 32.10 LIG 0.24  C 
ATOM      2 O    LEU C   7      -1.893 -32.382  -9.886  1.00 36.06 LIG-0.27  OA
ATOM      3  N   PRO C   8      -0.015 -32.990  -8.733  1.00 34.15 LIG-0.34  N 
ATOM      4  CA  PRO C   8      -0.906 -33.396  -7.663  1.00 36.52 LIG 0.18  C 
ATOM      5  CB  PRO C   8       0.038 -33.954  -6.571  1.00 33.63 LIG 0.04  C 
ATOM      6  CG  PRO C   8       1.226 -34.440  -7.325  1.00 36.13 LIG 0.02  C 
ATOM      7  CD  PRO C   8       1.371 -33.475  -8.505  1.00 34.25 LIG 0.13  C 
ENDROOT
BRANCH 1 8
ATOM      8  CA  LEU C   7       0.202 -32.076 -11.033  1.00 27.99 LIG 0.18  C 
BRANCH 8 9
ATOM      9  N   LEU C   7       1.126 -33.118 -11.525  1.00 26.55 LIG-0.35  N 
ATOM     10 H    LEU C   7       1.963 -32.922 -11.524  1.00 26.55 LIG 0.16  HD
ATOM     11  C   TYR C   6       0.598 -34.242 -11.918  1.00 27.48 LIG 0.24  C 
ATOM     12 O    TYR C   6      -0.649 -34.428 -11.816  1.00 27.70 LIG-0.27  OA
BRANCH 11 13
ATOM     13  CA  TYR C   6       1.532 -35.234 -12.552  1.00 25.37 LIG 0.18  C 
BRANCH 13 14
ATOM     14  CB  TYR C   6       1.012 -36.666 -12.323  1.00 25.99 LIG 0.07  C 
BRANCH 14 15
ATOM     15  CG  TYR C   6       0.867 -37.525 -13.574  1.00 32.28 LIG-0.06  A 
ATOM     16  CD1 TYR C   6      -0.101 -37.232 -14.539  1.00 32.91 LIG 0.01  A 
ATOM     17  CE1 TYR C   6      -0.235 -38.000 -15.680  1.00 37.22 LIG 0.04  A 
ATOM     18  CZ  TYR C   6       0.597 -39.096 -15.863  1.00 40.59 LIG 0.07  A 
ATOM     19  CE2 TYR C   6       1.561 -39.428 -14.910  1.00 40.82 LIG 0.04  A 
ATOM     20  CD2 TYR C   6       1.682 -38.646 -13.767  1.00 36.01 LIG 0.01  A 
BRANCH 18 21
ATOM     21 OH   TYR C   6       0.447 -39.845 -17.012  1.00 45.73 LIG-0.36  OA
ATOM     22 HH   TYR C   6       0.399 -39.333 -17.676  1.00 45.73 LIG 0.22  HD
ENDBRANCH 18 21
ENDBRANCH 14 15
ENDBRANCH 13 14
BRANCH 13 23
ATOM     23  N   TYR C   6       2.872 -35.131 -12.083  1.00 26.32 LIG-0.34  N 
ATOM     24 H    TYR C   6       3.457 -34.931 -12.680  1.00 26.32 LIG 0.16  HD
ATOM     25  C   SER C   5       3.131 -35.337 -10.819  1.00 29.69 LIG 0.26  C 
ATOM     26 O    SER C   5       2.235 -35.728 -10.007  1.00 27.24 LIG-0.27  OA
BRANCH 25 27
ATOM     27  CA  SER C   5       4.596 -34.979 -10.388  1.00 35.45 LIG 0.42  C 
ATOM     28  N   SER C   5       5.270 -34.196 -11.456  1.00 39.53 LIG 0.62  N 
BRANCH 27 29
ATOM     29  CB  SER C   5       4.672 -34.236  -9.057  1.00 42.03 LIG 0.21  C 
BRANCH 29 30
ATOM     30 OG   SER C   5       5.235 -35.014  -8.024  1.00 42.36 LIG-0.40  OA
ATOM     31 HG   SER C   5       4.659 -35.552  -7.731  1.00 42.36 LIG 0.21  HD
ENDBRANCH 29 30
ENDBRANCH 27 29
ENDBRANCH 25 27
ENDBRANCH 13 23
ENDBRANCH 11 13
ENDBRANCH 8 9
BRANCH 8 32
ATOM     32  CB  LEU C   7      -0.632 -31.566 -12.149  1.00 26.58 LIG 0.04  C 
BRANCH 32 33
ATOM     33  CG  LEU C   7       0.387 -30.926 -13.111  1.00 24.49 LIG-0.02  C 
ATOM     34  CD2 LEU C   7      -0.058 -29.508 -13.321  1.00 27.30 LIG 0.01  C 
ATOM     35  CD1 LEU C   7       0.244 -31.662 -14.434  1.00 29.65 LIG 0.01  C 
ENDBRANCH 32 33
ENDBRANCH 8 32
ENDBRANCH 1 8
BRANCH 4 36
ATOM     36  C   PRO C   8      -1.765 -32.206  -7.207  1.00 40.02 LIG 0.24  C 
ATOM     37 O    PRO C   8      -1.257 -31.133  -6.907  1.00 40.33 LIG-0.27  OA
ATOM     38  N   ARG C   9      -3.072 -32.407  -7.270  1.00 39.93 LIG-0.35  N 
ATOM     39 H    ARG C   9      -3.408 -33.143  -7.561  1.00 39.93 LIG 0.16  HD
BRANCH 38 40
ATOM     40  CA  ARG C   9      -4.086 -31.445  -6.869  1.00 44.47 LIG 0.18  C 
BRANCH 40 41
ATOM     41  C   ARG C   9      -5.085 -32.154  -5.908  1.00 44.78 LIG 0.24  C 
ATOM     42  N   PRO C  10      -4.867 -32.065  -4.572  1.00 46.18 LIG-0.34  N 
ATOM     43  CA  PRO C  10      -5.725 -32.738  -3.547  1.00 48.25 LIG 0.17  C 
ATOM     44  CD  PRO C  10      -3.688 -31.407  -3.965  1.00 48.73 LIG 0.13  C 
ATOM     45  CB  PRO C  10      -5.058 -32.374  -2.206  1.00 49.47 LIG 0.04  C 
ATOM     46  CG  PRO C  10      -3.673 -31.922  -2.548  1.00 52.76 LIG 0.02  C 
ATOM     47 O    ARG C   9      -6.012 -32.819  -6.382  1.00 45.76 LIG-0.27  OA
BRANCH 43 48
ATOM     48  C   PRO C  10      -7.197 -32.299  -3.484  1.00 47.63 LIG 0.22  C 
ATOM     49 O    PRO C  10      -8.087 -33.043  -3.889  1.00 46.26 LIG-0.29  OA
ENDBRANCH 43 48
ENDBRANCH 40 41
BRANCH 40 50
ATOM     50  CB  ARG C   9      -4.771 -30.882  -8.158  1.00 49.80 LIG 0.04  C 
BRANCH 50 51
ATOM     51  CG  ARG C   9      -6.293 -30.662  -8.033  1.00 51.68 LIG 0.02  C 
BRANCH 51 52
ATOM     52  CD  ARG C   9      -6.769 -29.263  -8.546  1.00 46.90 LIG 0.14  C 
BRANCH 52 53
ATOM     53  NE  ARG C   9      -6.926 -29.299  -9.996  1.00 50.11 LIG-0.23  N 
ATOM     54 HE   ARG C   9      -7.006 -30.077 -10.354  1.00 50.11 LIG 0.18  HD
ATOM     55  CZ  ARG C   9      -6.962 -28.262 -10.828  1.00 44.95 LIG 0.67  C 
ATOM     56  NH1 ARG C   9      -7.112 -28.498 -12.104  1.00 55.49 LIG-0.23  N 
ATOM     57  NH2 ARG C   9      -6.862 -27.030 -10.417  1.00 40.08 LIG-0.23  N 
ATOM     58 1HH1 ARG C   9      -7.185 -29.308 -12.386  1.00 55.49 LIG 0.17  HD
ATOM     59 2HH1 ARG C   9      -7.138 -27.844 -12.662  1.00 55.49 LIG 0.17  HD
ATOM     60 1HH2 ARG C   9      -6.768 -26.862  -9.579  1.00 40.08 LIG 0.17  HD
ATOM     61 2HH2 ARG C   9      -6.889 -26.384 -10.984  1.00 40.08 LIG 0.17  HD
ENDBRANCH 52 53
ENDBRANCH 51 52
ENDBRANCH 50 51
ENDBRANCH 40 50
ENDBRANCH 38 40
ENDBRANCH 4 36
TORSDOF 20
ENDMDL
MODEL 10
USER: ADFR SOLUTION from run 82
USER: SCORE 18.534633 LL:  -2.618 LR: -17.755 RR:   0.000 FEB: -11.789
USER: RMSD 9.804408
USER: SEED 81
USER: STATUS no improvement in best in 15 clusters for 5 generations
USER: GENES 22
USER: genes 0 Translation |==|  0.61234 0.48358 0.52630
USER: genes 1 Rotation |==|  0.95390 0.38233 0.67006 0.53480
USER: genes 2 Torsion [N]-C--CA-[N] |==|  0.50972
USER: genes 3 Torsion [C]-CA--N-[C] |==|  0.76601
USER: genes 4 Torsion [N]-C--CA-[N] |==|  0.02109
USER: genes 5 Torsion [C]-CA--CB-[CG] |==|  0.30650
USER: genes 6 Torsion [CA]-CB--CG-[CD1] |==|  0.10976
USER: genes 7 Torsion [CE1]-CZ--OH-[HH] |==|  0.15592
USER: genes 8 Torsion [C]-CA--N-[C] |==|  0.63514
USER: genes 9 Torsion [N]-C--CA-[N] |==|  0.50321
USER: genes 10 Torsion [C]-CA--CB-[OG] |==|  0.15345
USER: genes 11 Torsion [CA]-CB--OG-[HG] |==|  0.36411
USER: genes 12 Torsion [C]-CA--CB-[CG] |==|  0.41824
USER: genes 13 Torsion [CA]-CB--CG-[CD2] |==|  0.76382
USER: genes 14 Torsion [N]-CA--C-[O] |==|  0.89003
USER: genes 15 Torsion [C]-N--CA-[CB] |==|  0.24600
USER: genes 16 Torsion [N]-CA--C-[N] |==|  0.22635
USER: genes 17 Torsion [N]-CA--C-[O] |==|  0.34445
USER: genes 18 Torsion [N]-CA--CB-[CG] |==|  0.41514
USER: genes 19 Torsion [CA]-CB--CG-[CD] |==|  0.35507
USER: genes 20 Torsion [CB]-CG--CD-[NE] |==|  0.27066
USER: genes 21 Torsion [CG]-CD--NE-[HE] |==|  0.03597
ROOT
ATOM      1  C   LEU C   7      -0.853 -33.034  -9.359  1.00 32.10 LIG 0.24  C 
ATOM      2 O    LEU C   7      -2.084 -32.951  -9.549  1.00 36.06 LIG-0.27  OA
ATOM      3  N   PRO C   8      -0.315 -33.351  -8.157  1.00 34.15 LIG-0.34  N 
ATOM      4  CA  PRO C   8      -1.296 -33.548  -7.107  1.00 36.52 LIG 0.18  C 
ATOM      5  CB  PRO C   8      -0.453 -33.904  -5.859  1.00 33.63 LIG 0.04  C 
ATOM      6  CG  PRO C   8       0.780 -34.529  -6.414  1.00 36.13 LIG 0.02  C 
ATOM      7  CD  PRO C   8       1.038 -33.797  -7.734  1.00 34.25 LIG 0.13  C 
ENDROOT
BRANCH 1 8
ATOM      8  CA  LEU C   7       0.101 -32.874 -10.559  1.00 27.99 LIG 0.18  C 
BRANCH 8 9
ATOM      9  N   LEU C   7      -0.536 -32.449 -11.823  1.00 26.55 LIG-0.35  N 
ATOM     10 H    LEU C   7      -0.518 -31.608 -11.999  1.00 26.55 LIG 0.16  HD
ATOM     11  C   TYR C   6      -1.069 -33.380 -12.561  1.00 27.48 LIG 0.24  C 
ATOM     12 O    TYR C   6      -0.979 -34.594 -12.218  1.00 27.70 LIG-0.27  OA
BRANCH 11 13
ATOM     13  CA  TYR C   6      -1.840 -32.918 -13.767  1.00 25.37 LIG 0.18  C 
BRANCH 13 14
ATOM     14  CB  TYR C   6      -1.384 -33.701 -15.013  1.00 25.99 LIG 0.07  C 
BRANCH 14 15
ATOM     15  CG  TYR C   6      -2.400 -34.686 -15.582  1.00 32.28 LIG-0.06  A 
ATOM     16  CD1 TYR C   6      -3.759 -34.367 -15.635  1.00 32.91 LIG 0.01  A 
ATOM     17  CE1 TYR C   6      -4.687 -35.250 -16.155  1.00 37.22 LIG 0.04  A 
ATOM     18  CZ  TYR C   6      -4.261 -36.486 -16.619  1.00 40.59 LIG 0.07  A 
ATOM     19  CE2 TYR C   6      -2.914 -36.845 -16.564  1.00 40.82 LIG 0.04  A 
ATOM     20  CD2 TYR C   6      -1.993 -35.945 -16.036  1.00 36.01 LIG 0.01  A 
BRANCH 18 21
ATOM     21 OH   TYR C   6      -5.204 -37.349 -17.140  1.00 45.73 LIG-0.36  OA
ATOM     22 HH   TYR C   6      -5.617 -36.969 -17.764  1.00 45.73 LIG 0.22  HD
ENDBRANCH 18 21
ENDBRANCH 14 15
ENDBRANCH 13 14
BRANCH 13 23
ATOM     23  N   TYR C   6      -1.724 -31.521 -14.011  1.00 26.32 LIG-0.34  N 
ATOM     24 H    TYR C   6      -0.922 -31.211 -13.999  1.00 26.32 LIG 0.16  HD
ATOM     25  C   SER C   5      -2.798 -30.812 -14.232  1.00 29.69 LIG 0.26  C 
ATOM     26 O    SER C   5      -3.962 -31.314 -14.135  1.00 27.24 LIG-0.27  OA
BRANCH 25 27
ATOM     27  CA  SER C   5      -2.523 -29.342 -14.703  1.00 35.45 LIG 0.42  C 
ATOM     28  N   SER C   5      -3.804 -28.615 -14.898  1.00 39.53 LIG 0.62  N 
BRANCH 27 29
ATOM     29  CB  SER C   5      -1.609 -28.564 -13.760  1.00 42.03 LIG 0.21  C 
BRANCH 29 30
ATOM     30 OG   SER C   5      -0.378 -29.211 -13.528  1.00 42.36 LIG-0.40  OA
ATOM     31 HG   SER C   5       0.252 -28.665 -13.636  1.00 42.36 LIG 0.21  HD
ENDBRANCH 29 30
ENDBRANCH 27 29
ENDBRANCH 25 27
ENDBRANCH 13 23
ENDBRANCH 11 13
ENDBRANCH 8 9
BRANCH 8 32
ATOM     32  CB  LEU C   7       1.248 -31.987 -10.243  1.00 26.58 LIG 0.04  C 
BRANCH 32 33
ATOM     33  CG  LEU C   7       2.383 -32.516 -11.140  1.00 24.49 LIG-0.02  C 
ATOM     34  CD2 LEU C   7       3.027 -33.646 -10.391  1.00 27.30 LIG 0.01  C 
ATOM     35  CD1 LEU C   7       3.399 -31.389 -11.249  1.00 29.65 LIG 0.01  C 
ENDBRANCH 32 33
ENDBRANCH 8 32
ENDBRANCH 1 8
BRANCH 4 36
ATOM     36  C   PRO C   8      -2.162 -32.289  -6.945  1.00 40.02 LIG 0.24  C 
ATOM     37 O    PRO C   8      -1.675 -31.168  -7.021  1.00 40.33 LIG-0.27  OA
ATOM     38  N   ARG C   9      -3.460 -32.518  -6.828  1.00 39.93 LIG-0.35  N 
ATOM     39 H    ARG C   9      -3.789 -33.312  -6.859  1.00 39.93 LIG 0.16  HD
BRANCH 38 40
ATOM     40  CA  ARG C   9      -4.476 -31.495  -6.639  1.00 44.47 LIG 0.18  C 
BRANCH 40 41
ATOM     41  C   ARG C   9      -5.630 -32.099  -5.785  1.00 44.78 LIG 0.24  C 
ATOM     42  N   PRO C  10      -5.477 -32.146  -4.437  1.00 46.18 LIG-0.34  N 
ATOM     43  CA  PRO C  10      -6.490 -32.743  -3.511  1.00 48.25 LIG 0.17  C 
ATOM     44  CD  PRO C  10      -4.245 -31.740  -3.726  1.00 48.73 LIG 0.13  C 
ATOM     45  CB  PRO C  10      -5.851 -32.595  -2.116  1.00 49.47 LIG 0.04  C 
ATOM     46  CG  PRO C  10      -4.394 -32.354  -2.357  1.00 52.76 LIG 0.02  C 
ATOM     47 O    ARG C   9      -6.623 -32.564  -6.353  1.00 45.76 LIG-0.27  OA
BRANCH 43 48
ATOM     48  C   PRO C  10      -7.873 -32.073  -3.477  1.00 47.63 LIG 0.22  C 
ATOM     49 O    PRO C  10      -8.889 -32.727  -3.702  1.00 46.26 LIG-0.29  OA
ENDBRANCH 43 48
ENDBRANCH 40 41
BRANCH 40 50
ATOM     50  CB  ARG C   9      -4.949 -31.000  -8.045  1.00 49.80 LIG 0.04  C 
BRANCH 50 51
ATOM     51  CG  ARG C   9      -6.418 -30.530  -8.100  1.00 51.68 LIG 0.02  C 
BRANCH 51 52
ATOM     52  CD  ARG C   9      -6.596 -29.104  -8.718  1.00 46.90 LIG 0.14  C 
BRANCH 52 53
ATOM     53  NE  ARG C   9      -6.958 -29.220 -10.127  1.00 50.11 LIG-0.23  N 
ATOM     54 HE   ARG C   9      -7.196 -30.001 -10.398  1.00 50.11 LIG 0.18  HD
ATOM     55  CZ  ARG C   9      -6.962 -28.253 -11.039  1.00 44.95 LIG 0.67  C 
ATOM     56  NH1 ARG C   9      -7.320 -28.555 -12.259  1.00 55.49 LIG-0.23  N 
ATOM     57  NH2 ARG C   9      -6.631 -27.024 -10.760  1.00 40.08 LIG-0.23  N 
ATOM     58 1HH1 ARG C   9      -7.546 -29.362 -12.453  1.00 55.49 LIG 0.17  HD
ATOM     59 2HH1 ARG C   9      -7.330 -27.947 -12.867  1.00 55.49 LIG 0.17  HD
ATOM     60 1HH2 ARG C   9      -6.399 -26.812  -9.960  1.00 40.08 LIG 0.17  HD
ATOM     61 2HH2 ARG C   9      -6.645 -26.424 -11.376  1.00 40.08 LIG 0.17  HD
ENDBRANCH 52 53
ENDBRANCH 51 52
ENDBRANCH 50 51
ENDBRANCH 40 50
ENDBRANCH 38 40
ENDBRANCH 4 36
TORSDOF 20
ENDMDL
MODEL 11
USER: ADFR SOLUTION from run 80
USER: SCORE 18.879707 LL:  -3.260 LR: -17.753 RR:   0.000 FEB: -11.787
USER: RMSD 10.352755
USER: SEED 79
USER: STATUS no improvement in best in 8 clusters for 5 generations
USER: GENES 22
USER: genes 0 Translation |==|  0.58630 0.47827 0.52879
USER: genes 1 Rotation |==|  0.96833 0.43927 0.64129 0.58378
USER: genes 2 Torsion [N]-C--CA-[N] |==|  0.07037
USER: genes 3 Torsion [C]-CA--N-[C] |==|  0.19206
USER: genes 4 Torsion [N]-C--CA-[N] |==|  0.78794
USER: genes 5 Torsion [C]-CA--CB-[CG] |==|  0.78702
USER: genes 6 Torsion [CA]-CB--CG-[CD1] |==|  0.80098
USER: genes 7 Torsion [CE1]-CZ--OH-[HH] |==|  0.70462
USER: genes 8 Torsion [C]-CA--N-[C] |==|  0.82143
USER: genes 9 Torsion [N]-C--CA-[N] |==|  0.66013
USER: genes 10 Torsion [C]-CA--CB-[OG] |==|  0.32387
USER: genes 11 Torsion [CA]-CB--OG-[HG] |==|  0.92120
USER: genes 12 Torsion [C]-CA--CB-[CG] |==|  0.38501
USER: genes 13 Torsion [CA]-CB--CG-[CD2] |==|  0.53524
USER: genes 14 Torsion [N]-CA--C-[O] |==|  0.86110
USER: genes 15 Torsion [C]-N--CA-[CB] |==|  0.22778
USER: genes 16 Torsion [N]-CA--C-[N] |==|  0.20847
USER: genes 17 Torsion [N]-CA--C-[O] |==|  0.33184
USER: genes 18 Torsion [N]-CA--CB-[CG] |==|  0.44872
USER: genes 19 Torsion [CA]-CB--CG-[CD] |==|  0.34131
USER: genes 20 Torsion [CB]-CG--CD-[NE] |==|  0.26023
USER: genes 21 Torsion [CG]-CD--NE-[HE] |==|  0.03654
ROOT
ATOM      1  C   LEU C   7      -1.400 -33.129  -9.298  1.00 32.10 LIG 0.24  C 
ATOM      2 O    LEU C   7      -2.642 -33.245  -9.251  1.00 36.06 LIG-0.27  OA
ATOM      3  N   PRO C   8      -0.624 -33.087  -8.188  1.00 34.15 LIG-0.34  N 
ATOM      4  CA  PRO C   8      -1.369 -33.151  -6.946  1.00 36.52 LIG 0.18  C 
ATOM      5  CB  PRO C   8      -0.282 -33.098  -5.845  1.00 33.63 LIG 0.04  C 
ATOM      6  CG  PRO C   8       0.926 -33.679  -6.494  1.00 36.13 LIG 0.02  C 
ATOM      7  CD  PRO C   8       0.835 -33.251  -7.961  1.00 34.25 LIG 0.13  C 
ENDROOT
BRANCH 1 8
ATOM      8  CA  LEU C   7      -0.700 -33.140 -10.671  1.00 27.99 LIG 0.18  C 
BRANCH 8 9
ATOM      9  N   LEU C   7       0.676 -33.678 -10.677  1.00 26.55 LIG-0.35  N 
ATOM     10 H    LEU C   7       1.309 -33.115 -10.822  1.00 26.55 LIG 0.16  HD
ATOM     11  C   TYR C   6       0.814 -34.955 -10.463  1.00 27.48 LIG 0.24  C 
ATOM     12 O    TYR C   6      -0.197 -35.671 -10.205  1.00 27.70 LIG-0.27  OA
BRANCH 11 13
ATOM     13  CA  TYR C   6       2.202 -35.513 -10.618  1.00 25.37 LIG 0.18  C 
BRANCH 13 14
ATOM     14  CB  TYR C   6       3.214 -34.613  -9.884  1.00 25.99 LIG 0.07  C 
BRANCH 14 15
ATOM     15  CG  TYR C   6       3.579 -33.313 -10.592  1.00 32.28 LIG-0.06  A 
ATOM     16  CD1 TYR C   6       4.374 -33.319 -11.741  1.00 32.91 LIG 0.01  A 
ATOM     17  CE1 TYR C   6       4.704 -32.146 -12.395  1.00 37.22 LIG 0.04  A 
ATOM     18  CZ  TYR C   6       4.250 -30.936 -11.889  1.00 40.59 LIG 0.07  A 
ATOM     19  CE2 TYR C   6       3.469 -30.893 -10.733  1.00 40.82 LIG 0.04  A 
ATOM     20  CD2 TYR C   6       3.148 -32.082 -10.086  1.00 36.01 LIG 0.01  A 
BRANCH 18 21
ATOM     21 OH   TYR C   6       4.588 -29.779 -12.561  1.00 45.73 LIG-0.36  OA
ATOM     22 HH   TYR C   6       5.174 -29.364 -12.127  1.00 45.73 LIG 0.22  HD
ENDBRANCH 18 21
ENDBRANCH 14 15
ENDBRANCH 13 14
BRANCH 13 23
ATOM     23  N   TYR C   6       2.600 -35.672 -11.975  1.00 26.32 LIG-0.34  N 
ATOM     24 H    TYR C   6       3.262 -35.182 -12.224  1.00 26.32 LIG 0.16  HD
ATOM     25  C   SER C   5       1.964 -36.518 -12.741  1.00 29.69 LIG 0.26  C 
ATOM     26 O    SER C   5       0.929 -37.136 -12.338  1.00 27.24 LIG-0.27  OA
BRANCH 25 27
ATOM     27  CA  SER C   5       2.633 -36.762 -14.138  1.00 35.45 LIG 0.42  C 
ATOM     28  N   SER C   5       1.679 -36.435 -15.229  1.00 39.53 LIG 0.62  N 
BRANCH 27 29
ATOM     29  CB  SER C   5       3.939 -35.996 -14.327  1.00 42.03 LIG 0.21  C 
BRANCH 29 30
ATOM     30 OG   SER C   5       5.056 -36.843 -14.489  1.00 42.36 LIG-0.40  OA
ATOM     31 HG   SER C   5       4.918 -37.569 -14.089  1.00 42.36 LIG 0.21  HD
ENDBRANCH 29 30
ENDBRANCH 27 29
ENDBRANCH 25 27
ENDBRANCH 13 23
ENDBRANCH 11 13
ENDBRANCH 8 9
BRANCH 8 32
ATOM     32  CB  LEU C   7      -1.518 -33.822 -11.705  1.00 26.58 LIG 0.04  C 
BRANCH 32 33
ATOM     33  CG  LEU C   7      -1.355 -32.933 -12.952  1.00 24.49 LIG-0.02  C 
ATOM     34  CD2 LEU C   7      -2.396 -33.383 -13.935  1.00 27.30 LIG 0.01  C 
ATOM     35  CD1 LEU C   7       0.011 -33.262 -13.534  1.00 29.65 LIG 0.01  C 
ENDBRANCH 32 33
ENDBRANCH 8 32
ENDBRANCH 1 8
BRANCH 4 36
ATOM     36  C   PRO C   8      -2.392 -32.005  -6.879  1.00 40.02 LIG 0.24  C 
ATOM     37 O    PRO C   8      -2.063 -30.846  -7.103  1.00 40.33 LIG-0.27  OA
ATOM     38  N   ARG C   9      -3.641 -32.386  -6.671  1.00 39.93 LIG-0.35  N 
ATOM     39 H    ARG C   9      -3.861 -33.215  -6.597  1.00 39.93 LIG 0.16  HD
BRANCH 38 40
ATOM     40  CA  ARG C   9      -4.778 -31.490  -6.543  1.00 44.47 LIG 0.18  C 
BRANCH 40 41
ATOM     41  C   ARG C   9      -5.880 -32.206  -5.707  1.00 44.78 LIG 0.24  C 
ATOM     42  N   PRO C  10      -5.701 -32.315  -4.366  1.00 46.18 LIG-0.34  N 
ATOM     43  CA  PRO C  10      -6.660 -33.020  -3.458  1.00 48.25 LIG 0.17  C 
ATOM     44  CD  PRO C  10      -4.483 -31.872  -3.652  1.00 48.73 LIG 0.13  C 
ATOM     45  CB  PRO C  10      -6.007 -32.907  -2.067  1.00 49.47 LIG 0.04  C 
ATOM     46  CG  PRO C  10      -4.572 -32.565  -2.316  1.00 52.76 LIG 0.02  C 
ATOM     47 O    ARG C   9      -6.853 -32.700  -6.285  1.00 45.76 LIG-0.27  OA
BRANCH 43 48
ATOM     48  C   PRO C  10      -8.080 -32.437  -3.370  1.00 47.63 LIG 0.22  C 
ATOM     49 O    PRO C  10      -9.053 -33.114  -3.695  1.00 46.26 LIG-0.29  OA
ENDBRANCH 43 48
ENDBRANCH 40 41
BRANCH 40 50
ATOM     50  CB  ARG C   9      -5.261 -31.093  -7.978  1.00 49.80 LIG 0.04  C 
BRANCH 50 51
ATOM     51  CG  ARG C   9      -6.695 -30.526  -8.041  1.00 51.68 LIG 0.02  C 
BRANCH 51 52
ATOM     52  CD  ARG C   9      -6.776 -29.099  -8.674  1.00 46.90 LIG 0.14  C 
BRANCH 52 53
ATOM     53  NE  ARG C   9      -7.057 -29.210 -10.102  1.00 50.11 LIG-0.23  N 
ATOM     54 HE   ARG C   9      -7.312 -29.982 -10.383  1.00 50.11 LIG 0.18  HD
ATOM     55  CZ  ARG C   9      -6.962 -28.252 -11.019  1.00 44.95 LIG 0.67  C 
ATOM     56  NH1 ARG C   9      -7.259 -28.547 -12.256  1.00 55.49 LIG-0.23  N 
ATOM     57  NH2 ARG C   9      -6.594 -27.036 -10.727  1.00 40.08 LIG-0.23  N 
ATOM     58 1HH1 ARG C   9      -7.508 -29.345 -12.460  1.00 55.49 LIG 0.17  HD
ATOM     59 2HH1 ARG C   9      -7.205 -27.945 -12.867  1.00 55.49 LIG 0.17  HD
ATOM     60 1HH2 ARG C   9      -6.402 -26.828  -9.915  1.00 40.08 LIG 0.17  HD
ATOM     61 2HH2 ARG C   9      -6.544 -26.441 -11.346  1.00 40.08 LIG 0.17  HD
ENDBRANCH 52 53
ENDBRANCH 51 52
ENDBRANCH 50 51
ENDBRANCH 40 50
ENDBRANCH 38 40
ENDBRANCH 4 36
TORSDOF 20
ENDMDL
MODEL 12
USER: ADFR SOLUTION from run 108
USER: SCORE 19.527572 LL:  -2.951 LR: -17.744 RR:   0.000 FEB: -11.778
USER: RMSD 2.767068
USER: SEED 107
USER: STATUS no improvement in best in 7 clusters for 5 generations
USER: GENES 22
USER: genes 0 Translation |==|  0.60430 0.45904 0.54530
USER: genes 1 Rotation |==|  0.53327 0.53149 0.52012 0.99749
USER: genes 2 Torsion [N]-C--CA-[N] |==|  0.38153
USER: genes 3 Torsion [C]-CA--N-[C] |==|  0.83886
USER: genes 4 Torsion [N]-C--CA-[N] |==|  0.57756
USER: genes 5 Torsion [C]-CA--CB-[CG] |==|  0.75810
USER: genes 6 Torsion [CA]-CB--CG-[CD1] |==|  0.09040
USER: genes 7 Torsion [CE1]-CZ--OH-[HH] |==|  0.09171
USER: genes 8 Torsion [C]-CA--N-[C] |==|  0.72873
USER: genes 9 Torsion [N]-C--CA-[N] |==|  0.34998
USER: genes 10 Torsion [C]-CA--CB-[OG] |==|  0.24653
USER: genes 11 Torsion [CA]-CB--OG-[HG] |==|  0.52984
USER: genes 12 Torsion [C]-CA--CB-[CG] |==|  0.46431
USER: genes 13 Torsion [CA]-CB--CG-[CD2] |==|  0.70021
USER: genes 14 Torsion [N]-CA--C-[O] |==|  0.97914
USER: genes 15 Torsion [C]-N--CA-[CB] |==|  0.50556
USER: genes 16 Torsion [N]-CA--C-[N] |==|  0.47404
USER: genes 17 Torsion [N]-CA--C-[O] |==|  0.90199
USER: genes 18 Torsion [N]-CA--CB-[CG] |==|  0.76277
USER: genes 19 Torsion [CA]-CB--CG-[CD] |==|  0.44917
USER: genes 20 Torsion [CB]-CG--CD-[NE] |==|  0.35856
USER: genes 21 Torsion [CG]-CD--NE-[HE] |==|  0.18419
ROOT
ATOM      1  C   LEU C   7      -1.022 -33.475  -8.889  1.00 32.10 LIG 0.24  C 
ATOM      2 O    LEU C   7      -2.091 -32.973  -9.291  1.00 36.06 LIG-0.27  OA
ATOM      3  N   PRO C   8       0.155 -33.315  -9.540  1.00 34.15 LIG-0.34  N 
ATOM      4  CA  PRO C   8       0.051 -32.542 -10.763  1.00 36.52 LIG 0.18  C 
ATOM      5  CB  PRO C   8       1.500 -32.492 -11.307  1.00 33.63 LIG 0.04  C 
ATOM      6  CG  PRO C   8       2.353 -32.616 -10.093  1.00 36.13 LIG 0.02  C 
ATOM      7  CD  PRO C   8       1.571 -33.535  -9.149  1.00 34.25 LIG 0.13  C 
ENDROOT
BRANCH 1 8
ATOM      8  CA  LEU C   7      -1.008 -34.221  -7.540  1.00 27.99 LIG 0.18  C 
BRANCH 8 9
ATOM      9  N   LEU C   7      -1.840 -33.623  -6.476  1.00 26.55 LIG-0.35  N 
ATOM     10 H    LEU C   7      -2.451 -34.124  -6.138  1.00 26.55 LIG 0.16  HD
ATOM     11  C   TYR C   6      -1.580 -32.391  -6.141  1.00 27.48 LIG 0.24  C 
ATOM     12 O    TYR C   6      -0.613 -31.776  -6.678  1.00 27.70 LIG-0.27  OA
BRANCH 11 13
ATOM     13  CA  TYR C   6      -2.526 -31.749  -5.165  1.00 25.37 LIG 0.18  C 
BRANCH 13 14
ATOM     14  CB  TYR C   6      -3.930 -32.367  -5.312  1.00 25.99 LIG 0.07  C 
BRANCH 14 15
ATOM     15  CG  TYR C   6      -4.830 -31.722  -6.361  1.00 32.28 LIG-0.06  A 
ATOM     16  CD1 TYR C   6      -4.292 -31.173  -7.528  1.00 32.91 LIG 0.01  A 
ATOM     17  CE1 TYR C   6      -5.100 -30.593  -8.489  1.00 37.22 LIG 0.04  A 
ATOM     18  CZ  TYR C   6      -6.471 -30.540  -8.281  1.00 40.59 LIG 0.07  A 
ATOM     19  CE2 TYR C   6      -7.038 -31.063  -7.118  1.00 40.82 LIG 0.04  A 
ATOM     20  CD2 TYR C   6      -6.212 -31.641  -6.161  1.00 36.01 LIG 0.01  A 
BRANCH 18 21
ATOM     21 OH   TYR C   6      -7.257 -29.961  -9.256  1.00 45.73 LIG-0.36  OA
ATOM     22 HH   TYR C   6      -6.919 -30.106 -10.011  1.00 45.73 LIG 0.22  HD
ENDBRANCH 18 21
ENDBRANCH 14 15
ENDBRANCH 13 14
BRANCH 13 23
ATOM     23  N   TYR C   6      -2.609 -30.336  -5.303  1.00 26.32 LIG-0.34  N 
ATOM     24 H    TYR C   6      -3.138 -30.056  -5.921  1.00 26.32 LIG 0.16  HD
ATOM     25  C   SER C   5      -1.905 -29.567  -4.516  1.00 29.69 LIG 0.26  C 
ATOM     26 O    SER C   5      -1.065 -30.045  -3.690  1.00 27.24 LIG-0.27  OA
BRANCH 25 27
ATOM     27  CA  SER C   5      -2.249 -28.040  -4.618  1.00 35.45 LIG 0.42  C 
ATOM     28  N   SER C   5      -2.569 -27.494  -3.274  1.00 39.53 LIG 0.62  N 
BRANCH 27 29
ATOM     29  CB  SER C   5      -1.149 -27.214  -5.279  1.00 42.03 LIG 0.21  C 
BRANCH 29 30
ATOM     30 OG   SER C   5      -1.283 -27.140  -6.682  1.00 42.36 LIG-0.40  OA
ATOM     31 HG   SER C   5      -0.587 -26.807  -7.014  1.00 42.36 LIG 0.21  HD
ENDBRANCH 29 30
ENDBRANCH 27 29
ENDBRANCH 25 27
ENDBRANCH 13 23
ENDBRANCH 11 13
ENDBRANCH 8 9
BRANCH 8 32
ATOM     32  CB  LEU C   7      -1.338 -35.659  -7.698  1.00 26.58 LIG 0.04  C 
BRANCH 32 33
ATOM     33  CG  LEU C   7      -0.954 -36.279  -6.341  1.00 24.49 LIG-0.02  C 
ATOM     34  CD2 LEU C   7       0.288 -37.088  -6.579  1.00 27.30 LIG 0.01  C 
ATOM     35  CD1 LEU C   7      -2.075 -37.240  -5.978  1.00 29.65 LIG 0.01  C 
ENDBRANCH 32 33
ENDBRANCH 8 32
ENDBRANCH 1 8
BRANCH 4 36
ATOM     36  C   PRO C   8      -0.960 -33.193 -11.719  1.00 40.02 LIG 0.24  C 
ATOM     37 O    PRO C   8      -1.451 -34.289 -11.477  1.00 40.33 LIG-0.27  OA
ATOM     38  N   ARG C   9      -1.323 -32.437 -12.743  1.00 39.93 LIG-0.35  N 
ATOM     39 H    ARG C   9      -1.026 -31.637 -12.849  1.00 39.93 LIG 0.16  HD
BRANCH 38 40
ATOM     40  CA  ARG C   9      -2.244 -32.839 -13.794  1.00 44.47 LIG 0.18  C 
BRANCH 40 41
ATOM     41  C   ARG C   9      -1.723 -34.165 -14.425  1.00 44.78 LIG 0.24  C 
ATOM     42  N   PRO C  10      -2.529 -34.823 -15.295  1.00 46.18 LIG-0.34  N 
ATOM     43  CA  PRO C  10      -2.166 -36.128 -15.933  1.00 48.25 LIG 0.17  C 
ATOM     44  CD  PRO C  10      -3.912 -34.411 -15.622  1.00 48.73 LIG 0.13  C 
ATOM     45  CB  PRO C  10      -3.399 -36.480 -16.789  1.00 49.47 LIG 0.04  C 
ATOM     46  CG  PRO C  10      -4.516 -35.635 -16.263  1.00 52.76 LIG 0.02  C 
ATOM     47 O    ARG C   9      -0.623 -34.607 -14.080  1.00 45.76 LIG-0.27  OA
BRANCH 43 48
ATOM     48  C   PRO C  10      -0.932 -36.128 -16.849  1.00 47.63 LIG 0.22  C 
ATOM     49 O    PRO C  10      -0.672 -35.149 -17.546  1.00 46.26 LIG-0.29  OA
ENDBRANCH 43 48
ENDBRANCH 40 41
BRANCH 40 50
ATOM     50  CB  ARG C   9      -2.355 -31.671 -14.828  1.00 49.80 LIG 0.04  C 
BRANCH 50 51
ATOM     51  CG  ARG C   9      -3.394 -30.589 -14.467  1.00 51.68 LIG 0.02  C 
BRANCH 51 52
ATOM     52  CD  ARG C   9      -3.186 -29.241 -15.233  1.00 46.90 LIG 0.14  C 
BRANCH 52 53
ATOM     53  NE  ARG C   9      -4.442 -28.827 -15.850  1.00 50.11 LIG-0.23  N 
ATOM     54 HE   ARG C   9      -5.080 -28.613 -15.314  1.00 50.11 LIG 0.18  HD
ATOM     55  CZ  ARG C   9      -4.712 -28.744 -17.150  1.00 44.95 LIG 0.67  C 
ATOM     56  NH1 ARG C   9      -5.904 -28.351 -17.510  1.00 55.49 LIG-0.23  N 
ATOM     57  NH2 ARG C   9      -3.832 -29.032 -18.068  1.00 40.08 LIG-0.23  N 
ATOM     58 1HH1 ARG C   9      -6.490 -28.153 -16.913  1.00 55.49 LIG 0.17  HD
ATOM     59 2HH1 ARG C   9      -6.102 -28.289 -18.345  1.00 55.49 LIG 0.17  HD
ATOM     60 1HH2 ARG C   9      -3.043 -29.287 -17.842  1.00 40.08 LIG 0.17  HD
ATOM     61 2HH2 ARG C   9      -4.042 -28.967 -18.899  1.00 40.08 LIG 0.17  HD
ENDBRANCH 52 53
ENDBRANCH 51 52
ENDBRANCH 50 51
ENDBRANCH 40 50
ENDBRANCH 38 40
ENDBRANCH 4 36
TORSDOF 20
ENDMDL
MODEL 13
USER: ADFR SOLUTION from run 130
USER: SCORE 19.593157 LL:  -2.923 LR: -17.683 RR:   0.000 FEB: -11.717
USER: RMSD 10.075990
USER: SEED 129
USER: STATUS no improvement in best in 9 clusters for 5 generations
USER: GENES 22
USER: genes 0 Translation |==|  0.63753 0.47100 0.53419
USER: genes 1 Rotation |==|  0.94345 0.35106 0.67557 0.51868
USER: genes 2 Torsion [N]-C--CA-[N] |==|  0.45345
USER: genes 3 Torsion [C]-CA--N-[C] |==|  0.82081
USER: genes 4 Torsion [N]-C--CA-[N] |==|  0.92232
USER: genes 5 Torsion [C]-CA--CB-[CG] |==|  0.13138
USER: genes 6 Torsion [CA]-CB--CG-[CD1] |==|  0.77266
USER: genes 7 Torsion [CE1]-CZ--OH-[HH] |==|  0.99125
USER: genes 8 Torsion [C]-CA--N-[C] |==|  0.62607
USER: genes 9 Torsion [N]-C--CA-[N] |==|  0.32516
USER: genes 10 Torsion [C]-CA--CB-[OG] |==|  0.51452
USER: genes 11 Torsion [CA]-CB--OG-[HG] |==|  0.35667
USER: genes 12 Torsion [C]-CA--CB-[CG] |==|  0.46242
USER: genes 13 Torsion [CA]-CB--CG-[CD2] |==|  0.76622
USER: genes 14 Torsion [N]-CA--C-[O] |==|  0.96676
USER: genes 15 Torsion [C]-N--CA-[CB] |==|  0.88812
USER: genes 16 Torsion [N]-CA--C-[N] |==|  0.33889
USER: genes 17 Torsion [N]-CA--C-[O] |==|  0.47617
USER: genes 18 Torsion [N]-CA--CB-[CG] |==|  0.83106
USER: genes 19 Torsion [CA]-CB--CG-[CD] |==|  0.74665
USER: genes 20 Torsion [CB]-CG--CD-[NE] |==|  0.20202
USER: genes 21 Torsion [CG]-CD--NE-[HE] |==|  0.81800
ROOT
ATOM      1  C   LEU C   7      -0.324 -33.260  -9.164  1.00 32.10 LIG 0.24  C 
ATOM      2 O    LEU C   7      -1.527 -33.035  -9.411  1.00 36.06 LIG-0.27  OA
ATOM      3  N   PRO C   8       0.104 -33.738  -7.971  1.00 34.15 LIG-0.34  N 
ATOM      4  CA  PRO C   8      -0.955 -33.927  -6.998  1.00 36.52 LIG 0.18  C 
ATOM      5  CB  PRO C   8      -0.230 -34.478  -5.747  1.00 33.63 LIG 0.04  C 
ATOM      6  CG  PRO C   8       0.968 -35.173  -6.293  1.00 36.13 LIG 0.02  C 
ATOM      7  CD  PRO C   8       1.378 -34.355  -7.521  1.00 34.25 LIG 0.13  C 
ENDROOT
BRANCH 1 8
ATOM      8  CA  LEU C   7       0.714 -33.092 -10.291  1.00 27.99 LIG 0.18  C 
BRANCH 8 9
ATOM      9  N   LEU C   7       0.155 -32.945 -11.651  1.00 26.55 LIG-0.35  N 
ATOM     10 H    LEU C   7       0.294 -32.195 -12.045  1.00 26.55 LIG 0.16  HD
ATOM     11  C   TYR C   6      -0.499 -33.962 -12.136  1.00 27.48 LIG 0.24  C 
ATOM     12 O    TYR C   6      -0.586 -35.037 -11.475  1.00 27.70 LIG-0.27  OA
BRANCH 11 13
ATOM     13  CA  TYR C   6      -1.186 -33.747 -13.456  1.00 25.37 LIG 0.18  C 
BRANCH 13 14
ATOM     14  CB  TYR C   6      -0.280 -34.231 -14.604  1.00 25.99 LIG 0.07  C 
BRANCH 14 15
ATOM     15  CG  TYR C   6       0.349 -35.608 -14.414  1.00 32.28 LIG-0.06  A 
ATOM     16  CD1 TYR C   6       1.505 -35.769 -13.646  1.00 32.91 LIG 0.01  A 
ATOM     17  CE1 TYR C   6       2.079 -37.014 -13.462  1.00 37.22 LIG 0.04  A 
ATOM     18  CZ  TYR C   6       1.504 -38.122 -14.068  1.00 40.59 LIG 0.07  A 
ATOM     19  CE2 TYR C   6       0.361 -37.993 -14.857  1.00 40.82 LIG 0.04  A 
ATOM     20  CD2 TYR C   6      -0.203 -36.734 -15.033  1.00 36.01 LIG 0.01  A 
BRANCH 18 21
ATOM     21 OH   TYR C   6       2.091 -39.355 -13.865  1.00 45.73 LIG-0.36  OA
ATOM     22 HH   TYR C   6       2.788 -39.261 -13.406  1.00 45.73 LIG 0.22  HD
ENDBRANCH 18 21
ENDBRANCH 14 15
ENDBRANCH 13 14
BRANCH 13 23
ATOM     23  N   TYR C   6      -1.564 -32.394 -13.683  1.00 26.32 LIG-0.34  N 
ATOM     24 H    TYR C   6      -0.964 -31.808 -13.496  1.00 26.32 LIG 0.16  HD
ATOM     25  C   SER C   5      -2.756 -32.125 -14.146  1.00 29.69 LIG 0.26  C 
ATOM     26 O    SER C   5      -3.632 -33.032 -14.306  1.00 27.24 LIG-0.27  OA
BRANCH 25 27
ATOM     27  CA  SER C   5      -2.971 -30.628 -14.560  1.00 35.45 LIG 0.42  C 
ATOM     28  N   SER C   5      -3.251 -30.531 -16.016  1.00 39.53 LIG 0.62  N 
BRANCH 27 29
ATOM     29  CB  SER C   5      -4.068 -29.930 -13.760  1.00 42.03 LIG 0.21  C 
BRANCH 29 30
ATOM     30 OG   SER C   5      -4.335 -28.622 -14.217  1.00 42.36 LIG-0.40  OA
ATOM     31 HG   SER C   5      -5.160 -28.534 -14.351  1.00 42.36 LIG 0.21  HD
ENDBRANCH 29 30
ENDBRANCH 27 29
ENDBRANCH 25 27
ENDBRANCH 13 23
ENDBRANCH 11 13
ENDBRANCH 8 9
BRANCH 8 32
ATOM     32  CB  LEU C   7       1.665 -31.988 -10.010  1.00 26.58 LIG 0.04  C 
BRANCH 32 33
ATOM     33  CG  LEU C   7       2.795 -32.202 -11.034  1.00 24.49 LIG-0.02  C 
ATOM     34  CD2 LEU C   7       3.728 -33.212 -10.434  1.00 27.30 LIG 0.01  C 
ATOM     35  CD1 LEU C   7       3.538 -30.878 -11.132  1.00 29.65 LIG 0.01  C 
ENDBRANCH 32 33
ENDBRANCH 8 32
ENDBRANCH 1 8
BRANCH 4 36
ATOM     36  C   PRO C   8      -1.704 -32.605  -6.763  1.00 40.02 LIG 0.24  C 
ATOM     37 O    PRO C   8      -1.262 -31.541  -7.180  1.00 40.33 LIG-0.27  OA
ATOM     38  N   ARG C   9      -2.885 -32.731  -6.182  1.00 39.93 LIG-0.35  N 
ATOM     39 H    ARG C   9      -3.212 -33.498  -5.970  1.00 39.93 LIG 0.16  HD
BRANCH 38 40
ATOM     40  CA  ARG C   9      -3.767 -31.629  -5.832  1.00 44.47 LIG 0.18  C 
BRANCH 40 41
ATOM     41  C   ARG C   9      -4.580 -31.228  -7.098  1.00 44.78 LIG 0.24  C 
ATOM     42  N   PRO C  10      -5.935 -31.271  -7.033  1.00 46.18 LIG-0.34  N 
ATOM     43  CA  PRO C  10      -6.829 -30.956  -8.191  1.00 48.25 LIG 0.17  C 
ATOM     44  CD  PRO C  10      -6.695 -31.759  -5.861  1.00 48.73 LIG 0.13  C 
ATOM     45  CB  PRO C  10      -8.250 -31.183  -7.637  1.00 49.47 LIG 0.04  C 
ATOM     46  CG  PRO C  10      -8.079 -32.010  -6.403  1.00 52.76 LIG 0.02  C 
ATOM     47 O    ARG C   9      -3.979 -30.935  -8.136  1.00 45.76 LIG-0.27  OA
BRANCH 43 48
ATOM     48  C   PRO C  10      -6.756 -29.525  -8.749  1.00 47.63 LIG 0.22  C 
ATOM     49 O    PRO C  10      -7.337 -29.232  -9.791  1.00 46.26 LIG-0.29  OA
ENDBRANCH 43 48
ENDBRANCH 40 41
BRANCH 40 50
ATOM     50  CB  ARG C   9      -2.896 -30.458  -5.268  1.00 49.80 LIG 0.04  C 
BRANCH 50 51
ATOM     51  CG  ARG C   9      -2.094 -30.807  -3.996  1.00 51.68 LIG 0.02  C 
BRANCH 51 52
ATOM     52  CD  ARG C   9      -2.858 -30.494  -2.668  1.00 46.90 LIG 0.14  C 
BRANCH 52 53
ATOM     53  NE  ARG C   9      -3.928 -31.467  -2.475  1.00 50.11 LIG-0.23  N 
ATOM     54 HE   ARG C   9      -4.568 -31.450  -3.049  1.00 50.11 LIG 0.18  HD
ATOM     55  CZ  ARG C   9      -4.025 -32.377  -1.511  1.00 44.95 LIG 0.67  C 
ATOM     56  NH1 ARG C   9      -5.067 -33.165  -1.506  1.00 55.49 LIG-0.23  N 
ATOM     57  NH2 ARG C   9      -3.120 -32.514  -0.582  1.00 40.08 LIG-0.23  N 
ATOM     58 1HH1 ARG C   9      -5.667 -33.087  -2.117  1.00 55.49 LIG 0.17  HD
ATOM     59 2HH1 ARG C   9      -5.152 -33.761  -0.892  1.00 55.49 LIG 0.17  HD
ATOM     60 1HH2 ARG C   9      -2.428 -32.004  -0.579  1.00 40.08 LIG 0.17  HD
ATOM     61 2HH2 ARG C   9      -3.216 -33.113   0.027  1.00 40.08 LIG 0.17  HD
ENDBRANCH 52 53
ENDBRANCH 51 52
ENDBRANCH 50 51
ENDBRANCH 40 50
ENDBRANCH 38 40
ENDBRANCH 4 36
TORSDOF 20
ENDMDL
MODEL 14
USER: ADFR SOLUTION from run 55
USER: SCORE 19.803884 LL:  -3.614 LR: -17.668 RR:   0.000 FEB: -11.702
USER: RMSD 10.079193
USER: SEED 54
USER: STATUS no improvement in best in 22 clusters for 5 generations
USER: GENES 22
USER: genes 0 Translation |==|  0.65673 0.44680 0.54417
USER: genes 1 Rotation |==|  0.86989 0.27946 0.75353 0.51650
USER: genes 2 Torsion [N]-C--CA-[N] |==|  0.38960
USER: genes 3 Torsion [C]-CA--N-[C] |==|  0.77564
USER: genes 4 Torsion [N]-C--CA-[N] |==|  0.48889
USER: genes 5 Torsion [C]-CA--CB-[CG] |==|  0.17516
USER: genes 6 Torsion [CA]-CB--CG-[CD1] |==|  0.64422
USER: genes 7 Torsion [CE1]-CZ--OH-[HH] |==|  0.94111
USER: genes 8 Torsion [C]-CA--N-[C] |==|  0.68598
USER: genes 9 Torsion [N]-C--CA-[N] |==|  0.22511
USER: genes 10 Torsion [C]-CA--CB-[OG] |==|  0.89026
USER: genes 11 Torsion [CA]-CB--OG-[HG] |==|  0.20223
USER: genes 12 Torsion [C]-CA--CB-[CG] |==|  0.58535
USER: genes 13 Torsion [CA]-CB--CG-[CD2] |==|  0.70532
USER: genes 14 Torsion [N]-CA--C-[O] |==|  0.95045
USER: genes 15 Torsion [C]-N--CA-[CB] |==|  0.52400
USER: genes 16 Torsion [N]-CA--C-[N] |==|  0.84849
USER: genes 17 Torsion [N]-CA--C-[O] |==|  0.59052
USER: genes 18 Torsion [N]-CA--CB-[CG] |==|  0.73061
USER: genes 19 Torsion [CA]-CB--CG-[CD] |==|  0.72515
USER: genes 20 Torsion [CB]-CG--CD-[NE] |==|  0.45533
USER: genes 21 Torsion [CG]-CD--NE-[HE] |==|  0.08782
ROOT
ATOM      1  C   LEU C   7       0.079 -33.696  -8.917  1.00 32.10 LIG 0.24  C 
ATOM      2 O    LEU C   7      -0.801 -33.116  -9.586  1.00 36.06 LIG-0.27  OA
ATOM      3  N   PRO C   8      -0.154 -34.212  -7.686  1.00 34.15 LIG-0.34  N 
ATOM      4  CA  PRO C   8      -1.504 -33.997  -7.204  1.00 36.52 LIG 0.18  C 
ATOM      5  CB  PRO C   8      -1.524 -34.673  -5.812  1.00 33.63 LIG 0.04  C 
ATOM      6  CG  PRO C   8      -0.494 -35.744  -5.909  1.00 36.13 LIG 0.02  C 
ATOM      7  CD  PRO C   8       0.588 -35.173  -6.830  1.00 34.25 LIG 0.13  C 
ENDROOT
BRANCH 1 8
ATOM      8  CA  LEU C   7       1.463 -33.933  -9.552  1.00 27.99 LIG 0.18  C 
BRANCH 8 9
ATOM      9  N   LEU C   7       1.455 -34.223 -11.000  1.00 26.55 LIG-0.35  N 
ATOM     10 H    LEU C   7       1.635 -33.567 -11.525  1.00 26.55 LIG 0.16  HD
ATOM     11  C   TYR C   6       1.178 -35.444 -11.359  1.00 27.48 LIG 0.24  C 
ATOM     12 O    TYR C   6       0.986 -36.337 -10.483  1.00 27.70 LIG-0.27  OA
BRANCH 11 13
ATOM     13  CA  TYR C   6       1.029 -35.690 -12.835  1.00 25.37 LIG 0.18  C 
BRANCH 13 14
ATOM     14  CB  TYR C   6      -0.126 -34.838 -13.395  1.00 25.99 LIG 0.07  C 
BRANCH 14 15
ATOM     15  CG  TYR C   6       0.060 -33.328 -13.299  1.00 32.28 LIG-0.06  A 
ATOM     16  CD1 TYR C   6      -0.924 -32.518 -12.727  1.00 32.91 LIG 0.01  A 
ATOM     17  CE1 TYR C   6      -0.762 -31.148 -12.628  1.00 37.22 LIG 0.04  A 
ATOM     18  CZ  TYR C   6       0.396 -30.565 -13.124  1.00 40.59 LIG 0.07  A 
ATOM     19  CE2 TYR C   6       1.390 -31.342 -13.719  1.00 40.82 LIG 0.04  A 
ATOM     20  CD2 TYR C   6       1.210 -32.719 -13.812  1.00 36.01 LIG 0.01  A 
BRANCH 18 21
ATOM     21 OH   TYR C   6       0.538 -29.197 -13.010  1.00 45.73 LIG-0.36  OA
ATOM     22 HH   TYR C   6      -0.218 -28.844 -12.909  1.00 45.73 LIG 0.22  HD
ENDBRANCH 18 21
ENDBRANCH 14 15
ENDBRANCH 13 14
BRANCH 13 23
ATOM     23  N   TYR C   6       0.816 -37.059 -13.162  1.00 26.32 LIG-0.34  N 
ATOM     24 H    TYR C   6       0.068 -37.389 -12.895  1.00 26.32 LIG 0.16  HD
ATOM     25  C   SER C   5       1.732 -37.716 -13.822  1.00 29.69 LIG 0.26  C 
ATOM     26 O    SER C   5       2.859 -37.197 -14.097  1.00 27.24 LIG-0.27  OA
BRANCH 25 27
ATOM     27  CA  SER C   5       1.288 -39.139 -14.310  1.00 35.45 LIG 0.42  C 
ATOM     28  N   SER C   5       0.490 -39.029 -15.559  1.00 39.53 LIG 0.62  N 
BRANCH 27 29
ATOM     29  CB  SER C   5       2.455 -40.103 -14.508  1.00 42.03 LIG 0.21  C 
BRANCH 29 30
ATOM     30 OG   SER C   5       3.587 -39.486 -15.081  1.00 42.36 LIG-0.40  OA
ATOM     31 HG   SER C   5       3.955 -38.990 -14.512  1.00 42.36 LIG 0.21  HD
ENDBRANCH 29 30
ENDBRANCH 27 29
ENDBRANCH 25 27
ENDBRANCH 13 23
ENDBRANCH 11 13
ENDBRANCH 8 9
BRANCH 8 32
ATOM     32  CB  LEU C   7       2.405 -32.824  -9.260  1.00 26.58 LIG 0.04  C 
BRANCH 32 33
ATOM     33  CG  LEU C   7       3.328 -32.787 -10.493  1.00 24.49 LIG-0.02  C 
ATOM     34  CD2 LEU C   7       4.644 -33.363 -10.059  1.00 27.30 LIG 0.01  C 
ATOM     35  CD1 LEU C   7       3.546 -31.317 -10.818  1.00 29.65 LIG 0.01  C 
ENDBRANCH 32 33
ENDBRANCH 8 32
ENDBRANCH 1 8
BRANCH 4 36
ATOM     36  C   PRO C   8      -1.828 -32.494  -7.180  1.00 40.02 LIG 0.24  C 
ATOM     37 O    PRO C   8      -0.939 -31.652  -7.218  1.00 40.33 LIG-0.27  OA
ATOM     38  N   ARG C   9      -3.118 -32.203  -7.224  1.00 39.93 LIG-0.35  N 
ATOM     39 H    ARG C   9      -3.723 -32.811  -7.279  1.00 39.93 LIG 0.16  HD
BRANCH 38 40
ATOM     40  CA  ARG C   9      -3.672 -30.859  -7.186  1.00 44.47 LIG 0.18  C 
BRANCH 40 41
ATOM     41  C   ARG C   9      -3.001 -30.081  -6.016  1.00 44.78 LIG 0.24  C 
ATOM     42  N   PRO C  10      -3.044 -30.625  -4.773  1.00 46.18 LIG-0.34  N 
ATOM     43  CA  PRO C  10      -2.478 -29.957  -3.559  1.00 48.25 LIG 0.17  C 
ATOM     44  CD  PRO C  10      -3.764 -31.872  -4.437  1.00 48.73 LIG 0.13  C 
ATOM     45  CB  PRO C  10      -2.805 -30.933  -2.411  1.00 49.47 LIG 0.04  C 
ATOM     46  CG  PRO C  10      -3.880 -31.832  -2.934  1.00 52.76 LIG 0.02  C 
ATOM     47 O    ARG C   9      -2.497 -28.975  -6.236  1.00 45.76 LIG-0.27  OA
BRANCH 43 48
ATOM     48  C   PRO C  10      -0.962 -29.703  -3.555  1.00 47.63 LIG 0.22  C 
ATOM     49 O    PRO C  10      -0.326 -29.738  -2.504  1.00 46.26 LIG-0.29  OA
ENDBRANCH 43 48
ENDBRANCH 40 41
BRANCH 40 50
ATOM     50  CB  ARG C   9      -5.226 -30.969  -7.037  1.00 49.80 LIG 0.04  C 
BRANCH 50 51
ATOM     51  CG  ARG C   9      -6.009 -30.860  -8.362  1.00 51.68 LIG 0.02  C 
BRANCH 51 52
ATOM     52  CD  ARG C   9      -6.602 -29.437  -8.624  1.00 46.90 LIG 0.14  C 
BRANCH 52 53
ATOM     53  NE  ARG C   9      -6.981 -29.313 -10.028  1.00 50.11 LIG-0.23  N 
ATOM     54 HE   ARG C   9      -7.247 -30.032 -10.417  1.00 50.11 LIG 0.18  HD
ATOM     55  CZ  ARG C   9      -6.962 -28.212 -10.773  1.00 44.95 LIG 0.67  C 
ATOM     56  NH1 ARG C   9      -7.342 -28.302 -12.020  1.00 55.49 LIG-0.23  N 
ATOM     57  NH2 ARG C   9      -6.589 -27.054 -10.305  1.00 40.08 LIG-0.23  N 
ATOM     58 1HH1 ARG C   9      -7.596 -29.060 -12.338  1.00 55.49 LIG 0.17  HD
ATOM     59 2HH1 ARG C   9      -7.338 -27.604 -12.522  1.00 55.49 LIG 0.17  HD
ATOM     60 1HH2 ARG C   9      -6.342 -26.982  -9.485  1.00 40.08 LIG 0.17  HD
ATOM     61 2HH2 ARG C   9      -6.589 -26.363 -10.816  1.00 40.08 LIG 0.17  HD
ENDBRANCH 52 53
ENDBRANCH 51 52
ENDBRANCH 50 51
ENDBRANCH 40 50
ENDBRANCH 38 40
ENDBRANCH 4 36
TORSDOF 20
ENDMDL
MODEL 15
USER: ADFR SOLUTION from run 108
USER: SCORE 19.282297 LL:  -3.015 LR: -17.666 RR:   0.000 FEB: -11.700
USER: RMSD 2.608752
USER: SEED 107
USER: STATUS no improvement in best in 7 clusters for 5 generations
USER: GENES 22
USER: genes 0 Translation |==|  0.62031 0.46501 0.54503
USER: genes 1 Rotation |==|  0.52612 0.50842 0.49472 0.99922
USER: genes 2 Torsion [N]-C--CA-[N] |==|  0.43289
USER: genes 3 Torsion [C]-CA--N-[C] |==|  0.82757
USER: genes 4 Torsion [N]-C--CA-[N] |==|  0.34033
USER: genes 5 Torsion [C]-CA--CB-[CG] |==|  0.36153
USER: genes 6 Torsion [CA]-CB--CG-[CD1] |==|  0.02823
USER: genes 7 Torsion [CE1]-CZ--OH-[HH] |==|  0.34754
USER: genes 8 Torsion [C]-CA--N-[C] |==|  0.69413
USER: genes 9 Torsion [N]-C--CA-[N] |==|  0.12007
USER: genes 10 Torsion [C]-CA--CB-[OG] |==|  0.30626
USER: genes 11 Torsion [CA]-CB--OG-[HG] |==|  0.62129
USER: genes 12 Torsion [C]-CA--CB-[CG] |==|  0.34863
USER: genes 13 Torsion [CA]-CB--CG-[CD2] |==|  0.33022
USER: genes 14 Torsion [N]-CA--C-[O] |==|  0.97164
USER: genes 15 Torsion [C]-N--CA-[CB] |==|  0.51807
USER: genes 16 Torsion [N]-CA--C-[N] |==|  0.86673
USER: genes 17 Torsion [N]-CA--C-[O] |==|  0.87778
USER: genes 18 Torsion [N]-CA--CB-[CG] |==|  0.81606
USER: genes 19 Torsion [CA]-CB--CG-[CD] |==|  0.67277
USER: genes 20 Torsion [CB]-CG--CD-[NE] |==|  0.34107
USER: genes 21 Torsion [CG]-CD--NE-[HE] |==|  0.70137
ROOT
ATOM      1  C   LEU C   7      -0.685 -33.368  -8.896  1.00 32.10 LIG 0.24  C 
ATOM      2 O    LEU C   7      -1.657 -32.771  -9.404  1.00 36.06 LIG-0.27  OA
ATOM      3  N   PRO C   8       0.553 -33.355  -9.445  1.00 34.15 LIG-0.34  N 
ATOM      4  CA  PRO C   8       0.636 -32.620 -10.692  1.00 36.52 LIG 0.18  C 
ATOM      5  CB  PRO C   8       2.122 -32.740 -11.108  1.00 33.63 LIG 0.04  C 
ATOM      6  CG  PRO C   8       2.851 -32.909  -9.820  1.00 36.13 LIG 0.02  C 
ATOM      7  CD  PRO C   8       1.899 -33.707  -8.924  1.00 34.25 LIG 0.13  C 
ENDROOT
BRANCH 1 8
ATOM      8  CA  LEU C   7      -0.866 -34.061  -7.531  1.00 27.99 LIG 0.18  C 
BRANCH 8 9
ATOM      9  N   LEU C   7      -2.017 -33.597  -6.731  1.00 26.55 LIG-0.35  N 
ATOM     10 H    LEU C   7      -2.623 -34.180  -6.553  1.00 26.55 LIG 0.16  HD
ATOM     11  C   TYR C   6      -2.017 -32.348  -6.362  1.00 27.48 LIG 0.24  C 
ATOM     12 O    TYR C   6      -1.034 -31.601  -6.640  1.00 27.70 LIG-0.27  OA
BRANCH 11 13
ATOM     13  CA  TYR C   6      -3.261 -31.853  -5.676  1.00 25.37 LIG 0.18  C 
BRANCH 13 14
ATOM     14  CB  TYR C   6      -3.958 -30.795  -6.552  1.00 25.99 LIG 0.07  C 
BRANCH 14 15
ATOM     15  CG  TYR C   6      -5.450 -31.007  -6.784  1.00 32.28 LIG-0.06  A 
ATOM     16  CD1 TYR C   6      -6.159 -31.972  -6.063  1.00 32.91 LIG 0.01  A 
ATOM     17  CE1 TYR C   6      -7.513 -32.167  -6.261  1.00 37.22 LIG 0.04  A 
ATOM     18  CZ  TYR C   6      -8.179 -31.401  -7.209  1.00 40.59 LIG 0.07  A 
ATOM     19  CE2 TYR C   6      -7.497 -30.443  -7.959  1.00 40.82 LIG 0.04  A 
ATOM     20  CD2 TYR C   6      -6.134 -30.260  -7.749  1.00 36.01 LIG 0.01  A 
BRANCH 18 21
ATOM     21 OH   TYR C   6      -9.531 -31.610  -7.385  1.00 45.73 LIG-0.36  OA
ATOM     22 HH   TYR C   6      -9.942 -30.884  -7.291  1.00 45.73 LIG 0.22  HD
ENDBRANCH 18 21
ENDBRANCH 14 15
ENDBRANCH 13 14
BRANCH 13 23
ATOM     23  N   TYR C   6      -3.018 -31.318  -4.381  1.00 26.32 LIG-0.34  N 
ATOM     24 H    TYR C   6      -2.592 -30.571  -4.365  1.00 26.32 LIG 0.16  HD
ATOM     25  C   SER C   5      -3.436 -31.963  -3.325  1.00 29.69 LIG 0.26  C 
ATOM     26 O    SER C   5      -3.970 -33.114  -3.413  1.00 27.24 LIG-0.27  OA
BRANCH 25 27
ATOM     27  CA  SER C   5      -3.304 -31.168  -1.980  1.00 35.45 LIG 0.42  C 
ATOM     28  N   SER C   5      -3.739 -29.760  -2.170  1.00 39.53 LIG 0.62  N 
BRANCH 27 29
ATOM     29  CB  SER C   5      -4.064 -31.807  -0.821  1.00 42.03 LIG 0.21  C 
BRANCH 29 30
ATOM     30 OG   SER C   5      -3.212 -32.359   0.158  1.00 42.36 LIG-0.40  OA
ATOM     31 HG   SER C   5      -3.503 -33.113   0.391  1.00 42.36 LIG 0.21  HD
ENDBRANCH 29 30
ENDBRANCH 27 29
ENDBRANCH 25 27
ENDBRANCH 13 23
ENDBRANCH 11 13
ENDBRANCH 8 9
BRANCH 8 32
ATOM     32  CB  LEU C   7      -0.898 -35.540  -7.660  1.00 26.58 LIG 0.04  C 
BRANCH 32 33
ATOM     33  CG  LEU C   7       0.200 -36.021  -6.694  1.00 24.49 LIG-0.02  C 
ATOM     34  CD2 LEU C   7      -0.481 -36.876  -5.666  1.00 27.30 LIG 0.01  C 
ATOM     35  CD1 LEU C   7       0.726 -34.777  -5.993  1.00 29.65 LIG 0.01  C 
ENDBRANCH 32 33
ENDBRANCH 8 32
ENDBRANCH 1 8
BRANCH 4 36
ATOM     36  C   PRO C   8      -0.355 -33.196 -11.716  1.00 40.02 LIG 0.24  C 
ATOM     37 O    PRO C   8      -0.942 -34.251 -11.509  1.00 40.33 LIG-0.27  OA
ATOM     38  N   ARG C   9      -0.590 -32.419 -12.761  1.00 39.93 LIG-0.35  N 
ATOM     39 H    ARG C   9      -0.226 -31.644 -12.846  1.00 39.93 LIG 0.16  HD
BRANCH 38 40
ATOM     40  CA  ARG C   9      -1.464 -32.754 -13.872  1.00 44.47 LIG 0.18  C 
BRANCH 40 41
ATOM     41  C   ARG C   9      -1.077 -34.169 -14.395  1.00 44.78 LIG 0.24  C 
ATOM     42  N   PRO C  10       0.235 -34.434 -14.622  1.00 46.18 LIG-0.34  N 
ATOM     43  CA  PRO C  10       0.732 -35.736 -15.167  1.00 48.25 LIG 0.17  C 
ATOM     44  CD  PRO C  10       1.319 -33.437 -14.487  1.00 48.73 LIG 0.13  C 
ATOM     45  CB  PRO C  10       2.256 -35.535 -15.279  1.00 49.47 LIG 0.04  C 
ATOM     46  CG  PRO C  10       2.477 -34.056 -15.228  1.00 52.76 LIG 0.02  C 
ATOM     47 O    ARG C   9      -1.968 -34.988 -14.639  1.00 45.76 LIG-0.27  OA
BRANCH 43 48
ATOM     48  C   PRO C  10       0.476 -36.986 -14.309  1.00 47.63 LIG 0.22  C 
ATOM     49 O    PRO C  10       0.669 -36.960 -13.096  1.00 46.26 LIG-0.29  OA
ENDBRANCH 43 48
ENDBRANCH 40 41
BRANCH 40 50
ATOM     50  CB  ARG C   9      -1.329 -31.640 -14.963  1.00 49.80 LIG 0.04  C 
BRANCH 50 51
ATOM     51  CG  ARG C   9      -1.853 -30.253 -14.534  1.00 51.68 LIG 0.02  C 
BRANCH 51 52
ATOM     52  CD  ARG C   9      -3.047 -29.738 -15.402  1.00 46.90 LIG 0.14  C 
BRANCH 52 53
ATOM     53  NE  ARG C   9      -4.194 -29.458 -14.545  1.00 50.11 LIG-0.23  N 
ATOM     54 HE   ARG C   9      -4.852 -30.011 -14.593  1.00 50.11 LIG 0.18  HD
ATOM     55  CZ  ARG C   9      -4.337 -28.445 -13.696  1.00 44.95 LIG 0.67  C 
ATOM     56  NH1 ARG C   9      -5.445 -28.364 -13.010  1.00 55.49 LIG-0.23  N 
ATOM     57  NH2 ARG C   9      -3.414 -27.542 -13.520  1.00 40.08 LIG-0.23  N 
ATOM     58 1HH1 ARG C   9      -6.059 -28.957 -13.114  1.00 55.49 LIG 0.17  HD
ATOM     59 2HH1 ARG C   9      -5.562 -27.718 -12.455  1.00 55.49 LIG 0.17  HD
ATOM     60 1HH2 ARG C   9      -2.678 -27.588 -13.962  1.00 40.08 LIG 0.17  HD
ATOM     61 2HH2 ARG C   9      -3.540 -26.899 -12.963  1.00 40.08 LIG 0.17  HD
ENDBRANCH 52 53
ENDBRANCH 51 52
ENDBRANCH 50 51
ENDBRANCH 40 50
ENDBRANCH 38 40
ENDBRANCH 4 36
TORSDOF 20
ENDMDL
MODEL 16
USER: ADFR SOLUTION from run 80
USER: SCORE 20.170373 LL:  -2.937 LR: -17.668 RR:   0.000 FEB: -11.702
USER: RMSD 9.823387
USER: SEED 79
USER: STATUS no improvement in best in 8 clusters for 5 generations
USER: GENES 22
USER: genes 0 Translation |==|  0.62245 0.50341 0.51714
USER: genes 1 Rotation |==|  0.02697 0.60794 0.37930 0.50519
USER: genes 2 Torsion [N]-C--CA-[N] |==|  0.14838
USER: genes 3 Torsion [C]-CA--N-[C] |==|  0.16111
USER: genes 4 Torsion [N]-C--CA-[N] |==|  0.09392
USER: genes 5 Torsion [C]-CA--CB-[CG] |==|  0.37525
USER: genes 6 Torsion [CA]-CB--CG-[CD1] |==|  0.82112
USER: genes 7 Torsion [CE1]-CZ--OH-[HH] |==|  0.92213
USER: genes 8 Torsion [C]-CA--N-[C] |==|  0.16237
USER: genes 9 Torsion [N]-C--CA-[N] |==|  0.02857
USER: genes 10 Torsion [C]-CA--CB-[OG] |==|  0.28277
USER: genes 11 Torsion [CA]-CB--OG-[HG] |==|  0.80039
USER: genes 12 Torsion [C]-CA--CB-[CG] |==|  0.48097
USER: genes 13 Torsion [CA]-CB--CG-[CD2] |==|  0.62554
USER: genes 14 Torsion [N]-CA--C-[O] |==|  0.92366
USER: genes 15 Torsion [C]-N--CA-[CB] |==|  0.87175
USER: genes 16 Torsion [N]-CA--C-[N] |==|  0.35775
USER: genes 17 Torsion [N]-CA--C-[O] |==|  0.50546
USER: genes 18 Torsion [N]-CA--CB-[CG] |==|  0.26945
USER: genes 19 Torsion [CA]-CB--CG-[CD] |==|  0.47758
USER: genes 20 Torsion [CB]-CG--CD-[NE] |==|  0.34557
USER: genes 21 Torsion [CG]-CD--NE-[HE] |==|  0.64458
ROOT
ATOM      1  C   LEU C   7      -0.641 -32.677  -9.586  1.00 32.10 LIG 0.24  C 
ATOM      2 O    LEU C   7      -1.888 -32.696  -9.557  1.00 36.06 LIG-0.27  OA
ATOM      3  N   PRO C   8       0.125 -33.139  -8.568  1.00 34.15 LIG-0.34  N 
ATOM      4  CA  PRO C   8      -0.636 -33.620  -7.431  1.00 36.52 LIG 0.18  C 
ATOM      5  CB  PRO C   8       0.440 -34.095  -6.425  1.00 33.63 LIG 0.04  C 
ATOM      6  CG  PRO C   8       1.599 -34.475  -7.279  1.00 36.13 LIG 0.02  C 
ATOM      7  CD  PRO C   8       1.562 -33.500  -8.460  1.00 34.25 LIG 0.13  C 
ENDROOT
BRANCH 1 8
ATOM      8  CA  LEU C   7       0.069 -32.208 -10.871  1.00 27.99 LIG 0.18  C 
BRANCH 8 9
ATOM      9  N   LEU C   7       0.998 -33.186 -11.475  1.00 26.55 LIG-0.35  N 
ATOM     10 H    LEU C   7       1.813 -32.933 -11.571  1.00 26.55 LIG 0.16  HD
ATOM     11  C   TYR C   6       0.504 -34.344 -11.810  1.00 27.48 LIG 0.24  C 
ATOM     12 O    TYR C   6      -0.707 -34.615 -11.563  1.00 27.70 LIG-0.27  OA
BRANCH 11 13
ATOM     13  CA  TYR C   6       1.422 -35.272 -12.555  1.00 25.37 LIG 0.18  C 
BRANCH 13 14
ATOM     14  CB  TYR C   6       0.954 -36.728 -12.378  1.00 25.99 LIG 0.07  C 
BRANCH 14 15
ATOM     15  CG  TYR C   6       0.935 -37.576 -13.646  1.00 32.28 LIG-0.06  A 
ATOM     16  CD1 TYR C   6       0.079 -37.265 -14.706  1.00 32.91 LIG 0.01  A 
ATOM     17  CE1 TYR C   6       0.060 -38.022 -15.862  1.00 37.22 LIG 0.04  A 
ATOM     18  CZ  TYR C   6       0.897 -39.125 -15.965  1.00 40.59 LIG 0.07  A 
ATOM     19  CE2 TYR C   6       1.750 -39.474 -14.919  1.00 40.82 LIG 0.04  A 
ATOM     20  CD2 TYR C   6       1.756 -38.703 -13.761  1.00 36.01 LIG 0.01  A 
BRANCH 18 21
ATOM     21 OH   TYR C   6       0.863 -39.863 -17.131  1.00 45.73 LIG-0.36  OA
ATOM     22 HH   TYR C   6       0.103 -39.799 -17.481  1.00 45.73 LIG 0.22  HD
ENDBRANCH 18 21
ENDBRANCH 14 15
ENDBRANCH 13 14
BRANCH 13 23
ATOM     23  N   TYR C   6       2.785 -35.156 -12.162  1.00 26.32 LIG-0.34  N 
ATOM     24 H    TYR C   6       3.333 -34.950 -12.791  1.00 26.32 LIG 0.16  HD
ATOM     25  C   SER C   5       3.118 -35.362 -10.916  1.00 29.69 LIG 0.26  C 
ATOM     26 O    SER C   5       2.272 -35.763 -10.055  1.00 27.24 LIG-0.27  OA
BRANCH 25 27
ATOM     27  CA  SER C   5       4.601 -34.990 -10.567  1.00 35.45 LIG 0.42  C 
ATOM     28  N   SER C   5       5.225 -34.250 -11.695  1.00 39.53 LIG 0.62  N 
BRANCH 27 29
ATOM     29  CB  SER C   5       4.738 -34.196  -9.271  1.00 42.03 LIG 0.21  C 
BRANCH 29 30
ATOM     30 OG   SER C   5       5.170 -34.987  -8.185  1.00 42.36 LIG-0.40  OA
ATOM     31 HG   SER C   5       4.548 -35.498  -7.944  1.00 42.36 LIG 0.21  HD
ENDBRANCH 29 30
ENDBRANCH 27 29
ENDBRANCH 25 27
ENDBRANCH 13 23
ENDBRANCH 11 13
ENDBRANCH 8 9
BRANCH 8 32
ATOM     32  CB  LEU C   7      -0.893 -31.722 -11.891  1.00 26.58 LIG 0.04  C 
BRANCH 32 33
ATOM     33  CG  LEU C   7       0.004 -31.145 -13.002  1.00 24.49 LIG-0.02  C 
ATOM     34  CD2 LEU C   7      -0.594 -29.824 -13.390  1.00 27.30 LIG 0.01  C 
ATOM     35  CD1 LEU C   7      -0.131 -32.086 -14.190  1.00 29.65 LIG 0.01  C 
ENDBRANCH 32 33
ENDBRANCH 8 32
ENDBRANCH 1 8
BRANCH 4 36
ATOM     36  C   PRO C   8      -1.555 -32.510  -6.896  1.00 40.02 LIG 0.24  C 
ATOM     37 O    PRO C   8      -1.269 -31.327  -7.034  1.00 40.33 LIG-0.27  OA
ATOM     38  N   ARG C   9      -2.699 -32.934  -6.385  1.00 39.93 LIG-0.35  N 
ATOM     39 H    ARG C   9      -2.914 -33.767  -6.372  1.00 39.93 LIG 0.16  HD
BRANCH 38 40
ATOM     40  CA  ARG C   9      -3.718 -32.081  -5.795  1.00 44.47 LIG 0.18  C 
BRANCH 40 41
ATOM     41  C   ARG C   9      -4.502 -31.381  -6.945  1.00 44.78 LIG 0.24  C 
ATOM     42  N   PRO C  10      -5.857 -31.450  -6.934  1.00 46.18 LIG-0.34  N 
ATOM     43  CA  PRO C  10      -6.723 -30.861  -8.004  1.00 48.25 LIG 0.17  C 
ATOM     44  CD  PRO C  10      -6.642 -32.221  -5.946  1.00 48.73 LIG 0.13  C 
ATOM     45  CB  PRO C  10      -8.155 -31.230  -7.569  1.00 49.47 LIG 0.04  C 
ATOM     46  CG  PRO C  10      -8.006 -32.339  -6.576  1.00 52.76 LIG 0.02  C 
ATOM     47 O    ARG C   9      -3.876 -30.833  -7.857  1.00 45.76 LIG-0.27  OA
BRANCH 43 48
ATOM     48  C   PRO C  10      -6.655 -29.336  -8.184  1.00 47.63 LIG 0.22  C 
ATOM     49 O    PRO C  10      -7.363 -28.774  -9.017  1.00 46.26 LIG-0.29  OA
ENDBRANCH 43 48
ENDBRANCH 40 41
BRANCH 40 50
ATOM     50  CB  ARG C   9      -3.017 -31.070  -4.828  1.00 49.80 LIG 0.04  C 
BRANCH 50 51
ATOM     51  CG  ARG C   9      -2.734 -29.683  -5.443  1.00 51.68 LIG 0.02  C 
BRANCH 51 52
ATOM     52  CD  ARG C   9      -2.220 -28.631  -4.406  1.00 46.90 LIG 0.14  C 
BRANCH 52 53
ATOM     53  NE  ARG C   9      -0.946 -28.080  -4.856  1.00 50.11 LIG-0.23  N 
ATOM     54 HE   ARG C   9      -0.299 -28.100  -4.289  1.00 50.11 LIG 0.18  HD
ATOM     55  CZ  ARG C   9      -0.672 -27.550  -6.044  1.00 44.95 LIG 0.67  C 
ATOM     56  NH1 ARG C   9       0.538 -27.107  -6.260  1.00 55.49 LIG-0.23  N 
ATOM     57  NH2 ARG C   9      -1.558 -27.466  -6.996  1.00 40.08 LIG-0.23  N 
ATOM     58 1HH1 ARG C   9       1.133 -27.162  -5.641  1.00 55.49 LIG 0.17  HD
ATOM     59 2HH1 ARG C   9       0.740 -26.759  -7.020  1.00 55.49 LIG 0.17  HD
ATOM     60 1HH2 ARG C   9      -2.356 -27.759  -6.867  1.00 40.08 LIG 0.17  HD
ATOM     61 2HH2 ARG C   9      -1.346 -27.116  -7.752  1.00 40.08 LIG 0.17  HD
ENDBRANCH 52 53
ENDBRANCH 51 52
ENDBRANCH 50 51
ENDBRANCH 40 50
ENDBRANCH 38 40
ENDBRANCH 4 36
TORSDOF 20
ENDMDL
MODEL 17
USER: ADFR SOLUTION from run 55
USER: SCORE 19.270658 LL:  -2.891 LR: -17.630 RR:   0.000 FEB: -11.664
USER: RMSD 10.434556
USER: SEED 54
USER: STATUS no improvement in best in 22 clusters for 5 generations
USER: GENES 22
USER: genes 0 Translation |==|  0.65290 0.44748 0.54719
USER: genes 1 Rotation |==|  0.88952 0.30044 0.73920 0.53513
USER: genes 2 Torsion [N]-C--CA-[N] |==|  0.38625
USER: genes 3 Torsion [C]-CA--N-[C] |==|  0.77537
USER: genes 4 Torsion [N]-C--CA-[N] |==|  0.97222
USER: genes 5 Torsion [C]-CA--CB-[CG] |==|  0.40919
USER: genes 6 Torsion [CA]-CB--CG-[CD1] |==|  0.56980
USER: genes 7 Torsion [CE1]-CZ--OH-[HH] |==|  0.29881
USER: genes 8 Torsion [C]-CA--N-[C] |==|  0.81654
USER: genes 9 Torsion [N]-C--CA-[N] |==|  0.03807
USER: genes 10 Torsion [C]-CA--CB-[OG] |==|  0.94170
USER: genes 11 Torsion [CA]-CB--OG-[HG] |==|  0.26369
USER: genes 12 Torsion [C]-CA--CB-[CG] |==|  0.54005
USER: genes 13 Torsion [CA]-CB--CG-[CD2] |==|  0.75145
USER: genes 14 Torsion [N]-CA--C-[O] |==|  0.92852
USER: genes 15 Torsion [C]-N--CA-[CB] |==|  0.52819
USER: genes 16 Torsion [N]-CA--C-[N] |==|  0.85780
USER: genes 17 Torsion [N]-CA--C-[O] |==|  0.65218
USER: genes 18 Torsion [N]-CA--CB-[CG] |==|  0.71555
USER: genes 19 Torsion [CA]-CB--CG-[CD] |==|  0.74189
USER: genes 20 Torsion [CB]-CG--CD-[NE] |==|  0.43157
USER: genes 21 Torsion [CG]-CD--NE-[HE] |==|  0.04576
ROOT
ATOM      1  C   LEU C   7      -0.001 -33.683  -8.842  1.00 32.10 LIG 0.24  C 
ATOM      2 O    LEU C   7      -0.987 -33.202  -9.438  1.00 36.06 LIG-0.27  OA
ATOM      3  N   PRO C   8      -0.059 -34.120  -7.561  1.00 34.15 LIG-0.34  N 
ATOM      4  CA  PRO C   8      -1.355 -33.942  -6.936  1.00 36.52 LIG 0.18  C 
ATOM      5  CB  PRO C   8      -1.173 -34.515  -5.510  1.00 33.63 LIG 0.04  C 
ATOM      6  CG  PRO C   8      -0.097 -35.534  -5.658  1.00 36.13 LIG 0.02  C 
ATOM      7  CD  PRO C   8       0.834 -34.976  -6.738  1.00 34.25 LIG 0.13  C 
ENDROOT
BRANCH 1 8
ATOM      8  CA  LEU C   7       1.312 -33.893  -9.621  1.00 27.99 LIG 0.18  C 
BRANCH 8 9
ATOM      9  N   LEU C   7       1.155 -34.315 -11.028  1.00 26.55 LIG-0.35  N 
ATOM     10 H    LEU C   7       1.223 -33.700 -11.624  1.00 26.55 LIG 0.16  HD
ATOM     11  C   TYR C   6       0.927 -35.579 -11.246  1.00 27.48 LIG 0.24  C 
ATOM     12 O    TYR C   6       0.906 -36.398 -10.281  1.00 27.70 LIG-0.27  OA
BRANCH 11 13
ATOM     13  CA  TYR C   6       0.624 -35.969 -12.666  1.00 25.37 LIG 0.18  C 
BRANCH 13 14
ATOM     14  CB  TYR C   6       1.762 -36.843 -13.225  1.00 25.99 LIG 0.07  C 
BRANCH 14 15
ATOM     15  CG  TYR C   6       1.343 -37.908 -14.233  1.00 32.28 LIG-0.06  A 
ATOM     16  CD1 TYR C   6       2.110 -39.061 -14.421  1.00 32.91 LIG 0.01  A 
ATOM     17  CE1 TYR C   6       1.735 -40.035 -15.327  1.00 37.22 LIG 0.04  A 
ATOM     18  CZ  TYR C   6       0.582 -39.856 -16.079  1.00 40.59 LIG 0.07  A 
ATOM     19  CE2 TYR C   6      -0.196 -38.707 -15.930  1.00 40.82 LIG 0.04  A 
ATOM     20  CD2 TYR C   6       0.196 -37.736 -15.015  1.00 36.01 LIG 0.01  A 
BRANCH 18 21
ATOM     21 OH   TYR C   6       0.225 -40.844 -16.973  1.00 45.73 LIG-0.36  OA
ATOM     22 HH   TYR C   6      -0.444 -41.259 -16.680  1.00 45.73 LIG 0.22  HD
ENDBRANCH 18 21
ENDBRANCH 14 15
ENDBRANCH 13 14
BRANCH 13 23
ATOM     23  N   TYR C   6       0.411 -34.855 -13.525  1.00 26.32 LIG-0.34  N 
ATOM     24 H    TYR C   6       1.001 -34.747 -14.141  1.00 26.32 LIG 0.16  HD
ATOM     25  C   SER C   5      -0.628 -34.084 -13.339  1.00 29.69 LIG 0.26  C 
ATOM     26 O    SER C   5      -1.406 -34.239 -12.346  1.00 27.24 LIG-0.27  OA
BRANCH 25 27
ATOM     27  CA  SER C   5      -0.870 -33.032 -14.477  1.00 35.45 LIG 0.42  C 
ATOM     28  N   SER C   5      -0.052 -33.368 -15.671  1.00 39.53 LIG 0.62  N 
BRANCH 27 29
ATOM     29  CB  SER C   5      -2.340 -32.886 -14.863  1.00 42.03 LIG 0.21  C 
BRANCH 29 30
ATOM     30 OG   SER C   5      -3.119 -34.003 -14.496  1.00 42.36 LIG-0.40  OA
ATOM     31 HG   SER C   5      -3.480 -33.861 -13.751  1.00 42.36 LIG 0.21  HD
ENDBRANCH 29 30
ENDBRANCH 27 29
ENDBRANCH 25 27
ENDBRANCH 13 23
ENDBRANCH 11 13
ENDBRANCH 8 9
BRANCH 8 32
ATOM     32  CB  LEU C   7       2.200 -32.706  -9.541  1.00 26.58 LIG 0.04  C 
BRANCH 32 33
ATOM     33  CG  LEU C   7       3.244 -32.949 -10.648  1.00 24.49 LIG-0.02  C 
ATOM     34  CD2 LEU C   7       4.366 -33.719 -10.014  1.00 27.30 LIG 0.01  C 
ATOM     35  CD1 LEU C   7       3.778 -31.580 -11.038  1.00 29.65 LIG 0.01  C 
ENDBRANCH 32 33
ENDBRANCH 8 32
ENDBRANCH 1 8
BRANCH 4 36
ATOM     36  C   PRO C   8      -1.765 -32.461  -6.974  1.00 40.02 LIG 0.24  C 
ATOM     37 O    PRO C   8      -0.925 -31.570  -7.030  1.00 40.33 LIG-0.27  OA
ATOM     38  N   ARG C   9      -3.068 -32.246  -7.047  1.00 39.93 LIG-0.35  N 
ATOM     39 H    ARG C   9      -3.636 -32.890  -7.088  1.00 39.93 LIG 0.16  HD
BRANCH 38 40
ATOM     40  CA  ARG C   9      -3.700 -30.937  -7.068  1.00 44.47 LIG 0.18  C 
BRANCH 40 41
ATOM     41  C   ARG C   9      -3.066 -30.066  -5.943  1.00 44.78 LIG 0.24  C 
ATOM     42  N   PRO C  10      -3.007 -30.580  -4.688  1.00 46.18 LIG-0.34  N 
ATOM     43  CA  PRO C  10      -2.466 -29.828  -3.512  1.00 48.25 LIG 0.17  C 
ATOM     44  CD  PRO C  10      -3.584 -31.884  -4.296  1.00 48.73 LIG 0.13  C 
ATOM     45  CB  PRO C  10      -2.649 -30.803  -2.332  1.00 49.47 LIG 0.04  C 
ATOM     46  CG  PRO C  10      -3.646 -31.818  -2.791  1.00 52.76 LIG 0.02  C 
ATOM     47 O    ARG C   9      -2.686 -28.921  -6.206  1.00 45.76 LIG-0.27  OA
BRANCH 43 48
ATOM     48  C   PRO C  10      -0.985 -29.423  -3.574  1.00 47.63 LIG 0.22  C 
ATOM     49 O    PRO C  10      -0.212 -29.744  -2.674  1.00 46.26 LIG-0.29  OA
ENDBRANCH 43 48
ENDBRANCH 40 41
BRANCH 40 50
ATOM     50  CB  ARG C   9      -5.243 -31.129  -6.899  1.00 49.80 LIG 0.04  C 
BRANCH 50 51
ATOM     51  CG  ARG C   9      -6.055 -30.998  -8.205  1.00 51.68 LIG 0.02  C 
BRANCH 51 52
ATOM     52  CD  ARG C   9      -6.595 -29.553  -8.465  1.00 46.90 LIG 0.14  C 
BRANCH 52 53
ATOM     53  NE  ARG C   9      -6.813 -29.360  -9.895  1.00 50.11 LIG-0.23  N 
ATOM     54 HE   ARG C   9      -6.844 -30.072 -10.376  1.00 50.11 LIG 0.18  HD
ATOM     55  CZ  ARG C   9      -6.970 -28.206 -10.537  1.00 44.95 LIG 0.67  C 
ATOM     56  NH1 ARG C   9      -7.157 -28.238 -11.829  1.00 55.49 LIG-0.23  N 
ATOM     57  NH2 ARG C   9      -6.953 -27.055  -9.925  1.00 40.08 LIG-0.23  N 
ATOM     58 1HH1 ARG C   9      -7.176 -28.992 -12.242  1.00 55.49 LIG 0.17  HD
ATOM     59 2HH1 ARG C   9      -7.261 -27.505 -12.267  1.00 55.49 LIG 0.17  HD
ATOM     60 1HH2 ARG C   9      -6.836 -27.023  -9.074  1.00 40.08 LIG 0.17  HD
ATOM     61 2HH2 ARG C   9      -7.057 -26.329 -10.373  1.00 40.08 LIG 0.17  HD
ENDBRANCH 52 53
ENDBRANCH 51 52
ENDBRANCH 50 51
ENDBRANCH 40 50
ENDBRANCH 38 40
ENDBRANCH 4 36
TORSDOF 20
ENDMDL
MODEL 18
USER: ADFR SOLUTION from run 22
USER: SCORE 19.941664 LL:  -3.770 LR: -17.577 RR:   0.000 FEB: -11.611
USER: RMSD 6.432310
USER: SEED 21
USER: STATUS no improvement in best in 13 clusters for 5 generations
USER: GENES 22
USER: genes 0 Translation |==|  0.62499 0.43743 0.64107
USER: genes 1 Rotation |==|  0.62601 0.23436 0.18604 0.75493
USER: genes 2 Torsion [N]-C--CA-[N] |==|  0.37317
USER: genes 3 Torsion [C]-CA--N-[C] |==|  0.65562
USER: genes 4 Torsion [N]-C--CA-[N] |==|  0.58333
USER: genes 5 Torsion [C]-CA--CB-[CG] |==|  0.27941
USER: genes 6 Torsion [CA]-CB--CG-[CD1] |==|  0.86237
USER: genes 7 Torsion [CE1]-CZ--OH-[HH] |==|  0.95194
USER: genes 8 Torsion [C]-CA--N-[C] |==|  0.54214
USER: genes 9 Torsion [N]-C--CA-[N] |==|  0.67218
USER: genes 10 Torsion [C]-CA--CB-[OG] |==|  0.32395
USER: genes 11 Torsion [CA]-CB--OG-[HG] |==|  0.42056
USER: genes 12 Torsion [C]-CA--CB-[CG] |==|  0.04182
USER: genes 13 Torsion [CA]-CB--CG-[CD2] |==|  0.59544
USER: genes 14 Torsion [N]-CA--C-[O] |==|  0.37249
USER: genes 15 Torsion [C]-N--CA-[CB] |==|  0.51324
USER: genes 16 Torsion [N]-CA--C-[N] |==|  0.44702
USER: genes 17 Torsion [N]-CA--C-[O] |==|  0.48140
USER: genes 18 Torsion [N]-CA--CB-[CG] |==|  0.57861
USER: genes 19 Torsion [CA]-CB--CG-[CD] |==|  0.37382
USER: genes 20 Torsion [CB]-CG--CD-[NE] |==|  0.63533
USER: genes 21 Torsion [CG]-CD--NE-[HE] |==|  0.04750
ROOT
ATOM      1  C   LEU C   7      -0.587 -33.864  -6.518  1.00 32.10 LIG 0.24  C 
ATOM      2 O    LEU C   7       0.461 -33.190  -6.442  1.00 36.06 LIG-0.27  OA
ATOM      3  N   PRO C   8      -0.601 -35.214  -6.407  1.00 34.15 LIG-0.34  N 
ATOM      4  CA  PRO C   8       0.711 -35.804  -6.229  1.00 36.52 LIG 0.18  C 
ATOM      5  CB  PRO C   8       0.435 -37.323  -6.119  1.00 33.63 LIG 0.04  C 
ATOM      6  CG  PRO C   8      -0.947 -37.407  -5.572  1.00 36.13 LIG 0.02  C 
ATOM      7  CD  PRO C   8      -1.684 -36.203  -6.167  1.00 34.25 LIG 0.13  C 
ENDROOT
BRANCH 1 8
ATOM      8  CA  LEU C   7      -1.938 -33.133  -6.638  1.00 27.99 LIG 0.18  C 
BRANCH 8 9
ATOM      9  N   LEU C   7      -2.089 -31.936  -5.786  1.00 26.55 LIG-0.35  N 
ATOM     10 H    LEU C   7      -1.495 -31.321  -5.876  1.00 26.55 LIG 0.16  HD
ATOM     11  C   TYR C   6      -3.106 -31.911  -4.972  1.00 27.48 LIG 0.24  C 
ATOM     12 O    TYR C   6      -3.945 -32.858  -4.973  1.00 27.70 LIG-0.27  OA
BRANCH 11 13
ATOM     13  CA  TYR C   6      -3.164 -30.757  -4.009  1.00 25.37 LIG 0.18  C 
BRANCH 13 14
ATOM     14  CB  TYR C   6      -1.742 -30.237  -3.727  1.00 25.99 LIG 0.07  C 
BRANCH 14 15
ATOM     15  CG  TYR C   6      -1.336 -28.979  -4.488  1.00 32.28 LIG-0.06  A 
ATOM     16  CD1 TYR C   6      -1.518 -28.884  -5.870  1.00 32.91 LIG 0.01  A 
ATOM     17  CE1 TYR C   6      -1.160 -27.746  -6.567  1.00 37.22 LIG 0.04  A 
ATOM     18  CZ  TYR C   6      -0.591 -26.681  -5.882  1.00 40.59 LIG 0.07  A 
ATOM     19  CE2 TYR C   6      -0.378 -26.749  -4.505  1.00 40.82 LIG 0.04  A 
ATOM     20  CD2 TYR C   6      -0.742 -27.903  -3.818  1.00 36.01 LIG 0.01  A 
BRANCH 18 21
ATOM     21 OH   TYR C   6      -0.247 -25.553  -6.598  1.00 45.73 LIG-0.36  OA
ATOM     22 HH   TYR C   6      -0.212 -25.740  -7.416  1.00 45.73 LIG 0.22  HD
ENDBRANCH 18 21
ENDBRANCH 14 15
ENDBRANCH 13 14
BRANCH 13 23
ATOM     23  N   TYR C   6      -3.809 -31.077  -2.782  1.00 26.32 LIG-0.34  N 
ATOM     24 H    TYR C   6      -3.913 -31.917  -2.628  1.00 26.32 LIG 0.16  HD
ATOM     25  C   SER C   5      -4.194 -30.116  -1.984  1.00 29.69 LIG 0.26  C 
ATOM     26 O    SER C   5      -4.101 -28.893  -2.318  1.00 27.24 LIG-0.27  OA
BRANCH 25 27
ATOM     27  CA  SER C   5      -4.686 -30.597  -0.575  1.00 35.45 LIG 0.42  C 
ATOM     28  N   SER C   5      -6.113 -30.233  -0.376  1.00 39.53 LIG 0.62  N 
BRANCH 27 29
ATOM     29  CB  SER C   5      -4.481 -32.091  -0.339  1.00 42.03 LIG 0.21  C 
BRANCH 29 30
ATOM     30 OG   SER C   5      -3.587 -32.364   0.718  1.00 42.36 LIG-0.40  OA
ATOM     31 HG   SER C   5      -3.784 -33.101   1.069  1.00 42.36 LIG 0.21  HD
ENDBRANCH 29 30
ENDBRANCH 27 29
ENDBRANCH 25 27
ENDBRANCH 13 23
ENDBRANCH 11 13
ENDBRANCH 8 9
BRANCH 8 32
ATOM     32  CB  LEU C   7      -2.266 -32.800  -8.046  1.00 26.58 LIG 0.04  C 
BRANCH 32 33
ATOM     33  CG  LEU C   7      -1.293 -33.666  -8.868  1.00 24.49 LIG-0.02  C 
ATOM     34  CD2 LEU C   7      -0.934 -32.865 -10.086  1.00 27.30 LIG 0.01  C 
ATOM     35  CD1 LEU C   7      -2.086 -34.881  -9.325  1.00 29.65 LIG 0.01  C 
ENDBRANCH 32 33
ENDBRANCH 8 32
ENDBRANCH 1 8
BRANCH 4 36
ATOM     36  C   PRO C   8       1.633 -35.413  -7.396  1.00 40.02 LIG 0.24  C 
ATOM     37 O    PRO C   8       2.778 -35.026  -7.199  1.00 40.33 LIG-0.27  OA
ATOM     38  N   ARG C   9       1.127 -35.629  -8.600  1.00 39.93 LIG-0.35  N 
ATOM     39 H    ARG C   9       0.349 -35.978  -8.714  1.00 39.93 LIG 0.16  HD
BRANCH 38 40
ATOM     40  CA  ARG C   9       1.793 -35.317  -9.854  1.00 44.47 LIG 0.18  C 
BRANCH 40 41
ATOM     41  C   ARG C   9       2.256 -33.831  -9.810  1.00 44.78 LIG 0.24  C 
ATOM     42  N   PRO C  10       3.222 -33.431 -10.675  1.00 46.18 LIG-0.34  N 
ATOM     43  CA  PRO C  10       3.786 -32.045 -10.703  1.00 48.25 LIG 0.17  C 
ATOM     44  CD  PRO C  10       3.931 -34.339 -11.605  1.00 48.73 LIG 0.13  C 
ATOM     45  CB  PRO C  10       4.859 -32.102 -11.809  1.00 49.47 LIG 0.04  C 
ATOM     46  CG  PRO C  10       5.149 -33.554 -12.022  1.00 52.76 LIG 0.02  C 
ATOM     47 O    ARG C   9       1.775 -33.072  -8.962  1.00 45.76 LIG-0.27  OA
BRANCH 43 48
ATOM     48  C   PRO C  10       2.807 -30.910 -11.043  1.00 47.63 LIG 0.22  C 
ATOM     49 O    PRO C  10       3.162 -29.736 -10.966  1.00 46.26 LIG-0.29  OA
ENDBRANCH 43 48
ENDBRANCH 40 41
BRANCH 40 50
ATOM     50  CB  ARG C   9       0.804 -35.616 -11.028  1.00 49.80 LIG 0.04  C 
BRANCH 50 51
ATOM     51  CG  ARG C   9       1.483 -36.005 -12.358  1.00 51.68 LIG 0.02  C 
BRANCH 51 52
ATOM     52  CD  ARG C   9       0.828 -37.241 -13.058  1.00 46.90 LIG 0.14  C 
BRANCH 52 53
ATOM     53  NE  ARG C   9       1.864 -38.194 -13.443  1.00 50.11 LIG-0.23  N 
ATOM     54 HE   ARG C   9       2.630 -38.101 -13.062  1.00 50.11 LIG 0.18  HD
ATOM     55  CZ  ARG C   9       1.757 -39.191 -14.316  1.00 44.95 LIG 0.67  C 
ATOM     56  NH1 ARG C   9       2.804 -39.943 -14.528  1.00 55.49 LIG-0.23  N 
ATOM     57  NH2 ARG C   9       0.650 -39.448 -14.955  1.00 40.08 LIG-0.23  N 
ATOM     58 1HH1 ARG C   9       3.538 -39.786 -14.107  1.00 55.49 LIG 0.17  HD
ATOM     59 2HH1 ARG C   9       2.759 -40.594 -15.088  1.00 55.49 LIG 0.17  HD
ATOM     60 1HH2 ARG C   9      -0.047 -38.963 -14.819  1.00 40.08 LIG 0.17  HD
ATOM     61 2HH2 ARG C   9       0.617 -40.101 -15.513  1.00 40.08 LIG 0.17  HD
ENDBRANCH 52 53
ENDBRANCH 51 52
ENDBRANCH 50 51
ENDBRANCH 40 50
ENDBRANCH 38 40
ENDBRANCH 4 36
TORSDOF 20
ENDMDL
MODEL 19
USER: ADFR SOLUTION from run 137
USER: SCORE 19.774739 LL:  -3.547 LR: -17.558 RR:   0.000 FEB: -11.592
USER: RMSD 5.206387
USER: SEED 136
USER: STATUS searching
USER: GENES 22
USER: genes 0 Translation |==|  0.58139 0.48430 0.59616
USER: genes 1 Rotation |==|  0.45295 0.30499 0.30178 0.91288
USER: genes 2 Torsion [N]-C--CA-[N] |==|  0.19396
USER: genes 3 Torsion [C]-CA--N-[C] |==|  0.16022
USER: genes 4 Torsion [N]-C--CA-[N] |==|  0.53284
USER: genes 5 Torsion [C]-CA--CB-[CG] |==|  0.31598
USER: genes 6 Torsion [CA]-CB--CG-[CD1] |==|  0.22955
USER: genes 7 Torsion [CE1]-CZ--OH-[HH] |==|  0.52694
USER: genes 8 Torsion [C]-CA--N-[C] |==|  0.59754
USER: genes 9 Torsion [N]-C--CA-[N] |==|  0.51863
USER: genes 10 Torsion [C]-CA--CB-[OG] |==|  0.16266
USER: genes 11 Torsion [CA]-CB--OG-[HG] |==|  0.56780
USER: genes 12 Torsion [C]-CA--CB-[CG] |==|  0.52984
USER: genes 13 Torsion [CA]-CB--CG-[CD2] |==|  0.82522
USER: genes 14 Torsion [N]-CA--C-[O] |==|  0.83741
USER: genes 15 Torsion [C]-N--CA-[CB] |==|  0.52222
USER: genes 16 Torsion [N]-CA--C-[N] |==|  0.45642
USER: genes 17 Torsion [N]-CA--C-[O] |==|  0.90335
USER: genes 18 Torsion [N]-CA--CB-[CG] |==|  0.00710
USER: genes 19 Torsion [CA]-CB--CG-[CD] |==|  0.28898
USER: genes 20 Torsion [CB]-CG--CD-[NE] |==|  0.69769
USER: genes 21 Torsion [CG]-CD--NE-[HE] |==|  0.74909
ROOT
ATOM      1  C   LEU C   7      -1.503 -33.021  -7.630  1.00 32.10 LIG 0.24  C 
ATOM      2 O    LEU C   7      -1.153 -32.392  -8.650  1.00 36.06 LIG-0.27  OA
ATOM      3  N   PRO C   8      -0.747 -33.997  -7.074  1.00 34.15 LIG-0.34  N 
ATOM      4  CA  PRO C   8       0.484 -34.270  -7.791  1.00 36.52 LIG 0.18  C 
ATOM      5  CB  PRO C   8       1.163 -35.393  -6.970  1.00 33.63 LIG 0.04  C 
ATOM      6  CG  PRO C   8       0.660 -35.190  -5.583  1.00 36.13 LIG 0.02  C 
ATOM      7  CD  PRO C   8      -0.771 -34.672  -5.750  1.00 34.25 LIG 0.13  C 
ENDROOT
BRANCH 1 8
ATOM      8  CA  LEU C   7      -2.797 -32.604  -6.904  1.00 27.99 LIG 0.18  C 
BRANCH 8 9
ATOM      9  N   LEU C   7      -2.604 -31.879  -5.631  1.00 26.55 LIG-0.35  N 
ATOM     10 H    LEU C   7      -2.963 -32.228  -4.932  1.00 26.55 LIG 0.16  HD
ATOM     11  C   TYR C   6      -1.910 -30.778  -5.675  1.00 27.48 LIG 0.24  C 
ATOM     12 O    TYR C   6      -1.385 -30.399  -6.762  1.00 27.70 LIG-0.27  OA
BRANCH 11 13
ATOM     13  CA  TYR C   6      -1.847 -29.977  -4.404  1.00 25.37 LIG 0.18  C 
BRANCH 13 14
ATOM     14  CB  TYR C   6      -3.250 -29.876  -3.777  1.00 25.99 LIG 0.07  C 
BRANCH 14 15
ATOM     15  CG  TYR C   6      -3.429 -30.585  -2.438  1.00 32.28 LIG-0.06  A 
ATOM     16  CD1 TYR C   6      -3.041 -29.973  -1.243  1.00 32.91 LIG 0.01  A 
ATOM     17  CE1 TYR C   6      -3.205 -30.604  -0.025  1.00 37.22 LIG 0.04  A 
ATOM     18  CZ  TYR C   6      -3.750 -31.880   0.011  1.00 40.59 LIG 0.07  A 
ATOM     19  CE2 TYR C   6      -4.131 -32.527  -1.165  1.00 40.82 LIG 0.04  A 
ATOM     20  CD2 TYR C   6      -3.957 -31.879  -2.384  1.00 36.01 LIG 0.01  A 
BRANCH 18 21
ATOM     21 OH   TYR C   6      -3.909 -32.489   1.239  1.00 45.73 LIG-0.36  OA
ATOM     22 HH   TYR C   6      -4.119 -33.294   1.128  1.00 45.73 LIG 0.22  HD
ENDBRANCH 18 21
ENDBRANCH 14 15
ENDBRANCH 13 14
BRANCH 13 23
ATOM     23  N   TYR C   6      -1.308 -28.672  -4.584  1.00 26.32 LIG-0.34  N 
ATOM     24 H    TYR C   6      -1.504 -28.293  -5.331  1.00 26.32 LIG 0.16  HD
ATOM     25  C   SER C   5      -0.574 -28.140  -3.643  1.00 29.69 LIG 0.26  C 
ATOM     26 O    SER C   5      -0.239 -28.794  -2.606  1.00 27.24 LIG-0.27  OA
BRANCH 25 27
ATOM     27  CA  SER C   5      -0.228 -26.627  -3.865  1.00 35.45 LIG 0.42  C 
ATOM     28  N   SER C   5       0.736 -26.163  -2.833  1.00 39.53 LIG 0.62  N 
BRANCH 27 29
ATOM     29  CB  SER C   5       0.304 -26.325  -5.263  1.00 42.03 LIG 0.21  C 
BRANCH 29 30
ATOM     30 OG   SER C   5      -0.599 -26.685  -6.285  1.00 42.36 LIG-0.40  OA
ATOM     31 HG   SER C   5      -0.177 -26.822  -6.998  1.00 42.36 LIG 0.21  HD
ENDBRANCH 29 30
ENDBRANCH 27 29
ENDBRANCH 25 27
ENDBRANCH 13 23
ENDBRANCH 11 13
ENDBRANCH 8 9
BRANCH 8 32
ATOM     32  CB  LEU C   7      -3.710 -31.841  -7.791  1.00 26.58 LIG 0.04  C 
BRANCH 32 33
ATOM     33  CG  LEU C   7      -4.782 -31.288  -6.833  1.00 24.49 LIG-0.02  C 
ATOM     34  CD2 LEU C   7      -5.482 -32.479  -6.245  1.00 27.30 LIG 0.01  C 
ATOM     35  CD1 LEU C   7      -5.782 -30.539  -7.700  1.00 29.65 LIG 0.01  C 
ENDBRANCH 32 33
ENDBRANCH 8 32
ENDBRANCH 1 8
BRANCH 4 36
ATOM     36  C   PRO C   8       0.177 -34.651  -9.248  1.00 40.02 LIG 0.24  C 
ATOM     37 O    PRO C   8      -0.538 -35.608  -9.518  1.00 40.33 LIG-0.27  OA
ATOM     38  N   ARG C   9       0.651 -33.811 -10.154  1.00 39.93 LIG-0.35  N 
ATOM     39 H    ARG C   9       1.083 -33.100  -9.937  1.00 39.93 LIG 0.16  HD
BRANCH 38 40
ATOM     40  CA  ARG C   9       0.515 -33.969 -11.593  1.00 44.47 LIG 0.18  C 
BRANCH 40 41
ATOM     41  C   ARG C   9       0.933 -35.421 -11.971  1.00 44.78 LIG 0.24  C 
ATOM     42  N   PRO C  10       0.584 -35.893 -13.194  1.00 46.18 LIG-0.34  N 
ATOM     43  CA  PRO C  10       0.885 -37.283 -13.661  1.00 48.25 LIG 0.17  C 
ATOM     44  CD  PRO C  10      -0.247 -35.149 -14.166  1.00 48.73 LIG 0.13  C 
ATOM     45  CB  PRO C  10       0.263 -37.346 -15.070  1.00 49.47 LIG 0.04  C 
ATOM     46  CG  PRO C  10      -0.702 -36.205 -15.141  1.00 52.76 LIG 0.02  C 
ATOM     47 O    ARG C   9       1.521 -36.117 -11.138  1.00 45.76 LIG-0.27  OA
BRANCH 43 48
ATOM     48  C   PRO C  10       2.369 -37.666 -13.775  1.00 47.63 LIG 0.22  C 
ATOM     49 O    PRO C  10       3.203 -36.833 -14.123  1.00 46.26 LIG-0.29  OA
ENDBRANCH 43 48
ENDBRANCH 40 41
BRANCH 40 50
ATOM     50  CB  ARG C   9       1.387 -32.878 -12.296  1.00 49.80 LIG 0.04  C 
BRANCH 50 51
ATOM     51  CG  ARG C   9       2.195 -31.981 -11.334  1.00 51.68 LIG 0.02  C 
BRANCH 51 52
ATOM     52  CD  ARG C   9       3.717 -32.334 -11.278  1.00 46.90 LIG 0.14  C 
BRANCH 52 53
ATOM     53  NE  ARG C   9       4.030 -32.955  -9.994  1.00 50.11 LIG-0.23  N 
ATOM     54 HE   ARG C   9       4.267 -32.424  -9.360  1.00 50.11 LIG 0.18  HD
ATOM     55  CZ  ARG C   9       3.991 -34.250  -9.695  1.00 44.95 LIG 0.67  C 
ATOM     56  NH1 ARG C   9       4.309 -34.614  -8.482  1.00 55.49 LIG-0.23  N 
ATOM     57  NH2 ARG C   9       3.642 -35.159 -10.561  1.00 40.08 LIG-0.23  N 
ATOM     58 1HH1 ARG C   9       4.536 -34.022  -7.901  1.00 55.49 LIG 0.17  HD
ATOM     59 2HH1 ARG C   9       4.292 -35.446  -8.264  1.00 55.49 LIG 0.17  HD
ATOM     60 1HH2 ARG C   9       3.426 -34.931 -11.361  1.00 40.08 LIG 0.17  HD
ATOM     61 2HH2 ARG C   9       3.628 -35.988 -10.332  1.00 40.08 LIG 0.17  HD
ENDBRANCH 52 53
ENDBRANCH 51 52
ENDBRANCH 50 51
ENDBRANCH 40 50
ENDBRANCH 38 40
ENDBRANCH 4 36
TORSDOF 20
ENDMDL
MODEL 20
USER: ADFR SOLUTION from run 111
USER: SCORE 18.914015 LL:  -2.678 LR: -17.549 RR:   0.000 FEB: -11.583
USER: RMSD 10.555039
USER: SEED 110
USER: STATUS no improvement in best in 6 clusters for 5 generations
USER: GENES 22
USER: genes 0 Translation |==|  0.63408 0.40489 0.63997
USER: genes 1 Rotation |==|  0.67442 0.91194 0.40449 0.70190
USER: genes 2 Torsion [N]-C--CA-[N] |==|  0.16562
USER: genes 3 Torsion [C]-CA--N-[C] |==|  0.72370
USER: genes 4 Torsion [N]-C--CA-[N] |==|  0.37078
USER: genes 5 Torsion [C]-CA--CB-[CG] |==|  0.28298
USER: genes 6 Torsion [CA]-CB--CG-[CD1] |==|  0.44018
USER: genes 7 Torsion [CE1]-CZ--OH-[HH] |==|  0.36439
USER: genes 8 Torsion [C]-CA--N-[C] |==|  0.55483
USER: genes 9 Torsion [N]-C--CA-[N] |==|  0.26551
USER: genes 10 Torsion [C]-CA--CB-[OG] |==|  0.26668
USER: genes 11 Torsion [CA]-CB--OG-[HG] |==|  0.73767
USER: genes 12 Torsion [C]-CA--CB-[CG] |==|  0.30734
USER: genes 13 Torsion [CA]-CB--CG-[CD2] |==|  0.96048
USER: genes 14 Torsion [N]-CA--C-[O] |==|  0.98552
USER: genes 15 Torsion [C]-N--CA-[CB] |==|  0.51296
USER: genes 16 Torsion [N]-CA--C-[N] |==|  0.49849
USER: genes 17 Torsion [N]-CA--C-[O] |==|  0.21387
USER: genes 18 Torsion [N]-CA--CB-[CG] |==|  0.90576
USER: genes 19 Torsion [CA]-CB--CG-[CD] |==|  0.24890
USER: genes 20 Torsion [CB]-CG--CD-[NE] |==|  0.52711
USER: genes 21 Torsion [CG]-CD--NE-[HE] |==|  0.96012
ROOT
ATOM      1  C   LEU C   7      -0.396 -34.450  -6.546  1.00 32.10 LIG 0.24  C 
ATOM      2 O    LEU C   7       0.078 -34.144  -5.432  1.00 36.06 LIG-0.27  OA
ATOM      3  N   PRO C   8      -1.219 -33.630  -7.244  1.00 34.15 LIG-0.34  N 
ATOM      4  CA  PRO C   8      -1.526 -32.387  -6.564  1.00 36.52 LIG 0.18  C 
ATOM      5  CB  PRO C   8      -2.454 -31.634  -7.547  1.00 33.63 LIG 0.04  C 
ATOM      6  CG  PRO C   8      -2.060 -32.145  -8.889  1.00 36.13 LIG 0.02  C 
ATOM      7  CD  PRO C   8      -1.668 -33.607  -8.660  1.00 34.25 LIG 0.13  C 
ENDROOT
BRANCH 1 8
ATOM      8  CA  LEU C   7       0.050 -35.766  -7.212  1.00 27.99 LIG 0.18  C 
BRANCH 8 9
ATOM      9  N   LEU C   7       0.789 -35.615  -8.482  1.00 26.55 LIG-0.35  N 
ATOM     10 H    LEU C   7       1.625 -35.423  -8.421  1.00 26.55 LIG 0.16  HD
ATOM     11  C   TYR C   6       0.116 -35.786  -9.584  1.00 27.48 LIG 0.24  C 
ATOM     12 O    TYR C   6      -1.102 -36.125  -9.539  1.00 27.70 LIG-0.27  OA
BRANCH 11 13
ATOM     13  CA  TYR C   6       0.843 -35.486 -10.865  1.00 25.37 LIG 0.18  C 
BRANCH 13 14
ATOM     14  CB  TYR C   6       0.381 -34.127 -11.425  1.00 25.99 LIG 0.07  C 
BRANCH 14 15
ATOM     15  CG  TYR C   6       1.331 -32.958 -11.188  1.00 32.28 LIG-0.06  A 
ATOM     16  CD1 TYR C   6       1.277 -31.814 -11.989  1.00 32.91 LIG 0.01  A 
ATOM     17  CE1 TYR C   6       2.129 -30.746 -11.778  1.00 37.22 LIG 0.04  A 
ATOM     18  CZ  TYR C   6       3.069 -30.819 -10.760  1.00 40.59 LIG 0.07  A 
ATOM     19  CE2 TYR C   6       3.163 -31.954  -9.954  1.00 40.82 LIG 0.04  A 
ATOM     20  CD2 TYR C   6       2.300 -33.021 -10.181  1.00 36.01 LIG 0.01  A 
BRANCH 18 21
ATOM     21 OH   TYR C   6       3.906 -29.738 -10.565  1.00 45.73 LIG-0.36  OA
ATOM     22 HH   TYR C   6       3.913 -29.534  -9.751  1.00 45.73 LIG 0.22  HD
ENDBRANCH 18 21
ENDBRANCH 14 15
ENDBRANCH 13 14
BRANCH 13 23
ATOM     23  N   TYR C   6       0.679 -36.492 -11.858  1.00 26.32 LIG-0.34  N 
ATOM     24 H    TYR C   6       0.003 -37.012 -11.747  1.00 26.32 LIG 0.16  HD
ATOM     25  C   SER C   5       1.531 -36.572 -12.845  1.00 29.69 LIG 0.26  C 
ATOM     26 O    SER C   5       2.567 -35.837 -12.895  1.00 27.24 LIG-0.27  OA
BRANCH 25 27
ATOM     27  CA  SER C   5       1.120 -37.570 -13.982  1.00 35.45 LIG 0.42  C 
ATOM     28  N   SER C   5       0.431 -36.845 -15.080  1.00 39.53 LIG 0.62  N 
BRANCH 27 29
ATOM     29  CB  SER C   5       2.292 -38.379 -14.532  1.00 42.03 LIG 0.21  C 
BRANCH 29 30
ATOM     30 OG   SER C   5       2.413 -39.650 -13.933  1.00 42.36 LIG-0.40  OA
ATOM     31 HG   SER C   5       2.957 -39.609 -13.294  1.00 42.36 LIG 0.21  HD
ENDBRANCH 29 30
ENDBRANCH 27 29
ENDBRANCH 25 27
ENDBRANCH 13 23
ENDBRANCH 11 13
ENDBRANCH 8 9
BRANCH 8 32
ATOM     32  CB  LEU C   7       0.815 -36.629  -6.277  1.00 26.58 LIG 0.04  C 
BRANCH 32 33
ATOM     33  CG  LEU C   7      -0.129 -37.818  -6.014  1.00 24.49 LIG-0.02  C 
ATOM     34  CD2 LEU C   7      -1.483 -37.405  -6.512  1.00 27.30 LIG 0.01  C 
ATOM     35  CD1 LEU C   7      -0.212 -37.968  -4.502  1.00 29.65 LIG 0.01  C 
ENDBRANCH 32 33
ENDBRANCH 8 32
ENDBRANCH 1 8
BRANCH 4 36
ATOM     36  C   PRO C   8      -2.159 -32.673  -5.192  1.00 40.02 LIG 0.24  C 
ATOM     37 O    PRO C   8      -2.429 -33.816  -4.843  1.00 40.33 LIG-0.27  OA
ATOM     38  N   ARG C   9      -2.281 -31.617  -4.405  1.00 39.93 LIG-0.35  N 
ATOM     39 H    ARG C   9      -2.009 -30.836  -4.642  1.00 39.93 LIG 0.16  HD
BRANCH 38 40
ATOM     40  CA  ARG C   9      -2.871 -31.628  -3.077  1.00 44.47 LIG 0.18  C 
BRANCH 40 41
ATOM     41  C   ARG C   9      -4.275 -32.296  -3.167  1.00 44.78 LIG 0.24  C 
ATOM     42  N   PRO C  10      -5.002 -32.421  -2.028  1.00 46.18 LIG-0.34  N 
ATOM     43  CA  PRO C  10      -6.343 -33.084  -1.972  1.00 48.25 LIG 0.17  C 
ATOM     44  CD  PRO C  10      -4.513 -32.042  -0.684  1.00 48.73 LIG 0.13  C 
ATOM     45  CB  PRO C  10      -6.732 -33.012  -0.482  1.00 49.47 LIG 0.04  C 
ATOM     46  CG  PRO C  10      -5.462 -32.738   0.259  1.00 52.76 LIG 0.02  C 
ATOM     47 O    ARG C   9      -4.666 -32.738  -4.251  1.00 45.76 LIG-0.27  OA
BRANCH 43 48
ATOM     48  C   PRO C  10      -7.468 -32.434  -2.793  1.00 47.63 LIG 0.22  C 
ATOM     49 O    PRO C  10      -7.519 -32.586  -4.012  1.00 46.26 LIG-0.29  OA
ENDBRANCH 43 48
ENDBRANCH 40 41
BRANCH 40 50
ATOM     50  CB  ARG C   9      -2.925 -30.158  -2.546  1.00 49.80 LIG 0.04  C 
BRANCH 50 51
ATOM     51  CG  ARG C   9      -1.751 -29.265  -3.002  1.00 51.68 LIG 0.02  C 
BRANCH 51 52
ATOM     52  CD  ARG C   9      -2.019 -28.520  -4.351  1.00 46.90 LIG 0.14  C 
BRANCH 52 53
ATOM     53  NE  ARG C   9      -0.787 -27.893  -4.819  1.00 50.11 LIG-0.23  N 
ATOM     54 HE   ARG C   9      -0.147 -27.832  -4.247  1.00 50.11 LIG 0.18  HD
ATOM     55  CZ  ARG C   9      -0.542 -27.404  -6.031  1.00 44.95 LIG 0.67  C 
ATOM     56  NH1 ARG C   9       0.631 -26.877  -6.260  1.00 55.49 LIG-0.23  N 
ATOM     57  NH2 ARG C   9      -1.421 -27.439  -6.992  1.00 40.08 LIG-0.23  N 
ATOM     58 1HH1 ARG C   9       1.221 -26.854  -5.635  1.00 55.49 LIG 0.17  HD
ATOM     59 2HH1 ARG C   9       0.814 -26.554  -7.036  1.00 55.49 LIG 0.17  HD
ATOM     60 1HH2 ARG C   9      -2.195 -27.788  -6.854  1.00 40.08 LIG 0.17  HD
ATOM     61 2HH2 ARG C   9      -1.228 -27.113  -7.764  1.00 40.08 LIG 0.17  HD
ENDBRANCH 52 53
ENDBRANCH 51 52
ENDBRANCH 50 51
ENDBRANCH 40 50
ENDBRANCH 38 40
ENDBRANCH 4 36
TORSDOF 20
ENDMDL
MODEL 21
USER: ADFR SOLUTION from run 62
USER: SCORE 19.681769 LL:  -2.728 LR: -17.458 RR:   0.000 FEB: -11.492
USER: RMSD 3.859234
USER: SEED 61
USER: STATUS no improvement in best in 3 clusters for 5 generations
USER: GENES 22
USER: genes 0 Translation |==|  0.61008 0.48803 0.54469
USER: genes 1 Rotation |==|  0.47804 0.49185 0.43069 0.99462
USER: genes 2 Torsion [N]-C--CA-[N] |==|  0.47211
USER: genes 3 Torsion [C]-CA--N-[C] |==|  0.78372
USER: genes 4 Torsion [N]-C--CA-[N] |==|  0.04744
USER: genes 5 Torsion [C]-CA--CB-[CG] |==|  0.78597
USER: genes 6 Torsion [CA]-CB--CG-[CD1] |==|  0.35347
USER: genes 7 Torsion [CE1]-CZ--OH-[HH] |==|  0.54276
USER: genes 8 Torsion [C]-CA--N-[C] |==|  0.69894
USER: genes 9 Torsion [N]-C--CA-[N] |==|  0.06027
USER: genes 10 Torsion [C]-CA--CB-[OG] |==|  0.10722
USER: genes 11 Torsion [CA]-CB--OG-[HG] |==|  0.07458
USER: genes 12 Torsion [C]-CA--CB-[CG] |==|  0.37717
USER: genes 13 Torsion [CA]-CB--CG-[CD2] |==|  0.95458
USER: genes 14 Torsion [N]-CA--C-[O] |==|  0.89077
USER: genes 15 Torsion [C]-N--CA-[CB] |==|  0.51667
USER: genes 16 Torsion [N]-CA--C-[N] |==|  0.46250
USER: genes 17 Torsion [N]-CA--C-[O] |==|  0.86896
USER: genes 18 Torsion [N]-CA--CB-[CG] |==|  0.72754
USER: genes 19 Torsion [CA]-CB--CG-[CD] |==|  0.47253
USER: genes 20 Torsion [CB]-CG--CD-[NE] |==|  0.36053
USER: genes 21 Torsion [CG]-CD--NE-[HE] |==|  0.19308
ROOT
ATOM      1  C   LEU C   7      -0.900 -32.953  -8.904  1.00 32.10 LIG 0.24  C 
ATOM      2 O    LEU C   7      -1.673 -32.249  -9.586  1.00 36.06 LIG-0.27  OA
ATOM      3  N   PRO C   8       0.313 -33.358  -9.352  1.00 34.15 LIG-0.34  N 
ATOM      4  CA  PRO C   8       0.613 -32.931 -10.705  1.00 36.52 LIG 0.18  C 
ATOM      5  CB  PRO C   8       2.028 -33.496 -10.978  1.00 33.63 LIG 0.04  C 
ATOM      6  CG  PRO C   8       2.657 -33.579  -9.631  1.00 36.13 LIG 0.02  C 
ATOM      7  CD  PRO C   8       1.510 -33.921  -8.675  1.00 34.25 LIG 0.13  C 
ENDROOT
BRANCH 1 8
ATOM      8  CA  LEU C   7      -1.287 -33.294  -7.451  1.00 27.99 LIG 0.18  C 
BRANCH 8 9
ATOM      9  N   LEU C   7      -2.510 -32.634  -6.949  1.00 26.55 LIG-0.35  N 
ATOM     10 H    LEU C   7      -3.222 -33.114  -6.921  1.00 26.55 LIG 0.16  HD
ATOM     11  C   TYR C   6      -2.407 -31.386  -6.593  1.00 27.48 LIG 0.24  C 
ATOM     12 O    TYR C   6      -1.284 -30.804  -6.629  1.00 27.70 LIG-0.27  OA
BRANCH 11 13
ATOM     13  CA  TYR C   6      -3.686 -30.688  -6.225  1.00 25.37 LIG 0.18  C 
BRANCH 13 14
ATOM     14  CB  TYR C   6      -3.453 -29.770  -5.010  1.00 25.99 LIG 0.07  C 
BRANCH 14 15
ATOM     15  CG  TYR C   6      -3.371 -30.471  -3.658  1.00 32.28 LIG-0.06  A 
ATOM     16  CD1 TYR C   6      -2.286 -30.259  -2.803  1.00 32.91 LIG 0.01  A 
ATOM     17  CE1 TYR C   6      -2.206 -30.884  -1.573  1.00 37.22 LIG 0.04  A 
ATOM     18  CZ  TYR C   6      -3.216 -31.754  -1.186  1.00 40.59 LIG 0.07  A 
ATOM     19  CE2 TYR C   6      -4.304 -32.004  -2.024  1.00 40.82 LIG 0.04  A 
ATOM     20  CD2 TYR C   6      -4.368 -31.368  -3.260  1.00 36.01 LIG 0.01  A 
BRANCH 18 21
ATOM     21 OH   TYR C   6      -3.117 -32.363   0.048  1.00 45.73 LIG-0.36  OA
ATOM     22 HH   TYR C   6      -3.652 -33.009   0.086  1.00 45.73 LIG 0.22  HD
ENDBRANCH 18 21
ENDBRANCH 14 15
ENDBRANCH 13 14
BRANCH 13 23
ATOM     23  N   TYR C   6      -4.759 -31.581  -5.950  1.00 26.32 LIG-0.34  N 
ATOM     24 H    TYR C   6      -4.694 -32.020  -5.214  1.00 26.32 LIG 0.16  HD
ATOM     25  C   SER C   5      -5.748 -31.684  -6.798  1.00 29.69 LIG 0.26  C 
ATOM     26 O    SER C   5      -5.734 -31.082  -7.918  1.00 27.24 LIG-0.27  OA
BRANCH 25 27
ATOM     27  CA  SER C   5      -6.965 -32.528  -6.281  1.00 35.45 LIG 0.42  C 
ATOM     28  N   SER C   5      -6.958 -32.583  -4.796  1.00 39.53 LIG 0.62  N 
BRANCH 27 29
ATOM     29  CB  SER C   5      -8.312 -32.021  -6.788  1.00 42.03 LIG 0.21  C 
BRANCH 29 30
ATOM     30 OG   SER C   5      -8.267 -31.583  -8.128  1.00 42.36 LIG-0.40  OA
ATOM     31 HG   SER C   5      -7.653 -31.987  -8.535  1.00 42.36 LIG 0.21  HD
ENDBRANCH 29 30
ENDBRANCH 27 29
ENDBRANCH 25 27
ENDBRANCH 13 23
ENDBRANCH 11 13
ENDBRANCH 8 9
BRANCH 8 32
ATOM     32  CB  LEU C   7      -1.370 -34.758  -7.228  1.00 26.58 LIG 0.04  C 
BRANCH 32 33
ATOM     33  CG  LEU C   7      -0.647 -34.970  -5.884  1.00 24.49 LIG-0.02  C 
ATOM     34  CD2 LEU C   7       0.143 -33.721  -5.624  1.00 27.30 LIG 0.01  C 
ATOM     35  CD1 LEU C   7       0.337 -36.109  -6.103  1.00 29.65 LIG 0.01  C 
ENDBRANCH 32 33
ENDBRANCH 8 32
ENDBRANCH 1 8
BRANCH 4 36
ATOM     36  C   PRO C   8      -0.467 -33.436 -11.674  1.00 40.02 LIG 0.24  C 
ATOM     37 O    PRO C   8      -0.954 -34.554 -11.557  1.00 40.33 LIG-0.27  OA
ATOM     38  N   ARG C   9      -0.887 -32.542 -12.554  1.00 39.93 LIG-0.35  N 
ATOM     39 H    ARG C   9      -0.587 -31.736 -12.566  1.00 39.93 LIG 0.16  HD
BRANCH 38 40
ATOM     40  CA  ARG C   9      -1.879 -32.788 -13.588  1.00 44.47 LIG 0.18  C 
BRANCH 40 41
ATOM     41  C   ARG C   9      -1.470 -34.073 -14.368  1.00 44.78 LIG 0.24  C 
ATOM     42  N   PRO C  10      -2.386 -34.647 -15.188  1.00 46.18 LIG-0.34  N 
ATOM     43  CA  PRO C  10      -2.133 -35.907 -15.956  1.00 48.25 LIG 0.17  C 
ATOM     44  CD  PRO C  10      -3.783 -34.182 -15.327  1.00 48.73 LIG 0.13  C 
ATOM     45  CB  PRO C  10      -3.463 -36.167 -16.692  1.00 49.47 LIG 0.04  C 
ATOM     46  CG  PRO C  10      -4.489 -35.341 -15.983  1.00 52.76 LIG 0.02  C 
ATOM     47 O    ARG C   9      -0.351 -34.562 -14.183  1.00 45.76 LIG-0.27  OA
BRANCH 43 48
ATOM     48  C   PRO C  10      -1.008 -35.863 -17.002  1.00 47.63 LIG 0.22  C 
ATOM     49 O    PRO C  10      -0.933 -34.930 -17.799  1.00 46.26 LIG-0.29  OA
ENDBRANCH 43 48
ENDBRANCH 40 41
BRANCH 40 50
ATOM     50  CB  ARG C   9      -1.969 -31.521 -14.500  1.00 49.80 LIG 0.04  C 
BRANCH 50 51
ATOM     51  CG  ARG C   9      -3.133 -30.565 -14.160  1.00 51.68 LIG 0.02  C 
BRANCH 51 52
ATOM     52  CD  ARG C   9      -3.060 -29.197 -14.915  1.00 46.90 LIG 0.14  C 
BRANCH 52 53
ATOM     53  NE  ARG C   9      -4.345 -28.917 -15.549  1.00 50.11 LIG-0.23  N 
ATOM     54 HE   ARG C   9      -5.000 -28.734 -15.021  1.00 50.11 LIG 0.18  HD
ATOM     55  CZ  ARG C   9      -4.617 -28.911 -16.850  1.00 44.95 LIG 0.67  C 
ATOM     56  NH1 ARG C   9      -5.837 -28.634 -17.226  1.00 55.49 LIG-0.23  N 
ATOM     57  NH2 ARG C   9      -3.715 -29.163 -17.756  1.00 40.08 LIG-0.23  N 
ATOM     58 1HH1 ARG C   9      -6.439 -28.461 -16.637  1.00 55.49 LIG 0.17  HD
ATOM     59 2HH1 ARG C   9      -6.038 -28.625 -18.062  1.00 55.49 LIG 0.17  HD
ATOM     60 1HH2 ARG C   9      -2.907 -29.341 -17.521  1.00 40.08 LIG 0.17  HD
ATOM     61 2HH2 ARG C   9      -3.927 -29.151 -18.590  1.00 40.08 LIG 0.17  HD
ENDBRANCH 52 53
ENDBRANCH 51 52
ENDBRANCH 50 51
ENDBRANCH 40 50
ENDBRANCH 38 40
ENDBRANCH 4 36
TORSDOF 20
ENDMDL
MODEL 22
USER: ADFR SOLUTION from run 194
USER: SCORE 19.310775 LL:  -3.016 LR: -17.453 RR:   0.000 FEB: -11.487
USER: RMSD 10.846690
USER: SEED 193
USER: STATUS no improvement in best in 23 clusters for 5 generations
USER: GENES 22
USER: genes 0 Translation |==|  0.63414 0.47313 0.53143
USER: genes 1 Rotation |==|  0.07584 0.71848 0.35059 0.50567
USER: genes 2 Torsion [N]-C--CA-[N] |==|  0.40832
USER: genes 3 Torsion [C]-CA--N-[C] |==|  0.83768
USER: genes 4 Torsion [N]-C--CA-[N] |==|  0.91051
USER: genes 5 Torsion [C]-CA--CB-[CG] |==|  0.11063
USER: genes 6 Torsion [CA]-CB--CG-[CD1] |==|  0.27985
USER: genes 7 Torsion [CE1]-CZ--OH-[HH] |==|  0.39933
USER: genes 8 Torsion [C]-CA--N-[C] |==|  0.59570
USER: genes 9 Torsion [N]-C--CA-[N] |==|  0.42244
USER: genes 10 Torsion [C]-CA--CB-[OG] |==|  0.80732
USER: genes 11 Torsion [CA]-CB--OG-[HG] |==|  0.74852
USER: genes 12 Torsion [C]-CA--CB-[CG] |==|  0.44924
USER: genes 13 Torsion [CA]-CB--CG-[CD2] |==|  0.75154
USER: genes 14 Torsion [N]-CA--C-[O] |==|  0.97845
USER: genes 15 Torsion [C]-N--CA-[CB] |==|  0.54129
USER: genes 16 Torsion [N]-CA--C-[N] |==|  0.36111
USER: genes 17 Torsion [N]-CA--C-[O] |==|  0.25579
USER: genes 18 Torsion [N]-CA--CB-[CG] |==|  0.21009
USER: genes 19 Torsion [CA]-CB--CG-[CD] |==|  0.27122
USER: genes 20 Torsion [CB]-CG--CD-[NE] |==|  0.41580
USER: genes 21 Torsion [CG]-CD--NE-[HE] |==|  0.05330
ROOT
ATOM      1  C   LEU C   7      -0.395 -33.222  -9.232  1.00 32.10 LIG 0.24  C 
ATOM      2 O    LEU C   7      -1.509 -32.675  -9.365  1.00 36.06 LIG-0.27  OA
ATOM      3  N   PRO C   8      -0.093 -34.029  -8.187  1.00 34.15 LIG-0.34  N 
ATOM      4  CA  PRO C   8      -1.166 -34.167  -7.221  1.00 36.52 LIG 0.18  C 
ATOM      5  CB  PRO C   8      -0.593 -35.126  -6.150  1.00 33.63 LIG 0.04  C 
ATOM      6  CG  PRO C   8       0.404 -35.949  -6.888  1.00 36.13 LIG 0.02  C 
ATOM      7  CD  PRO C   8       0.997 -35.008  -7.941  1.00 34.25 LIG 0.13  C 
ENDROOT
BRANCH 1 8
ATOM      8  CA  LEU C   7       0.652 -33.065 -10.352  1.00 27.99 LIG 0.18  C 
BRANCH 8 9
ATOM      9  N   LEU C   7       0.104 -32.870 -11.710  1.00 26.55 LIG-0.35  N 
ATOM     10 H    LEU C   7       0.336 -32.152 -12.120  1.00 26.55 LIG 0.16  HD
ATOM     11  C   TYR C   6      -0.682 -33.801 -12.171  1.00 27.48 LIG 0.24  C 
ATOM     12 O    TYR C   6      -0.903 -34.844 -11.489  1.00 27.70 LIG-0.27  OA
BRANCH 11 13
ATOM     13  CA  TYR C   6      -1.348 -33.521 -13.490  1.00 25.37 LIG 0.18  C 
BRANCH 13 14
ATOM     14  CB  TYR C   6      -0.471 -34.047 -14.643  1.00 25.99 LIG 0.07  C 
BRANCH 14 15
ATOM     15  CG  TYR C   6       0.209 -35.390 -14.396  1.00 32.28 LIG-0.06  A 
ATOM     16  CD1 TYR C   6      -0.310 -36.568 -14.938  1.00 32.91 LIG 0.01  A 
ATOM     17  CE1 TYR C   6       0.303 -37.789 -14.727  1.00 37.22 LIG 0.04  A 
ATOM     18  CZ  TYR C   6       1.449 -37.847 -13.945  1.00 40.59 LIG 0.07  A 
ATOM     19  CE2 TYR C   6       1.982 -36.692 -13.373  1.00 40.82 LIG 0.04  A 
ATOM     20  CD2 TYR C   6       1.352 -35.472 -13.594  1.00 36.01 LIG 0.01  A 
BRANCH 18 21
ATOM     21 OH   TYR C   6       2.046 -39.076 -13.752  1.00 45.73 LIG-0.36  OA
ATOM     22 HH   TYR C   6       2.880 -38.982 -13.733  1.00 45.73 LIG 0.22  HD
ENDBRANCH 18 21
ENDBRANCH 14 15
ENDBRANCH 13 14
BRANCH 13 23
ATOM     23  N   TYR C   6      -1.635 -32.143 -13.698  1.00 26.32 LIG-0.34  N 
ATOM     24 H    TYR C   6      -1.063 -31.594 -13.366  1.00 26.32 LIG 0.16  HD
ATOM     25  C   SER C   5      -2.711 -31.799 -14.354  1.00 29.69 LIG 0.26  C 
ATOM     26 O    SER C   5      -3.569 -32.658 -14.730  1.00 27.24 LIG-0.27  OA
BRANCH 25 27
ATOM     27  CA  SER C   5      -2.799 -30.273 -14.706  1.00 35.45 LIG 0.42  C 
ATOM     28  N   SER C   5      -3.603 -30.075 -15.940  1.00 39.53 LIG 0.62  N 
BRANCH 27 29
ATOM     29  CB  SER C   5      -3.352 -29.420 -13.568  1.00 42.03 LIG 0.21  C 
BRANCH 29 30
ATOM     30 OG   SER C   5      -4.723 -29.649 -13.324  1.00 42.36 LIG-0.40  OA
ATOM     31 HG   SER C   5      -5.183 -29.121 -13.788  1.00 42.36 LIG 0.21  HD
ENDBRANCH 29 30
ENDBRANCH 27 29
ENDBRANCH 25 27
ENDBRANCH 13 23
ENDBRANCH 11 13
ENDBRANCH 8 9
BRANCH 8 32
ATOM     32  CB  LEU C   7       1.638 -32.000 -10.044  1.00 26.58 LIG 0.04  C 
BRANCH 32 33
ATOM     33  CG  LEU C   7       2.819 -32.304 -10.986  1.00 24.49 LIG-0.02  C 
ATOM     34  CD2 LEU C   7       3.728 -33.238 -10.242  1.00 27.30 LIG 0.01  C 
ATOM     35  CD1 LEU C   7       3.557 -30.989 -11.182  1.00 29.65 LIG 0.01  C 
ENDBRANCH 32 33
ENDBRANCH 8 32
ENDBRANCH 1 8
BRANCH 4 36
ATOM     36  C   PRO C   8      -1.577 -32.789  -6.680  1.00 40.02 LIG 0.24  C 
ATOM     37 O    PRO C   8      -0.936 -31.782  -6.954  1.00 40.33 LIG-0.27  OA
ATOM     38  N   ARG C   9      -2.713 -32.773  -6.002  1.00 39.93 LIG-0.35  N 
ATOM     39 H    ARG C   9      -3.189 -33.481  -5.890  1.00 39.93 LIG 0.16  HD
BRANCH 38 40
ATOM     40  CA  ARG C   9      -3.294 -31.599  -5.372  1.00 44.47 LIG 0.18  C 
BRANCH 40 41
ATOM     41  C   ARG C   9      -2.153 -30.796  -4.679  1.00 44.78 LIG 0.24  C 
ATOM     42  N   PRO C  10      -2.062 -29.465  -4.926  1.00 46.18 LIG-0.34  N 
ATOM     43  CA  PRO C  10      -0.987 -28.591  -4.360  1.00 48.25 LIG 0.17  C 
ATOM     44  CD  PRO C  10      -2.926 -28.736  -5.881  1.00 48.73 LIG 0.13  C 
ATOM     45  CB  PRO C  10      -1.288 -27.200  -4.953  1.00 49.47 LIG 0.04  C 
ATOM     46  CG  PRO C  10      -2.193 -27.440  -6.119  1.00 52.76 LIG 0.02  C 
ATOM     47 O    ARG C   9      -1.336 -31.394  -3.972  1.00 45.76 LIG-0.27  OA
BRANCH 43 48
ATOM     48  C   PRO C  10      -0.938 -28.459  -2.830  1.00 47.63 LIG 0.22  C 
ATOM     49 O    PRO C  10      -0.238 -29.216  -2.160  1.00 46.26 LIG-0.29  OA
ENDBRANCH 43 48
ENDBRANCH 40 41
BRANCH 40 50
ATOM     50  CB  ARG C   9      -4.403 -32.071  -4.374  1.00 49.80 LIG 0.04  C 
BRANCH 50 51
ATOM     51  CG  ARG C   9      -3.870 -32.671  -3.056  1.00 51.68 LIG 0.02  C 
BRANCH 51 52
ATOM     52  CD  ARG C   9      -3.847 -31.653  -1.869  1.00 46.90 LIG 0.14  C 
BRANCH 52 53
ATOM     53  NE  ARG C   9      -4.045 -32.363  -0.609  1.00 50.11 LIG-0.23  N 
ATOM     54 HE   ARG C   9      -3.893 -33.209  -0.619  1.00 50.11 LIG 0.18  HD
ATOM     55  CZ  ARG C   9      -4.433 -31.848   0.554  1.00 44.95 LIG 0.67  C 
ATOM     56  NH1 ARG C   9      -4.553 -32.650   1.577  1.00 55.49 LIG-0.23  N 
ATOM     57  NH2 ARG C   9      -4.688 -30.579   0.708  1.00 40.08 LIG-0.23  N 
ATOM     58 1HH1 ARG C   9      -4.383 -33.489   1.488  1.00 55.49 LIG 0.17  HD
ATOM     59 2HH1 ARG C   9      -4.804 -32.341   2.339  1.00 55.49 LIG 0.17  HD
ATOM     60 1HH2 ARG C   9      -4.607 -30.040   0.043  1.00 40.08 LIG 0.17  HD
ATOM     61 2HH2 ARG C   9      -4.938 -30.280   1.475  1.00 40.08 LIG 0.17  HD
ENDBRANCH 52 53
ENDBRANCH 51 52
ENDBRANCH 50 51
ENDBRANCH 40 50
ENDBRANCH 38 40
ENDBRANCH 4 36
TORSDOF 20
ENDMDL
MODEL 23
USER: ADFR SOLUTION from run 173
USER: SCORE 19.132812 LL:  -2.950 LR: -17.425 RR:   0.000 FEB: -11.459
USER: RMSD 9.737744
USER: SEED 172
USER: STATUS no improvement in best in 18 clusters for 5 generations
USER: GENES 22
USER: genes 0 Translation |==|  0.62056 0.48541 0.53208
USER: genes 1 Rotation |==|  0.91864 0.30772 0.69133 0.53408
USER: genes 2 Torsion [N]-C--CA-[N] |==|  0.47688
USER: genes 3 Torsion [C]-CA--N-[C] |==|  0.79803
USER: genes 4 Torsion [N]-C--CA-[N] |==|  0.00896
USER: genes 5 Torsion [C]-CA--CB-[CG] |==|  0.30592
USER: genes 6 Torsion [CA]-CB--CG-[CD1] |==|  0.06485
USER: genes 7 Torsion [CE1]-CZ--OH-[HH] |==|  0.91370
USER: genes 8 Torsion [C]-CA--N-[C] |==|  0.68386
USER: genes 9 Torsion [N]-C--CA-[N] |==|  0.43121
USER: genes 10 Torsion [C]-CA--CB-[OG] |==|  0.14871
USER: genes 11 Torsion [CA]-CB--OG-[HG] |==|  0.10214
USER: genes 12 Torsion [C]-CA--CB-[CG] |==|  0.48804
USER: genes 13 Torsion [CA]-CB--CG-[CD2] |==|  0.65572
USER: genes 14 Torsion [N]-CA--C-[O] |==|  0.87518
USER: genes 15 Torsion [C]-N--CA-[CB] |==|  0.55253
USER: genes 16 Torsion [N]-CA--C-[N] |==|  0.86015
USER: genes 17 Torsion [N]-CA--C-[O] |==|  0.61446
USER: genes 18 Torsion [N]-CA--CB-[CG] |==|  0.73467
USER: genes 19 Torsion [CA]-CB--CG-[CD] |==|  0.77481
USER: genes 20 Torsion [CB]-CG--CD-[NE] |==|  0.42888
USER: genes 21 Torsion [CG]-CD--NE-[HE] |==|  0.05835
ROOT
ATOM      1  C   LEU C   7      -0.680 -33.001  -9.216  1.00 32.10 LIG 0.24  C 
ATOM      2 O    LEU C   7      -1.790 -32.545  -9.560  1.00 36.06 LIG-0.27  OA
ATOM      3  N   PRO C   8      -0.451 -33.526  -7.989  1.00 34.15 LIG-0.34  N 
ATOM      4  CA  PRO C   8      -1.597 -33.474  -7.103  1.00 36.52 LIG 0.18  C 
ATOM      5  CB  PRO C   8      -1.097 -34.130  -5.793  1.00 33.63 LIG 0.04  C 
ATOM      6  CG  PRO C   8      -0.025 -35.064  -6.235  1.00 36.13 LIG 0.02  C 
ATOM      7  CD  PRO C   8       0.634 -34.375  -7.434  1.00 34.25 LIG 0.13  C 
ENDROOT
BRANCH 1 8
ATOM      8  CA  LEU C   7       0.453 -33.072 -10.258  1.00 27.99 LIG 0.18  C 
BRANCH 8 9
ATOM      9  N   LEU C   7       0.083 -32.659 -11.627  1.00 26.55 LIG-0.35  N 
ATOM     10 H    LEU C   7       0.388 -31.903 -11.897  1.00 26.55 LIG 0.16  HD
ATOM     11  C   TYR C   6      -0.671 -33.474 -12.308  1.00 27.48 LIG 0.24  C 
ATOM     12 O    TYR C   6      -1.009 -34.590 -11.817  1.00 27.70 LIG-0.27  OA
BRANCH 11 13
ATOM     13  CA  TYR C   6      -1.160 -32.977 -13.641  1.00 25.37 LIG 0.18  C 
BRANCH 13 14
ATOM     14  CB  TYR C   6      -0.801 -33.991 -14.743  1.00 25.99 LIG 0.07  C 
BRANCH 14 15
ATOM     15  CG  TYR C   6      -1.976 -34.750 -15.352  1.00 32.28 LIG-0.06  A 
ATOM     16  CD1 TYR C   6      -3.271 -34.228 -15.304  1.00 32.91 LIG 0.01  A 
ATOM     17  CE1 TYR C   6      -4.341 -34.905 -15.858  1.00 37.22 LIG 0.04  A 
ATOM     18  CZ  TYR C   6      -4.127 -36.137 -16.460  1.00 40.59 LIG 0.07  A 
ATOM     19  CE2 TYR C   6      -2.849 -36.696 -16.508  1.00 40.82 LIG 0.04  A 
ATOM     20  CD2 TYR C   6      -1.783 -36.003 -15.944  1.00 36.01 LIG 0.01  A 
BRANCH 18 21
ATOM     21 OH   TYR C   6      -5.209 -36.792 -17.011  1.00 45.73 LIG-0.36  OA
ATOM     22 HH   TYR C   6      -5.903 -36.600 -16.578  1.00 45.73 LIG 0.22  HD
ENDBRANCH 18 21
ENDBRANCH 14 15
ENDBRANCH 13 14
BRANCH 13 23
ATOM     23  N   TYR C   6      -0.652 -31.694 -13.987  1.00 26.32 LIG-0.34  N 
ATOM     24 H    TYR C   6       0.196 -31.659 -14.125  1.00 26.32 LIG 0.16  HD
ATOM     25  C   SER C   5      -1.468 -30.678 -14.073  1.00 29.69 LIG 0.26  C 
ATOM     26 O    SER C   5      -2.696 -30.777 -13.758  1.00 27.24 LIG-0.27  OA
BRANCH 25 27
ATOM     27  CA  SER C   5      -0.828 -29.378 -14.673  1.00 35.45 LIG 0.42  C 
ATOM     28  N   SER C   5      -1.879 -28.518 -15.277  1.00 39.53 LIG 0.62  N 
BRANCH 27 29
ATOM     29  CB  SER C   5      -0.008 -28.583 -13.661  1.00 42.03 LIG 0.21  C 
BRANCH 29 30
ATOM     30 OG   SER C   5       0.977 -29.361 -13.017  1.00 42.36 LIG-0.40  OA
ATOM     31 HG   SER C   5       1.301 -29.912 -13.563  1.00 42.36 LIG 0.21  HD
ENDBRANCH 29 30
ENDBRANCH 27 29
ENDBRANCH 25 27
ENDBRANCH 13 23
ENDBRANCH 11 13
ENDBRANCH 8 9
BRANCH 8 32
ATOM     32  CB  LEU C   7       1.662 -32.334  -9.814  1.00 26.58 LIG 0.04  C 
BRANCH 32 33
ATOM     33  CG  LEU C   7       2.696 -32.616 -10.921  1.00 24.49 LIG-0.02  C 
ATOM     34  CD2 LEU C   7       3.894 -33.213 -10.242  1.00 27.30 LIG 0.01  C 
ATOM     35  CD1 LEU C   7       3.102 -31.260 -11.479  1.00 29.65 LIG 0.01  C 
ENDBRANCH 32 33
ENDBRANCH 8 32
ENDBRANCH 1 8
BRANCH 4 36
ATOM     36  C   PRO C   8      -2.079 -32.024  -6.939  1.00 40.02 LIG 0.24  C 
ATOM     37 O    PRO C   8      -1.288 -31.109  -6.745  1.00 40.33 LIG-0.27  OA
ATOM     38  N   ARG C   9      -3.376 -31.844  -7.128  1.00 39.93 LIG-0.35  N 
ATOM     39 H    ARG C   9      -3.901 -32.491  -7.344  1.00 39.93 LIG 0.16  HD
BRANCH 38 40
ATOM     40  CA  ARG C   9      -4.071 -30.574  -7.004  1.00 44.47 LIG 0.18  C 
BRANCH 40 41
ATOM     41  C   ARG C   9      -3.454 -29.790  -5.807  1.00 44.78 LIG 0.24  C 
ATOM     42  N   PRO C  10      -3.324 -30.430  -4.618  1.00 46.18 LIG-0.34  N 
ATOM     43  CA  PRO C  10      -2.791 -29.776  -3.381  1.00 48.25 LIG 0.17  C 
ATOM     44  CD  PRO C  10      -3.811 -31.802  -4.355  1.00 48.73 LIG 0.13  C 
ATOM     45  CB  PRO C  10      -2.877 -30.880  -2.309  1.00 49.47 LIG 0.04  C 
ATOM     46  CG  PRO C  10      -3.827 -31.901  -2.851  1.00 52.76 LIG 0.02  C 
ATOM     47 O    ARG C   9      -3.151 -28.602  -5.954  1.00 45.76 LIG-0.27  OA
BRANCH 43 48
ATOM     48  C   PRO C  10      -1.339 -29.276  -3.437  1.00 47.63 LIG 0.22  C 
ATOM     49 O    PRO C  10      -0.587 -29.433  -2.478  1.00 46.26 LIG-0.29  OA
ENDBRANCH 43 48
ENDBRANCH 40 41
BRANCH 40 50
ATOM     50  CB  ARG C   9      -5.599 -30.859  -6.826  1.00 49.80 LIG 0.04  C 
BRANCH 50 51
ATOM     51  CG  ARG C   9      -6.420 -30.801  -8.131  1.00 51.68 LIG 0.02  C 
BRANCH 51 52
ATOM     52  CD  ARG C   9      -6.803 -29.348  -8.566  1.00 46.90 LIG 0.14  C 
BRANCH 52 53
ATOM     53  NE  ARG C   9      -7.008 -29.305 -10.010  1.00 50.11 LIG-0.23  N 
ATOM     54 HE   ARG C   9      -7.179 -30.055 -10.395  1.00 50.11 LIG 0.18  HD
ATOM     55  CZ  ARG C   9      -6.962 -28.236 -10.799  1.00 44.95 LIG 0.67  C 
ATOM     56  NH1 ARG C   9      -7.175 -28.400 -12.077  1.00 55.49 LIG-0.23  N 
ATOM     57  NH2 ARG C   9      -6.722 -27.038 -10.343  1.00 40.08 LIG-0.23  N 
ATOM     58 1HH1 ARG C   9      -7.340 -29.185 -12.388  1.00 55.49 LIG 0.17  HD
ATOM     59 2HH1 ARG C   9      -7.150 -27.724 -12.608  1.00 55.49 LIG 0.17  HD
ATOM     60 1HH2 ARG C   9      -6.585 -26.917  -9.503  1.00 40.08 LIG 0.17  HD
ATOM     61 2HH2 ARG C   9      -6.699 -26.369 -10.883  1.00 40.08 LIG 0.17  HD
ENDBRANCH 52 53
ENDBRANCH 51 52
ENDBRANCH 50 51
ENDBRANCH 40 50
ENDBRANCH 38 40
ENDBRANCH 4 36
TORSDOF 20
ENDMDL
MODEL 24
USER: ADFR SOLUTION from run 111
USER: SCORE 19.578685 LL:  -3.239 LR: -17.418 RR:   0.000 FEB: -11.452
USER: RMSD 10.400670
USER: SEED 110
USER: STATUS no improvement in best in 6 clusters for 5 generations
USER: GENES 22
USER: genes 0 Translation |==|  0.65535 0.42973 0.64339
USER: genes 1 Rotation |==|  0.61553 0.91578 0.42583 0.74141
USER: genes 2 Torsion [N]-C--CA-[N] |==|  0.24552
USER: genes 3 Torsion [C]-CA--N-[C] |==|  0.71620
USER: genes 4 Torsion [N]-C--CA-[N] |==|  0.48333
USER: genes 5 Torsion [C]-CA--CB-[CG] |==|  0.74693
USER: genes 6 Torsion [CA]-CB--CG-[CD1] |==|  0.62256
USER: genes 7 Torsion [CE1]-CZ--OH-[HH] |==|  0.26734
USER: genes 8 Torsion [C]-CA--N-[C] |==|  0.55660
USER: genes 9 Torsion [N]-C--CA-[N] |==|  0.28523
USER: genes 10 Torsion [C]-CA--CB-[OG] |==|  0.30930
USER: genes 11 Torsion [CA]-CB--OG-[HG] |==|  0.69431
USER: genes 12 Torsion [C]-CA--CB-[CG] |==|  0.29943
USER: genes 13 Torsion [CA]-CB--CG-[CD2] |==|  0.93572
USER: genes 14 Torsion [N]-CA--C-[O] |==|  0.94431
USER: genes 15 Torsion [C]-N--CA-[CB] |==|  0.50556
USER: genes 16 Torsion [N]-CA--C-[N] |==|  0.49348
USER: genes 17 Torsion [N]-CA--C-[O] |==|  0.21218
USER: genes 18 Torsion [N]-CA--CB-[CG] |==|  0.90689
USER: genes 19 Torsion [CA]-CB--CG-[CD] |==|  0.25313
USER: genes 20 Torsion [CB]-CG--CD-[NE] |==|  0.54220
USER: genes 21 Torsion [CG]-CD--NE-[HE] |==|  0.95307
ROOT
ATOM      1  C   LEU C   7       0.050 -34.003  -6.461  1.00 32.10 LIG 0.24  C 
ATOM      2 O    LEU C   7       0.296 -33.514  -5.339  1.00 36.06 LIG-0.27  OA
ATOM      3  N   PRO C   8      -0.867 -33.476  -7.307  1.00 34.15 LIG-0.34  N 
ATOM      4  CA  PRO C   8      -1.562 -32.319  -6.775  1.00 36.52 LIG 0.18  C 
ATOM      5  CB  PRO C   8      -2.530 -31.901  -7.909  1.00 33.63 LIG 0.04  C 
ATOM      6  CG  PRO C   8      -1.862 -32.371  -9.154  1.00 36.13 LIG 0.02  C 
ATOM      7  CD  PRO C   8      -1.137 -33.660  -8.756  1.00 34.25 LIG 0.13  C 
ENDROOT
BRANCH 1 8
ATOM      8  CA  LEU C   7       0.896 -35.192  -6.958  1.00 27.99 LIG 0.18  C 
BRANCH 8 9
ATOM      9  N   LEU C   7       2.143 -34.832  -7.663  1.00 26.55 LIG-0.35  N 
ATOM     10 H    LEU C   7       2.806 -34.591  -7.172  1.00 26.55 LIG 0.16  HD
ATOM     11  C   TYR C   6       2.134 -34.911  -8.963  1.00 27.48 LIG 0.24  C 
ATOM     12 O    TYR C   6       1.108 -35.336  -9.568  1.00 27.70 LIG-0.27  OA
BRANCH 11 13
ATOM     13  CA  TYR C   6       3.359 -34.403  -9.672  1.00 25.37 LIG 0.18  C 
BRANCH 13 14
ATOM     14  CB  TYR C   6       3.533 -32.896  -9.405  1.00 25.99 LIG 0.07  C 
BRANCH 14 15
ATOM     15  CG  TYR C   6       2.870 -31.965 -10.415  1.00 32.28 LIG-0.06  A 
ATOM     16  CD1 TYR C   6       3.542 -30.844 -10.909  1.00 32.91 LIG 0.01  A 
ATOM     17  CE1 TYR C   6       2.952 -29.999 -11.830  1.00 37.22 LIG 0.04  A 
ATOM     18  CZ  TYR C   6       1.658 -30.259 -12.259  1.00 40.59 LIG 0.07  A 
ATOM     19  CE2 TYR C   6       0.951 -31.358 -11.771  1.00 40.82 LIG 0.04  A 
ATOM     20  CD2 TYR C   6       1.559 -32.198 -10.843  1.00 36.01 LIG 0.01  A 
BRANCH 18 21
ATOM     21 OH   TYR C   6       1.092 -29.404 -13.182  1.00 45.73 LIG-0.36  OA
ATOM     22 HH   TYR C   6       1.188 -29.721 -13.953  1.00 45.73 LIG 0.22  HD
ENDBRANCH 18 21
ENDBRANCH 14 15
ENDBRANCH 13 14
BRANCH 13 23
ATOM     23  N   TYR C   6       3.341 -34.642 -11.074  1.00 26.32 LIG-0.34  N 
ATOM     24 H    TYR C   6       2.563 -34.786 -11.413  1.00 26.32 LIG 0.16  HD
ATOM     25  C   SER C   5       4.460 -34.629 -11.747  1.00 29.69 LIG 0.26  C 
ATOM     26 O    SER C   5       5.586 -34.509 -11.170  1.00 27.24 LIG-0.27  OA
BRANCH 25 27
ATOM     27  CA  SER C   5       4.285 -34.684 -13.305  1.00 35.45 LIG 0.42  C 
ATOM     28  N   SER C   5       4.491 -33.336 -13.894  1.00 39.53 LIG 0.62  N 
BRANCH 27 29
ATOM     29  CB  SER C   5       5.197 -35.705 -13.982  1.00 42.03 LIG 0.21  C 
BRANCH 29 30
ATOM     30 OG   SER C   5       4.491 -36.801 -14.521  1.00 42.36 LIG-0.40  OA
ATOM     31 HG   SER C   5       4.656 -37.490 -14.070  1.00 42.36 LIG 0.21  HD
ENDBRANCH 29 30
ENDBRANCH 27 29
ENDBRANCH 25 27
ENDBRANCH 13 23
ENDBRANCH 11 13
ENDBRANCH 8 9
BRANCH 8 32
ATOM     32  CB  LEU C   7       1.185 -36.160  -5.871  1.00 26.58 LIG 0.04  C 
BRANCH 32 33
ATOM     33  CG  LEU C   7       0.301 -37.375  -6.212  1.00 24.49 LIG-0.02  C 
ATOM     34  CD2 LEU C   7      -0.818 -36.861  -7.069  1.00 27.30 LIG 0.01  C 
ATOM     35  CD1 LEU C   7      -0.297 -37.848  -4.896  1.00 29.65 LIG 0.01  C 
ENDBRANCH 32 33
ENDBRANCH 8 32
ENDBRANCH 1 8
BRANCH 4 36
ATOM     36  C   PRO C   8      -2.256 -32.677  -5.452  1.00 40.02 LIG 0.24  C 
ATOM     37 O    PRO C   8      -2.501 -33.841  -5.157  1.00 40.33 LIG-0.27  OA
ATOM     38  N   ARG C   9      -2.462 -31.655  -4.638  1.00 39.93 LIG-0.35  N 
ATOM     39 H    ARG C   9      -2.208 -30.857  -4.832  1.00 39.93 LIG 0.16  HD
BRANCH 38 40
ATOM     40  CA  ARG C   9      -3.122 -31.736  -3.345  1.00 44.47 LIG 0.18  C 
BRANCH 40 41
ATOM     41  C   ARG C   9      -4.522 -32.390  -3.547  1.00 44.78 LIG 0.24  C 
ATOM     42  N   PRO C  10      -5.294 -32.608  -2.453  1.00 46.18 LIG-0.34  N 
ATOM     43  CA  PRO C  10      -6.636 -33.269  -2.506  1.00 48.25 LIG 0.17  C 
ATOM     44  CD  PRO C  10      -4.860 -32.343  -1.063  1.00 48.73 LIG 0.13  C 
ATOM     45  CB  PRO C  10      -7.085 -33.320  -1.032  1.00 49.47 LIG 0.04  C 
ATOM     46  CG  PRO C  10      -5.845 -33.113  -0.221  1.00 52.76 LIG 0.02  C 
ATOM     47 O    ARG C   9      -4.868 -32.739  -4.679  1.00 45.76 LIG-0.27  OA
BRANCH 43 48
ATOM     48  C   PRO C  10      -7.727 -32.550  -3.315  1.00 47.63 LIG 0.22  C 
ATOM     49 O    PRO C  10      -7.722 -32.591  -4.543  1.00 46.26 LIG-0.29  OA
ENDBRANCH 43 48
ENDBRANCH 40 41
BRANCH 40 50
ATOM     50  CB  ARG C   9      -3.202 -30.297  -2.738  1.00 49.80 LIG 0.04  C 
BRANCH 50 51
ATOM     51  CG  ARG C   9      -2.008 -29.384  -3.089  1.00 51.68 LIG 0.02  C 
BRANCH 51 52
ATOM     52  CD  ARG C   9      -2.227 -28.537  -4.386  1.00 46.90 LIG 0.14  C 
BRANCH 52 53
ATOM     53  NE  ARG C   9      -0.950 -27.993  -4.839  1.00 50.11 LIG-0.23  N 
ATOM     54 HE   ARG C   9      -0.309 -27.994  -4.266  1.00 50.11 LIG 0.18  HD
ATOM     55  CZ  ARG C   9      -0.667 -27.498  -6.040  1.00 44.95 LIG 0.67  C 
ATOM     56  NH1 ARG C   9       0.542 -27.055  -6.257  1.00 55.49 LIG-0.23  N 
ATOM     57  NH2 ARG C   9      -1.545 -27.446  -7.002  1.00 40.08 LIG-0.23  N 
ATOM     58 1HH1 ARG C   9       1.131 -27.089  -5.631  1.00 55.49 LIG 0.17  HD
ATOM     59 2HH1 ARG C   9       0.750 -26.729  -7.026  1.00 55.49 LIG 0.17  HD
ATOM     60 1HH2 ARG C   9      -2.343 -27.739  -6.872  1.00 40.08 LIG 0.17  HD
ATOM     61 2HH2 ARG C   9      -1.327 -27.118  -7.767  1.00 40.08 LIG 0.17  HD
ENDBRANCH 52 53
ENDBRANCH 51 52
ENDBRANCH 50 51
ENDBRANCH 40 50
ENDBRANCH 38 40
ENDBRANCH 4 36
TORSDOF 20
ENDMDL
MODEL 25
USER: ADFR SOLUTION from run 154
USER: SCORE 19.192958 LL:  -2.785 LR: -17.401 RR:   0.000 FEB: -11.435
USER: RMSD 8.682354
USER: SEED 153
USER: STATUS no improvement in best in 8 clusters for 5 generations
USER: GENES 22
USER: genes 0 Translation |==|  0.59651 0.41780 0.54541
USER: genes 1 Rotation |==|  0.97833 0.43110 0.57701 0.60257
USER: genes 2 Torsion [N]-C--CA-[N] |==|  0.80097
USER: genes 3 Torsion [C]-CA--N-[C] |==|  0.63911
USER: genes 4 Torsion [N]-C--CA-[N] |==|  0.16926
USER: genes 5 Torsion [C]-CA--CB-[CG] |==|  0.36620
USER: genes 6 Torsion [CA]-CB--CG-[CD1] |==|  0.66836
USER: genes 7 Torsion [CE1]-CZ--OH-[HH] |==|  0.27061
USER: genes 8 Torsion [C]-CA--N-[C] |==|  0.78227
USER: genes 9 Torsion [N]-C--CA-[N] |==|  0.96342
USER: genes 10 Torsion [C]-CA--CB-[OG] |==|  0.13802
USER: genes 11 Torsion [CA]-CB--OG-[HG] |==|  0.37922
USER: genes 12 Torsion [C]-CA--CB-[CG] |==|  0.62513
USER: genes 13 Torsion [CA]-CB--CG-[CD2] |==|  0.66211
USER: genes 14 Torsion [N]-CA--C-[O] |==|  0.87088
USER: genes 15 Torsion [C]-N--CA-[CB] |==|  0.86111
USER: genes 16 Torsion [N]-CA--C-[N] |==|  0.35840
USER: genes 17 Torsion [N]-CA--C-[O] |==|  0.56727
USER: genes 18 Torsion [N]-CA--CB-[CG] |==|  0.29411
USER: genes 19 Torsion [CA]-CB--CG-[CD] |==|  0.45989
USER: genes 20 Torsion [CB]-CG--CD-[NE] |==|  0.33860
USER: genes 21 Torsion [CG]-CD--NE-[HE] |==|  0.66638
ROOT
ATOM      1  C   LEU C   7      -1.185 -34.218  -8.886  1.00 32.10 LIG 0.24  C 
ATOM      2 O    LEU C   7      -2.380 -34.218  -8.523  1.00 36.06 LIG-0.27  OA
ATOM      3  N   PRO C   8      -0.152 -34.235  -8.010  1.00 34.15 LIG-0.34  N 
ATOM      4  CA  PRO C   8      -0.560 -34.215  -6.619  1.00 36.52 LIG 0.18  C 
ATOM      5  CB  PRO C   8       0.772 -34.250  -5.831  1.00 33.63 LIG 0.04  C 
ATOM      6  CG  PRO C   8       1.721 -34.947  -6.742  1.00 36.13 LIG 0.02  C 
ATOM      7  CD  PRO C   8       1.297 -34.530  -8.154  1.00 34.25 LIG 0.13  C 
ENDROOT
BRANCH 1 8
ATOM      8  CA  LEU C   7      -0.862 -34.309 -10.390  1.00 27.99 LIG 0.18  C 
BRANCH 8 9
ATOM      9  N   LEU C   7      -0.246 -33.103 -10.981  1.00 26.55 LIG-0.35  N 
ATOM     10 H    LEU C   7       0.433 -32.776 -10.568  1.00 26.55 LIG 0.16  HD
ATOM     11  C   TYR C   6      -0.781 -32.639 -12.074  1.00 27.48 LIG 0.24  C 
ATOM     12 O    TYR C   6      -1.748 -33.247 -12.617  1.00 27.70 LIG-0.27  OA
BRANCH 11 13
ATOM     13  CA  TYR C   6      -0.238 -31.332 -12.581  1.00 25.37 LIG 0.18  C 
BRANCH 13 14
ATOM     14  CB  TYR C   6      -1.040 -30.872 -13.813  1.00 25.99 LIG 0.07  C 
BRANCH 14 15
ATOM     15  CG  TYR C   6      -1.507 -29.421 -13.795  1.00 32.28 LIG-0.06  A 
ATOM     16  CD1 TYR C   6      -2.867 -29.103 -13.843  1.00 32.91 LIG 0.01  A 
ATOM     17  CE1 TYR C   6      -3.300 -27.790 -13.820  1.00 37.22 LIG 0.04  A 
ATOM     18  CZ  TYR C   6      -2.364 -26.767 -13.764  1.00 40.59 LIG 0.07  A 
ATOM     19  CE2 TYR C   6      -0.998 -27.049 -13.734  1.00 40.82 LIG 0.04  A 
ATOM     20  CD2 TYR C   6      -0.579 -28.375 -13.761  1.00 36.01 LIG 0.01  A 
BRANCH 18 21
ATOM     21 OH   TYR C   6      -2.821 -25.465 -13.737  1.00 45.73 LIG-0.36  OA
ATOM     22 HH   TYR C   6      -2.838 -25.191 -12.943  1.00 45.73 LIG 0.22  HD
ENDBRANCH 18 21
ENDBRANCH 14 15
ENDBRANCH 13 14
BRANCH 13 23
ATOM     23  N   TYR C   6       1.147 -31.381 -12.903  1.00 26.32 LIG-0.34  N 
ATOM     24 H    TYR C   6       1.328 -31.448 -13.741  1.00 26.32 LIG 0.16  HD
ATOM     25  C   SER C   5       2.036 -31.325 -11.947  1.00 29.69 LIG 0.26  C 
ATOM     26 O    SER C   5       1.700 -31.328 -10.721  1.00 27.24 LIG-0.27  OA
BRANCH 25 27
ATOM     27  CA  SER C   5       3.515 -31.165 -12.441  1.00 35.45 LIG 0.42  C 
ATOM     28  N   SER C   5       3.602 -31.430 -13.901  1.00 39.53 LIG 0.62  N 
BRANCH 27 29
ATOM     29  CB  SER C   5       4.121 -29.804 -12.112  1.00 42.03 LIG 0.21  C 
BRANCH 29 30
ATOM     30 OG   SER C   5       3.948 -29.436 -10.761  1.00 42.36 LIG-0.40  OA
ATOM     31 HG   SER C   5       4.663 -29.111 -10.464  1.00 42.36 LIG 0.21  HD
ENDBRANCH 29 30
ENDBRANCH 27 29
ENDBRANCH 25 27
ENDBRANCH 13 23
ENDBRANCH 11 13
ENDBRANCH 8 9
BRANCH 8 32
ATOM     32  CB  LEU C   7      -0.046 -35.507 -10.710  1.00 26.58 LIG 0.04  C 
BRANCH 32 33
ATOM     33  CG  LEU C   7       1.047 -34.969 -11.654  1.00 24.49 LIG-0.02  C 
ATOM     34  CD2 LEU C   7       0.925 -35.746 -12.932  1.00 27.30 LIG 0.01  C 
ATOM     35  CD1 LEU C   7       2.379 -35.330 -11.013  1.00 29.65 LIG 0.01  C 
ENDBRANCH 32 33
ENDBRANCH 8 32
ENDBRANCH 1 8
BRANCH 4 36
ATOM     36  C   PRO C   8      -1.428 -32.979  -6.336  1.00 40.02 LIG 0.24  C 
ATOM     37 O    PRO C   8      -1.100 -31.867  -6.731  1.00 40.33 LIG-0.27  OA
ATOM     38  N   ARG C   9      -2.582 -33.235  -5.740  1.00 39.93 LIG-0.35  N 
ATOM     39 H    ARG C   9      -2.828 -34.035  -5.544  1.00 39.93 LIG 0.16  HD
BRANCH 38 40
ATOM     40  CA  ARG C   9      -3.559 -32.233  -5.346  1.00 44.47 LIG 0.18  C 
BRANCH 40 41
ATOM     41  C   ARG C   9      -4.263 -31.701  -6.630  1.00 44.78 LIG 0.24  C 
ATOM     42  N   PRO C  10      -5.619 -31.682  -6.659  1.00 46.18 LIG-0.34  N 
ATOM     43  CA  PRO C  10      -6.414 -31.238  -7.847  1.00 48.25 LIG 0.17  C 
ATOM     44  CD  PRO C  10      -6.481 -32.217  -5.582  1.00 48.73 LIG 0.13  C 
ATOM     45  CB  PRO C  10      -7.879 -31.435  -7.410  1.00 49.47 LIG 0.04  C 
ATOM     46  CG  PRO C  10      -7.833 -32.359  -6.234  1.00 52.76 LIG 0.02  C 
ATOM     47 O    ARG C   9      -3.577 -31.362  -7.599  1.00 45.76 LIG-0.27  OA
BRANCH 43 48
ATOM     48  C   PRO C  10      -6.238 -29.776  -8.288  1.00 47.63 LIG 0.22  C 
ATOM     49 O    PRO C  10      -7.122 -29.206  -8.923  1.00 46.26 LIG-0.29  OA
ENDBRANCH 43 48
ENDBRANCH 40 41
BRANCH 40 50
ATOM     50  CB  ARG C   9      -2.823 -31.112  -4.542  1.00 49.80 LIG 0.04  C 
BRANCH 50 51
ATOM     51  CG  ARG C   9      -2.624 -29.791  -5.314  1.00 51.68 LIG 0.02  C 
BRANCH 51 52
ATOM     52  CD  ARG C   9      -2.222 -28.586  -4.402  1.00 46.90 LIG 0.14  C 
BRANCH 52 53
ATOM     53  NE  ARG C   9      -0.948 -28.033  -4.851  1.00 50.11 LIG-0.23  N 
ATOM     54 HE   ARG C   9      -0.305 -28.041  -4.280  1.00 50.11 LIG 0.18  HD
ATOM     55  CZ  ARG C   9      -0.670 -27.518  -6.045  1.00 44.95 LIG 0.67  C 
ATOM     56  NH1 ARG C   9       0.538 -27.070  -6.260  1.00 55.49 LIG-0.23  N 
ATOM     57  NH2 ARG C   9      -1.552 -27.453  -7.003  1.00 40.08 LIG-0.23  N 
ATOM     58 1HH1 ARG C   9       1.129 -27.113  -5.637  1.00 55.49 LIG 0.17  HD
ATOM     59 2HH1 ARG C   9       0.742 -26.732  -7.024  1.00 55.49 LIG 0.17  HD
ATOM     60 1HH2 ARG C   9      -2.348 -27.750  -6.875  1.00 40.08 LIG 0.17  HD
ATOM     61 2HH2 ARG C   9      -1.337 -27.113  -7.763  1.00 40.08 LIG 0.17  HD
ENDBRANCH 52 53
ENDBRANCH 51 52
ENDBRANCH 50 51
ENDBRANCH 40 50
ENDBRANCH 38 40
ENDBRANCH 4 36
TORSDOF 20
ENDMDL
MODEL 26
USER: ADFR SOLUTION from run 64
USER: SCORE 19.347508 LL:  -2.711 LR: -17.390 RR:   0.000 FEB: -11.424
USER: RMSD 9.297434
USER: SEED 63
USER: STATUS no improvement in best in 23 clusters for 5 generations
USER: GENES 22
USER: genes 0 Translation |==|  0.63487 0.46784 0.52957
USER: genes 1 Rotation |==|  0.96303 0.37011 0.63597 0.51578
USER: genes 2 Torsion [N]-C--CA-[N] |==|  0.47222
USER: genes 3 Torsion [C]-CA--N-[C] |==|  0.75305
USER: genes 4 Torsion [N]-C--CA-[N] |==|  0.04048
USER: genes 5 Torsion [C]-CA--CB-[CG] |==|  0.35327
USER: genes 6 Torsion [CA]-CB--CG-[CD1] |==|  0.11390
USER: genes 7 Torsion [CE1]-CZ--OH-[HH] |==|  0.69184
USER: genes 8 Torsion [C]-CA--N-[C] |==|  0.61538
USER: genes 9 Torsion [N]-C--CA-[N] |==|  0.35283
USER: genes 10 Torsion [C]-CA--CB-[OG] |==|  0.84520
USER: genes 11 Torsion [CA]-CB--OG-[HG] |==|  0.73446
USER: genes 12 Torsion [C]-CA--CB-[CG] |==|  0.39877
USER: genes 13 Torsion [CA]-CB--CG-[CD2] |==|  0.71408
USER: genes 14 Torsion [N]-CA--C-[O] |==|  0.94326
USER: genes 15 Torsion [C]-N--CA-[CB] |==|  0.87168
USER: genes 16 Torsion [N]-CA--C-[N] |==|  0.34448
USER: genes 17 Torsion [N]-CA--C-[O] |==|  0.52845
USER: genes 18 Torsion [N]-CA--CB-[CG] |==|  0.32881
USER: genes 19 Torsion [CA]-CB--CG-[CD] |==|  0.45694
USER: genes 20 Torsion [CB]-CG--CD-[NE] |==|  0.30254
USER: genes 21 Torsion [CG]-CD--NE-[HE] |==|  0.64290
ROOT
ATOM      1  C   LEU C   7      -0.380 -33.317  -9.278  1.00 32.10 LIG 0.24  C 
ATOM      2 O    LEU C   7      -1.622 -33.197  -9.314  1.00 36.06 LIG-0.27  OA
ATOM      3  N   PRO C   8       0.282 -33.785  -8.193  1.00 34.15 LIG-0.34  N 
ATOM      4  CA  PRO C   8      -0.578 -34.095  -7.067  1.00 36.52 LIG 0.18  C 
ATOM      5  CB  PRO C   8       0.392 -34.610  -5.976  1.00 33.63 LIG 0.04  C 
ATOM      6  CG  PRO C   8       1.536 -35.178  -6.741  1.00 36.13 LIG 0.02  C 
ATOM      7  CD  PRO C   8       1.662 -34.294  -7.985  1.00 34.25 LIG 0.13  C 
ENDROOT
BRANCH 1 8
ATOM      8  CA  LEU C   7       0.435 -33.026 -10.553  1.00 27.99 LIG 0.18  C 
BRANCH 8 9
ATOM      9  N   LEU C   7      -0.362 -32.741 -11.764  1.00 26.55 LIG-0.35  N 
ATOM     10 H    LEU C   7      -0.553 -31.917 -11.914  1.00 26.55 LIG 0.16  HD
ATOM     11  C   TYR C   6      -0.706 -33.759 -12.500  1.00 27.48 LIG 0.24  C 
ATOM     12 O    TYR C   6      -0.311 -34.924 -12.201  1.00 27.70 LIG-0.27  OA
BRANCH 11 13
ATOM     13  CA  TYR C   6      -1.638 -33.472 -13.645  1.00 25.37 LIG 0.18  C 
BRANCH 13 14
ATOM     14  CB  TYR C   6      -1.185 -34.247 -14.897  1.00 25.99 LIG 0.07  C 
BRANCH 14 15
ATOM     15  CG  TYR C   6      -2.253 -35.106 -15.565  1.00 32.28 LIG-0.06  A 
ATOM     16  CD1 TYR C   6      -3.564 -34.643 -15.705  1.00 32.91 LIG 0.01  A 
ATOM     17  CE1 TYR C   6      -4.538 -35.412 -16.315  1.00 37.22 LIG 0.04  A 
ATOM     18  CZ  TYR C   6      -4.210 -36.677 -16.782  1.00 40.59 LIG 0.07  A 
ATOM     19  CE2 TYR C   6      -2.916 -37.178 -16.641  1.00 40.82 LIG 0.04  A 
ATOM     20  CD2 TYR C   6      -1.948 -36.392 -16.023  1.00 36.01 LIG 0.01  A 
BRANCH 18 21
ATOM     21 OH   TYR C   6      -5.197 -37.424 -17.392  1.00 45.73 LIG-0.36  OA
ATOM     22 HH   TYR C   6      -5.399 -38.076 -16.902  1.00 45.73 LIG 0.22  HD
ENDBRANCH 18 21
ENDBRANCH 14 15
ENDBRANCH 13 14
BRANCH 13 23
ATOM     23  N   TYR C   6      -1.747 -32.087 -13.952  1.00 26.32 LIG-0.34  N 
ATOM     24 H    TYR C   6      -1.008 -31.647 -13.933  1.00 26.32 LIG 0.16  HD
ATOM     25  C   SER C   5      -2.916 -31.577 -14.234  1.00 29.69 LIG 0.26  C 
ATOM     26 O    SER C   5      -3.983 -32.262 -14.145  1.00 27.24 LIG-0.27  OA
BRANCH 25 27
ATOM     27  CA  SER C   5      -2.872 -30.103 -14.768  1.00 35.45 LIG 0.42  C 
ATOM     28  N   SER C   5      -3.608 -29.999 -16.054  1.00 39.53 LIG 0.62  N 
BRANCH 27 29
ATOM     29  CB  SER C   5      -3.404 -29.081 -13.767  1.00 42.03 LIG 0.21  C 
BRANCH 29 30
ATOM     30 OG   SER C   5      -4.715 -29.366 -13.332  1.00 42.36 LIG-0.40  OA
ATOM     31 HG   SER C   5      -5.266 -28.931 -13.794  1.00 42.36 LIG 0.21  HD
ENDBRANCH 29 30
ENDBRANCH 27 29
ENDBRANCH 25 27
ENDBRANCH 13 23
ENDBRANCH 11 13
ENDBRANCH 8 9
BRANCH 8 32
ATOM     32  CB  LEU C   7       1.436 -31.951 -10.339  1.00 26.58 LIG 0.04  C 
BRANCH 32 33
ATOM     33  CG  LEU C   7       2.645 -32.396 -11.184  1.00 24.49 LIG-0.02  C 
ATOM     34  CD2 LEU C   7       3.654 -32.954 -10.223  1.00 27.30 LIG 0.01  C 
ATOM     35  CD1 LEU C   7       3.229 -31.130 -11.792  1.00 29.65 LIG 0.01  C 
ENDBRANCH 32 33
ENDBRANCH 8 32
ENDBRANCH 1 8
BRANCH 4 36
ATOM     36  C   PRO C   8      -1.387 -32.853  -6.658  1.00 40.02 LIG 0.24  C 
ATOM     37 O    PRO C   8      -1.025 -31.727  -6.973  1.00 40.33 LIG-0.27  OA
ATOM     38  N   ARG C   9      -2.531 -33.113  -6.046  1.00 39.93 LIG-0.35  N 
ATOM     39 H    ARG C   9      -2.804 -33.916  -5.906  1.00 39.93 LIG 0.16  HD
BRANCH 38 40
ATOM     40  CA  ARG C   9      -3.455 -32.110  -5.541  1.00 44.47 LIG 0.18  C 
BRANCH 40 41
ATOM     41  C   ARG C   9      -4.244 -31.517  -6.746  1.00 44.78 LIG 0.24  C 
ATOM     42  N   PRO C  10      -5.600 -31.567  -6.714  1.00 46.18 LIG-0.34  N 
ATOM     43  CA  PRO C  10      -6.472 -31.075  -7.827  1.00 48.25 LIG 0.17  C 
ATOM     44  CD  PRO C  10      -6.382 -32.229  -5.647  1.00 48.73 LIG 0.13  C 
ATOM     45  CB  PRO C  10      -7.903 -31.382  -7.343  1.00 49.47 LIG 0.04  C 
ATOM     46  CG  PRO C  10      -7.755 -32.391  -6.248  1.00 52.76 LIG 0.02  C 
ATOM     47 O    ARG C   9      -3.623 -31.068  -7.714  1.00 45.76 LIG-0.27  OA
BRANCH 43 48
ATOM     48  C   PRO C  10      -6.389 -29.576  -8.156  1.00 47.63 LIG 0.22  C 
ATOM     49 O    PRO C  10      -7.201 -29.059  -8.921  1.00 46.26 LIG-0.29  OA
ENDBRANCH 43 48
ENDBRANCH 40 41
BRANCH 40 50
ATOM     50  CB  ARG C   9      -2.636 -31.032  -4.756  1.00 49.80 LIG 0.04  C 
BRANCH 50 51
ATOM     51  CG  ARG C   9      -2.723 -29.607  -5.340  1.00 51.68 LIG 0.02  C 
BRANCH 51 52
ATOM     52  CD  ARG C   9      -2.233 -28.495  -4.355  1.00 46.90 LIG 0.14  C 
BRANCH 52 53
ATOM     53  NE  ARG C   9      -0.960 -27.953  -4.820  1.00 50.11 LIG-0.23  N 
ATOM     54 HE   ARG C   9      -0.322 -27.928  -4.243  1.00 50.11 LIG 0.18  HD
ATOM     55  CZ  ARG C   9      -0.675 -27.494  -6.034  1.00 44.95 LIG 0.67  C 
ATOM     56  NH1 ARG C   9       0.531 -27.046  -6.260  1.00 55.49 LIG-0.23  N 
ATOM     57  NH2 ARG C   9      -1.548 -27.483  -7.002  1.00 40.08 LIG-0.23  N 
ATOM     58 1HH1 ARG C   9       1.117 -27.054  -5.630  1.00 55.49 LIG 0.17  HD
ATOM     59 2HH1 ARG C   9       0.739 -26.743  -7.037  1.00 55.49 LIG 0.17  HD
ATOM     60 1HH2 ARG C   9      -2.343 -27.780  -6.867  1.00 40.08 LIG 0.17  HD
ATOM     61 2HH2 ARG C   9      -1.329 -27.178  -7.776  1.00 40.08 LIG 0.17  HD
ENDBRANCH 52 53
ENDBRANCH 51 52
ENDBRANCH 50 51
ENDBRANCH 40 50
ENDBRANCH 38 40
ENDBRANCH 4 36
TORSDOF 20
ENDMDL
MODEL 27
USER: ADFR SOLUTION from run 60
USER: SCORE 18.341783 LL:  -3.025 LR: -17.385 RR:   0.000 FEB: -11.419
USER: RMSD 9.391793
USER: SEED 59
USER: STATUS no improvement in best in 2 clusters for 5 generations
USER: GENES 22
USER: genes 0 Translation |==|  0.57639 0.43032 0.54676
USER: genes 1 Rotation |==|  0.95655 0.41796 0.61481 0.64713
USER: genes 2 Torsion [N]-C--CA-[N] |==|  0.78642
USER: genes 3 Torsion [C]-CA--N-[C] |==|  0.66263
USER: genes 4 Torsion [N]-C--CA-[N] |==|  0.10718
USER: genes 5 Torsion [C]-CA--CB-[CG] |==|  0.32102
USER: genes 6 Torsion [CA]-CB--CG-[CD1] |==|  0.88043
USER: genes 7 Torsion [CE1]-CZ--OH-[HH] |==|  0.87185
USER: genes 8 Torsion [C]-CA--N-[C] |==|  0.59294
USER: genes 9 Torsion [N]-C--CA-[N] |==|  0.42284
USER: genes 10 Torsion [C]-CA--CB-[OG] |==|  0.78098
USER: genes 11 Torsion [CA]-CB--OG-[HG] |==|  0.67813
USER: genes 12 Torsion [C]-CA--CB-[CG] |==|  0.60673
USER: genes 13 Torsion [CA]-CB--CG-[CD2] |==|  0.65046
USER: genes 14 Torsion [N]-CA--C-[O] |==|  0.83852
USER: genes 15 Torsion [C]-N--CA-[CB] |==|  0.22186
USER: genes 16 Torsion [N]-CA--C-[N] |==|  0.43851
USER: genes 17 Torsion [N]-CA--C-[O] |==|  0.95768
USER: genes 18 Torsion [N]-CA--CB-[CG] |==|  0.37691
USER: genes 19 Torsion [CA]-CB--CG-[CD] |==|  0.32186
USER: genes 20 Torsion [CB]-CG--CD-[NE] |==|  0.30226
USER: genes 21 Torsion [CG]-CD--NE-[HE] |==|  0.05960
ROOT
ATOM      1  C   LEU C   7      -1.608 -33.992  -8.853  1.00 32.10 LIG 0.24  C 
ATOM      2 O    LEU C   7      -2.838 -33.867  -8.679  1.00 36.06 LIG-0.27  OA
ATOM      3  N   PRO C   8      -0.709 -33.876  -7.846  1.00 34.15 LIG-0.34  N 
ATOM      4  CA  PRO C   8      -1.301 -33.555  -6.562  1.00 36.52 LIG 0.18  C 
ATOM      5  CB  PRO C   8      -0.095 -33.487  -5.593  1.00 33.63 LIG 0.04  C 
ATOM      6  CG  PRO C   8       0.916 -34.396  -6.199  1.00 36.13 LIG 0.02  C 
ATOM      7  CD  PRO C   8       0.721 -34.257  -7.712  1.00 34.25 LIG 0.13  C 
ENDROOT
BRANCH 1 8
ATOM      8  CA  LEU C   7      -1.088 -34.402 -10.245  1.00 27.99 LIG 0.18  C 
BRANCH 8 9
ATOM      9  N   LEU C   7      -0.416 -33.333 -11.011  1.00 26.55 LIG-0.35  N 
ATOM     10 H    LEU C   7       0.271 -32.970 -10.644  1.00 26.55 LIG 0.16  HD
ATOM     11  C   TYR C   6      -0.918 -33.032 -12.174  1.00 27.48 LIG 0.24  C 
ATOM     12 O    TYR C   6      -1.903 -33.682 -12.630  1.00 27.70 LIG-0.27  OA
BRANCH 11 13
ATOM     13  CA  TYR C   6      -0.316 -31.846 -12.876  1.00 25.37 LIG 0.18  C 
BRANCH 13 14
ATOM     14  CB  TYR C   6      -0.669 -31.888 -14.375  1.00 25.99 LIG 0.07  C 
BRANCH 14 15
ATOM     15  CG  TYR C   6      -1.546 -30.747 -14.879  1.00 32.28 LIG-0.06  A 
ATOM     16  CD1 TYR C   6      -2.648 -30.307 -14.140  1.00 32.91 LIG 0.01  A 
ATOM     17  CE1 TYR C   6      -3.445 -29.269 -14.585  1.00 37.22 LIG 0.04  A 
ATOM     18  CZ  TYR C   6      -3.155 -28.663 -15.799  1.00 40.59 LIG 0.07  A 
ATOM     19  CE2 TYR C   6      -2.074 -29.089 -16.570  1.00 40.82 LIG 0.04  A 
ATOM     20  CD2 TYR C   6      -1.283 -30.137 -16.110  1.00 36.01 LIG 0.01  A 
BRANCH 18 21
ATOM     21 OH   TYR C   6      -3.962 -27.625 -16.220  1.00 45.73 LIG-0.36  OA
ATOM     22 HH   TYR C   6      -4.768 -27.838 -16.118  1.00 45.73 LIG 0.22  HD
ENDBRANCH 18 21
ENDBRANCH 14 15
ENDBRANCH 13 14
BRANCH 13 23
ATOM     23  N   TYR C   6       1.096 -31.754 -12.719  1.00 26.32 LIG-0.34  N 
ATOM     24 H    TYR C   6       1.510 -32.505 -12.671  1.00 26.32 LIG 0.16  HD
ATOM     25  C   SER C   5       1.664 -30.579 -12.659  1.00 29.69 LIG 0.26  C 
ATOM     26 O    SER C   5       0.982 -29.507 -12.636  1.00 27.24 LIG-0.27  OA
BRANCH 25 27
ATOM     27  CA  SER C   5       3.231 -30.610 -12.710  1.00 35.45 LIG 0.42  C 
ATOM     28  N   SER C   5       3.752 -29.347 -13.294  1.00 39.53 LIG 0.62  N 
BRANCH 27 29
ATOM     29  CB  SER C   5       3.876 -30.873 -11.351  1.00 42.03 LIG 0.21  C 
BRANCH 29 30
ATOM     30 OG   SER C   5       3.913 -29.728 -10.528  1.00 42.36 LIG-0.40  OA
ATOM     31 HG   SER C   5       4.712 -29.511 -10.385  1.00 42.36 LIG 0.21  HD
ENDBRANCH 29 30
ENDBRANCH 27 29
ENDBRANCH 25 27
ENDBRANCH 13 23
ENDBRANCH 11 13
ENDBRANCH 8 9
BRANCH 8 32
ATOM     32  CB  LEU C   7      -0.222 -35.605 -10.181  1.00 26.58 LIG 0.04  C 
BRANCH 32 33
ATOM     33  CG  LEU C   7       0.890 -35.317 -11.208  1.00 24.49 LIG-0.02  C 
ATOM     34  CD2 LEU C   7       0.913 -36.485 -12.150  1.00 27.30 LIG 0.01  C 
ATOM     35  CD1 LEU C   7       2.197 -35.316 -10.431  1.00 29.65 LIG 0.01  C 
ENDBRANCH 32 33
ENDBRANCH 8 32
ENDBRANCH 1 8
BRANCH 4 36
ATOM     36  C   PRO C   8      -2.108 -32.251  -6.659  1.00 40.02 LIG 0.24  C 
ATOM     37 O    PRO C   8      -1.582 -31.203  -7.015  1.00 40.33 LIG-0.27  OA
ATOM     38  N   ARG C   9      -3.405 -32.382  -6.433  1.00 39.93 LIG-0.35  N 
ATOM     39 H    ARG C   9      -3.765 -33.144  -6.263  1.00 39.93 LIG 0.16  HD
BRANCH 38 40
ATOM     40  CA  ARG C   9      -4.368 -31.293  -6.441  1.00 44.47 LIG 0.18  C 
BRANCH 40 41
ATOM     41  C   ARG C   9      -5.602 -31.721  -5.592  1.00 44.78 LIG 0.24  C 
ATOM     42  N   PRO C  10      -6.400 -30.750  -5.081  1.00 46.18 LIG-0.34  N 
ATOM     43  CA  PRO C  10      -7.586 -31.027  -4.211  1.00 48.25 LIG 0.17  C 
ATOM     44  CD  PRO C  10      -6.127 -29.301  -5.204  1.00 48.73 LIG 0.13  C 
ATOM     45  CB  PRO C  10      -8.126 -29.626  -3.861  1.00 49.47 LIG 0.04  C 
ATOM     46  CG  PRO C  10      -7.011 -28.673  -4.156  1.00 52.76 LIG 0.02  C 
ATOM     47 O    ARG C   9      -5.792 -32.920  -5.363  1.00 45.76 LIG-0.27  OA
BRANCH 43 48
ATOM     48  C   PRO C  10      -8.730 -31.837  -4.843  1.00 47.63 LIG 0.22  C 
ATOM     49 O    PRO C  10      -8.788 -31.988  -6.062  1.00 46.26 LIG-0.29  OA
ENDBRANCH 43 48
ENDBRANCH 40 41
BRANCH 40 50
ATOM     50  CB  ARG C   9      -4.733 -30.965  -7.927  1.00 49.80 LIG 0.04  C 
BRANCH 50 51
ATOM     51  CG  ARG C   9      -6.239 -30.757  -8.189  1.00 51.68 LIG 0.02  C 
BRANCH 51 52
ATOM     52  CD  ARG C   9      -6.600 -29.307  -8.653  1.00 46.90 LIG 0.14  C 
BRANCH 52 53
ATOM     53  NE  ARG C   9      -6.974 -29.322 -10.064  1.00 50.11 LIG-0.23  N 
ATOM     54 HE   ARG C   9      -7.231 -30.078 -10.384  1.00 50.11 LIG 0.18  HD
ATOM     55  CZ  ARG C   9      -6.962 -28.297 -10.911  1.00 44.95 LIG 0.67  C 
ATOM     56  NH1 ARG C   9      -7.335 -28.510 -12.144  1.00 55.49 LIG-0.23  N 
ATOM     57  NH2 ARG C   9      -6.602 -27.096 -10.554  1.00 40.08 LIG-0.23  N 
ATOM     58 1HH1 ARG C   9      -7.580 -29.297 -12.390  1.00 55.49 LIG 0.17  HD
ATOM     59 2HH1 ARG C   9      -7.336 -27.863 -12.711  1.00 55.49 LIG 0.17  HD
ATOM     60 1HH2 ARG C   9      -6.360 -26.944  -9.743  1.00 40.08 LIG 0.17  HD
ATOM     61 2HH2 ARG C   9      -6.606 -26.457 -11.129  1.00 40.08 LIG 0.17  HD
ENDBRANCH 52 53
ENDBRANCH 51 52
ENDBRANCH 50 51
ENDBRANCH 40 50
ENDBRANCH 38 40
ENDBRANCH 4 36
TORSDOF 20
ENDMDL
MODEL 28
USER: ADFR SOLUTION from run 60
USER: SCORE 20.272358 LL:  -3.626 LR: -17.368 RR:   0.000 FEB: -11.402
USER: RMSD 10.278469
USER: SEED 59
USER: STATUS no improvement in best in 2 clusters for 5 generations
USER: GENES 22
USER: genes 0 Translation |==|  0.48277 0.51154 0.71498
USER: genes 1 Rotation |==|  0.84849 0.50439 0.85439 0.55422
USER: genes 2 Torsion [N]-C--CA-[N] |==|  0.52102
USER: genes 3 Torsion [C]-CA--N-[C] |==|  0.61104
USER: genes 4 Torsion [N]-C--CA-[N] |==|  0.40336
USER: genes 5 Torsion [C]-CA--CB-[CG] |==|  0.90857
USER: genes 6 Torsion [CA]-CB--CG-[CD1] |==|  0.84107
USER: genes 7 Torsion [CE1]-CZ--OH-[HH] |==|  0.31033
USER: genes 8 Torsion [C]-CA--N-[C] |==|  0.58117
USER: genes 9 Torsion [N]-C--CA-[N] |==|  0.21596
USER: genes 10 Torsion [C]-CA--CB-[OG] |==|  0.18470
USER: genes 11 Torsion [CA]-CB--OG-[HG] |==|  0.35593
USER: genes 12 Torsion [C]-CA--CB-[CG] |==|  0.84839
USER: genes 13 Torsion [CA]-CB--CG-[CD2] |==|  0.70134
USER: genes 14 Torsion [N]-CA--C-[O] |==|  0.45082
USER: genes 15 Torsion [C]-N--CA-[CB] |==|  0.86667
USER: genes 16 Torsion [N]-CA--C-[N] |==|  0.35677
USER: genes 17 Torsion [N]-CA--C-[O] |==|  0.72438
USER: genes 18 Torsion [N]-CA--CB-[CG] |==|  0.47160
USER: genes 19 Torsion [CA]-CB--CG-[CD] |==|  0.13354
USER: genes 20 Torsion [CB]-CG--CD-[NE] |==|  0.32662
USER: genes 21 Torsion [CG]-CD--NE-[HE] |==|  0.93095
ROOT
ATOM      1  C   LEU C   7      -3.574 -32.530  -4.689  1.00 32.10 LIG 0.24  C 
ATOM      2 O    LEU C   7      -4.235 -33.113  -5.573  1.00 36.06 LIG-0.27  OA
ATOM      3  N   PRO C   8      -4.080 -32.236  -3.468  1.00 34.15 LIG-0.34  N 
ATOM      4  CA  PRO C   8      -5.466 -32.624  -3.296  1.00 36.52 LIG 0.18  C 
ATOM      5  CB  PRO C   8      -5.804 -32.200  -1.845  1.00 33.63 LIG 0.04  C 
ATOM      6  CG  PRO C   8      -4.497 -32.252  -1.133  1.00 36.13 LIG 0.02  C 
ATOM      7  CD  PRO C   8      -3.457 -31.839  -2.179  1.00 34.25 LIG 0.13  C 
ENDROOT
BRANCH 1 8
ATOM      8  CA  LEU C   7      -2.086 -32.224  -4.950  1.00 27.99 LIG 0.18  C 
BRANCH 8 9
ATOM      9  N   LEU C   7      -1.637 -32.403  -6.346  1.00 26.55 LIG-0.35  N 
ATOM     10 H    LEU C   7      -2.178 -32.142  -6.961  1.00 26.55 LIG 0.16  HD
ATOM     11  C   TYR C   6      -0.464 -32.938  -6.528  1.00 27.48 LIG 0.24  C 
ATOM     12 O    TYR C   6       0.264 -33.229  -5.535  1.00 27.70 LIG-0.27  OA
BRANCH 11 13
ATOM     13  CA  TYR C   6      -0.083 -33.249  -7.949  1.00 25.37 LIG 0.18  C 
BRANCH 13 14
ATOM     14  CB  TYR C   6      -0.495 -34.691  -8.300  1.00 25.99 LIG 0.07  C 
BRANCH 14 15
ATOM     15  CG  TYR C   6      -0.429 -35.695  -7.154  1.00 32.28 LIG-0.06  A 
ATOM     16  CD1 TYR C   6       0.763 -35.913  -6.458  1.00 32.91 LIG 0.01  A 
ATOM     17  CE1 TYR C   6       0.831 -36.815  -5.413  1.00 37.22 LIG 0.04  A 
ATOM     18  CZ  TYR C   6      -0.303 -37.533  -5.060  1.00 40.59 LIG 0.07  A 
ATOM     19  CE2 TYR C   6      -1.504 -37.353  -5.746  1.00 40.82 LIG 0.04  A 
ATOM     20  CD2 TYR C   6      -1.556 -36.443  -6.797  1.00 36.01 LIG 0.01  A 
BRANCH 18 21
ATOM     21 OH   TYR C   6      -0.212 -38.424  -4.010  1.00 45.73 LIG-0.36  OA
ATOM     22 HH   TYR C   6      -0.666 -38.142  -3.363  1.00 45.73 LIG 0.22  HD
ENDBRANCH 18 21
ENDBRANCH 14 15
ENDBRANCH 13 14
BRANCH 13 23
ATOM     23  N   TYR C   6       1.303 -33.069  -8.216  1.00 26.32 LIG-0.34  N 
ATOM     24 H    TYR C   6       1.826 -33.193  -7.545  1.00 26.32 LIG 0.16  HD
ATOM     25  C   SER C   5       1.692 -32.737  -9.418  1.00 29.69 LIG 0.26  C 
ATOM     26 O    SER C   5       0.859 -32.469 -10.340  1.00 27.24 LIG-0.27  OA
BRANCH 25 27
ATOM     27  CA  SER C   5       3.244 -32.786  -9.637  1.00 35.45 LIG 0.42  C 
ATOM     28  N   SER C   5       3.694 -34.190  -9.819  1.00 39.53 LIG 0.62  N 
BRANCH 27 29
ATOM     29  CB  SER C   5       3.720 -31.920 -10.801  1.00 42.03 LIG 0.21  C 
BRANCH 29 30
ATOM     30 OG   SER C   5       3.536 -30.541 -10.571  1.00 42.36 LIG-0.40  OA
ATOM     31 HG   SER C   5       4.259 -30.134 -10.708  1.00 42.36 LIG 0.21  HD
ENDBRANCH 29 30
ENDBRANCH 27 29
ENDBRANCH 25 27
ENDBRANCH 13 23
ENDBRANCH 11 13
ENDBRANCH 8 9
BRANCH 8 32
ATOM     32  CB  LEU C   7      -1.703 -30.877  -4.461  1.00 26.58 LIG 0.04  C 
BRANCH 32 33
ATOM     33  CG  LEU C   7      -2.707 -29.933  -5.149  1.00 24.49 LIG-0.02  C 
ATOM     34  CD2 LEU C   7      -1.940 -29.191  -6.205  1.00 27.30 LIG 0.01  C 
ATOM     35  CD1 LEU C   7      -3.140 -28.927  -4.093  1.00 29.65 LIG 0.01  C 
ENDBRANCH 32 33
ENDBRANCH 8 32
ENDBRANCH 1 8
BRANCH 4 36
ATOM     36  C   PRO C   8      -6.342 -31.957  -4.368  1.00 40.02 LIG 0.24  C 
ATOM     37 O    PRO C   8      -7.466 -32.375  -4.621  1.00 40.33 LIG-0.27  OA
ATOM     38  N   ARG C   9      -5.831 -30.859  -4.901  1.00 39.93 LIG-0.35  N 
ATOM     39 H    ARG C   9      -5.074 -30.539  -4.649  1.00 39.93 LIG 0.16  HD
BRANCH 38 40
ATOM     40  CA  ARG C   9      -6.456 -30.070  -5.949  1.00 44.47 LIG 0.18  C 
BRANCH 40 41
ATOM     41  C   ARG C   9      -7.624 -29.254  -5.321  1.00 44.78 LIG 0.24  C 
ATOM     42  N   PRO C  10      -7.669 -27.916  -5.546  1.00 46.18 LIG-0.34  N 
ATOM     43  CA  PRO C  10      -8.712 -27.014  -4.962  1.00 48.25 LIG 0.17  C 
ATOM     44  CD  PRO C  10      -6.629 -27.162  -6.279  1.00 48.73 LIG 0.13  C 
ATOM     45  CB  PRO C  10      -8.316 -25.613  -5.467  1.00 49.47 LIG 0.04  C 
ATOM     46  CG  PRO C  10      -6.891 -25.725  -5.907  1.00 52.76 LIG 0.02  C 
ATOM     47 O    ARG C   9      -8.443 -29.829  -4.598  1.00 45.76 LIG-0.27  OA
BRANCH 43 48
ATOM     48  C   PRO C  10     -10.167 -27.281  -5.379  1.00 47.63 LIG 0.22  C 
ATOM     49 O    PRO C  10     -10.697 -26.608  -6.260  1.00 46.26 LIG-0.29  OA
ENDBRANCH 43 48
ENDBRANCH 40 41
BRANCH 40 50
ATOM     50  CB  ARG C   9      -6.926 -31.037  -7.085  1.00 49.80 LIG 0.04  C 
BRANCH 50 51
ATOM     51  CG  ARG C   9      -7.827 -30.384  -8.154  1.00 51.68 LIG 0.02  C 
BRANCH 51 52
ATOM     52  CD  ARG C   9      -7.270 -29.029  -8.700  1.00 46.90 LIG 0.14  C 
BRANCH 52 53
ATOM     53  NE  ARG C   9      -6.997 -29.149 -10.129  1.00 50.11 LIG-0.23  N 
ATOM     54 HE   ARG C   9      -6.842 -29.942 -10.423  1.00 50.11 LIG 0.18  HD
ATOM     55  CZ  ARG C   9      -6.962 -28.170 -11.028  1.00 44.95 LIG 0.67  C 
ATOM     56  NH1 ARG C   9      -6.700 -28.478 -12.269  1.00 55.49 LIG-0.23  N 
ATOM     57  NH2 ARG C   9      -7.187 -26.924 -10.716  1.00 40.08 LIG-0.23  N 
ATOM     58 1HH1 ARG C   9      -6.555 -29.298 -12.487  1.00 55.49 LIG 0.17  HD
ATOM     59 2HH1 ARG C   9      -6.671 -27.863 -12.869  1.00 55.49 LIG 0.17  HD
ATOM     60 1HH2 ARG C   9      -7.366 -26.710  -9.903  1.00 40.08 LIG 0.17  HD
ATOM     61 2HH2 ARG C   9      -7.156 -26.316 -11.324  1.00 40.08 LIG 0.17  HD
ENDBRANCH 52 53
ENDBRANCH 51 52
ENDBRANCH 50 51
ENDBRANCH 40 50
ENDBRANCH 38 40
ENDBRANCH 4 36
TORSDOF 20
ENDMDL
MODEL 29
USER: ADFR SOLUTION from run 55
USER: SCORE 19.306047 LL:  -2.755 LR: -17.362 RR:   0.000 FEB: -11.396
USER: RMSD 9.882797
USER: SEED 54
USER: STATUS no improvement in best in 22 clusters for 5 generations
USER: GENES 22
USER: genes 0 Translation |==|  0.67822 0.42809 0.55862
USER: genes 1 Rotation |==|  0.06054 0.66477 0.32768 0.50522
USER: genes 2 Torsion [N]-C--CA-[N] |==|  0.36574
USER: genes 3 Torsion [C]-CA--N-[C] |==|  0.81672
USER: genes 4 Torsion [N]-C--CA-[N] |==|  0.97814
USER: genes 5 Torsion [C]-CA--CB-[CG] |==|  0.40993
USER: genes 6 Torsion [CA]-CB--CG-[CD1] |==|  0.58437
USER: genes 7 Torsion [CE1]-CZ--OH-[HH] |==|  0.73970
USER: genes 8 Torsion [C]-CA--N-[C] |==|  0.81195
USER: genes 9 Torsion [N]-C--CA-[N] |==|  0.94830
USER: genes 10 Torsion [C]-CA--CB-[OG] |==|  0.19453
USER: genes 11 Torsion [CA]-CB--OG-[HG] |==|  0.83241
USER: genes 12 Torsion [C]-CA--CB-[CG] |==|  0.51913
USER: genes 13 Torsion [CA]-CB--CG-[CD2] |==|  0.78157
USER: genes 14 Torsion [N]-CA--C-[O] |==|  0.95649
USER: genes 15 Torsion [C]-N--CA-[CB] |==|  0.91041
USER: genes 16 Torsion [N]-CA--C-[N] |==|  0.37099
USER: genes 17 Torsion [N]-CA--C-[O] |==|  0.43827
USER: genes 18 Torsion [N]-CA--CB-[CG] |==|  0.32123
USER: genes 19 Torsion [CA]-CB--CG-[CD] |==|  0.41139
USER: genes 20 Torsion [CB]-CG--CD-[NE] |==|  0.33348
USER: genes 21 Torsion [CG]-CD--NE-[HE] |==|  0.68340
ROOT
ATOM      1  C   LEU C   7       0.531 -34.032  -8.559  1.00 32.10 LIG 0.24  C 
ATOM      2 O    LEU C   7      -0.659 -33.747  -8.808  1.00 36.06 LIG-0.27  OA
ATOM      3  N   PRO C   8       0.914 -34.651  -7.416  1.00 34.15 LIG-0.34  N 
ATOM      4  CA  PRO C   8      -0.175 -34.914  -6.496  1.00 36.52 LIG 0.18  C 
ATOM      5  CB  PRO C   8       0.502 -35.620  -5.296  1.00 33.63 LIG 0.04  C 
ATOM      6  CG  PRO C   8       1.696 -36.286  -5.887  1.00 36.13 LIG 0.02  C 
ATOM      7  CD  PRO C   8       2.159 -35.351  -7.008  1.00 34.25 LIG 0.13  C 
ENDROOT
BRANCH 1 8
ATOM      8  CA  LEU C   7       1.602 -33.772  -9.636  1.00 27.99 LIG 0.18  C 
BRANCH 8 9
ATOM      9  N   LEU C   7       1.230 -34.171 -11.009  1.00 26.55 LIG-0.35  N 
ATOM     10 H    LEU C   7       1.143 -33.538 -11.584  1.00 26.55 LIG 0.16  HD
ATOM     11  C   TYR C   6       1.067 -35.444 -11.233  1.00 27.48 LIG 0.24  C 
ATOM     12 O    TYR C   6       1.282 -36.285 -10.313  1.00 27.70 LIG-0.27  OA
BRANCH 11 13
ATOM     13  CA  TYR C   6       0.548 -35.823 -12.592  1.00 25.37 LIG 0.18  C 
BRANCH 13 14
ATOM     14  CB  TYR C   6       1.614 -36.631 -13.356  1.00 25.99 LIG 0.07  C 
BRANCH 14 15
ATOM     15  CG  TYR C   6       1.081 -37.693 -14.312  1.00 32.28 LIG-0.06  A 
ATOM     16  CD1 TYR C   6       1.808 -38.857 -14.571  1.00 32.91 LIG 0.01  A 
ATOM     17  CE1 TYR C   6       1.329 -39.828 -15.431  1.00 37.22 LIG 0.04  A 
ATOM     18  CZ  TYR C   6       0.108 -39.634 -16.062  1.00 40.59 LIG 0.07  A 
ATOM     19  CE2 TYR C   6      -0.634 -38.475 -15.840  1.00 40.82 LIG 0.04  A 
ATOM     20  CD2 TYR C   6      -0.138 -37.506 -14.974  1.00 36.01 LIG 0.01  A 
BRANCH 18 21
ATOM     21 OH   TYR C   6      -0.351 -40.620 -16.911  1.00 45.73 LIG-0.36  OA
ATOM     22 HH   TYR C   6      -0.118 -40.443 -17.698  1.00 45.73 LIG 0.22  HD
ENDBRANCH 18 21
ENDBRANCH 14 15
ENDBRANCH 13 14
BRANCH 13 23
ATOM     23  N   TYR C   6       0.143 -34.705 -13.375  1.00 26.32 LIG-0.34  N 
ATOM     24 H    TYR C   6       0.629 -34.545 -14.066  1.00 26.32 LIG 0.16  HD
ATOM     25  C   SER C   5      -0.902 -34.009 -13.017  1.00 29.69 LIG 0.26  C 
ATOM     26 O    SER C   5      -1.517 -34.238 -11.928  1.00 27.24 LIG-0.27  OA
BRANCH 25 27
ATOM     27  CA  SER C   5      -1.372 -32.950 -14.072  1.00 35.45 LIG 0.42  C 
ATOM     28  N   SER C   5      -0.279 -32.664 -15.037  1.00 39.53 LIG 0.62  N 
BRANCH 27 29
ATOM     29  CB  SER C   5      -2.643 -33.356 -14.814  1.00 42.03 LIG 0.21  C 
BRANCH 29 30
ATOM     30 OG   SER C   5      -3.791 -33.328 -13.995  1.00 42.36 LIG-0.40  OA
ATOM     31 HG   SER C   5      -3.693 -33.863 -13.355  1.00 42.36 LIG 0.21  HD
ENDBRANCH 29 30
ENDBRANCH 27 29
ENDBRANCH 25 27
ENDBRANCH 13 23
ENDBRANCH 11 13
ENDBRANCH 8 9
BRANCH 8 32
ATOM     32  CB  LEU C   7       2.069 -32.364  -9.625  1.00 26.58 LIG 0.04  C 
BRANCH 32 33
ATOM     33  CG  LEU C   7       2.981 -32.265 -10.862  1.00 24.49 LIG-0.02  C 
ATOM     34  CD2 LEU C   7       4.292 -32.886 -10.476  1.00 27.30 LIG 0.01  C 
ATOM     35  CD1 LEU C   7       3.218 -30.782 -11.100  1.00 29.65 LIG 0.01  C 
ENDBRANCH 32 33
ENDBRANCH 8 32
ENDBRANCH 1 8
BRANCH 4 36
ATOM     36  C   PRO C   8      -0.894 -33.605  -6.134  1.00 40.02 LIG 0.24  C 
ATOM     37 O    PRO C   8      -0.383 -32.515  -6.360  1.00 40.33 LIG-0.27  OA
ATOM     38  N   ARG C   9      -2.124 -33.756  -5.669  1.00 39.93 LIG-0.35  N 
ATOM     39 H    ARG C   9      -2.493 -34.529  -5.594  1.00 39.93 LIG 0.16  HD
BRANCH 38 40
ATOM     40  CA  ARG C   9      -2.992 -32.674  -5.235  1.00 44.47 LIG 0.18  C 
BRANCH 40 41
ATOM     41  C   ARG C   9      -3.836 -32.200  -6.455  1.00 44.78 LIG 0.24  C 
ATOM     42  N   PRO C  10      -5.170 -32.016  -6.283  1.00 46.18 LIG-0.34  N 
ATOM     43  CA  PRO C  10      -6.097 -31.609  -7.385  1.00 48.25 LIG 0.17  C 
ATOM     44  CD  PRO C  10      -5.895 -32.321  -5.031  1.00 48.73 LIG 0.13  C 
ATOM     45  CB  PRO C  10      -7.483 -31.574  -6.712  1.00 49.47 LIG 0.04  C 
ATOM     46  CG  PRO C  10      -7.343 -32.364  -5.449  1.00 52.76 LIG 0.02  C 
ATOM     47 O    ARG C   9      -3.286 -32.055  -7.551  1.00 45.76 LIG-0.27  OA
BRANCH 43 48
ATOM     48  C   PRO C  10      -5.842 -30.236  -8.028  1.00 47.63 LIG 0.22  C 
ATOM     49 O    PRO C  10      -6.256 -29.990  -9.159  1.00 46.26 LIG-0.29  OA
ENDBRANCH 43 48
ENDBRANCH 40 41
BRANCH 40 50
ATOM     50  CB  ARG C   9      -2.104 -31.539  -4.627  1.00 49.80 LIG 0.04  C 
BRANCH 50 51
ATOM     51  CG  ARG C   9      -2.139 -30.207  -5.407  1.00 51.68 LIG 0.02  C 
BRANCH 51 52
ATOM     52  CD  ARG C   9      -1.965 -28.945  -4.500  1.00 46.90 LIG 0.14  C 
BRANCH 52 53
ATOM     53  NE  ARG C   9      -0.782 -28.199  -4.917  1.00 50.11 LIG-0.23  N 
ATOM     54 HE   ARG C   9      -0.132 -28.168  -4.355  1.00 50.11 LIG 0.18  HD
ATOM     55  CZ  ARG C   9      -0.597 -27.562  -6.069  1.00 44.95 LIG 0.67  C 
ATOM     56  NH1 ARG C   9       0.539 -26.946  -6.260  1.00 55.49 LIG-0.23  N 
ATOM     57  NH2 ARG C   9      -1.499 -27.538  -7.010  1.00 40.08 LIG-0.23  N 
ATOM     58 1HH1 ARG C   9       1.144 -26.960  -5.648  1.00 55.49 LIG 0.17  HD
ATOM     59 2HH1 ARG C   9       0.683 -26.527  -6.997  1.00 55.49 LIG 0.17  HD
ATOM     60 1HH2 ARG C   9      -2.248 -27.944  -6.898  1.00 40.08 LIG 0.17  HD
ATOM     61 2HH2 ARG C   9      -1.345 -27.115  -7.743  1.00 40.08 LIG 0.17  HD
ENDBRANCH 52 53
ENDBRANCH 51 52
ENDBRANCH 50 51
ENDBRANCH 40 50
ENDBRANCH 38 40
ENDBRANCH 4 36
TORSDOF 20
ENDMDL
MODEL 30
USER: ADFR SOLUTION from run 44
USER: SCORE 18.900634 LL:  -2.623 LR: -17.361 RR:   0.000 FEB: -11.395
USER: RMSD 10.617754
USER: SEED 43
USER: STATUS no improvement in best in 7 clusters for 5 generations
USER: GENES 22
USER: genes 0 Translation |==|  0.65426 0.41178 0.62452
USER: genes 1 Rotation |==|  0.64422 0.92495 0.38027 0.68515
USER: genes 2 Torsion [N]-C--CA-[N] |==|  0.21566
USER: genes 3 Torsion [C]-CA--N-[C] |==|  0.72778
USER: genes 4 Torsion [N]-C--CA-[N] |==|  0.04129
USER: genes 5 Torsion [C]-CA--CB-[CG] |==|  0.26457
USER: genes 6 Torsion [CA]-CB--CG-[CD1] |==|  0.50611
USER: genes 7 Torsion [CE1]-CZ--OH-[HH] |==|  0.84408
USER: genes 8 Torsion [C]-CA--N-[C] |==|  0.75389
USER: genes 9 Torsion [N]-C--CA-[N] |==|  0.33246
USER: genes 10 Torsion [C]-CA--CB-[OG] |==|  0.12714
USER: genes 11 Torsion [CA]-CB--OG-[HG] |==|  0.59647
USER: genes 12 Torsion [C]-CA--CB-[CG] |==|  0.30093
USER: genes 13 Torsion [CA]-CB--CG-[CD2] |==|  0.94758
USER: genes 14 Torsion [N]-CA--C-[O] |==|  0.98883
USER: genes 15 Torsion [C]-N--CA-[CB] |==|  0.50562
USER: genes 16 Torsion [N]-CA--C-[N] |==|  0.50137
USER: genes 17 Torsion [N]-CA--C-[O] |==|  0.25707
USER: genes 18 Torsion [N]-CA--CB-[CG] |==|  0.78851
USER: genes 19 Torsion [CA]-CB--CG-[CD] |==|  0.49695
USER: genes 20 Torsion [CB]-CG--CD-[NE] |==|  0.47949
USER: genes 21 Torsion [CG]-CD--NE-[HE] |==|  0.94793
ROOT
ATOM      1  C   LEU C   7       0.027 -34.326  -6.928  1.00 32.10 LIG 0.24  C 
ATOM      2 O    LEU C   7       0.619 -33.884  -5.922  1.00 36.06 LIG-0.27  OA
ATOM      3  N   PRO C   8      -0.935 -33.630  -7.579  1.00 34.15 LIG-0.34  N 
ATOM      4  CA  PRO C   8      -1.241 -32.346  -6.979  1.00 36.52 LIG 0.18  C 
ATOM      5  CB  PRO C   8      -2.340 -31.750  -7.892  1.00 33.63 LIG 0.04  C 
ATOM      6  CG  PRO C   8      -2.086 -32.367  -9.223  1.00 36.13 LIG 0.02  C 
ATOM      7  CD  PRO C   8      -1.564 -33.774  -8.917  1.00 34.25 LIG 0.13  C 
ENDROOT
BRANCH 1 8
ATOM      8  CA  LEU C   7       0.478 -35.673  -7.527  1.00 27.99 LIG 0.18  C 
BRANCH 8 9
ATOM      9  N   LEU C   7       1.393 -35.579  -8.683  1.00 26.55 LIG-0.35  N 
ATOM     10 H    LEU C   7       2.225 -35.458  -8.506  1.00 26.55 LIG 0.16  HD
ATOM     11  C   TYR C   6       0.864 -35.687  -9.868  1.00 27.48 LIG 0.24  C 
ATOM     12 O    TYR C   6      -0.373 -35.922  -9.994  1.00 27.70 LIG-0.27  OA
BRANCH 11 13
ATOM     13  CA  TYR C   6       1.781 -35.444 -11.034  1.00 25.37 LIG 0.18  C 
BRANCH 13 14
ATOM     14  CB  TYR C   6       1.516 -36.486 -12.137  1.00 25.99 LIG 0.07  C 
BRANCH 14 15
ATOM     15  CG  TYR C   6       0.559 -36.051 -13.242  1.00 32.28 LIG-0.06  A 
ATOM     16  CD1 TYR C   6       0.206 -36.926 -14.272  1.00 32.91 LIG 0.01  A 
ATOM     17  CE1 TYR C   6      -0.667 -36.544 -15.274  1.00 37.22 LIG 0.04  A 
ATOM     18  CZ  TYR C   6      -1.189 -35.258 -15.265  1.00 40.59 LIG 0.07  A 
ATOM     19  CE2 TYR C   6      -0.842 -34.353 -14.262  1.00 40.82 LIG 0.04  A 
ATOM     20  CD2 TYR C   6       0.039 -34.753 -13.262  1.00 36.01 LIG 0.01  A 
BRANCH 18 21
ATOM     21 OH   TYR C   6      -2.062 -34.901 -16.273  1.00 45.73 LIG-0.36  OA
ATOM     22 HH   TYR C   6      -1.694 -35.023 -17.018  1.00 45.73 LIG 0.22  HD
ENDBRANCH 18 21
ENDBRANCH 14 15
ENDBRANCH 13 14
BRANCH 13 23
ATOM     23  N   TYR C   6       3.159 -35.459 -10.683  1.00 26.32 LIG-0.34  N 
ATOM     24 H    TYR C   6       3.548 -36.223 -10.748  1.00 26.32 LIG 0.16  HD
ATOM     25  C   SER C   5       3.740 -34.355 -10.294  1.00 29.69 LIG 0.26  C 
ATOM     26 O    SER C   5       3.084 -33.279 -10.123  1.00 27.24 LIG-0.27  OA
BRANCH 25 27
ATOM     27  CA  SER C   5       5.298 -34.454 -10.150  1.00 35.45 LIG 0.42  C 
ATOM     28  N   SER C   5       5.962 -33.486 -11.061  1.00 39.53 LIG 0.62  N 
BRANCH 27 29
ATOM     29  CB  SER C   5       5.788 -34.257  -8.718  1.00 42.03 LIG 0.21  C 
BRANCH 29 30
ATOM     30 OG   SER C   5       5.037 -34.988  -7.774  1.00 42.36 LIG-0.40  OA
ATOM     31 HG   SER C   5       4.980 -34.550  -7.059  1.00 42.36 LIG 0.21  HD
ENDBRANCH 29 30
ENDBRANCH 27 29
ENDBRANCH 25 27
ENDBRANCH 13 23
ENDBRANCH 11 13
ENDBRANCH 8 9
BRANCH 8 32
ATOM     32  CB  LEU C   7       1.050 -36.574  -6.496  1.00 26.58 LIG 0.04  C 
BRANCH 32 33
ATOM     33  CG  LEU C   7      -0.021 -37.667  -6.322  1.00 24.49 LIG-0.02  C 
ATOM     34  CD2 LEU C   7      -1.298 -37.105  -6.877  1.00 27.30 LIG 0.01  C 
ATOM     35  CD1 LEU C   7      -0.204 -37.851  -4.824  1.00 29.65 LIG 0.01  C 
ENDBRANCH 32 33
ENDBRANCH 8 32
ENDBRANCH 1 8
BRANCH 4 36
ATOM     36  C   PRO C   8      -1.668 -32.531  -5.514  1.00 40.02 LIG 0.24  C 
ATOM     37 O    PRO C   8      -1.788 -33.647  -5.023  1.00 40.33 LIG-0.27  OA
ATOM     38  N   ARG C   9      -1.787 -31.409  -4.824  1.00 39.93 LIG-0.35  N 
ATOM     39 H    ARG C   9      -1.619 -30.639  -5.169  1.00 39.93 LIG 0.16  HD
BRANCH 38 40
ATOM     40  CA  ARG C   9      -2.202 -31.323  -3.433  1.00 44.47 LIG 0.18  C 
BRANCH 40 41
ATOM     41  C   ARG C   9      -3.574 -32.046  -3.284  1.00 44.78 LIG 0.24  C 
ATOM     42  N   PRO C  10      -4.155 -32.077  -2.058  1.00 46.18 LIG-0.34  N 
ATOM     43  CA  PRO C  10      -5.446 -32.778  -1.772  1.00 48.25 LIG 0.17  C 
ATOM     44  CD  PRO C  10      -3.529 -31.542  -0.828  1.00 48.73 LIG 0.13  C 
ATOM     45  CB  PRO C  10      -5.660 -32.564  -0.261  1.00 49.47 LIG 0.04  C 
ATOM     46  CG  PRO C  10      -4.325 -32.169   0.288  1.00 52.76 LIG 0.02  C 
ATOM     47 O    ARG C   9      -4.068 -32.614  -4.263  1.00 45.76 LIG-0.27  OA
BRANCH 43 48
ATOM     48  C   PRO C  10      -6.690 -32.259  -2.510  1.00 47.63 LIG 0.22  C 
ATOM     49 O    PRO C  10      -7.032 -32.754  -3.582  1.00 46.26 LIG-0.29  OA
ENDBRANCH 43 48
ENDBRANCH 40 41
BRANCH 40 50
ATOM     50  CB  ARG C   9      -2.258 -29.814  -3.025  1.00 49.80 LIG 0.04  C 
BRANCH 50 51
ATOM     51  CG  ARG C   9      -0.881 -29.164  -2.773  1.00 51.68 LIG 0.02  C 
BRANCH 51 52
ATOM     52  CD  ARG C   9      -0.964 -27.649  -2.393  1.00 46.90 LIG 0.14  C 
BRANCH 52 53
ATOM     53  NE  ARG C   9       0.358 -27.167  -2.005  1.00 50.11 LIG-0.23  N 
ATOM     54 HE   ARG C   9       0.935 -27.767  -1.787  1.00 50.11 LIG 0.18  HD
ATOM     55  CZ  ARG C   9       0.771 -25.904  -1.951  1.00 44.95 LIG 0.67  C 
ATOM     56  NH1 ARG C   9       2.000 -25.671  -1.578  1.00 55.49 LIG-0.23  N 
ATOM     57  NH2 ARG C   9       0.000 -24.901  -2.263  1.00 40.08 LIG-0.23  N 
ATOM     58 1HH1 ARG C   9       2.520 -26.326  -1.375  1.00 55.49 LIG 0.17  HD
ATOM     59 2HH1 ARG C   9       2.291 -24.863  -1.534  1.00 55.49 LIG 0.17  HD
ATOM     60 1HH2 ARG C   9      -0.809 -25.043  -2.515  1.00 40.08 LIG 0.17  HD
ATOM     61 2HH2 ARG C   9       0.301 -24.096  -2.216  1.00 40.08 LIG 0.17  HD
ENDBRANCH 52 53
ENDBRANCH 51 52
ENDBRANCH 50 51
ENDBRANCH 40 50
ENDBRANCH 38 40
ENDBRANCH 4 36
TORSDOF 20
ENDMDL
MODEL 31
USER: ADFR SOLUTION from run 20
USER: SCORE 20.490722 LL:  -3.448 LR: -17.362 RR:   0.000 FEB: -11.396
USER: RMSD 4.230641
USER: SEED 19
USER: STATUS no improvement in best in 9 clusters for 5 generations
USER: GENES 22
USER: genes 0 Translation |==|  0.66077 0.46541 0.54977
USER: genes 1 Rotation |==|  0.61603 0.47316 0.40737 0.97669
USER: genes 2 Torsion [N]-C--CA-[N] |==|  0.46260
USER: genes 3 Torsion [C]-CA--N-[C] |==|  0.76356
USER: genes 4 Torsion [N]-C--CA-[N] |==|  0.46358
USER: genes 5 Torsion [C]-CA--CB-[CG] |==|  0.35958
USER: genes 6 Torsion [CA]-CB--CG-[CD1] |==|  0.03152
USER: genes 7 Torsion [CE1]-CZ--OH-[HH] |==|  0.82078
USER: genes 8 Torsion [C]-CA--N-[C] |==|  0.61194
USER: genes 9 Torsion [N]-C--CA-[N] |==|  0.22735
USER: genes 10 Torsion [C]-CA--CB-[OG] |==|  0.27945
USER: genes 11 Torsion [CA]-CB--OG-[HG] |==|  0.56833
USER: genes 12 Torsion [C]-CA--CB-[CG] |==|  0.38550
USER: genes 13 Torsion [CA]-CB--CG-[CD2] |==|  0.25722
USER: genes 14 Torsion [N]-CA--C-[O] |==|  0.93890
USER: genes 15 Torsion [C]-N--CA-[CB] |==|  0.17070
USER: genes 16 Torsion [N]-CA--C-[N] |==|  0.12778
USER: genes 17 Torsion [N]-CA--C-[O] |==|  0.67618
USER: genes 18 Torsion [N]-CA--CB-[CG] |==|  0.61717
USER: genes 19 Torsion [CA]-CB--CG-[CD] |==|  0.75363
USER: genes 20 Torsion [CB]-CG--CD-[NE] |==|  0.76614
USER: genes 21 Torsion [CG]-CD--NE-[HE] |==|  0.78444
ROOT
ATOM      1  C   LEU C   7       0.164 -33.361  -8.778  1.00 32.10 LIG 0.24  C 
ATOM      2 O    LEU C   7      -0.446 -32.316  -9.085  1.00 36.06 LIG-0.27  OA
ATOM      3  N   PRO C   8       1.417 -33.634  -9.214  1.00 34.15 LIG-0.34  N 
ATOM      4  CA  PRO C   8       1.966 -32.625 -10.099  1.00 36.52 LIG 0.18  C 
ATOM      5  CB  PRO C   8       3.380 -33.150 -10.446  1.00 33.63 LIG 0.04  C 
ATOM      6  CG  PRO C   8       3.762 -33.982  -9.271  1.00 36.13 LIG 0.02  C 
ATOM      7  CD  PRO C   8       2.452 -34.610  -8.785  1.00 34.25 LIG 0.13  C 
ENDROOT
BRANCH 1 8
ATOM      8  CA  LEU C   7      -0.483 -34.336  -7.775  1.00 27.99 LIG 0.18  C 
BRANCH 8 9
ATOM      9  N   LEU C   7      -1.701 -33.838  -7.103  1.00 26.55 LIG-0.35  N 
ATOM     10 H    LEU C   7      -2.453 -34.058  -7.456  1.00 26.55 LIG 0.16  HD
ATOM     11  C   TYR C   6      -1.534 -33.112  -6.035  1.00 27.48 LIG 0.24  C 
ATOM     12 O    TYR C   6      -0.371 -32.906  -5.580  1.00 27.70 LIG-0.27  OA
BRANCH 11 13
ATOM     13  CA  TYR C   6      -2.771 -32.492  -5.447  1.00 25.37 LIG 0.18  C 
BRANCH 13 14
ATOM     14  CB  TYR C   6      -3.295 -31.382  -6.378  1.00 25.99 LIG 0.07  C 
BRANCH 14 15
ATOM     15  CG  TYR C   6      -4.775 -31.462  -6.734  1.00 32.28 LIG-0.06  A 
ATOM     16  CD1 TYR C   6      -5.631 -32.336  -6.060  1.00 32.91 LIG 0.01  A 
ATOM     17  CE1 TYR C   6      -6.976 -32.411  -6.371  1.00 37.22 LIG 0.04  A 
ATOM     18  CZ  TYR C   6      -7.483 -31.613  -7.387  1.00 40.59 LIG 0.07  A 
ATOM     19  CE2 TYR C   6      -6.652 -30.742  -8.093  1.00 40.82 LIG 0.04  A 
ATOM     20  CD2 TYR C   6      -5.301 -30.681  -7.769  1.00 36.01 LIG 0.01  A 
BRANCH 18 21
ATOM     21 OH   TYR C   6      -8.829 -31.701  -7.676  1.00 45.73 LIG-0.36  OA
ATOM     22 HH   TYR C   6      -9.004 -32.470  -7.964  1.00 45.73 LIG 0.22  HD
ENDBRANCH 18 21
ENDBRANCH 14 15
ENDBRANCH 13 14
BRANCH 13 23
ATOM     23  N   TYR C   6      -2.575 -31.968  -4.139  1.00 26.32 LIG-0.34  N 
ATOM     24 H    TYR C   6      -1.828 -31.560  -4.015  1.00 26.32 LIG 0.16  HD
ATOM     25  C   SER C   5      -3.502 -32.127  -3.233  1.00 29.69 LIG 0.26  C 
ATOM     26 O    SER C   5      -4.539 -32.828  -3.453  1.00 27.24 LIG-0.27  OA
BRANCH 25 27
ATOM     27  CA  SER C   5      -3.265 -31.319  -1.910  1.00 35.45 LIG 0.42  C 
ATOM     28  N   SER C   5      -3.719 -29.913  -2.077  1.00 39.53 LIG 0.62  N 
BRANCH 27 29
ATOM     29  CB  SER C   5      -3.928 -31.949  -0.688  1.00 42.03 LIG 0.21  C 
BRANCH 29 30
ATOM     30 OG   SER C   5      -3.025 -32.676   0.115  1.00 42.36 LIG-0.40  OA
ATOM     31 HG   SER C   5      -3.443 -33.259   0.552  1.00 42.36 LIG 0.21  HD
ENDBRANCH 29 30
ENDBRANCH 27 29
ENDBRANCH 25 27
ENDBRANCH 13 23
ENDBRANCH 11 13
ENDBRANCH 8 9
BRANCH 8 32
ATOM     32  CB  LEU C   7      -0.743 -35.664  -8.383  1.00 26.58 LIG 0.04  C 
BRANCH 32 33
ATOM     33  CG  LEU C   7      -0.344 -36.662  -7.279  1.00 24.49 LIG-0.02  C 
ATOM     34  CD2 LEU C   7      -1.593 -36.958  -6.500  1.00 27.30 LIG 0.01  C 
ATOM     35  CD1 LEU C   7       0.614 -35.919  -6.360  1.00 29.65 LIG 0.01  C 
ENDBRANCH 32 33
ENDBRANCH 8 32
ENDBRANCH 1 8
BRANCH 4 36
ATOM     36  C   PRO C   8       1.049 -32.428 -11.316  1.00 40.02 LIG 0.24  C 
ATOM     37 O    PRO C   8       0.262 -33.299 -11.667  1.00 40.33 LIG-0.27  OA
ATOM     38  N   ARG C   9       1.109 -31.227 -11.869  1.00 39.93 LIG-0.35  N 
ATOM     39 H    ARG C   9       1.611 -30.604 -11.555  1.00 39.93 LIG 0.16  HD
BRANCH 38 40
ATOM     40  CA  ARG C   9       0.360 -30.809 -13.042  1.00 44.47 LIG 0.18  C 
BRANCH 40 41
ATOM     41  C   ARG C   9       0.808 -29.368 -13.426  1.00 44.78 LIG 0.24  C 
ATOM     42  N   PRO C  10       2.136 -29.093 -13.453  1.00 46.18 LIG-0.34  N 
ATOM     43  CA  PRO C  10       2.694 -27.738 -13.760  1.00 48.25 LIG 0.17  C 
ATOM     44  CD  PRO C  10       3.191 -30.051 -13.057  1.00 48.73 LIG 0.13  C 
ATOM     45  CB  PRO C  10       4.219 -27.925 -13.630  1.00 49.47 LIG 0.04  C 
ATOM     46  CG  PRO C  10       4.410 -29.188 -12.851  1.00 52.76 LIG 0.02  C 
ATOM     47 O    ARG C   9      -0.049 -28.505 -13.641  1.00 45.76 LIG-0.27  OA
BRANCH 43 48
ATOM     48  C   PRO C  10       2.399 -27.171 -15.158  1.00 47.63 LIG 0.22  C 
ATOM     49 O    PRO C  10       3.314 -26.950 -15.947  1.00 46.26 LIG-0.29  OA
ENDBRANCH 43 48
ENDBRANCH 40 41
BRANCH 40 50
ATOM     50  CB  ARG C   9      -1.167 -30.909 -12.717  1.00 49.80 LIG 0.04  C 
BRANCH 50 51
ATOM     51  CG  ARG C   9      -2.030 -31.502 -13.851  1.00 51.68 LIG 0.02  C 
BRANCH 51 52
ATOM     52  CD  ARG C   9      -2.553 -30.432 -14.865  1.00 46.90 LIG 0.14  C 
BRANCH 52 53
ATOM     53  NE  ARG C   9      -3.774 -29.822 -14.349  1.00 50.11 LIG-0.23  N 
ATOM     54 HE   ARG C   9      -4.495 -30.286 -14.425  1.00 50.11 LIG 0.18  HD
ATOM     55  CZ  ARG C   9      -3.899 -28.630 -13.774  1.00 44.95 LIG 0.67  C 
ATOM     56  NH1 ARG C   9      -5.085 -28.256 -13.374  1.00 55.49 LIG-0.23  N 
ATOM     57  NH2 ARG C   9      -2.886 -27.831 -13.590  1.00 40.08 LIG-0.23  N 
ATOM     58 1HH1 ARG C   9      -5.760 -28.778 -13.485  1.00 55.49 LIG 0.17  HD
ATOM     59 2HH1 ARG C   9      -5.191 -27.490 -13.000  1.00 55.49 LIG 0.17  HD
ATOM     60 1HH2 ARG C   9      -2.099 -28.068 -13.844  1.00 40.08 LIG 0.17  HD
ATOM     61 2HH2 ARG C   9      -3.003 -27.066 -13.215  1.00 40.08 LIG 0.17  HD
ENDBRANCH 52 53
ENDBRANCH 51 52
ENDBRANCH 50 51
ENDBRANCH 40 50
ENDBRANCH 38 40
ENDBRANCH 4 36
TORSDOF 20
ENDMDL
MODEL 32
USER: ADFR SOLUTION from run 175
USER: SCORE 19.346795 LL:  -3.047 LR: -17.267 RR:   0.000 FEB: -11.301
USER: RMSD 9.703662
USER: SEED 174
USER: STATUS no improvement in best in 9 clusters for 5 generations
USER: GENES 22
USER: genes 0 Translation |==|  0.68274 0.41881 0.54622
USER: genes 1 Rotation |==|  0.09952 0.70277 0.27980 0.50372
USER: genes 2 Torsion [N]-C--CA-[N] |==|  0.37988
USER: genes 3 Torsion [C]-CA--N-[C] |==|  0.81752
USER: genes 4 Torsion [N]-C--CA-[N] |==|  0.47214
USER: genes 5 Torsion [C]-CA--CB-[CG] |==|  0.18065
USER: genes 6 Torsion [CA]-CB--CG-[CD1] |==|  0.65365
USER: genes 7 Torsion [CE1]-CZ--OH-[HH] |==|  0.89631
USER: genes 8 Torsion [C]-CA--N-[C] |==|  0.69669
USER: genes 9 Torsion [N]-C--CA-[N] |==|  0.24092
USER: genes 10 Torsion [C]-CA--CB-[OG] |==|  0.22666
USER: genes 11 Torsion [CA]-CB--OG-[HG] |==|  0.80179
USER: genes 12 Torsion [C]-CA--CB-[CG] |==|  0.56462
USER: genes 13 Torsion [CA]-CB--CG-[CD2] |==|  0.73657
USER: genes 14 Torsion [N]-CA--C-[O] |==|  0.01830
USER: genes 15 Torsion [C]-N--CA-[CB] |==|  0.91584
USER: genes 16 Torsion [N]-CA--C-[N] |==|  0.32251
USER: genes 17 Torsion [N]-CA--C-[O] |==|  0.57106
USER: genes 18 Torsion [N]-CA--CB-[CG] |==|  0.68087
USER: genes 19 Torsion [CA]-CB--CG-[CD] |==|  0.65671
USER: genes 20 Torsion [CB]-CG--CD-[NE] |==|  0.81549
USER: genes 21 Torsion [CG]-CD--NE-[HE] |==|  0.79385
ROOT
ATOM      1  C   LEU C   7       0.626 -34.199  -8.866  1.00 32.10 LIG 0.24  C 
ATOM      2 O    LEU C   7      -0.407 -33.707  -9.366  1.00 36.06 LIG-0.27  OA
ATOM      3  N   PRO C   8       0.631 -34.838  -7.671  1.00 34.15 LIG-0.34  N 
ATOM      4  CA  PRO C   8      -0.660 -34.862  -7.011  1.00 36.52 LIG 0.18  C 
ATOM      5  CB  PRO C   8      -0.402 -35.640  -5.698  1.00 33.63 LIG 0.04  C 
ATOM      6  CG  PRO C   8       0.743 -36.535  -6.019  1.00 36.13 LIG 0.02  C 
ATOM      7  CD  PRO C   8       1.604 -35.742  -7.006  1.00 34.25 LIG 0.13  C 
ENDROOT
BRANCH 1 8
ATOM      8  CA  LEU C   7       1.932 -34.180  -9.683  1.00 27.99 LIG 0.18  C 
BRANCH 8 9
ATOM      9  N   LEU C   7       1.780 -34.436 -11.130  1.00 26.55 LIG-0.35  N 
ATOM     10 H    LEU C   7       1.972 -33.786 -11.658  1.00 26.55 LIG 0.16  HD
ATOM     11  C   TYR C   6       1.369 -35.621 -11.482  1.00 27.48 LIG 0.24  C 
ATOM     12 O    TYR C   6       1.173 -36.513 -10.607  1.00 27.70 LIG-0.27  OA
BRANCH 11 13
ATOM     13  CA  TYR C   6       1.078 -35.820 -12.944  1.00 25.37 LIG 0.18  C 
BRANCH 13 14
ATOM     14  CB  TYR C   6      -0.139 -34.972 -13.357  1.00 25.99 LIG 0.07  C 
BRANCH 14 15
ATOM     15  CG  TYR C   6       0.049 -33.461 -13.272  1.00 32.28 LIG-0.06  A 
ATOM     16  CD1 TYR C   6      -0.826 -32.669 -12.523  1.00 32.91 LIG 0.01  A 
ATOM     17  CE1 TYR C   6      -0.660 -31.300 -12.433  1.00 37.22 LIG 0.04  A 
ATOM     18  CZ  TYR C   6       0.387 -30.697 -13.116  1.00 40.59 LIG 0.07  A 
ATOM     19  CE2 TYR C   6       1.267 -31.455 -13.888  1.00 40.82 LIG 0.04  A 
ATOM     20  CD2 TYR C   6       1.085 -32.832 -13.969  1.00 36.01 LIG 0.01  A 
BRANCH 18 21
ATOM     21 OH   TYR C   6       0.536 -29.329 -13.007  1.00 45.73 LIG-0.36  OA
ATOM     22 HH   TYR C   6      -0.221 -28.966 -12.989  1.00 45.73 LIG 0.22  HD
ENDBRANCH 18 21
ENDBRANCH 14 15
ENDBRANCH 13 14
BRANCH 13 23
ATOM     23  N   TYR C   6       0.855 -37.181 -13.296  1.00 26.32 LIG-0.34  N 
ATOM     24 H    TYR C   6       0.116 -37.518 -13.012  1.00 26.32 LIG 0.16  HD
ATOM     25  C   SER C   5       1.748 -37.821 -14.003  1.00 29.69 LIG 0.26  C 
ATOM     26 O    SER C   5       2.865 -37.294 -14.304  1.00 27.24 LIG-0.27  OA
BRANCH 25 27
ATOM     27  CA  SER C   5       1.288 -39.232 -14.509  1.00 35.45 LIG 0.42  C 
ATOM     28  N   SER C   5       0.564 -39.104 -15.801  1.00 39.53 LIG 0.62  N 
BRANCH 27 29
ATOM     29  CB  SER C   5       2.434 -40.232 -14.639  1.00 42.03 LIG 0.21  C 
BRANCH 29 30
ATOM     30 OG   SER C   5       2.780 -40.835 -13.412  1.00 42.36 LIG-0.40  OA
ATOM     31 HG   SER C   5       3.163 -40.271 -12.920  1.00 42.36 LIG 0.21  HD
ENDBRANCH 29 30
ENDBRANCH 27 29
ENDBRANCH 25 27
ENDBRANCH 13 23
ENDBRANCH 11 13
ENDBRANCH 8 9
BRANCH 8 32
ATOM     32  CB  LEU C   7       2.704 -32.931  -9.465  1.00 26.58 LIG 0.04  C 
BRANCH 32 33
ATOM     33  CG  LEU C   7       3.580 -32.812 -10.727  1.00 24.49 LIG-0.02  C 
ATOM     34  CD2 LEU C   7       4.905 -33.428 -10.386  1.00 27.30 LIG 0.01  C 
ATOM     35  CD1 LEU C   7       3.800 -31.324 -10.953  1.00 29.65 LIG 0.01  C 
ENDBRANCH 32 33
ENDBRANCH 8 32
ENDBRANCH 1 8
BRANCH 4 36
ATOM     36  C   PRO C   8      -1.180 -33.430  -6.806  1.00 40.02 LIG 0.24  C 
ATOM     37 O    PRO C   8      -0.593 -32.466  -7.281  1.00 40.33 LIG-0.27  OA
ATOM     38  N   ARG C   9      -2.343 -33.346  -6.180  1.00 39.93 LIG-0.35  N 
ATOM     39 H    ARG C   9      -2.778 -34.043  -5.926  1.00 39.93 LIG 0.16  HD
BRANCH 38 40
ATOM     40  CA  ARG C   9      -3.024 -32.106  -5.847  1.00 44.47 LIG 0.18  C 
BRANCH 40 41
ATOM     41  C   ARG C   9      -4.010 -31.759  -7.002  1.00 44.78 LIG 0.24  C 
ATOM     42  N   PRO C  10      -5.339 -31.739  -6.730  1.00 46.18 LIG-0.34  N 
ATOM     43  CA  PRO C  10      -6.390 -31.467  -7.760  1.00 48.25 LIG 0.17  C 
ATOM     44  CD  PRO C  10      -5.925 -32.111  -5.423  1.00 48.73 LIG 0.13  C 
ATOM     45  CB  PRO C  10      -7.715 -31.593  -6.982  1.00 49.47 LIG 0.04  C 
ATOM     46  CG  PRO C  10      -7.383 -32.339  -5.729  1.00 52.76 LIG 0.02  C 
ATOM     47 O    ARG C   9      -3.566 -31.565  -8.138  1.00 45.76 LIG-0.27  OA
BRANCH 43 48
ATOM     48  C   PRO C  10      -6.358 -30.083  -8.429  1.00 47.63 LIG 0.22  C 
ATOM     49 O    PRO C  10      -7.382 -29.595  -8.902  1.00 46.26 LIG-0.29  OA
ENDBRANCH 43 48
ENDBRANCH 40 41
BRANCH 40 50
ATOM     50  CB  ARG C   9      -1.946 -30.997  -5.609  1.00 49.80 LIG 0.04  C 
BRANCH 50 51
ATOM     51  CG  ARG C   9      -1.887 -30.457  -4.164  1.00 51.68 LIG 0.02  C 
BRANCH 51 52
ATOM     52  CD  ARG C   9      -2.077 -28.908  -4.066  1.00 46.90 LIG 0.14  C 
BRANCH 52 53
ATOM     53  NE  ARG C   9      -0.945 -28.233  -4.692  1.00 50.11 LIG-0.23  N 
ATOM     54 HE   ARG C   9      -0.206 -28.239  -4.253  1.00 50.11 LIG 0.18  HD
ATOM     55  CZ  ARG C   9      -0.929 -27.609  -5.866  1.00 44.95 LIG 0.67  C 
ATOM     56  NH1 ARG C   9       0.189 -27.061  -6.260  1.00 55.49 LIG-0.23  N 
ATOM     57  NH2 ARG C   9      -1.979 -27.533  -6.635  1.00 40.08 LIG-0.23  N 
ATOM     58 1HH1 ARG C   9       0.890 -27.110  -5.763  1.00 55.49 LIG 0.17  HD
ATOM     59 2HH1 ARG C   9       0.225 -26.652  -7.015  1.00 55.49 LIG 0.17  HD
ATOM     60 1HH2 ARG C   9      -2.719 -27.895  -6.388  1.00 40.08 LIG 0.17  HD
ATOM     61 2HH2 ARG C   9      -1.932 -27.121  -7.388  1.00 40.08 LIG 0.17  HD
ENDBRANCH 52 53
ENDBRANCH 51 52
ENDBRANCH 50 51
ENDBRANCH 40 50
ENDBRANCH 38 40
ENDBRANCH 4 36
TORSDOF 20
ENDMDL
MODEL 33
USER: ADFR SOLUTION from run 173
USER: SCORE 19.138105 LL:  -3.254 LR: -17.256 RR:   0.000 FEB: -11.290
USER: RMSD 10.928421
USER: SEED 172
USER: STATUS no improvement in best in 18 clusters for 5 generations
USER: GENES 22
USER: genes 0 Translation |==|  0.65543 0.45687 0.54418
USER: genes 1 Rotation |==|  0.12493 0.71576 0.24947 0.50158
USER: genes 2 Torsion [N]-C--CA-[N] |==|  0.36166
USER: genes 3 Torsion [C]-CA--N-[C] |==|  0.72222
USER: genes 4 Torsion [N]-C--CA-[N] |==|  0.29631
USER: genes 5 Torsion [C]-CA--CB-[CG] |==|  0.56651
USER: genes 6 Torsion [CA]-CB--CG-[CD1] |==|  0.27144
USER: genes 7 Torsion [CE1]-CZ--OH-[HH] |==|  0.37778
USER: genes 8 Torsion [C]-CA--N-[C] |==|  0.74664
USER: genes 9 Torsion [N]-C--CA-[N] |==|  0.77691
USER: genes 10 Torsion [C]-CA--CB-[OG] |==|  0.67843
USER: genes 11 Torsion [CA]-CB--OG-[HG] |==|  0.17695
USER: genes 12 Torsion [C]-CA--CB-[CG] |==|  0.58157
USER: genes 13 Torsion [CA]-CB--CG-[CD2] |==|  0.75070
USER: genes 14 Torsion [N]-CA--C-[O] |==|  0.95016
USER: genes 15 Torsion [C]-N--CA-[CB] |==|  0.53355
USER: genes 16 Torsion [N]-CA--C-[N] |==|  0.84415
USER: genes 17 Torsion [N]-CA--C-[O] |==|  0.52318
USER: genes 18 Torsion [N]-CA--CB-[CG] |==|  0.72081
USER: genes 19 Torsion [CA]-CB--CG-[CD] |==|  0.76597
USER: genes 20 Torsion [CB]-CG--CD-[NE] |==|  0.41750
USER: genes 21 Torsion [CG]-CD--NE-[HE] |==|  0.02198
ROOT
ATOM      1  C   LEU C   7       0.052 -33.514  -8.917  1.00 32.10 LIG 0.24  C 
ATOM      2 O    LEU C   7      -0.855 -32.955  -9.568  1.00 36.06 LIG-0.27  OA
ATOM      3  N   PRO C   8      -0.163 -34.104  -7.716  1.00 34.15 LIG-0.34  N 
ATOM      4  CA  PRO C   8      -1.528 -33.994  -7.242  1.00 36.52 LIG 0.18  C 
ATOM      5  CB  PRO C   8      -1.522 -34.739  -5.885  1.00 33.63 LIG 0.04  C 
ATOM      6  CG  PRO C   8      -0.429 -35.741  -6.021  1.00 36.13 LIG 0.02  C 
ATOM      7  CD  PRO C   8       0.627 -35.062  -6.899  1.00 34.25 LIG 0.13  C 
ENDROOT
BRANCH 1 8
ATOM      8  CA  LEU C   7       1.454 -33.637  -9.544  1.00 27.99 LIG 0.18  C 
BRANCH 8 9
ATOM      9  N   LEU C   7       1.482 -34.082 -10.952  1.00 26.55 LIG-0.35  N 
ATOM     10 H    LEU C   7       1.318 -33.486 -11.548  1.00 26.55 LIG 0.16  HD
ATOM     11  C   TYR C   6       1.754 -35.337 -11.172  1.00 27.48 LIG 0.24  C 
ATOM     12 O    TYR C   6       2.035 -36.106 -10.208  1.00 27.70 LIG-0.27  OA
BRANCH 11 13
ATOM     13  CA  TYR C   6       1.634 -35.808 -12.595  1.00 25.37 LIG 0.18  C 
BRANCH 13 14
ATOM     14  CB  TYR C   6       0.785 -37.092 -12.655  1.00 25.99 LIG 0.07  C 
BRANCH 14 15
ATOM     15  CG  TYR C   6       1.027 -37.989 -13.864  1.00 32.28 LIG-0.06  A 
ATOM     16  CD1 TYR C   6       1.871 -39.099 -13.779  1.00 32.91 LIG 0.01  A 
ATOM     17  CE1 TYR C   6       2.091 -39.922 -14.867  1.00 37.22 LIG 0.04  A 
ATOM     18  CZ  TYR C   6       1.473 -39.629 -16.075  1.00 40.59 LIG 0.07  A 
ATOM     19  CE2 TYR C   6       0.639 -38.518 -16.200  1.00 40.82 LIG 0.04  A 
ATOM     20  CD2 TYR C   6       0.430 -37.698 -15.096  1.00 36.01 LIG 0.01  A 
BRANCH 18 21
ATOM     21 OH   TYR C   6       1.704 -40.468 -17.147  1.00 45.73 LIG-0.36  OA
ATOM     22 HH   TYR C   6       0.979 -40.622 -17.542  1.00 45.73 LIG 0.22  HD
ENDBRANCH 18 21
ENDBRANCH 14 15
ENDBRANCH 13 14
BRANCH 13 23
ATOM     23  N   TYR C   6       2.891 -36.035 -13.223  1.00 26.32 LIG-0.34  N 
ATOM     24 H    TYR C   6       3.212 -36.827 -13.127  1.00 26.32 LIG 0.16  HD
ATOM     25  C   SER C   5       3.467 -35.069 -13.886  1.00 29.69 LIG 0.26  C 
ATOM     26 O    SER C   5       2.986 -33.892 -13.905  1.00 27.24 LIG-0.27  OA
BRANCH 25 27
ATOM     27  CA  SER C   5       4.727 -35.505 -14.711  1.00 35.45 LIG 0.42  C 
ATOM     28  N   SER C   5       5.915 -35.603 -13.823  1.00 39.53 LIG 0.62  N 
BRANCH 27 29
ATOM     29  CB  SER C   5       4.528 -36.810 -15.478  1.00 42.03 LIG 0.21  C 
BRANCH 29 30
ATOM     30 OG   SER C   5       5.377 -37.845 -15.034  1.00 42.36 LIG-0.40  OA
ATOM     31 HG   SER C   5       5.193 -38.036 -14.236  1.00 42.36 LIG 0.21  HD
ENDBRANCH 29 30
ENDBRANCH 27 29
ENDBRANCH 25 27
ENDBRANCH 13 23
ENDBRANCH 11 13
ENDBRANCH 8 9
BRANCH 8 32
ATOM     32  CB  LEU C   7       2.243 -32.390  -9.389  1.00 26.58 LIG 0.04  C 
BRANCH 32 33
ATOM     33  CG  LEU C   7       3.175 -32.385 -10.615  1.00 24.49 LIG-0.02  C 
ATOM     34  CD2 LEU C   7       4.424 -33.110 -10.204  1.00 27.30 LIG 0.01  C 
ATOM     35  CD1 LEU C   7       3.541 -30.930 -10.866  1.00 29.65 LIG 0.01  C 
ENDBRANCH 32 33
ENDBRANCH 8 32
ENDBRANCH 1 8
BRANCH 4 36
ATOM     36  C   PRO C   8      -1.941 -32.516  -7.149  1.00 40.02 LIG 0.24  C 
ATOM     37 O    PRO C   8      -1.104 -31.622  -7.131  1.00 40.33 LIG-0.27  OA
ATOM     38  N   ARG C   9      -3.246 -32.300  -7.197  1.00 39.93 LIG-0.35  N 
ATOM     39 H    ARG C   9      -3.813 -32.939  -7.291  1.00 39.93 LIG 0.16  HD
BRANCH 38 40
ATOM     40  CA  ARG C   9      -3.880 -30.995  -7.101  1.00 44.47 LIG 0.18  C 
BRANCH 40 41
ATOM     41  C   ARG C   9      -3.209 -30.205  -5.938  1.00 44.78 LIG 0.24  C 
ATOM     42  N   PRO C  10      -3.195 -30.766  -4.703  1.00 46.18 LIG-0.34  N 
ATOM     43  CA  PRO C  10      -2.625 -30.091  -3.495  1.00 48.25 LIG 0.17  C 
ATOM     44  CD  PRO C  10      -3.854 -32.047  -4.365  1.00 48.73 LIG 0.13  C 
ATOM     45  CB  PRO C  10      -2.879 -31.095  -2.353  1.00 49.47 LIG 0.04  C 
ATOM     46  CG  PRO C  10      -3.929 -32.032  -2.859  1.00 52.76 LIG 0.02  C 
ATOM     47 O    ARG C   9      -2.759 -29.076  -6.155  1.00 45.76 LIG-0.27  OA
BRANCH 43 48
ATOM     48  C   PRO C  10      -1.121 -29.774  -3.528  1.00 47.63 LIG 0.22  C 
ATOM     49 O    PRO C  10      -0.548 -29.363  -2.522  1.00 46.26 LIG-0.29  OA
ENDBRANCH 43 48
ENDBRANCH 40 41
BRANCH 40 50
ATOM     50  CB  ARG C   9      -5.416 -31.205  -6.892  1.00 49.80 LIG 0.04  C 
BRANCH 50 51
ATOM     51  CG  ARG C   9      -6.269 -31.029  -8.166  1.00 51.68 LIG 0.02  C 
BRANCH 51 52
ATOM     52  CD  ARG C   9      -6.647 -29.541  -8.466  1.00 46.90 LIG 0.14  C 
BRANCH 52 53
ATOM     53  NE  ARG C   9      -6.792 -29.352  -9.906  1.00 50.11 LIG-0.23  N 
ATOM     54 HE   ARG C   9      -6.765 -30.062 -10.390  1.00 50.11 LIG 0.18  HD
ATOM     55  CZ  ARG C   9      -6.963 -28.204 -10.554  1.00 44.95 LIG 0.67  C 
ATOM     56  NH1 ARG C   9      -7.074 -28.238 -11.855  1.00 55.49 LIG-0.23  N 
ATOM     57  NH2 ARG C   9      -7.030 -27.055  -9.940  1.00 40.08 LIG-0.23  N 
ATOM     58 1HH1 ARG C   9      -7.037 -28.991 -12.270  1.00 55.49 LIG 0.17  HD
ATOM     59 2HH1 ARG C   9      -7.185 -27.509 -12.296  1.00 55.49 LIG 0.17  HD
ATOM     60 1HH2 ARG C   9      -6.963 -27.021  -9.084  1.00 40.08 LIG 0.17  HD
ATOM     61 2HH2 ARG C   9      -7.141 -26.332 -10.392  1.00 40.08 LIG 0.17  HD
ENDBRANCH 52 53
ENDBRANCH 51 52
ENDBRANCH 50 51
ENDBRANCH 40 50
ENDBRANCH 38 40
ENDBRANCH 4 36
TORSDOF 20
ENDMDL
MODEL 34
USER: ADFR SOLUTION from run 140
USER: SCORE 19.064657 LL:  -2.898 LR: -17.218 RR:   0.000 FEB: -11.252
USER: RMSD 10.293340
USER: SEED 139
USER: STATUS searching
USER: GENES 22
USER: genes 0 Translation |==|  0.64192 0.47177 0.53125
USER: genes 1 Rotation |==|  0.93198 0.29839 0.65080 0.50227
USER: genes 2 Torsion [N]-C--CA-[N] |==|  0.41426
USER: genes 3 Torsion [C]-CA--N-[C] |==|  0.82535
USER: genes 4 Torsion [N]-C--CA-[N] |==|  0.92092
USER: genes 5 Torsion [C]-CA--CB-[CG] |==|  0.11762
USER: genes 6 Torsion [CA]-CB--CG-[CD1] |==|  0.27149
USER: genes 7 Torsion [CE1]-CZ--OH-[HH] |==|  0.45148
USER: genes 8 Torsion [C]-CA--N-[C] |==|  0.62817
USER: genes 9 Torsion [N]-C--CA-[N] |==|  0.32308
USER: genes 10 Torsion [C]-CA--CB-[OG] |==|  0.52496
USER: genes 11 Torsion [CA]-CB--OG-[HG] |==|  0.34720
USER: genes 12 Torsion [C]-CA--CB-[CG] |==|  0.42976
USER: genes 13 Torsion [CA]-CB--CG-[CD2] |==|  0.74258
USER: genes 14 Torsion [N]-CA--C-[O] |==|  0.96996
USER: genes 15 Torsion [C]-N--CA-[CB] |==|  0.52874
USER: genes 16 Torsion [N]-CA--C-[N] |==|  0.35023
USER: genes 17 Torsion [N]-CA--C-[O] |==|  0.25159
USER: genes 18 Torsion [N]-CA--CB-[CG] |==|  0.79863
USER: genes 19 Torsion [CA]-CB--CG-[CD] |==|  0.75152
USER: genes 20 Torsion [CB]-CG--CD-[NE] |==|  0.37038
USER: genes 21 Torsion [CG]-CD--NE-[HE] |==|  0.13192
ROOT
ATOM      1  C   LEU C   7      -0.232 -33.246  -9.237  1.00 32.10 LIG 0.24  C 
ATOM      2 O    LEU C   7      -1.380 -32.776  -9.375  1.00 36.06 LIG-0.27  OA
ATOM      3  N   PRO C   8       0.136 -33.980  -8.159  1.00 34.15 LIG-0.34  N 
ATOM      4  CA  PRO C   8      -0.910 -34.134  -7.167  1.00 36.52 LIG 0.18  C 
ATOM      5  CB  PRO C   8      -0.262 -35.001  -6.061  1.00 33.63 LIG 0.04  C 
ATOM      6  CG  PRO C   8       0.772 -35.798  -6.777  1.00 36.13 LIG 0.02  C 
ATOM      7  CD  PRO C   8       1.289 -34.877  -7.886  1.00 34.25 LIG 0.13  C 
ENDROOT
BRANCH 1 8
ATOM      8  CA  LEU C   7       0.785 -33.082 -10.383  1.00 27.99 LIG 0.18  C 
BRANCH 8 9
ATOM      9  N   LEU C   7       0.202 -32.941 -11.733  1.00 26.55 LIG-0.35  N 
ATOM     10 H    LEU C   7       0.352 -32.200 -12.142  1.00 26.55 LIG 0.16  HD
ATOM     11  C   TYR C   6      -0.488 -33.947 -12.189  1.00 27.48 LIG 0.24  C 
ATOM     12 O    TYR C   6      -0.589 -35.010 -11.510  1.00 27.70 LIG-0.27  OA
BRANCH 11 13
ATOM     13  CA  TYR C   6      -1.197 -33.733 -13.498  1.00 25.37 LIG 0.18  C 
BRANCH 13 14
ATOM     14  CB  TYR C   6      -0.323 -34.246 -14.658  1.00 25.99 LIG 0.07  C 
BRANCH 14 15
ATOM     15  CG  TYR C   6       0.379 -35.579 -14.418  1.00 32.28 LIG-0.06  A 
ATOM     16  CD1 TYR C   6      -0.160 -36.773 -14.902  1.00 32.91 LIG 0.01  A 
ATOM     17  CE1 TYR C   6       0.472 -37.985 -14.696  1.00 37.22 LIG 0.04  A 
ATOM     18  CZ  TYR C   6       1.659 -38.017 -13.977  1.00 40.59 LIG 0.07  A 
ATOM     19  CE2 TYR C   6       2.215 -36.845 -13.462  1.00 40.82 LIG 0.04  A 
ATOM     20  CD2 TYR C   6       1.565 -35.635 -13.677  1.00 36.01 LIG 0.01  A 
BRANCH 18 21
ATOM     21 OH   TYR C   6       2.275 -39.238 -13.788  1.00 45.73 LIG-0.36  OA
ATOM     22 HH   TYR C   6       3.074 -39.116 -13.562  1.00 45.73 LIG 0.22  HD
ENDBRANCH 18 21
ENDBRANCH 14 15
ENDBRANCH 13 14
BRANCH 13 23
ATOM     23  N   TYR C   6      -1.555 -32.376 -13.733  1.00 26.32 LIG-0.34  N 
ATOM     24 H    TYR C   6      -0.936 -31.800 -13.573  1.00 26.32 LIG 0.16  HD
ATOM     25  C   SER C   5      -2.755 -32.088 -14.160  1.00 29.69 LIG 0.26  C 
ATOM     26 O    SER C   5      -3.653 -32.979 -14.280  1.00 27.24 LIG-0.27  OA
BRANCH 25 27
ATOM     27  CA  SER C   5      -2.953 -30.593 -14.589  1.00 35.45 LIG 0.42  C 
ATOM     28  N   SER C   5      -3.260 -30.510 -16.040  1.00 39.53 LIG 0.62  N 
BRANCH 27 29
ATOM     29  CB  SER C   5      -4.022 -29.866 -13.777  1.00 42.03 LIG 0.21  C 
BRANCH 29 30
ATOM     30 OG   SER C   5      -4.336 -28.592 -14.295  1.00 42.36 LIG-0.40  OA
ATOM     31 HG   SER C   5      -5.163 -28.543 -14.436  1.00 42.36 LIG 0.21  HD
ENDBRANCH 29 30
ENDBRANCH 27 29
ENDBRANCH 25 27
ENDBRANCH 13 23
ENDBRANCH 11 13
ENDBRANCH 8 9
BRANCH 8 32
ATOM     32  CB  LEU C   7       1.741 -31.977 -10.123  1.00 26.58 LIG 0.04  C 
BRANCH 32 33
ATOM     33  CG  LEU C   7       2.985 -32.362 -10.947  1.00 24.49 LIG-0.02  C 
ATOM     34  CD2 LEU C   7       3.885 -33.132 -10.025  1.00 27.30 LIG 0.01  C 
ATOM     35  CD1 LEU C   7       3.683 -31.057 -11.299  1.00 29.65 LIG 0.01  C 
ENDBRANCH 32 33
ENDBRANCH 8 32
ENDBRANCH 1 8
BRANCH 4 36
ATOM     36  C   PRO C   8      -1.396 -32.758  -6.687  1.00 40.02 LIG 0.24  C 
ATOM     37 O    PRO C   8      -0.791 -31.733  -6.977  1.00 40.33 LIG-0.27  OA
ATOM     38  N   ARG C   9      -2.552 -32.770  -6.043  1.00 39.93 LIG-0.35  N 
ATOM     39 H    ARG C   9      -3.001 -33.494  -5.921  1.00 39.93 LIG 0.16  HD
BRANCH 38 40
ATOM     40  CA  ARG C   9      -3.203 -31.602  -5.472  1.00 44.47 LIG 0.18  C 
BRANCH 40 41
ATOM     41  C   ARG C   9      -2.141 -30.786  -4.677  1.00 44.78 LIG 0.24  C 
ATOM     42  N   PRO C  10      -1.986 -29.471  -4.973  1.00 46.18 LIG-0.34  N 
ATOM     43  CA  PRO C  10      -0.970 -28.589  -4.315  1.00 48.25 LIG 0.17  C 
ATOM     44  CD  PRO C  10      -2.701 -28.775  -6.065  1.00 48.73 LIG 0.13  C 
ATOM     45  CB  PRO C  10      -1.158 -27.225  -5.007  1.00 49.47 LIG 0.04  C 
ATOM     46  CG  PRO C  10      -1.913 -27.507  -6.268  1.00 52.76 LIG 0.02  C 
ATOM     47 O    ARG C   9      -1.436 -31.362  -3.842  1.00 45.76 LIG-0.27  OA
BRANCH 43 48
ATOM     48  C   PRO C  10      -1.116 -28.382  -2.799  1.00 47.63 LIG 0.22  C 
ATOM     49 O    PRO C  10      -0.548 -29.133  -2.009  1.00 46.26 LIG-0.29  OA
ENDBRANCH 43 48
ENDBRANCH 40 41
BRANCH 40 50
ATOM     50  CB  ARG C   9      -4.395 -32.085  -4.582  1.00 49.80 LIG 0.04  C 
BRANCH 50 51
ATOM     51  CG  ARG C   9      -5.610 -32.621  -5.369  1.00 51.68 LIG 0.02  C 
BRANCH 51 52
ATOM     52  CD  ARG C   9      -6.656 -31.518  -5.735  1.00 46.90 LIG 0.14  C 
BRANCH 52 53
ATOM     53  NE  ARG C   9      -7.038 -31.648  -7.137  1.00 50.11 LIG-0.23  N 
ATOM     54 HE   ARG C   9      -7.238 -32.439  -7.407  1.00 50.11 LIG 0.18  HD
ATOM     55  CZ  ARG C   9      -7.110 -30.679  -8.045  1.00 44.95 LIG 0.67  C 
ATOM     56  NH1 ARG C   9      -7.475 -30.995  -9.259  1.00 55.49 LIG-0.23  N 
ATOM     57  NH2 ARG C   9      -6.841 -29.435  -7.766  1.00 40.08 LIG-0.23  N 
ATOM     58 1HH1 ARG C   9      -7.660 -31.812  -9.453  1.00 55.49 LIG 0.17  HD
ATOM     59 2HH1 ARG C   9      -7.529 -30.386  -9.864  1.00 55.49 LIG 0.17  HD
ATOM     60 1HH2 ARG C   9      -6.605 -29.214  -6.969  1.00 40.08 LIG 0.17  HD
ATOM     61 2HH2 ARG C   9      -6.898 -28.834  -8.379  1.00 40.08 LIG 0.17  HD
ENDBRANCH 52 53
ENDBRANCH 51 52
ENDBRANCH 50 51
ENDBRANCH 40 50
ENDBRANCH 38 40
ENDBRANCH 4 36
TORSDOF 20
ENDMDL
MODEL 35
USER: ADFR SOLUTION from run 173
USER: SCORE 18.260058 LL:  -2.828 LR: -17.192 RR:   0.000 FEB: -11.226
USER: RMSD 9.763088
USER: SEED 172
USER: STATUS no improvement in best in 18 clusters for 5 generations
USER: GENES 22
USER: genes 0 Translation |==|  0.62357 0.48513 0.53785
USER: genes 1 Rotation |==|  0.91314 0.30267 0.69935 0.52515
USER: genes 2 Torsion [N]-C--CA-[N] |==|  0.53698
USER: genes 3 Torsion [C]-CA--N-[C] |==|  0.78333
USER: genes 4 Torsion [N]-C--CA-[N] |==|  0.18483
USER: genes 5 Torsion [C]-CA--CB-[CG] |==|  0.41788
USER: genes 6 Torsion [CA]-CB--CG-[CD1] |==|  0.32947
USER: genes 7 Torsion [CE1]-CZ--OH-[HH] |==|  0.45028
USER: genes 8 Torsion [C]-CA--N-[C] |==|  0.75280
USER: genes 9 Torsion [N]-C--CA-[N] |==|  0.84976
USER: genes 10 Torsion [C]-CA--CB-[OG] |==|  0.86556
USER: genes 11 Torsion [CA]-CB--OG-[HG] |==|  0.14231
USER: genes 12 Torsion [C]-CA--CB-[CG] |==|  0.51365
USER: genes 13 Torsion [CA]-CB--CG-[CD2] |==|  0.61926
USER: genes 14 Torsion [N]-CA--C-[O] |==|  0.88201
USER: genes 15 Torsion [C]-N--CA-[CB] |==|  0.55206
USER: genes 16 Torsion [N]-CA--C-[N] |==|  0.86328
USER: genes 17 Torsion [N]-CA--C-[O] |==|  0.64488
USER: genes 18 Torsion [N]-CA--CB-[CG] |==|  0.73945
USER: genes 19 Torsion [CA]-CB--CG-[CD] |==|  0.76750
USER: genes 20 Torsion [CB]-CG--CD-[NE] |==|  0.41693
USER: genes 21 Torsion [CG]-CD--NE-[HE] |==|  0.04705
ROOT
ATOM      1  C   LEU C   7      -0.617 -33.006  -9.073  1.00 32.10 LIG 0.24  C 
ATOM      2 O    LEU C   7      -1.704 -32.531  -9.462  1.00 36.06 LIG-0.27  OA
ATOM      3  N   PRO C   8      -0.454 -33.562  -7.849  1.00 34.15 LIG-0.34  N 
ATOM      4  CA  PRO C   8      -1.644 -33.520  -7.021  1.00 36.52 LIG 0.18  C 
ATOM      5  CB  PRO C   8      -1.216 -34.211  -5.703  1.00 33.63 LIG 0.04  C 
ATOM      6  CG  PRO C   8      -0.132 -35.145  -6.114  1.00 36.13 LIG 0.02  C 
ATOM      7  CD  PRO C   8       0.594 -34.435  -7.261  1.00 34.25 LIG 0.13  C 
ENDROOT
BRANCH 1 8
ATOM      8  CA  LEU C   7       0.567 -33.064 -10.058  1.00 27.99 LIG 0.18  C 
BRANCH 8 9
ATOM      9  N   LEU C   7       0.450 -32.189 -11.243  1.00 26.55 LIG-0.35  N 
ATOM     10 H    LEU C   7       0.901 -31.458 -11.228  1.00 26.55 LIG 0.16  HD
ATOM     11  C   TYR C   6      -0.325 -32.598 -12.207  1.00 27.48 LIG 0.24  C 
ATOM     12 O    TYR C   6      -0.893 -33.726 -12.133  1.00 27.70 LIG-0.27  OA
BRANCH 11 13
ATOM     13  CA  TYR C   6      -0.550 -31.633 -13.339  1.00 25.37 LIG 0.18  C 
BRANCH 13 14
ATOM     14  CB  TYR C   6      -1.664 -32.159 -14.264  1.00 25.99 LIG 0.07  C 
BRANCH 14 15
ATOM     15  CG  TYR C   6      -2.482 -31.094 -14.986  1.00 32.28 LIG-0.06  A 
ATOM     16  CD1 TYR C   6      -2.501 -31.025 -16.381  1.00 32.91 LIG 0.01  A 
ATOM     17  CE1 TYR C   6      -3.245 -30.068 -17.045  1.00 37.22 LIG 0.04  A 
ATOM     18  CZ  TYR C   6      -3.974 -29.144 -16.309  1.00 40.59 LIG 0.07  A 
ATOM     19  CE2 TYR C   6      -3.962 -29.172 -14.914  1.00 40.82 LIG 0.04  A 
ATOM     20  CD2 TYR C   6      -3.206 -30.141 -14.262  1.00 36.01 LIG 0.01  A 
BRANCH 18 21
ATOM     21 OH   TYR C   6      -4.713 -28.201 -16.994  1.00 45.73 LIG-0.36  OA
ATOM     22 HH   TYR C   6      -5.287 -27.867 -16.479  1.00 45.73 LIG 0.22  HD
ENDBRANCH 18 21
ENDBRANCH 14 15
ENDBRANCH 13 14
BRANCH 13 23
ATOM     23  N   TYR C   6       0.623 -31.372 -14.102  1.00 26.32 LIG-0.34  N 
ATOM     24 H    TYR C   6       0.744 -31.890 -14.778  1.00 26.32 LIG 0.16  HD
ATOM     25  C   SER C   5       1.421 -30.400 -13.749  1.00 29.69 LIG 0.26  C 
ATOM     26 O    SER C   5       1.236 -29.738 -12.680  1.00 27.24 LIG-0.27  OA
BRANCH 25 27
ATOM     27  CA  SER C   5       2.549 -30.075 -14.788  1.00 35.45 LIG 0.42  C 
ATOM     28  N   SER C   5       3.321 -31.303 -15.112  1.00 39.53 LIG 0.62  N 
BRANCH 27 29
ATOM     29  CB  SER C   5       2.027 -29.422 -16.066  1.00 42.03 LIG 0.21  C 
BRANCH 29 30
ATOM     30 OG   SER C   5       0.920 -30.100 -16.616  1.00 42.36 LIG-0.40  OA
ATOM     31 HG   SER C   5       0.337 -30.215 -16.022  1.00 42.36 LIG 0.21  HD
ENDBRANCH 29 30
ENDBRANCH 27 29
ENDBRANCH 25 27
ENDBRANCH 13 23
ENDBRANCH 11 13
ENDBRANCH 8 9
BRANCH 8 32
ATOM     32  CB  LEU C   7       1.866 -32.829  -9.379  1.00 26.58 LIG 0.04  C 
BRANCH 32 33
ATOM     33  CG  LEU C   7       2.887 -32.800 -10.532  1.00 24.49 LIG-0.02  C 
ATOM     34  CD2 LEU C   7       4.074 -33.593 -10.070  1.00 27.30 LIG 0.01  C 
ATOM     35  CD1 LEU C   7       3.322 -31.350 -10.679  1.00 29.65 LIG 0.01  C 
ENDBRANCH 32 33
ENDBRANCH 8 32
ENDBRANCH 1 8
BRANCH 4 36
ATOM     36  C   PRO C   8      -2.120 -32.069  -6.847  1.00 40.02 LIG 0.24  C 
ATOM     37 O    PRO C   8      -1.327 -31.160  -6.636  1.00 40.33 LIG-0.27  OA
ATOM     38  N   ARG C   9      -3.415 -31.881  -7.047  1.00 39.93 LIG-0.35  N 
ATOM     39 H    ARG C   9      -3.941 -32.523  -7.274  1.00 39.93 LIG 0.16  HD
BRANCH 38 40
ATOM     40  CA  ARG C   9      -4.104 -30.608  -6.916  1.00 44.47 LIG 0.18  C 
BRANCH 40 41
ATOM     41  C   ARG C   9      -3.499 -29.842  -5.702  1.00 44.78 LIG 0.24  C 
ATOM     42  N   PRO C  10      -3.365 -30.504  -4.525  1.00 46.18 LIG-0.34  N 
ATOM     43  CA  PRO C  10      -2.842 -29.869  -3.275  1.00 48.25 LIG 0.17  C 
ATOM     44  CD  PRO C  10      -3.839 -31.886  -4.291  1.00 48.73 LIG 0.13  C 
ATOM     45  CB  PRO C  10      -2.920 -30.995  -2.225  1.00 49.47 LIG 0.04  C 
ATOM     46  CG  PRO C  10      -3.858 -32.014  -2.789  1.00 52.76 LIG 0.02  C 
ATOM     47 O    ARG C   9      -3.207 -28.649  -5.825  1.00 45.76 LIG-0.27  OA
BRANCH 43 48
ATOM     48  C   PRO C  10      -1.395 -29.353  -3.317  1.00 47.63 LIG 0.22  C 
ATOM     49 O    PRO C  10      -0.587 -29.689  -2.454  1.00 46.26 LIG-0.29  OA
ENDBRANCH 43 48
ENDBRANCH 40 41
BRANCH 40 50
ATOM     50  CB  ARG C   9      -5.636 -30.888  -6.760  1.00 49.80 LIG 0.04  C 
BRANCH 50 51
ATOM     51  CG  ARG C   9      -6.434 -30.851  -8.081  1.00 51.68 LIG 0.02  C 
BRANCH 51 52
ATOM     52  CD  ARG C   9      -6.862 -29.410  -8.514  1.00 46.90 LIG 0.14  C 
BRANCH 52 53
ATOM     53  NE  ARG C   9      -6.942 -29.338  -9.969  1.00 50.11 LIG-0.23  N 
ATOM     54 HE   ARG C   9      -6.979 -30.088 -10.388  1.00 50.11 LIG 0.18  HD
ATOM     55  CZ  ARG C   9      -6.964 -28.242 -10.721  1.00 44.95 LIG 0.67  C 
ATOM     56  NH1 ARG C   9      -7.040 -28.382 -12.018  1.00 55.49 LIG-0.23  N 
ATOM     57  NH2 ARG C   9      -6.922 -27.042 -10.213  1.00 40.08 LIG-0.23  N 
ATOM     58 1HH1 ARG C   9      -7.073 -29.169 -12.364  1.00 55.49 LIG 0.17  HD
ATOM     59 2HH1 ARG C   9      -7.055 -27.688 -12.525  1.00 55.49 LIG 0.17  HD
ATOM     60 1HH2 ARG C   9      -6.878 -26.938  -9.361  1.00 40.08 LIG 0.17  HD
ATOM     61 2HH2 ARG C   9      -6.939 -26.355 -10.730  1.00 40.08 LIG 0.17  HD
ENDBRANCH 52 53
ENDBRANCH 51 52
ENDBRANCH 50 51
ENDBRANCH 40 50
ENDBRANCH 38 40
ENDBRANCH 4 36
TORSDOF 20
ENDMDL
MODEL 36
USER: ADFR SOLUTION from run 167
USER: SCORE 17.747802 LL:  -2.410 LR: -17.181 RR:   0.000 FEB: -11.215
USER: RMSD 5.152478
USER: SEED 166
USER: STATUS no improvement in best in 4 clusters for 5 generations
USER: GENES 22
USER: genes 0 Translation |==|  0.66881 0.40929 0.59795
USER: genes 1 Rotation |==|  0.35470 0.42741 0.97289 0.50022
USER: genes 2 Torsion [N]-C--CA-[N] |==|  0.97812
USER: genes 3 Torsion [C]-CA--N-[C] |==|  0.65053
USER: genes 4 Torsion [N]-C--CA-[N] |==|  0.60176
USER: genes 5 Torsion [C]-CA--CB-[CG] |==|  0.46982
USER: genes 6 Torsion [CA]-CB--CG-[CD1] |==|  0.29960
USER: genes 7 Torsion [CE1]-CZ--OH-[HH] |==|  0.59080
USER: genes 8 Torsion [C]-CA--N-[C] |==|  0.14325
USER: genes 9 Torsion [N]-C--CA-[N] |==|  0.06857
USER: genes 10 Torsion [C]-CA--CB-[OG] |==|  0.36848
USER: genes 11 Torsion [CA]-CB--OG-[HG] |==|  0.57225
USER: genes 12 Torsion [C]-CA--CB-[CG] |==|  0.86868
USER: genes 13 Torsion [CA]-CB--CG-[CD2] |==|  0.65888
USER: genes 14 Torsion [N]-CA--C-[O] |==|  0.20105
USER: genes 15 Torsion [C]-N--CA-[CB] |==|  0.18269
USER: genes 16 Torsion [N]-CA--C-[N] |==|  0.54282
USER: genes 17 Torsion [N]-CA--C-[O] |==|  0.23082
USER: genes 18 Torsion [N]-CA--CB-[CG] |==|  0.05874
USER: genes 19 Torsion [CA]-CB--CG-[CD] |==|  0.63259
USER: genes 20 Torsion [CB]-CG--CD-[NE] |==|  0.15903
USER: genes 21 Torsion [CG]-CD--NE-[HE] |==|  0.22247
ROOT
ATOM      1  C   LEU C   7       0.333 -34.371  -7.586  1.00 32.10 LIG 0.24  C 
ATOM      2 O    LEU C   7       1.508 -34.785  -7.671  1.00 36.06 LIG-0.27  OA
ATOM      3  N   PRO C   8      -0.433 -34.109  -8.672  1.00 34.15 LIG-0.34  N 
ATOM      4  CA  PRO C   8       0.246 -34.317  -9.936  1.00 36.52 LIG 0.18  C 
ATOM      5  CB  PRO C   8      -0.819 -33.969 -11.003  1.00 33.63 LIG 0.04  C 
ATOM      6  CG  PRO C   8      -2.118 -34.256 -10.334  1.00 36.13 LIG 0.02  C 
ATOM      7  CD  PRO C   8      -1.893 -33.906  -8.860  1.00 34.25 LIG 0.13  C 
ENDROOT
BRANCH 1 8
ATOM      8  CA  LEU C   7      -0.318 -34.251  -6.194  1.00 27.99 LIG 0.18  C 
BRANCH 8 9
ATOM      9  N   LEU C   7      -1.681 -33.681  -6.178  1.00 26.55 LIG-0.35  N 
ATOM     10 H    LEU C   7      -2.263 -34.062  -6.683  1.00 26.55 LIG 0.16  HD
ATOM     11  C   TYR C   6      -1.886 -32.656  -5.402  1.00 27.48 LIG 0.24  C 
ATOM     12 O    TYR C   6      -0.957 -32.222  -4.660  1.00 27.70 LIG-0.27  OA
BRANCH 11 13
ATOM     13  CA  TYR C   6      -3.234 -31.998  -5.506  1.00 25.37 LIG 0.18  C 
BRANCH 13 14
ATOM     14  CB  TYR C   6      -3.894 -32.363  -6.849  1.00 25.99 LIG 0.07  C 
BRANCH 14 15
ATOM     15  CG  TYR C   6      -5.364 -31.982  -6.988  1.00 32.28 LIG-0.06  A 
ATOM     16  CD1 TYR C   6      -5.759 -30.930  -7.817  1.00 32.91 LIG 0.01  A 
ATOM     17  CE1 TYR C   6      -7.090 -30.582  -7.955  1.00 37.22 LIG 0.04  A 
ATOM     18  CZ  TYR C   6      -8.052 -31.282  -7.241  1.00 40.59 LIG 0.07  A 
ATOM     19  CE2 TYR C   6      -7.691 -32.326  -6.389  1.00 40.82 LIG 0.04  A 
ATOM     20  CD2 TYR C   6      -6.347 -32.662  -6.260  1.00 36.01 LIG 0.01  A 
BRANCH 18 21
ATOM     21 OH   TYR C   6      -9.375 -30.920  -7.399  1.00 45.73 LIG-0.36  OA
ATOM     22 HH   TYR C   6      -9.787 -31.044  -6.678  1.00 45.73 LIG 0.22  HD
ENDBRANCH 18 21
ENDBRANCH 14 15
ENDBRANCH 13 14
BRANCH 13 23
ATOM     23  N   TYR C   6      -3.185 -30.582  -5.367  1.00 26.32 LIG-0.34  N 
ATOM     24 H    TYR C   6      -3.726 -30.251  -4.786  1.00 26.32 LIG 0.16  HD
ATOM     25  C   SER C   5      -2.354 -29.889  -6.098  1.00 29.69 LIG 0.26  C 
ATOM     26 O    SER C   5      -1.654 -30.431  -7.010  1.00 27.24 LIG-0.27  OA
BRANCH 25 27
ATOM     27  CA  SER C   5      -2.238 -28.377  -5.697  1.00 35.45 LIG 0.42  C 
ATOM     28  N   SER C   5      -2.610 -28.193  -4.270  1.00 39.53 LIG 0.62  N 
BRANCH 27 29
ATOM     29  CB  SER C   5      -0.859 -27.782  -5.968  1.00 42.03 LIG 0.21  C 
BRANCH 29 30
ATOM     30 OG   SER C   5      -0.916 -26.538  -6.629  1.00 42.36 LIG-0.40  OA
ATOM     31 HG   SER C   5      -0.207 -26.417  -7.063  1.00 42.36 LIG 0.21  HD
ENDBRANCH 29 30
ENDBRANCH 27 29
ENDBRANCH 25 27
ENDBRANCH 13 23
ENDBRANCH 11 13
ENDBRANCH 8 9
BRANCH 8 32
ATOM     32  CB  LEU C   7      -0.295 -35.539  -5.458  1.00 26.58 LIG 0.04  C 
BRANCH 32 33
ATOM     33  CG  LEU C   7      -0.796 -36.566  -6.492  1.00 24.49 LIG-0.02  C 
ATOM     34  CD2 LEU C   7      -1.998 -37.230  -5.886  1.00 27.30 LIG 0.01  C 
ATOM     35  CD1 LEU C   7       0.301 -37.611  -6.621  1.00 29.65 LIG 0.01  C 
ENDBRANCH 32 33
ENDBRANCH 8 32
ENDBRANCH 1 8
BRANCH 4 36
ATOM     36  C   PRO C   8       1.516 -33.453 -10.006  1.00 40.02 LIG 0.24  C 
ATOM     37 O    PRO C   8       2.507 -33.725  -9.339  1.00 40.33 LIG-0.27  OA
ATOM     38  N   ARG C   9       1.479 -32.483 -10.904  1.00 39.93 LIG-0.35  N 
ATOM     39 H    ARG C   9       0.801 -32.361 -11.419  1.00 39.93 LIG 0.16  HD
BRANCH 38 40
ATOM     40  CA  ARG C   9       2.543 -31.521 -11.139  1.00 44.47 LIG 0.18  C 
BRANCH 40 41
ATOM     41  C   ARG C   9       2.011 -30.425 -12.110  1.00 44.78 LIG 0.24  C 
ATOM     42  N   PRO C  10       2.911 -29.610 -12.716  1.00 46.18 LIG-0.34  N 
ATOM     43  CA  PRO C  10       2.528 -28.490 -13.632  1.00 48.25 LIG 0.17  C 
ATOM     44  CD  PRO C  10       4.366 -29.636 -12.449  1.00 48.73 LIG 0.13  C 
ATOM     45  CB  PRO C  10       3.875 -27.850 -14.022  1.00 49.47 LIG 0.04  C 
ATOM     46  CG  PRO C  10       4.862 -28.324 -13.004  1.00 52.76 LIG 0.02  C 
ATOM     47 O    ARG C   9       0.793 -30.291 -12.262  1.00 45.76 LIG-0.27  OA
BRANCH 43 48
ATOM     48  C   PRO C  10       1.790 -28.879 -14.924  1.00 47.63 LIG 0.22  C 
ATOM     49 O    PRO C  10       0.575 -29.067 -14.916  1.00 46.26 LIG-0.29  OA
ENDBRANCH 43 48
ENDBRANCH 40 41
BRANCH 40 50
ATOM     50  CB  ARG C   9       3.787 -32.285 -11.701  1.00 49.80 LIG 0.04  C 
BRANCH 50 51
ATOM     51  CG  ARG C   9       3.467 -33.654 -12.338  1.00 51.68 LIG 0.02  C 
BRANCH 51 52
ATOM     52  CD  ARG C   9       4.408 -34.805 -11.854  1.00 46.90 LIG 0.14  C 
BRANCH 52 53
ATOM     53  NE  ARG C   9       4.339 -34.919 -10.401  1.00 50.11 LIG-0.23  N 
ATOM     54 HE   ARG C   9       3.662 -35.344 -10.082  1.00 50.11 LIG 0.18  HD
ATOM     55  CZ  ARG C   9       5.205 -34.440  -9.513  1.00 44.95 LIG 0.67  C 
ATOM     56  NH1 ARG C   9       4.969 -34.646  -8.245  1.00 55.49 LIG-0.23  N 
ATOM     57  NH2 ARG C   9       6.276 -33.784  -9.862  1.00 40.08 LIG-0.23  N 
ATOM     58 1HH1 ARG C   9       4.267 -35.082  -8.004  1.00 55.49 LIG 0.17  HD
ATOM     59 2HH1 ARG C   9       5.514 -34.345  -7.652  1.00 55.49 LIG 0.17  HD
ATOM     60 1HH2 ARG C   9       6.444 -33.648 -10.694  1.00 40.08 LIG 0.17  HD
ATOM     61 2HH2 ARG C   9       6.814 -33.488  -9.260  1.00 40.08 LIG 0.17  HD
ENDBRANCH 52 53
ENDBRANCH 51 52
ENDBRANCH 50 51
ENDBRANCH 40 50
ENDBRANCH 38 40
ENDBRANCH 4 36
TORSDOF 20
ENDMDL
MODEL 37
USER: ADFR SOLUTION from run 33
USER: SCORE 19.060931 LL:  -3.385 LR: -17.162 RR:   0.000 FEB: -11.196
USER: RMSD 9.079598
USER: SEED 32
USER: STATUS no improvement in best in 10 clusters for 5 generations
USER: GENES 22
USER: genes 0 Translation |==|  0.62173 0.44823 0.52122
USER: genes 1 Rotation |==|  0.94531 0.34765 0.66112 0.55026
USER: genes 2 Torsion [N]-C--CA-[N] |==|  0.49597
USER: genes 3 Torsion [C]-CA--N-[C] |==|  0.18445
USER: genes 4 Torsion [N]-C--CA-[N] |==|  0.45892
USER: genes 5 Torsion [C]-CA--CB-[CG] |==|  0.87666
USER: genes 6 Torsion [CA]-CB--CG-[CD1] |==|  0.76402
USER: genes 7 Torsion [CE1]-CZ--OH-[HH] |==|  0.46618
USER: genes 8 Torsion [C]-CA--N-[C] |==|  0.59554
USER: genes 9 Torsion [N]-C--CA-[N] |==|  0.72074
USER: genes 10 Torsion [C]-CA--CB-[OG] |==|  0.53926
USER: genes 11 Torsion [CA]-CB--OG-[HG] |==|  0.43575
USER: genes 12 Torsion [C]-CA--CB-[CG] |==|  0.36763
USER: genes 13 Torsion [CA]-CB--CG-[CD2] |==|  0.94565
USER: genes 14 Torsion [N]-CA--C-[O] |==|  0.95719
USER: genes 15 Torsion [C]-N--CA-[CB] |==|  0.88043
USER: genes 16 Torsion [N]-CA--C-[N] |==|  0.32938
USER: genes 17 Torsion [N]-CA--C-[O] |==|  0.50966
USER: genes 18 Torsion [N]-CA--CB-[CG] |==|  0.57601
USER: genes 19 Torsion [CA]-CB--CG-[CD] |==|  0.67294
USER: genes 20 Torsion [CB]-CG--CD-[NE] |==|  0.90646
USER: genes 21 Torsion [CG]-CD--NE-[HE] |==|  0.31598
ROOT
ATOM      1  C   LEU C   7      -0.656 -33.670  -9.485  1.00 32.10 LIG 0.24  C 
ATOM      2 O    LEU C   7      -1.863 -33.395  -9.644  1.00 36.06 LIG-0.27  OA
ATOM      3  N   PRO C   8      -0.144 -34.067  -8.295  1.00 34.15 LIG-0.34  N 
ATOM      4  CA  PRO C   8      -1.116 -34.106  -7.220  1.00 36.52 LIG 0.18  C 
ATOM      5  CB  PRO C   8      -0.307 -34.589  -5.992  1.00 33.63 LIG 0.04  C 
ATOM      6  CG  PRO C   8       0.797 -35.400  -6.575  1.00 36.13 LIG 0.02  C 
ATOM      7  CD  PRO C   8       1.133 -34.719  -7.905  1.00 34.25 LIG 0.13  C 
ENDROOT
BRANCH 1 8
ATOM      8  CA  LEU C   7       0.280 -33.663 -10.710  1.00 27.99 LIG 0.18  C 
BRANCH 8 9
ATOM      9  N   LEU C   7      -0.346 -33.252 -11.983  1.00 26.55 LIG-0.35  N 
ATOM     10 H    LEU C   7      -0.411 -33.855 -12.593  1.00 26.55 LIG 0.16  HD
ATOM     11  C   TYR C   6      -0.747 -32.016 -12.075  1.00 27.48 LIG 0.24  C 
ATOM     12 O    TYR C   6      -0.646 -31.239 -11.082  1.00 27.70 LIG-0.27  OA
BRANCH 11 13
ATOM     13  CA  TYR C   6      -1.246 -31.574 -13.423  1.00 25.37 LIG 0.18  C 
BRANCH 13 14
ATOM     14  CB  TYR C   6      -0.065 -31.449 -14.405  1.00 25.99 LIG 0.07  C 
BRANCH 14 15
ATOM     15  CG  TYR C   6       1.178 -30.755 -13.859  1.00 32.28 LIG-0.06  A 
ATOM     16  CD1 TYR C   6       1.293 -29.363 -13.884  1.00 32.91 LIG 0.01  A 
ATOM     17  CE1 TYR C   6       2.413 -28.725 -13.385  1.00 37.22 LIG 0.04  A 
ATOM     18  CZ  TYR C   6       3.452 -29.484 -12.865  1.00 40.59 LIG 0.07  A 
ATOM     19  CE2 TYR C   6       3.378 -30.877 -12.843  1.00 40.82 LIG 0.04  A 
ATOM     20  CD2 TYR C   6       2.245 -31.504 -13.351  1.00 36.01 LIG 0.01  A 
BRANCH 18 21
ATOM     21 OH   TYR C   6       4.558 -28.824 -12.368  1.00 45.73 LIG-0.36  OA
ATOM     22 HH   TYR C   6       5.036 -29.363 -11.937  1.00 45.73 LIG 0.22  HD
ENDBRANCH 18 21
ENDBRANCH 14 15
ENDBRANCH 13 14
BRANCH 13 23
ATOM     23  N   TYR C   6      -1.968 -30.348 -13.385  1.00 26.32 LIG-0.34  N 
ATOM     24 H    TYR C   6      -1.690 -29.776 -12.806  1.00 26.32 LIG 0.16  HD
ATOM     25  C   SER C   5      -2.974 -30.165 -14.198  1.00 29.69 LIG 0.26  C 
ATOM     26 O    SER C   5      -3.395 -31.091 -14.960  1.00 27.24 LIG-0.27  OA
BRANCH 25 27
ATOM     27  CA  SER C   5      -3.541 -28.703 -14.212  1.00 35.45 LIG 0.42  C 
ATOM     28  N   SER C   5      -4.773 -28.621 -13.385  1.00 39.53 LIG 0.62  N 
BRANCH 27 29
ATOM     29  CB  SER C   5      -2.528 -27.655 -13.760  1.00 42.03 LIG 0.21  C 
BRANCH 29 30
ATOM     30 OG   SER C   5      -3.118 -26.407 -13.471  1.00 42.36 LIG-0.40  OA
ATOM     31 HG   SER C   5      -2.622 -25.976 -12.947  1.00 42.36 LIG 0.21  HD
ENDBRANCH 29 30
ENDBRANCH 27 29
ENDBRANCH 25 27
ENDBRANCH 13 23
ENDBRANCH 11 13
ENDBRANCH 8 9
BRANCH 8 32
ATOM     32  CB  LEU C   7       1.508 -32.867 -10.466  1.00 26.58 LIG 0.04  C 
BRANCH 32 33
ATOM     33  CG  LEU C   7       2.647 -33.784 -10.951  1.00 24.49 LIG-0.02  C 
ATOM     34  CD2 LEU C   7       2.089 -35.177 -10.979  1.00 27.30 LIG 0.01  C 
ATOM     35  CD1 LEU C   7       3.722 -33.733  -9.877  1.00 29.65 LIG 0.01  C 
ENDBRANCH 32 33
ENDBRANCH 8 32
ENDBRANCH 1 8
BRANCH 4 36
ATOM     36  C   PRO C   8      -1.769 -32.726  -7.042  1.00 40.02 LIG 0.24  C 
ATOM     37 O    PRO C   8      -1.278 -31.721  -7.542  1.00 40.33 LIG-0.27  OA
ATOM     38  N   ARG C   9      -2.932 -32.739  -6.412  1.00 39.93 LIG-0.35  N 
ATOM     39 H    ARG C   9      -3.298 -33.468  -6.140  1.00 39.93 LIG 0.16  HD
BRANCH 38 40
ATOM     40  CA  ARG C   9      -3.727 -31.562  -6.101  1.00 44.47 LIG 0.18  C 
BRANCH 40 41
ATOM     41  C   ARG C   9      -4.510 -31.144  -7.381  1.00 44.78 LIG 0.24  C 
ATOM     42  N   PRO C  10      -5.867 -31.151  -7.337  1.00 46.18 LIG-0.34  N 
ATOM     43  CA  PRO C  10      -6.734 -30.817  -8.510  1.00 48.25 LIG 0.17  C 
ATOM     44  CD  PRO C  10      -6.657 -31.614  -6.175  1.00 48.73 LIG 0.13  C 
ATOM     45  CB  PRO C  10      -8.169 -31.003  -7.977  1.00 49.47 LIG 0.04  C 
ATOM     46  CG  PRO C  10      -8.039 -31.830  -6.737  1.00 52.76 LIG 0.02  C 
ATOM     47 O    ARG C   9      -3.885 -30.872  -8.411  1.00 45.76 LIG-0.27  OA
BRANCH 43 48
ATOM     48  C   PRO C  10      -6.614 -29.391  -9.072  1.00 47.63 LIG 0.22  C 
ATOM     49 O    PRO C  10      -7.338 -29.021  -9.993  1.00 46.26 LIG-0.29  OA
ENDBRANCH 43 48
ENDBRANCH 40 41
BRANCH 40 50
ATOM     50  CB  ARG C   9      -2.770 -30.441  -5.577  1.00 49.80 LIG 0.04  C 
BRANCH 50 51
ATOM     51  CG  ARG C   9      -3.429 -29.429  -4.617  1.00 51.68 LIG 0.02  C 
BRANCH 51 52
ATOM     52  CD  ARG C   9      -3.432 -27.962  -5.160  1.00 46.90 LIG 0.14  C 
BRANCH 52 53
ATOM     53  NE  ARG C   9      -2.226 -27.727  -5.947  1.00 50.11 LIG-0.23  N 
ATOM     54 HE   ARG C   9      -2.339 -27.589  -6.789  1.00 50.11 LIG 0.18  HD
ATOM     55  CZ  ARG C   9      -0.970 -27.701  -5.510  1.00 44.95 LIG 0.67  C 
ATOM     56  NH1 ARG C   9      -0.019 -27.473  -6.375  1.00 55.49 LIG-0.23  N 
ATOM     57  NH2 ARG C   9      -0.660 -27.886  -4.257  1.00 40.08 LIG-0.23  N 
ATOM     58 1HH1 ARG C   9      -0.212 -27.344  -7.203  1.00 55.49 LIG 0.17  HD
ATOM     59 2HH1 ARG C   9       0.801 -27.452  -6.116  1.00 55.49 LIG 0.17  HD
ATOM     60 1HH2 ARG C   9      -1.279 -28.032  -3.678  1.00 40.08 LIG 0.17  HD
ATOM     61 2HH2 ARG C   9       0.163 -27.863  -4.010  1.00 40.08 LIG 0.17  HD
ENDBRANCH 52 53
ENDBRANCH 51 52
ENDBRANCH 50 51
ENDBRANCH 40 50
ENDBRANCH 38 40
ENDBRANCH 4 36
TORSDOF 20
ENDMDL
MODEL 38
USER: ADFR SOLUTION from run 143
USER: SCORE 18.341953 LL:  -3.294 LR: -17.142 RR:   0.000 FEB: -11.176
USER: RMSD 9.880508
USER: SEED 142
USER: STATUS no improvement in best in 12 clusters for 5 generations
USER: GENES 22
USER: genes 0 Translation |==|  0.60549 0.46053 0.53872
USER: genes 1 Rotation |==|  0.91501 0.29291 0.67018 0.57693
USER: genes 2 Torsion [N]-C--CA-[N] |==|  0.44763
USER: genes 3 Torsion [C]-CA--N-[C] |==|  0.19467
USER: genes 4 Torsion [N]-C--CA-[N] |==|  0.46746
USER: genes 5 Torsion [C]-CA--CB-[CG] |==|  0.15821
USER: genes 6 Torsion [CA]-CB--CG-[CD1] |==|  0.16248
USER: genes 7 Torsion [CE1]-CZ--OH-[HH] |==|  0.61554
USER: genes 8 Torsion [C]-CA--N-[C] |==|  0.60723
USER: genes 9 Torsion [N]-C--CA-[N] |==|  0.47492
USER: genes 10 Torsion [C]-CA--CB-[OG] |==|  0.85553
USER: genes 11 Torsion [CA]-CB--OG-[HG] |==|  0.81811
USER: genes 12 Torsion [C]-CA--CB-[CG] |==|  0.30592
USER: genes 13 Torsion [CA]-CB--CG-[CD2] |==|  0.40862
USER: genes 14 Torsion [N]-CA--C-[O] |==|  0.87411
USER: genes 15 Torsion [C]-N--CA-[CB] |==|  0.49635
USER: genes 16 Torsion [N]-CA--C-[N] |==|  0.31304
USER: genes 17 Torsion [N]-CA--C-[O] |==|  0.97651
USER: genes 18 Torsion [N]-CA--CB-[CG] |==|  0.76377
USER: genes 19 Torsion [CA]-CB--CG-[CD] |==|  0.66923
USER: genes 20 Torsion [CB]-CG--CD-[NE] |==|  0.48295
USER: genes 21 Torsion [CG]-CD--NE-[HE] |==|  0.13185
ROOT
ATOM      1  C   LEU C   7      -0.997 -33.448  -9.052  1.00 32.10 LIG 0.24  C 
ATOM      2 O    LEU C   7      -2.080 -32.880  -9.302  1.00 36.06 LIG-0.27  OA
ATOM      3  N   PRO C   8      -0.672 -33.898  -7.816  1.00 34.15 LIG-0.34  N 
ATOM      4  CA  PRO C   8      -1.677 -33.625  -6.807  1.00 36.52 LIG 0.18  C 
ATOM      5  CB  PRO C   8      -1.090 -34.233  -5.510  1.00 33.63 LIG 0.04  C 
ATOM      6  CG  PRO C   8      -0.206 -35.332  -5.986  1.00 36.13 LIG 0.02  C 
ATOM      7  CD  PRO C   8       0.367 -34.835  -7.316  1.00 34.25 LIG 0.13  C 
ENDROOT
BRANCH 1 8
ATOM      8  CA  LEU C   7      -0.028 -33.752 -10.211  1.00 27.99 LIG 0.18  C 
BRANCH 8 9
ATOM      9  N   LEU C   7      -0.605 -33.638 -11.566  1.00 26.55 LIG-0.35  N 
ATOM     10 H    LEU C   7      -0.716 -34.371 -12.001  1.00 26.55 LIG 0.16  HD
ATOM     11  C   TYR C   6      -0.896 -32.440 -11.988  1.00 27.48 LIG 0.24  C 
ATOM     12 O    TYR C   6      -0.738 -31.442 -11.227  1.00 27.70 LIG-0.27  OA
BRANCH 11 13
ATOM     13  CA  TYR C   6      -1.344 -32.325 -13.419  1.00 25.37 LIG 0.18  C 
BRANCH 13 14
ATOM     14  CB  TYR C   6      -0.166 -32.632 -14.363  1.00 25.99 LIG 0.07  C 
BRANCH 14 15
ATOM     15  CG  TYR C   6       0.494 -33.994 -14.175  1.00 32.28 LIG-0.06  A 
ATOM     16  CD1 TYR C   6      -0.244 -35.174 -14.300  1.00 32.91 LIG 0.01  A 
ATOM     17  CE1 TYR C   6       0.346 -36.413 -14.138  1.00 37.22 LIG 0.04  A 
ATOM     18  CZ  TYR C   6       1.698 -36.486 -13.829  1.00 40.59 LIG 0.07  A 
ATOM     19  CE2 TYR C   6       2.460 -35.327 -13.679  1.00 40.82 LIG 0.04  A 
ATOM     20  CD2 TYR C   6       1.850 -34.088 -13.843  1.00 36.01 LIG 0.01  A 
BRANCH 18 21
ATOM     21 OH   TYR C   6       2.266 -37.735 -13.678  1.00 45.73 LIG-0.36  OA
ATOM     22 HH   TYR C   6       2.788 -37.727 -13.020  1.00 45.73 LIG 0.22  HD
ENDBRANCH 18 21
ENDBRANCH 14 15
ENDBRANCH 13 14
BRANCH 13 23
ATOM     23  N   TYR C   6      -1.894 -31.053 -13.739  1.00 26.32 LIG-0.34  N 
ATOM     24 H    TYR C   6      -1.501 -30.380 -13.375  1.00 26.32 LIG 0.16  HD
ATOM     25  C   SER C   5      -2.927 -30.977 -14.535  1.00 29.69 LIG 0.26  C 
ATOM     26 O    SER C   5      -3.523 -32.017 -14.958  1.00 27.24 LIG-0.27  OA
BRANCH 25 27
ATOM     27  CA  SER C   5      -3.298 -29.521 -14.984  1.00 35.45 LIG 0.42  C 
ATOM     28  N   SER C   5      -4.335 -29.559 -16.047  1.00 39.53 LIG 0.62  N 
BRANCH 27 29
ATOM     29  CB  SER C   5      -3.751 -28.629 -13.831  1.00 42.03 LIG 0.21  C 
BRANCH 29 30
ATOM     30 OG   SER C   5      -4.780 -29.208 -13.058  1.00 42.36 LIG-0.40  OA
ATOM     31 HG   SER C   5      -5.473 -29.286 -13.526  1.00 42.36 LIG 0.21  HD
ENDBRANCH 29 30
ENDBRANCH 27 29
ENDBRANCH 25 27
ENDBRANCH 13 23
ENDBRANCH 11 13
ENDBRANCH 8 9
BRANCH 8 32
ATOM     32  CB  LEU C   7       1.217 -32.949 -10.118  1.00 26.58 LIG 0.04  C 
BRANCH 32 33
ATOM     33  CG  LEU C   7       2.300 -33.985  -9.761  1.00 24.49 LIG-0.02  C 
ATOM     34  CD2 LEU C   7       3.568 -33.518 -10.414  1.00 27.30 LIG 0.01  C 
ATOM     35  CD1 LEU C   7       1.882 -35.286 -10.428  1.00 29.65 LIG 0.01  C 
ENDBRANCH 32 33
ENDBRANCH 8 32
ENDBRANCH 1 8
BRANCH 4 36
ATOM     36  C   PRO C   8      -1.955 -32.115  -6.728  1.00 40.02 LIG 0.24  C 
ATOM     37 O    PRO C   8      -1.040 -31.301  -6.714  1.00 40.33 LIG-0.27  OA
ATOM     38  N   ARG C   9      -3.234 -31.782  -6.784  1.00 39.93 LIG-0.35  N 
ATOM     39 H    ARG C   9      -3.856 -32.369  -6.875  1.00 39.93 LIG 0.16  HD
BRANCH 38 40
ATOM     40  CA  ARG C   9      -3.748 -30.425  -6.701  1.00 44.47 LIG 0.18  C 
BRANCH 40 41
ATOM     41  C   ARG C   9      -3.279 -29.801  -5.354  1.00 44.78 LIG 0.24  C 
ATOM     42  N   PRO C  10      -2.391 -28.775  -5.394  1.00 46.18 LIG-0.34  N 
ATOM     43  CA  PRO C  10      -1.827 -28.121  -4.171  1.00 48.25 LIG 0.17  C 
ATOM     44  CD  PRO C  10      -1.768 -28.264  -6.635  1.00 48.73 LIG 0.13  C 
ATOM     45  CB  PRO C  10      -0.855 -27.063  -4.730  1.00 49.47 LIG 0.04  C 
ATOM     46  CG  PRO C  10      -0.589 -27.461  -6.147  1.00 52.76 LIG 0.02  C 
ATOM     47 O    ARG C   9      -3.681 -30.284  -4.291  1.00 45.76 LIG-0.27  OA
BRANCH 43 48
ATOM     48  C   PRO C  10      -2.828 -27.411  -3.246  1.00 47.63 LIG 0.22  C 
ATOM     49 O    PRO C  10      -3.998 -27.260  -3.591  1.00 46.26 LIG-0.29  OA
ENDBRANCH 43 48
ENDBRANCH 40 41
BRANCH 40 50
ATOM     50  CB  ARG C   9      -5.305 -30.476  -6.843  1.00 49.80 LIG 0.04  C 
BRANCH 50 51
ATOM     51  CG  ARG C   9      -5.819 -30.487  -8.298  1.00 51.68 LIG 0.02  C 
BRANCH 51 52
ATOM     52  CD  ARG C   9      -6.725 -29.262  -8.652  1.00 46.90 LIG 0.14  C 
BRANCH 52 53
ATOM     53  NE  ARG C   9      -7.042 -29.281 -10.076  1.00 50.11 LIG-0.23  N 
ATOM     54 HE   ARG C   9      -7.308 -30.032 -10.399  1.00 50.11 LIG 0.18  HD
ATOM     55  CZ  ARG C   9      -6.967 -28.265 -10.931  1.00 44.95 LIG 0.67  C 
ATOM     56  NH1 ARG C   9      -7.296 -28.480 -12.177  1.00 55.49 LIG-0.23  N 
ATOM     57  NH2 ARG C   9      -6.587 -27.072 -10.571  1.00 40.08 LIG-0.23  N 
ATOM     58 1HH1 ARG C   9      -7.553 -29.262 -12.425  1.00 55.49 LIG 0.17  HD
ATOM     59 2HH1 ARG C   9      -7.255 -27.839 -12.749  1.00 55.49 LIG 0.17  HD
ATOM     60 1HH2 ARG C   9      -6.373 -26.918  -9.752  1.00 40.08 LIG 0.17  HD
ATOM     61 2HH2 ARG C   9      -6.550 -26.438 -11.151  1.00 40.08 LIG 0.17  HD
ENDBRANCH 52 53
ENDBRANCH 51 52
ENDBRANCH 50 51
ENDBRANCH 40 50
ENDBRANCH 38 40
ENDBRANCH 4 36
TORSDOF 20
ENDMDL
MODEL 39
USER: ADFR SOLUTION from run 82
USER: SCORE 18.653473 LL:  -3.118 LR: -17.131 RR:   0.000 FEB: -11.165
USER: RMSD 10.374921
USER: SEED 81
USER: STATUS no improvement in best in 15 clusters for 5 generations
USER: GENES 22
USER: genes 0 Translation |==|  0.64691 0.46865 0.53220
USER: genes 1 Rotation |==|  0.07761 0.73074 0.36526 0.51392
USER: genes 2 Torsion [N]-C--CA-[N] |==|  0.39014
USER: genes 3 Torsion [C]-CA--N-[C] |==|  0.83678
USER: genes 4 Torsion [N]-C--CA-[N] |==|  0.91699
USER: genes 5 Torsion [C]-CA--CB-[CG] |==|  0.12012
USER: genes 6 Torsion [CA]-CB--CG-[CD1] |==|  0.27368
USER: genes 7 Torsion [CE1]-CZ--OH-[HH] |==|  0.48590
USER: genes 8 Torsion [C]-CA--N-[C] |==|  0.62222
USER: genes 9 Torsion [N]-C--CA-[N] |==|  0.32838
USER: genes 10 Torsion [C]-CA--CB-[OG] |==|  0.56249
USER: genes 11 Torsion [CA]-CB--OG-[HG] |==|  0.37194
USER: genes 12 Torsion [C]-CA--CB-[CG] |==|  0.43530
USER: genes 13 Torsion [CA]-CB--CG-[CD2] |==|  0.74320
USER: genes 14 Torsion [N]-CA--C-[O] |==|  0.95410
USER: genes 15 Torsion [C]-N--CA-[CB] |==|  0.20087
USER: genes 16 Torsion [N]-CA--C-[N] |==|  0.33110
USER: genes 17 Torsion [N]-CA--C-[O] |==|  0.25280
USER: genes 18 Torsion [N]-CA--CB-[CG] |==|  0.57585
USER: genes 19 Torsion [CA]-CB--CG-[CD] |==|  0.08144
USER: genes 20 Torsion [CB]-CG--CD-[NE] |==|  0.27556
USER: genes 21 Torsion [CG]-CD--NE-[HE] |==|  0.66916
ROOT
ATOM      1  C   LEU C   7      -0.127 -33.302  -9.213  1.00 32.10 LIG 0.24  C 
ATOM      2 O    LEU C   7      -1.225 -32.711  -9.270  1.00 36.06 LIG-0.27  OA
ATOM      3  N   PRO C   8       0.180 -34.189  -8.236  1.00 34.15 LIG-0.34  N 
ATOM      4  CA  PRO C   8      -0.865 -34.358  -7.245  1.00 36.52 LIG 0.18  C 
ATOM      5  CB  PRO C   8      -0.292 -35.407  -6.262  1.00 33.63 LIG 0.04  C 
ATOM      6  CG  PRO C   8       0.651 -36.210  -7.088  1.00 36.13 LIG 0.02  C 
ATOM      7  CD  PRO C   8       1.242 -35.218  -8.095  1.00 34.25 LIG 0.13  C 
ENDROOT
BRANCH 1 8
ATOM      8  CA  LEU C   7       0.888 -33.103 -10.356  1.00 27.99 LIG 0.18  C 
BRANCH 8 9
ATOM      9  N   LEU C   7       0.303 -32.948 -11.703  1.00 26.55 LIG-0.35  N 
ATOM     10 H    LEU C   7       0.487 -32.220 -12.122  1.00 26.55 LIG 0.16  HD
ATOM     11  C   TYR C   6      -0.440 -33.923 -12.144  1.00 27.48 LIG 0.24  C 
ATOM     12 O    TYR C   6      -0.589 -34.972 -11.452  1.00 27.70 LIG-0.27  OA
BRANCH 11 13
ATOM     13  CA  TYR C   6      -1.145 -33.689 -13.450  1.00 25.37 LIG 0.18  C 
BRANCH 13 14
ATOM     14  CB  TYR C   6      -0.290 -34.226 -14.613  1.00 25.99 LIG 0.07  C 
BRANCH 14 15
ATOM     15  CG  TYR C   6       0.357 -35.588 -14.383  1.00 32.28 LIG-0.06  A 
ATOM     16  CD1 TYR C   6      -0.220 -36.753 -14.894  1.00 32.91 LIG 0.01  A 
ATOM     17  CE1 TYR C   6       0.363 -37.991 -14.697  1.00 37.22 LIG 0.04  A 
ATOM     18  CZ  TYR C   6       1.537 -38.080 -13.962  1.00 40.59 LIG 0.07  A 
ATOM     19  CE2 TYR C   6       2.129 -36.938 -13.422  1.00 40.82 LIG 0.04  A 
ATOM     20  CD2 TYR C   6       1.529 -35.700 -13.627  1.00 36.01 LIG 0.01  A 
BRANCH 18 21
ATOM     21 OH   TYR C   6       2.103 -39.326 -13.783  1.00 45.73 LIG-0.36  OA
ATOM     22 HH   TYR C   6       2.838 -39.245 -13.386  1.00 45.73 LIG 0.22  HD
ENDBRANCH 18 21
ENDBRANCH 14 15
ENDBRANCH 13 14
BRANCH 13 23
ATOM     23  N   TYR C   6      -1.465 -32.322 -13.684  1.00 26.32 LIG-0.34  N 
ATOM     24 H    TYR C   6      -0.840 -31.761 -13.498  1.00 26.32 LIG 0.16  HD
ATOM     25  C   SER C   5      -2.644 -32.004 -14.148  1.00 29.69 LIG 0.26  C 
ATOM     26 O    SER C   5      -3.558 -32.873 -14.305  1.00 27.24 LIG-0.27  OA
BRANCH 25 27
ATOM     27  CA  SER C   5      -2.795 -30.500 -14.568  1.00 35.45 LIG 0.42  C 
ATOM     28  N   SER C   5      -3.097 -30.400 -16.019  1.00 39.53 LIG 0.62  N 
BRANCH 27 29
ATOM     29  CB  SER C   5      -3.841 -29.745 -13.753  1.00 42.03 LIG 0.21  C 
BRANCH 29 30
ATOM     30 OG   SER C   5      -4.337 -28.603 -14.417  1.00 42.36 LIG-0.40  OA
ATOM     31 HG   SER C   5      -5.175 -28.586 -14.357  1.00 42.36 LIG 0.21  HD
ENDBRANCH 29 30
ENDBRANCH 27 29
ENDBRANCH 25 27
ENDBRANCH 13 23
ENDBRANCH 11 13
ENDBRANCH 8 9
BRANCH 8 32
ATOM     32  CB  LEU C   7       1.826 -31.988 -10.076  1.00 26.58 LIG 0.04  C 
BRANCH 32 33
ATOM     33  CG  LEU C   7       3.057 -32.312 -10.945  1.00 24.49 LIG-0.02  C 
ATOM     34  CD2 LEU C   7       3.994 -33.102 -10.079  1.00 27.30 LIG 0.01  C 
ATOM     35  CD1 LEU C   7       3.720 -30.979 -11.258  1.00 29.65 LIG 0.01  C 
ENDBRANCH 32 33
ENDBRANCH 8 32
ENDBRANCH 1 8
BRANCH 4 36
ATOM     36  C   PRO C   8      -1.209 -33.007  -6.598  1.00 40.02 LIG 0.24  C 
ATOM     37 O    PRO C   8      -0.456 -32.046  -6.696  1.00 40.33 LIG-0.27  OA
ATOM     38  N   ARG C   9      -2.405 -32.949  -6.035  1.00 39.93 LIG-0.35  N 
ATOM     39 H    ARG C   9      -2.950 -33.614  -6.049  1.00 39.93 LIG 0.16  HD
BRANCH 38 40
ATOM     40  CA  ARG C   9      -2.945 -31.793  -5.339  1.00 44.47 LIG 0.18  C 
BRANCH 40 41
ATOM     41  C   ARG C   9      -4.178 -32.252  -4.504  1.00 44.78 LIG 0.24  C 
ATOM     42  N   PRO C  10      -4.138 -32.093  -3.157  1.00 46.18 LIG-0.34  N 
ATOM     43  CA  PRO C  10      -5.235 -32.535  -2.240  1.00 48.25 LIG 0.17  C 
ATOM     44  CD  PRO C  10      -2.961 -31.591  -2.414  1.00 48.73 LIG 0.13  C 
ATOM     45  CB  PRO C  10      -4.711 -32.180  -0.835  1.00 49.47 LIG 0.04  C 
ATOM     46  CG  PRO C  10      -3.235 -31.987  -0.986  1.00 52.76 LIG 0.02  C 
ATOM     47 O    ARG C   9      -5.129 -32.792  -5.077  1.00 45.76 LIG-0.27  OA
BRANCH 43 48
ATOM     48  C   PRO C  10      -6.603 -31.859  -2.426  1.00 47.63 LIG 0.22  C 
ATOM     49 O    PRO C  10      -7.442 -32.346  -3.181  1.00 46.26 LIG-0.29  OA
ENDBRANCH 43 48
ENDBRANCH 40 41
BRANCH 40 50
ATOM     50  CB  ARG C   9      -3.297 -30.697  -6.398  1.00 49.80 LIG 0.04  C 
BRANCH 50 51
ATOM     51  CG  ARG C   9      -3.244 -29.248  -5.867  1.00 51.68 LIG 0.02  C 
BRANCH 51 52
ATOM     52  CD  ARG C   9      -2.216 -29.045  -4.706  1.00 46.90 LIG 0.14  C 
BRANCH 52 53
ATOM     53  NE  ARG C   9      -0.983 -28.472  -5.235  1.00 50.11 LIG-0.23  N 
ATOM     54 HE   ARG C   9      -0.269 -28.941  -5.135  1.00 50.11 LIG 0.18  HD
ATOM     55  CZ  ARG C   9      -0.838 -27.304  -5.855  1.00 44.95 LIG 0.67  C 
ATOM     56  NH1 ARG C   9       0.355 -26.963  -6.260  1.00 55.49 LIG-0.23  N 
ATOM     57  NH2 ARG C   9      -1.840 -26.500  -6.078  1.00 40.08 LIG-0.23  N 
ATOM     58 1HH1 ARG C   9       1.023 -27.488  -6.123  1.00 55.49 LIG 0.17  HD
ATOM     59 2HH1 ARG C   9       0.475 -26.212  -6.663  1.00 55.49 LIG 0.17  HD
ATOM     60 1HH2 ARG C   9      -2.631 -26.717  -5.821  1.00 40.08 LIG 0.17  HD
ATOM     61 2HH2 ARG C   9      -1.709 -25.752  -6.482  1.00 40.08 LIG 0.17  HD
ENDBRANCH 52 53
ENDBRANCH 51 52
ENDBRANCH 50 51
ENDBRANCH 40 50
ENDBRANCH 38 40
ENDBRANCH 4 36
TORSDOF 20
ENDMDL
MODEL 40
USER: ADFR SOLUTION from run 164
USER: SCORE 19.316728 LL:  -3.070 LR: -17.125 RR:   0.000 FEB: -11.159
USER: RMSD 9.803581
USER: SEED 163
USER: STATUS no improvement in best in 3 clusters for 5 generations
USER: GENES 22
USER: genes 0 Translation |==|  0.59700 0.46204 0.53527
USER: genes 1 Rotation |==|  0.97945 0.42157 0.59889 0.56476
USER: genes 2 Torsion [N]-C--CA-[N] |==|  0.06343
USER: genes 3 Torsion [C]-CA--N-[C] |==|  0.18304
USER: genes 4 Torsion [N]-C--CA-[N] |==|  0.80619
USER: genes 5 Torsion [C]-CA--CB-[CG] |==|  0.80657
USER: genes 6 Torsion [CA]-CB--CG-[CD1] |==|  0.30421
USER: genes 7 Torsion [CE1]-CZ--OH-[HH] |==|  0.23387
USER: genes 8 Torsion [C]-CA--N-[C] |==|  0.78795
USER: genes 9 Torsion [N]-C--CA-[N] |==|  0.75987
USER: genes 10 Torsion [C]-CA--CB-[OG] |==|  0.26831
USER: genes 11 Torsion [CA]-CB--OG-[HG] |==|  0.76082
USER: genes 12 Torsion [C]-CA--CB-[CG] |==|  0.46766
USER: genes 13 Torsion [CA]-CB--CG-[CD2] |==|  0.88136
USER: genes 14 Torsion [N]-CA--C-[O] |==|  0.88263
USER: genes 15 Torsion [C]-N--CA-[CB] |==|  0.86583
USER: genes 16 Torsion [N]-CA--C-[N] |==|  0.35556
USER: genes 17 Torsion [N]-CA--C-[O] |==|  0.53344
USER: genes 18 Torsion [N]-CA--CB-[CG] |==|  0.27112
USER: genes 19 Torsion [CA]-CB--CG-[CD] |==|  0.47994
USER: genes 20 Torsion [CB]-CG--CD-[NE] |==|  0.34759
USER: genes 21 Torsion [CG]-CD--NE-[HE] |==|  0.65080
ROOT
ATOM      1  C   LEU C   7      -1.175 -33.421  -9.137  1.00 32.10 LIG 0.24  C 
ATOM      2 O    LEU C   7      -2.402 -33.470  -8.914  1.00 36.06 LIG-0.27  OA
ATOM      3  N   PRO C   8      -0.245 -33.563  -8.162  1.00 34.15 LIG-0.34  N 
ATOM      4  CA  PRO C   8      -0.805 -33.736  -6.836  1.00 36.52 LIG 0.18  C 
ATOM      5  CB  PRO C   8       0.432 -33.883  -5.916  1.00 33.63 LIG 0.04  C 
ATOM      6  CG  PRO C   8       1.485 -34.449  -6.804  1.00 36.13 LIG 0.02  C 
ATOM      7  CD  PRO C   8       1.215 -33.838  -8.183  1.00 34.25 LIG 0.13  C 
ENDROOT
BRANCH 1 8
ATOM      8  CA  LEU C   7      -0.685 -33.303 -10.594  1.00 27.99 LIG 0.18  C 
BRANCH 8 9
ATOM      9  N   LEU C   7       0.655 -33.865 -10.860  1.00 26.55 LIG-0.35  N 
ATOM     10 H    LEU C   7       1.269 -33.306 -11.082  1.00 26.55 LIG 0.16  HD
ATOM     11  C   TYR C   6       0.793 -35.154 -10.734  1.00 27.48 LIG 0.24  C 
ATOM     12 O    TYR C   6      -0.178 -35.863 -10.343  1.00 27.70 LIG-0.27  OA
BRANCH 11 13
ATOM     13  CA  TYR C   6       2.120 -35.727 -11.150  1.00 25.37 LIG 0.18  C 
BRANCH 13 14
ATOM     14  CB  TYR C   6       3.261 -34.988 -10.425  1.00 25.99 LIG 0.07  C 
BRANCH 14 15
ATOM     15  CG  TYR C   6       3.495 -33.545 -10.860  1.00 32.28 LIG-0.06  A 
ATOM     16  CD1 TYR C   6       3.175 -32.479 -10.014  1.00 32.91 LIG 0.01  A 
ATOM     17  CE1 TYR C   6       3.390 -31.168 -10.396  1.00 37.22 LIG 0.04  A 
ATOM     18  CZ  TYR C   6       3.917 -30.905 -11.653  1.00 40.59 LIG 0.07  A 
ATOM     19  CE2 TYR C   6       4.229 -31.945 -12.529  1.00 40.82 LIG 0.04  A 
ATOM     20  CD2 TYR C   6       4.005 -33.258 -12.130  1.00 36.01 LIG 0.01  A 
BRANCH 18 21
ATOM     21 OH   TYR C   6       4.127 -29.588 -12.010  1.00 45.73 LIG-0.36  OA
ATOM     22 HH   TYR C   6       4.870 -29.333 -11.713  1.00 45.73 LIG 0.22  HD
ENDBRANCH 18 21
ENDBRANCH 14 15
ENDBRANCH 13 14
BRANCH 13 23
ATOM     23  N   TYR C   6       2.339 -35.686 -12.555  1.00 26.32 LIG-0.34  N 
ATOM     24 H    TYR C   6       2.876 -35.071 -12.825  1.00 26.32 LIG 0.16  HD
ATOM     25  C   SER C   5       1.737 -36.549 -13.329  1.00 29.69 LIG 0.26  C 
ATOM     26 O    SER C   5       0.876 -37.367 -12.875  1.00 27.24 LIG-0.27  OA
BRANCH 25 27
ATOM     27  CA  SER C   5       2.228 -36.542 -14.818  1.00 35.45 LIG 0.42  C 
ATOM     28  N   SER C   5       1.483 -35.523 -15.602  1.00 39.53 LIG 0.62  N 
BRANCH 27 29
ATOM     29  CB  SER C   5       3.733 -36.325 -14.959  1.00 42.03 LIG 0.21  C 
BRANCH 29 30
ATOM     30 OG   SER C   5       4.452 -37.530 -15.101  1.00 42.36 LIG-0.40  OA
ATOM     31 HG   SER C   5       4.629 -37.843 -14.342  1.00 42.36 LIG 0.21  HD
ENDBRANCH 29 30
ENDBRANCH 27 29
ENDBRANCH 25 27
ENDBRANCH 13 23
ENDBRANCH 11 13
ENDBRANCH 8 9
BRANCH 8 32
ATOM     32  CB  LEU C   7      -1.670 -33.857 -11.556  1.00 26.58 LIG 0.04  C 
BRANCH 32 33
ATOM     33  CG  LEU C   7      -1.154 -33.383 -12.928  1.00 24.49 LIG-0.02  C 
ATOM     34  CD2 LEU C   7      -0.735 -31.952 -12.755  1.00 27.30 LIG 0.01  C 
ATOM     35  CD1 LEU C   7      -2.351 -33.410 -13.866  1.00 29.65 LIG 0.01  C 
ENDBRANCH 32 33
ENDBRANCH 8 32
ENDBRANCH 1 8
BRANCH 4 36
ATOM     36  C   PRO C   8      -1.716 -32.549  -6.483  1.00 40.02 LIG 0.24  C 
ATOM     37 O    PRO C   8      -1.393 -31.398  -6.751  1.00 40.33 LIG-0.27  OA
ATOM     38  N   ARG C   9      -2.892 -32.883  -5.978  1.00 39.93 LIG-0.35  N 
ATOM     39 H    ARG C   9      -3.130 -33.702  -5.874  1.00 39.93 LIG 0.16  HD
BRANCH 38 40
ATOM     40  CA  ARG C   9      -3.912 -31.942  -5.544  1.00 44.47 LIG 0.18  C 
BRANCH 40 41
ATOM     41  C   ARG C   9      -4.589 -31.332  -6.807  1.00 44.78 LIG 0.24  C 
ATOM     42  N   PRO C  10      -5.943 -31.367  -6.892  1.00 46.18 LIG-0.34  N 
ATOM     43  CA  PRO C  10      -6.711 -30.858  -8.071  1.00 48.25 LIG 0.17  C 
ATOM     44  CD  PRO C  10      -6.821 -32.028  -5.900  1.00 48.73 LIG 0.13  C 
ATOM     45  CB  PRO C  10      -8.182 -31.153  -7.714  1.00 49.47 LIG 0.04  C 
ATOM     46  CG  PRO C  10      -8.139 -32.171  -6.618  1.00 52.76 LIG 0.02  C 
ATOM     47 O    ARG C   9      -3.883 -30.883  -7.715  1.00 45.76 LIG-0.27  OA
BRANCH 43 48
ATOM     48  C   PRO C  10      -6.585 -29.358  -8.380  1.00 47.63 LIG 0.22  C 
ATOM     49 O    PRO C  10      -7.344 -28.821  -9.184  1.00 46.26 LIG-0.29  OA
ENDBRANCH 43 48
ENDBRANCH 40 41
BRANCH 40 50
ATOM     50  CB  ARG C   9      -3.237 -30.865  -4.631  1.00 49.80 LIG 0.04  C 
BRANCH 50 51
ATOM     51  CG  ARG C   9      -2.871 -29.550  -5.351  1.00 51.68 LIG 0.02  C 
BRANCH 51 52
ATOM     52  CD  ARG C   9      -2.365 -28.428  -4.386  1.00 46.90 LIG 0.14  C 
BRANCH 52 53
ATOM     53  NE  ARG C   9      -1.058 -27.952  -4.828  1.00 50.11 LIG-0.23  N 
ATOM     54 HE   ARG C   9      -0.426 -27.970  -4.244  1.00 50.11 LIG 0.18  HD
ATOM     55  CZ  ARG C   9      -0.733 -27.495  -6.034  1.00 44.95 LIG 0.67  C 
ATOM     56  NH1 ARG C   9       0.499 -27.112  -6.239  1.00 55.49 LIG-0.23  N 
ATOM     57  NH2 ARG C   9      -1.592 -27.423  -7.011  1.00 40.08 LIG-0.23  N 
ATOM     58 1HH1 ARG C   9       1.076 -27.160  -5.603  1.00 55.49 LIG 0.17  HD
ATOM     59 2HH1 ARG C   9       0.733 -26.812  -7.010  1.00 55.49 LIG 0.17  HD
ATOM     60 1HH2 ARG C   9      -2.404 -27.677  -6.889  1.00 40.08 LIG 0.17  HD
ATOM     61 2HH2 ARG C   9      -1.347 -27.121  -7.778  1.00 40.08 LIG 0.17  HD
ENDBRANCH 52 53
ENDBRANCH 51 52
ENDBRANCH 50 51
ENDBRANCH 40 50
ENDBRANCH 38 40
ENDBRANCH 4 36
TORSDOF 20
ENDMDL
MODEL 41
USER: ADFR SOLUTION from run 108
USER: SCORE 18.926454 LL:  -3.161 LR: -17.123 RR:   0.000 FEB: -11.157
USER: RMSD 3.606404
USER: SEED 107
USER: STATUS no improvement in best in 7 clusters for 5 generations
USER: GENES 22
USER: genes 0 Translation |==|  0.61519 0.45925 0.54711
USER: genes 1 Rotation |==|  0.50628 0.48392 0.52055 0.99928
USER: genes 2 Torsion [N]-C--CA-[N] |==|  0.38597
USER: genes 3 Torsion [C]-CA--N-[C] |==|  0.83370
USER: genes 4 Torsion [N]-C--CA-[N] |==|  0.30156
USER: genes 5 Torsion [C]-CA--CB-[CG] |==|  0.74082
USER: genes 6 Torsion [CA]-CB--CG-[CD1] |==|  0.21576
USER: genes 7 Torsion [CE1]-CZ--OH-[HH] |==|  0.54207
USER: genes 8 Torsion [C]-CA--N-[C] |==|  0.70792
USER: genes 9 Torsion [N]-C--CA-[N] |==|  0.13318
USER: genes 10 Torsion [C]-CA--CB-[OG] |==|  0.36868
USER: genes 11 Torsion [CA]-CB--OG-[HG] |==|  0.60642
USER: genes 12 Torsion [C]-CA--CB-[CG] |==|  0.32828
USER: genes 13 Torsion [CA]-CB--CG-[CD2] |==|  0.38115
USER: genes 14 Torsion [N]-CA--C-[O] |==|  0.95388
USER: genes 15 Torsion [C]-N--CA-[CB] |==|  0.52248
USER: genes 16 Torsion [N]-CA--C-[N] |==|  0.87564
USER: genes 17 Torsion [N]-CA--C-[O] |==|  0.88621
USER: genes 18 Torsion [N]-CA--CB-[CG] |==|  0.84013
USER: genes 19 Torsion [CA]-CB--CG-[CD] |==|  0.64061
USER: genes 20 Torsion [CB]-CG--CD-[NE] |==|  0.37798
USER: genes 21 Torsion [CG]-CD--NE-[HE] |==|  0.68419
ROOT
ATOM      1  C   LEU C   7      -0.793 -33.472  -8.844  1.00 32.10 LIG 0.24  C 
ATOM      2 O    LEU C   7      -1.758 -33.017  -9.493  1.00 36.06 LIG-0.27  OA
ATOM      3  N   PRO C   8       0.490 -33.371  -9.268  1.00 34.15 LIG-0.34  N 
ATOM      4  CA  PRO C   8       0.634 -32.725 -10.558  1.00 36.52 LIG 0.18  C 
ATOM      5  CB  PRO C   8       2.161 -32.722 -10.814  1.00 33.63 LIG 0.04  C 
ATOM      6  CG  PRO C   8       2.762 -32.719  -9.452  1.00 36.13 LIG 0.02  C 
ATOM      7  CD  PRO C   8       1.800 -33.544  -8.590  1.00 34.25 LIG 0.13  C 
ENDROOT
BRANCH 1 8
ATOM      8  CA  LEU C   7      -1.050 -34.078  -7.451  1.00 27.99 LIG 0.18  C 
BRANCH 8 9
ATOM      9  N   LEU C   7      -2.090 -33.404  -6.647  1.00 26.55 LIG-0.35  N 
ATOM     10 H    LEU C   7      -2.764 -33.881  -6.411  1.00 26.55 LIG 0.16  HD
ATOM     11  C   TYR C   6      -1.898 -32.147  -6.364  1.00 27.48 LIG 0.24  C 
ATOM     12 O    TYR C   6      -0.831 -31.569  -6.724  1.00 27.70 LIG-0.27  OA
BRANCH 11 13
ATOM     13  CA  TYR C   6      -3.029 -31.436  -5.674  1.00 25.37 LIG 0.18  C 
BRANCH 13 14
ATOM     14  CB  TYR C   6      -3.374 -30.139  -6.430  1.00 25.99 LIG 0.07  C 
BRANCH 14 15
ATOM     15  CG  TYR C   6      -2.676 -28.878  -5.930  1.00 32.28 LIG-0.06  A 
ATOM     16  CD1 TYR C   6      -1.342 -28.618  -6.256  1.00 32.91 LIG 0.01  A 
ATOM     17  CE1 TYR C   6      -0.703 -27.474  -5.814  1.00 37.22 LIG 0.04  A 
ATOM     18  CZ  TYR C   6      -1.396 -26.575  -5.016  1.00 40.59 LIG 0.07  A 
ATOM     19  CE2 TYR C   6      -2.723 -26.814  -4.656  1.00 40.82 LIG 0.04  A 
ATOM     20  CD2 TYR C   6      -3.351 -27.970  -5.108  1.00 36.01 LIG 0.01  A 
BRANCH 18 21
ATOM     21 OH   TYR C   6      -0.739 -25.438  -4.591  1.00 45.73 LIG-0.36  OA
ATOM     22 HH   TYR C   6      -1.170 -25.084  -3.964  1.00 45.73 LIG 0.22  HD
ENDBRANCH 18 21
ENDBRANCH 14 15
ENDBRANCH 13 14
BRANCH 13 23
ATOM     23  N   TYR C   6      -2.761 -31.138  -4.309  1.00 26.32 LIG-0.34  N 
ATOM     24 H    TYR C   6      -2.216 -30.486  -4.175  1.00 26.32 LIG 0.16  HD
ATOM     25  C   SER C   5      -3.333 -31.842  -3.369  1.00 29.69 LIG 0.26  C 
ATOM     26 O    SER C   5      -4.049 -32.857  -3.636  1.00 27.24 LIG-0.27  OA
BRANCH 25 27
ATOM     27  CA  SER C   5      -3.133 -31.278  -1.919  1.00 35.45 LIG 0.42  C 
ATOM     28  N   SER C   5      -3.424 -29.821  -1.889  1.00 39.53 LIG 0.62  N 
BRANCH 27 29
ATOM     29  CB  SER C   5      -3.961 -32.008  -0.865  1.00 42.03 LIG 0.21  C 
BRANCH 29 30
ATOM     30 OG   SER C   5      -3.212 -32.356   0.279  1.00 42.36 LIG-0.40  OA
ATOM     31 HG   SER C   5      -3.453 -33.113   0.552  1.00 42.36 LIG 0.21  HD
ENDBRANCH 29 30
ENDBRANCH 27 29
ENDBRANCH 25 27
ENDBRANCH 13 23
ENDBRANCH 11 13
ENDBRANCH 8 9
BRANCH 8 32
ATOM     32  CB  LEU C   7      -1.327 -35.535  -7.522  1.00 26.58 LIG 0.04  C 
BRANCH 32 33
ATOM     33  CG  LEU C   7      -0.183 -36.170  -6.710  1.00 24.49 LIG-0.02  C 
ATOM     34  CD2 LEU C   7      -0.805 -37.243  -5.865  1.00 27.30 LIG 0.01  C 
ATOM     35  CD1 LEU C   7       0.335 -35.083  -5.781  1.00 29.65 LIG 0.01  C 
ENDBRANCH 32 33
ENDBRANCH 8 32
ENDBRANCH 1 8
BRANCH 4 36
ATOM     36  C   PRO C   8      -0.183 -33.474 -11.623  1.00 40.02 LIG 0.24  C 
ATOM     37 O    PRO C   8      -0.588 -34.613 -11.429  1.00 40.33 LIG-0.27  OA
ATOM     38  N   ARG C   9      -0.492 -32.757 -12.692  1.00 39.93 LIG-0.35  N 
ATOM     39 H    ARG C   9      -0.265 -31.932 -12.771  1.00 39.93 LIG 0.16  HD
BRANCH 38 40
ATOM     40  CA  ARG C   9      -1.233 -33.249 -13.842  1.00 44.47 LIG 0.18  C 
BRANCH 40 41
ATOM     41  C   ARG C   9      -0.601 -34.599 -14.294  1.00 44.78 LIG 0.24  C 
ATOM     42  N   PRO C  10       0.751 -34.685 -14.369  1.00 46.18 LIG-0.34  N 
ATOM     43  CA  PRO C  10       1.478 -35.908 -14.834  1.00 48.25 LIG 0.17  C 
ATOM     44  CD  PRO C  10       1.669 -33.549 -14.132  1.00 48.73 LIG 0.13  C 
ATOM     45  CB  PRO C  10       2.964 -35.501 -14.780  1.00 49.47 LIG 0.04  C 
ATOM     46  CG  PRO C  10       2.976 -34.006 -14.730  1.00 52.76 LIG 0.02  C 
ATOM     47 O    ARG C   9      -1.340 -35.533 -14.621  1.00 45.76 LIG-0.27  OA
BRANCH 43 48
ATOM     48  C   PRO C  10       1.299 -37.179 -13.988  1.00 47.63 LIG 0.22  C 
ATOM     49 O    PRO C  10       1.293 -37.116 -12.760  1.00 46.26 LIG-0.29  OA
ENDBRANCH 43 48
ENDBRANCH 40 41
BRANCH 40 50
ATOM     50  CB  ARG C   9      -1.199 -32.154 -14.958  1.00 49.80 LIG 0.04  C 
BRANCH 50 51
ATOM     51  CG  ARG C   9      -1.769 -30.784 -14.533  1.00 51.68 LIG 0.02  C 
BRANCH 51 52
ATOM     52  CD  ARG C   9      -2.832 -30.211 -15.527  1.00 46.90 LIG 0.14  C 
BRANCH 52 53
ATOM     53  NE  ARG C   9      -3.962 -29.670 -14.779  1.00 50.11 LIG-0.23  N 
ATOM     54 HE   ARG C   9      -4.713 -30.078 -14.872  1.00 50.11 LIG 0.18  HD
ATOM     55  CZ  ARG C   9      -3.961 -28.615 -13.969  1.00 44.95 LIG 0.67  C 
ATOM     56  NH1 ARG C   9      -5.081 -28.283 -13.385  1.00 55.49 LIG-0.23  N 
ATOM     57  NH2 ARG C   9      -2.889 -27.913 -13.734  1.00 40.08 LIG-0.23  N 
ATOM     58 1HH1 ARG C   9      -5.794 -28.743 -13.529  1.00 55.49 LIG 0.17  HD
ATOM     59 2HH1 ARG C   9      -5.107 -27.605 -12.857  1.00 55.49 LIG 0.17  HD
ATOM     60 1HH2 ARG C   9      -2.145 -28.125 -14.108  1.00 40.08 LIG 0.17  HD
ATOM     61 2HH2 ARG C   9      -2.926 -27.236 -13.204  1.00 40.08 LIG 0.17  HD
ENDBRANCH 52 53
ENDBRANCH 51 52
ENDBRANCH 50 51
ENDBRANCH 40 50
ENDBRANCH 38 40
ENDBRANCH 4 36
TORSDOF 20
ENDMDL
MODEL 42
USER: ADFR SOLUTION from run 67
USER: SCORE 19.549235 LL:  -4.663 LR: -17.107 RR:   0.000 FEB: -11.141
USER: RMSD 7.939750
USER: SEED 66
USER: STATUS no improvement in best in 12 clusters for 5 generations
USER: GENES 22
USER: genes 0 Translation |==|  0.54420 0.67301 0.71140
USER: genes 1 Rotation |==|  0.43763 0.70584 0.94197 0.59169
USER: genes 2 Torsion [N]-C--CA-[N] |==|  0.31710
USER: genes 3 Torsion [C]-CA--N-[C] |==|  0.18853
USER: genes 4 Torsion [N]-C--CA-[N] |==|  0.86360
USER: genes 5 Torsion [C]-CA--CB-[CG] |==|  0.02400
USER: genes 6 Torsion [CA]-CB--CG-[CD1] |==|  0.24429
USER: genes 7 Torsion [CE1]-CZ--OH-[HH] |==|  0.47699
USER: genes 8 Torsion [C]-CA--N-[C] |==|  0.78899
USER: genes 9 Torsion [N]-C--CA-[N] |==|  0.43967
USER: genes 10 Torsion [C]-CA--CB-[OG] |==|  0.88135
USER: genes 11 Torsion [CA]-CB--OG-[HG] |==|  0.84923
USER: genes 12 Torsion [C]-CA--CB-[CG] |==|  0.27041
USER: genes 13 Torsion [CA]-CB--CG-[CD2] |==|  0.43902
USER: genes 14 Torsion [N]-CA--C-[O] |==|  0.99738
USER: genes 15 Torsion [C]-N--CA-[CB] |==|  0.88040
USER: genes 16 Torsion [N]-CA--C-[N] |==|  0.28333
USER: genes 17 Torsion [N]-CA--C-[O] |==|  0.03477
USER: genes 18 Torsion [N]-CA--CB-[CG] |==|  0.48186
USER: genes 19 Torsion [CA]-CB--CG-[CD] |==|  0.68346
USER: genes 20 Torsion [CB]-CG--CD-[NE] |==|  0.30987
USER: genes 21 Torsion [CG]-CD--NE-[HE] |==|  0.79057
ROOT
ATOM      1  C   LEU C   7      -2.284 -29.624  -4.778  1.00 32.10 LIG 0.24  C 
ATOM      2 O    LEU C   7      -1.593 -30.608  -4.443  1.00 36.06 LIG-0.27  OA
ATOM      3  N   PRO C   8      -3.374 -29.728  -5.575  1.00 34.15 LIG-0.34  N 
ATOM      4  CA  PRO C   8      -3.641 -31.078  -6.033  1.00 36.52 LIG 0.18  C 
ATOM      5  CB  PRO C   8      -4.916 -30.941  -6.901  1.00 33.63 LIG 0.04  C 
ATOM      6  CG  PRO C   8      -5.620 -29.757  -6.335  1.00 36.13 LIG 0.02  C 
ATOM      7  CD  PRO C   8      -4.505 -28.813  -5.874  1.00 34.25 LIG 0.13  C 
ENDROOT
BRANCH 1 8
ATOM      8  CA  LEU C   7      -1.954 -28.243  -4.179  1.00 27.99 LIG 0.18  C 
BRANCH 8 9
ATOM      9  N   LEU C   7      -2.068 -28.145  -2.709  1.00 26.55 LIG-0.35  N 
ATOM     10 H    LEU C   7      -2.702 -27.651  -2.404  1.00 26.55 LIG 0.16  HD
ATOM     11  C   TYR C   6      -1.204 -28.815  -2.001  1.00 27.48 LIG 0.24  C 
ATOM     12 O    TYR C   6      -0.351 -29.555  -2.572  1.00 27.70 LIG-0.27  OA
BRANCH 11 13
ATOM     13  CA  TYR C   6      -1.240 -28.591  -0.515  1.00 25.37 LIG 0.18  C 
BRANCH 13 14
ATOM     14  CB  TYR C   6      -2.468 -29.295   0.093  1.00 25.99 LIG 0.07  C 
BRANCH 14 15
ATOM     15  CG  TYR C   6      -3.241 -30.209  -0.852  1.00 32.28 LIG-0.06  A 
ATOM     16  CD1 TYR C   6      -2.887 -31.552  -1.002  1.00 32.91 LIG 0.01  A 
ATOM     17  CE1 TYR C   6      -3.586 -32.390  -1.851  1.00 37.22 LIG 0.04  A 
ATOM     18  CZ  TYR C   6      -4.651 -31.881  -2.582  1.00 40.59 LIG 0.07  A 
ATOM     19  CE2 TYR C   6      -5.018 -30.540  -2.470  1.00 40.82 LIG 0.04  A 
ATOM     20  CD2 TYR C   6      -4.303 -29.710  -1.613  1.00 36.01 LIG 0.01  A 
BRANCH 18 21
ATOM     21 OH   TYR C   6      -5.337 -32.738  -3.419  1.00 45.73 LIG-0.36  OA
ATOM     22 HH   TYR C   6      -6.020 -32.351  -3.717  1.00 45.73 LIG 0.22  HD
ENDBRANCH 18 21
ENDBRANCH 14 15
ENDBRANCH 13 14
BRANCH 13 23
ATOM     23  N   TYR C   6      -1.247 -27.216  -0.150  1.00 26.32 LIG-0.34  N 
ATOM     24 H    TYR C   6      -2.008 -26.908   0.108  1.00 26.32 LIG 0.16  HD
ATOM     25  C   SER C   5      -0.144 -26.521  -0.224  1.00 29.69 LIG 0.26  C 
ATOM     26 O    SER C   5       0.924 -27.011  -0.709  1.00 27.24 LIG-0.27  OA
BRANCH 25 27
ATOM     27  CA  SER C   5      -0.231 -25.089   0.411  1.00 35.45 LIG 0.42  C 
ATOM     28  N   SER C   5       1.127 -24.594   0.754  1.00 39.53 LIG 0.62  N 
BRANCH 27 29
ATOM     29  CB  SER C   5      -0.958 -24.078  -0.472  1.00 42.03 LIG 0.21  C 
BRANCH 29 30
ATOM     30 OG   SER C   5      -0.595 -24.173  -1.832  1.00 42.36 LIG-0.40  OA
ATOM     31 HG   SER C   5       0.240 -24.114  -1.904  1.00 42.36 LIG 0.21  HD
ENDBRANCH 29 30
ENDBRANCH 27 29
ENDBRANCH 25 27
ENDBRANCH 13 23
ENDBRANCH 11 13
ENDBRANCH 8 9
BRANCH 8 32
ATOM     32  CB  LEU C   7      -0.626 -27.749  -4.620  1.00 26.58 LIG 0.04  C 
BRANCH 32 33
ATOM     33  CG  LEU C   7      -0.951 -26.809  -5.795  1.00 24.49 LIG-0.02  C 
ATOM     34  CD2 LEU C   7       0.219 -25.880  -5.935  1.00 27.30 LIG 0.01  C 
ATOM     35  CD1 LEU C   7      -2.153 -25.984  -5.361  1.00 29.65 LIG 0.01  C 
ENDBRANCH 32 33
ENDBRANCH 8 32
ENDBRANCH 1 8
BRANCH 4 36
ATOM     36  C   PRO C   8      -2.422 -31.636  -6.785  1.00 40.02 LIG 0.24  C 
ATOM     37 O    PRO C   8      -1.413 -30.962  -6.947  1.00 40.33 LIG-0.27  OA
ATOM     38  N   ARG C   9      -2.520 -32.908  -7.135  1.00 39.93 LIG-0.35  N 
ATOM     39 H    ARG C   9      -3.208 -33.385  -6.939  1.00 39.93 LIG 0.16  HD
BRANCH 38 40
ATOM     40  CA  ARG C   9      -1.513 -33.650  -7.875  1.00 44.47 LIG 0.18  C 
BRANCH 40 41
ATOM     41  C   ARG C   9      -0.394 -34.087  -6.883  1.00 44.78 LIG 0.24  C 
ATOM     42  N   PRO C  10      -0.386 -35.371  -6.446  1.00 46.18 LIG-0.34  N 
ATOM     43  CA  PRO C  10       0.605 -35.903  -5.458  1.00 48.25 LIG 0.17  C 
ATOM     44  CD  PRO C  10      -1.425 -36.369  -6.783  1.00 48.73 LIG 0.13  C 
ATOM     45  CB  PRO C  10       0.180 -37.371  -5.259  1.00 49.47 LIG 0.04  C 
ATOM     46  CG  PRO C  10      -1.225 -37.462  -5.764  1.00 52.76 LIG 0.02  C 
ATOM     47 O    ARG C   9       0.418 -33.248  -6.481  1.00 45.76 LIG-0.27  OA
BRANCH 43 48
ATOM     48  C   PRO C  10       2.081 -35.885  -5.885  1.00 47.63 LIG 0.22  C 
ATOM     49 O    PRO C  10       2.436 -35.251  -6.877  1.00 46.26 LIG-0.29  OA
ENDBRANCH 43 48
ENDBRANCH 40 41
BRANCH 40 50
ATOM     50  CB  ARG C   9      -0.983 -32.745  -9.036  1.00 49.80 LIG 0.04  C 
BRANCH 50 51
ATOM     51  CG  ARG C   9       0.209 -33.335  -9.819  1.00 51.68 LIG 0.02  C 
BRANCH 51 52
ATOM     52  CD  ARG C   9       1.536 -32.525  -9.646  1.00 46.90 LIG 0.14  C 
BRANCH 52 53
ATOM     53  NE  ARG C   9       2.499 -33.315  -8.885  1.00 50.11 LIG-0.23  N 
ATOM     54 HE   ARG C   9       2.360 -33.374  -8.038  1.00 50.11 LIG 0.18  HD
ATOM     55  CZ  ARG C   9       3.566 -33.954  -9.354  1.00 44.95 LIG 0.67  C 
ATOM     56  NH1 ARG C   9       4.313 -34.613  -8.510  1.00 55.49 LIG-0.23  N 
ATOM     57  NH2 ARG C   9       3.885 -33.951 -10.618  1.00 40.08 LIG-0.23  N 
ATOM     58 1HH1 ARG C   9       4.109 -34.626  -7.675  1.00 55.49 LIG 0.17  HD
ATOM     59 2HH1 ARG C   9       5.009 -35.034  -8.789  1.00 55.49 LIG 0.17  HD
ATOM     60 1HH2 ARG C   9       3.397 -33.525 -11.184  1.00 40.08 LIG 0.17  HD
ATOM     61 2HH2 ARG C   9       4.583 -34.376 -10.886  1.00 40.08 LIG 0.17  HD
ENDBRANCH 52 53
ENDBRANCH 51 52
ENDBRANCH 50 51
ENDBRANCH 40 50
ENDBRANCH 38 40
ENDBRANCH 4 36
TORSDOF 20
ENDMDL
MODEL 43
USER: ADFR SOLUTION from run 83
USER: SCORE 19.123503 LL:  -3.086 LR: -17.106 RR:   0.000 FEB: -11.140
USER: RMSD 9.525307
USER: SEED 82
USER: STATUS no improvement in best in 24 clusters for 5 generations
USER: GENES 22
USER: genes 0 Translation |==|  0.61857 0.46504 0.53284
USER: genes 1 Rotation |==|  0.97546 0.39679 0.60864 0.53852
USER: genes 2 Torsion [N]-C--CA-[N] |==|  0.92804
USER: genes 3 Torsion [C]-CA--N-[C] |==|  0.59729
USER: genes 4 Torsion [N]-C--CA-[N] |==|  0.07443
USER: genes 5 Torsion [C]-CA--CB-[CG] |==|  0.30933
USER: genes 6 Torsion [CA]-CB--CG-[CD1] |==|  0.76751
USER: genes 7 Torsion [CE1]-CZ--OH-[HH] |==|  0.13662
USER: genes 8 Torsion [C]-CA--N-[C] |==|  0.17731
USER: genes 9 Torsion [N]-C--CA-[N] |==|  0.73844
USER: genes 10 Torsion [C]-CA--CB-[OG] |==|  0.46295
USER: genes 11 Torsion [CA]-CB--OG-[HG] |==|  0.74173
USER: genes 12 Torsion [C]-CA--CB-[CG] |==|  0.74369
USER: genes 13 Torsion [CA]-CB--CG-[CD2] |==|  0.58174
USER: genes 14 Torsion [N]-CA--C-[O] |==|  0.90382
USER: genes 15 Torsion [C]-N--CA-[CB] |==|  0.88241
USER: genes 16 Torsion [N]-CA--C-[N] |==|  0.35000
USER: genes 17 Torsion [N]-CA--C-[O] |==|  0.44120
USER: genes 18 Torsion [N]-CA--CB-[CG] |==|  0.31263
USER: genes 19 Torsion [CA]-CB--CG-[CD] |==|  0.46565
USER: genes 20 Torsion [CB]-CG--CD-[NE] |==|  0.30450
USER: genes 21 Torsion [CG]-CD--NE-[HE] |==|  0.65255
ROOT
ATOM      1  C   LEU C   7      -0.722 -33.367  -9.197  1.00 32.10 LIG 0.24  C 
ATOM      2 O    LEU C   7      -1.963 -33.347  -9.062  1.00 36.06 LIG-0.27  OA
ATOM      3  N   PRO C   8       0.122 -33.684  -8.186  1.00 34.15 LIG-0.34  N 
ATOM      4  CA  PRO C   8      -0.544 -33.958  -6.928  1.00 36.52 LIG 0.18  C 
ATOM      5  CB  PRO C   8       0.608 -34.298  -5.952  1.00 33.63 LIG 0.04  C 
ATOM      6  CG  PRO C   8       1.683 -34.842  -6.828  1.00 36.13 LIG 0.02  C 
ATOM      7  CD  PRO C   8       1.557 -34.065  -8.142  1.00 34.25 LIG 0.13  C 
ENDROOT
BRANCH 1 8
ATOM      8  CA  LEU C   7      -0.120 -33.128 -10.596  1.00 27.99 LIG 0.18  C 
BRANCH 8 9
ATOM      9  N   LEU C   7       1.289 -32.683 -10.612  1.00 26.55 LIG-0.35  N 
ATOM     10 H    LEU C   7       1.801 -33.005 -10.002  1.00 26.55 LIG 0.16  HD
ATOM     11  C   TYR C   6       1.634 -31.843 -11.545  1.00 27.48 LIG 0.24  C 
ATOM     12 O    TYR C   6       0.796 -31.486 -12.422  1.00 27.70 LIG-0.27  OA
BRANCH 11 13
ATOM     13  CA  TYR C   6       3.029 -31.286 -11.461  1.00 25.37 LIG 0.18  C 
BRANCH 13 14
ATOM     14  CB  TYR C   6       3.554 -30.969 -12.874  1.00 25.99 LIG 0.07  C 
BRANCH 14 15
ATOM     15  CG  TYR C   6       3.733 -29.490 -13.196  1.00 32.28 LIG-0.06  A 
ATOM     16  CD1 TYR C   6       2.657 -28.714 -13.633  1.00 32.91 LIG 0.01  A 
ATOM     17  CE1 TYR C   6       2.807 -27.370 -13.921  1.00 37.22 LIG 0.04  A 
ATOM     18  CZ  TYR C   6       4.059 -26.784 -13.790  1.00 40.59 LIG 0.07  A 
ATOM     19  CE2 TYR C   6       5.159 -27.535 -13.375  1.00 40.82 LIG 0.04  A 
ATOM     20  CD2 TYR C   6       4.991 -28.886 -13.091  1.00 36.01 LIG 0.01  A 
BRANCH 18 21
ATOM     21 OH   TYR C   6       4.184 -25.440 -14.078  1.00 45.73 LIG-0.36  OA
ATOM     22 HH   TYR C   6       3.582 -25.011 -13.679  1.00 45.73 LIG 0.22  HD
ENDBRANCH 18 21
ENDBRANCH 14 15
ENDBRANCH 13 14
BRANCH 13 23
ATOM     23  N   TYR C   6       3.943 -32.148 -10.793  1.00 26.32 LIG-0.34  N 
ATOM     24 H    TYR C   6       4.272 -31.839 -10.061  1.00 26.32 LIG 0.16  HD
ATOM     25  C   SER C   5       4.222 -33.317 -11.306  1.00 29.69 LIG 0.26  C 
ATOM     26 O    SER C   5       3.777 -33.672 -12.443  1.00 27.24 LIG-0.27  OA
BRANCH 25 27
ATOM     27  CA  SER C   5       5.062 -34.254 -10.371  1.00 35.45 LIG 0.42  C 
ATOM     28  N   SER C   5       6.511 -34.118 -10.672  1.00 39.53 LIG 0.62  N 
BRANCH 27 29
ATOM     29  CB  SER C   5       4.804 -34.018  -8.885  1.00 42.03 LIG 0.21  C 
BRANCH 29 30
ATOM     30 OG   SER C   5       5.321 -35.044  -8.067  1.00 42.36 LIG-0.40  OA
ATOM     31 HG   SER C   5       4.725 -35.620  -7.927  1.00 42.36 LIG 0.21  HD
ENDBRANCH 29 30
ENDBRANCH 27 29
ENDBRANCH 25 27
ENDBRANCH 13 23
ENDBRANCH 11 13
ENDBRANCH 8 9
BRANCH 8 32
ATOM     32  CB  LEU C   7      -0.292 -34.306 -11.482  1.00 26.58 LIG 0.04  C 
BRANCH 32 33
ATOM     33  CG  LEU C   7       1.002 -35.117 -11.277  1.00 24.49 LIG-0.02  C 
ATOM     34  CD2 LEU C   7       1.256 -35.848 -12.563  1.00 27.30 LIG 0.01  C 
ATOM     35  CD1 LEU C   7       0.692 -36.150 -10.205  1.00 29.65 LIG 0.01  C 
ENDBRANCH 32 33
ENDBRANCH 8 32
ENDBRANCH 1 8
BRANCH 4 36
ATOM     36  C   PRO C   8      -1.397 -32.752  -6.502  1.00 40.02 LIG 0.24  C 
ATOM     37 O    PRO C   8      -1.038 -31.605  -6.740  1.00 40.33 LIG-0.27  OA
ATOM     38  N   ARG C   9      -2.568 -33.059  -5.969  1.00 39.93 LIG-0.35  N 
ATOM     39 H    ARG C   9      -2.833 -33.873  -5.885  1.00 39.93 LIG 0.16  HD
BRANCH 38 40
ATOM     40  CA  ARG C   9      -3.535 -32.097  -5.467  1.00 44.47 LIG 0.18  C 
BRANCH 40 41
ATOM     41  C   ARG C   9      -4.336 -31.528  -6.675  1.00 44.78 LIG 0.24  C 
ATOM     42  N   PRO C  10      -5.691 -31.595  -6.639  1.00 46.18 LIG-0.34  N 
ATOM     43  CA  PRO C  10      -6.572 -31.127  -7.755  1.00 48.25 LIG 0.17  C 
ATOM     44  CD  PRO C  10      -6.461 -32.255  -5.562  1.00 48.73 LIG 0.13  C 
ATOM     45  CB  PRO C  10      -7.998 -31.447  -7.262  1.00 49.47 LIG 0.04  C 
ATOM     46  CG  PRO C  10      -7.834 -32.442  -6.157  1.00 52.76 LIG 0.02  C 
ATOM     47 O    ARG C   9      -3.724 -31.082  -7.650  1.00 45.76 LIG-0.27  OA
BRANCH 43 48
ATOM     48  C   PRO C  10      -6.510 -29.630  -8.100  1.00 47.63 LIG 0.22  C 
ATOM     49 O    PRO C  10      -6.875 -29.229  -9.203  1.00 46.26 LIG-0.29  OA
ENDBRANCH 43 48
ENDBRANCH 40 41
BRANCH 40 50
ATOM     50  CB  ARG C   9      -2.768 -30.994  -4.667  1.00 49.80 LIG 0.04  C 
BRANCH 50 51
ATOM     51  CG  ARG C   9      -2.788 -29.595  -5.319  1.00 51.68 LIG 0.02  C 
BRANCH 51 52
ATOM     52  CD  ARG C   9      -2.290 -28.455  -4.371  1.00 46.90 LIG 0.14  C 
BRANCH 52 53
ATOM     53  NE  ARG C   9      -0.993 -27.966  -4.830  1.00 50.11 LIG-0.23  N 
ATOM     54 HE   ARG C   9      -0.355 -27.976  -4.253  1.00 50.11 LIG 0.18  HD
ATOM     55  CZ  ARG C   9      -0.687 -27.508  -6.040  1.00 44.95 LIG 0.67  C 
ATOM     56  NH1 ARG C   9       0.538 -27.113  -6.260  1.00 55.49 LIG-0.23  N 
ATOM     57  NH2 ARG C   9      -1.559 -27.447  -7.007  1.00 40.08 LIG-0.23  N 
ATOM     58 1HH1 ARG C   9       1.122 -27.153  -5.630  1.00 55.49 LIG 0.17  HD
ATOM     59 2HH1 ARG C   9       0.760 -26.812  -7.034  1.00 55.49 LIG 0.17  HD
ATOM     60 1HH2 ARG C   9      -2.367 -27.709  -6.875  1.00 40.08 LIG 0.17  HD
ATOM     61 2HH2 ARG C   9      -1.326 -27.144  -7.778  1.00 40.08 LIG 0.17  HD
ENDBRANCH 52 53
ENDBRANCH 51 52
ENDBRANCH 50 51
ENDBRANCH 40 50
ENDBRANCH 38 40
ENDBRANCH 4 36
TORSDOF 20
ENDMDL
MODEL 44
USER: ADFR SOLUTION from run 44
USER: SCORE 18.457761 LL:  -2.636 LR: -17.075 RR:   0.000 FEB: -11.109
USER: RMSD 10.840120
USER: SEED 43
USER: STATUS no improvement in best in 7 clusters for 5 generations
USER: GENES 22
USER: genes 0 Translation |==|  0.63888 0.41162 0.64450
USER: genes 1 Rotation |==|  0.65713 0.91605 0.40596 0.70825
USER: genes 2 Torsion [N]-C--CA-[N] |==|  0.18336
USER: genes 3 Torsion [C]-CA--N-[C] |==|  0.71261
USER: genes 4 Torsion [N]-C--CA-[N] |==|  0.07759
USER: genes 5 Torsion [C]-CA--CB-[CG] |==|  0.52233
USER: genes 6 Torsion [CA]-CB--CG-[CD1] |==|  0.94091
USER: genes 7 Torsion [CE1]-CZ--OH-[HH] |==|  0.01132
USER: genes 8 Torsion [C]-CA--N-[C] |==|  0.72286
USER: genes 9 Torsion [N]-C--CA-[N] |==|  0.37973
USER: genes 10 Torsion [C]-CA--CB-[OG] |==|  0.05792
USER: genes 11 Torsion [CA]-CB--OG-[HG] |==|  0.28928
USER: genes 12 Torsion [C]-CA--CB-[CG] |==|  0.30720
USER: genes 13 Torsion [CA]-CB--CG-[CD2] |==|  0.93923
USER: genes 14 Torsion [N]-CA--C-[O] |==|  0.97016
USER: genes 15 Torsion [C]-N--CA-[CB] |==|  0.51141
USER: genes 16 Torsion [N]-CA--C-[N] |==|  0.49909
USER: genes 17 Torsion [N]-CA--C-[O] |==|  0.25479
USER: genes 18 Torsion [N]-CA--CB-[CG] |==|  0.84713
USER: genes 19 Torsion [CA]-CB--CG-[CD] |==|  0.38076
USER: genes 20 Torsion [CB]-CG--CD-[NE] |==|  0.66707
USER: genes 21 Torsion [CG]-CD--NE-[HE] |==|  0.80797
ROOT
ATOM      1  C   LEU C   7      -0.296 -34.329  -6.434  1.00 32.10 LIG 0.24  C 
ATOM      2 O    LEU C   7       0.152 -33.959  -5.328  1.00 36.06 LIG-0.27  OA
ATOM      3  N   PRO C   8      -1.170 -33.589  -7.157  1.00 34.15 LIG-0.34  N 
ATOM      4  CA  PRO C   8      -1.567 -32.351  -6.513  1.00 36.52 LIG 0.18  C 
ATOM      5  CB  PRO C   8      -2.541 -31.693  -7.520  1.00 33.63 LIG 0.04  C 
ATOM      6  CG  PRO C   8      -2.106 -32.213  -8.846  1.00 36.13 LIG 0.02  C 
ATOM      7  CD  PRO C   8      -1.614 -33.638  -8.574  1.00 34.25 LIG 0.13  C 
ENDROOT
BRANCH 1 8
ATOM      8  CA  LEU C   7       0.245 -35.629  -7.060  1.00 27.99 LIG 0.18  C 
BRANCH 8 9
ATOM      9  N   LEU C   7       1.100 -35.451  -8.251  1.00 26.55 LIG-0.35  N 
ATOM     10 H    LEU C   7       1.906 -35.189  -8.111  1.00 26.55 LIG 0.16  HD
ATOM     11  C   TYR C   6       0.564 -35.706  -9.411  1.00 27.48 LIG 0.24  C 
ATOM     12 O    TYR C   6      -0.622 -36.143  -9.481  1.00 27.70 LIG-0.27  OA
BRANCH 11 13
ATOM     13  CA  TYR C   6       1.397 -35.381 -10.619  1.00 25.37 LIG 0.18  C 
BRANCH 13 14
ATOM     14  CB  TYR C   6       1.029 -36.325 -11.780  1.00 25.99 LIG 0.07  C 
BRANCH 14 15
ATOM     15  CG  TYR C   6       1.925 -36.239 -13.011  1.00 32.28 LIG-0.06  A 
ATOM     16  CD1 TYR C   6       2.699 -35.102 -13.258  1.00 32.91 LIG 0.01  A 
ATOM     17  CE1 TYR C   6       3.520 -35.017 -14.367  1.00 37.22 LIG 0.04  A 
ATOM     18  CZ  TYR C   6       3.563 -36.077 -15.263  1.00 40.59 LIG 0.07  A 
ATOM     19  CE2 TYR C   6       2.788 -37.219 -15.056  1.00 40.82 LIG 0.04  A 
ATOM     20  CD2 TYR C   6       1.966 -37.287 -13.936  1.00 36.01 LIG 0.01  A 
BRANCH 18 21
ATOM     21 OH   TYR C   6       4.393 -35.971 -16.360  1.00 45.73 LIG-0.36  OA
ATOM     22 HH   TYR C   6       4.831 -35.257 -16.312  1.00 45.73 LIG 0.22  HD
ENDBRANCH 18 21
ENDBRANCH 14 15
ENDBRANCH 13 14
BRANCH 13 23
ATOM     23  N   TYR C   6       2.797 -35.445 -10.375  1.00 26.32 LIG-0.34  N 
ATOM     24 H    TYR C   6       3.136 -36.235 -10.385  1.00 26.32 LIG 0.16  HD
ATOM     25  C   SER C   5       3.466 -34.344 -10.157  1.00 29.69 LIG 0.26  C 
ATOM     26 O    SER C   5       2.886 -33.218 -10.056  1.00 27.24 LIG-0.27  OA
BRANCH 25 27
ATOM     27  CA  SER C   5       5.024 -34.525 -10.123  1.00 35.45 LIG 0.42  C 
ATOM     28  N   SER C   5       5.686 -33.429 -10.877  1.00 39.53 LIG 0.62  N 
BRANCH 27 29
ATOM     29  CB  SER C   5       5.592 -34.617  -8.709  1.00 42.03 LIG 0.21  C 
BRANCH 29 30
ATOM     30 OG   SER C   5       4.627 -34.988  -7.751  1.00 42.36 LIG-0.40  OA
ATOM     31 HG   SER C   5       4.738 -35.793  -7.537  1.00 42.36 LIG 0.21  HD
ENDBRANCH 29 30
ENDBRANCH 27 29
ENDBRANCH 25 27
ENDBRANCH 13 23
ENDBRANCH 11 13
ENDBRANCH 8 9
BRANCH 8 32
ATOM     32  CB  LEU C   7       0.935 -36.482  -6.061  1.00 26.58 LIG 0.04  C 
BRANCH 32 33
ATOM     33  CG  LEU C   7      -0.003 -37.693  -5.896  1.00 24.49 LIG-0.02  C 
ATOM     34  CD2 LEU C   7      -1.362 -37.244  -6.347  1.00 27.30 LIG 0.01  C 
ATOM     35  CD1 LEU C   7      -0.075 -37.976  -4.404  1.00 29.65 LIG 0.01  C 
ENDBRANCH 32 33
ENDBRANCH 8 32
ENDBRANCH 1 8
BRANCH 4 36
ATOM     36  C   PRO C   8      -2.184 -32.642  -5.136  1.00 40.02 LIG 0.24  C 
ATOM     37 O    PRO C   8      -2.468 -33.783  -4.794  1.00 40.33 LIG-0.27  OA
ATOM     38  N   ARG C   9      -2.276 -31.592  -4.336  1.00 39.93 LIG-0.35  N 
ATOM     39 H    ARG C   9      -1.995 -30.813  -4.568  1.00 39.93 LIG 0.16  HD
BRANCH 38 40
ATOM     40  CA  ARG C   9      -2.846 -31.607  -2.999  1.00 44.47 LIG 0.18  C 
BRANCH 40 41
ATOM     41  C   ARG C   9      -4.269 -32.238  -3.077  1.00 44.78 LIG 0.24  C 
ATOM     42  N   PRO C  10      -4.984 -32.357  -1.930  1.00 46.18 LIG-0.34  N 
ATOM     43  CA  PRO C  10      -6.340 -32.987  -1.863  1.00 48.25 LIG 0.17  C 
ATOM     44  CD  PRO C  10      -4.467 -32.006  -0.589  1.00 48.73 LIG 0.13  C 
ATOM     45  CB  PRO C  10      -6.707 -32.921  -0.367  1.00 49.47 LIG 0.04  C 
ATOM     46  CG  PRO C  10      -5.420 -32.688   0.359  1.00 52.76 LIG 0.02  C 
ATOM     47 O    ARG C   9      -4.685 -32.658  -4.161  1.00 45.76 LIG-0.27  OA
BRANCH 43 48
ATOM     48  C   PRO C  10      -7.459 -32.299  -2.661  1.00 47.63 LIG 0.22  C 
ATOM     49 O    PRO C  10      -7.699 -32.639  -3.818  1.00 46.26 LIG-0.29  OA
ENDBRANCH 43 48
ENDBRANCH 40 41
BRANCH 40 50
ATOM     50  CB  ARG C   9      -2.855 -30.144  -2.447  1.00 49.80 LIG 0.04  C 
BRANCH 50 51
ATOM     51  CG  ARG C   9      -1.481 -29.443  -2.460  1.00 51.68 LIG 0.02  C 
BRANCH 51 52
ATOM     52  CD  ARG C   9      -1.539 -27.959  -2.951  1.00 46.90 LIG 0.14  C 
BRANCH 52 53
ATOM     53  NE  ARG C   9      -0.705 -27.802  -4.139  1.00 50.11 LIG-0.23  N 
ATOM     54 HE   ARG C   9       0.144 -27.866  -4.022  1.00 50.11 LIG 0.18  HD
ATOM     55  CZ  ARG C   9      -1.112 -27.570  -5.383  1.00 44.95 LIG 0.67  C 
ATOM     56  NH1 ARG C   9      -0.208 -27.460  -6.319  1.00 55.49 LIG-0.23  N 
ATOM     57  NH2 ARG C   9      -2.372 -27.459  -5.700  1.00 40.08 LIG-0.23  N 
ATOM     58 1HH1 ARG C   9       0.626 -27.537  -6.123  1.00 55.49 LIG 0.17  HD
ATOM     59 2HH1 ARG C   9      -0.446 -27.309  -7.132  1.00 55.49 LIG 0.17  HD
ATOM     60 1HH2 ARG C   9      -2.976 -27.535  -5.093  1.00 40.08 LIG 0.17  HD
ATOM     61 2HH2 ARG C   9      -2.599 -27.308  -6.516  1.00 40.08 LIG 0.17  HD
ENDBRANCH 52 53
ENDBRANCH 51 52
ENDBRANCH 50 51
ENDBRANCH 40 50
ENDBRANCH 38 40
ENDBRANCH 4 36
TORSDOF 20
ENDMDL
MODEL 45
USER: ADFR SOLUTION from run 101
USER: SCORE 17.941873 LL:  -2.997 LR: -17.043 RR:   0.000 FEB: -11.077
USER: RMSD 9.696451
USER: SEED 100
USER: STATUS no improvement in best in 10 clusters for 5 generations
USER: GENES 22
USER: genes 0 Translation |==|  0.60793 0.45581 0.52472
USER: genes 1 Rotation |==|  0.92228 0.29660 0.66304 0.56109
USER: genes 2 Torsion [N]-C--CA-[N] |==|  0.47519
USER: genes 3 Torsion [C]-CA--N-[C] |==|  0.18289
USER: genes 4 Torsion [N]-C--CA-[N] |==|  0.44833
USER: genes 5 Torsion [C]-CA--CB-[CG] |==|  0.86791
USER: genes 6 Torsion [CA]-CB--CG-[CD1] |==|  0.27254
USER: genes 7 Torsion [CE1]-CZ--OH-[HH] |==|  0.83427
USER: genes 8 Torsion [C]-CA--N-[C] |==|  0.63361
USER: genes 9 Torsion [N]-C--CA-[N] |==|  0.68282
USER: genes 10 Torsion [C]-CA--CB-[OG] |==|  0.63132
USER: genes 11 Torsion [CA]-CB--OG-[HG] |==|  0.43711
USER: genes 12 Torsion [C]-CA--CB-[CG] |==|  0.37707
USER: genes 13 Torsion [CA]-CB--CG-[CD2] |==|  0.95302
USER: genes 14 Torsion [N]-CA--C-[O] |==|  0.88689
USER: genes 15 Torsion [C]-N--CA-[CB] |==|  0.49142
USER: genes 16 Torsion [N]-CA--C-[N] |==|  0.31995
USER: genes 17 Torsion [N]-CA--C-[O] |==|  0.31450
USER: genes 18 Torsion [N]-CA--CB-[CG] |==|  0.76015
USER: genes 19 Torsion [CA]-CB--CG-[CD] |==|  0.70026
USER: genes 20 Torsion [CB]-CG--CD-[NE] |==|  0.45272
USER: genes 21 Torsion [CG]-CD--NE-[HE] |==|  0.07944
ROOT
ATOM      1  C   LEU C   7      -0.946 -33.533  -9.398  1.00 32.10 LIG 0.24  C 
ATOM      2 O    LEU C   7      -2.054 -32.996  -9.602  1.00 36.06 LIG-0.27  OA
ATOM      3  N   PRO C   8      -0.589 -34.047  -8.196  1.00 34.15 LIG-0.34  N 
ATOM      4  CA  PRO C   8      -1.593 -33.881  -7.164  1.00 36.52 LIG 0.18  C 
ATOM      5  CB  PRO C   8      -0.968 -34.545  -5.913  1.00 33.63 LIG 0.04  C 
ATOM      6  CG  PRO C   8      -0.045 -35.574  -6.466  1.00 36.13 LIG 0.02  C 
ATOM      7  CD  PRO C   8       0.493 -34.970  -7.766  1.00 34.25 LIG 0.13  C 
ENDROOT
BRANCH 1 8
ATOM      8  CA  LEU C   7       0.022 -33.722 -10.583  1.00 27.99 LIG 0.18  C 
BRANCH 8 9
ATOM      9  N   LEU C   7      -0.507 -33.326 -11.903  1.00 26.55 LIG-0.35  N 
ATOM     10 H    LEU C   7      -0.618 -33.955 -12.478  1.00 26.55 LIG 0.16  HD
ATOM     11  C   TYR C   6      -0.761 -32.061 -12.086  1.00 27.48 LIG 0.24  C 
ATOM     12 O    TYR C   6      -0.608 -31.238 -11.137  1.00 27.70 LIG-0.27  OA
BRANCH 11 13
ATOM     13  CA  TYR C   6      -1.159 -31.653 -13.477  1.00 25.37 LIG 0.18  C 
BRANCH 13 14
ATOM     14  CB  TYR C   6       0.080 -31.631 -14.392  1.00 25.99 LIG 0.07  C 
BRANCH 14 15
ATOM     15  CG  TYR C   6       1.303 -30.912 -13.832  1.00 32.28 LIG-0.06  A 
ATOM     16  CD1 TYR C   6       2.341 -31.625 -13.225  1.00 32.91 LIG 0.01  A 
ATOM     17  CE1 TYR C   6       3.456 -30.984 -12.720  1.00 37.22 LIG 0.04  A 
ATOM     18  CZ  TYR C   6       3.539 -29.601 -12.803  1.00 40.59 LIG 0.07  A 
ATOM     19  CE2 TYR C   6       2.513 -28.857 -13.385  1.00 40.82 LIG 0.04  A 
ATOM     20  CD2 TYR C   6       1.396 -29.518 -13.886  1.00 36.01 LIG 0.01  A 
BRANCH 18 21
ATOM     21 OH   TYR C   6       4.665 -28.983 -12.297  1.00 45.73 LIG-0.36  OA
ATOM     22 HH   TYR C   6       4.738 -29.160 -11.479  1.00 45.73 LIG 0.22  HD
ENDBRANCH 18 21
ENDBRANCH 14 15
ENDBRANCH 13 14
BRANCH 13 23
ATOM     23  N   TYR C   6      -1.815 -30.391 -13.531  1.00 26.32 LIG-0.34  N 
ATOM     24 H    TYR C   6      -1.429 -29.757 -13.098  1.00 26.32 LIG 0.16  HD
ATOM     25  C   SER C   5      -2.926 -30.269 -14.207  1.00 29.69 LIG 0.26  C 
ATOM     26 O    SER C   5      -3.498 -31.271 -14.740  1.00 27.24 LIG-0.27  OA
BRANCH 25 27
ATOM     27  CA  SER C   5      -3.429 -28.793 -14.372  1.00 35.45 LIG 0.42  C 
ATOM     28  N   SER C   5      -4.712 -28.601 -13.646  1.00 39.53 LIG 0.62  N 
BRANCH 27 29
ATOM     29  CB  SER C   5      -2.406 -27.751 -13.926  1.00 42.03 LIG 0.21  C 
BRANCH 29 30
ATOM     30 OG   SER C   5      -2.961 -26.755 -13.095  1.00 42.36 LIG-0.40  OA
ATOM     31 HG   SER C   5      -2.353 -26.402 -12.635  1.00 42.36 LIG 0.21  HD
ENDBRANCH 29 30
ENDBRANCH 27 29
ENDBRANCH 25 27
ENDBRANCH 13 23
ENDBRANCH 11 13
ENDBRANCH 8 9
BRANCH 8 32
ATOM     32  CB  LEU C   7       1.330 -33.064 -10.340  1.00 26.58 LIG 0.04  C 
BRANCH 32 33
ATOM     33  CG  LEU C   7       2.363 -34.109 -10.803  1.00 24.49 LIG-0.02  C 
ATOM     34  CD2 LEU C   7       1.636 -35.421 -10.879  1.00 27.30 LIG 0.01  C 
ATOM     35  CD1 LEU C   7       3.395 -34.211  -9.690  1.00 29.65 LIG 0.01  C 
ENDBRANCH 32 33
ENDBRANCH 8 32
ENDBRANCH 1 8
BRANCH 4 36
ATOM     36  C   PRO C   8      -1.932 -32.392  -6.986  1.00 40.02 LIG 0.24  C 
ATOM     37 O    PRO C   8      -1.059 -31.534  -7.010  1.00 40.33 LIG-0.27  OA
ATOM     38  N   ARG C   9      -3.225 -32.121  -6.914  1.00 39.93 LIG-0.35  N 
ATOM     39 H    ARG C   9      -3.826 -32.734  -6.980  1.00 39.93 LIG 0.16  HD
BRANCH 38 40
ATOM     40  CA  ARG C   9      -3.792 -30.797  -6.720  1.00 44.47 LIG 0.18  C 
BRANCH 40 41
ATOM     41  C   ARG C   9      -3.269 -30.230  -5.366  1.00 44.78 LIG 0.24  C 
ATOM     42  N   PRO C  10      -2.472 -29.133  -5.393  1.00 46.18 LIG-0.34  N 
ATOM     43  CA  PRO C  10      -1.868 -28.520  -4.168  1.00 48.25 LIG 0.17  C 
ATOM     44  CD  PRO C  10      -1.992 -28.485  -6.633  1.00 48.73 LIG 0.13  C 
ATOM     45  CB  PRO C  10      -1.030 -27.346  -4.714  1.00 49.47 LIG 0.04  C 
ATOM     46  CG  PRO C  10      -0.846 -27.620  -6.173  1.00 52.76 LIG 0.02  C 
ATOM     47 O    ARG C   9      -3.547 -30.819  -4.317  1.00 45.76 LIG-0.27  OA
BRANCH 43 48
ATOM     48  C   PRO C  10      -2.846 -27.964  -3.121  1.00 47.63 LIG 0.22  C 
ATOM     49 O    PRO C  10      -2.940 -28.489  -2.014  1.00 46.26 LIG-0.29  OA
ENDBRANCH 43 48
ENDBRANCH 40 41
BRANCH 40 50
ATOM     50  CB  ARG C   9      -5.351 -30.912  -6.773  1.00 49.80 LIG 0.04  C 
BRANCH 50 51
ATOM     51  CG  ARG C   9      -5.954 -30.832  -8.192  1.00 51.68 LIG 0.02  C 
BRANCH 51 52
ATOM     52  CD  ARG C   9      -6.707 -29.492  -8.477  1.00 46.90 LIG 0.14  C 
BRANCH 52 53
ATOM     53  NE  ARG C   9      -6.886 -29.325  -9.916  1.00 50.11 LIG-0.23  N 
ATOM     54 HE   ARG C   9      -6.939 -30.046 -10.381  1.00 50.11 LIG 0.18  HD
ATOM     55  CZ  ARG C   9      -6.976 -28.182 -10.589  1.00 44.95 LIG 0.67  C 
ATOM     56  NH1 ARG C   9      -7.136 -28.237 -11.884  1.00 55.49 LIG-0.23  N 
ATOM     57  NH2 ARG C   9      -6.919 -27.018 -10.006  1.00 40.08 LIG-0.23  N 
ATOM     58 1HH1 ARG C   9      -7.180 -29.000 -12.280  1.00 55.49 LIG 0.17  HD
ATOM     59 2HH1 ARG C   9      -7.196 -27.512 -12.342  1.00 55.49 LIG 0.17  HD
ATOM     60 1HH2 ARG C   9      -6.819 -26.969  -9.153  1.00 40.08 LIG 0.17  HD
ATOM     61 2HH2 ARG C   9      -6.980 -26.298 -10.473  1.00 40.08 LIG 0.17  HD
ENDBRANCH 52 53
ENDBRANCH 51 52
ENDBRANCH 50 51
ENDBRANCH 40 50
ENDBRANCH 38 40
ENDBRANCH 4 36
TORSDOF 20
ENDMDL
MODEL 46
USER: ADFR SOLUTION from run 161
USER: SCORE 19.763216 LL:  -3.716 LR: -17.016 RR:   0.000 FEB: -11.050
USER: RMSD 6.018360
USER: SEED 160
USER: STATUS no improvement in best in 19 clusters for 5 generations
USER: GENES 22
USER: genes 0 Translation |==|  0.64040 0.46161 0.60628
USER: genes 1 Rotation |==|  0.55811 0.24659 0.22395 0.82589
USER: genes 2 Torsion [N]-C--CA-[N] |==|  0.37921
USER: genes 3 Torsion [C]-CA--N-[C] |==|  0.62413
USER: genes 4 Torsion [N]-C--CA-[N] |==|  0.62229
USER: genes 5 Torsion [C]-CA--CB-[CG] |==|  0.52077
USER: genes 6 Torsion [CA]-CB--CG-[CD1] |==|  0.73042
USER: genes 7 Torsion [CE1]-CZ--OH-[HH] |==|  0.59657
USER: genes 8 Torsion [C]-CA--N-[C] |==|  0.15132
USER: genes 9 Torsion [N]-C--CA-[N] |==|  0.89568
USER: genes 10 Torsion [C]-CA--CB-[OG] |==|  0.42598
USER: genes 11 Torsion [CA]-CB--OG-[HG] |==|  0.60039
USER: genes 12 Torsion [C]-CA--CB-[CG] |==|  0.04412
USER: genes 13 Torsion [CA]-CB--CG-[CD2] |==|  0.61289
USER: genes 14 Torsion [N]-CA--C-[O] |==|  0.81275
USER: genes 15 Torsion [C]-N--CA-[CB] |==|  0.86996
USER: genes 16 Torsion [N]-CA--C-[N] |==|  0.35905
USER: genes 17 Torsion [N]-CA--C-[O] |==|  0.77517
USER: genes 18 Torsion [N]-CA--CB-[CG] |==|  0.42745
USER: genes 19 Torsion [CA]-CB--CG-[CD] |==|  0.75694
USER: genes 20 Torsion [CB]-CG--CD-[NE] |==|  0.72783
USER: genes 21 Torsion [CG]-CD--NE-[HE] |==|  0.92930
ROOT
ATOM      1  C   LEU C   7      -0.264 -33.429  -7.380  1.00 32.10 LIG 0.24  C 
ATOM      2 O    LEU C   7       0.640 -32.677  -7.800  1.00 36.06 LIG-0.27  OA
ATOM      3  N   PRO C   8      -0.028 -34.694  -6.955  1.00 34.15 LIG-0.34  N 
ATOM      4  CA  PRO C   8       1.358 -35.105  -7.070  1.00 36.52 LIG 0.18  C 
ATOM      5  CB  PRO C   8       1.373 -36.553  -6.524  1.00 33.63 LIG 0.04  C 
ATOM      6  CG  PRO C   8       0.235 -36.595  -5.564  1.00 36.13 LIG 0.02  C 
ATOM      7  CD  PRO C   8      -0.824 -35.663  -6.159  1.00 34.25 LIG 0.13  C 
ENDROOT
BRANCH 1 8
ATOM      8  CA  LEU C   7      -1.692 -32.870  -7.233  1.00 27.99 LIG 0.18  C 
BRANCH 8 9
ATOM      9  N   LEU C   7      -1.782 -31.483  -6.730  1.00 26.55 LIG-0.35  N 
ATOM     10 H    LEU C   7      -1.240 -30.913  -7.076  1.00 26.55 LIG 0.16  HD
ATOM     11  C   TYR C   6      -2.671 -31.242  -5.809  1.00 27.48 LIG 0.24  C 
ATOM     12 O    TYR C   6      -3.451 -32.160  -5.422  1.00 27.70 LIG-0.27  OA
BRANCH 11 13
ATOM     13  CA  TYR C   6      -2.651 -29.866  -5.204  1.00 25.37 LIG 0.18  C 
BRANCH 13 14
ATOM     14  CB  TYR C   6      -1.353 -29.137  -5.601  1.00 25.99 LIG 0.07  C 
BRANCH 14 15
ATOM     15  CG  TYR C   6      -1.113 -27.796  -4.916  1.00 32.28 LIG-0.06  A 
ATOM     16  CD1 TYR C   6      -1.452 -26.596  -5.545  1.00 32.91 LIG 0.01  A 
ATOM     17  CE1 TYR C   6      -1.245 -25.376  -4.929  1.00 37.22 LIG 0.04  A 
ATOM     18  CZ  TYR C   6      -0.671 -25.342  -3.666  1.00 40.59 LIG 0.07  A 
ATOM     19  CE2 TYR C   6      -0.302 -26.521  -3.017  1.00 40.82 LIG 0.04  A 
ATOM     20  CD2 TYR C   6      -0.516 -27.740  -3.652  1.00 36.01 LIG 0.01  A 
BRANCH 18 21
ATOM     21 OH   TYR C   6      -0.478 -24.113  -3.069  1.00 45.73 LIG-0.36  OA
ATOM     22 HH   TYR C   6       0.228 -24.130  -2.614  1.00 45.73 LIG 0.22  HD
ENDBRANCH 18 21
ENDBRANCH 14 15
ENDBRANCH 13 14
BRANCH 13 23
ATOM     23  N   TYR C   6      -2.785 -29.868  -3.788  1.00 26.32 LIG-0.34  N 
ATOM     24 H    TYR C   6      -3.423 -29.383  -3.478  1.00 26.32 LIG 0.16  HD
ATOM     25  C   SER C   5      -1.963 -30.579  -3.062  1.00 29.69 LIG 0.26  C 
ATOM     26 O    SER C   5      -0.978 -31.195  -3.577  1.00 27.24 LIG-0.27  OA
BRANCH 25 27
ATOM     27  CA  SER C   5      -2.349 -30.674  -1.545  1.00 35.45 LIG 0.42  C 
ATOM     28  N   SER C   5      -2.904 -29.378  -1.073  1.00 39.53 LIG 0.62  N 
BRANCH 27 29
ATOM     29  CB  SER C   5      -3.320 -31.811  -1.236  1.00 42.03 LIG 0.21  C 
BRANCH 29 30
ATOM     30 OG   SER C   5      -3.212 -32.282   0.089  1.00 42.36 LIG-0.40  OA
ATOM     31 HG   SER C   5      -3.332 -33.113   0.103  1.00 42.36 LIG 0.21  HD
ENDBRANCH 29 30
ENDBRANCH 27 29
ENDBRANCH 25 27
ENDBRANCH 13 23
ENDBRANCH 11 13
ENDBRANCH 8 9
BRANCH 8 32
ATOM     32  CB  LEU C   7      -2.474 -33.009  -8.486  1.00 26.58 LIG 0.04  C 
BRANCH 32 33
ATOM     33  CG  LEU C   7      -1.669 -34.028  -9.314  1.00 24.49 LIG-0.02  C 
ATOM     34  CD2 LEU C   7      -1.689 -33.536 -10.732  1.00 27.30 LIG 0.01  C 
ATOM     35  CD1 LEU C   7      -2.450 -35.332  -9.260  1.00 29.65 LIG 0.01  C 
ENDBRANCH 32 33
ENDBRANCH 8 32
ENDBRANCH 1 8
BRANCH 4 36
ATOM     36  C   PRO C   8       1.833 -34.974  -8.526  1.00 40.02 LIG 0.24  C 
ATOM     37 O    PRO C   8       1.382 -35.693  -9.409  1.00 40.33 LIG-0.27  OA
ATOM     38  N   ARG C   9       2.667 -33.972  -8.751  1.00 39.93 LIG-0.35  N 
ATOM     39 H    ARG C   9       2.908 -33.429  -8.129  1.00 39.93 LIG 0.16  HD
BRANCH 38 40
ATOM     40  CA  ARG C   9       3.273 -33.661 -10.035  1.00 44.47 LIG 0.18  C 
BRANCH 40 41
ATOM     41  C   ARG C   9       2.201 -32.973 -10.932  1.00 44.78 LIG 0.24  C 
ATOM     42  N   PRO C  10       2.523 -31.803 -11.538  1.00 46.18 LIG-0.34  N 
ATOM     43  CA  PRO C  10       1.569 -31.020 -12.386  1.00 48.25 LIG 0.17  C 
ATOM     44  CD  PRO C  10       3.802 -31.087 -11.335  1.00 48.73 LIG 0.13  C 
ATOM     45  CB  PRO C  10       2.378 -29.776 -12.804  1.00 49.47 LIG 0.04  C 
ATOM     46  CG  PRO C  10       3.528 -29.697 -11.851  1.00 52.76 LIG 0.02  C 
ATOM     47 O    ARG C   9       1.077 -33.477 -11.025  1.00 45.76 LIG-0.27  OA
BRANCH 43 48
ATOM     48  C   PRO C  10       1.056 -31.708 -13.660  1.00 47.63 LIG 0.22  C 
ATOM     49 O    PRO C  10       1.742 -31.726 -14.680  1.00 46.26 LIG-0.29  OA
ENDBRANCH 43 48
ENDBRANCH 40 41
BRANCH 40 50
ATOM     50  CB  ARG C   9       3.830 -34.985 -10.654  1.00 49.80 LIG 0.04  C 
BRANCH 50 51
ATOM     51  CG  ARG C   9       3.920 -34.987 -12.195  1.00 51.68 LIG 0.02  C 
BRANCH 51 52
ATOM     52  CD  ARG C   9       2.603 -35.453 -12.899  1.00 46.90 LIG 0.14  C 
BRANCH 52 53
ATOM     53  NE  ARG C   9       2.713 -36.862 -13.263  1.00 50.11 LIG-0.23  N 
ATOM     54 HE   ARG C   9       3.509 -37.166 -13.382  1.00 50.11 LIG 0.18  HD
ATOM     55  CZ  ARG C   9       1.720 -37.730 -13.432  1.00 44.95 LIG 0.67  C 
ATOM     56  NH1 ARG C   9       2.020 -38.958 -13.760  1.00 55.49 LIG-0.23  N 
ATOM     57  NH2 ARG C   9       0.468 -37.402 -13.275  1.00 40.08 LIG-0.23  N 
ATOM     58 1HH1 ARG C   9       2.843 -39.187 -13.861  1.00 55.49 LIG 0.17  HD
ATOM     59 2HH1 ARG C   9       1.396 -39.538 -13.875  1.00 55.49 LIG 0.17  HD
ATOM     60 1HH2 ARG C   9       0.259 -36.598 -13.054  1.00 40.08 LIG 0.17  HD
ATOM     61 2HH2 ARG C   9      -0.149 -37.990 -13.393  1.00 40.08 LIG 0.17  HD
ENDBRANCH 52 53
ENDBRANCH 51 52
ENDBRANCH 50 51
ENDBRANCH 40 50
ENDBRANCH 38 40
ENDBRANCH 4 36
TORSDOF 20
ENDMDL
MODEL 47
USER: ADFR SOLUTION from run 161
USER: SCORE 19.979754 LL:  -3.609 LR: -17.011 RR:   0.000 FEB: -11.045
USER: RMSD 6.147355
USER: SEED 160
USER: STATUS no improvement in best in 19 clusters for 5 generations
USER: GENES 22
USER: genes 0 Translation |==|  0.63872 0.44039 0.62125
USER: genes 1 Rotation |==|  0.58060 0.27387 0.18609 0.80631
USER: genes 2 Torsion [N]-C--CA-[N] |==|  0.36473
USER: genes 3 Torsion [C]-CA--N-[C] |==|  0.62809
USER: genes 4 Torsion [N]-C--CA-[N] |==|  0.08677
USER: genes 5 Torsion [C]-CA--CB-[CG] |==|  0.26474
USER: genes 6 Torsion [CA]-CB--CG-[CD1] |==|  0.67475
USER: genes 7 Torsion [CE1]-CZ--OH-[HH] |==|  0.20757
USER: genes 8 Torsion [C]-CA--N-[C] |==|  0.61183
USER: genes 9 Torsion [N]-C--CA-[N] |==|  0.54666
USER: genes 10 Torsion [C]-CA--CB-[OG] |==|  0.46761
USER: genes 11 Torsion [CA]-CB--OG-[HG] |==|  0.44037
USER: genes 12 Torsion [C]-CA--CB-[CG] |==|  0.01201
USER: genes 13 Torsion [CA]-CB--CG-[CD2] |==|  0.63703
USER: genes 14 Torsion [N]-CA--C-[O] |==|  0.81258
USER: genes 15 Torsion [C]-N--CA-[CB] |==|  0.84444
USER: genes 16 Torsion [N]-CA--C-[N] |==|  0.38696
USER: genes 17 Torsion [N]-CA--C-[O] |==|  0.79887
USER: genes 18 Torsion [N]-CA--CB-[CG] |==|  0.38898
USER: genes 19 Torsion [CA]-CB--CG-[CD] |==|  0.76729
USER: genes 20 Torsion [CB]-CG--CD-[NE] |==|  0.72326
USER: genes 21 Torsion [CG]-CD--NE-[HE] |==|  0.98167
ROOT
ATOM      1  C   LEU C   7      -0.299 -33.811  -7.009  1.00 32.10 LIG 0.24  C 
ATOM      2 O    LEU C   7       0.668 -33.067  -7.275  1.00 36.06 LIG-0.27  OA
ATOM      3  N   PRO C   8      -0.173 -35.151  -6.853  1.00 34.15 LIG-0.34  N 
ATOM      4  CA  PRO C   8       1.175 -35.643  -7.060  1.00 36.52 LIG 0.18  C 
ATOM      5  CB  PRO C   8       1.064 -37.169  -6.820  1.00 33.63 LIG 0.04  C 
ATOM      6  CG  PRO C   8      -0.082 -37.311  -5.880  1.00 36.13 LIG 0.02  C 
ATOM      7  CD  PRO C   8      -1.054 -36.192  -6.264  1.00 34.25 LIG 0.13  C 
ENDROOT
BRANCH 1 8
ATOM      8  CA  LEU C   7      -1.677 -33.176  -6.740  1.00 27.99 LIG 0.18  C 
BRANCH 8 9
ATOM      9  N   LEU C   7      -1.668 -31.986  -5.865  1.00 26.55 LIG-0.35  N 
ATOM     10 H    LEU C   7      -1.073 -31.389  -6.034  1.00 26.55 LIG 0.16  HD
ATOM     11  C   TYR C   6      -2.558 -31.941  -4.915  1.00 27.48 LIG 0.24  C 
ATOM     12 O    TYR C   6      -3.419 -32.861  -4.806  1.00 27.70 LIG-0.27  OA
BRANCH 11 13
ATOM     13  CA  TYR C   6      -2.442 -30.798  -3.945  1.00 25.37 LIG 0.18  C 
BRANCH 13 14
ATOM     14  CB  TYR C   6      -3.820 -30.494  -3.326  1.00 25.99 LIG 0.07  C 
BRANCH 14 15
ATOM     15  CG  TYR C   6      -4.101 -31.154  -1.981  1.00 32.28 LIG-0.06  A 
ATOM     16  CD1 TYR C   6      -5.139 -32.079  -1.836  1.00 32.91 LIG 0.01  A 
ATOM     17  CE1 TYR C   6      -5.397 -32.688  -0.623  1.00 37.22 LIG 0.04  A 
ATOM     18  CZ  TYR C   6      -4.619 -32.362   0.480  1.00 40.59 LIG 0.07  A 
ATOM     19  CE2 TYR C   6      -3.587 -31.429   0.375  1.00 40.82 LIG 0.04  A 
ATOM     20  CD2 TYR C   6      -3.342 -30.823  -0.853  1.00 36.01 LIG 0.01  A 
BRANCH 18 21
ATOM     21 OH   TYR C   6      -4.892 -32.987   1.679  1.00 45.73 LIG-0.36  OA
ATOM     22 HH   TYR C   6      -4.613 -33.779   1.652  1.00 45.73 LIG 0.22  HD
ENDBRANCH 18 21
ENDBRANCH 14 15
ENDBRANCH 13 14
BRANCH 13 23
ATOM     23  N   TYR C   6      -1.907 -29.614  -4.525  1.00 26.32 LIG-0.34  N 
ATOM     24 H    TYR C   6      -2.184 -29.436  -5.319  1.00 26.32 LIG 0.16  HD
ATOM     25  C   SER C   5      -1.055 -28.891  -3.849  1.00 29.69 LIG 0.26  C 
ATOM     26 O    SER C   5      -0.609 -29.265  -2.719  1.00 27.24 LIG-0.27  OA
BRANCH 25 27
ATOM     27  CA  SER C   5      -0.712 -27.508  -4.503  1.00 35.45 LIG 0.42  C 
ATOM     28  N   SER C   5       0.529 -26.949  -3.905  1.00 39.53 LIG 0.62  N 
BRANCH 27 29
ATOM     29  CB  SER C   5      -0.587 -27.570  -6.024  1.00 42.03 LIG 0.21  C 
BRANCH 29 30
ATOM     30 OG   SER C   5      -0.540 -26.295  -6.625  1.00 42.36 LIG-0.40  OA
ATOM     31 HG   SER C   5      -0.186 -26.356  -7.385  1.00 42.36 LIG 0.21  HD
ENDBRANCH 29 30
ENDBRANCH 27 29
ENDBRANCH 25 27
ENDBRANCH 13 23
ENDBRANCH 11 13
ENDBRANCH 8 9
BRANCH 8 32
ATOM     32  CB  LEU C   7      -2.406 -32.878  -7.998  1.00 26.58 LIG 0.04  C 
BRANCH 32 33
ATOM     33  CG  LEU C   7      -1.492 -33.447  -9.100  1.00 24.49 LIG-0.02  C 
ATOM     34  CD2 LEU C   7      -1.337 -32.363 -10.127  1.00 27.30 LIG 0.01  C 
ATOM     35  CD1 LEU C   7      -2.259 -34.593  -9.741  1.00 29.65 LIG 0.01  C 
ENDBRANCH 32 33
ENDBRANCH 8 32
ENDBRANCH 1 8
BRANCH 4 36
ATOM     36  C   PRO C   8       1.672 -35.259  -8.463  1.00 40.02 LIG 0.24  C 
ATOM     37 O    PRO C   8       1.172 -35.745  -9.470  1.00 40.33 LIG-0.27  OA
ATOM     38  N   ARG C   9       2.588 -34.305  -8.486  1.00 39.93 LIG-0.35  N 
ATOM     39 H    ARG C   9       2.867 -33.921  -7.768  1.00 39.93 LIG 0.16  HD
BRANCH 38 40
ATOM     40  CA  ARG C   9       3.229 -33.790  -9.684  1.00 44.47 LIG 0.18  C 
BRANCH 40 41
ATOM     41  C   ARG C   9       2.158 -33.042 -10.533  1.00 44.78 LIG 0.24  C 
ATOM     42  N   PRO C  10       2.511 -31.877 -11.133  1.00 46.18 LIG-0.34  N 
ATOM     43  CA  PRO C  10       1.564 -31.041 -11.935  1.00 48.25 LIG 0.17  C 
ATOM     44  CD  PRO C  10       3.826 -31.221 -10.964  1.00 48.73 LIG 0.13  C 
ATOM     45  CB  PRO C  10       2.412 -29.826 -12.363  1.00 49.47 LIG 0.04  C 
ATOM     46  CG  PRO C  10       3.596 -29.812 -11.449  1.00 52.76 LIG 0.02  C 
ATOM     47 O    ARG C   9       1.011 -33.495 -10.595  1.00 45.76 LIG-0.27  OA
BRANCH 43 48
ATOM     48  C   PRO C  10       0.978 -31.685 -13.202  1.00 47.63 LIG 0.22  C 
ATOM     49 O    PRO C  10       1.679 -31.856 -14.196  1.00 46.26 LIG-0.29  OA
ENDBRANCH 43 48
ENDBRANCH 40 41
BRANCH 40 50
ATOM     50  CB  ARG C   9       3.888 -34.987 -10.447  1.00 49.80 LIG 0.04  C 
BRANCH 50 51
ATOM     51  CG  ARG C   9       3.743 -34.929 -11.983  1.00 51.68 LIG 0.02  C 
BRANCH 51 52
ATOM     52  CD  ARG C   9       2.385 -35.499 -12.506  1.00 46.90 LIG 0.14  C 
BRANCH 52 53
ATOM     53  NE  ARG C   9       2.577 -36.865 -12.985  1.00 50.11 LIG-0.23  N 
ATOM     54 HE   ARG C   9       3.388 -37.151 -13.010  1.00 50.11 LIG 0.18  HD
ATOM     55  CZ  ARG C   9       1.639 -37.716 -13.389  1.00 44.95 LIG 0.67  C 
ATOM     56  NH1 ARG C   9       2.010 -38.904 -13.785  1.00 55.49 LIG-0.23  N 
ATOM     57  NH2 ARG C   9       0.371 -37.412 -13.394  1.00 40.08 LIG-0.23  N 
ATOM     58 1HH1 ARG C   9       2.844 -39.117 -13.781  1.00 55.49 LIG 0.17  HD
ATOM     59 2HH1 ARG C   9       1.422 -39.472 -14.051  1.00 55.49 LIG 0.17  HD
ATOM     60 1HH2 ARG C   9       0.115 -36.635 -13.131  1.00 40.08 LIG 0.17  HD
ATOM     61 2HH2 ARG C   9      -0.208 -37.988 -13.662  1.00 40.08 LIG 0.17  HD
ENDBRANCH 52 53
ENDBRANCH 51 52
ENDBRANCH 50 51
ENDBRANCH 40 50
ENDBRANCH 38 40
ENDBRANCH 4 36
TORSDOF 20
ENDMDL
MODEL 48
USER: ADFR SOLUTION from run 137
USER: SCORE 18.684505 LL:  -3.043 LR: -17.013 RR:   0.000 FEB: -11.047
USER: RMSD 4.684165
USER: SEED 136
USER: STATUS searching
USER: GENES 22
USER: genes 0 Translation |==|  0.55248 0.50669 0.57590
USER: genes 1 Rotation |==|  0.43249 0.32311 0.32562 0.92865
USER: genes 2 Torsion [N]-C--CA-[N] |==|  0.16083
USER: genes 3 Torsion [C]-CA--N-[C] |==|  0.15000
USER: genes 4 Torsion [N]-C--CA-[N] |==|  0.54092
USER: genes 5 Torsion [C]-CA--CB-[CG] |==|  0.33071
USER: genes 6 Torsion [CA]-CB--CG-[CD1] |==|  0.22828
USER: genes 7 Torsion [CE1]-CZ--OH-[HH] |==|  0.52714
USER: genes 8 Torsion [C]-CA--N-[C] |==|  0.59041
USER: genes 9 Torsion [N]-C--CA-[N] |==|  0.50977
USER: genes 10 Torsion [C]-CA--CB-[OG] |==|  0.17906
USER: genes 11 Torsion [CA]-CB--OG-[HG] |==|  0.54781
USER: genes 12 Torsion [C]-CA--CB-[CG] |==|  0.50464
USER: genes 13 Torsion [CA]-CB--CG-[CD2] |==|  0.84064
USER: genes 14 Torsion [N]-CA--C-[O] |==|  0.80504
USER: genes 15 Torsion [C]-N--CA-[CB] |==|  0.48903
USER: genes 16 Torsion [N]-CA--C-[N] |==|  0.47280
USER: genes 17 Torsion [N]-CA--C-[O] |==|  0.78862
USER: genes 18 Torsion [N]-CA--CB-[CG] |==|  0.63821
USER: genes 19 Torsion [CA]-CB--CG-[CD] |==|  0.43720
USER: genes 20 Torsion [CB]-CG--CD-[NE] |==|  0.69541
USER: genes 21 Torsion [CG]-CD--NE-[HE] |==|  0.16712
ROOT
ATOM      1  C   LEU C   7      -2.110 -32.617  -8.132  1.00 32.10 LIG 0.24  C 
ATOM      2 O    LEU C   7      -1.932 -32.046  -9.227  1.00 36.06 LIG-0.27  OA
ATOM      3  N   PRO C   8      -1.225 -33.503  -7.613  1.00 34.15 LIG-0.34  N 
ATOM      4  CA  PRO C   8      -0.077 -33.753  -8.463  1.00 36.52 LIG 0.18  C 
ATOM      5  CB  PRO C   8       0.775 -34.769  -7.663  1.00 33.63 LIG 0.04  C 
ATOM      6  CG  PRO C   8       0.434 -34.495  -6.240  1.00 36.13 LIG 0.02  C 
ATOM      7  CD  PRO C   8      -1.040 -34.078  -6.256  1.00 34.25 LIG 0.13  C 
ENDROOT
BRANCH 1 8
ATOM      8  CA  LEU C   7      -3.330 -32.227  -7.275  1.00 27.99 LIG 0.18  C 
BRANCH 8 9
ATOM      9  N   LEU C   7      -3.018 -31.643  -5.955  1.00 26.55 LIG-0.35  N 
ATOM     10 H    LEU C   7      -3.382 -32.017  -5.272  1.00 26.55 LIG 0.16  HD
ATOM     11  C   TYR C   6      -2.219 -30.614  -5.936  1.00 27.48 LIG 0.24  C 
ATOM     12 O    TYR C   6      -1.701 -30.190  -7.009  1.00 27.70 LIG-0.27  OA
BRANCH 11 13
ATOM     13  CA  TYR C   6      -2.027 -29.941  -4.605  1.00 25.37 LIG 0.18  C 
BRANCH 13 14
ATOM     14  CB  TYR C   6      -3.379 -29.828  -3.874  1.00 25.99 LIG 0.07  C 
BRANCH 14 15
ATOM     15  CG  TYR C   6      -3.467 -30.550  -2.533  1.00 32.28 LIG-0.06  A 
ATOM     16  CD1 TYR C   6      -2.974 -29.960  -1.366  1.00 32.91 LIG 0.01  A 
ATOM     17  CE1 TYR C   6      -3.056 -30.603  -0.145  1.00 37.22 LIG 0.04  A 
ATOM     18  CZ  TYR C   6      -3.624 -31.867  -0.080  1.00 40.59 LIG 0.07  A 
ATOM     19  CE2 TYR C   6      -4.109 -32.493  -1.229  1.00 40.82 LIG 0.04  A 
ATOM     20  CD2 TYR C   6      -4.017 -31.833  -2.450  1.00 36.01 LIG 0.01  A 
BRANCH 18 21
ATOM     21 OH   TYR C   6      -3.699 -32.487   1.151  1.00 45.73 LIG-0.36  OA
ATOM     22 HH   TYR C   6      -3.934 -33.287   1.048  1.00 45.73 LIG 0.22  HD
ENDBRANCH 18 21
ENDBRANCH 14 15
ENDBRANCH 13 14
BRANCH 13 23
ATOM     23  N   TYR C   6      -1.427 -28.654  -4.702  1.00 26.32 LIG-0.34  N 
ATOM     24 H    TYR C   6      -1.622 -28.211  -5.413  1.00 26.32 LIG 0.16  HD
ATOM     25  C   SER C   5      -0.643 -28.232  -3.747  1.00 29.69 LIG 0.26  C 
ATOM     26 O    SER C   5      -0.316 -28.979  -2.771  1.00 27.24 LIG-0.27  OA
BRANCH 25 27
ATOM     27  CA  SER C   5      -0.226 -26.725  -3.864  1.00 35.45 LIG 0.42  C 
ATOM     28  N   SER C   5       0.728 -26.369  -2.782  1.00 39.53 LIG 0.62  N 
BRANCH 27 29
ATOM     29  CB  SER C   5       0.357 -26.362  -5.228  1.00 42.03 LIG 0.21  C 
BRANCH 29 30
ATOM     30 OG   SER C   5      -0.576 -26.493  -6.278  1.00 42.36 LIG-0.40  OA
ATOM     31 HG   SER C   5      -0.170 -26.517  -7.013  1.00 42.36 LIG 0.21  HD
ENDBRANCH 29 30
ENDBRANCH 27 29
ENDBRANCH 25 27
ENDBRANCH 13 23
ENDBRANCH 11 13
ENDBRANCH 8 9
BRANCH 8 32
ATOM     32  CB  LEU C   7      -4.267 -31.344  -8.014  1.00 26.58 LIG 0.04  C 
BRANCH 32 33
ATOM     33  CG  LEU C   7      -5.375 -31.038  -6.989  1.00 24.49 LIG-0.02  C 
ATOM     34  CD2 LEU C   7      -5.934 -32.363  -6.557  1.00 27.30 LIG 0.01  C 
ATOM     35  CD1 LEU C   7      -6.465 -30.296  -7.747  1.00 29.65 LIG 0.01  C 
ENDBRANCH 32 33
ENDBRANCH 8 32
ENDBRANCH 1 8
BRANCH 4 36
ATOM     36  C   PRO C   8      -0.534 -34.258  -9.840  1.00 40.02 LIG 0.24  C 
ATOM     37 O    PRO C   8      -1.022 -35.373  -9.979  1.00 40.33 LIG-0.27  OA
ATOM     38  N   ARG C   9      -0.455 -33.366 -10.814  1.00 39.93 LIG-0.35  N 
ATOM     39 H    ARG C   9      -0.184 -32.561 -10.677  1.00 39.93 LIG 0.16  HD
BRANCH 38 40
ATOM     40  CA  ARG C   9      -0.802 -33.613 -12.204  1.00 44.47 LIG 0.18  C 
BRANCH 40 41
ATOM     41  C   ARG C   9       0.120 -34.743 -12.749  1.00 44.78 LIG 0.24  C 
ATOM     42  N   PRO C  10      -0.165 -35.275 -13.965  1.00 46.18 LIG-0.34  N 
ATOM     43  CA  PRO C  10       0.614 -36.396 -14.579  1.00 48.25 LIG 0.17  C 
ATOM     44  CD  PRO C  10      -1.349 -34.912 -14.774  1.00 48.73 LIG 0.13  C 
ATOM     45  CB  PRO C  10      -0.109 -36.663 -15.915  1.00 49.47 LIG 0.04  C 
ATOM     46  CG  PRO C  10      -1.456 -36.027 -15.784  1.00 52.76 LIG 0.02  C 
ATOM     47 O    ARG C   9       1.045 -35.160 -12.047  1.00 45.76 LIG-0.27  OA
BRANCH 43 48
ATOM     48  C   PRO C  10       2.096 -36.121 -14.883  1.00 47.63 LIG 0.22  C 
ATOM     49 O    PRO C  10       2.417 -35.436 -15.852  1.00 46.26 LIG-0.29  OA
ENDBRANCH 43 48
ENDBRANCH 40 41
BRANCH 40 50
ATOM     50  CB  ARG C   9      -0.660 -32.271 -12.996  1.00 49.80 LIG 0.04  C 
BRANCH 50 51
ATOM     51  CG  ARG C   9      -1.880 -31.906 -13.868  1.00 51.68 LIG 0.02  C 
BRANCH 51 52
ATOM     52  CD  ARG C   9      -1.984 -30.380 -14.192  1.00 46.90 LIG 0.14  C 
BRANCH 52 53
ATOM     53  NE  ARG C   9      -3.111 -29.799 -13.469  1.00 50.11 LIG-0.23  N 
ATOM     54 HE   ARG C   9      -3.084 -29.853 -12.611  1.00 50.11 LIG 0.18  HD
ATOM     55  CZ  ARG C   9      -4.176 -29.196 -13.989  1.00 44.95 LIG 0.67  C 
ATOM     56  NH1 ARG C   9      -5.087 -28.737 -13.172  1.00 55.49 LIG-0.23  N 
ATOM     57  NH2 ARG C   9      -4.337 -29.041 -15.273  1.00 40.08 LIG-0.23  N 
ATOM     58 1HH1 ARG C   9      -4.988 -28.830 -12.323  1.00 55.49 LIG 0.17  HD
ATOM     59 2HH1 ARG C   9      -5.785 -28.344 -13.484  1.00 55.49 LIG 0.17  HD
ATOM     60 1HH2 ARG C   9      -3.742 -29.334 -15.819  1.00 40.08 LIG 0.17  HD
ATOM     61 2HH2 ARG C   9      -5.039 -28.646 -15.574  1.00 40.08 LIG 0.17  HD
ENDBRANCH 52 53
ENDBRANCH 51 52
ENDBRANCH 50 51
ENDBRANCH 40 50
ENDBRANCH 38 40
ENDBRANCH 4 36
TORSDOF 20
ENDMDL
MODEL 49
USER: ADFR SOLUTION from run 9
USER: SCORE 20.487977 LL:  -4.223 LR: -17.009 RR:   0.000 FEB: -11.043
USER: RMSD 5.922915
USER: SEED 900950
USER: STATUS no improvement in best in 9 clusters for 5 generations
USER: GENES 22
USER: genes 0 Translation |==|  0.62551 0.44036 0.62553
USER: genes 1 Rotation |==|  0.61483 0.21439 0.20816 0.76471
USER: genes 2 Torsion [N]-C--CA-[N] |==|  0.34102
USER: genes 3 Torsion [C]-CA--N-[C] |==|  0.76691
USER: genes 4 Torsion [N]-C--CA-[N] |==|  0.98982
USER: genes 5 Torsion [C]-CA--CB-[CG] |==|  0.88578
USER: genes 6 Torsion [CA]-CB--CG-[CD1] |==|  0.83599
USER: genes 7 Torsion [CE1]-CZ--OH-[HH] |==|  0.25340
USER: genes 8 Torsion [C]-CA--N-[C] |==|  0.66635
USER: genes 9 Torsion [N]-C--CA-[N] |==|  0.50402
USER: genes 10 Torsion [C]-CA--CB-[OG] |==|  0.50172
USER: genes 11 Torsion [CA]-CB--OG-[HG] |==|  0.50845
USER: genes 12 Torsion [C]-CA--CB-[CG] |==|  0.07285
USER: genes 13 Torsion [CA]-CB--CG-[CD2] |==|  0.57516
USER: genes 14 Torsion [N]-CA--C-[O] |==|  0.38663
USER: genes 15 Torsion [C]-N--CA-[CB] |==|  0.51903
USER: genes 16 Torsion [N]-CA--C-[N] |==|  0.42241
USER: genes 17 Torsion [N]-CA--C-[O] |==|  0.26957
USER: genes 18 Torsion [N]-CA--CB-[CG] |==|  0.55146
USER: genes 19 Torsion [CA]-CB--CG-[CD] |==|  0.36156
USER: genes 20 Torsion [CB]-CG--CD-[NE] |==|  0.63335
USER: genes 21 Torsion [CG]-CD--NE-[HE] |==|  0.04248
ROOT
ATOM      1  C   LEU C   7      -0.576 -33.811  -6.903  1.00 32.10 LIG 0.24  C 
ATOM      2 O    LEU C   7       0.453 -33.105  -6.902  1.00 36.06 LIG-0.27  OA
ATOM      3  N   PRO C   8      -0.559 -35.135  -6.617  1.00 34.15 LIG-0.34  N 
ATOM      4  CA  PRO C   8       0.765 -35.662  -6.349  1.00 36.52 LIG 0.18  C 
ATOM      5  CB  PRO C   8       0.525 -37.161  -6.046  1.00 33.63 LIG 0.04  C 
ATOM      6  CG  PRO C   8      -0.863 -37.210  -5.510  1.00 36.13 LIG 0.02  C 
ATOM      7  CD  PRO C   8      -1.620 -36.113  -6.265  1.00 34.25 LIG 0.13  C 
ENDROOT
BRANCH 1 8
ATOM      8  CA  LEU C   7      -1.943 -33.138  -7.133  1.00 27.99 LIG 0.18  C 
BRANCH 8 9
ATOM      9  N   LEU C   7      -2.243 -31.994  -6.248  1.00 26.55 LIG-0.35  N 
ATOM     10 H    LEU C   7      -2.075 -31.211  -6.560  1.00 26.55 LIG 0.16  HD
ATOM     11  C   TYR C   6      -2.737 -32.266  -5.074  1.00 27.48 LIG 0.24  C 
ATOM     12 O    TYR C   6      -2.994 -33.462  -4.753  1.00 27.70 LIG-0.27  OA
BRANCH 11 13
ATOM     13  CA  TYR C   6      -2.899 -31.105  -4.132  1.00 25.37 LIG 0.18  C 
BRANCH 13 14
ATOM     14  CB  TYR C   6      -4.383 -30.942  -3.750  1.00 25.99 LIG 0.07  C 
BRANCH 14 15
ATOM     15  CG  TYR C   6      -5.382 -31.128  -4.887  1.00 32.28 LIG-0.06  A 
ATOM     16  CD1 TYR C   6      -5.333 -30.320  -6.026  1.00 32.91 LIG 0.01  A 
ATOM     17  CE1 TYR C   6      -6.230 -30.486  -7.065  1.00 37.22 LIG 0.04  A 
ATOM     18  CZ  TYR C   6      -7.210 -31.463  -6.966  1.00 40.59 LIG 0.07  A 
ATOM     19  CE2 TYR C   6      -7.299 -32.274  -5.835  1.00 40.82 LIG 0.04  A 
ATOM     20  CD2 TYR C   6      -6.390 -32.094  -4.797  1.00 36.01 LIG 0.01  A 
BRANCH 18 21
ATOM     21 OH   TYR C   6      -8.091 -31.613  -8.019  1.00 45.73 LIG-0.36  OA
ATOM     22 HH   TYR C   6      -7.788 -32.180  -8.558  1.00 45.73 LIG 0.22  HD
ENDBRANCH 18 21
ENDBRANCH 14 15
ENDBRANCH 13 14
BRANCH 13 23
ATOM     23  N   TYR C   6      -2.402 -29.879  -4.654  1.00 26.32 LIG-0.34  N 
ATOM     24 H    TYR C   6      -2.772 -29.613  -5.383  1.00 26.32 LIG 0.16  HD
ATOM     25  C   SER C   5      -1.448 -29.247  -4.024  1.00 29.69 LIG 0.26  C 
ATOM     26 O    SER C   5      -0.875 -29.746  -3.004  1.00 27.24 LIG-0.27  OA
BRANCH 25 27
ATOM     27  CA  SER C   5      -1.144 -27.810  -4.573  1.00 35.45 LIG 0.42  C 
ATOM     28  N   SER C   5      -0.025 -27.194  -3.814  1.00 39.53 LIG 0.62  N 
BRANCH 27 29
ATOM     29  CB  SER C   5      -0.848 -27.784  -6.071  1.00 42.03 LIG 0.21  C 
BRANCH 29 30
ATOM     30 OG   SER C   5      -0.562 -26.490  -6.553  1.00 42.36 LIG-0.40  OA
ATOM     31 HG   SER C   5      -0.447 -26.519  -7.385  1.00 42.36 LIG 0.21  HD
ENDBRANCH 29 30
ENDBRANCH 27 29
ENDBRANCH 25 27
ENDBRANCH 13 23
ENDBRANCH 11 13
ENDBRANCH 8 9
BRANCH 8 32
ATOM     32  CB  LEU C   7      -2.138 -32.749  -8.552  1.00 26.58 LIG 0.04  C 
BRANCH 32 33
ATOM     33  CG  LEU C   7      -1.245 -33.733  -9.332  1.00 24.49 LIG-0.02  C 
ATOM     34  CD2 LEU C   7      -0.855 -33.037 -10.603  1.00 27.30 LIG 0.01  C 
ATOM     35  CD1 LEU C   7      -2.131 -34.914  -9.698  1.00 29.65 LIG 0.01  C 
ENDBRANCH 32 33
ENDBRANCH 8 32
ENDBRANCH 1 8
BRANCH 4 36
ATOM     36  C   PRO C   8       1.695 -35.401  -7.545  1.00 40.02 LIG 0.24  C 
ATOM     37 O    PRO C   8       2.857 -35.050  -7.382  1.00 40.33 LIG-0.27  OA
ATOM     38  N   ARG C   9       1.173 -35.686  -8.727  1.00 39.93 LIG-0.35  N 
ATOM     39 H    ARG C   9       0.381 -36.009  -8.811  1.00 39.93 LIG 0.16  HD
BRANCH 38 40
ATOM     40  CA  ARG C   9       1.844 -35.500 -10.003  1.00 44.47 LIG 0.18  C 
BRANCH 40 41
ATOM     41  C   ARG C   9       2.416 -34.052 -10.053  1.00 44.78 LIG 0.24  C 
ATOM     42  N   PRO C  10       3.515 -33.820 -10.813  1.00 46.18 LIG-0.34  N 
ATOM     43  CA  PRO C  10       4.188 -32.486 -10.909  1.00 48.25 LIG 0.17  C 
ATOM     44  CD  PRO C  10       4.263 -34.873 -11.535  1.00 48.73 LIG 0.13  C 
ATOM     45  CB  PRO C  10       5.387 -32.740 -11.843  1.00 49.47 LIG 0.04  C 
ATOM     46  CG  PRO C  10       5.584 -34.223 -11.860  1.00 52.76 LIG 0.02  C 
ATOM     47 O    ARG C   9       1.892 -33.171  -9.364  1.00 45.76 LIG-0.27  OA
BRANCH 43 48
ATOM     48  C   PRO C  10       3.357 -31.335 -11.498  1.00 47.63 LIG 0.22  C 
ATOM     49 O    PRO C  10       2.774 -30.544 -10.760  1.00 46.26 LIG-0.29  OA
ENDBRANCH 43 48
ENDBRANCH 40 41
BRANCH 40 50
ATOM     50  CB  ARG C   9       0.820 -35.793 -11.148  1.00 49.80 LIG 0.04  C 
BRANCH 50 51
ATOM     51  CG  ARG C   9       1.458 -36.080 -12.524  1.00 51.68 LIG 0.02  C 
BRANCH 51 52
ATOM     52  CD  ARG C   9       0.913 -37.376 -13.209  1.00 46.90 LIG 0.14  C 
BRANCH 52 53
ATOM     53  NE  ARG C   9       2.029 -38.185 -13.689  1.00 50.11 LIG-0.23  N 
ATOM     54 HE   ARG C   9       2.806 -37.987 -13.378  1.00 50.11 LIG 0.18  HD
ATOM     55  CZ  ARG C   9       1.980 -39.194 -14.554  1.00 44.95 LIG 0.67  C 
ATOM     56  NH1 ARG C   9       3.095 -39.800 -14.861  1.00 55.49 LIG-0.23  N 
ATOM     57  NH2 ARG C   9       0.865 -39.601 -15.093  1.00 40.08 LIG-0.23  N 
ATOM     58 1HH1 ARG C   9       3.836 -39.543 -14.507  1.00 55.49 LIG 0.17  HD
ATOM     59 2HH1 ARG C   9       3.089 -40.455 -15.418  1.00 55.49 LIG 0.17  HD
ATOM     60 1HH2 ARG C   9       0.124 -39.213 -14.894  1.00 40.08 LIG 0.17  HD
ATOM     61 2HH2 ARG C   9       0.871 -40.257 -15.649  1.00 40.08 LIG 0.17  HD
ENDBRANCH 52 53
ENDBRANCH 51 52
ENDBRANCH 50 51
ENDBRANCH 40 50
ENDBRANCH 38 40
ENDBRANCH 4 36
TORSDOF 20
ENDMDL
MODEL 50
USER: ADFR SOLUTION from run 163
USER: SCORE 18.762528 LL:  -3.000 LR: -16.969 RR:   0.000 FEB: -11.003
USER: RMSD 8.939166
USER: SEED 162
USER: STATUS no improvement in best in 39 clusters for 5 generations
USER: GENES 22
USER: genes 0 Translation |==|  0.64908 0.40377 0.57059
USER: genes 1 Rotation |==|  0.10269 0.78069 0.38802 0.52858
USER: genes 2 Torsion [N]-C--CA-[N] |==|  0.49885
USER: genes 3 Torsion [C]-CA--N-[C] |==|  0.76333
USER: genes 4 Torsion [N]-C--CA-[N] |==|  0.08516
USER: genes 5 Torsion [C]-CA--CB-[CG] |==|  0.41919
USER: genes 6 Torsion [CA]-CB--CG-[CD1] |==|  0.51099
USER: genes 7 Torsion [CE1]-CZ--OH-[HH] |==|  0.32678
USER: genes 8 Torsion [C]-CA--N-[C] |==|  0.15192
USER: genes 9 Torsion [N]-C--CA-[N] |==|  0.44304
USER: genes 10 Torsion [C]-CA--CB-[OG] |==|  0.14467
USER: genes 11 Torsion [CA]-CB--OG-[HG] |==|  0.43348
USER: genes 12 Torsion [C]-CA--CB-[CG] |==|  0.54669
USER: genes 13 Torsion [CA]-CB--CG-[CD2] |==|  0.61421
USER: genes 14 Torsion [N]-CA--C-[O] |==|  0.87123
USER: genes 15 Torsion [C]-N--CA-[CB] |==|  0.16111
USER: genes 16 Torsion [N]-CA--C-[N] |==|  0.80706
USER: genes 17 Torsion [N]-CA--C-[O] |==|  0.57958
USER: genes 18 Torsion [N]-CA--CB-[CG] |==|  0.47672
USER: genes 19 Torsion [CA]-CB--CG-[CD] |==|  0.63148
USER: genes 20 Torsion [CB]-CG--CD-[NE] |==|  0.73845
USER: genes 21 Torsion [CG]-CD--NE-[HE] |==|  0.12861
ROOT
ATOM      1  C   LEU C   7      -0.081 -34.470  -8.263  1.00 32.10 LIG 0.24  C 
ATOM      2 O    LEU C   7      -1.042 -33.677  -8.187  1.00 36.06 LIG-0.27  OA
ATOM      3  N   PRO C   8       0.058 -35.536  -7.438  1.00 34.15 LIG-0.34  N 
ATOM      4  CA  PRO C   8      -0.987 -35.646  -6.438  1.00 36.52 LIG 0.18  C 
ATOM      5  CB  PRO C   8      -0.618 -36.922  -5.642  1.00 33.63 LIG 0.04  C 
ATOM      6  CG  PRO C   8       0.137 -37.758  -6.615  1.00 36.13 LIG 0.02  C 
ATOM      7  CD  PRO C   8       0.898 -36.760  -7.492  1.00 34.25 LIG 0.13  C 
ENDROOT
BRANCH 1 8
ATOM      8  CA  LEU C   7       0.937 -34.302  -9.407  1.00 27.99 LIG 0.18  C 
BRANCH 8 9
ATOM      9  N   LEU C   7       0.726 -33.127 -10.277  1.00 26.55 LIG-0.35  N 
ATOM     10 H    LEU C   7       1.169 -32.417 -10.080  1.00 26.55 LIG 0.16  HD
ATOM     11  C   TYR C   6      -0.111 -33.263 -11.266  1.00 27.48 LIG 0.24  C 
ATOM     12 O    TYR C   6      -0.659 -34.382 -11.486  1.00 27.70 LIG-0.27  OA
BRANCH 11 13
ATOM     13  CA  TYR C   6      -0.427 -32.021 -12.051  1.00 25.37 LIG 0.18  C 
BRANCH 13 14
ATOM     14  CB  TYR C   6      -0.846 -32.398 -13.485  1.00 25.99 LIG 0.07  C 
BRANCH 14 15
ATOM     15  CG  TYR C   6      -1.813 -31.435 -14.165  1.00 32.28 LIG-0.06  A 
ATOM     16  CD1 TYR C   6      -2.329 -31.712 -15.434  1.00 32.91 LIG 0.01  A 
ATOM     17  CE1 TYR C   6      -3.212 -30.849 -16.056  1.00 37.22 LIG 0.04  A 
ATOM     18  CZ  TYR C   6      -3.580 -29.675 -15.414  1.00 40.59 LIG 0.07  A 
ATOM     19  CE2 TYR C   6      -3.069 -29.359 -14.155  1.00 40.82 LIG 0.04  A 
ATOM     20  CD2 TYR C   6      -2.179 -30.237 -13.544  1.00 36.01 LIG 0.01  A 
BRANCH 18 21
ATOM     21 OH   TYR C   6      -4.467 -28.832 -16.053  1.00 45.73 LIG-0.36  OA
ATOM     22 HH   TYR C   6      -5.167 -28.763 -15.594  1.00 45.73 LIG 0.22  HD
ENDBRANCH 18 21
ENDBRANCH 14 15
ENDBRANCH 13 14
BRANCH 13 23
ATOM     23  N   TYR C   6       0.650 -31.091 -12.096  1.00 26.32 LIG-0.34  N 
ATOM     24 H    TYR C   6       0.460 -30.295 -11.831  1.00 26.32 LIG 0.16  HD
ATOM     25  C   SER C   5       1.822 -31.479 -12.522  1.00 29.69 LIG 0.26  C 
ATOM     26 O    SER C   5       2.009 -32.644 -12.996  1.00 27.24 LIG-0.27  OA
BRANCH 25 27
ATOM     27  CA  SER C   5       2.970 -30.430 -12.316  1.00 35.45 LIG 0.42  C 
ATOM     28  N   SER C   5       4.294 -31.103 -12.356  1.00 39.53 LIG 0.62  N 
BRANCH 27 29
ATOM     29  CB  SER C   5       2.927 -29.280 -13.319  1.00 42.03 LIG 0.21  C 
BRANCH 29 30
ATOM     30 OG   SER C   5       1.665 -28.654 -13.385  1.00 42.36 LIG-0.40  OA
ATOM     31 HG   SER C   5       1.755 -27.868 -13.669  1.00 42.36 LIG 0.21  HD
ENDBRANCH 29 30
ENDBRANCH 27 29
ENDBRANCH 25 27
ENDBRANCH 13 23
ENDBRANCH 11 13
ENDBRANCH 8 9
BRANCH 8 32
ATOM     32  CB  LEU C   7       2.336 -34.324  -8.913  1.00 26.58 LIG 0.04  C 
BRANCH 32 33
ATOM     33  CG  LEU C   7       3.150 -33.724 -10.075  1.00 24.49 LIG-0.02  C 
ATOM     34  CD2 LEU C   7       4.402 -34.544 -10.187  1.00 27.30 LIG 0.01  C 
ATOM     35  CD1 LEU C   7       3.547 -32.322  -9.637  1.00 29.65 LIG 0.01  C 
ENDBRANCH 32 33
ENDBRANCH 8 32
ENDBRANCH 1 8
BRANCH 4 36
ATOM     36  C   PRO C   8      -1.048 -34.367  -5.589  1.00 40.02 LIG 0.24  C 
ATOM     37 O    PRO C   8      -0.032 -33.856  -5.135  1.00 40.33 LIG-0.27  OA
ATOM     38  N   ARG C   9      -2.251 -33.825  -5.487  1.00 39.93 LIG-0.35  N 
ATOM     39 H    ARG C   9      -2.938 -34.158  -5.883  1.00 39.93 LIG 0.16  HD
BRANCH 38 40
ATOM     40  CA  ARG C   9      -2.567 -32.632  -4.719  1.00 44.47 LIG 0.18  C 
BRANCH 40 41
ATOM     41  C   ARG C   9      -4.095 -32.355  -4.846  1.00 44.78 LIG 0.24  C 
ATOM     42  N   PRO C  10      -4.578 -31.947  -6.046  1.00 46.18 LIG-0.34  N 
ATOM     43  CA  PRO C  10      -6.015 -31.604  -6.286  1.00 48.25 LIG 0.17  C 
ATOM     44  CD  PRO C  10      -3.734 -31.662  -7.228  1.00 48.73 LIG 0.13  C 
ATOM     45  CB  PRO C  10      -6.052 -31.167  -7.764  1.00 49.47 LIG 0.04  C 
ATOM     46  CG  PRO C  10      -4.635 -30.863  -8.135  1.00 52.76 LIG 0.02  C 
ATOM     47 O    ARG C   9      -4.813 -32.462  -3.847  1.00 45.76 LIG-0.27  OA
BRANCH 43 48
ATOM     48  C   PRO C  10      -7.035 -32.738  -6.096  1.00 47.63 LIG 0.22  C 
ATOM     49 O    PRO C  10      -8.087 -32.744  -6.732  1.00 46.26 LIG-0.29  OA
ENDBRANCH 43 48
ENDBRANCH 40 41
BRANCH 40 50
ATOM     50  CB  ARG C   9      -1.686 -31.453  -5.250  1.00 49.80 LIG 0.04  C 
BRANCH 50 51
ATOM     51  CG  ARG C   9      -2.049 -30.068  -4.673  1.00 51.68 LIG 0.02  C 
BRANCH 51 52
ATOM     52  CD  ARG C   9      -2.169 -28.949  -5.759  1.00 46.90 LIG 0.14  C 
BRANCH 52 53
ATOM     53  NE  ARG C   9      -0.896 -28.244  -5.880  1.00 50.11 LIG-0.23  N 
ATOM     54 HE   ARG C   9      -0.191 -28.733  -5.926  1.00 50.11 LIG 0.18  HD
ATOM     55  CZ  ARG C   9      -0.706 -26.929  -5.928  1.00 44.95 LIG 0.67  C 
ATOM     56  NH1 ARG C   9       0.517 -26.485  -6.039  1.00 55.49 LIG-0.23  N 
ATOM     57  NH2 ARG C   9      -1.690 -26.075  -5.876  1.00 40.08 LIG-0.23  N 
ATOM     58 1HH1 ARG C   9       1.174 -27.039  -6.080  1.00 55.49 LIG 0.17  HD
ATOM     59 2HH1 ARG C   9       0.666 -25.638  -6.072  1.00 55.49 LIG 0.17  HD
ATOM     60 1HH2 ARG C   9      -2.499 -26.356  -5.808  1.00 40.08 LIG 0.17  HD
ATOM     61 2HH2 ARG C   9      -1.529 -25.231  -5.909  1.00 40.08 LIG 0.17  HD
ENDBRANCH 52 53
ENDBRANCH 51 52
ENDBRANCH 50 51
ENDBRANCH 40 50
ENDBRANCH 38 40
ENDBRANCH 4 36
TORSDOF 20
ENDMDL
MODEL 51
USER: ADFR SOLUTION from run 194
USER: SCORE 19.825283 LL:  -4.110 LR: -16.950 RR:   0.000 FEB: -10.984
USER: RMSD 10.157380
USER: SEED 193
USER: STATUS no improvement in best in 23 clusters for 5 generations
USER: GENES 22
USER: genes 0 Translation |==|  0.65537 0.45590 0.54982
USER: genes 1 Rotation |==|  0.88815 0.29938 0.74192 0.52371
USER: genes 2 Torsion [N]-C--CA-[N] |==|  0.40311
USER: genes 3 Torsion [C]-CA--N-[C] |==|  0.74451
USER: genes 4 Torsion [N]-C--CA-[N] |==|  0.95126
USER: genes 5 Torsion [C]-CA--CB-[CG] |==|  0.84059
USER: genes 6 Torsion [CA]-CB--CG-[CD1] |==|  0.35453
USER: genes 7 Torsion [CE1]-CZ--OH-[HH] |==|  0.79277
USER: genes 8 Torsion [C]-CA--N-[C] |==|  0.83279
USER: genes 9 Torsion [N]-C--CA-[N] |==|  0.34228
USER: genes 10 Torsion [C]-CA--CB-[OG] |==|  0.04536
USER: genes 11 Torsion [CA]-CB--OG-[HG] |==|  0.76931
USER: genes 12 Torsion [C]-CA--CB-[CG] |==|  0.56573
USER: genes 13 Torsion [CA]-CB--CG-[CD2] |==|  0.72017
USER: genes 14 Torsion [N]-CA--C-[O] |==|  0.92644
USER: genes 15 Torsion [C]-N--CA-[CB] |==|  0.53892
USER: genes 16 Torsion [N]-CA--C-[N] |==|  0.85430
USER: genes 17 Torsion [N]-CA--C-[O] |==|  0.61930
USER: genes 18 Torsion [N]-CA--CB-[CG] |==|  0.71485
USER: genes 19 Torsion [CA]-CB--CG-[CD] |==|  0.75522
USER: genes 20 Torsion [CB]-CG--CD-[NE] |==|  0.42688
USER: genes 21 Torsion [CG]-CD--NE-[HE] |==|  0.03568
ROOT
ATOM      1  C   LEU C   7       0.051 -33.532  -8.777  1.00 32.10 LIG 0.24  C 
ATOM      2 O    LEU C   7      -0.925 -33.047  -9.386  1.00 36.06 LIG-0.27  OA
ATOM      3  N   PRO C   8      -0.037 -34.012  -7.513  1.00 34.15 LIG-0.34  N 
ATOM      4  CA  PRO C   8      -1.354 -33.875  -6.922  1.00 36.52 LIG 0.18  C 
ATOM      5  CB  PRO C   8      -1.203 -34.493  -5.510  1.00 33.63 LIG 0.04  C 
ATOM      6  CG  PRO C   8      -0.106 -35.488  -5.659  1.00 36.13 LIG 0.02  C 
ATOM      7  CD  PRO C   8       0.847 -34.879  -6.692  1.00 34.25 LIG 0.13  C 
ENDROOT
BRANCH 1 8
ATOM      8  CA  LEU C   7       1.390 -33.694  -9.523  1.00 27.99 LIG 0.18  C 
BRANCH 8 9
ATOM      9  N   LEU C   7       1.282 -33.934 -10.976  1.00 26.55 LIG-0.35  N 
ATOM     10 H    LEU C   7       1.248 -33.238 -11.480  1.00 26.55 LIG 0.16  HD
ATOM     11  C   TYR C   6       1.246 -35.174 -11.371  1.00 27.48 LIG 0.24  C 
ATOM     12 O    TYR C   6       1.361 -36.113 -10.532  1.00 27.70 LIG-0.27  OA
BRANCH 11 13
ATOM     13  CA  TYR C   6       0.988 -35.402 -12.835  1.00 25.37 LIG 0.18  C 
BRANCH 13 14
ATOM     14  CB  TYR C   6       2.291 -35.827 -13.538  1.00 25.99 LIG 0.07  C 
BRANCH 14 15
ATOM     15  CG  TYR C   6       3.458 -34.854 -13.411  1.00 32.28 LIG-0.06  A 
ATOM     16  CD1 TYR C   6       4.708 -35.285 -12.960  1.00 32.91 LIG 0.01  A 
ATOM     17  CE1 TYR C   6       5.774 -34.412 -12.849  1.00 37.22 LIG 0.04  A 
ATOM     18  CZ  TYR C   6       5.594 -33.075 -13.176  1.00 40.59 LIG 0.07  A 
ATOM     19  CE2 TYR C   6       4.353 -32.607 -13.611  1.00 40.82 LIG 0.04  A 
ATOM     20  CD2 TYR C   6       3.291 -33.499 -13.716  1.00 36.01 LIG 0.01  A 
BRANCH 18 21
ATOM     21 OH   TYR C   6       6.674 -32.223 -13.061  1.00 45.73 LIG-0.36  OA
ATOM     22 HH   TYR C   6       6.817 -32.060 -12.250  1.00 45.73 LIG 0.22  HD
ENDBRANCH 18 21
ENDBRANCH 14 15
ENDBRANCH 13 14
BRANCH 13 23
ATOM     23  N   TYR C   6       0.436 -34.270 -13.496  1.00 26.32 LIG-0.34  N 
ATOM     24 H    TYR C   6       0.908 -33.954 -14.142  1.00 26.32 LIG 0.16  HD
ATOM     25  C   SER C   5      -0.712 -33.787 -13.101  1.00 29.69 LIG 0.26  C 
ATOM     26 O    SER C   5      -1.309 -34.238 -12.074  1.00 27.24 LIG-0.27  OA
BRANCH 25 27
ATOM     27  CA  SER C   5      -1.314 -32.687 -14.042  1.00 35.45 LIG 0.42  C 
ATOM     28  N   SER C   5      -2.672 -33.085 -14.497  1.00 39.53 LIG 0.62  N 
BRANCH 27 29
ATOM     29  CB  SER C   5      -1.352 -31.299 -13.406  1.00 42.03 LIG 0.21  C 
BRANCH 29 30
ATOM     30 OG   SER C   5      -0.525 -31.193 -12.269  1.00 42.36 LIG-0.40  OA
ATOM     31 HG   SER C   5      -0.932 -31.489 -11.596  1.00 42.36 LIG 0.21  HD
ENDBRANCH 29 30
ENDBRANCH 27 29
ENDBRANCH 25 27
ENDBRANCH 13 23
ENDBRANCH 11 13
ENDBRANCH 8 9
BRANCH 8 32
ATOM     32  CB  LEU C   7       2.311 -32.560  -9.261  1.00 26.58 LIG 0.04  C 
BRANCH 32 33
ATOM     33  CG  LEU C   7       3.255 -32.560 -10.479  1.00 24.49 LIG-0.02  C 
ATOM     34  CD2 LEU C   7       4.526 -33.221 -10.033  1.00 27.30 LIG 0.01  C 
ATOM     35  CD1 LEU C   7       3.566 -31.101 -10.777  1.00 29.65 LIG 0.01  C 
ENDBRANCH 32 33
ENDBRANCH 8 32
ENDBRANCH 1 8
BRANCH 4 36
ATOM     36  C   PRO C   8      -1.788 -32.401  -6.923  1.00 40.02 LIG 0.24  C 
ATOM     37 O    PRO C   8      -0.963 -31.495  -6.911  1.00 40.33 LIG-0.27  OA
ATOM     38  N   ARG C   9      -3.091 -32.206  -7.044  1.00 39.93 LIG-0.35  N 
ATOM     39 H    ARG C   9      -3.645 -32.857  -7.132  1.00 39.93 LIG 0.16  HD
BRANCH 38 40
ATOM     40  CA  ARG C   9      -3.744 -30.907  -7.045  1.00 44.47 LIG 0.18  C 
BRANCH 40 41
ATOM     41  C   ARG C   9      -3.105 -30.033  -5.925  1.00 44.78 LIG 0.24  C 
ATOM     42  N   PRO C  10      -3.038 -30.543  -4.670  1.00 46.18 LIG-0.34  N 
ATOM     43  CA  PRO C  10      -2.491 -29.789  -3.499  1.00 48.25 LIG 0.17  C 
ATOM     44  CD  PRO C  10      -3.612 -31.848  -4.271  1.00 48.73 LIG 0.13  C 
ATOM     45  CB  PRO C  10      -2.665 -30.761  -2.315  1.00 49.47 LIG 0.04  C 
ATOM     46  CG  PRO C  10      -3.664 -31.778  -2.766  1.00 52.76 LIG 0.02  C 
ATOM     47 O    ARG C   9      -2.728 -28.888  -6.193  1.00 45.76 LIG-0.27  OA
BRANCH 43 48
ATOM     48  C   PRO C  10      -1.010 -29.383  -3.571  1.00 47.63 LIG 0.22  C 
ATOM     49 O    PRO C  10      -0.281 -29.505  -2.589  1.00 46.26 LIG-0.29  OA
ENDBRANCH 43 48
ENDBRANCH 40 41
BRANCH 40 50
ATOM     50  CB  ARG C   9      -5.281 -31.126  -6.848  1.00 49.80 LIG 0.04  C 
BRANCH 50 51
ATOM     51  CG  ARG C   9      -6.120 -30.994  -8.137  1.00 51.68 LIG 0.02  C 
BRANCH 51 52
ATOM     52  CD  ARG C   9      -6.588 -29.532  -8.433  1.00 46.90 LIG 0.14  C 
BRANCH 52 53
ATOM     53  NE  ARG C   9      -6.796 -29.363  -9.868  1.00 50.11 LIG-0.23  N 
ATOM     54 HE   ARG C   9      -6.813 -30.082 -10.339  1.00 50.11 LIG 0.18  HD
ATOM     55  CZ  ARG C   9      -6.962 -28.221 -10.529  1.00 44.95 LIG 0.67  C 
ATOM     56  NH1 ARG C   9      -7.136 -28.275 -11.822  1.00 55.49 LIG-0.23  N 
ATOM     57  NH2 ARG C   9      -6.966 -27.061  -9.934  1.00 40.08 LIG-0.23  N 
ATOM     58 1HH1 ARG C   9      -7.141 -29.035 -12.224  1.00 55.49 LIG 0.17  HD
ATOM     59 2HH1 ARG C   9      -7.245 -27.550 -12.272  1.00 55.49 LIG 0.17  HD
ATOM     60 1HH2 ARG C   9      -6.857 -27.014  -9.083  1.00 40.08 LIG 0.17  HD
ATOM     61 2HH2 ARG C   9      -7.076 -26.343 -10.394  1.00 40.08 LIG 0.17  HD
ENDBRANCH 52 53
ENDBRANCH 51 52
ENDBRANCH 50 51
ENDBRANCH 40 50
ENDBRANCH 38 40
ENDBRANCH 4 36
TORSDOF 20
ENDMDL
MODEL 52
USER: ADFR SOLUTION from run 168
USER: SCORE 19.058894 LL:  -2.599 LR: -16.922 RR:   0.000 FEB: -10.956
USER: RMSD 4.029625
USER: SEED 167
USER: STATUS no improvement in best in 15 clusters for 5 generations
USER: GENES 22
USER: genes 0 Translation |==|  0.61915 0.46387 0.54611
USER: genes 1 Rotation |==|  0.52880 0.50530 0.46419 0.99786
USER: genes 2 Torsion [N]-C--CA-[N] |==|  0.41535
USER: genes 3 Torsion [C]-CA--N-[C] |==|  0.83761
USER: genes 4 Torsion [N]-C--CA-[N] |==|  0.92535
USER: genes 5 Torsion [C]-CA--CB-[CG] |==|  0.26927
USER: genes 6 Torsion [CA]-CB--CG-[CD1] |==|  0.51732
USER: genes 7 Torsion [CE1]-CZ--OH-[HH] |==|  0.22031
USER: genes 8 Torsion [C]-CA--N-[C] |==|  0.78057
USER: genes 9 Torsion [N]-C--CA-[N] |==|  0.02822
USER: genes 10 Torsion [C]-CA--CB-[OG] |==|  0.40008
USER: genes 11 Torsion [CA]-CB--OG-[HG] |==|  0.95613
USER: genes 12 Torsion [C]-CA--CB-[CG] |==|  0.40378
USER: genes 13 Torsion [CA]-CB--CG-[CD2] |==|  0.71553
USER: genes 14 Torsion [N]-CA--C-[O] |==|  0.96386
USER: genes 15 Torsion [C]-N--CA-[CB] |==|  0.52224
USER: genes 16 Torsion [N]-CA--C-[N] |==|  0.44589
USER: genes 17 Torsion [N]-CA--C-[O] |==|  0.01885
USER: genes 18 Torsion [N]-CA--CB-[CG] |==|  0.78644
USER: genes 19 Torsion [CA]-CB--CG-[CD] |==|  0.69585
USER: genes 20 Torsion [CB]-CG--CD-[NE] |==|  0.33747
USER: genes 21 Torsion [CG]-CD--NE-[HE] |==|  0.68745
ROOT
ATOM      1  C   LEU C   7      -0.710 -33.388  -8.869  1.00 32.10 LIG 0.24  C 
ATOM      2 O    LEU C   7      -1.598 -32.673  -9.377  1.00 36.06 LIG-0.27  OA
ATOM      3  N   PRO C   8       0.524 -33.523  -9.411  1.00 34.15 LIG-0.34  N 
ATOM      4  CA  PRO C   8       0.705 -32.793 -10.651  1.00 36.52 LIG 0.18  C 
ATOM      5  CB  PRO C   8       2.168 -33.091 -11.059  1.00 33.63 LIG 0.04  C 
ATOM      6  CG  PRO C   8       2.862 -33.359  -9.770  1.00 36.13 LIG 0.02  C 
ATOM      7  CD  PRO C   8       1.814 -34.041  -8.886  1.00 34.25 LIG 0.13  C 
ENDROOT
BRANCH 1 8
ATOM      8  CA  LEU C   7      -0.983 -34.066  -7.512  1.00 27.99 LIG 0.18  C 
BRANCH 8 9
ATOM      9  N   LEU C   7      -1.971 -33.386  -6.651  1.00 26.55 LIG-0.35  N 
ATOM     10 H    LEU C   7      -2.660 -33.845  -6.418  1.00 26.55 LIG 0.16  HD
ATOM     11  C   TYR C   6      -1.718 -32.153  -6.317  1.00 27.48 LIG 0.24  C 
ATOM     12 O    TYR C   6      -0.637 -31.604  -6.679  1.00 27.70 LIG-0.27  OA
BRANCH 11 13
ATOM     13  CA  TYR C   6      -2.800 -31.428  -5.565  1.00 25.37 LIG 0.18  C 
BRANCH 13 14
ATOM     14  CB  TYR C   6      -2.524 -31.498  -4.051  1.00 25.99 LIG 0.07  C 
BRANCH 14 15
ATOM     15  CG  TYR C   6      -1.824 -30.284  -3.450  1.00 32.28 LIG-0.06  A 
ATOM     16  CD1 TYR C   6      -1.405 -30.283  -2.117  1.00 32.91 LIG 0.01  A 
ATOM     17  CE1 TYR C   6      -0.762 -29.190  -1.565  1.00 37.22 LIG 0.04  A 
ATOM     18  CZ  TYR C   6      -0.545 -28.064  -2.347  1.00 40.59 LIG 0.07  A 
ATOM     19  CE2 TYR C   6      -0.967 -28.025  -3.676  1.00 40.82 LIG 0.04  A 
ATOM     20  CD2 TYR C   6      -1.614 -29.132  -4.215  1.00 36.01 LIG 0.01  A 
BRANCH 18 21
ATOM     21 OH   TYR C   6       0.103 -26.988  -1.776  1.00 45.73 LIG-0.36  OA
ATOM     22 HH   TYR C   6       0.930 -27.134  -1.762  1.00 45.73 LIG 0.22  HD
ENDBRANCH 18 21
ENDBRANCH 14 15
ENDBRANCH 13 14
BRANCH 13 23
ATOM     23  N   TYR C   6      -4.106 -31.922  -5.837  1.00 26.32 LIG-0.34  N 
ATOM     24 H    TYR C   6      -4.433 -32.446  -5.238  1.00 26.32 LIG 0.16  HD
ATOM     25  C   SER C   5      -4.716 -31.569  -6.937  1.00 29.69 LIG 0.26  C 
ATOM     26 O    SER C   5      -4.136 -30.872  -7.828  1.00 27.24 LIG-0.27  OA
BRANCH 25 27
ATOM     27  CA  SER C   5      -6.222 -31.997  -7.014  1.00 35.45 LIG 0.42  C 
ATOM     28  N   SER C   5      -6.681 -32.505  -5.695  1.00 39.53 LIG 0.62  N 
BRANCH 27 29
ATOM     29  CB  SER C   5      -7.144 -30.885  -7.505  1.00 42.03 LIG 0.21  C 
BRANCH 29 30
ATOM     30 OG   SER C   5      -8.200 -31.361  -8.312  1.00 42.36 LIG-0.40  OA
ATOM     31 HG   SER C   5      -8.028 -32.143  -8.566  1.00 42.36 LIG 0.21  HD
ENDBRANCH 29 30
ENDBRANCH 27 29
ENDBRANCH 25 27
ENDBRANCH 13 23
ENDBRANCH 11 13
ENDBRANCH 8 9
BRANCH 8 32
ATOM     32  CB  LEU C   7      -1.343 -35.497  -7.669  1.00 26.58 LIG 0.04  C 
BRANCH 32 33
ATOM     33  CG  LEU C   7      -0.727 -36.173  -6.430  1.00 24.49 LIG-0.02  C 
ATOM     34  CD2 LEU C   7       0.526 -36.856  -6.895  1.00 27.30 LIG 0.01  C 
ATOM     35  CD1 LEU C   7      -1.712 -37.249  -5.997  1.00 29.65 LIG 0.01  C 
ENDBRANCH 32 33
ENDBRANCH 8 32
ENDBRANCH 1 8
BRANCH 4 36
ATOM     36  C   PRO C   8      -0.342 -33.235 -11.686  1.00 40.02 LIG 0.24  C 
ATOM     37 O    PRO C   8      -1.020 -34.240 -11.515  1.00 40.33 LIG-0.27  OA
ATOM     38  N   ARG C   9      -0.514 -32.396 -12.695  1.00 39.93 LIG-0.35  N 
ATOM     39 H    ARG C   9      -0.083 -31.655 -12.753  1.00 39.93 LIG 0.16  HD
BRANCH 38 40
ATOM     40  CA  ARG C   9      -1.425 -32.605 -13.809  1.00 44.47 LIG 0.18  C 
BRANCH 40 41
ATOM     41  C   ARG C   9      -1.197 -34.041 -14.369  1.00 44.78 LIG 0.24  C 
ATOM     42  N   PRO C  10      -2.176 -34.600 -15.124  1.00 46.18 LIG-0.34  N 
ATOM     43  CA  PRO C  10      -2.101 -35.987 -15.681  1.00 48.25 LIG 0.17  C 
ATOM     44  CD  PRO C  10      -3.490 -33.969 -15.380  1.00 48.73 LIG 0.13  C 
ATOM     45  CB  PRO C  10      -3.445 -36.167 -16.415  1.00 49.47 LIG 0.04  C 
ATOM     46  CG  PRO C  10      -4.349 -35.104 -15.877  1.00 52.76 LIG 0.02  C 
ATOM     47 O    ARG C   9      -0.164 -34.649 -14.072  1.00 45.76 LIG-0.27  OA
BRANCH 43 48
ATOM     48  C   PRO C  10      -0.968 -36.267 -16.682  1.00 47.63 LIG 0.22  C 
ATOM     49 O    PRO C  10      -0.104 -35.420 -16.899  1.00 46.26 LIG-0.29  OA
ENDBRANCH 43 48
ENDBRANCH 40 41
BRANCH 40 50
ATOM     50  CB  ARG C   9      -1.172 -31.486 -14.872  1.00 49.80 LIG 0.04  C 
BRANCH 50 51
ATOM     51  CG  ARG C   9      -1.771 -30.110 -14.512  1.00 51.68 LIG 0.02  C 
BRANCH 51 52
ATOM     52  CD  ARG C   9      -2.992 -29.706 -15.402  1.00 46.90 LIG 0.14  C 
BRANCH 52 53
ATOM     53  NE  ARG C   9      -4.161 -29.477 -14.557  1.00 50.11 LIG-0.23  N 
ATOM     54 HE   ARG C   9      -4.807 -30.038 -14.639  1.00 50.11 LIG 0.18  HD
ATOM     55  CZ  ARG C   9      -4.338 -28.497 -13.676  1.00 44.95 LIG 0.67  C 
ATOM     56  NH1 ARG C   9      -5.460 -28.460 -13.010  1.00 55.49 LIG-0.23  N 
ATOM     57  NH2 ARG C   9      -3.434 -27.586 -13.450  1.00 40.08 LIG-0.23  N 
ATOM     58 1HH1 ARG C   9      -6.062 -29.059 -13.147  1.00 55.49 LIG 0.17  HD
ATOM     59 2HH1 ARG C   9      -5.599 -27.836 -12.435  1.00 55.49 LIG 0.17  HD
ATOM     60 1HH2 ARG C   9      -2.688 -27.604 -13.878  1.00 40.08 LIG 0.17  HD
ATOM     61 2HH2 ARG C   9      -3.582 -26.966 -12.872  1.00 40.08 LIG 0.17  HD
ENDBRANCH 52 53
ENDBRANCH 51 52
ENDBRANCH 50 51
ENDBRANCH 40 50
ENDBRANCH 38 40
ENDBRANCH 4 36
TORSDOF 20
ENDMDL
MODEL 53
USER: ADFR SOLUTION from run 75
USER: SCORE 18.538081 LL:  -2.704 LR: -16.884 RR:   0.000 FEB: -10.918
USER: RMSD 10.641888
USER: SEED 74
USER: STATUS no improvement in best in 22 clusters for 5 generations
USER: GENES 22
USER: genes 0 Translation |==|  0.67902 0.44675 0.52653
USER: genes 1 Rotation |==|  0.09848 0.70373 0.28328 0.51736
USER: genes 2 Torsion [N]-C--CA-[N] |==|  0.33474
USER: genes 3 Torsion [C]-CA--N-[C] |==|  0.75361
USER: genes 4 Torsion [N]-C--CA-[N] |==|  0.31360
USER: genes 5 Torsion [C]-CA--CB-[CG] |==|  0.58329
USER: genes 6 Torsion [CA]-CB--CG-[CD1] |==|  0.73488
USER: genes 7 Torsion [CE1]-CZ--OH-[HH] |==|  0.28632
USER: genes 8 Torsion [C]-CA--N-[C] |==|  0.72102
USER: genes 9 Torsion [N]-C--CA-[N] |==|  0.43508
USER: genes 10 Torsion [C]-CA--CB-[OG] |==|  0.30509
USER: genes 11 Torsion [CA]-CB--OG-[HG] |==|  0.92829
USER: genes 12 Torsion [C]-CA--CB-[CG] |==|  0.41057
USER: genes 13 Torsion [CA]-CB--CG-[CD2] |==|  0.25119
USER: genes 14 Torsion [N]-CA--C-[O] |==|  0.02004
USER: genes 15 Torsion [C]-N--CA-[CB] |==|  0.91641
USER: genes 16 Torsion [N]-CA--C-[N] |==|  0.31812
USER: genes 17 Torsion [N]-CA--C-[O] |==|  0.68845
USER: genes 18 Torsion [N]-CA--CB-[CG] |==|  0.67532
USER: genes 19 Torsion [CA]-CB--CG-[CD] |==|  0.63940
USER: genes 20 Torsion [CB]-CG--CD-[NE] |==|  0.80399
USER: genes 21 Torsion [CG]-CD--NE-[HE] |==|  0.77448
ROOT
ATOM      1  C   LEU C   7       0.547 -33.696  -9.353  1.00 32.10 LIG 0.24  C 
ATOM      2 O    LEU C   7      -0.492 -33.202  -9.837  1.00 36.06 LIG-0.27  OA
ATOM      3  N   PRO C   8       0.557 -34.395  -8.193  1.00 34.15 LIG-0.34  N 
ATOM      4  CA  PRO C   8      -0.739 -34.482  -7.547  1.00 36.52 LIG 0.18  C 
ATOM      5  CB  PRO C   8      -0.474 -35.319  -6.273  1.00 33.63 LIG 0.04  C 
ATOM      6  CG  PRO C   8       0.694 -36.171  -6.628  1.00 36.13 LIG 0.02  C 
ATOM      7  CD  PRO C   8       1.546 -35.309  -7.565  1.00 34.25 LIG 0.13  C 
ENDROOT
BRANCH 1 8
ATOM      8  CA  LEU C   7       1.860 -33.606 -10.155  1.00 27.99 LIG 0.18  C 
BRANCH 8 9
ATOM      9  N   LEU C   7       1.804 -34.150 -11.528  1.00 26.55 LIG-0.35  N 
ATOM     10 H    LEU C   7       1.597 -33.597 -12.152  1.00 26.55 LIG 0.16  HD
ATOM     11  C   TYR C   6       2.072 -35.416 -11.675  1.00 27.48 LIG 0.24  C 
ATOM     12 O    TYR C   6       2.421 -36.113 -10.679  1.00 27.70 LIG-0.27  OA
BRANCH 11 13
ATOM     13  CA  TYR C   6       1.868 -35.986 -13.051  1.00 25.37 LIG 0.18  C 
BRANCH 13 14
ATOM     14  CB  TYR C   6       0.902 -37.184 -12.985  1.00 25.99 LIG 0.07  C 
BRANCH 14 15
ATOM     15  CG  TYR C   6       1.118 -38.267 -14.037  1.00 32.28 LIG-0.06  A 
ATOM     16  CD1 TYR C   6       0.383 -38.271 -15.225  1.00 32.91 LIG 0.01  A 
ATOM     17  CE1 TYR C   6       0.576 -39.244 -16.188  1.00 37.22 LIG 0.04  A 
ATOM     18  CZ  TYR C   6       1.509 -40.247 -15.962  1.00 40.59 LIG 0.07  A 
ATOM     19  CE2 TYR C   6       2.246 -40.283 -14.778  1.00 40.82 LIG 0.04  A 
ATOM     20  CD2 TYR C   6       2.038 -39.298 -13.819  1.00 36.01 LIG 0.01  A 
BRANCH 18 21
ATOM     21 OH   TYR C   6       1.688 -41.204 -16.940  1.00 45.73 LIG-0.36  OA
ATOM     22 HH   TYR C   6       2.396 -41.043 -17.363  1.00 45.73 LIG 0.22  HD
ENDBRANCH 18 21
ENDBRANCH 14 15
ENDBRANCH 13 14
BRANCH 13 23
ATOM     23  N   TYR C   6       3.079 -36.383 -13.685  1.00 26.32 LIG-0.34  N 
ATOM     24 H    TYR C   6       3.393 -37.143 -13.434  1.00 26.32 LIG 0.16  HD
ATOM     25  C   SER C   5       3.628 -35.602 -14.577  1.00 29.69 LIG 0.26  C 
ATOM     26 O    SER C   5       3.166 -34.445 -14.827  1.00 27.24 LIG-0.27  OA
BRANCH 25 27
ATOM     27  CA  SER C   5       4.827 -36.246 -15.356  1.00 35.45 LIG 0.42  C 
ATOM     28  N   SER C   5       5.015 -35.567 -16.664  1.00 39.53 LIG 0.62  N 
BRANCH 27 29
ATOM     29  CB  SER C   5       6.133 -36.246 -14.565  1.00 42.03 LIG 0.21  C 
BRANCH 29 30
ATOM     30 OG   SER C   5       6.526 -37.536 -14.150  1.00 42.36 LIG-0.40  OA
ATOM     31 HG   SER C   5       5.848 -38.028 -14.086  1.00 42.36 LIG 0.21  HD
ENDBRANCH 29 30
ENDBRANCH 27 29
ENDBRANCH 25 27
ENDBRANCH 13 23
ENDBRANCH 11 13
ENDBRANCH 8 9
BRANCH 8 32
ATOM     32  CB  LEU C   7       2.403 -32.225 -10.177  1.00 26.58 LIG 0.04  C 
BRANCH 32 33
ATOM     33  CG  LEU C   7       3.930 -32.427 -10.222  1.00 24.49 LIG-0.02  C 
ATOM     34  CD2 LEU C   7       4.310 -32.477 -11.673  1.00 27.30 LIG 0.01  C 
ATOM     35  CD1 LEU C   7       4.196 -33.799  -9.621  1.00 29.65 LIG 0.01  C 
ENDBRANCH 32 33
ENDBRANCH 8 32
ENDBRANCH 1 8
BRANCH 4 36
ATOM     36  C   PRO C   8      -1.293 -33.075  -7.274  1.00 40.02 LIG 0.24  C 
ATOM     37 O    PRO C   8      -0.730 -32.075  -7.704  1.00 40.33 LIG-0.27  OA
ATOM     38  N   ARG C   9      -2.457 -33.048  -6.645  1.00 39.93 LIG-0.35  N 
ATOM     39 H    ARG C   9      -2.874 -33.767  -6.424  1.00 39.93 LIG 0.16  HD
BRANCH 38 40
ATOM     40  CA  ARG C   9      -3.167 -31.842  -6.253  1.00 44.47 LIG 0.18  C 
BRANCH 40 41
ATOM     41  C   ARG C   9      -4.167 -31.468  -7.388  1.00 44.78 LIG 0.24  C 
ATOM     42  N   PRO C  10      -5.496 -31.526  -7.120  1.00 46.18 LIG-0.34  N 
ATOM     43  CA  PRO C  10      -6.557 -31.238  -8.135  1.00 48.25 LIG 0.17  C 
ATOM     44  CD  PRO C  10      -6.065 -32.006  -5.841  1.00 48.73 LIG 0.13  C 
ATOM     45  CB  PRO C  10      -7.876 -31.473  -7.372  1.00 49.47 LIG 0.04  C 
ATOM     46  CG  PRO C  10      -7.511 -32.281  -6.167  1.00 52.76 LIG 0.02  C 
ATOM     47 O    ARG C   9      -3.731 -31.183  -8.508  1.00 45.76 LIG-0.27  OA
BRANCH 43 48
ATOM     48  C   PRO C  10      -6.587 -29.815  -8.715  1.00 47.63 LIG 0.22  C 
ATOM     49 O    PRO C  10      -7.522 -29.057  -8.462  1.00 46.26 LIG-0.29  OA
ENDBRANCH 43 48
ENDBRANCH 40 41
BRANCH 40 50
ATOM     50  CB  ARG C   9      -2.117 -30.718  -5.969  1.00 49.80 LIG 0.04  C 
BRANCH 50 51
ATOM     51  CG  ARG C   9      -2.098 -30.210  -4.512  1.00 51.68 LIG 0.02  C 
BRANCH 51 52
ATOM     52  CD  ARG C   9      -2.166 -28.652  -4.391  1.00 46.90 LIG 0.14  C 
BRANCH 52 53
ATOM     53  NE  ARG C   9      -0.908 -28.068  -4.847  1.00 50.11 LIG-0.23  N 
ATOM     54 HE   ARG C   9      -0.261 -28.065  -4.281  1.00 50.11 LIG 0.18  HD
ATOM     55  CZ  ARG C   9      -0.651 -27.539  -6.039  1.00 44.95 LIG 0.67  C 
ATOM     56  NH1 ARG C   9       0.545 -27.063  -6.260  1.00 55.49 LIG-0.23  N 
ATOM     57  NH2 ARG C   9      -1.541 -27.487  -6.990  1.00 40.08 LIG-0.23  N 
ATOM     58 1HH1 ARG C   9       1.142 -27.097  -5.642  1.00 55.49 LIG 0.17  HD
ATOM     59 2HH1 ARG C   9       0.736 -26.716  -7.023  1.00 55.49 LIG 0.17  HD
ATOM     60 1HH2 ARG C   9      -2.330 -27.802  -6.858  1.00 40.08 LIG 0.17  HD
ATOM     61 2HH2 ARG C   9      -1.340 -27.137  -7.749  1.00 40.08 LIG 0.17  HD
ENDBRANCH 52 53
ENDBRANCH 51 52
ENDBRANCH 50 51
ENDBRANCH 40 50
ENDBRANCH 38 40
ENDBRANCH 4 36
TORSDOF 20
ENDMDL
MODEL 54
USER: ADFR SOLUTION from run 67
USER: SCORE 18.943537 LL:  -4.035 LR: -16.868 RR:   0.000 FEB: -10.902
USER: RMSD 7.733497
USER: SEED 66
USER: STATUS no improvement in best in 12 clusters for 5 generations
USER: GENES 22
USER: genes 0 Translation |==|  0.54283 0.66574 0.71618
USER: genes 1 Rotation |==|  0.43855 0.70965 0.93984 0.59390
USER: genes 2 Torsion [N]-C--CA-[N] |==|  0.31810
USER: genes 3 Torsion [C]-CA--N-[C] |==|  0.19006
USER: genes 4 Torsion [N]-C--CA-[N] |==|  0.86318
USER: genes 5 Torsion [C]-CA--CB-[CG] |==|  0.02265
USER: genes 6 Torsion [CA]-CB--CG-[CD1] |==|  0.24293
USER: genes 7 Torsion [CE1]-CZ--OH-[HH] |==|  0.35484
USER: genes 8 Torsion [C]-CA--N-[C] |==|  0.82114
USER: genes 9 Torsion [N]-C--CA-[N] |==|  0.40262
USER: genes 10 Torsion [C]-CA--CB-[OG] |==|  0.89428
USER: genes 11 Torsion [CA]-CB--OG-[HG] |==|  0.79051
USER: genes 12 Torsion [C]-CA--CB-[CG] |==|  0.25628
USER: genes 13 Torsion [CA]-CB--CG-[CD2] |==|  0.44226
USER: genes 14 Torsion [N]-CA--C-[O] |==|  0.92645
USER: genes 15 Torsion [C]-N--CA-[CB] |==|  0.50558
USER: genes 16 Torsion [N]-CA--C-[N] |==|  0.36667
USER: genes 17 Torsion [N]-CA--C-[O] |==|  0.88964
USER: genes 18 Torsion [N]-CA--CB-[CG] |==|  0.64120
USER: genes 19 Torsion [CA]-CB--CG-[CD] |==|  0.74572
USER: genes 20 Torsion [CB]-CG--CD-[NE] |==|  0.39114
USER: genes 21 Torsion [CG]-CD--NE-[HE] |==|  0.39182
ROOT
ATOM      1  C   LEU C   7      -2.312 -29.755  -4.660  1.00 32.10 LIG 0.24  C 
ATOM      2 O    LEU C   7      -1.634 -30.743  -4.311  1.00 36.06 LIG-0.27  OA
ATOM      3  N   PRO C   8      -3.405 -29.857  -5.453  1.00 34.15 LIG-0.34  N 
ATOM      4  CA  PRO C   8      -3.690 -31.210  -5.891  1.00 36.52 LIG 0.18  C 
ATOM      5  CB  PRO C   8      -4.964 -31.070  -6.759  1.00 33.63 LIG 0.04  C 
ATOM      6  CG  PRO C   8      -5.652 -29.869  -6.211  1.00 36.13 LIG 0.02  C 
ATOM      7  CD  PRO C   8      -4.525 -28.932  -5.766  1.00 34.25 LIG 0.13  C 
ENDROOT
BRANCH 1 8
ATOM      8  CA  LEU C   7      -1.964 -28.369  -4.082  1.00 27.99 LIG 0.18  C 
BRANCH 8 9
ATOM      9  N   LEU C   7      -2.067 -28.250  -2.613  1.00 26.55 LIG-0.35  N 
ATOM     10 H    LEU C   7      -2.698 -27.751  -2.310  1.00 26.55 LIG 0.16  HD
ATOM     11  C   TYR C   6      -1.198 -28.910  -1.902  1.00 27.48 LIG 0.24  C 
ATOM     12 O    TYR C   6      -0.350 -29.660  -2.468  1.00 27.70 LIG-0.27  OA
BRANCH 11 13
ATOM     13  CA  TYR C   6      -1.222 -28.665  -0.419  1.00 25.37 LIG 0.18  C 
BRANCH 13 14
ATOM     14  CB  TYR C   6      -2.448 -29.355   0.208  1.00 25.99 LIG 0.07  C 
BRANCH 14 15
ATOM     15  CG  TYR C   6      -3.238 -30.271  -0.721  1.00 32.28 LIG-0.06  A 
ATOM     16  CD1 TYR C   6      -2.889 -31.615  -0.873  1.00 32.91 LIG 0.01  A 
ATOM     17  CE1 TYR C   6      -3.603 -32.455  -1.707  1.00 37.22 LIG 0.04  A 
ATOM     18  CZ  TYR C   6      -4.678 -31.947  -2.423  1.00 40.59 LIG 0.07  A 
ATOM     19  CE2 TYR C   6      -5.042 -30.605  -2.309  1.00 40.82 LIG 0.04  A 
ATOM     20  CD2 TYR C   6      -4.312 -29.773  -1.467  1.00 36.01 LIG 0.01  A 
BRANCH 18 21
ATOM     21 OH   TYR C   6      -5.379 -32.805  -3.245  1.00 45.73 LIG-0.36  OA
ATOM     22 HH   TYR C   6      -6.198 -32.759  -3.066  1.00 45.73 LIG 0.22  HD
ENDBRANCH 18 21
ENDBRANCH 14 15
ENDBRANCH 13 14
BRANCH 13 23
ATOM     23  N   TYR C   6      -1.222 -27.284  -0.074  1.00 26.32 LIG-0.34  N 
ATOM     24 H    TYR C   6      -1.929 -27.006   0.329  1.00 26.32 LIG 0.16  HD
ATOM     25  C   SER C   5      -0.191 -26.542  -0.376  1.00 29.69 LIG 0.26  C 
ATOM     26 O    SER C   5       0.780 -26.993  -1.062  1.00 27.24 LIG-0.27  OA
BRANCH 25 27
ATOM     27  CA  SER C   5      -0.218 -25.104   0.249  1.00 35.45 LIG 0.42  C 
ATOM     28  N   SER C   5       1.159 -24.670   0.602  1.00 39.53 LIG 0.62  N 
BRANCH 27 29
ATOM     29  CB  SER C   5      -0.888 -24.066  -0.648  1.00 42.03 LIG 0.21  C 
BRANCH 29 30
ATOM     30 OG   SER C   5      -0.598 -24.251  -2.016  1.00 42.36 LIG-0.40  OA
ATOM     31 HG   SER C   5       0.185 -23.992  -2.175  1.00 42.36 LIG 0.21  HD
ENDBRANCH 29 30
ENDBRANCH 27 29
ENDBRANCH 25 27
ENDBRANCH 13 23
ENDBRANCH 11 13
ENDBRANCH 8 9
BRANCH 8 32
ATOM     32  CB  LEU C   7      -0.634 -27.896  -4.539  1.00 26.58 LIG 0.04  C 
BRANCH 32 33
ATOM     33  CG  LEU C   7      -0.948 -27.074  -5.804  1.00 24.49 LIG-0.02  C 
ATOM     34  CD2 LEU C   7       0.225 -26.162  -6.021  1.00 27.30 LIG 0.01  C 
ATOM     35  CD1 LEU C   7      -2.154 -26.212  -5.464  1.00 29.65 LIG 0.01  C 
ENDBRANCH 32 33
ENDBRANCH 8 32
ENDBRANCH 1 8
BRANCH 4 36
ATOM     36  C   PRO C   8      -2.480 -31.795  -6.636  1.00 40.02 LIG 0.24  C 
ATOM     37 O    PRO C   8      -1.678 -31.071  -7.213  1.00 40.33 LIG-0.27  OA
ATOM     38  N   ARG C   9      -2.328 -33.103  -6.509  1.00 39.93 LIG-0.35  N 
ATOM     39 H    ARG C   9      -2.859 -33.581  -6.030  1.00 39.93 LIG 0.16  HD
BRANCH 38 40
ATOM     40  CA  ARG C   9      -1.278 -33.887  -7.138  1.00 44.47 LIG 0.18  C 
BRANCH 40 41
ATOM     41  C   ARG C   9      -1.319 -33.624  -8.673  1.00 44.78 LIG 0.24  C 
ATOM     42  N   PRO C  10      -0.155 -33.339  -9.309  1.00 46.18 LIG-0.34  N 
ATOM     43  CA  PRO C  10      -0.067 -33.022 -10.769  1.00 48.25 LIG 0.17  C 
ATOM     44  CD  PRO C  10       1.146 -33.174  -8.624  1.00 48.73 LIG 0.13  C 
ATOM     45  CB  PRO C  10       1.431 -32.735 -10.997  1.00 49.47 LIG 0.04  C 
ATOM     46  CG  PRO C  10       2.007 -32.471  -9.642  1.00 52.76 LIG 0.02  C 
ATOM     47 O    ARG C   9      -2.407 -33.630  -9.258  1.00 45.76 LIG-0.27  OA
BRANCH 43 48
ATOM     48  C   PRO C  10      -0.496 -34.131 -11.742  1.00 47.63 LIG 0.22  C 
ATOM     49 O    PRO C  10      -0.204 -35.304 -11.520  1.00 46.26 LIG-0.29  OA
ENDBRANCH 43 48
ENDBRANCH 40 41
BRANCH 40 50
ATOM     50  CB  ARG C   9      -1.495 -35.392  -6.769  1.00 49.80 LIG 0.04  C 
BRANCH 50 51
ATOM     51  CG  ARG C   9      -0.245 -36.104  -6.210  1.00 51.68 LIG 0.02  C 
BRANCH 51 52
ATOM     52  CD  ARG C   9       0.621 -36.805  -7.307  1.00 46.90 LIG 0.14  C 
BRANCH 52 53
ATOM     53  NE  ARG C   9       2.037 -36.624  -7.007  1.00 50.11 LIG-0.23  N 
ATOM     54 HE   ARG C   9       2.550 -37.298  -7.160  1.00 50.11 LIG 0.18  HD
ATOM     55  CZ  ARG C   9       2.625 -35.534  -6.523  1.00 44.95 LIG 0.67  C 
ATOM     56  NH1 ARG C   9       3.915 -35.566  -6.320  1.00 55.49 LIG-0.23  N 
ATOM     57  NH2 ARG C   9       1.966 -34.442  -6.256  1.00 40.08 LIG-0.23  N 
ATOM     58 1HH1 ARG C   9       4.361 -36.279  -6.498  1.00 55.49 LIG 0.17  HD
ATOM     59 2HH1 ARG C   9       4.318 -34.873  -6.007  1.00 55.49 LIG 0.17  HD
ATOM     60 1HH2 ARG C   9       1.117 -34.408  -6.391  1.00 40.08 LIG 0.17  HD
ATOM     61 2HH2 ARG C   9       2.379 -33.756  -5.944  1.00 40.08 LIG 0.17  HD
ENDBRANCH 52 53
ENDBRANCH 51 52
ENDBRANCH 50 51
ENDBRANCH 40 50
ENDBRANCH 38 40
ENDBRANCH 4 36
TORSDOF 20
ENDMDL
MODEL 55
USER: ADFR SOLUTION from run 187
USER: SCORE 18.613315 LL:  -2.660 LR: -16.864 RR:   0.000 FEB: -10.898
USER: RMSD 10.931313
USER: SEED 186
USER: STATUS no improvement in best in 12 clusters for 5 generations
USER: GENES 22
USER: genes 0 Translation |==|  0.55971 0.55678 0.63399
USER: genes 1 Rotation |==|  0.59970 0.06766 0.72972 0.51928
USER: genes 2 Torsion [N]-C--CA-[N] |==|  0.48332
USER: genes 3 Torsion [C]-CA--N-[C] |==|  0.77095
USER: genes 4 Torsion [N]-C--CA-[N] |==|  0.15119
USER: genes 5 Torsion [C]-CA--CB-[CG] |==|  0.36801
USER: genes 6 Torsion [CA]-CB--CG-[CD1] |==|  0.08568
USER: genes 7 Torsion [CE1]-CZ--OH-[HH] |==|  0.00508
USER: genes 8 Torsion [C]-CA--N-[C] |==|  0.62829
USER: genes 9 Torsion [N]-C--CA-[N] |==|  0.24497
USER: genes 10 Torsion [C]-CA--CB-[OG] |==|  0.24735
USER: genes 11 Torsion [CA]-CB--OG-[HG] |==|  0.75678
USER: genes 12 Torsion [C]-CA--CB-[CG] |==|  0.54590
USER: genes 13 Torsion [CA]-CB--CG-[CD2] |==|  0.66107
USER: genes 14 Torsion [N]-CA--C-[O] |==|  0.19513
USER: genes 15 Torsion [C]-N--CA-[CB] |==|  0.75000
USER: genes 16 Torsion [N]-CA--C-[N] |==|  0.16873
USER: genes 17 Torsion [N]-CA--C-[O] |==|  0.85463
USER: genes 18 Torsion [N]-CA--CB-[CG] |==|  0.56838
USER: genes 19 Torsion [CA]-CB--CG-[CD] |==|  0.92356
USER: genes 20 Torsion [CB]-CG--CD-[NE] |==|  0.78036
USER: genes 21 Torsion [CG]-CD--NE-[HE] |==|  0.98430
ROOT
ATOM      1  C   LEU C   7      -1.958 -31.716  -6.694  1.00 32.10 LIG 0.24  C 
ATOM      2 O    LEU C   7      -1.340 -30.674  -6.994  1.00 36.06 LIG-0.27  OA
ATOM      3  N   PRO C   8      -3.164 -31.702  -6.076  1.00 34.15 LIG-0.34  N 
ATOM      4  CA  PRO C   8      -3.649 -30.372  -5.762  1.00 36.52 LIG 0.18  C 
ATOM      5  CB  PRO C   8      -5.019 -30.616  -5.084  1.00 33.63 LIG 0.04  C 
ATOM      6  CG  PRO C   8      -5.489 -31.907  -5.659  1.00 36.13 LIG 0.02  C 
ATOM      7  CD  PRO C   8      -4.217 -32.731  -5.880  1.00 34.25 LIG 0.13  C 
ENDROOT
BRANCH 1 8
ATOM      8  CA  LEU C   7      -1.386 -33.077  -7.135  1.00 27.99 LIG 0.18  C 
BRANCH 8 9
ATOM      9  N   LEU C   7      -0.139 -33.015  -7.924  1.00 26.55 LIG-0.35  N 
ATOM     10 H    LEU C   7       0.595 -33.137  -7.493  1.00 26.55 LIG 0.16  HD
ATOM     11  C   TYR C   6      -0.255 -32.783  -9.200  1.00 27.48 LIG 0.24  C 
ATOM     12 O    TYR C   6      -1.400 -32.678  -9.726  1.00 27.70 LIG-0.27  OA
BRANCH 11 13
ATOM     13  CA  TYR C   6       1.026 -32.577  -9.961  1.00 25.37 LIG 0.18  C 
BRANCH 13 14
ATOM     14  CB  TYR C   6       0.720 -32.375 -11.458  1.00 25.99 LIG 0.07  C 
BRANCH 14 15
ATOM     15  CG  TYR C   6       1.424 -31.197 -12.123  1.00 32.28 LIG-0.06  A 
ATOM     16  CD1 TYR C   6       2.684 -30.775 -11.689  1.00 32.91 LIG 0.01  A 
ATOM     17  CE1 TYR C   6       3.333 -29.713 -12.290  1.00 37.22 LIG 0.04  A 
ATOM     18  CZ  TYR C   6       2.714 -29.042 -13.336  1.00 40.59 LIG 0.07  A 
ATOM     19  CE2 TYR C   6       1.449 -29.426 -13.781  1.00 40.82 LIG 0.04  A 
ATOM     20  CD2 TYR C   6       0.808 -30.495 -13.164  1.00 36.01 LIG 0.01  A 
BRANCH 18 21
ATOM     21 OH   TYR C   6       3.384 -27.988 -13.924  1.00 45.73 LIG-0.36  OA
ATOM     22 HH   TYR C   6       4.138 -27.900 -13.564  1.00 45.73 LIG 0.22  HD
ENDBRANCH 18 21
ENDBRANCH 14 15
ENDBRANCH 13 14
BRANCH 13 23
ATOM     23  N   TYR C   6       1.956 -33.642  -9.802  1.00 26.32 LIG-0.34  N 
ATOM     24 H    TYR C   6       1.627 -34.432  -9.882  1.00 26.32 LIG 0.16  HD
ATOM     25  C   SER C   5       3.210 -33.373  -9.553  1.00 29.69 LIG 0.26  C 
ATOM     26 O    SER C   5       3.611 -32.184  -9.347  1.00 27.24 LIG-0.27  OA
BRANCH 25 27
ATOM     27  CA  SER C   5       4.167 -34.613  -9.620  1.00 35.45 LIG 0.42  C 
ATOM     28  N   SER C   5       4.665 -34.805 -11.006  1.00 39.53 LIG 0.62  N 
BRANCH 27 29
ATOM     29  CB  SER C   5       5.337 -34.529  -8.642  1.00 42.03 LIG 0.21  C 
BRANCH 29 30
ATOM     30 OG   SER C   5       5.038 -35.079  -7.378  1.00 42.36 LIG-0.40  OA
ATOM     31 HG   SER C   5       4.690 -34.489  -6.890  1.00 42.36 LIG 0.21  HD
ENDBRANCH 29 30
ENDBRANCH 27 29
ENDBRANCH 25 27
ENDBRANCH 13 23
ENDBRANCH 11 13
ENDBRANCH 8 9
BRANCH 8 32
ATOM     32  CB  LEU C   7      -1.219 -34.006  -5.990  1.00 26.58 LIG 0.04  C 
BRANCH 32 33
ATOM     33  CG  LEU C   7      -0.274 -35.096  -6.531  1.00 24.49 LIG-0.02  C 
ATOM     34  CD2 LEU C   7      -1.003 -36.400  -6.391  1.00 27.30 LIG 0.01  C 
ATOM     35  CD1 LEU C   7       0.923 -35.126  -5.593  1.00 29.65 LIG 0.01  C 
ENDBRANCH 32 33
ENDBRANCH 8 32
ENDBRANCH 1 8
BRANCH 4 36
ATOM     36  C   PRO C   8      -2.632 -29.628  -4.882  1.00 40.02 LIG 0.24  C 
ATOM     37 O    PRO C   8      -1.557 -29.252  -5.332  1.00 40.33 LIG-0.27  OA
ATOM     38  N   ARG C   9      -3.056 -29.345  -3.661  1.00 39.93 LIG-0.35  N 
ATOM     39 H    ARG C   9      -3.847 -29.549  -3.392  1.00 39.93 LIG 0.16  HD
BRANCH 38 40
ATOM     40  CA  ARG C   9      -2.271 -28.673  -2.639  1.00 44.47 LIG 0.18  C 
BRANCH 40 41
ATOM     41  C   ARG C   9      -1.322 -27.654  -3.336  1.00 44.78 LIG 0.24  C 
ATOM     42  N   PRO C  10      -1.878 -26.653  -4.065  1.00 46.18 LIG-0.34  N 
ATOM     43  CA  PRO C  10      -1.077 -25.638  -4.821  1.00 48.25 LIG 0.17  C 
ATOM     44  CD  PRO C  10      -3.329 -26.514  -4.315  1.00 48.73 LIG 0.13  C 
ATOM     45  CB  PRO C  10      -2.143 -24.759  -5.505  1.00 49.47 LIG 0.04  C 
ATOM     46  CG  PRO C  10      -3.409 -25.554  -5.475  1.00 52.76 LIG 0.02  C 
ATOM     47 O    ARG C   9      -0.100 -27.810  -3.253  1.00 45.76 LIG-0.27  OA
BRANCH 43 48
ATOM     48  C   PRO C  10      -0.163 -24.724  -3.990  1.00 47.63 LIG 0.22  C 
ATOM     49 O    PRO C  10      -0.611 -24.097  -3.032  1.00 46.26 LIG-0.29  OA
ENDBRANCH 43 48
ENDBRANCH 40 41
BRANCH 40 50
ATOM     50  CB  ARG C   9      -1.503 -29.757  -1.812  1.00 49.80 LIG 0.04  C 
BRANCH 50 51
ATOM     51  CG  ARG C   9      -1.120 -29.323  -0.381  1.00 51.68 LIG 0.02  C 
BRANCH 51 52
ATOM     52  CD  ARG C   9      -0.931 -27.779  -0.224  1.00 46.90 LIG 0.14  C 
BRANCH 52 53
ATOM     53  NE  ARG C   9       0.379 -27.389  -0.737  1.00 50.11 LIG-0.23  N 
ATOM     54 HE   ARG C   9       0.899 -28.029  -0.981  1.00 50.11 LIG 0.18  HD
ATOM     55  CZ  ARG C   9       0.857 -26.156  -0.871  1.00 44.95 LIG 0.67  C 
ATOM     56  NH1 ARG C   9       2.061 -26.008  -1.354  1.00 55.49 LIG-0.23  N 
ATOM     57  NH2 ARG C   9       0.168 -25.097  -0.547  1.00 40.08 LIG-0.23  N 
ATOM     58 1HH1 ARG C   9       2.523 -26.699  -1.576  1.00 55.49 LIG 0.17  HD
ATOM     59 2HH1 ARG C   9       2.393 -25.221  -1.449  1.00 55.49 LIG 0.17  HD
ATOM     60 1HH2 ARG C   9      -0.628 -25.182  -0.233  1.00 40.08 LIG 0.17  HD
ATOM     61 2HH2 ARG C   9       0.510 -24.315  -0.646  1.00 40.08 LIG 0.17  HD
ENDBRANCH 52 53
ENDBRANCH 51 52
ENDBRANCH 50 51
ENDBRANCH 40 50
ENDBRANCH 38 40
ENDBRANCH 4 36
TORSDOF 20
ENDMDL
MODEL 56
USER: ADFR SOLUTION from run 189
USER: SCORE 18.518605 LL:  -2.942 LR: -16.856 RR:   0.000 FEB: -10.890
USER: RMSD 10.506279
USER: SEED 188
USER: STATUS no improvement in best in 8 clusters for 5 generations
USER: GENES 22
USER: genes 0 Translation |==|  0.54826 0.55591 0.61639
USER: genes 1 Rotation |==|  0.53807 0.03203 0.67168 0.50881
USER: genes 2 Torsion [N]-C--CA-[N] |==|  0.41216
USER: genes 3 Torsion [C]-CA--N-[C] |==|  0.62982
USER: genes 4 Torsion [N]-C--CA-[N] |==|  0.19312
USER: genes 5 Torsion [C]-CA--CB-[CG] |==|  0.24947
USER: genes 6 Torsion [CA]-CB--CG-[CD1] |==|  0.06153
USER: genes 7 Torsion [CE1]-CZ--OH-[HH] |==|  0.72257
USER: genes 8 Torsion [C]-CA--N-[C] |==|  0.76472
USER: genes 9 Torsion [N]-C--CA-[N] |==|  0.63700
USER: genes 10 Torsion [C]-CA--CB-[OG] |==|  0.86538
USER: genes 11 Torsion [CA]-CB--OG-[HG] |==|  0.83209
USER: genes 12 Torsion [C]-CA--CB-[CG] |==|  0.73595
USER: genes 13 Torsion [CA]-CB--CG-[CD2] |==|  0.67128
USER: genes 14 Torsion [N]-CA--C-[O] |==|  0.92852
USER: genes 15 Torsion [C]-N--CA-[CB] |==|  0.55892
USER: genes 16 Torsion [N]-CA--C-[N] |==|  0.84692
USER: genes 17 Torsion [N]-CA--C-[O] |==|  0.53100
USER: genes 18 Torsion [N]-CA--CB-[CG] |==|  0.80279
USER: genes 19 Torsion [CA]-CB--CG-[CD] |==|  0.61791
USER: genes 20 Torsion [CB]-CG--CD-[NE] |==|  0.10023
USER: genes 21 Torsion [CG]-CD--NE-[HE] |==|  0.62827
ROOT
ATOM      1  C   LEU C   7      -2.199 -31.732  -7.129  1.00 32.10 LIG 0.24  C 
ATOM      2 O    LEU C   7      -1.337 -30.829  -7.086  1.00 36.06 LIG-0.27  OA
ATOM      3  N   PRO C   8      -3.447 -31.580  -6.625  1.00 34.15 LIG-0.34  N 
ATOM      4  CA  PRO C   8      -3.676 -30.293  -5.998  1.00 36.52 LIG 0.18  C 
ATOM      5  CB  PRO C   8      -5.146 -30.359  -5.518  1.00 33.63 LIG 0.04  C 
ATOM      6  CG  PRO C   8      -5.797 -31.314  -6.458  1.00 36.13 LIG 0.02  C 
ATOM      7  CD  PRO C   8      -4.712 -32.340  -6.798  1.00 34.25 LIG 0.13  C 
ENDROOT
BRANCH 1 8
ATOM      8  CA  LEU C   7      -1.874 -33.038  -7.881  1.00 27.99 LIG 0.18  C 
BRANCH 8 9
ATOM      9  N   LEU C   7      -0.889 -32.912  -8.974  1.00 26.55 LIG-0.35  N 
ATOM     10 H    LEU C   7      -0.174 -32.469  -8.799  1.00 26.55 LIG 0.16  HD
ATOM     11  C   TYR C   6      -1.186 -33.481 -10.108  1.00 27.48 LIG 0.24  C 
ATOM     12 O    TYR C   6      -2.250 -34.156 -10.222  1.00 27.70 LIG-0.27  OA
BRANCH 11 13
ATOM     13  CA  TYR C   6      -0.246 -33.222 -11.253  1.00 25.37 LIG 0.18  C 
BRANCH 13 14
ATOM     14  CB  TYR C   6      -0.887 -33.687 -12.574  1.00 25.99 LIG 0.07  C 
BRANCH 14 15
ATOM     15  CG  TYR C   6      -1.718 -32.640 -13.310  1.00 32.28 LIG-0.06  A 
ATOM     16  CD1 TYR C   6      -1.520 -31.276 -13.083  1.00 32.91 LIG 0.01  A 
ATOM     17  CE1 TYR C   6      -2.263 -30.320 -13.750  1.00 37.22 LIG 0.04  A 
ATOM     18  CZ  TYR C   6      -3.238 -30.725 -14.651  1.00 40.59 LIG 0.07  A 
ATOM     19  CE2 TYR C   6      -3.474 -32.080 -14.887  1.00 40.82 LIG 0.04  A 
ATOM     20  CD2 TYR C   6      -2.719 -33.029 -14.206  1.00 36.01 LIG 0.01  A 
BRANCH 18 21
ATOM     21 OH   TYR C   6      -3.963 -29.753 -15.309  1.00 45.73 LIG-0.36  OA
ATOM     22 HH   TYR C   6      -4.709 -29.657 -14.933  1.00 45.73 LIG 0.22  HD
ENDBRANCH 18 21
ENDBRANCH 14 15
ENDBRANCH 13 14
BRANCH 13 23
ATOM     23  N   TYR C   6       1.025 -33.842 -11.093  1.00 26.32 LIG-0.34  N 
ATOM     24 H    TYR C   6       1.111 -34.608 -11.474  1.00 26.32 LIG 0.16  HD
ATOM     25  C   SER C   5       1.956 -33.239 -10.403  1.00 29.69 LIG 0.26  C 
ATOM     26 O    SER C   5       1.731 -32.154  -9.780  1.00 27.24 LIG-0.27  OA
BRANCH 25 27
ATOM     27  CA  SER C   5       3.369 -33.915 -10.486  1.00 35.45 LIG 0.42  C 
ATOM     28  N   SER C   5       3.935 -34.095  -9.124  1.00 39.53 LIG 0.62  N 
BRANCH 27 29
ATOM     29  CB  SER C   5       3.361 -35.244 -11.238  1.00 42.03 LIG 0.21  C 
BRANCH 29 30
ATOM     30 OG   SER C   5       2.336 -36.113 -10.810  1.00 42.36 LIG-0.40  OA
ATOM     31 HG   SER C   5       2.438 -36.288  -9.994  1.00 42.36 LIG 0.21  HD
ENDBRANCH 29 30
ENDBRANCH 27 29
ENDBRANCH 25 27
ENDBRANCH 13 23
ENDBRANCH 11 13
ENDBRANCH 8 9
BRANCH 8 32
ATOM     32  CB  LEU C   7      -1.471 -34.125  -6.955  1.00 26.58 LIG 0.04  C 
BRANCH 32 33
ATOM     33  CG  LEU C   7       0.067 -34.055  -6.948  1.00 24.49 LIG-0.02  C 
ATOM     34  CD2 LEU C   7       0.556 -35.371  -7.479  1.00 27.30 LIG 0.01  C 
ATOM     35  CD1 LEU C   7       0.483 -33.956  -5.488  1.00 29.65 LIG 0.01  C 
ENDBRANCH 32 33
ENDBRANCH 8 32
ENDBRANCH 1 8
BRANCH 4 36
ATOM     36  C   PRO C   8      -2.655 -30.059  -4.873  1.00 40.02 LIG 0.24  C 
ATOM     37 O    PRO C   8      -2.125 -30.998  -4.290  1.00 40.33 LIG-0.27  OA
ATOM     38  N   ARG C   9      -2.330 -28.793  -4.672  1.00 39.93 LIG-0.35  N 
ATOM     39 H    ARG C   9      -2.655 -28.155  -5.149  1.00 39.93 LIG 0.16  HD
BRANCH 38 40
ATOM     40  CA  ARG C   9      -1.409 -28.318  -3.652  1.00 44.47 LIG 0.18  C 
BRANCH 40 41
ATOM     41  C   ARG C   9      -1.579 -29.206  -2.383  1.00 44.78 LIG 0.24  C 
ATOM     42  N   PRO C  10      -2.818 -29.326  -1.843  1.00 46.18 LIG-0.34  N 
ATOM     43  CA  PRO C  10      -3.105 -30.110  -0.600  1.00 48.25 LIG 0.17  C 
ATOM     44  CD  PRO C  10      -4.010 -28.597  -2.329  1.00 48.73 LIG 0.13  C 
ATOM     45  CB  PRO C  10      -4.617 -29.911  -0.377  1.00 49.47 LIG 0.04  C 
ATOM     46  CG  PRO C  10      -4.998 -28.719  -1.196  1.00 52.76 LIG 0.02  C 
ATOM     47 O    ARG C   9      -0.583 -29.731  -1.875  1.00 45.76 LIG-0.27  OA
BRANCH 43 48
ATOM     48  C   PRO C  10      -2.824 -31.620  -0.657  1.00 47.63 LIG 0.22  C 
ATOM     49 O    PRO C  10      -3.220 -32.363   0.238  1.00 46.26 LIG-0.29  OA
ENDBRANCH 43 48
ENDBRANCH 40 41
BRANCH 40 50
ATOM     50  CB  ARG C   9      -1.703 -26.805  -3.384  1.00 49.80 LIG 0.04  C 
BRANCH 50 51
ATOM     51  CG  ARG C   9      -1.287 -25.857  -4.528  1.00 51.68 LIG 0.02  C 
BRANCH 51 52
ATOM     52  CD  ARG C   9      -0.593 -24.545  -4.033  1.00 46.90 LIG 0.14  C 
BRANCH 52 53
ATOM     53  NE  ARG C   9       0.235 -24.837  -2.866  1.00 50.11 LIG-0.23  N 
ATOM     54 HE   ARG C   9       0.162 -24.297  -2.201  1.00 50.11 LIG 0.18  HD
ATOM     55  CZ  ARG C   9       1.089 -25.845  -2.717  1.00 44.95 LIG 0.67  C 
ATOM     56  NH1 ARG C   9       1.743 -25.940  -1.591  1.00 55.49 LIG-0.23  N 
ATOM     57  NH2 ARG C   9       1.288 -26.739  -3.645  1.00 40.08 LIG-0.23  N 
ATOM     58 1HH1 ARG C   9       1.616 -25.359  -0.969  1.00 55.49 LIG 0.17  HD
ATOM     59 2HH1 ARG C   9       2.302 -26.583  -1.470  1.00 55.49 LIG 0.17  HD
ATOM     60 1HH2 ARG C   9       0.859 -26.690  -4.388  1.00 40.08 LIG 0.17  HD
ATOM     61 2HH2 ARG C   9       1.849 -27.378  -3.513  1.00 40.08 LIG 0.17  HD
ENDBRANCH 52 53
ENDBRANCH 51 52
ENDBRANCH 50 51
ENDBRANCH 40 50
ENDBRANCH 38 40
ENDBRANCH 4 36
TORSDOF 20
ENDMDL
MODEL 57
USER: ADFR SOLUTION from run 15
USER: SCORE 18.245786 LL:  -2.537 LR: -16.845 RR:   0.000 FEB: -10.879
USER: RMSD 11.507747
USER: SEED 522542
USER: STATUS no improvement in best in 8 clusters for 5 generations
USER: GENES 22
USER: genes 0 Translation |==|  0.57591 0.43698 0.66340
USER: genes 1 Rotation |==|  0.67059 0.89524 0.44252 0.74775
USER: genes 2 Torsion [N]-C--CA-[N] |==|  0.10579
USER: genes 3 Torsion [C]-CA--N-[C] |==|  0.16890
USER: genes 4 Torsion [N]-C--CA-[N] |==|  0.70745
USER: genes 5 Torsion [C]-CA--CB-[CG] |==|  0.58764
USER: genes 6 Torsion [CA]-CB--CG-[CD1] |==|  0.87742
USER: genes 7 Torsion [CE1]-CZ--OH-[HH] |==|  0.31430
USER: genes 8 Torsion [C]-CA--N-[C] |==|  0.68690
USER: genes 9 Torsion [N]-C--CA-[N] |==|  0.39196
USER: genes 10 Torsion [C]-CA--CB-[OG] |==|  0.13891
USER: genes 11 Torsion [CA]-CB--OG-[HG] |==|  0.10602
USER: genes 12 Torsion [C]-CA--CB-[CG] |==|  0.39041
USER: genes 13 Torsion [CA]-CB--CG-[CD2] |==|  0.92058
USER: genes 14 Torsion [N]-CA--C-[O] |==|  0.07939
USER: genes 15 Torsion [C]-N--CA-[CB] |==|  0.78869
USER: genes 16 Torsion [N]-CA--C-[N] |==|  0.17354
USER: genes 17 Torsion [N]-CA--C-[O] |==|  0.69258
USER: genes 18 Torsion [N]-CA--CB-[CG] |==|  0.56685
USER: genes 19 Torsion [CA]-CB--CG-[CD] |==|  0.80012
USER: genes 20 Torsion [CB]-CG--CD-[NE] |==|  0.85148
USER: genes 21 Torsion [CG]-CD--NE-[HE] |==|  0.30364
ROOT
ATOM      1  C   LEU C   7      -1.618 -33.872  -5.966  1.00 32.10 LIG 0.24  C 
ATOM      2 O    LEU C   7      -1.435 -33.588  -4.764  1.00 36.06 LIG-0.27  OA
ATOM      3  N   PRO C   8      -2.333 -33.086  -6.806  1.00 34.15 LIG-0.34  N 
ATOM      4  CA  PRO C   8      -2.896 -31.909  -6.174  1.00 36.52 LIG 0.18  C 
ATOM      5  CB  PRO C   8      -3.643 -31.182  -7.319  1.00 33.63 LIG 0.04  C 
ATOM      6  CG  PRO C   8      -2.913 -31.589  -8.551  1.00 36.13 LIG 0.02  C 
ATOM      7  CD  PRO C   8      -2.453 -33.026  -8.286  1.00 34.25 LIG 0.13  C 
ENDROOT
BRANCH 1 8
ATOM      8  CA  LEU C   7      -0.916 -35.112  -6.554  1.00 27.99 LIG 0.18  C 
BRANCH 8 9
ATOM      9  N   LEU C   7      -0.329 -34.931  -7.898  1.00 26.55 LIG-0.35  N 
ATOM     10 H    LEU C   7      -0.636 -35.433  -8.523  1.00 26.55 LIG 0.16  HD
ATOM     11  C   TYR C   6       0.601 -34.027  -8.021  1.00 27.48 LIG 0.24  C 
ATOM     12 O    TYR C   6       0.927 -33.309  -7.031  1.00 27.70 LIG-0.27  OA
BRANCH 11 13
ATOM     13  CA  TYR C   6       1.291 -33.955  -9.355  1.00 25.37 LIG 0.18  C 
BRANCH 13 14
ATOM     14  CB  TYR C   6       0.444 -34.673 -10.423  1.00 25.99 LIG 0.07  C 
BRANCH 14 15
ATOM     15  CG  TYR C   6       1.227 -35.340 -11.549  1.00 32.28 LIG-0.06  A 
ATOM     16  CD1 TYR C   6       2.295 -34.685 -12.168  1.00 32.91 LIG 0.01  A 
ATOM     17  CE1 TYR C   6       3.015 -35.284 -13.184  1.00 37.22 LIG 0.04  A 
ATOM     18  CZ  TYR C   6       2.658 -36.555 -13.611  1.00 40.59 LIG 0.07  A 
ATOM     19  CE2 TYR C   6       1.585 -37.229 -13.028  1.00 40.82 LIG 0.04  A 
ATOM     20  CD2 TYR C   6       0.869 -36.612 -12.008  1.00 36.01 LIG 0.01  A 
BRANCH 18 21
ATOM     21 OH   TYR C   6       3.395 -37.135 -14.624  1.00 45.73 LIG-0.36  OA
ATOM     22 HH   TYR C   6       3.813 -37.797 -14.322  1.00 45.73 LIG 0.22  HD
ENDBRANCH 18 21
ENDBRANCH 14 15
ENDBRANCH 13 14
BRANCH 13 23
ATOM     23  N   TYR C   6       2.605 -34.499  -9.343  1.00 26.32 LIG-0.34  N 
ATOM     24 H    TYR C   6       2.651 -35.349  -9.219  1.00 26.32 LIG 0.16  HD
ATOM     25  C   SER C   5       3.633 -33.710  -9.512  1.00 29.69 LIG 0.26  C 
ATOM     26 O    SER C   5       3.502 -32.448  -9.589  1.00 27.24 LIG-0.27  OA
BRANCH 25 27
ATOM     27  CA  SER C   5       5.001 -34.454  -9.698  1.00 35.45 LIG 0.42  C 
ATOM     28  N   SER C   5       5.828 -33.762 -10.721  1.00 39.53 LIG 0.62  N 
BRANCH 27 29
ATOM     29  CB  SER C   5       5.786 -34.613  -8.399  1.00 42.03 LIG 0.21  C 
BRANCH 29 30
ATOM     30 OG   SER C   5       5.011 -35.148  -7.349  1.00 42.36 LIG-0.40  OA
ATOM     31 HG   SER C   5       4.494 -35.737  -7.654  1.00 42.36 LIG 0.21  HD
ENDBRANCH 29 30
ENDBRANCH 27 29
ENDBRANCH 25 27
ENDBRANCH 13 23
ENDBRANCH 11 13
ENDBRANCH 8 9
BRANCH 8 32
ATOM     32  CB  LEU C   7       0.099 -35.668  -5.626  1.00 26.58 LIG 0.04  C 
BRANCH 32 33
ATOM     33  CG  LEU C   7      -0.061 -37.193  -5.771  1.00 24.49 LIG-0.02  C 
ATOM     34  CD2 LEU C   7      -1.494 -37.437  -6.147  1.00 27.30 LIG 0.01  C 
ATOM     35  CD1 LEU C   7       0.164 -37.780  -4.386  1.00 29.65 LIG 0.01  C 
ENDBRANCH 32 33
ENDBRANCH 8 32
ENDBRANCH 1 8
BRANCH 4 36
ATOM     36  C   PRO C   8      -3.792 -32.315  -4.994  1.00 40.02 LIG 0.24  C 
ATOM     37 O    PRO C   8      -3.585 -33.345  -4.364  1.00 40.33 LIG-0.27  OA
ATOM     38  N   ARG C   9      -4.712 -31.425  -4.662  1.00 39.93 LIG-0.35  N 
ATOM     39 H    ARG C   9      -4.787 -30.670  -5.068  1.00 39.93 LIG 0.16  HD
BRANCH 38 40
ATOM     40  CA  ARG C   9      -5.692 -31.591  -3.601  1.00 44.47 LIG 0.18  C 
BRANCH 40 41
ATOM     41  C   ARG C   9      -4.957 -32.109  -2.329  1.00 44.78 LIG 0.24  C 
ATOM     42  N   PRO C  10      -4.007 -31.319  -1.767  1.00 46.18 LIG-0.34  N 
ATOM     43  CA  PRO C  10      -3.199 -31.720  -0.573  1.00 48.25 LIG 0.17  C 
ATOM     44  CD  PRO C  10      -3.559 -30.029  -2.334  1.00 48.73 LIG 0.13  C 
ATOM     45  CB  PRO C  10      -2.249 -30.527  -0.349  1.00 49.47 LIG 0.04  C 
ATOM     46  CG  PRO C  10      -2.254 -29.755  -1.630  1.00 52.76 LIG 0.02  C 
ATOM     47 O    ARG C   9      -5.217 -33.237  -1.898  1.00 45.76 LIG-0.27  OA
BRANCH 43 48
ATOM     48  C   PRO C  10      -3.972 -31.969   0.732  1.00 47.63 LIG 0.22  C 
ATOM     49 O    PRO C  10      -3.856 -31.198   1.682  1.00 46.26 LIG-0.29  OA
ENDBRANCH 43 48
ENDBRANCH 40 41
BRANCH 40 50
ATOM     50  CB  ARG C   9      -6.807 -32.566  -4.104  1.00 49.80 LIG 0.04  C 
BRANCH 50 51
ATOM     51  CG  ARG C   9      -8.167 -32.410  -3.391  1.00 51.68 LIG 0.02  C 
BRANCH 51 52
ATOM     52  CD  ARG C   9      -8.168 -32.940  -1.920  1.00 46.90 LIG 0.14  C 
BRANCH 52 53
ATOM     53  NE  ARG C   9      -7.684 -34.317  -1.893  1.00 50.11 LIG-0.23  N 
ATOM     54 HE   ARG C   9      -6.907 -34.442  -1.546  1.00 50.11 LIG 0.18  HD
ATOM     55  CZ  ARG C   9      -8.310 -35.399  -2.344  1.00 44.95 LIG 0.67  C 
ATOM     56  NH1 ARG C   9      -7.710 -36.554  -2.230  1.00 55.49 LIG-0.23  N 
ATOM     57  NH2 ARG C   9      -9.495 -35.350  -2.885  1.00 40.08 LIG-0.23  N 
ATOM     58 1HH1 ARG C   9      -6.930 -36.599  -1.869  1.00 55.49 LIG 0.17  HD
ATOM     59 2HH1 ARG C   9      -8.094 -37.268  -2.514  1.00 55.49 LIG 0.17  HD
ATOM     60 1HH2 ARG C   9      -9.901 -34.596  -2.961  1.00 40.08 LIG 0.17  HD
ATOM     61 2HH2 ARG C   9      -9.870 -36.071  -3.167  1.00 40.08 LIG 0.17  HD
ENDBRANCH 52 53
ENDBRANCH 51 52
ENDBRANCH 50 51
ENDBRANCH 40 50
ENDBRANCH 38 40
ENDBRANCH 4 36
TORSDOF 20
ENDMDL
MODEL 58
USER: ADFR SOLUTION from run 13
USER: SCORE 18.568154 LL:  -2.933 LR: -16.831 RR:   0.000 FEB: -10.865
USER: RMSD 10.603760
USER: SEED 293962
USER: STATUS no improvement in best in 57 clusters for 5 generations
USER: GENES 22
USER: genes 0 Translation |==|  0.67506 0.42001 0.56362
USER: genes 1 Rotation |==|  0.11151 0.76930 0.33946 0.52782
USER: genes 2 Torsion [N]-C--CA-[N] |==|  0.32784
USER: genes 3 Torsion [C]-CA--N-[C] |==|  0.79555
USER: genes 4 Torsion [N]-C--CA-[N] |==|  0.95925
USER: genes 5 Torsion [C]-CA--CB-[CG] |==|  0.37603
USER: genes 6 Torsion [CA]-CB--CG-[CD1] |==|  0.10297
USER: genes 7 Torsion [CE1]-CZ--OH-[HH] |==|  0.40406
USER: genes 8 Torsion [C]-CA--N-[C] |==|  0.81378
USER: genes 9 Torsion [N]-C--CA-[N] |==|  0.94194
USER: genes 10 Torsion [C]-CA--CB-[OG] |==|  0.13885
USER: genes 11 Torsion [CA]-CB--OG-[HG] |==|  0.96486
USER: genes 12 Torsion [C]-CA--CB-[CG] |==|  0.52717
USER: genes 13 Torsion [CA]-CB--CG-[CD2] |==|  0.73017
USER: genes 14 Torsion [N]-CA--C-[O] |==|  0.93571
USER: genes 15 Torsion [C]-N--CA-[CB] |==|  0.21251
USER: genes 16 Torsion [N]-CA--C-[N] |==|  0.35185
USER: genes 17 Torsion [N]-CA--C-[O] |==|  0.28859
USER: genes 18 Torsion [N]-CA--CB-[CG] |==|  0.64671
USER: genes 19 Torsion [CA]-CB--CG-[CD] |==|  0.58248
USER: genes 20 Torsion [CB]-CG--CD-[NE] |==|  0.61095
USER: genes 21 Torsion [CG]-CD--NE-[HE] |==|  0.31905
ROOT
ATOM      1  C   LEU C   7       0.464 -34.178  -8.435  1.00 32.10 LIG 0.24  C 
ATOM      2 O    LEU C   7      -0.492 -33.395  -8.611  1.00 36.06 LIG-0.27  OA
ATOM      3  N   PRO C   8       0.462 -35.136  -7.478  1.00 34.15 LIG-0.34  N 
ATOM      4  CA  PRO C   8      -0.732 -35.142  -6.654  1.00 36.52 LIG 0.18  C 
ATOM      5  CB  PRO C   8      -0.504 -36.308  -5.662  1.00 33.63 LIG 0.04  C 
ATOM      6  CG  PRO C   8       0.395 -37.243  -6.393  1.00 36.13 LIG 0.02  C 
ATOM      7  CD  PRO C   8       1.294 -36.346  -7.248  1.00 34.25 LIG 0.13  C 
ENDROOT
BRANCH 1 8
ATOM      8  CA  LEU C   7       1.656 -34.132  -9.411  1.00 27.99 LIG 0.18  C 
BRANCH 8 9
ATOM      9  N   LEU C   7       1.320 -34.349 -10.833  1.00 26.55 LIG-0.35  N 
ATOM     10 H    LEU C   7       1.343 -33.658 -11.344  1.00 26.55 LIG 0.16  HD
ATOM     11  C   TYR C   6       1.019 -35.564 -11.193  1.00 27.48 LIG 0.24  C 
ATOM     12 O    TYR C   6       1.078 -36.509 -10.354  1.00 27.70 LIG-0.27  OA
BRANCH 11 13
ATOM     13  CA  TYR C   6       0.538 -35.743 -12.606  1.00 25.37 LIG 0.18  C 
BRANCH 13 14
ATOM     14  CB  TYR C   6       1.619 -36.454 -13.443  1.00 25.99 LIG 0.07  C 
BRANCH 14 15
ATOM     15  CG  TYR C   6       1.122 -37.576 -14.349  1.00 32.28 LIG-0.06  A 
ATOM     16  CD1 TYR C   6      -0.107 -37.476 -15.007  1.00 32.91 LIG 0.01  A 
ATOM     17  CE1 TYR C   6      -0.563 -38.484 -15.837  1.00 37.22 LIG 0.04  A 
ATOM     18  CZ  TYR C   6       0.208 -39.626 -16.005  1.00 40.59 LIG 0.07  A 
ATOM     19  CE2 TYR C   6       1.431 -39.765 -15.348  1.00 40.82 LIG 0.04  A 
ATOM     20  CD2 TYR C   6       1.874 -38.743 -14.515  1.00 36.01 LIG 0.01  A 
BRANCH 18 21
ATOM     21 OH   TYR C   6      -0.265 -40.616 -16.842  1.00 45.73 LIG-0.36  OA
ATOM     22 HH   TYR C   6       0.380 -40.982 -17.236  1.00 45.73 LIG 0.22  HD
ENDBRANCH 18 21
ENDBRANCH 14 15
ENDBRANCH 13 14
BRANCH 13 23
ATOM     23  N   TYR C   6       0.170 -34.523 -13.238  1.00 26.32 LIG-0.34  N 
ATOM     24 H    TYR C   6       0.674 -34.280 -13.891  1.00 26.32 LIG 0.16  HD
ATOM     25  C   SER C   5      -0.871 -33.860 -12.809  1.00 29.69 LIG 0.26  C 
ATOM     26 O    SER C   5      -1.513 -34.222 -11.773  1.00 27.24 LIG-0.27  OA
BRANCH 25 27
ATOM     27  CA  SER C   5      -1.299 -32.658 -13.720  1.00 35.45 LIG 0.42  C 
ATOM     28  N   SER C   5      -0.163 -32.231 -14.577  1.00 39.53 LIG 0.62  N 
BRANCH 27 29
ATOM     29  CB  SER C   5      -2.528 -32.955 -14.576  1.00 42.03 LIG 0.21  C 
BRANCH 29 30
ATOM     30 OG   SER C   5      -3.602 -33.488 -13.832  1.00 42.36 LIG-0.40  OA
ATOM     31 HG   SER C   5      -3.330 -33.715 -13.070  1.00 42.36 LIG 0.21  HD
ENDBRANCH 29 30
ENDBRANCH 27 29
ENDBRANCH 25 27
ENDBRANCH 13 23
ENDBRANCH 11 13
ENDBRANCH 8 9
BRANCH 8 32
ATOM     32  CB  LEU C   7       2.450 -32.887  -9.260  1.00 26.58 LIG 0.04  C 
BRANCH 32 33
ATOM     33  CG  LEU C   7       3.413 -32.912 -10.462  1.00 24.49 LIG-0.02  C 
ATOM     34  CD2 LEU C   7       4.710 -33.472  -9.957  1.00 27.30 LIG 0.01  C 
ATOM     35  CD1 LEU C   7       3.649 -31.460 -10.850  1.00 29.65 LIG 0.01  C 
ENDBRANCH 32 33
ENDBRANCH 8 32
ENDBRANCH 1 8
BRANCH 4 36
ATOM     36  C   PRO C   8      -0.924 -33.772  -5.985  1.00 40.02 LIG 0.24  C 
ATOM     37 O    PRO C   8       0.020 -33.010  -5.814  1.00 40.33 LIG-0.27  OA
ATOM     38  N   ARG C   9      -2.180 -33.456  -5.717  1.00 39.93 LIG-0.35  N 
ATOM     39 H    ARG C   9      -2.836 -33.974  -5.920  1.00 39.93 LIG 0.16  HD
BRANCH 38 40
ATOM     40  CA  ARG C   9      -2.613 -32.231  -5.065  1.00 44.47 LIG 0.18  C 
BRANCH 40 41
ATOM     41  C   ARG C   9      -4.045 -32.454  -4.496  1.00 44.78 LIG 0.24  C 
ATOM     42  N   PRO C  10      -4.267 -32.186  -3.184  1.00 46.18 LIG-0.34  N 
ATOM     43  CA  PRO C  10      -5.583 -32.403  -2.507  1.00 48.25 LIG 0.17  C 
ATOM     44  CD  PRO C  10      -3.212 -31.776  -2.231  1.00 48.73 LIG 0.13  C 
ATOM     45  CB  PRO C  10      -5.320 -31.997  -1.043  1.00 49.47 LIG 0.04  C 
ATOM     46  CG  PRO C  10      -3.833 -32.009  -0.878  1.00 52.76 LIG 0.02  C 
ATOM     47 O    ARG C   9      -4.923 -32.916  -5.232  1.00 45.76 LIG-0.27  OA
BRANCH 43 48
ATOM     48  C   PRO C  10      -6.771 -31.576  -3.026  1.00 47.63 LIG 0.22  C 
ATOM     49 O    PRO C  10      -7.628 -32.095  -3.738  1.00 46.26 LIG-0.29  OA
ENDBRANCH 43 48
ENDBRANCH 40 41
BRANCH 40 50
ATOM     50  CB  ARG C   9      -2.542 -31.064  -6.104  1.00 49.80 LIG 0.04  C 
BRANCH 50 51
ATOM     51  CG  ARG C   9      -1.738 -29.833  -5.637  1.00 51.68 LIG 0.02  C 
BRANCH 51 52
ATOM     52  CD  ARG C   9      -2.238 -28.486  -6.255  1.00 46.90 LIG 0.14  C 
BRANCH 52 53
ATOM     53  NE  ARG C   9      -1.093 -27.647  -6.596  1.00 50.11 LIG-0.23  N 
ATOM     54 HE   ARG C   9      -0.975 -27.483  -7.432  1.00 50.11 LIG 0.18  HD
ATOM     55  CZ  ARG C   9      -0.212 -27.107  -5.760  1.00 44.95 LIG 0.67  C 
ATOM     56  NH1 ARG C   9       0.751 -26.380  -6.260  1.00 55.49 LIG-0.23  N 
ATOM     57  NH2 ARG C   9      -0.280 -27.270  -4.468  1.00 40.08 LIG-0.23  N 
ATOM     58 1HH1 ARG C   9       0.803 -26.262  -7.110  1.00 55.49 LIG 0.17  HD
ATOM     59 2HH1 ARG C   9       1.333 -26.021  -5.739  1.00 55.49 LIG 0.17  HD
ATOM     60 1HH2 ARG C   9      -0.913 -27.742  -4.127  1.00 40.08 LIG 0.17  HD
ATOM     61 2HH2 ARG C   9       0.308 -26.906  -3.957  1.00 40.08 LIG 0.17  HD
ENDBRANCH 52 53
ENDBRANCH 51 52
ENDBRANCH 50 51
ENDBRANCH 40 50
ENDBRANCH 38 40
ENDBRANCH 4 36
TORSDOF 20
ENDMDL
MODEL 59
USER: ADFR SOLUTION from run 197
USER: SCORE 20.041828 LL:  -3.926 LR: -16.816 RR:   0.000 FEB: -10.850
USER: RMSD 5.282881
USER: SEED 196
USER: STATUS no improvement in best in 8 clusters for 5 generations
USER: GENES 22
USER: genes 0 Translation |==|  0.63445 0.43151 0.59952
USER: genes 1 Rotation |==|  0.59494 0.24748 0.21891 0.81338
USER: genes 2 Torsion [N]-C--CA-[N] |==|  0.36751
USER: genes 3 Torsion [C]-CA--N-[C] |==|  0.70469
USER: genes 4 Torsion [N]-C--CA-[N] |==|  0.01818
USER: genes 5 Torsion [C]-CA--CB-[CG] |==|  0.87322
USER: genes 6 Torsion [CA]-CB--CG-[CD1] |==|  0.87602
USER: genes 7 Torsion [CE1]-CZ--OH-[HH] |==|  0.21911
USER: genes 8 Torsion [C]-CA--N-[C] |==|  0.59171
USER: genes 9 Torsion [N]-C--CA-[N] |==|  0.22393
USER: genes 10 Torsion [C]-CA--CB-[OG] |==|  0.31686
USER: genes 11 Torsion [CA]-CB--OG-[HG] |==|  0.11051
USER: genes 12 Torsion [C]-CA--CB-[CG] |==|  0.06970
USER: genes 13 Torsion [CA]-CB--CG-[CD2] |==|  0.58355
USER: genes 14 Torsion [N]-CA--C-[O] |==|  0.80718
USER: genes 15 Torsion [C]-N--CA-[CB] |==|  0.85000
USER: genes 16 Torsion [N]-CA--C-[N] |==|  0.36221
USER: genes 17 Torsion [N]-CA--C-[O] |==|  0.16800
USER: genes 18 Torsion [N]-CA--CB-[CG] |==|  0.69216
USER: genes 19 Torsion [CA]-CB--CG-[CD] |==|  0.68234
USER: genes 20 Torsion [CB]-CG--CD-[NE] |==|  0.25665
USER: genes 21 Torsion [CG]-CD--NE-[HE] |==|  0.20872
ROOT
ATOM      1  C   LEU C   7      -0.388 -33.971  -7.547  1.00 32.10 LIG 0.24  C 
ATOM      2 O    LEU C   7       0.522 -33.150  -7.785  1.00 36.06 LIG-0.27  OA
ATOM      3  N   PRO C   8      -0.146 -35.269  -7.245  1.00 34.15 LIG-0.34  N 
ATOM      4  CA  PRO C   8       1.260 -35.624  -7.260  1.00 36.52 LIG 0.18  C 
ATOM      5  CB  PRO C   8       1.278 -37.125  -6.881  1.00 33.63 LIG 0.04  C 
ATOM      6  CG  PRO C   8       0.053 -37.310  -6.055  1.00 36.13 LIG 0.02  C 
ATOM      7  CD  PRO C   8      -0.978 -36.346  -6.649  1.00 34.25 LIG 0.13  C 
ENDROOT
BRANCH 1 8
ATOM      8  CA  LEU C   7      -1.846 -33.473  -7.487  1.00 27.99 LIG 0.18  C 
BRANCH 8 9
ATOM      9  N   LEU C   7      -2.053 -32.204  -6.760  1.00 26.55 LIG-0.35  N 
ATOM     10 H    LEU C   7      -1.793 -31.487  -7.155  1.00 26.55 LIG 0.16  HD
ATOM     11  C   TYR C   6      -2.611 -32.278  -5.585  1.00 27.48 LIG 0.24  C 
ATOM     12 O    TYR C   6      -3.002 -33.394  -5.135  1.00 27.70 LIG-0.27  OA
BRANCH 11 13
ATOM     13  CA  TYR C   6      -2.681 -31.000  -4.796  1.00 25.37 LIG 0.18  C 
BRANCH 13 14
ATOM     14  CB  TYR C   6      -4.117 -30.776  -4.286  1.00 25.99 LIG 0.07  C 
BRANCH 14 15
ATOM     15  CG  TYR C   6      -5.225 -31.003  -5.309  1.00 32.28 LIG-0.06  A 
ATOM     16  CD1 TYR C   6      -5.118 -30.500  -6.608  1.00 32.91 LIG 0.01  A 
ATOM     17  CE1 TYR C   6      -6.113 -30.707  -7.545  1.00 37.22 LIG 0.04  A 
ATOM     18  CZ  TYR C   6      -7.251 -31.415  -7.181  1.00 40.59 LIG 0.07  A 
ATOM     19  CE2 TYR C   6      -7.398 -31.914  -5.887  1.00 40.82 LIG 0.04  A 
ATOM     20  CD2 TYR C   6      -6.388 -31.695  -4.956  1.00 36.01 LIG 0.01  A 
BRANCH 18 21
ATOM     21 OH   TYR C   6      -8.229 -31.613  -8.135  1.00 45.73 LIG-0.36  OA
ATOM     22 HH   TYR C   6      -7.999 -32.239  -8.645  1.00 45.73 LIG 0.22  HD
ENDBRANCH 18 21
ENDBRANCH 14 15
ENDBRANCH 13 14
BRANCH 13 23
ATOM     23  N   TYR C   6      -2.250 -29.859  -5.529  1.00 26.32 LIG-0.34  N 
ATOM     24 H    TYR C   6      -2.416 -29.879  -6.373  1.00 26.32 LIG 0.16  HD
ATOM     25  C   SER C   5      -1.649 -28.880  -4.907  1.00 29.69 LIG 0.26  C 
ATOM     26 O    SER C   5      -1.345 -28.957  -3.675  1.00 27.24 LIG-0.27  OA
BRANCH 25 27
ATOM     27  CA  SER C   5      -1.425 -27.595  -5.778  1.00 35.45 LIG 0.42  C 
ATOM     28  N   SER C   5      -2.670 -26.786  -5.833  1.00 39.53 LIG 0.62  N 
BRANCH 27 29
ATOM     29  CB  SER C   5      -0.255 -26.737  -5.303  1.00 42.03 LIG 0.21  C 
BRANCH 29 30
ATOM     30 OG   SER C   5       0.806 -26.691  -6.231  1.00 42.36 LIG-0.40  OA
ATOM     31 HG   SER C   5       0.496 -26.639  -7.010  1.00 42.36 LIG 0.21  HD
ENDBRANCH 29 30
ENDBRANCH 27 29
ENDBRANCH 25 27
ENDBRANCH 13 23
ENDBRANCH 11 13
ENDBRANCH 8 9
BRANCH 8 32
ATOM     32  CB  LEU C   7      -2.461 -33.393  -8.835  1.00 26.58 LIG 0.04  C 
BRANCH 32 33
ATOM     33  CG  LEU C   7      -1.662 -34.414  -9.668  1.00 24.49 LIG-0.02  C 
ATOM     34  CD2 LEU C   7      -1.664 -33.907 -11.080  1.00 27.30 LIG 0.01  C 
ATOM     35  CD1 LEU C   7      -2.460 -35.709  -9.635  1.00 29.65 LIG 0.01  C 
ENDBRANCH 32 33
ENDBRANCH 8 32
ENDBRANCH 1 8
BRANCH 4 36
ATOM     36  C   PRO C   8       1.872 -35.313  -8.635  1.00 40.02 LIG 0.24  C 
ATOM     37 O    PRO C   8       1.567 -35.962  -9.629  1.00 40.33 LIG-0.27  OA
ATOM     38  N   ARG C   9       2.651 -34.244  -8.668  1.00 39.93 LIG-0.35  N 
ATOM     39 H    ARG C   9       2.787 -33.755  -7.973  1.00 39.93 LIG 0.16  HD
BRANCH 38 40
ATOM     40  CA  ARG C   9       3.362 -33.764  -9.841  1.00 44.47 LIG 0.18  C 
BRANCH 40 41
ATOM     41  C   ARG C   9       2.319 -33.217 -10.860  1.00 44.78 LIG 0.24  C 
ATOM     42  N   PRO C  10       2.524 -31.987 -11.394  1.00 46.18 LIG-0.34  N 
ATOM     43  CA  PRO C  10       1.574 -31.330 -12.347  1.00 48.25 LIG 0.17  C 
ATOM     44  CD  PRO C  10       3.633 -31.088 -11.007  1.00 48.73 LIG 0.13  C 
ATOM     45  CB  PRO C  10       2.218 -29.958 -12.627  1.00 49.47 LIG 0.04  C 
ATOM     46  CG  PRO C  10       3.207 -29.738 -11.526  1.00 52.76 LIG 0.02  C 
ATOM     47 O    ARG C   9       1.313 -33.888 -11.114  1.00 45.76 LIG-0.27  OA
BRANCH 43 48
ATOM     48  C   PRO C  10       1.349 -32.037 -13.693  1.00 47.63 LIG 0.22  C 
ATOM     49 O    PRO C  10       0.891 -33.177 -13.729  1.00 46.26 LIG-0.29  OA
ENDBRANCH 43 48
ENDBRANCH 40 41
BRANCH 40 50
ATOM     50  CB  ARG C   9       4.221 -34.939 -10.416  1.00 49.80 LIG 0.04  C 
BRANCH 50 51
ATOM     51  CG  ARG C   9       5.746 -34.758 -10.257  1.00 51.68 LIG 0.02  C 
BRANCH 51 52
ATOM     52  CD  ARG C   9       6.503 -34.603 -11.616  1.00 46.90 LIG 0.14  C 
BRANCH 52 53
ATOM     53  NE  ARG C   9       6.624 -33.188 -11.953  1.00 50.11 LIG-0.23  N 
ATOM     54 HE   ARG C   9       7.208 -32.738 -11.510  1.00 50.11 LIG 0.18  HD
ATOM     55  CZ  ARG C   9       5.932 -32.516 -12.868  1.00 44.95 LIG 0.67  C 
ATOM     56  NH1 ARG C   9       6.185 -31.245 -13.025  1.00 55.49 LIG-0.23  N 
ATOM     57  NH2 ARG C   9       5.023 -33.080 -13.613  1.00 40.08 LIG-0.23  N 
ATOM     58 1HH1 ARG C   9       6.787 -30.864 -12.542  1.00 55.49 LIG 0.17  HD
ATOM     59 2HH1 ARG C   9       5.751 -30.788 -13.610  1.00 55.49 LIG 0.17  HD
ATOM     60 1HH2 ARG C   9       4.851 -33.917 -13.522  1.00 40.08 LIG 0.17  HD
ATOM     61 2HH2 ARG C   9       4.594 -32.614 -14.195  1.00 40.08 LIG 0.17  HD
ENDBRANCH 52 53
ENDBRANCH 51 52
ENDBRANCH 50 51
ENDBRANCH 40 50
ENDBRANCH 38 40
ENDBRANCH 4 36
TORSDOF 20
ENDMDL
MODEL 60
USER: ADFR SOLUTION from run 92
USER: SCORE 18.881796 LL:  -3.070 LR: -16.798 RR:   0.000 FEB: -10.832
USER: RMSD 5.382529
USER: SEED 91
USER: STATUS no improvement in best in 22 clusters for 5 generations
USER: GENES 22
USER: genes 0 Translation |==|  0.59120 0.50613 0.63153
USER: genes 1 Rotation |==|  0.62751 0.33060 0.20634 0.84469
USER: genes 2 Torsion [N]-C--CA-[N] |==|  0.39122
USER: genes 3 Torsion [C]-CA--N-[C] |==|  0.70705
USER: genes 4 Torsion [N]-C--CA-[N] |==|  0.45682
USER: genes 5 Torsion [C]-CA--CB-[CG] |==|  0.24769
USER: genes 6 Torsion [CA]-CB--CG-[CD1] |==|  0.43131
USER: genes 7 Torsion [CE1]-CZ--OH-[HH] |==|  0.26605
USER: genes 8 Torsion [C]-CA--N-[C] |==|  0.60279
USER: genes 9 Torsion [N]-C--CA-[N] |==|  0.59149
USER: genes 10 Torsion [C]-CA--CB-[OG] |==|  0.19759
USER: genes 11 Torsion [CA]-CB--OG-[HG] |==|  0.59306
USER: genes 12 Torsion [C]-CA--CB-[CG] |==|  0.58269
USER: genes 13 Torsion [CA]-CB--CG-[CD2] |==|  0.74265
USER: genes 14 Torsion [N]-CA--C-[O] |==|  0.97823
USER: genes 15 Torsion [C]-N--CA-[CB] |==|  0.57865
USER: genes 16 Torsion [N]-CA--C-[N] |==|  0.82778
USER: genes 17 Torsion [N]-CA--C-[O] |==|  0.84520
USER: genes 18 Torsion [N]-CA--CB-[CG] |==|  0.45020
USER: genes 19 Torsion [CA]-CB--CG-[CD] |==|  0.09070
USER: genes 20 Torsion [CB]-CG--CD-[NE] |==|  0.30222
USER: genes 21 Torsion [CG]-CD--NE-[HE] |==|  0.00414
ROOT
ATOM      1  C   LEU C   7      -1.297 -32.628  -6.755  1.00 32.10 LIG 0.24  C 
ATOM      2 O    LEU C   7      -0.585 -31.614  -6.912  1.00 36.06 LIG-0.27  OA
ATOM      3  N   PRO C   8      -0.817 -33.888  -6.881  1.00 34.15 LIG-0.34  N 
ATOM      4  CA  PRO C   8       0.583 -33.951  -7.251  1.00 36.52 LIG 0.18  C 
ATOM      5  CB  PRO C   8       0.892 -35.466  -7.322  1.00 33.63 LIG 0.04  C 
ATOM      6  CG  PRO C   8      -0.076 -36.083  -6.374  1.00 36.13 LIG 0.02  C 
ATOM      7  CD  PRO C   8      -1.337 -35.219  -6.473  1.00 34.25 LIG 0.13  C 
ENDROOT
BRANCH 1 8
ATOM      8  CA  LEU C   7      -2.757 -32.451  -6.293  1.00 27.99 LIG 0.18  C 
BRANCH 8 9
ATOM      9  N   LEU C   7      -2.995 -31.334  -5.356  1.00 26.55 LIG-0.35  N 
ATOM     10 H    LEU C   7      -2.984 -30.542  -5.691  1.00 26.55 LIG 0.16  HD
ATOM     11  C   TYR C   6      -3.201 -31.641  -4.107  1.00 27.48 LIG 0.24  C 
ATOM     12 O    TYR C   6      -3.248 -32.853  -3.749  1.00 27.70 LIG-0.27  OA
BRANCH 11 13
ATOM     13  CA  TYR C   6      -3.295 -30.491  -3.143  1.00 25.37 LIG 0.18  C 
BRANCH 13 14
ATOM     14  CB  TYR C   6      -1.901 -29.871  -2.927  1.00 25.99 LIG 0.07  C 
BRANCH 14 15
ATOM     15  CG  TYR C   6      -1.515 -28.758  -3.895  1.00 32.28 LIG-0.06  A 
ATOM     16  CD1 TYR C   6      -0.572 -27.791  -3.538  1.00 32.91 LIG 0.01  A 
ATOM     17  CE1 TYR C   6      -0.210 -26.782  -4.411  1.00 37.22 LIG 0.04  A 
ATOM     18  CZ  TYR C   6      -0.809 -26.719  -5.661  1.00 40.59 LIG 0.07  A 
ATOM     19  CE2 TYR C   6      -1.769 -27.657  -6.042  1.00 40.82 LIG 0.04  A 
ATOM     20  CD2 TYR C   6      -2.123 -28.665  -5.151  1.00 36.01 LIG 0.01  A 
BRANCH 18 21
ATOM     21 OH   TYR C   6      -0.428 -25.705  -6.518  1.00 45.73 LIG-0.36  OA
ATOM     22 HH   TYR C   6       0.164 -25.989  -7.041  1.00 45.73 LIG 0.22  HD
ENDBRANCH 18 21
ENDBRANCH 14 15
ENDBRANCH 13 14
BRANCH 13 23
ATOM     23  N   TYR C   6      -3.858 -30.850  -1.887  1.00 26.32 LIG-0.34  N 
ATOM     24 H    TYR C   6      -3.642 -31.630  -1.596  1.00 26.32 LIG 0.16  HD
ATOM     25  C   SER C   5      -4.644 -30.011  -1.267  1.00 29.69 LIG 0.26  C 
ATOM     26 O    SER C   5      -5.004 -28.914  -1.799  1.00 27.24 LIG-0.27  OA
BRANCH 25 27
ATOM     27  CA  SER C   5      -5.019 -30.430   0.197  1.00 35.45 LIG 0.42  C 
ATOM     28  N   SER C   5      -6.393 -29.971   0.528  1.00 39.53 LIG 0.62  N 
BRANCH 27 29
ATOM     29  CB  SER C   5      -4.883 -31.929   0.452  1.00 42.03 LIG 0.21  C 
BRANCH 29 30
ATOM     30 OG   SER C   5      -3.541 -32.361   0.494  1.00 42.36 LIG-0.40  OA
ATOM     31 HG   SER C   5      -3.487 -33.140   0.183  1.00 42.36 LIG 0.21  HD
ENDBRANCH 29 30
ENDBRANCH 27 29
ENDBRANCH 25 27
ENDBRANCH 13 23
ENDBRANCH 11 13
ENDBRANCH 8 9
BRANCH 8 32
ATOM     32  CB  LEU C   7      -3.694 -32.362  -7.440  1.00 26.58 LIG 0.04  C 
BRANCH 32 33
ATOM     33  CG  LEU C   7      -4.838 -31.473  -6.916  1.00 24.49 LIG-0.02  C 
ATOM     34  CD2 LEU C   7      -5.876 -32.401  -6.355  1.00 27.30 LIG 0.01  C 
ATOM     35  CD1 LEU C   7      -5.435 -30.785  -8.134  1.00 29.65 LIG 0.01  C 
ENDBRANCH 32 33
ENDBRANCH 8 32
ENDBRANCH 1 8
BRANCH 4 36
ATOM     36  C   PRO C   8       0.819 -33.196  -8.570  1.00 40.02 LIG 0.24  C 
ATOM     37 O    PRO C   8      -0.117 -32.769  -9.234  1.00 40.33 LIG-0.27  OA
ATOM     38  N   ARG C   9       2.090 -32.964  -8.857  1.00 39.93 LIG-0.35  N 
ATOM     39 H    ARG C   9       2.729 -33.203  -8.334  1.00 39.93 LIG 0.16  HD
BRANCH 38 40
ATOM     40  CA  ARG C   9       2.566 -32.294 -10.056  1.00 44.47 LIG 0.18  C 
BRANCH 40 41
ATOM     41  C   ARG C   9       1.542 -32.548 -11.202  1.00 44.78 LIG 0.24  C 
ATOM     42  N   PRO C  10       1.329 -33.827 -11.603  1.00 46.18 LIG-0.34  N 
ATOM     43  CA  PRO C  10       0.408 -34.200 -12.723  1.00 48.25 LIG 0.17  C 
ATOM     44  CD  PRO C  10       2.072 -34.995 -11.082  1.00 48.73 LIG 0.13  C 
ATOM     45  CB  PRO C  10       0.539 -35.733 -12.817  1.00 49.47 LIG 0.04  C 
ATOM     46  CG  PRO C  10       1.801 -36.080 -12.093  1.00 52.76 LIG 0.02  C 
ATOM     47 O    ARG C   9       0.994 -31.585 -11.748  1.00 45.76 LIG-0.27  OA
BRANCH 43 48
ATOM     48  C   PRO C  10      -1.078 -33.856 -12.536  1.00 47.63 LIG 0.22  C 
ATOM     49 O    PRO C  10      -1.695 -34.265 -11.555  1.00 46.26 LIG-0.29  OA
ENDBRANCH 43 48
ENDBRANCH 40 41
BRANCH 40 50
ATOM     50  CB  ARG C   9       3.999 -32.827 -10.386  1.00 49.80 LIG 0.04  C 
BRANCH 50 51
ATOM     51  CG  ARG C   9       4.468 -32.559 -11.832  1.00 51.68 LIG 0.02  C 
BRANCH 51 52
ATOM     52  CD  ARG C   9       3.914 -31.225 -12.433  1.00 46.90 LIG 0.14  C 
BRANCH 52 53
ATOM     53  NE  ARG C   9       4.994 -30.250 -12.544  1.00 50.11 LIG-0.23  N 
ATOM     54 HE   ARG C   9       5.775 -30.515 -12.298  1.00 50.11 LIG 0.18  HD
ATOM     55  CZ  ARG C   9       4.907 -28.998 -12.983  1.00 44.95 LIG 0.67  C 
ATOM     56  NH1 ARG C   9       5.994 -28.275 -13.009  1.00 55.49 LIG-0.23  N 
ATOM     57  NH2 ARG C   9       3.786 -28.475 -13.393  1.00 40.08 LIG-0.23  N 
ATOM     58 1HH1 ARG C   9       6.741 -28.611 -12.746  1.00 55.49 LIG 0.17  HD
ATOM     59 2HH1 ARG C   9       5.963 -27.462 -13.288  1.00 55.49 LIG 0.17  HD
ATOM     60 1HH2 ARG C   9       3.065 -28.944 -13.385  1.00 40.08 LIG 0.17  HD
ATOM     61 2HH2 ARG C   9       3.766 -27.662 -13.670  1.00 40.08 LIG 0.17  HD
ENDBRANCH 52 53
ENDBRANCH 51 52
ENDBRANCH 50 51
ENDBRANCH 40 50
ENDBRANCH 38 40
ENDBRANCH 4 36
TORSDOF 20
ENDMDL
