MODEL 1
USER: ADFR SOLUTION from run 8
USER: SCORE 24.580206 LL:  -4.988 LR: -20.373 RR:   0.000 FEB: -13.810
USER: RMSD 5.240997
USER: SEED 74644
USER: STATUS no improvement in best in 20 clusters for 5 generations
USER: GENES 24
USER: genes 0 Translation |==|  0.48183 0.49305 0.57278
USER: genes 1 Rotation |==|  0.47320 0.55322 0.55321 0.99358
USER: genes 2 Torsion [N]-CA--C-[O] |==|  0.85901
USER: genes 3 Torsion [C]-N--CA-[CB] |==|  0.85494
USER: genes 4 Torsion [N]-CA--CB-[CG2] |==|  0.33784
USER: genes 5 Torsion [CA]-CB--CG1-[CD1] |==|  0.02178
USER: genes 6 Torsion [N]-CA--C-[N] |==|  0.46111
USER: genes 7 Torsion [C]-N--CA-[C] |==|  0.64927
USER: genes 8 Torsion [N]-CA--C-[N] |==|  0.37519
USER: genes 9 Torsion [C]-N--CA-[CB] |==|  0.74463
USER: genes 10 Torsion [N]-CA--CB-[CG] |==|  0.56563
USER: genes 11 Torsion [CA]-CB--CG-[ND2] |==|  0.42618
USER: genes 12 Torsion [N]-CA--C-[O] |==|  0.11536
USER: genes 13 Torsion [N]-CA--CB-[CG] |==|  0.96822
USER: genes 14 Torsion [CA]-CB--CG-[CD2] |==|  0.27127
USER: genes 15 Torsion [CE2]-CZ--OH-[HH] |==|  0.48660
USER: genes 16 Torsion [N]-C--CA-[N] |==|  0.37695
USER: genes 17 Torsion [C]-CA--N-[C] |==|  0.78465
USER: genes 18 Torsion [N]-C--CA-[N] |==|  0.48176
USER: genes 19 Torsion [N]-C--CA-[CB] |==|  0.56054
USER: genes 20 Torsion [C]-CA--CB-[CG] |==|  0.45641
USER: genes 21 Torsion [CA]-CB--CG-[CD] |==|  0.96675
USER: genes 22 Torsion [CB]-CG--CD-[NE] |==|  0.52867
USER: genes 23 Torsion [CG]-CD--NE-[CZ] |==|  0.61152
ROOT
ATOM      1  C   ARG B  14      -9.858 -28.776  -9.913  1.00 32.92 LIG 0.24  C 
ATOM      2 O    ARG B  14      -8.906 -29.554 -10.009  1.00 37.82 LIG-0.27  OA
ATOM      3  N   PRO B  15     -10.633 -28.439 -10.948  1.00 31.88 LIG-0.34  N 
ATOM      4  CA  PRO B  15     -10.397 -29.033 -12.267  1.00 30.79 LIG 0.18  C 
ATOM      5  CB  PRO B  15     -11.519 -28.458 -13.107  1.00 31.22 LIG 0.04  C 
ATOM      6  CG  PRO B  15     -12.615 -28.249 -12.111  1.00 29.82 LIG 0.02  C 
ATOM      7  CD  PRO B  15     -11.911 -27.710 -10.908  1.00 31.43 LIG 0.13  C 
ENDROOT
BRANCH 4 8
ATOM      8  C   PRO B  15      -9.069 -28.564 -12.806  1.00 33.68 LIG 0.24  C 
ATOM      9  N   ILE B  16      -8.227 -29.506 -13.185  1.00 35.41 LIG-0.35  N 
ATOM     10 H    ILE B  16      -8.365 -30.350 -13.084  1.00 35.41 LIG 0.16  HD
ATOM     11 O    PRO B  15      -8.796 -27.374 -12.828  1.00 34.05 LIG-0.27  OA
BRANCH 9 12
ATOM     12  CA  ILE B  16      -7.008 -29.179 -13.799  1.00 37.77 LIG 0.18  C 
BRANCH 12 13
ATOM     13  CB  ILE B  16      -7.210 -28.246 -14.982  1.00 42.27 LIG 0.01  C 
ATOM     14  CG2 ILE B  16      -6.435 -26.977 -14.771  1.00 44.80 LIG 0.01  C 
BRANCH 13 15
ATOM     15  CG1 ILE B  16      -6.784 -28.984 -16.263  1.00 47.53 LIG 0.00  C 
ATOM     16  CD1 ILE B  16      -6.458 -30.465 -16.099  1.00 51.74 LIG 0.01  C 
ENDBRANCH 13 15
ENDBRANCH 12 13
BRANCH 12 17
ATOM     17  C   ILE B  16      -6.167 -28.585 -12.714  1.00 42.33 LIG 0.24  C 
ATOM     18 O    ILE B  16      -6.642 -28.288 -11.654  1.00 39.29 LIG-0.27  OA
ATOM     19  N   TYR B  17      -4.884 -28.471 -13.002  1.00 46.96 LIG-0.35  N 
ATOM     20 H    TYR B  17      -4.570 -28.583 -13.794  1.00 46.96 LIG 0.16  HD
BRANCH 19 21
ATOM     21  CA  TYR B  17      -3.881 -28.150 -12.026  1.00 51.19 LIG 0.18  C 
BRANCH 21 22
ATOM     22  C   TYR B  17      -3.090 -26.976 -12.482  1.00 56.10 LIG 0.24  C 
ATOM     23  N   ASN B  18      -2.841 -26.029 -11.599  1.00 65.39 LIG-0.35  N 
ATOM     24 H    ASN B  18      -2.972 -26.112 -10.754  1.00 65.39 LIG 0.16  HD
ATOM     25 O    TYR B  17      -2.643 -26.959 -13.614  1.00 61.36 LIG-0.27  OA
BRANCH 23 26
ATOM     26  CA  ASN B  18      -2.304 -24.722 -12.010  1.00 70.74 LIG 0.17  C 
BRANCH 26 27
ATOM     27  CB  ASN B  18      -0.770 -24.766 -11.943  1.00 84.74 LIG 0.14  C 
BRANCH 27 28
ATOM     28  CG  ASN B  18      -0.147 -23.373 -11.782  1.00 96.34 LIG 0.22  C 
ATOM     29 OD1  ASN B  18      -0.727 -22.361 -12.206  1.00 99.44 LIG-0.27  OA
ATOM     30  ND2 ASN B  18       1.049 -23.316 -11.182  1.00 94.73 LIG-0.37  N 
ATOM     31 21HD ASN B  18       1.442 -22.558 -11.080  1.00 94.73 LIG 0.16  HD
ATOM     32 22HD ASN B  18       1.424 -24.036 -10.900  1.00 94.73 LIG 0.16  HD
ENDBRANCH 27 28
ENDBRANCH 26 27
BRANCH 26 33
ATOM     33  C   ASN B  18      -2.802 -24.117 -13.345  1.00 72.97 LIG 0.22  C 
ATOM     34 O    ASN B  18      -3.989 -24.161 -13.698  1.00 74.17 LIG-0.29  OA
ENDBRANCH 26 33
ENDBRANCH 23 26
ENDBRANCH 21 22
BRANCH 21 35
ATOM     35  CB  TYR B  17      -2.921 -29.325 -11.935  1.00 54.83 LIG 0.07  C 
BRANCH 35 36
ATOM     36  CG  TYR B  17      -3.452 -30.510 -12.645  1.00 56.96 LIG-0.06  A 
ATOM     37  CD2 TYR B  17      -3.031 -30.794 -13.950  1.00 61.26 LIG 0.01  A 
ATOM     38  CE2 TYR B  17      -3.521 -31.883 -14.633  1.00 70.21 LIG 0.04  A 
ATOM     39  CZ  TYR B  17      -4.455 -32.692 -14.010  1.00 76.40 LIG 0.07  A 
ATOM     40  CE1 TYR B  17      -4.894 -32.426 -12.718  1.00 67.10 LIG 0.04  A 
ATOM     41  CD1 TYR B  17      -4.388 -31.327 -12.048  1.00 57.92 LIG 0.01  A 
BRANCH 39 42
ATOM     42 OH   TYR B  17      -4.948 -33.767 -14.688  1.00 89.25 LIG-0.36  OA
ATOM     43 HH   TYR B  17      -5.451 -34.211 -14.183  1.00 89.25 LIG 0.22  HD
ENDBRANCH 39 42
ENDBRANCH 35 36
ENDBRANCH 21 35
ENDBRANCH 19 21
ENDBRANCH 12 17
ENDBRANCH 9 12
ENDBRANCH 4 8
BRANCH 1 44
ATOM     44  CA  ARG B  14     -10.144 -28.132  -8.589  1.00 32.45 LIG 0.18  C 
BRANCH 44 45
ATOM     45  N   ARG B  14     -10.063 -29.236  -7.660  1.00 38.19 LIG-0.35  N 
ATOM     46 H    ARG B  14      -9.328 -29.258  -7.213  1.00 38.19 LIG 0.16  HD
ATOM     47  C   PRO B  13     -11.037 -30.138  -7.509  1.00 38.91 LIG 0.24  C 
ATOM     48 O    PRO B  13     -12.082 -30.101  -8.125  1.00 32.88 LIG-0.27  OA
BRANCH 47 49
ATOM     49  CA  PRO B  13     -10.793 -31.237  -6.455  1.00 38.31 LIG 0.18  C 
ATOM     50  N   PRO B  13     -11.935 -32.096  -6.225  1.00 38.88 LIG-0.34  N 
ATOM     51  CD  PRO B  13     -11.565 -33.517  -6.299  1.00 43.50 LIG 0.13  C 
ATOM     52  C   PRO B  12     -13.174 -31.656  -5.950  1.00 40.77 LIG 0.26  C 
ATOM     53  CG  PRO B  13     -10.075 -33.493  -6.263  1.00 43.53 LIG 0.02  C 
ATOM     54  CB  PRO B  13      -9.709 -32.211  -6.918  1.00 39.91 LIG 0.04  C 
ATOM     55 O    PRO B  12     -13.458 -30.458  -5.799  1.00 44.45 LIG-0.27  OA
BRANCH 52 56
ATOM     56  CA  PRO B  12     -14.260 -32.694  -5.824  1.00 38.46 LIG 0.35  C 
ATOM     57  CB  PRO B  12     -15.615 -32.025  -6.057  1.00 43.42 LIG 0.05  C 
ATOM     58  CG  PRO B  12     -16.518 -32.636  -5.066  1.00 41.12 LIG 0.04  C 
ATOM     59  CD  PRO B  12     -15.660 -32.921  -3.868  1.00 39.74 LIG 0.32  C 
ATOM     60  N   PRO B  12     -14.334 -33.138  -4.453  1.00 38.12 LIG 0.32  N 
ENDBRANCH 52 56
ENDBRANCH 47 49
ENDBRANCH 44 45
BRANCH 44 61
ATOM     61  CB  ARG B  14      -9.017 -27.148  -8.261  1.00 34.42 LIG 0.04  C 
BRANCH 61 62
ATOM     62  CG  ARG B  14      -9.339 -26.149  -7.150  1.00 32.66 LIG 0.02  C 
BRANCH 62 63
ATOM     63  CD  ARG B  14     -10.823 -26.201  -6.847  1.00 35.24 LIG 0.14  C 
BRANCH 63 64
ATOM     64  NE  ARG B  14     -11.266 -25.108  -5.963  1.00 42.22 LIG-0.23  N 
ATOM     65  CZ  ARG B  14     -12.147 -25.212  -4.965  1.00 44.72 LIG 0.67  C 
ATOM     66  NH2 ARG B  14     -12.741 -26.356  -4.683  1.00 43.48 LIG-0.23  N 
ATOM     67  NH1 ARG B  14     -12.449 -24.146  -4.248  1.00 46.51 LIG-0.23  N 
ATOM     68 1HH2 ARG B  14     -12.563 -27.059  -5.147  1.00 43.48 LIG 0.17  HD
ATOM     69 2HH2 ARG B  14     -13.305 -26.399  -4.035  1.00 43.48 LIG 0.17  HD
ATOM     70 2HH1 ARG B  14     -13.016 -24.207  -3.604  1.00 46.51 LIG 0.17  HD
ATOM     71 1HH1 ARG B  14     -12.079 -23.390  -4.424  1.00 46.51 LIG 0.17  HD
ATOM     72 HE   ARG B  14     -10.926 -24.330  -6.103  1.00 42.22 LIG 0.18  HD
ENDBRANCH 63 64
ENDBRANCH 62 63
ENDBRANCH 61 62
ENDBRANCH 44 61
ENDBRANCH 1 44
TORSDOF 22
ENDMDL
MODEL 2
USER: ADFR SOLUTION from run 191
USER: SCORE 23.197102 LL:  -4.951 LR: -20.298 RR:   0.000 FEB: -13.736
USER: RMSD 6.052996
USER: SEED 190
USER: STATUS no improvement in best in 4 clusters for 5 generations
USER: GENES 24
USER: genes 0 Translation |==|  0.45856 0.55311 0.63791
USER: genes 1 Rotation |==|  0.26304 0.55882 0.84891 0.76201
USER: genes 2 Torsion [N]-CA--C-[O] |==|  0.30946
USER: genes 3 Torsion [C]-N--CA-[CB] |==|  0.79978
USER: genes 4 Torsion [N]-CA--CB-[CG2] |==|  0.61091
USER: genes 5 Torsion [CA]-CB--CG1-[CD1] |==|  0.52106
USER: genes 6 Torsion [N]-CA--C-[N] |==|  0.13807
USER: genes 7 Torsion [C]-N--CA-[C] |==|  0.11831
USER: genes 8 Torsion [N]-CA--C-[N] |==|  0.70412
USER: genes 9 Torsion [C]-N--CA-[CB] |==|  0.17051
USER: genes 10 Torsion [N]-CA--CB-[CG] |==|  0.53605
USER: genes 11 Torsion [CA]-CB--CG-[ND2] |==|  0.15601
USER: genes 12 Torsion [N]-CA--C-[O] |==|  0.13300
USER: genes 13 Torsion [N]-CA--CB-[CG] |==|  0.68476
USER: genes 14 Torsion [CA]-CB--CG-[CD2] |==|  0.99134
USER: genes 15 Torsion [CE2]-CZ--OH-[HH] |==|  0.37668
USER: genes 16 Torsion [N]-C--CA-[N] |==|  0.21617
USER: genes 17 Torsion [C]-CA--N-[C] |==|  0.68784
USER: genes 18 Torsion [N]-C--CA-[N] |==|  0.98266
USER: genes 19 Torsion [N]-C--CA-[CB] |==|  0.66083
USER: genes 20 Torsion [C]-CA--CB-[CG] |==|  0.52963
USER: genes 21 Torsion [CA]-CB--CG-[CD] |==|  0.23917
USER: genes 22 Torsion [CB]-CG--CD-[NE] |==|  0.46530
USER: genes 23 Torsion [CG]-CD--NE-[CZ] |==|  0.59157
ROOT
ATOM      1  C   ARG B  14     -10.381 -27.650  -8.106  1.00 32.92 LIG 0.24  C 
ATOM      2 O    ARG B  14      -9.573 -26.767  -8.398  1.00 37.82 LIG-0.27  OA
ATOM      3  N   PRO B  15     -10.273 -28.910  -8.536  1.00 31.88 LIG-0.34  N 
ATOM      4  CA  PRO B  15      -9.131 -29.309  -9.363  1.00 30.79 LIG 0.18  C 
ATOM      5  CB  PRO B  15      -9.349 -30.796  -9.554  1.00 31.22 LIG 0.04  C 
ATOM      6  CG  PRO B  15     -10.071 -31.197  -8.307  1.00 29.82 LIG 0.02  C 
ATOM      7  CD  PRO B  15     -11.039 -30.081  -8.078  1.00 31.43 LIG 0.13  C 
ENDROOT
BRANCH 4 8
ATOM      8  C   PRO B  15      -9.199 -28.611 -10.697  1.00 33.68 LIG 0.24  C 
ATOM      9  N   ILE B  16     -10.142 -29.022 -11.524  1.00 35.41 LIG-0.35  N 
ATOM     10 H    ILE B  16     -10.663 -29.690 -11.373  1.00 35.41 LIG 0.16  HD
ATOM     11 O    PRO B  15      -8.379 -27.754 -10.990  1.00 34.05 LIG-0.27  OA
BRANCH 9 12
ATOM     12  CA  ILE B  16     -10.361 -28.370 -12.748  1.00 37.77 LIG 0.18  C 
BRANCH 12 13
ATOM     13  CB  ILE B  16     -11.009 -27.009 -12.549  1.00 42.27 LIG 0.01  C 
ATOM     14  CG2 ILE B  16     -12.046 -26.776 -13.610  1.00 44.80 LIG 0.01  C 
BRANCH 13 15
ATOM     15  CG1 ILE B  16     -11.601 -26.954 -11.130  1.00 47.53 LIG 0.00  C 
ATOM     16  CD1 ILE B  16     -12.450 -25.728 -10.810  1.00 51.74 LIG 0.01  C 
ENDBRANCH 13 15
ENDBRANCH 12 13
BRANCH 12 17
ATOM     17  C   ILE B  16      -9.018 -28.297 -13.401  1.00 42.33 LIG 0.24  C 
ATOM     18 O    ILE B  16      -8.582 -27.256 -13.808  1.00 39.29 LIG-0.27  OA
ATOM     19  N   TYR B  17      -8.354 -29.436 -13.440  1.00 46.96 LIG-0.35  N 
ATOM     20 H    TYR B  17      -8.712 -30.194 -13.248  1.00 46.96 LIG 0.16  HD
BRANCH 19 21
ATOM     21  CA  TYR B  17      -6.969 -29.532 -13.806  1.00 51.19 LIG 0.18  C 
BRANCH 21 22
ATOM     22  C   TYR B  17      -6.199 -28.433 -13.166  1.00 56.10 LIG 0.24  C 
ATOM     23  N   ASN B  18      -5.796 -27.442 -13.937  1.00 65.39 LIG-0.35  N 
ATOM     24 H    ASN B  18      -6.071 -27.314 -14.741  1.00 65.39 LIG 0.16  HD
ATOM     25 O    TYR B  17      -6.032 -28.443 -11.961  1.00 61.36 LIG-0.27  OA
BRANCH 23 26
ATOM     26  CA  ASN B  18      -4.815 -26.453 -13.461  1.00 70.74 LIG 0.17  C 
BRANCH 26 27
ATOM     27  CB  ASN B  18      -3.499 -27.171 -13.126  1.00 84.74 LIG 0.14  C 
BRANCH 27 28
ATOM     28  CG  ASN B  18      -2.531 -26.285 -12.330  1.00 96.34 LIG 0.22  C 
ATOM     29 OD1  ASN B  18      -1.376 -26.079 -12.734  1.00 99.44 LIG-0.27  OA
ATOM     30  ND2 ASN B  18      -2.993 -25.771 -11.183  1.00 94.73 LIG-0.37  N 
ATOM     31 21HD ASN B  18      -2.483 -25.279 -10.697  1.00 94.73 LIG 0.16  HD
ATOM     32 22HD ASN B  18      -3.800 -25.935 -10.932  1.00 94.73 LIG 0.16  HD
ENDBRANCH 27 28
ENDBRANCH 26 27
BRANCH 26 33
ATOM     33  C   ASN B  18      -4.575 -25.191 -14.325  1.00 72.97 LIG 0.22  C 
ATOM     34 O    ASN B  18      -5.502 -24.504 -14.778  1.00 74.17 LIG-0.29  OA
ENDBRANCH 26 33
ENDBRANCH 23 26
ENDBRANCH 21 22
BRANCH 21 35
ATOM     35  CB  TYR B  17      -6.865 -29.332 -15.309  1.00 54.83 LIG 0.07  C 
BRANCH 35 36
ATOM     36  CG  TYR B  17      -6.415 -30.569 -15.987  1.00 56.96 LIG-0.06  A 
ATOM     37  CD2 TYR B  17      -6.084 -31.702 -15.234  1.00 61.26 LIG 0.01  A 
ATOM     38  CE2 TYR B  17      -5.652 -32.858 -15.842  1.00 70.21 LIG 0.04  A 
ATOM     39  CZ  TYR B  17      -5.534 -32.877 -17.221  1.00 76.40 LIG 0.07  A 
ATOM     40  CE1 TYR B  17      -5.848 -31.762 -17.989  1.00 67.10 LIG 0.04  A 
ATOM     41  CD1 TYR B  17      -6.282 -30.611 -17.359  1.00 57.92 LIG 0.01  A 
BRANCH 39 42
ATOM     42 OH   TYR B  17      -5.098 -34.020 -17.826  1.00 89.25 LIG-0.36  OA
ATOM     43 HH   TYR B  17      -5.575 -34.181 -18.498  1.00 89.25 LIG 0.22  HD
ENDBRANCH 39 42
ENDBRANCH 35 36
ENDBRANCH 21 35
ENDBRANCH 19 21
ENDBRANCH 12 17
ENDBRANCH 9 12
ENDBRANCH 4 8
BRANCH 1 44
ATOM     44  CA  ARG B  14     -11.575 -27.300  -7.268  1.00 32.45 LIG 0.18  C 
BRANCH 44 45
ATOM     45  N   ARG B  14     -11.233 -27.830  -5.967  1.00 38.19 LIG-0.35  N 
ATOM     46 H    ARG B  14     -10.578 -27.420  -5.588  1.00 38.19 LIG 0.16  HD
ATOM     47  C   PRO B  13     -11.872 -28.861  -5.406  1.00 38.91 LIG 0.24  C 
ATOM     48 O    PRO B  13     -12.807 -29.431  -5.931  1.00 32.88 LIG-0.27  OA
BRANCH 47 49
ATOM     49  CA  PRO B  13     -11.391 -29.281  -4.003  1.00 38.31 LIG 0.18  C 
ATOM     50  N   PRO B  13     -10.209 -28.578  -3.551  1.00 38.88 LIG-0.34  N 
ATOM     51  CD  PRO B  13     -10.393 -28.026  -2.201  1.00 43.50 LIG 0.13  C 
ATOM     52  C   PRO B  12      -9.074 -28.467  -4.260  1.00 40.77 LIG 0.26  C 
ATOM     53  CG  PRO B  13     -11.629 -28.699  -1.712  1.00 43.53 LIG 0.02  C 
ATOM     54  CB  PRO B  13     -12.433 -28.935  -2.939  1.00 39.91 LIG 0.04  C 
ATOM     55 O    PRO B  12      -8.895 -29.014  -5.359  1.00 44.45 LIG-0.27  OA
BRANCH 52 56
ATOM     56  CA  PRO B  12      -7.973 -27.625  -3.667  1.00 38.46 LIG 0.35  C 
ATOM     57  CB  PRO B  12      -7.619 -26.507  -4.649  1.00 43.42 LIG 0.05  C 
ATOM     58  CG  PRO B  12      -6.151 -26.401  -4.593  1.00 41.12 LIG 0.04  C 
ATOM     59  CD  PRO B  12      -5.659 -27.796  -4.342  1.00 39.74 LIG 0.32  C 
ATOM     60  N   PRO B  12      -6.763 -28.408  -3.597  1.00 38.12 LIG 0.32  N 
ENDBRANCH 52 56
ENDBRANCH 47 49
ENDBRANCH 44 45
BRANCH 44 61
ATOM     61  CB  ARG B  14     -11.670 -25.775  -7.151  1.00 34.42 LIG 0.04  C 
BRANCH 61 62
ATOM     62  CG  ARG B  14     -12.681 -25.271  -6.122  1.00 32.66 LIG 0.02  C 
BRANCH 62 63
ATOM     63  CD  ARG B  14     -12.020 -25.211  -4.760  1.00 35.24 LIG 0.14  C 
BRANCH 63 64
ATOM     64  NE  ARG B  14     -12.817 -24.468  -3.768  1.00 42.22 LIG-0.23  N 
ATOM     65  CZ  ARG B  14     -12.333 -23.729  -2.767  1.00 44.72 LIG 0.67  C 
ATOM     66  NH2 ARG B  14     -11.036 -23.610  -2.558  1.00 43.48 LIG-0.23  N 
ATOM     67  NH1 ARG B  14     -13.166 -23.110  -1.951  1.00 46.51 LIG-0.23  N 
ATOM     68 1HH2 ARG B  14     -10.478 -24.015  -3.073  1.00 43.48 LIG 0.17  HD
ATOM     69 2HH2 ARG B  14     -10.747 -23.128  -1.906  1.00 43.48 LIG 0.17  HD
ATOM     70 2HH1 ARG B  14     -12.861 -22.633  -1.304  1.00 46.51 LIG 0.17  HD
ATOM     71 1HH1 ARG B  14     -14.015 -23.184  -2.066  1.00 46.51 LIG 0.17  HD
ATOM     72 HE   ARG B  14     -13.673 -24.515  -3.840  1.00 42.22 LIG 0.18  HD
ENDBRANCH 63 64
ENDBRANCH 62 63
ENDBRANCH 61 62
ENDBRANCH 44 61
ENDBRANCH 1 44
TORSDOF 22
ENDMDL
MODEL 3
USER: ADFR SOLUTION from run 40
USER: SCORE 23.439434 LL:  -4.020 LR: -20.257 RR:   0.000 FEB: -13.695
USER: RMSD 3.367426
USER: SEED 39
USER: STATUS no improvement in best in 8 clusters for 5 generations
USER: GENES 24
USER: genes 0 Translation |==|  0.47709 0.49511 0.58779
USER: genes 1 Rotation |==|  0.52272 0.50723 0.44788 0.99670
USER: genes 2 Torsion [N]-CA--C-[O] |==|  0.95593
USER: genes 3 Torsion [C]-N--CA-[CB] |==|  0.50000
USER: genes 4 Torsion [N]-CA--CB-[CG2] |==|  0.29191
USER: genes 5 Torsion [CA]-CB--CG1-[CD1] |==|  0.08157
USER: genes 6 Torsion [N]-CA--C-[N] |==|  0.42779
USER: genes 7 Torsion [C]-N--CA-[C] |==|  0.85114
USER: genes 8 Torsion [N]-CA--C-[N] |==|  0.86128
USER: genes 9 Torsion [C]-N--CA-[CB] |==|  0.53786
USER: genes 10 Torsion [N]-CA--CB-[CG] |==|  0.25283
USER: genes 11 Torsion [CA]-CB--CG-[ND2] |==|  0.67790
USER: genes 12 Torsion [N]-CA--C-[O] |==|  0.51613
USER: genes 13 Torsion [N]-CA--CB-[CG] |==|  0.54559
USER: genes 14 Torsion [CA]-CB--CG-[CD2] |==|  0.85230
USER: genes 15 Torsion [CE2]-CZ--OH-[HH] |==|  0.88132
USER: genes 16 Torsion [N]-C--CA-[N] |==|  0.44724
USER: genes 17 Torsion [C]-CA--N-[C] |==|  0.78324
USER: genes 18 Torsion [N]-C--CA-[N] |==|  0.46195
USER: genes 19 Torsion [N]-C--CA-[CB] |==|  0.65824
USER: genes 20 Torsion [C]-CA--CB-[CG] |==|  0.38210
USER: genes 21 Torsion [CA]-CB--CG-[CD] |==|  0.02186
USER: genes 22 Torsion [CB]-CG--CD-[NE] |==|  0.46991
USER: genes 23 Torsion [CG]-CD--NE-[CZ] |==|  0.62628
ROOT
ATOM      1  C   ARG B  14      -9.965 -28.738  -9.497  1.00 32.92 LIG 0.24  C 
ATOM      2 O    ARG B  14      -9.406 -29.830  -9.614  1.00 37.82 LIG-0.27  OA
ATOM      3  N   PRO B  15     -10.298 -27.972 -10.540  1.00 31.88 LIG-0.34  N 
ATOM      4  CA  PRO B  15     -10.041 -28.438 -11.905  1.00 30.79 LIG 0.18  C 
ATOM      5  CB  PRO B  15     -10.630 -27.335 -12.760  1.00 31.22 LIG 0.04  C 
ATOM      6  CG  PRO B  15     -11.739 -26.801 -11.909  1.00 29.82 LIG 0.02  C 
ATOM      7  CD  PRO B  15     -11.154 -26.774 -10.534  1.00 31.43 LIG 0.13  C 
ENDROOT
BRANCH 4 8
ATOM      8  C   PRO B  15      -8.554 -28.523 -12.143  1.00 33.68 LIG 0.24  C 
ATOM      9  N   ILE B  16      -8.167 -29.271 -13.158  1.00 35.41 LIG-0.35  N 
ATOM     10 H    ILE B  16      -8.697 -29.750 -13.639  1.00 35.41 LIG 0.16  HD
ATOM     11 O    PRO B  15      -7.774 -27.964 -11.388  1.00 34.05 LIG-0.27  OA
BRANCH 9 12
ATOM     12  CA  ILE B  16      -6.815 -29.334 -13.532  1.00 37.77 LIG 0.18  C 
BRANCH 12 13
ATOM     13  CB  ILE B  16      -6.607 -30.255 -14.724  1.00 42.27 LIG 0.01  C 
ATOM     14  CG2 ILE B  16      -6.361 -29.442 -15.962  1.00 44.80 LIG 0.01  C 
BRANCH 13 15
ATOM     15  CG1 ILE B  16      -5.438 -31.205 -14.407  1.00 47.53 LIG 0.00  C 
ATOM     16  CD1 ILE B  16      -5.235 -31.540 -12.933  1.00 51.74 LIG 0.01  C 
ENDBRANCH 13 15
ENDBRANCH 12 13
BRANCH 12 17
ATOM     17  C   ILE B  16      -6.414 -27.919 -13.801  1.00 42.33 LIG 0.24  C 
ATOM     18 O    ILE B  16      -7.228 -27.087 -14.089  1.00 39.29 LIG-0.27  OA
ATOM     19  N   TYR B  17      -5.129 -27.664 -13.643  1.00 46.96 LIG-0.35  N 
ATOM     20 H    TYR B  17      -4.537 -28.281 -13.544  1.00 46.96 LIG 0.16  HD
BRANCH 19 21
ATOM     21  CA  TYR B  17      -4.583 -26.337 -13.622  1.00 51.19 LIG 0.18  C 
BRANCH 21 22
ATOM     22  C   TYR B  17      -5.006 -25.596 -14.840  1.00 56.10 LIG 0.24  C 
ATOM     23  N   ASN B  18      -4.833 -26.189 -16.005  1.00 65.39 LIG-0.35  N 
ATOM     24 H    ASN B  18      -4.635 -27.021 -16.097  1.00 65.39 LIG 0.16  HD
ATOM     25 O    TYR B  17      -5.555 -24.516 -14.722  1.00 61.36 LIG-0.27  OA
BRANCH 23 26
ATOM     26  CA  ASN B  18      -4.970 -25.447 -17.268  1.00 70.74 LIG 0.17  C 
BRANCH 26 27
ATOM     27  CB  ASN B  18      -5.054 -26.447 -18.432  1.00 84.74 LIG 0.14  C 
BRANCH 27 28
ATOM     28  CG  ASN B  18      -6.498 -26.847 -18.762  1.00 96.34 LIG 0.22  C 
ATOM     29 OD1  ASN B  18      -7.317 -26.007 -19.163  1.00 99.44 LIG-0.27  OA
ATOM     30  ND2 ASN B  18      -6.821 -28.134 -18.576  1.00 94.73 LIG-0.37  N 
ATOM     31 21HD ASN B  18      -7.622 -28.403 -18.736  1.00 94.73 LIG 0.16  HD
ATOM     32 22HD ASN B  18      -6.228 -28.690 -18.296  1.00 94.73 LIG 0.16  HD
ENDBRANCH 27 28
ENDBRANCH 26 27
BRANCH 26 33
ATOM     33  C   ASN B  18      -6.074 -24.366 -17.362  1.00 72.97 LIG 0.22  C 
ATOM     34 O    ASN B  18      -6.335 -23.765 -18.414  1.00 74.17 LIG-0.29  OA
ENDBRANCH 26 33
ENDBRANCH 23 26
ENDBRANCH 21 22
BRANCH 21 35
ATOM     35  CB  TYR B  17      -3.068 -26.450 -13.673  1.00 54.83 LIG 0.07  C 
BRANCH 35 36
ATOM     36  CG  TYR B  17      -2.419 -25.183 -13.266  1.00 56.96 LIG-0.06  A 
ATOM     37  CD2 TYR B  17      -2.773 -23.981 -13.891  1.00 61.26 LIG 0.01  A 
ATOM     38  CE2 TYR B  17      -2.173 -22.794 -13.537  1.00 70.21 LIG 0.04  A 
ATOM     39  CZ  TYR B  17      -1.197 -22.810 -12.557  1.00 76.40 LIG 0.07  A 
ATOM     40  CE1 TYR B  17      -0.823 -23.993 -11.929  1.00 67.10 LIG 0.04  A 
ATOM     41  CD1 TYR B  17      -1.439 -25.175 -12.297  1.00 57.92 LIG 0.01  A 
BRANCH 39 42
ATOM     42 OH   TYR B  17      -0.595 -21.636 -12.211  1.00 89.25 LIG-0.36  OA
ATOM     43 HH   TYR B  17      -0.424 -21.194 -12.904  1.00 89.25 LIG 0.22  HD
ENDBRANCH 39 42
ENDBRANCH 35 36
ENDBRANCH 21 35
ENDBRANCH 19 21
ENDBRANCH 12 17
ENDBRANCH 9 12
ENDBRANCH 4 8
BRANCH 1 44
ATOM     44  CA  ARG B  14     -10.248 -28.206  -8.124  1.00 32.45 LIG 0.18  C 
BRANCH 44 45
ATOM     45  N   ARG B  14     -10.218 -29.391  -7.297  1.00 38.19 LIG-0.35  N 
ATOM     46 H    ARG B  14      -9.488 -29.483  -6.851  1.00 38.19 LIG 0.16  HD
ATOM     47  C   PRO B  13     -11.228 -30.263  -7.232  1.00 38.91 LIG 0.24  C 
ATOM     48 O    PRO B  13     -12.267 -30.127  -7.847  1.00 32.88 LIG-0.27  OA
BRANCH 47 49
ATOM     49  CA  PRO B  13     -11.037 -31.461  -6.280  1.00 38.31 LIG 0.18  C 
ATOM     50  N   PRO B  13     -12.254 -32.194  -6.005  1.00 38.88 LIG-0.34  N 
ATOM     51  CD  PRO B  13     -12.071 -33.639  -6.207  1.00 43.50 LIG 0.13  C 
ATOM     52  C   PRO B  12     -13.402 -31.633  -5.590  1.00 40.77 LIG 0.26  C 
ATOM     53  CG  PRO B  13     -10.592 -33.793  -6.305  1.00 43.53 LIG 0.02  C 
ATOM     54  CB  PRO B  13     -10.124 -32.516  -6.903  1.00 39.91 LIG 0.04  C 
ATOM     55 O    PRO B  12     -13.522 -30.426  -5.334  1.00 44.45 LIG-0.27  OA
BRANCH 52 56
ATOM     56  CA  PRO B  12     -14.594 -32.543  -5.435  1.00 38.46 LIG 0.35  C 
ATOM     57  CB  PRO B  12     -15.737 -32.015  -6.304  1.00 43.42 LIG 0.05  C 
ATOM     58  CG  PRO B  12     -16.951 -32.197  -5.490  1.00 41.12 LIG 0.04  C 
ATOM     59  CD  PRO B  12     -16.511 -31.999  -4.069  1.00 39.74 LIG 0.32  C 
ATOM     60  N   PRO B  12     -15.109 -32.424  -4.092  1.00 38.12 LIG 0.32  N 
ENDBRANCH 52 56
ENDBRANCH 47 49
ENDBRANCH 44 45
BRANCH 44 61
ATOM     61  CB  ARG B  14      -9.092 -27.296  -7.695  1.00 34.42 LIG 0.04  C 
BRANCH 61 62
ATOM     62  CG  ARG B  14      -9.516 -26.003  -6.999  1.00 32.66 LIG 0.02  C 
BRANCH 62 63
ATOM     63  CD  ARG B  14     -11.008 -26.044  -6.735  1.00 35.24 LIG 0.14  C 
BRANCH 63 64
ATOM     64  NE  ARG B  14     -11.463 -24.960  -5.846  1.00 42.22 LIG-0.23  N 
ATOM     65  CZ  ARG B  14     -12.296 -25.092  -4.811  1.00 44.72 LIG 0.67  C 
ATOM     66  NH2 ARG B  14     -12.824 -26.258  -4.491  1.00 43.48 LIG-0.23  N 
ATOM     67  NH1 ARG B  14     -12.616 -24.031  -4.093  1.00 46.51 LIG-0.23  N 
ATOM     68 1HH2 ARG B  14     -12.634 -26.958  -4.953  1.00 43.48 LIG 0.17  HD
ATOM     69 2HH2 ARG B  14     -13.358 -26.318  -3.819  1.00 43.48 LIG 0.17  HD
ATOM     70 2HH1 ARG B  14     -13.153 -24.110  -3.425  1.00 46.51 LIG 0.17  HD
ATOM     71 1HH1 ARG B  14     -12.289 -23.262  -4.293  1.00 46.51 LIG 0.17  HD
ATOM     72 HE   ARG B  14     -11.165 -24.170  -6.009  1.00 42.22 LIG 0.18  HD
ENDBRANCH 63 64
ENDBRANCH 62 63
ENDBRANCH 61 62
ENDBRANCH 44 61
ENDBRANCH 1 44
TORSDOF 22
ENDMDL
MODEL 4
USER: ADFR SOLUTION from run 191
USER: SCORE 23.159273 LL:  -4.966 LR: -20.261 RR:   0.000 FEB: -13.698
USER: RMSD 5.528512
USER: SEED 190
USER: STATUS no improvement in best in 4 clusters for 5 generations
USER: GENES 24
USER: genes 0 Translation |==|  0.46143 0.54943 0.63773
USER: genes 1 Rotation |==|  0.26931 0.56236 0.84678 0.76950
USER: genes 2 Torsion [N]-CA--C-[O] |==|  0.29933
USER: genes 3 Torsion [C]-N--CA-[CB] |==|  0.80130
USER: genes 4 Torsion [N]-CA--CB-[CG2] |==|  0.61391
USER: genes 5 Torsion [CA]-CB--CG1-[CD1] |==|  0.51846
USER: genes 6 Torsion [N]-CA--C-[N] |==|  0.14200
USER: genes 7 Torsion [C]-N--CA-[C] |==|  0.11686
USER: genes 8 Torsion [N]-CA--C-[N] |==|  0.70333
USER: genes 9 Torsion [C]-N--CA-[CB] |==|  0.17386
USER: genes 10 Torsion [N]-CA--CB-[CG] |==|  0.53269
USER: genes 11 Torsion [CA]-CB--CG-[ND2] |==|  0.14889
USER: genes 12 Torsion [N]-CA--C-[O] |==|  0.13126
USER: genes 13 Torsion [N]-CA--CB-[CG] |==|  0.69225
USER: genes 14 Torsion [CA]-CB--CG-[CD2] |==|  0.97121
USER: genes 15 Torsion [CE2]-CZ--OH-[HH] |==|  0.36516
USER: genes 16 Torsion [N]-C--CA-[N] |==|  0.21773
USER: genes 17 Torsion [C]-CA--N-[C] |==|  0.69162
USER: genes 18 Torsion [N]-C--CA-[N] |==|  0.72282
USER: genes 19 Torsion [N]-C--CA-[CB] |==|  0.78045
USER: genes 20 Torsion [C]-CA--CB-[CG] |==|  0.51679
USER: genes 21 Torsion [CA]-CB--CG-[CD] |==|  0.23103
USER: genes 22 Torsion [CB]-CG--CD-[NE] |==|  0.45422
USER: genes 23 Torsion [CG]-CD--NE-[CZ] |==|  0.60704
ROOT
ATOM      1  C   ARG B  14     -10.317 -27.719  -8.111  1.00 32.92 LIG 0.24  C 
ATOM      2 O    ARG B  14      -9.483 -26.860  -8.403  1.00 37.82 LIG-0.27  OA
ATOM      3  N   PRO B  15     -10.260 -28.975  -8.563  1.00 31.88 LIG-0.34  N 
ATOM      4  CA  PRO B  15      -9.147 -29.400  -9.417  1.00 30.79 LIG 0.18  C 
ATOM      5  CB  PRO B  15      -9.421 -30.874  -9.628  1.00 31.22 LIG 0.04  C 
ATOM      6  CG  PRO B  15     -10.135 -31.271  -8.375  1.00 29.82 LIG 0.02  C 
ATOM      7  CD  PRO B  15     -11.059 -30.126  -8.111  1.00 31.43 LIG 0.13  C 
ENDROOT
BRANCH 4 8
ATOM      8  C   PRO B  15      -9.214 -28.677 -10.738  1.00 33.68 LIG 0.24  C 
ATOM      9  N   ILE B  16     -10.137 -29.092 -11.585  1.00 35.41 LIG-0.35  N 
ATOM     10 H    ILE B  16     -10.646 -29.773 -11.453  1.00 35.41 LIG 0.16  HD
ATOM     11 O    PRO B  15      -8.408 -27.798 -11.004  1.00 34.05 LIG-0.27  OA
BRANCH 9 12
ATOM     12  CA  ILE B  16     -10.355 -28.421 -12.798  1.00 37.77 LIG 0.18  C 
BRANCH 12 13
ATOM     13  CB  ILE B  16     -11.021 -27.072 -12.580  1.00 42.27 LIG 0.01  C 
ATOM     14  CG2 ILE B  16     -12.071 -26.845 -13.630  1.00 44.80 LIG 0.01  C 
BRANCH 13 15
ATOM     15  CG1 ILE B  16     -11.602 -27.040 -11.156  1.00 47.53 LIG 0.00  C 
ATOM     16  CD1 ILE B  16     -12.449 -25.819 -10.810  1.00 51.74 LIG 0.01  C 
ENDBRANCH 13 15
ENDBRANCH 12 13
BRANCH 12 17
ATOM     17  C   ILE B  16      -9.008 -28.319 -13.439  1.00 42.33 LIG 0.24  C 
ATOM     18 O    ILE B  16      -8.571 -27.262 -13.801  1.00 39.29 LIG-0.27  OA
ATOM     19  N   TYR B  17      -8.341 -29.455 -13.519  1.00 46.96 LIG-0.35  N 
ATOM     20 H    TYR B  17      -8.698 -30.220 -13.360  1.00 46.96 LIG 0.16  HD
BRANCH 19 21
ATOM     21  CA  TYR B  17      -6.953 -29.533 -13.880  1.00 51.19 LIG 0.18  C 
BRANCH 21 22
ATOM     22  C   TYR B  17      -6.192 -28.451 -13.201  1.00 56.10 LIG 0.24  C 
ATOM     23  N   ASN B  18      -5.784 -27.438 -13.939  1.00 65.39 LIG-0.35  N 
ATOM     24 H    ASN B  18      -6.051 -27.288 -14.742  1.00 65.39 LIG 0.16  HD
ATOM     25 O    TYR B  17      -6.037 -28.496 -11.995  1.00 61.36 LIG-0.27  OA
BRANCH 23 26
ATOM     26  CA  ASN B  18      -4.810 -26.461 -13.425  1.00 70.74 LIG 0.17  C 
BRANCH 26 27
ATOM     27  CB  ASN B  18      -3.486 -27.180 -13.126  1.00 84.74 LIG 0.14  C 
BRANCH 27 28
ATOM     28  CG  ASN B  18      -2.511 -26.309 -12.323  1.00 96.34 LIG 0.22  C 
ATOM     29 OD1  ASN B  18      -1.348 -26.126 -12.714  1.00 99.44 LIG-0.27  OA
ATOM     30  ND2 ASN B  18      -2.976 -25.783 -11.183  1.00 94.73 LIG-0.37  N 
ATOM     31 21HD ASN B  18      -2.463 -25.298 -10.693  1.00 94.73 LIG 0.16  HD
ATOM     32 22HD ASN B  18      -3.788 -25.930 -10.941  1.00 94.73 LIG 0.16  HD
ENDBRANCH 27 28
ENDBRANCH 26 27
BRANCH 26 33
ATOM     33  C   ASN B  18      -4.585 -25.161 -14.235  1.00 72.97 LIG 0.22  C 
ATOM     34 O    ASN B  18      -5.520 -24.470 -14.665  1.00 74.17 LIG-0.29  OA
ENDBRANCH 26 33
ENDBRANCH 23 26
ENDBRANCH 21 22
BRANCH 21 35
ATOM     35  CB  TYR B  17      -6.841 -29.286 -15.375  1.00 54.83 LIG 0.07  C 
BRANCH 35 36
ATOM     36  CG  TYR B  17      -6.444 -30.517 -16.096  1.00 56.96 LIG-0.06  A 
ATOM     37  CD2 TYR B  17      -6.015 -31.642 -15.382  1.00 61.26 LIG 0.01  A 
ATOM     38  CE2 TYR B  17      -5.630 -32.792 -16.032  1.00 70.21 LIG 0.04  A 
ATOM     39  CZ  TYR B  17      -5.658 -32.812 -17.415  1.00 76.40 LIG 0.07  A 
ATOM     40  CE1 TYR B  17      -6.071 -31.705 -18.146  1.00 67.10 LIG 0.04  A 
ATOM     41  CD1 TYR B  17      -6.457 -30.559 -17.474  1.00 57.92 LIG 0.01  A 
BRANCH 39 42
ATOM     42 OH   TYR B  17      -5.268 -33.948 -18.062  1.00 89.25 LIG-0.36  OA
ATOM     43 HH   TYR B  17      -5.841 -34.151 -18.642  1.00 89.25 LIG 0.22  HD
ENDBRANCH 39 42
ENDBRANCH 35 36
ENDBRANCH 21 35
ENDBRANCH 19 21
ENDBRANCH 12 17
ENDBRANCH 9 12
ENDBRANCH 4 8
BRANCH 1 44
ATOM     44  CA  ARG B  14     -11.483 -27.342  -7.246  1.00 32.45 LIG 0.18  C 
BRANCH 44 45
ATOM     45  N   ARG B  14     -11.131 -27.893  -5.957  1.00 38.19 LIG-0.35  N 
ATOM     46 H    ARG B  14     -10.469 -27.494  -5.579  1.00 38.19 LIG 0.16  HD
ATOM     47  C   PRO B  13     -11.773 -28.927  -5.405  1.00 38.91 LIG 0.24  C 
ATOM     48 O    PRO B  13     -12.718 -29.482  -5.927  1.00 32.88 LIG-0.27  OA
BRANCH 47 49
ATOM     49  CA  PRO B  13     -11.280 -29.371  -4.012  1.00 38.31 LIG 0.18  C 
ATOM     50  N   PRO B  13     -10.407 -30.525  -4.038  1.00 38.88 LIG-0.34  N 
ATOM     51  CD  PRO B  13      -9.178 -30.289  -3.268  1.00 43.50 LIG 0.13  C 
ATOM     52  C   PRO B  12     -10.691 -31.679  -4.663  1.00 40.77 LIG 0.26  C 
ATOM     53  CG  PRO B  13      -9.481 -29.051  -2.495  1.00 43.53 LIG 0.02  C 
ATOM     54  CB  PRO B  13     -10.414 -28.290  -3.366  1.00 39.91 LIG 0.04  C 
ATOM     55 O    PRO B  12     -11.770 -31.903  -5.234  1.00 44.45 LIG-0.27  OA
BRANCH 52 56
ATOM     56  CA  PRO B  12      -9.625 -32.746  -4.656  1.00 38.46 LIG 0.35  C 
ATOM     57  CB  PRO B  12      -8.578 -32.407  -5.719  1.00 43.42 LIG 0.05  C 
ATOM     58  CG  PRO B  12      -8.233 -33.697  -6.340  1.00 41.12 LIG 0.04  C 
ATOM     59  CD  PRO B  12      -9.497 -34.507  -6.305  1.00 39.74 LIG 0.32  C 
ATOM     60  N   PRO B  12     -10.193 -33.986  -5.126  1.00 38.12 LIG 0.32  N 
ENDBRANCH 52 56
ENDBRANCH 47 49
ENDBRANCH 44 45
BRANCH 44 61
ATOM     61  CB  ARG B  14     -11.531 -25.816  -7.115  1.00 34.42 LIG 0.04  C 
BRANCH 61 62
ATOM     62  CG  ARG B  14     -12.584 -25.287  -6.142  1.00 32.66 LIG 0.02  C 
BRANCH 62 63
ATOM     63  CD  ARG B  14     -12.030 -25.335  -4.732  1.00 35.24 LIG 0.14  C 
BRANCH 63 64
ATOM     64  NE  ARG B  14     -12.797 -24.506  -3.786  1.00 42.22 LIG-0.23  N 
ATOM     65  CZ  ARG B  14     -12.288 -23.768  -2.797  1.00 44.72 LIG 0.67  C 
ATOM     66  NH2 ARG B  14     -10.991 -23.732  -2.556  1.00 43.48 LIG-0.23  N 
ATOM     67  NH1 ARG B  14     -13.097 -23.067  -2.024  1.00 46.51 LIG-0.23  N 
ATOM     68 1HH2 ARG B  14     -10.451 -24.191  -3.043  1.00 43.48 LIG 0.17  HD
ATOM     69 2HH2 ARG B  14     -10.687 -23.249  -1.913  1.00 43.48 LIG 0.17  HD
ATOM     70 2HH1 ARG B  14     -12.775 -22.590  -1.385  1.00 46.51 LIG 0.17  HD
ATOM     71 1HH1 ARG B  14     -13.945 -23.086  -2.160  1.00 46.51 LIG 0.17  HD
ATOM     72 HE   ARG B  14     -13.653 -24.496  -3.880  1.00 42.22 LIG 0.18  HD
ENDBRANCH 63 64
ENDBRANCH 62 63
ENDBRANCH 61 62
ENDBRANCH 44 61
ENDBRANCH 1 44
TORSDOF 22
ENDMDL
MODEL 5
USER: ADFR SOLUTION from run 170
USER: SCORE 23.017668 LL:  -4.350 LR: -20.175 RR:   0.000 FEB: -13.612
USER: RMSD 2.632108
USER: SEED 169
USER: STATUS no improvement in best in 17 clusters for 5 generations
USER: GENES 24
USER: genes 0 Translation |==|  0.46002 0.49757 0.58507
USER: genes 1 Rotation |==|  0.52028 0.50312 0.47208 0.99880
USER: genes 2 Torsion [N]-CA--C-[O] |==|  0.92657
USER: genes 3 Torsion [C]-N--CA-[CB] |==|  0.29759
USER: genes 4 Torsion [N]-CA--CB-[CG2] |==|  0.02781
USER: genes 5 Torsion [CA]-CB--CG1-[CD1] |==|  0.69604
USER: genes 6 Torsion [N]-CA--C-[N] |==|  0.33341
USER: genes 7 Torsion [C]-N--CA-[C] |==|  0.86667
USER: genes 8 Torsion [N]-CA--C-[N] |==|  0.37488
USER: genes 9 Torsion [C]-N--CA-[CB] |==|  0.46455
USER: genes 10 Torsion [N]-CA--CB-[CG] |==|  0.61102
USER: genes 11 Torsion [CA]-CB--CG-[ND2] |==|  0.38691
USER: genes 12 Torsion [N]-CA--C-[O] |==|  0.23011
USER: genes 13 Torsion [N]-CA--CB-[CG] |==|  0.96676
USER: genes 14 Torsion [CA]-CB--CG-[CD2] |==|  0.74030
USER: genes 15 Torsion [CE2]-CZ--OH-[HH] |==|  0.09594
USER: genes 16 Torsion [N]-C--CA-[N] |==|  0.45297
USER: genes 17 Torsion [C]-CA--N-[C] |==|  0.79088
USER: genes 18 Torsion [N]-C--CA-[N] |==|  0.42443
USER: genes 19 Torsion [N]-C--CA-[CB] |==|  0.69395
USER: genes 20 Torsion [C]-CA--CB-[CG] |==|  0.35744
USER: genes 21 Torsion [CA]-CB--CG-[CD] |==|  0.14445
USER: genes 22 Torsion [CB]-CG--CD-[NE] |==|  0.43978
USER: genes 23 Torsion [CG]-CD--NE-[CZ] |==|  0.49748
ROOT
ATOM      1  C   ARG B  14     -10.349 -28.692  -9.572  1.00 32.92 LIG 0.24  C 
ATOM      2 O    ARG B  14      -9.686 -29.726  -9.666  1.00 37.82 LIG-0.27  OA
ATOM      3  N   PRO B  15     -10.733 -27.972 -10.630  1.00 31.88 LIG-0.34  N 
ATOM      4  CA  PRO B  15     -10.404 -28.423 -11.985  1.00 30.79 LIG 0.18  C 
ATOM      5  CB  PRO B  15     -11.080 -27.390 -12.863  1.00 31.22 LIG 0.04  C 
ATOM      6  CG  PRO B  15     -12.251 -26.958 -12.040  1.00 29.82 LIG 0.02  C 
ATOM      7  CD  PRO B  15     -11.701 -26.862 -10.654  1.00 31.43 LIG 0.13  C 
ENDROOT
BRANCH 4 8
ATOM      8  C   PRO B  15      -8.912 -28.367 -12.193  1.00 33.68 LIG 0.24  C 
ATOM      9  N   ILE B  16      -8.407 -29.240 -13.043  1.00 35.41 LIG-0.35  N 
ATOM     10 H    ILE B  16      -8.861 -29.864 -13.426  1.00 35.41 LIG 0.16  HD
ATOM     11 O    PRO B  15      -8.227 -27.582 -11.555  1.00 34.05 LIG-0.27  OA
BRANCH 9 12
ATOM     12  CA  ILE B  16      -7.047 -29.205 -13.390  1.00 37.77 LIG 0.18  C 
BRANCH 12 13
ATOM     13  CB  ILE B  16      -6.278 -30.353 -12.755  1.00 42.27 LIG 0.01  C 
ATOM     14  CG2 ILE B  16      -7.236 -31.331 -12.138  1.00 44.80 LIG 0.01  C 
BRANCH 13 15
ATOM     15  CG1 ILE B  16      -5.393 -31.002 -13.833  1.00 47.53 LIG 0.00  C 
ATOM     16  CD1 ILE B  16      -5.817 -32.393 -14.293  1.00 51.74 LIG 0.01  C 
ENDBRANCH 13 15
ENDBRANCH 12 13
BRANCH 12 17
ATOM     17  C   ILE B  16      -7.021 -29.231 -14.884  1.00 42.33 LIG 0.24  C 
ATOM     18 O    ILE B  16      -7.537 -30.123 -15.499  1.00 39.29 LIG-0.27  OA
ATOM     19  N   TYR B  17      -6.444 -28.188 -15.450  1.00 46.96 LIG-0.35  N 
ATOM     20 H    TYR B  17      -5.984 -27.610 -15.009  1.00 46.96 LIG 0.16  HD
BRANCH 19 21
ATOM     21  CA  TYR B  17      -6.523 -27.906 -16.856  1.00 51.19 LIG 0.18  C 
BRANCH 21 22
ATOM     22  C   TYR B  17      -6.214 -29.135 -17.635  1.00 56.10 LIG 0.24  C 
ATOM     23  N   ASN B  18      -6.999 -29.423 -18.655  1.00 65.39 LIG-0.35  N 
ATOM     24 H    ASN B  18      -7.577 -28.880 -18.987  1.00 65.39 LIG 0.16  HD
ATOM     25 O    TYR B  17      -5.222 -29.784 -17.360  1.00 61.36 LIG-0.27  OA
BRANCH 23 26
ATOM     26  CA  ASN B  18      -6.941 -30.736 -19.317  1.00 70.74 LIG 0.17  C 
BRANCH 26 27
ATOM     27  CB  ASN B  18      -8.164 -30.891 -20.234  1.00 84.74 LIG 0.14  C 
BRANCH 27 28
ATOM     28  CG  ASN B  18      -8.757 -32.306 -20.190  1.00 96.34 LIG 0.22  C 
ATOM     29 OD1  ASN B  18      -8.023 -33.306 -20.180  1.00 99.44 LIG-0.27  OA
ATOM     30  ND2 ASN B  18     -10.093 -32.396 -20.183  1.00 94.73 LIG-0.37  N 
ATOM     31 21HD ASN B  18     -10.472 -33.168 -20.171  1.00 94.73 LIG 0.16  HD
ATOM     32 22HD ASN B  18     -10.573 -31.682 -20.191  1.00 94.73 LIG 0.16  HD
ENDBRANCH 27 28
ENDBRANCH 26 27
BRANCH 26 33
ATOM     33  C   ASN B  18      -5.630 -31.131 -20.039  1.00 72.97 LIG 0.22  C 
ATOM     34 O    ASN B  18      -4.656 -31.613 -19.442  1.00 74.17 LIG-0.29  OA
ENDBRANCH 26 33
ENDBRANCH 23 26
ENDBRANCH 21 22
BRANCH 21 35
ATOM     35  CB  TYR B  17      -5.449 -26.885 -17.192  1.00 54.83 LIG 0.07  C 
BRANCH 35 36
ATOM     36  CG  TYR B  17      -4.866 -26.293 -15.966  1.00 56.96 LIG-0.06  A 
ATOM     37  CD2 TYR B  17      -5.382 -25.099 -15.449  1.00 61.26 LIG 0.01  A 
ATOM     38  CE2 TYR B  17      -4.848 -24.526 -14.318  1.00 70.21 LIG 0.04  A 
ATOM     39  CZ  TYR B  17      -3.773 -25.146 -13.705  1.00 76.40 LIG 0.07  A 
ATOM     40  CE1 TYR B  17      -3.238 -26.327 -14.205  1.00 67.10 LIG 0.04  A 
ATOM     41  CD1 TYR B  17      -3.791 -26.888 -15.341  1.00 57.92 LIG 0.01  A 
BRANCH 39 42
ATOM     42 OH   TYR B  17      -3.236 -24.575 -12.588  1.00 89.25 LIG-0.36  OA
ATOM     43 HH   TYR B  17      -3.846 -24.211 -12.139  1.00 89.25 LIG 0.22  HD
ENDBRANCH 39 42
ENDBRANCH 35 36
ENDBRANCH 21 35
ENDBRANCH 19 21
ENDBRANCH 12 17
ENDBRANCH 9 12
ENDBRANCH 4 8
BRANCH 1 44
ATOM     44  CA  ARG B  14     -10.710 -28.176  -8.211  1.00 32.45 LIG 0.18  C 
BRANCH 44 45
ATOM     45  N   ARG B  14     -10.534 -29.333  -7.362  1.00 38.19 LIG-0.35  N 
ATOM     46 H    ARG B  14      -9.821 -29.305  -6.882  1.00 38.19 LIG 0.16  HD
ATOM     47  C   PRO B  13     -11.398 -30.352  -7.326  1.00 38.91 LIG 0.24  C 
ATOM     48 O    PRO B  13     -12.415 -30.388  -7.990  1.00 32.88 LIG-0.27  OA
BRANCH 47 49
ATOM     49  CA  PRO B  13     -11.067 -31.494  -6.345  1.00 38.31 LIG 0.18  C 
ATOM     50  N   PRO B  13     -12.228 -32.218  -5.872  1.00 38.88 LIG-0.34  N 
ATOM     51  CD  PRO B  13     -12.055 -33.670  -6.018  1.00 43.50 LIG 0.13  C 
ATOM     52  C   PRO B  12     -13.318 -31.642  -5.339  1.00 40.77 LIG 0.26  C 
ATOM     53  CG  PRO B  13     -10.600 -33.822  -6.303  1.00 43.53 LIG 0.02  C 
ATOM     54  CB  PRO B  13     -10.232 -32.578  -7.026  1.00 39.91 LIG 0.04  C 
ATOM     55 O    PRO B  12     -13.418 -30.422  -5.135  1.00 44.45 LIG-0.27  OA
BRANCH 52 56
ATOM     56  CA  PRO B  12     -14.468 -32.548  -4.978  1.00 38.46 LIG 0.35  C 
ATOM     57  CB  PRO B  12     -15.627 -32.286  -5.942  1.00 43.42 LIG 0.05  C 
ATOM     58  CG  PRO B  12     -16.837 -32.335  -5.104  1.00 41.12 LIG 0.04  C 
ATOM     59  CD  PRO B  12     -16.419 -31.799  -3.766  1.00 39.74 LIG 0.32  C 
ATOM     60  N   PRO B  12     -14.999 -32.152  -3.696  1.00 38.12 LIG 0.32  N 
ENDBRANCH 52 56
ENDBRANCH 47 49
ENDBRANCH 44 45
BRANCH 44 61
ATOM     61  CB  ARG B  14      -9.684 -27.117  -7.792  1.00 34.42 LIG 0.04  C 
BRANCH 61 62
ATOM     62  CG  ARG B  14     -10.284 -25.793  -7.320  1.00 32.66 LIG 0.02  C 
BRANCH 62 63
ATOM     63  CD  ARG B  14     -11.318 -26.068  -6.247  1.00 35.24 LIG 0.14  C 
BRANCH 63 64
ATOM     64  NE  ARG B  14     -11.578 -24.900  -5.388  1.00 42.22 LIG-0.23  N 
ATOM     65  CZ  ARG B  14     -12.449 -24.846  -4.377  1.00 44.72 LIG 0.67  C 
ATOM     66  NH2 ARG B  14     -13.203 -25.881  -4.056  1.00 43.48 LIG-0.23  N 
ATOM     67  NH1 ARG B  14     -12.576 -23.729  -3.685  1.00 46.51 LIG-0.23  N 
ATOM     68 1HH2 ARG B  14     -13.140 -26.613  -4.503  1.00 43.48 LIG 0.17  HD
ATOM     69 2HH2 ARG B  14     -13.756 -25.822  -3.400  1.00 43.48 LIG 0.17  HD
ATOM     70 2HH1 ARG B  14     -13.135 -23.689  -3.032  1.00 46.51 LIG 0.17  HD
ATOM     71 1HH1 ARG B  14     -12.100 -23.042  -3.886  1.00 46.51 LIG 0.17  HD
ATOM     72 HE   ARG B  14     -11.128 -24.185  -5.553  1.00 42.22 LIG 0.18  HD
ENDBRANCH 63 64
ENDBRANCH 62 63
ENDBRANCH 61 62
ENDBRANCH 44 61
ENDBRANCH 1 44
TORSDOF 22
ENDMDL
MODEL 6
USER: ADFR SOLUTION from run 145
USER: SCORE 23.735040 LL:  -4.994 LR: -20.047 RR:   0.000 FEB: -13.485
USER: RMSD 4.107121
USER: SEED 144
USER: STATUS no improvement in best in 35 clusters for 5 generations
USER: GENES 24
USER: genes 0 Translation |==|  0.48838 0.49232 0.58054
USER: genes 1 Rotation |==|  0.51240 0.50776 0.45346 0.99761
USER: genes 2 Torsion [N]-CA--C-[O] |==|  0.89677
USER: genes 3 Torsion [C]-N--CA-[CB] |==|  0.14571
USER: genes 4 Torsion [N]-CA--CB-[CG2] |==|  0.26115
USER: genes 5 Torsion [CA]-CB--CG1-[CD1] |==|  0.19763
USER: genes 6 Torsion [N]-CA--C-[N] |==|  0.43823
USER: genes 7 Torsion [C]-N--CA-[C] |==|  0.71111
USER: genes 8 Torsion [N]-CA--C-[N] |==|  0.01126
USER: genes 9 Torsion [C]-N--CA-[CB] |==|  0.53439
USER: genes 10 Torsion [N]-CA--CB-[CG] |==|  0.64925
USER: genes 11 Torsion [CA]-CB--CG-[ND2] |==|  0.67340
USER: genes 12 Torsion [N]-CA--C-[O] |==|  0.47577
USER: genes 13 Torsion [N]-CA--CB-[CG] |==|  0.89476
USER: genes 14 Torsion [CA]-CB--CG-[CD2] |==|  0.28522
USER: genes 15 Torsion [CE2]-CZ--OH-[HH] |==|  0.48233
USER: genes 16 Torsion [N]-C--CA-[N] |==|  0.44148
USER: genes 17 Torsion [C]-CA--N-[C] |==|  0.77634
USER: genes 18 Torsion [N]-C--CA-[N] |==|  0.49062
USER: genes 19 Torsion [N]-C--CA-[CB] |==|  0.53963
USER: genes 20 Torsion [C]-CA--CB-[CG] |==|  0.40414
USER: genes 21 Torsion [CA]-CB--CG-[CD] |==|  0.96921
USER: genes 22 Torsion [CB]-CG--CD-[NE] |==|  0.47090
USER: genes 23 Torsion [CG]-CD--NE-[CZ] |==|  0.66777
ROOT
ATOM      1  C   ARG B  14      -9.710 -28.790  -9.698  1.00 32.92 LIG 0.24  C 
ATOM      2 O    ARG B  14      -9.128 -29.873  -9.774  1.00 37.82 LIG-0.27  OA
ATOM      3  N   PRO B  15     -10.067 -28.076 -10.769  1.00 31.88 LIG-0.34  N 
ATOM      4  CA  PRO B  15      -9.805 -28.590 -12.116  1.00 30.79 LIG 0.18  C 
ATOM      5  CB  PRO B  15     -10.425 -27.537 -13.011  1.00 31.22 LIG 0.04  C 
ATOM      6  CG  PRO B  15     -11.541 -26.995 -12.176  1.00 29.82 LIG 0.02  C 
ATOM      7  CD  PRO B  15     -10.951 -26.899 -10.807  1.00 31.43 LIG 0.13  C 
ENDROOT
BRANCH 4 8
ATOM      8  C   PRO B  15      -8.318 -28.651 -12.359  1.00 33.68 LIG 0.24  C 
ATOM      9  N   ILE B  16      -7.875 -29.709 -13.011  1.00 35.41 LIG-0.35  N 
ATOM     10 H    ILE B  16      -8.366 -30.377 -13.242  1.00 35.41 LIG 0.16  HD
ATOM     11 O    PRO B  15      -7.583 -27.781 -11.917  1.00 34.05 LIG-0.27  OA
BRANCH 9 12
ATOM     12  CA  ILE B  16      -6.526 -29.813 -13.382  1.00 37.77 LIG 0.18  C 
BRANCH 12 13
ATOM     13  CB  ILE B  16      -5.600 -29.593 -12.196  1.00 42.27 LIG 0.01  C 
ATOM     14  CG2 ILE B  16      -5.241 -30.913 -11.576  1.00 44.80 LIG 0.01  C 
BRANCH 13 15
ATOM     15  CG1 ILE B  16      -4.362 -28.818 -12.681  1.00 47.53 LIG 0.00  C 
ATOM     16  CD1 ILE B  16      -4.593 -27.355 -13.042  1.00 51.74 LIG 0.01  C 
ENDBRANCH 13 15
ENDBRANCH 12 13
BRANCH 12 17
ATOM     17  C   ILE B  16      -6.389 -31.170 -13.995  1.00 42.33 LIG 0.24  C 
ATOM     18 O    ILE B  16      -7.197 -32.031 -13.783  1.00 39.29 LIG-0.27  OA
ATOM     19  N   TYR B  17      -5.361 -31.313 -14.809  1.00 46.96 LIG-0.35  N 
ATOM     20 H    TYR B  17      -4.729 -30.734 -14.873  1.00 46.96 LIG 0.16  HD
BRANCH 19 21
ATOM     21  CA  TYR B  17      -5.187 -32.448 -15.672  1.00 51.19 LIG 0.18  C 
BRANCH 21 22
ATOM     22  C   TYR B  17      -4.150 -33.355 -15.112  1.00 56.10 LIG 0.24  C 
ATOM     23  N   ASN B  18      -3.640 -33.044 -13.936  1.00 65.39 LIG-0.35  N 
ATOM     24 H    ASN B  18      -3.967 -32.447 -13.411  1.00 65.39 LIG 0.16  HD
ATOM     25 O    TYR B  17      -3.863 -34.376 -15.709  1.00 61.36 LIG-0.27  OA
BRANCH 23 26
ATOM     26  CA  ASN B  18      -2.437 -33.719 -13.422  1.00 70.74 LIG 0.17  C 
BRANCH 26 27
ATOM     27  CB  ASN B  18      -2.267 -33.380 -11.934  1.00 84.74 LIG 0.14  C 
BRANCH 27 28
ATOM     28  CG  ASN B  18      -0.879 -32.810 -11.615  1.00 96.34 LIG 0.22  C 
ATOM     29 OD1  ASN B  18      -0.489 -31.751 -12.131  1.00 99.44 LIG-0.27  OA
ATOM     30  ND2 ASN B  18      -0.117 -33.521 -10.774  1.00 94.73 LIG-0.37  N 
ATOM     31 21HD ASN B  18       0.673 -33.248 -10.574  1.00 94.73 LIG 0.16  HD
ATOM     32 22HD ASN B  18      -0.418 -34.251 -10.433  1.00 94.73 LIG 0.16  HD
ENDBRANCH 27 28
ENDBRANCH 26 27
BRANCH 26 33
ATOM     33  C   ASN B  18      -2.285 -35.237 -13.685  1.00 72.97 LIG 0.22  C 
ATOM     34 O    ASN B  18      -1.243 -35.859 -13.433  1.00 74.17 LIG-0.29  OA
ENDBRANCH 26 33
ENDBRANCH 23 26
ENDBRANCH 21 22
BRANCH 21 35
ATOM     35  CB  TYR B  17      -4.666 -31.948 -17.009  1.00 54.83 LIG 0.07  C 
BRANCH 35 36
ATOM     36  CG  TYR B  17      -5.294 -30.660 -17.384  1.00 56.96 LIG-0.06  A 
ATOM     37  CD2 TYR B  17      -4.585 -29.463 -17.231  1.00 61.26 LIG 0.01  A 
ATOM     38  CE2 TYR B  17      -5.153 -28.254 -17.561  1.00 70.21 LIG 0.04  A 
ATOM     39  CZ  TYR B  17      -6.453 -28.240 -18.036  1.00 76.40 LIG 0.07  A 
ATOM     40  CE1 TYR B  17      -7.180 -29.416 -18.188  1.00 67.10 LIG 0.04  A 
ATOM     41  CD1 TYR B  17      -6.589 -30.620 -17.852  1.00 57.92 LIG 0.01  A 
BRANCH 39 42
ATOM     42 OH   TYR B  17      -7.021 -27.043 -18.356  1.00 89.25 LIG-0.36  OA
ATOM     43 HH   TYR B  17      -7.771 -27.174 -18.711  1.00 89.25 LIG 0.22  HD
ENDBRANCH 39 42
ENDBRANCH 35 36
ENDBRANCH 21 35
ENDBRANCH 19 21
ENDBRANCH 12 17
ENDBRANCH 9 12
ENDBRANCH 4 8
BRANCH 1 44
ATOM     44  CA  ARG B  14      -9.999 -28.209  -8.346  1.00 32.45 LIG 0.18  C 
BRANCH 44 45
ATOM     45  N   ARG B  14      -9.987 -29.366  -7.479  1.00 38.19 LIG-0.35  N 
ATOM     46 H    ARG B  14      -9.249 -29.469  -7.050  1.00 38.19 LIG 0.16  HD
ATOM     47  C   PRO B  13     -11.025 -30.199  -7.357  1.00 38.91 LIG 0.24  C 
ATOM     48 O    PRO B  13     -12.075 -30.048  -7.949  1.00 32.88 LIG-0.27  OA
BRANCH 47 49
ATOM     49  CA  PRO B  13     -10.849 -31.370  -6.369  1.00 38.31 LIG 0.18  C 
ATOM     50  N   PRO B  13     -12.029 -32.194  -6.218  1.00 38.88 LIG-0.34  N 
ATOM     51  CD  PRO B  13     -11.713 -33.622  -6.374  1.00 43.50 LIG 0.13  C 
ATOM     52  C   PRO B  12     -13.256 -31.723  -5.942  1.00 40.77 LIG 0.26  C 
ATOM     53  CG  PRO B  13     -10.225 -33.660  -6.305  1.00 43.53 LIG 0.02  C 
ATOM     54  CB  PRO B  13      -9.794 -32.356  -6.870  1.00 39.91 LIG 0.04  C 
ATOM     55 O    PRO B  12     -13.497 -30.526  -5.722  1.00 44.45 LIG-0.27  OA
BRANCH 52 56
ATOM     56  CA  PRO B  12     -14.384 -32.722  -5.904  1.00 38.46 LIG 0.35  C 
ATOM     57  CB  PRO B  12     -15.715 -31.969  -5.934  1.00 43.42 LIG 0.05  C 
ATOM     58  CG  PRO B  12     -16.584 -32.692  -4.990  1.00 41.12 LIG 0.04  C 
ATOM     59  CD  PRO B  12     -15.669 -33.201  -3.915  1.00 39.74 LIG 0.32  C 
ATOM     60  N   PRO B  12     -14.395 -33.375  -4.618  1.00 38.12 LIG 0.32  N 
ENDBRANCH 52 56
ENDBRANCH 47 49
ENDBRANCH 44 45
BRANCH 44 61
ATOM     61  CB  ARG B  14      -8.838 -27.296  -7.939  1.00 34.42 LIG 0.04  C 
BRANCH 61 62
ATOM     62  CG  ARG B  14      -9.242 -26.069  -7.122  1.00 32.66 LIG 0.02  C 
BRANCH 62 63
ATOM     63  CD  ARG B  14     -10.750 -25.923  -7.150  1.00 35.24 LIG 0.14  C 
BRANCH 63 64
ATOM     64  NE  ARG B  14     -11.247 -24.918  -6.195  1.00 42.22 LIG-0.23  N 
ATOM     65  CZ  ARG B  14     -12.089 -25.145  -5.184  1.00 44.72 LIG 0.67  C 
ATOM     66  NH2 ARG B  14     -12.588 -26.344  -4.954  1.00 43.48 LIG-0.23  N 
ATOM     67  NH1 ARG B  14     -12.449 -24.146  -4.399  1.00 46.51 LIG-0.23  N 
ATOM     68 1HH2 ARG B  14     -12.372 -27.005  -5.461  1.00 43.48 LIG 0.17  HD
ATOM     69 2HH2 ARG B  14     -13.128 -26.466  -4.296  1.00 43.48 LIG 0.17  HD
ATOM     70 2HH1 ARG B  14     -12.991 -24.286  -3.746  1.00 46.51 LIG 0.17  HD
ATOM     71 1HH1 ARG B  14     -12.142 -23.356  -4.540  1.00 46.51 LIG 0.17  HD
ATOM     72 HE   ARG B  14     -10.970 -24.110  -6.298  1.00 42.22 LIG 0.18  HD
ENDBRANCH 63 64
ENDBRANCH 62 63
ENDBRANCH 61 62
ENDBRANCH 44 61
ENDBRANCH 1 44
TORSDOF 22
ENDMDL
MODEL 7
USER: ADFR SOLUTION from run 159
USER: SCORE 23.083746 LL:  -4.570 LR: -20.027 RR:   0.000 FEB: -13.465
USER: RMSD 4.351292
USER: SEED 158
USER: STATUS no improvement in best in 4 clusters for 5 generations
USER: GENES 24
USER: genes 0 Translation |==|  0.47730 0.49502 0.57931
USER: genes 1 Rotation |==|  0.52024 0.48839 0.43917 0.99574
USER: genes 2 Torsion [N]-CA--C-[O] |==|  0.91319
USER: genes 3 Torsion [C]-N--CA-[CB] |==|  0.16111
USER: genes 4 Torsion [N]-CA--CB-[CG2] |==|  0.12818
USER: genes 5 Torsion [CA]-CB--CG1-[CD1] |==|  0.64411
USER: genes 6 Torsion [N]-CA--C-[N] |==|  0.32458
USER: genes 7 Torsion [C]-N--CA-[C] |==|  0.77660
USER: genes 8 Torsion [N]-CA--C-[N] |==|  0.20113
USER: genes 9 Torsion [C]-N--CA-[CB] |==|  0.44835
USER: genes 10 Torsion [N]-CA--CB-[CG] |==|  0.62784
USER: genes 11 Torsion [CA]-CB--CG-[ND2] |==|  0.40220
USER: genes 12 Torsion [N]-CA--C-[O] |==|  0.56968
USER: genes 13 Torsion [N]-CA--CB-[CG] |==|  0.61611
USER: genes 14 Torsion [CA]-CB--CG-[CD2] |==|  0.32282
USER: genes 15 Torsion [CE2]-CZ--OH-[HH] |==|  0.48218
USER: genes 16 Torsion [N]-C--CA-[N] |==|  0.46497
USER: genes 17 Torsion [C]-CA--N-[C] |==|  0.77888
USER: genes 18 Torsion [N]-C--CA-[N] |==|  0.46949
USER: genes 19 Torsion [N]-C--CA-[CB] |==|  0.58853
USER: genes 20 Torsion [C]-CA--CB-[CG] |==|  0.46596
USER: genes 21 Torsion [CA]-CB--CG-[CD] |==|  0.90084
USER: genes 22 Torsion [CB]-CG--CD-[NE] |==|  0.53400
USER: genes 23 Torsion [CG]-CD--NE-[CZ] |==|  0.68398
ROOT
ATOM      1  C   ARG B  14      -9.960 -28.739  -9.732  1.00 32.92 LIG 0.24  C 
ATOM      2 O    ARG B  14      -9.438 -29.854  -9.790  1.00 37.82 LIG-0.27  OA
ATOM      3  N   PRO B  15     -10.188 -27.982 -10.809  1.00 31.88 LIG-0.34  N 
ATOM      4  CA  PRO B  15      -9.851 -28.484 -12.145  1.00 30.79 LIG 0.18  C 
ATOM      5  CB  PRO B  15     -10.334 -27.376 -13.058  1.00 31.22 LIG 0.04  C 
ATOM      6  CG  PRO B  15     -11.479 -26.785 -12.298  1.00 29.82 LIG 0.02  C 
ATOM      7  CD  PRO B  15     -10.995 -26.753 -10.885  1.00 31.43 LIG 0.13  C 
ENDROOT
BRANCH 4 8
ATOM      8  C   PRO B  15      -8.356 -28.629 -12.272  1.00 33.68 LIG 0.24  C 
ATOM      9  N   ILE B  16      -7.928 -29.631 -13.017  1.00 35.41 LIG-0.35  N 
ATOM     10 H    ILE B  16      -8.439 -30.226 -13.370  1.00 35.41 LIG 0.16  HD
ATOM     11 O    PRO B  15      -7.607 -27.880 -11.665  1.00 34.05 LIG-0.27  OA
BRANCH 9 12
ATOM     12  CA  ILE B  16      -6.560 -29.794 -13.288  1.00 37.77 LIG 0.18  C 
BRANCH 12 13
ATOM     13  CB  ILE B  16      -5.748 -29.928 -12.010  1.00 42.27 LIG 0.01  C 
ATOM     14  CG2 ILE B  16      -6.419 -30.896 -11.077  1.00 44.80 LIG 0.01  C 
BRANCH 13 15
ATOM     15  CG1 ILE B  16      -4.322 -30.370 -12.384  1.00 47.53 LIG 0.00  C 
ATOM     16  CD1 ILE B  16      -3.789 -31.593 -11.644  1.00 51.74 LIG 0.01  C 
ENDBRANCH 13 15
ENDBRANCH 12 13
BRANCH 12 17
ATOM     17  C   ILE B  16      -6.475 -30.996 -14.173  1.00 42.33 LIG 0.24  C 
ATOM     18 O    ILE B  16      -6.860 -32.070 -13.801  1.00 39.29 LIG-0.27  OA
ATOM     19  N   TYR B  17      -6.002 -30.766 -15.383  1.00 46.96 LIG-0.35  N 
ATOM     20 H    TYR B  17      -5.629 -30.024 -15.607  1.00 46.96 LIG 0.16  HD
BRANCH 19 21
ATOM     21  CA  TYR B  17      -6.059 -31.725 -16.450  1.00 51.19 LIG 0.18  C 
BRANCH 21 22
ATOM     22  C   TYR B  17      -4.959 -32.714 -16.301  1.00 56.10 LIG 0.24  C 
ATOM     23  N   ASN B  18      -5.064 -33.600 -15.330  1.00 65.39 LIG-0.35  N 
ATOM     24 H    ASN B  18      -5.783 -33.739 -14.881  1.00 65.39 LIG 0.16  HD
ATOM     25 O    TYR B  17      -4.048 -32.722 -17.108  1.00 61.36 LIG-0.27  OA
BRANCH 23 26
ATOM     26  CA  ASN B  18      -3.922 -34.441 -14.936  1.00 70.74 LIG 0.17  C 
BRANCH 26 27
ATOM     27  CB  ASN B  18      -4.179 -35.012 -13.533  1.00 84.74 LIG 0.14  C 
BRANCH 27 28
ATOM     28  CG  ASN B  18      -2.958 -34.887 -12.613  1.00 96.34 LIG 0.22  C 
ATOM     29 OD1  ASN B  18      -1.807 -35.021 -13.058  1.00 99.44 LIG-0.27  OA
ATOM     30  ND2 ASN B  18      -3.203 -34.646 -11.319  1.00 94.73 LIG-0.37  N 
ATOM     31 21HD ASN B  18      -2.551 -34.579 -10.763  1.00 94.73 LIG 0.16  HD
ATOM     32 22HD ASN B  18      -4.014 -34.558 -11.044  1.00 94.73 LIG 0.16  HD
ENDBRANCH 27 28
ENDBRANCH 26 27
BRANCH 26 33
ATOM     33  C   ASN B  18      -3.449 -35.536 -15.922  1.00 72.97 LIG 0.22  C 
ATOM     34 O    ASN B  18      -2.845 -36.554 -15.553  1.00 74.17 LIG-0.29  OA
ENDBRANCH 26 33
ENDBRANCH 23 26
ENDBRANCH 21 22
BRANCH 21 35
ATOM     35  CB  TYR B  17      -5.821 -30.988 -17.758  1.00 54.83 LIG 0.07  C 
BRANCH 35 36
ATOM     36  CG  TYR B  17      -6.736 -31.466 -18.820  1.00 56.96 LIG-0.06  A 
ATOM     37  CD2 TYR B  17      -7.680 -30.595 -19.377  1.00 61.26 LIG 0.01  A 
ATOM     38  CE2 TYR B  17      -8.549 -31.022 -20.355  1.00 70.21 LIG 0.04  A 
ATOM     39  CZ  TYR B  17      -8.483 -32.340 -20.772  1.00 76.40 LIG 0.07  A 
ATOM     40  CE1 TYR B  17      -7.559 -33.225 -20.227  1.00 67.10 LIG 0.04  A 
ATOM     41  CD1 TYR B  17      -6.695 -32.776 -19.246  1.00 57.92 LIG 0.01  A 
BRANCH 39 42
ATOM     42 OH   TYR B  17      -9.348 -32.767 -21.736  1.00 89.25 LIG-0.36  OA
ATOM     43 HH   TYR B  17      -9.151 -33.552 -21.961  1.00 89.25 LIG 0.22  HD
ENDBRANCH 39 42
ENDBRANCH 35 36
ENDBRANCH 21 35
ENDBRANCH 19 21
ENDBRANCH 12 17
ENDBRANCH 9 12
ENDBRANCH 4 8
BRANCH 1 44
ATOM     44  CA  ARG B  14     -10.320 -28.171  -8.392  1.00 32.45 LIG 0.18  C 
BRANCH 44 45
ATOM     45  N   ARG B  14     -10.244 -29.317  -7.515  1.00 38.19 LIG-0.35  N 
ATOM     46 H    ARG B  14      -9.515 -29.356  -7.059  1.00 38.19 LIG 0.16  HD
ATOM     47  C   PRO B  13     -11.214 -30.231  -7.420  1.00 38.91 LIG 0.24  C 
ATOM     48 O    PRO B  13     -12.251 -30.171  -8.049  1.00 32.88 LIG-0.27  OA
BRANCH 47 49
ATOM     49  CA  PRO B  13     -10.977 -31.377  -6.416  1.00 38.31 LIG 0.18  C 
ATOM     50  N   PRO B  13     -12.147 -32.192  -6.167  1.00 38.88 LIG-0.34  N 
ATOM     51  CD  PRO B  13     -11.846 -33.624  -6.305  1.00 43.50 LIG 0.13  C 
ATOM     52  C   PRO B  12     -13.351 -31.707  -5.824  1.00 40.77 LIG 0.26  C 
ATOM     53  CG  PRO B  13     -10.356 -33.668  -6.333  1.00 43.53 LIG 0.02  C 
ATOM     54  CB  PRO B  13      -9.959 -32.380  -6.958  1.00 39.91 LIG 0.04  C 
ATOM     55 O    PRO B  12     -13.574 -30.505  -5.620  1.00 44.45 LIG-0.27  OA
BRANCH 52 56
ATOM     56  CA  PRO B  12     -14.478 -32.701  -5.687  1.00 38.46 LIG 0.35  C 
ATOM     57  CB  PRO B  12     -15.789 -32.021  -6.085  1.00 43.42 LIG 0.05  C 
ATOM     58  CG  PRO B  12     -16.783 -32.511  -5.114  1.00 41.12 LIG 0.04  C 
ATOM     59  CD  PRO B  12     -16.027 -32.705  -3.833  1.00 39.74 LIG 0.32  C 
ATOM     60  N   PRO B  12     -14.669 -33.010  -4.291  1.00 38.12 LIG 0.32  N 
ENDBRANCH 52 56
ENDBRANCH 47 49
ENDBRANCH 44 45
BRANCH 44 61
ATOM     61  CB  ARG B  14      -9.237 -27.173  -7.969  1.00 34.42 LIG 0.04  C 
BRANCH 61 62
ATOM     62  CG  ARG B  14      -9.604 -26.296  -6.771  1.00 32.66 LIG 0.02  C 
BRANCH 62 63
ATOM     63  CD  ARG B  14     -11.081 -25.965  -6.828  1.00 35.24 LIG 0.14  C 
BRANCH 63 64
ATOM     64  NE  ARG B  14     -11.467 -24.899  -5.886  1.00 42.22 LIG-0.23  N 
ATOM     65  CZ  ARG B  14     -12.265 -25.040  -4.825  1.00 44.72 LIG 0.67  C 
ATOM     66  NH2 ARG B  14     -12.819 -26.199  -4.525  1.00 43.48 LIG-0.23  N 
ATOM     67  NH1 ARG B  14     -12.523 -23.996  -4.060  1.00 46.51 LIG-0.23  N 
ATOM     68 1HH2 ARG B  14     -12.670 -26.888  -5.018  1.00 43.48 LIG 0.17  HD
ATOM     69 2HH2 ARG B  14     -13.329 -26.266  -3.835  1.00 43.48 LIG 0.17  HD
ATOM     70 2HH1 ARG B  14     -13.036 -24.081  -3.375  1.00 46.51 LIG 0.17  HD
ATOM     71 1HH1 ARG B  14     -12.178 -23.231  -4.247  1.00 46.51 LIG 0.17  HD
ATOM     72 HE   ARG B  14     -11.149 -24.113  -6.034  1.00 42.22 LIG 0.18  HD
ENDBRANCH 63 64
ENDBRANCH 62 63
ENDBRANCH 61 62
ENDBRANCH 44 61
ENDBRANCH 1 44
TORSDOF 22
ENDMDL
MODEL 8
USER: ADFR SOLUTION from run 177
USER: SCORE 24.121774 LL:  -5.342 LR: -19.997 RR:   0.000 FEB: -13.435
USER: RMSD 5.722196
USER: SEED 176
USER: STATUS no improvement in best in 14 clusters for 5 generations
USER: GENES 24
USER: genes 0 Translation |==|  0.46155 0.47101 0.54535
USER: genes 1 Rotation |==|  0.58811 0.54825 0.45169 0.98742
USER: genes 2 Torsion [N]-CA--C-[O] |==|  0.77030
USER: genes 3 Torsion [C]-N--CA-[CB] |==|  0.84781
USER: genes 4 Torsion [N]-CA--CB-[CG2] |==|  0.30236
USER: genes 5 Torsion [CA]-CB--CG1-[CD1] |==|  0.00496
USER: genes 6 Torsion [N]-CA--C-[N] |==|  0.49444
USER: genes 7 Torsion [C]-N--CA-[C] |==|  0.73878
USER: genes 8 Torsion [N]-CA--C-[N] |==|  0.93842
USER: genes 9 Torsion [C]-N--CA-[CB] |==|  0.22570
USER: genes 10 Torsion [N]-CA--CB-[CG] |==|  0.77120
USER: genes 11 Torsion [CA]-CB--CG-[ND2] |==|  0.88043
USER: genes 12 Torsion [N]-CA--C-[O] |==|  0.00215
USER: genes 13 Torsion [N]-CA--CB-[CG] |==|  0.83711
USER: genes 14 Torsion [CA]-CB--CG-[CD2] |==|  0.23157
USER: genes 15 Torsion [CE2]-CZ--OH-[HH] |==|  0.88998
USER: genes 16 Torsion [N]-C--CA-[N] |==|  0.37428
USER: genes 17 Torsion [C]-CA--N-[C] |==|  0.59158
USER: genes 18 Torsion [N]-C--CA-[N] |==|  0.22294
USER: genes 19 Torsion [N]-C--CA-[CB] |==|  0.75618
USER: genes 20 Torsion [C]-CA--CB-[CG] |==|  0.36824
USER: genes 21 Torsion [CA]-CB--CG-[CD] |==|  0.85718
USER: genes 22 Torsion [CB]-CG--CD-[NE] |==|  0.40680
USER: genes 23 Torsion [CG]-CD--NE-[CZ] |==|  0.77585
ROOT
ATOM      1  C   ARG B  14     -10.314 -29.190 -10.675  1.00 32.92 LIG 0.24  C 
ATOM      2 O    ARG B  14      -9.782 -30.188 -11.162  1.00 37.82 LIG-0.27  OA
ATOM      3  N   PRO B  15     -10.783 -28.179 -11.412  1.00 31.88 LIG-0.34  N 
ATOM      4  CA  PRO B  15     -10.716 -28.243 -12.874  1.00 30.79 LIG 0.18  C 
ATOM      5  CB  PRO B  15     -11.412 -26.968 -13.305  1.00 31.22 LIG 0.04  C 
ATOM      6  CG  PRO B  15     -12.392 -26.727 -12.201  1.00 29.82 LIG 0.02  C 
ATOM      7  CD  PRO B  15     -11.626 -27.058 -10.962  1.00 31.43 LIG 0.13  C 
ENDROOT
BRANCH 4 8
ATOM      8  C   PRO B  15      -9.276 -28.210 -13.320  1.00 33.68 LIG 0.24  C 
ATOM      9  N   ILE B  16      -8.701 -29.379 -13.527  1.00 35.41 LIG-0.35  N 
ATOM     10 H    ILE B  16      -9.073 -30.138 -13.364  1.00 35.41 LIG 0.16  HD
ATOM     11 O    PRO B  15      -8.684 -27.146 -13.423  1.00 34.05 LIG-0.27  OA
BRANCH 9 12
ATOM     12  CA  ILE B  16      -7.399 -29.460 -14.045  1.00 37.77 LIG 0.18  C 
BRANCH 12 13
ATOM     13  CB  ILE B  16      -7.269 -28.700 -15.355  1.00 42.27 LIG 0.01  C 
ATOM     14  CG2 ILE B  16      -6.449 -27.459 -15.146  1.00 44.80 LIG 0.01  C 
BRANCH 13 15
ATOM     15  CG1 ILE B  16      -6.651 -29.640 -16.405  1.00 47.53 LIG 0.00  C 
ATOM     16  CD1 ILE B  16      -6.363 -31.062 -15.935  1.00 51.74 LIG 0.01  C 
ENDBRANCH 13 15
ENDBRANCH 12 13
BRANCH 12 17
ATOM     17  C   ILE B  16      -6.511 -28.932 -12.964  1.00 42.33 LIG 0.24  C 
ATOM     18 O    ILE B  16      -6.962 -28.561 -11.916  1.00 39.29 LIG-0.27  OA
ATOM     19  N   TYR B  17      -5.221 -28.961 -13.238  1.00 46.96 LIG-0.35  N 
ATOM     20 H    TYR B  17      -4.912 -29.123 -14.024  1.00 46.96 LIG 0.16  HD
BRANCH 19 21
ATOM     21  CA  TYR B  17      -4.198 -28.723 -12.258  1.00 51.19 LIG 0.18  C 
BRANCH 21 22
ATOM     22  C   TYR B  17      -3.802 -27.290 -12.277  1.00 56.10 LIG 0.24  C 
ATOM     23  N   ASN B  18      -4.045 -26.606 -13.378  1.00 65.39 LIG-0.35  N 
ATOM     24 H    ASN B  18      -4.545 -26.885 -14.019  1.00 65.39 LIG 0.16  HD
ATOM     25 O    TYR B  17      -3.341 -26.783 -11.271  1.00 61.36 LIG-0.27  OA
BRANCH 23 26
ATOM     26  CA  ASN B  18      -3.461 -25.272 -13.593  1.00 70.74 LIG 0.17  C 
BRANCH 26 27
ATOM     27  CB  ASN B  18      -2.019 -25.430 -14.098  1.00 84.74 LIG 0.14  C 
BRANCH 27 28
ATOM     28  CG  ASN B  18      -1.019 -25.667 -12.958  1.00 96.34 LIG 0.22  C 
ATOM     29 OD1  ASN B  18      -0.134 -26.531 -13.055  1.00 99.44 LIG-0.27  OA
ATOM     30  ND2 ASN B  18      -1.168 -24.912 -11.863  1.00 94.73 LIG-0.37  N 
ATOM     31 21HD ASN B  18      -0.639 -25.017 -11.193  1.00 94.73 LIG 0.16  HD
ATOM     32 22HD ASN B  18      -1.793 -24.322 -11.828  1.00 94.73 LIG 0.16  HD
ENDBRANCH 27 28
ENDBRANCH 26 27
BRANCH 26 33
ATOM     33  C   ASN B  18      -4.259 -24.257 -14.448  1.00 72.97 LIG 0.22  C 
ATOM     34 O    ASN B  18      -5.366 -24.520 -14.939  1.00 74.17 LIG-0.29  OA
ENDBRANCH 26 33
ENDBRANCH 23 26
ENDBRANCH 21 22
BRANCH 21 35
ATOM     35  CB  TYR B  17      -2.972 -29.530 -12.652  1.00 54.83 LIG 0.07  C 
BRANCH 35 36
ATOM     36  CG  TYR B  17      -3.282 -30.975 -12.734  1.00 56.96 LIG-0.06  A 
ATOM     37  CD2 TYR B  17      -3.851 -31.506 -13.898  1.00 61.26 LIG 0.01  A 
ATOM     38  CE2 TYR B  17      -4.159 -32.844 -13.992  1.00 70.21 LIG 0.04  A 
ATOM     39  CZ  TYR B  17      -3.909 -33.660 -12.902  1.00 76.40 LIG 0.07  A 
ATOM     40  CE1 TYR B  17      -3.353 -33.154 -11.732  1.00 67.10 LIG 0.04  A 
ATOM     41  CD1 TYR B  17      -3.050 -31.807 -11.659  1.00 57.92 LIG 0.01  A 
BRANCH 39 42
ATOM     42 OH   TYR B  17      -4.221 -34.985 -12.989  1.00 89.25 LIG-0.36  OA
ATOM     43 HH   TYR B  17      -4.949 -35.075 -13.398  1.00 89.25 LIG 0.22  HD
ENDBRANCH 39 42
ENDBRANCH 35 36
ENDBRANCH 21 35
ENDBRANCH 19 21
ENDBRANCH 12 17
ENDBRANCH 9 12
ENDBRANCH 4 8
BRANCH 1 44
ATOM     44  CA  ARG B  14     -10.406 -29.065  -9.183  1.00 32.45 LIG 0.18  C 
BRANCH 44 45
ATOM     45  N   ARG B  14     -10.902 -30.359  -8.772  1.00 38.19 LIG-0.35  N 
ATOM     46 H    ARG B  14     -10.631 -31.007  -9.268  1.00 38.19 LIG 0.16  HD
ATOM     47  C   PRO B  13     -11.708 -30.533  -7.721  1.00 38.91 LIG 0.24  C 
ATOM     48 O    PRO B  13     -12.080 -29.623  -7.007  1.00 32.88 LIG-0.27  OA
BRANCH 47 49
ATOM     49  CA  PRO B  13     -12.123 -31.985  -7.411  1.00 38.31 LIG 0.18  C 
ATOM     50  N   PRO B  13     -11.121 -32.743  -6.692  1.00 38.88 LIG-0.34  N 
ATOM     51  CD  PRO B  13     -11.692 -33.412  -5.514  1.00 43.50 LIG 0.13  C 
ATOM     52  C   PRO B  12      -9.836 -32.848  -7.066  1.00 40.77 LIG 0.26  C 
ATOM     53  CG  PRO B  13     -13.163 -33.294  -5.724  1.00 43.53 LIG 0.02  C 
ATOM     54  CB  PRO B  13     -13.330 -32.022  -6.474  1.00 39.91 LIG 0.04  C 
ATOM     55 O    PRO B  12      -9.382 -32.357  -8.110  1.00 44.45 LIG-0.27  OA
BRANCH 52 56
ATOM     56  CA  PRO B  12      -8.913 -33.611  -6.148  1.00 38.46 LIG 0.35  C 
ATOM     57  CB  PRO B  12      -8.347 -32.649  -5.103  1.00 43.42 LIG 0.05  C 
ATOM     58  CG  PRO B  12      -6.935 -33.039  -4.951  1.00 41.12 LIG 0.04  C 
ATOM     59  CD  PRO B  12      -6.505 -33.516  -6.307  1.00 39.74 LIG 0.32  C 
ATOM     60  N   PRO B  12      -7.748 -34.029  -6.888  1.00 38.12 LIG 0.32  N 
ENDBRANCH 52 56
ENDBRANCH 47 49
ENDBRANCH 44 45
BRANCH 44 61
ATOM     61  CB  ARG B  14      -8.995 -28.892  -8.611  1.00 34.42 LIG 0.04  C 
BRANCH 61 62
ATOM     62  CG  ARG B  14      -8.847 -27.759  -7.595  1.00 32.66 LIG 0.02  C 
BRANCH 62 63
ATOM     63  CD  ARG B  14      -9.417 -26.484  -8.182  1.00 35.24 LIG 0.14  C 
BRANCH 63 64
ATOM     64  NE  ARG B  14     -10.041 -25.615  -7.169  1.00 42.22 LIG-0.23  N 
ATOM     65  CZ  ARG B  14     -11.268 -25.756  -6.662  1.00 44.72 LIG 0.67  C 
ATOM     66  NH2 ARG B  14     -12.074 -26.723  -7.057  1.00 43.48 LIG-0.23  N 
ATOM     67  NH1 ARG B  14     -11.699 -24.902  -5.752  1.00 46.51 LIG-0.23  N 
ATOM     68 1HH2 ARG B  14     -11.813 -27.283  -7.656  1.00 43.48 LIG 0.17  HD
ATOM     69 2HH2 ARG B  14     -12.860 -26.795  -6.715  1.00 43.48 LIG 0.17  HD
ATOM     70 2HH1 ARG B  14     -12.489 -24.988  -5.422  1.00 46.51 LIG 0.17  HD
ATOM     71 1HH1 ARG B  14     -11.191 -24.260  -5.490  1.00 46.51 LIG 0.17  HD
ATOM     72 HE   ARG B  14      -9.572 -24.955  -6.878  1.00 42.22 LIG 0.18  HD
ENDBRANCH 63 64
ENDBRANCH 62 63
ENDBRANCH 61 62
ENDBRANCH 44 61
ENDBRANCH 1 44
TORSDOF 22
ENDMDL
MODEL 9
USER: ADFR SOLUTION from run 120
USER: SCORE 23.439113 LL:  -4.338 LR: -19.937 RR:   0.000 FEB: -13.374
USER: RMSD 4.358179
USER: SEED 119
USER: STATUS no improvement in best in 16 clusters for 5 generations
USER: GENES 24
USER: genes 0 Translation |==|  0.45957 0.45897 0.57405
USER: genes 1 Rotation |==|  0.61023 0.49908 0.43045 0.98271
USER: genes 2 Torsion [N]-CA--C-[O] |==|  0.89303
USER: genes 3 Torsion [C]-N--CA-[CB] |==|  0.50000
USER: genes 4 Torsion [N]-CA--CB-[CG2] |==|  0.29792
USER: genes 5 Torsion [CA]-CB--CG1-[CD1] |==|  0.49398
USER: genes 6 Torsion [N]-CA--C-[N] |==|  0.42241
USER: genes 7 Torsion [C]-N--CA-[C] |==|  0.84252
USER: genes 8 Torsion [N]-CA--C-[N] |==|  0.87443
USER: genes 9 Torsion [C]-N--CA-[CB] |==|  0.83318
USER: genes 10 Torsion [N]-CA--CB-[CG] |==|  0.69752
USER: genes 11 Torsion [CA]-CB--CG-[ND2] |==|  0.09036
USER: genes 12 Torsion [N]-CA--C-[O] |==|  0.94804
USER: genes 13 Torsion [N]-CA--CB-[CG] |==|  0.52292
USER: genes 14 Torsion [CA]-CB--CG-[CD2] |==|  0.49044
USER: genes 15 Torsion [CE2]-CZ--OH-[HH] |==|  0.31788
USER: genes 16 Torsion [N]-C--CA-[N] |==|  0.42064
USER: genes 17 Torsion [C]-CA--N-[C] |==|  0.59605
USER: genes 18 Torsion [N]-C--CA-[N] |==|  0.19275
USER: genes 19 Torsion [N]-C--CA-[CB] |==|  0.73981
USER: genes 20 Torsion [C]-CA--CB-[CG] |==|  0.40316
USER: genes 21 Torsion [CA]-CB--CG-[CD] |==|  0.00187
USER: genes 22 Torsion [CB]-CG--CD-[NE] |==|  0.80030
USER: genes 23 Torsion [CG]-CD--NE-[CZ] |==|  0.77880
ROOT
ATOM      1  C   ARG B  14     -10.359 -29.415  -9.878  1.00 32.92 LIG 0.24  C 
ATOM      2 O    ARG B  14      -9.870 -30.450 -10.335  1.00 37.82 LIG-0.27  OA
ATOM      3  N   PRO B  15     -10.556 -28.316 -10.611  1.00 31.88 LIG-0.34  N 
ATOM      4  CA  PRO B  15     -10.226 -28.315 -12.038  1.00 30.79 LIG 0.18  C 
ATOM      5  CB  PRO B  15     -10.669 -26.939 -12.491  1.00 31.22 LIG 0.04  C 
ATOM      6  CG  PRO B  15     -11.801 -26.625 -11.565  1.00 29.82 LIG 0.02  C 
ATOM      7  CD  PRO B  15     -11.326 -27.117 -10.237  1.00 31.43 LIG 0.13  C 
ENDROOT
BRANCH 4 8
ATOM      8  C   PRO B  15      -8.735 -28.450 -12.217  1.00 33.68 LIG 0.24  C 
ATOM      9  N   ILE B  16      -8.333 -29.251 -13.184  1.00 35.41 LIG-0.35  N 
ATOM     10 H    ILE B  16      -8.858 -29.736 -13.664  1.00 35.41 LIG 0.16  HD
ATOM     11 O    PRO B  15      -7.966 -27.880 -11.457  1.00 34.05 LIG-0.27  OA
BRANCH 9 12
ATOM     12  CA  ILE B  16      -6.971 -29.367 -13.505  1.00 37.77 LIG 0.18  C 
BRANCH 12 13
ATOM     13  CB  ILE B  16      -6.746 -30.344 -14.648  1.00 42.27 LIG 0.01  C 
ATOM     14  CG2 ILE B  16      -6.380 -29.594 -15.897  1.00 44.80 LIG 0.01  C 
BRANCH 13 15
ATOM     15  CG1 ILE B  16      -5.655 -31.345 -14.226  1.00 47.53 LIG 0.00  C 
ATOM     16  CD1 ILE B  16      -5.331 -32.440 -15.237  1.00 51.74 LIG 0.01  C 
ENDBRANCH 13 15
ENDBRANCH 12 13
BRANCH 12 17
ATOM     17  C   ILE B  16      -6.520 -27.977 -13.818  1.00 42.33 LIG 0.24  C 
ATOM     18 O    ILE B  16      -7.293 -27.145 -14.204  1.00 39.29 LIG-0.27  OA
ATOM     19  N   TYR B  17      -5.243 -27.739 -13.585  1.00 46.96 LIG-0.35  N 
ATOM     20 H    TYR B  17      -4.674 -28.361 -13.414  1.00 46.96 LIG 0.16  HD
BRANCH 19 21
ATOM     21  CA  TYR B  17      -4.669 -26.423 -13.594  1.00 51.19 LIG 0.18  C 
BRANCH 21 22
ATOM     22  C   TYR B  17      -4.927 -25.768 -14.904  1.00 56.10 LIG 0.24  C 
ATOM     23  N   ASN B  18      -4.725 -26.482 -15.993  1.00 65.39 LIG-0.35  N 
ATOM     24 H    ASN B  18      -4.601 -27.333 -15.995  1.00 65.39 LIG 0.16  HD
ATOM     25 O    TYR B  17      -5.379 -24.638 -14.928  1.00 61.36 LIG-0.27  OA
BRANCH 23 26
ATOM     26  CA  ASN B  18      -4.696 -25.856 -17.325  1.00 70.74 LIG 0.17  C 
BRANCH 26 27
ATOM     27  CB  ASN B  18      -6.047 -25.175 -17.589  1.00 84.74 LIG 0.14  C 
BRANCH 27 28
ATOM     28  CG  ASN B  18      -6.881 -25.911 -18.646  1.00 96.34 LIG 0.22  C 
ATOM     29 OD1  ASN B  18      -7.652 -25.293 -19.396  1.00 99.44 LIG-0.27  OA
ATOM     30  ND2 ASN B  18      -6.744 -27.242 -18.698  1.00 94.73 LIG-0.37  N 
ATOM     31 21HD ASN B  18      -7.199 -27.699 -19.266  1.00 94.73 LIG 0.16  HD
ATOM     32 22HD ASN B  18      -6.200 -27.640 -18.163  1.00 94.73 LIG 0.16  HD
ENDBRANCH 27 28
ENDBRANCH 26 27
BRANCH 26 33
ATOM     33  C   ASN B  18      -3.508 -24.923 -17.665  1.00 72.97 LIG 0.22  C 
ATOM     34 O    ASN B  18      -2.783 -24.418 -16.796  1.00 74.17 LIG-0.29  OA
ENDBRANCH 26 33
ENDBRANCH 23 26
ENDBRANCH 21 22
BRANCH 21 35
ATOM     35  CB  TYR B  17      -3.162 -26.566 -13.457  1.00 54.83 LIG 0.07  C 
BRANCH 35 36
ATOM     36  CG  TYR B  17      -2.512 -25.250 -13.260  1.00 56.96 LIG-0.06  A 
ATOM     37  CD2 TYR B  17      -1.132 -25.174 -13.041  1.00 61.26 LIG 0.01  A 
ATOM     38  CE2 TYR B  17      -0.509 -23.963 -12.843  1.00 70.21 LIG 0.04  A 
ATOM     39  CZ  TYR B  17      -1.279 -22.813 -12.850  1.00 76.40 LIG 0.07  A 
ATOM     40  CE1 TYR B  17      -2.653 -22.864 -13.058  1.00 67.10 LIG 0.04  A 
ATOM     41  CD1 TYR B  17      -3.259 -24.091 -13.256  1.00 57.92 LIG 0.01  A 
BRANCH 39 42
ATOM     42 OH   TYR B  17      -0.665 -21.612 -12.647  1.00 89.25 LIG-0.36  OA
ATOM     43 HH   TYR B  17      -0.722 -21.147 -13.344  1.00 89.25 LIG 0.22  HD
ENDBRANCH 39 42
ENDBRANCH 35 36
ENDBRANCH 21 35
ENDBRANCH 19 21
ENDBRANCH 12 17
ENDBRANCH 9 12
ENDBRANCH 4 8
BRANCH 1 44
ATOM     44  CA  ARG B  14     -10.711 -29.355  -8.421  1.00 32.45 LIG 0.18  C 
BRANCH 44 45
ATOM     45  N   ARG B  14     -11.054 -30.723  -8.107  1.00 38.19 LIG-0.35  N 
ATOM     46 H    ARG B  14     -10.590 -31.304  -8.538  1.00 38.19 LIG 0.16  HD
ATOM     47  C   PRO B  13     -12.004 -31.054  -7.227  1.00 38.91 LIG 0.24  C 
ATOM     48 O    PRO B  13     -12.649 -30.237  -6.602  1.00 32.88 LIG-0.27  OA
BRANCH 47 49
ATOM     49  CA  PRO B  13     -12.223 -32.563  -6.995  1.00 38.31 LIG 0.18  C 
ATOM     50  N   PRO B  13     -11.133 -33.216  -6.302  1.00 38.88 LIG-0.34  N 
ATOM     51  CD  PRO B  13     -11.616 -34.014  -5.166  1.00 43.50 LIG 0.13  C 
ATOM     52  C   PRO B  12      -9.842 -33.131  -6.664  1.00 40.77 LIG 0.26  C 
ATOM     53  CG  PRO B  13     -13.088 -34.083  -5.388  1.00 43.53 LIG 0.02  C 
ATOM     54  CB  PRO B  13     -13.420 -32.808  -6.076  1.00 39.91 LIG 0.04  C 
ATOM     55 O    PRO B  12      -9.453 -32.531  -7.678  1.00 44.45 LIG-0.27  OA
BRANCH 52 56
ATOM     56  CA  PRO B  12      -8.832 -33.809  -5.774  1.00 38.46 LIG 0.35  C 
ATOM     57  CB  PRO B  12      -8.296 -32.791  -4.767  1.00 43.42 LIG 0.05  C 
ATOM     58  CG  PRO B  12      -6.854 -33.076  -4.667  1.00 41.12 LIG 0.04  C 
ATOM     59  CD  PRO B  12      -6.444 -33.545  -6.032  1.00 39.74 LIG 0.32  C 
ATOM     60  N   PRO B  12      -7.669 -34.155  -6.555  1.00 38.12 LIG 0.32  N 
ENDBRANCH 52 56
ENDBRANCH 47 49
ENDBRANCH 44 45
BRANCH 44 61
ATOM     61  CB  ARG B  14      -9.458 -28.981  -7.623  1.00 34.42 LIG 0.04  C 
BRANCH 61 62
ATOM     62  CG  ARG B  14      -9.714 -28.103  -6.398  1.00 32.66 LIG 0.02  C 
BRANCH 62 63
ATOM     63  CD  ARG B  14     -11.200 -27.833  -6.280  1.00 35.24 LIG 0.14  C 
BRANCH 63 64
ATOM     64  NE  ARG B  14     -11.699 -26.905  -7.311  1.00 42.22 LIG-0.23  N 
ATOM     65  CZ  ARG B  14     -11.585 -25.575  -7.292  1.00 44.72 LIG 0.67  C 
ATOM     66  NH2 ARG B  14     -11.005 -24.944  -6.289  1.00 43.48 LIG-0.23  N 
ATOM     67  NH1 ARG B  14     -12.077 -24.865  -8.290  1.00 46.51 LIG-0.23  N 
ATOM     68 1HH2 ARG B  14     -10.688 -25.390  -5.626  1.00 43.48 LIG 0.17  HD
ATOM     69 2HH2 ARG B  14     -10.943 -24.086  -6.300  1.00 43.48 LIG 0.17  HD
ATOM     70 2HH1 ARG B  14     -12.007 -24.007  -8.283  1.00 46.51 LIG 0.17  HD
ATOM     71 1HH1 ARG B  14     -12.467 -25.258  -8.947  1.00 46.51 LIG 0.17  HD
ATOM     72 HE   ARG B  14     -12.101 -27.253  -7.987  1.00 42.22 LIG 0.18  HD
ENDBRANCH 63 64
ENDBRANCH 62 63
ENDBRANCH 61 62
ENDBRANCH 44 61
ENDBRANCH 1 44
TORSDOF 22
ENDMDL
MODEL 10
USER: ADFR SOLUTION from run 194
USER: SCORE 22.978351 LL:  -4.820 LR: -19.771 RR:   0.000 FEB: -13.208
USER: RMSD 5.135603
USER: SEED 193
USER: STATUS no improvement in best in 18 clusters for 5 generations
USER: GENES 24
USER: genes 0 Translation |==|  0.47267 0.45681 0.56614
USER: genes 1 Rotation |==|  0.59788 0.48829 0.43228 0.98549
USER: genes 2 Torsion [N]-CA--C-[O] |==|  0.85535
USER: genes 3 Torsion [C]-N--CA-[CB] |==|  0.16695
USER: genes 4 Torsion [N]-CA--CB-[CG2] |==|  0.12737
USER: genes 5 Torsion [CA]-CB--CG1-[CD1] |==|  0.65054
USER: genes 6 Torsion [N]-CA--C-[N] |==|  0.31971
USER: genes 7 Torsion [C]-N--CA-[C] |==|  0.77694
USER: genes 8 Torsion [N]-CA--C-[N] |==|  0.21111
USER: genes 9 Torsion [C]-N--CA-[CB] |==|  0.44750
USER: genes 10 Torsion [N]-CA--CB-[CG] |==|  0.63800
USER: genes 11 Torsion [CA]-CB--CG-[ND2] |==|  0.39481
USER: genes 12 Torsion [N]-CA--C-[O] |==|  0.32545
USER: genes 13 Torsion [N]-CA--CB-[CG] |==|  0.61652
USER: genes 14 Torsion [CA]-CB--CG-[CD2] |==|  0.32366
USER: genes 15 Torsion [CE2]-CZ--OH-[HH] |==|  0.12461
USER: genes 16 Torsion [N]-C--CA-[N] |==|  0.41311
USER: genes 17 Torsion [C]-CA--N-[C] |==|  0.58899
USER: genes 18 Torsion [N]-C--CA-[N] |==|  0.19390
USER: genes 19 Torsion [N]-C--CA-[CB] |==|  0.75287
USER: genes 20 Torsion [C]-CA--CB-[CG] |==|  0.38765
USER: genes 21 Torsion [CA]-CB--CG-[CD] |==|  0.04607
USER: genes 22 Torsion [CB]-CG--CD-[NE] |==|  0.76849
USER: genes 23 Torsion [CG]-CD--NE-[CZ] |==|  0.76913
ROOT
ATOM      1  C   ARG B  14     -10.064 -29.456 -10.098  1.00 32.92 LIG 0.24  C 
ATOM      2 O    ARG B  14      -9.561 -30.515 -10.477  1.00 37.82 LIG-0.27  OA
ATOM      3  N   PRO B  15     -10.233 -28.399 -10.897  1.00 31.88 LIG-0.34  N 
ATOM      4  CA  PRO B  15      -9.850 -28.478 -12.310  1.00 30.79 LIG 0.18  C 
ATOM      5  CB  PRO B  15     -10.275 -27.130 -12.855  1.00 31.22 LIG 0.04  C 
ATOM      6  CG  PRO B  15     -11.439 -26.764 -11.990  1.00 29.82 LIG 0.02  C 
ATOM      7  CD  PRO B  15     -11.013 -27.182 -10.619  1.00 31.43 LIG 0.13  C 
ENDROOT
BRANCH 4 8
ATOM      8  C   PRO B  15      -8.354 -28.623 -12.426  1.00 33.68 LIG 0.24  C 
ATOM      9  N   ILE B  16      -7.920 -29.659 -13.119  1.00 35.41 LIG-0.35  N 
ATOM     10 H    ILE B  16      -8.428 -30.272 -13.445  1.00 35.41 LIG 0.16  HD
ATOM     11 O    PRO B  15      -7.610 -27.842 -11.854  1.00 34.05 LIG-0.27  OA
BRANCH 9 12
ATOM     12  CA  ILE B  16      -6.551 -29.829 -13.378  1.00 37.77 LIG 0.18  C 
BRANCH 12 13
ATOM     13  CB  ILE B  16      -5.748 -29.948 -12.092  1.00 42.27 LIG 0.01  C 
ATOM     14  CG2 ILE B  16      -6.432 -30.896 -11.149  1.00 44.80 LIG 0.01  C 
BRANCH 13 15
ATOM     15  CG1 ILE B  16      -4.323 -30.405 -12.448  1.00 47.53 LIG 0.00  C 
ATOM     16  CD1 ILE B  16      -3.824 -31.653 -11.726  1.00 51.74 LIG 0.01  C 
ENDBRANCH 13 15
ENDBRANCH 12 13
BRANCH 12 17
ATOM     17  C   ILE B  16      -6.462 -31.043 -14.246  1.00 42.33 LIG 0.24  C 
ATOM     18 O    ILE B  16      -6.824 -32.116 -13.851  1.00 39.29 LIG-0.27  OA
ATOM     19  N   TYR B  17      -6.013 -30.824 -15.468  1.00 46.96 LIG-0.35  N 
ATOM     20 H    TYR B  17      -5.656 -30.080 -15.709  1.00 46.96 LIG 0.16  HD
BRANCH 19 21
ATOM     21  CA  TYR B  17      -6.074 -31.800 -16.519  1.00 51.19 LIG 0.18  C 
BRANCH 21 22
ATOM     22  C   TYR B  17      -4.958 -32.771 -16.372  1.00 56.10 LIG 0.24  C 
ATOM     23  N   ASN B  18      -5.070 -33.690 -15.433  1.00 65.39 LIG-0.35  N 
ATOM     24 H    ASN B  18      -5.797 -33.858 -15.007  1.00 65.39 LIG 0.16  HD
ATOM     25 O    TYR B  17      -4.027 -32.736 -17.156  1.00 61.36 LIG-0.27  OA
BRANCH 23 26
ATOM     26  CA  ASN B  18      -3.921 -34.521 -15.035  1.00 70.74 LIG 0.17  C 
BRANCH 26 27
ATOM     27  CB  ASN B  18      -4.199 -35.135 -13.655  1.00 84.74 LIG 0.14  C 
BRANCH 27 28
ATOM     28  CG  ASN B  18      -3.035 -34.934 -12.676  1.00 96.34 LIG 0.22  C 
ATOM     29 OD1  ASN B  18      -1.857 -35.021 -13.058  1.00 99.44 LIG-0.27  OA
ATOM     30  ND2 ASN B  18      -3.359 -34.681 -11.402  1.00 94.73 LIG-0.37  N 
ATOM     31 21HD ASN B  18      -2.741 -34.573 -10.814  1.00 94.73 LIG 0.16  HD
ATOM     32 22HD ASN B  18      -4.186 -34.627 -11.171  1.00 94.73 LIG 0.16  HD
ENDBRANCH 27 28
ENDBRANCH 26 27
BRANCH 26 33
ATOM     33  C   ASN B  18      -3.406 -35.580 -16.040  1.00 72.97 LIG 0.22  C 
ATOM     34 O    ASN B  18      -2.267 -35.541 -16.528  1.00 74.17 LIG-0.29  OA
ENDBRANCH 26 33
ENDBRANCH 23 26
ENDBRANCH 21 22
BRANCH 21 35
ATOM     35  CB  TYR B  17      -5.867 -31.080 -17.841  1.00 54.83 LIG 0.07  C 
BRANCH 35 36
ATOM     36  CG  TYR B  17      -6.794 -31.584 -18.880  1.00 56.96 LIG-0.06  A 
ATOM     37  CD2 TYR B  17      -7.753 -30.731 -19.438  1.00 61.26 LIG 0.01  A 
ATOM     38  CE2 TYR B  17      -8.633 -31.181 -20.396  1.00 70.21 LIG 0.04  A 
ATOM     39  CZ  TYR B  17      -8.563 -32.507 -20.789  1.00 76.40 LIG 0.07  A 
ATOM     40  CE1 TYR B  17      -7.625 -33.375 -20.243  1.00 67.10 LIG 0.04  A 
ATOM     41  CD1 TYR B  17      -6.749 -32.901 -19.283  1.00 57.92 LIG 0.01  A 
BRANCH 39 42
ATOM     42 OH   TYR B  17      -9.440 -32.957 -21.732  1.00 89.25 LIG-0.36  OA
ATOM     43 HH   TYR B  17      -9.488 -32.401 -22.359  1.00 89.25 LIG 0.22  HD
ENDBRANCH 39 42
ENDBRANCH 35 36
ENDBRANCH 21 35
ENDBRANCH 19 21
ENDBRANCH 12 17
ENDBRANCH 9 12
ENDBRANCH 4 8
BRANCH 1 44
ATOM     44  CA  ARG B  14     -10.468 -29.313  -8.661  1.00 32.45 LIG 0.18  C 
BRANCH 44 45
ATOM     45  N   ARG B  14     -10.888 -30.649  -8.301  1.00 38.19 LIG-0.35  N 
ATOM     46 H    ARG B  14     -10.459 -31.269  -8.714  1.00 38.19 LIG 0.16  HD
ATOM     47  C   PRO B  13     -11.853 -30.897  -7.410  1.00 38.91 LIG 0.24  C 
ATOM     48 O    PRO B  13     -12.449 -30.025  -6.812  1.00 32.88 LIG-0.27  OA
BRANCH 47 49
ATOM     49  CA  PRO B  13     -12.157 -32.383  -7.129  1.00 38.31 LIG 0.18  C 
ATOM     50  N   PRO B  13     -11.108 -33.072  -6.408  1.00 38.88 LIG-0.34  N 
ATOM     51  CD  PRO B  13     -11.640 -33.802  -5.249  1.00 43.50 LIG 0.13  C 
ATOM     52  C   PRO B  12      -9.813 -33.070  -6.765  1.00 40.77 LIG 0.26  C 
ATOM     53  CG  PRO B  13     -13.113 -33.797  -5.477  1.00 43.53 LIG 0.02  C 
ATOM     54  CB  PRO B  13     -13.369 -32.529  -6.209  1.00 39.91 LIG 0.04  C 
ATOM     55 O    PRO B  12      -9.387 -32.527  -7.796  1.00 44.45 LIG-0.27  OA
BRANCH 52 56
ATOM     56  CA  PRO B  12      -8.846 -33.774  -5.846  1.00 38.46 LIG 0.35  C 
ATOM     57  CB  PRO B  12      -8.347 -32.779  -4.797  1.00 43.42 LIG 0.05  C 
ATOM     58  CG  PRO B  12      -6.913 -33.077  -4.641  1.00 41.12 LIG 0.04  C 
ATOM     59  CD  PRO B  12      -6.448 -33.521  -5.997  1.00 39.74 LIG 0.32  C 
ATOM     60  N   PRO B  12      -7.653 -34.112  -6.584  1.00 38.12 LIG 0.32  N 
ENDBRANCH 52 56
ENDBRANCH 47 49
ENDBRANCH 44 45
BRANCH 44 61
ATOM     61  CB  ARG B  14      -9.231 -28.962  -7.828  1.00 34.42 LIG 0.04  C 
BRANCH 61 62
ATOM     62  CG  ARG B  14      -9.465 -27.916  -6.739  1.00 32.66 LIG 0.02  C 
BRANCH 62 63
ATOM     63  CD  ARG B  14     -10.953 -27.783  -6.485  1.00 35.24 LIG 0.14  C 
BRANCH 63 64
ATOM     64  NE  ARG B  14     -11.618 -26.878  -7.439  1.00 42.22 LIG-0.23  N 
ATOM     65  CZ  ARG B  14     -11.674 -25.547  -7.352  1.00 44.72 LIG 0.67  C 
ATOM     66  NH2 ARG B  14     -11.127 -24.896  -6.342  1.00 43.48 LIG-0.23  N 
ATOM     67  NH1 ARG B  14     -12.303 -24.858  -8.285  1.00 46.51 LIG-0.23  N 
ATOM     68 1HH2 ARG B  14     -10.722 -25.330  -5.720  1.00 43.48 LIG 0.17  HD
ATOM     69 2HH2 ARG B  14     -11.176 -24.038  -6.308  1.00 43.48 LIG 0.17  HD
ATOM     70 2HH1 ARG B  14     -12.343 -24.000  -8.234  1.00 46.51 LIG 0.17  HD
ATOM     71 1HH1 ARG B  14     -12.674 -25.266  -8.945  1.00 46.51 LIG 0.17  HD
ATOM     72 HE   ARG B  14     -12.007 -27.241  -8.116  1.00 42.22 LIG 0.18  HD
ENDBRANCH 63 64
ENDBRANCH 62 63
ENDBRANCH 61 62
ENDBRANCH 44 61
ENDBRANCH 1 44
TORSDOF 22
ENDMDL
MODEL 11
USER: ADFR SOLUTION from run 170
USER: SCORE 23.101217 LL:  -4.924 LR: -19.752 RR:   0.000 FEB: -13.190
USER: RMSD 3.778452
USER: SEED 169
USER: STATUS no improvement in best in 17 clusters for 5 generations
USER: GENES 24
USER: genes 0 Translation |==|  0.45958 0.46274 0.57317
USER: genes 1 Rotation |==|  0.60482 0.50430 0.44805 0.98610
USER: genes 2 Torsion [N]-CA--C-[O] |==|  0.88665
USER: genes 3 Torsion [C]-N--CA-[CB] |==|  0.28245
USER: genes 4 Torsion [N]-CA--CB-[CG2] |==|  0.02675
USER: genes 5 Torsion [CA]-CB--CG1-[CD1] |==|  0.71889
USER: genes 6 Torsion [N]-CA--C-[N] |==|  0.33976
USER: genes 7 Torsion [C]-N--CA-[C] |==|  0.86586
USER: genes 8 Torsion [N]-CA--C-[N] |==|  0.35916
USER: genes 9 Torsion [C]-N--CA-[CB] |==|  0.46807
USER: genes 10 Torsion [N]-CA--CB-[CG] |==|  0.60047
USER: genes 11 Torsion [CA]-CB--CG-[ND2] |==|  0.39603
USER: genes 12 Torsion [N]-CA--C-[O] |==|  0.21137
USER: genes 13 Torsion [N]-CA--CB-[CG] |==|  0.94678
USER: genes 14 Torsion [CA]-CB--CG-[CD2] |==|  0.77293
USER: genes 15 Torsion [CE2]-CZ--OH-[HH] |==|  0.11138
USER: genes 16 Torsion [N]-C--CA-[N] |==|  0.39593
USER: genes 17 Torsion [C]-CA--N-[C] |==|  0.57129
USER: genes 18 Torsion [N]-C--CA-[N] |==|  0.21628
USER: genes 19 Torsion [N]-C--CA-[CB] |==|  0.77119
USER: genes 20 Torsion [C]-CA--CB-[CG] |==|  0.16449
USER: genes 21 Torsion [CA]-CB--CG-[CD] |==|  0.28027
USER: genes 22 Torsion [CB]-CG--CD-[NE] |==|  0.71191
USER: genes 23 Torsion [CG]-CD--NE-[CZ] |==|  0.22965
ROOT
ATOM      1  C   ARG B  14     -10.358 -29.345  -9.902  1.00 32.92 LIG 0.24  C 
ATOM      2 O    ARG B  14      -9.797 -30.350 -10.342  1.00 37.82 LIG-0.27  OA
ATOM      3  N   PRO B  15     -10.642 -28.279 -10.656  1.00 31.88 LIG-0.34  N 
ATOM      4  CA  PRO B  15     -10.323 -28.284 -12.086  1.00 30.79 LIG 0.18  C 
ATOM      5  CB  PRO B  15     -10.871 -26.954 -12.564  1.00 31.22 LIG 0.04  C 
ATOM      6  CG  PRO B  15     -12.016 -26.706 -11.635  1.00 29.82 LIG 0.02  C 
ATOM      7  CD  PRO B  15     -11.496 -27.133 -10.301  1.00 31.43 LIG 0.13  C 
ENDROOT
BRANCH 4 8
ATOM      8  C   PRO B  15      -8.827 -28.312 -12.274  1.00 33.68 LIG 0.24  C 
ATOM      9  N   ILE B  16      -8.370 -29.137 -13.197  1.00 35.41 LIG-0.35  N 
ATOM     10 H    ILE B  16      -8.859 -29.690 -13.639  1.00 35.41 LIG 0.16  HD
ATOM     11 O    PRO B  15      -8.101 -27.638 -11.560  1.00 34.05 LIG-0.27  OA
BRANCH 9 12
ATOM     12  CA  ILE B  16      -7.005 -29.164 -13.526  1.00 37.77 LIG 0.18  C 
BRANCH 12 13
ATOM     13  CB  ILE B  16      -6.298 -30.345 -12.881  1.00 42.27 LIG 0.01  C 
ATOM     14  CG2 ILE B  16      -7.307 -31.274 -12.269  1.00 44.80 LIG 0.01  C 
BRANCH 13 15
ATOM     15  CG1 ILE B  16      -5.437 -31.041 -13.951  1.00 47.53 LIG 0.00  C 
ATOM     16  CD1 ILE B  16      -6.023 -32.315 -14.550  1.00 51.74 LIG 0.01  C 
ENDBRANCH 13 15
ENDBRANCH 12 13
BRANCH 12 17
ATOM     17  C   ILE B  16      -6.961 -29.192 -15.020  1.00 42.33 LIG 0.24  C 
ATOM     18 O    ILE B  16      -7.543 -30.036 -15.643  1.00 39.29 LIG-0.27  OA
ATOM     19  N   TYR B  17      -6.290 -28.201 -15.577  1.00 46.96 LIG-0.35  N 
ATOM     20 H    TYR B  17      -5.788 -27.665 -15.129  1.00 46.96 LIG 0.16  HD
BRANCH 19 21
ATOM     21  CA  TYR B  17      -6.325 -27.914 -16.983  1.00 51.19 LIG 0.18  C 
BRANCH 21 22
ATOM     22  C   TYR B  17      -6.105 -29.163 -17.760  1.00 56.10 LIG 0.24  C 
ATOM     23  N   ASN B  18      -6.966 -29.444 -18.719  1.00 65.39 LIG-0.35  N 
ATOM     24 H    ASN B  18      -7.549 -28.890 -19.021  1.00 65.39 LIG 0.16  HD
ATOM     25 O    TYR B  17      -5.116 -29.838 -17.541  1.00 61.36 LIG-0.27  OA
BRANCH 23 26
ATOM     26  CA  ASN B  18      -6.991 -30.769 -19.360  1.00 70.74 LIG 0.17  C 
BRANCH 26 27
ATOM     27  CB  ASN B  18      -8.261 -30.890 -20.215  1.00 84.74 LIG 0.14  C 
BRANCH 27 28
ATOM     28  CG  ASN B  18      -8.854 -32.305 -20.192  1.00 96.34 LIG 0.22  C 
ATOM     29 OD1  ASN B  18      -8.119 -33.305 -20.198  1.00 99.44 LIG-0.27  OA
ATOM     30  ND2 ASN B  18     -10.189 -32.396 -20.185  1.00 94.73 LIG-0.37  N 
ATOM     31 21HD ASN B  18     -10.568 -33.168 -20.184  1.00 94.73 LIG 0.16  HD
ATOM     32 22HD ASN B  18     -10.670 -31.682 -20.181  1.00 94.73 LIG 0.16  HD
ENDBRANCH 27 28
ENDBRANCH 26 27
BRANCH 26 33
ATOM     33  C   ASN B  18      -5.732 -31.225 -20.137  1.00 72.97 LIG 0.22  C 
ATOM     34 O    ASN B  18      -4.704 -31.623 -19.571  1.00 74.17 LIG-0.29  OA
ENDBRANCH 26 33
ENDBRANCH 23 26
ENDBRANCH 21 22
BRANCH 21 35
ATOM     35  CB  TYR B  17      -5.168 -26.982 -17.302  1.00 54.83 LIG 0.07  C 
BRANCH 35 36
ATOM     36  CG  TYR B  17      -4.667 -26.308 -16.083  1.00 56.96 LIG-0.06  A 
ATOM     37  CD2 TYR B  17      -5.322 -25.174 -15.588  1.00 61.26 LIG 0.01  A 
ATOM     38  CE2 TYR B  17      -4.867 -24.525 -14.464  1.00 70.21 LIG 0.04  A 
ATOM     39  CZ  TYR B  17      -3.733 -25.006 -13.834  1.00 76.40 LIG 0.07  A 
ATOM     40  CE1 TYR B  17      -3.061 -26.126 -14.310  1.00 67.10 LIG 0.04  A 
ATOM     41  CD1 TYR B  17      -3.536 -26.765 -15.441  1.00 57.92 LIG 0.01  A 
BRANCH 39 42
ATOM     42 OH   TYR B  17      -3.275 -24.360 -12.723  1.00 89.25 LIG-0.36  OA
ATOM     43 HH   TYR B  17      -3.926 -24.128 -12.246  1.00 89.25 LIG 0.22  HD
ENDBRANCH 39 42
ENDBRANCH 35 36
ENDBRANCH 21 35
ENDBRANCH 19 21
ENDBRANCH 12 17
ENDBRANCH 9 12
ENDBRANCH 4 8
BRANCH 1 44
ATOM     44  CA  ARG B  14     -10.704 -29.279  -8.445  1.00 32.45 LIG 0.18  C 
BRANCH 44 45
ATOM     45  N   ARG B  14     -11.151 -30.622  -8.149  1.00 38.19 LIG-0.35  N 
ATOM     46 H    ARG B  14     -10.821 -31.219  -8.674  1.00 38.19 LIG 0.16  HD
ATOM     47  C   PRO B  13     -11.996 -30.909  -7.155  1.00 38.91 LIG 0.24  C 
ATOM     48 O    PRO B  13     -12.449 -30.071  -6.402  1.00 32.88 LIG-0.27  OA
BRANCH 47 49
ATOM     49  CA  PRO B  13     -12.348 -32.399  -6.967  1.00 38.31 LIG 0.18  C 
ATOM     50  N   PRO B  13     -11.319 -33.167  -6.299  1.00 38.88 LIG-0.34  N 
ATOM     51  CD  PRO B  13     -11.869 -33.952  -5.185  1.00 43.50 LIG 0.13  C 
ATOM     52  C   PRO B  12     -10.027 -33.185  -6.665  1.00 40.77 LIG 0.26  C 
ATOM     53  CG  PRO B  13     -13.342 -33.883  -5.403  1.00 43.53 LIG 0.02  C 
ATOM     54  CB  PRO B  13     -13.560 -32.564  -6.051  1.00 39.91 LIG 0.04  C 
ATOM     55 O    PRO B  12      -9.587 -32.592  -7.662  1.00 44.45 LIG-0.27  OA
BRANCH 52 56
ATOM     56  CA  PRO B  12      -9.079 -33.978  -5.800  1.00 38.46 LIG 0.35  C 
ATOM     57  CB  PRO B  12      -8.670 -33.122  -4.600  1.00 43.42 LIG 0.05  C 
ATOM     58  CG  PRO B  12      -7.234 -33.393  -4.410  1.00 41.12 LIG 0.04  C 
ATOM     59  CD  PRO B  12      -6.688 -33.632  -5.787  1.00 39.74 LIG 0.32  C 
ATOM     60  N   PRO B  12      -7.840 -34.174  -6.512  1.00 38.12 LIG 0.32  N 
ENDBRANCH 52 56
ENDBRANCH 47 49
ENDBRANCH 44 45
BRANCH 44 61
ATOM     61  CB  ARG B  14      -9.425 -29.014  -7.642  1.00 34.42 LIG 0.04  C 
BRANCH 61 62
ATOM     62  CG  ARG B  14      -8.696 -27.721  -8.004  1.00 32.66 LIG 0.02  C 
BRANCH 62 63
ATOM     63  CD  ARG B  14      -9.018 -26.660  -6.971  1.00 35.24 LIG 0.14  C 
BRANCH 63 64
ATOM     64  NE  ARG B  14      -9.991 -25.664  -7.455  1.00 42.22 LIG-0.23  N 
ATOM     65  CZ  ARG B  14     -11.319 -25.803  -7.464  1.00 44.72 LIG 0.67  C 
ATOM     66  NH2 ARG B  14     -11.902 -26.907  -7.036  1.00 43.48 LIG-0.23  N 
ATOM     67  NH1 ARG B  14     -12.074 -24.824  -7.924  1.00 46.51 LIG-0.23  N 
ATOM     68 1HH2 ARG B  14     -11.425 -27.560  -6.742  1.00 43.48 LIG 0.17  HD
ATOM     69 2HH2 ARG B  14     -12.760 -26.973  -7.051  1.00 43.48 LIG 0.17  HD
ATOM     70 2HH1 ARG B  14     -12.930 -24.908  -7.932  1.00 46.51 LIG 0.17  HD
ATOM     71 1HH1 ARG B  14     -11.711 -24.101  -8.216  1.00 46.51 LIG 0.17  HD
ATOM     72 HE   ARG B  14      -9.674 -24.925  -7.761  1.00 42.22 LIG 0.18  HD
ENDBRANCH 63 64
ENDBRANCH 62 63
ENDBRANCH 61 62
ENDBRANCH 44 61
ENDBRANCH 1 44
TORSDOF 22
ENDMDL
MODEL 12
USER: ADFR SOLUTION from run 170
USER: SCORE 22.533928 LL:  -4.346 LR: -19.666 RR:   0.000 FEB: -13.103
USER: RMSD 1.983267
USER: SEED 169
USER: STATUS no improvement in best in 17 clusters for 5 generations
USER: GENES 24
USER: genes 0 Translation |==|  0.46108 0.50218 0.58180
USER: genes 1 Rotation |==|  0.51695 0.50319 0.47550 0.99910
USER: genes 2 Torsion [N]-CA--C-[O] |==|  0.92973
USER: genes 3 Torsion [C]-N--CA-[CB] |==|  0.29427
USER: genes 4 Torsion [N]-CA--CB-[CG2] |==|  0.02184
USER: genes 5 Torsion [CA]-CB--CG1-[CD1] |==|  0.69599
USER: genes 6 Torsion [N]-CA--C-[N] |==|  0.34666
USER: genes 7 Torsion [C]-N--CA-[C] |==|  0.87158
USER: genes 8 Torsion [N]-CA--C-[N] |==|  0.36187
USER: genes 9 Torsion [C]-N--CA-[CB] |==|  0.49220
USER: genes 10 Torsion [N]-CA--CB-[CG] |==|  0.57271
USER: genes 11 Torsion [CA]-CB--CG-[ND2] |==|  0.32268
USER: genes 12 Torsion [N]-CA--C-[O] |==|  0.91375
USER: genes 13 Torsion [N]-CA--CB-[CG] |==|  0.56996
USER: genes 14 Torsion [CA]-CB--CG-[CD2] |==|  0.99449
USER: genes 15 Torsion [CE2]-CZ--OH-[HH] |==|  0.64505
USER: genes 16 Torsion [N]-C--CA-[N] |==|  0.44900
USER: genes 17 Torsion [C]-CA--N-[C] |==|  0.78817
USER: genes 18 Torsion [N]-C--CA-[N] |==|  0.45045
USER: genes 19 Torsion [N]-C--CA-[CB] |==|  0.60307
USER: genes 20 Torsion [C]-CA--CB-[CG] |==|  0.36822
USER: genes 21 Torsion [CA]-CB--CG-[CD] |==|  0.14275
USER: genes 22 Torsion [CB]-CG--CD-[NE] |==|  0.45006
USER: genes 23 Torsion [CG]-CD--NE-[CZ] |==|  0.48964
ROOT
ATOM      1  C   ARG B  14     -10.325 -28.605  -9.663  1.00 32.92 LIG 0.24  C 
ATOM      2 O    ARG B  14      -9.648 -29.632  -9.744  1.00 37.82 LIG-0.27  OA
ATOM      3  N   PRO B  15     -10.720 -27.905 -10.730  1.00 31.88 LIG-0.34  N 
ATOM      4  CA  PRO B  15     -10.385 -28.370 -12.079  1.00 30.79 LIG 0.18  C 
ATOM      5  CB  PRO B  15     -11.075 -27.358 -12.971  1.00 31.22 LIG 0.04  C 
ATOM      6  CG  PRO B  15     -12.252 -26.931 -12.153  1.00 29.82 LIG 0.02  C 
ATOM      7  CD  PRO B  15     -11.702 -26.809 -10.768  1.00 31.43 LIG 0.13  C 
ENDROOT
BRANCH 4 8
ATOM      8  C   PRO B  15      -8.894 -28.296 -12.289  1.00 33.68 LIG 0.24  C 
ATOM      9  N   ILE B  16      -8.381 -29.158 -13.145  1.00 35.41 LIG-0.35  N 
ATOM     10 H    ILE B  16      -8.828 -29.784 -13.531  1.00 35.41 LIG 0.16  HD
ATOM     11 O    PRO B  15      -8.217 -27.507 -11.646  1.00 34.05 LIG-0.27  OA
BRANCH 9 12
ATOM     12  CA  ILE B  16      -7.022 -29.106 -13.493  1.00 37.77 LIG 0.18  C 
BRANCH 12 13
ATOM     13  CB  ILE B  16      -6.233 -30.232 -12.843  1.00 42.27 LIG 0.01  C 
ATOM     14  CG2 ILE B  16      -7.173 -31.189 -12.167  1.00 44.80 LIG 0.01  C 
BRANCH 13 15
ATOM     15  CG1 ILE B  16      -5.379 -30.916 -13.925  1.00 47.53 LIG 0.00  C 
ATOM     16  CD1 ILE B  16      -5.815 -32.321 -14.325  1.00 51.74 LIG 0.01  C 
ENDBRANCH 13 15
ENDBRANCH 12 13
BRANCH 12 17
ATOM     17  C   ILE B  16      -6.996 -29.151 -14.987  1.00 42.33 LIG 0.24  C 
ATOM     18 O    ILE B  16      -7.569 -30.014 -15.592  1.00 39.29 LIG-0.27  OA
ATOM     19  N   TYR B  17      -6.350 -28.156 -15.565  1.00 46.96 LIG-0.35  N 
ATOM     20 H    TYR B  17      -5.853 -27.605 -15.131  1.00 46.96 LIG 0.16  HD
BRANCH 19 21
ATOM     21  CA  TYR B  17      -6.408 -27.887 -16.974  1.00 51.19 LIG 0.18  C 
BRANCH 21 22
ATOM     22  C   TYR B  17      -6.224 -29.150 -17.737  1.00 56.10 LIG 0.24  C 
ATOM     23  N   ASN B  18      -7.097 -29.420 -18.688  1.00 65.39 LIG-0.35  N 
ATOM     24 H    ASN B  18      -7.667 -28.854 -18.994  1.00 65.39 LIG 0.16  HD
ATOM     25 O    TYR B  17      -5.251 -29.847 -17.515  1.00 61.36 LIG-0.27  OA
BRANCH 23 26
ATOM     26  CA  ASN B  18      -7.158 -30.751 -19.315  1.00 70.74 LIG 0.17  C 
BRANCH 26 27
ATOM     27  CB  ASN B  18      -8.312 -30.777 -20.328  1.00 84.74 LIG 0.14  C 
BRANCH 27 28
ATOM     28  CG  ASN B  18      -8.870 -32.189 -20.549  1.00 96.34 LIG 0.22  C 
ATOM     29 OD1  ASN B  18      -8.171 -33.079 -21.059  1.00 99.44 LIG-0.27  OA
ATOM     30  ND2 ASN B  18     -10.142 -32.396 -20.184  1.00 94.73 LIG-0.37  N 
ATOM     31 21HD ASN B  18     -10.502 -33.168 -20.300  1.00 94.73 LIG 0.16  HD
ATOM     32 22HD ASN B  18     -10.598 -31.757 -19.834  1.00 94.73 LIG 0.16  HD
ENDBRANCH 27 28
ENDBRANCH 26 27
BRANCH 26 33
ATOM     33  C   ASN B  18      -5.856 -31.335 -19.914  1.00 72.97 LIG 0.22  C 
ATOM     34 O    ASN B  18      -4.966 -30.623 -20.401  1.00 74.17 LIG-0.29  OA
ENDBRANCH 26 33
ENDBRANCH 23 26
ENDBRANCH 21 22
BRANCH 21 35
ATOM     35  CB  TYR B  17      -5.242 -26.979 -17.329  1.00 54.83 LIG 0.07  C 
BRANCH 35 36
ATOM     36  CG  TYR B  17      -5.529 -26.184 -18.544  1.00 56.96 LIG-0.06  A 
ATOM     37  CD2 TYR B  17      -6.737 -26.361 -19.230  1.00 61.26 LIG 0.01  A 
ATOM     38  CE2 TYR B  17      -7.018 -25.642 -20.369  1.00 70.21 LIG 0.04  A 
ATOM     39  CZ  TYR B  17      -6.073 -24.745 -20.838  1.00 76.40 LIG 0.07  A 
ATOM     40  CE1 TYR B  17      -4.864 -24.559 -20.179  1.00 67.10 LIG 0.04  A 
ATOM     41  CD1 TYR B  17      -4.601 -25.291 -19.035  1.00 57.92 LIG 0.01  A 
BRANCH 39 42
ATOM     42 OH   TYR B  17      -6.347 -24.037 -21.971  1.00 89.25 LIG-0.36  OA
ATOM     43 HH   TYR B  17      -5.714 -24.125 -22.516  1.00 89.25 LIG 0.22  HD
ENDBRANCH 39 42
ENDBRANCH 35 36
ENDBRANCH 21 35
ENDBRANCH 19 21
ENDBRANCH 12 17
ENDBRANCH 9 12
ENDBRANCH 4 8
BRANCH 1 44
ATOM     44  CA  ARG B  14     -10.692 -28.077  -8.308  1.00 32.45 LIG 0.18  C 
BRANCH 44 45
ATOM     45  N   ARG B  14     -10.534 -29.229  -7.450  1.00 38.19 LIG-0.35  N 
ATOM     46 H    ARG B  14      -9.818 -29.210  -6.974  1.00 38.19 LIG 0.16  HD
ATOM     47  C   PRO B  13     -11.417 -30.231  -7.400  1.00 38.91 LIG 0.24  C 
ATOM     48 O    PRO B  13     -12.438 -30.254  -8.058  1.00 32.88 LIG-0.27  OA
BRANCH 47 49
ATOM     49  CA  PRO B  13     -11.102 -31.370  -6.410  1.00 38.31 LIG 0.18  C 
ATOM     50  N   PRO B  13     -12.242 -32.203  -6.090  1.00 38.88 LIG-0.34  N 
ATOM     51  CD  PRO B  13     -11.928 -33.631  -6.244  1.00 43.50 LIG 0.13  C 
ATOM     52  C   PRO B  12     -13.431 -31.736  -5.676  1.00 40.77 LIG 0.26  C 
ATOM     53  CG  PRO B  13     -10.442 -33.651  -6.361  1.00 43.53 LIG 0.02  C 
ATOM     54  CB  PRO B  13     -10.103 -32.359  -7.012  1.00 39.91 LIG 0.04  C 
ATOM     55 O    PRO B  12     -13.660 -30.536  -5.460  1.00 44.45 LIG-0.27  OA
BRANCH 52 56
ATOM     56  CA  PRO B  12     -14.532 -32.746  -5.469  1.00 38.46 LIG 0.35  C 
ATOM     57  CB  PRO B  12     -15.860 -32.130  -5.913  1.00 43.42 LIG 0.05  C 
ATOM     58  CG  PRO B  12     -16.842 -32.578  -4.910  1.00 41.12 LIG 0.04  C 
ATOM     59  CD  PRO B  12     -16.082 -32.662  -3.618  1.00 39.74 LIG 0.32  C 
ATOM     60  N   PRO B  12     -14.717 -32.963  -4.055  1.00 38.12 LIG 0.32  N 
ENDBRANCH 52 56
ENDBRANCH 47 49
ENDBRANCH 44 45
BRANCH 44 61
ATOM     61  CB  ARG B  14      -9.661 -27.024  -7.889  1.00 34.42 LIG 0.04  C 
BRANCH 61 62
ATOM     62  CG  ARG B  14     -10.255 -25.725  -7.343  1.00 32.66 LIG 0.02  C 
BRANCH 62 63
ATOM     63  CD  ARG B  14     -11.255 -26.052  -6.254  1.00 35.24 LIG 0.14  C 
BRANCH 63 64
ATOM     64  NE  ARG B  14     -11.562 -24.898  -5.391  1.00 42.22 LIG-0.23  N 
ATOM     65  CZ  ARG B  14     -12.455 -24.874  -4.399  1.00 44.72 LIG 0.67  C 
ATOM     66  NH2 ARG B  14     -13.191 -25.928  -4.104  1.00 43.48 LIG-0.23  N 
ATOM     67  NH1 ARG B  14     -12.624 -23.766  -3.701  1.00 46.51 LIG-0.23  N 
ATOM     68 1HH2 ARG B  14     -13.102 -26.655  -4.556  1.00 43.48 LIG 0.17  HD
ATOM     69 2HH2 ARG B  14     -13.760 -25.889  -3.461  1.00 43.48 LIG 0.17  HD
ATOM     70 2HH1 ARG B  14     -13.199 -23.744  -3.061  1.00 46.51 LIG 0.17  HD
ATOM     71 1HH1 ARG B  14     -12.161 -23.066  -3.885  1.00 46.51 LIG 0.17  HD
ATOM     72 HE   ARG B  14     -11.124 -24.172  -5.540  1.00 42.22 LIG 0.18  HD
ENDBRANCH 63 64
ENDBRANCH 62 63
ENDBRANCH 61 62
ENDBRANCH 44 61
ENDBRANCH 1 44
TORSDOF 22
ENDMDL
MODEL 13
USER: ADFR SOLUTION from run 178
USER: SCORE 23.376378 LL:  -5.257 LR: -19.661 RR:   0.000 FEB: -13.098
USER: RMSD 4.914096
USER: SEED 177
USER: STATUS no improvement in best in 25 clusters for 5 generations
USER: GENES 24
USER: genes 0 Translation |==|  0.46908 0.46662 0.55062
USER: genes 1 Rotation |==|  0.58018 0.51102 0.45590 0.99143
USER: genes 2 Torsion [N]-CA--C-[O] |==|  0.77444
USER: genes 3 Torsion [C]-N--CA-[CB] |==|  0.19460
USER: genes 4 Torsion [N]-CA--CB-[CG2] |==|  0.34843
USER: genes 5 Torsion [CA]-CB--CG1-[CD1] |==|  0.67072
USER: genes 6 Torsion [N]-CA--C-[N] |==|  0.40370
USER: genes 7 Torsion [C]-N--CA-[C] |==|  0.74116
USER: genes 8 Torsion [N]-CA--C-[N] |==|  0.89923
USER: genes 9 Torsion [C]-N--CA-[CB] |==|  0.69388
USER: genes 10 Torsion [N]-CA--CB-[CG] |==|  0.63327
USER: genes 11 Torsion [CA]-CB--CG-[ND2] |==|  0.64239
USER: genes 12 Torsion [N]-CA--C-[O] |==|  0.63010
USER: genes 13 Torsion [N]-CA--CB-[CG] |==|  0.92171
USER: genes 14 Torsion [CA]-CB--CG-[CD2] |==|  0.25965
USER: genes 15 Torsion [CE2]-CZ--OH-[HH] |==|  0.38591
USER: genes 16 Torsion [N]-C--CA-[N] |==|  0.38278
USER: genes 17 Torsion [C]-CA--N-[C] |==|  0.57306
USER: genes 18 Torsion [N]-C--CA-[N] |==|  0.21757
USER: genes 19 Torsion [N]-C--CA-[CB] |==|  0.74019
USER: genes 20 Torsion [C]-CA--CB-[CG] |==|  0.42849
USER: genes 21 Torsion [CA]-CB--CG-[CD] |==|  0.75063
USER: genes 22 Torsion [CB]-CG--CD-[NE] |==|  0.41479
USER: genes 23 Torsion [CG]-CD--NE-[CZ] |==|  0.82276
ROOT
ATOM      1  C   ARG B  14     -10.145 -29.272 -10.528  1.00 32.92 LIG 0.24  C 
ATOM      2 O    ARG B  14      -9.555 -30.293 -10.886  1.00 37.82 LIG-0.27  OA
ATOM      3  N   PRO B  15     -10.493 -28.296 -11.372  1.00 31.88 LIG-0.34  N 
ATOM      4  CA  PRO B  15     -10.213 -28.428 -12.804  1.00 30.79 LIG 0.18  C 
ATOM      5  CB  PRO B  15     -10.827 -27.174 -13.391  1.00 31.22 LIG 0.04  C 
ATOM      6  CG  PRO B  15     -11.956 -26.879 -12.454  1.00 29.82 LIG 0.02  C 
ATOM      7  CD  PRO B  15     -11.382 -27.154 -11.102  1.00 31.43 LIG 0.13  C 
ENDROOT
BRANCH 4 8
ATOM      8  C   PRO B  15      -8.723 -28.419 -13.036  1.00 33.68 LIG 0.24  C 
ATOM      9  N   ILE B  16      -8.139 -29.597 -13.133  1.00 35.41 LIG-0.35  N 
ATOM     10 H    ILE B  16      -8.539 -30.349 -13.011  1.00 35.41 LIG 0.16  HD
ATOM     11 O    PRO B  15      -8.109 -27.363 -13.072  1.00 34.05 LIG-0.27  OA
BRANCH 9 12
ATOM     12  CA  ILE B  16      -6.776 -29.702 -13.453  1.00 37.77 LIG 0.18  C 
BRANCH 12 13
ATOM     13  CB  ILE B  16      -5.894 -29.217 -12.313  1.00 42.27 LIG 0.01  C 
ATOM     14  CG2 ILE B  16      -4.910 -30.288 -11.937  1.00 44.80 LIG 0.01  C 
BRANCH 13 15
ATOM     15  CG1 ILE B  16      -5.202 -27.915 -12.753  1.00 47.53 LIG 0.00  C 
ATOM     16  CD1 ILE B  16      -3.678 -27.957 -12.804  1.00 51.74 LIG 0.01  C 
ENDBRANCH 13 15
ENDBRANCH 12 13
BRANCH 12 17
ATOM     17  C   ILE B  16      -6.562 -31.142 -13.796  1.00 42.33 LIG 0.24  C 
ATOM     18 O    ILE B  16      -7.198 -32.008 -13.265  1.00 39.29 LIG-0.27  OA
ATOM     19  N   TYR B  17      -5.673 -31.362 -14.746  1.00 46.96 LIG-0.35  N 
ATOM     20 H    TYR B  17      -5.145 -30.753 -15.045  1.00 46.96 LIG 0.16  HD
BRANCH 19 21
ATOM     21  CA  TYR B  17      -5.493 -32.638 -15.381  1.00 51.19 LIG 0.18  C 
BRANCH 21 22
ATOM     22  C   TYR B  17      -4.427 -33.404 -14.683  1.00 56.10 LIG 0.24  C 
ATOM     23  N   ASN B  18      -3.397 -32.727 -14.215  1.00 65.39 LIG-0.35  N 
ATOM     24 H    ASN B  18      -3.371 -31.870 -14.154  1.00 65.39 LIG 0.16  HD
ATOM     25 O    TYR B  17      -4.570 -34.599 -14.503  1.00 61.36 LIG-0.27  OA
BRANCH 23 26
ATOM     26  CA  ASN B  18      -2.179 -33.411 -13.750  1.00 70.74 LIG 0.17  C 
BRANCH 26 27
ATOM     27  CB  ASN B  18      -2.079 -33.275 -12.223  1.00 84.74 LIG 0.14  C 
BRANCH 27 28
ATOM     28  CG  ASN B  18      -0.686 -32.826 -11.762  1.00 96.34 LIG 0.22  C 
ATOM     29 OD1  ASN B  18      -0.133 -31.838 -12.271  1.00 99.44 LIG-0.27  OA
ATOM     30  ND2 ASN B  18      -0.103 -33.562 -10.808  1.00 94.73 LIG-0.37  N 
ATOM     31 21HD ASN B  18       0.682 -33.357 -10.526  1.00 94.73 LIG 0.16  HD
ATOM     32 22HD ASN B  18      -0.515 -34.241 -10.477  1.00 94.73 LIG 0.16  HD
ENDBRANCH 27 28
ENDBRANCH 26 27
BRANCH 26 33
ATOM     33  C   ASN B  18      -1.941 -34.868 -14.212  1.00 72.97 LIG 0.22  C 
ATOM     34 O    ASN B  18      -1.604 -35.772 -13.433  1.00 74.17 LIG-0.29  OA
ENDBRANCH 26 33
ENDBRANCH 23 26
ENDBRANCH 21 22
BRANCH 21 35
ATOM     35  CB  TYR B  17      -5.010 -32.393 -16.800  1.00 54.83 LIG 0.07  C 
BRANCH 35 36
ATOM     36  CG  TYR B  17      -5.489 -31.091 -17.316  1.00 56.96 LIG-0.06  A 
ATOM     37  CD2 TYR B  17      -4.689 -29.949 -17.193  1.00 61.26 LIG 0.01  A 
ATOM     38  CE2 TYR B  17      -5.120 -28.726 -17.654  1.00 70.21 LIG 0.04  A 
ATOM     39  CZ  TYR B  17      -6.375 -28.641 -18.231  1.00 76.40 LIG 0.07  A 
ATOM     40  CE1 TYR B  17      -7.191 -29.759 -18.357  1.00 67.10 LIG 0.04  A 
ATOM     41  CD1 TYR B  17      -6.738 -30.979 -17.889  1.00 57.92 LIG 0.01  A 
BRANCH 39 42
ATOM     42 OH   TYR B  17      -6.808 -27.428 -18.682  1.00 89.25 LIG-0.36  OA
ATOM     43 HH   TYR B  17      -7.203 -27.527 -19.417  1.00 89.25 LIG 0.22  HD
ENDBRANCH 39 42
ENDBRANCH 35 36
ENDBRANCH 21 35
ENDBRANCH 19 21
ENDBRANCH 12 17
ENDBRANCH 9 12
ENDBRANCH 4 8
BRANCH 1 44
ATOM     44  CA  ARG B  14     -10.452 -29.077  -9.073  1.00 32.45 LIG 0.18  C 
BRANCH 44 45
ATOM     45  N   ARG B  14     -10.945 -30.373  -8.663  1.00 38.19 LIG-0.35  N 
ATOM     46 H    ARG B  14     -10.646 -31.023  -9.140  1.00 38.19 LIG 0.16  HD
ATOM     47  C   PRO B  13     -11.786 -30.544  -7.639  1.00 38.91 LIG 0.24  C 
ATOM     48 O    PRO B  13     -12.197 -29.630  -6.953  1.00 32.88 LIG-0.27  OA
BRANCH 47 49
ATOM     49  CA  PRO B  13     -12.192 -31.998  -7.325  1.00 38.31 LIG 0.18  C 
ATOM     50  N   PRO B  13     -11.188 -32.745  -6.597  1.00 38.88 LIG-0.34  N 
ATOM     51  CD  PRO B  13     -11.760 -33.412  -5.419  1.00 43.50 LIG 0.13  C 
ATOM     52  C   PRO B  12      -9.900 -32.842  -6.964  1.00 40.77 LIG 0.26  C 
ATOM     53  CG  PRO B  13     -13.231 -33.307  -5.637  1.00 43.53 LIG 0.02  C 
ATOM     54  CB  PRO B  13     -13.404 -32.040  -6.394  1.00 39.91 LIG 0.04  C 
ATOM     55 O    PRO B  12      -9.445 -32.352  -8.008  1.00 44.45 LIG-0.27  OA
BRANCH 52 56
ATOM     56  CA  PRO B  12      -8.977 -33.593  -6.038  1.00 38.46 LIG 0.35  C 
ATOM     57  CB  PRO B  12      -8.312 -32.598  -5.085  1.00 43.42 LIG 0.05  C 
ATOM     58  CG  PRO B  12      -6.916 -33.055  -4.969  1.00 41.12 LIG 0.04  C 
ATOM     59  CD  PRO B  12      -6.576 -33.642  -6.307  1.00 39.74 LIG 0.32  C 
ATOM     60  N   PRO B  12      -7.870 -34.122  -6.798  1.00 38.12 LIG 0.32  N 
ENDBRANCH 52 56
ENDBRANCH 47 49
ENDBRANCH 44 45
BRANCH 44 61
ATOM     61  CB  ARG B  14      -9.145 -28.804  -8.322  1.00 34.42 LIG 0.04  C 
BRANCH 61 62
ATOM     62  CG  ARG B  14      -9.303 -28.003  -7.029  1.00 32.66 LIG 0.02  C 
BRANCH 62 63
ATOM     63  CD  ARG B  14      -9.193 -26.525  -7.340  1.00 35.24 LIG 0.14  C 
BRANCH 63 64
ATOM     64  NE  ARG B  14      -9.992 -25.686  -6.431  1.00 42.22 LIG-0.23  N 
ATOM     65  CZ  ARG B  14     -11.322 -25.699  -6.316  1.00 44.72 LIG 0.67  C 
ATOM     66  NH2 ARG B  14     -12.074 -26.490  -7.058  1.00 43.48 LIG-0.23  N 
ATOM     67  NH1 ARG B  14     -11.910 -24.892  -5.451  1.00 46.51 LIG-0.23  N 
ATOM     68 1HH2 ARG B  14     -11.709 -27.015  -7.633  1.00 43.48 LIG 0.17  HD
ATOM     69 2HH2 ARG B  14     -12.929 -26.481  -6.965  1.00 43.48 LIG 0.17  HD
ATOM     70 2HH1 ARG B  14     -12.767 -24.896  -5.373  1.00 46.51 LIG 0.17  HD
ATOM     71 1HH1 ARG B  14     -11.437 -24.363  -4.967  1.00 46.51 LIG 0.17  HD
ATOM     72 HE   ARG B  14      -9.563 -25.136  -5.927  1.00 42.22 LIG 0.18  HD
ENDBRANCH 63 64
ENDBRANCH 62 63
ENDBRANCH 61 62
ENDBRANCH 44 61
ENDBRANCH 1 44
TORSDOF 22
ENDMDL
MODEL 14
USER: ADFR SOLUTION from run 5
USER: SCORE 23.893305 LL:  -4.847 LR: -19.544 RR:   0.000 FEB: -12.982
USER: RMSD 4.418068
USER: SEED 118633
USER: STATUS no improvement in best in 33 clusters for 5 generations
USER: GENES 24
USER: genes 0 Translation |==|  0.47892 0.49458 0.58161
USER: genes 1 Rotation |==|  0.51496 0.50634 0.43727 0.99578
USER: genes 2 Torsion [N]-CA--C-[O] |==|  0.97672
USER: genes 3 Torsion [C]-N--CA-[CB] |==|  0.52779
USER: genes 4 Torsion [N]-CA--CB-[CG2] |==|  0.33543
USER: genes 5 Torsion [CA]-CB--CG1-[CD1] |==|  0.00477
USER: genes 6 Torsion [N]-CA--C-[N] |==|  0.39128
USER: genes 7 Torsion [C]-N--CA-[C] |==|  0.80696
USER: genes 8 Torsion [N]-CA--C-[N] |==|  0.40739
USER: genes 9 Torsion [C]-N--CA-[CB] |==|  0.73255
USER: genes 10 Torsion [N]-CA--CB-[CG] |==|  0.72224
USER: genes 11 Torsion [CA]-CB--CG-[ND2] |==|  0.39844
USER: genes 12 Torsion [N]-CA--C-[O] |==|  0.11466
USER: genes 13 Torsion [N]-CA--CB-[CG] |==|  0.41545
USER: genes 14 Torsion [CA]-CB--CG-[CD2] |==|  0.71775
USER: genes 15 Torsion [CE2]-CZ--OH-[HH] |==|  0.73213
USER: genes 16 Torsion [N]-C--CA-[N] |==|  0.45475
USER: genes 17 Torsion [C]-CA--N-[C] |==|  0.79108
USER: genes 18 Torsion [N]-C--CA-[N] |==|  0.47610
USER: genes 19 Torsion [N]-C--CA-[CB] |==|  0.55407
USER: genes 20 Torsion [C]-CA--CB-[CG] |==|  0.43037
USER: genes 21 Torsion [CA]-CB--CG-[CD] |==|  0.95498
USER: genes 22 Torsion [CB]-CG--CD-[NE] |==|  0.50123
USER: genes 23 Torsion [CG]-CD--NE-[CZ] |==|  0.64746
ROOT
ATOM      1  C   ARG B  14      -9.923 -28.748  -9.668  1.00 32.92 LIG 0.24  C 
ATOM      2 O    ARG B  14      -9.412 -29.866  -9.752  1.00 37.82 LIG-0.27  OA
ATOM      3  N   PRO B  15     -10.227 -28.002 -10.735  1.00 31.88 LIG-0.34  N 
ATOM      4  CA  PRO B  15      -9.992 -28.521 -12.085  1.00 30.79 LIG 0.18  C 
ATOM      5  CB  PRO B  15     -10.537 -27.422 -12.974  1.00 31.22 LIG 0.04  C 
ATOM      6  CG  PRO B  15     -11.620 -26.815 -12.139  1.00 29.82 LIG 0.02  C 
ATOM      7  CD  PRO B  15     -11.032 -26.770 -10.766  1.00 31.43 LIG 0.13  C 
ENDROOT
BRANCH 4 8
ATOM      8  C   PRO B  15      -8.512 -28.677 -12.322  1.00 33.68 LIG 0.24  C 
ATOM      9  N   ILE B  16      -8.160 -29.346 -13.402  1.00 35.41 LIG-0.35  N 
ATOM     10 H    ILE B  16      -8.712 -29.742 -13.930  1.00 35.41 LIG 0.16  HD
ATOM     11 O    PRO B  15      -7.707 -28.243 -11.511  1.00 34.05 LIG-0.27  OA
BRANCH 9 12
ATOM     12  CA  ILE B  16      -6.810 -29.458 -13.773  1.00 37.77 LIG 0.18  C 
BRANCH 12 13
ATOM     13  CB  ILE B  16      -6.659 -30.054 -15.164  1.00 42.27 LIG 0.01  C 
ATOM     14  CG2 ILE B  16      -5.930 -29.091 -16.056  1.00 44.80 LIG 0.01  C 
BRANCH 13 15
ATOM     15  CG1 ILE B  16      -5.929 -31.403 -15.038  1.00 47.53 LIG 0.00  C 
ATOM     16  CD1 ILE B  16      -5.576 -31.839 -13.620  1.00 51.74 LIG 0.01  C 
ENDBRANCH 13 15
ENDBRANCH 12 13
BRANCH 12 17
ATOM     17  C   ILE B  16      -6.254 -28.075 -13.659  1.00 42.33 LIG 0.24  C 
ATOM     18 O    ILE B  16      -6.911 -27.115 -13.951  1.00 39.29 LIG-0.27  OA
ATOM     19  N   TYR B  17      -5.030 -28.004 -13.170  1.00 46.96 LIG-0.35  N 
ATOM     20 H    TYR B  17      -4.527 -28.694 -13.065  1.00 46.96 LIG 0.16  HD
BRANCH 19 21
ATOM     21  CA  TYR B  17      -4.410 -26.775 -12.764  1.00 51.19 LIG 0.18  C 
BRANCH 21 22
ATOM     22  C   TYR B  17      -4.123 -25.935 -13.957  1.00 56.10 LIG 0.24  C 
ATOM     23  N   ASN B  18      -4.204 -24.626 -13.815  1.00 65.39 LIG-0.35  N 
ATOM     24 H    ASN B  18      -4.263 -24.227 -13.056  1.00 65.39 LIG 0.16  HD
ATOM     25 O    TYR B  17      -3.757 -26.467 -14.989  1.00 61.36 LIG-0.27  OA
BRANCH 23 26
ATOM     26  CA  ASN B  18      -4.199 -23.729 -14.982  1.00 70.74 LIG 0.17  C 
BRANCH 26 27
ATOM     27  CB  ASN B  18      -2.770 -23.215 -15.214  1.00 84.74 LIG 0.14  C 
BRANCH 27 28
ATOM     28  CG  ASN B  18      -2.556 -21.800 -14.661  1.00 96.34 LIG 0.22  C 
ATOM     29 OD1  ASN B  18      -3.450 -20.944 -14.734  1.00 99.44 LIG-0.27  OA
ATOM     30  ND2 ASN B  18      -1.358 -21.543 -14.120  1.00 94.73 LIG-0.37  N 
ATOM     31 21HD ASN B  18      -1.187 -20.760 -13.808  1.00 94.73 LIG 0.16  HD
ATOM     32 22HD ASN B  18      -0.760 -22.160 -14.086  1.00 94.73 LIG 0.16  HD
ENDBRANCH 27 28
ENDBRANCH 26 27
BRANCH 26 33
ATOM     33  C   ASN B  18      -4.846 -24.235 -16.293  1.00 72.97 LIG 0.22  C 
ATOM     34 O    ASN B  18      -5.910 -24.872 -16.312  1.00 74.17 LIG-0.29  OA
ENDBRANCH 26 33
ENDBRANCH 23 26
ENDBRANCH 21 22
BRANCH 21 35
ATOM     35  CB  TYR B  17      -3.074 -27.110 -12.123  1.00 54.83 LIG 0.07  C 
BRANCH 35 36
ATOM     36  CG  TYR B  17      -2.090 -26.024 -12.329  1.00 56.96 LIG-0.06  A 
ATOM     37  CD2 TYR B  17      -1.101 -26.148 -13.312  1.00 61.26 LIG 0.01  A 
ATOM     38  CE2 TYR B  17      -0.169 -25.156 -13.512  1.00 70.21 LIG 0.04  A 
ATOM     39  CZ  TYR B  17      -0.216 -24.031 -12.708  1.00 76.40 LIG 0.07  A 
ATOM     40  CE1 TYR B  17      -1.183 -23.888 -11.720  1.00 67.10 LIG 0.04  A 
ATOM     41  CD1 TYR B  17      -2.112 -24.896 -11.536  1.00 57.92 LIG 0.01  A 
BRANCH 39 42
ATOM     42 OH   TYR B  17       0.712 -23.049 -12.899  1.00 89.25 LIG-0.36  OA
ATOM     43 HH   TYR B  17       1.343 -23.151 -12.354  1.00 89.25 LIG 0.22  HD
ENDBRANCH 39 42
ENDBRANCH 35 36
ENDBRANCH 21 35
ENDBRANCH 19 21
ENDBRANCH 12 17
ENDBRANCH 9 12
ENDBRANCH 4 8
BRANCH 1 44
ATOM     44  CA  ARG B  14     -10.181 -28.161  -8.312  1.00 32.45 LIG 0.18  C 
BRANCH 44 45
ATOM     45  N   ARG B  14     -10.133 -29.312  -7.439  1.00 38.19 LIG-0.35  N 
ATOM     46 H    ARG B  14      -9.411 -29.365  -6.975  1.00 38.19 LIG 0.16  HD
ATOM     47  C   PRO B  13     -11.119 -30.210  -7.360  1.00 38.91 LIG 0.24  C 
ATOM     48 O    PRO B  13     -12.148 -30.130  -8.001  1.00 32.88 LIG-0.27  OA
BRANCH 47 49
ATOM     49  CA  PRO B  13     -10.913 -31.365  -6.358  1.00 38.31 LIG 0.18  C 
ATOM     50  N   PRO B  13     -12.084 -32.194  -6.168  1.00 38.88 LIG-0.34  N 
ATOM     51  CD  PRO B  13     -11.761 -33.622  -6.308  1.00 43.50 LIG 0.13  C 
ATOM     52  C   PRO B  12     -13.307 -31.726  -5.872  1.00 40.77 LIG 0.26  C 
ATOM     53  CG  PRO B  13     -10.272 -33.650  -6.272  1.00 43.53 LIG 0.02  C 
ATOM     54  CB  PRO B  13      -9.862 -32.351  -6.867  1.00 39.91 LIG 0.04  C 
ATOM     55 O    PRO B  12     -13.551 -30.528  -5.665  1.00 44.45 LIG-0.27  OA
BRANCH 52 56
ATOM     56  CA  PRO B  12     -14.427 -32.732  -5.793  1.00 38.46 LIG 0.35  C 
ATOM     57  CB  PRO B  12     -15.763 -32.000  -5.935  1.00 43.42 LIG 0.05  C 
ATOM     58  CG  PRO B  12     -16.661 -32.652  -4.967  1.00 41.12 LIG 0.04  C 
ATOM     59  CD  PRO B  12     -15.783 -33.059  -3.820  1.00 39.74 LIG 0.32  C 
ATOM     60  N   PRO B  12     -14.482 -33.277  -4.458  1.00 38.12 LIG 0.32  N 
ENDBRANCH 52 56
ENDBRANCH 47 49
ENDBRANCH 44 45
BRANCH 44 61
ATOM     61  CB  ARG B  14      -9.018 -27.234  -7.943  1.00 34.42 LIG 0.04  C 
BRANCH 61 62
ATOM     62  CG  ARG B  14      -9.366 -26.134  -6.940  1.00 32.66 LIG 0.02  C 
BRANCH 62 63
ATOM     63  CD  ARG B  14     -10.872 -25.990  -6.860  1.00 35.24 LIG 0.14  C 
BRANCH 63 64
ATOM     64  NE  ARG B  14     -11.298 -24.939  -5.919  1.00 42.22 LIG-0.23  N 
ATOM     65  CZ  ARG B  14     -12.168 -25.088  -4.917  1.00 44.72 LIG 0.67  C 
ATOM     66  NH2 ARG B  14     -12.765 -26.241  -4.684  1.00 43.48 LIG-0.23  N 
ATOM     67  NH1 ARG B  14     -12.456 -24.056  -4.145  1.00 46.51 LIG-0.23  N 
ATOM     68 1HH2 ARG B  14     -12.597 -26.921  -5.183  1.00 43.48 LIG 0.17  HD
ATOM     69 2HH2 ARG B  14     -13.321 -26.313  -4.032  1.00 43.48 LIG 0.17  HD
ATOM     70 2HH1 ARG B  14     -13.015 -24.146  -3.498  1.00 46.51 LIG 0.17  HD
ATOM     71 1HH1 ARG B  14     -12.084 -23.295  -4.289  1.00 46.51 LIG 0.17  HD
ATOM     72 HE   ARG B  14     -10.956 -24.157  -6.026  1.00 42.22 LIG 0.18  HD
ENDBRANCH 63 64
ENDBRANCH 62 63
ENDBRANCH 61 62
ENDBRANCH 44 61
ENDBRANCH 1 44
TORSDOF 22
ENDMDL
MODEL 15
USER: ADFR SOLUTION from run 192
USER: SCORE 22.097085 LL:  -3.947 LR: -19.521 RR:   0.000 FEB: -12.958
USER: RMSD 6.326140
USER: SEED 191
USER: STATUS searching
USER: GENES 24
USER: genes 0 Translation |==|  0.41084 0.42414 0.65711
USER: genes 1 Rotation |==|  0.71336 0.63978 0.15363 0.75489
USER: genes 2 Torsion [N]-CA--C-[O] |==|  0.16634
USER: genes 3 Torsion [C]-N--CA-[CB] |==|  0.22778
USER: genes 4 Torsion [N]-CA--CB-[CG2] |==|  0.72645
USER: genes 5 Torsion [CA]-CB--CG1-[CD1] |==|  0.69682
USER: genes 6 Torsion [N]-CA--C-[N] |==|  0.52089
USER: genes 7 Torsion [C]-N--CA-[C] |==|  0.75728
USER: genes 8 Torsion [N]-CA--C-[N] |==|  0.34744
USER: genes 9 Torsion [C]-N--CA-[CB] |==|  0.56560
USER: genes 10 Torsion [N]-CA--CB-[CG] |==|  0.83147
USER: genes 11 Torsion [CA]-CB--CG-[ND2] |==|  0.90375
USER: genes 12 Torsion [N]-CA--C-[O] |==|  0.25037
USER: genes 13 Torsion [N]-CA--CB-[CG] |==|  0.72859
USER: genes 14 Torsion [CA]-CB--CG-[CD2] |==|  0.48489
USER: genes 15 Torsion [CE2]-CZ--OH-[HH] |==|  0.75957
USER: genes 16 Torsion [N]-C--CA-[N] |==|  0.48598
USER: genes 17 Torsion [C]-CA--N-[C] |==|  0.72778
USER: genes 18 Torsion [N]-C--CA-[N] |==|  0.21217
USER: genes 19 Torsion [N]-C--CA-[CB] |==|  0.65993
USER: genes 20 Torsion [C]-CA--CB-[CG] |==|  0.49634
USER: genes 21 Torsion [CA]-CB--CG-[CD] |==|  0.82711
USER: genes 22 Torsion [CB]-CG--CD-[NE] |==|  0.52490
USER: genes 23 Torsion [CG]-CD--NE-[CZ] |==|  0.20860
ROOT
ATOM      1  C   ARG B  14     -11.455 -30.068  -7.573  1.00 32.92 LIG 0.24  C 
ATOM      2 O    ARG B  14     -12.449 -30.117  -8.300  1.00 37.82 LIG-0.27  OA
ATOM      3  N   PRO B  15     -10.509 -29.132  -7.691  1.00 31.88 LIG-0.34  N 
ATOM      4  CA  PRO B  15     -10.645 -28.073  -8.695  1.00 30.79 LIG 0.18  C 
ATOM      5  CB  PRO B  15      -9.431 -27.203  -8.441  1.00 31.22 LIG 0.04  C 
ATOM      6  CG  PRO B  15      -9.183 -27.386  -6.977  1.00 29.82 LIG 0.02  C 
ATOM      7  CD  PRO B  15      -9.411 -28.846  -6.753  1.00 31.43 LIG 0.13  C 
ENDROOT
BRANCH 4 8
ATOM      8  C   PRO B  15     -10.560 -28.668 -10.078  1.00 33.68 LIG 0.24  C 
ATOM      9  N   ILE B  16      -9.620 -28.183 -10.867  1.00 35.41 LIG-0.35  N 
ATOM     10 H    ILE B  16      -9.109 -27.521 -10.663  1.00 35.41 LIG 0.16  HD
ATOM     11 O    PRO B  15     -11.367 -29.512 -10.439  1.00 34.05 LIG-0.27  OA
BRANCH 9 12
ATOM     12  CA  ILE B  16      -9.386 -28.737 -12.135  1.00 37.77 LIG 0.18  C 
BRANCH 12 13
ATOM     13  CB  ILE B  16     -10.364 -28.202 -13.169  1.00 42.27 LIG 0.01  C 
ATOM     14  CG2 ILE B  16     -11.484 -29.182 -13.370  1.00 44.80 LIG 0.01  C 
BRANCH 13 15
ATOM     15  CG1 ILE B  16     -10.868 -26.827 -12.697  1.00 47.53 LIG 0.00  C 
ATOM     16  CD1 ILE B  16     -12.320 -26.774 -12.234  1.00 51.74 LIG 0.01  C 
ENDBRANCH 13 15
ENDBRANCH 12 13
BRANCH 12 17
ATOM     17  C   ILE B  16      -7.960 -28.418 -12.447  1.00 42.33 LIG 0.24  C 
ATOM     18 O    ILE B  16      -7.227 -27.966 -11.612  1.00 39.29 LIG-0.27  OA
ATOM     19  N   TYR B  17      -7.577 -28.719 -13.674  1.00 46.96 LIG-0.35  N 
ATOM     20 H    TYR B  17      -8.128 -28.939 -14.296  1.00 46.96 LIG 0.16  HD
BRANCH 19 21
ATOM     21  CA  TYR B  17      -6.205 -28.712 -14.098  1.00 51.19 LIG 0.18  C 
BRANCH 21 22
ATOM     22  C   TYR B  17      -5.825 -27.349 -14.557  1.00 56.10 LIG 0.24  C 
ATOM     23  N   ASN B  18      -4.775 -26.787 -13.991  1.00 65.39 LIG-0.35  N 
ATOM     24 H    ASN B  18      -4.214 -27.206 -13.492  1.00 65.39 LIG 0.16  HD
ATOM     25 O    TYR B  17      -6.438 -26.834 -15.473  1.00 61.36 LIG-0.27  OA
BRANCH 23 26
ATOM     26  CA  ASN B  18      -4.478 -25.358 -14.181  1.00 70.74 LIG 0.17  C 
BRANCH 26 27
ATOM     27  CB  ASN B  18      -2.979 -25.120 -13.942  1.00 84.74 LIG 0.14  C 
BRANCH 27 28
ATOM     28  CG  ASN B  18      -2.542 -25.499 -12.521  1.00 96.34 LIG 0.22  C 
ATOM     29 OD1  ASN B  18      -1.426 -25.998 -12.308  1.00 99.44 LIG-0.27  OA
ATOM     30  ND2 ASN B  18      -3.429 -25.281 -11.542  1.00 94.73 LIG-0.37  N 
ATOM     31 21HD ASN B  18      -3.234 -25.488 -10.731  1.00 94.73 LIG 0.16  HD
ATOM     32 22HD ASN B  18      -4.194 -24.933 -11.724  1.00 94.73 LIG 0.16  HD
ENDBRANCH 27 28
ENDBRANCH 26 27
BRANCH 26 33
ATOM     33  C   ASN B  18      -4.965 -24.679 -15.484  1.00 72.97 LIG 0.22  C 
ATOM     34 O    ASN B  18      -6.074 -24.135 -15.581  1.00 74.17 LIG-0.29  OA
ENDBRANCH 26 33
ENDBRANCH 23 26
ENDBRANCH 21 22
BRANCH 21 35
ATOM     35  CB  TYR B  17      -6.078 -29.637 -15.297  1.00 54.83 LIG 0.07  C 
BRANCH 35 36
ATOM     36  CG  TYR B  17      -5.588 -30.975 -14.896  1.00 56.96 LIG-0.06  A 
ATOM     37  CD2 TYR B  17      -5.512 -32.007 -15.839  1.00 61.26 LIG 0.01  A 
ATOM     38  CE2 TYR B  17      -5.071 -33.261 -15.485  1.00 70.21 LIG 0.04  A 
ATOM     39  CZ  TYR B  17      -4.717 -33.492 -14.167  1.00 76.40 LIG 0.07  A 
ATOM     40  CE1 TYR B  17      -4.792 -32.485 -13.211  1.00 67.10 LIG 0.04  A 
ATOM     41  CD1 TYR B  17      -5.236 -31.231 -13.588  1.00 57.92 LIG 0.01  A 
BRANCH 39 42
ATOM     42 OH   TYR B  17      -4.287 -34.737 -13.812  1.00 89.25 LIG-0.36  OA
ATOM     43 HH   TYR B  17      -4.949 -35.218 -13.620  1.00 89.25 LIG 0.22  HD
ENDBRANCH 39 42
ENDBRANCH 35 36
ENDBRANCH 21 35
ENDBRANCH 19 21
ENDBRANCH 12 17
ENDBRANCH 9 12
ENDBRANCH 4 8
BRANCH 1 44
ATOM     44  CA  ARG B  14     -11.259 -31.130  -6.532  1.00 32.45 LIG 0.18  C 
BRANCH 44 45
ATOM     45  N   ARG B  14     -12.492 -31.882  -6.590  1.00 38.19 LIG-0.35  N 
ATOM     46 H    ARG B  14     -12.511 -32.466  -7.221  1.00 38.19 LIG 0.16  HD
ATOM     47  C   PRO B  13     -13.506 -31.689  -5.742  1.00 38.91 LIG 0.24  C 
ATOM     48 O    PRO B  13     -13.476 -30.877  -4.839  1.00 32.88 LIG-0.27  OA
BRANCH 47 49
ATOM     49  CA  PRO B  13     -14.738 -32.597  -5.933  1.00 38.31 LIG 0.18  C 
ATOM     50  N   PRO B  13     -14.557 -33.945  -5.439  1.00 38.88 LIG-0.34  N 
ATOM     51  CD  PRO B  13     -15.669 -34.353  -4.567  1.00 43.50 LIG 0.13  C 
ATOM     52  C   PRO B  12     -13.521 -34.738  -5.755  1.00 40.77 LIG 0.26  C 
ATOM     53  CG  PRO B  13     -16.705 -33.310  -4.809  1.00 43.53 LIG 0.02  C 
ATOM     54  CB  PRO B  13     -15.929 -32.083  -5.124  1.00 39.91 LIG 0.04  C 
ATOM     55 O    PRO B  12     -12.635 -34.419  -6.563  1.00 44.45 LIG-0.27  OA
BRANCH 52 56
ATOM     56  CA  PRO B  12     -13.453 -36.084  -5.078  1.00 38.46 LIG 0.35  C 
ATOM     57  CB  PRO B  12     -12.123 -36.196  -4.331  1.00 43.42 LIG 0.05  C 
ATOM     58  CG  PRO B  12     -11.674 -37.581  -4.558  1.00 41.12 LIG 0.04  C 
ATOM     59  CD  PRO B  12     -12.160 -37.937  -5.932  1.00 39.74 LIG 0.32  C 
ATOM     60  N   PRO B  12     -13.364 -37.115  -6.083  1.00 38.12 LIG 0.32  N 
ENDBRANCH 52 56
ENDBRANCH 47 49
ENDBRANCH 44 45
BRANCH 44 61
ATOM     61  CB  ARG B  14     -10.116 -32.051  -6.971  1.00 34.42 LIG 0.04  C 
BRANCH 61 62
ATOM     62  CG  ARG B  14      -9.779 -33.170  -5.986  1.00 32.66 LIG 0.02  C 
BRANCH 62 63
ATOM     63  CD  ARG B  14      -9.314 -32.562  -4.679  1.00 35.24 LIG 0.14  C 
BRANCH 63 64
ATOM     64  NE  ARG B  14      -8.769 -33.561  -3.743  1.00 42.22 LIG-0.23  N 
ATOM     65  CZ  ARG B  14      -7.575 -34.153  -3.833  1.00 44.72 LIG 0.67  C 
ATOM     66  NH2 ARG B  14      -6.749 -33.896  -4.829  1.00 43.48 LIG-0.23  N 
ATOM     67  NH1 ARG B  14      -7.212 -35.030  -2.916  1.00 46.51 LIG-0.23  N 
ATOM     68 1HH2 ARG B  14      -6.973 -33.334  -5.440  1.00 43.48 LIG 0.17  HD
ATOM     69 2HH2 ARG B  14      -5.984 -34.289  -4.865  1.00 43.48 LIG 0.17  HD
ATOM     70 2HH1 ARG B  14      -6.444 -35.415  -2.970  1.00 46.51 LIG 0.17  HD
ATOM     71 1HH1 ARG B  14      -7.742 -35.217  -2.266  1.00 46.51 LIG 0.17  HD
ATOM     72 HE   ARG B  14      -9.265 -33.784  -3.076  1.00 42.22 LIG 0.18  HD
ENDBRANCH 63 64
ENDBRANCH 62 63
ENDBRANCH 61 62
ENDBRANCH 44 61
ENDBRANCH 1 44
TORSDOF 22
ENDMDL
MODEL 16
USER: ADFR SOLUTION from run 164
USER: SCORE 22.353097 LL:  -4.979 LR: -19.520 RR:   0.000 FEB: -12.958
USER: RMSD 6.335370
USER: SEED 163
USER: STATUS no improvement in best in 10 clusters for 5 generations
USER: GENES 24
USER: genes 0 Translation |==|  0.48702 0.51169 0.65649
USER: genes 1 Rotation |==|  0.28018 0.70805 0.81376 0.74485
USER: genes 2 Torsion [N]-CA--C-[O] |==|  0.73339
USER: genes 3 Torsion [C]-N--CA-[CB] |==|  0.25542
USER: genes 4 Torsion [N]-CA--CB-[CG2] |==|  0.29677
USER: genes 5 Torsion [CA]-CB--CG1-[CD1] |==|  0.50829
USER: genes 6 Torsion [N]-CA--C-[N] |==|  0.40035
USER: genes 7 Torsion [C]-N--CA-[C] |==|  0.72225
USER: genes 8 Torsion [N]-CA--C-[N] |==|  0.38251
USER: genes 9 Torsion [C]-N--CA-[CB] |==|  0.80733
USER: genes 10 Torsion [N]-CA--CB-[CG] |==|  0.36028
USER: genes 11 Torsion [CA]-CB--CG-[ND2] |==|  0.68140
USER: genes 12 Torsion [N]-CA--C-[O] |==|  0.31333
USER: genes 13 Torsion [N]-CA--CB-[CG] |==|  0.71497
USER: genes 14 Torsion [CA]-CB--CG-[CD2] |==|  0.01774
USER: genes 15 Torsion [CE2]-CZ--OH-[HH] |==|  0.20749
USER: genes 16 Torsion [N]-C--CA-[N] |==|  0.24939
USER: genes 17 Torsion [C]-CA--N-[C] |==|  0.17473
USER: genes 18 Torsion [N]-C--CA-[N] |==|  0.25123
USER: genes 19 Torsion [N]-C--CA-[CB] |==|  0.56603
USER: genes 20 Torsion [C]-CA--CB-[CG] |==|  0.37352
USER: genes 21 Torsion [CA]-CB--CG-[CD] |==|  0.09779
USER: genes 22 Torsion [CB]-CG--CD-[NE] |==|  0.24378
USER: genes 23 Torsion [CG]-CD--NE-[CZ] |==|  0.49284
ROOT
ATOM      1  C   ARG B  14      -9.741 -28.427  -7.590  1.00 32.92 LIG 0.24  C 
ATOM      2 O    ARG B  14      -8.905 -28.071  -8.423  1.00 37.82 LIG-0.27  OA
ATOM      3  N   PRO B  15     -10.094 -29.703  -7.409  1.00 31.88 LIG-0.34  N 
ATOM      4  CA  PRO B  15      -9.450 -30.762  -8.191  1.00 30.79 LIG 0.18  C 
ATOM      5  CB  PRO B  15     -10.067 -32.026  -7.628  1.00 31.22 LIG 0.04  C 
ATOM      6  CG  PRO B  15     -10.371 -31.654  -6.212  1.00 29.82 LIG 0.02  C 
ATOM      7  CD  PRO B  15     -10.901 -30.261  -6.311  1.00 31.43 LIG 0.13  C 
ENDROOT
BRANCH 4 8
ATOM      8  C   PRO B  15      -9.821 -30.620  -9.645  1.00 33.68 LIG 0.24  C 
ATOM      9  N   ILE B  16      -9.138 -29.730 -10.338  1.00 35.41 LIG-0.35  N 
ATOM     10 H    ILE B  16      -8.553 -29.196 -10.000  1.00 35.41 LIG 0.16  HD
ATOM     11 O    PRO B  15     -10.744 -31.268 -10.114  1.00 34.05 LIG-0.27  OA
BRANCH 9 12
ATOM     12  CA  ILE B  16      -9.330 -29.592 -11.722  1.00 37.77 LIG 0.18  C 
BRANCH 12 13
ATOM     13  CB  ILE B  16     -10.384 -28.544 -12.040  1.00 42.27 LIG 0.01  C 
ATOM     14  CG2 ILE B  16      -9.728 -27.308 -12.585  1.00 44.80 LIG 0.01  C 
BRANCH 13 15
ATOM     15  CG1 ILE B  16     -11.395 -29.154 -13.028  1.00 47.53 LIG 0.00  C 
ATOM     16  CD1 ILE B  16     -12.493 -28.216 -13.518  1.00 51.74 LIG 0.01  C 
ENDBRANCH 13 15
ENDBRANCH 12 13
BRANCH 12 17
ATOM     17  C   ILE B  16      -7.981 -29.262 -12.276  1.00 42.33 LIG 0.24  C 
ATOM     18 O    ILE B  16      -7.194 -28.610 -11.647  1.00 39.29 LIG-0.27  OA
ATOM     19  N   TYR B  17      -7.721 -29.782 -13.461  1.00 46.96 LIG-0.35  N 
ATOM     20 H    TYR B  17      -8.322 -30.154 -13.951  1.00 46.96 LIG 0.16  HD
BRANCH 19 21
ATOM     21  CA  TYR B  17      -6.415 -29.782 -14.056  1.00 51.19 LIG 0.18  C 
BRANCH 21 22
ATOM     22  C   TYR B  17      -6.312 -28.683 -15.051  1.00 56.10 LIG 0.24  C 
ATOM     23  N   ASN B  18      -5.198 -27.977 -15.068  1.00 65.39 LIG-0.35  N 
ATOM     24 H    ASN B  18      -4.480 -28.201 -14.652  1.00 65.39 LIG 0.16  HD
ATOM     25 O    TYR B  17      -7.212 -28.517 -15.854  1.00 61.36 LIG-0.27  OA
BRANCH 23 26
ATOM     26  CA  ASN B  18      -5.102 -26.717 -15.823  1.00 70.74 LIG 0.17  C 
BRANCH 26 27
ATOM     27  CB  ASN B  18      -5.135 -27.029 -17.327  1.00 84.74 LIG 0.14  C 
BRANCH 27 28
ATOM     28  CG  ASN B  18      -6.165 -26.178 -18.082  1.00 96.34 LIG 0.22  C 
ATOM     29 OD1  ASN B  18      -6.043 -24.946 -18.156  1.00 99.44 LIG-0.27  OA
ATOM     30  ND2 ASN B  18      -7.197 -26.832 -18.630  1.00 94.73 LIG-0.37  N 
ATOM     31 21HD ASN B  18      -7.806 -26.396 -19.053  1.00 94.73 LIG 0.16  HD
ATOM     32 22HD ASN B  18      -7.251 -27.687 -18.560  1.00 94.73 LIG 0.16  HD
ENDBRANCH 27 28
ENDBRANCH 26 27
BRANCH 26 33
ATOM     33  C   ASN B  18      -6.074 -25.571 -15.454  1.00 72.97 LIG 0.22  C 
ATOM     34 O    ASN B  18      -5.692 -24.508 -14.942  1.00 74.17 LIG-0.29  OA
ENDBRANCH 26 33
ENDBRANCH 23 26
ENDBRANCH 21 22
BRANCH 21 35
ATOM     35  CB  TYR B  17      -6.243 -31.088 -14.814  1.00 54.83 LIG 0.07  C 
BRANCH 35 36
ATOM     36  CG  TYR B  17      -5.402 -32.043 -14.059  1.00 56.96 LIG-0.06  A 
ATOM     37  CD2 TYR B  17      -4.991 -31.739 -12.755  1.00 61.26 LIG 0.01  A 
ATOM     38  CE2 TYR B  17      -4.199 -32.607 -12.039  1.00 70.21 LIG 0.04  A 
ATOM     39  CZ  TYR B  17      -3.798 -33.787 -12.640  1.00 76.40 LIG 0.07  A 
ATOM     40  CE1 TYR B  17      -4.186 -34.107 -13.936  1.00 67.10 LIG 0.04  A 
ATOM     41  CD1 TYR B  17      -4.984 -33.222 -14.637  1.00 57.92 LIG 0.01  A 
BRANCH 39 42
ATOM     42 OH   TYR B  17      -3.006 -34.645 -11.935  1.00 89.25 LIG-0.36  OA
ATOM     43 HH   TYR B  17      -3.467 -35.040 -11.355  1.00 89.25 LIG 0.22  HD
ENDBRANCH 39 42
ENDBRANCH 35 36
ENDBRANCH 21 35
ENDBRANCH 19 21
ENDBRANCH 12 17
ENDBRANCH 9 12
ENDBRANCH 4 8
BRANCH 1 44
ATOM     44  CA  ARG B  14     -10.439 -27.387  -6.766  1.00 32.45 LIG 0.18  C 
BRANCH 44 45
ATOM     45  N   ARG B  14      -9.612 -27.292  -5.584  1.00 38.19 LIG-0.35  N 
ATOM     46 H    ARG B  14     -10.017 -27.519  -4.860  1.00 38.19 LIG 0.16  HD
ATOM     47  C   PRO B  13      -8.339 -26.888  -5.613  1.00 38.91 LIG 0.24  C 
ATOM     48 O    PRO B  13      -7.759 -26.581  -6.636  1.00 32.88 LIG-0.27  OA
BRANCH 47 49
ATOM     49  CA  PRO B  13      -7.597 -26.868  -4.261  1.00 38.31 LIG 0.18  C 
ATOM     50  N   PRO B  13      -6.915 -28.105  -3.947  1.00 38.88 LIG-0.34  N 
ATOM     51  CD  PRO B  13      -5.519 -27.865  -3.552  1.00 43.50 LIG 0.13  C 
ATOM     52  C   PRO B  12      -7.487 -29.319  -3.983  1.00 40.77 LIG 0.26  C 
ATOM     53  CG  PRO B  13      -5.467 -26.394  -3.324  1.00 43.53 LIG 0.02  C 
ATOM     54  CB  PRO B  13      -6.469 -25.837  -4.269  1.00 39.91 LIG 0.04  C 
ATOM     55 O    PRO B  12      -8.689 -29.504  -4.228  1.00 44.45 LIG-0.27  OA
BRANCH 52 56
ATOM     56  CA  PRO B  12      -6.599 -30.506  -3.706  1.00 38.46 LIG 0.35  C 
ATOM     57  CB  PRO B  12      -7.219 -31.749  -4.348  1.00 43.42 LIG 0.05  C 
ATOM     58  CG  PRO B  12      -7.008 -32.829  -3.369  1.00 41.12 LIG 0.04  C 
ATOM     59  CD  PRO B  12      -7.089 -32.169  -2.023  1.00 39.74 LIG 0.32  C 
ATOM     60  N   PRO B  12      -6.631 -30.804  -2.295  1.00 38.12 LIG 0.32  N 
ENDBRANCH 52 56
ENDBRANCH 47 49
ENDBRANCH 44 45
BRANCH 44 61
ATOM     61  CB  ARG B  14     -10.376 -26.044  -7.502  1.00 34.42 LIG 0.04  C 
BRANCH 61 62
ATOM     62  CG  ARG B  14     -11.694 -25.271  -7.542  1.00 32.66 LIG 0.02  C 
BRANCH 62 63
ATOM     63  CD  ARG B  14     -12.445 -25.495  -6.246  1.00 35.24 LIG 0.14  C 
BRANCH 63 64
ATOM     64  NE  ARG B  14     -12.074 -24.533  -5.194  1.00 42.22 LIG-0.23  N 
ATOM     65  CZ  ARG B  14     -12.607 -24.461  -3.972  1.00 44.72 LIG 0.67  C 
ATOM     66  NH2 ARG B  14     -13.573 -25.274  -3.589  1.00 43.48 LIG-0.23  N 
ATOM     67  NH1 ARG B  14     -12.173 -23.547  -3.124  1.00 46.51 LIG-0.23  N 
ATOM     68 1HH2 ARG B  14     -13.875 -25.869  -4.132  1.00 43.48 LIG 0.17  HD
ATOM     69 2HH2 ARG B  14     -13.900 -25.209  -2.796  1.00 43.48 LIG 0.17  HD
ATOM     70 2HH1 ARG B  14     -12.513 -23.495  -2.336  1.00 46.51 LIG 0.17  HD
ATOM     71 1HH1 ARG B  14     -11.551 -23.002  -3.360  1.00 46.51 LIG 0.17  HD
ATOM     72 HE   ARG B  14     -11.457 -23.964  -5.385  1.00 42.22 LIG 0.18  HD
ENDBRANCH 63 64
ENDBRANCH 62 63
ENDBRANCH 61 62
ENDBRANCH 44 61
ENDBRANCH 1 44
TORSDOF 22
ENDMDL
MODEL 17
USER: ADFR SOLUTION from run 8
USER: SCORE 23.426474 LL:  -4.715 LR: -19.496 RR:   0.000 FEB: -12.934
USER: RMSD 6.106857
USER: SEED 74644
USER: STATUS no improvement in best in 20 clusters for 5 generations
USER: GENES 24
USER: genes 0 Translation |==|  0.48194 0.48892 0.58123
USER: genes 1 Rotation |==|  0.51853 0.50089 0.42863 0.99453
USER: genes 2 Torsion [N]-CA--C-[O] |==|  0.95105
USER: genes 3 Torsion [C]-N--CA-[CB] |==|  0.88889
USER: genes 4 Torsion [N]-CA--CB-[CG2] |==|  0.41215
USER: genes 5 Torsion [CA]-CB--CG1-[CD1] |==|  0.96608
USER: genes 6 Torsion [N]-CA--C-[N] |==|  0.41060
USER: genes 7 Torsion [C]-N--CA-[C] |==|  0.77514
USER: genes 8 Torsion [N]-CA--C-[N] |==|  0.46532
USER: genes 9 Torsion [C]-N--CA-[CB] |==|  0.46781
USER: genes 10 Torsion [N]-CA--CB-[CG] |==|  0.71759
USER: genes 11 Torsion [CA]-CB--CG-[ND2] |==|  0.36300
USER: genes 12 Torsion [N]-CA--C-[O] |==|  0.02892
USER: genes 13 Torsion [N]-CA--CB-[CG] |==|  0.24562
USER: genes 14 Torsion [CA]-CB--CG-[CD2] |==|  0.79365
USER: genes 15 Torsion [CE2]-CZ--OH-[HH] |==|  0.36970
USER: genes 16 Torsion [N]-C--CA-[N] |==|  0.46001
USER: genes 17 Torsion [C]-CA--N-[C] |==|  0.78588
USER: genes 18 Torsion [N]-C--CA-[N] |==|  0.47270
USER: genes 19 Torsion [N]-C--CA-[CB] |==|  0.60155
USER: genes 20 Torsion [C]-CA--CB-[CG] |==|  0.40140
USER: genes 21 Torsion [CA]-CB--CG-[CD] |==|  0.01104
USER: genes 22 Torsion [CB]-CG--CD-[NE] |==|  0.48210
USER: genes 23 Torsion [CG]-CD--NE-[CZ] |==|  0.61256
ROOT
ATOM      1  C   ARG B  14      -9.855 -28.854  -9.679  1.00 32.92 LIG 0.24  C 
ATOM      2 O    ARG B  14      -9.382 -29.989  -9.764  1.00 37.82 LIG-0.27  OA
ATOM      3  N   PRO B  15     -10.108 -28.087 -10.743  1.00 31.88 LIG-0.34  N 
ATOM      4  CA  PRO B  15      -9.862 -28.599 -12.094  1.00 30.79 LIG 0.18  C 
ATOM      5  CB  PRO B  15     -10.347 -27.471 -12.981  1.00 31.22 LIG 0.04  C 
ATOM      6  CG  PRO B  15     -11.426 -26.835 -12.164  1.00 29.82 LIG 0.02  C 
ATOM      7  CD  PRO B  15     -10.868 -26.826 -10.777  1.00 31.43 LIG 0.13  C 
ENDROOT
BRANCH 4 8
ATOM      8  C   PRO B  15      -8.382 -28.805 -12.299  1.00 33.68 LIG 0.24  C 
ATOM      9  N   ILE B  16      -8.036 -29.630 -13.269  1.00 35.41 LIG-0.35  N 
ATOM     10 H    ILE B  16      -8.593 -30.092 -13.735  1.00 35.41 LIG 0.16  HD
ATOM     11 O    PRO B  15      -7.574 -28.267 -11.558  1.00 34.05 LIG-0.27  OA
BRANCH 9 12
ATOM     12  CA  ILE B  16      -6.688 -29.811 -13.614  1.00 37.77 LIG 0.18  C 
BRANCH 12 13
ATOM     13  CB  ILE B  16      -5.921 -28.498 -13.583  1.00 42.27 LIG 0.01  C 
ATOM     14  CG2 ILE B  16      -4.494 -28.749 -13.188  1.00 44.80 LIG 0.01  C 
BRANCH 13 15
ATOM     15  CG1 ILE B  16      -6.037 -27.835 -14.967  1.00 47.53 LIG 0.00  C 
ATOM     16  CD1 ILE B  16      -6.593 -28.714 -16.082  1.00 51.74 LIG 0.01  C 
ENDBRANCH 13 15
ENDBRANCH 12 13
BRANCH 12 17
ATOM     17  C   ILE B  16      -6.166 -30.823 -12.645  1.00 42.33 LIG 0.24  C 
ATOM     18 O    ILE B  16      -6.621 -30.918 -11.540  1.00 39.29 LIG-0.27  OA
ATOM     19  N   TYR B  17      -5.224 -31.617 -13.121  1.00 46.96 LIG-0.35  N 
ATOM     20 H    TYR B  17      -4.828 -31.477 -13.871  1.00 46.96 LIG 0.16  HD
BRANCH 19 21
ATOM     21  CA  TYR B  17      -4.763 -32.794 -12.440  1.00 51.19 LIG 0.18  C 
BRANCH 21 22
ATOM     22  C   TYR B  17      -3.781 -32.417 -11.389  1.00 56.10 LIG 0.24  C 
ATOM     23  N   ASN B  18      -3.449 -33.338 -10.506  1.00 65.39 LIG-0.35  N 
ATOM     24 H    ASN B  18      -3.642 -34.172 -10.584  1.00 65.39 LIG 0.16  HD
ATOM     25 O    TYR B  17      -3.268 -31.313 -11.418  1.00 61.36 LIG-0.27  OA
BRANCH 23 26
ATOM     26  CA  ASN B  18      -2.700 -32.995  -9.287  1.00 70.74 LIG 0.17  C 
BRANCH 26 27
ATOM     27  CB  ASN B  18      -2.716 -34.198  -8.331  1.00 84.74 LIG 0.14  C 
BRANCH 27 28
ATOM     28  CG  ASN B  18      -3.732 -34.033  -7.194  1.00 96.34 LIG 0.22  C 
ATOM     29 OD1  ASN B  18      -3.762 -32.999  -6.509  1.00 99.44 LIG-0.27  OA
ATOM     30  ND2 ASN B  18      -4.560 -35.062  -6.975  1.00 94.73 LIG-0.37  N 
ATOM     31 21HD ASN B  18      -5.139 -35.021  -6.341  1.00 94.73 LIG 0.16  HD
ATOM     32 22HD ASN B  18      -4.513 -35.765  -7.469  1.00 94.73 LIG 0.16  HD
ENDBRANCH 27 28
ENDBRANCH 26 27
BRANCH 26 33
ATOM     33  C   ASN B  18      -1.276 -32.410  -9.447  1.00 72.97 LIG 0.22  C 
ATOM     34 O    ASN B  18      -0.820 -32.048 -10.542  1.00 74.17 LIG-0.29  OA
ENDBRANCH 26 33
ENDBRANCH 23 26
ENDBRANCH 21 22
BRANCH 21 35
ATOM     35  CB  TYR B  17      -4.027 -33.662 -13.446  1.00 54.83 LIG 0.07  C 
BRANCH 35 36
ATOM     36  CG  TYR B  17      -2.593 -33.302 -13.521  1.00 56.96 LIG-0.06  A 
ATOM     37  CD2 TYR B  17      -2.196 -32.126 -14.169  1.00 61.26 LIG 0.01  A 
ATOM     38  CE2 TYR B  17      -0.868 -31.779 -14.261  1.00 70.21 LIG 0.04  A 
ATOM     39  CZ  TYR B  17       0.078 -32.626 -13.711  1.00 76.40 LIG 0.07  A 
ATOM     40  CE1 TYR B  17      -0.290 -33.802 -13.070  1.00 67.10 LIG 0.04  A 
ATOM     41  CD1 TYR B  17      -1.631 -34.132 -12.987  1.00 57.92 LIG 0.01  A 
BRANCH 39 42
ATOM     42 OH   TYR B  17       1.396 -32.287 -13.808  1.00 89.25 LIG-0.36  OA
ATOM     43 HH   TYR B  17       1.766 -32.383 -13.060  1.00 89.25 LIG 0.22  HD
ENDBRANCH 39 42
ENDBRANCH 35 36
ENDBRANCH 21 35
ENDBRANCH 19 21
ENDBRANCH 12 17
ENDBRANCH 9 12
ENDBRANCH 4 8
BRANCH 1 44
ATOM     44  CA  ARG B  14     -10.122 -28.273  -8.322  1.00 32.45 LIG 0.18  C 
BRANCH 44 45
ATOM     45  N   ARG B  14     -10.090 -29.429  -7.455  1.00 38.19 LIG-0.35  N 
ATOM     46 H    ARG B  14      -9.361 -29.502  -7.003  1.00 38.19 LIG 0.16  HD
ATOM     47  C   PRO B  13     -11.097 -30.302  -7.363  1.00 38.91 LIG 0.24  C 
ATOM     48 O    PRO B  13     -12.134 -30.193  -7.986  1.00 32.88 LIG-0.27  OA
BRANCH 47 49
ATOM     49  CA  PRO B  13     -10.903 -31.466  -6.370  1.00 38.31 LIG 0.18  C 
ATOM     50  N   PRO B  13     -12.099 -32.249  -6.142  1.00 38.88 LIG-0.34  N 
ATOM     51  CD  PRO B  13     -11.838 -33.688  -6.294  1.00 43.50 LIG 0.13  C 
ATOM     52  C   PRO B  12     -13.292 -31.734  -5.806  1.00 40.77 LIG 0.26  C 
ATOM     53  CG  PRO B  13     -10.350 -33.775  -6.307  1.00 43.53 LIG 0.02  C 
ATOM     54  CB  PRO B  13      -9.910 -32.492  -6.914  1.00 39.91 LIG 0.04  C 
ATOM     55 O    PRO B  12     -13.483 -30.528  -5.590  1.00 44.45 LIG-0.27  OA
BRANCH 52 56
ATOM     56  CA  PRO B  12     -14.449 -32.696  -5.691  1.00 38.46 LIG 0.35  C 
ATOM     57  CB  PRO B  12     -15.716 -32.011  -6.205  1.00 43.42 LIG 0.05  C 
ATOM     58  CG  PRO B  12     -16.780 -32.430  -5.277  1.00 41.12 LIG 0.04  C 
ATOM     59  CD  PRO B  12     -16.110 -32.573  -3.942  1.00 39.74 LIG 0.32  C 
ATOM     60  N   PRO B  12     -14.734 -32.930  -4.296  1.00 38.12 LIG 0.32  N 
ENDBRANCH 52 56
ENDBRANCH 47 49
ENDBRANCH 44 45
BRANCH 44 61
ATOM     61  CB  ARG B  14      -8.957 -27.355  -7.937  1.00 34.42 LIG 0.04  C 
BRANCH 61 62
ATOM     62  CG  ARG B  14      -9.354 -26.116  -7.134  1.00 32.66 LIG 0.02  C 
BRANCH 62 63
ATOM     63  CD  ARG B  14     -10.838 -26.168  -6.836  1.00 35.24 LIG 0.14  C 
BRANCH 63 64
ATOM     64  NE  ARG B  14     -11.281 -25.088  -5.936  1.00 42.22 LIG-0.23  N 
ATOM     65  CZ  ARG B  14     -12.160 -25.209  -4.938  1.00 44.72 LIG 0.67  C 
ATOM     66  NH2 ARG B  14     -12.752 -26.357  -4.671  1.00 43.48 LIG-0.23  N 
ATOM     67  NH1 ARG B  14     -12.462 -24.153  -4.205  1.00 46.51 LIG-0.23  N 
ATOM     68 1HH2 ARG B  14     -12.574 -27.053  -5.145  1.00 43.48 LIG 0.17  HD
ATOM     69 2HH2 ARG B  14     -13.314 -26.410  -4.022  1.00 43.48 LIG 0.17  HD
ATOM     70 2HH1 ARG B  14     -13.027 -24.224  -3.561  1.00 46.51 LIG 0.17  HD
ATOM     71 1HH1 ARG B  14     -12.093 -23.395  -4.371  1.00 46.51 LIG 0.17  HD
ATOM     72 HE   ARG B  14     -10.942 -24.308  -6.066  1.00 42.22 LIG 0.18  HD
ENDBRANCH 63 64
ENDBRANCH 62 63
ENDBRANCH 61 62
ENDBRANCH 44 61
ENDBRANCH 1 44
TORSDOF 22
ENDMDL
MODEL 18
USER: ADFR SOLUTION from run 146
USER: SCORE 23.213794 LL:  -4.699 LR: -19.487 RR:   0.000 FEB: -12.925
USER: RMSD 6.010237
USER: SEED 145
USER: STATUS no improvement in best in 4 clusters for 5 generations
USER: GENES 24
USER: genes 0 Translation |==|  0.46941 0.55023 0.63333
USER: genes 1 Rotation |==|  0.26058 0.55511 0.84734 0.76267
USER: genes 2 Torsion [N]-CA--C-[O] |==|  0.32478
USER: genes 3 Torsion [C]-N--CA-[CB] |==|  0.78866
USER: genes 4 Torsion [N]-CA--CB-[CG2] |==|  0.64131
USER: genes 5 Torsion [CA]-CB--CG1-[CD1] |==|  0.60674
USER: genes 6 Torsion [N]-CA--C-[N] |==|  0.18854
USER: genes 7 Torsion [C]-N--CA-[C] |==|  0.85952
USER: genes 8 Torsion [N]-CA--C-[N] |==|  0.35508
USER: genes 9 Torsion [C]-N--CA-[CB] |==|  0.84020
USER: genes 10 Torsion [N]-CA--CB-[CG] |==|  0.34584
USER: genes 11 Torsion [CA]-CB--CG-[ND2] |==|  0.70392
USER: genes 12 Torsion [N]-CA--C-[O] |==|  0.26408
USER: genes 13 Torsion [N]-CA--CB-[CG] |==|  0.65917
USER: genes 14 Torsion [CA]-CB--CG-[CD2] |==|  0.04569
USER: genes 15 Torsion [CE2]-CZ--OH-[HH] |==|  0.92808
USER: genes 16 Torsion [N]-C--CA-[N] |==|  0.20661
USER: genes 17 Torsion [C]-CA--N-[C] |==|  0.69150
USER: genes 18 Torsion [N]-C--CA-[N] |==|  0.98136
USER: genes 19 Torsion [N]-C--CA-[CB] |==|  0.77986
USER: genes 20 Torsion [C]-CA--CB-[CG] |==|  0.52314
USER: genes 21 Torsion [CA]-CB--CG-[CD] |==|  0.25314
USER: genes 22 Torsion [CB]-CG--CD-[NE] |==|  0.45813
USER: genes 23 Torsion [CG]-CD--NE-[CZ] |==|  0.58223
ROOT
ATOM      1  C   ARG B  14     -10.137 -27.704  -8.233  1.00 32.92 LIG 0.24  C 
ATOM      2 O    ARG B  14      -9.327 -26.817  -8.505  1.00 37.82 LIG-0.27  OA
ATOM      3  N   PRO B  15     -10.018 -28.962  -8.668  1.00 31.88 LIG-0.34  N 
ATOM      4  CA  PRO B  15      -8.859 -29.352  -9.477  1.00 30.79 LIG 0.18  C 
ATOM      5  CB  PRO B  15      -9.070 -30.839  -9.681  1.00 31.22 LIG 0.04  C 
ATOM      6  CG  PRO B  15      -9.812 -31.249  -8.449  1.00 29.82 LIG 0.02  C 
ATOM      7  CD  PRO B  15     -10.788 -30.138  -8.231  1.00 31.43 LIG 0.13  C 
ENDROOT
BRANCH 4 8
ATOM      8  C   PRO B  15      -8.906 -28.647 -10.809  1.00 33.68 LIG 0.24  C 
ATOM      9  N   ILE B  16      -9.901 -28.977 -11.610  1.00 35.41 LIG-0.35  N 
ATOM     10 H    ILE B  16     -10.471 -29.600 -11.445  1.00 35.41 LIG 0.16  HD
ATOM     11 O    PRO B  15      -8.027 -27.859 -11.123  1.00 34.05 LIG-0.27  OA
BRANCH 9 12
ATOM     12  CA  ILE B  16     -10.099 -28.305 -12.827  1.00 37.77 LIG 0.18  C 
BRANCH 12 13
ATOM     13  CB  ILE B  16     -10.718 -26.933 -12.614  1.00 42.27 LIG 0.01  C 
ATOM     14  CG2 ILE B  16     -11.918 -26.771 -13.503  1.00 44.80 LIG 0.01  C 
BRANCH 13 15
ATOM     15  CG1 ILE B  16     -11.070 -26.782 -11.124  1.00 47.53 LIG 0.00  C 
ATOM     16  CD1 ILE B  16     -12.375 -26.056 -10.819  1.00 51.74 LIG 0.01  C 
ENDBRANCH 13 15
ENDBRANCH 12 13
BRANCH 12 17
ATOM     17  C   ILE B  16      -8.751 -28.252 -13.471  1.00 42.33 LIG 0.24  C 
ATOM     18 O    ILE B  16      -8.150 -27.219 -13.570  1.00 39.29 LIG-0.27  OA
ATOM     19  N   TYR B  17      -8.273 -29.419 -13.861  1.00 46.96 LIG-0.35  N 
ATOM     20 H    TYR B  17      -8.748 -30.135 -13.887  1.00 46.96 LIG 0.16  HD
BRANCH 19 21
ATOM     21  CA  TYR B  17      -6.914 -29.617 -14.282  1.00 51.19 LIG 0.18  C 
BRANCH 21 22
ATOM     22  C   TYR B  17      -6.549 -28.602 -15.305  1.00 56.10 LIG 0.24  C 
ATOM     23  N   ASN B  18      -5.452 -27.899 -15.103  1.00 65.39 LIG-0.35  N 
ATOM     24 H    ASN B  18      -4.863 -28.087 -14.506  1.00 65.39 LIG 0.16  HD
ATOM     25 O    TYR B  17      -7.221 -28.504 -16.316  1.00 61.36 LIG-0.27  OA
BRANCH 23 26
ATOM     26  CA  ASN B  18      -5.149 -26.705 -15.908  1.00 70.74 LIG 0.17  C 
BRANCH 26 27
ATOM     27  CB  ASN B  18      -5.110 -27.096 -17.393  1.00 84.74 LIG 0.14  C 
BRANCH 27 28
ATOM     28  CG  ASN B  18      -6.069 -26.258 -18.249  1.00 96.34 LIG 0.22  C 
ATOM     29 OD1  ASN B  18      -5.823 -25.069 -18.504  1.00 99.44 LIG-0.27  OA
ATOM     30  ND2 ASN B  18      -7.178 -26.870 -18.681  1.00 94.73 LIG-0.37  N 
ATOM     31 21HD ASN B  18      -7.751 -26.438 -19.154  1.00 94.73 LIG 0.16  HD
ATOM     32 22HD ASN B  18      -7.318 -27.696 -18.486  1.00 94.73 LIG 0.16  HD
ENDBRANCH 27 28
ENDBRANCH 26 27
BRANCH 26 33
ATOM     33  C   ASN B  18      -6.000 -25.433 -15.673  1.00 72.97 LIG 0.22  C 
ATOM     34 O    ASN B  18      -5.645 -24.521 -14.912  1.00 74.17 LIG-0.29  OA
ENDBRANCH 26 33
ENDBRANCH 23 26
ENDBRANCH 21 22
BRANCH 21 35
ATOM     35  CB  TYR B  17      -6.822 -30.978 -14.951  1.00 54.83 LIG 0.07  C 
BRANCH 35 36
ATOM     36  CG  TYR B  17      -5.817 -31.838 -14.287  1.00 56.96 LIG-0.06  A 
ATOM     37  CD2 TYR B  17      -5.350 -31.513 -13.008  1.00 61.26 LIG 0.01  A 
ATOM     38  CE2 TYR B  17      -4.406 -32.291 -12.378  1.00 70.21 LIG 0.04  A 
ATOM     39  CZ  TYR B  17      -3.912 -33.401 -13.040  1.00 76.40 LIG 0.07  A 
ATOM     40  CE1 TYR B  17      -4.354 -33.739 -14.314  1.00 67.10 LIG 0.04  A 
ATOM     41  CD1 TYR B  17      -5.304 -32.945 -14.929  1.00 57.92 LIG 0.01  A 
BRANCH 39 42
ATOM     42 OH   TYR B  17      -2.970 -34.169 -12.421  1.00 89.25 LIG-0.36  OA
ATOM     43 HH   TYR B  17      -2.548 -33.701 -11.866  1.00 89.25 LIG 0.22  HD
ENDBRANCH 39 42
ENDBRANCH 35 36
ENDBRANCH 21 35
ENDBRANCH 19 21
ENDBRANCH 12 17
ENDBRANCH 9 12
ENDBRANCH 4 8
BRANCH 1 44
ATOM     44  CA  ARG B  14     -11.347 -27.363  -7.415  1.00 32.45 LIG 0.18  C 
BRANCH 44 45
ATOM     45  N   ARG B  14     -11.063 -27.972  -6.135  1.00 38.19 LIG-0.35  N 
ATOM     46 H    ARG B  14     -10.421 -27.592  -5.706  1.00 38.19 LIG 0.16  HD
ATOM     47  C   PRO B  13     -11.733 -29.026  -5.662  1.00 38.91 LIG 0.24  C 
ATOM     48 O    PRO B  13     -12.651 -29.555  -6.257  1.00 32.88 LIG-0.27  OA
BRANCH 47 49
ATOM     49  CA  PRO B  13     -11.314 -29.533  -4.267  1.00 38.31 LIG 0.18  C 
ATOM     50  N   PRO B  13     -10.139 -28.879  -3.732  1.00 38.88 LIG-0.34  N 
ATOM     51  CD  PRO B  13     -10.366 -28.399  -2.361  1.00 43.50 LIG 0.13  C 
ATOM     52  C   PRO B  12      -8.976 -28.748  -4.390  1.00 40.77 LIG 0.26  C 
ATOM     53  CG  PRO B  13     -11.631 -29.077  -1.958  1.00 43.53 LIG 0.02  C 
ATOM     54  CB  PRO B  13     -12.391 -29.228  -3.226  1.00 39.91 LIG 0.04  C 
ATOM     55 O    PRO B  12      -8.763 -29.236  -5.511  1.00 44.45 LIG-0.27  OA
BRANCH 52 56
ATOM     56  CA  PRO B  12      -7.885 -27.961  -3.709  1.00 38.46 LIG 0.35  C 
ATOM     57  CB  PRO B  12      -8.168 -26.467  -3.883  1.00 43.42 LIG 0.05  C 
ATOM     58  CG  PRO B  12      -6.852 -25.858  -4.141  1.00 41.12 LIG 0.04  C 
ATOM     59  CD  PRO B  12      -6.075 -26.893  -4.900  1.00 39.74 LIG 0.32  C 
ATOM     60  N   PRO B  12      -6.645 -28.154  -4.421  1.00 38.12 LIG 0.32  N 
ENDBRANCH 52 56
ENDBRANCH 47 49
ENDBRANCH 44 45
BRANCH 44 61
ATOM     61  CB  ARG B  14     -11.401 -25.844  -7.219  1.00 34.42 LIG 0.04  C 
BRANCH 61 62
ATOM     62  CG  ARG B  14     -12.468 -25.361  -6.237  1.00 32.66 LIG 0.02  C 
BRANCH 62 63
ATOM     63  CD  ARG B  14     -11.869 -25.280  -4.847  1.00 35.24 LIG 0.14  C 
BRANCH 63 64
ATOM     64  NE  ARG B  14     -12.697 -24.501  -3.910  1.00 42.22 LIG-0.23  N 
ATOM     65  CZ  ARG B  14     -12.251 -23.798  -2.867  1.00 44.72 LIG 0.67  C 
ATOM     66  NH2 ARG B  14     -10.969 -23.753  -2.558  1.00 43.48 LIG-0.23  N 
ATOM     67  NH1 ARG B  14     -13.109 -23.139  -2.109  1.00 46.51 LIG-0.23  N 
ATOM     68 1HH2 ARG B  14     -10.397 -24.185  -3.035  1.00 43.48 LIG 0.17  HD
ATOM     69 2HH2 ARG B  14     -10.705 -23.293  -1.881  1.00 43.48 LIG 0.17  HD
ATOM     70 2HH1 ARG B  14     -12.827 -22.685  -1.436  1.00 46.51 LIG 0.17  HD
ATOM     71 1HH1 ARG B  14     -13.949 -23.165  -2.289  1.00 46.51 LIG 0.17  HD
ATOM     72 HE   ARG B  14     -13.546 -24.499  -4.047  1.00 42.22 LIG 0.18  HD
ENDBRANCH 63 64
ENDBRANCH 62 63
ENDBRANCH 61 62
ENDBRANCH 44 61
ENDBRANCH 1 44
TORSDOF 22
ENDMDL
MODEL 19
USER: ADFR SOLUTION from run 181
USER: SCORE 22.254383 LL:  -4.811 LR: -19.427 RR:   0.000 FEB: -12.865
USER: RMSD 12.934887
USER: SEED 180
USER: STATUS no improvement in best in 11 clusters for 5 generations
USER: GENES 24
USER: genes 0 Translation |==|  0.60363 0.47163 0.39223
USER: genes 1 Rotation |==|  0.25763 0.10185 0.34447 0.59243
USER: genes 2 Torsion [N]-CA--C-[O] |==|  0.88539
USER: genes 3 Torsion [C]-N--CA-[CB] |==|  0.31997
USER: genes 4 Torsion [N]-CA--CB-[CG2] |==|  0.62379
USER: genes 5 Torsion [CA]-CB--CG1-[CD1] |==|  0.63524
USER: genes 6 Torsion [N]-CA--C-[N] |==|  0.48988
USER: genes 7 Torsion [C]-N--CA-[C] |==|  0.72777
USER: genes 8 Torsion [N]-CA--C-[N] |==|  0.43758
USER: genes 9 Torsion [C]-N--CA-[CB] |==|  0.45606
USER: genes 10 Torsion [N]-CA--CB-[CG] |==|  0.56532
USER: genes 11 Torsion [CA]-CB--CG-[ND2] |==|  0.77987
USER: genes 12 Torsion [N]-CA--C-[O] |==|  0.35586
USER: genes 13 Torsion [N]-CA--CB-[CG] |==|  0.08364
USER: genes 14 Torsion [CA]-CB--CG-[CD2] |==|  0.23973
USER: genes 15 Torsion [CE2]-CZ--OH-[HH] |==|  0.19523
USER: genes 16 Torsion [N]-C--CA-[N] |==|  0.87810
USER: genes 17 Torsion [C]-CA--N-[C] |==|  0.77778
USER: genes 18 Torsion [N]-C--CA-[N] |==|  0.39082
USER: genes 19 Torsion [N]-C--CA-[CB] |==|  0.50724
USER: genes 20 Torsion [C]-CA--CB-[CG] |==|  0.29541
USER: genes 21 Torsion [CA]-CB--CG-[CD] |==|  0.58004
USER: genes 22 Torsion [CB]-CG--CD-[NE] |==|  0.36265
USER: genes 23 Torsion [CG]-CD--NE-[CZ] |==|  0.55625
ROOT
ATOM      1  C   ARG B  14      -7.117 -29.178 -14.924  1.00 32.92 LIG 0.24  C 
ATOM      2 O    ARG B  14      -8.325 -28.994 -14.762  1.00 37.82 LIG-0.27  OA
ATOM      3  N   PRO B  15      -6.401 -30.026 -14.180  1.00 31.88 LIG-0.34  N 
ATOM      4  CA  PRO B  15      -7.056 -30.822 -13.138  1.00 30.79 LIG 0.18  C 
ATOM      5  CB  PRO B  15      -5.929 -31.684 -12.607  1.00 31.22 LIG 0.04  C 
ATOM      6  CG  PRO B  15      -5.035 -31.844 -13.796  1.00 29.82 LIG 0.02  C 
ATOM      7  CD  PRO B  15      -5.025 -30.487 -14.423  1.00 31.43 LIG 0.13  C 
ENDROOT
BRANCH 4 8
ATOM      8  C   PRO B  15      -7.558 -29.915 -12.043  1.00 33.68 LIG 0.24  C 
ATOM      9  N   ILE B  16      -8.773 -30.161 -11.592  1.00 35.41 LIG-0.35  N 
ATOM     10 H    ILE B  16      -9.303 -30.752 -11.923  1.00 35.41 LIG 0.16  HD
ATOM     11 O    PRO B  15      -6.876 -28.979 -11.653  1.00 34.05 LIG-0.27  OA
BRANCH 9 12
ATOM     12  CA  ILE B  16      -9.296 -29.446 -10.503  1.00 37.77 LIG 0.18  C 
BRANCH 12 13
ATOM     13  CB  ILE B  16     -10.491 -28.599 -10.911  1.00 42.27 LIG 0.01  C 
ATOM     14  CG2 ILE B  16     -10.376 -27.228 -10.308  1.00 44.80 LIG 0.01  C 
BRANCH 13 15
ATOM     15  CG1 ILE B  16     -10.556 -28.557 -12.448  1.00 47.53 LIG 0.00  C 
ATOM     16  CD1 ILE B  16     -10.726 -27.175 -13.069  1.00 51.74 LIG 0.01  C 
ENDBRANCH 13 15
ENDBRANCH 12 13
BRANCH 12 17
ATOM     17  C   ILE B  16      -9.627 -30.480  -9.475  1.00 42.33 LIG 0.24  C 
ATOM     18 O    ILE B  16      -9.448 -31.646  -9.688  1.00 39.29 LIG-0.27  OA
ATOM     19  N   TYR B  17     -10.069 -30.003  -8.327  1.00 46.96 LIG-0.35  N 
ATOM     20 H    TYR B  17     -10.297 -29.181  -8.217  1.00 46.96 LIG 0.16  HD
BRANCH 19 21
ATOM     21  CA  TYR B  17     -10.217 -30.802  -7.143  1.00 51.19 LIG 0.18  C 
BRANCH 21 22
ATOM     22  C   TYR B  17     -11.632 -31.237  -7.000  1.00 56.10 LIG 0.24  C 
ATOM     23  N   ASN B  18     -11.869 -32.309  -6.269  1.00 65.39 LIG-0.35  N 
ATOM     24 H    ASN B  18     -11.289 -32.679  -5.755  1.00 65.39 LIG 0.16  HD
ATOM     25 O    TYR B  17     -12.517 -30.562  -7.492  1.00 61.36 LIG-0.27  OA
BRANCH 23 26
ATOM     26  CA  ASN B  18     -13.185 -32.967  -6.282  1.00 70.74 LIG 0.17  C 
BRANCH 26 27
ATOM     27  CB  ASN B  18     -13.051 -34.371  -5.672  1.00 84.74 LIG 0.14  C 
BRANCH 27 28
ATOM     28  CG  ASN B  18     -14.158 -35.325  -6.141  1.00 96.34 LIG 0.22  C 
ATOM     29 OD1  ASN B  18     -13.949 -36.149  -7.045  1.00 99.44 LIG-0.27  OA
ATOM     30  ND2 ASN B  18     -15.348 -35.204  -5.541  1.00 94.73 LIG-0.37  N 
ATOM     31 21HD ASN B  18     -16.003 -35.709  -5.778  1.00 94.73 LIG 0.16  HD
ATOM     32 22HD ASN B  18     -15.459 -34.621  -4.918  1.00 94.73 LIG 0.16  HD
ENDBRANCH 27 28
ENDBRANCH 26 27
BRANCH 26 33
ATOM     33  C   ASN B  18     -14.390 -32.198  -5.689  1.00 72.97 LIG 0.22  C 
ATOM     34 O    ASN B  18     -15.452 -32.037  -6.308  1.00 74.17 LIG-0.29  OA
ENDBRANCH 26 33
ENDBRANCH 23 26
ENDBRANCH 21 22
BRANCH 21 35
ATOM     35  CB  TYR B  17      -9.897 -29.928  -5.942  1.00 54.83 LIG 0.07  C 
BRANCH 35 36
ATOM     36  CG  TYR B  17     -10.237 -28.510  -6.202  1.00 56.96 LIG-0.06  A 
ATOM     37  CD2 TYR B  17     -11.536 -28.045  -5.963  1.00 61.26 LIG 0.01  A 
ATOM     38  CE2 TYR B  17     -11.878 -26.735  -6.209  1.00 70.21 LIG 0.04  A 
ATOM     39  CZ  TYR B  17     -10.912 -25.882  -6.715  1.00 76.40 LIG 0.07  A 
ATOM     40  CE1 TYR B  17      -9.619 -26.323  -6.968  1.00 67.10 LIG 0.04  A 
ATOM     41  CD1 TYR B  17      -9.295 -27.643  -6.712  1.00 57.92 LIG 0.01  A 
BRANCH 39 42
ATOM     42 OH   TYR B  17     -11.251 -24.585  -6.967  1.00 89.25 LIG-0.36  OA
ATOM     43 HH   TYR B  17     -11.370 -24.180  -6.241  1.00 89.25 LIG 0.22  HD
ENDBRANCH 39 42
ENDBRANCH 35 36
ENDBRANCH 21 35
ENDBRANCH 19 21
ENDBRANCH 12 17
ENDBRANCH 9 12
ENDBRANCH 4 8
BRANCH 1 44
ATOM     44  CA  ARG B  14      -6.392 -28.386 -15.971  1.00 32.45 LIG 0.18  C 
BRANCH 44 45
ATOM     45  N   ARG B  14      -5.196 -27.949 -15.286  1.00 38.19 LIG-0.35  N 
ATOM     46 H    ARG B  14      -4.501 -28.422 -15.466  1.00 38.19 LIG 0.16  HD
ATOM     47  C   PRO B  13      -5.173 -26.906 -14.450  1.00 38.91 LIG 0.24  C 
ATOM     48 O    PRO B  13      -6.148 -26.225 -14.206  1.00 32.88 LIG-0.27  OA
BRANCH 47 49
ATOM     49  CA  PRO B  13      -3.806 -26.564 -13.824  1.00 38.31 LIG 0.18  C 
ATOM     50  N   PRO B  13      -3.547 -25.144 -13.719  1.00 38.88 LIG-0.34  N 
ATOM     51  CD  PRO B  13      -3.108 -24.774 -12.365  1.00 43.50 LIG 0.13  C 
ATOM     52  C   PRO B  12      -3.662 -24.273 -14.735  1.00 40.77 LIG 0.26  C 
ATOM     53  CG  PRO B  13      -2.798 -26.085 -11.727  1.00 43.53 LIG 0.02  C 
ATOM     54  CB  PRO B  13      -3.732 -27.042 -12.374  1.00 39.91 LIG 0.04  C 
ATOM     55 O    PRO B  12      -3.943 -24.607 -15.896  1.00 44.45 LIG-0.27  OA
BRANCH 52 56
ATOM     56  CA  PRO B  12      -3.433 -22.816 -14.421  1.00 38.46 LIG 0.35  C 
ATOM     57  CB  PRO B  12      -3.674 -21.992 -15.687  1.00 43.42 LIG 0.05  C 
ATOM     58  CG  PRO B  12      -2.617 -20.966 -15.681  1.00 41.12 LIG 0.04  C 
ATOM     59  CD  PRO B  12      -1.427 -21.622 -15.044  1.00 39.74 LIG 0.32  C 
ATOM     60  N   PRO B  12      -2.033 -22.606 -14.143  1.00 38.12 LIG 0.32  N 
ENDBRANCH 52 56
ENDBRANCH 47 49
ENDBRANCH 44 45
BRANCH 44 61
ATOM     61  CB  ARG B  14      -5.974 -29.328 -17.105  1.00 34.42 LIG 0.04  C 
BRANCH 61 62
ATOM     62  CG  ARG B  14      -6.789 -29.187 -18.390  1.00 32.66 LIG 0.02  C 
BRANCH 62 63
ATOM     63  CD  ARG B  14      -6.814 -30.518 -19.115  1.00 35.24 LIG 0.14  C 
BRANCH 63 64
ATOM     64  NE  ARG B  14      -8.171 -30.928 -19.515  1.00 42.22 LIG-0.23  N 
ATOM     65  CZ  ARG B  14      -8.561 -32.170 -19.811  1.00 44.72 LIG 0.67  C 
ATOM     66  NH2 ARG B  14      -7.718 -33.185 -19.789  1.00 43.48 LIG-0.23  N 
ATOM     67  NH1 ARG B  14      -9.817 -32.396 -20.151  1.00 46.51 LIG-0.23  N 
ATOM     68 1HH2 ARG B  14      -6.894 -33.054 -19.580  1.00 43.48 LIG 0.17  HD
ATOM     69 2HH2 ARG B  14      -7.993 -33.976 -19.983  1.00 43.48 LIG 0.17  HD
ATOM     70 2HH1 ARG B  14     -10.074 -33.194 -20.343  1.00 46.51 LIG 0.17  HD
ATOM     71 1HH1 ARG B  14     -10.378 -31.745 -20.180  1.00 46.51 LIG 0.17  HD
ATOM     72 HE   ARG B  14      -8.768 -30.310 -19.562  1.00 42.22 LIG 0.18  HD
ENDBRANCH 63 64
ENDBRANCH 62 63
ENDBRANCH 61 62
ENDBRANCH 44 61
ENDBRANCH 1 44
TORSDOF 22
ENDMDL
MODEL 20
USER: ADFR SOLUTION from run 5
USER: SCORE 23.061411 LL:  -4.307 LR: -19.405 RR:   0.000 FEB: -12.842
USER: RMSD 5.680632
USER: SEED 118633
USER: STATUS no improvement in best in 33 clusters for 5 generations
USER: GENES 24
USER: genes 0 Translation |==|  0.47329 0.49898 0.57881
USER: genes 1 Rotation |==|  0.50916 0.52300 0.46039 0.99781
USER: genes 2 Torsion [N]-CA--C-[O] |==|  0.02206
USER: genes 3 Torsion [C]-N--CA-[CB] |==|  0.88880
USER: genes 4 Torsion [N]-CA--CB-[CG2] |==|  0.33812
USER: genes 5 Torsion [CA]-CB--CG1-[CD1] |==|  0.55786
USER: genes 6 Torsion [N]-CA--C-[N] |==|  0.38644
USER: genes 7 Torsion [C]-N--CA-[C] |==|  0.73236
USER: genes 8 Torsion [N]-CA--C-[N] |==|  0.39048
USER: genes 9 Torsion [C]-N--CA-[CB] |==|  0.28537
USER: genes 10 Torsion [N]-CA--CB-[CG] |==|  0.36728
USER: genes 11 Torsion [CA]-CB--CG-[ND2] |==|  0.78757
USER: genes 12 Torsion [N]-CA--C-[O] |==|  0.02811
USER: genes 13 Torsion [N]-CA--CB-[CG] |==|  0.45812
USER: genes 14 Torsion [CA]-CB--CG-[CD2] |==|  0.64256
USER: genes 15 Torsion [CE2]-CZ--OH-[HH] |==|  0.06032
USER: genes 16 Torsion [N]-C--CA-[N] |==|  0.43889
USER: genes 17 Torsion [C]-CA--N-[C] |==|  0.79362
USER: genes 18 Torsion [N]-C--CA-[N] |==|  0.47741
USER: genes 19 Torsion [N]-C--CA-[CB] |==|  0.54788
USER: genes 20 Torsion [C]-CA--CB-[CG] |==|  0.42963
USER: genes 21 Torsion [CA]-CB--CG-[CD] |==|  0.95565
USER: genes 22 Torsion [CB]-CG--CD-[NE] |==|  0.49600
USER: genes 23 Torsion [CG]-CD--NE-[CZ] |==|  0.64989
ROOT
ATOM      1  C   ARG B  14     -10.050 -28.665  -9.746  1.00 32.92 LIG 0.24  C 
ATOM      2 O    ARG B  14      -9.441 -29.731  -9.851  1.00 37.82 LIG-0.27  OA
ATOM      3  N   PRO B  15     -10.492 -27.970 -10.797  1.00 31.88 LIG-0.34  N 
ATOM      4  CA  PRO B  15     -10.298 -28.487 -12.155  1.00 30.79 LIG 0.18  C 
ATOM      5  CB  PRO B  15     -11.002 -27.459 -13.017  1.00 31.22 LIG 0.04  C 
ATOM      6  CG  PRO B  15     -12.080 -26.943 -12.118  1.00 29.82 LIG 0.02  C 
ATOM      7  CD  PRO B  15     -11.411 -26.819 -10.788  1.00 31.43 LIG 0.13  C 
ENDROOT
BRANCH 4 8
ATOM      8  C   PRO B  15      -8.828 -28.506 -12.488  1.00 33.68 LIG 0.24  C 
ATOM      9  N   ILE B  16      -8.512 -28.853 -13.721  1.00 35.41 LIG-0.35  N 
ATOM     10 H    ILE B  16      -9.079 -29.122 -14.310  1.00 35.41 LIG 0.16  HD
ATOM     11 O    PRO B  15      -7.995 -28.262 -11.627  1.00 34.05 LIG-0.27  OA
BRANCH 9 12
ATOM     12  CA  ILE B  16      -7.182 -28.801 -14.166  1.00 37.77 LIG 0.18  C 
BRANCH 12 13
ATOM     13  CB  ILE B  16      -6.464 -27.566 -13.643  1.00 42.27 LIG 0.01  C 
ATOM     14  CG2 ILE B  16      -5.256 -27.975 -12.850  1.00 44.80 LIG 0.01  C 
BRANCH 13 15
ATOM     15  CG1 ILE B  16      -6.102 -26.670 -14.840  1.00 47.53 LIG 0.00  C 
ATOM     16  CD1 ILE B  16      -4.980 -25.664 -14.602  1.00 51.74 LIG 0.01  C 
ENDBRANCH 13 15
ENDBRANCH 12 13
BRANCH 12 17
ATOM     17  C   ILE B  16      -6.563 -30.083 -13.709  1.00 42.33 LIG 0.24  C 
ATOM     18 O    ILE B  16      -6.834 -30.557 -12.641  1.00 39.29 LIG-0.27  OA
ATOM     19  N   TYR B  17      -5.758 -30.656 -14.583  1.00 46.96 LIG-0.35  N 
ATOM     20 H    TYR B  17      -5.483 -30.262 -15.297  1.00 46.96 LIG 0.16  HD
BRANCH 19 21
ATOM     21  CA  TYR B  17      -5.255 -31.993 -14.437  1.00 51.19 LIG 0.18  C 
BRANCH 21 22
ATOM     22  C   TYR B  17      -3.900 -31.959 -13.826  1.00 56.10 LIG 0.24  C 
ATOM     23  N   ASN B  18      -3.609 -32.888 -12.935  1.00 65.39 LIG-0.35  N 
ATOM     24 H    ASN B  18      -4.087 -33.589 -12.797  1.00 65.39 LIG 0.16  HD
ATOM     25 O    TYR B  17      -3.090 -31.137 -14.212  1.00 61.36 LIG-0.27  OA
BRANCH 23 26
ATOM     26  CA  ASN B  18      -2.409 -32.787 -12.089  1.00 70.74 LIG 0.17  C 
BRANCH 26 27
ATOM     27  CB  ASN B  18      -2.822 -32.327 -10.683  1.00 84.74 LIG 0.14  C 
BRANCH 27 28
ATOM     28  CG  ASN B  18      -2.192 -33.181  -9.575  1.00 96.34 LIG 0.22  C 
ATOM     29 OD1  ASN B  18      -1.221 -32.766  -8.924  1.00 99.44 LIG-0.27  OA
ATOM     30  ND2 ASN B  18      -2.731 -34.389  -9.369  1.00 94.73 LIG-0.37  N 
ATOM     31 21HD ASN B  18      -2.405 -34.909  -8.767  1.00 94.73 LIG 0.16  HD
ATOM     32 22HD ASN B  18      -3.405 -34.646  -9.839  1.00 94.73 LIG 0.16  HD
ENDBRANCH 27 28
ENDBRANCH 26 27
BRANCH 26 33
ATOM     33  C   ASN B  18      -1.452 -34.002 -12.036  1.00 72.97 LIG 0.22  C 
ATOM     34 O    ASN B  18      -1.554 -34.969 -12.805  1.00 74.17 LIG-0.29  OA
ENDBRANCH 26 33
ENDBRANCH 23 26
ENDBRANCH 21 22
BRANCH 21 35
ATOM     35  CB  TYR B  17      -5.102 -32.593 -15.825  1.00 54.83 LIG 0.07  C 
BRANCH 35 36
ATOM     36  CG  TYR B  17      -4.265 -33.814 -15.795  1.00 56.96 LIG-0.06  A 
ATOM     37  CD2 TYR B  17      -3.182 -33.944 -16.672  1.00 61.26 LIG 0.01  A 
ATOM     38  CE2 TYR B  17      -2.398 -35.075 -16.670  1.00 70.21 LIG 0.04  A 
ATOM     39  CZ  TYR B  17      -2.712 -36.097 -15.790  1.00 76.40 LIG 0.07  A 
ATOM     40  CE1 TYR B  17      -3.788 -35.994 -14.916  1.00 67.10 LIG 0.04  A 
ATOM     41  CD1 TYR B  17      -4.561 -34.848 -14.933  1.00 57.92 LIG 0.01  A 
BRANCH 39 42
ATOM     42 OH   TYR B  17      -1.941 -37.222 -15.792  1.00 89.25 LIG-0.36  OA
ATOM     43 HH   TYR B  17      -1.190 -37.047 -16.124  1.00 89.25 LIG 0.22  HD
ENDBRANCH 39 42
ENDBRANCH 35 36
ENDBRANCH 21 35
ENDBRANCH 19 21
ENDBRANCH 12 17
ENDBRANCH 9 12
ENDBRANCH 4 8
BRANCH 1 44
ATOM     44  CA  ARG B  14     -10.273 -28.083  -8.382  1.00 32.45 LIG 0.18  C 
BRANCH 44 45
ATOM     45  N   ARG B  14     -10.196 -29.236  -7.513  1.00 38.19 LIG-0.35  N 
ATOM     46 H    ARG B  14      -9.467 -29.279  -7.060  1.00 38.19 LIG 0.16  HD
ATOM     47  C   PRO B  13     -11.168 -30.148  -7.422  1.00 38.91 LIG 0.24  C 
ATOM     48 O    PRO B  13     -12.207 -30.081  -8.048  1.00 32.88 LIG-0.27  OA
BRANCH 47 49
ATOM     49  CA  PRO B  13     -10.931 -31.302  -6.427  1.00 38.31 LIG 0.18  C 
ATOM     50  N   PRO B  13     -12.083 -32.155  -6.230  1.00 38.88 LIG-0.34  N 
ATOM     51  CD  PRO B  13     -11.734 -33.576  -6.379  1.00 43.50 LIG 0.13  C 
ATOM     52  C   PRO B  12     -13.313 -31.712  -5.922  1.00 40.77 LIG 0.26  C 
ATOM     53  CG  PRO B  13     -10.244 -33.575  -6.356  1.00 43.53 LIG 0.02  C 
ATOM     54  CB  PRO B  13      -9.865 -32.266  -6.949  1.00 39.91 LIG 0.04  C 
ATOM     55 O    PRO B  12     -13.579 -30.520  -5.708  1.00 44.45 LIG-0.27  OA
BRANCH 52 56
ATOM     56  CA  PRO B  12     -14.413 -32.741  -5.838  1.00 38.46 LIG 0.35  C 
ATOM     57  CB  PRO B  12     -15.764 -32.028  -5.910  1.00 43.42 LIG 0.05  C 
ATOM     58  CG  PRO B  12     -16.617 -32.728  -4.934  1.00 41.12 LIG 0.04  C 
ATOM     59  CD  PRO B  12     -15.693 -33.155  -3.831  1.00 39.74 LIG 0.32  C 
ATOM     60  N   PRO B  12     -14.412 -33.329  -4.520  1.00 38.12 LIG 0.32  N 
ENDBRANCH 52 56
ENDBRANCH 47 49
ENDBRANCH 44 45
BRANCH 44 61
ATOM     61  CB  ARG B  14      -9.105 -27.151  -8.043  1.00 34.42 LIG 0.04  C 
BRANCH 61 62
ATOM     62  CG  ARG B  14      -9.432 -26.051  -7.033  1.00 32.66 LIG 0.02  C 
BRANCH 62 63
ATOM     63  CD  ARG B  14     -10.936 -25.916  -6.912  1.00 35.24 LIG 0.14  C 
BRANCH 63 64
ATOM     64  NE  ARG B  14     -11.343 -24.896  -5.929  1.00 42.22 LIG-0.23  N 
ATOM     65  CZ  ARG B  14     -12.175 -25.083  -4.901  1.00 44.72 LIG 0.67  C 
ATOM     66  NH2 ARG B  14     -12.748 -26.251  -4.678  1.00 43.48 LIG-0.23  N 
ATOM     67  NH1 ARG B  14     -12.449 -24.076  -4.093  1.00 46.51 LIG-0.23  N 
ATOM     68 1HH2 ARG B  14     -12.588 -26.915  -5.200  1.00 43.48 LIG 0.17  HD
ATOM     69 2HH2 ARG B  14     -13.279 -26.347  -4.009  1.00 43.48 LIG 0.17  HD
ATOM     70 2HH1 ARG B  14     -12.984 -24.191  -3.430  1.00 46.51 LIG 0.17  HD
ATOM     71 1HH1 ARG B  14     -12.093 -23.306  -4.229  1.00 46.51 LIG 0.17  HD
ATOM     72 HE   ARG B  14     -11.015 -24.107  -6.027  1.00 42.22 LIG 0.18  HD
ENDBRANCH 63 64
ENDBRANCH 62 63
ENDBRANCH 61 62
ENDBRANCH 44 61
ENDBRANCH 1 44
TORSDOF 22
ENDMDL
MODEL 21
USER: ADFR SOLUTION from run 170
USER: SCORE 22.518553 LL:  -4.851 LR: -19.391 RR:   0.000 FEB: -12.828
USER: RMSD 3.339509
USER: SEED 169
USER: STATUS no improvement in best in 17 clusters for 5 generations
USER: GENES 24
USER: genes 0 Translation |==|  0.45803 0.46118 0.57455
USER: genes 1 Rotation |==|  0.59826 0.50720 0.46241 0.98875
USER: genes 2 Torsion [N]-CA--C-[O] |==|  0.88132
USER: genes 3 Torsion [C]-N--CA-[CB] |==|  0.28888
USER: genes 4 Torsion [N]-CA--CB-[CG2] |==|  0.03214
USER: genes 5 Torsion [CA]-CB--CG1-[CD1] |==|  0.68174
USER: genes 6 Torsion [N]-CA--C-[N] |==|  0.34057
USER: genes 7 Torsion [C]-N--CA-[C] |==|  0.86886
USER: genes 8 Torsion [N]-CA--C-[N] |==|  0.36809
USER: genes 9 Torsion [C]-N--CA-[CB] |==|  0.46898
USER: genes 10 Torsion [N]-CA--CB-[CG] |==|  0.60453
USER: genes 11 Torsion [CA]-CB--CG-[ND2] |==|  0.38660
USER: genes 12 Torsion [N]-CA--C-[O] |==|  0.21340
USER: genes 13 Torsion [N]-CA--CB-[CG] |==|  0.56822
USER: genes 14 Torsion [CA]-CB--CG-[CD2] |==|  0.81381
USER: genes 15 Torsion [CE2]-CZ--OH-[HH] |==|  0.86509
USER: genes 16 Torsion [N]-C--CA-[N] |==|  0.38258
USER: genes 17 Torsion [C]-CA--N-[C] |==|  0.56746
USER: genes 18 Torsion [N]-C--CA-[N] |==|  0.21372
USER: genes 19 Torsion [N]-C--CA-[CB] |==|  0.79382
USER: genes 20 Torsion [C]-CA--CB-[CG] |==|  0.16524
USER: genes 21 Torsion [CA]-CB--CG-[CD] |==|  0.27906
USER: genes 22 Torsion [CB]-CG--CD-[NE] |==|  0.71482
USER: genes 23 Torsion [CG]-CD--NE-[CZ] |==|  0.22716
ROOT
ATOM      1  C   ARG B  14     -10.393 -29.374  -9.864  1.00 32.92 LIG 0.24  C 
ATOM      2 O    ARG B  14      -9.774 -30.355 -10.279  1.00 37.82 LIG-0.27  OA
ATOM      3  N   PRO B  15     -10.741 -28.347 -10.644  1.00 31.88 LIG-0.34  N 
ATOM      4  CA  PRO B  15     -10.423 -28.370 -12.075  1.00 30.79 LIG 0.18  C 
ATOM      5  CB  PRO B  15     -11.050 -27.089 -12.586  1.00 31.22 LIG 0.04  C 
ATOM      6  CG  PRO B  15     -12.208 -26.884 -11.660  1.00 29.82 LIG 0.02  C 
ATOM      7  CD  PRO B  15     -11.662 -27.245 -10.317  1.00 31.43 LIG 0.13  C 
ENDROOT
BRANCH 4 8
ATOM      8  C   PRO B  15      -8.929 -28.314 -12.266  1.00 33.68 LIG 0.24  C 
ATOM      9  N   ILE B  16      -8.420 -29.161 -13.140  1.00 35.41 LIG-0.35  N 
ATOM     10 H    ILE B  16      -8.872 -29.769 -13.547  1.00 35.41 LIG 0.16  HD
ATOM     11 O    PRO B  15      -8.247 -27.554 -11.595  1.00 34.05 LIG-0.27  OA
BRANCH 9 12
ATOM     12  CA  ILE B  16      -7.056 -29.121 -13.472  1.00 37.77 LIG 0.18  C 
BRANCH 12 13
ATOM     13  CB  ILE B  16      -6.285 -30.249 -12.805  1.00 42.27 LIG 0.01  C 
ATOM     14  CG2 ILE B  16      -7.242 -31.243 -12.213  1.00 44.80 LIG 0.01  C 
BRANCH 13 15
ATOM     15  CG1 ILE B  16      -5.353 -30.886 -13.851  1.00 47.53 LIG 0.00  C 
ATOM     16  CD1 ILE B  16      -5.663 -32.332 -14.224  1.00 51.74 LIG 0.01  C 
ENDBRANCH 13 15
ENDBRANCH 12 13
BRANCH 12 17
ATOM     17  C   ILE B  16      -7.013 -29.176 -14.965  1.00 42.33 LIG 0.24  C 
ATOM     18 O    ILE B  16      -7.552 -30.060 -15.570  1.00 39.29 LIG-0.27  OA
ATOM     19  N   TYR B  17      -6.391 -28.165 -15.543  1.00 46.96 LIG-0.35  N 
ATOM     20 H    TYR B  17      -5.916 -27.597 -15.107  1.00 46.96 LIG 0.16  HD
BRANCH 19 21
ATOM     21  CA  TYR B  17      -6.442 -27.908 -16.954  1.00 51.19 LIG 0.18  C 
BRANCH 21 22
ATOM     22  C   TYR B  17      -6.187 -29.166 -17.706  1.00 56.10 LIG 0.24  C 
ATOM     23  N   ASN B  18      -7.006 -29.460 -18.697  1.00 65.39 LIG-0.35  N 
ATOM     24 H    ASN B  18      -7.577 -28.910 -19.030  1.00 65.39 LIG 0.16  HD
ATOM     25 O    TYR B  17      -5.207 -29.835 -17.438  1.00 61.36 LIG-0.27  OA
BRANCH 23 26
ATOM     26  CA  ASN B  18      -7.002 -30.792 -19.324  1.00 70.74 LIG 0.17  C 
BRANCH 26 27
ATOM     27  CB  ASN B  18      -8.231 -30.922 -20.236  1.00 84.74 LIG 0.14  C 
BRANCH 27 28
ATOM     28  CG  ASN B  18      -8.846 -32.327 -20.198  1.00 96.34 LIG 0.22  C 
ATOM     29 OD1  ASN B  18      -8.128 -33.339 -20.199  1.00 99.44 LIG-0.27  OA
ATOM     30  ND2 ASN B  18     -10.183 -32.396 -20.183  1.00 94.73 LIG-0.37  N 
ATOM     31 21HD ASN B  18     -10.574 -33.162 -20.173  1.00 94.73 LIG 0.16  HD
ATOM     32 22HD ASN B  18     -10.652 -31.674 -20.183  1.00 94.73 LIG 0.16  HD
ENDBRANCH 27 28
ENDBRANCH 26 27
BRANCH 26 33
ATOM     33  C   ASN B  18      -5.708 -31.257 -20.035  1.00 72.97 LIG 0.22  C 
ATOM     34 O    ASN B  18      -4.713 -31.661 -19.417  1.00 74.17 LIG-0.29  OA
ENDBRANCH 26 33
ENDBRANCH 23 26
ENDBRANCH 21 22
BRANCH 21 35
ATOM     35  CB  TYR B  17      -5.315 -26.948 -17.298  1.00 54.83 LIG 0.07  C 
BRANCH 35 36
ATOM     36  CG  TYR B  17      -5.615 -26.186 -18.532  1.00 56.96 LIG-0.06  A 
ATOM     37  CD2 TYR B  17      -5.681 -26.844 -19.766  1.00 61.26 LIG 0.01  A 
ATOM     38  CE2 TYR B  17      -5.946 -26.153 -20.926  1.00 70.21 LIG 0.04  A 
ATOM     39  CZ  TYR B  17      -6.133 -24.784 -20.854  1.00 76.40 LIG 0.07  A 
ATOM     40  CE1 TYR B  17      -6.064 -24.107 -19.641  1.00 67.10 LIG 0.04  A 
ATOM     41  CD1 TYR B  17      -5.799 -24.820 -18.487  1.00 57.92 LIG 0.01  A 
BRANCH 39 42
ATOM     42 OH   TYR B  17      -6.388 -24.096 -22.004  1.00 89.25 LIG-0.36  OA
ATOM     43 HH   TYR B  17      -5.830 -24.317 -22.592  1.00 89.25 LIG 0.22  HD
ENDBRANCH 39 42
ENDBRANCH 35 36
ENDBRANCH 21 35
ENDBRANCH 19 21
ENDBRANCH 12 17
ENDBRANCH 9 12
ENDBRANCH 4 8
BRANCH 1 44
ATOM     44  CA  ARG B  14     -10.741 -29.291  -8.408  1.00 32.45 LIG 0.18  C 
BRANCH 44 45
ATOM     45  N   ARG B  14     -11.217 -30.622  -8.105  1.00 38.19 LIG-0.35  N 
ATOM     46 H    ARG B  14     -10.915 -31.227  -8.636  1.00 38.19 LIG 0.16  HD
ATOM     47  C   PRO B  13     -12.050 -30.887  -7.094  1.00 38.91 LIG 0.24  C 
ATOM     48 O    PRO B  13     -12.465 -30.039  -6.331  1.00 32.88 LIG-0.27  OA
BRANCH 47 49
ATOM     49  CA  PRO B  13     -12.438 -32.367  -6.900  1.00 38.31 LIG 0.18  C 
ATOM     50  N   PRO B  13     -11.409 -33.168  -6.273  1.00 38.88 LIG-0.34  N 
ATOM     51  CD  PRO B  13     -11.942 -33.944  -5.143  1.00 43.50 LIG 0.13  C 
ATOM     52  C   PRO B  12     -10.131 -33.222  -6.684  1.00 40.77 LIG 0.26  C 
ATOM     53  CG  PRO B  13     -13.419 -33.831  -5.308  1.00 43.53 LIG 0.02  C 
ATOM     54  CB  PRO B  13     -13.621 -32.503  -5.942  1.00 39.91 LIG 0.04  C 
ATOM     55 O    PRO B  12      -9.711 -32.636  -7.693  1.00 44.45 LIG-0.27  OA
BRANCH 52 56
ATOM     56  CA  PRO B  12      -9.177 -34.046  -5.857  1.00 38.46 LIG 0.35  C 
ATOM     57  CB  PRO B  12      -8.860 -33.290  -4.565  1.00 43.42 LIG 0.05  C 
ATOM     58  CG  PRO B  12      -7.420 -33.507  -4.340  1.00 41.12 LIG 0.04  C 
ATOM     59  CD  PRO B  12      -6.810 -33.586  -5.708  1.00 39.74 LIG 0.32  C 
ATOM     60  N   PRO B  12      -7.903 -34.113  -6.530  1.00 38.12 LIG 0.32  N 
ENDBRANCH 52 56
ENDBRANCH 47 49
ENDBRANCH 44 45
BRANCH 44 61
ATOM     61  CB  ARG B  14      -9.459 -29.049  -7.604  1.00 34.42 LIG 0.04  C 
BRANCH 61 62
ATOM     62  CG  ARG B  14      -8.704 -27.771  -7.968  1.00 32.66 LIG 0.02  C 
BRANCH 62 63
ATOM     63  CD  ARG B  14      -9.015 -26.698  -6.945  1.00 35.24 LIG 0.14  C 
BRANCH 63 64
ATOM     64  NE  ARG B  14      -9.985 -25.702  -7.434  1.00 42.22 LIG-0.23  N 
ATOM     65  CZ  ARG B  14     -11.313 -25.841  -7.450  1.00 44.72 LIG 0.67  C 
ATOM     66  NH2 ARG B  14     -11.899 -26.945  -7.026  1.00 43.48 LIG-0.23  N 
ATOM     67  NH1 ARG B  14     -12.065 -24.861  -7.914  1.00 46.51 LIG-0.23  N 
ATOM     68 1HH2 ARG B  14     -11.423 -27.598  -6.729  1.00 43.48 LIG 0.17  HD
ATOM     69 2HH2 ARG B  14     -12.756 -27.011  -7.045  1.00 43.48 LIG 0.17  HD
ATOM     70 2HH1 ARG B  14     -12.921 -24.945  -7.928  1.00 46.51 LIG 0.17  HD
ATOM     71 1HH1 ARG B  14     -11.700 -24.139  -8.204  1.00 46.51 LIG 0.17  HD
ATOM     72 HE   ARG B  14      -9.667 -24.963  -7.738  1.00 42.22 LIG 0.18  HD
ENDBRANCH 63 64
ENDBRANCH 62 63
ENDBRANCH 61 62
ENDBRANCH 44 61
ENDBRANCH 1 44
TORSDOF 22
ENDMDL
MODEL 22
USER: ADFR SOLUTION from run 26
USER: SCORE 21.279251 LL:  -4.793 LR: -19.362 RR:   0.000 FEB: -12.799
USER: RMSD 12.569508
USER: SEED 25
USER: STATUS no improvement in best in 13 clusters for 5 generations
USER: GENES 24
USER: genes 0 Translation |==|  0.66847 0.52137 0.44218
USER: genes 1 Rotation |==|  0.72147 0.83128 0.80201 0.50057
USER: genes 2 Torsion [N]-CA--C-[O] |==|  0.96888
USER: genes 3 Torsion [C]-N--CA-[CB] |==|  0.37591
USER: genes 4 Torsion [N]-CA--CB-[CG2] |==|  0.53639
USER: genes 5 Torsion [CA]-CB--CG1-[CD1] |==|  0.84748
USER: genes 6 Torsion [N]-CA--C-[N] |==|  0.44493
USER: genes 7 Torsion [C]-N--CA-[C] |==|  0.69449
USER: genes 8 Torsion [N]-CA--C-[N] |==|  0.41682
USER: genes 9 Torsion [C]-N--CA-[CB] |==|  0.45942
USER: genes 10 Torsion [N]-CA--CB-[CG] |==|  0.53604
USER: genes 11 Torsion [CA]-CB--CG-[ND2] |==|  0.36954
USER: genes 12 Torsion [N]-CA--C-[O] |==|  0.02476
USER: genes 13 Torsion [N]-CA--CB-[CG] |==|  0.08513
USER: genes 14 Torsion [CA]-CB--CG-[CD2] |==|  0.23985
USER: genes 15 Torsion [CE2]-CZ--OH-[HH] |==|  0.25499
USER: genes 16 Torsion [N]-C--CA-[N] |==|  0.36347
USER: genes 17 Torsion [C]-CA--N-[C] |==|  0.20675
USER: genes 18 Torsion [N]-C--CA-[N] |==|  0.22787
USER: genes 19 Torsion [N]-C--CA-[CB] |==|  0.55582
USER: genes 20 Torsion [C]-CA--CB-[CG] |==|  0.50374
USER: genes 21 Torsion [CA]-CB--CG-[CD] |==|  0.32332
USER: genes 22 Torsion [CB]-CG--CD-[NE] |==|  0.49659
USER: genes 23 Torsion [CG]-CD--NE-[CZ] |==|  0.58462
ROOT
ATOM      1  C   ARG B  14      -5.658 -28.245 -13.538  1.00 32.92 LIG 0.24  C 
ATOM      2 O    ARG B  14      -6.692 -27.676 -13.891  1.00 37.82 LIG-0.27  OA
ATOM      3  N   PRO B  15      -5.645 -29.470 -13.004  1.00 31.88 LIG-0.34  N 
ATOM      4  CA  PRO B  15      -6.895 -30.219 -12.852  1.00 30.79 LIG 0.18  C 
ATOM      5  CB  PRO B  15      -6.431 -31.551 -12.300  1.00 31.22 LIG 0.04  C 
ATOM      6  CG  PRO B  15      -5.057 -31.697 -12.873  1.00 29.82 LIG 0.02  C 
ATOM      7  CD  PRO B  15      -4.473 -30.326 -12.757  1.00 31.43 LIG 0.13  C 
ENDROOT
BRANCH 4 8
ATOM      8  C   PRO B  15      -7.781 -29.534 -11.843  1.00 33.68 LIG 0.24  C 
ATOM      9  N   ILE B  16      -9.041 -29.923 -11.812  1.00 35.41 LIG-0.35  N 
ATOM     10 H    ILE B  16      -9.390 -30.485 -12.363  1.00 35.41 LIG 0.16  HD
ATOM     11 O    PRO B  15      -7.342 -28.633 -11.145  1.00 34.05 LIG-0.27  OA
BRANCH 9 12
ATOM     12  CA  ILE B  16      -9.925 -29.427 -10.841  1.00 37.77 LIG 0.18  C 
BRANCH 12 13
ATOM     13  CB  ILE B  16     -11.264 -29.039 -11.449  1.00 42.27 LIG 0.01  C 
ATOM     14  CG2 ILE B  16     -12.056 -28.228 -10.464  1.00 44.80 LIG 0.01  C 
BRANCH 13 15
ATOM     15  CG1 ILE B  16     -11.001 -28.275 -12.758  1.00 47.53 LIG 0.00  C 
ATOM     16  CD1 ILE B  16     -10.089 -27.058 -12.647  1.00 51.74 LIG 0.01  C 
ENDBRANCH 13 15
ENDBRANCH 12 13
BRANCH 12 17
ATOM     17  C   ILE B  16     -10.032 -30.509  -9.815  1.00 42.33 LIG 0.24  C 
ATOM     18 O    ILE B  16      -9.691 -31.632 -10.060  1.00 39.29 LIG-0.27  OA
ATOM     19  N   TYR B  17     -10.472 -30.117  -8.634  1.00 46.96 LIG-0.35  N 
ATOM     20 H    TYR B  17     -10.815 -29.341  -8.496  1.00 46.96 LIG 0.16  HD
BRANCH 19 21
ATOM     21  CA  TYR B  17     -10.425 -30.941  -7.459  1.00 51.19 LIG 0.18  C 
BRANCH 21 22
ATOM     22  C   TYR B  17     -11.800 -31.355  -7.077  1.00 56.10 LIG 0.24  C 
ATOM     23  N   ASN B  18     -11.940 -32.517  -6.468  1.00 65.39 LIG-0.35  N 
ATOM     24 H    ASN B  18     -11.287 -32.974  -6.147  1.00 65.39 LIG 0.16  HD
ATOM     25 O    TYR B  17     -12.729 -30.593  -7.268  1.00 61.36 LIG-0.27  OA
BRANCH 23 26
ATOM     26  CA  ASN B  18     -13.265 -33.132  -6.288  1.00 70.74 LIG 0.17  C 
BRANCH 26 27
ATOM     27  CB  ASN B  18     -13.086 -34.605  -5.893  1.00 84.74 LIG 0.14  C 
BRANCH 27 28
ATOM     28  CG  ASN B  18     -14.392 -35.405  -5.992  1.00 96.34 LIG 0.22  C 
ATOM     29 OD1  ASN B  18     -15.445 -34.970  -5.503  1.00 99.44 LIG-0.27  OA
ATOM     30  ND2 ASN B  18     -14.324 -36.589  -6.613  1.00 94.73 LIG-0.37  N 
ATOM     31 21HD ASN B  18     -15.027 -37.079  -6.683  1.00 94.73 LIG 0.16  HD
ATOM     32 22HD ASN B  18     -13.577 -36.861  -6.941  1.00 94.73 LIG 0.16  HD
ENDBRANCH 27 28
ENDBRANCH 26 27
BRANCH 26 33
ATOM     33  C   ASN B  18     -14.283 -32.412  -5.371  1.00 72.97 LIG 0.22  C 
ATOM     34 O    ASN B  18     -14.089 -31.274  -4.919  1.00 74.17 LIG-0.29  OA
ENDBRANCH 26 33
ENDBRANCH 23 26
ENDBRANCH 21 22
BRANCH 21 35
ATOM     35  CB  TYR B  17      -9.879 -30.100  -6.317  1.00 54.83 LIG 0.07  C 
BRANCH 35 36
ATOM     36  CG  TYR B  17     -10.242 -28.674  -6.477  1.00 56.96 LIG-0.06  A 
ATOM     37  CD2 TYR B  17     -11.468 -28.203  -5.994  1.00 61.26 LIG 0.01  A 
ATOM     38  CE2 TYR B  17     -11.831 -26.884  -6.143  1.00 70.21 LIG 0.04  A 
ATOM     39  CZ  TYR B  17     -10.963 -26.027  -6.798  1.00 76.40 LIG 0.07  A 
ATOM     40  CE1 TYR B  17      -9.743 -26.474  -7.293  1.00 67.10 LIG 0.04  A 
ATOM     41  CD1 TYR B  17      -9.397 -27.803  -7.132  1.00 57.92 LIG 0.01  A 
BRANCH 39 42
ATOM     42 OH   TYR B  17     -11.323 -24.721  -6.954  1.00 89.25 LIG-0.36  OA
ATOM     43 HH   TYR B  17     -11.031 -24.271  -6.308  1.00 89.25 LIG 0.22  HD
ENDBRANCH 39 42
ENDBRANCH 35 36
ENDBRANCH 21 35
ENDBRANCH 19 21
ENDBRANCH 12 17
ENDBRANCH 9 12
ENDBRANCH 4 8
BRANCH 1 44
ATOM     44  CA  ARG B  14      -4.349 -27.526 -13.663  1.00 32.45 LIG 0.18  C 
BRANCH 44 45
ATOM     45  N   ARG B  14      -4.353 -27.066 -15.033  1.00 38.19 LIG-0.35  N 
ATOM     46 H    ARG B  14      -3.830 -27.513 -15.549  1.00 38.19 LIG 0.16  HD
ATOM     47  C   PRO B  13      -5.099 -26.042 -15.458  1.00 38.91 LIG 0.24  C 
ATOM     48 O    PRO B  13      -5.851 -25.419 -14.736  1.00 32.88 LIG-0.27  OA
BRANCH 47 49
ATOM     49  CA  PRO B  13      -4.999 -25.701 -16.959  1.00 38.31 LIG 0.18  C 
ATOM     50  N   PRO B  13      -5.826 -26.531 -17.807  1.00 38.88 LIG-0.34  N 
ATOM     51  CD  PRO B  13      -6.640 -25.722 -18.726  1.00 43.50 LIG 0.13  C 
ATOM     52  C   PRO B  12      -5.834 -27.874 -17.783  1.00 40.77 LIG 0.26  C 
ATOM     53  CG  PRO B  13      -6.033 -24.364 -18.627  1.00 43.53 LIG 0.02  C 
ATOM     54  CB  PRO B  13      -5.516 -24.290 -17.236  1.00 39.91 LIG 0.04  C 
ATOM     55 O    PRO B  12      -5.078 -28.551 -17.069  1.00 44.45 LIG-0.27  OA
BRANCH 52 56
ATOM     56  CA  PRO B  12      -6.824 -28.573 -18.680  1.00 38.46 LIG 0.35  C 
ATOM     57  CB  PRO B  12      -7.038 -29.998 -18.167  1.00 43.42 LIG 0.05  C 
ATOM     58  CG  PRO B  12      -7.108 -30.833 -19.379  1.00 41.12 LIG 0.04  C 
ATOM     59  CD  PRO B  12      -6.184 -30.181 -20.366  1.00 39.74 LIG 0.32  C 
ATOM     60  N   PRO B  12      -6.229 -28.768 -19.980  1.00 38.12 LIG 0.32  N 
ENDBRANCH 52 56
ENDBRANCH 47 49
ENDBRANCH 44 45
BRANCH 44 61
ATOM     61  CB  ARG B  14      -4.368 -26.297 -12.747  1.00 34.42 LIG 0.04  C 
BRANCH 61 62
ATOM     62  CG  ARG B  14      -3.102 -25.441 -12.793  1.00 32.66 LIG 0.02  C 
BRANCH 62 63
ATOM     63  CD  ARG B  14      -3.447 -24.066 -13.328  1.00 35.24 LIG 0.14  C 
BRANCH 63 64
ATOM     64  NE  ARG B  14      -2.285 -23.162 -13.380  1.00 42.22 LIG-0.23  N 
ATOM     65  CZ  ARG B  14      -2.316 -21.835 -13.242  1.00 44.72 LIG 0.67  C 
ATOM     66  NH2 ARG B  14      -3.449 -21.184 -13.058  1.00 43.48 LIG-0.23  N 
ATOM     67  NH1 ARG B  14      -1.192 -21.146 -13.306  1.00 46.51 LIG-0.23  N 
ATOM     68 1HH2 ARG B  14      -4.192 -21.615 -13.024  1.00 43.48 LIG 0.17  HD
ATOM     69 2HH2 ARG B  14      -3.444 -20.328 -12.971  1.00 43.48 LIG 0.17  HD
ATOM     70 2HH1 ARG B  14      -1.205 -20.291 -13.218  1.00 46.51 LIG 0.17  HD
ATOM     71 1HH1 ARG B  14      -0.445 -21.553 -13.436  1.00 46.51 LIG 0.17  HD
ATOM     72 HE   ARG B  14      -1.515 -23.523 -13.512  1.00 42.22 LIG 0.18  HD
ENDBRANCH 63 64
ENDBRANCH 62 63
ENDBRANCH 61 62
ENDBRANCH 44 61
ENDBRANCH 1 44
TORSDOF 22
ENDMDL
MODEL 23
USER: ADFR SOLUTION from run 145
USER: SCORE 23.218943 LL:  -5.005 LR: -19.350 RR:   0.000 FEB: -12.788
USER: RMSD 4.688159
USER: SEED 144
USER: STATUS no improvement in best in 35 clusters for 5 generations
USER: GENES 24
USER: genes 0 Translation |==|  0.47867 0.49085 0.58628
USER: genes 1 Rotation |==|  0.51733 0.50657 0.43898 0.99592
USER: genes 2 Torsion [N]-CA--C-[O] |==|  0.96417
USER: genes 3 Torsion [C]-N--CA-[CB] |==|  0.86066
USER: genes 4 Torsion [N]-CA--CB-[CG2] |==|  0.34471
USER: genes 5 Torsion [CA]-CB--CG1-[CD1] |==|  0.02697
USER: genes 6 Torsion [N]-CA--C-[N] |==|  0.44444
USER: genes 7 Torsion [C]-N--CA-[C] |==|  0.63285
USER: genes 8 Torsion [N]-CA--C-[N] |==|  0.85263
USER: genes 9 Torsion [C]-N--CA-[CB] |==|  0.24847
USER: genes 10 Torsion [N]-CA--CB-[CG] |==|  0.82778
USER: genes 11 Torsion [CA]-CB--CG-[ND2] |==|  0.80576
USER: genes 12 Torsion [N]-CA--C-[O] |==|  0.13356
USER: genes 13 Torsion [N]-CA--CB-[CG] |==|  0.08171
USER: genes 14 Torsion [CA]-CB--CG-[CD2] |==|  0.27460
USER: genes 15 Torsion [CE2]-CZ--OH-[HH] |==|  0.08784
USER: genes 16 Torsion [N]-C--CA-[N] |==|  0.45244
USER: genes 17 Torsion [C]-CA--N-[C] |==|  0.75380
USER: genes 18 Torsion [N]-C--CA-[N] |==|  0.47984
USER: genes 19 Torsion [N]-C--CA-[CB] |==|  0.71878
USER: genes 20 Torsion [C]-CA--CB-[CG] |==|  0.38179
USER: genes 21 Torsion [CA]-CB--CG-[CD] |==|  0.01302
USER: genes 22 Torsion [CB]-CG--CD-[NE] |==|  0.45544
USER: genes 23 Torsion [CG]-CD--NE-[CZ] |==|  0.64267
ROOT
ATOM      1  C   ARG B  14      -9.929 -28.817  -9.539  1.00 32.92 LIG 0.24  C 
ATOM      2 O    ARG B  14      -9.410 -29.931  -9.632  1.00 37.82 LIG-0.27  OA
ATOM      3  N   PRO B  15     -10.237 -28.064 -10.598  1.00 31.88 LIG-0.34  N 
ATOM      4  CA  PRO B  15      -9.998 -28.568 -11.953  1.00 30.79 LIG 0.18  C 
ATOM      5  CB  PRO B  15     -10.550 -27.464 -12.831  1.00 31.22 LIG 0.04  C 
ATOM      6  CG  PRO B  15     -11.637 -26.873 -11.992  1.00 29.82 LIG 0.02  C 
ATOM      7  CD  PRO B  15     -11.050 -26.837 -10.617  1.00 31.43 LIG 0.13  C 
ENDROOT
BRANCH 4 8
ATOM      8  C   PRO B  15      -8.516 -28.712 -12.190  1.00 33.68 LIG 0.24  C 
ATOM      9  N   ILE B  16      -8.159 -29.446 -13.226  1.00 35.41 LIG-0.35  N 
ATOM     10 H    ILE B  16      -8.707 -29.887 -13.721  1.00 35.41 LIG 0.16  HD
ATOM     11 O    PRO B  15      -7.715 -28.209 -11.417  1.00 34.05 LIG-0.27  OA
BRANCH 9 12
ATOM     12  CA  ILE B  16      -6.810 -29.558 -13.599  1.00 37.77 LIG 0.18  C 
BRANCH 12 13
ATOM     13  CB  ILE B  16      -6.146 -28.194 -13.713  1.00 42.27 LIG 0.01  C 
ATOM     14  CG2 ILE B  16      -4.935 -28.140 -12.826  1.00 44.80 LIG 0.01  C 
BRANCH 13 15
ATOM     15  CG1 ILE B  16      -5.801 -27.942 -15.191  1.00 47.53 LIG 0.00  C 
ATOM     16  CD1 ILE B  16      -6.380 -28.940 -16.188  1.00 51.74 LIG 0.01  C 
ENDBRANCH 13 15
ENDBRANCH 12 13
BRANCH 12 17
ATOM     17  C   ILE B  16      -6.186 -30.435 -12.562  1.00 42.33 LIG 0.24  C 
ATOM     18 O    ILE B  16      -6.722 -30.628 -11.507  1.00 39.29 LIG-0.27  OA
ATOM     19  N   TYR B  17      -5.051 -31.004 -12.923  1.00 46.96 LIG-0.35  N 
ATOM     20 H    TYR B  17      -4.618 -30.780 -13.631  1.00 46.96 LIG 0.16  HD
BRANCH 19 21
ATOM     21  CA  TYR B  17      -4.420 -32.054 -12.174  1.00 51.19 LIG 0.18  C 
BRANCH 21 22
ATOM     22  C   TYR B  17      -2.975 -31.750 -11.995  1.00 56.10 LIG 0.24  C 
ATOM     23  N   ASN B  18      -2.272 -31.478 -13.077  1.00 65.39 LIG-0.35  N 
ATOM     24 H    ASN B  18      -2.616 -31.319 -13.848  1.00 65.39 LIG 0.16  HD
ATOM     25 O    TYR B  17      -2.511 -31.691 -10.872  1.00 61.36 LIG-0.27  OA
BRANCH 23 26
ATOM     26  CA  ASN B  18      -0.801 -31.425 -13.039  1.00 70.74 LIG 0.17  C 
BRANCH 26 27
ATOM     27  CB  ASN B  18      -0.240 -32.825 -13.330  1.00 84.74 LIG 0.14  C 
BRANCH 27 28
ATOM     28  CG  ASN B  18      -0.666 -33.860 -12.281  1.00 96.34 LIG 0.22  C 
ATOM     29 OD1  ASN B  18      -1.482 -34.752 -12.559  1.00 99.44 LIG-0.27  OA
ATOM     30  ND2 ASN B  18      -0.128 -33.735 -11.061  1.00 94.73 LIG-0.37  N 
ATOM     31 21HD ASN B  18      -0.345 -34.284 -10.437  1.00 94.73 LIG 0.16  HD
ATOM     32 22HD ASN B  18       0.436 -33.104 -10.902  1.00 94.73 LIG 0.16  HD
ENDBRANCH 27 28
ENDBRANCH 26 27
BRANCH 26 33
ATOM     33  C   ASN B  18      -0.090 -30.337 -13.879  1.00 72.97 LIG 0.22  C 
ATOM     34 O    ASN B  18      -0.433 -29.146 -13.861  1.00 74.17 LIG-0.29  OA
ENDBRANCH 26 33
ENDBRANCH 23 26
ENDBRANCH 21 22
BRANCH 21 35
ATOM     35  CB  TYR B  17      -4.508 -33.333 -12.990  1.00 54.83 LIG 0.07  C 
BRANCH 35 36
ATOM     36  CG  TYR B  17      -4.525 -33.045 -14.442  1.00 56.96 LIG-0.06  A 
ATOM     37  CD2 TYR B  17      -3.350 -33.156 -15.194  1.00 61.26 LIG 0.01  A 
ATOM     38  CE2 TYR B  17      -3.340 -32.881 -16.542  1.00 70.21 LIG 0.04  A 
ATOM     39  CZ  TYR B  17      -4.518 -32.474 -17.144  1.00 76.40 LIG 0.07  A 
ATOM     40  CE1 TYR B  17      -5.696 -32.348 -16.417  1.00 67.10 LIG 0.04  A 
ATOM     41  CD1 TYR B  17      -5.684 -32.631 -15.063  1.00 57.92 LIG 0.01  A 
BRANCH 39 42
ATOM     42 OH   TYR B  17      -4.509 -32.193 -18.479  1.00 89.25 LIG-0.36  OA
ATOM     43 HH   TYR B  17      -3.944 -32.680 -18.864  1.00 89.25 LIG 0.22  HD
ENDBRANCH 39 42
ENDBRANCH 35 36
ENDBRANCH 21 35
ENDBRANCH 19 21
ENDBRANCH 12 17
ENDBRANCH 9 12
ENDBRANCH 4 8
BRANCH 1 44
ATOM     44  CA  ARG B  14     -10.191 -28.246  -8.177  1.00 32.45 LIG 0.18  C 
BRANCH 44 45
ATOM     45  N   ARG B  14     -10.156 -29.408  -7.318  1.00 38.19 LIG-0.35  N 
ATOM     46 H    ARG B  14      -9.378 -29.573  -6.991  1.00 38.19 LIG 0.16  HD
ATOM     47  C   PRO B  13     -11.232 -30.155  -7.055  1.00 38.91 LIG 0.24  C 
ATOM     48 O    PRO B  13     -12.337 -29.915  -7.501  1.00 32.88 LIG-0.27  OA
BRANCH 47 49
ATOM     49  CA  PRO B  13     -11.020 -31.345  -6.098  1.00 38.31 LIG 0.18  C 
ATOM     50  N   PRO B  13     -12.243 -32.019  -5.718  1.00 38.88 LIG-0.34  N 
ATOM     51  CD  PRO B  13     -12.139 -33.473  -5.905  1.00 43.50 LIG 0.13  C 
ATOM     52  C   PRO B  12     -13.330 -31.401  -5.227  1.00 40.77 LIG 0.26  C 
ATOM     53  CG  PRO B  13     -10.680 -33.696  -6.113  1.00 43.53 LIG 0.02  C 
ATOM     54  CB  PRO B  13     -10.205 -32.450  -6.769  1.00 39.91 LIG 0.04  C 
ATOM     55 O    PRO B  12     -13.378 -30.186  -4.986  1.00 44.45 LIG-0.27  OA
BRANCH 52 56
ATOM     56  CA  PRO B  12     -14.546 -32.255  -4.965  1.00 38.46 LIG 0.35  C 
ATOM     57  CB  PRO B  12     -15.543 -32.063  -6.110  1.00 43.42 LIG 0.05  C 
ATOM     58  CG  PRO B  12     -16.864 -32.019  -5.461  1.00 41.12 LIG 0.04  C 
ATOM     59  CD  PRO B  12     -16.633 -31.372  -4.127  1.00 39.74 LIG 0.32  C 
ATOM     60  N   PRO B  12     -15.249 -31.737  -3.816  1.00 38.12 LIG 0.32  N 
ENDBRANCH 52 56
ENDBRANCH 47 49
ENDBRANCH 44 45
BRANCH 44 61
ATOM     61  CB  ARG B  14      -9.024 -27.331  -7.790  1.00 34.42 LIG 0.04  C 
BRANCH 61 62
ATOM     62  CG  ARG B  14      -9.432 -26.015  -7.127  1.00 32.66 LIG 0.02  C 
BRANCH 62 63
ATOM     63  CD  ARG B  14     -10.933 -26.006  -6.916  1.00 35.24 LIG 0.14  C 
BRANCH 63 64
ATOM     64  NE  ARG B  14     -11.372 -24.972  -5.962  1.00 42.22 LIG-0.23  N 
ATOM     65  CZ  ARG B  14     -12.160 -25.166  -4.902  1.00 44.72 LIG 0.67  C 
ATOM     66  NH2 ARG B  14     -12.653 -26.355  -4.613  1.00 43.48 LIG-0.23  N 
ATOM     67  NH1 ARG B  14     -12.471 -24.144  -4.126  1.00 46.51 LIG-0.23  N 
ATOM     68 1HH2 ARG B  14     -12.469 -27.030  -5.114  1.00 43.48 LIG 0.17  HD
ATOM     69 2HH2 ARG B  14     -13.159 -26.455  -3.924  1.00 43.48 LIG 0.17  HD
ATOM     70 2HH1 ARG B  14     -12.978 -24.263  -3.441  1.00 46.51 LIG 0.17  HD
ATOM     71 1HH1 ARG B  14     -12.166 -23.360  -4.304  1.00 46.51 LIG 0.17  HD
ATOM     72 HE   ARG B  14     -11.095 -24.170  -6.101  1.00 42.22 LIG 0.18  HD
ENDBRANCH 63 64
ENDBRANCH 62 63
ENDBRANCH 61 62
ENDBRANCH 44 61
ENDBRANCH 1 44
TORSDOF 22
ENDMDL
MODEL 24
USER: ADFR SOLUTION from run 120
USER: SCORE 23.292195 LL:  -4.613 LR: -19.352 RR:   0.000 FEB: -12.789
USER: RMSD 5.169570
USER: SEED 119
USER: STATUS no improvement in best in 16 clusters for 5 generations
USER: GENES 24
USER: genes 0 Translation |==|  0.46050 0.45871 0.57342
USER: genes 1 Rotation |==|  0.61040 0.49214 0.41751 0.98057
USER: genes 2 Torsion [N]-CA--C-[O] |==|  0.91603
USER: genes 3 Torsion [C]-N--CA-[CB] |==|  0.51667
USER: genes 4 Torsion [N]-CA--CB-[CG2] |==|  0.30050
USER: genes 5 Torsion [CA]-CB--CG1-[CD1] |==|  0.49178
USER: genes 6 Torsion [N]-CA--C-[N] |==|  0.39845
USER: genes 7 Torsion [C]-N--CA-[C] |==|  0.81276
USER: genes 8 Torsion [N]-CA--C-[N] |==|  0.41026
USER: genes 9 Torsion [C]-N--CA-[CB] |==|  0.72997
USER: genes 10 Torsion [N]-CA--CB-[CG] |==|  0.70811
USER: genes 11 Torsion [CA]-CB--CG-[ND2] |==|  0.08427
USER: genes 12 Torsion [N]-CA--C-[O] |==|  0.15758
USER: genes 13 Torsion [N]-CA--CB-[CG] |==|  0.41058
USER: genes 14 Torsion [CA]-CB--CG-[CD2] |==|  0.22825
USER: genes 15 Torsion [CE2]-CZ--OH-[HH] |==|  0.19157
USER: genes 16 Torsion [N]-C--CA-[N] |==|  0.42570
USER: genes 17 Torsion [C]-CA--N-[C] |==|  0.59057
USER: genes 18 Torsion [N]-C--CA-[N] |==|  0.19499
USER: genes 19 Torsion [N]-C--CA-[CB] |==|  0.75216
USER: genes 20 Torsion [C]-CA--CB-[CG] |==|  0.40657
USER: genes 21 Torsion [CA]-CB--CG-[CD] |==|  0.00410
USER: genes 22 Torsion [CB]-CG--CD-[NE] |==|  0.80213
USER: genes 23 Torsion [CG]-CD--NE-[CZ] |==|  0.77729
ROOT
ATOM      1  C   ARG B  14     -10.338 -29.420  -9.895  1.00 32.92 LIG 0.24  C 
ATOM      2 O    ARG B  14      -9.902 -30.482 -10.344  1.00 37.82 LIG-0.27  OA
ATOM      3  N   PRO B  15     -10.461 -28.312 -10.632  1.00 31.88 LIG-0.34  N 
ATOM      4  CA  PRO B  15     -10.109 -28.332 -12.054  1.00 30.79 LIG 0.18  C 
ATOM      5  CB  PRO B  15     -10.466 -26.934 -12.515  1.00 31.22 LIG 0.04  C 
ATOM      6  CG  PRO B  15     -11.592 -26.554 -11.607  1.00 29.82 LIG 0.02  C 
ATOM      7  CD  PRO B  15     -11.166 -27.071 -10.271  1.00 31.43 LIG 0.13  C 
ENDROOT
BRANCH 4 8
ATOM      8  C   PRO B  15      -8.625 -28.554 -12.209  1.00 33.68 LIG 0.24  C 
ATOM      9  N   ILE B  16      -8.245 -29.240 -13.270  1.00 35.41 LIG-0.35  N 
ATOM     10 H    ILE B  16      -8.785 -29.612 -13.827  1.00 35.41 LIG 0.16  HD
ATOM     11 O    PRO B  15      -7.848 -28.155 -11.356  1.00 34.05 LIG-0.27  OA
BRANCH 9 12
ATOM     12  CA  ILE B  16      -6.883 -29.412 -13.566  1.00 37.77 LIG 0.18  C 
BRANCH 12 13
ATOM     13  CB  ILE B  16      -6.685 -30.106 -14.904  1.00 42.27 LIG 0.01  C 
ATOM     14  CG2 ILE B  16      -6.165 -29.126 -15.916  1.00 44.80 LIG 0.01  C 
BRANCH 13 15
ATOM     15  CG1 ILE B  16      -5.731 -31.296 -14.699  1.00 47.53 LIG 0.00  C 
ATOM     16  CD1 ILE B  16      -5.470 -32.158 -15.929  1.00 51.74 LIG 0.01  C 
ENDBRANCH 13 15
ENDBRANCH 12 13
BRANCH 12 17
ATOM     17  C   ILE B  16      -6.293 -28.039 -13.518  1.00 42.33 LIG 0.24  C 
ATOM     18 O    ILE B  16      -6.924 -27.080 -13.863  1.00 39.29 LIG-0.27  OA
ATOM     19  N   TYR B  17      -5.070 -27.974 -13.026  1.00 46.96 LIG-0.35  N 
ATOM     20 H    TYR B  17      -4.585 -28.670 -12.883  1.00 46.96 LIG 0.16  HD
BRANCH 19 21
ATOM     21  CA  TYR B  17      -4.422 -26.741 -12.678  1.00 51.19 LIG 0.18  C 
BRANCH 21 22
ATOM     22  C   TYR B  17      -4.152 -25.948 -13.906  1.00 56.10 LIG 0.24  C 
ATOM     23  N   ASN B  18      -4.189 -24.634 -13.804  1.00 65.39 LIG-0.35  N 
ATOM     24 H    ASN B  18      -4.209 -24.209 -13.057  1.00 65.39 LIG 0.16  HD
ATOM     25 O    TYR B  17      -3.839 -26.523 -14.933  1.00 61.36 LIG-0.27  OA
BRANCH 23 26
ATOM     26  CA  ASN B  18      -4.199 -23.773 -14.998  1.00 70.74 LIG 0.17  C 
BRANCH 26 27
ATOM     27  CB  ASN B  18      -2.768 -23.292 -15.283  1.00 84.74 LIG 0.14  C 
BRANCH 27 28
ATOM     28  CG  ASN B  18      -2.552 -21.824 -14.893  1.00 96.34 LIG 0.22  C 
ATOM     29 OD1  ASN B  18      -1.727 -21.119 -15.494  1.00 99.44 LIG-0.27  OA
ATOM     30  ND2 ASN B  18      -3.281 -21.361 -13.870  1.00 94.73 LIG-0.37  N 
ATOM     31 21HD ASN B  18      -3.186 -20.548 -13.607  1.00 94.73 LIG 0.16  HD
ATOM     32 22HD ASN B  18      -3.844 -21.878 -13.474  1.00 94.73 LIG 0.16  HD
ENDBRANCH 27 28
ENDBRANCH 26 27
BRANCH 26 33
ATOM     33  C   ASN B  18      -4.888 -24.309 -16.276  1.00 72.97 LIG 0.22  C 
ATOM     34 O    ASN B  18      -6.073 -24.674 -16.295  1.00 74.17 LIG-0.29  OA
ENDBRANCH 26 33
ENDBRANCH 23 26
ENDBRANCH 21 22
BRANCH 21 35
ATOM     35  CB  TYR B  17      -3.075 -27.076 -12.060  1.00 54.83 LIG 0.07  C 
BRANCH 35 36
ATOM     36  CG  TYR B  17      -2.069 -26.033 -12.363  1.00 56.96 LIG-0.06  A 
ATOM     37  CD2 TYR B  17      -2.016 -24.864 -11.595  1.00 61.26 LIG 0.01  A 
ATOM     38  CE2 TYR B  17      -1.098 -23.876 -11.867  1.00 70.21 LIG 0.04  A 
ATOM     39  CZ  TYR B  17      -0.230 -24.053 -12.931  1.00 76.40 LIG 0.07  A 
ATOM     40  CE1 TYR B  17      -0.269 -25.201 -13.713  1.00 67.10 LIG 0.04  A 
ATOM     41  CD1 TYR B  17      -1.199 -26.183 -13.422  1.00 57.92 LIG 0.01  A 
BRANCH 39 42
ATOM     42 OH   TYR B  17       0.676 -23.071 -13.208  1.00 89.25 LIG-0.36  OA
ATOM     43 HH   TYR B  17       1.250 -23.040 -12.596  1.00 89.25 LIG 0.22  HD
ENDBRANCH 39 42
ENDBRANCH 35 36
ENDBRANCH 21 35
ENDBRANCH 19 21
ENDBRANCH 12 17
ENDBRANCH 9 12
ENDBRANCH 4 8
BRANCH 1 44
ATOM     44  CA  ARG B  14     -10.708 -29.337  -8.445  1.00 32.45 LIG 0.18  C 
BRANCH 44 45
ATOM     45  N   ARG B  14     -11.092 -30.693  -8.123  1.00 38.19 LIG-0.35  N 
ATOM     46 H    ARG B  14     -10.656 -31.289  -8.563  1.00 38.19 LIG 0.16  HD
ATOM     47  C   PRO B  13     -12.036 -30.992  -7.225  1.00 38.91 LIG 0.24  C 
ATOM     48 O    PRO B  13     -12.642 -30.153  -6.589  1.00 32.88 LIG-0.27  OA
BRANCH 47 49
ATOM     49  CA  PRO B  13     -12.302 -32.492  -6.988  1.00 38.31 LIG 0.18  C 
ATOM     50  N   PRO B  13     -11.230 -33.178  -6.299  1.00 38.88 LIG-0.34  N 
ATOM     51  CD  PRO B  13     -11.733 -33.957  -5.159  1.00 43.50 LIG 0.13  C 
ATOM     52  C   PRO B  12      -9.939 -33.135  -6.668  1.00 40.77 LIG 0.26  C 
ATOM     53  CG  PRO B  13     -13.208 -33.980  -5.374  1.00 43.53 LIG 0.02  C 
ATOM     54  CB  PRO B  13     -13.502 -32.697  -6.063  1.00 39.91 LIG 0.04  C 
ATOM     55 O    PRO B  12      -9.536 -32.550  -7.684  1.00 44.45 LIG-0.27  OA
BRANCH 52 56
ATOM     56  CA  PRO B  12      -8.947 -33.843  -5.781  1.00 38.46 LIG 0.35  C 
ATOM     57  CB  PRO B  12      -8.456 -32.868  -4.708  1.00 43.42 LIG 0.05  C 
ATOM     58  CG  PRO B  12      -7.014 -33.140  -4.577  1.00 41.12 LIG 0.04  C 
ATOM     59  CD  PRO B  12      -6.557 -33.535  -5.951  1.00 39.74 LIG 0.32  C 
ATOM     60  N   PRO B  12      -7.756 -34.135  -6.541  1.00 38.12 LIG 0.32  N 
ENDBRANCH 52 56
ENDBRANCH 47 49
ENDBRANCH 44 45
BRANCH 44 61
ATOM     61  CB  ARG B  14      -9.457 -28.989  -7.631  1.00 34.42 LIG 0.04  C 
BRANCH 61 62
ATOM     62  CG  ARG B  14      -9.711 -28.117  -6.402  1.00 32.66 LIG 0.02  C 
BRANCH 62 63
ATOM     63  CD  ARG B  14     -11.196 -27.842  -6.283  1.00 35.24 LIG 0.14  C 
BRANCH 63 64
ATOM     64  NE  ARG B  14     -11.693 -26.919  -7.318  1.00 42.22 LIG-0.23  N 
ATOM     65  CZ  ARG B  14     -11.584 -25.588  -7.301  1.00 44.72 LIG 0.67  C 
ATOM     66  NH2 ARG B  14     -11.011 -24.953  -6.297  1.00 43.48 LIG-0.23  N 
ATOM     67  NH1 ARG B  14     -12.074 -24.881  -8.303  1.00 46.51 LIG-0.23  N 
ATOM     68 1HH2 ARG B  14     -10.695 -25.397  -5.631  1.00 43.48 LIG 0.17  HD
ATOM     69 2HH2 ARG B  14     -10.952 -24.095  -6.309  1.00 43.48 LIG 0.17  HD
ATOM     70 2HH1 ARG B  14     -12.007 -24.024  -8.297  1.00 46.51 LIG 0.17  HD
ATOM     71 1HH1 ARG B  14     -12.460 -25.278  -8.961  1.00 46.51 LIG 0.17  HD
ATOM     72 HE   ARG B  14     -12.091 -27.269  -7.996  1.00 42.22 LIG 0.18  HD
ENDBRANCH 63 64
ENDBRANCH 62 63
ENDBRANCH 61 62
ENDBRANCH 44 61
ENDBRANCH 1 44
TORSDOF 22
ENDMDL
MODEL 25
USER: ADFR SOLUTION from run 146
USER: SCORE 23.370218 LL:  -5.075 LR: -19.314 RR:   0.000 FEB: -12.751
USER: RMSD 5.603274
USER: SEED 145
USER: STATUS no improvement in best in 4 clusters for 5 generations
USER: GENES 24
USER: genes 0 Translation |==|  0.46878 0.54474 0.63773
USER: genes 1 Rotation |==|  0.27010 0.55907 0.84326 0.77537
USER: genes 2 Torsion [N]-CA--C-[O] |==|  0.30157
USER: genes 3 Torsion [C]-N--CA-[CB] |==|  0.79984
USER: genes 4 Torsion [N]-CA--CB-[CG2] |==|  0.61395
USER: genes 5 Torsion [CA]-CB--CG1-[CD1] |==|  0.52626
USER: genes 6 Torsion [N]-CA--C-[N] |==|  0.19264
USER: genes 7 Torsion [C]-N--CA-[C] |==|  0.85227
USER: genes 8 Torsion [N]-CA--C-[N] |==|  0.35459
USER: genes 9 Torsion [C]-N--CA-[CB] |==|  0.84115
USER: genes 10 Torsion [N]-CA--CB-[CG] |==|  0.34873
USER: genes 11 Torsion [CA]-CB--CG-[ND2] |==|  0.70106
USER: genes 12 Torsion [N]-CA--C-[O] |==|  0.27636
USER: genes 13 Torsion [N]-CA--CB-[CG] |==|  0.66300
USER: genes 14 Torsion [CA]-CB--CG-[CD2] |==|  0.05179
USER: genes 15 Torsion [CE2]-CZ--OH-[HH] |==|  0.02451
USER: genes 16 Torsion [N]-C--CA-[N] |==|  0.21782
USER: genes 17 Torsion [C]-CA--N-[C] |==|  0.68272
USER: genes 18 Torsion [N]-C--CA-[N] |==|  0.73812
USER: genes 19 Torsion [N]-C--CA-[CB] |==|  0.75839
USER: genes 20 Torsion [C]-CA--CB-[CG] |==|  0.51159
USER: genes 21 Torsion [CA]-CB--CG-[CD] |==|  0.24370
USER: genes 22 Torsion [CB]-CG--CD-[NE] |==|  0.45539
USER: genes 23 Torsion [CG]-CD--NE-[CZ] |==|  0.60248
ROOT
ATOM      1  C   ARG B  14     -10.151 -27.807  -8.111  1.00 32.92 LIG 0.24  C 
ATOM      2 O    ARG B  14      -9.298 -26.958  -8.373  1.00 37.82 LIG-0.27  OA
ATOM      3  N   PRO B  15     -10.111 -29.055  -8.587  1.00 31.88 LIG-0.34  N 
ATOM      4  CA  PRO B  15      -8.993 -29.483  -9.433  1.00 30.79 LIG 0.18  C 
ATOM      5  CB  PRO B  15      -9.291 -30.948  -9.678  1.00 31.22 LIG 0.04  C 
ATOM      6  CG  PRO B  15     -10.030 -31.355  -8.443  1.00 29.82 LIG 0.02  C 
ATOM      7  CD  PRO B  15     -10.937 -30.200  -8.169  1.00 31.43 LIG 0.13  C 
ENDROOT
BRANCH 4 8
ATOM      8  C   PRO B  15      -9.028 -28.733 -10.741  1.00 33.68 LIG 0.24  C 
ATOM      9  N   ILE B  16      -9.957 -29.103 -11.602  1.00 35.41 LIG-0.35  N 
ATOM     10 H    ILE B  16     -10.487 -29.771 -11.487  1.00 35.41 LIG 0.16  HD
ATOM     11 O    PRO B  15      -8.194 -27.874 -10.984  1.00 34.05 LIG-0.27  OA
BRANCH 9 12
ATOM     12  CA  ILE B  16     -10.145 -28.402 -12.804  1.00 37.77 LIG 0.18  C 
BRANCH 12 13
ATOM     13  CB  ILE B  16     -10.783 -27.043 -12.565  1.00 42.27 LIG 0.01  C 
ATOM     14  CG2 ILE B  16     -11.815 -26.771 -13.622  1.00 44.80 LIG 0.01  C 
BRANCH 13 15
ATOM     15  CG1 ILE B  16     -11.381 -27.027 -11.147  1.00 47.53 LIG 0.00  C 
ATOM     16  CD1 ILE B  16     -12.258 -25.827 -10.809  1.00 51.74 LIG 0.01  C 
ENDBRANCH 13 15
ENDBRANCH 12 13
BRANCH 12 17
ATOM     17  C   ILE B  16      -8.788 -28.318 -13.427  1.00 42.33 LIG 0.24  C 
ATOM     18 O    ILE B  16      -8.187 -27.281 -13.467  1.00 39.29 LIG-0.27  OA
ATOM     19  N   TYR B  17      -8.304 -29.464 -13.867  1.00 46.96 LIG-0.35  N 
ATOM     20 H    TYR B  17      -8.778 -30.178 -13.935  1.00 46.96 LIG 0.16  HD
BRANCH 19 21
ATOM     21  CA  TYR B  17      -6.940 -29.640 -14.278  1.00 51.19 LIG 0.18  C 
BRANCH 21 22
ATOM     22  C   TYR B  17      -6.581 -28.614 -15.293  1.00 56.10 LIG 0.24  C 
ATOM     23  N   ASN B  18      -5.498 -27.895 -15.076  1.00 65.39 LIG-0.35  N 
ATOM     24 H    ASN B  18      -4.911 -28.077 -14.475  1.00 65.39 LIG 0.16  HD
ATOM     25 O    TYR B  17      -7.244 -28.521 -16.310  1.00 61.36 LIG-0.27  OA
BRANCH 23 26
ATOM     26  CA  ASN B  18      -5.206 -26.692 -15.872  1.00 70.74 LIG 0.17  C 
BRANCH 26 27
ATOM     27  CB  ASN B  18      -5.155 -27.073 -17.359  1.00 84.74 LIG 0.14  C 
BRANCH 27 28
ATOM     28  CG  ASN B  18      -6.101 -26.224 -18.218  1.00 96.34 LIG 0.22  C 
ATOM     29 OD1  ASN B  18      -5.857 -25.030 -18.447  1.00 99.44 LIG-0.27  OA
ATOM     30  ND2 ASN B  18      -7.199 -26.834 -18.683  1.00 94.73 LIG-0.37  N 
ATOM     31 21HD ASN B  18      -7.765 -26.396 -19.159  1.00 94.73 LIG 0.16  HD
ATOM     32 22HD ASN B  18      -7.338 -27.664 -18.505  1.00 94.73 LIG 0.16  HD
ENDBRANCH 27 28
ENDBRANCH 26 27
BRANCH 26 33
ATOM     33  C   ASN B  18      -6.074 -25.433 -15.634  1.00 72.97 LIG 0.22  C 
ATOM     34 O    ASN B  18      -5.699 -24.485 -14.928  1.00 74.17 LIG-0.29  OA
ENDBRANCH 26 33
ENDBRANCH 23 26
ENDBRANCH 21 22
BRANCH 21 35
ATOM     35  CB  TYR B  17      -6.824 -30.996 -14.955  1.00 54.83 LIG 0.07  C 
BRANCH 35 36
ATOM     36  CG  TYR B  17      -5.835 -31.858 -14.268  1.00 56.96 LIG-0.06  A 
ATOM     37  CD2 TYR B  17      -5.441 -31.567 -12.957  1.00 61.26 LIG 0.01  A 
ATOM     38  CE2 TYR B  17      -4.514 -32.347 -12.304  1.00 70.21 LIG 0.04  A 
ATOM     39  CZ  TYR B  17      -3.963 -33.424 -12.977  1.00 76.40 LIG 0.07  A 
ATOM     40  CE1 TYR B  17      -4.333 -33.727 -14.282  1.00 67.10 LIG 0.04  A 
ATOM     41  CD1 TYR B  17      -5.267 -32.932 -14.919  1.00 57.92 LIG 0.01  A 
BRANCH 39 42
ATOM     42 OH   TYR B  17      -3.038 -34.194 -12.335  1.00 89.25 LIG-0.36  OA
ATOM     43 HH   TYR B  17      -3.002 -33.972 -11.526  1.00 89.25 LIG 0.22  HD
ENDBRANCH 39 42
ENDBRANCH 35 36
ENDBRANCH 21 35
ENDBRANCH 19 21
ENDBRANCH 12 17
ENDBRANCH 9 12
ENDBRANCH 4 8
BRANCH 1 44
ATOM     44  CA  ARG B  14     -11.323 -27.426  -7.255  1.00 32.45 LIG 0.18  C 
BRANCH 44 45
ATOM     45  N   ARG B  14     -10.999 -28.008  -5.972  1.00 38.19 LIG-0.35  N 
ATOM     46 H    ARG B  14     -10.309 -27.657  -5.597  1.00 38.19 LIG 0.16  HD
ATOM     47  C   PRO B  13     -11.705 -29.000  -5.421  1.00 38.91 LIG 0.24  C 
ATOM     48 O    PRO B  13     -12.690 -29.486  -5.939  1.00 32.88 LIG-0.27  OA
BRANCH 47 49
ATOM     49  CA  PRO B  13     -11.233 -29.486  -4.036  1.00 38.31 LIG 0.18  C 
ATOM     50  N   PRO B  13     -10.338 -30.622  -4.085  1.00 38.88 LIG-0.34  N 
ATOM     51  CD  PRO B  13      -9.130 -30.391  -3.279  1.00 43.50 LIG 0.13  C 
ATOM     52  C   PRO B  12     -10.587 -31.757  -4.757  1.00 40.77 LIG 0.26  C 
ATOM     53  CG  PRO B  13      -9.473 -29.188  -2.469  1.00 43.53 LIG 0.02  C 
ATOM     54  CB  PRO B  13     -10.402 -28.413  -3.332  1.00 39.91 LIG 0.04  C 
ATOM     55 O    PRO B  12     -11.648 -31.980  -5.358  1.00 44.45 LIG-0.27  OA
BRANCH 52 56
ATOM     56  CA  PRO B  12      -9.500 -32.803  -4.765  1.00 38.46 LIG 0.35  C 
ATOM     57  CB  PRO B  12      -8.544 -32.514  -5.924  1.00 43.42 LIG 0.05  C 
ATOM     58  CG  PRO B  12      -8.219 -33.836  -6.488  1.00 41.12 LIG 0.04  C 
ATOM     59  CD  PRO B  12      -9.458 -34.662  -6.308  1.00 39.74 LIG 0.32  C 
ATOM     60  N   PRO B  12     -10.075 -34.080  -5.113  1.00 38.12 LIG 0.32  N 
ENDBRANCH 52 56
ENDBRANCH 47 49
ENDBRANCH 44 45
BRANCH 44 61
ATOM     61  CB  ARG B  14     -11.346 -25.902  -7.095  1.00 34.42 LIG 0.04  C 
BRANCH 61 62
ATOM     62  CG  ARG B  14     -12.432 -25.370  -6.161  1.00 32.66 LIG 0.02  C 
BRANCH 62 63
ATOM     63  CD  ARG B  14     -11.905 -25.352  -4.741  1.00 35.24 LIG 0.14  C 
BRANCH 63 64
ATOM     64  NE  ARG B  14     -12.720 -24.521  -3.837  1.00 42.22 LIG-0.23  N 
ATOM     65  CZ  ARG B  14     -12.259 -23.757  -2.843  1.00 44.72 LIG 0.67  C 
ATOM     66  NH2 ARG B  14     -10.972 -23.694  -2.558  1.00 43.48 LIG-0.23  N 
ATOM     67  NH1 ARG B  14     -13.106 -23.057  -2.112  1.00 46.51 LIG-0.23  N 
ATOM     68 1HH2 ARG B  14     -10.407 -24.152  -3.018  1.00 43.48 LIG 0.17  HD
ATOM     69 2HH2 ARG B  14     -10.699 -23.195  -1.913  1.00 43.48 LIG 0.17  HD
ATOM     70 2HH1 ARG B  14     -12.815 -22.564  -1.470  1.00 46.51 LIG 0.17  HD
ATOM     71 1HH1 ARG B  14     -13.949 -23.094  -2.277  1.00 46.51 LIG 0.17  HD
ATOM     72 HE   ARG B  14     -13.571 -24.528  -3.961  1.00 42.22 LIG 0.18  HD
ENDBRANCH 63 64
ENDBRANCH 62 63
ENDBRANCH 61 62
ENDBRANCH 44 61
ENDBRANCH 1 44
TORSDOF 22
ENDMDL
MODEL 26
USER: ADFR SOLUTION from run 155
USER: SCORE 23.864385 LL:  -5.290 LR: -19.298 RR:   0.000 FEB: -12.735
USER: RMSD 4.868547
USER: SEED 154
USER: STATUS no improvement in best in 8 clusters for 5 generations
USER: GENES 24
USER: genes 0 Translation |==|  0.44986 0.45538 0.56136
USER: genes 1 Rotation |==|  0.60811 0.50566 0.36737 0.96978
USER: genes 2 Torsion [N]-CA--C-[O] |==|  0.43925
USER: genes 3 Torsion [C]-N--CA-[CB] |==|  0.88889
USER: genes 4 Torsion [N]-CA--CB-[CG2] |==|  0.50790
USER: genes 5 Torsion [CA]-CB--CG1-[CD1] |==|  0.89455
USER: genes 6 Torsion [N]-CA--C-[N] |==|  0.37620
USER: genes 7 Torsion [C]-N--CA-[C] |==|  0.67561
USER: genes 8 Torsion [N]-CA--C-[N] |==|  0.38543
USER: genes 9 Torsion [C]-N--CA-[CB] |==|  0.73394
USER: genes 10 Torsion [N]-CA--CB-[CG] |==|  0.21775
USER: genes 11 Torsion [CA]-CB--CG-[ND2] |==|  0.24617
USER: genes 12 Torsion [N]-CA--C-[O] |==|  0.09557
USER: genes 13 Torsion [N]-CA--CB-[CG] |==|  0.48233
USER: genes 14 Torsion [CA]-CB--CG-[CD2] |==|  0.14886
USER: genes 15 Torsion [CE2]-CZ--OH-[HH] |==|  0.17730
USER: genes 16 Torsion [N]-C--CA-[N] |==|  0.45539
USER: genes 17 Torsion [C]-CA--N-[C] |==|  0.59186
USER: genes 18 Torsion [N]-C--CA-[N] |==|  0.21287
USER: genes 19 Torsion [N]-C--CA-[CB] |==|  0.73764
USER: genes 20 Torsion [C]-CA--CB-[CG] |==|  0.41294
USER: genes 21 Torsion [CA]-CB--CG-[CD] |==|  0.00144
USER: genes 22 Torsion [CB]-CG--CD-[NE] |==|  0.79695
USER: genes 23 Torsion [CG]-CD--NE-[CZ] |==|  0.76556
ROOT
ATOM      1  C   ARG B  14     -10.577 -29.483 -10.230  1.00 32.92 LIG 0.24  C 
ATOM      2 O    ARG B  14     -10.393 -30.597 -10.723  1.00 37.82 LIG-0.27  OA
ATOM      3  N   PRO B  15     -10.560 -28.355 -10.947  1.00 31.88 LIG-0.34  N 
ATOM      4  CA  PRO B  15     -10.355 -28.410 -12.397  1.00 30.79 LIG 0.18  C 
ATOM      5  CB  PRO B  15     -10.486 -26.960 -12.816  1.00 31.22 LIG 0.04  C 
ATOM      6  CG  PRO B  15     -11.429 -26.397 -11.801  1.00 29.82 LIG 0.02  C 
ATOM      7  CD  PRO B  15     -10.982 -27.013 -10.514  1.00 31.43 LIG 0.13  C 
ENDROOT
BRANCH 4 8
ATOM      8  C   PRO B  15      -8.961 -28.900 -12.697  1.00 33.68 LIG 0.24  C 
ATOM      9  N   ILE B  16      -8.058 -28.707 -11.755  1.00 35.41 LIG-0.35  N 
ATOM     10 H    ILE B  16      -8.202 -28.272 -11.027  1.00 35.41 LIG 0.16  HD
ATOM     11 O    PRO B  15      -8.700 -29.395 -13.783  1.00 34.05 LIG-0.27  OA
BRANCH 9 12
ATOM     12  CA  ILE B  16      -6.758 -29.218 -11.888  1.00 37.77 LIG 0.18  C 
BRANCH 12 13
ATOM     13  CB  ILE B  16      -6.764 -30.612 -12.495  1.00 42.27 LIG 0.01  C 
ATOM     14  CG2 ILE B  16      -5.362 -31.149 -12.555  1.00 44.80 LIG 0.01  C 
BRANCH 13 15
ATOM     15  CG1 ILE B  16      -7.697 -31.505 -11.658  1.00 47.53 LIG 0.00  C 
ATOM     16  CD1 ILE B  16      -7.664 -31.271 -10.151  1.00 51.74 LIG 0.01  C 
ENDBRANCH 13 15
ENDBRANCH 12 13
BRANCH 12 17
ATOM     17  C   ILE B  16      -6.022 -28.215 -12.716  1.00 42.33 LIG 0.24  C 
ATOM     18 O    ILE B  16      -6.535 -27.702 -13.672  1.00 39.29 LIG-0.27  OA
ATOM     19  N   TYR B  17      -4.813 -27.912 -12.283  1.00 46.96 LIG-0.35  N 
ATOM     20 H    TYR B  17      -4.411 -28.357 -11.667  1.00 46.96 LIG 0.16  HD
BRANCH 19 21
ATOM     21  CA  TYR B  17      -4.043 -26.812 -12.791  1.00 51.19 LIG 0.18  C 
BRANCH 21 22
ATOM     22  C   TYR B  17      -2.805 -27.319 -13.441  1.00 56.10 LIG 0.24  C 
ATOM     23  N   ASN B  18      -2.434 -26.752 -14.572  1.00 65.39 LIG-0.35  N 
ATOM     24 H    ASN B  18      -2.769 -26.021 -14.877  1.00 65.39 LIG 0.16  HD
ATOM     25 O    TYR B  17      -2.144 -28.175 -12.882  1.00 61.36 LIG-0.27  OA
BRANCH 23 26
ATOM     26  CA  ASN B  18      -1.388 -27.348 -15.419  1.00 70.74 LIG 0.17  C 
BRANCH 26 27
ATOM     27  CB  ASN B  18      -0.041 -26.685 -15.095  1.00 84.74 LIG 0.14  C 
BRANCH 27 28
ATOM     28  CG  ASN B  18       0.587 -27.227 -13.804  1.00 96.34 LIG 0.22  C 
ATOM     29 OD1  ASN B  18       0.378 -26.677 -12.712  1.00 99.44 LIG-0.27  OA
ATOM     30  ND2 ASN B  18       1.377 -28.301 -13.927  1.00 94.73 LIG-0.37  N 
ATOM     31 21HD ASN B  18       1.761 -28.634 -13.233  1.00 94.73 LIG 0.16  HD
ATOM     32 22HD ASN B  18       1.502 -28.658 -14.700  1.00 94.73 LIG 0.16  HD
ENDBRANCH 27 28
ENDBRANCH 26 27
BRANCH 26 33
ATOM     33  C   ASN B  18      -1.273 -28.891 -15.457  1.00 72.97 LIG 0.22  C 
ATOM     34 O    ASN B  18      -2.258 -29.638 -15.376  1.00 74.17 LIG-0.29  OA
ENDBRANCH 26 33
ENDBRANCH 23 26
ENDBRANCH 21 22
BRANCH 21 35
ATOM     35  CB  TYR B  17      -3.609 -25.956 -11.613  1.00 54.83 LIG 0.07  C 
BRANCH 35 36
ATOM     36  CG  TYR B  17      -2.682 -24.883 -12.039  1.00 56.96 LIG-0.06  A 
ATOM     37  CD2 TYR B  17      -3.045 -24.011 -13.072  1.00 61.26 LIG 0.01  A 
ATOM     38  CE2 TYR B  17      -2.193 -23.015 -13.492  1.00 70.21 LIG 0.04  A 
ATOM     39  CZ  TYR B  17      -0.957 -22.898 -12.882  1.00 76.40 LIG 0.07  A 
ATOM     40  CE1 TYR B  17      -0.572 -23.758 -11.859  1.00 67.10 LIG 0.04  A 
ATOM     41  CD1 TYR B  17      -1.442 -24.751 -11.450  1.00 57.92 LIG 0.01  A 
BRANCH 39 42
ATOM     42 OH   TYR B  17      -0.108 -21.917 -13.302  1.00 89.25 LIG-0.36  OA
ATOM     43 HH   TYR B  17      -0.449 -21.165 -13.144  1.00 89.25 LIG 0.22  HD
ENDBRANCH 39 42
ENDBRANCH 35 36
ENDBRANCH 21 35
ENDBRANCH 19 21
ENDBRANCH 12 17
ENDBRANCH 9 12
ENDBRANCH 4 8
BRANCH 1 44
ATOM     44  CA  ARG B  14     -10.785 -29.363  -8.750  1.00 32.45 LIG 0.18  C 
BRANCH 44 45
ATOM     45  N   ARG B  14     -11.138 -30.709  -8.356  1.00 38.19 LIG-0.35  N 
ATOM     46 H    ARG B  14     -10.750 -31.319  -8.823  1.00 38.19 LIG 0.16  HD
ATOM     47  C   PRO B  13     -11.985 -30.980  -7.359  1.00 38.91 LIG 0.24  C 
ATOM     48 O    PRO B  13     -12.521 -30.123  -6.686  1.00 32.88 LIG-0.27  OA
BRANCH 47 49
ATOM     49  CA  PRO B  13     -12.229 -32.473  -7.058  1.00 38.31 LIG 0.18  C 
ATOM     50  N   PRO B  13     -11.151 -33.111  -6.333  1.00 38.88 LIG-0.34  N 
ATOM     51  CD  PRO B  13     -11.650 -33.847  -5.162  1.00 43.50 LIG 0.13  C 
ATOM     52  C   PRO B  12      -9.859 -33.063  -6.695  1.00 40.77 LIG 0.26  C 
ATOM     53  CG  PRO B  13     -13.123 -33.903  -5.385  1.00 43.53 LIG 0.02  C 
ATOM     54  CB  PRO B  13     -13.432 -32.656  -6.132  1.00 39.91 LIG 0.04  C 
ATOM     55 O    PRO B  12      -9.458 -32.517  -7.734  1.00 44.45 LIG-0.27  OA
BRANCH 52 56
ATOM     56  CA  PRO B  12      -8.862 -33.716  -5.772  1.00 38.46 LIG 0.35  C 
ATOM     57  CB  PRO B  12      -8.296 -32.656  -4.824  1.00 43.42 LIG 0.05  C 
ATOM     58  CG  PRO B  12      -6.862 -32.971  -4.712  1.00 41.12 LIG 0.04  C 
ATOM     59  CD  PRO B  12      -6.469 -33.524  -6.051  1.00 39.74 LIG 0.32  C 
ATOM     60  N   PRO B  12      -7.711 -34.133  -6.536  1.00 38.12 LIG 0.32  N 
ENDBRANCH 52 56
ENDBRANCH 47 49
ENDBRANCH 44 45
BRANCH 44 61
ATOM     61  CB  ARG B  14      -9.451 -29.006  -8.088  1.00 34.42 LIG 0.04  C 
BRANCH 61 62
ATOM     62  CG  ARG B  14      -9.568 -28.150  -6.827  1.00 32.66 LIG 0.02  C 
BRANCH 62 63
ATOM     63  CD  ARG B  14     -11.031 -27.877  -6.542  1.00 35.24 LIG 0.14  C 
BRANCH 63 64
ATOM     64  NE  ARG B  14     -11.626 -26.908  -7.478  1.00 42.22 LIG-0.23  N 
ATOM     65  CZ  ARG B  14     -11.574 -25.578  -7.370  1.00 44.72 LIG 0.67  C 
ATOM     66  NH2 ARG B  14     -10.970 -24.988  -6.356  1.00 43.48 LIG-0.23  N 
ATOM     67  NH1 ARG B  14     -12.150 -24.826  -8.289  1.00 46.51 LIG-0.23  N 
ATOM     68 1HH2 ARG B  14     -10.598 -25.463  -5.742  1.00 43.48 LIG 0.17  HD
ATOM     69 2HH2 ARG B  14     -10.949 -24.130  -6.308  1.00 43.48 LIG 0.17  HD
ATOM     70 2HH1 ARG B  14     -12.120 -23.969  -8.225  1.00 46.51 LIG 0.17  HD
ATOM     71 1HH1 ARG B  14     -12.556 -25.193  -8.952  1.00 46.51 LIG 0.17  HD
ATOM     72 HE   ARG B  14     -12.047 -27.228  -8.157  1.00 42.22 LIG 0.18  HD
ENDBRANCH 63 64
ENDBRANCH 62 63
ENDBRANCH 61 62
ENDBRANCH 44 61
ENDBRANCH 1 44
TORSDOF 22
ENDMDL
MODEL 27
USER: ADFR SOLUTION from run 99
USER: SCORE 21.477387 LL:  -5.305 LR: -19.273 RR:   0.000 FEB: -12.711
USER: RMSD 12.680152
USER: SEED 98
USER: STATUS no improvement in best in 13 clusters for 5 generations
USER: GENES 24
USER: genes 0 Translation |==|  0.60530 0.48233 0.42066
USER: genes 1 Rotation |==|  0.31320 0.06294 0.34564 0.51598
USER: genes 2 Torsion [N]-CA--C-[O] |==|  0.83822
USER: genes 3 Torsion [C]-N--CA-[CB] |==|  0.40885
USER: genes 4 Torsion [N]-CA--CB-[CG2] |==|  0.60251
USER: genes 5 Torsion [CA]-CB--CG1-[CD1] |==|  0.37328
USER: genes 6 Torsion [N]-CA--C-[N] |==|  0.44819
USER: genes 7 Torsion [C]-N--CA-[C] |==|  0.46078
USER: genes 8 Torsion [N]-CA--C-[N] |==|  0.97618
USER: genes 9 Torsion [C]-N--CA-[CB] |==|  0.10667
USER: genes 10 Torsion [N]-CA--CB-[CG] |==|  0.60162
USER: genes 11 Torsion [CA]-CB--CG-[ND2] |==|  0.99825
USER: genes 12 Torsion [N]-CA--C-[O] |==|  0.09467
USER: genes 13 Torsion [N]-CA--CB-[CG] |==|  0.20317
USER: genes 14 Torsion [CA]-CB--CG-[CD2] |==|  0.33776
USER: genes 15 Torsion [CE2]-CZ--OH-[HH] |==|  0.89054
USER: genes 16 Torsion [N]-C--CA-[N] |==|  0.41050
USER: genes 17 Torsion [C]-CA--N-[C] |==|  0.77202
USER: genes 18 Torsion [N]-C--CA-[N] |==|  0.20960
USER: genes 19 Torsion [N]-C--CA-[CB] |==|  0.51721
USER: genes 20 Torsion [C]-CA--CB-[CG] |==|  0.50944
USER: genes 21 Torsion [CA]-CB--CG-[CD] |==|  0.73633
USER: genes 22 Torsion [CB]-CG--CD-[NE] |==|  0.87404
USER: genes 23 Torsion [CG]-CD--NE-[CZ] |==|  0.32611
ROOT
ATOM      1  C   ARG B  14      -7.080 -28.977 -14.135  1.00 32.92 LIG 0.24  C 
ATOM      2 O    ARG B  14      -8.282 -28.997 -14.404  1.00 37.82 LIG-0.27  OA
ATOM      3  N   PRO B  15      -6.562 -29.577 -13.059  1.00 31.88 LIG-0.34  N 
ATOM      4  CA  PRO B  15      -7.428 -30.338 -12.154  1.00 30.79 LIG 0.18  C 
ATOM      5  CB  PRO B  15      -6.452 -30.905 -11.143  1.00 31.22 LIG 0.04  C 
ATOM      6  CG  PRO B  15      -5.191 -31.052 -11.934  1.00 29.82 LIG 0.02  C 
ATOM      7  CD  PRO B  15      -5.139 -29.808 -12.761  1.00 31.43 LIG 0.13  C 
ENDROOT
BRANCH 4 8
ATOM      8  C   PRO B  15      -8.388 -29.404 -11.462  1.00 33.68 LIG 0.24  C 
ATOM      9  N   ILE B  16      -9.671 -29.619 -11.680  1.00 35.41 LIG-0.35  N 
ATOM     10 H    ILE B  16      -9.979 -30.206 -12.229  1.00 35.41 LIG 0.16  HD
ATOM     11 O    PRO B  15      -7.970 -28.475 -10.788  1.00 34.05 LIG-0.27  OA
BRANCH 9 12
ATOM     12  CA  ILE B  16     -10.651 -28.876 -11.002  1.00 37.77 LIG 0.18  C 
BRANCH 12 13
ATOM     13  CB  ILE B  16     -11.885 -28.660 -11.864  1.00 42.27 LIG 0.01  C 
ATOM     14  CG2 ILE B  16     -12.449 -27.290 -11.615  1.00 44.80 LIG 0.01  C 
BRANCH 13 15
ATOM     15  CG1 ILE B  16     -11.493 -28.873 -13.337  1.00 47.53 LIG 0.00  C 
ATOM     16  CD1 ILE B  16     -12.449 -29.728 -14.162  1.00 51.74 LIG 0.01  C 
ENDBRANCH 13 15
ENDBRANCH 12 13
BRANCH 12 17
ATOM     17  C   ILE B  16     -10.932 -29.644  -9.750  1.00 42.33 LIG 0.24  C 
ATOM     18 O    ILE B  16     -10.589 -30.787  -9.632  1.00 39.29 LIG-0.27  OA
ATOM     19  N   TYR B  17     -11.525 -28.953  -8.794  1.00 46.96 LIG-0.35  N 
ATOM     20 H    TYR B  17     -11.864 -28.173  -8.920  1.00 46.96 LIG 0.16  HD
BRANCH 19 21
ATOM     21  CA  TYR B  17     -11.667 -29.429  -7.447  1.00 51.19 LIG 0.18  C 
BRANCH 21 22
ATOM     22  C   TYR B  17     -12.059 -28.308  -6.553  1.00 56.10 LIG 0.24  C 
ATOM     23  N   ASN B  18     -12.041 -27.090  -7.059  1.00 65.39 LIG-0.35  N 
ATOM     24 H    ASN B  18     -11.964 -26.918  -7.898  1.00 65.39 LIG 0.16  HD
ATOM     25 O    TYR B  17     -12.449 -28.550  -5.426  1.00 61.36 LIG-0.27  OA
BRANCH 23 26
ATOM     26  CA  ASN B  18     -12.154 -25.902  -6.197  1.00 70.74 LIG 0.17  C 
BRANCH 26 27
ATOM     27  CB  ASN B  18     -11.367 -26.145  -4.901  1.00 84.74 LIG 0.14  C 
BRANCH 27 28
ATOM     28  CG  ASN B  18     -12.051 -25.530  -3.673  1.00 96.34 LIG 0.22  C 
ATOM     29 OD1  ASN B  18     -11.563 -25.657  -2.539  1.00 99.44 LIG-0.27  OA
ATOM     30  ND2 ASN B  18     -13.198 -24.874  -3.891  1.00 94.73 LIG-0.37  N 
ATOM     31 21HD ASN B  18     -13.624 -24.522  -3.232  1.00 94.73 LIG 0.16  HD
ATOM     32 22HD ASN B  18     -13.509 -24.804  -4.690  1.00 94.73 LIG 0.16  HD
ENDBRANCH 27 28
ENDBRANCH 26 27
BRANCH 26 33
ATOM     33  C   ASN B  18     -11.828 -24.521  -6.815  1.00 72.97 LIG 0.22  C 
ATOM     34 O    ASN B  18     -12.074 -24.242  -7.997  1.00 74.17 LIG-0.29  OA
ENDBRANCH 26 33
ENDBRANCH 23 26
ENDBRANCH 21 22
BRANCH 21 35
ATOM     35  CB  TYR B  17     -10.308 -29.920  -6.975  1.00 54.83 LIG 0.07  C 
BRANCH 35 36
ATOM     36  CG  TYR B  17      -9.391 -28.789  -6.707  1.00 56.96 LIG-0.06  A 
ATOM     37  CD2 TYR B  17      -8.827 -28.629  -5.435  1.00 61.26 LIG 0.01  A 
ATOM     38  CE2 TYR B  17      -7.982 -27.578  -5.160  1.00 70.21 LIG 0.04  A 
ATOM     39  CZ  TYR B  17      -7.709 -26.667  -6.165  1.00 76.40 LIG 0.07  A 
ATOM     40  CE1 TYR B  17      -8.263 -26.801  -7.433  1.00 67.10 LIG 0.04  A 
ATOM     41  CD1 TYR B  17      -9.108 -27.864  -7.689  1.00 57.92 LIG 0.01  A 
BRANCH 39 42
ATOM     42 OH   TYR B  17      -6.878 -25.620  -5.893  1.00 89.25 LIG-0.36  OA
ATOM     43 HH   TYR B  17      -7.036 -25.331  -5.120  1.00 89.25 LIG 0.22  HD
ENDBRANCH 39 42
ENDBRANCH 35 36
ENDBRANCH 21 35
ENDBRANCH 19 21
ENDBRANCH 12 17
ENDBRANCH 9 12
ENDBRANCH 4 8
BRANCH 1 44
ATOM     44  CA  ARG B  14      -6.145 -28.209 -15.021  1.00 32.45 LIG 0.18  C 
BRANCH 44 45
ATOM     45  N   ARG B  14      -6.724 -28.374 -16.335  1.00 38.19 LIG-0.35  N 
ATOM     46 H    ARG B  14      -7.211 -27.710 -16.585  1.00 38.19 LIG 0.16  HD
ATOM     47  C   PRO B  13      -6.523 -29.457 -17.091  1.00 38.91 LIG 0.24  C 
ATOM     48 O    PRO B  13      -5.824 -30.390 -16.750  1.00 32.88 LIG-0.27  OA
BRANCH 47 49
ATOM     49  CA  PRO B  13      -7.199 -29.458 -18.478  1.00 38.31 LIG 0.18  C 
ATOM     50  N   PRO B  13      -6.544 -28.610 -19.451  1.00 38.88 LIG-0.34  N 
ATOM     51  CD  PRO B  13      -6.292 -29.329 -20.709  1.00 43.50 LIG 0.13  C 
ATOM     52  C   PRO B  12      -6.228 -27.321 -19.247  1.00 40.77 LIG 0.26  C 
ATOM     53  CG  PRO B  13      -7.116 -30.563 -20.578  1.00 43.53 LIG 0.02  C 
ATOM     54  CB  PRO B  13      -7.135 -30.844 -19.119  1.00 39.91 LIG 0.04  C 
ATOM     55 O    PRO B  12      -6.526 -26.697 -18.217  1.00 44.45 LIG-0.27  OA
BRANCH 52 56
ATOM     56  CA  PRO B  12      -5.471 -26.616 -20.344  1.00 38.46 LIG 0.35  C 
ATOM     57  CB  PRO B  12      -5.077 -25.221 -19.857  1.00 43.42 LIG 0.05  C 
ATOM     58  CG  PRO B  12      -5.284 -24.339 -21.020  1.00 41.12 LIG 0.04  C 
ATOM     59  CD  PRO B  12      -6.452 -24.922 -21.759  1.00 39.74 LIG 0.32  C 
ATOM     60  N   PRO B  12      -6.367 -26.350 -21.443  1.00 38.12 LIG 0.32  N 
ENDBRANCH 52 56
ENDBRANCH 47 49
ENDBRANCH 44 45
BRANCH 44 61
ATOM     61  CB  ARG B  14      -6.218 -26.724 -14.651  1.00 34.42 LIG 0.04  C 
BRANCH 61 62
ATOM     62  CG  ARG B  14      -5.375 -25.800 -15.530  1.00 32.66 LIG 0.02  C 
BRANCH 62 63
ATOM     63  CD  ARG B  14      -4.032 -25.568 -14.867  1.00 35.24 LIG 0.14  C 
BRANCH 63 64
ATOM     64  NE  ARG B  14      -4.147 -25.271 -13.428  1.00 42.22 LIG-0.23  N 
ATOM     65  CZ  ARG B  14      -3.649 -26.009 -12.432  1.00 44.72 LIG 0.67  C 
ATOM     66  NH2 ARG B  14      -2.997 -27.132 -12.661  1.00 43.48 LIG-0.23  N 
ATOM     67  NH1 ARG B  14      -3.824 -25.619 -11.183  1.00 46.51 LIG-0.23  N 
ATOM     68 1HH2 ARG B  14      -2.883 -27.406 -13.469  1.00 43.48 LIG 0.17  HD
ATOM     69 2HH2 ARG B  14      -2.685 -27.590 -12.003  1.00 43.48 LIG 0.17  HD
ATOM     70 2HH1 ARG B  14      -3.506 -26.090 -10.537  1.00 46.51 LIG 0.17  HD
ATOM     71 1HH1 ARG B  14      -4.255 -24.895 -11.015  1.00 46.51 LIG 0.17  HD
ATOM     72 HE   ARG B  14      -4.574 -24.557 -13.209  1.00 42.22 LIG 0.18  HD
ENDBRANCH 63 64
ENDBRANCH 62 63
ENDBRANCH 61 62
ENDBRANCH 44 61
ENDBRANCH 1 44
TORSDOF 22
ENDMDL
MODEL 28
USER: ADFR SOLUTION from run 123
USER: SCORE 20.854205 LL:  -4.773 LR: -19.244 RR:   0.000 FEB: -12.682
USER: RMSD 6.154597
USER: SEED 122
USER: STATUS no improvement in best in 13 clusters for 5 generations
USER: GENES 24
USER: genes 0 Translation |==|  0.47248 0.52386 0.64114
USER: genes 1 Rotation |==|  0.29622 0.69905 0.85993 0.69825
USER: genes 2 Torsion [N]-CA--C-[O] |==|  0.71690
USER: genes 3 Torsion [C]-N--CA-[CB] |==|  0.31979
USER: genes 4 Torsion [N]-CA--CB-[CG2] |==|  0.62125
USER: genes 5 Torsion [CA]-CB--CG1-[CD1] |==|  0.41300
USER: genes 6 Torsion [N]-CA--C-[N] |==|  0.16273
USER: genes 7 Torsion [C]-N--CA-[C] |==|  0.12419
USER: genes 8 Torsion [N]-CA--C-[N] |==|  0.66557
USER: genes 9 Torsion [C]-N--CA-[CB] |==|  0.18161
USER: genes 10 Torsion [N]-CA--CB-[CG] |==|  0.55964
USER: genes 11 Torsion [CA]-CB--CG-[ND2] |==|  0.27370
USER: genes 12 Torsion [N]-CA--C-[O] |==|  0.24289
USER: genes 13 Torsion [N]-CA--CB-[CG] |==|  0.67208
USER: genes 14 Torsion [CA]-CB--CG-[CD2] |==|  0.02790
USER: genes 15 Torsion [CE2]-CZ--OH-[HH] |==|  0.88598
USER: genes 16 Torsion [N]-C--CA-[N] |==|  0.22778
USER: genes 17 Torsion [C]-CA--N-[C] |==|  0.14672
USER: genes 18 Torsion [N]-C--CA-[N] |==|  0.22976
USER: genes 19 Torsion [N]-C--CA-[CB] |==|  0.53419
USER: genes 20 Torsion [C]-CA--CB-[CG] |==|  0.42249
USER: genes 21 Torsion [CA]-CB--CG-[CD] |==|  0.08352
USER: genes 22 Torsion [CB]-CG--CD-[NE] |==|  0.23662
USER: genes 23 Torsion [CG]-CD--NE-[CZ] |==|  0.40764
ROOT
ATOM      1  C   ARG B  14     -10.068 -28.199  -8.016  1.00 32.92 LIG 0.24  C 
ATOM      2 O    ARG B  14      -9.483 -27.658  -8.957  1.00 37.82 LIG-0.27  OA
ATOM      3  N   PRO B  15     -10.133 -29.524  -7.861  1.00 31.88 LIG-0.34  N 
ATOM      4  CA  PRO B  15      -9.454 -30.409  -8.812  1.00 30.79 LIG 0.18  C 
ATOM      5  CB  PRO B  15      -9.705 -31.787  -8.235  1.00 31.22 LIG 0.04  C 
ATOM      6  CG  PRO B  15      -9.807 -31.528  -6.766  1.00 29.82 LIG 0.02  C 
ATOM      7  CD  PRO B  15     -10.602 -30.265  -6.678  1.00 31.43 LIG 0.13  C 
ENDROOT
BRANCH 4 8
ATOM      8  C   PRO B  15     -10.107 -30.300 -10.166  1.00 33.68 LIG 0.24  C 
ATOM      9  N   ILE B  16      -9.839 -29.209 -10.857  1.00 35.41 LIG-0.35  N 
ATOM     10 H    ILE B  16      -9.377 -28.547 -10.560  1.00 35.41 LIG 0.16  HD
ATOM     11 O    PRO B  15     -10.880 -31.164 -10.552  1.00 34.05 LIG-0.27  OA
BRANCH 9 12
ATOM     12  CA  ILE B  16     -10.309 -29.055 -12.171  1.00 37.77 LIG 0.18  C 
BRANCH 12 13
ATOM     13  CB  ILE B  16     -11.303 -27.909 -12.280  1.00 42.27 LIG 0.01  C 
ATOM     14  CG2 ILE B  16     -12.472 -28.325 -13.126  1.00 44.80 LIG 0.01  C 
BRANCH 13 15
ATOM     15  CG1 ILE B  16     -11.727 -27.497 -10.859  1.00 47.53 LIG 0.00  C 
ATOM     16  CD1 ILE B  16     -12.073 -26.023 -10.670  1.00 51.74 LIG 0.01  C 
ENDBRANCH 13 15
ENDBRANCH 12 13
BRANCH 12 17
ATOM     17  C   ILE B  16      -9.085 -28.857 -13.007  1.00 42.33 LIG 0.24  C 
ATOM     18 O    ILE B  16      -8.917 -27.849 -13.634  1.00 39.29 LIG-0.27  OA
ATOM     19  N   TYR B  17      -8.207 -29.841 -12.951  1.00 46.96 LIG-0.35  N 
ATOM     20 H    TYR B  17      -8.378 -30.603 -12.590  1.00 46.96 LIG 0.16  HD
BRANCH 19 21
ATOM     21  CA  TYR B  17      -6.877 -29.745 -13.484  1.00 51.19 LIG 0.18  C 
BRANCH 21 22
ATOM     22  C   TYR B  17      -6.271 -28.443 -13.100  1.00 56.10 LIG 0.24  C 
ATOM     23  N   ASN B  18      -5.895 -27.636 -14.073  1.00 65.39 LIG-0.35  N 
ATOM     24 H    ASN B  18      -6.109 -27.743 -14.898  1.00 65.39 LIG 0.16  HD
ATOM     25 O    TYR B  17      -6.209 -28.135 -11.924  1.00 61.36 LIG-0.27  OA
BRANCH 23 26
ATOM     26  CA  ASN B  18      -5.055 -26.456 -13.806  1.00 70.74 LIG 0.17  C 
BRANCH 26 27
ATOM     27  CB  ASN B  18      -3.677 -26.922 -13.313  1.00 84.74 LIG 0.14  C 
BRANCH 27 28
ATOM     28  CG  ASN B  18      -2.933 -25.833 -12.528  1.00 96.34 LIG 0.22  C 
ATOM     29 OD1  ASN B  18      -2.296 -24.946 -13.116  1.00 99.44 LIG-0.27  OA
ATOM     30  ND2 ASN B  18      -2.997 -25.906 -11.193  1.00 94.73 LIG-0.37  N 
ATOM     31 21HD ASN B  18      -2.586 -25.325 -10.711  1.00 94.73 LIG 0.16  HD
ATOM     32 22HD ASN B  18      -3.448 -26.535 -10.817  1.00 94.73 LIG 0.16  HD
ENDBRANCH 27 28
ENDBRANCH 26 27
BRANCH 26 33
ATOM     33  C   ASN B  18      -4.934 -25.383 -14.915  1.00 72.97 LIG 0.22  C 
ATOM     34 O    ASN B  18      -5.736 -24.444 -15.028  1.00 74.17 LIG-0.29  OA
ENDBRANCH 26 33
ENDBRANCH 23 26
ENDBRANCH 21 22
BRANCH 21 35
ATOM     35  CB  TYR B  17      -6.976 -29.761 -15.000  1.00 54.83 LIG 0.07  C 
BRANCH 35 36
ATOM     36  CG  TYR B  17      -6.276 -30.933 -15.573  1.00 56.96 LIG-0.06  A 
ATOM     37  CD2 TYR B  17      -5.818 -31.956 -14.735  1.00 61.26 LIG 0.01  A 
ATOM     38  CE2 TYR B  17      -5.153 -33.048 -15.245  1.00 70.21 LIG 0.04  A 
ATOM     39  CZ  TYR B  17      -4.930 -33.110 -16.610  1.00 76.40 LIG 0.07  A 
ATOM     40  CE1 TYR B  17      -5.368 -32.102 -17.461  1.00 67.10 LIG 0.04  A 
ATOM     41  CD1 TYR B  17      -6.035 -31.014 -16.928  1.00 57.92 LIG 0.01  A 
BRANCH 39 42
ATOM     42 OH   TYR B  17      -4.264 -34.188 -17.117  1.00 89.25 LIG-0.36  OA
ATOM     43 HH   TYR B  17      -3.626 -34.387 -16.608  1.00 89.25 LIG 0.22  HD
ENDBRANCH 39 42
ENDBRANCH 35 36
ENDBRANCH 21 35
ENDBRANCH 19 21
ENDBRANCH 12 17
ENDBRANCH 9 12
ENDBRANCH 4 8
BRANCH 1 44
ATOM     44  CA  ARG B  14     -10.787 -27.344  -7.015  1.00 32.45 LIG 0.18  C 
BRANCH 44 45
ATOM     45  N   ARG B  14      -9.860 -27.279  -5.908  1.00 38.19 LIG-0.35  N 
ATOM     46 H    ARG B  14     -10.206 -27.503  -5.154  1.00 38.19 LIG 0.16  HD
ATOM     47  C   PRO B  13      -8.584 -26.907  -6.045  1.00 38.91 LIG 0.24  C 
ATOM     48 O    PRO B  13      -8.087 -26.607  -7.112  1.00 32.88 LIG-0.27  OA
BRANCH 47 49
ATOM     49  CA  PRO B  13      -7.728 -26.917  -4.762  1.00 38.31 LIG 0.18  C 
ATOM     50  N   PRO B  13      -7.196 -28.219  -4.420  1.00 38.88 LIG-0.34  N 
ATOM     51  CD  PRO B  13      -5.751 -28.159  -4.157  1.00 43.50 LIG 0.13  C 
ATOM     52  C   PRO B  12      -7.930 -29.339  -4.326  1.00 40.77 LIG 0.26  C 
ATOM     53  CG  PRO B  13      -5.477 -26.699  -4.035  1.00 43.53 LIG 0.02  C 
ATOM     54  CB  PRO B  13      -6.475 -26.059  -4.932  1.00 39.91 LIG 0.04  C 
ATOM     55 O    PRO B  12      -9.163 -29.364  -4.460  1.00 44.45 LIG-0.27  OA
BRANCH 52 56
ATOM     56  CA  PRO B  12      -7.192 -30.623  -4.042  1.00 38.46 LIG 0.35  C 
ATOM     57  CB  PRO B  12      -8.139 -31.802  -4.276  1.00 43.42 LIG 0.05  C 
ATOM     58  CG  PRO B  12      -7.848 -32.747  -3.185  1.00 41.12 LIG 0.04  C 
ATOM     59  CD  PRO B  12      -7.475 -31.895  -2.008  1.00 39.74 LIG 0.32  C 
ATOM     60  N   PRO B  12      -6.901 -30.700  -2.631  1.00 38.12 LIG 0.32  N 
ENDBRANCH 52 56
ENDBRANCH 47 49
ENDBRANCH 44 45
BRANCH 44 61
ATOM     61  CB  ARG B  14     -10.945 -25.932  -7.589  1.00 34.42 LIG 0.04  C 
BRANCH 61 62
ATOM     62  CG  ARG B  14     -12.157 -25.159  -7.070  1.00 32.66 LIG 0.02  C 
BRANCH 62 63
ATOM     63  CD  ARG B  14     -12.472 -25.612  -5.659  1.00 35.24 LIG 0.14  C 
BRANCH 63 64
ATOM     64  NE  ARG B  14     -11.684 -24.898  -4.639  1.00 42.22 LIG-0.23  N 
ATOM     65  CZ  ARG B  14     -12.094 -24.583  -3.408  1.00 44.72 LIG 0.67  C 
ATOM     66  NH2 ARG B  14     -13.308 -24.880  -2.985  1.00 43.48 LIG-0.23  N 
ATOM     67  NH1 ARG B  14     -11.277 -23.943  -2.593  1.00 46.51 LIG-0.23  N 
ATOM     68 1HH2 ARG B  14     -13.857 -25.288  -3.507  1.00 43.48 LIG 0.17  HD
ATOM     69 2HH2 ARG B  14     -13.549 -24.667  -2.188  1.00 43.48 LIG 0.17  HD
ATOM     70 2HH1 ARG B  14     -11.535 -23.736  -1.799  1.00 46.51 LIG 0.17  HD
ATOM     71 1HH1 ARG B  14     -10.485 -23.732  -2.855  1.00 46.51 LIG 0.17  HD
ATOM     72 HE   ARG B  14     -10.885 -24.663  -4.856  1.00 42.22 LIG 0.18  HD
ENDBRANCH 63 64
ENDBRANCH 62 63
ENDBRANCH 61 62
ENDBRANCH 44 61
ENDBRANCH 1 44
TORSDOF 22
ENDMDL
MODEL 29
USER: ADFR SOLUTION from run 3
USER: SCORE 22.883707 LL:  -4.806 LR: -19.162 RR:   0.000 FEB: -12.599
USER: RMSD 3.839901
USER: SEED 140896
USER: STATUS no improvement in best in 20 clusters for 5 generations
USER: GENES 24
USER: genes 0 Translation |==|  0.48356 0.49173 0.58041
USER: genes 1 Rotation |==|  0.52434 0.46479 0.42979 0.99319
USER: genes 2 Torsion [N]-CA--C-[O] |==|  0.88323
USER: genes 3 Torsion [C]-N--CA-[CB] |==|  0.51217
USER: genes 4 Torsion [N]-CA--CB-[CG2] |==|  0.18888
USER: genes 5 Torsion [CA]-CB--CG1-[CD1] |==|  0.14015
USER: genes 6 Torsion [N]-CA--C-[N] |==|  0.36924
USER: genes 7 Torsion [C]-N--CA-[C] |==|  0.66936
USER: genes 8 Torsion [N]-CA--C-[N] |==|  0.90522
USER: genes 9 Torsion [C]-N--CA-[CB] |==|  0.75475
USER: genes 10 Torsion [N]-CA--CB-[CG] |==|  0.68614
USER: genes 11 Torsion [CA]-CB--CG-[ND2] |==|  0.33118
USER: genes 12 Torsion [N]-CA--C-[O] |==|  0.23013
USER: genes 13 Torsion [N]-CA--CB-[CG] |==|  0.44938
USER: genes 14 Torsion [CA]-CB--CG-[CD2] |==|  0.68374
USER: genes 15 Torsion [CE2]-CZ--OH-[HH] |==|  0.55939
USER: genes 16 Torsion [N]-C--CA-[N] |==|  0.47773
USER: genes 17 Torsion [C]-CA--N-[C] |==|  0.77311
USER: genes 18 Torsion [N]-C--CA-[N] |==|  0.46116
USER: genes 19 Torsion [N]-C--CA-[CB] |==|  0.62291
USER: genes 20 Torsion [C]-CA--CB-[CG] |==|  0.48805
USER: genes 21 Torsion [CA]-CB--CG-[CD] |==|  0.87403
USER: genes 22 Torsion [CB]-CG--CD-[NE] |==|  0.54902
USER: genes 23 Torsion [CG]-CD--NE-[CZ] |==|  0.69291
ROOT
ATOM      1  C   ARG B  14      -9.819 -28.801  -9.702  1.00 32.92 LIG 0.24  C 
ATOM      2 O    ARG B  14      -9.340 -29.937  -9.720  1.00 37.82 LIG-0.27  OA
ATOM      3  N   PRO B  15      -9.913 -28.031 -10.789  1.00 31.88 LIG-0.34  N 
ATOM      4  CA  PRO B  15      -9.472 -28.541 -12.091  1.00 30.79 LIG 0.18  C 
ATOM      5  CB  PRO B  15      -9.821 -27.410 -13.037  1.00 31.22 LIG 0.04  C 
ATOM      6  CG  PRO B  15     -11.007 -26.774 -12.384  1.00 29.82 LIG 0.02  C 
ATOM      7  CD  PRO B  15     -10.657 -26.769 -10.931  1.00 31.43 LIG 0.13  C 
ENDROOT
BRANCH 4 8
ATOM      8  C   PRO B  15      -7.979 -28.749 -12.079  1.00 33.68 LIG 0.24  C 
ATOM      9  N   ILE B  16      -7.543 -29.880 -12.598  1.00 35.41 LIG-0.35  N 
ATOM     10 H    ILE B  16      -8.053 -30.515 -12.878  1.00 35.41 LIG 0.16  HD
ATOM     11 O    PRO B  15      -7.244 -27.922 -11.560  1.00 34.05 LIG-0.27  OA
BRANCH 9 12
ATOM     12  CA  ILE B  16      -6.168 -30.127 -12.734  1.00 37.77 LIG 0.18  C 
BRANCH 12 13
ATOM     13  CB  ILE B  16      -5.903 -31.441 -13.452  1.00 42.27 LIG 0.01  C 
ATOM     14  CG2 ILE B  16      -6.336 -31.336 -14.886  1.00 44.80 LIG 0.01  C 
BRANCH 13 15
ATOM     15  CG1 ILE B  16      -4.408 -31.779 -13.315  1.00 47.53 LIG 0.00  C 
ATOM     16  CD1 ILE B  16      -3.841 -31.721 -11.901  1.00 51.74 LIG 0.01  C 
ENDBRANCH 13 15
ENDBRANCH 12 13
BRANCH 12 17
ATOM     17  C   ILE B  16      -5.623 -28.938 -13.457  1.00 42.33 LIG 0.24  C 
ATOM     18 O    ILE B  16      -6.187 -28.478 -14.410  1.00 39.29 LIG-0.27  OA
ATOM     19  N   TYR B  17      -4.526 -28.421 -12.935  1.00 46.96 LIG-0.35  N 
ATOM     20 H    TYR B  17      -4.068 -28.815 -12.322  1.00 46.96 LIG 0.16  HD
BRANCH 19 21
ATOM     21  CA  TYR B  17      -3.982 -27.153 -13.331  1.00 51.19 LIG 0.18  C 
BRANCH 21 22
ATOM     22  C   TYR B  17      -2.614 -27.340 -13.883  1.00 56.10 LIG 0.24  C 
ATOM     23  N   ASN B  18      -1.868 -28.290 -13.356  1.00 65.39 LIG-0.35  N 
ATOM     24 H    ASN B  18      -2.166 -28.898 -12.826  1.00 65.39 LIG 0.16  HD
ATOM     25 O    TYR B  17      -2.258 -26.672 -14.837  1.00 61.36 LIG-0.27  OA
BRANCH 23 26
ATOM     26  CA  ASN B  18      -0.428 -28.382 -13.645  1.00 70.74 LIG 0.17  C 
BRANCH 26 27
ATOM     27  CB  ASN B  18      -0.221 -29.232 -14.907  1.00 84.74 LIG 0.14  C 
BRANCH 27 28
ATOM     28  CG  ASN B  18       0.485 -30.562 -14.613  1.00 96.34 LIG 0.22  C 
ATOM     29 OD1  ASN B  18       1.632 -30.584 -14.141  1.00 99.44 LIG-0.27  OA
ATOM     30  ND2 ASN B  18      -0.192 -31.679 -14.908  1.00 94.73 LIG-0.37  N 
ATOM     31 21HD ASN B  18       0.167 -32.448 -14.771  1.00 94.73 LIG 0.16  HD
ATOM     32 22HD ASN B  18      -0.986 -31.627 -15.234  1.00 94.73 LIG 0.16  HD
ENDBRANCH 27 28
ENDBRANCH 26 27
BRANCH 26 33
ATOM     33  C   ASN B  18       0.388 -27.068 -13.699  1.00 72.97 LIG 0.22  C 
ATOM     34 O    ASN B  18       0.832 -26.513 -12.683  1.00 74.17 LIG-0.29  OA
ENDBRANCH 26 33
ENDBRANCH 23 26
ENDBRANCH 21 22
BRANCH 21 35
ATOM     35  CB  TYR B  17      -3.847 -26.290 -12.088  1.00 54.83 LIG 0.07  C 
BRANCH 35 36
ATOM     36  CG  TYR B  17      -2.916 -25.161 -12.315  1.00 56.96 LIG-0.06  A 
ATOM     37  CD2 TYR B  17      -1.703 -25.100 -11.620  1.00 61.26 LIG 0.01  A 
ATOM     38  CE2 TYR B  17      -0.829 -24.054 -11.806  1.00 70.21 LIG 0.04  A 
ATOM     39  CZ  TYR B  17      -1.179 -23.047 -12.688  1.00 76.40 LIG 0.07  A 
ATOM     40  CE1 TYR B  17      -2.382 -23.081 -13.383  1.00 67.10 LIG 0.04  A 
ATOM     41  CD1 TYR B  17      -3.246 -24.142 -13.183  1.00 57.92 LIG 0.01  A 
BRANCH 39 42
ATOM     42 OH   TYR B  17      -0.318 -22.004 -12.868  1.00 89.25 LIG-0.36  OA
ATOM     43 HH   TYR B  17      -0.738 -21.343 -13.172  1.00 89.25 LIG 0.22  HD
ENDBRANCH 39 42
ENDBRANCH 35 36
ENDBRANCH 21 35
ENDBRANCH 19 21
ENDBRANCH 12 17
ENDBRANCH 9 12
ENDBRANCH 4 8
BRANCH 1 44
ATOM     44  CA  ARG B  14     -10.280 -28.223  -8.397  1.00 32.45 LIG 0.18  C 
BRANCH 44 45
ATOM     45  N   ARG B  14     -10.227 -29.353  -7.497  1.00 38.19 LIG-0.35  N 
ATOM     46 H    ARG B  14      -9.515 -29.379  -7.016  1.00 38.19 LIG 0.16  HD
ATOM     47  C   PRO B  13     -11.194 -30.272  -7.421  1.00 38.91 LIG 0.24  C 
ATOM     48 O    PRO B  13     -12.209 -30.230  -8.086  1.00 32.88 LIG-0.27  OA
BRANCH 47 49
ATOM     49  CA  PRO B  13     -10.986 -31.399  -6.388  1.00 38.31 LIG 0.18  C 
ATOM     50  N   PRO B  13     -12.177 -32.174  -6.116  1.00 38.88 LIG-0.34  N 
ATOM     51  CD  PRO B  13     -11.917 -33.618  -6.219  1.00 43.50 LIG 0.13  C 
ATOM     52  C   PRO B  12     -13.366 -31.648  -5.781  1.00 40.77 LIG 0.26  C 
ATOM     53  CG  PRO B  13     -10.429 -33.704  -6.250  1.00 43.53 LIG 0.02  C 
ATOM     54  CB  PRO B  13      -9.999 -32.443  -6.909  1.00 39.91 LIG 0.04  C 
ATOM     55 O    PRO B  12     -13.555 -30.434  -5.607  1.00 44.45 LIG-0.27  OA
BRANCH 52 56
ATOM     56  CA  PRO B  12     -14.520 -32.605  -5.616  1.00 38.46 LIG 0.35  C 
ATOM     57  CB  PRO B  12     -15.753 -32.021  -6.308  1.00 43.42 LIG 0.05  C 
ATOM     58  CG  PRO B  12     -16.877 -32.328  -5.407  1.00 41.12 LIG 0.04  C 
ATOM     59  CD  PRO B  12     -16.304 -32.273  -4.021  1.00 39.74 LIG 0.32  C 
ATOM     60  N   PRO B  12     -14.903 -32.650  -4.226  1.00 38.12 LIG 0.32  N 
ENDBRANCH 52 56
ENDBRANCH 47 49
ENDBRANCH 44 45
BRANCH 44 61
ATOM     61  CB  ARG B  14      -9.255 -27.188  -7.922  1.00 34.42 LIG 0.04  C 
BRANCH 61 62
ATOM     62  CG  ARG B  14      -9.643 -26.436  -6.650  1.00 32.66 LIG 0.02  C 
BRANCH 62 63
ATOM     63  CD  ARG B  14     -11.090 -25.997  -6.750  1.00 35.24 LIG 0.14  C 
BRANCH 63 64
ATOM     64  NE  ARG B  14     -11.435 -24.934  -5.790  1.00 42.22 LIG-0.23  N 
ATOM     65  CZ  ARG B  14     -12.234 -25.063  -4.728  1.00 44.72 LIG 0.67  C 
ATOM     66  NH2 ARG B  14     -12.829 -26.206  -4.444  1.00 43.48 LIG-0.23  N 
ATOM     67  NH1 ARG B  14     -12.453 -24.023  -3.946  1.00 46.51 LIG-0.23  N 
ATOM     68 1HH2 ARG B  14     -12.705 -26.892  -4.949  1.00 43.48 LIG 0.17  HD
ATOM     69 2HH2 ARG B  14     -13.339 -26.266  -3.754  1.00 43.48 LIG 0.17  HD
ATOM     70 2HH1 ARG B  14     -12.967 -24.100  -3.261  1.00 46.51 LIG 0.17  HD
ATOM     71 1HH1 ARG B  14     -12.082 -23.267  -4.121  1.00 46.51 LIG 0.17  HD
ATOM     72 HE   ARG B  14     -11.090 -24.157  -5.926  1.00 42.22 LIG 0.18  HD
ENDBRANCH 63 64
ENDBRANCH 62 63
ENDBRANCH 61 62
ENDBRANCH 44 61
ENDBRANCH 1 44
TORSDOF 22
ENDMDL
MODEL 30
USER: ADFR SOLUTION from run 57
USER: SCORE 22.257774 LL:  -4.951 LR: -19.132 RR:   0.000 FEB: -12.569
USER: RMSD 12.752822
USER: SEED 56
USER: STATUS no improvement in best in 21 clusters for 5 generations
USER: GENES 24
USER: genes 0 Translation |==|  0.61093 0.47044 0.41286
USER: genes 1 Rotation |==|  0.30767 0.06763 0.34873 0.55645
USER: genes 2 Torsion [N]-CA--C-[O] |==|  0.86111
USER: genes 3 Torsion [C]-N--CA-[CB] |==|  0.36728
USER: genes 4 Torsion [N]-CA--CB-[CG2] |==|  0.55648
USER: genes 5 Torsion [CA]-CB--CG1-[CD1] |==|  0.80242
USER: genes 6 Torsion [N]-CA--C-[N] |==|  0.44481
USER: genes 7 Torsion [C]-N--CA-[C] |==|  0.77850
USER: genes 8 Torsion [N]-CA--C-[N] |==|  0.40754
USER: genes 9 Torsion [C]-N--CA-[CB] |==|  0.43261
USER: genes 10 Torsion [N]-CA--CB-[CG] |==|  0.46871
USER: genes 11 Torsion [CA]-CB--CG-[ND2] |==|  0.14920
USER: genes 12 Torsion [N]-CA--C-[O] |==|  0.20128
USER: genes 13 Torsion [N]-CA--CB-[CG] |==|  0.84913
USER: genes 14 Torsion [CA]-CB--CG-[CD2] |==|  0.72275
USER: genes 15 Torsion [CE2]-CZ--OH-[HH] |==|  0.21705
USER: genes 16 Torsion [N]-C--CA-[N] |==|  0.38092
USER: genes 17 Torsion [C]-CA--N-[C] |==|  0.76641
USER: genes 18 Torsion [N]-C--CA-[N] |==|  0.22576
USER: genes 19 Torsion [N]-C--CA-[CB] |==|  0.51549
USER: genes 20 Torsion [C]-CA--CB-[CG] |==|  0.43684
USER: genes 21 Torsion [CA]-CB--CG-[CD] |==|  0.70525
USER: genes 22 Torsion [CB]-CG--CD-[NE] |==|  0.14165
USER: genes 23 Torsion [CG]-CD--NE-[CZ] |==|  0.56668
ROOT
ATOM      1  C   ARG B  14      -6.953 -29.200 -14.351  1.00 32.92 LIG 0.24  C 
ATOM      2 O    ARG B  14      -8.182 -29.239 -14.434  1.00 37.82 LIG-0.27  OA
ATOM      3  N   PRO B  15      -6.264 -29.841 -13.403  1.00 31.88 LIG-0.34  N 
ATOM      4  CA  PRO B  15      -6.966 -30.673 -12.420  1.00 30.79 LIG 0.18  C 
ATOM      5  CB  PRO B  15      -5.835 -31.265 -11.604  1.00 31.22 LIG 0.04  C 
ATOM      6  CG  PRO B  15      -4.708 -31.334 -12.584  1.00 29.82 LIG 0.02  C 
ATOM      7  CD  PRO B  15      -4.808 -30.048 -13.338  1.00 31.43 LIG 0.13  C 
ENDROOT
BRANCH 4 8
ATOM      8  C   PRO B  15      -7.826 -29.804 -11.539  1.00 33.68 LIG 0.24  C 
ATOM      9  N   ILE B  16      -9.096 -30.149 -11.439  1.00 35.41 LIG-0.35  N 
ATOM     10 H    ILE B  16      -9.463 -30.785 -11.887  1.00 35.41 LIG 0.16  HD
ATOM     11 O    PRO B  15      -7.359 -28.811 -11.003  1.00 34.05 LIG-0.27  OA
BRANCH 9 12
ATOM     12  CA  ILE B  16      -9.960 -29.473 -10.563  1.00 37.77 LIG 0.18  C 
BRANCH 12 13
ATOM     13  CB  ILE B  16     -11.263 -29.090 -11.246  1.00 42.27 LIG 0.01  C 
ATOM     14  CG2 ILE B  16     -11.931 -27.979 -10.488  1.00 44.80 LIG 0.01  C 
BRANCH 13 15
ATOM     15  CG1 ILE B  16     -10.953 -28.699 -12.702  1.00 47.53 LIG 0.00  C 
ATOM     16  CD1 ILE B  16     -10.218 -27.377 -12.894  1.00 51.74 LIG 0.01  C 
ENDBRANCH 13 15
ENDBRANCH 12 13
BRANCH 12 17
ATOM     17  C   ILE B  16     -10.149 -30.398  -9.404  1.00 42.33 LIG 0.24  C 
ATOM     18 O    ILE B  16      -9.877 -31.563  -9.489  1.00 39.29 LIG-0.27  OA
ATOM     19  N   TYR B  17     -10.578 -29.824  -8.296  1.00 46.96 LIG-0.35  N 
ATOM     20 H    TYR B  17     -10.873 -29.017  -8.270  1.00 46.96 LIG 0.16  HD
BRANCH 19 21
ATOM     21  CA  TYR B  17     -10.599 -30.483  -7.021  1.00 51.19 LIG 0.18  C 
BRANCH 21 22
ATOM     22  C   TYR B  17     -11.784 -31.377  -6.933  1.00 56.10 LIG 0.24  C 
ATOM     23  N   ASN B  18     -11.658 -32.490  -6.238  1.00 65.39 LIG-0.35  N 
ATOM     24 H    ASN B  18     -10.996 -32.660  -5.716  1.00 65.39 LIG 0.16  HD
ATOM     25 O    TYR B  17     -12.837 -31.025  -7.433  1.00 61.36 LIG-0.27  OA
BRANCH 23 26
ATOM     26  CA  ASN B  18     -12.672 -33.555  -6.308  1.00 70.74 LIG 0.17  C 
BRANCH 26 27
ATOM     27  CB  ASN B  18     -12.021 -34.895  -5.933  1.00 84.74 LIG 0.14  C 
BRANCH 27 28
ATOM     28  CG  ASN B  18     -13.052 -36.009  -5.711  1.00 96.34 LIG 0.22  C 
ATOM     29 OD1  ASN B  18     -13.054 -36.678  -4.666  1.00 99.44 LIG-0.27  OA
ATOM     30  ND2 ASN B  18     -13.925 -36.225  -6.703  1.00 94.73 LIG-0.37  N 
ATOM     31 21HD ASN B  18     -14.514 -36.846  -6.630  1.00 94.73 LIG 0.16  HD
ATOM     32 22HD ASN B  18     -13.896 -35.742  -7.414  1.00 94.73 LIG 0.16  HD
ENDBRANCH 27 28
ENDBRANCH 26 27
BRANCH 26 33
ATOM     33  C   ASN B  18     -14.009 -33.338  -5.560  1.00 72.97 LIG 0.22  C 
ATOM     34 O    ASN B  18     -14.873 -32.540  -5.951  1.00 74.17 LIG-0.29  OA
ENDBRANCH 26 33
ENDBRANCH 23 26
ENDBRANCH 21 22
BRANCH 21 35
ATOM     35  CB  TYR B  17     -10.760 -29.422  -5.945  1.00 54.83 LIG 0.07  C 
BRANCH 35 36
ATOM     36  CG  TYR B  17      -9.719 -28.375  -6.061  1.00 56.96 LIG-0.06  A 
ATOM     37  CD2 TYR B  17      -8.595 -28.408  -5.228  1.00 61.26 LIG 0.01  A 
ATOM     38  CE2 TYR B  17      -7.622 -27.439  -5.309  1.00 70.21 LIG 0.04  A 
ATOM     39  CZ  TYR B  17      -7.782 -26.414  -6.226  1.00 76.40 LIG 0.07  A 
ATOM     40  CE1 TYR B  17      -8.894 -26.356  -7.058  1.00 67.10 LIG 0.04  A 
ATOM     41  CD1 TYR B  17      -9.860 -27.341  -6.961  1.00 57.92 LIG 0.01  A 
BRANCH 39 42
ATOM     42 OH   TYR B  17      -6.823 -25.448  -6.303  1.00 89.25 LIG-0.36  OA
ATOM     43 HH   TYR B  17      -6.164 -25.741  -6.734  1.00 89.25 LIG 0.22  HD
ENDBRANCH 39 42
ENDBRANCH 35 36
ENDBRANCH 21 35
ENDBRANCH 19 21
ENDBRANCH 12 17
ENDBRANCH 9 12
ENDBRANCH 4 8
BRANCH 1 44
ATOM     44  CA  ARG B  14      -6.181 -28.360 -15.325  1.00 32.45 LIG 0.18  C 
BRANCH 44 45
ATOM     45  N   ARG B  14      -6.796 -28.676 -16.594  1.00 38.19 LIG-0.35  N 
ATOM     46 H    ARG B  14      -7.402 -28.114 -16.834  1.00 38.19 LIG 0.16  HD
ATOM     47  C   PRO B  13      -6.455 -29.739 -17.327  1.00 38.91 LIG 0.24  C 
ATOM     48 O    PRO B  13      -5.588 -30.525 -17.001  1.00 32.88 LIG-0.27  OA
BRANCH 47 49
ATOM     49  CA  PRO B  13      -7.198 -29.911 -18.668  1.00 38.31 LIG 0.18  C 
ATOM     50  N   PRO B  13      -6.666 -29.101 -19.743  1.00 38.88 LIG-0.34  N 
ATOM     51  CD  PRO B  13      -6.419 -29.902 -20.951  1.00 43.50 LIG 0.13  C 
ATOM     52  C   PRO B  12      -6.449 -27.778 -19.662  1.00 40.77 LIG 0.26  C 
ATOM     53  CG  PRO B  13      -7.130 -31.182 -20.673  1.00 43.53 LIG 0.02  C 
ATOM     54  CB  PRO B  13      -7.051 -31.338 -19.197  1.00 39.91 LIG 0.04  C 
ATOM     55 O    PRO B  12      -6.746 -27.094 -18.671  1.00 44.45 LIG-0.27  OA
BRANCH 52 56
ATOM     56  CA  PRO B  12      -5.809 -27.113 -20.854  1.00 38.46 LIG 0.35  C 
ATOM     57  CB  PRO B  12      -5.523 -25.649 -20.511  1.00 43.42 LIG 0.05  C 
ATOM     58  CG  PRO B  12      -5.862 -24.898 -21.732  1.00 41.12 LIG 0.04  C 
ATOM     59  CD  PRO B  12      -7.004 -25.645 -22.357  1.00 39.74 LIG 0.32  C 
ATOM     60  N   PRO B  12      -6.774 -27.026 -21.923  1.00 38.12 LIG 0.32  N 
ENDBRANCH 52 56
ENDBRANCH 47 49
ENDBRANCH 44 45
BRANCH 44 61
ATOM     61  CB  ARG B  14      -6.443 -26.881 -15.022  1.00 34.42 LIG 0.04  C 
BRANCH 61 62
ATOM     62  CG  ARG B  14      -5.365 -25.921 -15.523  1.00 32.66 LIG 0.02  C 
BRANCH 62 63
ATOM     63  CD  ARG B  14      -4.549 -25.427 -14.346  1.00 35.24 LIG 0.14  C 
BRANCH 63 64
ATOM     64  NE  ARG B  14      -4.053 -26.521 -13.492  1.00 42.22 LIG-0.23  N 
ATOM     65  CZ  ARG B  14      -3.718 -26.421 -12.204  1.00 44.72 LIG 0.67  C 
ATOM     66  NH2 ARG B  14      -3.786 -25.273 -11.557  1.00 43.48 LIG-0.23  N 
ATOM     67  NH1 ARG B  14      -3.291 -27.489 -11.556  1.00 46.51 LIG-0.23  N 
ATOM     68 1HH2 ARG B  14      -4.053 -24.564 -11.966  1.00 43.48 LIG 0.17  HD
ATOM     69 2HH2 ARG B  14      -3.566 -25.233 -10.727  1.00 43.48 LIG 0.17  HD
ATOM     70 2HH1 ARG B  14      -3.073 -27.431 -10.726  1.00 46.51 LIG 0.17  HD
ATOM     71 1HH1 ARG B  14      -3.231 -28.243 -11.964  1.00 46.51 LIG 0.17  HD
ATOM     72 HE   ARG B  14      -3.972 -27.296 -13.857  1.00 42.22 LIG 0.18  HD
ENDBRANCH 63 64
ENDBRANCH 62 63
ENDBRANCH 61 62
ENDBRANCH 44 61
ENDBRANCH 1 44
TORSDOF 22
ENDMDL
MODEL 31
USER: ADFR SOLUTION from run 164
USER: SCORE 22.727075 LL:  -4.863 LR: -19.104 RR:   0.000 FEB: -12.542
USER: RMSD 6.535719
USER: SEED 163
USER: STATUS no improvement in best in 10 clusters for 5 generations
USER: GENES 24
USER: genes 0 Translation |==|  0.48881 0.51623 0.64631
USER: genes 1 Rotation |==|  0.27549 0.71532 0.80581 0.74436
USER: genes 2 Torsion [N]-CA--C-[O] |==|  0.72710
USER: genes 3 Torsion [C]-N--CA-[CB] |==|  0.25395
USER: genes 4 Torsion [N]-CA--CB-[CG2] |==|  0.28379
USER: genes 5 Torsion [CA]-CB--CG1-[CD1] |==|  0.42929
USER: genes 6 Torsion [N]-CA--C-[N] |==|  0.40980
USER: genes 7 Torsion [C]-N--CA-[C] |==|  0.72449
USER: genes 8 Torsion [N]-CA--C-[N] |==|  0.38204
USER: genes 9 Torsion [C]-N--CA-[CB] |==|  0.80683
USER: genes 10 Torsion [N]-CA--CB-[CG] |==|  0.35001
USER: genes 11 Torsion [CA]-CB--CG-[ND2] |==|  0.68731
USER: genes 12 Torsion [N]-CA--C-[O] |==|  0.29381
USER: genes 13 Torsion [N]-CA--CB-[CG] |==|  0.72135
USER: genes 14 Torsion [CA]-CB--CG-[CD2] |==|  0.01336
USER: genes 15 Torsion [CE2]-CZ--OH-[HH] |==|  0.20571
USER: genes 16 Torsion [N]-C--CA-[N] |==|  0.33832
USER: genes 17 Torsion [C]-CA--N-[C] |==|  0.81506
USER: genes 18 Torsion [N]-C--CA-[N] |==|  0.32606
USER: genes 19 Torsion [N]-C--CA-[CB] |==|  0.55045
USER: genes 20 Torsion [C]-CA--CB-[CG] |==|  0.46344
USER: genes 21 Torsion [CA]-CB--CG-[CD] |==|  0.97213
USER: genes 22 Torsion [CB]-CG--CD-[NE] |==|  0.33697
USER: genes 23 Torsion [CG]-CD--NE-[CZ] |==|  0.42189
ROOT
ATOM      1  C   ARG B  14      -9.701 -28.342  -7.873  1.00 32.92 LIG 0.24  C 
ATOM      2 O    ARG B  14      -8.849 -28.037  -8.710  1.00 37.82 LIG-0.27  OA
ATOM      3  N   PRO B  15     -10.081 -29.602  -7.643  1.00 31.88 LIG-0.34  N 
ATOM      4  CA  PRO B  15      -9.449 -30.705  -8.373  1.00 30.79 LIG 0.18  C 
ATOM      5  CB  PRO B  15     -10.097 -31.932  -7.765  1.00 31.22 LIG 0.04  C 
ATOM      6  CG  PRO B  15     -10.408 -31.497  -6.369  1.00 29.82 LIG 0.02  C 
ATOM      7  CD  PRO B  15     -10.910 -30.098  -6.532  1.00 31.43 LIG 0.13  C 
ENDROOT
BRANCH 4 8
ATOM      8  C   PRO B  15      -9.802 -30.617  -9.836  1.00 33.68 LIG 0.24  C 
ATOM      9  N   ILE B  16      -9.126 -29.736 -10.548  1.00 35.41 LIG-0.35  N 
ATOM     10 H    ILE B  16      -8.557 -29.181 -10.220  1.00 35.41 LIG 0.16  HD
ATOM     11 O    PRO B  15     -10.707 -31.297 -10.296  1.00 34.05 LIG-0.27  OA
BRANCH 9 12
ATOM     12  CA  ILE B  16      -9.301 -29.647 -11.938  1.00 37.77 LIG 0.18  C 
BRANCH 12 13
ATOM     13  CB  ILE B  16     -10.380 -28.639 -12.303  1.00 42.27 LIG 0.01  C 
ATOM     14  CG2 ILE B  16      -9.746 -27.359 -12.770  1.00 44.80 LIG 0.01  C 
BRANCH 13 15
ATOM     15  CG1 ILE B  16     -11.290 -29.266 -13.374  1.00 47.53 LIG 0.00  C 
ATOM     16  CD1 ILE B  16     -12.713 -28.721 -13.439  1.00 51.74 LIG 0.01  C 
ENDBRANCH 13 15
ENDBRANCH 12 13
BRANCH 12 17
ATOM     17  C   ILE B  16      -7.954 -29.295 -12.483  1.00 42.33 LIG 0.24  C 
ATOM     18 O    ILE B  16      -7.172 -28.653 -11.839  1.00 39.29 LIG-0.27  OA
ATOM     19  N   TYR B  17      -7.691 -29.786 -13.679  1.00 46.96 LIG-0.35  N 
ATOM     20 H    TYR B  17      -8.288 -30.151 -14.178  1.00 46.96 LIG 0.16  HD
BRANCH 19 21
ATOM     21  CA  TYR B  17      -6.383 -29.765 -14.272  1.00 51.19 LIG 0.18  C 
BRANCH 21 22
ATOM     22  C   TYR B  17      -6.280 -28.631 -15.228  1.00 56.10 LIG 0.24  C 
ATOM     23  N   ASN B  18      -5.168 -27.922 -15.217  1.00 65.39 LIG-0.35  N 
ATOM     24 H    ASN B  18      -4.451 -28.159 -14.807  1.00 65.39 LIG 0.16  HD
ATOM     25 O    TYR B  17      -7.178 -28.439 -16.028  1.00 61.36 LIG-0.27  OA
BRANCH 23 26
ATOM     26  CA  ASN B  18      -5.073 -26.637 -15.926  1.00 70.74 LIG 0.17  C 
BRANCH 26 27
ATOM     27  CB  ASN B  18      -5.096 -26.895 -17.440  1.00 84.74 LIG 0.14  C 
BRANCH 27 28
ATOM     28  CG  ASN B  18      -6.187 -26.089 -18.159  1.00 96.34 LIG 0.22  C 
ATOM     29 OD1  ASN B  18      -6.128 -24.852 -18.222  1.00 99.44 LIG-0.27  OA
ATOM     30  ND2 ASN B  18      -7.199 -26.788 -18.687  1.00 94.73 LIG-0.37  N 
ATOM     31 21HD ASN B  18      -7.840 -26.379 -19.089  1.00 94.73 LIG 0.16  HD
ATOM     32 22HD ASN B  18      -7.209 -27.646 -18.625  1.00 94.73 LIG 0.16  HD
ENDBRANCH 27 28
ENDBRANCH 26 27
BRANCH 26 33
ATOM     33  C   ASN B  18      -6.052 -25.508 -15.523  1.00 72.97 LIG 0.22  C 
ATOM     34 O    ASN B  18      -5.699 -24.521 -14.860  1.00 74.17 LIG-0.29  OA
ENDBRANCH 26 33
ENDBRANCH 23 26
ENDBRANCH 21 22
BRANCH 21 35
ATOM     35  CB  TYR B  17      -6.211 -31.042 -15.077  1.00 54.83 LIG 0.07  C 
BRANCH 35 36
ATOM     36  CG  TYR B  17      -5.415 -32.045 -14.332  1.00 56.96 LIG-0.06  A 
ATOM     37  CD2 TYR B  17      -5.017 -31.787 -13.015  1.00 61.26 LIG 0.01  A 
ATOM     38  CE2 TYR B  17      -4.266 -32.698 -12.308  1.00 70.21 LIG 0.04  A 
ATOM     39  CZ  TYR B  17      -3.896 -33.877 -12.931  1.00 76.40 LIG 0.07  A 
ATOM     40  CE1 TYR B  17      -4.272 -34.152 -14.241  1.00 67.10 LIG 0.04  A 
ATOM     41  CD1 TYR B  17      -5.028 -33.223 -14.933  1.00 57.92 LIG 0.01  A 
BRANCH 39 42
ATOM     42 OH   TYR B  17      -3.145 -34.779 -12.236  1.00 89.25 LIG-0.36  OA
ATOM     43 HH   TYR B  17      -3.628 -35.165 -11.667  1.00 89.25 LIG 0.22  HD
ENDBRANCH 39 42
ENDBRANCH 35 36
ENDBRANCH 21 35
ENDBRANCH 19 21
ENDBRANCH 12 17
ENDBRANCH 9 12
ENDBRANCH 4 8
BRANCH 1 44
ATOM     44  CA  ARG B  14     -10.387 -27.255  -7.100  1.00 32.45 LIG 0.18  C 
BRANCH 44 45
ATOM     45  N   ARG B  14      -9.297 -26.599  -6.413  1.00 38.19 LIG-0.35  N 
ATOM     46 H    ARG B  14      -9.157 -25.793  -6.677  1.00 38.19 LIG 0.16  HD
ATOM     47  C   PRO B  13      -8.575 -27.190  -5.457  1.00 38.91 LIG 0.24  C 
ATOM     48 O    PRO B  13      -8.780 -28.322  -5.068  1.00 32.88 LIG-0.27  OA
BRANCH 47 49
ATOM     49  CA  PRO B  13      -7.465 -26.334  -4.813  1.00 38.31 LIG 0.18  C 
ATOM     50  N   PRO B  13      -7.652 -26.095  -3.398  1.00 38.88 LIG-0.34  N 
ATOM     51  CD  PRO B  13      -6.437 -26.409  -2.632  1.00 43.50 LIG 0.13  C 
ATOM     52  C   PRO B  12      -8.783 -25.620  -2.851  1.00 40.77 LIG 0.26  C 
ATOM     53  CG  PRO B  13      -5.387 -26.544  -3.681  1.00 43.53 LIG 0.02  C 
ATOM     54  CB  PRO B  13      -6.116 -27.052  -4.872  1.00 39.91 LIG 0.04  C 
ATOM     55 O    PRO B  12      -9.771 -25.271  -3.513  1.00 44.45 LIG-0.27  OA
BRANCH 52 56
ATOM     56  CA  PRO B  12      -8.827 -25.514  -1.347  1.00 38.46 LIG 0.35  C 
ATOM     57  CB  PRO B  12     -10.286 -25.401  -0.901  1.00 43.42 LIG 0.05  C 
ATOM     58  CG  PRO B  12     -10.276 -24.407   0.187  1.00 41.12 LIG 0.04  C 
ATOM     59  CD  PRO B  12      -9.190 -23.435  -0.172  1.00 39.74 LIG 0.32  C 
ATOM     60  N   PRO B  12      -8.252 -24.254  -0.944  1.00 38.12 LIG 0.32  N 
ENDBRANCH 52 56
ENDBRANCH 47 49
ENDBRANCH 44 45
BRANCH 44 61
ATOM     61  CB  ARG B  14     -11.000 -26.255  -8.086  1.00 34.42 LIG 0.04  C 
BRANCH 61 62
ATOM     62  CG  ARG B  14     -11.993 -25.271  -7.468  1.00 32.66 LIG 0.02  C 
BRANCH 62 63
ATOM     63  CD  ARG B  14     -12.307 -25.701  -6.050  1.00 35.24 LIG 0.14  C 
BRANCH 63 64
ATOM     64  NE  ARG B  14     -11.978 -24.668  -5.051  1.00 42.22 LIG-0.23  N 
ATOM     65  CZ  ARG B  14     -12.576 -24.500  -3.869  1.00 44.72 LIG 0.67  C 
ATOM     66  NH2 ARG B  14     -13.574 -25.271  -3.482  1.00 43.48 LIG-0.23  N 
ATOM     67  NH1 ARG B  14     -12.174 -23.531  -3.068  1.00 46.51 LIG-0.23  N 
ATOM     68 1HH2 ARG B  14     -13.855 -25.901  -3.996  1.00 43.48 LIG 0.17  HD
ATOM     69 2HH2 ARG B  14     -13.943 -25.144  -2.715  1.00 43.48 LIG 0.17  HD
ATOM     70 2HH1 ARG B  14     -12.555 -23.418  -2.305  1.00 46.51 LIG 0.17  HD
ATOM     71 1HH1 ARG B  14     -11.532 -23.013  -3.308  1.00 46.51 LIG 0.17  HD
ATOM     72 HE   ARG B  14     -11.343 -24.122  -5.249  1.00 42.22 LIG 0.18  HD
ENDBRANCH 63 64
ENDBRANCH 62 63
ENDBRANCH 61 62
ENDBRANCH 44 61
ENDBRANCH 1 44
TORSDOF 22
ENDMDL
MODEL 32
USER: ADFR SOLUTION from run 120
USER: SCORE 22.531165 LL:  -5.558 LR: -19.096 RR:   0.000 FEB: -12.533
USER: RMSD 4.293635
USER: SEED 119
USER: STATUS no improvement in best in 16 clusters for 5 generations
USER: GENES 24
USER: genes 0 Translation |==|  0.46020 0.46348 0.57665
USER: genes 1 Rotation |==|  0.61292 0.49325 0.43122 0.98215
USER: genes 2 Torsion [N]-CA--C-[O] |==|  0.83277
USER: genes 3 Torsion [C]-N--CA-[CB] |==|  0.33759
USER: genes 4 Torsion [N]-CA--CB-[CG2] |==|  0.25448
USER: genes 5 Torsion [CA]-CB--CG1-[CD1] |==|  0.67397
USER: genes 6 Torsion [N]-CA--C-[N] |==|  0.50281
USER: genes 7 Torsion [C]-N--CA-[C] |==|  0.66111
USER: genes 8 Torsion [N]-CA--C-[N] |==|  0.97598
USER: genes 9 Torsion [C]-N--CA-[CB] |==|  0.42935
USER: genes 10 Torsion [N]-CA--CB-[CG] |==|  0.30756
USER: genes 11 Torsion [CA]-CB--CG-[ND2] |==|  0.75467
USER: genes 12 Torsion [N]-CA--C-[O] |==|  0.33033
USER: genes 13 Torsion [N]-CA--CB-[CG] |==|  0.96664
USER: genes 14 Torsion [CA]-CB--CG-[CD2] |==|  0.25398
USER: genes 15 Torsion [CE2]-CZ--OH-[HH] |==|  0.85919
USER: genes 16 Torsion [N]-C--CA-[N] |==|  0.41761
USER: genes 17 Torsion [C]-CA--N-[C] |==|  0.59015
USER: genes 18 Torsion [N]-C--CA-[N] |==|  0.19494
USER: genes 19 Torsion [N]-C--CA-[CB] |==|  0.75190
USER: genes 20 Torsion [C]-CA--CB-[CG] |==|  0.40351
USER: genes 21 Torsion [CA]-CB--CG-[CD] |==|  0.00359
USER: genes 22 Torsion [CB]-CG--CD-[NE] |==|  0.80602
USER: genes 23 Torsion [CG]-CD--NE-[CZ] |==|  0.77880
ROOT
ATOM      1  C   ARG B  14     -10.344 -29.331  -9.806  1.00 32.92 LIG 0.24  C 
ATOM      2 O    ARG B  14      -9.847 -30.363 -10.258  1.00 37.82 LIG-0.27  OA
ATOM      3  N   PRO B  15     -10.521 -28.225 -10.535  1.00 31.88 LIG-0.34  N 
ATOM      4  CA  PRO B  15     -10.156 -28.214 -11.954  1.00 30.79 LIG 0.18  C 
ATOM      5  CB  PRO B  15     -10.585 -26.834 -12.407  1.00 31.22 LIG 0.04  C 
ATOM      6  CG  PRO B  15     -11.738 -26.524 -11.507  1.00 29.82 LIG 0.02  C 
ATOM      7  CD  PRO B  15     -11.297 -27.028 -10.171  1.00 31.43 LIG 0.13  C 
ENDROOT
BRANCH 4 8
ATOM      8  C   PRO B  15      -8.661 -28.352 -12.096  1.00 33.68 LIG 0.24  C 
ATOM      9  N   ILE B  16      -8.231 -29.433 -12.719  1.00 35.41 LIG-0.35  N 
ATOM     10 H    ILE B  16      -8.739 -30.075 -12.983  1.00 35.41 LIG 0.16  HD
ATOM     11 O    PRO B  15      -7.913 -27.521 -11.604  1.00 34.05 LIG-0.27  OA
BRANCH 9 12
ATOM     12  CA  ILE B  16      -6.867 -29.608 -12.999  1.00 37.77 LIG 0.18  C 
BRANCH 12 13
ATOM     13  CB  ILE B  16      -6.325 -30.881 -12.368  1.00 42.27 LIG 0.01  C 
ATOM     14  CG2 ILE B  16      -6.439 -32.021 -13.338  1.00 44.80 LIG 0.01  C 
BRANCH 13 15
ATOM     15  CG1 ILE B  16      -4.871 -30.627 -11.931  1.00 47.53 LIG 0.00  C 
ATOM     16  CD1 ILE B  16      -3.812 -31.484 -12.618  1.00 51.74 LIG 0.01  C 
ENDBRANCH 13 15
ENDBRANCH 12 13
BRANCH 12 17
ATOM     17  C   ILE B  16      -6.766 -29.598 -14.490  1.00 42.33 LIG 0.24  C 
ATOM     18 O    ILE B  16      -7.729 -29.396 -15.176  1.00 39.29 LIG-0.27  OA
ATOM     19  N   TYR B  17      -5.548 -29.772 -14.968  1.00 46.96 LIG-0.35  N 
ATOM     20 H    TYR B  17      -4.885 -30.023 -14.482  1.00 46.96 LIG 0.16  HD
BRANCH 19 21
ATOM     21  CA  TYR B  17      -5.202 -29.563 -16.346  1.00 51.19 LIG 0.18  C 
BRANCH 21 22
ATOM     22  C   TYR B  17      -4.634 -30.811 -16.920  1.00 56.10 LIG 0.24  C 
ATOM     23  N   ASN B  18      -4.376 -31.802 -16.089  1.00 65.39 LIG-0.35  N 
ATOM     24 H    ASN B  18      -4.650 -31.831 -15.274  1.00 65.39 LIG 0.16  HD
ATOM     25 O    TYR B  17      -4.495 -30.906 -18.125  1.00 61.36 LIG-0.27  OA
BRANCH 23 26
ATOM     26  CA  ASN B  18      -3.578 -32.965 -16.509  1.00 70.74 LIG 0.17  C 
BRANCH 26 27
ATOM     27  CB  ASN B  18      -2.918 -33.595 -15.273  1.00 84.74 LIG 0.14  C 
BRANCH 27 28
ATOM     28  CG  ASN B  18      -3.508 -34.969 -14.926  1.00 96.34 LIG 0.22  C 
ATOM     29 OD1  ASN B  18      -3.022 -36.009 -15.395  1.00 99.44 LIG-0.27  OA
ATOM     30  ND2 ASN B  18      -4.574 -34.976 -14.116  1.00 94.73 LIG-0.37  N 
ATOM     31 21HD ASN B  18      -4.947 -35.721 -13.903  1.00 94.73 LIG 0.16  HD
ATOM     32 22HD ASN B  18      -4.886 -34.236 -13.808  1.00 94.73 LIG 0.16  HD
ENDBRANCH 27 28
ENDBRANCH 26 27
BRANCH 26 33
ATOM     33  C   ASN B  18      -4.259 -34.031 -17.401  1.00 72.97 LIG 0.22  C 
ATOM     34 O    ASN B  18      -3.857 -34.306 -18.541  1.00 74.17 LIG-0.29  OA
ENDBRANCH 26 33
ENDBRANCH 23 26
ENDBRANCH 21 22
BRANCH 21 35
ATOM     35  CB  TYR B  17      -4.108 -28.509 -16.401  1.00 54.83 LIG 0.07  C 
BRANCH 35 36
ATOM     36  CG  TYR B  17      -3.946 -27.832 -15.095  1.00 56.96 LIG-0.06  A 
ATOM     37  CD2 TYR B  17      -3.030 -28.325 -14.158  1.00 61.26 LIG 0.01  A 
ATOM     38  CE2 TYR B  17      -2.872 -27.719 -12.933  1.00 70.21 LIG 0.04  A 
ATOM     39  CZ  TYR B  17      -3.651 -26.615 -12.634  1.00 76.40 LIG 0.07  A 
ATOM     40  CE1 TYR B  17      -4.573 -26.113 -13.544  1.00 67.10 LIG 0.04  A 
ATOM     41  CD1 TYR B  17      -4.716 -26.735 -14.771  1.00 57.92 LIG 0.01  A 
BRANCH 39 42
ATOM     42 OH   TYR B  17      -3.502 -26.017 -11.416  1.00 89.25 LIG-0.36  OA
ATOM     43 HH   TYR B  17      -3.550 -26.598 -10.811  1.00 89.25 LIG 0.22  HD
ENDBRANCH 39 42
ENDBRANCH 35 36
ENDBRANCH 21 35
ENDBRANCH 19 21
ENDBRANCH 12 17
ENDBRANCH 9 12
ENDBRANCH 4 8
BRANCH 1 44
ATOM     44  CA  ARG B  14     -10.732 -29.280  -8.358  1.00 32.45 LIG 0.18  C 
BRANCH 44 45
ATOM     45  N   ARG B  14     -11.112 -30.645  -8.069  1.00 38.19 LIG-0.35  N 
ATOM     46 H    ARG B  14     -10.669 -31.229  -8.518  1.00 38.19 LIG 0.16  HD
ATOM     47  C   PRO B  13     -12.062 -30.968  -7.187  1.00 38.91 LIG 0.24  C 
ATOM     48 O    PRO B  13     -12.678 -30.146  -6.539  1.00 32.88 LIG-0.27  OA
BRANCH 47 49
ATOM     49  CA  PRO B  13     -12.323 -32.475  -6.985  1.00 38.31 LIG 0.18  C 
ATOM     50  N   PRO B  13     -11.253 -33.170  -6.302  1.00 38.88 LIG-0.34  N 
ATOM     51  CD  PRO B  13     -11.762 -33.976  -5.183  1.00 43.50 LIG 0.13  C 
ATOM     52  C   PRO B  12      -9.960 -33.112  -6.658  1.00 40.77 LIG 0.26  C 
ATOM     53  CG  PRO B  13     -13.235 -34.002  -5.412  1.00 43.53 LIG 0.02  C 
ATOM     54  CB  PRO B  13     -13.529 -32.705  -6.076  1.00 39.91 LIG 0.04  C 
ATOM     55 O    PRO B  12      -9.550 -32.503  -7.658  1.00 44.45 LIG-0.27  OA
BRANCH 52 56
ATOM     56  CA  PRO B  12      -8.971 -33.834  -5.777  1.00 38.46 LIG 0.35  C 
ATOM     57  CB  PRO B  12      -8.494 -32.880  -4.681  1.00 43.42 LIG 0.05  C 
ATOM     58  CG  PRO B  12      -7.052 -33.148  -4.544  1.00 41.12 LIG 0.04  C 
ATOM     59  CD  PRO B  12      -6.581 -33.513  -5.922  1.00 39.74 LIG 0.32  C 
ATOM     60  N   PRO B  12      -7.773 -34.106  -6.534  1.00 38.12 LIG 0.32  N 
ENDBRANCH 52 56
ENDBRANCH 47 49
ENDBRANCH 44 45
BRANCH 44 61
ATOM     61  CB  ARG B  14      -9.492 -28.943  -7.523  1.00 34.42 LIG 0.04  C 
BRANCH 61 62
ATOM     62  CG  ARG B  14      -9.762 -28.076  -6.293  1.00 32.66 LIG 0.02  C 
BRANCH 62 63
ATOM     63  CD  ARG B  14     -11.247 -27.791  -6.199  1.00 35.24 LIG 0.14  C 
BRANCH 63 64
ATOM     64  NE  ARG B  14     -11.726 -26.884  -7.257  1.00 42.22 LIG-0.23  N 
ATOM     65  CZ  ARG B  14     -11.601 -25.555  -7.267  1.00 44.72 LIG 0.67  C 
ATOM     66  NH2 ARG B  14     -11.027 -24.905  -6.272  1.00 43.48 LIG-0.23  N 
ATOM     67  NH1 ARG B  14     -12.074 -24.863  -8.287  1.00 46.51 LIG-0.23  N 
ATOM     68 1HH2 ARG B  14     -10.721 -25.339  -5.595  1.00 43.48 LIG 0.17  HD
ATOM     69 2HH2 ARG B  14     -10.957 -24.048  -6.302  1.00 43.48 LIG 0.17  HD
ATOM     70 2HH1 ARG B  14     -11.997 -24.007  -8.299  1.00 46.51 LIG 0.17  HD
ATOM     71 1HH1 ARG B  14     -12.460 -25.269  -8.940  1.00 46.51 LIG 0.17  HD
ATOM     72 HE   ARG B  14     -12.123 -27.244  -7.930  1.00 42.22 LIG 0.18  HD
ENDBRANCH 63 64
ENDBRANCH 62 63
ENDBRANCH 61 62
ENDBRANCH 44 61
ENDBRANCH 1 44
TORSDOF 22
ENDMDL
MODEL 33
USER: ADFR SOLUTION from run 139
USER: SCORE 22.628510 LL:  -4.589 LR: -19.066 RR:   0.000 FEB: -12.503
USER: RMSD 4.829360
USER: SEED 138
USER: STATUS 1 or 2 clusters left
USER: GENES 24
USER: genes 0 Translation |==|  0.51159 0.49117 0.62148
USER: genes 1 Rotation |==|  0.29835 0.52803 0.85013 0.79319
USER: genes 2 Torsion [N]-CA--C-[O] |==|  0.32639
USER: genes 3 Torsion [C]-N--CA-[CB] |==|  0.80283
USER: genes 4 Torsion [N]-CA--CB-[CG2] |==|  0.62443
USER: genes 5 Torsion [CA]-CB--CG1-[CD1] |==|  0.66052
USER: genes 6 Torsion [N]-CA--C-[N] |==|  0.16667
USER: genes 7 Torsion [C]-N--CA-[C] |==|  0.82032
USER: genes 8 Torsion [N]-CA--C-[N] |==|  0.39521
USER: genes 9 Torsion [C]-N--CA-[CB] |==|  0.15193
USER: genes 10 Torsion [N]-CA--CB-[CG] |==|  0.63281
USER: genes 11 Torsion [CA]-CB--CG-[ND2] |==|  0.15866
USER: genes 12 Torsion [N]-CA--C-[O] |==|  0.97501
USER: genes 13 Torsion [N]-CA--CB-[CG] |==|  0.71143
USER: genes 14 Torsion [CA]-CB--CG-[CD2] |==|  0.06473
USER: genes 15 Torsion [CE2]-CZ--OH-[HH] |==|  0.23015
USER: genes 16 Torsion [N]-C--CA-[N] |==|  0.14298
USER: genes 17 Torsion [C]-CA--N-[C] |==|  0.62496
USER: genes 18 Torsion [N]-C--CA-[N] |==|  0.52632
USER: genes 19 Torsion [N]-C--CA-[CB] |==|  0.57946
USER: genes 20 Torsion [C]-CA--CB-[CG] |==|  0.47257
USER: genes 21 Torsion [CA]-CB--CG-[CD] |==|  0.38625
USER: genes 22 Torsion [CB]-CG--CD-[NE] |==|  0.34638
USER: genes 23 Torsion [CG]-CD--NE-[CZ] |==|  0.20240
ROOT
ATOM      1  C   ARG B  14      -9.188 -28.812  -8.562  1.00 32.92 LIG 0.24  C 
ATOM      2 O    ARG B  14      -8.346 -27.919  -8.675  1.00 37.82 LIG-0.27  OA
ATOM      3  N   PRO B  15      -9.144 -29.951  -9.259  1.00 31.88 LIG-0.34  N 
ATOM      4  CA  PRO B  15      -8.035 -30.204 -10.183  1.00 30.79 LIG 0.18  C 
ATOM      5  CB  PRO B  15      -8.323 -31.603 -10.687  1.00 31.22 LIG 0.04  C 
ATOM      6  CG  PRO B  15      -9.041 -32.238  -9.539  1.00 29.82 LIG 0.02  C 
ATOM      7  CD  PRO B  15      -9.954 -31.162  -9.047  1.00 31.43 LIG 0.13  C 
ENDROOT
BRANCH 4 8
ATOM      8  C   PRO B  15      -8.094 -29.229 -11.331  1.00 33.68 LIG 0.24  C 
ATOM      9  N   ILE B  16      -9.137 -29.333 -12.132  1.00 35.41 LIG-0.35  N 
ATOM     10 H    ILE B  16      -9.734 -29.950 -12.074  1.00 35.41 LIG 0.16  HD
ATOM     11 O    PRO B  15      -7.185 -28.435 -11.515  1.00 34.05 LIG-0.27  OA
BRANCH 9 12
ATOM     12  CA  ILE B  16      -9.345 -28.408 -13.168  1.00 37.77 LIG 0.18  C 
BRANCH 12 13
ATOM     13  CB  ILE B  16      -9.757 -27.047 -12.629  1.00 42.27 LIG 0.01  C 
ATOM     14  CG2 ILE B  16     -10.904 -26.506 -13.433  1.00 44.80 LIG 0.01  C 
BRANCH 13 15
ATOM     15  CG1 ILE B  16     -10.109 -27.200 -11.138  1.00 47.53 LIG 0.00  C 
ATOM     16  CD1 ILE B  16     -11.518 -26.774 -10.741  1.00 51.74 LIG 0.01  C 
ENDBRANCH 13 15
ENDBRANCH 12 13
BRANCH 12 17
ATOM     17  C   ILE B  16      -8.060 -28.377 -13.932  1.00 42.33 LIG 0.24  C 
ATOM     18 O    ILE B  16      -7.406 -27.375 -14.007  1.00 39.29 LIG-0.27  OA
ATOM     19  N   TYR B  17      -7.694 -29.533 -14.454  1.00 46.96 LIG-0.35  N 
ATOM     20 H    TYR B  17      -8.214 -30.217 -14.490  1.00 46.96 LIG 0.16  HD
BRANCH 19 21
ATOM     21  CA  TYR B  17      -6.394 -29.770 -15.016  1.00 51.19 LIG 0.18  C 
BRANCH 21 22
ATOM     22  C   TYR B  17      -6.198 -28.914 -16.216  1.00 56.10 LIG 0.24  C 
ATOM     23  N   ASN B  18      -4.999 -28.402 -16.410  1.00 65.39 LIG-0.35  N 
ATOM     24 H    ASN B  18      -4.295 -28.646 -15.980  1.00 65.39 LIG 0.16  HD
ATOM     25 O    TYR B  17      -7.113 -28.774 -17.007  1.00 61.36 LIG-0.27  OA
BRANCH 23 26
ATOM     26  CA  ASN B  18      -4.771 -27.342 -17.406  1.00 70.74 LIG 0.17  C 
BRANCH 26 27
ATOM     27  CB  ASN B  18      -5.726 -26.172 -17.123  1.00 84.74 LIG 0.14  C 
BRANCH 27 28
ATOM     28  CG  ASN B  18      -6.451 -25.686 -18.384  1.00 96.34 LIG 0.22  C 
ATOM     29 OD1  ASN B  18      -6.379 -24.501 -18.745  1.00 99.44 LIG-0.27  OA
ATOM     30  ND2 ASN B  18      -7.170 -26.597 -19.051  1.00 94.73 LIG-0.37  N 
ATOM     31 21HD ASN B  18      -7.604 -26.369 -19.758  1.00 94.73 LIG 0.16  HD
ATOM     32 22HD ASN B  18      -7.199 -27.411 -18.774  1.00 94.73 LIG 0.16  HD
ENDBRANCH 27 28
ENDBRANCH 26 27
BRANCH 26 33
ATOM     33  C   ASN B  18      -3.320 -26.855 -17.632  1.00 72.97 LIG 0.22  C 
ATOM     34 O    ASN B  18      -2.377 -27.199 -16.905  1.00 74.17 LIG-0.29  OA
ENDBRANCH 26 33
ENDBRANCH 23 26
ENDBRANCH 21 22
BRANCH 21 35
ATOM     35  CB  TYR B  17      -6.341 -31.214 -15.486  1.00 54.83 LIG 0.07  C 
BRANCH 35 36
ATOM     36  CG  TYR B  17      -5.559 -32.056 -14.552  1.00 56.96 LIG-0.06  A 
ATOM     37  CD2 TYR B  17      -5.399 -31.663 -13.218  1.00 61.26 LIG 0.01  A 
ATOM     38  CE2 TYR B  17      -4.666 -32.424 -12.337  1.00 70.21 LIG 0.04  A 
ATOM     39  CZ  TYR B  17      -4.072 -33.585 -12.798  1.00 76.40 LIG 0.07  A 
ATOM     40  CE1 TYR B  17      -4.210 -33.992 -14.120  1.00 67.10 LIG 0.04  A 
ATOM     41  CD1 TYR B  17      -4.952 -33.214 -14.990  1.00 57.92 LIG 0.01  A 
BRANCH 39 42
ATOM     42 OH   TYR B  17      -3.339 -34.337 -11.928  1.00 89.25 LIG-0.36  OA
ATOM     43 HH   TYR B  17      -3.851 -34.833 -11.485  1.00 89.25 LIG 0.22  HD
ENDBRANCH 39 42
ENDBRANCH 35 36
ENDBRANCH 21 35
ENDBRANCH 19 21
ENDBRANCH 12 17
ENDBRANCH 9 12
ENDBRANCH 4 8
BRANCH 1 44
ATOM     44  CA  ARG B  14     -10.350 -28.606  -7.637  1.00 32.45 LIG 0.18  C 
BRANCH 44 45
ATOM     45  N   ARG B  14     -10.365 -29.818  -6.849  1.00 38.19 LIG-0.35  N 
ATOM     46 H    ARG B  14      -9.588 -30.059  -6.570  1.00 38.19 LIG 0.16  HD
ATOM     47  C   PRO B  13     -11.482 -30.501  -6.580  1.00 38.91 LIG 0.24  C 
ATOM     48 O    PRO B  13     -12.583 -30.156  -6.958  1.00 32.88 LIG-0.27  OA
BRANCH 47 49
ATOM     49  CA  PRO B  13     -11.318 -31.761  -5.705  1.00 38.31 LIG 0.18  C 
ATOM     50  N   PRO B  13     -12.509 -32.579  -5.623  1.00 38.88 LIG-0.34  N 
ATOM     51  CD  PRO B  13     -12.215 -33.990  -5.911  1.00 43.50 LIG 0.13  C 
ATOM     52  C   PRO B  12     -13.727 -32.117  -5.297  1.00 40.77 LIG 0.26  C 
ATOM     53  CG  PRO B  13     -10.727 -34.056  -5.856  1.00 43.53 LIG 0.02  C 
ATOM     54  CB  PRO B  13     -10.279 -32.711  -6.301  1.00 39.91 LIG 0.04  C 
ATOM     55 O    PRO B  12     -13.949 -30.942  -4.966  1.00 44.45 LIG-0.27  OA
BRANCH 52 56
ATOM     56  CA  PRO B  12     -14.870 -33.100  -5.344  1.00 38.46 LIG 0.35  C 
ATOM     57  CB  PRO B  12     -16.162 -32.343  -5.656  1.00 43.42 LIG 0.05  C 
ATOM     58  CG  PRO B  12     -17.185 -32.964  -4.797  1.00 41.12 LIG 0.04  C 
ATOM     59  CD  PRO B  12     -16.462 -33.373  -3.548  1.00 39.74 LIG 0.32  C 
ATOM     60  N   PRO B  12     -15.098 -33.625  -4.020  1.00 38.12 LIG 0.32  N 
ENDBRANCH 52 56
ENDBRANCH 47 49
ENDBRANCH 44 45
BRANCH 44 61
ATOM     61  CB  ARG B  14     -10.039 -27.433  -6.701  1.00 34.42 LIG 0.04  C 
BRANCH 61 62
ATOM     62  CG  ARG B  14     -11.220 -26.951  -5.859  1.00 32.66 LIG 0.02  C 
BRANCH 62 63
ATOM     63  CD  ARG B  14     -10.741 -26.643  -4.455  1.00 35.24 LIG 0.14  C 
BRANCH 63 64
ATOM     64  NE  ARG B  14     -11.065 -25.271  -4.027  1.00 42.22 LIG-0.23  N 
ATOM     65  CZ  ARG B  14     -12.276 -24.815  -3.700  1.00 44.72 LIG 0.67  C 
ATOM     66  NH2 ARG B  14     -13.345 -25.588  -3.753  1.00 43.48 LIG-0.23  N 
ATOM     67  NH1 ARG B  14     -12.421 -23.557  -3.327  1.00 46.51 LIG-0.23  N 
ATOM     68 1HH2 ARG B  14     -13.270 -26.408  -4.004  1.00 43.48 LIG 0.17  HD
ATOM     69 2HH2 ARG B  14     -14.115 -25.272  -3.537  1.00 43.48 LIG 0.17  HD
ATOM     70 2HH1 ARG B  14     -13.199 -23.258  -3.115  1.00 46.51 LIG 0.17  HD
ATOM     71 1HH1 ARG B  14     -11.738 -23.037  -3.295  1.00 46.51 LIG 0.17  HD
ATOM     72 HE   ARG B  14     -10.413 -24.711  -3.984  1.00 42.22 LIG 0.18  HD
ENDBRANCH 63 64
ENDBRANCH 62 63
ENDBRANCH 61 62
ENDBRANCH 44 61
ENDBRANCH 1 44
TORSDOF 22
ENDMDL
MODEL 34
USER: ADFR SOLUTION from run 137
USER: SCORE 22.262478 LL:  -5.525 LR: -19.064 RR:   0.000 FEB: -12.502
USER: RMSD 5.940002
USER: SEED 136
USER: STATUS no improvement in best in 4 clusters for 5 generations
USER: GENES 24
USER: genes 0 Translation |==|  0.44948 0.46681 0.56051
USER: genes 1 Rotation |==|  0.58795 0.47935 0.45302 0.98952
USER: genes 2 Torsion [N]-CA--C-[O] |==|  0.85329
USER: genes 3 Torsion [C]-N--CA-[CB] |==|  0.17406
USER: genes 4 Torsion [N]-CA--CB-[CG2] |==|  0.16013
USER: genes 5 Torsion [CA]-CB--CG1-[CD1] |==|  0.14865
USER: genes 6 Torsion [N]-CA--C-[N] |==|  0.65603
USER: genes 7 Torsion [C]-N--CA-[C] |==|  0.46642
USER: genes 8 Torsion [N]-CA--C-[N] |==|  0.87443
USER: genes 9 Torsion [C]-N--CA-[CB] |==|  0.75007
USER: genes 10 Torsion [N]-CA--CB-[CG] |==|  0.66522
USER: genes 11 Torsion [CA]-CB--CG-[ND2] |==|  0.86573
USER: genes 12 Torsion [N]-CA--C-[O] |==|  0.73943
USER: genes 13 Torsion [N]-CA--CB-[CG] |==|  0.42854
USER: genes 14 Torsion [CA]-CB--CG-[CD2] |==|  0.17316
USER: genes 15 Torsion [CE2]-CZ--OH-[HH] |==|  0.88005
USER: genes 16 Torsion [N]-C--CA-[N] |==|  0.40888
USER: genes 17 Torsion [C]-CA--N-[C] |==|  0.52836
USER: genes 18 Torsion [N]-C--CA-[N] |==|  0.23768
USER: genes 19 Torsion [N]-C--CA-[CB] |==|  0.73429
USER: genes 20 Torsion [C]-CA--CB-[CG] |==|  0.21992
USER: genes 21 Torsion [CA]-CB--CG-[CD] |==|  0.14786
USER: genes 22 Torsion [CB]-CG--CD-[NE] |==|  0.14017
USER: genes 23 Torsion [CG]-CD--NE-[CZ] |==|  0.36453
ROOT
ATOM      1  C   ARG B  14     -10.586 -29.268 -10.254  1.00 32.92 LIG 0.24  C 
ATOM      2 O    ARG B  14      -9.989 -30.303 -10.558  1.00 37.82 LIG-0.27  OA
ATOM      3  N   PRO B  15     -10.794 -28.266 -11.112  1.00 31.88 LIG-0.34  N 
ATOM      4  CA  PRO B  15     -10.341 -28.382 -12.501  1.00 30.79 LIG 0.18  C 
ATOM      5  CB  PRO B  15     -10.837 -27.097 -13.131  1.00 31.22 LIG 0.04  C 
ATOM      6  CG  PRO B  15     -12.064 -26.780 -12.337  1.00 29.82 LIG 0.02  C 
ATOM      7  CD  PRO B  15     -11.674 -27.099 -10.930  1.00 31.43 LIG 0.13  C 
ENDROOT
BRANCH 4 8
ATOM      8  C   PRO B  15      -8.835 -28.419 -12.545  1.00 33.68 LIG 0.24  C 
ATOM      9  N   ILE B  16      -8.293 -29.457 -13.152  1.00 35.41 LIG-0.35  N 
ATOM     10 H    ILE B  16      -8.738 -30.126 -13.460  1.00 35.41 LIG 0.16  HD
ATOM     11 O    PRO B  15      -8.178 -27.549 -11.992  1.00 34.05 LIG-0.27  OA
BRANCH 9 12
ATOM     12  CA  ILE B  16      -6.904 -29.537 -13.342  1.00 37.77 LIG 0.18  C 
BRANCH 12 13
ATOM     13  CB  ILE B  16      -6.160 -29.580 -12.017  1.00 42.27 LIG 0.01  C 
ATOM     14  CG2 ILE B  16      -6.635 -30.749 -11.202  1.00 44.80 LIG 0.01  C 
BRANCH 13 15
ATOM     15  CG1 ILE B  16      -4.650 -29.647 -12.309  1.00 47.53 LIG 0.00  C 
ATOM     16  CD1 ILE B  16      -4.102 -28.560 -13.229  1.00 51.74 LIG 0.01  C 
ENDBRANCH 13 15
ENDBRANCH 12 13
BRANCH 12 17
ATOM     17  C   ILE B  16      -6.691 -30.756 -14.181  1.00 42.33 LIG 0.24  C 
ATOM     18 O    ILE B  16      -7.199 -30.862 -15.263  1.00 39.29 LIG-0.27  OA
ATOM     19  N   TYR B  17      -5.874 -31.653 -13.663  1.00 46.96 LIG-0.35  N 
ATOM     20 H    TYR B  17      -5.600 -31.623 -12.849  1.00 46.96 LIG 0.16  HD
BRANCH 19 21
ATOM     21  CA  TYR B  17      -5.356 -32.771 -14.402  1.00 51.19 LIG 0.18  C 
BRANCH 21 22
ATOM     22  C   TYR B  17      -4.255 -33.415 -13.638  1.00 56.10 LIG 0.24  C 
ATOM     23  N   ASN B  18      -3.349 -32.627 -13.092  1.00 65.39 LIG-0.35  N 
ATOM     24 H    ASN B  18      -3.433 -31.774 -13.021  1.00 65.39 LIG 0.16  HD
ATOM     25 O    TYR B  17      -4.263 -34.622 -13.480  1.00 61.36 LIG-0.27  OA
BRANCH 23 26
ATOM     26  CA  ASN B  18      -2.092 -33.167 -12.549  1.00 70.74 LIG 0.17  C 
BRANCH 26 27
ATOM     27  CB  ASN B  18      -2.296 -33.522 -11.069  1.00 84.74 LIG 0.14  C 
BRANCH 27 28
ATOM     28  CG  ASN B  18      -1.344 -32.754 -10.143  1.00 96.34 LIG 0.22  C 
ATOM     29 OD1  ASN B  18      -1.769 -32.160  -9.140  1.00 99.44 LIG-0.27  OA
ATOM     30  ND2 ASN B  18      -0.050 -32.745 -10.487  1.00 94.73 LIG-0.37  N 
ATOM     31 21HD ASN B  18       0.520 -32.318 -10.005  1.00 94.73 LIG 0.16  HD
ATOM     32 22HD ASN B  18       0.212 -33.167 -11.189  1.00 94.73 LIG 0.16  HD
ENDBRANCH 27 28
ENDBRANCH 26 27
BRANCH 26 33
ATOM     33  C   ASN B  18      -1.398 -34.314 -13.323  1.00 72.97 LIG 0.22  C 
ATOM     34 O    ASN B  18      -1.587 -35.510 -13.058  1.00 74.17 LIG-0.29  OA
ENDBRANCH 26 33
ENDBRANCH 23 26
ENDBRANCH 21 22
BRANCH 21 35
ATOM     35  CB  TYR B  17      -4.754 -32.243 -15.693  1.00 54.83 LIG 0.07  C 
BRANCH 35 36
ATOM     36  CG  TYR B  17      -3.701 -33.149 -16.205  1.00 56.96 LIG-0.06  A 
ATOM     37  CD2 TYR B  17      -4.022 -34.461 -16.575  1.00 61.26 LIG 0.01  A 
ATOM     38  CE2 TYR B  17      -3.057 -35.324 -17.042  1.00 70.21 LIG 0.04  A 
ATOM     39  CZ  TYR B  17      -1.751 -34.874 -17.126  1.00 76.40 LIG 0.07  A 
ATOM     40  CE1 TYR B  17      -1.406 -33.579 -16.757  1.00 67.10 LIG 0.04  A 
ATOM     41  CD1 TYR B  17      -2.391 -32.728 -16.292  1.00 57.92 LIG 0.01  A 
BRANCH 39 42
ATOM     42 OH   TYR B  17      -0.791 -35.730 -17.581  1.00 89.25 LIG-0.36  OA
ATOM     43 HH   TYR B  17      -0.902 -36.487 -17.233  1.00 89.25 LIG 0.22  HD
ENDBRANCH 39 42
ENDBRANCH 35 36
ENDBRANCH 21 35
ENDBRANCH 19 21
ENDBRANCH 12 17
ENDBRANCH 9 12
ENDBRANCH 4 8
BRANCH 1 44
ATOM     44  CA  ARG B  14     -11.067 -29.090  -8.845  1.00 32.45 LIG 0.18  C 
BRANCH 44 45
ATOM     45  N   ARG B  14     -11.438 -30.430  -8.449  1.00 38.19 LIG-0.35  N 
ATOM     46 H    ARG B  14     -11.189 -31.036  -9.006  1.00 38.19 LIG 0.16  HD
ATOM     47  C   PRO B  13     -12.106 -30.701  -7.325  1.00 38.91 LIG 0.24  C 
ATOM     48 O    PRO B  13     -12.445 -29.850  -6.527  1.00 32.88 LIG-0.27  OA
BRANCH 47 49
ATOM     49  CA  PRO B  13     -12.400 -32.190  -7.047  1.00 38.31 LIG 0.18  C 
ATOM     50  N   PRO B  13     -11.324 -32.886  -6.375  1.00 38.88 LIG-0.34  N 
ATOM     51  CD  PRO B  13     -11.810 -33.629  -5.204  1.00 43.50 LIG 0.13  C 
ATOM     52  C   PRO B  12     -10.044 -32.881  -6.783  1.00 40.77 LIG 0.26  C 
ATOM     53  CG  PRO B  13     -13.291 -33.621  -5.374  1.00 43.53 LIG 0.02  C 
ATOM     54  CB  PRO B  13     -13.575 -32.346  -6.082  1.00 39.91 LIG 0.04  C 
ATOM     55 O    PRO B  12      -9.658 -32.328  -7.824  1.00 44.45 LIG-0.27  OA
BRANCH 52 56
ATOM     56  CA  PRO B  12      -9.042 -33.594  -5.911  1.00 38.46 LIG 0.35  C 
ATOM     57  CB  PRO B  12      -8.379 -32.575  -4.982  1.00 43.42 LIG 0.05  C 
ATOM     58  CG  PRO B  12      -6.960 -32.965  -4.938  1.00 41.12 LIG 0.04  C 
ATOM     59  CD  PRO B  12      -6.658 -33.525  -6.297  1.00 39.74 LIG 0.32  C 
ATOM     60  N   PRO B  12      -7.950 -34.063  -6.729  1.00 38.12 LIG 0.32  N 
ENDBRANCH 52 56
ENDBRANCH 47 49
ENDBRANCH 44 45
BRANCH 44 61
ATOM     61  CB  ARG B  14      -9.890 -28.644  -7.971  1.00 34.42 LIG 0.04  C 
BRANCH 61 62
ATOM     62  CG  ARG B  14      -9.536 -27.161  -8.078  1.00 32.66 LIG 0.02  C 
BRANCH 62 63
ATOM     63  CD  ARG B  14     -10.777 -26.331  -7.824  1.00 35.24 LIG 0.14  C 
BRANCH 63 64
ATOM     64  NE  ARG B  14     -11.484 -26.718  -6.590  1.00 42.22 LIG-0.23  N 
ATOM     65  CZ  ARG B  14     -11.906 -25.888  -5.633  1.00 44.72 LIG 0.67  C 
ATOM     66  NH2 ARG B  14     -11.699 -24.587  -5.704  1.00 43.48 LIG-0.23  N 
ATOM     67  NH1 ARG B  14     -12.532 -26.375  -4.578  1.00 46.51 LIG-0.23  N 
ATOM     68 1HH2 ARG B  14     -11.283 -24.254  -6.379  1.00 43.48 LIG 0.17  HD
ATOM     69 2HH2 ARG B  14     -11.981 -24.072  -5.075  1.00 43.48 LIG 0.17  HD
ATOM     70 2HH1 ARG B  14     -12.806 -25.845  -3.958  1.00 46.51 LIG 0.17  HD
ATOM     71 1HH1 ARG B  14     -12.667 -27.221  -4.510  1.00 46.51 LIG 0.17  HD
ATOM     72 HE   ARG B  14     -11.638 -27.557  -6.475  1.00 42.22 LIG 0.18  HD
ENDBRANCH 63 64
ENDBRANCH 62 63
ENDBRANCH 61 62
ENDBRANCH 44 61
ENDBRANCH 1 44
TORSDOF 22
ENDMDL
MODEL 35
USER: ADFR SOLUTION from run 132
USER: SCORE 22.724492 LL:  -4.622 LR: -19.054 RR:   0.000 FEB: -12.491
USER: RMSD 12.951711
USER: SEED 131
USER: STATUS no improvement in best in 29 clusters for 5 generations
USER: GENES 24
USER: genes 0 Translation |==|  0.61718 0.46741 0.38629
USER: genes 1 Rotation |==|  0.26956 0.07796 0.36527 0.52514
USER: genes 2 Torsion [N]-CA--C-[O] |==|  0.81328
USER: genes 3 Torsion [C]-N--CA-[CB] |==|  0.48335
USER: genes 4 Torsion [N]-CA--CB-[CG2] |==|  0.39110
USER: genes 5 Torsion [CA]-CB--CG1-[CD1] |==|  0.48138
USER: genes 6 Torsion [N]-CA--C-[N] |==|  0.39578
USER: genes 7 Torsion [C]-N--CA-[C] |==|  0.78968
USER: genes 8 Torsion [N]-CA--C-[N] |==|  0.44738
USER: genes 9 Torsion [C]-N--CA-[CB] |==|  0.78074
USER: genes 10 Torsion [N]-CA--CB-[CG] |==|  0.63204
USER: genes 11 Torsion [CA]-CB--CG-[ND2] |==|  0.60148
USER: genes 12 Torsion [N]-CA--C-[O] |==|  0.87518
USER: genes 13 Torsion [N]-CA--CB-[CG] |==|  0.27978
USER: genes 14 Torsion [CA]-CB--CG-[CD2] |==|  0.28133
USER: genes 15 Torsion [CE2]-CZ--OH-[HH] |==|  0.29233
USER: genes 16 Torsion [N]-C--CA-[N] |==|  0.89027
USER: genes 17 Torsion [C]-CA--N-[C] |==|  0.79075
USER: genes 18 Torsion [N]-C--CA-[N] |==|  0.41192
USER: genes 19 Torsion [N]-C--CA-[CB] |==|  0.49215
USER: genes 20 Torsion [C]-CA--CB-[CG] |==|  0.13711
USER: genes 21 Torsion [CA]-CB--CG-[CD] |==|  0.28250
USER: genes 22 Torsion [CB]-CG--CD-[NE] |==|  0.56919
USER: genes 23 Torsion [CG]-CD--NE-[CZ] |==|  0.77753
ROOT
ATOM      1  C   ARG B  14      -6.812 -29.257 -15.088  1.00 32.92 LIG 0.24  C 
ATOM      2 O    ARG B  14      -8.026 -29.089 -15.218  1.00 37.82 LIG-0.27  OA
ATOM      3  N   PRO B  15      -6.271 -29.898 -14.049  1.00 31.88 LIG-0.34  N 
ATOM      4  CA  PRO B  15      -7.131 -30.478 -13.014  1.00 30.79 LIG 0.18  C 
ATOM      5  CB  PRO B  15      -6.143 -31.164 -12.092  1.00 31.22 LIG 0.04  C 
ATOM      6  CG  PRO B  15      -5.025 -31.539 -13.012  1.00 29.82 LIG 0.02  C 
ATOM      7  CD  PRO B  15      -4.876 -30.348 -13.902  1.00 31.43 LIG 0.13  C 
ENDROOT
BRANCH 4 8
ATOM      8  C   PRO B  15      -7.842 -29.379 -12.266  1.00 33.68 LIG 0.24  C 
ATOM      9  N   ILE B  16      -9.141 -29.277 -12.473  1.00 35.41 LIG-0.35  N 
ATOM     10 H    ILE B  16      -9.580 -29.749 -13.042  1.00 35.41 LIG 0.16  HD
ATOM     11 O    PRO B  15      -7.214 -28.605 -11.559  1.00 34.05 LIG-0.27  OA
BRANCH 9 12
ATOM     12  CA  ILE B  16      -9.916 -28.358 -11.748  1.00 37.77 LIG 0.18  C 
BRANCH 12 13
ATOM     13  CB  ILE B  16     -11.349 -28.313 -12.252  1.00 42.27 LIG 0.01  C 
ATOM     14  CG2 ILE B  16     -12.295 -28.184 -11.093  1.00 44.80 LIG 0.01  C 
BRANCH 13 15
ATOM     15  CG1 ILE B  16     -11.480 -27.146 -13.247  1.00 47.53 LIG 0.00  C 
ATOM     16  CD1 ILE B  16     -12.813 -27.044 -13.980  1.00 51.74 LIG 0.01  C 
ENDBRANCH 13 15
ENDBRANCH 12 13
BRANCH 12 17
ATOM     17  C   ILE B  16      -9.804 -28.788 -10.320  1.00 42.33 LIG 0.24  C 
ATOM     18 O    ILE B  16      -9.731 -29.948 -10.025  1.00 39.29 LIG-0.27  OA
ATOM     19  N   TYR B  17      -9.740 -27.802  -9.444  1.00 46.96 LIG-0.35  N 
ATOM     20 H    TYR B  17      -9.901 -26.982  -9.648  1.00 46.96 LIG 0.16  HD
BRANCH 19 21
ATOM     21  CA  TYR B  17      -9.397 -27.993  -8.063  1.00 51.19 LIG 0.18  C 
BRANCH 21 22
ATOM     22  C   TYR B  17     -10.551 -28.581  -7.332  1.00 56.10 LIG 0.24  C 
ATOM     23  N   ASN B  18     -10.306 -29.168  -6.177  1.00 65.39 LIG-0.35  N 
ATOM     24 H    ASN B  18      -9.561 -29.104  -5.753  1.00 65.39 LIG 0.16  HD
ATOM     25 O    TYR B  17     -11.675 -28.440  -7.777  1.00 61.36 LIG-0.27  OA
BRANCH 23 26
ATOM     26  CA  ASN B  18     -11.321 -30.001  -5.512  1.00 70.74 LIG 0.17  C 
BRANCH 26 27
ATOM     27  CB  ASN B  18     -12.335 -29.089  -4.806  1.00 84.74 LIG 0.14  C 
BRANCH 27 28
ATOM     28  CG  ASN B  18     -12.619 -29.529  -3.364  1.00 96.34 LIG 0.22  C 
ATOM     29 OD1  ASN B  18     -11.721 -30.012  -2.656  1.00 99.44 LIG-0.27  OA
ATOM     30  ND2 ASN B  18     -13.876 -29.382  -2.928  1.00 94.73 LIG-0.37  N 
ATOM     31 21HD ASN B  18     -14.086 -29.626  -2.130  1.00 94.73 LIG 0.16  HD
ATOM     32 22HD ASN B  18     -14.474 -29.044  -3.445  1.00 94.73 LIG 0.16  HD
ENDBRANCH 27 28
ENDBRANCH 26 27
BRANCH 26 33
ATOM     33  C   ASN B  18     -12.022 -31.100  -6.347  1.00 72.97 LIG 0.22  C 
ATOM     34 O    ASN B  18     -12.449 -30.900  -7.493  1.00 74.17 LIG-0.29  OA
ENDBRANCH 26 33
ENDBRANCH 23 26
ENDBRANCH 21 22
BRANCH 21 35
ATOM     35  CB  TYR B  17      -9.132 -26.627  -7.452  1.00 54.83 LIG 0.07  C 
BRANCH 35 36
ATOM     36  CG  TYR B  17     -10.296 -26.151  -6.670  1.00 56.96 LIG-0.06  A 
ATOM     37  CD2 TYR B  17     -10.290 -26.248  -5.274  1.00 61.26 LIG 0.01  A 
ATOM     38  CE2 TYR B  17     -11.367 -25.824  -4.528  1.00 70.21 LIG 0.04  A 
ATOM     39  CZ  TYR B  17     -12.469 -25.310  -5.189  1.00 76.40 LIG 0.07  A 
ATOM     40  CE1 TYR B  17     -12.501 -25.212  -6.575  1.00 67.10 LIG 0.04  A 
ATOM     41  CD1 TYR B  17     -11.408 -25.642  -7.305  1.00 57.92 LIG 0.01  A 
BRANCH 39 42
ATOM     42 OH   TYR B  17     -13.540 -24.896  -4.453  1.00 89.25 LIG-0.36  OA
ATOM     43 HH   TYR B  17     -13.559 -24.057  -4.433  1.00 89.25 LIG 0.22  HD
ENDBRANCH 39 42
ENDBRANCH 35 36
ENDBRANCH 21 35
ENDBRANCH 19 21
ENDBRANCH 12 17
ENDBRANCH 9 12
ENDBRANCH 4 8
BRANCH 1 44
ATOM     44  CA  ARG B  14      -5.881 -28.680 -16.113  1.00 32.45 LIG 0.18  C 
BRANCH 44 45
ATOM     45  N   ARG B  14      -4.797 -28.154 -15.315  1.00 38.19 LIG-0.35  N 
ATOM     46 H    ARG B  14      -4.084 -28.636 -15.340  1.00 38.19 LIG 0.16  HD
ATOM     47  C   PRO B  13      -4.891 -27.025 -14.607  1.00 38.91 LIG 0.24  C 
ATOM     48 O    PRO B  13      -5.889 -26.333 -14.584  1.00 32.88 LIG-0.27  OA
BRANCH 47 49
ATOM     49  CA  PRO B  13      -3.628 -26.598 -13.832  1.00 38.31 LIG 0.18  C 
ATOM     50  N   PRO B  13      -3.475 -25.165 -13.701  1.00 38.88 LIG-0.34  N 
ATOM     51  CD  PRO B  13      -3.216 -24.774 -12.308  1.00 43.50 LIG 0.13  C 
ATOM     52  C   PRO B  12      -3.532 -24.298 -14.726  1.00 40.77 LIG 0.26  C 
ATOM     53  CG  PRO B  13      -2.894 -26.066 -11.636  1.00 43.53 LIG 0.02  C 
ATOM     54  CB  PRO B  13      -3.686 -27.078 -12.382  1.00 39.91 LIG 0.04  C 
ATOM     55 O    PRO B  12      -3.659 -24.644 -15.910  1.00 44.45 LIG-0.27  OA
BRANCH 52 56
ATOM     56  CA  PRO B  12      -3.435 -22.831 -14.391  1.00 38.46 LIG 0.35  C 
ATOM     57  CB  PRO B  12      -3.449 -22.024 -15.690  1.00 43.42 LIG 0.05  C 
ATOM     58  CG  PRO B  12      -2.461 -20.951 -15.483  1.00 41.12 LIG 0.04  C 
ATOM     59  CD  PRO B  12      -1.398 -21.550 -14.610  1.00 39.74 LIG 0.32  C 
ATOM     60  N   PRO B  12      -2.131 -22.557 -13.838  1.00 38.12 LIG 0.32  N 
ENDBRANCH 52 56
ENDBRANCH 47 49
ENDBRANCH 44 45
BRANCH 44 61
ATOM     61  CB  ARG B  14      -5.329 -29.817 -16.979  1.00 34.42 LIG 0.04  C 
BRANCH 61 62
ATOM     62  CG  ARG B  14      -6.385 -30.775 -17.531  1.00 32.66 LIG 0.02  C 
BRANCH 62 63
ATOM     63  CD  ARG B  14      -6.655 -30.438 -18.984  1.00 35.24 LIG 0.14  C 
BRANCH 63 64
ATOM     64  NE  ARG B  14      -7.993 -30.861 -19.432  1.00 42.22 LIG-0.23  N 
ATOM     65  CZ  ARG B  14      -8.346 -32.096 -19.794  1.00 44.72 LIG 0.67  C 
ATOM     66  NH2 ARG B  14      -7.479 -33.091 -19.800  1.00 43.48 LIG-0.23  N 
ATOM     67  NH1 ARG B  14      -9.588 -32.335 -20.171  1.00 46.51 LIG-0.23  N 
ATOM     68 1HH2 ARG B  14      -6.662 -32.951 -19.567  1.00 43.48 LIG 0.17  HD
ATOM     69 2HH2 ARG B  14      -7.730 -33.879 -20.037  1.00 43.48 LIG 0.17  HD
ATOM     70 2HH1 ARG B  14      -9.821 -33.129 -20.406  1.00 46.51 LIG 0.17  HD
ATOM     71 1HH1 ARG B  14     -10.164 -31.698 -20.183  1.00 46.51 LIG 0.17  HD
ATOM     72 HE   ARG B  14      -8.604 -30.255 -19.464  1.00 42.22 LIG 0.18  HD
ENDBRANCH 63 64
ENDBRANCH 62 63
ENDBRANCH 61 62
ENDBRANCH 44 61
ENDBRANCH 1 44
TORSDOF 22
ENDMDL
MODEL 36
USER: ADFR SOLUTION from run 76
USER: SCORE 22.660977 LL:  -4.727 LR: -19.039 RR:   0.000 FEB: -12.476
USER: RMSD 4.443481
USER: SEED 75
USER: STATUS no improvement in best in 17 clusters for 5 generations
USER: GENES 24
USER: genes 0 Translation |==|  0.47632 0.48975 0.56285
USER: genes 1 Rotation |==|  0.47013 0.56040 0.54613 0.99329
USER: genes 2 Torsion [N]-CA--C-[O] |==|  0.82082
USER: genes 3 Torsion [C]-N--CA-[CB] |==|  0.23320
USER: genes 4 Torsion [N]-CA--CB-[CG2] |==|  0.32606
USER: genes 5 Torsion [CA]-CB--CG1-[CD1] |==|  0.58908
USER: genes 6 Torsion [N]-CA--C-[N] |==|  0.37113
USER: genes 7 Torsion [C]-N--CA-[C] |==|  0.80980
USER: genes 8 Torsion [N]-CA--C-[N] |==|  0.93914
USER: genes 9 Torsion [C]-N--CA-[CB] |==|  0.72217
USER: genes 10 Torsion [N]-CA--CB-[CG] |==|  0.23541
USER: genes 11 Torsion [CA]-CB--CG-[ND2] |==|  0.80065
USER: genes 12 Torsion [N]-CA--C-[O] |==|  0.61205
USER: genes 13 Torsion [N]-CA--CB-[CG] |==|  0.69235
USER: genes 14 Torsion [CA]-CB--CG-[CD2] |==|  0.77876
USER: genes 15 Torsion [CE2]-CZ--OH-[HH] |==|  0.15151
USER: genes 16 Torsion [N]-C--CA-[N] |==|  0.38514
USER: genes 17 Torsion [C]-CA--N-[C] |==|  0.78768
USER: genes 18 Torsion [N]-C--CA-[N] |==|  0.45989
USER: genes 19 Torsion [N]-C--CA-[CB] |==|  0.65059
USER: genes 20 Torsion [C]-CA--CB-[CG] |==|  0.53596
USER: genes 21 Torsion [CA]-CB--CG-[CD] |==|  0.36131
USER: genes 22 Torsion [CB]-CG--CD-[NE] |==|  0.44781
USER: genes 23 Torsion [CG]-CD--NE-[CZ] |==|  0.37839
ROOT
ATOM      1  C   ARG B  14      -9.982 -28.838 -10.189  1.00 32.92 LIG 0.24  C 
ATOM      2 O    ARG B  14      -9.055 -29.644 -10.295  1.00 37.82 LIG-0.27  OA
ATOM      3  N   PRO B  15     -10.774 -28.498 -11.210  1.00 31.88 LIG-0.34  N 
ATOM      4  CA  PRO B  15     -10.588 -29.121 -12.523  1.00 30.79 LIG 0.18  C 
ATOM      5  CB  PRO B  15     -11.716 -28.530 -13.345  1.00 31.22 LIG 0.04  C 
ATOM      6  CG  PRO B  15     -12.780 -28.272 -12.326  1.00 29.82 LIG 0.02  C 
ATOM      7  CD  PRO B  15     -12.030 -27.732 -11.151  1.00 31.43 LIG 0.13  C 
ENDROOT
BRANCH 4 8
ATOM      8  C   PRO B  15      -9.263 -28.700 -13.105  1.00 33.68 LIG 0.24  C 
ATOM      9  N   ILE B  16      -8.351 -29.646 -13.226  1.00 35.41 LIG-0.35  N 
ATOM     10 H    ILE B  16      -8.447 -30.452 -12.940  1.00 35.41 LIG 0.16  HD
ATOM     11 O    PRO B  15      -9.055 -27.530 -13.388  1.00 34.05 LIG-0.27  OA
BRANCH 9 12
ATOM     12  CA  ILE B  16      -7.122 -29.386 -13.852  1.00 37.77 LIG 0.18  C 
BRANCH 12 13
ATOM     13  CB  ILE B  16      -6.122 -28.768 -12.887  1.00 42.27 LIG 0.01  C 
ATOM     14  CG2 ILE B  16      -4.940 -29.680 -12.722  1.00 44.80 LIG 0.01  C 
BRANCH 13 15
ATOM     15  CG1 ILE B  16      -5.721 -27.382 -13.423  1.00 47.53 LIG 0.00  C 
ATOM     16  CD1 ILE B  16      -4.295 -26.938 -13.115  1.00 51.74 LIG 0.01  C 
ENDBRANCH 13 15
ENDBRANCH 12 13
BRANCH 12 17
ATOM     17  C   ILE B  16      -6.675 -30.701 -14.404  1.00 42.33 LIG 0.24  C 
ATOM     18 O    ILE B  16      -6.762 -31.708 -13.758  1.00 39.29 LIG-0.27  OA
ATOM     19  N   TYR B  17      -6.241 -30.664 -15.650  1.00 46.96 LIG-0.35  N 
ATOM     20 H    TYR B  17      -6.079 -29.931 -16.069  1.00 46.96 LIG 0.16  HD
BRANCH 19 21
ATOM     21  CA  TYR B  17      -5.992 -31.840 -16.436  1.00 51.19 LIG 0.18  C 
BRANCH 21 22
ATOM     22  C   TYR B  17      -4.819 -32.574 -15.891  1.00 56.10 LIG 0.24  C 
ATOM     23  N   ASN B  18      -3.965 -31.894 -15.151  1.00 65.39 LIG-0.35  N 
ATOM     24 H    ASN B  18      -4.115 -31.106 -14.843  1.00 65.39 LIG 0.16  HD
ATOM     25 O    TYR B  17      -4.724 -33.773 -16.078  1.00 61.36 LIG-0.27  OA
BRANCH 23 26
ATOM     26  CA  ASN B  18      -2.652 -32.454 -14.789  1.00 70.74 LIG 0.17  C 
BRANCH 26 27
ATOM     27  CB  ASN B  18      -2.718 -33.004 -13.356  1.00 84.74 LIG 0.14  C 
BRANCH 27 28
ATOM     28  CG  ASN B  18      -3.266 -34.436 -13.300  1.00 96.34 LIG 0.22  C 
ATOM     29 OD1  ASN B  18      -2.519 -35.396 -13.058  1.00 99.44 LIG-0.27  OA
ATOM     30  ND2 ASN B  18      -4.574 -34.588 -13.543  1.00 94.73 LIG-0.37  N 
ATOM     31 21HD ASN B  18      -4.924 -35.373 -13.534  1.00 94.73 LIG 0.16  HD
ATOM     32 22HD ASN B  18      -5.064 -33.900 -13.708  1.00 94.73 LIG 0.16  HD
ENDBRANCH 27 28
ENDBRANCH 26 27
BRANCH 26 33
ATOM     33  C   ASN B  18      -1.999 -33.465 -15.761  1.00 72.97 LIG 0.22  C 
ATOM     34 O    ASN B  18      -1.397 -34.476 -15.371  1.00 74.17 LIG-0.29  OA
ENDBRANCH 26 33
ENDBRANCH 23 26
ENDBRANCH 21 22
BRANCH 21 35
ATOM     35  CB  TYR B  17      -5.624 -31.396 -17.842  1.00 54.83 LIG 0.07  C 
BRANCH 35 36
ATOM     36  CG  TYR B  17      -6.688 -31.745 -18.812  1.00 56.96 LIG-0.06  A 
ATOM     37  CD2 TYR B  17      -6.787 -33.051 -19.306  1.00 61.26 LIG 0.01  A 
ATOM     38  CE2 TYR B  17      -7.759 -33.394 -20.217  1.00 70.21 LIG 0.04  A 
ATOM     39  CZ  TYR B  17      -8.635 -32.414 -20.652  1.00 76.40 LIG 0.07  A 
ATOM     40  CE1 TYR B  17      -8.551 -31.109 -20.182  1.00 67.10 LIG 0.04  A 
ATOM     41  CD1 TYR B  17      -7.568 -30.785 -19.265  1.00 57.92 LIG 0.01  A 
BRANCH 39 42
ATOM     42 OH   TYR B  17      -9.595 -32.750 -21.561  1.00 89.25 LIG-0.36  OA
ATOM     43 HH   TYR B  17     -10.042 -33.399 -21.270  1.00 89.25 LIG 0.22  HD
ENDBRANCH 39 42
ENDBRANCH 35 36
ENDBRANCH 21 35
ENDBRANCH 19 21
ENDBRANCH 12 17
ENDBRANCH 9 12
ENDBRANCH 4 8
BRANCH 1 44
ATOM     44  CA  ARG B  14     -10.216 -28.163  -8.870  1.00 32.45 LIG 0.18  C 
BRANCH 44 45
ATOM     45  N   ARG B  14     -10.070 -29.239  -7.917  1.00 38.19 LIG-0.35  N 
ATOM     46 H    ARG B  14      -9.321 -29.228  -7.495  1.00 38.19 LIG 0.16  HD
ATOM     47  C   PRO B  13     -11.011 -30.165  -7.710  1.00 38.91 LIG 0.24  C 
ATOM     48 O    PRO B  13     -12.077 -30.175  -8.291  1.00 32.88 LIG-0.27  OA
BRANCH 47 49
ATOM     49  CA  PRO B  13     -10.699 -31.228  -6.637  1.00 38.31 LIG 0.18  C 
ATOM     50  N   PRO B  13     -11.851 -31.996  -6.217  1.00 38.88 LIG-0.34  N 
ATOM     51  CD  PRO B  13     -11.583 -33.441  -6.260  1.00 43.50 LIG 0.13  C 
ATOM     52  C   PRO B  12     -13.014 -31.460  -5.810  1.00 40.77 LIG 0.26  C 
ATOM     53  CG  PRO B  13     -10.103 -33.517  -6.417  1.00 43.53 LIG 0.02  C 
ATOM     54  CB  PRO B  13      -9.747 -32.294  -7.182  1.00 39.91 LIG 0.04  C 
ATOM     55 O    PRO B  12     -13.202 -30.240  -5.689  1.00 44.45 LIG-0.27  OA
BRANCH 52 56
ATOM     56  CA  PRO B  12     -14.136 -32.415  -5.489  1.00 38.46 LIG 0.35  C 
ATOM     57  CB  PRO B  12     -15.370 -32.021  -6.303  1.00 43.42 LIG 0.05  C 
ATOM     58  CG  PRO B  12     -16.506 -32.198  -5.382  1.00 41.12 LIG 0.04  C 
ATOM     59  CD  PRO B  12     -15.972 -31.862  -4.020  1.00 39.74 LIG 0.32  C 
ATOM     60  N   PRO B  12     -14.554 -32.213  -4.123  1.00 38.12 LIG 0.32  N 
ENDBRANCH 52 56
ENDBRANCH 47 49
ENDBRANCH 44 45
BRANCH 44 61
ATOM     61  CB  ARG B  14      -9.092 -27.151  -8.624  1.00 34.42 LIG 0.04  C 
BRANCH 61 62
ATOM     62  CG  ARG B  14      -9.017 -26.609  -7.197  1.00 32.66 LIG 0.02  C 
BRANCH 62 63
ATOM     63  CD  ARG B  14      -7.594 -26.730  -6.691  1.00 35.24 LIG 0.14  C 
BRANCH 63 64
ATOM     64  NE  ARG B  14      -7.320 -25.859  -5.534  1.00 42.22 LIG-0.23  N 
ATOM     65  CZ  ARG B  14      -6.652 -26.205  -4.431  1.00 44.72 LIG 0.67  C 
ATOM     66  NH2 ARG B  14      -6.171 -27.423  -4.266  1.00 43.48 LIG-0.23  N 
ATOM     67  NH1 ARG B  14      -6.476 -25.317  -3.470  1.00 46.51 LIG-0.23  N 
ATOM     68 1HH2 ARG B  14      -6.285 -28.017  -4.877  1.00 43.48 LIG 0.17  HD
ATOM     69 2HH2 ARG B  14      -5.743 -27.622  -3.547  1.00 43.48 LIG 0.17  HD
ATOM     70 2HH1 ARG B  14      -6.046 -25.534  -2.757  1.00 46.51 LIG 0.17  HD
ATOM     71 1HH1 ARG B  14      -6.790 -24.522  -3.557  1.00 46.51 LIG 0.17  HD
ATOM     72 HE   ARG B  14      -7.619 -25.053  -5.572  1.00 42.22 LIG 0.18  HD
ENDBRANCH 63 64
ENDBRANCH 62 63
ENDBRANCH 61 62
ENDBRANCH 44 61
ENDBRANCH 1 44
TORSDOF 22
ENDMDL
MODEL 37
USER: ADFR SOLUTION from run 119
USER: SCORE 21.496295 LL:  -4.650 LR: -19.000 RR:   0.000 FEB: -12.437
USER: RMSD 12.884138
USER: SEED 118
USER: STATUS no improvement in best in 16 clusters for 5 generations
USER: GENES 24
USER: genes 0 Translation |==|  0.65057 0.52348 0.43425
USER: genes 1 Rotation |==|  0.26938 0.16644 0.20757 0.50613
USER: genes 2 Torsion [N]-CA--C-[O] |==|  0.95001
USER: genes 3 Torsion [C]-N--CA-[CB] |==|  0.38773
USER: genes 4 Torsion [N]-CA--CB-[CG2] |==|  0.60725
USER: genes 5 Torsion [CA]-CB--CG1-[CD1] |==|  0.30009
USER: genes 6 Torsion [N]-CA--C-[N] |==|  0.42195
USER: genes 7 Torsion [C]-N--CA-[C] |==|  0.73311
USER: genes 8 Torsion [N]-CA--C-[N] |==|  0.42912
USER: genes 9 Torsion [C]-N--CA-[CB] |==|  0.46984
USER: genes 10 Torsion [N]-CA--CB-[CG] |==|  0.56357
USER: genes 11 Torsion [CA]-CB--CG-[ND2] |==|  0.76260
USER: genes 12 Torsion [N]-CA--C-[O] |==|  0.33192
USER: genes 13 Torsion [N]-CA--CB-[CG] |==|  0.08256
USER: genes 14 Torsion [CA]-CB--CG-[CD2] |==|  0.73564
USER: genes 15 Torsion [CE2]-CZ--OH-[HH] |==|  0.80373
USER: genes 16 Torsion [N]-C--CA-[N] |==|  0.49528
USER: genes 17 Torsion [C]-CA--N-[C] |==|  0.67716
USER: genes 18 Torsion [N]-C--CA-[N] |==|  0.25425
USER: genes 19 Torsion [N]-C--CA-[CB] |==|  0.48580
USER: genes 20 Torsion [C]-CA--CB-[CG] |==|  0.50691
USER: genes 21 Torsion [CA]-CB--CG-[CD] |==|  0.38131
USER: genes 22 Torsion [CB]-CG--CD-[NE] |==|  0.42201
USER: genes 23 Torsion [CG]-CD--NE-[CZ] |==|  0.16279
ROOT
ATOM      1  C   ARG B  14      -6.061 -28.206 -13.757  1.00 32.92 LIG 0.24  C 
ATOM      2 O    ARG B  14      -7.112 -27.638 -14.062  1.00 37.82 LIG-0.27  OA
ATOM      3  N   PRO B  15      -6.022 -29.420 -13.202  1.00 31.88 LIG-0.34  N 
ATOM      4  CA  PRO B  15      -7.264 -30.161 -12.965  1.00 30.79 LIG 0.18  C 
ATOM      5  CB  PRO B  15      -6.774 -31.484 -12.415  1.00 31.22 LIG 0.04  C 
ATOM      6  CG  PRO B  15      -5.435 -31.647 -13.062  1.00 29.82 LIG 0.02  C 
ATOM      7  CD  PRO B  15      -4.840 -30.277 -13.006  1.00 31.43 LIG 0.13  C 
ENDROOT
BRANCH 4 8
ATOM      8  C   PRO B  15      -8.089 -29.452 -11.921  1.00 33.68 LIG 0.24  C 
ATOM      9  N   ILE B  16      -9.377 -29.734 -11.904  1.00 35.41 LIG-0.35  N 
ATOM     10 H    ILE B  16      -9.772 -30.237 -12.480  1.00 35.41 LIG 0.16  HD
ATOM     11 O    PRO B  15      -7.575 -28.626 -11.182  1.00 34.05 LIG-0.27  OA
BRANCH 9 12
ATOM     12  CA  ILE B  16     -10.216 -29.212 -10.906  1.00 37.77 LIG 0.18  C 
BRANCH 12 13
ATOM     13  CB  ILE B  16     -11.558 -28.779 -11.474  1.00 42.27 LIG 0.01  C 
ATOM     14  CG2 ILE B  16     -12.009 -27.510 -10.808  1.00 44.80 LIG 0.01  C 
BRANCH 13 15
ATOM     15  CG1 ILE B  16     -11.414 -28.620 -12.998  1.00 47.53 LIG 0.00  C 
ATOM     16  CD1 ILE B  16     -12.096 -29.690 -13.845  1.00 51.74 LIG 0.01  C 
ENDBRANCH 13 15
ENDBRANCH 12 13
BRANCH 12 17
ATOM     17  C   ILE B  16     -10.329 -30.294  -9.880  1.00 42.33 LIG 0.24  C 
ATOM     18 O    ILE B  16     -10.174 -31.446 -10.174  1.00 39.29 LIG-0.27  OA
ATOM     19  N   TYR B  17     -10.553 -29.874  -8.649  1.00 46.96 LIG-0.35  N 
ATOM     20 H    TYR B  17     -10.770 -29.063  -8.463  1.00 46.96 LIG 0.16  HD
BRANCH 19 21
ATOM     21  CA  TYR B  17     -10.461 -30.723  -7.495  1.00 51.19 LIG 0.18  C 
BRANCH 21 22
ATOM     22  C   TYR B  17     -11.809 -31.235  -7.135  1.00 56.10 LIG 0.24  C 
ATOM     23  N   ASN B  18     -11.872 -32.376  -6.477  1.00 65.39 LIG-0.35  N 
ATOM     24 H    ASN B  18     -11.194 -32.762  -6.115  1.00 65.39 LIG 0.16  HD
ATOM     25 O    TYR B  17     -12.792 -30.563  -7.389  1.00 61.36 LIG-0.27  OA
BRANCH 23 26
ATOM     26  CA  ASN B  18     -13.146 -33.093  -6.308  1.00 70.74 LIG 0.17  C 
BRANCH 26 27
ATOM     27  CB  ASN B  18     -12.864 -34.496  -5.749  1.00 84.74 LIG 0.14  C 
BRANCH 27 28
ATOM     28  CG  ASN B  18     -13.993 -35.489  -6.054  1.00 96.34 LIG 0.22  C 
ATOM     29 OD1  ASN B  18     -13.949 -36.217  -7.058  1.00 99.44 LIG-0.27  OA
ATOM     30  ND2 ASN B  18     -15.021 -35.511  -5.196  1.00 94.73 LIG-0.37  N 
ATOM     31 21HD ASN B  18     -15.683 -36.042  -5.332  1.00 94.73 LIG 0.16  HD
ATOM     32 22HD ASN B  18     -15.020 -34.992  -4.510  1.00 94.73 LIG 0.16  HD
ENDBRANCH 27 28
ENDBRANCH 26 27
BRANCH 26 33
ATOM     33  C   ASN B  18     -14.283 -32.385  -5.531  1.00 72.97 LIG 0.22  C 
ATOM     34 O    ASN B  18     -15.382 -32.127  -6.041  1.00 74.17 LIG-0.29  OA
ENDBRANCH 26 33
ENDBRANCH 23 26
ENDBRANCH 21 22
BRANCH 21 35
ATOM     35  CB  TYR B  17      -9.979 -29.878  -6.327  1.00 54.83 LIG 0.07  C 
BRANCH 35 36
ATOM     36  CG  TYR B  17     -10.414 -28.469  -6.466  1.00 56.96 LIG-0.06  A 
ATOM     37  CD2 TYR B  17      -9.557 -27.523  -7.040  1.00 61.26 LIG 0.01  A 
ATOM     38  CE2 TYR B  17      -9.935 -26.206  -7.167  1.00 70.21 LIG 0.04  A 
ATOM     39  CZ  TYR B  17     -11.182 -25.827  -6.701  1.00 76.40 LIG 0.07  A 
ATOM     40  CE1 TYR B  17     -12.047 -26.747  -6.120  1.00 67.10 LIG 0.04  A 
ATOM     41  CD1 TYR B  17     -11.648 -28.066  -6.003  1.00 57.92 LIG 0.01  A 
BRANCH 39 42
ATOM     42 OH   TYR B  17     -11.557 -24.521  -6.819  1.00 89.25 LIG-0.36  OA
ATOM     43 HH   TYR B  17     -11.108 -24.052  -6.285  1.00 89.25 LIG 0.22  HD
ENDBRANCH 39 42
ENDBRANCH 35 36
ENDBRANCH 21 35
ENDBRANCH 19 21
ENDBRANCH 12 17
ENDBRANCH 9 12
ENDBRANCH 4 8
BRANCH 1 44
ATOM     44  CA  ARG B  14      -4.758 -27.494 -13.970  1.00 32.45 LIG 0.18  C 
BRANCH 44 45
ATOM     45  N   ARG B  14      -5.155 -26.261 -14.611  1.00 38.19 LIG-0.35  N 
ATOM     46 H    ARG B  14      -5.648 -25.758 -14.117  1.00 38.19 LIG 0.16  HD
ATOM     47  C   PRO B  13      -4.791 -25.932 -15.853  1.00 38.91 LIG 0.24  C 
ATOM     48 O    PRO B  13      -4.081 -26.632 -16.548  1.00 32.88 LIG-0.27  OA
BRANCH 47 49
ATOM     49  CA  PRO B  13      -5.285 -24.566 -16.371  1.00 38.31 LIG 0.18  C 
ATOM     50  N   PRO B  13      -4.364 -23.477 -16.128  1.00 38.88 LIG-0.34  N 
ATOM     51  CD  PRO B  13      -4.115 -22.698 -17.349  1.00 43.50 LIG 0.13  C 
ATOM     52  C   PRO B  12      -3.824 -23.191 -14.932  1.00 40.77 LIG 0.26  C 
ATOM     53  CG  PRO B  13      -5.178 -23.162 -18.284  1.00 43.53 LIG 0.02  C 
ATOM     54  CB  PRO B  13      -5.424 -24.575 -17.893  1.00 39.91 LIG 0.04  C 
ATOM     55 O    PRO B  12      -4.110 -23.797 -13.888  1.00 44.45 LIG-0.27  OA
BRANCH 52 56
ATOM     56  CA  PRO B  12      -2.817 -22.070 -14.882  1.00 38.46 LIG 0.35  C 
ATOM     57  CB  PRO B  12      -2.422 -21.821 -13.425  1.00 43.42 LIG 0.05  C 
ATOM     58  CG  PRO B  12      -2.333 -20.357 -13.299  1.00 41.12 LIG 0.04  C 
ATOM     59  CD  PRO B  12      -3.375 -19.811 -14.230  1.00 39.74 LIG 0.32  C 
ATOM     60  N   PRO B  12      -3.460 -20.838 -15.272  1.00 38.12 LIG 0.32  N 
ENDBRANCH 52 56
ENDBRANCH 47 49
ENDBRANCH 44 45
BRANCH 44 61
ATOM     61  CB  ARG B  14      -4.151 -27.150 -12.606  1.00 34.42 LIG 0.04  C 
BRANCH 61 62
ATOM     62  CG  ARG B  14      -2.841 -26.365 -12.665  1.00 32.66 LIG 0.02  C 
BRANCH 62 63
ATOM     63  CD  ARG B  14      -2.870 -25.266 -11.623  1.00 35.24 LIG 0.14  C 
BRANCH 63 64
ATOM     64  NE  ARG B  14      -1.528 -24.900 -11.137  1.00 42.22 LIG-0.23  N 
ATOM     65  CZ  ARG B  14      -0.516 -24.456 -11.887  1.00 44.72 LIG 0.67  C 
ATOM     66  NH2 ARG B  14      -0.630 -24.318 -13.194  1.00 43.48 LIG-0.23  N 
ATOM     67  NH1 ARG B  14       0.637 -24.159 -11.316  1.00 46.51 LIG-0.23  N 
ATOM     68 1HH2 ARG B  14      -1.371 -24.516 -13.584  1.00 43.48 LIG 0.17  HD
ATOM     69 2HH2 ARG B  14       0.036 -24.029 -13.656  1.00 43.48 LIG 0.17  HD
ATOM     70 2HH1 ARG B  14       1.293 -23.873 -11.793  1.00 46.51 LIG 0.17  HD
ATOM     71 1HH1 ARG B  14       0.733 -24.253 -10.467  1.00 46.51 LIG 0.17  HD
ATOM     72 HE   ARG B  14      -1.382 -24.980 -10.293  1.00 42.22 LIG 0.18  HD
ENDBRANCH 63 64
ENDBRANCH 62 63
ENDBRANCH 61 62
ENDBRANCH 44 61
ENDBRANCH 1 44
TORSDOF 22
ENDMDL
MODEL 38
USER: ADFR SOLUTION from run 197
USER: SCORE 22.878430 LL:  -4.584 LR: -18.985 RR:   0.000 FEB: -12.422
USER: RMSD 3.650675
USER: SEED 196
USER: STATUS no improvement in best in 14 clusters for 5 generations
USER: GENES 24
USER: genes 0 Translation |==|  0.46886 0.49269 0.59242
USER: genes 1 Rotation |==|  0.52591 0.51676 0.44487 0.99599
USER: genes 2 Torsion [N]-CA--C-[O] |==|  0.95023
USER: genes 3 Torsion [C]-N--CA-[CB] |==|  0.50074
USER: genes 4 Torsion [N]-CA--CB-[CG2] |==|  0.30507
USER: genes 5 Torsion [CA]-CB--CG1-[CD1] |==|  0.52034
USER: genes 6 Torsion [N]-CA--C-[N] |==|  0.42100
USER: genes 7 Torsion [C]-N--CA-[C] |==|  0.84102
USER: genes 8 Torsion [N]-CA--C-[N] |==|  0.90622
USER: genes 9 Torsion [C]-N--CA-[CB] |==|  0.60898
USER: genes 10 Torsion [N]-CA--CB-[CG] |==|  0.81111
USER: genes 11 Torsion [CA]-CB--CG-[ND2] |==|  0.46427
USER: genes 12 Torsion [N]-CA--C-[O] |==|  0.68698
USER: genes 13 Torsion [N]-CA--CB-[CG] |==|  0.97974
USER: genes 14 Torsion [CA]-CB--CG-[CD2] |==|  0.28606
USER: genes 15 Torsion [CE2]-CZ--OH-[HH] |==|  0.12619
USER: genes 16 Torsion [N]-C--CA-[N] |==|  0.44381
USER: genes 17 Torsion [C]-CA--N-[C] |==|  0.79647
USER: genes 18 Torsion [N]-C--CA-[N] |==|  0.46622
USER: genes 19 Torsion [N]-C--CA-[CB] |==|  0.58062
USER: genes 20 Torsion [C]-CA--CB-[CG] |==|  0.35868
USER: genes 21 Torsion [CA]-CB--CG-[CD] |==|  0.03274
USER: genes 22 Torsion [CB]-CG--CD-[NE] |==|  0.44588
USER: genes 23 Torsion [CG]-CD--NE-[CZ] |==|  0.62926
ROOT
ATOM      1  C   ARG B  14     -10.150 -28.783  -9.368  1.00 32.92 LIG 0.24  C 
ATOM      2 O    ARG B  14      -9.608 -29.879  -9.524  1.00 37.82 LIG-0.27  OA
ATOM      3  N   PRO B  15     -10.513 -27.997 -10.385  1.00 31.88 LIG-0.34  N 
ATOM      4  CA  PRO B  15     -10.311 -28.442 -11.767  1.00 30.79 LIG 0.18  C 
ATOM      5  CB  PRO B  15     -10.920 -27.319 -12.581  1.00 31.22 LIG 0.04  C 
ATOM      6  CG  PRO B  15     -11.990 -26.788 -11.681  1.00 29.82 LIG 0.02  C 
ATOM      7  CD  PRO B  15     -11.355 -26.790 -10.328  1.00 31.43 LIG 0.13  C 
ENDROOT
BRANCH 4 8
ATOM      8  C   PRO B  15      -8.836 -28.539 -12.061  1.00 33.68 LIG 0.24  C 
ATOM      9  N   ILE B  16      -8.492 -29.307 -13.077  1.00 35.41 LIG-0.35  N 
ATOM     10 H    ILE B  16      -9.042 -29.792 -13.527  1.00 35.41 LIG 0.16  HD
ATOM     11 O    PRO B  15      -8.024 -27.970 -11.348  1.00 34.05 LIG-0.27  OA
BRANCH 9 12
ATOM     12  CA  ILE B  16      -7.156 -29.384 -13.502  1.00 37.77 LIG 0.18  C 
BRANCH 12 13
ATOM     13  CB  ILE B  16      -6.999 -30.323 -14.688  1.00 42.27 LIG 0.01  C 
ATOM     14  CG2 ILE B  16      -6.683 -29.534 -15.926  1.00 44.80 LIG 0.01  C 
BRANCH 13 15
ATOM     15  CG1 ILE B  16      -5.904 -31.351 -14.353  1.00 47.53 LIG 0.00  C 
ATOM     16  CD1 ILE B  16      -5.486 -32.271 -15.495  1.00 51.74 LIG 0.01  C 
ENDBRANCH 13 15
ENDBRANCH 12 13
BRANCH 12 17
ATOM     17  C   ILE B  16      -6.758 -27.975 -13.806  1.00 42.33 LIG 0.24  C 
ATOM     18 O    ILE B  16      -7.574 -27.153 -14.117  1.00 39.29 LIG-0.27  OA
ATOM     19  N   TYR B  17      -5.474 -27.713 -13.654  1.00 46.96 LIG-0.35  N 
ATOM     20 H    TYR B  17      -4.881 -28.325 -13.538  1.00 46.96 LIG 0.16  HD
BRANCH 19 21
ATOM     21  CA  TYR B  17      -4.931 -26.384 -13.666  1.00 51.19 LIG 0.18  C 
BRANCH 21 22
ATOM     22  C   TYR B  17      -5.280 -25.706 -14.942  1.00 56.10 LIG 0.24  C 
ATOM     23  N   ASN B  18      -5.351 -26.451 -16.028  1.00 65.39 LIG-0.35  N 
ATOM     24 H    ASN B  18      -5.356 -27.310 -16.024  1.00 65.39 LIG 0.16  HD
ATOM     25 O    TYR B  17      -5.558 -24.521 -14.933  1.00 61.36 LIG-0.27  OA
BRANCH 23 26
ATOM     26  CA  ASN B  18      -5.427 -25.844 -17.367  1.00 70.74 LIG 0.17  C 
BRANCH 26 27
ATOM     27  CB  ASN B  18      -6.404 -26.656 -18.231  1.00 84.74 LIG 0.14  C 
BRANCH 27 28
ATOM     28  CG  ASN B  18      -5.876 -28.059 -18.557  1.00 96.34 LIG 0.22  C 
ATOM     29 OD1  ASN B  18      -4.686 -28.354 -18.364  1.00 99.44 LIG-0.27  OA
ATOM     30  ND2 ASN B  18      -6.756 -28.927 -19.072  1.00 94.73 LIG-0.37  N 
ATOM     31 21HD ASN B  18      -6.504 -29.721 -19.282  1.00 94.73 LIG 0.16  HD
ATOM     32 22HD ASN B  18      -7.574 -28.689 -19.194  1.00 94.73 LIG 0.16  HD
ENDBRANCH 27 28
ENDBRANCH 26 27
BRANCH 26 33
ATOM     33  C   ASN B  18      -5.703 -24.324 -17.464  1.00 72.97 LIG 0.22  C 
ATOM     34 O    ASN B  18      -6.755 -23.864 -17.932  1.00 74.17 LIG-0.29  OA
ENDBRANCH 26 33
ENDBRANCH 23 26
ENDBRANCH 21 22
BRANCH 21 35
ATOM     35  CB  TYR B  17      -3.416 -26.494 -13.620  1.00 54.83 LIG 0.07  C 
BRANCH 35 36
ATOM     36  CG  TYR B  17      -2.984 -27.894 -13.404  1.00 56.96 LIG-0.06  A 
ATOM     37  CD2 TYR B  17      -2.497 -28.651 -14.475  1.00 61.26 LIG 0.01  A 
ATOM     38  CE2 TYR B  17      -2.101 -29.958 -14.300  1.00 70.21 LIG 0.04  A 
ATOM     39  CZ  TYR B  17      -2.210 -30.519 -13.039  1.00 76.40 LIG 0.07  A 
ATOM     40  CE1 TYR B  17      -2.698 -29.789 -11.962  1.00 67.10 LIG 0.04  A 
ATOM     41  CD1 TYR B  17      -3.089 -28.477 -12.159  1.00 57.92 LIG 0.01  A 
BRANCH 39 42
ATOM     42 OH   TYR B  17      -1.826 -31.816 -12.864  1.00 89.25 LIG-0.36  OA
ATOM     43 HH   TYR B  17      -1.089 -31.944 -13.245  1.00 89.25 LIG 0.22  HD
ENDBRANCH 39 42
ENDBRANCH 35 36
ENDBRANCH 21 35
ENDBRANCH 19 21
ENDBRANCH 12 17
ENDBRANCH 9 12
ENDBRANCH 4 8
BRANCH 1 44
ATOM     44  CA  ARG B  14     -10.376 -28.271  -7.977  1.00 32.45 LIG 0.18  C 
BRANCH 44 45
ATOM     45  N   ARG B  14     -10.358 -29.474  -7.175  1.00 38.19 LIG-0.35  N 
ATOM     46 H    ARG B  14      -9.645 -29.564  -6.703  1.00 38.19 LIG 0.16  HD
ATOM     47  C   PRO B  13     -11.356 -30.362  -7.168  1.00 38.91 LIG 0.24  C 
ATOM     48 O    PRO B  13     -12.372 -30.230  -7.820  1.00 32.88 LIG-0.27  OA
BRANCH 47 49
ATOM     49  CA  PRO B  13     -11.182 -31.578  -6.235  1.00 38.31 LIG 0.18  C 
ATOM     50  N   PRO B  13     -12.388 -32.356  -6.052  1.00 38.88 LIG-0.34  N 
ATOM     51  CD  PRO B  13     -12.145 -33.789  -6.276  1.00 43.50 LIG 0.13  C 
ATOM     52  C   PRO B  12     -13.576 -31.844  -5.693  1.00 40.77 LIG 0.26  C 
ATOM     53  CG  PRO B  13     -10.658 -33.894  -6.289  1.00 43.53 LIG 0.02  C 
ATOM     54  CB  PRO B  13     -10.199 -32.588  -6.827  1.00 39.91 LIG 0.04  C 
ATOM     55 O    PRO B  12     -13.752 -30.647  -5.416  1.00 44.45 LIG-0.27  OA
BRANCH 52 56
ATOM     56  CA  PRO B  12     -14.745 -32.795  -5.632  1.00 38.46 LIG 0.35  C 
ATOM     57  CB  PRO B  12     -16.030 -32.021  -5.933  1.00 43.42 LIG 0.05  C 
ATOM     58  CG  PRO B  12     -17.029 -32.562  -4.995  1.00 41.12 LIG 0.04  C 
ATOM     59  CD  PRO B  12     -16.262 -32.917  -3.756  1.00 39.74 LIG 0.32  C 
ATOM     60  N   PRO B  12     -14.927 -33.235  -4.270  1.00 38.12 LIG 0.32  N 
ENDBRANCH 52 56
ENDBRANCH 47 49
ENDBRANCH 44 45
BRANCH 44 61
ATOM     61  CB  ARG B  14      -9.181 -27.406  -7.565  1.00 34.42 LIG 0.04  C 
BRANCH 61 62
ATOM     62  CG  ARG B  14      -9.545 -26.027  -7.015  1.00 32.66 LIG 0.02  C 
BRANCH 62 63
ATOM     63  CD  ARG B  14     -11.035 -25.974  -6.746  1.00 35.24 LIG 0.14  C 
BRANCH 63 64
ATOM     64  NE  ARG B  14     -11.412 -24.897  -5.813  1.00 42.22 LIG-0.23  N 
ATOM     65  CZ  ARG B  14     -12.234 -25.015  -4.768  1.00 44.72 LIG 0.67  C 
ATOM     66  NH2 ARG B  14     -12.824 -26.158  -4.476  1.00 43.48 LIG-0.23  N 
ATOM     67  NH1 ARG B  14     -12.480 -23.962  -4.011  1.00 46.51 LIG-0.23  N 
ATOM     68 1HH2 ARG B  14     -12.683 -26.852  -4.965  1.00 43.48 LIG 0.17  HD
ATOM     69 2HH2 ARG B  14     -13.349 -26.210  -3.797  1.00 43.48 LIG 0.17  HD
ATOM     70 2HH1 ARG B  14     -13.009 -24.032  -3.336  1.00 46.51 LIG 0.17  HD
ATOM     71 1HH1 ARG B  14     -12.112 -23.207  -4.191  1.00 46.51 LIG 0.17  HD
ATOM     72 HE   ARG B  14     -11.071 -24.120  -5.956  1.00 42.22 LIG 0.18  HD
ENDBRANCH 63 64
ENDBRANCH 62 63
ENDBRANCH 61 62
ENDBRANCH 44 61
ENDBRANCH 1 44
TORSDOF 22
ENDMDL
MODEL 39
USER: ADFR SOLUTION from run 58
USER: SCORE 22.432025 LL:  -4.867 LR: -18.971 RR:   0.000 FEB: -12.408
USER: RMSD 4.987434
USER: SEED 57
USER: STATUS no improvement in best in 9 clusters for 5 generations
USER: GENES 24
USER: genes 0 Translation |==|  0.46086 0.54422 0.63791
USER: genes 1 Rotation |==|  0.27758 0.56455 0.83456 0.79057
USER: genes 2 Torsion [N]-CA--C-[O] |==|  0.27985
USER: genes 3 Torsion [C]-N--CA-[CB] |==|  0.79648
USER: genes 4 Torsion [N]-CA--CB-[CG2] |==|  0.62029
USER: genes 5 Torsion [CA]-CB--CG1-[CD1] |==|  0.48522
USER: genes 6 Torsion [N]-CA--C-[N] |==|  0.18058
USER: genes 7 Torsion [C]-N--CA-[C] |==|  0.55121
USER: genes 8 Torsion [N]-CA--C-[N] |==|  0.32353
USER: genes 9 Torsion [C]-N--CA-[CB] |==|  0.45838
USER: genes 10 Torsion [N]-CA--CB-[CG] |==|  0.82723
USER: genes 11 Torsion [CA]-CB--CG-[ND2] |==|  0.24664
USER: genes 12 Torsion [N]-CA--C-[O] |==|  0.18600
USER: genes 13 Torsion [N]-CA--CB-[CG] |==|  0.59576
USER: genes 14 Torsion [CA]-CB--CG-[CD2] |==|  0.21991
USER: genes 15 Torsion [CE2]-CZ--OH-[HH] |==|  0.91867
USER: genes 16 Torsion [N]-C--CA-[N] |==|  0.22222
USER: genes 17 Torsion [C]-CA--N-[C] |==|  0.69547
USER: genes 18 Torsion [N]-C--CA-[N] |==|  0.75418
USER: genes 19 Torsion [N]-C--CA-[CB] |==|  0.65178
USER: genes 20 Torsion [C]-CA--CB-[CG] |==|  0.50884
USER: genes 21 Torsion [CA]-CB--CG-[CD] |==|  0.24371
USER: genes 22 Torsion [CB]-CG--CD-[NE] |==|  0.46722
USER: genes 23 Torsion [CG]-CD--NE-[CZ] |==|  0.61169
ROOT
ATOM      1  C   ARG B  14     -10.330 -27.817  -8.106  1.00 32.92 LIG 0.24  C 
ATOM      2 O    ARG B  14      -9.418 -27.027  -8.356  1.00 37.82 LIG-0.27  OA
ATOM      3  N   PRO B  15     -10.386 -29.051  -8.614  1.00 31.88 LIG-0.34  N 
ATOM      4  CA  PRO B  15      -9.311 -29.539  -9.481  1.00 30.79 LIG 0.18  C 
ATOM      5  CB  PRO B  15      -9.719 -30.972  -9.760  1.00 31.22 LIG 0.04  C 
ATOM      6  CG  PRO B  15     -10.476 -31.355  -8.528  1.00 29.82 LIG 0.02  C 
ATOM      7  CD  PRO B  15     -11.292 -30.142  -8.216  1.00 31.43 LIG 0.13  C 
ENDROOT
BRANCH 4 8
ATOM      8  C   PRO B  15      -9.300 -28.756 -10.770  1.00 33.68 LIG 0.24  C 
ATOM      9  N   ILE B  16     -10.159 -29.141 -11.694  1.00 35.41 LIG-0.35  N 
ATOM     10 H    ILE B  16     -10.666 -29.833 -11.628  1.00 35.41 LIG 0.16  HD
ATOM     11 O    PRO B  15      -8.492 -27.856 -10.940  1.00 34.05 LIG-0.27  OA
BRANCH 9 12
ATOM     12  CA  ILE B  16     -10.306 -28.416 -12.887  1.00 37.77 LIG 0.18  C 
BRANCH 12 13
ATOM     13  CB  ILE B  16     -11.043 -27.105 -12.659  1.00 42.27 LIG 0.01  C 
ATOM     14  CG2 ILE B  16     -12.053 -26.890 -13.750  1.00 44.80 LIG 0.01  C 
BRANCH 13 15
ATOM     15  CG1 ILE B  16     -11.689 -27.147 -11.263  1.00 47.53 LIG 0.00  C 
ATOM     16  CD1 ILE B  16     -12.370 -25.860 -10.807  1.00 51.74 LIG 0.01  C 
ENDBRANCH 13 15
ENDBRANCH 12 13
BRANCH 12 17
ATOM     17  C   ILE B  16      -8.918 -28.231 -13.409  1.00 42.33 LIG 0.24  C 
ATOM     18 O    ILE B  16      -8.409 -27.145 -13.449  1.00 39.29 LIG-0.27  OA
ATOM     19  N   TYR B  17      -8.301 -29.343 -13.761  1.00 46.96 LIG-0.35  N 
ATOM     20 H    TYR B  17      -8.703 -30.100 -13.832  1.00 46.96 LIG 0.16  HD
BRANCH 19 21
ATOM     21  CA  TYR B  17      -6.898 -29.410 -14.060  1.00 51.19 LIG 0.18  C 
BRANCH 21 22
ATOM     22  C   TYR B  17      -6.603 -30.646 -14.831  1.00 56.10 LIG 0.24  C 
ATOM     23  N   ASN B  18      -6.145 -30.504 -16.059  1.00 65.39 LIG-0.35  N 
ATOM     24 H    ASN B  18      -5.866 -29.760 -16.386  1.00 65.39 LIG 0.16  HD
ATOM     25 O    TYR B  17      -6.722 -31.731 -14.290  1.00 61.36 LIG-0.27  OA
BRANCH 23 26
ATOM     26  CA  ASN B  18      -6.074 -31.646 -16.986  1.00 70.74 LIG 0.17  C 
BRANCH 26 27
ATOM     27  CB  ASN B  18      -5.867 -31.121 -18.414  1.00 84.74 LIG 0.14  C 
BRANCH 27 28
ATOM     28  CG  ASN B  18      -7.032 -30.246 -18.895  1.00 96.34 LIG 0.22  C 
ATOM     29 OD1  ASN B  18      -7.986 -30.739 -19.516  1.00 99.44 LIG-0.27  OA
ATOM     30  ND2 ASN B  18      -6.951 -28.937 -18.625  1.00 94.73 LIG-0.37  N 
ATOM     31 21HD ASN B  18      -7.574 -28.405 -18.884  1.00 94.73 LIG 0.16  HD
ATOM     32 22HD ASN B  18      -6.275 -28.628 -18.191  1.00 94.73 LIG 0.16  HD
ENDBRANCH 27 28
ENDBRANCH 26 27
BRANCH 26 33
ATOM     33  C   ASN B  18      -5.094 -32.796 -16.650  1.00 72.97 LIG 0.22  C 
ATOM     34 O    ASN B  18      -5.247 -33.542 -15.672  1.00 74.17 LIG-0.29  OA
ENDBRANCH 26 33
ENDBRANCH 23 26
ENDBRANCH 21 22
BRANCH 21 35
ATOM     35  CB  TYR B  17      -6.141 -29.513 -12.746  1.00 54.83 LIG 0.07  C 
BRANCH 35 36
ATOM     36  CG  TYR B  17      -4.845 -28.801 -12.814  1.00 56.96 LIG-0.06  A 
ATOM     37  CD2 TYR B  17      -4.801 -27.408 -12.680  1.00 61.26 LIG 0.01  A 
ATOM     38  CE2 TYR B  17      -3.609 -26.725 -12.753  1.00 70.21 LIG 0.04  A 
ATOM     39  CZ  TYR B  17      -2.446 -27.442 -12.978  1.00 76.40 LIG 0.07  A 
ATOM     40  CE1 TYR B  17      -2.466 -28.824 -13.122  1.00 67.10 LIG 0.04  A 
ATOM     41  CD1 TYR B  17      -3.674 -29.492 -13.044  1.00 57.92 LIG 0.01  A 
BRANCH 39 42
ATOM     42 OH   TYR B  17      -1.264 -26.766 -13.058  1.00 89.25 LIG-0.36  OA
ATOM     43 HH   TYR B  17      -1.404 -25.991 -13.351  1.00 89.25 LIG 0.22  HD
ENDBRANCH 39 42
ENDBRANCH 35 36
ENDBRANCH 21 35
ENDBRANCH 19 21
ENDBRANCH 12 17
ENDBRANCH 9 12
ENDBRANCH 4 8
BRANCH 1 44
ATOM     44  CA  ARG B  14     -11.462 -27.371  -7.229  1.00 32.45 LIG 0.18  C 
BRANCH 44 45
ATOM     45  N   ARG B  14     -11.151 -27.978  -5.954  1.00 38.19 LIG-0.35  N 
ATOM     46 H    ARG B  14     -10.472 -27.627  -5.560  1.00 38.19 LIG 0.16  HD
ATOM     47  C   PRO B  13     -11.854 -28.989  -5.435  1.00 38.91 LIG 0.24  C 
ATOM     48 O    PRO B  13     -12.824 -29.476  -5.980  1.00 32.88 LIG-0.27  OA
BRANCH 47 49
ATOM     49  CA  PRO B  13     -11.398 -29.500  -4.053  1.00 38.31 LIG 0.18  C 
ATOM     50  N   PRO B  13     -10.388 -30.534  -4.113  1.00 38.88 LIG-0.34  N 
ATOM     51  CD  PRO B  13      -9.248 -30.227  -3.236  1.00 43.50 LIG 0.13  C 
ATOM     52  C   PRO B  12     -10.486 -31.651  -4.852  1.00 40.77 LIG 0.26  C 
ATOM     53  CG  PRO B  13      -9.751 -29.110  -2.386  1.00 43.53 LIG 0.02  C 
ATOM     54  CB  PRO B  13     -10.716 -28.388  -3.256  1.00 39.91 LIG 0.04  C 
ATOM     55 O    PRO B  12     -11.491 -31.947  -5.517  1.00 44.45 LIG-0.27  OA
BRANCH 52 56
ATOM     56  CA  PRO B  12      -9.298 -32.579  -4.856  1.00 38.46 LIG 0.35  C 
ATOM     57  CB  PRO B  12      -8.869 -32.828  -6.303  1.00 43.42 LIG 0.05  C 
ATOM     58  CG  PRO B  12      -8.523 -34.259  -6.358  1.00 41.12 LIG 0.04  C 
ATOM     59  CD  PRO B  12      -9.451 -34.931  -5.390  1.00 39.74 LIG 0.32  C 
ATOM     60  N   PRO B  12      -9.713 -33.884  -4.399  1.00 38.12 LIG 0.32  N 
ENDBRANCH 52 56
ENDBRANCH 47 49
ENDBRANCH 44 45
BRANCH 44 61
ATOM     61  CB  ARG B  14     -11.393 -25.850  -7.063  1.00 34.42 LIG 0.04  C 
BRANCH 61 62
ATOM     62  CG  ARG B  14     -12.446 -25.257  -6.127  1.00 32.66 LIG 0.02  C 
BRANCH 62 63
ATOM     63  CD  ARG B  14     -11.919 -25.276  -4.707  1.00 35.24 LIG 0.14  C 
BRANCH 63 64
ATOM     64  NE  ARG B  14     -12.741 -24.479  -3.779  1.00 42.22 LIG-0.23  N 
ATOM     65  CZ  ARG B  14     -12.284 -23.692  -2.802  1.00 44.72 LIG 0.67  C 
ATOM     66  NH2 ARG B  14     -10.993 -23.570  -2.558  1.00 43.48 LIG-0.23  N 
ATOM     67  NH1 ARG B  14     -13.138 -23.029  -2.046  1.00 46.51 LIG-0.23  N 
ATOM     68 1HH2 ARG B  14     -10.422 -24.003  -3.035  1.00 43.48 LIG 0.17  HD
ATOM     69 2HH2 ARG B  14     -10.722 -23.057  -1.923  1.00 43.48 LIG 0.17  HD
ATOM     70 2HH1 ARG B  14     -12.850 -22.521  -1.414  1.00 46.51 LIG 0.17  HD
ATOM     71 1HH1 ARG B  14     -13.983 -23.104  -2.184  1.00 46.51 LIG 0.17  HD
ATOM     72 HE   ARG B  14     -13.595 -24.525  -3.876  1.00 42.22 LIG 0.18  HD
ENDBRANCH 63 64
ENDBRANCH 62 63
ENDBRANCH 61 62
ENDBRANCH 44 61
ENDBRANCH 1 44
TORSDOF 22
ENDMDL
MODEL 40
USER: ADFR SOLUTION from run 102
USER: SCORE 21.731887 LL:  -4.575 LR: -18.973 RR:   0.000 FEB: -12.411
USER: RMSD 6.242525
USER: SEED 101
USER: STATUS no improvement in best in 2 clusters for 5 generations
USER: GENES 24
USER: genes 0 Translation |==|  0.55308 0.49536 0.47509
USER: genes 1 Rotation |==|  0.23314 0.41297 0.89730 0.61562
USER: genes 2 Torsion [N]-CA--C-[O] |==|  0.27901
USER: genes 3 Torsion [C]-N--CA-[CB] |==|  0.15581
USER: genes 4 Torsion [N]-CA--CB-[CG2] |==|  0.24340
USER: genes 5 Torsion [CA]-CB--CG1-[CD1] |==|  0.50323
USER: genes 6 Torsion [N]-CA--C-[N] |==|  0.45876
USER: genes 7 Torsion [C]-N--CA-[C] |==|  0.61667
USER: genes 8 Torsion [N]-CA--C-[N] |==|  0.86453
USER: genes 9 Torsion [C]-N--CA-[CB] |==|  0.44660
USER: genes 10 Torsion [N]-CA--CB-[CG] |==|  0.18885
USER: genes 11 Torsion [CA]-CB--CG-[ND2] |==|  0.89964
USER: genes 12 Torsion [N]-CA--C-[O] |==|  0.26417
USER: genes 13 Torsion [N]-CA--CB-[CG] |==|  0.54543
USER: genes 14 Torsion [CA]-CB--CG-[CD2] |==|  0.24915
USER: genes 15 Torsion [CE2]-CZ--OH-[HH] |==|  0.09990
USER: genes 16 Torsion [N]-C--CA-[N] |==|  0.36303
USER: genes 17 Torsion [C]-CA--N-[C] |==|  0.62975
USER: genes 18 Torsion [N]-C--CA-[N] |==|  0.47596
USER: genes 19 Torsion [N]-C--CA-[CB] |==|  0.67089
USER: genes 20 Torsion [C]-CA--CB-[CG] |==|  0.76526
USER: genes 21 Torsion [CA]-CB--CG-[CD] |==|  0.77113
USER: genes 22 Torsion [CB]-CG--CD-[NE] |==|  0.42141
USER: genes 23 Torsion [CG]-CD--NE-[CZ] |==|  0.90892
ROOT
ATOM      1  C   ARG B  14      -8.255 -28.733 -12.624  1.00 32.92 LIG 0.24  C 
ATOM      2 O    ARG B  14      -8.327 -27.507 -12.719  1.00 37.82 LIG-0.27  OA
ATOM      3  N   PRO B  15      -7.181 -29.432 -13.002  1.00 31.88 LIG-0.34  N 
ATOM      4  CA  PRO B  15      -5.999 -28.740 -13.522  1.00 30.79 LIG 0.18  C 
ATOM      5  CB  PRO B  15      -5.012 -29.868 -13.746  1.00 31.22 LIG 0.04  C 
ATOM      6  CG  PRO B  15      -5.403 -30.872 -12.708  1.00 29.82 LIG 0.02  C 
ATOM      7  CD  PRO B  15      -6.897 -30.852 -12.733  1.00 31.43 LIG 0.13  C 
ENDROOT
BRANCH 4 8
ATOM      8  C   PRO B  15      -6.329 -28.087 -14.840  1.00 33.68 LIG 0.24  C 
ATOM      9  N   ILE B  16      -6.280 -28.863 -15.906  1.00 35.41 LIG-0.35  N 
ATOM     10 H    ILE B  16      -6.015 -29.682 -15.898  1.00 35.41 LIG 0.16  HD
ATOM     11 O    PRO B  15      -6.571 -26.891 -14.894  1.00 34.05 LIG-0.27  OA
BRANCH 9 12
ATOM     12  CA  ILE B  16      -6.671 -28.383 -17.165  1.00 37.77 LIG 0.18  C 
BRANCH 12 13
ATOM     13  CB  ILE B  16      -5.894 -27.136 -17.556  1.00 42.27 LIG 0.01  C 
ATOM     14  CG2 ILE B  16      -4.619 -27.525 -18.249  1.00 44.80 LIG 0.01  C 
BRANCH 13 15
ATOM     15  CG1 ILE B  16      -6.795 -26.257 -18.440  1.00 47.53 LIG 0.00  C 
ATOM     16  CD1 ILE B  16      -6.167 -24.965 -18.953  1.00 51.74 LIG 0.01  C 
ENDBRANCH 13 15
ENDBRANCH 12 13
BRANCH 12 17
ATOM     17  C   ILE B  16      -6.464 -29.528 -18.105  1.00 42.33 LIG 0.24  C 
ATOM     18 O    ILE B  16      -5.847 -30.500 -17.772  1.00 39.29 LIG-0.27  OA
ATOM     19  N   TYR B  17      -7.052 -29.398 -19.280  1.00 46.96 LIG-0.35  N 
ATOM     20 H    TYR B  17      -7.399 -28.660 -19.551  1.00 46.96 LIG 0.16  HD
BRANCH 19 21
ATOM     21  CA  TYR B  17      -7.173 -30.472 -20.226  1.00 51.19 LIG 0.18  C 
BRANCH 21 22
ATOM     22  C   TYR B  17      -6.894 -29.971 -21.597  1.00 56.10 LIG 0.24  C 
ATOM     23  N   ASN B  18      -7.510 -28.870 -21.982  1.00 65.39 LIG-0.35  N 
ATOM     24 H    ASN B  18      -7.938 -28.348 -21.451  1.00 65.39 LIG 0.16  HD
ATOM     25 O    TYR B  17      -6.065 -30.539 -22.284  1.00 61.36 LIG-0.27  OA
BRANCH 23 26
ATOM     26  CA  ASN B  18      -7.507 -28.444 -23.391  1.00 70.74 LIG 0.17  C 
BRANCH 26 27
ATOM     27  CB  ASN B  18      -8.657 -27.452 -23.618  1.00 84.74 LIG 0.14  C 
BRANCH 27 28
ATOM     28  CG  ASN B  18      -8.436 -26.118 -22.891  1.00 96.34 LIG 0.22  C 
ATOM     29 OD1  ASN B  18      -8.782 -25.045 -23.408  1.00 99.44 LIG-0.27  OA
ATOM     30  ND2 ASN B  18      -7.840 -26.179 -21.694  1.00 94.73 LIG-0.37  N 
ATOM     31 21HD ASN B  18      -7.684 -25.457 -21.254  1.00 94.73 LIG 0.16  HD
ATOM     32 22HD ASN B  18      -7.613 -26.941 -21.364  1.00 94.73 LIG 0.16  HD
ENDBRANCH 27 28
ENDBRANCH 26 27
BRANCH 26 33
ATOM     33  C   ASN B  18      -6.178 -27.929 -23.993  1.00 72.97 LIG 0.22  C 
ATOM     34 O    ASN B  18      -5.402 -28.659 -24.627  1.00 74.17 LIG-0.29  OA
ENDBRANCH 26 33
ENDBRANCH 23 26
ENDBRANCH 21 22
BRANCH 21 35
ATOM     35  CB  TYR B  17      -8.615 -30.950 -20.211  1.00 54.83 LIG 0.07  C 
BRANCH 35 36
ATOM     36  CG  TYR B  17      -8.748 -32.280 -20.848  1.00 56.96 LIG-0.06  A 
ATOM     37  CD2 TYR B  17      -8.617 -33.443 -20.080  1.00 61.26 LIG 0.01  A 
ATOM     38  CE2 TYR B  17      -8.724 -34.689 -20.653  1.00 70.21 LIG 0.04  A 
ATOM     39  CZ  TYR B  17      -8.949 -34.775 -22.016  1.00 76.40 LIG 0.07  A 
ATOM     40  CE1 TYR B  17      -9.074 -33.634 -22.801  1.00 67.10 LIG 0.04  A 
ATOM     41  CD1 TYR B  17      -8.965 -32.392 -22.205  1.00 57.92 LIG 0.01  A 
BRANCH 39 42
ATOM     42 OH   TYR B  17      -9.047 -36.009 -22.588  1.00 89.25 LIG-0.36  OA
ATOM     43 HH   TYR B  17      -9.433 -36.534 -22.058  1.00 89.25 LIG 0.22  HD
ENDBRANCH 39 42
ENDBRANCH 35 36
ENDBRANCH 21 35
ENDBRANCH 19 21
ENDBRANCH 12 17
ENDBRANCH 9 12
ENDBRANCH 4 8
BRANCH 1 44
ATOM     44  CA  ARG B  14      -9.436 -29.497 -12.105  1.00 32.45 LIG 0.18  C 
BRANCH 44 45
ATOM     45  N   ARG B  14      -9.759 -28.812 -10.874  1.00 38.19 LIG-0.35  N 
ATOM     46 H    ARG B  14      -9.779 -27.955 -10.950  1.00 38.19 LIG 0.16  HD
ATOM     47  C   PRO B  13     -10.002 -29.449  -9.725  1.00 38.91 LIG 0.24  C 
ATOM     48 O    PRO B  13      -9.991 -30.659  -9.617  1.00 32.88 LIG-0.27  OA
BRANCH 47 49
ATOM     49  CA  PRO B  13     -10.354 -28.562  -8.513  1.00 38.31 LIG 0.18  C 
ATOM     50  N   PRO B  13     -10.799 -29.302  -7.352  1.00 38.88 LIG-0.34  N 
ATOM     51  CD  PRO B  13     -10.072 -28.894  -6.141  1.00 43.50 LIG 0.13  C 
ATOM     52  C   PRO B  12     -11.773 -30.226  -7.368  1.00 40.77 LIG 0.26  C 
ATOM     53  CG  PRO B  13      -9.385 -27.637  -6.552  1.00 43.53 LIG 0.02  C 
ATOM     54  CB  PRO B  13      -9.120 -27.817  -8.003  1.00 39.91 LIG 0.04  C 
ATOM     55 O    PRO B  12     -12.444 -30.499  -8.375  1.00 44.45 LIG-0.27  OA
BRANCH 52 56
ATOM     56  CA  PRO B  12     -12.047 -30.959  -6.078  1.00 38.46 LIG 0.35  C 
ATOM     57  CB  PRO B  12     -11.786 -32.451  -6.291  1.00 43.42 LIG 0.05  C 
ATOM     58  CG  PRO B  12     -12.866 -33.135  -5.559  1.00 41.12 LIG 0.04  C 
ATOM     59  CD  PRO B  12     -14.060 -32.233  -5.675  1.00 39.74 LIG 0.32  C 
ATOM     60  N   PRO B  12     -13.460 -30.901  -5.791  1.00 38.12 LIG 0.32  N 
ENDBRANCH 52 56
ENDBRANCH 47 49
ENDBRANCH 44 45
BRANCH 44 61
ATOM     61  CB  ARG B  14     -10.610 -29.315 -13.074  1.00 34.42 LIG 0.04  C 
BRANCH 61 62
ATOM     62  CG  ARG B  14     -11.436 -28.049 -12.852  1.00 32.66 LIG 0.02  C 
BRANCH 62 63
ATOM     63  CD  ARG B  14     -12.439 -28.295 -11.743  1.00 35.24 LIG 0.14  C 
BRANCH 63 64
ATOM     64  NE  ARG B  14     -12.798 -27.067 -11.011  1.00 42.22 LIG-0.23  N 
ATOM     65  CZ  ARG B  14     -11.992 -26.029 -10.776  1.00 44.72 LIG 0.67  C 
ATOM     66  NH2 ARG B  14     -10.736 -26.021 -11.183  1.00 43.48 LIG-0.23  N 
ATOM     67  NH1 ARG B  14     -12.449 -24.987 -10.108  1.00 46.51 LIG-0.23  N 
ATOM     68 1HH2 ARG B  14     -10.419 -26.696 -11.611  1.00 43.48 LIG 0.17  HD
ATOM     69 2HH2 ARG B  14     -10.236 -25.340 -11.020  1.00 43.48 LIG 0.17  HD
ATOM     70 2HH1 ARG B  14     -11.934 -24.315  -9.953  1.00 46.51 LIG 0.17  HD
ATOM     71 1HH1 ARG B  14     -13.261 -24.979  -9.827  1.00 46.51 LIG 0.17  HD
ATOM     72 HE   ARG B  14     -13.601 -27.014 -10.707  1.00 42.22 LIG 0.18  HD
ENDBRANCH 63 64
ENDBRANCH 62 63
ENDBRANCH 61 62
ENDBRANCH 44 61
ENDBRANCH 1 44
TORSDOF 22
ENDMDL
MODEL 41
USER: ADFR SOLUTION from run 10
USER: SCORE 23.687696 LL:  -5.030 LR: -18.967 RR:   0.000 FEB: -12.404
USER: RMSD 11.766089
USER: SEED 624263
USER: STATUS no improvement in best in 5 clusters for 5 generations
USER: GENES 24
USER: genes 0 Translation |==|  0.63210 0.42326 0.39845
USER: genes 1 Rotation |==|  0.56331 0.97168 0.35278 0.54283
USER: genes 2 Torsion [N]-CA--C-[O] |==|  0.98331
USER: genes 3 Torsion [C]-N--CA-[CB] |==|  0.14354
USER: genes 4 Torsion [N]-CA--CB-[CG2] |==|  0.16591
USER: genes 5 Torsion [CA]-CB--CG1-[CD1] |==|  0.53674
USER: genes 6 Torsion [N]-CA--C-[N] |==|  0.13262
USER: genes 7 Torsion [C]-N--CA-[C] |==|  0.13333
USER: genes 8 Torsion [N]-CA--C-[N] |==|  0.12110
USER: genes 9 Torsion [C]-N--CA-[CB] |==|  0.54870
USER: genes 10 Torsion [N]-CA--CB-[CG] |==|  0.87186
USER: genes 11 Torsion [CA]-CB--CG-[ND2] |==|  0.79649
USER: genes 12 Torsion [N]-CA--C-[O] |==|  0.22511
USER: genes 13 Torsion [N]-CA--CB-[CG] |==|  0.54625
USER: genes 14 Torsion [CA]-CB--CG-[CD2] |==|  0.03587
USER: genes 15 Torsion [CE2]-CZ--OH-[HH] |==|  0.16503
USER: genes 16 Torsion [N]-C--CA-[N] |==|  0.30635
USER: genes 17 Torsion [C]-CA--N-[C] |==|  0.75174
USER: genes 18 Torsion [N]-C--CA-[N] |==|  0.66752
USER: genes 19 Torsion [N]-C--CA-[CB] |==|  0.66946
USER: genes 20 Torsion [C]-CA--CB-[CG] |==|  0.34227
USER: genes 21 Torsion [CA]-CB--CG-[CD] |==|  0.45979
USER: genes 22 Torsion [CB]-CG--CD-[NE] |==|  0.84918
USER: genes 23 Torsion [CG]-CD--NE-[CZ] |==|  0.37833
ROOT
ATOM      1  C   ARG B  14      -6.477 -30.085 -14.751  1.00 32.92 LIG 0.24  C 
ATOM      2 O    ARG B  14      -7.493 -30.698 -14.420  1.00 37.82 LIG-0.27  OA
ATOM      3  N   PRO B  15      -5.981 -29.060 -14.052  1.00 31.88 LIG-0.34  N 
ATOM      4  CA  PRO B  15      -6.627 -28.640 -12.805  1.00 30.79 LIG 0.18  C 
ATOM      5  CB  PRO B  15      -5.722 -27.531 -12.308  1.00 31.22 LIG 0.04  C 
ATOM      6  CG  PRO B  15      -4.381 -27.922 -12.842  1.00 29.82 LIG 0.02  C 
ATOM      7  CD  PRO B  15      -4.673 -28.408 -14.225  1.00 31.43 LIG 0.13  C 
ENDROOT
BRANCH 4 8
ATOM      8  C   PRO B  15      -7.996 -28.082 -13.103  1.00 33.68 LIG 0.24  C 
ATOM      9  N   ILE B  16      -8.764 -27.832 -12.060  1.00 35.41 LIG-0.35  N 
ATOM     10 H    ILE B  16      -8.557 -28.024 -11.247  1.00 35.41 LIG 0.16  HD
ATOM     11 O    PRO B  15      -8.365 -27.931 -14.257  1.00 34.05 LIG-0.27  OA
BRANCH 9 12
ATOM     12  CA  ILE B  16     -10.014 -27.213 -12.217  1.00 37.77 LIG 0.18  C 
BRANCH 12 13
ATOM     13  CB  ILE B  16     -10.863 -27.923 -13.260  1.00 42.27 LIG 0.01  C 
ATOM     14  CG2 ILE B  16     -11.089 -29.350 -12.850  1.00 44.80 LIG 0.01  C 
BRANCH 13 15
ATOM     15  CG1 ILE B  16     -12.181 -27.146 -13.426  1.00 47.53 LIG 0.00  C 
ATOM     16  CD1 ILE B  16     -13.286 -27.868 -14.191  1.00 51.74 LIG 0.01  C 
ENDBRANCH 13 15
ENDBRANCH 12 13
BRANCH 12 17
ATOM     17  C   ILE B  16     -10.629 -27.214 -10.854  1.00 42.33 LIG 0.24  C 
ATOM     18 O    ILE B  16     -11.744 -27.617 -10.676  1.00 39.29 LIG-0.27  OA
ATOM     19  N   TYR B  17      -9.837 -26.794  -9.885  1.00 46.96 LIG-0.35  N 
ATOM     20 H    TYR B  17      -9.083 -26.407 -10.030  1.00 46.96 LIG 0.16  HD
BRANCH 19 21
ATOM     21  CA  TYR B  17     -10.149 -26.938  -8.491  1.00 51.19 LIG 0.18  C 
BRANCH 21 22
ATOM     22  C   TYR B  17     -10.590 -28.330  -8.213  1.00 56.10 LIG 0.24  C 
ATOM     23  N   ASN B  18      -9.902 -29.310  -8.766  1.00 65.39 LIG-0.35  N 
ATOM     24 H    ASN B  18      -9.139 -29.207  -9.148  1.00 65.39 LIG 0.16  HD
ATOM     25 O    TYR B  17     -11.509 -28.523  -7.438  1.00 61.36 LIG-0.27  OA
BRANCH 23 26
ATOM     26  CA  ASN B  18     -10.407 -30.692  -8.770  1.00 70.74 LIG 0.17  C 
BRANCH 26 27
ATOM     27  CB  ASN B  18      -9.245 -31.652  -9.068  1.00 84.74 LIG 0.14  C 
BRANCH 27 28
ATOM     28  CG  ASN B  18      -8.381 -31.181 -10.246  1.00 96.34 LIG 0.22  C 
ATOM     29 OD1  ASN B  18      -7.255 -30.697 -10.058  1.00 99.44 LIG-0.27  OA
ATOM     30  ND2 ASN B  18      -8.914 -31.306 -11.468  1.00 94.73 LIG-0.37  N 
ATOM     31 21HD ASN B  18      -8.473 -31.045 -12.158  1.00 94.73 LIG 0.16  HD
ATOM     32 22HD ASN B  18      -9.699 -31.647 -11.563  1.00 94.73 LIG 0.16  HD
ENDBRANCH 27 28
ENDBRANCH 26 27
BRANCH 26 33
ATOM     33  C   ASN B  18     -11.243 -31.165  -7.556  1.00 72.97 LIG 0.22  C 
ATOM     34 O    ASN B  18     -12.449 -30.908  -7.432  1.00 74.17 LIG-0.29  OA
ENDBRANCH 26 33
ENDBRANCH 23 26
ENDBRANCH 21 22
BRANCH 21 35
ATOM     35  CB  TYR B  17     -11.324 -26.027  -8.176  1.00 54.83 LIG 0.07  C 
BRANCH 35 36
ATOM     36  CG  TYR B  17     -11.459 -25.808  -6.718  1.00 56.96 LIG-0.06  A 
ATOM     37  CD2 TYR B  17     -10.423 -26.180  -5.853  1.00 61.26 LIG 0.01  A 
ATOM     38  CE2 TYR B  17     -10.533 -25.997  -4.493  1.00 70.21 LIG 0.04  A 
ATOM     39  CZ  TYR B  17     -11.700 -25.449  -3.990  1.00 76.40 LIG 0.07  A 
ATOM     40  CE1 TYR B  17     -12.745 -25.080  -4.828  1.00 67.10 LIG 0.04  A 
ATOM     41  CD1 TYR B  17     -12.614 -25.271  -6.192  1.00 57.92 LIG 0.01  A 
BRANCH 39 42
ATOM     42 OH   TYR B  17     -11.814 -25.275  -2.642  1.00 89.25 LIG-0.36  OA
ATOM     43 HH   TYR B  17     -11.201 -24.768  -2.372  1.00 89.25 LIG 0.22  HD
ENDBRANCH 39 42
ENDBRANCH 35 36
ENDBRANCH 21 35
ENDBRANCH 19 21
ENDBRANCH 12 17
ENDBRANCH 9 12
ENDBRANCH 4 8
BRANCH 1 44
ATOM     44  CA  ARG B  14      -5.777 -30.465 -16.022  1.00 32.45 LIG 0.18  C 
BRANCH 44 45
ATOM     45  N   ARG B  14      -5.174 -31.739 -15.699  1.00 38.19 LIG-0.35  N 
ATOM     46 H    ARG B  14      -5.677 -32.414 -15.878  1.00 38.19 LIG 0.16  HD
ATOM     47  C   PRO B  13      -3.952 -31.857 -15.174  1.00 38.91 LIG 0.24  C 
ATOM     48 O    PRO B  13      -3.232 -30.907 -14.937  1.00 32.88 LIG-0.27  OA
BRANCH 47 49
ATOM     49  CA  PRO B  13      -3.456 -33.294 -14.914  1.00 38.31 LIG 0.18  C 
ATOM     50  N   PRO B  13      -3.153 -33.570 -13.526  1.00 38.88 LIG-0.34  N 
ATOM     51  CD  PRO B  13      -3.802 -34.806 -13.068  1.00 43.50 LIG 0.13  C 
ATOM     52  C   PRO B  12      -2.356 -32.811 -12.757  1.00 40.77 LIG 0.26  C 
ATOM     53  CG  PRO B  13      -4.257 -35.453 -14.332  1.00 43.53 LIG 0.02  C 
ATOM     54  CB  PRO B  13      -4.541 -34.317 -15.247  1.00 39.91 LIG 0.04  C 
ATOM     55 O    PRO B  12      -1.738 -31.820 -13.177  1.00 44.45 LIG-0.27  OA
BRANCH 52 56
ATOM     56  CA  PRO B  12      -2.221 -33.205 -11.308  1.00 38.46 LIG 0.35  C 
ATOM     57  CB  PRO B  12      -2.727 -32.056 -10.432  1.00 43.42 LIG 0.05  C 
ATOM     58  CG  PRO B  12      -1.784 -31.994  -9.303  1.00 41.12 LIG 0.04  C 
ATOM     59  CD  PRO B  12      -0.455 -32.398  -9.870  1.00 39.74 LIG 0.32  C 
ATOM     60  N   PRO B  12      -0.822 -33.295 -10.969  1.00 38.12 LIG 0.32  N 
ENDBRANCH 52 56
ENDBRANCH 47 49
ENDBRANCH 44 45
BRANCH 44 61
ATOM     61  CB  ARG B  14      -6.824 -30.696 -17.116  1.00 34.42 LIG 0.04  C 
BRANCH 61 62
ATOM     62  CG  ARG B  14      -6.645 -29.837 -18.368  1.00 32.66 LIG 0.02  C 
BRANCH 62 63
ATOM     63  CD  ARG B  14      -7.498 -30.400 -19.487  1.00 35.24 LIG 0.14  C 
BRANCH 63 64
ATOM     64  NE  ARG B  14      -7.236 -31.827 -19.745  1.00 42.22 LIG-0.23  N 
ATOM     65  CZ  ARG B  14      -8.158 -32.770 -19.954  1.00 44.72 LIG 0.67  C 
ATOM     66  NH2 ARG B  14      -9.448 -32.495 -19.925  1.00 43.48 LIG-0.23  N 
ATOM     67  NH1 ARG B  14      -7.780 -34.014 -20.179  1.00 46.51 LIG-0.23  N 
ATOM     68 1HH2 ARG B  14      -9.714 -31.691 -19.770  1.00 43.48 LIG 0.17  HD
ATOM     69 2HH2 ARG B  14     -10.024 -33.119 -20.063  1.00 43.48 LIG 0.17  HD
ATOM     70 2HH1 ARG B  14      -8.369 -34.626 -20.314  1.00 46.51 LIG 0.17  HD
ATOM     71 1HH1 ARG B  14      -6.944 -34.213 -20.192  1.00 46.51 LIG 0.17  HD
ATOM     72 HE   ARG B  14      -6.413 -32.076 -19.763  1.00 42.22 LIG 0.18  HD
ENDBRANCH 63 64
ENDBRANCH 62 63
ENDBRANCH 61 62
ENDBRANCH 44 61
ENDBRANCH 1 44
TORSDOF 22
ENDMDL
MODEL 42
USER: ADFR SOLUTION from run 81
USER: SCORE 21.571809 LL:  -5.113 LR: -18.965 RR:   0.000 FEB: -12.402
USER: RMSD 6.066578
USER: SEED 80
USER: STATUS no improvement in best in 2 clusters for 5 generations
USER: GENES 24
USER: genes 0 Translation |==|  0.47400 0.42365 0.56333
USER: genes 1 Rotation |==|  0.59518 0.40079 0.29546 0.93504
USER: genes 2 Torsion [N]-CA--C-[O] |==|  0.99555
USER: genes 3 Torsion [C]-N--CA-[CB] |==|  0.51111
USER: genes 4 Torsion [N]-CA--CB-[CG2] |==|  0.11129
USER: genes 5 Torsion [CA]-CB--CG1-[CD1] |==|  0.27625
USER: genes 6 Torsion [N]-CA--C-[N] |==|  0.83374
USER: genes 7 Torsion [C]-N--CA-[C] |==|  0.58303
USER: genes 8 Torsion [N]-CA--C-[N] |==|  0.62161
USER: genes 9 Torsion [C]-N--CA-[CB] |==|  0.50430
USER: genes 10 Torsion [N]-CA--CB-[CG] |==|  0.81216
USER: genes 11 Torsion [CA]-CB--CG-[ND2] |==|  0.73563
USER: genes 12 Torsion [N]-CA--C-[O] |==|  0.76283
USER: genes 13 Torsion [N]-CA--CB-[CG] |==|  0.77083
USER: genes 14 Torsion [CA]-CB--CG-[CD2] |==|  0.41206
USER: genes 15 Torsion [CE2]-CZ--OH-[HH] |==|  0.44772
USER: genes 16 Torsion [N]-C--CA-[N] |==|  0.51018
USER: genes 17 Torsion [C]-CA--N-[C] |==|  0.55113
USER: genes 18 Torsion [N]-C--CA-[N] |==|  0.20881
USER: genes 19 Torsion [N]-C--CA-[CB] |==|  0.76481
USER: genes 20 Torsion [C]-CA--CB-[CG] |==|  0.46941
USER: genes 21 Torsion [CA]-CB--CG-[CD] |==|  0.64772
USER: genes 22 Torsion [CB]-CG--CD-[NE] |==|  0.37520
USER: genes 23 Torsion [CG]-CD--NE-[CZ] |==|  0.83123
ROOT
ATOM      1  C   ARG B  14     -10.034 -30.078 -10.176  1.00 32.92 LIG 0.24  C 
ATOM      2 O    ARG B  14     -10.187 -31.255 -10.505  1.00 37.82 LIG-0.27  OA
ATOM      3  N   PRO B  15      -9.363 -29.193 -10.918  1.00 31.88 LIG-0.34  N 
ATOM      4  CA  PRO B  15      -8.802 -29.594 -12.211  1.00 30.79 LIG 0.18  C 
ATOM      5  CB  PRO B  15      -8.212 -28.304 -12.744  1.00 31.22 LIG 0.04  C 
ATOM      6  CG  PRO B  15      -9.089 -27.254 -12.138  1.00 29.82 LIG 0.02  C 
ATOM      7  CD  PRO B  15      -9.308 -27.732 -10.739  1.00 31.43 LIG 0.13  C 
ENDROOT
BRANCH 4 8
ATOM      8  C   PRO B  15      -7.702 -30.603 -11.999  1.00 33.68 LIG 0.24  C 
ATOM      9  N   ILE B  16      -7.167 -31.122 -13.087  1.00 35.41 LIG-0.35  N 
ATOM     10 H    ILE B  16      -7.447 -30.968 -13.887  1.00 35.41 LIG 0.16  HD
ATOM     11 O    PRO B  15      -7.384 -30.943 -10.869  1.00 34.05 LIG-0.27  OA
BRANCH 9 12
ATOM     12  CA  ILE B  16      -6.067 -31.990 -13.006  1.00 37.77 LIG 0.18  C 
BRANCH 12 13
ATOM     13  CB  ILE B  16      -5.561 -32.384 -14.385  1.00 42.27 LIG 0.01  C 
ATOM     14  CG2 ILE B  16      -5.597 -31.194 -15.301  1.00 44.80 LIG 0.01  C 
BRANCH 13 15
ATOM     15  CG1 ILE B  16      -4.144 -32.965 -14.236  1.00 47.53 LIG 0.00  C 
ATOM     16  CD1 ILE B  16      -4.046 -34.487 -14.234  1.00 51.74 LIG 0.01  C 
ENDBRANCH 13 15
ENDBRANCH 12 13
BRANCH 12 17
ATOM     17  C   ILE B  16      -5.049 -31.261 -12.189  1.00 42.33 LIG 0.24  C 
ATOM     18 O    ILE B  16      -4.607 -31.735 -11.180  1.00 39.29 LIG-0.27  OA
ATOM     19  N   TYR B  17      -4.653 -30.106 -12.691  1.00 46.96 LIG-0.35  N 
ATOM     20 H    TYR B  17      -5.049 -29.722 -13.352  1.00 46.96 LIG 0.16  HD
BRANCH 19 21
ATOM     21  CA  TYR B  17      -3.526 -29.371 -12.192  1.00 51.19 LIG 0.18  C 
BRANCH 21 22
ATOM     22  C   TYR B  17      -3.738 -27.915 -12.402  1.00 56.10 LIG 0.24  C 
ATOM     23  N   ASN B  18      -2.721 -27.210 -12.858  1.00 65.39 LIG-0.35  N 
ATOM     24 H    ASN B  18      -2.002 -27.554 -13.179  1.00 65.39 LIG 0.16  HD
ATOM     25 O    TYR B  17      -4.844 -27.439 -12.222  1.00 61.36 LIG-0.27  OA
BRANCH 23 26
ATOM     26  CA  ASN B  18      -2.745 -25.738 -12.849  1.00 70.74 LIG 0.17  C 
BRANCH 26 27
ATOM     27  CB  ASN B  18      -1.445 -25.210 -13.474  1.00 84.74 LIG 0.14  C 
BRANCH 27 28
ATOM     28  CG  ASN B  18      -0.213 -25.512 -12.611  1.00 96.34 LIG 0.22  C 
ATOM     29 OD1  ASN B  18       0.364 -26.608 -12.683  1.00 99.44 LIG-0.27  OA
ATOM     30  ND2 ASN B  18       0.186 -24.545 -11.775  1.00 94.73 LIG-0.37  N 
ATOM     31 21HD ASN B  18       0.864 -24.672 -11.263  1.00 94.73 LIG 0.16  HD
ATOM     32 22HD ASN B  18      -0.237 -23.796 -11.750  1.00 94.73 LIG 0.16  HD
ENDBRANCH 27 28
ENDBRANCH 26 27
BRANCH 26 33
ATOM     33  C   ASN B  18      -3.991 -25.027 -13.432  1.00 72.97 LIG 0.22  C 
ATOM     34 O    ASN B  18      -4.117 -24.781 -14.640  1.00 74.17 LIG-0.29  OA
ENDBRANCH 26 33
ENDBRANCH 23 26
ENDBRANCH 21 22
BRANCH 21 35
ATOM     35  CB  TYR B  17      -2.307 -29.766 -13.009  1.00 54.83 LIG 0.07  C 
BRANCH 35 36
ATOM     36  CG  TYR B  17      -1.711 -31.027 -12.512  1.00 56.96 LIG-0.06  A 
ATOM     37  CD2 TYR B  17      -1.075 -31.901 -13.401  1.00 61.26 LIG 0.01  A 
ATOM     38  CE2 TYR B  17      -0.525 -33.084 -12.962  1.00 70.21 LIG 0.04  A 
ATOM     39  CZ  TYR B  17      -0.626 -33.405 -11.620  1.00 76.40 LIG 0.07  A 
ATOM     40  CE1 TYR B  17      -1.260 -32.557 -10.720  1.00 67.10 LIG 0.04  A 
ATOM     41  CD1 TYR B  17      -1.805 -31.372 -11.180  1.00 57.92 LIG 0.01  A 
BRANCH 39 42
ATOM     42 OH   TYR B  17      -0.089 -34.581 -11.184  1.00 89.25 LIG-0.36  OA
ATOM     43 HH   TYR B  17       0.019 -34.548 -10.352  1.00 89.25 LIG 0.22  HD
ENDBRANCH 39 42
ENDBRANCH 35 36
ENDBRANCH 21 35
ENDBRANCH 19 21
ENDBRANCH 12 17
ENDBRANCH 9 12
ENDBRANCH 4 8
BRANCH 1 44
ATOM     44  CA  ARG B  14     -10.580 -29.610  -8.859  1.00 32.45 LIG 0.18  C 
BRANCH 44 45
ATOM     45  N   ARG B  14     -11.152 -30.811  -8.293  1.00 38.19 LIG-0.35  N 
ATOM     46 H    ARG B  14     -10.862 -31.536  -8.654  1.00 38.19 LIG 0.16  HD
ATOM     47  C   PRO B  13     -12.049 -30.797  -7.303  1.00 38.91 LIG 0.24  C 
ATOM     48 O    PRO B  13     -12.449 -29.777  -6.779  1.00 32.88 LIG-0.27  OA
BRANCH 47 49
ATOM     49  CA  PRO B  13     -12.537 -32.172  -6.803  1.00 38.31 LIG 0.18  C 
ATOM     50  N   PRO B  13     -11.575 -32.874  -5.981  1.00 38.88 LIG-0.34  N 
ATOM     51  CD  PRO B  13     -12.181 -33.349  -4.728  1.00 43.50 LIG 0.13  C 
ATOM     52  C   PRO B  12     -10.296 -33.093  -6.326  1.00 40.77 LIG 0.26  C 
ATOM     53  CG  PRO B  13     -13.644 -33.188  -4.964  1.00 43.53 LIG 0.02  C 
ATOM     54  CB  PRO B  13     -13.746 -32.023  -5.880  1.00 39.91 LIG 0.04  C 
ATOM     55 O    PRO B  12      -9.817 -32.770  -7.424  1.00 44.45 LIG-0.27  OA
BRANCH 52 56
ATOM     56  CA  PRO B  12      -9.415 -33.769  -5.306  1.00 38.46 LIG 0.35  C 
ATOM     57  CB  PRO B  12      -8.864 -32.711  -4.348  1.00 43.42 LIG 0.05  C 
ATOM     58  CG  PRO B  12      -7.463 -33.103  -4.112  1.00 41.12 LIG 0.04  C 
ATOM     59  CD  PRO B  12      -7.001 -33.723  -5.398  1.00 39.74 LIG 0.32  C 
ATOM     60  N   PRO B  12      -8.234 -34.277  -5.963  1.00 38.12 LIG 0.32  N 
ENDBRANCH 52 56
ENDBRANCH 47 49
ENDBRANCH 44 45
BRANCH 44 61
ATOM     61  CB  ARG B  14      -9.416 -29.170  -7.966  1.00 34.42 LIG 0.04  C 
BRANCH 61 62
ATOM     62  CG  ARG B  14      -9.826 -28.424  -6.696  1.00 32.66 LIG 0.02  C 
BRANCH 62 63
ATOM     63  CD  ARG B  14      -9.079 -27.108  -6.626  1.00 35.24 LIG 0.14  C 
BRANCH 63 64
ATOM     64  NE  ARG B  14      -9.944 -25.977  -6.250  1.00 42.22 LIG-0.23  N 
ATOM     65  CZ  ARG B  14     -11.009 -25.543  -6.929  1.00 44.72 LIG 0.67  C 
ATOM     66  NH2 ARG B  14     -11.384 -26.106  -8.061  1.00 43.48 LIG-0.23  N 
ATOM     67  NH1 ARG B  14     -11.699 -24.515  -6.471  1.00 46.51 LIG-0.23  N 
ATOM     68 1HH2 ARG B  14     -10.940 -26.770  -8.380  1.00 43.48 LIG 0.17  HD
ATOM     69 2HH2 ARG B  14     -12.074 -25.809  -8.481  1.00 43.48 LIG 0.17  HD
ATOM     70 2HH1 ARG B  14     -12.386 -24.230  -6.904  1.00 46.51 LIG 0.17  HD
ATOM     71 1HH1 ARG B  14     -11.463 -24.129  -5.740  1.00 46.51 LIG 0.17  HD
ATOM     72 HE   ARG B  14      -9.745 -25.556  -5.526  1.00 42.22 LIG 0.18  HD
ENDBRANCH 63 64
ENDBRANCH 62 63
ENDBRANCH 61 62
ENDBRANCH 44 61
ENDBRANCH 1 44
TORSDOF 22
ENDMDL
MODEL 43
USER: ADFR SOLUTION from run 23
USER: SCORE 21.923744 LL:  -5.114 LR: -18.956 RR:   0.000 FEB: -12.394
USER: RMSD 12.626719
USER: SEED 22
USER: STATUS no improvement in best in 6 clusters for 5 generations
USER: GENES 24
USER: genes 0 Translation |==|  0.62201 0.45219 0.39484
USER: genes 1 Rotation |==|  0.27645 0.08091 0.35786 0.56470
USER: genes 2 Torsion [N]-CA--C-[O] |==|  0.87814
USER: genes 3 Torsion [C]-N--CA-[CB] |==|  0.33345
USER: genes 4 Torsion [N]-CA--CB-[CG2] |==|  0.62424
USER: genes 5 Torsion [CA]-CB--CG1-[CD1] |==|  0.38120
USER: genes 6 Torsion [N]-CA--C-[N] |==|  0.45823
USER: genes 7 Torsion [C]-N--CA-[C] |==|  0.74694
USER: genes 8 Torsion [N]-CA--C-[N] |==|  0.43075
USER: genes 9 Torsion [C]-N--CA-[CB] |==|  0.45237
USER: genes 10 Torsion [N]-CA--CB-[CG] |==|  0.50842
USER: genes 11 Torsion [CA]-CB--CG-[ND2] |==|  0.23491
USER: genes 12 Torsion [N]-CA--C-[O] |==|  0.34044
USER: genes 13 Torsion [N]-CA--CB-[CG] |==|  0.08771
USER: genes 14 Torsion [CA]-CB--CG-[CD2] |==|  0.24412
USER: genes 15 Torsion [CE2]-CZ--OH-[HH] |==|  0.67754
USER: genes 16 Torsion [N]-C--CA-[N] |==|  0.31835
USER: genes 17 Torsion [C]-CA--N-[C] |==|  0.60149
USER: genes 18 Torsion [N]-C--CA-[N] |==|  0.75033
USER: genes 19 Torsion [N]-C--CA-[CB] |==|  0.57887
USER: genes 20 Torsion [C]-CA--CB-[CG] |==|  0.17602
USER: genes 21 Torsion [CA]-CB--CG-[CD] |==|  0.20345
USER: genes 22 Torsion [CB]-CG--CD-[NE] |==|  0.51310
USER: genes 23 Torsion [CG]-CD--NE-[CZ] |==|  0.28703
ROOT
ATOM      1  C   ARG B  14      -6.704 -29.542 -14.851  1.00 32.92 LIG 0.24  C 
ATOM      2 O    ARG B  14      -7.932 -29.441 -14.828  1.00 37.82 LIG-0.27  OA
ATOM      3  N   PRO B  15      -6.012 -30.247 -13.951  1.00 31.88 LIG-0.34  N 
ATOM      4  CA  PRO B  15      -6.715 -30.981 -12.895  1.00 30.79 LIG 0.18  C 
ATOM      5  CB  PRO B  15      -5.592 -31.689 -12.165  1.00 31.22 LIG 0.04  C 
ATOM      6  CG  PRO B  15      -4.570 -31.899 -13.236  1.00 29.82 LIG 0.02  C 
ATOM      7  CD  PRO B  15      -4.588 -30.618 -14.007  1.00 31.43 LIG 0.13  C 
ENDROOT
BRANCH 4 8
ATOM      8  C   PRO B  15      -7.392 -30.008 -11.962  1.00 33.68 LIG 0.24  C 
ATOM      9  N   ILE B  16      -8.645 -30.275 -11.649  1.00 35.41 LIG-0.35  N 
ATOM     10 H    ILE B  16      -9.104 -30.920 -11.988  1.00 35.41 LIG 0.16  HD
ATOM     11 O    PRO B  15      -6.804 -29.008 -11.578  1.00 34.05 LIG-0.27  OA
BRANCH 9 12
ATOM     12  CA  ILE B  16      -9.334 -29.495 -10.706  1.00 37.77 LIG 0.18  C 
BRANCH 12 13
ATOM     13  CB  ILE B  16     -10.566 -28.843 -11.313  1.00 42.27 LIG 0.01  C 
ATOM     14  CG2 ILE B  16     -10.643 -27.404 -10.891  1.00 44.80 LIG 0.01  C 
BRANCH 13 15
ATOM     15  CG1 ILE B  16     -10.497 -29.001 -12.843  1.00 47.53 LIG 0.00  C 
ATOM     16  CD1 ILE B  16     -11.803 -29.388 -13.530  1.00 51.74 LIG 0.01  C 
ENDBRANCH 13 15
ENDBRANCH 12 13
BRANCH 12 17
ATOM     17  C   ILE B  16      -9.651 -30.426  -9.580  1.00 42.33 LIG 0.24  C 
ATOM     18 O    ILE B  16      -9.523 -31.613  -9.701  1.00 39.29 LIG-0.27  OA
ATOM     19  N   TYR B  17     -10.021 -29.839  -8.458  1.00 46.96 LIG-0.35  N 
ATOM     20 H    TYR B  17     -10.215 -29.002  -8.409  1.00 46.96 LIG 0.16  HD
BRANCH 19 21
ATOM     21  CA  TYR B  17     -10.139 -30.530  -7.205  1.00 51.19 LIG 0.18  C 
BRANCH 21 22
ATOM     22  C   TYR B  17     -11.525 -31.042  -7.040  1.00 56.10 LIG 0.24  C 
ATOM     23  N   ASN B  18     -11.700 -32.085  -6.251  1.00 65.39 LIG-0.35  N 
ATOM     24 H    ASN B  18     -11.100 -32.390  -5.716  1.00 65.39 LIG 0.16  HD
ATOM     25 O    TYR B  17     -12.449 -30.451  -7.569  1.00 61.36 LIG-0.27  OA
BRANCH 23 26
ATOM     26  CA  ASN B  18     -12.973 -32.822  -6.228  1.00 70.74 LIG 0.17  C 
BRANCH 26 27
ATOM     27  CB  ASN B  18     -12.749 -34.193  -5.572  1.00 84.74 LIG 0.14  C 
BRANCH 27 28
ATOM     28  CG  ASN B  18     -14.014 -35.061  -5.574  1.00 96.34 LIG 0.22  C 
ATOM     29 OD1  ASN B  18     -14.760 -35.104  -4.583  1.00 99.44 LIG-0.27  OA
ATOM     30  ND2 ASN B  18     -14.253 -35.772  -6.683  1.00 94.73 LIG-0.37  N 
ATOM     31 21HD ASN B  18     -14.943 -36.282  -6.726  1.00 94.73 LIG 0.16  HD
ATOM     32 22HD ASN B  18     -13.715 -35.718  -7.352  1.00 94.73 LIG 0.16  HD
ENDBRANCH 27 28
ENDBRANCH 26 27
BRANCH 26 33
ATOM     33  C   ASN B  18     -14.219 -32.107  -5.651  1.00 72.97 LIG 0.22  C 
ATOM     34 O    ASN B  18     -15.260 -31.946  -6.303  1.00 74.17 LIG-0.29  OA
ENDBRANCH 26 33
ENDBRANCH 23 26
ENDBRANCH 21 22
BRANCH 21 35
ATOM     35  CB  TYR B  17      -9.900 -29.526  -6.090  1.00 54.83 LIG 0.07  C 
BRANCH 35 36
ATOM     36  CG  TYR B  17     -10.358 -28.172  -6.475  1.00 56.96 LIG-0.06  A 
ATOM     37  CD2 TYR B  17     -11.684 -27.788  -6.245  1.00 61.26 LIG 0.01  A 
ATOM     38  CE2 TYR B  17     -12.135 -26.539  -6.607  1.00 70.21 LIG 0.04  A 
ATOM     39  CZ  TYR B  17     -11.252 -25.668  -7.222  1.00 76.40 LIG 0.07  A 
ATOM     40  CE1 TYR B  17      -9.933 -26.031  -7.469  1.00 67.10 LIG 0.04  A 
ATOM     41  CD1 TYR B  17      -9.500 -27.290  -7.095  1.00 57.92 LIG 0.01  A 
BRANCH 39 42
ATOM     42 OH   TYR B  17     -11.699 -24.433  -7.589  1.00 89.25 LIG-0.36  OA
ATOM     43 HH   TYR B  17     -11.664 -24.359  -8.425  1.00 89.25 LIG 0.22  HD
ENDBRANCH 39 42
ENDBRANCH 35 36
ENDBRANCH 21 35
ENDBRANCH 19 21
ENDBRANCH 12 17
ENDBRANCH 9 12
ENDBRANCH 4 8
BRANCH 1 44
ATOM     44  CA  ARG B  14      -5.929 -28.808 -15.905  1.00 32.45 LIG 0.18  C 
BRANCH 44 45
ATOM     45  N   ARG B  14      -6.318 -29.476 -17.127  1.00 38.19 LIG-0.35  N 
ATOM     46 H    ARG B  14      -7.143 -29.721 -17.139  1.00 38.19 LIG 0.16  HD
ATOM     47  C   PRO B  13      -5.477 -29.691 -18.142  1.00 38.91 LIG 0.24  C 
ATOM     48 O    PRO B  13      -4.317 -29.331 -18.135  1.00 32.88 LIG-0.27  OA
BRANCH 47 49
ATOM     49  CA  PRO B  13      -6.066 -30.397 -19.380  1.00 38.31 LIG 0.18  C 
ATOM     50  N   PRO B  13      -5.971 -31.841 -19.334  1.00 38.88 LIG-0.34  N 
ATOM     51  CD  PRO B  13      -7.265 -32.475 -19.628  1.00 43.50 LIG 0.13  C 
ATOM     52  C   PRO B  12      -4.841 -32.521 -19.084  1.00 40.77 LIG 0.26  C 
ATOM     53  CG  PRO B  13      -8.086 -31.359 -20.177  1.00 43.53 LIG 0.02  C 
ATOM     54  CB  PRO B  13      -7.570 -30.147 -19.490  1.00 39.91 LIG 0.04  C 
ATOM     55 O    PRO B  12      -3.736 -31.980 -18.928  1.00 44.45 LIG-0.27  OA
BRANCH 52 56
ATOM     56  CA  PRO B  12      -4.948 -34.022 -18.992  1.00 38.46 LIG 0.35  C 
ATOM     57  CB  PRO B  12      -3.852 -34.541 -18.059  1.00 43.42 LIG 0.05  C 
ATOM     58  CG  PRO B  12      -3.360 -35.774 -18.697  1.00 41.12 LIG 0.04  C 
ATOM     59  CD  PRO B  12      -3.480 -35.533 -20.174  1.00 39.74 LIG 0.32  C 
ATOM     60  N   PRO B  12      -4.605 -34.601 -20.269  1.00 38.12 LIG 0.32  N 
ENDBRANCH 52 56
ENDBRANCH 47 49
ENDBRANCH 44 45
BRANCH 44 61
ATOM     61  CB  ARG B  14      -6.430 -27.361 -15.971  1.00 34.42 LIG 0.04  C 
BRANCH 61 62
ATOM     62  CG  ARG B  14      -6.207 -26.545 -14.698  1.00 32.66 LIG 0.02  C 
BRANCH 62 63
ATOM     63  CD  ARG B  14      -4.736 -26.205 -14.575  1.00 35.24 LIG 0.14  C 
BRANCH 63 64
ATOM     64  NE  ARG B  14      -4.411 -25.511 -13.316  1.00 42.22 LIG-0.23  N 
ATOM     65  CZ  ARG B  14      -3.824 -26.056 -12.247  1.00 44.72 LIG 0.67  C 
ATOM     66  NH2 ARG B  14      -3.484 -27.331 -12.219  1.00 43.48 LIG-0.23  N 
ATOM     67  NH1 ARG B  14      -3.588 -25.312 -11.183  1.00 46.51 LIG-0.23  N 
ATOM     68 1HH2 ARG B  14      -3.640 -27.833 -12.900  1.00 43.48 LIG 0.17  HD
ATOM     69 2HH2 ARG B  14      -3.106 -27.659 -11.519  1.00 43.48 LIG 0.17  HD
ATOM     70 2HH1 ARG B  14      -3.210 -25.657 -10.492  1.00 46.51 LIG 0.17  HD
ATOM     71 1HH1 ARG B  14      -3.811 -24.482 -11.180  1.00 46.51 LIG 0.17  HD
ATOM     72 HE   ARG B  14      -4.620 -24.678 -13.264  1.00 42.22 LIG 0.18  HD
ENDBRANCH 63 64
ENDBRANCH 62 63
ENDBRANCH 61 62
ENDBRANCH 44 61
ENDBRANCH 1 44
TORSDOF 22
ENDMDL
MODEL 44
USER: ADFR SOLUTION from run 26
USER: SCORE 21.691767 LL:  -5.111 LR: -18.964 RR:   0.000 FEB: -12.402
USER: RMSD 12.351389
USER: SEED 25
USER: STATUS no improvement in best in 13 clusters for 5 generations
USER: GENES 24
USER: genes 0 Translation |==|  0.66604 0.54596 0.45119
USER: genes 1 Rotation |==|  0.70952 0.81560 0.82623 0.50852
USER: genes 2 Torsion [N]-CA--C-[O] |==|  0.00859
USER: genes 3 Torsion [C]-N--CA-[CB] |==|  0.35646
USER: genes 4 Torsion [N]-CA--CB-[CG2] |==|  0.53667
USER: genes 5 Torsion [CA]-CB--CG1-[CD1] |==|  0.81949
USER: genes 6 Torsion [N]-CA--C-[N] |==|  0.43546
USER: genes 7 Torsion [C]-N--CA-[C] |==|  0.68969
USER: genes 8 Torsion [N]-CA--C-[N] |==|  0.41345
USER: genes 9 Torsion [C]-N--CA-[CB] |==|  0.47640
USER: genes 10 Torsion [N]-CA--CB-[CG] |==|  0.54262
USER: genes 11 Torsion [CA]-CB--CG-[ND2] |==|  0.35547
USER: genes 12 Torsion [N]-CA--C-[O] |==|  0.27027
USER: genes 13 Torsion [N]-CA--CB-[CG] |==|  0.08205
USER: genes 14 Torsion [CA]-CB--CG-[CD2] |==|  0.23992
USER: genes 15 Torsion [CE2]-CZ--OH-[HH] |==|  0.25910
USER: genes 16 Torsion [N]-C--CA-[N] |==|  0.17487
USER: genes 17 Torsion [C]-CA--N-[C] |==|  0.58687
USER: genes 18 Torsion [N]-C--CA-[N] |==|  0.76954
USER: genes 19 Torsion [N]-C--CA-[CB] |==|  0.66032
USER: genes 20 Torsion [C]-CA--CB-[CG] |==|  0.56314
USER: genes 21 Torsion [CA]-CB--CG-[CD] |==|  0.73210
USER: genes 22 Torsion [CB]-CG--CD-[NE] |==|  0.78679
USER: genes 23 Torsion [CG]-CD--NE-[CZ] |==|  0.65387
ROOT
ATOM      1  C   ARG B  14      -5.713 -27.784 -13.287  1.00 32.92 LIG 0.24  C 
ATOM      2 O    ARG B  14      -6.703 -27.166 -13.682  1.00 37.82 LIG-0.27  OA
ATOM      3  N   PRO B  15      -5.763 -29.051 -12.865  1.00 31.88 LIG-0.34  N 
ATOM      4  CA  PRO B  15      -7.030 -29.786 -12.896  1.00 30.79 LIG 0.18  C 
ATOM      5  CB  PRO B  15      -6.635 -31.170 -12.423  1.00 31.22 LIG 0.04  C 
ATOM      6  CG  PRO B  15      -5.215 -31.291 -12.878  1.00 29.82 LIG 0.02  C 
ATOM      7  CD  PRO B  15      -4.629 -29.947 -12.588  1.00 31.43 LIG 0.13  C 
ENDROOT
BRANCH 4 8
ATOM      8  C   PRO B  15      -7.999 -29.174 -11.916  1.00 33.68 LIG 0.24  C 
ATOM      9  N   ILE B  16      -9.187 -29.743 -11.836  1.00 35.41 LIG-0.35  N 
ATOM     10 H    ILE B  16      -9.453 -30.385 -12.343  1.00 35.41 LIG 0.16  HD
ATOM     11 O    PRO B  15      -7.692 -28.174 -11.286  1.00 34.05 LIG-0.27  OA
BRANCH 9 12
ATOM     12  CA  ILE B  16     -10.125 -29.319 -10.882  1.00 37.77 LIG 0.18  C 
BRANCH 12 13
ATOM     13  CB  ILE B  16     -11.471 -29.011 -11.519  1.00 42.27 LIG 0.01  C 
ATOM     14  CG2 ILE B  16     -12.339 -28.266 -10.545  1.00 44.80 LIG 0.01  C 
BRANCH 13 15
ATOM     15  CG1 ILE B  16     -11.226 -28.215 -12.813  1.00 47.53 LIG 0.00  C 
ATOM     16  CD1 ILE B  16     -10.609 -26.831 -12.635  1.00 51.74 LIG 0.01  C 
ENDBRANCH 13 15
ENDBRANCH 12 13
BRANCH 12 17
ATOM     17  C   ILE B  16     -10.187 -30.421  -9.873  1.00 42.33 LIG 0.24  C 
ATOM     18 O    ILE B  16      -9.822 -31.531 -10.144  1.00 39.29 LIG-0.27  OA
ATOM     19  N   TYR B  17     -10.614 -30.061  -8.678  1.00 46.96 LIG-0.35  N 
ATOM     20 H    TYR B  17     -10.975 -29.296  -8.520  1.00 46.96 LIG 0.16  HD
BRANCH 19 21
ATOM     21  CA  TYR B  17     -10.525 -30.903  -7.519  1.00 51.19 LIG 0.18  C 
BRANCH 21 22
ATOM     22  C   TYR B  17     -11.886 -31.325  -7.094  1.00 56.10 LIG 0.24  C 
ATOM     23  N   ASN B  18     -12.008 -32.506  -6.521  1.00 65.39 LIG-0.35  N 
ATOM     24 H    ASN B  18     -11.344 -32.977  -6.244  1.00 65.39 LIG 0.16  HD
ATOM     25 O    TYR B  17     -12.818 -30.551  -7.219  1.00 61.36 LIG-0.27  OA
BRANCH 23 26
ATOM     26  CA  ASN B  18     -13.328 -33.121  -6.308  1.00 70.74 LIG 0.17  C 
BRANCH 26 27
ATOM     27  CB  ASN B  18     -13.137 -34.566  -5.823  1.00 84.74 LIG 0.14  C 
BRANCH 27 28
ATOM     28  CG  ASN B  18     -14.421 -35.399  -5.933  1.00 96.34 LIG 0.22  C 
ATOM     29 OD1  ASN B  18     -15.484 -35.002  -5.431  1.00 99.44 LIG-0.27  OA
ATOM     30  ND2 ASN B  18     -14.324 -36.569  -6.576  1.00 94.73 LIG-0.37  N 
ATOM     31 21HD ASN B  18     -15.015 -37.076  -6.652  1.00 94.73 LIG 0.16  HD
ATOM     32 22HD ASN B  18     -13.572 -36.814  -6.913  1.00 94.73 LIG 0.16  HD
ENDBRANCH 27 28
ENDBRANCH 26 27
BRANCH 26 33
ATOM     33  C   ASN B  18     -14.355 -32.357  -5.439  1.00 72.97 LIG 0.22  C 
ATOM     34 O    ASN B  18     -15.247 -31.646  -5.926  1.00 74.17 LIG-0.29  OA
ENDBRANCH 26 33
ENDBRANCH 23 26
ENDBRANCH 21 22
BRANCH 21 35
ATOM     35  CB  TYR B  17      -9.940 -30.080  -6.383  1.00 54.83 LIG 0.07  C 
BRANCH 35 36
ATOM     36  CG  TYR B  17     -10.286 -28.647  -6.522  1.00 56.96 LIG-0.06  A 
ATOM     37  CD2 TYR B  17     -11.493 -28.163  -6.004  1.00 61.26 LIG 0.01  A 
ATOM     38  CE2 TYR B  17     -11.841 -26.838  -6.134  1.00 70.21 LIG 0.04  A 
ATOM     39  CZ  TYR B  17     -10.978 -25.988  -6.803  1.00 76.40 LIG 0.07  A 
ATOM     40  CE1 TYR B  17      -9.778 -26.448  -7.333  1.00 67.10 LIG 0.04  A 
ATOM     41  CD1 TYR B  17      -9.446 -27.782  -7.191  1.00 57.92 LIG 0.01  A 
BRANCH 39 42
ATOM     42 OH   TYR B  17     -11.324 -24.676  -6.939  1.00 89.25 LIG-0.36  OA
ATOM     43 HH   TYR B  17     -10.992 -24.232  -6.308  1.00 89.25 LIG 0.22  HD
ENDBRANCH 39 42
ENDBRANCH 35 36
ENDBRANCH 21 35
ENDBRANCH 19 21
ENDBRANCH 12 17
ENDBRANCH 9 12
ENDBRANCH 4 8
BRANCH 1 44
ATOM     44  CA  ARG B  14      -4.389 -27.082 -13.227  1.00 32.45 LIG 0.18  C 
BRANCH 44 45
ATOM     45  N   ARG B  14      -3.565 -27.851 -14.131  1.00 38.19 LIG-0.35  N 
ATOM     46 H    ARG B  14      -4.001 -28.202 -14.784  1.00 38.19 LIG 0.16  HD
ATOM     47  C   PRO B  13      -2.247 -28.003 -13.968  1.00 38.91 LIG 0.24  C 
ATOM     48 O    PRO B  13      -1.624 -27.495 -13.058  1.00 32.88 LIG-0.27  OA
BRANCH 47 49
ATOM     49  CA  PRO B  13      -1.518 -28.838 -15.041  1.00 38.31 LIG 0.18  C 
ATOM     50  N   PRO B  13      -1.593 -30.267 -14.826  1.00 38.88 LIG-0.34  N 
ATOM     51  CD  PRO B  13      -2.029 -30.973 -16.039  1.00 43.50 LIG 0.13  C 
ATOM     52  C   PRO B  12      -1.278 -30.879 -13.673  1.00 40.77 LIG 0.26  C 
ATOM     53  CG  PRO B  13      -1.906 -29.942 -17.108  1.00 43.53 LIG 0.02  C 
ATOM     54  CB  PRO B  13      -2.168 -28.655 -16.413  1.00 39.91 LIG 0.04  C 
ATOM     55 O    PRO B  12      -0.824 -30.286 -12.683  1.00 44.45 LIG-0.27  OA
BRANCH 52 56
ATOM     56  CA  PRO B  12      -1.498 -32.369 -13.604  1.00 38.46 LIG 0.35  C 
ATOM     57  CB  PRO B  12      -2.446 -32.678 -12.444  1.00 43.42 LIG 0.05  C 
ATOM     58  CG  PRO B  12      -1.902 -33.896 -11.820  1.00 41.12 LIG 0.04  C 
ATOM     59  CD  PRO B  12      -0.414 -33.798 -11.985  1.00 39.74 LIG 0.32  C 
ATOM     60  N   PRO B  12      -0.267 -33.012 -13.213  1.00 38.12 LIG 0.32  N 
ENDBRANCH 52 56
ENDBRANCH 47 49
ENDBRANCH 44 45
BRANCH 44 61
ATOM     61  CB  ARG B  14      -4.548 -25.673 -13.808  1.00 34.42 LIG 0.04  C 
BRANCH 61 62
ATOM     62  CG  ARG B  14      -3.254 -25.039 -14.318  1.00 32.66 LIG 0.02  C 
BRANCH 62 63
ATOM     63  CD  ARG B  14      -2.678 -24.143 -13.241  1.00 35.24 LIG 0.14  C 
BRANCH 63 64
ATOM     64  NE  ARG B  14      -3.386 -22.856 -13.125  1.00 42.22 LIG-0.23  N 
ATOM     65  CZ  ARG B  14      -2.831 -21.644 -13.205  1.00 44.72 LIG 0.67  C 
ATOM     66  NH2 ARG B  14      -1.533 -21.487 -13.384  1.00 43.48 LIG-0.23  N 
ATOM     67  NH1 ARG B  14      -3.590 -20.570 -13.088  1.00 46.51 LIG-0.23  N 
ATOM     68 1HH2 ARG B  14      -1.022 -22.175 -13.453  1.00 43.48 LIG 0.17  HD
ATOM     69 2HH2 ARG B  14      -1.199 -20.696 -13.433  1.00 43.48 LIG 0.17  HD
ATOM     70 2HH1 ARG B  14      -3.239 -19.787 -13.138  1.00 46.51 LIG 0.17  HD
ATOM     71 1HH1 ARG B  14      -4.436 -20.654 -12.961  1.00 46.51 LIG 0.17  HD
ATOM     72 HE   ARG B  14      -4.236 -22.888 -12.994  1.00 42.22 LIG 0.18  HD
ENDBRANCH 63 64
ENDBRANCH 62 63
ENDBRANCH 61 62
ENDBRANCH 44 61
ENDBRANCH 1 44
TORSDOF 22
ENDMDL
MODEL 45
USER: ADFR SOLUTION from run 39
USER: SCORE 22.636429 LL:  -4.869 LR: -18.901 RR:   0.000 FEB: -12.338
USER: RMSD 12.542232
USER: SEED 38
USER: STATUS no improvement in best in 13 clusters for 5 generations
USER: GENES 24
USER: genes 0 Translation |==|  0.62042 0.45864 0.38072
USER: genes 1 Rotation |==|  0.28610 0.06238 0.39242 0.53415
USER: genes 2 Torsion [N]-CA--C-[O] |==|  0.78369
USER: genes 3 Torsion [C]-N--CA-[CB] |==|  0.45878
USER: genes 4 Torsion [N]-CA--CB-[CG2] |==|  0.08892
USER: genes 5 Torsion [CA]-CB--CG1-[CD1] |==|  0.21014
USER: genes 6 Torsion [N]-CA--C-[N] |==|  0.40982
USER: genes 7 Torsion [C]-N--CA-[C] |==|  0.85553
USER: genes 8 Torsion [N]-CA--C-[N] |==|  0.36842
USER: genes 9 Torsion [C]-N--CA-[CB] |==|  0.44307
USER: genes 10 Torsion [N]-CA--CB-[CG] |==|  0.83319
USER: genes 11 Torsion [CA]-CB--CG-[ND2] |==|  0.48620
USER: genes 12 Torsion [N]-CA--C-[O] |==|  0.10739
USER: genes 13 Torsion [N]-CA--CB-[CG] |==|  0.64645
USER: genes 14 Torsion [CA]-CB--CG-[CD2] |==|  0.11838
USER: genes 15 Torsion [CE2]-CZ--OH-[HH] |==|  0.33818
USER: genes 16 Torsion [N]-C--CA-[N] |==|  0.40842
USER: genes 17 Torsion [C]-CA--N-[C] |==|  0.77368
USER: genes 18 Torsion [N]-C--CA-[N] |==|  0.23139
USER: genes 19 Torsion [N]-C--CA-[CB] |==|  0.52866
USER: genes 20 Torsion [C]-CA--CB-[CG] |==|  0.08308
USER: genes 21 Torsion [CA]-CB--CG-[CD] |==|  0.22375
USER: genes 22 Torsion [CB]-CG--CD-[NE] |==|  0.41023
USER: genes 23 Torsion [CG]-CD--NE-[CZ] |==|  0.38586
ROOT
ATOM      1  C   ARG B  14      -6.740 -29.421 -15.243  1.00 32.92 LIG 0.24  C 
ATOM      2 O    ARG B  14      -7.969 -29.384 -15.309  1.00 37.82 LIG-0.27  OA
ATOM      3  N   PRO B  15      -6.079 -29.910 -14.189  1.00 31.88 LIG-0.34  N 
ATOM      4  CA  PRO B  15      -6.817 -30.473 -13.056  1.00 30.79 LIG 0.18  C 
ATOM      5  CB  PRO B  15      -5.715 -30.973 -12.144  1.00 31.22 LIG 0.04  C 
ATOM      6  CG  PRO B  15      -4.617 -31.321 -13.098  1.00 29.82 LIG 0.02  C 
ATOM      7  CD  PRO B  15      -4.640 -30.207 -14.094  1.00 31.43 LIG 0.13  C 
ENDROOT
BRANCH 4 8
ATOM      8  C   PRO B  15      -7.594 -29.384 -12.361  1.00 33.68 LIG 0.24  C 
ATOM      9  N   ILE B  16      -8.875 -29.296 -12.664  1.00 35.41 LIG-0.35  N 
ATOM     10 H    ILE B  16      -9.265 -29.771 -13.267  1.00 35.41 LIG 0.16  HD
ATOM     11 O    PRO B  15      -7.030 -28.607 -11.606  1.00 34.05 LIG-0.27  OA
BRANCH 9 12
ATOM     12  CA  ILE B  16      -9.713 -28.387 -11.998  1.00 37.77 LIG 0.18  C 
BRANCH 12 13
ATOM     13  CB  ILE B  16     -11.029 -28.195 -12.734  1.00 42.27 LIG 0.01  C 
ATOM     14  CG2 ILE B  16     -11.414 -29.468 -13.433  1.00 44.80 LIG 0.01  C 
BRANCH 13 15
ATOM     15  CG1 ILE B  16     -12.093 -27.740 -11.720  1.00 47.53 LIG 0.00  C 
ATOM     16  CD1 ILE B  16     -12.002 -26.286 -11.269  1.00 51.74 LIG 0.01  C 
ENDBRANCH 13 15
ENDBRANCH 12 13
BRANCH 12 17
ATOM     17  C   ILE B  16      -9.881 -28.945 -10.621  1.00 42.33 LIG 0.24  C 
ATOM     18 O    ILE B  16      -9.838 -30.126 -10.419  1.00 39.29 LIG-0.27  OA
ATOM     19  N   TYR B  17     -10.023 -28.043  -9.667  1.00 46.96 LIG-0.35  N 
ATOM     20 H    TYR B  17     -10.161 -27.209  -9.827  1.00 46.96 LIG 0.16  HD
BRANCH 19 21
ATOM     21  CA  TYR B  17      -9.962 -28.356  -8.267  1.00 51.19 LIG 0.18  C 
BRANCH 21 22
ATOM     22  C   TYR B  17     -10.893 -29.473  -7.958  1.00 56.10 LIG 0.24  C 
ATOM     23  N   ASN B  18     -10.431 -30.466  -7.223  1.00 65.39 LIG-0.35  N 
ATOM     24 H    ASN B  18      -9.688 -30.441  -6.792  1.00 65.39 LIG 0.16  HD
ATOM     25 O    TYR B  17     -12.052 -29.403  -8.322  1.00 61.36 LIG-0.27  OA
BRANCH 23 26
ATOM     26  CA  ASN B  18     -11.178 -31.726  -7.085  1.00 70.74 LIG 0.17  C 
BRANCH 26 27
ATOM     27  CB  ASN B  18     -10.215 -32.835  -6.635  1.00 84.74 LIG 0.14  C 
BRANCH 27 28
ATOM     28  CG  ASN B  18      -9.074 -33.066  -7.635  1.00 96.34 LIG 0.22  C 
ATOM     29 OD1  ASN B  18      -9.053 -32.474  -8.726  1.00 99.44 LIG-0.27  OA
ATOM     30  ND2 ASN B  18      -8.129 -33.943  -7.275  1.00 94.73 LIG-0.37  N 
ATOM     31 21HD ASN B  18      -7.476 -34.114  -7.808  1.00 94.73 LIG 0.16  HD
ATOM     32 22HD ASN B  18      -8.175 -34.336  -6.511  1.00 94.73 LIG 0.16  HD
ENDBRANCH 27 28
ENDBRANCH 26 27
BRANCH 26 33
ATOM     33  C   ASN B  18     -12.474 -31.715  -6.238  1.00 72.97 LIG 0.22  C 
ATOM     34 O    ASN B  18     -13.276 -30.770  -6.254  1.00 74.17 LIG-0.29  OA
ENDBRANCH 26 33
ENDBRANCH 23 26
ENDBRANCH 21 22
BRANCH 21 35
ATOM     35  CB  TYR B  17     -10.448 -27.142  -7.493  1.00 54.83 LIG 0.07  C 
BRANCH 35 36
ATOM     36  CG  TYR B  17      -9.469 -26.736  -6.459  1.00 56.96 LIG-0.06  A 
ATOM     37  CD2 TYR B  17      -8.101 -26.718  -6.755  1.00 61.26 LIG 0.01  A 
ATOM     38  CE2 TYR B  17      -7.174 -26.355  -5.806  1.00 70.21 LIG 0.04  A 
ATOM     39  CZ  TYR B  17      -7.618 -26.021  -4.539  1.00 76.40 LIG 0.07  A 
ATOM     40  CE1 TYR B  17      -8.970 -26.040  -4.218  1.00 67.10 LIG 0.04  A 
ATOM     41  CD1 TYR B  17      -9.887 -26.405  -5.187  1.00 57.92 LIG 0.01  A 
BRANCH 39 42
ATOM     42 OH   TYR B  17      -6.699 -25.669  -3.593  1.00 89.25 LIG-0.36  OA
ATOM     43 HH   TYR B  17      -6.870 -24.897  -3.311  1.00 89.25 LIG 0.22  HD
ENDBRANCH 39 42
ENDBRANCH 35 36
ENDBRANCH 21 35
ENDBRANCH 19 21
ENDBRANCH 12 17
ENDBRANCH 9 12
ENDBRANCH 4 8
BRANCH 1 44
ATOM     44  CA  ARG B  14      -5.930 -28.853 -16.370  1.00 32.45 LIG 0.18  C 
BRANCH 44 45
ATOM     45  N   ARG B  14      -6.724 -29.164 -17.538  1.00 38.19 LIG-0.35  N 
ATOM     46 H    ARG B  14      -7.208 -28.509 -17.811  1.00 38.19 LIG 0.16  HD
ATOM     47  C   PRO B  13      -6.707 -30.359 -18.136  1.00 38.91 LIG 0.24  C 
ATOM     48 O    PRO B  13      -6.011 -31.282 -17.763  1.00 32.88 LIG-0.27  OA
BRANCH 47 49
ATOM     49  CA  PRO B  13      -7.598 -30.511 -19.385  1.00 38.31 LIG 0.18  C 
ATOM     50  N   PRO B  13      -6.988 -30.028 -20.605  1.00 38.88 LIG-0.34  N 
ATOM     51  CD  PRO B  13      -7.075 -31.024 -21.682  1.00 43.50 LIG 0.13  C 
ATOM     52  C   PRO B  12      -6.436 -28.812 -20.749  1.00 40.77 LIG 0.26  C 
ATOM     53  CG  PRO B  13      -8.056 -32.018 -21.162  1.00 43.53 LIG 0.02  C 
ATOM     54  CB  PRO B  13      -7.872 -31.984 -19.688  1.00 39.91 LIG 0.04  C 
ATOM     55 O    PRO B  12      -6.449 -27.944 -19.864  1.00 44.45 LIG-0.27  OA
BRANCH 52 56
ATOM     56  CA  PRO B  12      -5.771 -28.511 -22.069  1.00 38.46 LIG 0.35  C 
ATOM     57  CB  PRO B  12      -4.992 -27.201 -21.944  1.00 43.42 LIG 0.05  C 
ATOM     58  CG  PRO B  12      -5.221 -26.498 -23.218  1.00 41.12 LIG 0.04  C 
ATOM     59  CD  PRO B  12      -6.611 -26.878 -23.639  1.00 39.74 LIG 0.32  C 
ATOM     60  N   PRO B  12      -6.783 -28.210 -23.052  1.00 38.12 LIG 0.32  N 
ENDBRANCH 52 56
ENDBRANCH 47 49
ENDBRANCH 44 45
BRANCH 44 61
ATOM     61  CB  ARG B  14      -5.875 -27.329 -16.223  1.00 34.42 LIG 0.04  C 
BRANCH 61 62
ATOM     62  CG  ARG B  14      -5.950 -26.819 -14.784  1.00 32.66 LIG 0.02  C 
BRANCH 62 63
ATOM     63  CD  ARG B  14      -4.583 -26.933 -14.142  1.00 35.24 LIG 0.14  C 
BRANCH 63 64
ATOM     64  NE  ARG B  14      -4.323 -25.872 -13.153  1.00 42.22 LIG-0.23  N 
ATOM     65  CZ  ARG B  14      -3.722 -26.029 -11.971  1.00 44.72 LIG 0.67  C 
ATOM     66  NH2 ARG B  14      -3.306 -27.211 -11.558  1.00 43.48 LIG-0.23  N 
ATOM     67  NH1 ARG B  14      -3.550 -24.985 -11.183  1.00 46.51 LIG-0.23  N 
ATOM     68 1HH2 ARG B  14      -3.419 -27.905 -12.054  1.00 43.48 LIG 0.17  HD
ATOM     69 2HH2 ARG B  14      -2.921 -27.288 -10.793  1.00 43.48 LIG 0.17  HD
ATOM     70 2HH1 ARG B  14      -3.164 -25.080 -10.420  1.00 46.51 LIG 0.17  HD
ATOM     71 1HH1 ARG B  14      -3.824 -24.209 -11.432  1.00 46.51 LIG 0.17  HD
ATOM     72 HE   ARG B  14      -4.583 -25.077 -13.356  1.00 42.22 LIG 0.18  HD
ENDBRANCH 63 64
ENDBRANCH 62 63
ENDBRANCH 61 62
ENDBRANCH 44 61
ENDBRANCH 1 44
TORSDOF 22
ENDMDL
MODEL 46
USER: ADFR SOLUTION from run 48
USER: SCORE 23.114952 LL:  -5.545 LR: -18.903 RR:   0.000 FEB: -12.340
USER: RMSD 5.383643
USER: SEED 47
USER: STATUS no improvement in best in 9 clusters for 5 generations
USER: GENES 24
USER: genes 0 Translation |==|  0.47494 0.49768 0.61942
USER: genes 1 Rotation |==|  0.20519 0.58882 0.81288 0.73938
USER: genes 2 Torsion [N]-CA--C-[O] |==|  0.51209
USER: genes 3 Torsion [C]-N--CA-[CB] |==|  0.50000
USER: genes 4 Torsion [N]-CA--CB-[CG2] |==|  0.80345
USER: genes 5 Torsion [CA]-CB--CG1-[CD1] |==|  0.59825
USER: genes 6 Torsion [N]-CA--C-[N] |==|  0.36385
USER: genes 7 Torsion [C]-N--CA-[C] |==|  0.79119
USER: genes 8 Torsion [N]-CA--C-[N] |==|  0.47074
USER: genes 9 Torsion [C]-N--CA-[CB] |==|  0.44708
USER: genes 10 Torsion [N]-CA--CB-[CG] |==|  0.89895
USER: genes 11 Torsion [CA]-CB--CG-[ND2] |==|  0.84153
USER: genes 12 Torsion [N]-CA--C-[O] |==|  0.23269
USER: genes 13 Torsion [N]-CA--CB-[CG] |==|  0.22001
USER: genes 14 Torsion [CA]-CB--CG-[CD2] |==|  0.28550
USER: genes 15 Torsion [CE2]-CZ--OH-[HH] |==|  0.49614
USER: genes 16 Torsion [N]-C--CA-[N] |==|  0.21958
USER: genes 17 Torsion [C]-CA--N-[C] |==|  0.69188
USER: genes 18 Torsion [N]-C--CA-[N] |==|  0.99301
USER: genes 19 Torsion [N]-C--CA-[CB] |==|  0.65274
USER: genes 20 Torsion [C]-CA--CB-[CG] |==|  0.71674
USER: genes 21 Torsion [CA]-CB--CG-[CD] |==|  0.78514
USER: genes 22 Torsion [CB]-CG--CD-[NE] |==|  0.53251
USER: genes 23 Torsion [CG]-CD--NE-[CZ] |==|  0.56554
ROOT
ATOM      1  C   ARG B  14     -10.013 -28.690  -8.619  1.00 32.92 LIG 0.24  C 
ATOM      2 O    ARG B  14      -9.117 -27.932  -8.996  1.00 37.82 LIG-0.27  OA
ATOM      3  N   PRO B  15      -9.920 -30.021  -8.686  1.00 31.88 LIG-0.34  N 
ATOM      4  CA  PRO B  15      -8.695 -30.648  -9.188  1.00 30.79 LIG 0.18  C 
ATOM      5  CB  PRO B  15      -8.975 -32.127  -9.021  1.00 31.22 LIG 0.04  C 
ATOM      6  CG  PRO B  15      -9.897 -32.168  -7.845  1.00 29.82 LIG 0.02  C 
ATOM      7  CD  PRO B  15     -10.818 -31.012  -8.070  1.00 31.43 LIG 0.13  C 
ENDROOT
BRANCH 4 8
ATOM      8  C   PRO B  15      -8.520 -30.327 -10.651  1.00 33.68 LIG 0.24  C 
ATOM      9  N   ILE B  16      -9.438 -29.549 -11.192  1.00 35.41 LIG-0.35  N 
ATOM     10 H    ILE B  16     -10.145 -29.276 -10.784  1.00 35.41 LIG 0.16  HD
ATOM     11 O    PRO B  15      -7.601 -30.819 -11.287  1.00 34.05 LIG-0.27  OA
BRANCH 9 12
ATOM     12  CA  ILE B  16      -9.315 -29.103 -12.517  1.00 37.77 LIG 0.18  C 
BRANCH 12 13
ATOM     13  CB  ILE B  16     -10.486 -28.223 -12.923  1.00 42.27 LIG 0.01  C 
ATOM     14  CG2 ILE B  16     -11.728 -29.056 -13.061  1.00 44.80 LIG 0.01  C 
BRANCH 13 15
ATOM     15  CG1 ILE B  16     -10.643 -27.108 -11.875  1.00 47.53 LIG 0.00  C 
ATOM     16  CD1 ILE B  16     -12.074 -26.676 -11.573  1.00 51.74 LIG 0.01  C 
ENDBRANCH 13 15
ENDBRANCH 12 13
BRANCH 12 17
ATOM     17  C   ILE B  16      -7.997 -28.398 -12.574  1.00 42.33 LIG 0.24  C 
ATOM     18 O    ILE B  16      -7.678 -27.609 -11.730  1.00 39.29 LIG-0.27  OA
ATOM     19  N   TYR B  17      -7.218 -28.754 -13.578  1.00 46.96 LIG-0.35  N 
ATOM     20 H    TYR B  17      -7.491 -29.235 -14.237  1.00 46.96 LIG 0.16  HD
BRANCH 19 21
ATOM     21  CA  TYR B  17      -5.836 -28.376 -13.679  1.00 51.19 LIG 0.18  C 
BRANCH 21 22
ATOM     22  C   TYR B  17      -5.730 -26.947 -14.075  1.00 56.10 LIG 0.24  C 
ATOM     23  N   ASN B  18      -4.541 -26.381 -14.007  1.00 65.39 LIG-0.35  N 
ATOM     24 H    ASN B  18      -3.807 -26.815 -13.895  1.00 65.39 LIG 0.16  HD
ATOM     25 O    TYR B  17      -6.711 -26.373 -14.513  1.00 61.36 LIG-0.27  OA
BRANCH 23 26
ATOM     26  CA  ASN B  18      -4.379 -24.923 -14.121  1.00 70.74 LIG 0.17  C 
BRANCH 26 27
ATOM     27  CB  ASN B  18      -3.014 -24.521 -13.542  1.00 84.74 LIG 0.14  C 
BRANCH 27 28
ATOM     28  CG  ASN B  18      -2.623 -25.362 -12.320  1.00 96.34 LIG 0.22  C 
ATOM     29 OD1  ASN B  18      -1.572 -26.021 -12.309  1.00 99.44 LIG-0.27  OA
ATOM     30  ND2 ASN B  18      -3.478 -25.358 -11.290  1.00 94.73 LIG-0.37  N 
ATOM     31 21HD ASN B  18      -3.308 -25.824 -10.588  1.00 94.73 LIG 0.16  HD
ATOM     32 22HD ASN B  18      -4.199 -24.890 -11.331  1.00 94.73 LIG 0.16  HD
ENDBRANCH 27 28
ENDBRANCH 26 27
BRANCH 26 33
ATOM     33  C   ASN B  18      -4.631 -24.268 -15.501  1.00 72.97 LIG 0.22  C 
ATOM     34 O    ASN B  18      -5.764 -23.957 -15.897  1.00 74.17 LIG-0.29  OA
ENDBRANCH 26 33
ENDBRANCH 23 26
ENDBRANCH 21 22
BRANCH 21 35
ATOM     35  CB  TYR B  17      -5.204 -29.195 -14.792  1.00 54.83 LIG 0.07  C 
BRANCH 35 36
ATOM     36  CG  TYR B  17      -5.535 -28.639 -16.124  1.00 56.96 LIG-0.06  A 
ATOM     37  CD2 TYR B  17      -4.586 -27.888 -16.827  1.00 61.26 LIG 0.01  A 
ATOM     38  CE2 TYR B  17      -4.876 -27.352 -18.060  1.00 70.21 LIG 0.04  A 
ATOM     39  CZ  TYR B  17      -6.138 -27.556 -18.592  1.00 76.40 LIG 0.07  A 
ATOM     40  CE1 TYR B  17      -7.100 -28.291 -17.908  1.00 67.10 LIG 0.04  A 
ATOM     41  CD1 TYR B  17      -6.787 -28.823 -16.671  1.00 57.92 LIG 0.01  A 
BRANCH 39 42
ATOM     42 OH   TYR B  17      -6.431 -27.019 -19.811  1.00 89.25 LIG-0.36  OA
ATOM     43 HH   TYR B  17      -7.214 -27.229 -20.028  1.00 89.25 LIG 0.22  HD
ENDBRANCH 39 42
ENDBRANCH 35 36
ENDBRANCH 21 35
ENDBRANCH 19 21
ENDBRANCH 12 17
ENDBRANCH 9 12
ENDBRANCH 4 8
BRANCH 1 44
ATOM     44  CA  ARG B  14     -11.294 -28.105  -8.102  1.00 32.45 LIG 0.18  C 
BRANCH 44 45
ATOM     45  N   ARG B  14     -11.169 -28.252  -6.669  1.00 38.19 LIG-0.35  N 
ATOM     46 H    ARG B  14     -10.569 -27.744  -6.320  1.00 38.19 LIG 0.16  HD
ATOM     47  C   PRO B  13     -11.917 -29.097  -5.953  1.00 38.91 LIG 0.24  C 
ATOM     48 O    PRO B  13     -12.777 -29.803  -6.439  1.00 32.88 LIG-0.27  OA
BRANCH 47 49
ATOM     49  CA  PRO B  13     -11.668 -29.107  -4.431  1.00 38.31 LIG 0.18  C 
ATOM     50  N   PRO B  13     -10.603 -28.226  -4.003  1.00 38.88 LIG-0.34  N 
ATOM     51  CD  PRO B  13     -11.031 -27.362  -2.893  1.00 43.50 LIG 0.13  C 
ATOM     52  C   PRO B  12      -9.368 -28.213  -4.531  1.00 40.77 LIG 0.26  C 
ATOM     53  CG  PRO B  13     -12.310 -27.980  -2.442  1.00 43.53 LIG 0.02  C 
ATOM     54  CB  PRO B  13     -12.886 -28.581  -3.672  1.00 39.91 LIG 0.04  C 
ATOM     55 O    PRO B  12      -8.988 -29.007  -5.405  1.00 44.45 LIG-0.27  OA
BRANCH 52 56
ATOM     56  CA  PRO B  12      -8.411 -27.167  -4.017  1.00 38.46 LIG 0.35  C 
ATOM     57  CB  PRO B  12      -7.876 -26.360  -5.202  1.00 43.42 LIG 0.05  C 
ATOM     58  CG  PRO B  12      -6.449 -26.148  -4.905  1.00 41.12 LIG 0.04  C 
ATOM     59  CD  PRO B  12      -6.009 -27.377  -4.165  1.00 39.74 LIG 0.32  C 
ATOM     60  N   PRO B  12      -7.235 -27.817  -3.494  1.00 38.12 LIG 0.32  N 
ENDBRANCH 52 56
ENDBRANCH 47 49
ENDBRANCH 44 45
BRANCH 44 61
ATOM     61  CB  ARG B  14     -11.324 -26.608  -8.428  1.00 34.42 LIG 0.04  C 
BRANCH 61 62
ATOM     62  CG  ARG B  14     -10.992 -25.688  -7.253  1.00 32.66 LIG 0.02  C 
BRANCH 62 63
ATOM     63  CD  ARG B  14     -12.197 -25.590  -6.340  1.00 35.24 LIG 0.14  C 
BRANCH 63 64
ATOM     64  NE  ARG B  14     -12.070 -24.519  -5.335  1.00 42.22 LIG-0.23  N 
ATOM     65  CZ  ARG B  14     -12.708 -24.461  -4.164  1.00 44.72 LIG 0.67  C 
ATOM     66  NH2 ARG B  14     -13.564 -25.394  -3.795  1.00 43.48 LIG-0.23  N 
ATOM     67  NH1 ARG B  14     -12.494 -23.440  -3.355  1.00 46.51 LIG-0.23  N 
ATOM     68 1HH2 ARG B  14     -13.723 -26.062  -4.314  1.00 43.48 LIG 0.17  HD
ATOM     69 2HH2 ARG B  14     -13.962 -25.336  -3.035  1.00 43.48 LIG 0.17  HD
ATOM     70 2HH1 ARG B  14     -12.902 -23.397  -2.599  1.00 46.51 LIG 0.17  HD
ATOM     71 1HH1 ARG B  14     -11.947 -22.817  -3.584  1.00 46.51 LIG 0.17  HD
ATOM     72 HE   ARG B  14     -11.536 -23.871  -5.521  1.00 42.22 LIG 0.18  HD
ENDBRANCH 63 64
ENDBRANCH 62 63
ENDBRANCH 61 62
ENDBRANCH 44 61
ENDBRANCH 1 44
TORSDOF 22
ENDMDL
MODEL 47
USER: ADFR SOLUTION from run 92
USER: SCORE 21.261986 LL:  -4.699 LR: -18.896 RR:   0.000 FEB: -12.334
USER: RMSD 12.602902
USER: SEED 91
USER: STATUS no improvement in best in 13 clusters for 5 generations
USER: GENES 24
USER: genes 0 Translation |==|  0.67605 0.56075 0.42916
USER: genes 1 Rotation |==|  0.70127 0.85366 0.78821 0.53676
USER: genes 2 Torsion [N]-CA--C-[O] |==|  0.96319
USER: genes 3 Torsion [C]-N--CA-[CB] |==|  0.44573
USER: genes 4 Torsion [N]-CA--CB-[CG2] |==|  0.44655
USER: genes 5 Torsion [CA]-CB--CG1-[CD1] |==|  0.53316
USER: genes 6 Torsion [N]-CA--C-[N] |==|  0.36859
USER: genes 7 Torsion [C]-N--CA-[C] |==|  0.76769
USER: genes 8 Torsion [N]-CA--C-[N] |==|  0.46666
USER: genes 9 Torsion [C]-N--CA-[CB] |==|  0.27220
USER: genes 10 Torsion [N]-CA--CB-[CG] |==|  0.81178
USER: genes 11 Torsion [CA]-CB--CG-[ND2] |==|  0.75920
USER: genes 12 Torsion [N]-CA--C-[O] |==|  0.90391
USER: genes 13 Torsion [N]-CA--CB-[CG] |==|  0.26012
USER: genes 14 Torsion [CA]-CB--CG-[CD2] |==|  0.79128
USER: genes 15 Torsion [CE2]-CZ--OH-[HH] |==|  0.63905
USER: genes 16 Torsion [N]-C--CA-[N] |==|  0.39648
USER: genes 17 Torsion [C]-CA--N-[C] |==|  0.22181
USER: genes 18 Torsion [N]-C--CA-[N] |==|  0.21087
USER: genes 19 Torsion [N]-C--CA-[CB] |==|  0.56799
USER: genes 20 Torsion [C]-CA--CB-[CG] |==|  0.45208
USER: genes 21 Torsion [CA]-CB--CG-[CD] |==|  0.26297
USER: genes 22 Torsion [CB]-CG--CD-[NE] |==|  0.19867
USER: genes 23 Torsion [CG]-CD--NE-[CZ] |==|  0.37673
ROOT
ATOM      1  C   ARG B  14      -5.488 -27.507 -13.899  1.00 32.92 LIG 0.24  C 
ATOM      2 O    ARG B  14      -6.470 -27.014 -14.456  1.00 37.82 LIG-0.27  OA
ATOM      3  N   PRO B  15      -5.543 -28.635 -13.185  1.00 31.88 LIG-0.34  N 
ATOM      4  CA  PRO B  15      -6.805 -29.370 -13.069  1.00 30.79 LIG 0.18  C 
ATOM      5  CB  PRO B  15      -6.416 -30.595 -12.266  1.00 31.22 LIG 0.04  C 
ATOM      6  CG  PRO B  15      -4.983 -30.806 -12.642  1.00 29.82 LIG 0.02  C 
ATOM      7  CD  PRO B  15      -4.412 -29.425 -12.670  1.00 31.43 LIG 0.13  C 
ENDROOT
BRANCH 4 8
ATOM      8  C   PRO B  15      -7.804 -28.551 -12.291  1.00 33.68 LIG 0.24  C 
ATOM      9  N   ILE B  16      -9.065 -28.925 -12.384  1.00 35.41 LIG-0.35  N 
ATOM     10 H    ILE B  16      -9.349 -29.552 -12.900  1.00 35.41 LIG 0.16  HD
ATOM     11 O    PRO B  15      -7.441 -27.568 -11.662  1.00 34.05 LIG-0.27  OA
BRANCH 9 12
ATOM     12  CA  ILE B  16     -10.061 -28.298 -11.618  1.00 37.77 LIG 0.18  C 
BRANCH 12 13
ATOM     13  CB  ILE B  16     -11.445 -28.528 -12.203  1.00 42.27 LIG 0.01  C 
ATOM     14  CG2 ILE B  16     -12.491 -28.271 -11.157  1.00 44.80 LIG 0.01  C 
BRANCH 13 15
ATOM     15  CG1 ILE B  16     -11.612 -27.619 -13.433  1.00 47.53 LIG 0.00  C 
ATOM     16  CD1 ILE B  16     -13.029 -27.500 -13.985  1.00 51.74 LIG 0.01  C 
ENDBRANCH 13 15
ENDBRANCH 12 13
BRANCH 12 17
ATOM     17  C   ILE B  16      -9.902 -28.850 -10.238  1.00 42.33 LIG 0.24  C 
ATOM     18 O    ILE B  16      -9.739 -30.024 -10.054  1.00 39.29 LIG-0.27  OA
ATOM     19  N   TYR B  17      -9.903 -27.949  -9.273  1.00 46.96 LIG-0.35  N 
ATOM     20 H    TYR B  17     -10.128 -27.129  -9.398  1.00 46.96 LIG 0.16  HD
BRANCH 19 21
ATOM     21  CA  TYR B  17      -9.533 -28.242  -7.917  1.00 51.19 LIG 0.18  C 
BRANCH 21 22
ATOM     22  C   TYR B  17     -10.697 -28.809  -7.186  1.00 56.10 LIG 0.24  C 
ATOM     23  N   ASN B  18     -10.469 -29.356  -6.008  1.00 65.39 LIG-0.35  N 
ATOM     24 H    ASN B  18      -9.732 -29.274  -5.573  1.00 65.39 LIG 0.16  HD
ATOM     25 O    TYR B  17     -11.814 -28.688  -7.654  1.00 61.36 LIG-0.27  OA
BRANCH 23 26
ATOM     26  CA  ASN B  18     -11.492 -30.169  -5.331  1.00 70.74 LIG 0.17  C 
BRANCH 26 27
ATOM     27  CB  ASN B  18     -11.206 -31.656  -5.591  1.00 84.74 LIG 0.14  C 
BRANCH 27 28
ATOM     28  CG  ASN B  18     -11.414 -32.047  -7.060  1.00 96.34 LIG 0.22  C 
ATOM     29 OD1  ASN B  18     -10.472 -32.020  -7.867  1.00 99.44 LIG-0.27  OA
ATOM     30  ND2 ASN B  18     -12.656 -32.396  -7.418  1.00 94.73 LIG-0.37  N 
ATOM     31 21HD ASN B  18     -12.824 -32.612  -8.233  1.00 94.73 LIG 0.16  HD
ATOM     32 22HD ASN B  18     -13.286 -32.404  -6.832  1.00 94.73 LIG 0.16  HD
ENDBRANCH 27 28
ENDBRANCH 26 27
BRANCH 26 33
ATOM     33  C   ASN B  18     -11.770 -29.892  -3.834  1.00 72.97 LIG 0.22  C 
ATOM     34 O    ASN B  18     -10.881 -29.549  -3.041  1.00 74.17 LIG-0.29  OA
ENDBRANCH 26 33
ENDBRANCH 23 26
ENDBRANCH 21 22
BRANCH 21 35
ATOM     35  CB  TYR B  17      -9.172 -26.933  -7.235  1.00 54.83 LIG 0.07  C 
BRANCH 35 36
ATOM     36  CG  TYR B  17     -10.337 -26.356  -6.527  1.00 56.96 LIG-0.06  A 
ATOM     37  CD2 TYR B  17     -11.362 -25.736  -7.251  1.00 61.26 LIG 0.01  A 
ATOM     38  CE2 TYR B  17     -12.448 -25.182  -6.612  1.00 70.21 LIG 0.04  A 
ATOM     39  CZ  TYR B  17     -12.503 -25.235  -5.231  1.00 76.40 LIG 0.07  A 
ATOM     40  CE1 TYR B  17     -11.493 -25.838  -4.490  1.00 67.10 LIG 0.04  A 
ATOM     41  CD1 TYR B  17     -10.411 -26.391  -5.151  1.00 57.92 LIG 0.01  A 
BRANCH 39 42
ATOM     42 OH   TYR B  17     -13.574 -24.680  -4.595  1.00 89.25 LIG-0.36  OA
ATOM     43 HH   TYR B  17     -13.304 -24.171  -3.983  1.00 89.25 LIG 0.22  HD
ENDBRANCH 39 42
ENDBRANCH 35 36
ENDBRANCH 21 35
ENDBRANCH 19 21
ENDBRANCH 12 17
ENDBRANCH 9 12
ENDBRANCH 4 8
BRANCH 1 44
ATOM     44  CA  ARG B  14      -4.170 -26.795 -13.976  1.00 32.45 LIG 0.18  C 
BRANCH 44 45
ATOM     45  N   ARG B  14      -4.141 -26.299 -15.334  1.00 38.19 LIG-0.35  N 
ATOM     46 H    ARG B  14      -3.669 -26.781 -15.868  1.00 38.19 LIG 0.16  HD
ATOM     47  C   PRO B  13      -4.787 -25.197 -15.723  1.00 38.91 LIG 0.24  C 
ATOM     48 O    PRO B  13      -5.469 -24.524 -14.976  1.00 32.88 LIG-0.27  OA
BRANCH 47 49
ATOM     49  CA  PRO B  13      -4.667 -24.825 -17.215  1.00 38.31 LIG 0.18  C 
ATOM     50  N   PRO B  13      -5.477 -25.643 -18.092  1.00 38.88 LIG-0.34  N 
ATOM     51  CD  PRO B  13      -6.282 -24.820 -19.007  1.00 43.50 LIG 0.13  C 
ATOM     52  C   PRO B  12      -5.476 -26.986 -18.094  1.00 40.77 LIG 0.26  C 
ATOM     53  CG  PRO B  13      -5.685 -23.461 -18.872  1.00 43.53 LIG 0.02  C 
ATOM     54  CB  PRO B  13      -5.189 -23.412 -17.472  1.00 39.91 LIG 0.04  C 
ATOM     55 O    PRO B  12      -4.727 -27.673 -17.383  1.00 44.45 LIG-0.27  OA
BRANCH 52 56
ATOM     56  CA  PRO B  12      -6.449 -27.672 -19.020  1.00 38.46 LIG 0.35  C 
ATOM     57  CB  PRO B  12      -6.746 -29.072 -18.477  1.00 43.42 LIG 0.05  C 
ATOM     58  CG  PRO B  12      -6.790 -29.940 -19.667  1.00 41.12 LIG 0.04  C 
ATOM     59  CD  PRO B  12      -5.793 -29.356 -20.624  1.00 39.74 LIG 0.32  C 
ATOM     60  N   PRO B  12      -5.799 -27.931 -20.282  1.00 38.12 LIG 0.32  N 
ENDBRANCH 52 56
ENDBRANCH 47 49
ENDBRANCH 44 45
BRANCH 44 61
ATOM     61  CB  ARG B  14      -4.199 -25.591 -13.029  1.00 34.42 LIG 0.04  C 
BRANCH 61 62
ATOM     62  CG  ARG B  14      -2.827 -25.015 -12.681  1.00 32.66 LIG 0.02  C 
BRANCH 62 63
ATOM     63  CD  ARG B  14      -2.514 -23.867 -13.619  1.00 35.24 LIG 0.14  C 
BRANCH 63 64
ATOM     64  NE  ARG B  14      -3.328 -22.668 -13.350  1.00 42.22 LIG-0.23  N 
ATOM     65  CZ  ARG B  14      -2.883 -21.410 -13.305  1.00 44.72 LIG 0.67  C 
ATOM     66  NH2 ARG B  14      -1.608 -21.120 -13.487  1.00 43.48 LIG-0.23  N 
ATOM     67  NH1 ARG B  14      -3.728 -20.428 -13.057  1.00 46.51 LIG-0.23  N 
ATOM     68 1HH2 ARG B  14      -1.041 -21.749 -13.640  1.00 43.48 LIG 0.17  HD
ATOM     69 2HH2 ARG B  14      -1.345 -20.302 -13.454  1.00 43.48 LIG 0.17  HD
ATOM     70 2HH1 ARG B  14      -3.447 -19.615 -13.026  1.00 46.51 LIG 0.17  HD
ATOM     71 1HH1 ARG B  14      -4.560 -20.599 -12.926  1.00 46.51 LIG 0.17  HD
ATOM     72 HE   ARG B  14      -4.168 -22.790 -13.209  1.00 42.22 LIG 0.18  HD
ENDBRANCH 63 64
ENDBRANCH 62 63
ENDBRANCH 61 62
ENDBRANCH 44 61
ENDBRANCH 1 44
TORSDOF 22
ENDMDL
MODEL 48
USER: ADFR SOLUTION from run 41
USER: SCORE 21.913409 LL:  -4.225 LR: -18.885 RR:   0.000 FEB: -12.322
USER: RMSD 5.447059
USER: SEED 40
USER: STATUS no improvement in best in 6 clusters for 5 generations
USER: GENES 24
USER: genes 0 Translation |==|  0.41428 0.60605 0.69292
USER: genes 1 Rotation |==|  0.73979 0.44300 0.07334 0.58493
USER: genes 2 Torsion [N]-CA--C-[O] |==|  0.04937
USER: genes 3 Torsion [C]-N--CA-[CB] |==|  0.17510
USER: genes 4 Torsion [N]-CA--CB-[CG2] |==|  0.22424
USER: genes 5 Torsion [CA]-CB--CG1-[CD1] |==|  0.54354
USER: genes 6 Torsion [N]-CA--C-[N] |==|  0.42075
USER: genes 7 Torsion [C]-N--CA-[C] |==|  0.80875
USER: genes 8 Torsion [N]-CA--C-[N] |==|  0.35389
USER: genes 9 Torsion [C]-N--CA-[CB] |==|  0.81782
USER: genes 10 Torsion [N]-CA--CB-[CG] |==|  0.39101
USER: genes 11 Torsion [CA]-CB--CG-[ND2] |==|  0.66096
USER: genes 12 Torsion [N]-CA--C-[O] |==|  0.32567
USER: genes 13 Torsion [N]-CA--CB-[CG] |==|  0.64898
USER: genes 14 Torsion [CA]-CB--CG-[CD2] |==|  0.08334
USER: genes 15 Torsion [CE2]-CZ--OH-[HH] |==|  0.99114
USER: genes 16 Torsion [N]-C--CA-[N] |==|  0.87549
USER: genes 17 Torsion [C]-CA--N-[C] |==|  0.84367
USER: genes 18 Torsion [N]-C--CA-[N] |==|  0.30570
USER: genes 19 Torsion [N]-C--CA-[CB] |==|  0.77529
USER: genes 20 Torsion [C]-CA--CB-[CG] |==|  0.29732
USER: genes 21 Torsion [CA]-CB--CG-[CD] |==|  0.46862
USER: genes 22 Torsion [CB]-CG--CD-[NE] |==|  0.16505
USER: genes 23 Torsion [CG]-CD--NE-[CZ] |==|  0.61919
ROOT
ATOM      1  C   ARG B  14     -11.378 -26.658  -6.579  1.00 32.92 LIG 0.24  C 
ATOM      2 O    ARG B  14     -11.921 -26.089  -7.528  1.00 37.82 LIG-0.27  OA
ATOM      3  N   PRO B  15     -10.101 -27.052  -6.598  1.00 31.88 LIG-0.34  N 
ATOM      4  CA  PRO B  15      -9.264 -26.777  -7.769  1.00 30.79 LIG 0.18  C 
ATOM      5  CB  PRO B  15      -7.907 -27.304  -7.350  1.00 31.22 LIG 0.04  C 
ATOM      6  CG  PRO B  15      -7.915 -27.122  -5.866  1.00 29.82 LIG 0.02  C 
ATOM      7  CD  PRO B  15      -9.295 -27.529  -5.462  1.00 31.43 LIG 0.13  C 
ENDROOT
BRANCH 4 8
ATOM      8  C   PRO B  15      -9.769 -27.563  -8.952  1.00 33.68 LIG 0.24  C 
ATOM      9  N   ILE B  16      -8.952 -27.658  -9.983  1.00 35.41 LIG-0.35  N 
ATOM     10 H    ILE B  16      -8.194 -27.254 -10.040  1.00 35.41 LIG 0.16  HD
ATOM     11 O    PRO B  15     -10.899 -28.029  -8.949  1.00 34.05 LIG-0.27  OA
BRANCH 9 12
ATOM     12  CA  ILE B  16      -9.279 -28.454 -11.092  1.00 37.77 LIG 0.18  C 
BRANCH 12 13
ATOM     13  CB  ILE B  16     -10.529 -27.949 -11.794  1.00 42.27 LIG 0.01  C 
ATOM     14  CG2 ILE B  16     -10.181 -26.798 -12.694  1.00 44.80 LIG 0.01  C 
BRANCH 13 15
ATOM     15  CG1 ILE B  16     -11.163 -29.121 -12.564  1.00 47.53 LIG 0.00  C 
ATOM     16  CD1 ILE B  16     -12.199 -28.742 -13.617  1.00 51.74 LIG 0.01  C 
ENDBRANCH 13 15
ENDBRANCH 12 13
BRANCH 12 17
ATOM     17  C   ILE B  16      -8.064 -28.436 -11.962  1.00 42.33 LIG 0.24  C 
ATOM     18 O    ILE B  16      -7.289 -27.521 -11.929  1.00 39.29 LIG-0.27  OA
ATOM     19  N   TYR B  17      -7.897 -29.511 -12.709  1.00 46.96 LIG-0.35  N 
ATOM     20 H    TYR B  17      -8.505 -30.111 -12.811  1.00 46.96 LIG 0.16  HD
BRANCH 19 21
ATOM     21  CA  TYR B  17      -6.687 -29.794 -13.429  1.00 51.19 LIG 0.18  C 
BRANCH 21 22
ATOM     22  C   TYR B  17      -6.521 -28.821 -14.541  1.00 56.10 LIG 0.24  C 
ATOM     23  N   ASN B  18      -5.376 -28.172 -14.618  1.00 65.39 LIG-0.35  N 
ATOM     24 H    ASN B  18      -4.674 -28.378 -14.167  1.00 65.39 LIG 0.16  HD
ATOM     25 O    TYR B  17      -7.402 -28.709 -15.374  1.00 61.36 LIG-0.27  OA
BRANCH 23 26
ATOM     26  CA  ASN B  18      -5.213 -27.012 -15.509  1.00 70.74 LIG 0.17  C 
BRANCH 26 27
ATOM     27  CB  ASN B  18      -5.336 -27.477 -16.968  1.00 84.74 LIG 0.14  C 
BRANCH 27 28
ATOM     28  CG  ASN B  18      -6.107 -26.480 -17.842  1.00 96.34 LIG 0.22  C 
ATOM     29 OD1  ASN B  18      -5.735 -25.300 -17.944  1.00 99.44 LIG-0.27  OA
ATOM     30  ND2 ASN B  18      -7.199 -26.944 -18.462  1.00 94.73 LIG-0.37  N 
ATOM     31 21HD ASN B  18      -7.671 -26.419 -18.953  1.00 94.73 LIG 0.16  HD
ATOM     32 22HD ASN B  18      -7.429 -27.768 -18.369  1.00 94.73 LIG 0.16  HD
ENDBRANCH 27 28
ENDBRANCH 26 27
BRANCH 26 33
ATOM     33  C   ASN B  18      -6.074 -25.755 -15.235  1.00 72.97 LIG 0.22  C 
ATOM     34 O    ASN B  18      -5.581 -24.659 -14.933  1.00 74.17 LIG-0.29  OA
ENDBRANCH 26 33
ENDBRANCH 23 26
ENDBRANCH 21 22
BRANCH 21 35
ATOM     35  CB  TYR B  17      -6.825 -31.170 -14.058  1.00 54.83 LIG 0.07  C 
BRANCH 35 36
ATOM     36  CG  TYR B  17      -5.689 -32.047 -13.690  1.00 56.96 LIG-0.06  A 
ATOM     37  CD2 TYR B  17      -5.041 -31.877 -12.462  1.00 61.26 LIG 0.01  A 
ATOM     38  CE2 TYR B  17      -3.976 -32.672 -12.105  1.00 70.21 LIG 0.04  A 
ATOM     39  CZ  TYR B  17      -3.543 -33.639 -12.995  1.00 76.40 LIG 0.07  A 
ATOM     40  CE1 TYR B  17      -4.166 -33.821 -14.224  1.00 67.10 LIG 0.04  A 
ATOM     41  CD1 TYR B  17      -5.236 -33.013 -14.563  1.00 57.92 LIG 0.01  A 
BRANCH 39 42
ATOM     42 OH   TYR B  17      -2.483 -34.423 -12.647  1.00 89.25 LIG-0.36  OA
ATOM     43 HH   TYR B  17      -2.182 -34.174 -11.903  1.00 89.25 LIG 0.22  HD
ENDBRANCH 39 42
ENDBRANCH 35 36
ENDBRANCH 21 35
ENDBRANCH 19 21
ENDBRANCH 12 17
ENDBRANCH 9 12
ENDBRANCH 4 8
BRANCH 1 44
ATOM     44  CA  ARG B  14     -12.186 -26.971  -5.356  1.00 32.45 LIG 0.18  C 
BRANCH 44 45
ATOM     45  N   ARG B  14     -11.843 -28.347  -5.076  1.00 38.19 LIG-0.35  N 
ATOM     46 H    ARG B  14     -11.532 -28.472  -4.284  1.00 38.19 LIG 0.16  HD
ATOM     47  C   PRO B  13     -11.994 -29.333  -5.965  1.00 38.91 LIG 0.24  C 
ATOM     48 O    PRO B  13     -12.449 -29.165  -7.078  1.00 32.88 LIG-0.27  OA
BRANCH 47 49
ATOM     49  CA  PRO B  13     -11.599 -30.747  -5.490  1.00 38.31 LIG 0.18  C 
ATOM     50  N   PRO B  13     -12.722 -31.642  -5.309  1.00 38.88 LIG-0.34  N 
ATOM     51  CD  PRO B  13     -12.506 -32.924  -5.994  1.00 43.50 LIG 0.13  C 
ATOM     52  C   PRO B  12     -13.814 -31.353  -4.583  1.00 40.77 LIG 0.26  C 
ATOM     53  CG  PRO B  13     -11.055 -32.899  -6.335  1.00 43.53 LIG 0.02  C 
ATOM     54  CB  PRO B  13     -10.748 -31.460  -6.541  1.00 39.91 LIG 0.04  C 
ATOM     55 O    PRO B  12     -13.949 -30.304  -3.934  1.00 44.45 LIG-0.27  OA
BRANCH 52 56
ATOM     56  CA  PRO B  12     -14.924 -32.374  -4.575  1.00 38.46 LIG 0.35  C 
ATOM     57  CB  PRO B  12     -15.755 -32.214  -5.849  1.00 43.42 LIG 0.05  C 
ATOM     58  CG  PRO B  12     -17.152 -32.396  -5.419  1.00 41.12 LIG 0.04  C 
ATOM     59  CD  PRO B  12     -17.216 -31.841  -4.026  1.00 39.74 LIG 0.32  C 
ATOM     60  N   PRO B  12     -15.856 -32.052  -3.522  1.00 38.12 LIG 0.32  N 
ENDBRANCH 52 56
ENDBRANCH 47 49
ENDBRANCH 44 45
BRANCH 44 61
ATOM     61  CB  ARG B  14     -11.684 -26.108  -4.194  1.00 34.42 LIG 0.04  C 
BRANCH 61 62
ATOM     62  CG  ARG B  14     -12.617 -24.966  -3.791  1.00 32.66 LIG 0.02  C 
BRANCH 62 63
ATOM     63  CD  ARG B  14     -12.147 -24.378  -2.476  1.00 35.24 LIG 0.14  C 
BRANCH 63 64
ATOM     64  NE  ARG B  14     -10.773 -23.851  -2.542  1.00 42.22 LIG-0.23  N 
ATOM     65  CZ  ARG B  14      -9.824 -24.013  -1.616  1.00 44.72 LIG 0.67  C 
ATOM     66  NH2 ARG B  14     -10.054 -24.675  -0.498  1.00 43.48 LIG-0.23  N 
ATOM     67  NH1 ARG B  14      -8.629 -23.487  -1.809  1.00 46.51 LIG-0.23  N 
ATOM     68 1HH2 ARG B  14     -10.830 -25.015  -0.352  1.00 43.48 LIG 0.17  HD
ATOM     69 2HH2 ARG B  14      -9.427 -24.767   0.083  1.00 43.48 LIG 0.17  HD
ATOM     70 2HH1 ARG B  14      -8.014 -23.588  -1.216  1.00 46.51 LIG 0.17  HD
ATOM     71 1HH1 ARG B  14      -8.464 -23.044  -2.526  1.00 46.51 LIG 0.17  HD
ATOM     72 HE   ARG B  14     -10.561 -23.396  -3.241  1.00 42.22 LIG 0.18  HD
ENDBRANCH 63 64
ENDBRANCH 62 63
ENDBRANCH 61 62
ENDBRANCH 44 61
ENDBRANCH 1 44
TORSDOF 22
ENDMDL
MODEL 49
USER: ADFR SOLUTION from run 132
USER: SCORE 22.225496 LL:  -4.509 LR: -18.894 RR:   0.000 FEB: -12.332
USER: RMSD 12.557430
USER: SEED 131
USER: STATUS no improvement in best in 29 clusters for 5 generations
USER: GENES 24
USER: genes 0 Translation |==|  0.62018 0.46825 0.38105
USER: genes 1 Rotation |==|  0.25678 0.08741 0.36025 0.53295
USER: genes 2 Torsion [N]-CA--C-[O] |==|  0.82367
USER: genes 3 Torsion [C]-N--CA-[CB] |==|  0.43898
USER: genes 4 Torsion [N]-CA--CB-[CG2] |==|  0.74338
USER: genes 5 Torsion [CA]-CB--CG1-[CD1] |==|  0.52352
USER: genes 6 Torsion [N]-CA--C-[N] |==|  0.45075
USER: genes 7 Torsion [C]-N--CA-[C] |==|  0.83224
USER: genes 8 Torsion [N]-CA--C-[N] |==|  0.36748
USER: genes 9 Torsion [C]-N--CA-[CB] |==|  0.44732
USER: genes 10 Torsion [N]-CA--CB-[CG] |==|  0.85212
USER: genes 11 Torsion [CA]-CB--CG-[ND2] |==|  0.44316
USER: genes 12 Torsion [N]-CA--C-[O] |==|  0.10776
USER: genes 13 Torsion [N]-CA--CB-[CG] |==|  0.67010
USER: genes 14 Torsion [CA]-CB--CG-[CD2] |==|  0.15658
USER: genes 15 Torsion [CE2]-CZ--OH-[HH] |==|  0.23357
USER: genes 16 Torsion [N]-C--CA-[N] |==|  0.87781
USER: genes 17 Torsion [C]-CA--N-[C] |==|  0.81667
USER: genes 18 Torsion [N]-C--CA-[N] |==|  0.38556
USER: genes 19 Torsion [N]-C--CA-[CB] |==|  0.49736
USER: genes 20 Torsion [C]-CA--CB-[CG] |==|  0.13277
USER: genes 21 Torsion [CA]-CB--CG-[CD] |==|  0.28410
USER: genes 22 Torsion [CB]-CG--CD-[NE] |==|  0.57507
USER: genes 23 Torsion [CG]-CD--NE-[CZ] |==|  0.77643
ROOT
ATOM      1  C   ARG B  14      -6.745 -29.241 -15.234  1.00 32.92 LIG 0.24  C 
ATOM      2 O    ARG B  14      -7.952 -29.005 -15.316  1.00 37.82 LIG-0.27  OA
ATOM      3  N   PRO B  15      -6.206 -29.951 -14.239  1.00 31.88 LIG-0.34  N 
ATOM      4  CA  PRO B  15      -7.063 -30.526 -13.198  1.00 30.79 LIG 0.18  C 
ATOM      5  CB  PRO B  15      -6.085 -31.298 -12.337  1.00 31.22 LIG 0.04  C 
ATOM      6  CG  PRO B  15      -5.018 -31.695 -13.308  1.00 29.82 LIG 0.02  C 
ATOM      7  CD  PRO B  15      -4.834 -30.479 -14.157  1.00 31.43 LIG 0.13  C 
ENDROOT
BRANCH 4 8
ATOM      8  C   PRO B  15      -7.689 -29.421 -12.386  1.00 33.68 LIG 0.24  C 
ATOM      9  N   ILE B  16      -8.998 -29.293 -12.485  1.00 35.41 LIG-0.35  N 
ATOM     10 H    ILE B  16      -9.492 -29.750 -13.022  1.00 35.41 LIG 0.16  HD
ATOM     11 O    PRO B  15      -6.992 -28.667 -11.724  1.00 34.05 LIG-0.27  OA
BRANCH 9 12
ATOM     12  CA  ILE B  16      -9.694 -28.367 -11.692  1.00 37.77 LIG 0.18  C 
BRANCH 12 13
ATOM     13  CB  ILE B  16     -11.034 -27.997 -12.308  1.00 42.27 LIG 0.01  C 
ATOM     14  CG2 ILE B  16     -10.882 -26.777 -13.169  1.00 44.80 LIG 0.01  C 
BRANCH 13 15
ATOM     15  CG1 ILE B  16     -11.557 -29.210 -13.099  1.00 47.53 LIG 0.00  C 
ATOM     16  CD1 ILE B  16     -12.796 -28.962 -13.953  1.00 51.74 LIG 0.01  C 
ENDBRANCH 13 15
ENDBRANCH 12 13
BRANCH 12 17
ATOM     17  C   ILE B  16      -9.818 -29.013 -10.349  1.00 42.33 LIG 0.24  C 
ATOM     18 O    ILE B  16      -9.616 -30.186 -10.204  1.00 39.29 LIG-0.27  OA
ATOM     19  N   TYR B  17     -10.108 -28.190  -9.359  1.00 46.96 LIG-0.35  N 
ATOM     20 H    TYR B  17     -10.357 -27.376  -9.483  1.00 46.96 LIG 0.16  HD
BRANCH 19 21
ATOM     21  CA  TYR B  17     -10.039 -28.564  -7.974  1.00 51.19 LIG 0.18  C 
BRANCH 21 22
ATOM     22  C   TYR B  17     -10.972 -29.691  -7.708  1.00 56.10 LIG 0.24  C 
ATOM     23  N   ASN B  18     -10.506 -30.719  -7.027  1.00 65.39 LIG-0.35  N 
ATOM     24 H    ASN B  18      -9.758 -30.717  -6.603  1.00 65.39 LIG 0.16  HD
ATOM     25 O    TYR B  17     -12.135 -29.600  -8.057  1.00 61.36 LIG-0.27  OA
BRANCH 23 26
ATOM     26  CA  ASN B  18     -11.257 -31.982  -6.940  1.00 70.74 LIG 0.17  C 
BRANCH 26 27
ATOM     27  CB  ASN B  18     -10.301 -33.107  -6.516  1.00 84.74 LIG 0.14  C 
BRANCH 27 28
ATOM     28  CG  ASN B  18      -9.061 -33.196  -7.415  1.00 96.34 LIG 0.22  C 
ATOM     29 OD1  ASN B  18      -9.068 -32.719  -8.560  1.00 99.44 LIG-0.27  OA
ATOM     30  ND2 ASN B  18      -7.995 -33.827  -6.907  1.00 94.73 LIG-0.37  N 
ATOM     31 21HD ASN B  18      -7.281 -33.913  -7.378  1.00 94.73 LIG 0.16  HD
ATOM     32 22HD ASN B  18      -8.024 -34.147  -6.109  1.00 94.73 LIG 0.16  HD
ENDBRANCH 27 28
ENDBRANCH 26 27
BRANCH 26 33
ATOM     33  C   ASN B  18     -12.563 -31.997  -6.109  1.00 72.97 LIG 0.22  C 
ATOM     34 O    ASN B  18     -13.364 -31.051  -6.105  1.00 74.17 LIG-0.29  OA
ENDBRANCH 26 33
ENDBRANCH 23 26
ENDBRANCH 21 22
BRANCH 21 35
ATOM     35  CB  TYR B  17     -10.518 -27.384  -7.145  1.00 54.83 LIG 0.07  C 
BRANCH 35 36
ATOM     36  CG  TYR B  17      -9.454 -26.896  -6.238  1.00 56.96 LIG-0.06  A 
ATOM     37  CD2 TYR B  17      -8.214 -26.504  -6.758  1.00 61.26 LIG 0.01  A 
ATOM     38  CE2 TYR B  17      -7.207 -26.059  -5.933  1.00 70.21 LIG 0.04  A 
ATOM     39  CZ  TYR B  17      -7.436 -26.021  -4.568  1.00 76.40 LIG 0.07  A 
ATOM     40  CE1 TYR B  17      -8.655 -26.413  -4.028  1.00 67.10 LIG 0.04  A 
ATOM     41  CD1 TYR B  17      -9.655 -26.855  -4.875  1.00 57.92 LIG 0.01  A 
BRANCH 39 42
ATOM     42 OH   TYR B  17      -6.436 -25.588  -3.748  1.00 89.25 LIG-0.36  OA
ATOM     43 HH   TYR B  17      -6.449 -24.749  -3.709  1.00 89.25 LIG 0.22  HD
ENDBRANCH 39 42
ENDBRANCH 35 36
ENDBRANCH 21 35
ENDBRANCH 19 21
ENDBRANCH 12 17
ENDBRANCH 9 12
ENDBRANCH 4 8
BRANCH 1 44
ATOM     44  CA  ARG B  14      -5.817 -28.674 -16.267  1.00 32.45 LIG 0.18  C 
BRANCH 44 45
ATOM     45  N   ARG B  14      -4.730 -28.140 -15.477  1.00 38.19 LIG-0.35  N 
ATOM     46 H    ARG B  14      -3.983 -28.548 -15.598  1.00 38.19 LIG 0.16  HD
ATOM     47  C   PRO B  13      -4.873 -27.109 -14.639  1.00 38.91 LIG 0.24  C 
ATOM     48 O    PRO B  13      -5.923 -26.519 -14.479  1.00 32.88 LIG-0.27  OA
BRANCH 47 49
ATOM     49  CA  PRO B  13      -3.603 -26.654 -13.894  1.00 38.31 LIG 0.18  C 
ATOM     50  N   PRO B  13      -3.459 -25.217 -13.799  1.00 38.88 LIG-0.34  N 
ATOM     51  CD  PRO B  13      -3.183 -24.792 -12.419  1.00 43.50 LIG 0.13  C 
ATOM     52  C   PRO B  12      -3.539 -24.375 -14.842  1.00 40.77 LIG 0.26  C 
ATOM     53  CG  PRO B  13      -2.840 -26.064 -11.723  1.00 43.53 LIG 0.02  C 
ATOM     54  CB  PRO B  13      -3.635 -27.100 -12.432  1.00 39.91 LIG 0.04  C 
ATOM     55 O    PRO B  12      -3.681 -24.749 -16.016  1.00 44.45 LIG-0.27  OA
BRANCH 52 56
ATOM     56  CA  PRO B  12      -3.450 -22.899 -14.543  1.00 38.46 LIG 0.35  C 
ATOM     57  CB  PRO B  12      -3.537 -22.121 -15.857  1.00 43.42 LIG 0.05  C 
ATOM     58  CG  PRO B  12      -2.558 -21.029 -15.720  1.00 41.12 LIG 0.04  C 
ATOM     59  CD  PRO B  12      -1.445 -21.594 -14.886  1.00 39.74 LIG 0.32  C 
ATOM     60  N   PRO B  12      -2.125 -22.594 -14.058  1.00 38.12 LIG 0.32  N 
ENDBRANCH 52 56
ENDBRANCH 47 49
ENDBRANCH 44 45
BRANCH 44 61
ATOM     61  CB  ARG B  14      -5.267 -29.819 -17.123  1.00 34.42 LIG 0.04  C 
BRANCH 61 62
ATOM     62  CG  ARG B  14      -6.320 -30.803 -17.633  1.00 32.66 LIG 0.02  C 
BRANCH 62 63
ATOM     63  CD  ARG B  14      -6.618 -30.508 -19.088  1.00 35.24 LIG 0.14  C 
BRANCH 63 64
ATOM     64  NE  ARG B  14      -7.976 -30.914 -19.490  1.00 42.22 LIG-0.23  N 
ATOM     65  CZ  ARG B  14      -8.364 -32.151 -19.809  1.00 44.72 LIG 0.67  C 
ATOM     66  NH2 ARG B  14      -7.518 -33.163 -19.811  1.00 43.48 LIG-0.23  N 
ATOM     67  NH1 ARG B  14      -9.621 -32.373 -20.147  1.00 46.51 LIG-0.23  N 
ATOM     68 1HH2 ARG B  14      -6.693 -33.035 -19.603  1.00 43.48 LIG 0.17  HD
ATOM     69 2HH2 ARG B  14      -7.792 -33.951 -20.020  1.00 43.48 LIG 0.17  HD
ATOM     70 2HH1 ARG B  14      -9.877 -33.168 -20.354  1.00 46.51 LIG 0.17  HD
ATOM     71 1HH1 ARG B  14     -10.184 -31.723 -20.161  1.00 46.51 LIG 0.17  HD
ATOM     72 HE   ARG B  14      -8.575 -30.296 -19.522  1.00 42.22 LIG 0.18  HD
ENDBRANCH 63 64
ENDBRANCH 62 63
ENDBRANCH 61 62
ENDBRANCH 44 61
ENDBRANCH 1 44
TORSDOF 22
ENDMDL
MODEL 50
USER: ADFR SOLUTION from run 64
USER: SCORE 21.727356 LL:  -5.049 LR: -18.877 RR:   0.000 FEB: -12.314
USER: RMSD 12.712859
USER: SEED 63
USER: STATUS no improvement in best in 12 clusters for 5 generations
USER: GENES 24
USER: genes 0 Translation |==|  0.61747 0.45174 0.39560
USER: genes 1 Rotation |==|  0.26631 0.07528 0.37879 0.51761
USER: genes 2 Torsion [N]-CA--C-[O] |==|  0.85406
USER: genes 3 Torsion [C]-N--CA-[CB] |==|  0.40911
USER: genes 4 Torsion [N]-CA--CB-[CG2] |==|  0.61278
USER: genes 5 Torsion [CA]-CB--CG1-[CD1] |==|  0.41555
USER: genes 6 Torsion [N]-CA--C-[N] |==|  0.69059
USER: genes 7 Torsion [C]-N--CA-[C] |==|  0.14444
USER: genes 8 Torsion [N]-CA--C-[N] |==|  0.13670
USER: genes 9 Torsion [C]-N--CA-[CB] |==|  0.19238
USER: genes 10 Torsion [N]-CA--CB-[CG] |==|  0.69500
USER: genes 11 Torsion [CA]-CB--CG-[ND2] |==|  0.51947
USER: genes 12 Torsion [N]-CA--C-[O] |==|  0.87153
USER: genes 13 Torsion [N]-CA--CB-[CG] |==|  0.61643
USER: genes 14 Torsion [CA]-CB--CG-[CD2] |==|  0.49038
USER: genes 15 Torsion [CE2]-CZ--OH-[HH] |==|  0.01640
USER: genes 16 Torsion [N]-C--CA-[N] |==|  0.33635
USER: genes 17 Torsion [C]-CA--N-[C] |==|  0.56275
USER: genes 18 Torsion [N]-C--CA-[N] |==|  0.74181
USER: genes 19 Torsion [N]-C--CA-[CB] |==|  0.64474
USER: genes 20 Torsion [C]-CA--CB-[CG] |==|  0.15271
USER: genes 21 Torsion [CA]-CB--CG-[CD] |==|  0.13782
USER: genes 22 Torsion [CB]-CG--CD-[NE] |==|  0.45667
USER: genes 23 Torsion [CG]-CD--NE-[CZ] |==|  0.40732
ROOT
ATOM      1  C   ARG B  14      -6.806 -29.551 -14.830  1.00 32.92 LIG 0.24  C 
ATOM      2 O    ARG B  14      -8.018 -29.377 -14.968  1.00 37.82 LIG-0.27  OA
ATOM      3  N   PRO B  15      -6.269 -30.132 -13.753  1.00 31.88 LIG-0.34  N 
ATOM      4  CA  PRO B  15      -7.132 -30.635 -12.682  1.00 30.79 LIG 0.18  C 
ATOM      5  CB  PRO B  15      -6.150 -31.273 -11.721  1.00 31.22 LIG 0.04  C 
ATOM      6  CG  PRO B  15      -5.039 -31.718 -12.618  1.00 29.82 LIG 0.02  C 
ATOM      7  CD  PRO B  15      -4.879 -30.587 -13.582  1.00 31.43 LIG 0.13  C 
ENDROOT
BRANCH 4 8
ATOM      8  C   PRO B  15      -7.828 -29.482 -12.004  1.00 33.68 LIG 0.24  C 
ATOM      9  N   ILE B  16      -9.146 -29.540 -11.958  1.00 35.41 LIG-0.35  N 
ATOM     10 H    ILE B  16      -9.618 -30.150 -12.339  1.00 35.41 LIG 0.16  HD
ATOM     11 O    PRO B  15      -7.185 -28.535 -11.579  1.00 34.05 LIG-0.27  OA
BRANCH 9 12
ATOM     12  CA  ILE B  16      -9.886 -28.574 -11.259  1.00 37.77 LIG 0.18  C 
BRANCH 12 13
ATOM     13  CB  ILE B  16     -11.230 -28.313 -11.919  1.00 42.27 LIG 0.01  C 
ATOM     14  CG2 ILE B  16     -11.534 -26.842 -11.893  1.00 44.80 LIG 0.01  C 
BRANCH 13 15
ATOM     15  CG1 ILE B  16     -11.188 -28.876 -13.350  1.00 47.53 LIG 0.00  C 
ATOM     16  CD1 ILE B  16     -12.518 -29.372 -13.909  1.00 51.74 LIG 0.01  C 
ENDBRANCH 13 15
ENDBRANCH 12 13
BRANCH 12 17
ATOM     17  C   ILE B  16     -10.004 -29.102  -9.865  1.00 42.33 LIG 0.24  C 
ATOM     18 O    ILE B  16      -9.056 -29.134  -9.130  1.00 39.29 LIG-0.27  OA
ATOM     19  N   TYR B  17     -11.221 -29.467  -9.508  1.00 46.96 LIG-0.35  N 
ATOM     20 H    TYR B  17     -11.870 -29.544 -10.067  1.00 46.96 LIG 0.16  HD
BRANCH 19 21
ATOM     21  CA  TYR B  17     -11.589 -29.774  -8.154  1.00 51.19 LIG 0.18  C 
BRANCH 21 22
ATOM     22  C   TYR B  17     -11.182 -28.663  -7.255  1.00 56.10 LIG 0.24  C 
ATOM     23  N   ASN B  18     -11.516 -27.438  -7.610  1.00 65.39 LIG-0.35  N 
ATOM     24 H    ASN B  18     -12.074 -27.253  -8.237  1.00 65.39 LIG 0.16  HD
ATOM     25 O    TYR B  17     -10.628 -28.918  -6.202  1.00 61.36 LIG-0.27  OA
BRANCH 23 26
ATOM     26  CA  ASN B  18     -10.941 -26.262  -6.937  1.00 70.74 LIG 0.17  C 
BRANCH 26 27
ATOM     27  CB  ASN B  18      -9.452 -26.153  -7.300  1.00 84.74 LIG 0.14  C 
BRANCH 27 28
ATOM     28  CG  ASN B  18      -8.532 -26.473  -6.115  1.00 96.34 LIG 0.22  C 
ATOM     29 OD1  ASN B  18      -8.994 -26.889  -5.042  1.00 99.44 LIG-0.27  OA
ATOM     30  ND2 ASN B  18      -7.222 -26.263  -6.299  1.00 94.73 LIG-0.37  N 
ATOM     31 21HD ASN B  18      -6.668 -26.417  -5.660  1.00 94.73 LIG 0.16  HD
ATOM     32 22HD ASN B  18      -6.935 -25.974  -7.057  1.00 94.73 LIG 0.16  HD
ENDBRANCH 27 28
ENDBRANCH 26 27
BRANCH 26 33
ATOM     33  C   ASN B  18     -11.669 -24.905  -7.091  1.00 72.97 LIG 0.22  C 
ATOM     34 O    ASN B  18     -12.074 -24.484  -8.184  1.00 74.17 LIG-0.29  OA
ENDBRANCH 26 33
ENDBRANCH 23 26
ENDBRANCH 21 22
BRANCH 21 35
ATOM     35  CB  TYR B  17     -10.810 -31.005  -7.722  1.00 54.83 LIG 0.07  C 
BRANCH 35 36
ATOM     36  CG  TYR B  17     -11.663 -31.941  -6.955  1.00 56.96 LIG-0.06  A 
ATOM     37  CD2 TYR B  17     -11.149 -33.171  -6.529  1.00 61.26 LIG 0.01  A 
ATOM     38  CE2 TYR B  17     -11.927 -34.061  -5.825  1.00 70.21 LIG 0.04  A 
ATOM     39  CZ  TYR B  17     -13.242 -33.723  -5.557  1.00 76.40 LIG 0.07  A 
ATOM     40  CE1 TYR B  17     -13.778 -32.511  -5.977  1.00 67.10 LIG 0.04  A 
ATOM     41  CD1 TYR B  17     -12.978 -31.630  -6.681  1.00 57.92 LIG 0.01  A 
BRANCH 39 42
ATOM     42 OH   TYR B  17     -14.019 -34.607  -4.867  1.00 89.25 LIG-0.36  OA
ATOM     43 HH   TYR B  17     -13.547 -35.253  -4.610  1.00 89.25 LIG 0.22  HD
ENDBRANCH 39 42
ENDBRANCH 35 36
ENDBRANCH 21 35
ENDBRANCH 19 21
ENDBRANCH 12 17
ENDBRANCH 9 12
ENDBRANCH 4 8
BRANCH 1 44
ATOM     44  CA  ARG B  14      -5.871 -29.051 -15.891  1.00 32.45 LIG 0.18  C 
BRANCH 44 45
ATOM     45  N   ARG B  14      -6.285 -29.781 -17.068  1.00 38.19 LIG-0.35  N 
ATOM     46 H    ARG B  14      -7.094 -30.071 -17.028  1.00 38.19 LIG 0.16  HD
ATOM     47  C   PRO B  13      -5.486 -29.987 -18.119  1.00 38.91 LIG 0.24  C 
ATOM     48 O    PRO B  13      -4.349 -29.564 -18.185  1.00 32.88 LIG-0.27  OA
BRANCH 47 49
ATOM     49  CA  PRO B  13      -6.098 -30.767 -19.300  1.00 38.31 LIG 0.18  C 
ATOM     50  N   PRO B  13      -5.860 -32.194 -19.248  1.00 38.88 LIG-0.34  N 
ATOM     51  CD  PRO B  13      -7.104 -32.955 -19.433  1.00 43.50 LIG 0.13  C 
ATOM     52  C   PRO B  12      -4.653 -32.758 -19.081  1.00 40.77 LIG 0.26  C 
ATOM     53  CG  PRO B  13      -8.070 -31.933 -19.926  1.00 43.53 LIG 0.02  C 
ATOM     54  CB  PRO B  13      -7.623 -30.665 -19.293  1.00 39.91 LIG 0.04  C 
ATOM     55 O    PRO B  12      -3.596 -32.111 -19.018  1.00 44.45 LIG-0.27  OA
BRANCH 52 56
ATOM     56  CA  PRO B  12      -4.606 -34.261 -18.967  1.00 38.46 LIG 0.35  C 
ATOM     57  CB  PRO B  12      -3.825 -34.638 -17.707  1.00 43.42 LIG 0.05  C 
ATOM     58  CG  PRO B  12      -3.008 -35.799 -18.098  1.00 41.12 LIG 0.04  C 
ATOM     59  CD  PRO B  12      -2.662 -35.576 -19.541  1.00 39.74 LIG 0.32  C 
ATOM     60  N   PRO B  12      -3.796 -34.792 -20.037  1.00 38.12 LIG 0.32  N 
ENDBRANCH 52 56
ENDBRANCH 47 49
ENDBRANCH 44 45
BRANCH 44 61
ATOM     61  CB  ARG B  14      -6.145 -27.562 -16.132  1.00 34.42 LIG 0.04  C 
BRANCH 61 62
ATOM     62  CG  ARG B  14      -6.071 -26.684 -14.883  1.00 32.66 LIG 0.02  C 
BRANCH 62 63
ATOM     63  CD  ARG B  14      -4.782 -26.977 -14.143  1.00 35.24 LIG 0.14  C 
BRANCH 63 64
ATOM     64  NE  ARG B  14      -4.446 -25.944 -13.146  1.00 42.22 LIG-0.23  N 
ATOM     65  CZ  ARG B  14      -3.826 -26.149 -11.982  1.00 44.72 LIG 0.67  C 
ATOM     66  NH2 ARG B  14      -3.460 -27.356 -11.595  1.00 43.48 LIG-0.23  N 
ATOM     67  NH1 ARG B  14      -3.583 -25.126 -11.184  1.00 46.51 LIG-0.23  N 
ATOM     68 1HH2 ARG B  14      -3.619 -28.036 -12.098  1.00 43.48 LIG 0.17  HD
ATOM     69 2HH2 ARG B  14      -3.061 -27.463 -10.840  1.00 43.48 LIG 0.17  HD
ATOM     70 2HH1 ARG B  14      -3.185 -25.251 -10.432  1.00 46.51 LIG 0.17  HD
ATOM     71 1HH1 ARG B  14      -3.824 -24.334 -11.415  1.00 46.51 LIG 0.17  HD
ATOM     72 HE   ARG B  14      -4.671 -25.135 -13.332  1.00 42.22 LIG 0.18  HD
ENDBRANCH 63 64
ENDBRANCH 62 63
ENDBRANCH 61 62
ENDBRANCH 44 61
ENDBRANCH 1 44
TORSDOF 22
ENDMDL
MODEL 51
USER: ADFR SOLUTION from run 170
USER: SCORE 22.589273 LL:  -5.206 LR: -18.874 RR:   0.000 FEB: -12.312
USER: RMSD 5.262647
USER: SEED 169
USER: STATUS no improvement in best in 17 clusters for 5 generations
USER: GENES 24
USER: genes 0 Translation |==|  0.46909 0.45093 0.57195
USER: genes 1 Rotation |==|  0.59998 0.44967 0.37363 0.97064
USER: genes 2 Torsion [N]-CA--C-[O] |==|  0.90195
USER: genes 3 Torsion [C]-N--CA-[CB] |==|  0.49491
USER: genes 4 Torsion [N]-CA--CB-[CG2] |==|  0.21565
USER: genes 5 Torsion [CA]-CB--CG1-[CD1] |==|  0.50159
USER: genes 6 Torsion [N]-CA--C-[N] |==|  0.47537
USER: genes 7 Torsion [C]-N--CA-[C] |==|  0.82222
USER: genes 8 Torsion [N]-CA--C-[N] |==|  0.22031
USER: genes 9 Torsion [C]-N--CA-[CB] |==|  0.18454
USER: genes 10 Torsion [N]-CA--CB-[CG] |==|  0.48983
USER: genes 11 Torsion [CA]-CB--CG-[ND2] |==|  0.64360
USER: genes 12 Torsion [N]-CA--C-[O] |==|  0.04705
USER: genes 13 Torsion [N]-CA--CB-[CG] |==|  0.91486
USER: genes 14 Torsion [CA]-CB--CG-[CD2] |==|  0.83032
USER: genes 15 Torsion [CE2]-CZ--OH-[HH] |==|  0.73348
USER: genes 16 Torsion [N]-C--CA-[N] |==|  0.44122
USER: genes 17 Torsion [C]-CA--N-[C] |==|  0.54968
USER: genes 18 Torsion [N]-C--CA-[N] |==|  0.21773
USER: genes 19 Torsion [N]-C--CA-[CB] |==|  0.77951
USER: genes 20 Torsion [C]-CA--CB-[CG] |==|  0.18299
USER: genes 21 Torsion [CA]-CB--CG-[CD] |==|  0.28773
USER: genes 22 Torsion [CB]-CG--CD-[NE] |==|  0.71696
USER: genes 23 Torsion [CG]-CD--NE-[CZ] |==|  0.23269
ROOT
ATOM      1  C   ARG B  14     -10.145 -29.566  -9.936  1.00 32.92 LIG 0.24  C 
ATOM      2 O    ARG B  14      -9.900 -30.724 -10.281  1.00 37.82 LIG-0.27  OA
ATOM      3  N   PRO B  15      -9.944 -28.510 -10.730  1.00 31.88 LIG-0.34  N 
ATOM      4  CA  PRO B  15      -9.448 -28.701 -12.096  1.00 30.79 LIG 0.18  C 
ATOM      5  CB  PRO B  15      -9.443 -27.294 -12.657  1.00 31.22 LIG 0.04  C 
ATOM      6  CG  PRO B  15     -10.554 -26.627 -11.913  1.00 29.82 LIG 0.02  C 
ATOM      7  CD  PRO B  15     -10.401 -27.127 -10.513  1.00 31.43 LIG 0.13  C 
ENDROOT
BRANCH 4 8
ATOM      8  C   PRO B  15      -8.039 -29.236 -12.057  1.00 33.68 LIG 0.24  C 
ATOM      9  N   ILE B  16      -7.731 -30.137 -12.970  1.00 35.41 LIG-0.35  N 
ATOM     10 H    ILE B  16      -8.292 -30.473 -13.530  1.00 35.41 LIG 0.16  HD
ATOM     11 O    PRO B  15      -7.265 -28.878 -11.182  1.00 34.05 LIG-0.27  OA
BRANCH 9 12
ATOM     12  CA  ILE B  16      -6.419 -30.622 -13.090  1.00 37.77 LIG 0.18  C 
BRANCH 12 13
ATOM     13  CB  ILE B  16      -6.311 -31.680 -14.176  1.00 42.27 LIG 0.01  C 
ATOM     14  CG2 ILE B  16      -6.292 -31.026 -15.528  1.00 44.80 LIG 0.01  C 
BRANCH 13 15
ATOM     15  CG1 ILE B  16      -5.047 -32.519 -13.915  1.00 47.53 LIG 0.00  C 
ATOM     16  CD1 ILE B  16      -4.766 -33.630 -14.921  1.00 51.74 LIG 0.01  C 
ENDBRANCH 13 15
ENDBRANCH 12 13
BRANCH 12 17
ATOM     17  C   ILE B  16      -5.576 -29.416 -13.353  1.00 42.33 LIG 0.24  C 
ATOM     18 O    ILE B  16      -6.072 -28.338 -13.532  1.00 39.29 LIG-0.27  OA
ATOM     19  N   TYR B  17      -4.274 -29.627 -13.318  1.00 46.96 LIG-0.35  N 
ATOM     20 H    TYR B  17      -3.927 -30.414 -13.298  1.00 46.96 LIG 0.16  HD
BRANCH 19 21
ATOM     21  CA  TYR B  17      -3.301 -28.571 -13.310  1.00 51.19 LIG 0.18  C 
BRANCH 21 22
ATOM     22  C   TYR B  17      -3.378 -27.803 -14.580  1.00 56.10 LIG 0.24  C 
ATOM     23  N   ASN B  18      -4.342 -26.910 -14.695  1.00 65.39 LIG-0.35  N 
ATOM     24 H    ASN B  18      -4.828 -26.639 -14.040  1.00 65.39 LIG 0.16  HD
ATOM     25 O    TYR B  17      -2.522 -27.965 -15.430  1.00 61.36 LIG-0.27  OA
BRANCH 23 26
ATOM     26  CA  ASN B  18      -4.663 -26.294 -15.993  1.00 70.74 LIG 0.17  C 
BRANCH 26 27
ATOM     27  CB  ASN B  18      -5.226 -27.369 -16.934  1.00 84.74 LIG 0.14  C 
BRANCH 27 28
ATOM     28  CG  ASN B  18      -5.673 -26.795 -18.285  1.00 96.34 LIG 0.22  C 
ATOM     29 OD1  ASN B  18      -4.918 -26.070 -18.951  1.00 99.44 LIG-0.27  OA
ATOM     30  ND2 ASN B  18      -6.913 -27.101 -18.687  1.00 94.73 LIG-0.37  N 
ATOM     31 21HD ASN B  18      -7.212 -26.792 -19.431  1.00 94.73 LIG 0.16  HD
ATOM     32 22HD ASN B  18      -7.411 -27.606 -18.200  1.00 94.73 LIG 0.16  HD
ENDBRANCH 27 28
ENDBRANCH 26 27
BRANCH 26 33
ATOM     33  C   ASN B  18      -5.536 -25.016 -15.996  1.00 72.97 LIG 0.22  C 
ATOM     34 O    ASN B  18      -5.716 -24.326 -14.982  1.00 74.17 LIG-0.29  OA
ENDBRANCH 26 33
ENDBRANCH 23 26
ENDBRANCH 21 22
BRANCH 21 35
ATOM     35  CB  TYR B  17      -1.920 -29.203 -13.255  1.00 54.83 LIG 0.07  C 
BRANCH 35 36
ATOM     36  CG  TYR B  17      -1.947 -30.492 -12.526  1.00 56.96 LIG-0.06  A 
ATOM     37  CD2 TYR B  17      -2.337 -30.530 -11.182  1.00 61.26 LIG 0.01  A 
ATOM     38  CE2 TYR B  17      -2.357 -31.715 -10.482  1.00 70.21 LIG 0.04  A 
ATOM     39  CZ  TYR B  17      -1.967 -32.874 -11.129  1.00 76.40 LIG 0.07  A 
ATOM     40  CE1 TYR B  17      -1.567 -32.859 -12.461  1.00 67.10 LIG 0.04  A 
ATOM     41  CD1 TYR B  17      -1.556 -31.659 -13.147  1.00 57.92 LIG 0.01  A 
BRANCH 39 42
ATOM     42 OH   TYR B  17      -1.978 -34.048 -10.435  1.00 89.25 LIG-0.36  OA
ATOM     43 HH   TYR B  17      -1.209 -34.204 -10.135  1.00 89.25 LIG 0.22  HD
ENDBRANCH 39 42
ENDBRANCH 35 36
ENDBRANCH 21 35
ENDBRANCH 19 21
ENDBRANCH 12 17
ENDBRANCH 9 12
ENDBRANCH 4 8
BRANCH 1 44
ATOM     44  CA  ARG B  14     -10.648 -29.308  -8.547  1.00 32.45 LIG 0.18  C 
BRANCH 44 45
ATOM     45  N   ARG B  14     -11.229 -30.575  -8.165  1.00 38.19 LIG-0.35  N 
ATOM     46 H    ARG B  14     -10.968 -31.236  -8.650  1.00 38.19 LIG 0.16  HD
ATOM     47  C   PRO B  13     -12.092 -30.708  -7.153  1.00 38.91 LIG 0.24  C 
ATOM     48 O    PRO B  13     -12.450 -29.780  -6.455  1.00 32.88 LIG-0.27  OA
BRANCH 47 49
ATOM     49  CA  PRO B  13     -12.595 -32.137  -6.868  1.00 38.31 LIG 0.18  C 
ATOM     50  N   PRO B  13     -11.651 -32.960  -6.142  1.00 38.88 LIG-0.34  N 
ATOM     51  CD  PRO B  13     -12.280 -33.608  -4.982  1.00 43.50 LIG 0.13  C 
ATOM     52  C   PRO B  12     -10.368 -33.135  -6.496  1.00 40.77 LIG 0.26  C 
ATOM     53  CG  PRO B  13     -13.738 -33.403  -5.215  1.00 43.53 LIG 0.02  C 
ATOM     54  CB  PRO B  13     -13.819 -32.115  -5.952  1.00 39.91 LIG 0.04  C 
ATOM     55 O    PRO B  12      -9.869 -32.659  -7.527  1.00 44.45 LIG-0.27  OA
BRANCH 52 56
ATOM     56  CA  PRO B  12      -9.507 -33.960  -5.572  1.00 38.46 LIG 0.35  C 
ATOM     57  CB  PRO B  12      -9.075 -33.092  -4.390  1.00 43.42 LIG 0.05  C 
ATOM     58  CG  PRO B  12      -7.669 -33.457  -4.142  1.00 41.12 LIG 0.04  C 
ATOM     59  CD  PRO B  12      -7.099 -33.785  -5.491  1.00 39.74 LIG 0.32  C 
ATOM     60  N   PRO B  12      -8.264 -34.271  -6.235  1.00 38.12 LIG 0.32  N 
ENDBRANCH 52 56
ENDBRANCH 47 49
ENDBRANCH 44 45
BRANCH 44 61
ATOM     61  CB  ARG B  14      -9.452 -29.035  -7.629  1.00 34.42 LIG 0.04  C 
BRANCH 61 62
ATOM     62  CG  ARG B  14      -8.681 -27.753  -7.942  1.00 32.66 LIG 0.02  C 
BRANCH 62 63
ATOM     63  CD  ARG B  14      -9.045 -26.690  -6.925  1.00 35.24 LIG 0.14  C 
BRANCH 63 64
ATOM     64  NE  ARG B  14     -10.003 -25.701  -7.448  1.00 42.22 LIG-0.23  N 
ATOM     65  CZ  ARG B  14     -11.331 -25.837  -7.485  1.00 44.72 LIG 0.67  C 
ATOM     66  NH2 ARG B  14     -11.927 -26.932  -7.054  1.00 43.48 LIG-0.23  N 
ATOM     67  NH1 ARG B  14     -12.073 -24.863  -7.979  1.00 46.51 LIG-0.23  N 
ATOM     68 1HH2 ARG B  14     -11.458 -27.581  -6.738  1.00 43.48 LIG 0.17  HD
ATOM     69 2HH2 ARG B  14     -12.784 -26.997  -7.088  1.00 43.48 LIG 0.17  HD
ATOM     70 2HH1 ARG B  14     -12.928 -24.945  -8.006  1.00 46.51 LIG 0.17  HD
ATOM     71 1HH1 ARG B  14     -11.701 -24.146  -8.274  1.00 46.51 LIG 0.17  HD
ATOM     72 HE   ARG B  14      -9.677 -24.967  -7.758  1.00 42.22 LIG 0.18  HD
ENDBRANCH 63 64
ENDBRANCH 62 63
ENDBRANCH 61 62
ENDBRANCH 44 61
ENDBRANCH 1 44
TORSDOF 22
ENDMDL
MODEL 52
USER: ADFR SOLUTION from run 126
USER: SCORE 21.690109 LL:  -4.775 LR: -18.858 RR:   0.000 FEB: -12.295
USER: RMSD 3.787213
USER: SEED 125
USER: STATUS no improvement in best in 9 clusters for 5 generations
USER: GENES 24
USER: genes 0 Translation |==|  0.47974 0.49028 0.58206
USER: genes 1 Rotation |==|  0.51071 0.50921 0.46537 0.99860
USER: genes 2 Torsion [N]-CA--C-[O] |==|  0.93394
USER: genes 3 Torsion [C]-N--CA-[CB] |==|  0.34865
USER: genes 4 Torsion [N]-CA--CB-[CG2] |==|  0.85267
USER: genes 5 Torsion [CA]-CB--CG1-[CD1] |==|  0.37181
USER: genes 6 Torsion [N]-CA--C-[N] |==|  0.57419
USER: genes 7 Torsion [C]-N--CA-[C] |==|  0.18516
USER: genes 8 Torsion [N]-CA--C-[N] |==|  0.05000
USER: genes 9 Torsion [C]-N--CA-[CB] |==|  0.15809
USER: genes 10 Torsion [N]-CA--CB-[CG] |==|  0.70024
USER: genes 11 Torsion [CA]-CB--CG-[ND2] |==|  0.89982
USER: genes 12 Torsion [N]-CA--C-[O] |==|  0.09096
USER: genes 13 Torsion [N]-CA--CB-[CG] |==|  0.75011
USER: genes 14 Torsion [CA]-CB--CG-[CD2] |==|  0.51896
USER: genes 15 Torsion [CE2]-CZ--OH-[HH] |==|  0.51927
USER: genes 16 Torsion [N]-C--CA-[N] |==|  0.43665
USER: genes 17 Torsion [C]-CA--N-[C] |==|  0.78633
USER: genes 18 Torsion [N]-C--CA-[N] |==|  0.46809
USER: genes 19 Torsion [N]-C--CA-[CB] |==|  0.57876
USER: genes 20 Torsion [C]-CA--CB-[CG] |==|  0.38615
USER: genes 21 Torsion [CA]-CB--CG-[CD] |==|  0.06203
USER: genes 22 Torsion [CB]-CG--CD-[NE] |==|  0.47202
USER: genes 23 Torsion [CG]-CD--NE-[CZ] |==|  0.57240
ROOT
ATOM      1  C   ARG B  14      -9.905 -28.828  -9.656  1.00 32.92 LIG 0.24  C 
ATOM      2 O    ARG B  14      -9.271 -29.882  -9.729  1.00 37.82 LIG-0.27  OA
ATOM      3  N   PRO B  15     -10.301 -28.138 -10.729  1.00 31.88 LIG-0.34  N 
ATOM      4  CA  PRO B  15     -10.021 -28.647 -12.075  1.00 30.79 LIG 0.18  C 
ATOM      5  CB  PRO B  15     -10.695 -27.630 -12.972  1.00 31.22 LIG 0.04  C 
ATOM      6  CG  PRO B  15     -11.832 -27.137 -12.134  1.00 29.82 LIG 0.02  C 
ATOM      7  CD  PRO B  15     -11.240 -27.005 -10.768  1.00 31.43 LIG 0.13  C 
ENDROOT
BRANCH 4 8
ATOM      8  C   PRO B  15      -8.535 -28.637 -12.325  1.00 33.68 LIG 0.24  C 
ATOM      9  N   ILE B  16      -8.083 -29.519 -13.196  1.00 35.41 LIG-0.35  N 
ATOM     10 H    ILE B  16      -8.568 -30.123 -13.571  1.00 35.41 LIG 0.16  HD
ATOM     11 O    PRO B  15      -7.807 -27.881 -11.700  1.00 34.05 LIG-0.27  OA
BRANCH 9 12
ATOM     12  CA  ILE B  16      -6.733 -29.525 -13.582  1.00 37.77 LIG 0.18  C 
BRANCH 12 13
ATOM     13  CB  ILE B  16      -6.098 -30.890 -13.373  1.00 42.27 LIG 0.01  C 
ATOM     14  CG2 ILE B  16      -6.322 -31.348 -11.960  1.00 44.80 LIG 0.01  C 
BRANCH 13 15
ATOM     15  CG1 ILE B  16      -6.690 -31.866 -14.405  1.00 47.53 LIG 0.00  C 
ATOM     16  CD1 ILE B  16      -5.686 -32.749 -15.138  1.00 51.74 LIG 0.01  C 
ENDBRANCH 13 15
ENDBRANCH 12 13
BRANCH 12 17
ATOM     17  C   ILE B  16      -6.729 -29.082 -15.010  1.00 42.33 LIG 0.24  C 
ATOM     18 O    ILE B  16      -7.574 -28.345 -15.434  1.00 39.29 LIG-0.27  OA
ATOM     19  N   TYR B  17      -5.711 -29.520 -15.726  1.00 46.96 LIG-0.35  N 
ATOM     20 H    TYR B  17      -5.171 -30.130 -15.451  1.00 46.96 LIG 0.16  HD
BRANCH 19 21
ATOM     21  CA  TYR B  17      -5.396 -29.025 -17.037  1.00 51.19 LIG 0.18  C 
BRANCH 21 22
ATOM     22  C   TYR B  17      -4.964 -27.605 -16.952  1.00 56.10 LIG 0.24  C 
ATOM     23  N   ASN B  18      -4.587 -27.153 -15.772  1.00 65.39 LIG-0.35  N 
ATOM     24 H    ASN B  18      -4.432 -27.653 -15.091  1.00 65.39 LIG 0.16  HD
ATOM     25 O    TYR B  17      -4.903 -26.937 -17.967  1.00 61.36 LIG-0.27  OA
BRANCH 23 26
ATOM     26  CA  ASN B  18      -4.397 -25.713 -15.530  1.00 70.74 LIG 0.17  C 
BRANCH 26 27
ATOM     27  CB  ASN B  18      -5.701 -24.971 -15.863  1.00 84.74 LIG 0.14  C 
BRANCH 27 28
ATOM     28  CG  ASN B  18      -5.598 -24.150 -17.154  1.00 96.34 LIG 0.22  C 
ATOM     29 OD1  ASN B  18      -6.561 -24.058 -17.931  1.00 99.44 LIG-0.27  OA
ATOM     30  ND2 ASN B  18      -4.419 -23.563 -17.399  1.00 94.73 LIG-0.37  N 
ATOM     31 21HD ASN B  18      -4.310 -23.102 -18.116  1.00 94.73 LIG 0.16  HD
ATOM     32 22HD ASN B  18      -3.772 -23.647 -16.839  1.00 94.73 LIG 0.16  HD
ENDBRANCH 27 28
ENDBRANCH 26 27
BRANCH 26 33
ATOM     33  C   ASN B  18      -3.822 -25.274 -14.162  1.00 72.97 LIG 0.22  C 
ATOM     34 O    ASN B  18      -3.004 -25.958 -13.529  1.00 74.17 LIG-0.29  OA
ENDBRANCH 26 33
ENDBRANCH 23 26
ENDBRANCH 21 22
BRANCH 21 35
ATOM     35  CB  TYR B  17      -6.667 -29.055 -17.869  1.00 54.83 LIG 0.07  C 
BRANCH 35 36
ATOM     36  CG  TYR B  17      -6.819 -30.348 -18.574  1.00 56.96 LIG-0.06  A 
ATOM     37  CD2 TYR B  17      -7.850 -30.524 -19.505  1.00 61.26 LIG 0.01  A 
ATOM     38  CE2 TYR B  17      -8.017 -31.721 -20.162  1.00 70.21 LIG 0.04  A 
ATOM     39  CZ  TYR B  17      -7.151 -32.762 -19.875  1.00 76.40 LIG 0.07  A 
ATOM     40  CE1 TYR B  17      -6.125 -32.614 -18.949  1.00 67.10 LIG 0.04  A 
ATOM     41  CD1 TYR B  17      -5.973 -31.402 -18.301  1.00 57.92 LIG 0.01  A 
BRANCH 39 42
ATOM     42 OH   TYR B  17      -7.320 -33.952 -20.520  1.00 89.25 LIG-0.36  OA
ATOM     43 HH   TYR B  17      -6.799 -34.524 -20.193  1.00 89.25 LIG 0.22  HD
ENDBRANCH 39 42
ENDBRANCH 35 36
ENDBRANCH 21 35
ENDBRANCH 19 21
ENDBRANCH 12 17
ENDBRANCH 9 12
ENDBRANCH 4 8
BRANCH 1 44
ATOM     44  CA  ARG B  14     -10.215 -28.254  -8.305  1.00 32.45 LIG 0.18  C 
BRANCH 44 45
ATOM     45  N   ARG B  14     -10.184 -29.411  -7.439  1.00 38.19 LIG-0.35  N 
ATOM     46 H    ARG B  14      -9.467 -29.472  -6.968  1.00 38.19 LIG 0.16  HD
ATOM     47  C   PRO B  13     -11.177 -30.303  -7.376  1.00 38.91 LIG 0.24  C 
ATOM     48 O    PRO B  13     -12.199 -30.212  -8.026  1.00 32.88 LIG-0.27  OA
BRANCH 47 49
ATOM     49  CA  PRO B  13     -10.989 -31.465  -6.380  1.00 38.31 LIG 0.18  C 
ATOM     50  N   PRO B  13     -12.186 -32.248  -6.156  1.00 38.88 LIG-0.34  N 
ATOM     51  CD  PRO B  13     -11.925 -33.687  -6.304  1.00 43.50 LIG 0.13  C 
ATOM     52  C   PRO B  12     -13.381 -31.732  -5.827  1.00 40.77 LIG 0.26  C 
ATOM     53  CG  PRO B  13     -10.437 -33.774  -6.310  1.00 43.53 LIG 0.02  C 
ATOM     54  CB  PRO B  13      -9.993 -32.492  -6.917  1.00 39.91 LIG 0.04  C 
ATOM     55 O    PRO B  12     -13.572 -30.525  -5.614  1.00 44.45 LIG-0.27  OA
BRANCH 52 56
ATOM     56  CA  PRO B  12     -14.538 -32.692  -5.717  1.00 38.46 LIG 0.35  C 
ATOM     57  CB  PRO B  12     -15.834 -31.948  -6.043  1.00 43.42 LIG 0.05  C 
ATOM     58  CG  PRO B  12     -16.821 -32.459  -5.076  1.00 41.12 LIG 0.04  C 
ATOM     59  CD  PRO B  12     -16.042 -32.749  -3.827  1.00 39.74 LIG 0.32  C 
ATOM     60  N   PRO B  12     -14.707 -33.074  -4.335  1.00 38.12 LIG 0.32  N 
ENDBRANCH 52 56
ENDBRANCH 47 49
ENDBRANCH 44 45
BRANCH 44 61
ATOM     61  CB  ARG B  14      -9.075 -27.318  -7.890  1.00 34.42 LIG 0.04  C 
BRANCH 61 62
ATOM     62  CG  ARG B  14      -9.522 -26.023  -7.212  1.00 32.66 LIG 0.02  C 
BRANCH 62 63
ATOM     63  CD  ARG B  14     -10.907 -26.217  -6.628  1.00 35.24 LIG 0.14  C 
BRANCH 63 64
ATOM     64  NE  ARG B  14     -11.323 -25.106  -5.755  1.00 42.22 LIG-0.23  N 
ATOM     65  CZ  ARG B  14     -12.202 -25.181  -4.753  1.00 44.72 LIG 0.67  C 
ATOM     66  NH2 ARG B  14     -12.820 -26.308  -4.457  1.00 43.48 LIG-0.23  N 
ATOM     67  NH1 ARG B  14     -12.478 -24.101  -4.046  1.00 46.51 LIG-0.23  N 
ATOM     68 1HH2 ARG B  14     -12.660 -27.019  -4.914  1.00 43.48 LIG 0.17  HD
ATOM     69 2HH2 ARG B  14     -13.383 -26.332  -3.807  1.00 43.48 LIG 0.17  HD
ATOM     70 2HH1 ARG B  14     -13.044 -24.143  -3.400  1.00 46.51 LIG 0.17  HD
ATOM     71 1HH1 ARG B  14     -12.093 -23.355  -4.231  1.00 46.51 LIG 0.17  HD
ATOM     72 HE   ARG B  14     -10.966 -24.337  -5.904  1.00 42.22 LIG 0.18  HD
ENDBRANCH 63 64
ENDBRANCH 62 63
ENDBRANCH 61 62
ENDBRANCH 44 61
ENDBRANCH 1 44
TORSDOF 22
ENDMDL
MODEL 53
USER: ADFR SOLUTION from run 48
USER: SCORE 22.852444 LL:  -5.029 LR: -18.849 RR:   0.000 FEB: -12.287
USER: RMSD 12.716690
USER: SEED 47
USER: STATUS no improvement in best in 9 clusters for 5 generations
USER: GENES 24
USER: genes 0 Translation |==|  0.62029 0.46639 0.38452
USER: genes 1 Rotation |==|  0.25930 0.08030 0.37525 0.51866
USER: genes 2 Torsion [N]-CA--C-[O] |==|  0.80591
USER: genes 3 Torsion [C]-N--CA-[CB] |==|  0.48413
USER: genes 4 Torsion [N]-CA--CB-[CG2] |==|  0.07306
USER: genes 5 Torsion [CA]-CB--CG1-[CD1] |==|  0.22842
USER: genes 6 Torsion [N]-CA--C-[N] |==|  0.38985
USER: genes 7 Torsion [C]-N--CA-[C] |==|  0.82090
USER: genes 8 Torsion [N]-CA--C-[N] |==|  0.43560
USER: genes 9 Torsion [C]-N--CA-[CB] |==|  0.79532
USER: genes 10 Torsion [N]-CA--CB-[CG] |==|  0.66096
USER: genes 11 Torsion [CA]-CB--CG-[ND2] |==|  0.58288
USER: genes 12 Torsion [N]-CA--C-[O] |==|  0.79369
USER: genes 13 Torsion [N]-CA--CB-[CG] |==|  0.31082
USER: genes 14 Torsion [CA]-CB--CG-[CD2] |==|  0.76344
USER: genes 15 Torsion [CE2]-CZ--OH-[HH] |==|  0.84491
USER: genes 16 Torsion [N]-C--CA-[N] |==|  0.35136
USER: genes 17 Torsion [C]-CA--N-[C] |==|  0.70907
USER: genes 18 Torsion [N]-C--CA-[N] |==|  0.56445
USER: genes 19 Torsion [N]-C--CA-[CB] |==|  0.66827
USER: genes 20 Torsion [C]-CA--CB-[CG] |==|  0.26903
USER: genes 21 Torsion [CA]-CB--CG-[CD] |==|  0.86386
USER: genes 22 Torsion [CB]-CG--CD-[NE] |==|  0.58690
USER: genes 23 Torsion [CG]-CD--NE-[CZ] |==|  0.57931
ROOT
ATOM      1  C   ARG B  14      -6.743 -29.276 -15.138  1.00 32.92 LIG 0.24  C 
ATOM      2 O    ARG B  14      -7.949 -29.061 -15.266  1.00 37.82 LIG-0.27  OA
ATOM      3  N   PRO B  15      -6.220 -29.893 -14.074  1.00 31.88 LIG-0.34  N 
ATOM      4  CA  PRO B  15      -7.095 -30.388 -13.008  1.00 30.79 LIG 0.18  C 
ATOM      5  CB  PRO B  15      -6.130 -31.074 -12.063  1.00 31.22 LIG 0.04  C 
ATOM      6  CG  PRO B  15      -5.038 -31.539 -12.973  1.00 29.82 LIG 0.02  C 
ATOM      7  CD  PRO B  15      -4.845 -30.397 -13.917  1.00 31.43 LIG 0.13  C 
ENDROOT
BRANCH 4 8
ATOM      8  C   PRO B  15      -7.751 -29.225 -12.306  1.00 33.68 LIG 0.24  C 
ATOM      9  N   ILE B  16      -9.034 -29.043 -12.550  1.00 35.41 LIG-0.35  N 
ATOM     10 H    ILE B  16      -9.489 -29.500 -13.120  1.00 35.41 LIG 0.16  HD
ATOM     11 O    PRO B  15      -7.091 -28.477 -11.599  1.00 34.05 LIG-0.27  OA
BRANCH 9 12
ATOM     12  CA  ILE B  16      -9.765 -28.057 -11.868  1.00 37.77 LIG 0.18  C 
BRANCH 12 13
ATOM     13  CB  ILE B  16     -11.181 -27.936 -12.409  1.00 42.27 LIG 0.01  C 
ATOM     14  CG2 ILE B  16     -11.609 -29.241 -13.017  1.00 44.80 LIG 0.01  C 
BRANCH 13 15
ATOM     15  CG1 ILE B  16     -12.105 -27.496 -11.259  1.00 47.53 LIG 0.00  C 
ATOM     16  CD1 ILE B  16     -12.127 -26.000 -10.961  1.00 51.74 LIG 0.01  C 
ENDBRANCH 13 15
ENDBRANCH 12 13
BRANCH 12 17
ATOM     17  C   ILE B  16      -9.713 -28.454 -10.428  1.00 42.33 LIG 0.24  C 
ATOM     18 O    ILE B  16      -9.759 -29.606 -10.099  1.00 39.29 LIG-0.27  OA
ATOM     19  N   TYR B  17      -9.562 -27.454  -9.579  1.00 46.96 LIG-0.35  N 
ATOM     20 H    TYR B  17      -9.638 -26.629  -9.809  1.00 46.96 LIG 0.16  HD
BRANCH 19 21
ATOM     21  CA  TYR B  17      -9.255 -27.637  -8.188  1.00 51.19 LIG 0.18  C 
BRANCH 21 22
ATOM     22  C   TYR B  17     -10.378 -28.338  -7.511  1.00 56.10 LIG 0.24  C 
ATOM     23  N   ASN B  18     -10.106 -28.994  -6.400  1.00 65.39 LIG-0.35  N 
ATOM     24 H    ASN B  18      -9.368 -28.920  -5.965  1.00 65.39 LIG 0.16  HD
ATOM     25 O    TYR B  17     -11.507 -28.227  -7.954  1.00 61.36 LIG-0.27  OA
BRANCH 23 26
ATOM     26  CA  ASN B  18     -11.077 -29.927  -5.805  1.00 70.74 LIG 0.17  C 
BRANCH 26 27
ATOM     27  CB  ASN B  18     -12.214 -29.123  -5.156  1.00 84.74 LIG 0.14  C 
BRANCH 27 28
ATOM     28  CG  ASN B  18     -12.372 -29.429  -3.661  1.00 96.34 LIG 0.22  C 
ATOM     29 OD1  ASN B  18     -11.401 -29.784  -2.975  1.00 99.44 LIG-0.27  OA
ATOM     30  ND2 ASN B  18     -13.605 -29.312  -3.152  1.00 94.73 LIG-0.37  N 
ATOM     31 21HD ASN B  18     -13.746 -29.484  -2.322  1.00 94.73 LIG 0.16  HD
ATOM     32 22HD ASN B  18     -14.257 -29.064  -3.656  1.00 94.73 LIG 0.16  HD
ENDBRANCH 27 28
ENDBRANCH 26 27
BRANCH 26 33
ATOM     33  C   ASN B  18     -11.619 -31.075  -6.689  1.00 72.97 LIG 0.22  C 
ATOM     34 O    ASN B  18     -12.449 -30.891  -7.591  1.00 74.17 LIG-0.29  OA
ENDBRANCH 26 33
ENDBRANCH 23 26
ENDBRANCH 21 22
BRANCH 21 35
ATOM     35  CB  TYR B  17      -9.137 -26.264  -7.548  1.00 54.83 LIG 0.07  C 
BRANCH 35 36
ATOM     36  CG  TYR B  17     -10.243 -26.017  -6.595  1.00 56.96 LIG-0.06  A 
ATOM     37  CD2 TYR B  17     -11.468 -25.520  -7.055  1.00 61.26 LIG 0.01  A 
ATOM     38  CE2 TYR B  17     -12.505 -25.271  -6.185  1.00 70.21 LIG 0.04  A 
ATOM     39  CZ  TYR B  17     -12.310 -25.508  -4.836  1.00 76.40 LIG 0.07  A 
ATOM     40  CE1 TYR B  17     -11.099 -25.993  -4.355  1.00 67.10 LIG 0.04  A 
ATOM     41  CD1 TYR B  17     -10.071 -26.238  -5.246  1.00 57.92 LIG 0.01  A 
BRANCH 39 42
ATOM     42 OH   TYR B  17     -13.333 -25.254  -3.971  1.00 89.25 LIG-0.36  OA
ATOM     43 HH   TYR B  17     -13.582 -24.457  -4.057  1.00 89.25 LIG 0.22  HD
ENDBRANCH 39 42
ENDBRANCH 35 36
ENDBRANCH 21 35
ENDBRANCH 19 21
ENDBRANCH 12 17
ENDBRANCH 9 12
ENDBRANCH 4 8
BRANCH 1 44
ATOM     44  CA  ARG B  14      -5.797 -28.787 -16.194  1.00 32.45 LIG 0.18  C 
BRANCH 44 45
ATOM     45  N   ARG B  14      -6.318 -29.379 -17.405  1.00 38.19 LIG-0.35  N 
ATOM     46 H    ARG B  14      -7.029 -28.995 -17.699  1.00 38.19 LIG 0.16  HD
ATOM     47  C   PRO B  13      -5.750 -30.426 -18.011  1.00 38.91 LIG 0.24  C 
ATOM     48 O    PRO B  13      -4.737 -30.961 -17.608  1.00 32.88 LIG-0.27  OA
BRANCH 47 49
ATOM     49  CA  PRO B  13      -6.426 -30.915 -19.308  1.00 38.31 LIG 0.18  C 
ATOM     50  N   PRO B  13      -6.143 -32.296 -19.634  1.00 38.88 LIG-0.34  N 
ATOM     51  CD  PRO B  13      -7.375 -33.045 -19.923  1.00 43.50 LIG 0.13  C 
ATOM     52  C   PRO B  12      -4.911 -32.825 -19.695  1.00 40.77 LIG 0.26  C 
ATOM     53  CG  PRO B  13      -8.405 -31.979 -20.076  1.00 43.53 LIG 0.02  C 
ATOM     54  CB  PRO B  13      -7.949 -30.890 -19.175  1.00 39.91 LIG 0.04  C 
ATOM     55 O    PRO B  12      -3.872 -32.165 -19.540  1.00 44.45 LIG-0.27  OA
BRANCH 52 56
ATOM     56  CA  PRO B  12      -4.811 -34.305 -19.967  1.00 38.46 LIG 0.35  C 
ATOM     57  CB  PRO B  12      -4.107 -34.980 -18.788  1.00 43.42 LIG 0.05  C 
ATOM     58  CG  PRO B  12      -3.217 -35.983 -19.399  1.00 41.12 LIG 0.04  C 
ATOM     59  CD  PRO B  12      -2.780 -35.386 -20.704  1.00 39.74 LIG 0.32  C 
ATOM     60  N   PRO B  12      -3.906 -34.524 -21.070  1.00 38.12 LIG 0.32  N 
ENDBRANCH 52 56
ENDBRANCH 47 49
ENDBRANCH 44 45
BRANCH 44 61
ATOM     61  CB  ARG B  14      -5.927 -27.265 -16.312  1.00 34.42 LIG 0.04  C 
BRANCH 61 62
ATOM     62  CG  ARG B  14      -4.885 -26.468 -15.528  1.00 32.66 LIG 0.02  C 
BRANCH 62 63
ATOM     63  CD  ARG B  14      -4.814 -26.998 -14.110  1.00 35.24 LIG 0.14  C 
BRANCH 63 64
ATOM     64  NE  ARG B  14      -4.466 -25.957 -13.126  1.00 42.22 LIG-0.23  N 
ATOM     65  CZ  ARG B  14      -3.827 -26.152 -11.970  1.00 44.72 LIG 0.67  C 
ATOM     66  NH2 ARG B  14      -3.449 -27.355 -11.582  1.00 43.48 LIG-0.23  N 
ATOM     67  NH1 ARG B  14      -3.575 -25.122 -11.183  1.00 46.51 LIG-0.23  N 
ATOM     68 1HH2 ARG B  14      -3.614 -28.038 -12.077  1.00 43.48 LIG 0.17  HD
ATOM     69 2HH2 ARG B  14      -3.038 -27.455 -10.833  1.00 43.48 LIG 0.17  HD
ATOM     70 2HH1 ARG B  14      -3.164 -25.242 -10.437  1.00 46.51 LIG 0.17  HD
ATOM     71 1HH1 ARG B  14      -3.823 -24.333 -11.415  1.00 46.51 LIG 0.17  HD
ATOM     72 HE   ARG B  14      -4.697 -25.150 -13.313  1.00 42.22 LIG 0.18  HD
ENDBRANCH 63 64
ENDBRANCH 62 63
ENDBRANCH 61 62
ENDBRANCH 44 61
ENDBRANCH 1 44
TORSDOF 22
ENDMDL
MODEL 54
USER: ADFR SOLUTION from run 29
USER: SCORE 22.000172 LL:  -5.042 LR: -18.837 RR:   0.000 FEB: -12.274
USER: RMSD 13.000393
USER: SEED 28
USER: STATUS no improvement in best in 17 clusters for 5 generations
USER: GENES 24
USER: genes 0 Translation |==|  0.58806 0.45623 0.40312
USER: genes 1 Rotation |==|  0.25068 0.08330 0.39304 0.55255
USER: genes 2 Torsion [N]-CA--C-[O] |==|  0.82423
USER: genes 3 Torsion [C]-N--CA-[CB] |==|  0.40355
USER: genes 4 Torsion [N]-CA--CB-[CG2] |==|  0.58883
USER: genes 5 Torsion [CA]-CB--CG1-[CD1] |==|  0.32401
USER: genes 6 Torsion [N]-CA--C-[N] |==|  0.70757
USER: genes 7 Torsion [C]-N--CA-[C] |==|  0.17566
USER: genes 8 Torsion [N]-CA--C-[N] |==|  0.07244
USER: genes 9 Torsion [C]-N--CA-[CB] |==|  0.14517
USER: genes 10 Torsion [N]-CA--CB-[CG] |==|  0.21723
USER: genes 11 Torsion [CA]-CB--CG-[ND2] |==|  0.42441
USER: genes 12 Torsion [N]-CA--C-[O] |==|  0.05796
USER: genes 13 Torsion [N]-CA--CB-[CG] |==|  0.61276
USER: genes 14 Torsion [CA]-CB--CG-[CD2] |==|  0.47946
USER: genes 15 Torsion [CE2]-CZ--OH-[HH] |==|  0.03323
USER: genes 16 Torsion [N]-C--CA-[N] |==|  0.88649
USER: genes 17 Torsion [C]-CA--N-[C] |==|  0.81437
USER: genes 18 Torsion [N]-C--CA-[N] |==|  0.37154
USER: genes 19 Torsion [N]-C--CA-[CB] |==|  0.49289
USER: genes 20 Torsion [C]-CA--CB-[CG] |==|  0.37234
USER: genes 21 Torsion [CA]-CB--CG-[CD] |==|  0.56857
USER: genes 22 Torsion [CB]-CG--CD-[NE] |==|  0.31799
USER: genes 23 Torsion [CG]-CD--NE-[CZ] |==|  0.53161
ROOT
ATOM      1  C   ARG B  14      -7.468 -29.467 -14.621  1.00 32.92 LIG 0.24  C 
ATOM      2 O    ARG B  14      -8.680 -29.253 -14.558  1.00 37.82 LIG-0.27  OA
ATOM      3  N   PRO B  15      -6.784 -30.090 -13.658  1.00 31.88 LIG-0.34  N 
ATOM      4  CA  PRO B  15      -7.481 -30.594 -12.471  1.00 30.79 LIG 0.18  C 
ATOM      5  CB  PRO B  15      -6.379 -31.285 -11.694  1.00 31.22 LIG 0.04  C 
ATOM      6  CG  PRO B  15      -5.442 -31.741 -12.767  1.00 29.82 LIG 0.02  C 
ATOM      7  CD  PRO B  15      -5.401 -30.592 -13.722  1.00 31.43 LIG 0.13  C 
ENDROOT
BRANCH 4 8
ATOM      8  C   PRO B  15      -8.020 -29.438 -11.667  1.00 33.68 LIG 0.24  C 
ATOM      9  N   ILE B  16      -9.333 -29.337 -11.595  1.00 35.41 LIG-0.35  N 
ATOM     10 H    ILE B  16      -9.883 -29.843 -12.023  1.00 35.41 LIG 0.16  HD
ATOM     11 O    PRO B  15      -7.258 -28.624 -11.166  1.00 34.05 LIG-0.27  OA
BRANCH 9 12
ATOM     12  CA  ILE B  16      -9.938 -28.362 -10.787  1.00 37.77 LIG 0.18  C 
BRANCH 12 13
ATOM     13  CB  ILE B  16     -11.222 -27.837 -11.409  1.00 42.27 LIG 0.01  C 
ATOM     14  CG2 ILE B  16     -11.420 -26.396 -11.034  1.00 44.80 LIG 0.01  C 
BRANCH 13 15
ATOM     15  CG1 ILE B  16     -11.143 -28.039 -12.933  1.00 47.53 LIG 0.00  C 
ATOM     16  CD1 ILE B  16     -12.179 -28.983 -13.533  1.00 51.74 LIG 0.01  C 
ENDBRANCH 13 15
ENDBRANCH 12 13
BRANCH 12 17
ATOM     17  C   ILE B  16     -10.151 -29.024  -9.463  1.00 42.33 LIG 0.24  C 
ATOM     18 O    ILE B  16      -9.244 -29.178  -8.693  1.00 39.29 LIG-0.27  OA
ATOM     19  N   TYR B  17     -11.399 -29.365  -9.204  1.00 46.96 LIG-0.35  N 
ATOM     20 H    TYR B  17     -12.021 -29.352  -9.797  1.00 46.96 LIG 0.16  HD
BRANCH 19 21
ATOM     21  CA  TYR B  17     -11.850 -29.792  -7.909  1.00 51.19 LIG 0.18  C 
BRANCH 21 22
ATOM     22  C   TYR B  17     -11.686 -28.687  -6.927  1.00 56.10 LIG 0.24  C 
ATOM     23  N   ASN B  18     -11.700 -27.453  -7.390  1.00 65.39 LIG-0.35  N 
ATOM     24 H    ASN B  18     -11.944 -27.240  -8.187  1.00 65.39 LIG 0.16  HD
ATOM     25 O    TYR B  17     -11.619 -28.948  -5.740  1.00 61.36 LIG-0.27  OA
BRANCH 23 26
ATOM     26  CA  ASN B  18     -11.287 -26.316  -6.552  1.00 70.74 LIG 0.17  C 
BRANCH 26 27
ATOM     27  CB  ASN B  18      -9.901 -26.609  -5.956  1.00 84.74 LIG 0.14  C 
BRANCH 27 28
ATOM     28  CG  ASN B  18      -8.767 -26.382  -6.964  1.00 96.34 LIG 0.22  C 
ATOM     29 OD1  ASN B  18      -8.960 -26.514  -8.182  1.00 99.44 LIG-0.27  OA
ATOM     30  ND2 ASN B  18      -7.571 -26.057  -6.458  1.00 94.73 LIG-0.37  N 
ATOM     31 21HD ASN B  18      -6.902 -25.931  -6.983  1.00 94.73 LIG 0.16  HD
ATOM     32 22HD ASN B  18      -7.471 -25.973  -5.607  1.00 94.73 LIG 0.16  HD
ENDBRANCH 27 28
ENDBRANCH 26 27
BRANCH 26 33
ATOM     33  C   ASN B  18     -11.359 -24.896  -7.162  1.00 72.97 LIG 0.22  C 
ATOM     34 O    ASN B  18     -12.074 -24.623  -8.138  1.00 74.17 LIG-0.29  OA
ENDBRANCH 26 33
ENDBRANCH 23 26
ENDBRANCH 21 22
BRANCH 21 35
ATOM     35  CB  TYR B  17     -10.954 -30.931  -7.451  1.00 54.83 LIG 0.07  C 
BRANCH 35 36
ATOM     36  CG  TYR B  17     -11.737 -31.997  -6.786  1.00 56.96 LIG-0.06  A 
ATOM     37  CD2 TYR B  17     -11.121 -33.203  -6.430  1.00 61.26 LIG 0.01  A 
ATOM     38  CE2 TYR B  17     -11.832 -34.212  -5.822  1.00 70.21 LIG 0.04  A 
ATOM     39  CZ  TYR B  17     -13.181 -34.020  -5.581  1.00 76.40 LIG 0.07  A 
ATOM     40  CE1 TYR B  17     -13.817 -32.835  -5.933  1.00 67.10 LIG 0.04  A 
ATOM     41  CD1 TYR B  17     -13.083 -31.832  -6.541  1.00 57.92 LIG 0.01  A 
BRANCH 39 42
ATOM     42 OH   TYR B  17     -13.890 -35.022  -4.986  1.00 89.25 LIG-0.36  OA
ATOM     43 HH   TYR B  17     -13.360 -35.599  -4.685  1.00 89.25 LIG 0.22  HD
ENDBRANCH 39 42
ENDBRANCH 35 36
ENDBRANCH 21 35
ENDBRANCH 19 21
ENDBRANCH 12 17
ENDBRANCH 9 12
ENDBRANCH 4 8
BRANCH 1 44
ATOM     44  CA  ARG B  14      -6.699 -28.968 -15.809  1.00 32.45 LIG 0.18  C 
BRANCH 44 45
ATOM     45  N   ARG B  14      -5.494 -28.428 -15.221  1.00 38.19 LIG-0.35  N 
ATOM     46 H    ARG B  14      -4.783 -28.867 -15.426  1.00 38.19 LIG 0.16  HD
ATOM     47  C   PRO B  13      -5.486 -27.349 -14.433  1.00 38.91 LIG 0.24  C 
ATOM     48 O    PRO B  13      -6.485 -26.717 -14.156  1.00 32.88 LIG-0.27  OA
BRANCH 47 49
ATOM     49  CA  PRO B  13      -4.107 -26.896 -13.910  1.00 38.31 LIG 0.18  C 
ATOM     50  N   PRO B  13      -3.872 -25.473 -14.030  1.00 38.88 LIG-0.34  N 
ATOM     51  CD  PRO B  13      -3.400 -24.896 -12.762  1.00 43.50 LIG 0.13  C 
ATOM     52  C   PRO B  12      -4.034 -24.768 -15.161  1.00 40.77 LIG 0.26  C 
ATOM     53  CG  PRO B  13      -3.046 -26.091 -11.945  1.00 43.53 LIG 0.02  C 
ATOM     54  CB  PRO B  13      -3.981 -27.149 -12.408  1.00 39.91 LIG 0.04  C 
ATOM     55 O    PRO B  12      -4.344 -25.278 -16.248  1.00 44.45 LIG-0.27  OA
BRANCH 52 56
ATOM     56  CA  PRO B  12      -3.824 -23.277 -15.078  1.00 38.46 LIG 0.35  C 
ATOM     57  CB  PRO B  12      -3.992 -22.674 -16.474  1.00 43.42 LIG 0.05  C 
ATOM     58  CG  PRO B  12      -2.938 -21.651 -16.577  1.00 41.12 LIG 0.04  C 
ATOM     59  CD  PRO B  12      -1.786 -22.183 -15.775  1.00 39.74 LIG 0.32  C 
ATOM     60  N   PRO B  12      -2.442 -23.011 -14.760  1.00 38.12 LIG 0.32  N 
ENDBRANCH 52 56
ENDBRANCH 47 49
ENDBRANCH 44 45
BRANCH 44 61
ATOM     61  CB  ARG B  14      -6.309 -30.163 -16.685  1.00 34.42 LIG 0.04  C 
BRANCH 61 62
ATOM     62  CG  ARG B  14      -6.558 -29.972 -18.181  1.00 32.66 LIG 0.02  C 
BRANCH 62 63
ATOM     63  CD  ARG B  14      -6.726 -31.328 -18.837  1.00 35.24 LIG 0.14  C 
BRANCH 63 64
ATOM     64  NE  ARG B  14      -8.081 -31.542 -19.374  1.00 42.22 LIG-0.23  N 
ATOM     65  CZ  ARG B  14      -8.580 -32.702 -19.808  1.00 44.72 LIG 0.67  C 
ATOM     66  NH2 ARG B  14      -7.860 -33.807 -19.812  1.00 43.48 LIG-0.23  N 
ATOM     67  NH1 ARG B  14      -9.819 -32.749 -20.261  1.00 46.51 LIG-0.23  N 
ATOM     68 1HH2 ARG B  14      -7.047 -33.792 -19.529  1.00 43.48 LIG 0.17  HD
ATOM     69 2HH2 ARG B  14      -8.203 -34.543 -20.096  1.00 43.48 LIG 0.17  HD
ATOM     70 2HH1 ARG B  14     -10.146 -33.494 -20.543  1.00 46.51 LIG 0.17  HD
ATOM     71 1HH1 ARG B  14     -10.299 -32.037 -20.276  1.00 46.51 LIG 0.17  HD
ATOM     72 HE   ARG B  14      -8.599 -30.856 -19.412  1.00 42.22 LIG 0.18  HD
ENDBRANCH 63 64
ENDBRANCH 62 63
ENDBRANCH 61 62
ENDBRANCH 44 61
ENDBRANCH 1 44
TORSDOF 22
ENDMDL
MODEL 55
USER: ADFR SOLUTION from run 97
USER: SCORE 22.771172 LL:  -4.632 LR: -18.831 RR:   0.000 FEB: -12.268
USER: RMSD 12.378592
USER: SEED 96
USER: STATUS no improvement in best in 9 clusters for 5 generations
USER: GENES 24
USER: genes 0 Translation |==|  0.64641 0.39848 0.40008
USER: genes 1 Rotation |==|  0.67587 0.94831 0.55632 0.62213
USER: genes 2 Torsion [N]-CA--C-[O] |==|  0.08503
USER: genes 3 Torsion [C]-N--CA-[CB] |==|  0.16184
USER: genes 4 Torsion [N]-CA--CB-[CG2] |==|  0.16670
USER: genes 5 Torsion [CA]-CB--CG1-[CD1] |==|  0.55974
USER: genes 6 Torsion [N]-CA--C-[N] |==|  0.07547
USER: genes 7 Torsion [C]-N--CA-[C] |==|  0.77478
USER: genes 8 Torsion [N]-CA--C-[N] |==|  0.36418
USER: genes 9 Torsion [C]-N--CA-[CB] |==|  0.77826
USER: genes 10 Torsion [N]-CA--CB-[CG] |==|  0.65949
USER: genes 11 Torsion [CA]-CB--CG-[ND2] |==|  0.74121
USER: genes 12 Torsion [N]-CA--C-[O] |==|  0.15189
USER: genes 13 Torsion [N]-CA--CB-[CG] |==|  0.66448
USER: genes 14 Torsion [CA]-CB--CG-[CD2] |==|  0.94251
USER: genes 15 Torsion [CE2]-CZ--OH-[HH] |==|  0.24029
USER: genes 16 Torsion [N]-C--CA-[N] |==|  0.21755
USER: genes 17 Torsion [C]-CA--N-[C] |==|  0.62674
USER: genes 18 Torsion [N]-C--CA-[N] |==|  0.70860
USER: genes 19 Torsion [N]-C--CA-[CB] |==|  0.76343
USER: genes 20 Torsion [C]-CA--CB-[CG] |==|  0.28287
USER: genes 21 Torsion [CA]-CB--CG-[CD] |==|  0.75920
USER: genes 22 Torsion [CB]-CG--CD-[NE] |==|  0.65030
USER: genes 23 Torsion [CG]-CD--NE-[CZ] |==|  0.76951
ROOT
ATOM      1  C   ARG B  14      -6.155 -30.549 -14.706  1.00 32.92 LIG 0.24  C 
ATOM      2 O    ARG B  14      -7.199 -30.715 -15.338  1.00 37.82 LIG-0.27  OA
ATOM      3  N   PRO B  15      -6.114 -30.462 -13.373  1.00 31.88 LIG-0.34  N 
ATOM      4  CA  PRO B  15      -7.344 -30.605 -12.589  1.00 30.79 LIG 0.18  C 
ATOM      5  CB  PRO B  15      -6.850 -30.525 -11.160  1.00 31.22 LIG 0.04  C 
ATOM      6  CG  PRO B  15      -5.464 -31.078 -11.248  1.00 29.82 LIG 0.02  C 
ATOM      7  CD  PRO B  15      -4.921 -30.490 -12.510  1.00 31.43 LIG 0.13  C 
ENDROOT
BRANCH 4 8
ATOM      8  C   PRO B  15      -8.266 -29.446 -12.872  1.00 33.68 LIG 0.24  C 
ATOM      9  N   ILE B  16      -9.097 -29.111 -11.904  1.00 35.41 LIG-0.35  N 
ATOM     10 H    ILE B  16      -9.184 -29.545 -11.166  1.00 35.41 LIG 0.16  HD
ATOM     11 O    PRO B  15      -8.259 -28.903 -13.966  1.00 34.05 LIG-0.27  OA
BRANCH 9 12
ATOM     12  CA  ILE B  16      -9.924 -27.982 -12.023  1.00 37.77 LIG 0.18  C 
BRANCH 12 13
ATOM     13  CB  ILE B  16     -10.826 -28.074 -13.243  1.00 42.27 LIG 0.01  C 
ATOM     14  CG2 ILE B  16     -11.704 -29.288 -13.140  1.00 44.80 LIG 0.01  C 
BRANCH 13 15
ATOM     15  CG1 ILE B  16     -11.639 -26.772 -13.347  1.00 47.53 LIG 0.00  C 
ATOM     16  CD1 ILE B  16     -12.926 -26.855 -14.161  1.00 51.74 LIG 0.01  C 
ENDBRANCH 13 15
ENDBRANCH 12 13
BRANCH 12 17
ATOM     17  C   ILE B  16     -10.678 -27.909 -10.734  1.00 42.33 LIG 0.24  C 
ATOM     18 O    ILE B  16     -11.780 -27.438 -10.685  1.00 39.29 LIG-0.27  OA
ATOM     19  N   TYR B  17     -10.062 -28.444  -9.696  1.00 46.96 LIG-0.35  N 
ATOM     20 H    TYR B  17      -9.235 -28.680  -9.712  1.00 46.96 LIG 0.16  HD
BRANCH 19 21
ATOM     21  CA  TYR B  17     -10.703 -28.686  -8.434  1.00 51.19 LIG 0.18  C 
BRANCH 21 22
ATOM     22  C   TYR B  17     -10.745 -27.431  -7.639  1.00 56.10 LIG 0.24  C 
ATOM     23  N   ASN B  18     -11.900 -27.088  -7.101  1.00 65.39 LIG-0.35  N 
ATOM     24 H    ASN B  18     -12.582 -27.609  -7.053  1.00 65.39 LIG 0.16  HD
ATOM     25 O    TYR B  17      -9.717 -26.808  -7.451  1.00 61.36 LIG-0.27  OA
BRANCH 23 26
ATOM     26  CA  ASN B  18     -12.108 -25.749  -6.527  1.00 70.74 LIG 0.17  C 
BRANCH 26 27
ATOM     27  CB  ASN B  18     -11.488 -25.702  -5.122  1.00 84.74 LIG 0.14  C 
BRANCH 27 28
ATOM     28  CG  ASN B  18     -12.508 -25.321  -4.041  1.00 96.34 LIG 0.22  C 
ATOM     29 OD1  ASN B  18     -13.222 -26.182  -3.505  1.00 99.44 LIG-0.27  OA
ATOM     30  ND2 ASN B  18     -12.593 -24.022  -3.728  1.00 94.73 LIG-0.37  N 
ATOM     31 21HD ASN B  18     -13.158 -23.758  -3.137  1.00 94.73 LIG 0.16  HD
ATOM     32 22HD ASN B  18     -12.082 -23.450  -4.119  1.00 94.73 LIG 0.16  HD
ENDBRANCH 27 28
ENDBRANCH 26 27
BRANCH 26 33
ATOM     33  C   ASN B  18     -11.699 -24.521  -7.375  1.00 72.97 LIG 0.22  C 
ATOM     34 O    ASN B  18     -12.119 -24.332  -8.526  1.00 74.17 LIG-0.29  OA
ENDBRANCH 26 33
ENDBRANCH 23 26
ENDBRANCH 21 22
BRANCH 21 35
ATOM     35  CB  TYR B  17      -9.853 -29.678  -7.657  1.00 54.83 LIG 0.07  C 
BRANCH 35 36
ATOM     36  CG  TYR B  17     -10.619 -30.901  -7.328  1.00 56.96 LIG-0.06  A 
ATOM     37  CD2 TYR B  17     -12.018 -30.875  -7.328  1.00 61.26 LIG 0.01  A 
ATOM     38  CE2 TYR B  17     -12.750 -31.998  -7.013  1.00 70.21 LIG 0.04  A 
ATOM     39  CZ  TYR B  17     -12.073 -33.157  -6.678  1.00 76.40 LIG 0.07  A 
ATOM     40  CE1 TYR B  17     -10.683 -33.205  -6.663  1.00 67.10 LIG 0.04  A 
ATOM     41  CD1 TYR B  17      -9.967 -32.067  -6.985  1.00 57.92 LIG 0.01  A 
BRANCH 39 42
ATOM     42 OH   TYR B  17     -12.795 -34.269  -6.357  1.00 89.25 LIG-0.36  OA
ATOM     43 HH   TYR B  17     -12.985 -34.692  -7.058  1.00 89.25 LIG 0.22  HD
ENDBRANCH 39 42
ENDBRANCH 35 36
ENDBRANCH 21 35
ENDBRANCH 19 21
ENDBRANCH 12 17
ENDBRANCH 9 12
ENDBRANCH 4 8
BRANCH 1 44
ATOM     44  CA  ARG B  14      -4.865 -30.390 -15.454  1.00 32.45 LIG 0.18  C 
BRANCH 44 45
ATOM     45  N   ARG B  14      -4.226 -31.676 -15.290  1.00 38.19 LIG-0.35  N 
ATOM     46 H    ARG B  14      -4.752 -32.343 -15.424  1.00 38.19 LIG 0.16  HD
ATOM     47  C   PRO B  13      -2.938 -31.816 -14.962  1.00 38.91 LIG 0.24  C 
ATOM     48 O    PRO B  13      -2.188 -30.877 -14.789  1.00 32.88 LIG-0.27  OA
BRANCH 47 49
ATOM     49  CA  PRO B  13      -2.415 -33.263 -14.852  1.00 38.31 LIG 0.18  C 
ATOM     50  N   PRO B  13      -2.224 -33.718 -13.492  1.00 38.88 LIG-0.34  N 
ATOM     51  CD  PRO B  13      -2.866 -35.021 -13.264  1.00 43.50 LIG 0.13  C 
ATOM     52  C   PRO B  12      -1.526 -33.051 -12.558  1.00 40.77 LIG 0.26  C 
ATOM     53  CG  PRO B  13      -3.184 -35.500 -14.639  1.00 43.53 LIG 0.02  C 
ATOM     54  CB  PRO B  13      -3.429 -34.257 -15.417  1.00 39.91 LIG 0.04  C 
ATOM     55 O    PRO B  12      -0.911 -31.998 -12.784  1.00 44.45 LIG-0.27  OA
BRANCH 52 56
ATOM     56  CA  PRO B  12      -1.505 -33.636 -11.168  1.00 38.46 LIG 0.35  C 
ATOM     57  CB  PRO B  12      -2.746 -33.160 -10.411  1.00 43.42 LIG 0.05  C 
ATOM     58  CG  PRO B  12      -2.272 -32.872  -9.046  1.00 41.12 LIG 0.04  C 
ATOM     59  CD  PRO B  12      -0.865 -32.377  -9.208  1.00 39.74 LIG 0.32  C 
ATOM     60  N   PRO B  12      -0.413 -33.053 -10.426  1.00 38.12 LIG 0.32  N 
ENDBRANCH 52 56
ENDBRANCH 47 49
ENDBRANCH 44 45
BRANCH 44 61
ATOM     61  CB  ARG B  14      -5.174 -30.197 -16.942  1.00 34.42 LIG 0.04  C 
BRANCH 61 62
ATOM     62  CG  ARG B  14      -5.084 -28.753 -17.435  1.00 32.66 LIG 0.02  C 
BRANCH 62 63
ATOM     63  CD  ARG B  14      -6.413 -28.063 -17.208  1.00 35.24 LIG 0.14  C 
BRANCH 63 64
ATOM     64  NE  ARG B  14      -6.959 -27.451 -18.432  1.00 42.22 LIG-0.23  N 
ATOM     65  CZ  ARG B  14      -6.632 -26.254 -18.925  1.00 44.72 LIG 0.67  C 
ATOM     66  NH2 ARG B  14      -5.764 -25.469 -18.317  1.00 43.48 LIG-0.23  N 
ATOM     67  NH1 ARG B  14      -7.199 -25.831 -20.040  1.00 46.51 LIG-0.23  N 
ATOM     68 1HH2 ARG B  14      -5.392 -25.724 -17.585  1.00 43.48 LIG 0.17  HD
ATOM     69 2HH2 ARG B  14      -5.569 -24.702 -18.655  1.00 43.48 LIG 0.17  HD
ATOM     70 2HH1 ARG B  14      -6.993 -25.061 -20.362  1.00 46.51 LIG 0.17  HD
ATOM     71 1HH1 ARG B  14      -7.774 -26.326 -20.444  1.00 46.51 LIG 0.17  HD
ATOM     72 HE   ARG B  14      -7.543 -27.907 -18.870  1.00 42.22 LIG 0.18  HD
ENDBRANCH 63 64
ENDBRANCH 62 63
ENDBRANCH 61 62
ENDBRANCH 44 61
ENDBRANCH 1 44
TORSDOF 22
ENDMDL
MODEL 56
USER: ADFR SOLUTION from run 92
USER: SCORE 20.926358 LL:  -4.283 LR: -18.807 RR:   0.000 FEB: -12.244
USER: RMSD 12.404978
USER: SEED 91
USER: STATUS no improvement in best in 13 clusters for 5 generations
USER: GENES 24
USER: genes 0 Translation |==|  0.66751 0.56718 0.43060
USER: genes 1 Rotation |==|  0.73651 0.80399 0.81834 0.51771
USER: genes 2 Torsion [N]-CA--C-[O] |==|  0.96806
USER: genes 3 Torsion [C]-N--CA-[CB] |==|  0.44769
USER: genes 4 Torsion [N]-CA--CB-[CG2] |==|  0.59509
USER: genes 5 Torsion [CA]-CB--CG1-[CD1] |==|  0.58519
USER: genes 6 Torsion [N]-CA--C-[N] |==|  0.43750
USER: genes 7 Torsion [C]-N--CA-[C] |==|  0.78195
USER: genes 8 Torsion [N]-CA--C-[N] |==|  0.39495
USER: genes 9 Torsion [C]-N--CA-[CB] |==|  0.45251
USER: genes 10 Torsion [N]-CA--CB-[CG] |==|  0.89373
USER: genes 11 Torsion [CA]-CB--CG-[ND2] |==|  0.41006
USER: genes 12 Torsion [N]-CA--C-[O] |==|  0.25261
USER: genes 13 Torsion [N]-CA--CB-[CG] |==|  0.68297
USER: genes 14 Torsion [CA]-CB--CG-[CD2] |==|  0.77339
USER: genes 15 Torsion [CE2]-CZ--OH-[HH] |==|  0.77791
USER: genes 16 Torsion [N]-C--CA-[N] |==|  0.35737
USER: genes 17 Torsion [C]-CA--N-[C] |==|  0.20562
USER: genes 18 Torsion [N]-C--CA-[N] |==|  0.22127
USER: genes 19 Torsion [N]-C--CA-[CB] |==|  0.55117
USER: genes 20 Torsion [C]-CA--CB-[CG] |==|  0.47665
USER: genes 21 Torsion [CA]-CB--CG-[CD] |==|  0.26588
USER: genes 22 Torsion [CB]-CG--CD-[NE] |==|  0.19139
USER: genes 23 Torsion [CG]-CD--NE-[CZ] |==|  0.38082
ROOT
ATOM      1  C   ARG B  14      -5.680 -27.386 -13.859  1.00 32.92 LIG 0.24  C 
ATOM      2 O    ARG B  14      -6.617 -26.661 -14.198  1.00 37.82 LIG-0.27  OA
ATOM      3  N   PRO B  15      -5.846 -28.639 -13.426  1.00 31.88 LIG-0.34  N 
ATOM      4  CA  PRO B  15      -7.187 -29.228 -13.377  1.00 30.79 LIG 0.18  C 
ATOM      5  CB  PRO B  15      -6.921 -30.648 -12.919  1.00 31.22 LIG 0.04  C 
ATOM      6  CG  PRO B  15      -5.554 -30.927 -13.457  1.00 29.82 LIG 0.02  C 
ATOM      7  CD  PRO B  15      -4.804 -29.657 -13.211  1.00 31.43 LIG 0.13  C 
ENDROOT
BRANCH 4 8
ATOM      8  C   PRO B  15      -8.021 -28.512 -12.345  1.00 33.68 LIG 0.24  C 
ATOM      9  N   ILE B  16      -9.321 -28.729 -12.391  1.00 35.41 LIG-0.35  N 
ATOM     10 H    ILE B  16      -9.715 -29.194 -13.000  1.00 35.41 LIG 0.16  HD
ATOM     11 O    PRO B  15      -7.500 -27.736 -11.558  1.00 34.05 LIG-0.27  OA
BRANCH 9 12
ATOM     12  CA  ILE B  16     -10.176 -28.197 -11.413  1.00 37.77 LIG 0.18  C 
BRANCH 12 13
ATOM     13  CB  ILE B  16     -11.621 -28.169 -11.887  1.00 42.27 LIG 0.01  C 
ATOM     14  CG2 ILE B  16     -12.320 -26.964 -11.326  1.00 44.80 LIG 0.01  C 
BRANCH 13 15
ATOM     15  CG1 ILE B  16     -11.628 -28.186 -13.426  1.00 47.53 LIG 0.00  C 
ATOM     16  CD1 ILE B  16     -12.796 -27.466 -14.093  1.00 51.74 LIG 0.01  C 
ENDBRANCH 13 15
ENDBRANCH 12 13
BRANCH 12 17
ATOM     17  C   ILE B  16      -9.967 -29.048 -10.202  1.00 42.33 LIG 0.24  C 
ATOM     18 O    ILE B  16      -9.490 -30.145 -10.288  1.00 39.29 LIG-0.27  OA
ATOM     19  N   TYR B  17     -10.295 -28.478  -9.057  1.00 46.96 LIG-0.35  N 
ATOM     20 H    TYR B  17     -10.734 -27.741  -9.009  1.00 46.96 LIG 0.16  HD
BRANCH 19 21
ATOM     21  CA  TYR B  17      -9.955 -29.028  -7.775  1.00 51.19 LIG 0.18  C 
BRANCH 21 22
ATOM     22  C   TYR B  17     -10.887 -30.137  -7.437  1.00 56.10 LIG 0.24  C 
ATOM     23  N   ASN B  18     -10.386 -31.186  -6.815  1.00 65.39 LIG-0.35  N 
ATOM     24 H    ASN B  18      -9.602 -31.208  -6.462  1.00 65.39 LIG 0.16  HD
ATOM     25 O    TYR B  17     -12.074 -30.014  -7.675  1.00 61.36 LIG-0.27  OA
BRANCH 23 26
ATOM     26  CA  ASN B  18     -11.156 -32.432  -6.674  1.00 70.74 LIG 0.17  C 
BRANCH 26 27
ATOM     27  CB  ASN B  18     -10.199 -33.576  -6.309  1.00 84.74 LIG 0.14  C 
BRANCH 27 28
ATOM     28  CG  ASN B  18      -8.854 -33.476  -7.041  1.00 96.34 LIG 0.22  C 
ATOM     29 OD1  ASN B  18      -8.786 -33.012  -8.190  1.00 99.44 LIG-0.27  OA
ATOM     30  ND2 ASN B  18      -7.778 -33.928  -6.385  1.00 94.73 LIG-0.37  N 
ATOM     31 21HD ASN B  18      -7.005 -33.904  -6.760  1.00 94.73 LIG 0.16  HD
ATOM     32 22HD ASN B  18      -7.860 -34.244  -5.589  1.00 94.73 LIG 0.16  HD
ENDBRANCH 27 28
ENDBRANCH 26 27
BRANCH 26 33
ATOM     33  C   ASN B  18     -12.405 -32.417  -5.761  1.00 72.97 LIG 0.22  C 
ATOM     34 O    ASN B  18     -13.540 -32.153  -6.183  1.00 74.17 LIG-0.29  OA
ENDBRANCH 26 33
ENDBRANCH 23 26
ENDBRANCH 21 22
BRANCH 21 35
ATOM     35  CB  TYR B  17     -10.157 -27.943  -6.730  1.00 54.83 LIG 0.07  C 
BRANCH 35 36
ATOM     36  CG  TYR B  17      -8.872 -27.545  -6.112  1.00 56.96 LIG-0.06  A 
ATOM     37  CD2 TYR B  17      -8.322 -28.312  -5.079  1.00 61.26 LIG 0.01  A 
ATOM     38  CE2 TYR B  17      -7.135 -27.953  -4.482  1.00 70.21 LIG 0.04  A 
ATOM     39  CZ  TYR B  17      -6.497 -26.803  -4.914  1.00 76.40 LIG 0.07  A 
ATOM     40  CE1 TYR B  17      -7.028 -26.021  -5.933  1.00 67.10 LIG 0.04  A 
ATOM     41  CD1 TYR B  17      -8.221 -26.400  -6.520  1.00 57.92 LIG 0.01  A 
BRANCH 39 42
ATOM     42 OH   TYR B  17      -5.324 -26.441  -4.319  1.00 89.25 LIG-0.36  OA
ATOM     43 HH   TYR B  17      -5.487 -26.060  -3.588  1.00 89.25 LIG 0.22  HD
ENDBRANCH 39 42
ENDBRANCH 35 36
ENDBRANCH 21 35
ENDBRANCH 19 21
ENDBRANCH 12 17
ENDBRANCH 9 12
ENDBRANCH 4 8
BRANCH 1 44
ATOM     44  CA  ARG B  14      -4.285 -26.836 -13.882  1.00 32.45 LIG 0.18  C 
BRANCH 44 45
ATOM     45  N   ARG B  14      -4.153 -26.325 -15.227  1.00 38.19 LIG-0.35  N 
ATOM     46 H    ARG B  14      -3.658 -26.811 -15.735  1.00 38.19 LIG 0.16  HD
ATOM     47  C   PRO B  13      -4.745 -25.201 -15.643  1.00 38.91 LIG 0.24  C 
ATOM     48 O    PRO B  13      -5.459 -24.521 -14.934  1.00 32.88 LIG-0.27  OA
BRANCH 47 49
ATOM     49  CA  PRO B  13      -4.516 -24.814 -17.118  1.00 38.31 LIG 0.18  C 
ATOM     50  N   PRO B  13      -5.347 -25.542 -18.053  1.00 38.88 LIG-0.34  N 
ATOM     51  CD  PRO B  13      -6.029 -24.635 -18.988  1.00 43.50 LIG 0.13  C 
ATOM     52  C   PRO B  12      -5.463 -26.879 -18.086  1.00 40.77 LIG 0.26  C 
ATOM     53  CG  PRO B  13      -5.324 -23.336 -18.792  1.00 43.53 LIG 0.02  C 
ATOM     54  CB  PRO B  13      -4.899 -23.356 -17.369  1.00 39.91 LIG 0.04  C 
ATOM     55 O    PRO B  12      -4.814 -27.642 -17.354  1.00 44.45 LIG-0.27  OA
BRANCH 52 56
ATOM     56  CA  PRO B  12      -6.442 -27.461 -19.074  1.00 38.46 LIG 0.35  C 
ATOM     57  CB  PRO B  12      -6.772 -28.896 -18.660  1.00 43.42 LIG 0.05  C 
ATOM     58  CG  PRO B  12      -6.824 -29.654 -19.922  1.00 41.12 LIG 0.04  C 
ATOM     59  CD  PRO B  12      -5.809 -29.008 -20.818  1.00 39.74 LIG 0.32  C 
ATOM     60  N   PRO B  12      -5.789 -27.620 -20.351  1.00 38.12 LIG 0.32  N 
ENDBRANCH 52 56
ENDBRANCH 47 49
ENDBRANCH 44 45
BRANCH 44 61
ATOM     61  CB  ARG B  14      -4.201 -25.654 -12.911  1.00 34.42 LIG 0.04  C 
BRANCH 61 62
ATOM     62  CG  ARG B  14      -2.790 -25.115 -12.674  1.00 32.66 LIG 0.02  C 
BRANCH 62 63
ATOM     63  CD  ARG B  14      -2.544 -23.938 -13.595  1.00 35.24 LIG 0.14  C 
BRANCH 63 64
ATOM     64  NE  ARG B  14      -3.349 -22.755 -13.242  1.00 42.22 LIG-0.23  N 
ATOM     65  CZ  ARG B  14      -2.918 -21.492 -13.212  1.00 44.72 LIG 0.67  C 
ATOM     66  NH2 ARG B  14      -1.667 -21.180 -13.492  1.00 43.48 LIG-0.23  N 
ATOM     67  NH1 ARG B  14      -3.754 -20.525 -12.881  1.00 46.51 LIG-0.23  N 
ATOM     68 1HH2 ARG B  14      -1.106 -21.798 -13.700  1.00 43.48 LIG 0.17  HD
ATOM     69 2HH2 ARG B  14      -1.412 -20.359 -13.467  1.00 43.48 LIG 0.17  HD
ATOM     70 2HH1 ARG B  14      -3.482 -19.710 -12.860  1.00 46.51 LIG 0.17  HD
ATOM     71 1HH1 ARG B  14      -4.570 -20.711 -12.686  1.00 46.51 LIG 0.17  HD
ATOM     72 HE   ARG B  14      -4.173 -22.891 -13.035  1.00 42.22 LIG 0.18  HD
ENDBRANCH 63 64
ENDBRANCH 62 63
ENDBRANCH 61 62
ENDBRANCH 44 61
ENDBRANCH 1 44
TORSDOF 22
ENDMDL
MODEL 57
USER: ADFR SOLUTION from run 62
USER: SCORE 21.912304 LL:  -4.364 LR: -18.801 RR:   0.000 FEB: -12.238
USER: RMSD 6.333256
USER: SEED 61
USER: STATUS no improvement in best in 26 clusters for 5 generations
USER: GENES 24
USER: genes 0 Translation |==|  0.41346 0.42519 0.66589
USER: genes 1 Rotation |==|  0.69654 0.66910 0.15847 0.75717
USER: genes 2 Torsion [N]-CA--C-[O] |==|  0.22764
USER: genes 3 Torsion [C]-N--CA-[CB] |==|  0.22072
USER: genes 4 Torsion [N]-CA--CB-[CG2] |==|  0.70772
USER: genes 5 Torsion [CA]-CB--CG1-[CD1] |==|  0.71242
USER: genes 6 Torsion [N]-CA--C-[N] |==|  0.42295
USER: genes 7 Torsion [C]-N--CA-[C] |==|  0.83751
USER: genes 8 Torsion [N]-CA--C-[N] |==|  0.88382
USER: genes 9 Torsion [C]-N--CA-[CB] |==|  0.41247
USER: genes 10 Torsion [N]-CA--CB-[CG] |==|  0.88469
USER: genes 11 Torsion [CA]-CB--CG-[ND2] |==|  0.45322
USER: genes 12 Torsion [N]-CA--C-[O] |==|  0.66107
USER: genes 13 Torsion [N]-CA--CB-[CG] |==|  0.62012
USER: genes 14 Torsion [CA]-CB--CG-[CD2] |==|  0.50529
USER: genes 15 Torsion [CE2]-CZ--OH-[HH] |==|  0.27458
USER: genes 16 Torsion [N]-C--CA-[N] |==|  0.50195
USER: genes 17 Torsion [C]-CA--N-[C] |==|  0.74340
USER: genes 18 Torsion [N]-C--CA-[N] |==|  0.20781
USER: genes 19 Torsion [N]-C--CA-[CB] |==|  0.70264
USER: genes 20 Torsion [C]-CA--CB-[CG] |==|  0.40553
USER: genes 21 Torsion [CA]-CB--CG-[CD] |==|  0.25027
USER: genes 22 Torsion [CB]-CG--CD-[NE] |==|  0.46485
USER: genes 23 Torsion [CG]-CD--NE-[CZ] |==|  0.29458
ROOT
ATOM      1  C   ARG B  14     -11.396 -30.049  -7.330  1.00 32.92 LIG 0.24  C 
ATOM      2 O    ARG B  14     -12.449 -30.152  -7.962  1.00 37.82 LIG-0.27  OA
ATOM      3  N   PRO B  15     -10.547 -29.030  -7.486  1.00 31.88 LIG-0.34  N 
ATOM      4  CA  PRO B  15     -10.866 -27.943  -8.416  1.00 30.79 LIG 0.18  C 
ATOM      5  CB  PRO B  15      -9.709 -26.982  -8.231  1.00 31.22 LIG 0.04  C 
ATOM      6  CG  PRO B  15      -9.306 -27.207  -6.808  1.00 29.82 LIG 0.02  C 
ATOM      7  CD  PRO B  15      -9.390 -28.690  -6.640  1.00 31.43 LIG 0.13  C 
ENDROOT
BRANCH 4 8
ATOM      8  C   PRO B  15     -10.868 -28.466  -9.830  1.00 33.68 LIG 0.24  C 
ATOM      9  N   ILE B  16      -9.791 -28.213 -10.548  1.00 35.41 LIG-0.35  N 
ATOM     10 H    ILE B  16      -9.134 -27.725 -10.282  1.00 35.41 LIG 0.16  HD
ATOM     11 O    PRO B  15     -11.850 -29.041 -10.276  1.00 34.05 LIG-0.27  OA
BRANCH 9 12
ATOM     12  CA  ILE B  16      -9.645 -28.744 -11.840  1.00 37.77 LIG 0.18  C 
BRANCH 12 13
ATOM     13  CB  ILE B  16     -10.436 -27.948 -12.865  1.00 42.27 LIG 0.01  C 
ATOM     14  CG2 ILE B  16     -11.664 -28.712 -13.270  1.00 44.80 LIG 0.01  C 
BRANCH 13 15
ATOM     15  CG1 ILE B  16     -10.775 -26.574 -12.260  1.00 47.53 LIG 0.00  C 
ATOM     16  CD1 ILE B  16     -12.211 -26.396 -11.778  1.00 51.74 LIG 0.01  C 
ENDBRANCH 13 15
ENDBRANCH 12 13
BRANCH 12 17
ATOM     17  C   ILE B  16      -8.173 -28.747 -12.100  1.00 42.33 LIG 0.24  C 
ATOM     18 O    ILE B  16      -7.441 -27.983 -11.535  1.00 39.29 LIG-0.27  OA
ATOM     19  N   TYR B  17      -7.757 -29.675 -12.941  1.00 46.96 LIG-0.35  N 
ATOM     20 H    TYR B  17      -8.292 -30.146 -13.422  1.00 46.96 LIG 0.16  HD
BRANCH 19 21
ATOM     21  CA  TYR B  17      -6.372 -29.998 -13.142  1.00 51.19 LIG 0.18  C 
BRANCH 21 22
ATOM     22  C   TYR B  17      -5.632 -28.789 -13.590  1.00 56.10 LIG 0.24  C 
ATOM     23  N   ASN B  18      -6.215 -28.012 -14.482  1.00 65.39 LIG-0.35  N 
ATOM     24 H    ASN B  18      -7.043 -28.073 -14.706  1.00 65.39 LIG 0.16  HD
ATOM     25 O    TYR B  17      -4.562 -28.518 -13.076  1.00 61.36 LIG-0.27  OA
BRANCH 23 26
ATOM     26  CA  ASN B  18      -5.469 -26.951 -15.178  1.00 70.74 LIG 0.17  C 
BRANCH 26 27
ATOM     27  CB  ASN B  18      -6.051 -26.769 -16.588  1.00 84.74 LIG 0.14  C 
BRANCH 27 28
ATOM     28  CG  ASN B  18      -6.382 -28.105 -17.266  1.00 96.34 LIG 0.22  C 
ATOM     29 OD1  ASN B  18      -5.895 -29.168 -16.852  1.00 99.44 LIG-0.27  OA
ATOM     30  ND2 ASN B  18      -7.199 -28.054 -18.325  1.00 94.73 LIG-0.37  N 
ATOM     31 21HD ASN B  18      -7.404 -28.776 -18.745  1.00 94.73 LIG 0.16  HD
ATOM     32 22HD ASN B  18      -7.519 -27.299 -18.586  1.00 94.73 LIG 0.16  HD
ENDBRANCH 27 28
ENDBRANCH 26 27
BRANCH 26 33
ATOM     33  C   ASN B  18      -5.284 -25.596 -14.454  1.00 72.97 LIG 0.22  C 
ATOM     34 O    ASN B  18      -5.675 -24.522 -14.935  1.00 74.17 LIG-0.29  OA
ENDBRANCH 26 33
ENDBRANCH 23 26
ENDBRANCH 21 22
BRANCH 21 35
ATOM     35  CB  TYR B  17      -6.285 -31.016 -14.267  1.00 54.83 LIG 0.07  C 
BRANCH 35 36
ATOM     36  CG  TYR B  17      -5.325 -32.096 -13.942  1.00 56.96 LIG-0.06  A 
ATOM     37  CD2 TYR B  17      -5.072 -33.112 -14.870  1.00 61.26 LIG 0.01  A 
ATOM     38  CE2 TYR B  17      -4.194 -34.132 -14.584  1.00 70.21 LIG 0.04  A 
ATOM     39  CZ  TYR B  17      -3.572 -34.145 -13.348  1.00 76.40 LIG 0.07  A 
ATOM     40  CE1 TYR B  17      -3.814 -33.151 -12.407  1.00 67.10 LIG 0.04  A 
ATOM     41  CD1 TYR B  17      -4.699 -32.134 -12.715  1.00 57.92 LIG 0.01  A 
BRANCH 39 42
ATOM     42 OH   TYR B  17      -2.707 -35.159 -13.059  1.00 89.25 LIG-0.36  OA
ATOM     43 HH   TYR B  17      -1.918 -34.899 -13.183  1.00 89.25 LIG 0.22  HD
ENDBRANCH 39 42
ENDBRANCH 35 36
ENDBRANCH 21 35
ENDBRANCH 19 21
ENDBRANCH 12 17
ENDBRANCH 9 12
ENDBRANCH 4 8
BRANCH 1 44
ATOM     44  CA  ARG B  14     -11.012 -31.134  -6.368  1.00 32.45 LIG 0.18  C 
BRANCH 44 45
ATOM     45  N   ARG B  14     -12.119 -32.060  -6.455  1.00 38.19 LIG-0.35  N 
ATOM     46 H    ARG B  14     -12.031 -32.646  -7.078  1.00 38.19 LIG 0.16  HD
ATOM     47  C   PRO B  13     -13.179 -32.010  -5.644  1.00 38.91 LIG 0.24  C 
ATOM     48 O    PRO B  13     -13.300 -31.195  -4.752  1.00 32.88 LIG-0.27  OA
BRANCH 47 49
ATOM     49  CA  PRO B  13     -14.258 -33.091  -5.862  1.00 38.31 LIG 0.18  C 
ATOM     50  N   PRO B  13     -13.884 -34.401  -5.375  1.00 38.88 LIG-0.34  N 
ATOM     51  CD  PRO B  13     -14.934 -34.981  -4.525  1.00 43.50 LIG 0.13  C 
ATOM     52  C   PRO B  12     -12.735 -35.026  -5.681  1.00 40.77 LIG 0.26  C 
ATOM     53  CG  PRO B  13     -16.112 -34.103  -4.776  1.00 43.53 LIG 0.02  C 
ATOM     54  CB  PRO B  13     -15.524 -32.770  -5.069  1.00 39.91 LIG 0.04  C 
ATOM     55 O    PRO B  12     -11.895 -34.570  -6.471  1.00 44.45 LIG-0.27  OA
BRANCH 52 56
ATOM     56  CA  PRO B  12     -12.476 -36.353  -5.013  1.00 38.46 LIG 0.35  C 
ATOM     57  CB  PRO B  12     -11.388 -36.171  -3.952  1.00 43.42 LIG 0.05  C 
ATOM     58  CG  PRO B  12     -10.543 -37.372  -4.062  1.00 41.12 LIG 0.04  C 
ATOM     59  CD  PRO B  12     -10.564 -37.743  -5.516  1.00 39.74 LIG 0.32  C 
ATOM     60  N   PRO B  12     -11.870 -37.253  -5.965  1.00 38.12 LIG 0.32  N 
ENDBRANCH 52 56
ENDBRANCH 47 49
ENDBRANCH 44 45
BRANCH 44 61
ATOM     61  CB  ARG B  14      -9.757 -31.840  -6.891  1.00 34.42 LIG 0.04  C 
BRANCH 61 62
ATOM     62  CG  ARG B  14      -8.798 -32.331  -5.807  1.00 32.66 LIG 0.02  C 
BRANCH 62 63
ATOM     63  CD  ARG B  14      -9.170 -33.746  -5.414  1.00 35.24 LIG 0.14  C 
BRANCH 63 64
ATOM     64  NE  ARG B  14      -8.135 -34.407  -4.600  1.00 42.22 LIG-0.23  N 
ATOM     65  CZ  ARG B  14      -8.202 -34.647  -3.288  1.00 44.72 LIG 0.67  C 
ATOM     66  NH2 ARG B  14      -9.244 -34.277  -2.569  1.00 43.48 LIG-0.23  N 
ATOM     67  NH1 ARG B  14      -7.197 -35.255  -2.685  1.00 46.51 LIG-0.23  N 
ATOM     68 1HH2 ARG B  14      -9.903 -33.870  -2.943  1.00 43.48 LIG 0.17  HD
ATOM     69 2HH2 ARG B  14      -9.264 -34.443  -1.725  1.00 43.48 LIG 0.17  HD
ATOM     70 2HH1 ARG B  14      -7.234 -35.412  -1.840  1.00 46.51 LIG 0.17  HD
ATOM     71 1HH1 ARG B  14      -6.506 -35.495  -3.136  1.00 46.51 LIG 0.17  HD
ATOM     72 HE   ARG B  14      -7.421 -34.662  -5.007  1.00 42.22 LIG 0.18  HD
ENDBRANCH 63 64
ENDBRANCH 62 63
ENDBRANCH 61 62
ENDBRANCH 44 61
ENDBRANCH 1 44
TORSDOF 22
ENDMDL
MODEL 58
USER: ADFR SOLUTION from run 26
USER: SCORE 21.470233 LL:  -4.654 LR: -18.794 RR:   0.000 FEB: -12.231
USER: RMSD 13.129143
USER: SEED 25
USER: STATUS no improvement in best in 13 clusters for 5 generations
USER: GENES 24
USER: genes 0 Translation |==|  0.68060 0.53555 0.46187
USER: genes 1 Rotation |==|  0.26297 0.22400 0.15701 0.50109
USER: genes 2 Torsion [N]-CA--C-[O] |==|  0.05956
USER: genes 3 Torsion [C]-N--CA-[CB] |==|  0.27010
USER: genes 4 Torsion [N]-CA--CB-[CG2] |==|  0.70333
USER: genes 5 Torsion [CA]-CB--CG1-[CD1] |==|  0.65051
USER: genes 6 Torsion [N]-CA--C-[N] |==|  0.47478
USER: genes 7 Torsion [C]-N--CA-[C] |==|  0.62004
USER: genes 8 Torsion [N]-CA--C-[N] |==|  0.46983
USER: genes 9 Torsion [C]-N--CA-[CB] |==|  0.50869
USER: genes 10 Torsion [N]-CA--CB-[CG] |==|  0.75480
USER: genes 11 Torsion [CA]-CB--CG-[ND2] |==|  0.66425
USER: genes 12 Torsion [N]-CA--C-[O] |==|  0.42178
USER: genes 13 Torsion [N]-CA--CB-[CG] |==|  0.54812
USER: genes 14 Torsion [CA]-CB--CG-[CD2] |==|  0.55757
USER: genes 15 Torsion [CE2]-CZ--OH-[HH] |==|  0.79234
USER: genes 16 Torsion [N]-C--CA-[N] |==|  0.17071
USER: genes 17 Torsion [C]-CA--N-[C] |==|  0.55556
USER: genes 18 Torsion [N]-C--CA-[N] |==|  0.76548
USER: genes 19 Torsion [N]-C--CA-[CB] |==|  0.75536
USER: genes 20 Torsion [C]-CA--CB-[CG] |==|  0.38192
USER: genes 21 Torsion [CA]-CB--CG-[CD] |==|  0.41082
USER: genes 22 Torsion [CB]-CG--CD-[NE] |==|  0.27353
USER: genes 23 Torsion [CG]-CD--NE-[CZ] |==|  0.41525
ROOT
ATOM      1  C   ARG B  14      -5.386 -27.979 -12.991  1.00 32.92 LIG 0.24  C 
ATOM      2 O    ARG B  14      -6.319 -27.205 -13.209  1.00 37.82 LIG-0.27  OA
ATOM      3  N   PRO B  15      -5.556 -29.286 -12.773  1.00 31.88 LIG-0.34  N 
ATOM      4  CA  PRO B  15      -6.899 -29.871 -12.827  1.00 30.79 LIG 0.18  C 
ATOM      5  CB  PRO B  15      -6.638 -31.348 -12.611  1.00 31.22 LIG 0.04  C 
ATOM      6  CG  PRO B  15      -5.270 -31.538 -13.183  1.00 29.82 LIG 0.02  C 
ATOM      7  CD  PRO B  15      -4.518 -30.329 -12.727  1.00 31.43 LIG 0.13  C 
ENDROOT
BRANCH 4 8
ATOM      8  C   PRO B  15      -7.735 -29.333 -11.694  1.00 33.68 LIG 0.24  C 
ATOM      9  N   ILE B  16      -8.812 -30.028 -11.381  1.00 35.41 LIG-0.35  N 
ATOM     10 H    ILE B  16      -9.090 -30.715 -11.818  1.00 35.41 LIG 0.16  HD
ATOM     11 O    PRO B  15      -7.436 -28.281 -11.150  1.00 34.05 LIG-0.27  OA
BRANCH 9 12
ATOM     12  CA  ILE B  16      -9.602 -29.675 -10.275  1.00 37.77 LIG 0.18  C 
BRANCH 12 13
ATOM     13  CB  ILE B  16     -10.801 -28.836 -10.688  1.00 42.27 LIG 0.01  C 
ATOM     14  CG2 ILE B  16     -10.592 -27.408 -10.274  1.00 44.80 LIG 0.01  C 
BRANCH 13 15
ATOM     15  CG1 ILE B  16     -10.998 -28.982 -12.207  1.00 47.53 LIG 0.00  C 
ATOM     16  CD1 ILE B  16     -11.047 -27.680 -12.999  1.00 51.74 LIG 0.01  C 
ENDBRANCH 13 15
ENDBRANCH 12 13
BRANCH 12 17
ATOM     17  C   ILE B  16      -9.979 -30.971  -9.632  1.00 42.33 LIG 0.24  C 
ATOM     18 O    ILE B  16      -9.707 -32.021 -10.143  1.00 39.29 LIG-0.27  OA
ATOM     19  N   TYR B  17     -10.572 -30.858  -8.458  1.00 46.96 LIG-0.35  N 
ATOM     20 H    TYR B  17     -10.860 -30.110  -8.148  1.00 46.96 LIG 0.16  HD
BRANCH 19 21
ATOM     21  CA  TYR B  17     -10.799 -31.969  -7.577  1.00 51.19 LIG 0.18  C 
BRANCH 21 22
ATOM     22  C   TYR B  17     -12.170 -31.891  -7.008  1.00 56.10 LIG 0.24  C 
ATOM     23  N   ASN B  18     -12.620 -32.944  -6.353  1.00 65.39 LIG-0.35  N 
ATOM     24 H    ASN B  18     -12.128 -33.604  -6.107  1.00 65.39 LIG 0.16  HD
ATOM     25 O    TYR B  17     -12.797 -30.851  -7.098  1.00 61.36 LIG-0.27  OA
BRANCH 23 26
ATOM     26  CA  ASN B  18     -14.040 -33.067  -5.985  1.00 70.74 LIG 0.17  C 
BRANCH 26 27
ATOM     27  CB  ASN B  18     -14.237 -34.354  -5.169  1.00 84.74 LIG 0.14  C 
BRANCH 27 28
ATOM     28  CG  ASN B  18     -14.518 -35.575  -6.054  1.00 96.34 LIG 0.22  C 
ATOM     29 OD1  ASN B  18     -13.712 -35.929  -6.929  1.00 99.44 LIG-0.27  OA
ATOM     30  ND2 ASN B  18     -15.675 -36.216  -5.843  1.00 94.73 LIG-0.37  N 
ATOM     31 21HD ASN B  18     -15.882 -36.899  -6.323  1.00 94.73 LIG 0.16  HD
ATOM     32 22HD ASN B  18     -16.212 -35.944  -5.229  1.00 94.73 LIG 0.16  HD
ENDBRANCH 27 28
ENDBRANCH 26 27
BRANCH 26 33
ATOM     33  C   ASN B  18     -14.727 -31.853  -5.316  1.00 72.97 LIG 0.22  C 
ATOM     34 O    ASN B  18     -15.941 -31.629  -5.421  1.00 74.17 LIG-0.29  OA
ENDBRANCH 26 33
ENDBRANCH 23 26
ENDBRANCH 21 22
BRANCH 21 35
ATOM     35  CB  TYR B  17      -9.827 -31.854  -6.414  1.00 54.83 LIG 0.07  C 
BRANCH 35 36
ATOM     36  CG  TYR B  17      -9.700 -33.139  -5.689  1.00 56.96 LIG-0.06  A 
ATOM     37  CD2 TYR B  17      -9.222 -33.158  -4.374  1.00 61.26 LIG 0.01  A 
ATOM     38  CE2 TYR B  17      -9.084 -34.342  -3.686  1.00 70.21 LIG 0.04  A 
ATOM     39  CZ  TYR B  17      -9.414 -35.523  -4.327  1.00 76.40 LIG 0.07  A 
ATOM     40  CE1 TYR B  17      -9.882 -35.530  -5.635  1.00 67.10 LIG 0.04  A 
ATOM     41  CD1 TYR B  17     -10.015 -34.329  -6.309  1.00 57.92 LIG 0.01  A 
BRANCH 39 42
ATOM     42 OH   TYR B  17      -9.270 -36.699  -3.649  1.00 89.25 LIG-0.36  OA
ATOM     43 HH   TYR B  17      -8.455 -36.896  -3.600  1.00 89.25 LIG 0.22  HD
ENDBRANCH 39 42
ENDBRANCH 35 36
ENDBRANCH 21 35
ENDBRANCH 19 21
ENDBRANCH 12 17
ENDBRANCH 9 12
ENDBRANCH 4 8
BRANCH 1 44
ATOM     44  CA  ARG B  14      -3.989 -27.438 -12.918  1.00 32.45 LIG 0.18  C 
BRANCH 44 45
ATOM     45  N   ARG B  14      -3.300 -28.154 -13.968  1.00 38.19 LIG-0.35  N 
ATOM     46 H    ARG B  14      -3.827 -28.493 -14.558  1.00 38.19 LIG 0.16  HD
ATOM     47  C   PRO B  13      -1.971 -28.279 -14.017  1.00 38.91 LIG 0.24  C 
ATOM     48 O    PRO B  13      -1.224 -27.787 -13.195  1.00 32.88 LIG-0.27  OA
BRANCH 47 49
ATOM     49  CA  PRO B  13      -1.402 -29.056 -15.221  1.00 38.31 LIG 0.18  C 
ATOM     50  N   PRO B  13      -1.384 -30.492 -15.039  1.00 38.88 LIG-0.34  N 
ATOM     51  CD  PRO B  13      -1.991 -31.189 -16.182  1.00 43.50 LIG 0.13  C 
ATOM     52  C   PRO B  12      -0.855 -31.116 -13.974  1.00 40.77 LIG 0.26  C 
ATOM     53  CG  PRO B  13      -2.090 -30.129 -17.225  1.00 43.53 LIG 0.02  C 
ATOM     54  CB  PRO B  13      -2.281 -28.871 -16.458  1.00 39.91 LIG 0.04  C 
ATOM     55 O    PRO B  12      -0.263 -30.526 -13.057  1.00 44.45 LIG-0.27  OA
BRANCH 52 56
ATOM     56  CA  PRO B  12      -1.002 -32.615 -13.912  1.00 38.46 LIG 0.35  C 
ATOM     57  CB  PRO B  12      -2.325 -32.956 -13.225  1.00 43.42 LIG 0.05  C 
ATOM     58  CG  PRO B  12      -2.020 -34.111 -12.362  1.00 41.12 LIG 0.04  C 
ATOM     59  CD  PRO B  12      -0.603 -33.909 -11.911  1.00 39.74 LIG 0.32  C 
ATOM     60  N   PRO B  12      -0.007 -33.153 -13.015  1.00 38.12 LIG 0.32  N 
ENDBRANCH 52 56
ENDBRANCH 47 49
ENDBRANCH 44 45
BRANCH 44 61
ATOM     61  CB  ARG B  14      -4.012 -25.951 -13.290  1.00 34.42 LIG 0.04  C 
BRANCH 61 62
ATOM     62  CG  ARG B  14      -3.144 -25.054 -12.408  1.00 32.66 LIG 0.02  C 
BRANCH 62 63
ATOM     63  CD  ARG B  14      -2.611 -23.904 -13.237  1.00 35.24 LIG 0.14  C 
BRANCH 63 64
ATOM     64  NE  ARG B  14      -3.394 -22.666 -13.071  1.00 42.22 LIG-0.23  N 
ATOM     65  CZ  ARG B  14      -2.922 -21.420 -13.163  1.00 44.72 LIG 0.67  C 
ATOM     66  NH2 ARG B  14      -1.648 -21.178 -13.404  1.00 43.48 LIG-0.23  N 
ATOM     67  NH1 ARG B  14      -3.742 -20.399 -12.995  1.00 46.51 LIG-0.23  N 
ATOM     68 1HH2 ARG B  14      -1.098 -21.832 -13.506  1.00 43.48 LIG 0.17  HD
ATOM     69 2HH2 ARG B  14      -1.367 -20.367 -13.460  1.00 43.48 LIG 0.17  HD
ATOM     70 2HH1 ARG B  14      -3.444 -19.594 -13.053  1.00 46.51 LIG 0.17  HD
ATOM     71 1HH1 ARG B  14      -4.573 -20.538 -12.828  1.00 46.51 LIG 0.17  HD
ATOM     72 HE   ARG B  14      -4.232 -22.754 -12.898  1.00 42.22 LIG 0.18  HD
ENDBRANCH 63 64
ENDBRANCH 62 63
ENDBRANCH 61 62
ENDBRANCH 44 61
ENDBRANCH 1 44
TORSDOF 22
ENDMDL
MODEL 59
USER: ADFR SOLUTION from run 41
USER: SCORE 22.475333 LL:  -4.788 LR: -18.792 RR:   0.000 FEB: -12.229
USER: RMSD 5.776765
USER: SEED 40
USER: STATUS no improvement in best in 6 clusters for 5 generations
USER: GENES 24
USER: genes 0 Translation |==|  0.41036 0.61400 0.70494
USER: genes 1 Rotation |==|  0.75419 0.43978 0.09210 0.62400
USER: genes 2 Torsion [N]-CA--C-[O] |==|  0.75530
USER: genes 3 Torsion [C]-N--CA-[CB] |==|  0.50694
USER: genes 4 Torsion [N]-CA--CB-[CG2] |==|  0.03478
USER: genes 5 Torsion [CA]-CB--CG1-[CD1] |==|  0.41123
USER: genes 6 Torsion [N]-CA--C-[N] |==|  0.32508
USER: genes 7 Torsion [C]-N--CA-[C] |==|  0.85000
USER: genes 8 Torsion [N]-CA--C-[N] |==|  0.37258
USER: genes 9 Torsion [C]-N--CA-[CB] |==|  0.42482
USER: genes 10 Torsion [N]-CA--CB-[CG] |==|  0.06097
USER: genes 11 Torsion [CA]-CB--CG-[ND2] |==|  0.62556
USER: genes 12 Torsion [N]-CA--C-[O] |==|  0.12495
USER: genes 13 Torsion [N]-CA--CB-[CG] |==|  0.46757
USER: genes 14 Torsion [CA]-CB--CG-[CD2] |==|  0.19238
USER: genes 15 Torsion [CE2]-CZ--OH-[HH] |==|  0.04091
USER: genes 16 Torsion [N]-C--CA-[N] |==|  0.85186
USER: genes 17 Torsion [C]-CA--N-[C] |==|  0.84371
USER: genes 18 Torsion [N]-C--CA-[N] |==|  0.30537
USER: genes 19 Torsion [N]-C--CA-[CB] |==|  0.77522
USER: genes 20 Torsion [C]-CA--CB-[CG] |==|  0.36710
USER: genes 21 Torsion [CA]-CB--CG-[CD] |==|  0.54015
USER: genes 22 Torsion [CB]-CG--CD-[NE] |==|  0.03521
USER: genes 23 Torsion [CG]-CD--NE-[CZ] |==|  0.69749
ROOT
ATOM      1  C   ARG B  14     -11.466 -26.508  -6.246  1.00 32.92 LIG 0.24  C 
ATOM      2 O    ARG B  14     -12.012 -26.104  -7.274  1.00 37.82 LIG-0.27  OA
ATOM      3  N   PRO B  15     -10.149 -26.708  -6.149  1.00 31.88 LIG-0.34  N 
ATOM      4  CA  PRO B  15      -9.273 -26.406  -7.285  1.00 30.79 LIG 0.18  C 
ATOM      5  CB  PRO B  15      -7.890 -26.690  -6.736  1.00 31.22 LIG 0.04  C 
ATOM      6  CG  PRO B  15      -8.036 -26.395  -5.277  1.00 29.82 LIG 0.02  C 
ATOM      7  CD  PRO B  15      -9.371 -26.969  -4.926  1.00 31.43 LIG 0.13  C 
ENDROOT
BRANCH 4 8
ATOM      8  C   PRO B  15      -9.570 -27.350  -8.422  1.00 33.68 LIG 0.24  C 
ATOM      9  N   ILE B  16     -10.504 -26.966  -9.271  1.00 35.41 LIG-0.35  N 
ATOM     10 H    ILE B  16     -10.984 -26.258  -9.177  1.00 35.41 LIG 0.16  HD
ATOM     11 O    PRO B  15      -9.000 -28.428  -8.497  1.00 34.05 LIG-0.27  OA
BRANCH 9 12
ATOM     12  CA  ILE B  16     -10.784 -27.718 -10.423  1.00 37.77 LIG 0.18  C 
BRANCH 12 13
ATOM     13  CB  ILE B  16     -11.851 -27.054 -11.279  1.00 42.27 LIG 0.01  C 
ATOM     14  CG2 ILE B  16     -12.080 -25.646 -10.810  1.00 44.80 LIG 0.01  C 
BRANCH 13 15
ATOM     15  CG1 ILE B  16     -11.403 -27.116 -12.750  1.00 47.53 LIG 0.00  C 
ATOM     16  CD1 ILE B  16     -12.520 -27.230 -13.781  1.00 51.74 LIG 0.01  C 
ENDBRANCH 13 15
ENDBRANCH 12 13
BRANCH 12 17
ATOM     17  C   ILE B  16      -9.472 -27.869 -11.123  1.00 42.33 LIG 0.24  C 
ATOM     18 O    ILE B  16      -8.857 -26.912 -11.502  1.00 39.29 LIG-0.27  OA
ATOM     19  N   TYR B  17      -9.040 -29.111 -11.236  1.00 46.96 LIG-0.35  N 
ATOM     20 H    TYR B  17      -9.530 -29.796 -11.063  1.00 46.96 LIG 0.16  HD
BRANCH 19 21
ATOM     21  CA  TYR B  17      -7.710 -29.449 -11.659  1.00 51.19 LIG 0.18  C 
BRANCH 21 22
ATOM     22  C   TYR B  17      -7.411 -28.794 -12.960  1.00 56.10 LIG 0.24  C 
ATOM     23  N   ASN B  18      -6.245 -28.189 -13.084  1.00 65.39 LIG-0.35  N 
ATOM     24 H    ASN B  18      -5.596 -28.275 -12.527  1.00 65.39 LIG 0.16  HD
ATOM     25 O    TYR B  17      -8.204 -28.896 -13.877  1.00 61.36 LIG-0.27  OA
BRANCH 23 26
ATOM     26  CA  ASN B  18      -5.964 -27.297 -14.220  1.00 70.74 LIG 0.17  C 
BRANCH 26 27
ATOM     27  CB  ASN B  18      -4.911 -26.261 -13.797  1.00 84.74 LIG 0.14  C 
BRANCH 27 28
ATOM     28  CG  ASN B  18      -4.076 -26.727 -12.597  1.00 96.34 LIG 0.22  C 
ATOM     29 OD1  ASN B  18      -3.630 -27.884 -12.539  1.00 99.44 LIG-0.27  OA
ATOM     30  ND2 ASN B  18      -3.876 -25.832 -11.621  1.00 94.73 LIG-0.37  N 
ATOM     31 21HD ASN B  18      -3.424 -26.051 -10.923  1.00 94.73 LIG 0.16  HD
ATOM     32 22HD ASN B  18      -4.199 -25.038 -11.692  1.00 94.73 LIG 0.16  HD
ENDBRANCH 27 28
ENDBRANCH 26 27
BRANCH 26 33
ATOM     33  C   ASN B  18      -5.618 -27.941 -15.584  1.00 72.97 LIG 0.22  C 
ATOM     34 O    ASN B  18      -6.256 -28.894 -16.055  1.00 74.17 LIG-0.29  OA
ENDBRANCH 26 33
ENDBRANCH 23 26
ENDBRANCH 21 22
BRANCH 21 35
ATOM     35  CB  TYR B  17      -7.659 -30.950 -11.894  1.00 54.83 LIG 0.07  C 
BRANCH 35 36
ATOM     36  CG  TYR B  17      -6.415 -31.343 -12.594  1.00 56.96 LIG-0.06  A 
ATOM     37  CD2 TYR B  17      -5.182 -31.259 -11.936  1.00 61.26 LIG 0.01  A 
ATOM     38  CE2 TYR B  17      -4.012 -31.607 -12.571  1.00 70.21 LIG 0.04  A 
ATOM     39  CZ  TYR B  17      -4.074 -32.031 -13.887  1.00 76.40 LIG 0.07  A 
ATOM     40  CE1 TYR B  17      -5.285 -32.116 -14.564  1.00 67.10 LIG 0.04  A 
ATOM     41  CD1 TYR B  17      -6.449 -31.762 -13.907  1.00 57.92 LIG 0.01  A 
BRANCH 39 42
ATOM     42 OH   TYR B  17      -2.914 -32.370 -14.521  1.00 89.25 LIG-0.36  OA
ATOM     43 HH   TYR B  17      -2.302 -32.466 -13.954  1.00 89.25 LIG 0.22  HD
ENDBRANCH 39 42
ENDBRANCH 35 36
ENDBRANCH 21 35
ENDBRANCH 19 21
ENDBRANCH 12 17
ENDBRANCH 9 12
ENDBRANCH 4 8
BRANCH 1 44
ATOM     44  CA  ARG B  14     -12.311 -26.841  -5.053  1.00 32.45 LIG 0.18  C 
BRANCH 44 45
ATOM     45  N   ARG B  14     -11.941 -28.207  -4.755  1.00 38.19 LIG-0.35  N 
ATOM     46 H    ARG B  14     -11.657 -28.321  -3.952  1.00 38.19 LIG 0.16  HD
ATOM     47  C   PRO B  13     -12.032 -29.199  -5.646  1.00 38.91 LIG 0.24  C 
ATOM     48 O    PRO B  13     -12.449 -29.045  -6.776  1.00 32.88 LIG-0.27  OA
BRANCH 47 49
ATOM     49  CA  PRO B  13     -11.617 -30.600  -5.152  1.00 38.31 LIG 0.18  C 
ATOM     50  N   PRO B  13     -12.722 -31.523  -5.008  1.00 38.88 LIG-0.34  N 
ATOM     51  CD  PRO B  13     -12.448 -32.802  -5.679  1.00 43.50 LIG 0.13  C 
ATOM     52  C   PRO B  12     -13.847 -31.261  -4.323  1.00 40.77 LIG 0.26  C 
ATOM     53  CG  PRO B  13     -10.987 -32.739  -5.968  1.00 43.53 LIG 0.02  C 
ATOM     54  CB  PRO B  13     -10.711 -31.293  -6.169  1.00 39.91 LIG 0.04  C 
ATOM     55 O    PRO B  12     -14.033 -30.215  -3.683  1.00 44.45 LIG-0.27  OA
BRANCH 52 56
ATOM     56  CA  PRO B  12     -14.929 -32.311  -4.351  1.00 38.46 LIG 0.35  C 
ATOM     57  CB  PRO B  12     -15.718 -32.177  -5.654  1.00 43.42 LIG 0.05  C 
ATOM     58  CG  PRO B  12     -17.124 -32.394  -5.273  1.00 41.12 LIG 0.04  C 
ATOM     59  CD  PRO B  12     -17.252 -31.838  -3.886  1.00 39.74 LIG 0.32  C 
ATOM     60  N   PRO B  12     -15.907 -32.011  -3.332  1.00 38.12 LIG 0.32  N 
ENDBRANCH 52 56
ENDBRANCH 47 49
ENDBRANCH 44 45
BRANCH 44 61
ATOM     61  CB  ARG B  14     -11.876 -25.962  -3.875  1.00 34.42 LIG 0.04  C 
BRANCH 61 62
ATOM     62  CG  ARG B  14     -13.020 -25.278  -3.127  1.00 32.66 LIG 0.02  C 
BRANCH 62 63
ATOM     63  CD  ARG B  14     -12.456 -24.185  -2.242  1.00 35.24 LIG 0.14  C 
BRANCH 63 64
ATOM     64  NE  ARG B  14     -11.049 -23.869  -2.547  1.00 42.22 LIG-0.23  N 
ATOM     65  CZ  ARG B  14      -9.995 -24.162  -1.782  1.00 44.72 LIG 0.67  C 
ATOM     66  NH2 ARG B  14     -10.131 -24.772  -0.620  1.00 43.48 LIG-0.23  N 
ATOM     67  NH1 ARG B  14      -8.784 -23.822  -2.183  1.00 46.51 LIG-0.23  N 
ATOM     68 1HH2 ARG B  14     -10.913 -24.992  -0.339  1.00 43.48 LIG 0.17  HD
ATOM     69 2HH2 ARG B  14      -9.436 -24.951  -0.145  1.00 43.48 LIG 0.17  HD
ATOM     70 2HH1 ARG B  14      -8.101 -24.007  -1.694  1.00 46.51 LIG 0.17  HD
ATOM     71 1HH1 ARG B  14      -8.678 -23.415  -2.933  1.00 46.51 LIG 0.17  HD
ATOM     72 HE   ARG B  14     -10.893 -23.458  -3.286  1.00 42.22 LIG 0.18  HD
ENDBRANCH 63 64
ENDBRANCH 62 63
ENDBRANCH 61 62
ENDBRANCH 44 61
ENDBRANCH 1 44
TORSDOF 22
ENDMDL
MODEL 60
USER: ADFR SOLUTION from run 132
USER: SCORE 21.795897 LL:  -4.704 LR: -18.777 RR:   0.000 FEB: -12.215
USER: RMSD 12.628315
USER: SEED 131
USER: STATUS no improvement in best in 29 clusters for 5 generations
USER: GENES 24
USER: genes 0 Translation |==|  0.61504 0.46913 0.38248
USER: genes 1 Rotation |==|  0.25532 0.08758 0.36336 0.53698
USER: genes 2 Torsion [N]-CA--C-[O] |==|  0.82002
USER: genes 3 Torsion [C]-N--CA-[CB] |==|  0.50556
USER: genes 4 Torsion [N]-CA--CB-[CG2] |==|  0.55500
USER: genes 5 Torsion [CA]-CB--CG1-[CD1] |==|  0.56245
USER: genes 6 Torsion [N]-CA--C-[N] |==|  0.80880
USER: genes 7 Torsion [C]-N--CA-[C] |==|  0.61098
USER: genes 8 Torsion [N]-CA--C-[N] |==|  0.52455
USER: genes 9 Torsion [C]-N--CA-[CB] |==|  0.24962
USER: genes 10 Torsion [N]-CA--CB-[CG] |==|  0.23241
USER: genes 11 Torsion [CA]-CB--CG-[ND2] |==|  0.37076
USER: genes 12 Torsion [N]-CA--C-[O] |==|  0.11437
USER: genes 13 Torsion [N]-CA--CB-[CG] |==|  0.74801
USER: genes 14 Torsion [CA]-CB--CG-[CD2] |==|  0.65922
USER: genes 15 Torsion [CE2]-CZ--OH-[HH] |==|  0.35056
USER: genes 16 Torsion [N]-C--CA-[N] |==|  0.87911
USER: genes 17 Torsion [C]-CA--N-[C] |==|  0.81925
USER: genes 18 Torsion [N]-C--CA-[N] |==|  0.37696
USER: genes 19 Torsion [N]-C--CA-[CB] |==|  0.49513
USER: genes 20 Torsion [C]-CA--CB-[CG] |==|  0.12623
USER: genes 21 Torsion [CA]-CB--CG-[CD] |==|  0.31240
USER: genes 22 Torsion [CB]-CG--CD-[NE] |==|  0.58574
USER: genes 23 Torsion [CG]-CD--NE-[CZ] |==|  0.75034
ROOT
ATOM      1  C   ARG B  14      -6.861 -29.225 -15.194  1.00 32.92 LIG 0.24  C 
ATOM      2 O    ARG B  14      -8.069 -28.989 -15.252  1.00 37.82 LIG-0.27  OA
ATOM      3  N   PRO B  15      -6.300 -29.932 -14.209  1.00 31.88 LIG-0.34  N 
ATOM      4  CA  PRO B  15      -7.135 -30.504 -13.148  1.00 30.79 LIG 0.18  C 
ATOM      5  CB  PRO B  15      -6.139 -31.274 -12.307  1.00 31.22 LIG 0.04  C 
ATOM      6  CG  PRO B  15      -5.093 -31.673 -13.298  1.00 29.82 LIG 0.02  C 
ATOM      7  CD  PRO B  15      -4.927 -30.459 -14.154  1.00 31.43 LIG 0.13  C 
ENDROOT
BRANCH 4 8
ATOM      8  C   PRO B  15      -7.745 -29.397 -12.326  1.00 33.68 LIG 0.24  C 
ATOM      9  N   ILE B  16      -9.052 -29.252 -12.420  1.00 35.41 LIG-0.35  N 
ATOM     10 H    ILE B  16      -9.554 -29.700 -12.957  1.00 35.41 LIG 0.16  HD
ATOM     11 O    PRO B  15      -7.035 -28.656 -11.662  1.00 34.05 LIG-0.27  OA
BRANCH 9 12
ATOM     12  CA  ILE B  16      -9.734 -28.323 -11.617  1.00 37.77 LIG 0.18  C 
BRANCH 12 13
ATOM     13  CB  ILE B  16     -11.234 -28.365 -11.862  1.00 42.27 LIG 0.01  C 
ATOM     14  CG2 ILE B  16     -11.865 -27.088 -11.386  1.00 44.80 LIG 0.01  C 
BRANCH 13 15
ATOM     15  CG1 ILE B  16     -11.475 -28.613 -13.362  1.00 47.53 LIG 0.00  C 
ATOM     16  CD1 ILE B  16     -12.833 -28.171 -13.898  1.00 51.74 LIG 0.01  C 
ENDBRANCH 13 15
ENDBRANCH 12 13
BRANCH 12 17
ATOM     17  C   ILE B  16      -9.354 -28.663 -10.212  1.00 42.33 LIG 0.24  C 
ATOM     18 O    ILE B  16      -8.700 -27.910  -9.545  1.00 39.29 LIG-0.27  OA
ATOM     19  N   TYR B  17      -9.835 -29.808  -9.766  1.00 46.96 LIG-0.35  N 
ATOM     20 H    TYR B  17     -10.208 -30.391 -10.277  1.00 46.96 LIG 0.16  HD
BRANCH 19 21
ATOM     21  CA  TYR B  17      -9.785 -30.203  -8.386  1.00 51.19 LIG 0.18  C 
BRANCH 21 22
ATOM     22  C   TYR B  17      -9.463 -31.651  -8.286  1.00 56.10 LIG 0.24  C 
ATOM     23  N   ASN B  18      -9.555 -32.215  -7.097  1.00 65.39 LIG-0.35  N 
ATOM     24 H    ASN B  18      -9.927 -31.846  -6.416  1.00 65.39 LIG 0.16  HD
ATOM     25 O    TYR B  17      -9.201 -32.277  -9.296  1.00 61.36 LIG-0.27  OA
BRANCH 23 26
ATOM     26  CA  ASN B  18      -9.010 -33.559  -6.844  1.00 70.74 LIG 0.17  C 
BRANCH 26 27
ATOM     27  CB  ASN B  18      -7.550 -33.431  -6.384  1.00 84.74 LIG 0.14  C 
BRANCH 27 28
ATOM     28  CG  ASN B  18      -7.429 -33.148  -4.881  1.00 96.34 LIG 0.22  C 
ATOM     29 OD1  ASN B  18      -8.118 -32.270  -4.339  1.00 99.44 LIG-0.27  OA
ATOM     30  ND2 ASN B  18      -6.536 -33.880  -4.203  1.00 94.73 LIG-0.37  N 
ATOM     31 21HD ASN B  18      -6.424 -33.749  -3.361  1.00 94.73 LIG 0.16  HD
ATOM     32 22HD ASN B  18      -6.074 -34.481  -4.610  1.00 94.73 LIG 0.16  HD
ENDBRANCH 27 28
ENDBRANCH 26 27
BRANCH 26 33
ATOM     33  C   ASN B  18      -9.817 -34.511  -5.929  1.00 72.97 LIG 0.22  C 
ATOM     34 O    ASN B  18     -11.052 -34.609  -5.987  1.00 74.17 LIG-0.29  OA
ENDBRANCH 26 33
ENDBRANCH 23 26
ENDBRANCH 21 22
BRANCH 21 35
ATOM     35  CB  TYR B  17     -11.171 -30.013  -7.793  1.00 54.83 LIG 0.07  C 
BRANCH 35 36
ATOM     36  CG  TYR B  17     -11.327 -28.661  -7.210  1.00 56.96 LIG-0.06  A 
ATOM     37  CD2 TYR B  17     -11.678 -28.513  -5.863  1.00 61.26 LIG 0.01  A 
ATOM     38  CE2 TYR B  17     -11.840 -27.267  -5.303  1.00 70.21 LIG 0.04  A 
ATOM     39  CZ  TYR B  17     -11.664 -26.152  -6.106  1.00 76.40 LIG 0.07  A 
ATOM     40  CE1 TYR B  17     -11.324 -26.274  -7.448  1.00 67.10 LIG 0.04  A 
ATOM     41  CD1 TYR B  17     -11.164 -27.536  -7.990  1.00 57.92 LIG 0.01  A 
BRANCH 39 42
ATOM     42 OH   TYR B  17     -11.832 -24.916  -5.556  1.00 89.25 LIG-0.36  OA
ATOM     43 HH   TYR B  17     -11.148 -24.450  -5.699  1.00 89.25 LIG 0.22  HD
ENDBRANCH 39 42
ENDBRANCH 35 36
ENDBRANCH 21 35
ENDBRANCH 19 21
ENDBRANCH 12 17
ENDBRANCH 9 12
ENDBRANCH 4 8
BRANCH 1 44
ATOM     44  CA  ARG B  14      -5.955 -28.660 -16.248  1.00 32.45 LIG 0.18  C 
BRANCH 44 45
ATOM     45  N   ARG B  14      -4.846 -28.134 -15.484  1.00 38.19 LIG-0.35  N 
ATOM     46 H    ARG B  14      -4.101 -28.537 -15.633  1.00 38.19 LIG 0.16  HD
ATOM     47  C   PRO B  13      -4.967 -27.116 -14.627  1.00 38.91 LIG 0.24  C 
ATOM     48 O    PRO B  13      -6.013 -26.532 -14.427  1.00 32.88 LIG-0.27  OA
BRANCH 47 49
ATOM     49  CA  PRO B  13      -3.676 -26.667 -13.913  1.00 38.31 LIG 0.18  C 
ATOM     50  N   PRO B  13      -3.499 -25.231 -13.864  1.00 38.88 LIG-0.34  N 
ATOM     51  CD  PRO B  13      -3.193 -24.772 -12.502  1.00 43.50 LIG 0.13  C 
ATOM     52  C   PRO B  12      -3.576 -24.420 -14.931  1.00 40.77 LIG 0.26  C 
ATOM     53  CG  PRO B  13      -2.869 -26.030 -11.772  1.00 43.53 LIG 0.02  C 
ATOM     54  CB  PRO B  13      -3.696 -27.069 -12.438  1.00 39.91 LIG 0.04  C 
ATOM     55 O    PRO B  12      -3.743 -24.825 -16.091  1.00 44.45 LIG-0.27  OA
BRANCH 52 56
ATOM     56  CA  PRO B  12      -3.449 -22.938 -14.678  1.00 38.46 LIG 0.35  C 
ATOM     57  CB  PRO B  12      -3.518 -22.199 -16.015  1.00 43.42 LIG 0.05  C 
ATOM     58  CG  PRO B  12      -2.512 -21.129 -15.912  1.00 41.12 LIG 0.04  C 
ATOM     59  CD  PRO B  12      -1.413 -21.695 -15.061  1.00 39.74 LIG 0.32  C 
ATOM     60  N   PRO B  12      -2.117 -22.651 -14.203  1.00 38.12 LIG 0.32  N 
ENDBRANCH 52 56
ENDBRANCH 47 49
ENDBRANCH 44 45
BRANCH 44 61
ATOM     61  CB  ARG B  14      -5.432 -29.806 -17.120  1.00 34.42 LIG 0.04  C 
BRANCH 61 62
ATOM     62  CG  ARG B  14      -6.493 -30.815 -17.559  1.00 32.66 LIG 0.02  C 
BRANCH 62 63
ATOM     63  CD  ARG B  14      -6.693 -30.710 -19.057  1.00 35.24 LIG 0.14  C 
BRANCH 63 64
ATOM     64  NE  ARG B  14      -8.068 -31.034 -19.477  1.00 42.22 LIG-0.23  N 
ATOM     65  CZ  ARG B  14      -8.523 -32.245 -19.809  1.00 44.72 LIG 0.67  C 
ATOM     66  NH2 ARG B  14      -7.736 -33.304 -19.808  1.00 43.48 LIG-0.23  N 
ATOM     67  NH1 ARG B  14      -9.786 -32.392 -20.163  1.00 46.51 LIG-0.23  N 
ATOM     68 1HH2 ARG B  14      -6.908 -33.225 -19.589  1.00 43.48 LIG 0.17  HD
ATOM     69 2HH2 ARG B  14      -8.052 -34.074 -20.025  1.00 43.48 LIG 0.17  HD
ATOM     70 2HH1 ARG B  14     -10.084 -33.170 -20.378  1.00 46.51 LIG 0.17  HD
ATOM     71 1HH1 ARG B  14     -10.310 -31.711 -20.179  1.00 46.51 LIG 0.17  HD
ATOM     72 HE   ARG B  14      -8.629 -30.383 -19.512  1.00 42.22 LIG 0.18  HD
ENDBRANCH 63 64
ENDBRANCH 62 63
ENDBRANCH 61 62
ENDBRANCH 44 61
ENDBRANCH 1 44
TORSDOF 22
ENDMDL
MODEL 61
USER: ADFR SOLUTION from run 57
USER: SCORE 22.181183 LL:  -5.207 LR: -18.784 RR:   0.000 FEB: -12.221
USER: RMSD 12.622270
USER: SEED 56
USER: STATUS no improvement in best in 21 clusters for 5 generations
USER: GENES 24
USER: genes 0 Translation |==|  0.62059 0.45203 0.37494
USER: genes 1 Rotation |==|  0.25241 0.08186 0.39097 0.54435
USER: genes 2 Torsion [N]-CA--C-[O] |==|  0.82013
USER: genes 3 Torsion [C]-N--CA-[CB] |==|  0.47937
USER: genes 4 Torsion [N]-CA--CB-[CG2] |==|  0.59377
USER: genes 5 Torsion [CA]-CB--CG1-[CD1] |==|  0.48462
USER: genes 6 Torsion [N]-CA--C-[N] |==|  0.81077
USER: genes 7 Torsion [C]-N--CA-[C] |==|  0.61561
USER: genes 8 Torsion [N]-CA--C-[N] |==|  0.51667
USER: genes 9 Torsion [C]-N--CA-[CB] |==|  0.24153
USER: genes 10 Torsion [N]-CA--CB-[CG] |==|  0.21184
USER: genes 11 Torsion [CA]-CB--CG-[ND2] |==|  0.34192
USER: genes 12 Torsion [N]-CA--C-[O] |==|  0.13568
USER: genes 13 Torsion [N]-CA--CB-[CG] |==|  0.76809
USER: genes 14 Torsion [CA]-CB--CG-[CD2] |==|  0.67199
USER: genes 15 Torsion [CE2]-CZ--OH-[HH] |==|  0.17513
USER: genes 16 Torsion [N]-C--CA-[N] |==|  0.39925
USER: genes 17 Torsion [C]-CA--N-[C] |==|  0.76187
USER: genes 18 Torsion [N]-C--CA-[N] |==|  0.24566
USER: genes 19 Torsion [N]-C--CA-[CB] |==|  0.54472
USER: genes 20 Torsion [C]-CA--CB-[CG] |==|  0.05482
USER: genes 21 Torsion [CA]-CB--CG-[CD] |==|  0.22287
USER: genes 22 Torsion [CB]-CG--CD-[NE] |==|  0.40240
USER: genes 23 Torsion [CG]-CD--NE-[CZ] |==|  0.40908
ROOT
ATOM      1  C   ARG B  14      -6.736 -29.545 -15.403  1.00 32.92 LIG 0.24  C 
ATOM      2 O    ARG B  14      -7.949 -29.332 -15.383  1.00 37.82 LIG-0.27  OA
ATOM      3  N   PRO B  15      -6.085 -30.159 -14.411  1.00 31.88 LIG-0.34  N 
ATOM      4  CA  PRO B  15      -6.821 -30.651 -13.243  1.00 30.79 LIG 0.18  C 
ATOM      5  CB  PRO B  15      -5.745 -31.333 -12.423  1.00 31.22 LIG 0.04  C 
ATOM      6  CG  PRO B  15      -4.772 -31.800 -13.459  1.00 29.82 LIG 0.02  C 
ATOM      7  CD  PRO B  15      -4.700 -30.660 -14.423  1.00 31.43 LIG 0.13  C 
ENDROOT
BRANCH 4 8
ATOM      8  C   PRO B  15      -7.387 -29.488 -12.469  1.00 33.68 LIG 0.24  C 
ATOM      9  N   ILE B  16      -8.701 -29.371 -12.468  1.00 35.41 LIG-0.35  N 
ATOM     10 H    ILE B  16      -9.233 -29.870 -12.924  1.00 35.41 LIG 0.16  HD
ATOM     11 O    PRO B  15      -6.643 -28.684 -11.929  1.00 34.05 LIG-0.27  OA
BRANCH 9 12
ATOM     12  CA  ILE B  16      -9.336 -28.387 -11.693  1.00 37.77 LIG 0.18  C 
BRANCH 12 13
ATOM     13  CB  ILE B  16     -10.826 -28.320 -11.985  1.00 42.27 LIG 0.01  C 
ATOM     14  CG2 ILE B  16     -11.308 -26.903 -11.860  1.00 44.80 LIG 0.01  C 
BRANCH 13 15
ATOM     15  CG1 ILE B  16     -11.074 -28.900 -13.389  1.00 47.53 LIG 0.00  C 
ATOM     16  CD1 ILE B  16     -12.535 -29.036 -13.804  1.00 51.74 LIG 0.01  C 
ENDBRANCH 13 15
ENDBRANCH 12 13
BRANCH 12 17
ATOM     17  C   ILE B  16      -9.026 -28.743 -10.274  1.00 42.33 LIG 0.24  C 
ATOM     18 O    ILE B  16      -8.350 -28.029  -9.588  1.00 39.29 LIG-0.27  OA
ATOM     19  N   TYR B  17      -9.593 -29.854  -9.842  1.00 46.96 LIG-0.35  N 
ATOM     20 H    TYR B  17      -9.984 -30.414 -10.363  1.00 46.96 LIG 0.16  HD
BRANCH 19 21
ATOM     21  CA  TYR B  17      -9.616 -30.244  -8.460  1.00 51.19 LIG 0.18  C 
BRANCH 21 22
ATOM     22  C   TYR B  17      -9.349 -31.702  -8.341  1.00 56.10 LIG 0.24  C 
ATOM     23  N   ASN B  18      -9.455 -32.245  -7.145  1.00 65.39 LIG-0.35  N 
ATOM     24 H    ASN B  18      -9.808 -31.853  -6.467  1.00 65.39 LIG 0.16  HD
ATOM     25 O    TYR B  17      -9.117 -32.351  -9.345  1.00 61.36 LIG-0.27  OA
BRANCH 23 26
ATOM     26  CA  ASN B  18      -8.960 -33.606  -6.876  1.00 70.74 LIG 0.17  C 
BRANCH 26 27
ATOM     27  CB  ASN B  18      -7.473 -33.534  -6.497  1.00 84.74 LIG 0.14  C 
BRANCH 27 28
ATOM     28  CG  ASN B  18      -7.254 -33.036  -5.063  1.00 96.34 LIG 0.22  C 
ATOM     29 OD1  ASN B  18      -7.688 -31.932  -4.697  1.00 99.44 LIG-0.27  OA
ATOM     30  ND2 ASN B  18      -6.562 -33.841  -4.247  1.00 94.73 LIG-0.37  N 
ATOM     31 21HD ASN B  18      -6.404 -33.599  -3.437  1.00 94.73 LIG 0.16  HD
ATOM     32 22HD ASN B  18      -6.276 -34.600  -4.533  1.00 94.73 LIG 0.16  HD
ENDBRANCH 27 28
ENDBRANCH 26 27
BRANCH 26 33
ATOM     33  C   ASN B  18      -9.761 -34.490  -5.890  1.00 72.97 LIG 0.22  C 
ATOM     34 O    ASN B  18     -10.989 -34.637  -5.969  1.00 74.17 LIG-0.29  OA
ENDBRANCH 26 33
ENDBRANCH 23 26
ENDBRANCH 21 22
BRANCH 21 35
ATOM     35  CB  TYR B  17     -11.019 -30.003  -7.927  1.00 54.83 LIG 0.07  C 
BRANCH 35 36
ATOM     36  CG  TYR B  17     -11.203 -28.594  -7.513  1.00 56.96 LIG-0.06  A 
ATOM     37  CD2 TYR B  17     -11.496 -28.286  -6.179  1.00 61.26 LIG 0.01  A 
ATOM     38  CE2 TYR B  17     -11.684 -26.984  -5.776  1.00 70.21 LIG 0.04  A 
ATOM     39  CZ  TYR B  17     -11.594 -25.977  -6.721  1.00 76.40 LIG 0.07  A 
ATOM     40  CE1 TYR B  17     -11.313 -26.259  -8.053  1.00 67.10 LIG 0.04  A 
ATOM     41  CD1 TYR B  17     -11.126 -27.574  -8.438  1.00 57.92 LIG 0.01  A 
BRANCH 39 42
ATOM     42 OH   TYR B  17     -11.787 -24.686  -6.325  1.00 89.25 LIG-0.36  OA
ATOM     43 HH   TYR B  17     -11.191 -24.470  -5.775  1.00 89.25 LIG 0.22  HD
ENDBRANCH 39 42
ENDBRANCH 35 36
ENDBRANCH 21 35
ENDBRANCH 19 21
ENDBRANCH 12 17
ENDBRANCH 9 12
ENDBRANCH 4 8
BRANCH 1 44
ATOM     44  CA  ARG B  14      -5.928 -29.058 -16.570  1.00 32.45 LIG 0.18  C 
BRANCH 44 45
ATOM     45  N   ARG B  14      -6.803 -29.288 -17.697  1.00 38.19 LIG-0.35  N 
ATOM     46 H    ARG B  14      -7.276 -28.603 -17.913  1.00 38.19 LIG 0.16  HD
ATOM     47  C   PRO B  13      -6.871 -30.456 -18.343  1.00 38.91 LIG 0.24  C 
ATOM     48 O    PRO B  13      -6.193 -31.420 -18.052  1.00 32.88 LIG-0.27  OA
BRANCH 47 49
ATOM     49  CA  PRO B  13      -7.843 -30.519 -19.539  1.00 38.31 LIG 0.18  C 
ATOM     50  N   PRO B  13      -7.252 -30.118 -20.798  1.00 38.88 LIG-0.34  N 
ATOM     51  CD  PRO B  13      -7.507 -31.109 -21.854  1.00 43.50 LIG 0.13  C 
ATOM     52  C   PRO B  12      -6.577 -28.973 -20.991  1.00 40.77 LIG 0.26  C 
ATOM     53  CG  PRO B  13      -8.562 -31.983 -21.266  1.00 43.53 LIG 0.02  C 
ATOM     54  CB  PRO B  13      -8.294 -31.955 -19.805  1.00 39.91 LIG 0.04  C 
ATOM     55 O    PRO B  12      -6.445 -28.100 -20.119  1.00 44.45 LIG-0.27  OA
BRANCH 52 56
ATOM     56  CA  PRO B  12      -5.957 -28.760 -22.349  1.00 38.46 LIG 0.35  C 
ATOM     57  CB  PRO B  12      -4.925 -27.635 -22.252  1.00 43.42 LIG 0.05  C 
ATOM     58  CG  PRO B  12      -5.096 -26.853 -23.489  1.00 41.12 LIG 0.04  C 
ATOM     59  CD  PRO B  12      -6.558 -26.935 -23.813  1.00 39.74 LIG 0.32  C 
ATOM     60  N   PRO B  12      -6.953 -28.227 -23.246  1.00 38.12 LIG 0.32  N 
ENDBRANCH 52 56
ENDBRANCH 47 49
ENDBRANCH 44 45
BRANCH 44 61
ATOM     61  CB  ARG B  14      -5.716 -27.547 -16.430  1.00 34.42 LIG 0.04  C 
BRANCH 61 62
ATOM     62  CG  ARG B  14      -5.914 -26.998 -15.018  1.00 32.66 LIG 0.02  C 
BRANCH 62 63
ATOM     63  CD  ARG B  14      -4.665 -27.259 -14.201  1.00 35.24 LIG 0.14  C 
BRANCH 63 64
ATOM     64  NE  ARG B  14      -4.372 -26.180 -13.240  1.00 42.22 LIG-0.23  N 
ATOM     65  CZ  ARG B  14      -3.801 -26.328 -12.043  1.00 44.72 LIG 0.67  C 
ATOM     66  NH2 ARG B  14      -3.450 -27.515 -11.585  1.00 43.48 LIG-0.23  N 
ATOM     67  NH1 ARG B  14      -3.593 -25.268 -11.284  1.00 46.51 LIG-0.23  N 
ATOM     68 1HH2 ARG B  14      -3.587 -28.218 -12.062  1.00 43.48 LIG 0.17  HD
ATOM     69 2HH2 ARG B  14      -3.082 -27.585 -10.811  1.00 43.48 LIG 0.17  HD
ATOM     70 2HH1 ARG B  14      -3.225 -25.358 -10.512  1.00 46.51 LIG 0.17  HD
ATOM     71 1HH1 ARG B  14      -3.824 -24.488 -11.562  1.00 46.51 LIG 0.17  HD
ATOM     72 HE   ARG B  14      -4.590 -25.380 -13.473  1.00 42.22 LIG 0.18  HD
ENDBRANCH 63 64
ENDBRANCH 62 63
ENDBRANCH 61 62
ENDBRANCH 44 61
ENDBRANCH 1 44
TORSDOF 22
ENDMDL
MODEL 62
USER: ADFR SOLUTION from run 41
USER: SCORE 21.208122 LL:  -4.170 LR: -18.782 RR:   0.000 FEB: -12.219
USER: RMSD 5.005734
USER: SEED 40
USER: STATUS no improvement in best in 6 clusters for 5 generations
USER: GENES 24
USER: genes 0 Translation |==|  0.41478 0.61117 0.69806
USER: genes 1 Rotation |==|  0.72619 0.44726 0.06595 0.58749
USER: genes 2 Torsion [N]-CA--C-[O] |==|  0.05229
USER: genes 3 Torsion [C]-N--CA-[CB] |==|  0.17224
USER: genes 4 Torsion [N]-CA--CB-[CG2] |==|  0.20376
USER: genes 5 Torsion [CA]-CB--CG1-[CD1] |==|  0.55224
USER: genes 6 Torsion [N]-CA--C-[N] |==|  0.45355
USER: genes 7 Torsion [C]-N--CA-[C] |==|  0.11862
USER: genes 8 Torsion [N]-CA--C-[N] |==|  0.64968
USER: genes 9 Torsion [C]-N--CA-[CB] |==|  0.71729
USER: genes 10 Torsion [N]-CA--CB-[CG] |==|  0.85966
USER: genes 11 Torsion [CA]-CB--CG-[ND2] |==|  0.50002
USER: genes 12 Torsion [N]-CA--C-[O] |==|  0.43484
USER: genes 13 Torsion [N]-CA--CB-[CG] |==|  0.61443
USER: genes 14 Torsion [CA]-CB--CG-[CD2] |==|  0.00944
USER: genes 15 Torsion [CE2]-CZ--OH-[HH] |==|  0.04131
USER: genes 16 Torsion [N]-C--CA-[N] |==|  0.87236
USER: genes 17 Torsion [C]-CA--N-[C] |==|  0.84749
USER: genes 18 Torsion [N]-C--CA-[N] |==|  0.31938
USER: genes 19 Torsion [N]-C--CA-[CB] |==|  0.76687
USER: genes 20 Torsion [C]-CA--CB-[CG] |==|  0.30379
USER: genes 21 Torsion [CA]-CB--CG-[CD] |==|  0.47453
USER: genes 22 Torsion [CB]-CG--CD-[NE] |==|  0.13777
USER: genes 23 Torsion [CG]-CD--NE-[CZ] |==|  0.61487
ROOT
ATOM      1  C   ARG B  14     -11.367 -26.562  -6.437  1.00 32.92 LIG 0.24  C 
ATOM      2 O    ARG B  14     -11.973 -25.993  -7.346  1.00 37.82 LIG-0.27  OA
ATOM      3  N   PRO B  15     -10.092 -26.948  -6.539  1.00 31.88 LIG-0.34  N 
ATOM      4  CA  PRO B  15      -9.334 -26.665  -7.761  1.00 30.79 LIG 0.18  C 
ATOM      5  CB  PRO B  15      -7.949 -27.185  -7.433  1.00 31.22 LIG 0.04  C 
ATOM      6  CG  PRO B  15      -7.863 -27.009  -5.950  1.00 29.82 LIG 0.02  C 
ATOM      7  CD  PRO B  15      -9.211 -27.425  -5.459  1.00 31.43 LIG 0.13  C 
ENDROOT
BRANCH 4 8
ATOM      8  C   PRO B  15      -9.910 -27.449  -8.912  1.00 33.68 LIG 0.24  C 
ATOM      9  N   ILE B  16      -9.151 -27.554  -9.986  1.00 35.41 LIG-0.35  N 
ATOM     10 H    ILE B  16      -8.394 -27.156 -10.086  1.00 35.41 LIG 0.16  HD
ATOM     11 O    PRO B  15     -11.041 -27.905  -8.845  1.00 34.05 LIG-0.27  OA
BRANCH 9 12
ATOM     12  CA  ILE B  16      -9.546 -28.350 -11.073  1.00 37.77 LIG 0.18  C 
BRANCH 12 13
ATOM     13  CB  ILE B  16     -10.842 -27.850 -11.691  1.00 42.27 LIG 0.01  C 
ATOM     14  CG2 ILE B  16     -10.587 -26.589 -12.465  1.00 44.80 LIG 0.01  C 
BRANCH 13 15
ATOM     15  CG1 ILE B  16     -11.424 -28.970 -12.572  1.00 47.53 LIG 0.00  C 
ATOM     16  CD1 ILE B  16     -12.454 -28.532 -13.608  1.00 51.74 LIG 0.01  C 
ENDBRANCH 13 15
ENDBRANCH 12 13
BRANCH 12 17
ATOM     17  C   ILE B  16      -8.390 -28.324 -12.021  1.00 42.33 LIG 0.24  C 
ATOM     18 O    ILE B  16      -7.507 -27.521 -11.901  1.00 39.29 LIG-0.27  OA
ATOM     19  N   TYR B  17      -8.402 -29.270 -12.941  1.00 46.96 LIG-0.35  N 
ATOM     20 H    TYR B  17      -9.085 -29.771 -13.089  1.00 46.96 LIG 0.16  HD
BRANCH 19 21
ATOM     21  CA  TYR B  17      -7.280 -29.563 -13.788  1.00 51.19 LIG 0.18  C 
BRANCH 21 22
ATOM     22  C   TYR B  17      -6.025 -29.546 -12.991  1.00 56.10 LIG 0.24  C 
ATOM     23  N   ASN B  18      -5.046 -28.770 -13.412  1.00 65.39 LIG-0.35  N 
ATOM     24 H    ASN B  18      -5.135 -28.169 -14.020  1.00 65.39 LIG 0.16  HD
ATOM     25 O    TYR B  17      -5.968 -30.179 -11.953  1.00 61.36 LIG-0.27  OA
BRANCH 23 26
ATOM     26  CA  ASN B  18      -3.689 -28.880 -12.853  1.00 70.74 LIG 0.17  C 
BRANCH 26 27
ATOM     27  CB  ASN B  18      -3.466 -27.741 -11.846  1.00 84.74 LIG 0.14  C 
BRANCH 27 28
ATOM     28  CG  ASN B  18      -3.831 -26.366 -12.422  1.00 96.34 LIG 0.22  C 
ATOM     29 OD1  ASN B  18      -4.241 -26.251 -13.587  1.00 99.44 LIG-0.27  OA
ATOM     30  ND2 ASN B  18      -3.668 -25.314 -11.611  1.00 94.73 LIG-0.37  N 
ATOM     31 21HD ASN B  18      -3.848 -24.522 -11.893  1.00 94.73 LIG 0.16  HD
ATOM     32 22HD ASN B  18      -3.382 -25.429 -10.808  1.00 94.73 LIG 0.16  HD
ENDBRANCH 27 28
ENDBRANCH 26 27
BRANCH 26 33
ATOM     33  C   ASN B  18      -3.247 -30.247 -12.278  1.00 72.97 LIG 0.22  C 
ATOM     34 O    ASN B  18      -2.056 -30.579 -12.180  1.00 74.17 LIG-0.29  OA
ENDBRANCH 26 33
ENDBRANCH 23 26
ENDBRANCH 21 22
BRANCH 21 35
ATOM     35  CB  TYR B  17      -7.167 -28.452 -14.820  1.00 54.83 LIG 0.07  C 
BRANCH 35 36
ATOM     36  CG  TYR B  17      -6.844 -28.993 -16.160  1.00 56.96 LIG-0.06  A 
ATOM     37  CD2 TYR B  17      -6.755 -30.376 -16.356  1.00 61.26 LIG 0.01  A 
ATOM     38  CE2 TYR B  17      -6.443 -30.900 -17.590  1.00 70.21 LIG 0.04  A 
ATOM     39  CZ  TYR B  17      -6.203 -30.029 -18.638  1.00 76.40 LIG 0.07  A 
ATOM     40  CE1 TYR B  17      -6.279 -28.651 -18.465  1.00 67.10 LIG 0.04  A 
ATOM     41  CD1 TYR B  17      -6.594 -28.146 -17.218  1.00 57.92 LIG 0.01  A 
BRANCH 39 42
ATOM     42 OH   TYR B  17      -5.887 -30.545 -19.860  1.00 89.25 LIG-0.36  OA
ATOM     43 HH   TYR B  17      -6.073 -31.364 -19.875  1.00 89.25 LIG 0.22  HD
ENDBRANCH 39 42
ENDBRANCH 35 36
ENDBRANCH 21 35
ENDBRANCH 19 21
ENDBRANCH 12 17
ENDBRANCH 9 12
ENDBRANCH 4 8
BRANCH 1 44
ATOM     44  CA  ARG B  14     -12.092 -26.884  -5.165  1.00 32.45 LIG 0.18  C 
BRANCH 44 45
ATOM     45  N   ARG B  14     -11.746 -28.268  -4.928  1.00 38.19 LIG-0.35  N 
ATOM     46 H    ARG B  14     -11.400 -28.410  -4.153  1.00 38.19 LIG 0.16  HD
ATOM     47  C   PRO B  13     -11.945 -29.235  -5.827  1.00 38.91 LIG 0.24  C 
ATOM     48 O    PRO B  13     -12.449 -29.042  -6.915  1.00 32.88 LIG-0.27  OA
BRANCH 47 49
ATOM     49  CA  PRO B  13     -11.538 -30.660  -5.399  1.00 38.31 LIG 0.18  C 
ATOM     50  N   PRO B  13     -12.649 -31.582  -5.293  1.00 38.88 LIG-0.34  N 
ATOM     51  CD  PRO B  13     -12.385 -32.830  -6.023  1.00 43.50 LIG 0.13  C 
ATOM     52  C   PRO B  12     -13.770 -31.343  -4.593  1.00 40.77 LIG 0.26  C 
ATOM     53  CG  PRO B  13     -10.925 -32.764  -6.314  1.00 43.53 LIG 0.02  C 
ATOM     54  CB  PRO B  13     -10.639 -31.313  -6.450  1.00 39.91 LIG 0.04  C 
ATOM     55 O    PRO B  12     -13.946 -30.326  -3.905  1.00 44.45 LIG-0.27  OA
BRANCH 52 56
ATOM     56  CA  PRO B  12     -14.859 -32.384  -4.664  1.00 38.46 LIG 0.35  C 
ATOM     57  CB  PRO B  12     -15.698 -32.138  -5.920  1.00 43.42 LIG 0.05  C 
ATOM     58  CG  PRO B  12     -17.089 -32.382  -5.502  1.00 41.12 LIG 0.04  C 
ATOM     59  CD  PRO B  12     -17.159 -31.942  -4.069  1.00 39.74 LIG 0.32  C 
ATOM     60  N   PRO B  12     -15.793 -32.166  -3.587  1.00 38.12 LIG 0.32  N 
ENDBRANCH 52 56
ENDBRANCH 47 49
ENDBRANCH 44 45
BRANCH 44 61
ATOM     61  CB  ARG B  14     -11.501 -26.043  -4.028  1.00 34.42 LIG 0.04  C 
BRANCH 61 62
ATOM     62  CG  ARG B  14     -12.415 -24.933  -3.509  1.00 32.66 LIG 0.02  C 
BRANCH 62 63
ATOM     63  CD  ARG B  14     -11.811 -24.335  -2.255  1.00 35.24 LIG 0.14  C 
BRANCH 63 64
ATOM     64  NE  ARG B  14     -10.391 -23.974  -2.417  1.00 42.22 LIG-0.23  N 
ATOM     65  CZ  ARG B  14      -9.423 -24.170  -1.518  1.00 44.72 LIG 0.67  C 
ATOM     66  NH2 ARG B  14      -9.671 -24.713  -0.341  1.00 43.48 LIG-0.23  N 
ATOM     67  NH1 ARG B  14      -8.188 -23.800  -1.800  1.00 46.51 LIG-0.23  N 
ATOM     68 1HH2 ARG B  14     -10.472 -24.951  -0.137  1.00 43.48 LIG 0.17  HD
ATOM     69 2HH2 ARG B  14      -9.030 -24.830   0.221  1.00 43.48 LIG 0.17  HD
ATOM     70 2HH1 ARG B  14      -7.560 -23.924  -1.225  1.00 46.51 LIG 0.17  HD
ATOM     71 1HH1 ARG B  14      -8.010 -23.436  -2.558  1.00 46.51 LIG 0.17  HD
ATOM     72 HE   ARG B  14     -10.165 -23.603  -3.159  1.00 42.22 LIG 0.18  HD
ENDBRANCH 63 64
ENDBRANCH 62 63
ENDBRANCH 61 62
ENDBRANCH 44 61
ENDBRANCH 1 44
TORSDOF 22
ENDMDL
MODEL 63
USER: ADFR SOLUTION from run 132
USER: SCORE 22.397010 LL:  -4.778 LR: -18.784 RR:   0.000 FEB: -12.221
USER: RMSD 12.261579
USER: SEED 131
USER: STATUS no improvement in best in 29 clusters for 5 generations
USER: GENES 24
USER: genes 0 Translation |==|  0.62031 0.46931 0.38548
USER: genes 1 Rotation |==|  0.26474 0.08389 0.35614 0.52847
USER: genes 2 Torsion [N]-CA--C-[O] |==|  0.81784
USER: genes 3 Torsion [C]-N--CA-[CB] |==|  0.44882
USER: genes 4 Torsion [N]-CA--CB-[CG2] |==|  0.73517
USER: genes 5 Torsion [CA]-CB--CG1-[CD1] |==|  0.52563
USER: genes 6 Torsion [N]-CA--C-[N] |==|  0.43762
USER: genes 7 Torsion [C]-N--CA-[C] |==|  0.83816
USER: genes 8 Torsion [N]-CA--C-[N] |==|  0.36240
USER: genes 9 Torsion [C]-N--CA-[CB] |==|  0.44866
USER: genes 10 Torsion [N]-CA--CB-[CG] |==|  0.86450
USER: genes 11 Torsion [CA]-CB--CG-[ND2] |==|  0.43854
USER: genes 12 Torsion [N]-CA--C-[O] |==|  0.16103
USER: genes 13 Torsion [N]-CA--CB-[CG] |==|  0.66916
USER: genes 14 Torsion [CA]-CB--CG-[CD2] |==|  0.15703
USER: genes 15 Torsion [CE2]-CZ--OH-[HH] |==|  0.23699
USER: genes 16 Torsion [N]-C--CA-[N] |==|  0.33383
USER: genes 17 Torsion [C]-CA--N-[C] |==|  0.79395
USER: genes 18 Torsion [N]-C--CA-[N] |==|  0.49428
USER: genes 19 Torsion [N]-C--CA-[CB] |==|  0.64066
USER: genes 20 Torsion [C]-CA--CB-[CG] |==|  0.14779
USER: genes 21 Torsion [CA]-CB--CG-[CD] |==|  0.13716
USER: genes 22 Torsion [CB]-CG--CD-[NE] |==|  0.43578
USER: genes 23 Torsion [CG]-CD--NE-[CZ] |==|  0.41131
ROOT
ATOM      1  C   ARG B  14      -6.742 -29.221 -15.111  1.00 32.92 LIG 0.24  C 
ATOM      2 O    ARG B  14      -7.951 -29.017 -15.232  1.00 37.82 LIG-0.27  OA
ATOM      3  N   PRO B  15      -6.217 -29.920 -14.100  1.00 31.88 LIG-0.34  N 
ATOM      4  CA  PRO B  15      -7.091 -30.521 -13.090  1.00 30.79 LIG 0.18  C 
ATOM      5  CB  PRO B  15      -6.121 -31.270 -12.199  1.00 31.22 LIG 0.04  C 
ATOM      6  CG  PRO B  15      -5.013 -31.634 -13.136  1.00 29.82 LIG 0.02  C 
ATOM      7  CD  PRO B  15      -4.834 -30.411 -13.975  1.00 31.43 LIG 0.13  C 
ENDROOT
BRANCH 4 8
ATOM      8  C   PRO B  15      -7.773 -29.436 -12.295  1.00 33.68 LIG 0.24  C 
ATOM      9  N   ILE B  16      -9.075 -29.315 -12.470  1.00 35.41 LIG-0.35  N 
ATOM     10 H    ILE B  16      -9.532 -29.766 -13.043  1.00 35.41 LIG 0.16  HD
ATOM     11 O    PRO B  15      -7.122 -28.691 -11.579  1.00 34.05 LIG-0.27  OA
BRANCH 9 12
ATOM     12  CA  ILE B  16      -9.824 -28.409 -11.702  1.00 37.77 LIG 0.18  C 
BRANCH 12 13
ATOM     13  CB  ILE B  16     -11.167 -28.104 -12.348  1.00 42.27 LIG 0.01  C 
ATOM     14  CG2 ILE B  16     -11.067 -26.848 -13.165  1.00 44.80 LIG 0.01  C 
BRANCH 13 15
ATOM     15  CG1 ILE B  16     -11.588 -29.320 -13.193  1.00 47.53 LIG 0.00  C 
ATOM     16  CD1 ILE B  16     -12.804 -29.116 -14.090  1.00 51.74 LIG 0.01  C 
ENDBRANCH 13 15
ENDBRANCH 12 13
BRANCH 12 17
ATOM     17  C   ILE B  16      -9.947 -29.043 -10.354  1.00 42.33 LIG 0.24  C 
ATOM     18 O    ILE B  16      -9.780 -30.221 -10.204  1.00 39.29 LIG-0.27  OA
ATOM     19  N   TYR B  17     -10.193 -28.205  -9.364  1.00 46.96 LIG-0.35  N 
ATOM     20 H    TYR B  17     -10.418 -27.385  -9.490  1.00 46.96 LIG 0.16  HD
BRANCH 19 21
ATOM     21  CA  TYR B  17     -10.114 -28.573  -7.978  1.00 51.19 LIG 0.18  C 
BRANCH 21 22
ATOM     22  C   TYR B  17     -11.041 -29.702  -7.701  1.00 56.10 LIG 0.24  C 
ATOM     23  N   ASN B  18     -10.557 -30.742  -7.050  1.00 65.39 LIG-0.35  N 
ATOM     24 H    ASN B  18      -9.796 -30.749  -6.650  1.00 65.39 LIG 0.16  HD
ATOM     25 O    TYR B  17     -12.213 -29.604  -8.012  1.00 61.36 LIG-0.27  OA
BRANCH 23 26
ATOM     26  CA  ASN B  18     -11.308 -32.005  -6.960  1.00 70.74 LIG 0.17  C 
BRANCH 26 27
ATOM     27  CB  ASN B  18     -10.344 -33.136  -6.572  1.00 84.74 LIG 0.14  C 
BRANCH 27 28
ATOM     28  CG  ASN B  18      -9.074 -33.149  -7.433  1.00 96.34 LIG 0.22  C 
ATOM     29 OD1  ASN B  18      -9.062 -32.630  -8.560  1.00 99.44 LIG-0.27  OA
ATOM     30  ND2 ASN B  18      -8.002 -33.761  -6.913  1.00 94.73 LIG-0.37  N 
ATOM     31 21HD ASN B  18      -7.271 -33.804  -7.363  1.00 94.73 LIG 0.16  HD
ATOM     32 22HD ASN B  18      -8.045 -34.111  -6.128  1.00 94.73 LIG 0.16  HD
ENDBRANCH 27 28
ENDBRANCH 26 27
BRANCH 26 33
ATOM     33  C   ASN B  18     -12.594 -32.027  -6.099  1.00 72.97 LIG 0.22  C 
ATOM     34 O    ASN B  18     -13.552 -31.270  -6.308  1.00 74.17 LIG-0.29  OA
ENDBRANCH 26 33
ENDBRANCH 23 26
ENDBRANCH 21 22
BRANCH 21 35
ATOM     35  CB  TYR B  17     -10.591 -27.392  -7.150  1.00 54.83 LIG 0.07  C 
BRANCH 35 36
ATOM     36  CG  TYR B  17      -9.525 -26.901  -6.248  1.00 56.96 LIG-0.06  A 
ATOM     37  CD2 TYR B  17      -8.288 -26.506  -6.771  1.00 61.26 LIG 0.01  A 
ATOM     38  CE2 TYR B  17      -7.279 -26.059  -5.950  1.00 70.21 LIG 0.04  A 
ATOM     39  CZ  TYR B  17      -7.504 -26.021  -4.584  1.00 76.40 LIG 0.07  A 
ATOM     40  CE1 TYR B  17      -8.720 -26.416  -4.040  1.00 67.10 LIG 0.04  A 
ATOM     41  CD1 TYR B  17      -9.722 -26.860  -4.884  1.00 57.92 LIG 0.01  A 
BRANCH 39 42
ATOM     42 OH   TYR B  17      -6.502 -25.586  -3.767  1.00 89.25 LIG-0.36  OA
ATOM     43 HH   TYR B  17      -6.526 -24.748  -3.716  1.00 89.25 LIG 0.22  HD
ENDBRANCH 39 42
ENDBRANCH 35 36
ENDBRANCH 21 35
ENDBRANCH 19 21
ENDBRANCH 12 17
ENDBRANCH 9 12
ENDBRANCH 4 8
BRANCH 1 44
ATOM     44  CA  ARG B  14      -5.797 -28.625 -16.111  1.00 32.45 LIG 0.18  C 
BRANCH 44 45
ATOM     45  N   ARG B  14      -6.202 -29.239 -17.356  1.00 38.19 LIG-0.35  N 
ATOM     46 H    ARG B  14      -6.633 -28.709 -17.879  1.00 38.19 LIG 0.16  HD
ATOM     47  C   PRO B  13      -5.934 -30.511 -17.666  1.00 38.91 LIG 0.24  C 
ATOM     48 O    PRO B  13      -5.311 -31.258 -16.938  1.00 32.88 LIG-0.27  OA
BRANCH 47 49
ATOM     49  CA  PRO B  13      -6.421 -30.995 -19.047  1.00 38.31 LIG 0.18  C 
ATOM     50  N   PRO B  13      -6.063 -32.364 -19.349  1.00 38.88 LIG-0.34  N 
ATOM     51  CD  PRO B  13      -7.226 -33.137 -19.808  1.00 43.50 LIG 0.13  C 
ATOM     52  C   PRO B  12      -4.820 -32.864 -19.253  1.00 40.77 LIG 0.26  C 
ATOM     53  CG  PRO B  13      -8.254 -32.093 -20.083  1.00 43.53 LIG 0.02  C 
ATOM     54  CB  PRO B  13      -7.948 -31.008 -19.116  1.00 39.91 LIG 0.04  C 
ATOM     55 O    PRO B  12      -3.828 -32.182 -18.954  1.00 44.45 LIG-0.27  OA
BRANCH 52 56
ATOM     56  CA  PRO B  12      -4.648 -34.336 -19.528  1.00 38.46 LIG 0.35  C 
ATOM     57  CB  PRO B  12      -3.864 -34.968 -18.376  1.00 43.42 LIG 0.05  C 
ATOM     58  CG  PRO B  12      -2.943 -35.921 -19.018  1.00 41.12 LIG 0.04  C 
ATOM     59  CD  PRO B  12      -2.589 -35.305 -20.340  1.00 39.74 LIG 0.32  C 
ATOM     60  N   PRO B  12      -3.774 -34.507 -20.664  1.00 38.12 LIG 0.32  N 
ENDBRANCH 52 56
ENDBRANCH 47 49
ENDBRANCH 44 45
BRANCH 44 61
ATOM     61  CB  ARG B  14      -6.064 -27.120 -16.212  1.00 34.42 LIG 0.04  C 
BRANCH 61 62
ATOM     62  CG  ARG B  14      -6.041 -26.373 -14.879  1.00 32.66 LIG 0.02  C 
BRANCH 62 63
ATOM     63  CD  ARG B  14      -4.784 -26.745 -14.120  1.00 35.24 LIG 0.14  C 
BRANCH 63 64
ATOM     64  NE  ARG B  14      -4.390 -25.728 -13.129  1.00 42.22 LIG-0.23  N 
ATOM     65  CZ  ARG B  14      -3.775 -25.961 -11.967  1.00 44.72 LIG 0.67  C 
ATOM     66  NH2 ARG B  14      -3.469 -27.184 -11.578  1.00 43.48 LIG-0.23  N 
ATOM     67  NH1 ARG B  14      -3.475 -24.949 -11.174  1.00 46.51 LIG-0.23  N 
ATOM     68 1HH2 ARG B  14      -3.666 -27.856 -12.077  1.00 43.48 LIG 0.17  HD
ATOM     69 2HH2 ARG B  14      -3.072 -27.309 -10.825  1.00 43.48 LIG 0.17  HD
ATOM     70 2HH1 ARG B  14      -3.079 -25.092 -10.424  1.00 46.51 LIG 0.17  HD
ATOM     71 1HH1 ARG B  14      -3.676 -24.146 -11.406  1.00 46.51 LIG 0.17  HD
ATOM     72 HE   ARG B  14      -4.573 -24.908 -13.316  1.00 42.22 LIG 0.18  HD
ENDBRANCH 63 64
ENDBRANCH 62 63
ENDBRANCH 61 62
ENDBRANCH 44 61
ENDBRANCH 1 44
TORSDOF 22
ENDMDL
MODEL 64
USER: ADFR SOLUTION from run 48
USER: SCORE 22.930341 LL:  -5.161 LR: -18.772 RR:   0.000 FEB: -12.209
USER: RMSD 12.957527
USER: SEED 47
USER: STATUS no improvement in best in 9 clusters for 5 generations
USER: GENES 24
USER: genes 0 Translation |==|  0.61815 0.46375 0.38200
USER: genes 1 Rotation |==|  0.25673 0.07901 0.38644 0.52633
USER: genes 2 Torsion [N]-CA--C-[O] |==|  0.80117
USER: genes 3 Torsion [C]-N--CA-[CB] |==|  0.47778
USER: genes 4 Torsion [N]-CA--CB-[CG2] |==|  0.06698
USER: genes 5 Torsion [CA]-CB--CG1-[CD1] |==|  0.23138
USER: genes 6 Torsion [N]-CA--C-[N] |==|  0.39703
USER: genes 7 Torsion [C]-N--CA-[C] |==|  0.81804
USER: genes 8 Torsion [N]-CA--C-[N] |==|  0.43418
USER: genes 9 Torsion [C]-N--CA-[CB] |==|  0.79312
USER: genes 10 Torsion [N]-CA--CB-[CG] |==|  0.66026
USER: genes 11 Torsion [CA]-CB--CG-[ND2] |==|  0.58298
USER: genes 12 Torsion [N]-CA--C-[O] |==|  0.79279
USER: genes 13 Torsion [N]-CA--CB-[CG] |==|  0.31341
USER: genes 14 Torsion [CA]-CB--CG-[CD2] |==|  0.76093
USER: genes 15 Torsion [CE2]-CZ--OH-[HH] |==|  0.86737
USER: genes 16 Torsion [N]-C--CA-[N] |==|  0.39801
USER: genes 17 Torsion [C]-CA--N-[C] |==|  0.75692
USER: genes 18 Torsion [N]-C--CA-[N] |==|  0.22630
USER: genes 19 Torsion [N]-C--CA-[CB] |==|  0.53397
USER: genes 20 Torsion [C]-CA--CB-[CG] |==|  0.24672
USER: genes 21 Torsion [CA]-CB--CG-[CD] |==|  0.79725
USER: genes 22 Torsion [CB]-CG--CD-[NE] |==|  0.62348
USER: genes 23 Torsion [CG]-CD--NE-[CZ] |==|  0.65381
ROOT
ATOM      1  C   ARG B  14      -6.791 -29.326 -15.208  1.00 32.92 LIG 0.24  C 
ATOM      2 O    ARG B  14      -8.003 -29.117 -15.281  1.00 37.82 LIG-0.27  OA
ATOM      3  N   PRO B  15      -6.214 -29.915 -14.157  1.00 31.88 LIG-0.34  N 
ATOM      4  CA  PRO B  15      -7.033 -30.385 -13.036  1.00 30.79 LIG 0.18  C 
ATOM      5  CB  PRO B  15      -6.020 -31.046 -12.124  1.00 31.22 LIG 0.04  C 
ATOM      6  CG  PRO B  15      -4.972 -31.531 -13.075  1.00 29.82 LIG 0.02  C 
ATOM      7  CD  PRO B  15      -4.831 -30.412 -14.056  1.00 31.43 LIG 0.13  C 
ENDROOT
BRANCH 4 8
ATOM      8  C   PRO B  15      -7.657 -29.208 -12.331  1.00 33.68 LIG 0.24  C 
ATOM      9  N   ILE B  16      -8.945 -29.015 -12.543  1.00 35.41 LIG-0.35  N 
ATOM     10 H    ILE B  16      -9.420 -29.473 -13.096  1.00 35.41 LIG 0.16  HD
ATOM     11 O    PRO B  15      -6.971 -28.459 -11.652  1.00 34.05 LIG-0.27  OA
BRANCH 9 12
ATOM     12  CA  ILE B  16      -9.646 -28.013 -11.855  1.00 37.77 LIG 0.18  C 
BRANCH 12 13
ATOM     13  CB  ILE B  16     -11.057 -27.845 -12.396  1.00 42.27 LIG 0.01  C 
ATOM     14  CG2 ILE B  16     -11.503 -29.114 -13.063  1.00 44.80 LIG 0.01  C 
BRANCH 13 15
ATOM     15  CG1 ILE B  16     -11.980 -27.440 -11.233  1.00 47.53 LIG 0.00  C 
ATOM     16  CD1 ILE B  16     -11.999 -25.955 -10.885  1.00 51.74 LIG 0.01  C 
ENDBRANCH 13 15
ENDBRANCH 12 13
BRANCH 12 17
ATOM     17  C   ILE B  16      -9.609 -28.423 -10.417  1.00 42.33 LIG 0.24  C 
ATOM     18 O    ILE B  16      -9.645 -29.579 -10.100  1.00 39.29 LIG-0.27  OA
ATOM     19  N   TYR B  17      -9.483 -27.430  -9.557  1.00 46.96 LIG-0.35  N 
ATOM     20 H    TYR B  17      -9.567 -26.604  -9.779  1.00 46.96 LIG 0.16  HD
BRANCH 19 21
ATOM     21  CA  TYR B  17      -9.194 -27.623  -8.164  1.00 51.19 LIG 0.18  C 
BRANCH 21 22
ATOM     22  C   TYR B  17     -10.327 -28.323  -7.504  1.00 56.10 LIG 0.24  C 
ATOM     23  N   ASN B  18     -10.069 -28.995  -6.399  1.00 65.39 LIG-0.35  N 
ATOM     24 H    ASN B  18      -9.333 -28.933  -5.959  1.00 65.39 LIG 0.16  HD
ATOM     25 O    TYR B  17     -11.451 -28.198  -7.954  1.00 61.36 LIG-0.27  OA
BRANCH 23 26
ATOM     26  CA  ASN B  18     -11.051 -29.928  -5.823  1.00 70.74 LIG 0.17  C 
BRANCH 26 27
ATOM     27  CB  ASN B  18     -12.176 -29.123  -5.155  1.00 84.74 LIG 0.14  C 
BRANCH 27 28
ATOM     28  CG  ASN B  18     -12.341 -29.465  -3.669  1.00 96.34 LIG 0.22  C 
ATOM     29 OD1  ASN B  18     -11.376 -29.851  -2.991  1.00 99.44 LIG-0.27  OA
ATOM     30  ND2 ASN B  18     -13.573 -29.341  -3.158  1.00 94.73 LIG-0.37  N 
ATOM     31 21HD ASN B  18     -13.717 -29.533  -2.332  1.00 94.73 LIG 0.16  HD
ATOM     32 22HD ASN B  18     -14.220 -29.071  -3.656  1.00 94.73 LIG 0.16  HD
ENDBRANCH 27 28
ENDBRANCH 26 27
BRANCH 26 33
ATOM     33  C   ASN B  18     -11.610 -31.049  -6.732  1.00 72.97 LIG 0.22  C 
ATOM     34 O    ASN B  18     -12.443 -30.834  -7.625  1.00 74.17 LIG-0.29  OA
ENDBRANCH 26 33
ENDBRANCH 23 26
ENDBRANCH 21 22
BRANCH 21 35
ATOM     35  CB  TYR B  17      -9.077 -26.254  -7.514  1.00 54.83 LIG 0.07  C 
BRANCH 35 36
ATOM     36  CG  TYR B  17     -10.181 -26.017  -6.556  1.00 56.96 LIG-0.06  A 
ATOM     37  CD2 TYR B  17     -11.402 -25.502  -7.005  1.00 61.26 LIG 0.01  A 
ATOM     38  CE2 TYR B  17     -12.437 -25.262  -6.130  1.00 70.21 LIG 0.04  A 
ATOM     39  CZ  TYR B  17     -12.243 -25.527  -4.786  1.00 76.40 LIG 0.07  A 
ATOM     40  CE1 TYR B  17     -11.036 -26.030  -4.315  1.00 67.10 LIG 0.04  A 
ATOM     41  CD1 TYR B  17     -10.009 -26.266  -5.211  1.00 57.92 LIG 0.01  A 
BRANCH 39 42
ATOM     42 OH   TYR B  17     -13.264 -25.282  -3.915  1.00 89.25 LIG-0.36  OA
ATOM     43 HH   TYR B  17     -13.580 -24.518  -4.061  1.00 89.25 LIG 0.22  HD
ENDBRANCH 39 42
ENDBRANCH 35 36
ENDBRANCH 21 35
ENDBRANCH 19 21
ENDBRANCH 12 17
ENDBRANCH 9 12
ENDBRANCH 4 8
BRANCH 1 44
ATOM     44  CA  ARG B  14      -5.900 -28.861 -16.321  1.00 32.45 LIG 0.18  C 
BRANCH 44 45
ATOM     45  N   ARG B  14      -6.684 -29.128 -17.506  1.00 38.19 LIG-0.35  N 
ATOM     46 H    ARG B  14      -7.163 -28.461 -17.761  1.00 38.19 LIG 0.16  HD
ATOM     47  C   PRO B  13      -6.667 -30.302 -18.144  1.00 38.91 LIG 0.24  C 
ATOM     48 O    PRO B  13      -5.980 -31.241 -17.796  1.00 32.88 LIG-0.27  OA
BRANCH 47 49
ATOM     49  CA  PRO B  13      -7.548 -30.406 -19.406  1.00 38.31 LIG 0.18  C 
ATOM     50  N   PRO B  13      -6.941 -29.847 -20.595  1.00 38.88 LIG-0.34  N 
ATOM     51  CD  PRO B  13      -7.000 -30.787 -21.723  1.00 43.50 LIG 0.13  C 
ATOM     52  C   PRO B  12      -6.414 -28.614 -20.671  1.00 40.77 LIG 0.26  C 
ATOM     53  CG  PRO B  13      -7.963 -31.827 -21.263  1.00 43.53 LIG 0.02  C 
ATOM     54  CB  PRO B  13      -7.789 -31.866 -19.788  1.00 39.91 LIG 0.04  C 
ATOM     55 O    PRO B  12      -6.450 -27.794 -19.741  1.00 44.45 LIG-0.27  OA
BRANCH 52 56
ATOM     56  CA  PRO B  12      -5.746 -28.231 -21.968  1.00 38.46 LIG 0.35  C 
ATOM     57  CB  PRO B  12      -4.957 -26.938 -21.756  1.00 43.42 LIG 0.05  C 
ATOM     58  CG  PRO B  12      -5.181 -26.149 -22.980  1.00 41.12 LIG 0.04  C 
ATOM     59  CD  PRO B  12      -6.574 -26.489 -23.423  1.00 39.74 LIG 0.32  C 
ATOM     60  N   PRO B  12      -6.757 -27.855 -22.927  1.00 38.12 LIG 0.32  N 
ENDBRANCH 52 56
ENDBRANCH 47 49
ENDBRANCH 44 45
BRANCH 44 61
ATOM     61  CB  ARG B  14      -5.711 -27.345 -16.206  1.00 34.42 LIG 0.04  C 
BRANCH 61 62
ATOM     62  CG  ARG B  14      -4.537 -26.908 -15.329  1.00 32.66 LIG 0.02  C 
BRANCH 62 63
ATOM     63  CD  ARG B  14      -4.885 -27.147 -13.874  1.00 35.24 LIG 0.14  C 
BRANCH 63 64
ATOM     64  NE  ARG B  14      -4.518 -26.016 -13.003  1.00 42.22 LIG-0.23  N 
ATOM     65  CZ  ARG B  14      -3.739 -26.079 -11.921  1.00 44.72 LIG 0.67  C 
ATOM     66  NH2 ARG B  14      -3.220 -27.219 -11.506  1.00 43.48 LIG-0.23  N 
ATOM     67  NH1 ARG B  14      -3.488 -24.980 -11.234  1.00 46.51 LIG-0.23  N 
ATOM     68 1HH2 ARG B  14      -3.382 -27.946 -11.936  1.00 43.48 LIG 0.17  HD
ATOM     69 2HH2 ARG B  14      -2.721 -27.234 -10.806  1.00 43.48 LIG 0.17  HD
ATOM     70 2HH1 ARG B  14      -2.987 -25.014 -10.535  1.00 46.51 LIG 0.17  HD
ATOM     71 1HH1 ARG B  14      -3.825 -24.230 -11.484  1.00 46.51 LIG 0.17  HD
ATOM     72 HE   ARG B  14      -4.835 -25.244 -13.212  1.00 42.22 LIG 0.18  HD
ENDBRANCH 63 64
ENDBRANCH 62 63
ENDBRANCH 61 62
ENDBRANCH 44 61
ENDBRANCH 1 44
TORSDOF 22
ENDMDL
MODEL 65
USER: ADFR SOLUTION from run 192
USER: SCORE 21.861177 LL:  -4.452 LR: -18.750 RR:   0.000 FEB: -12.187
USER: RMSD 6.754789
USER: SEED 191
USER: STATUS searching
USER: GENES 24
USER: genes 0 Translation |==|  0.41029 0.43094 0.66062
USER: genes 1 Rotation |==|  0.70551 0.63098 0.15486 0.76738
USER: genes 2 Torsion [N]-CA--C-[O] |==|  0.21822
USER: genes 3 Torsion [C]-N--CA-[CB] |==|  0.21684
USER: genes 4 Torsion [N]-CA--CB-[CG2] |==|  0.71539
USER: genes 5 Torsion [CA]-CB--CG1-[CD1] |==|  0.70370
USER: genes 6 Torsion [N]-CA--C-[N] |==|  0.37778
USER: genes 7 Torsion [C]-N--CA-[C] |==|  0.80890
USER: genes 8 Torsion [N]-CA--C-[N] |==|  0.38129
USER: genes 9 Torsion [C]-N--CA-[CB] |==|  0.25897
USER: genes 10 Torsion [N]-CA--CB-[CG] |==|  0.14896
USER: genes 11 Torsion [CA]-CB--CG-[ND2] |==|  0.48865
USER: genes 12 Torsion [N]-CA--C-[O] |==|  0.96674
USER: genes 13 Torsion [N]-CA--CB-[CG] |==|  0.56147
USER: genes 14 Torsion [CA]-CB--CG-[CD2] |==|  0.57294
USER: genes 15 Torsion [CE2]-CZ--OH-[HH] |==|  0.68407
USER: genes 16 Torsion [N]-C--CA-[N] |==|  0.49853
USER: genes 17 Torsion [C]-CA--N-[C] |==|  0.71874
USER: genes 18 Torsion [N]-C--CA-[N] |==|  0.20924
USER: genes 19 Torsion [N]-C--CA-[CB] |==|  0.65199
USER: genes 20 Torsion [C]-CA--CB-[CG] |==|  0.51833
USER: genes 21 Torsion [CA]-CB--CG-[CD] |==|  0.79825
USER: genes 22 Torsion [CB]-CG--CD-[NE] |==|  0.53646
USER: genes 23 Torsion [CG]-CD--NE-[CZ] |==|  0.18948
ROOT
ATOM      1  C   ARG B  14     -11.467 -29.941  -7.476  1.00 32.92 LIG 0.24  C 
ATOM      2 O    ARG B  14     -12.450 -30.064  -8.209  1.00 37.82 LIG-0.27  OA
ATOM      3  N   PRO B  15     -10.549 -28.985  -7.640  1.00 31.88 LIG-0.34  N 
ATOM      4  CA  PRO B  15     -10.703 -27.992  -8.707  1.00 30.79 LIG 0.18  C 
ATOM      5  CB  PRO B  15      -9.520 -27.071  -8.492  1.00 31.22 LIG 0.04  C 
ATOM      6  CG  PRO B  15      -9.287 -27.157  -7.017  1.00 29.82 LIG 0.02  C 
ATOM      7  CD  PRO B  15      -9.473 -28.608  -6.708  1.00 31.43 LIG 0.13  C 
ENDROOT
BRANCH 4 8
ATOM      8  C   PRO B  15     -10.583 -28.666 -10.051  1.00 33.68 LIG 0.24  C 
ATOM      9  N   ILE B  16      -9.446 -28.485 -10.695  1.00 35.41 LIG-0.35  N 
ATOM     10 H    ILE B  16      -8.814 -27.966 -10.428  1.00 35.41 LIG 0.16  HD
ATOM     11 O    PRO B  15     -11.523 -29.293 -10.515  1.00 34.05 LIG-0.27  OA
BRANCH 9 12
ATOM     12  CA  ILE B  16      -9.189 -29.152 -11.903  1.00 37.77 LIG 0.18  C 
BRANCH 12 13
ATOM     13  CB  ILE B  16      -9.913 -28.498 -13.070  1.00 42.27 LIG 0.01  C 
ATOM     14  CG2 ILE B  16     -11.128 -29.302 -13.433  1.00 44.80 LIG 0.01  C 
BRANCH 13 15
ATOM     15  CG1 ILE B  16     -10.264 -27.052 -12.676  1.00 47.53 LIG 0.00  C 
ATOM     16  CD1 ILE B  16     -11.735 -26.784 -12.374  1.00 51.74 LIG 0.01  C 
ENDBRANCH 13 15
ENDBRANCH 12 13
BRANCH 12 17
ATOM     17  C   ILE B  16      -7.701 -29.142 -12.050  1.00 42.33 LIG 0.24  C 
ATOM     18 O    ILE B  16      -7.057 -28.167 -11.779  1.00 39.29 LIG-0.27  OA
ATOM     19  N   TYR B  17      -7.171 -30.286 -12.440  1.00 46.96 LIG-0.35  N 
ATOM     20 H    TYR B  17      -7.640 -30.943 -12.735  1.00 46.96 LIG 0.16  HD
BRANCH 19 21
ATOM     21  CA  TYR B  17      -5.761 -30.554 -12.414  1.00 51.19 LIG 0.18  C 
BRANCH 21 22
ATOM     22  C   TYR B  17      -5.069 -29.720 -13.433  1.00 56.10 LIG 0.24  C 
ATOM     23  N   ASN B  18      -3.933 -29.148 -13.083  1.00 65.39 LIG-0.35  N 
ATOM     24 H    ASN B  18      -3.496 -29.342 -12.369  1.00 65.39 LIG 0.16  HD
ATOM     25 O    TYR B  17      -5.525 -29.651 -14.559  1.00 61.36 LIG-0.27  OA
BRANCH 23 26
ATOM     26  CA  ASN B  18      -3.314 -28.104 -13.916  1.00 70.74 LIG 0.17  C 
BRANCH 26 27
ATOM     27  CB  ASN B  18      -3.777 -26.725 -13.421  1.00 84.74 LIG 0.14  C 
BRANCH 27 28
ATOM     28  CG  ASN B  18      -3.526 -26.524 -11.921  1.00 96.34 LIG 0.22  C 
ATOM     29 OD1  ASN B  18      -3.089 -27.448 -11.217  1.00 99.44 LIG-0.27  OA
ATOM     30  ND2 ASN B  18      -3.822 -25.318 -11.419  1.00 94.73 LIG-0.37  N 
ATOM     31 21HD ASN B  18      -3.709 -25.162 -10.581  1.00 94.73 LIG 0.16  HD
ATOM     32 22HD ASN B  18      -4.124 -24.700 -11.935  1.00 94.73 LIG 0.16  HD
ENDBRANCH 27 28
ENDBRANCH 26 27
BRANCH 26 33
ATOM     33  C   ASN B  18      -1.782 -28.153 -14.125  1.00 72.97 LIG 0.22  C 
ATOM     34 O    ASN B  18      -1.038 -28.888 -13.459  1.00 74.17 LIG-0.29  OA
ENDBRANCH 26 33
ENDBRANCH 23 26
ENDBRANCH 21 22
BRANCH 21 35
ATOM     35  CB  TYR B  17      -5.550 -32.006 -12.810  1.00 54.83 LIG 0.07  C 
BRANCH 35 36
ATOM     36  CG  TYR B  17      -4.249 -32.514 -12.319  1.00 56.96 LIG-0.06  A 
ATOM     37  CD2 TYR B  17      -3.610 -33.566 -12.986  1.00 61.26 LIG 0.01  A 
ATOM     38  CE2 TYR B  17      -2.407 -34.063 -12.540  1.00 70.21 LIG 0.04  A 
ATOM     39  CZ  TYR B  17      -1.843 -33.512 -11.402  1.00 76.40 LIG 0.07  A 
ATOM     40  CE1 TYR B  17      -2.463 -32.472 -10.719  1.00 67.10 LIG 0.04  A 
ATOM     41  CD1 TYR B  17      -3.671 -31.986 -11.185  1.00 57.92 LIG 0.01  A 
BRANCH 39 42
ATOM     42 OH   TYR B  17      -0.654 -34.008 -10.954  1.00 89.25 LIG-0.36  OA
ATOM     43 HH   TYR B  17      -0.769 -34.382 -10.211  1.00 89.25 LIG 0.22  HD
ENDBRANCH 39 42
ENDBRANCH 35 36
ENDBRANCH 21 35
ENDBRANCH 19 21
ENDBRANCH 12 17
ENDBRANCH 9 12
ENDBRANCH 4 8
BRANCH 1 44
ATOM     44  CA  ARG B  14     -11.253 -30.931  -6.370  1.00 32.45 LIG 0.18  C 
BRANCH 44 45
ATOM     45  N   ARG B  14     -12.410 -31.792  -6.467  1.00 38.19 LIG-0.35  N 
ATOM     46 H    ARG B  14     -12.355 -32.376  -7.096  1.00 38.19 LIG 0.16  HD
ATOM     47  C   PRO B  13     -13.466 -31.690  -5.656  1.00 38.91 LIG 0.24  C 
ATOM     48 O    PRO B  13     -13.541 -30.878  -4.755  1.00 32.88 LIG-0.27  OA
BRANCH 47 49
ATOM     49  CA  PRO B  13     -14.604 -32.706  -5.885  1.00 38.31 LIG 0.18  C 
ATOM     50  N   PRO B  13     -14.310 -34.038  -5.401  1.00 38.88 LIG-0.34  N 
ATOM     51  CD  PRO B  13     -15.398 -34.559  -4.560  1.00 43.50 LIG 0.13  C 
ATOM     52  C   PRO B  12     -13.197 -34.727  -5.702  1.00 40.77 LIG 0.26  C 
ATOM     53  CG  PRO B  13     -16.521 -33.613  -4.815  1.00 43.53 LIG 0.02  C 
ATOM     54  CB  PRO B  13     -15.855 -32.315  -5.099  1.00 39.91 LIG 0.04  C 
ATOM     55 O    PRO B  12     -12.327 -34.317  -6.485  1.00 44.45 LIG-0.27  OA
BRANCH 52 56
ATOM     56  CA  PRO B  12     -13.020 -36.069  -5.037  1.00 38.46 LIG 0.35  C 
ATOM     57  CB  PRO B  12     -11.669 -36.093  -4.319  1.00 43.42 LIG 0.05  C 
ATOM     58  CG  PRO B  12     -11.128 -37.440  -4.568  1.00 41.12 LIG 0.04  C 
ATOM     59  CD  PRO B  12     -11.618 -37.820  -5.935  1.00 39.74 LIG 0.32  C 
ATOM     60  N   PRO B  12     -12.879 -37.085  -6.052  1.00 38.12 LIG 0.32  N 
ENDBRANCH 52 56
ENDBRANCH 47 49
ENDBRANCH 44 45
BRANCH 44 61
ATOM     61  CB  ARG B  14     -10.008 -31.767  -6.686  1.00 34.42 LIG 0.04  C 
BRANCH 61 62
ATOM     62  CG  ARG B  14      -9.752 -32.927  -5.725  1.00 32.66 LIG 0.02  C 
BRANCH 62 63
ATOM     63  CD  ARG B  14      -9.265 -32.379  -4.399  1.00 35.24 LIG 0.14  C 
BRANCH 63 64
ATOM     64  NE  ARG B  14      -8.703 -33.419  -3.520  1.00 42.22 LIG-0.23  N 
ATOM     65  CZ  ARG B  14      -7.571 -34.096  -3.728  1.00 44.72 LIG 0.67  C 
ATOM     66  NH2 ARG B  14      -6.832 -33.896  -4.802  1.00 43.48 LIG-0.23  N 
ATOM     67  NH1 ARG B  14      -7.183 -35.002  -2.850  1.00 46.51 LIG-0.23  N 
ATOM     68 1HH2 ARG B  14      -7.075 -33.317  -5.390  1.00 43.48 LIG 0.17  HD
ATOM     69 2HH2 ARG B  14      -6.106 -34.344  -4.914  1.00 43.48 LIG 0.17  HD
ATOM     70 2HH1 ARG B  14      -6.455 -35.442  -2.979  1.00 46.51 LIG 0.17  HD
ATOM     71 1HH1 ARG B  14      -7.657 -35.153  -2.149  1.00 46.51 LIG 0.17  HD
ATOM     72 HE   ARG B  14      -9.145 -33.609  -2.806  1.00 42.22 LIG 0.18  HD
ENDBRANCH 63 64
ENDBRANCH 62 63
ENDBRANCH 61 62
ENDBRANCH 44 61
ENDBRANCH 1 44
TORSDOF 22
ENDMDL
MODEL 66
USER: ADFR SOLUTION from run 15
USER: SCORE 22.621852 LL:  -5.409 LR: -18.727 RR:   0.000 FEB: -12.165
USER: RMSD 6.685548
USER: SEED 85495
USER: STATUS no improvement in best in 6 clusters for 5 generations
USER: GENES 24
USER: genes 0 Translation |==|  0.47502 0.50026 0.66445
USER: genes 1 Rotation |==|  0.30067 0.72008 0.72220 0.83535
USER: genes 2 Torsion [N]-CA--C-[O] |==|  0.45756
USER: genes 3 Torsion [C]-N--CA-[CB] |==|  0.46111
USER: genes 4 Torsion [N]-CA--CB-[CG2] |==|  0.29993
USER: genes 5 Torsion [CA]-CB--CG1-[CD1] |==|  0.93721
USER: genes 6 Torsion [N]-CA--C-[N] |==|  0.36115
USER: genes 7 Torsion [C]-N--CA-[C] |==|  0.76794
USER: genes 8 Torsion [N]-CA--C-[N] |==|  0.49770
USER: genes 9 Torsion [C]-N--CA-[CB] |==|  0.43991
USER: genes 10 Torsion [N]-CA--CB-[CG] |==|  0.83117
USER: genes 11 Torsion [CA]-CB--CG-[ND2] |==|  0.79413
USER: genes 12 Torsion [N]-CA--C-[O] |==|  0.75385
USER: genes 13 Torsion [N]-CA--CB-[CG] |==|  0.63067
USER: genes 14 Torsion [CA]-CB--CG-[CD2] |==|  0.49557
USER: genes 15 Torsion [CE2]-CZ--OH-[HH] |==|  0.81512
USER: genes 16 Torsion [N]-C--CA-[N] |==|  0.35728
USER: genes 17 Torsion [C]-CA--N-[C] |==|  0.72604
USER: genes 18 Torsion [N]-C--CA-[N] |==|  0.74889
USER: genes 19 Torsion [N]-C--CA-[CB] |==|  0.59765
USER: genes 20 Torsion [C]-CA--CB-[CG] |==|  0.38104
USER: genes 21 Torsion [CA]-CB--CG-[CD] |==|  0.02390
USER: genes 22 Torsion [CB]-CG--CD-[NE] |==|  0.29338
USER: genes 23 Torsion [CG]-CD--NE-[CZ] |==|  0.47492
ROOT
ATOM      1  C   ARG B  14     -10.011 -28.641  -7.369  1.00 32.92 LIG 0.24  C 
ATOM      2 O    ARG B  14      -8.936 -28.730  -7.965  1.00 37.82 LIG-0.27  OA
ATOM      3  N   PRO B  15     -10.925 -29.615  -7.363  1.00 31.88 LIG-0.34  N 
ATOM      4  CA  PRO B  15     -10.656 -30.880  -8.052  1.00 30.79 LIG 0.18  C 
ATOM      5  CB  PRO B  15     -11.882 -31.711  -7.734  1.00 31.22 LIG 0.04  C 
ATOM      6  CG  PRO B  15     -12.309 -31.189  -6.399  1.00 29.82 LIG 0.02  C 
ATOM      7  CD  PRO B  15     -12.126 -29.710  -6.517  1.00 31.43 LIG 0.13  C 
ENDROOT
BRANCH 4 8
ATOM      8  C   PRO B  15     -10.576 -30.644  -9.539  1.00 33.68 LIG 0.24  C 
ATOM      9  N   ILE B  16     -11.105 -29.519  -9.981  1.00 35.41 LIG-0.35  N 
ATOM     10 H    ILE B  16     -11.537 -28.959  -9.489  1.00 35.41 LIG 0.16  HD
ATOM     11 O    PRO B  15     -10.092 -31.490 -10.275  1.00 34.05 LIG-0.27  OA
BRANCH 9 12
ATOM     12  CA  ILE B  16     -10.992 -29.150 -11.331  1.00 37.77 LIG 0.18  C 
BRANCH 12 13
ATOM     13  CB  ILE B  16     -11.946 -28.020 -11.685  1.00 42.27 LIG 0.01  C 
ATOM     14  CG2 ILE B  16     -11.176 -26.747 -11.889  1.00 44.80 LIG 0.01  C 
BRANCH 13 15
ATOM     15  CG1 ILE B  16     -12.743 -28.430 -12.936  1.00 47.53 LIG 0.00  C 
ATOM     16  CD1 ILE B  16     -12.098 -29.495 -13.816  1.00 51.74 LIG 0.01  C 
ENDBRANCH 13 15
ENDBRANCH 12 13
BRANCH 12 17
ATOM     17  C   ILE B  16      -9.553 -28.792 -11.522  1.00 42.33 LIG 0.24  C 
ATOM     18 O    ILE B  16      -8.986 -28.069 -10.751  1.00 39.29 LIG-0.27  OA
ATOM     19  N   TYR B  17      -8.967 -29.368 -12.554  1.00 46.96 LIG-0.35  N 
ATOM     20 H    TYR B  17      -9.401 -29.795 -13.162  1.00 46.96 LIG 0.16  HD
BRANCH 19 21
ATOM     21  CA  TYR B  17      -7.548 -29.344 -12.773  1.00 51.19 LIG 0.18  C 
BRANCH 21 22
ATOM     22  C   TYR B  17      -7.163 -28.077 -13.450  1.00 56.10 LIG 0.24  C 
ATOM     23  N   ASN B  18      -5.884 -27.889 -13.709  1.00 65.39 LIG-0.35  N 
ATOM     24 H    ASN B  18      -5.285 -28.504 -13.652  1.00 65.39 LIG 0.16  HD
ATOM     25 O    TYR B  17      -8.030 -27.300 -13.803  1.00 61.36 LIG-0.27  OA
BRANCH 23 26
ATOM     26  CA  ASN B  18      -5.373 -26.574 -14.129  1.00 70.74 LIG 0.17  C 
BRANCH 26 27
ATOM     27  CB  ASN B  18      -3.867 -26.503 -13.837  1.00 84.74 LIG 0.14  C 
BRANCH 27 28
ATOM     28  CG  ASN B  18      -3.548 -26.666 -12.346  1.00 96.34 LIG 0.22  C 
ATOM     29 OD1  ASN B  18      -3.074 -27.726 -11.906  1.00 99.44 LIG-0.27  OA
ATOM     30  ND2 ASN B  18      -3.824 -25.621 -11.555  1.00 94.73 LIG-0.37  N 
ATOM     31 21HD ASN B  18      -3.673 -25.670 -10.710  1.00 94.73 LIG 0.16  HD
ATOM     32 22HD ASN B  18      -4.152 -24.901 -11.892  1.00 94.73 LIG 0.16  HD
ENDBRANCH 27 28
ENDBRANCH 26 27
BRANCH 26 33
ATOM     33  C   ASN B  18      -5.703 -26.089 -15.561  1.00 72.97 LIG 0.22  C 
ATOM     34 O    ASN B  18      -4.987 -26.351 -16.539  1.00 74.17 LIG-0.29  OA
ENDBRANCH 26 33
ENDBRANCH 23 26
ENDBRANCH 21 22
BRANCH 21 35
ATOM     35  CB  TYR B  17      -7.199 -30.479 -13.721  1.00 54.83 LIG 0.07  C 
BRANCH 35 36
ATOM     36  CG  TYR B  17      -6.037 -31.253 -13.229  1.00 56.96 LIG-0.06  A 
ATOM     37  CD2 TYR B  17      -5.579 -32.364 -13.947  1.00 61.26 LIG 0.01  A 
ATOM     38  CE2 TYR B  17      -4.508 -33.105 -13.501  1.00 70.21 LIG 0.04  A 
ATOM     39  CZ  TYR B  17      -3.897 -32.740 -12.314  1.00 76.40 LIG 0.07  A 
ATOM     40  CE1 TYR B  17      -4.339 -31.646 -11.580  1.00 67.10 LIG 0.04  A 
ATOM     41  CD1 TYR B  17      -5.415 -30.913 -12.046  1.00 57.92 LIG 0.01  A 
BRANCH 39 42
ATOM     42 OH   TYR B  17      -2.841 -33.478 -11.867  1.00 89.25 LIG-0.36  OA
ATOM     43 HH   TYR B  17      -3.105 -34.248 -11.659  1.00 89.25 LIG 0.22  HD
ENDBRANCH 39 42
ENDBRANCH 35 36
ENDBRANCH 21 35
ENDBRANCH 19 21
ENDBRANCH 12 17
ENDBRANCH 9 12
ENDBRANCH 4 8
BRANCH 1 44
ATOM     44  CA  ARG B  14     -10.345 -27.368  -6.651  1.00 32.45 LIG 0.18  C 
BRANCH 44 45
ATOM     45  N   ARG B  14      -9.199 -27.160  -5.795  1.00 38.19 LIG-0.35  N 
ATOM     46 H    ARG B  14      -8.528 -26.800  -6.196  1.00 38.19 LIG 0.16  HD
ATOM     47  C   PRO B  13      -9.182 -27.495  -4.502  1.00 38.91 LIG 0.24  C 
ATOM     48 O    PRO B  13     -10.132 -27.988  -3.928  1.00 32.88 LIG-0.27  OA
BRANCH 47 49
ATOM     49  CA  PRO B  13      -7.883 -27.181  -3.732  1.00 38.31 LIG 0.18  C 
ATOM     50  N   PRO B  13      -6.916 -28.257  -3.746  1.00 38.88 LIG-0.34  N 
ATOM     51  CD  PRO B  13      -5.584 -27.779  -4.144  1.00 43.50 LIG 0.13  C 
ATOM     52  C   PRO B  12      -7.189 -29.529  -3.411  1.00 40.77 LIG 0.26  C 
ATOM     53  CG  PRO B  13      -5.704 -26.296  -4.059  1.00 43.53 LIG 0.02  C 
ATOM     54  CB  PRO B  13      -7.128 -26.021  -4.380  1.00 39.91 LIG 0.04  C 
ATOM     55 O    PRO B  12      -8.292 -29.905  -2.989  1.00 44.45 LIG-0.27  OA
BRANCH 52 56
ATOM     56  CA  PRO B  12      -6.076 -30.534  -3.567  1.00 38.46 LIG 0.35  C 
ATOM     57  CB  PRO B  12      -6.674 -31.872  -4.005  1.00 43.42 LIG 0.05  C 
ATOM     58  CG  PRO B  12      -5.926 -32.891  -3.249  1.00 41.12 LIG 0.04  C 
ATOM     59  CD  PRO B  12      -5.596 -32.248  -1.933  1.00 39.74 LIG 0.32  C 
ATOM     60  N   PRO B  12      -5.515 -30.825  -2.270  1.00 38.12 LIG 0.32  N 
ENDBRANCH 52 56
ENDBRANCH 47 49
ENDBRANCH 44 45
BRANCH 44 61
ATOM     61  CB  ARG B  14     -10.395 -26.222  -7.668  1.00 34.42 LIG 0.04  C 
BRANCH 61 62
ATOM     62  CG  ARG B  14     -11.563 -25.253  -7.486  1.00 32.66 LIG 0.02  C 
BRANCH 62 63
ATOM     63  CD  ARG B  14     -12.273 -25.564  -6.185  1.00 35.24 LIG 0.14  C 
BRANCH 63 64
ATOM     64  NE  ARG B  14     -11.990 -24.579  -5.126  1.00 42.22 LIG-0.23  N 
ATOM     65  CZ  ARG B  14     -12.601 -24.502  -3.942  1.00 44.72 LIG 0.67  C 
ATOM     66  NH2 ARG B  14     -13.574 -25.329  -3.609  1.00 43.48 LIG-0.23  N 
ATOM     67  NH1 ARG B  14     -12.241 -23.567  -3.082  1.00 46.51 LIG-0.23  N 
ATOM     68 1HH2 ARG B  14     -13.829 -25.938  -4.161  1.00 43.48 LIG 0.17  HD
ATOM     69 2HH2 ARG B  14     -13.953 -25.259  -2.840  1.00 43.48 LIG 0.17  HD
ATOM     70 2HH1 ARG B  14     -12.632 -23.511  -2.318  1.00 46.51 LIG 0.17  HD
ATOM     71 1HH1 ARG B  14     -11.616 -23.013  -3.286  1.00 46.51 LIG 0.17  HD
ATOM     72 HE   ARG B  14     -11.374 -24.001  -5.286  1.00 42.22 LIG 0.18  HD
ENDBRANCH 63 64
ENDBRANCH 62 63
ENDBRANCH 61 62
ENDBRANCH 44 61
ENDBRANCH 1 44
TORSDOF 22
ENDMDL
MODEL 67
USER: ADFR SOLUTION from run 23
USER: SCORE 21.985338 LL:  -5.495 LR: -18.718 RR:   0.000 FEB: -12.156
USER: RMSD 12.467953
USER: SEED 22
USER: STATUS no improvement in best in 6 clusters for 5 generations
USER: GENES 24
USER: genes 0 Translation |==|  0.60055 0.46612 0.39947
USER: genes 1 Rotation |==|  0.25617 0.10999 0.32939 0.59656
USER: genes 2 Torsion [N]-CA--C-[O] |==|  0.82582
USER: genes 3 Torsion [C]-N--CA-[CB] |==|  0.39600
USER: genes 4 Torsion [N]-CA--CB-[CG2] |==|  0.58896
USER: genes 5 Torsion [CA]-CB--CG1-[CD1] |==|  0.31393
USER: genes 6 Torsion [N]-CA--C-[N] |==|  0.47766
USER: genes 7 Torsion [C]-N--CA-[C] |==|  0.72568
USER: genes 8 Torsion [N]-CA--C-[N] |==|  0.42920
USER: genes 9 Torsion [C]-N--CA-[CB] |==|  0.46787
USER: genes 10 Torsion [N]-CA--CB-[CG] |==|  0.56481
USER: genes 11 Torsion [CA]-CB--CG-[ND2] |==|  0.77445
USER: genes 12 Torsion [N]-CA--C-[O] |==|  0.37821
USER: genes 13 Torsion [N]-CA--CB-[CG] |==|  0.08657
USER: genes 14 Torsion [CA]-CB--CG-[CD2] |==|  0.21549
USER: genes 15 Torsion [CE2]-CZ--OH-[HH] |==|  0.32306
USER: genes 16 Torsion [N]-C--CA-[N] |==|  0.84805
USER: genes 17 Torsion [C]-CA--N-[C] |==|  0.86412
USER: genes 18 Torsion [N]-C--CA-[N] |==|  0.86032
USER: genes 19 Torsion [N]-C--CA-[CB] |==|  0.75394
USER: genes 20 Torsion [C]-CA--CB-[CG] |==|  0.17177
USER: genes 21 Torsion [CA]-CB--CG-[CD] |==|  0.39136
USER: genes 22 Torsion [CB]-CG--CD-[NE] |==|  0.75105
USER: genes 23 Torsion [CG]-CD--NE-[CZ] |==|  0.46746
ROOT
ATOM      1  C   ARG B  14      -7.187 -29.281 -14.723  1.00 32.92 LIG 0.24  C 
ATOM      2 O    ARG B  14      -8.390 -29.076 -14.558  1.00 37.82 LIG-0.27  OA
ATOM      3  N   PRO B  15      -6.500 -30.194 -14.030  1.00 31.88 LIG-0.34  N 
ATOM      4  CA  PRO B  15      -7.185 -31.039 -13.047  1.00 30.79 LIG 0.18  C 
ATOM      5  CB  PRO B  15      -6.085 -31.964 -12.566  1.00 31.22 LIG 0.04  C 
ATOM      6  CG  PRO B  15      -5.185 -32.070 -13.756  1.00 29.82 LIG 0.02  C 
ATOM      7  CD  PRO B  15      -5.134 -30.676 -14.293  1.00 31.43 LIG 0.13  C 
ENDROOT
BRANCH 4 8
ATOM      8  C   PRO B  15      -7.673 -30.192 -11.899  1.00 33.68 LIG 0.24  C 
ATOM      9  N   ILE B  16      -8.981 -30.104 -11.753  1.00 35.41 LIG-0.35  N 
ATOM     10 H    ILE B  16      -9.554 -30.441 -12.299  1.00 35.41 LIG 0.16  HD
ATOM     11 O    PRO B  15      -6.878 -29.589 -11.194  1.00 34.05 LIG-0.27  OA
BRANCH 9 12
ATOM     12  CA  ILE B  16      -9.539 -29.429 -10.656  1.00 37.77 LIG 0.18  C 
BRANCH 12 13
ATOM     13  CB  ILE B  16     -10.793 -28.663 -11.049  1.00 42.27 LIG 0.01  C 
ATOM     14  CG2 ILE B  16     -10.919 -27.424 -10.210  1.00 44.80 LIG 0.01  C 
BRANCH 13 15
ATOM     15  CG1 ILE B  16     -10.718 -28.346 -12.553  1.00 47.53 LIG 0.00  C 
ATOM     16  CD1 ILE B  16     -11.746 -29.051 -13.433  1.00 51.74 LIG 0.01  C 
ENDBRANCH 13 15
ENDBRANCH 12 13
BRANCH 12 17
ATOM     17  C   ILE B  16      -9.790 -30.486  -9.629  1.00 42.33 LIG 0.24  C 
ATOM     18 O    ILE B  16      -9.609 -31.646  -9.875  1.00 39.29 LIG-0.27  OA
ATOM     19  N   TYR B  17     -10.164 -30.037  -8.446  1.00 46.96 LIG-0.35  N 
ATOM     20 H    TYR B  17     -10.396 -29.221  -8.307  1.00 46.96 LIG 0.16  HD
BRANCH 19 21
ATOM     21  CA  TYR B  17     -10.225 -30.860  -7.271  1.00 51.19 LIG 0.18  C 
BRANCH 21 22
ATOM     22  C   TYR B  17     -11.625 -31.304  -7.037  1.00 56.10 LIG 0.24  C 
ATOM     23  N   ASN B  18     -11.804 -32.423  -6.364  1.00 65.39 LIG-0.35  N 
ATOM     24 H    ASN B  18     -11.184 -32.829  -5.928  1.00 65.39 LIG 0.16  HD
ATOM     25 O    TYR B  17     -12.546 -30.597  -7.402  1.00 61.36 LIG-0.27  OA
BRANCH 23 26
ATOM     26  CA  ASN B  18     -13.121 -33.080  -6.308  1.00 70.74 LIG 0.17  C 
BRANCH 26 27
ATOM     27  CB  ASN B  18     -12.957 -34.485  -5.710  1.00 84.74 LIG 0.14  C 
BRANCH 27 28
ATOM     28  CG  ASN B  18     -14.091 -35.434  -6.119  1.00 96.34 LIG 0.22  C 
ATOM     29 OD1  ASN B  18     -13.949 -36.232  -7.058  1.00 99.44 LIG-0.27  OA
ATOM     30  ND2 ASN B  18     -15.233 -35.339  -5.425  1.00 94.73 LIG-0.37  N 
ATOM     31 21HD ASN B  18     -15.900 -35.842  -5.625  1.00 94.73 LIG 0.16  HD
ATOM     32 22HD ASN B  18     -15.298 -34.774  -4.779  1.00 94.73 LIG 0.16  HD
ENDBRANCH 27 28
ENDBRANCH 26 27
BRANCH 26 33
ATOM     33  C   ASN B  18     -14.291 -32.310  -5.649  1.00 72.97 LIG 0.22  C 
ATOM     34 O    ASN B  18     -15.427 -32.268  -6.143  1.00 74.17 LIG-0.29  OA
ENDBRANCH 26 33
ENDBRANCH 23 26
ENDBRANCH 21 22
BRANCH 21 35
ATOM     35  CB  TYR B  17      -9.823 -30.007  -6.079  1.00 54.83 LIG 0.07  C 
BRANCH 35 36
ATOM     36  CG  TYR B  17     -10.208 -28.591  -6.275  1.00 56.96 LIG-0.06  A 
ATOM     37  CD2 TYR B  17     -11.538 -28.194  -6.094  1.00 61.26 LIG 0.01  A 
ATOM     38  CE2 TYR B  17     -11.920 -26.885  -6.283  1.00 70.21 LIG 0.04  A 
ATOM     39  CZ  TYR B  17     -10.963 -25.965  -6.673  1.00 76.40 LIG 0.07  A 
ATOM     40  CE1 TYR B  17      -9.638 -26.338  -6.867  1.00 67.10 LIG 0.04  A 
ATOM     41  CD1 TYR B  17      -9.274 -27.657  -6.670  1.00 57.92 LIG 0.01  A 
BRANCH 39 42
ATOM     42 OH   TYR B  17     -11.341 -24.669  -6.869  1.00 89.25 LIG-0.36  OA
ATOM     43 HH   TYR B  17     -10.949 -24.176  -6.314  1.00 89.25 LIG 0.22  HD
ENDBRANCH 39 42
ENDBRANCH 35 36
ENDBRANCH 21 35
ENDBRANCH 19 21
ENDBRANCH 12 17
ENDBRANCH 9 12
ENDBRANCH 4 8
BRANCH 1 44
ATOM     44  CA  ARG B  14      -6.431 -28.443 -15.710  1.00 32.45 LIG 0.18  C 
BRANCH 44 45
ATOM     45  N   ARG B  14      -5.370 -27.869 -14.914  1.00 38.19 LIG-0.35  N 
ATOM     46 H    ARG B  14      -4.590 -27.948 -15.269  1.00 38.19 LIG 0.16  HD
ATOM     47  C   PRO B  13      -5.579 -27.274 -13.737  1.00 38.91 LIG 0.24  C 
ATOM     48 O    PRO B  13      -6.680 -27.146 -13.240  1.00 32.88 LIG-0.27  OA
BRANCH 47 49
ATOM     49  CA  PRO B  13      -4.335 -26.696 -13.033  1.00 38.31 LIG 0.18  C 
ATOM     50  N   PRO B  13      -3.232 -27.627 -12.929  1.00 38.88 LIG-0.34  N 
ATOM     51  CD  PRO B  13      -1.975 -27.031 -13.405  1.00 43.50 LIG 0.13  C 
ATOM     52  C   PRO B  12      -3.332 -28.872 -12.435  1.00 40.77 LIG 0.26  C 
ATOM     53  CG  PRO B  13      -2.293 -25.578 -13.503  1.00 43.53 LIG 0.02  C 
ATOM     54  CB  PRO B  13      -3.741 -25.536 -13.832  1.00 39.91 LIG 0.04  C 
ATOM     55 O    PRO B  12      -4.376 -29.336 -11.951  1.00 44.45 LIG-0.27  OA
BRANCH 52 56
ATOM     56  CA  PRO B  12      -2.095 -29.732 -12.483  1.00 38.46 LIG 0.35  C 
ATOM     57  CB  PRO B  12      -2.059 -30.475 -13.820  1.00 43.42 LIG 0.05  C 
ATOM     58  CG  PRO B  12      -1.582 -31.830 -13.490  1.00 41.12 LIG 0.04  C 
ATOM     59  CD  PRO B  12      -2.123 -32.121 -12.121  1.00 39.74 LIG 0.32  C 
ATOM     60  N   PRO B  12      -2.217 -30.792 -11.511  1.00 38.12 LIG 0.32  N 
ENDBRANCH 52 56
ENDBRANCH 47 49
ENDBRANCH 44 45
BRANCH 44 61
ATOM     61  CB  ARG B  14      -5.797 -29.362 -16.760  1.00 34.42 LIG 0.04  C 
BRANCH 61 62
ATOM     62  CG  ARG B  14      -6.793 -30.175 -17.587  1.00 32.66 LIG 0.02  C 
BRANCH 62 63
ATOM     63  CD  ARG B  14      -6.317 -30.235 -19.024  1.00 35.24 LIG 0.14  C 
BRANCH 63 64
ATOM     64  NE  ARG B  14      -6.824 -29.120 -19.844  1.00 42.22 LIG-0.23  N 
ATOM     65  CZ  ARG B  14      -6.404 -28.790 -21.067  1.00 44.72 LIG 0.67  C 
ATOM     66  NH2 ARG B  14      -5.437 -29.455 -21.670  1.00 43.48 LIG-0.23  N 
ATOM     67  NH1 ARG B  14      -6.953 -27.765 -21.691  1.00 46.51 LIG-0.23  N 
ATOM     68 1HH2 ARG B  14      -5.060 -30.120 -21.275  1.00 43.48 LIG 0.17  HD
ATOM     69 2HH2 ARG B  14      -5.183 -29.224 -22.459  1.00 43.48 LIG 0.17  HD
ATOM     70 2HH1 ARG B  14      -6.686 -27.547 -22.479  1.00 46.51 LIG 0.17  HD
ATOM     71 1HH1 ARG B  14      -7.578 -27.314 -21.309  1.00 46.51 LIG 0.17  HD
ATOM     72 HE   ARG B  14      -7.448 -28.637 -19.502  1.00 42.22 LIG 0.18  HD
ENDBRANCH 63 64
ENDBRANCH 62 63
ENDBRANCH 61 62
ENDBRANCH 44 61
ENDBRANCH 1 44
TORSDOF 22
ENDMDL
MODEL 68
USER: ADFR SOLUTION from run 172
USER: SCORE 23.066483 LL:  -5.720 LR: -18.675 RR:   0.000 FEB: -12.112
USER: RMSD 5.259956
USER: SEED 171
USER: STATUS no improvement in best in 9 clusters for 5 generations
USER: GENES 24
USER: genes 0 Translation |==|  0.45542 0.47227 0.56351
USER: genes 1 Rotation |==|  0.59075 0.48196 0.44929 0.98874
USER: genes 2 Torsion [N]-CA--C-[O] |==|  0.87255
USER: genes 3 Torsion [C]-N--CA-[CB] |==|  0.17995
USER: genes 4 Torsion [N]-CA--CB-[CG2] |==|  0.21214
USER: genes 5 Torsion [CA]-CB--CG1-[CD1] |==|  0.14437
USER: genes 6 Torsion [N]-CA--C-[N] |==|  0.49471
USER: genes 7 Torsion [C]-N--CA-[C] |==|  0.14673
USER: genes 8 Torsion [N]-CA--C-[N] |==|  0.11482
USER: genes 9 Torsion [C]-N--CA-[CB] |==|  0.48380
USER: genes 10 Torsion [N]-CA--CB-[CG] |==|  0.29006
USER: genes 11 Torsion [CA]-CB--CG-[ND2] |==|  0.23842
USER: genes 12 Torsion [N]-CA--C-[O] |==|  0.31078
USER: genes 13 Torsion [N]-CA--CB-[CG] |==|  0.75211
USER: genes 14 Torsion [CA]-CB--CG-[CD2] |==|  0.20992
USER: genes 15 Torsion [CE2]-CZ--OH-[HH] |==|  0.78874
USER: genes 16 Torsion [N]-C--CA-[N] |==|  0.40282
USER: genes 17 Torsion [C]-CA--N-[C] |==|  0.53918
USER: genes 18 Torsion [N]-C--CA-[N] |==|  0.22653
USER: genes 19 Torsion [N]-C--CA-[CB] |==|  0.74644
USER: genes 20 Torsion [C]-CA--CB-[CG] |==|  0.25435
USER: genes 21 Torsion [CA]-CB--CG-[CD] |==|  0.09214
USER: genes 22 Torsion [CB]-CG--CD-[NE] |==|  0.19009
USER: genes 23 Torsion [CG]-CD--NE-[CZ] |==|  0.32937
ROOT
ATOM      1  C   ARG B  14     -10.452 -29.166 -10.170  1.00 32.92 LIG 0.24  C 
ATOM      2 O    ARG B  14      -9.872 -30.204 -10.495  1.00 37.82 LIG-0.27  OA
ATOM      3  N   PRO B  15     -10.658 -28.150 -11.013  1.00 31.88 LIG-0.34  N 
ATOM      4  CA  PRO B  15     -10.222 -28.253 -12.409  1.00 30.79 LIG 0.18  C 
ATOM      5  CB  PRO B  15     -10.709 -26.953 -13.016  1.00 31.22 LIG 0.04  C 
ATOM      6  CG  PRO B  15     -11.923 -26.632 -12.203  1.00 29.82 LIG 0.02  C 
ATOM      7  CD  PRO B  15     -11.520 -26.975 -10.805  1.00 31.43 LIG 0.13  C 
ENDROOT
BRANCH 4 8
ATOM      8  C   PRO B  15      -8.717 -28.308 -12.471  1.00 33.68 LIG 0.24  C 
ATOM      9  N   ILE B  16      -8.197 -29.264 -13.216  1.00 35.41 LIG-0.35  N 
ATOM     10 H    ILE B  16      -8.656 -29.879 -13.606  1.00 35.41 LIG 0.16  HD
ATOM     11 O    PRO B  15      -8.042 -27.531 -11.812  1.00 34.05 LIG-0.27  OA
BRANCH 9 12
ATOM     12  CA  ILE B  16      -6.812 -29.341 -13.428  1.00 37.77 LIG 0.18  C 
BRANCH 12 13
ATOM     13  CB  ILE B  16      -6.063 -29.625 -12.135  1.00 42.27 LIG 0.01  C 
ATOM     14  CG2 ILE B  16      -6.209 -31.074 -11.768  1.00 44.80 LIG 0.01  C 
BRANCH 13 15
ATOM     15  CG1 ILE B  16      -4.592 -29.216 -12.325  1.00 47.53 LIG 0.00  C 
ATOM     16  CD1 ILE B  16      -4.357 -27.802 -12.846  1.00 51.74 LIG 0.01  C 
ENDBRANCH 13 15
ENDBRANCH 12 13
BRANCH 12 17
ATOM     17  C   ILE B  16      -6.629 -30.404 -14.463  1.00 42.33 LIG 0.24  C 
ATOM     18 O    ILE B  16      -7.570 -30.978 -14.936  1.00 39.29 LIG-0.27  OA
ATOM     19  N   TYR B  17      -5.381 -30.608 -14.839  1.00 46.96 LIG-0.35  N 
ATOM     20 H    TYR B  17      -4.706 -30.274 -14.423  1.00 46.96 LIG 0.16  HD
BRANCH 19 21
ATOM     21  CA  TYR B  17      -5.017 -31.406 -15.975  1.00 51.19 LIG 0.18  C 
BRANCH 21 22
ATOM     22  C   TYR B  17      -5.753 -30.937 -17.179  1.00 56.10 LIG 0.24  C 
ATOM     23  N   ASN B  18      -5.874 -29.636 -17.351  1.00 65.39 LIG-0.35  N 
ATOM     24 H    ASN B  18      -5.435 -29.048 -16.903  1.00 65.39 LIG 0.16  HD
ATOM     25 O    TYR B  17      -6.151 -31.752 -17.992  1.00 61.36 LIG-0.27  OA
BRANCH 23 26
ATOM     26  CA  ASN B  18      -6.798 -29.079 -18.352  1.00 70.74 LIG 0.17  C 
BRANCH 26 27
ATOM     27  CB  ASN B  18      -6.824 -27.549 -18.216  1.00 84.74 LIG 0.14  C 
BRANCH 27 28
ATOM     28  CG  ASN B  18      -6.034 -26.845 -19.327  1.00 96.34 LIG 0.22  C 
ATOM     29 OD1  ASN B  18      -4.853 -26.507 -19.154  1.00 99.44 LIG-0.27  OA
ATOM     30  ND2 ASN B  18      -6.689 -26.604 -20.469  1.00 94.73 LIG-0.37  N 
ATOM     31 21HD ASN B  18      -6.291 -26.201 -21.116  1.00 94.73 LIG 0.16  HD
ATOM     32 22HD ASN B  18      -7.508 -26.852 -20.556  1.00 94.73 LIG 0.16  HD
ENDBRANCH 27 28
ENDBRANCH 26 27
BRANCH 26 33
ATOM     33  C   ASN B  18      -6.626 -29.519 -19.826  1.00 72.97 LIG 0.22  C 
ATOM     34 O    ASN B  18      -7.459 -30.223 -20.416  1.00 74.17 LIG-0.29  OA
ENDBRANCH 26 33
ENDBRANCH 23 26
ENDBRANCH 21 22
BRANCH 21 35
ATOM     35  CB  TYR B  17      -5.463 -32.835 -15.709  1.00 54.83 LIG 0.07  C 
BRANCH 35 36
ATOM     36  CG  TYR B  17      -4.407 -33.608 -15.017  1.00 56.96 LIG-0.06  A 
ATOM     37  CD2 TYR B  17      -4.165 -33.402 -13.653  1.00 61.26 LIG 0.01  A 
ATOM     38  CE2 TYR B  17      -3.181 -34.100 -12.993  1.00 70.21 LIG 0.04  A 
ATOM     39  CZ  TYR B  17      -2.417 -35.006 -13.709  1.00 76.40 LIG 0.07  A 
ATOM     40  CE1 TYR B  17      -2.633 -35.222 -15.065  1.00 67.10 LIG 0.04  A 
ATOM     41  CD1 TYR B  17      -3.629 -34.511 -15.709  1.00 57.92 LIG 0.01  A 
BRANCH 39 42
ATOM     42 OH   TYR B  17      -1.435 -35.694 -13.058  1.00 89.25 LIG-0.36  OA
ATOM     43 HH   TYR B  17      -0.776 -35.189 -12.931  1.00 89.25 LIG 0.22  HD
ENDBRANCH 39 42
ENDBRANCH 35 36
ENDBRANCH 21 35
ENDBRANCH 19 21
ENDBRANCH 12 17
ENDBRANCH 9 12
ENDBRANCH 4 8
BRANCH 1 44
ATOM     44  CA  ARG B  14     -10.915 -29.000  -8.753  1.00 32.45 LIG 0.18  C 
BRANCH 44 45
ATOM     45  N   ARG B  14     -11.348 -30.330  -8.389  1.00 38.19 LIG-0.35  N 
ATOM     46 H    ARG B  14     -11.087 -30.941  -8.935  1.00 38.19 LIG 0.16  HD
ATOM     47  C   PRO B  13     -12.086 -30.587  -7.305  1.00 38.91 LIG 0.24  C 
ATOM     48 O    PRO B  13     -12.442 -29.730  -6.522  1.00 32.88 LIG-0.27  OA
BRANCH 47 49
ATOM     49  CA  PRO B  13     -12.439 -32.067  -7.054  1.00 38.31 LIG 0.18  C 
ATOM     50  N   PRO B  13     -11.386 -32.823  -6.411  1.00 38.88 LIG-0.34  N 
ATOM     51  CD  PRO B  13     -11.890 -33.569  -5.249  1.00 43.50 LIG 0.13  C 
ATOM     52  C   PRO B  12     -10.112 -32.863  -6.834  1.00 40.77 LIG 0.26  C 
ATOM     53  CG  PRO B  13     -13.371 -33.494  -5.400  1.00 43.53 LIG 0.02  C 
ATOM     54  CB  PRO B  13     -13.609 -32.194  -6.079  1.00 39.91 LIG 0.04  C 
ATOM     55 O    PRO B  12      -9.715 -32.305  -7.868  1.00 44.45 LIG-0.27  OA
BRANCH 52 56
ATOM     56  CA  PRO B  12      -9.131 -33.636  -5.989  1.00 38.46 LIG 0.35  C 
ATOM     57  CB  PRO B  12      -8.495 -32.686  -4.973  1.00 43.42 LIG 0.05  C 
ATOM     58  CG  PRO B  12      -7.076 -33.079  -4.921  1.00 41.12 LIG 0.04  C 
ATOM     59  CD  PRO B  12      -6.738 -33.541  -6.308  1.00 39.74 LIG 0.32  C 
ATOM     60  N   PRO B  12      -8.018 -34.047  -6.810  1.00 38.12 LIG 0.32  N 
ENDBRANCH 52 56
ENDBRANCH 47 49
ENDBRANCH 44 45
BRANCH 44 61
ATOM     61  CB  ARG B  14      -9.712 -28.634  -7.878  1.00 34.42 LIG 0.04  C 
BRANCH 61 62
ATOM     62  CG  ARG B  14      -9.468 -27.133  -7.716  1.00 32.66 LIG 0.02  C 
BRANCH 62 63
ATOM     63  CD  ARG B  14     -10.798 -26.408  -7.726  1.00 35.24 LIG 0.14  C 
BRANCH 63 64
ATOM     64  NE  ARG B  14     -11.616 -26.691  -6.533  1.00 42.22 LIG-0.23  N 
ATOM     65  CZ  ARG B  14     -12.025 -25.796  -5.630  1.00 44.72 LIG 0.67  C 
ATOM     66  NH2 ARG B  14     -11.699 -24.521  -5.723  1.00 43.48 LIG-0.23  N 
ATOM     67  NH1 ARG B  14     -12.760 -26.191  -4.608  1.00 46.51 LIG-0.23  N 
ATOM     68 1HH2 ARG B  14     -11.212 -24.248  -6.377  1.00 43.48 LIG 0.17  HD
ATOM     69 2HH2 ARG B  14     -11.975 -23.963  -5.129  1.00 43.48 LIG 0.17  HD
ATOM     70 2HH1 ARG B  14     -13.026 -25.620  -4.023  1.00 46.51 LIG 0.17  HD
ATOM     71 1HH1 ARG B  14     -12.973 -27.020  -4.526  1.00 46.51 LIG 0.17  HD
ATOM     72 HE   ARG B  14     -11.851 -27.509  -6.406  1.00 42.22 LIG 0.18  HD
ENDBRANCH 63 64
ENDBRANCH 62 63
ENDBRANCH 61 62
ENDBRANCH 44 61
ENDBRANCH 1 44
TORSDOF 22
ENDMDL
MODEL 69
USER: ADFR SOLUTION from run 198
USER: SCORE 21.244718 LL:  -4.973 LR: -18.676 RR:   0.000 FEB: -12.113
USER: RMSD 12.397045
USER: SEED 197
USER: STATUS no improvement in best in 24 clusters for 5 generations
USER: GENES 24
USER: genes 0 Translation |==|  0.60034 0.46365 0.42403
USER: genes 1 Rotation |==|  0.74863 0.91766 0.60795 0.54573
USER: genes 2 Torsion [N]-CA--C-[O] |==|  0.87441
USER: genes 3 Torsion [C]-N--CA-[CB] |==|  0.43654
USER: genes 4 Torsion [N]-CA--CB-[CG2] |==|  0.52044
USER: genes 5 Torsion [CA]-CB--CG1-[CD1] |==|  0.31074
USER: genes 6 Torsion [N]-CA--C-[N] |==|  0.42599
USER: genes 7 Torsion [C]-N--CA-[C] |==|  0.15149
USER: genes 8 Torsion [N]-CA--C-[N] |==|  0.59251
USER: genes 9 Torsion [C]-N--CA-[CB] |==|  0.13603
USER: genes 10 Torsion [N]-CA--CB-[CG] |==|  0.40819
USER: genes 11 Torsion [CA]-CB--CG-[ND2] |==|  0.69314
USER: genes 12 Torsion [N]-CA--C-[O] |==|  0.11874
USER: genes 13 Torsion [N]-CA--CB-[CG] |==|  0.58916
USER: genes 14 Torsion [CA]-CB--CG-[CD2] |==|  0.63617
USER: genes 15 Torsion [CE2]-CZ--OH-[HH] |==|  0.60615
USER: genes 16 Torsion [N]-C--CA-[N] |==|  0.16803
USER: genes 17 Torsion [C]-CA--N-[C] |==|  0.60098
USER: genes 18 Torsion [N]-C--CA-[N] |==|  0.74405
USER: genes 19 Torsion [N]-C--CA-[CB] |==|  0.63874
USER: genes 20 Torsion [C]-CA--CB-[CG] |==|  0.32858
USER: genes 21 Torsion [CA]-CB--CG-[CD] |==|  0.35295
USER: genes 22 Torsion [CB]-CG--CD-[NE] |==|  0.27168
USER: genes 23 Torsion [CG]-CD--NE-[CZ] |==|  0.33641
ROOT
ATOM      1  C   ARG B  14      -7.191 -29.328 -14.041  1.00 32.92 LIG 0.24  C 
ATOM      2 O    ARG B  14      -8.330 -29.049 -14.422  1.00 37.82 LIG-0.27  OA
ATOM      3  N   PRO B  15      -6.922 -29.774 -12.811  1.00 31.88 LIG-0.34  N 
ATOM      4  CA  PRO B  15      -8.010 -29.993 -11.854  1.00 30.79 LIG 0.18  C 
ATOM      5  CB  PRO B  15      -7.294 -30.563 -10.647  1.00 31.22 LIG 0.04  C 
ATOM      6  CG  PRO B  15      -6.122 -31.271 -11.249  1.00 29.82 LIG 0.02  C 
ATOM      7  CD  PRO B  15      -5.654 -30.342 -12.323  1.00 31.43 LIG 0.13  C 
ENDROOT
BRANCH 4 8
ATOM      8  C   PRO B  15      -8.644 -28.674 -11.491  1.00 33.68 LIG 0.24  C 
ATOM      9  N   ILE B  16      -9.961 -28.627 -11.537  1.00 35.41 LIG-0.35  N 
ATOM     10 H    ILE B  16     -10.461 -29.270 -11.816  1.00 35.41 LIG 0.16  HD
ATOM     11 O    PRO B  15      -7.948 -27.705 -11.227  1.00 34.05 LIG-0.27  OA
BRANCH 9 12
ATOM     12  CA  ILE B  16     -10.656 -27.482 -11.117  1.00 37.77 LIG 0.18  C 
BRANCH 12 13
ATOM     13  CB  ILE B  16     -12.039 -27.405 -11.745  1.00 42.27 LIG 0.01  C 
ATOM     14  CG2 ILE B  16     -12.676 -26.086 -11.416  1.00 44.80 LIG 0.01  C 
BRANCH 13 15
ATOM     15  CG1 ILE B  16     -11.898 -27.624 -13.261  1.00 47.53 LIG 0.00  C 
ATOM     16  CD1 ILE B  16     -12.489 -28.921 -13.803  1.00 51.74 LIG 0.01  C 
ENDBRANCH 13 15
ENDBRANCH 12 13
BRANCH 12 17
ATOM     17  C   ILE B  16     -10.688 -27.566  -9.624  1.00 42.33 LIG 0.24  C 
ATOM     18 O    ILE B  16     -10.586 -28.618  -9.059  1.00 39.29 LIG-0.27  OA
ATOM     19  N   TYR B  17     -10.780 -26.405  -9.003  1.00 46.96 LIG-0.35  N 
ATOM     20 H    TYR B  17     -10.961 -25.669  -9.409  1.00 46.96 LIG 0.16  HD
BRANCH 19 21
ATOM     21  CA  TYR B  17     -10.590 -26.248  -7.588  1.00 51.19 LIG 0.18  C 
BRANCH 21 22
ATOM     22  C   TYR B  17      -9.272 -26.810  -7.190  1.00 56.10 LIG 0.24  C 
ATOM     23  N   ASN B  18      -9.182 -27.365  -5.997  1.00 65.39 LIG-0.35  N 
ATOM     24 H    ASN B  18      -9.858 -27.557  -5.502  1.00 65.39 LIG 0.16  HD
ATOM     25 O    TYR B  17      -8.354 -26.807  -7.989  1.00 61.36 LIG-0.27  OA
BRANCH 23 26
ATOM     26  CA  ASN B  18      -7.876 -27.709  -5.410  1.00 70.74 LIG 0.17  C 
BRANCH 26 27
ATOM     27  CB  ASN B  18      -6.938 -26.498  -5.529  1.00 84.74 LIG 0.14  C 
BRANCH 27 28
ATOM     28  CG  ASN B  18      -5.957 -26.396  -4.354  1.00 96.34 LIG 0.22  C 
ATOM     29 OD1  ASN B  18      -5.049 -27.229  -4.205  1.00 99.44 LIG-0.27  OA
ATOM     30  ND2 ASN B  18      -6.147 -25.382  -3.500  1.00 94.73 LIG-0.37  N 
ATOM     31 21HD ASN B  18      -5.630 -25.290  -2.820  1.00 94.73 LIG 0.16  HD
ATOM     32 22HD ASN B  18      -6.787 -24.822  -3.632  1.00 94.73 LIG 0.16  HD
ENDBRANCH 27 28
ENDBRANCH 26 27
BRANCH 26 33
ATOM     33  C   ASN B  18      -7.855 -28.312  -3.985  1.00 72.97 LIG 0.22  C 
ATOM     34 O    ASN B  18      -8.657 -29.181  -3.614  1.00 74.17 LIG-0.29  OA
ENDBRANCH 26 33
ENDBRANCH 23 26
ENDBRANCH 21 22
BRANCH 21 35
ATOM     35  CB  TYR B  17     -11.656 -27.065  -6.877  1.00 54.83 LIG 0.07  C 
BRANCH 35 36
ATOM     36  CG  TYR B  17     -12.052 -26.435  -5.597  1.00 56.96 LIG-0.06  A 
ATOM     37  CD2 TYR B  17     -12.103 -27.200  -4.425  1.00 61.26 LIG 0.01  A 
ATOM     38  CE2 TYR B  17     -12.480 -26.638  -3.227  1.00 70.21 LIG 0.04  A 
ATOM     39  CZ  TYR B  17     -12.826 -25.298  -3.202  1.00 76.40 LIG 0.07  A 
ATOM     40  CE1 TYR B  17     -12.790 -24.521  -4.354  1.00 67.10 LIG 0.04  A 
ATOM     41  CD1 TYR B  17     -12.407 -25.104  -5.548  1.00 57.92 LIG 0.01  A 
BRANCH 39 42
ATOM     42 OH   TYR B  17     -13.208 -24.741  -2.017  1.00 89.25 LIG-0.36  OA
ATOM     43 HH   TYR B  17     -13.833 -24.197  -2.152  1.00 89.25 LIG 0.22  HD
ENDBRANCH 39 42
ENDBRANCH 35 36
ENDBRANCH 21 35
ENDBRANCH 19 21
ENDBRANCH 12 17
ENDBRANCH 9 12
ENDBRANCH 4 8
BRANCH 1 44
ATOM     44  CA  ARG B  14      -6.037 -29.117 -14.974  1.00 32.45 LIG 0.18  C 
BRANCH 44 45
ATOM     45  N   ARG B  14      -5.452 -30.435 -15.081  1.00 38.19 LIG-0.35  N 
ATOM     46 H    ARG B  14      -6.031 -31.071 -15.076  1.00 38.19 LIG 0.16  HD
ATOM     47  C   PRO B  13      -4.137 -30.646 -15.178  1.00 38.91 LIG 0.24  C 
ATOM     48 O    PRO B  13      -3.317 -29.749 -15.203  1.00 32.88 LIG-0.27  OA
BRANCH 47 49
ATOM     49  CA  PRO B  13      -3.688 -32.115 -15.308  1.00 38.31 LIG 0.18  C 
ATOM     50  N   PRO B  13      -3.387 -32.752 -14.043  1.00 38.88 LIG-0.34  N 
ATOM     51  CD  PRO B  13      -4.075 -34.044 -13.912  1.00 43.50 LIG 0.13  C 
ATOM     52  C   PRO B  12      -2.561 -32.244 -13.114  1.00 40.77 LIG 0.26  C 
ATOM     53  CG  PRO B  13      -4.558 -34.325 -15.294  1.00 43.53 LIG 0.02  C 
ATOM     54  CB  PRO B  13      -4.809 -32.983 -15.879  1.00 39.91 LIG 0.04  C 
ATOM     55 O    PRO B  12      -1.913 -31.198 -13.271  1.00 44.45 LIG-0.27  OA
BRANCH 52 56
ATOM     56  CA  PRO B  12      -2.432 -33.005 -11.819  1.00 38.46 LIG 0.35  C 
ATOM     57  CB  PRO B  12      -2.625 -32.035 -10.652  1.00 43.42 LIG 0.05  C 
ATOM     58  CG  PRO B  12      -1.627 -32.442  -9.648  1.00 41.12 LIG 0.04  C 
ATOM     59  CD  PRO B  12      -0.452 -32.945 -10.435  1.00 39.74 LIG 0.32  C 
ATOM     60  N   PRO B  12      -1.068 -33.450 -11.665  1.00 38.12 LIG 0.32  N 
ENDBRANCH 52 56
ENDBRANCH 47 49
ENDBRANCH 44 45
BRANCH 44 61
ATOM     61  CB  ARG B  14      -6.577 -28.722 -16.353  1.00 34.42 LIG 0.04  C 
BRANCH 61 62
ATOM     62  CG  ARG B  14      -6.145 -27.339 -16.840  1.00 32.66 LIG 0.02  C 
BRANCH 62 63
ATOM     63  CD  ARG B  14      -5.532 -27.465 -18.220  1.00 35.24 LIG 0.14  C 
BRANCH 63 64
ATOM     64  NE  ARG B  14      -6.482 -27.148 -19.301  1.00 42.22 LIG-0.23  N 
ATOM     65  CZ  ARG B  14      -6.334 -26.192 -20.222  1.00 44.72 LIG 0.67  C 
ATOM     66  NH2 ARG B  14      -5.280 -25.398 -20.232  1.00 43.48 LIG-0.23  N 
ATOM     67  NH1 ARG B  14      -7.267 -26.021 -21.140  1.00 46.51 LIG-0.23  N 
ATOM     68 1HH2 ARG B  14      -4.667 -25.489 -19.635  1.00 43.48 LIG 0.17  HD
ATOM     69 2HH2 ARG B  14      -5.206 -24.790 -20.836  1.00 43.48 LIG 0.17  HD
ATOM     70 2HH1 ARG B  14      -7.177 -25.407 -21.735  1.00 46.51 LIG 0.17  HD
ATOM     71 1HH1 ARG B  14      -7.964 -26.523 -21.143  1.00 46.51 LIG 0.17  HD
ATOM     72 HE   ARG B  14      -7.199 -27.622 -19.342  1.00 42.22 LIG 0.18  HD
ENDBRANCH 63 64
ENDBRANCH 62 63
ENDBRANCH 61 62
ENDBRANCH 44 61
ENDBRANCH 1 44
TORSDOF 22
ENDMDL
MODEL 70
USER: ADFR SOLUTION from run 197
USER: SCORE 23.088872 LL:  -5.252 LR: -18.675 RR:   0.000 FEB: -12.112
USER: RMSD 3.068657
USER: SEED 196
USER: STATUS no improvement in best in 14 clusters for 5 generations
USER: GENES 24
USER: genes 0 Translation |==|  0.46935 0.49360 0.58171
USER: genes 1 Rotation |==|  0.50581 0.53369 0.47787 0.99834
USER: genes 2 Torsion [N]-CA--C-[O] |==|  0.79671
USER: genes 3 Torsion [C]-N--CA-[CB] |==|  0.47778
USER: genes 4 Torsion [N]-CA--CB-[CG2] |==|  0.25086
USER: genes 5 Torsion [CA]-CB--CG1-[CD1] |==|  0.54384
USER: genes 6 Torsion [N]-CA--C-[N] |==|  0.46393
USER: genes 7 Torsion [C]-N--CA-[C] |==|  0.76385
USER: genes 8 Torsion [N]-CA--C-[N] |==|  0.94530
USER: genes 9 Torsion [C]-N--CA-[CB] |==|  0.52579
USER: genes 10 Torsion [N]-CA--CB-[CG] |==|  0.87215
USER: genes 11 Torsion [CA]-CB--CG-[ND2] |==|  0.43405
USER: genes 12 Torsion [N]-CA--C-[O] |==|  0.63047
USER: genes 13 Torsion [N]-CA--CB-[CG] |==|  0.91358
USER: genes 14 Torsion [CA]-CB--CG-[CD2] |==|  0.28359
USER: genes 15 Torsion [CE2]-CZ--OH-[HH] |==|  0.67884
USER: genes 16 Torsion [N]-C--CA-[N] |==|  0.42544
USER: genes 17 Torsion [C]-CA--N-[C] |==|  0.79250
USER: genes 18 Torsion [N]-C--CA-[N] |==|  0.46919
USER: genes 19 Torsion [N]-C--CA-[CB] |==|  0.59649
USER: genes 20 Torsion [C]-CA--CB-[CG] |==|  0.43437
USER: genes 21 Torsion [CA]-CB--CG-[CD] |==|  0.96815
USER: genes 22 Torsion [CB]-CG--CD-[NE] |==|  0.51511
USER: genes 23 Torsion [CG]-CD--NE-[CZ] |==|  0.62549
ROOT
ATOM      1  C   ARG B  14     -10.139 -28.766  -9.665  1.00 32.92 LIG 0.24  C 
ATOM      2 O    ARG B  14      -9.460 -29.787  -9.791  1.00 37.82 LIG-0.27  OA
ATOM      3  N   PRO B  15     -10.673 -28.112 -10.701  1.00 31.88 LIG-0.34  N 
ATOM      4  CA  PRO B  15     -10.499 -28.626 -12.063  1.00 30.79 LIG 0.18  C 
ATOM      5  CB  PRO B  15     -11.310 -27.658 -12.899  1.00 31.22 LIG 0.04  C 
ATOM      6  CG  PRO B  15     -12.384 -27.212 -11.958  1.00 29.82 LIG 0.02  C 
ATOM      7  CD  PRO B  15     -11.670 -27.030 -10.658  1.00 31.43 LIG 0.13  C 
ENDROOT
BRANCH 4 8
ATOM      8  C   PRO B  15      -9.047 -28.543 -12.458  1.00 33.68 LIG 0.24  C 
ATOM      9  N   ILE B  16      -8.373 -29.677 -12.446  1.00 35.41 LIG-0.35  N 
ATOM     10 H    ILE B  16      -8.691 -30.428 -12.171  1.00 35.41 LIG 0.16  HD
ATOM     11 O    PRO B  15      -8.536 -27.464 -12.716  1.00 34.05 LIG-0.27  OA
BRANCH 9 12
ATOM     12  CA  ILE B  16      -7.045 -29.730 -12.897  1.00 37.77 LIG 0.18  C 
BRANCH 12 13
ATOM     13  CB  ILE B  16      -6.410 -31.082 -12.611  1.00 42.27 LIG 0.01  C 
ATOM     14  CG2 ILE B  16      -6.635 -32.008 -13.772  1.00 44.80 LIG 0.01  C 
BRANCH 13 15
ATOM     15  CG1 ILE B  16      -4.915 -30.866 -12.317  1.00 47.53 LIG 0.00  C 
ATOM     16  CD1 ILE B  16      -4.039 -32.113 -12.376  1.00 51.74 LIG 0.01  C 
ENDBRANCH 13 15
ENDBRANCH 12 13
BRANCH 12 17
ATOM     17  C   ILE B  16      -7.110 -29.404 -14.355  1.00 42.33 LIG 0.24  C 
ATOM     18 O    ILE B  16      -8.160 -29.349 -14.932  1.00 39.29 LIG-0.27  OA
ATOM     19  N   TYR B  17      -5.948 -29.137 -14.919  1.00 46.96 LIG-0.35  N 
ATOM     20 H    TYR B  17      -5.194 -29.283 -14.532  1.00 46.96 LIG 0.16  HD
BRANCH 19 21
ATOM     21  CA  TYR B  17      -5.818 -28.577 -16.235  1.00 51.19 LIG 0.18  C 
BRANCH 21 22
ATOM     22  C   TYR B  17      -5.862 -29.661 -17.252  1.00 56.10 LIG 0.24  C 
ATOM     23  N   ASN B  18      -5.606 -30.889 -16.846  1.00 65.39 LIG-0.35  N 
ATOM     24 H    ASN B  18      -5.565 -31.124 -16.021  1.00 65.39 LIG 0.16  HD
ATOM     25 O    TYR B  17      -6.198 -29.398 -18.392  1.00 61.36 LIG-0.27  OA
BRANCH 23 26
ATOM     26  CA  ASN B  18      -5.367 -31.978 -17.807  1.00 70.74 LIG 0.17  C 
BRANCH 26 27
ATOM     27  CB  ASN B  18      -5.331 -33.315 -17.052  1.00 84.74 LIG 0.14  C 
BRANCH 27 28
ATOM     28  CG  ASN B  18      -4.473 -33.251 -15.781  1.00 96.34 LIG 0.22  C 
ATOM     29 OD1  ASN B  18      -3.560 -32.419 -15.669  1.00 99.44 LIG-0.27  OA
ATOM     30  ND2 ASN B  18      -4.751 -34.145 -14.824  1.00 94.73 LIG-0.37  N 
ATOM     31 21HD ASN B  18      -4.289 -34.156 -14.099  1.00 94.73 LIG 0.16  HD
ATOM     32 22HD ASN B  18      -5.391 -34.709 -14.934  1.00 94.73 LIG 0.16  HD
ENDBRANCH 27 28
ENDBRANCH 26 27
BRANCH 26 33
ATOM     33  C   ASN B  18      -6.269 -32.053 -19.062  1.00 72.97 LIG 0.22  C 
ATOM     34 O    ASN B  18      -6.798 -33.107 -19.444  1.00 74.17 LIG-0.29  OA
ENDBRANCH 26 33
ENDBRANCH 23 26
ENDBRANCH 21 22
BRANCH 21 35
ATOM     35  CB  TYR B  17      -4.448 -27.926 -16.337  1.00 54.83 LIG 0.07  C 
BRANCH 35 36
ATOM     36  CG  TYR B  17      -4.004 -27.401 -15.026  1.00 56.96 LIG-0.06  A 
ATOM     37  CD2 TYR B  17      -3.065 -28.110 -14.267  1.00 61.26 LIG 0.01  A 
ATOM     38  CE2 TYR B  17      -2.647 -27.647 -13.041  1.00 70.21 LIG 0.04  A 
ATOM     39  CZ  TYR B  17      -3.186 -26.466 -12.559  1.00 76.40 LIG 0.07  A 
ATOM     40  CE1 TYR B  17      -4.125 -25.749 -13.291  1.00 67.10 LIG 0.04  A 
ATOM     41  CD1 TYR B  17      -4.531 -26.231 -14.522  1.00 57.92 LIG 0.01  A 
BRANCH 39 42
ATOM     42 OH   TYR B  17      -2.779 -26.009 -11.340  1.00 89.25 LIG-0.36  OA
ATOM     43 HH   TYR B  17      -3.429 -26.013 -10.809  1.00 89.25 LIG 0.22  HD
ENDBRANCH 39 42
ENDBRANCH 35 36
ENDBRANCH 21 35
ENDBRANCH 19 21
ENDBRANCH 12 17
ENDBRANCH 9 12
ENDBRANCH 4 8
BRANCH 1 44
ATOM     44  CA  ARG B  14     -10.345 -28.190  -8.296  1.00 32.45 LIG 0.18  C 
BRANCH 44 45
ATOM     45  N   ARG B  14     -10.267 -29.347  -7.434  1.00 38.19 LIG-0.35  N 
ATOM     46 H    ARG B  14      -9.531 -29.401  -6.993  1.00 38.19 LIG 0.16  HD
ATOM     47  C   PRO B  13     -11.246 -30.251  -7.333  1.00 38.91 LIG 0.24  C 
ATOM     48 O    PRO B  13     -12.294 -30.170  -7.942  1.00 32.88 LIG-0.27  OA
BRANCH 47 49
ATOM     49  CA  PRO B  13     -11.005 -31.412  -6.347  1.00 38.31 LIG 0.18  C 
ATOM     50  N   PRO B  13     -12.181 -32.214  -6.085  1.00 38.88 LIG-0.34  N 
ATOM     51  CD  PRO B  13     -11.902 -33.649  -6.246  1.00 43.50 LIG 0.13  C 
ATOM     52  C   PRO B  12     -13.372 -31.718  -5.713  1.00 40.77 LIG 0.26  C 
ATOM     53  CG  PRO B  13     -10.414 -33.712  -6.304  1.00 43.53 LIG 0.02  C 
ATOM     54  CB  PRO B  13     -10.012 -32.422  -6.922  1.00 39.91 LIG 0.04  C 
ATOM     55 O    PRO B  12     -13.574 -30.515  -5.490  1.00 44.45 LIG-0.27  OA
BRANCH 52 56
ATOM     56  CA  PRO B  12     -14.509 -32.698  -5.565  1.00 38.46 LIG 0.35  C 
ATOM     57  CB  PRO B  12     -15.809 -32.017  -5.998  1.00 43.42 LIG 0.05  C 
ATOM     58  CG  PRO B  12     -16.819 -32.474  -5.028  1.00 41.12 LIG 0.04  C 
ATOM     59  CD  PRO B  12     -16.082 -32.641  -3.732  1.00 39.74 LIG 0.32  C 
ATOM     60  N   PRO B  12     -14.721 -32.970  -4.164  1.00 38.12 LIG 0.32  N 
ENDBRANCH 52 56
ENDBRANCH 47 49
ENDBRANCH 44 45
BRANCH 44 61
ATOM     61  CB  ARG B  14      -9.168 -27.267  -7.963  1.00 34.42 LIG 0.04  C 
BRANCH 61 62
ATOM     62  CG  ARG B  14      -9.468 -26.196  -6.914  1.00 32.66 LIG 0.02  C 
BRANCH 62 63
ATOM     63  CD  ARG B  14     -10.962 -26.143  -6.667  1.00 35.24 LIG 0.14  C 
BRANCH 63 64
ATOM     64  NE  ARG B  14     -11.355 -25.049  -5.762  1.00 42.22 LIG-0.23  N 
ATOM     65  CZ  ARG B  14     -12.211 -25.144  -4.741  1.00 44.72 LIG 0.67  C 
ATOM     66  NH2 ARG B  14     -12.823 -26.277  -4.453  1.00 43.48 LIG-0.23  N 
ATOM     67  NH1 ARG B  14     -12.469 -24.079  -4.006  1.00 46.51 LIG-0.23  N 
ATOM     68 1HH2 ARG B  14     -12.675 -26.979  -4.928  1.00 43.48 LIG 0.17  HD
ATOM     69 2HH2 ARG B  14     -13.370 -26.314  -3.790  1.00 43.48 LIG 0.17  HD
ATOM     70 2HH1 ARG B  14     -13.020 -24.133  -3.347  1.00 46.51 LIG 0.17  HD
ATOM     71 1HH1 ARG B  14     -12.087 -23.330  -4.185  1.00 46.51 LIG 0.17  HD
ATOM     72 HE   ARG B  14     -11.001 -24.278  -5.904  1.00 42.22 LIG 0.18  HD
ENDBRANCH 63 64
ENDBRANCH 62 63
ENDBRANCH 61 62
ENDBRANCH 44 61
ENDBRANCH 1 44
TORSDOF 22
ENDMDL
MODEL 71
USER: ADFR SOLUTION from run 169
USER: SCORE 21.936774 LL:  -5.194 LR: -18.645 RR:   0.000 FEB: -12.082
USER: RMSD 13.001741
USER: SEED 168
USER: STATUS no improvement in best in 10 clusters for 5 generations
USER: GENES 24
USER: genes 0 Translation |==|  0.61442 0.45647 0.39566
USER: genes 1 Rotation |==|  0.27368 0.06891 0.38869 0.52344
USER: genes 2 Torsion [N]-CA--C-[O] |==|  0.84737
USER: genes 3 Torsion [C]-N--CA-[CB] |==|  0.40540
USER: genes 4 Torsion [N]-CA--CB-[CG2] |==|  0.65656
USER: genes 5 Torsion [CA]-CB--CG1-[CD1] |==|  0.48319
USER: genes 6 Torsion [N]-CA--C-[N] |==|  0.69198
USER: genes 7 Torsion [C]-N--CA-[C] |==|  0.15000
USER: genes 8 Torsion [N]-CA--C-[N] |==|  0.09111
USER: genes 9 Torsion [C]-N--CA-[CB] |==|  0.24540
USER: genes 10 Torsion [N]-CA--CB-[CG] |==|  0.69769
USER: genes 11 Torsion [CA]-CB--CG-[ND2] |==|  0.04929
USER: genes 12 Torsion [N]-CA--C-[O] |==|  0.87764
USER: genes 13 Torsion [N]-CA--CB-[CG] |==|  0.61650
USER: genes 14 Torsion [CA]-CB--CG-[CD2] |==|  0.47611
USER: genes 15 Torsion [CE2]-CZ--OH-[HH] |==|  0.52065
USER: genes 16 Torsion [N]-C--CA-[N] |==|  0.41080
USER: genes 17 Torsion [C]-CA--N-[C] |==|  0.74266
USER: genes 18 Torsion [N]-C--CA-[N] |==|  0.24455
USER: genes 19 Torsion [N]-C--CA-[CB] |==|  0.54212
USER: genes 20 Torsion [C]-CA--CB-[CG] |==|  0.35717
USER: genes 21 Torsion [CA]-CB--CG-[CD] |==|  0.79460
USER: genes 22 Torsion [CB]-CG--CD-[NE] |==|  0.73694
USER: genes 23 Torsion [CG]-CD--NE-[CZ] |==|  0.44279
ROOT
ATOM      1  C   ARG B  14      -6.875 -29.462 -14.828  1.00 32.92 LIG 0.24  C 
ATOM      2 O    ARG B  14      -8.097 -29.346 -14.933  1.00 37.82 LIG-0.27  OA
ATOM      3  N   PRO B  15      -6.280 -29.988 -13.754  1.00 31.88 LIG-0.34  N 
ATOM      4  CA  PRO B  15      -7.089 -30.498 -12.643  1.00 30.79 LIG 0.18  C 
ATOM      5  CB  PRO B  15      -6.051 -31.064 -11.696  1.00 31.22 LIG 0.04  C 
ATOM      6  CG  PRO B  15      -4.948 -31.487 -12.614  1.00 29.82 LIG 0.02  C 
ATOM      7  CD  PRO B  15      -4.867 -30.378 -13.613  1.00 31.43 LIG 0.13  C 
ENDROOT
BRANCH 4 8
ATOM      8  C   PRO B  15      -7.815 -29.358 -11.975  1.00 33.68 LIG 0.24  C 
ATOM      9  N   ILE B  16      -9.130 -29.449 -11.931  1.00 35.41 LIG-0.35  N 
ATOM     10 H    ILE B  16      -9.587 -30.073 -12.308  1.00 35.41 LIG 0.16  HD
ATOM     11 O    PRO B  15      -7.196 -28.391 -11.556  1.00 34.05 LIG-0.27  OA
BRANCH 9 12
ATOM     12  CA  ILE B  16      -9.895 -28.496 -11.240  1.00 37.77 LIG 0.18  C 
BRANCH 12 13
ATOM     13  CB  ILE B  16     -11.232 -28.249 -11.923  1.00 42.27 LIG 0.01  C 
ATOM     14  CG2 ILE B  16     -11.381 -26.789 -12.242  1.00 44.80 LIG 0.01  C 
BRANCH 13 15
ATOM     15  CG1 ILE B  16     -11.306 -29.133 -13.180  1.00 47.53 LIG 0.00  C 
ATOM     16  CD1 ILE B  16     -12.640 -29.127 -13.919  1.00 51.74 LIG 0.01  C 
ENDBRANCH 13 15
ENDBRANCH 12 13
BRANCH 12 17
ATOM     17  C   ILE B  16     -10.031 -29.031  -9.851  1.00 42.33 LIG 0.24  C 
ATOM     18 O    ILE B  16      -9.098 -29.045  -9.097  1.00 39.29 LIG-0.27  OA
ATOM     19  N   TYR B  17     -11.247 -29.424  -9.521  1.00 46.96 LIG-0.35  N 
ATOM     20 H    TYR B  17     -11.882 -29.514 -10.093  1.00 46.96 LIG 0.16  HD
BRANCH 19 21
ATOM     21  CA  TYR B  17     -11.636 -29.745  -8.176  1.00 51.19 LIG 0.18  C 
BRANCH 21 22
ATOM     22  C   TYR B  17     -11.316 -28.609  -7.273  1.00 56.10 LIG 0.24  C 
ATOM     23  N   ASN B  18     -11.398 -27.391  -7.772  1.00 65.39 LIG-0.35  N 
ATOM     24 H    ASN B  18     -11.763 -27.203  -8.527  1.00 65.39 LIG 0.16  HD
ATOM     25 O    TYR B  17     -11.064 -28.828  -6.102  1.00 61.36 LIG-0.27  OA
BRANCH 23 26
ATOM     26  CA  ASN B  18     -10.854 -26.230  -7.049  1.00 70.74 LIG 0.17  C 
BRANCH 26 27
ATOM     27  CB  ASN B  18      -9.378 -26.044  -7.434  1.00 84.74 LIG 0.14  C 
BRANCH 27 28
ATOM     28  CG  ASN B  18      -8.421 -26.411  -6.293  1.00 96.34 LIG 0.22  C 
ATOM     29 OD1  ASN B  18      -7.238 -26.039  -6.307  1.00 99.44 LIG-0.27  OA
ATOM     30  ND2 ASN B  18      -8.926 -27.161  -5.305  1.00 94.73 LIG-0.37  N 
ATOM     31 21HD ASN B  18      -8.424 -27.402  -4.649  1.00 94.73 LIG 0.16  HD
ATOM     32 22HD ASN B  18      -9.751 -27.402  -5.326  1.00 94.73 LIG 0.16  HD
ENDBRANCH 27 28
ENDBRANCH 26 27
BRANCH 26 33
ATOM     33  C   ASN B  18     -11.636 -24.896  -7.120  1.00 72.97 LIG 0.22  C 
ATOM     34 O    ASN B  18     -12.114 -24.455  -8.176  1.00 74.17 LIG-0.29  OA
ENDBRANCH 26 33
ENDBRANCH 23 26
ENDBRANCH 21 22
BRANCH 21 35
ATOM     35  CB  TYR B  17     -10.804 -30.929  -7.715  1.00 54.83 LIG 0.07  C 
BRANCH 35 36
ATOM     36  CG  TYR B  17     -11.626 -31.907  -6.966  1.00 56.96 LIG-0.06  A 
ATOM     37  CD2 TYR B  17     -11.090 -33.150  -6.612  1.00 61.26 LIG 0.01  A 
ATOM     38  CE2 TYR B  17     -11.840 -34.078  -5.927  1.00 70.21 LIG 0.04  A 
ATOM     39  CZ  TYR B  17     -13.150 -33.766  -5.606  1.00 76.40 LIG 0.07  A 
ATOM     40  CE1 TYR B  17     -13.707 -32.541  -5.955  1.00 67.10 LIG 0.04  A 
ATOM     41  CD1 TYR B  17     -12.935 -31.621  -6.641  1.00 57.92 LIG 0.01  A 
BRANCH 39 42
ATOM     42 OH   TYR B  17     -13.898 -34.687  -4.934  1.00 89.25 LIG-0.36  OA
ATOM     43 HH   TYR B  17     -14.694 -34.423  -4.890  1.00 89.25 LIG 0.22  HD
ENDBRANCH 39 42
ENDBRANCH 35 36
ENDBRANCH 21 35
ENDBRANCH 19 21
ENDBRANCH 12 17
ENDBRANCH 9 12
ENDBRANCH 4 8
BRANCH 1 44
ATOM     44  CA  ARG B  14      -5.995 -28.952 -15.931  1.00 32.45 LIG 0.18  C 
BRANCH 44 45
ATOM     45  N   ARG B  14      -6.779 -29.197 -17.120  1.00 38.19 LIG-0.35  N 
ATOM     46 H    ARG B  14      -7.320 -28.558 -17.316  1.00 38.19 LIG 0.16  HD
ATOM     47  C   PRO B  13      -6.674 -30.312 -17.848  1.00 38.91 LIG 0.24  C 
ATOM     48 O    PRO B  13      -5.899 -31.210 -17.586  1.00 32.88 LIG-0.27  OA
BRANCH 47 49
ATOM     49  CA  PRO B  13      -7.570 -30.398 -19.100  1.00 38.31 LIG 0.18  C 
ATOM     50  N   PRO B  13      -6.974 -29.829 -20.290  1.00 38.88 LIG-0.34  N 
ATOM     51  CD  PRO B  13      -7.051 -30.756 -21.428  1.00 43.50 LIG 0.13  C 
ATOM     52  C   PRO B  12      -6.442 -28.598 -20.359  1.00 40.77 LIG 0.26  C 
ATOM     53  CG  PRO B  13      -8.014 -31.797 -20.968  1.00 43.53 LIG 0.02  C 
ATOM     54  CB  PRO B  13      -7.822 -31.853 -19.496  1.00 39.91 LIG 0.04  C 
ATOM     55 O    PRO B  12      -6.464 -27.788 -19.420  1.00 44.45 LIG-0.27  OA
BRANCH 52 56
ATOM     56  CA  PRO B  12      -5.789 -28.203 -21.659  1.00 38.46 LIG 0.35  C 
ATOM     57  CB  PRO B  12      -4.932 -26.958 -21.426  1.00 43.42 LIG 0.05  C 
ATOM     58  CG  PRO B  12      -5.147 -26.118 -22.617  1.00 41.12 LIG 0.04  C 
ATOM     59  CD  PRO B  12      -6.566 -26.374 -23.035  1.00 39.74 LIG 0.32  C 
ATOM     60  N   PRO B  12      -6.803 -27.747 -22.579  1.00 38.12 LIG 0.32  N 
ENDBRANCH 52 56
ENDBRANCH 47 49
ENDBRANCH 44 45
BRANCH 44 61
ATOM     61  CB  ARG B  14      -5.829 -27.437 -15.773  1.00 34.42 LIG 0.04  C 
BRANCH 61 62
ATOM     62  CG  ARG B  14      -4.382 -26.945 -15.787  1.00 32.66 LIG 0.02  C 
BRANCH 62 63
ATOM     63  CD  ARG B  14      -3.718 -27.305 -14.473  1.00 35.24 LIG 0.14  C 
BRANCH 63 64
ATOM     64  NE  ARG B  14      -3.769 -26.213 -13.486  1.00 42.22 LIG-0.23  N 
ATOM     65  CZ  ARG B  14      -3.632 -26.341 -12.164  1.00 44.72 LIG 0.67  C 
ATOM     66  NH2 ARG B  14      -3.449 -27.519 -11.599  1.00 43.48 LIG-0.23  N 
ATOM     67  NH1 ARG B  14      -3.695 -25.271 -11.395  1.00 46.51 LIG-0.23  N 
ATOM     68 1HH2 ARG B  14      -3.416 -28.229 -12.084  1.00 43.48 LIG 0.17  HD
ATOM     69 2HH2 ARG B  14      -3.363 -27.577 -10.745  1.00 43.48 LIG 0.17  HD
ATOM     70 2HH1 ARG B  14      -3.608 -25.348 -10.542  1.00 46.51 LIG 0.17  HD
ATOM     71 1HH1 ARG B  14      -3.824 -24.496 -11.745  1.00 46.51 LIG 0.17  HD
ATOM     72 HE   ARG B  14      -3.900 -25.418 -13.789  1.00 42.22 LIG 0.18  HD
ENDBRANCH 63 64
ENDBRANCH 62 63
ENDBRANCH 61 62
ENDBRANCH 44 61
ENDBRANCH 1 44
TORSDOF 22
ENDMDL
MODEL 72
USER: ADFR SOLUTION from run 142
USER: SCORE 22.265617 LL:  -5.187 LR: -18.636 RR:   0.000 FEB: -12.074
USER: RMSD 3.530860
USER: SEED 141
USER: STATUS searching
USER: GENES 24
USER: genes 0 Translation |==|  0.44303 0.46712 0.56977
USER: genes 1 Rotation |==|  0.60847 0.47610 0.44666 0.98458
USER: genes 2 Torsion [N]-CA--C-[O] |==|  0.86825
USER: genes 3 Torsion [C]-N--CA-[CB] |==|  0.26621
USER: genes 4 Torsion [N]-CA--CB-[CG2] |==|  0.05930
USER: genes 5 Torsion [CA]-CB--CG1-[CD1] |==|  0.49532
USER: genes 6 Torsion [N]-CA--C-[N] |==|  0.35915
USER: genes 7 Torsion [C]-N--CA-[C] |==|  0.76491
USER: genes 8 Torsion [N]-CA--C-[N] |==|  0.25793
USER: genes 9 Torsion [C]-N--CA-[CB] |==|  0.19228
USER: genes 10 Torsion [N]-CA--CB-[CG] |==|  0.21902
USER: genes 11 Torsion [CA]-CB--CG-[ND2] |==|  0.38497
USER: genes 12 Torsion [N]-CA--C-[O] |==|  0.08395
USER: genes 13 Torsion [N]-CA--CB-[CG] |==|  0.60926
USER: genes 14 Torsion [CA]-CB--CG-[CD2] |==|  0.83759
USER: genes 15 Torsion [CE2]-CZ--OH-[HH] |==|  0.15502
USER: genes 16 Torsion [N]-C--CA-[N] |==|  0.42922
USER: genes 17 Torsion [C]-CA--N-[C] |==|  0.55239
USER: genes 18 Torsion [N]-C--CA-[N] |==|  0.21912
USER: genes 19 Torsion [N]-C--CA-[CB] |==|  0.70119
USER: genes 20 Torsion [C]-CA--CB-[CG] |==|  0.51416
USER: genes 21 Torsion [CA]-CB--CG-[CD] |==|  0.78175
USER: genes 22 Torsion [CB]-CG--CD-[NE] |==|  0.02040
USER: genes 23 Torsion [CG]-CD--NE-[CZ] |==|  0.62475
ROOT
ATOM      1  C   ARG B  14     -10.731 -29.262  -9.997  1.00 32.92 LIG 0.24  C 
ATOM      2 O    ARG B  14     -10.155 -30.283 -10.377  1.00 37.82 LIG-0.27  OA
ATOM      3  N   PRO B  15     -10.899 -28.187 -10.771  1.00 31.88 LIG-0.34  N 
ATOM      4  CA  PRO B  15     -10.424 -28.198 -12.158  1.00 30.79 LIG 0.18  C 
ATOM      5  CB  PRO B  15     -10.877 -26.852 -12.686  1.00 31.22 LIG 0.04  C 
ATOM      6  CG  PRO B  15     -12.110 -26.571 -11.887  1.00 29.82 LIG 0.02  C 
ATOM      7  CD  PRO B  15     -11.752 -27.017 -10.506  1.00 31.43 LIG 0.13  C 
ENDROOT
BRANCH 4 8
ATOM      8  C   PRO B  15      -8.919 -28.271 -12.181  1.00 33.68 LIG 0.24  C 
ATOM      9  N   ILE B  16      -8.390 -29.201 -12.953  1.00 35.41 LIG-0.35  N 
ATOM     10 H    ILE B  16      -8.845 -29.793 -13.382  1.00 35.41 LIG 0.16  HD
ATOM     11 O    PRO B  15      -8.252 -27.533 -11.471  1.00 34.05 LIG-0.27  OA
BRANCH 9 12
ATOM     12  CA  ILE B  16      -7.000 -29.287 -13.130  1.00 37.77 LIG 0.18  C 
BRANCH 12 13
ATOM     13  CB  ILE B  16      -6.377 -30.301 -12.183  1.00 42.27 LIG 0.01  C 
ATOM     14  CG2 ILE B  16      -7.423 -31.272 -11.714  1.00 44.80 LIG 0.01  C 
BRANCH 13 15
ATOM     15  CG1 ILE B  16      -5.216 -30.999 -12.913  1.00 47.53 LIG 0.00  C 
ATOM     16  CD1 ILE B  16      -4.442 -32.029 -12.097  1.00 51.74 LIG 0.01  C 
ENDBRANCH 13 15
ENDBRANCH 12 13
BRANCH 12 17
ATOM     17  C   ILE B  16      -6.807 -29.628 -14.572  1.00 42.33 LIG 0.24  C 
ATOM     18 O    ILE B  16      -7.429 -30.513 -15.090  1.00 39.29 LIG-0.27  OA
ATOM     19  N   TYR B  17      -5.955 -28.854 -15.219  1.00 46.96 LIG-0.35  N 
ATOM     20 H    TYR B  17      -5.434 -28.296 -14.822  1.00 46.96 LIG 0.16  HD
BRANCH 19 21
ATOM     21  CA  TYR B  17      -5.806 -28.862 -16.647  1.00 51.19 LIG 0.18  C 
BRANCH 21 22
ATOM     22  C   TYR B  17      -4.869 -29.944 -17.051  1.00 56.10 LIG 0.24  C 
ATOM     23  N   ASN B  18      -5.388 -31.115 -17.363  1.00 65.39 LIG-0.35  N 
ATOM     24 H    ASN B  18      -6.227 -31.252 -17.491  1.00 65.39 LIG 0.16  HD
ATOM     25 O    TYR B  17      -3.681 -29.699 -17.152  1.00 61.36 LIG-0.27  OA
BRANCH 23 26
ATOM     26  CA  ASN B  18      -4.542 -32.310 -17.517  1.00 70.74 LIG 0.17  C 
BRANCH 26 27
ATOM     27  CB  ASN B  18      -3.992 -32.718 -16.142  1.00 84.74 LIG 0.14  C 
BRANCH 27 28
ATOM     28  CG  ASN B  18      -5.023 -33.476 -15.296  1.00 96.34 LIG 0.22  C 
ATOM     29 OD1  ASN B  18      -6.207 -33.107 -15.251  1.00 99.44 LIG-0.27  OA
ATOM     30  ND2 ASN B  18      -4.574 -34.531 -14.606  1.00 94.73 LIG-0.37  N 
ATOM     31 21HD ASN B  18      -5.112 -34.980 -14.108  1.00 94.73 LIG 0.16  HD
ATOM     32 22HD ASN B  18      -3.747 -34.760 -14.660  1.00 94.73 LIG 0.16  HD
ENDBRANCH 27 28
ENDBRANCH 26 27
BRANCH 26 33
ATOM     33  C   ASN B  18      -5.127 -33.522 -18.283  1.00 72.97 LIG 0.22  C 
ATOM     34 O    ASN B  18      -5.958 -33.400 -19.194  1.00 74.17 LIG-0.29  OA
ENDBRANCH 26 33
ENDBRANCH 23 26
ENDBRANCH 21 22
BRANCH 21 35
ATOM     35  CB  TYR B  17      -5.171 -27.545 -17.061  1.00 54.83 LIG 0.07  C 
BRANCH 35 36
ATOM     36  CG  TYR B  17      -5.769 -27.030 -18.314  1.00 56.96 LIG-0.06  A 
ATOM     37  CD2 TYR B  17      -5.729 -27.802 -19.481  1.00 61.26 LIG 0.01  A 
ATOM     38  CE2 TYR B  17      -6.267 -27.338 -20.659  1.00 70.21 LIG 0.04  A 
ATOM     39  CZ  TYR B  17      -6.840 -26.078 -20.675  1.00 76.40 LIG 0.07  A 
ATOM     40  CE1 TYR B  17      -6.884 -25.289 -19.531  1.00 67.10 LIG 0.04  A 
ATOM     41  CD1 TYR B  17      -6.339 -25.775 -18.357  1.00 57.92 LIG 0.01  A 
BRANCH 39 42
ATOM     42 OH   TYR B  17      -7.367 -25.612 -21.843  1.00 89.25 LIG-0.36  OA
ATOM     43 HH   TYR B  17      -7.939 -26.156 -22.129  1.00 89.25 LIG 0.22  HD
ENDBRANCH 39 42
ENDBRANCH 35 36
ENDBRANCH 21 35
ENDBRANCH 19 21
ENDBRANCH 12 17
ENDBRANCH 9 12
ENDBRANCH 4 8
BRANCH 1 44
ATOM     44  CA  ARG B  14     -11.233 -29.190  -8.585  1.00 32.45 LIG 0.18  C 
BRANCH 44 45
ATOM     45  N   ARG B  14     -11.477 -30.574  -8.249  1.00 38.19 LIG-0.35  N 
ATOM     46 H    ARG B  14     -11.071 -31.132  -8.763  1.00 38.19 LIG 0.16  HD
ATOM     47  C   PRO B  13     -12.262 -30.952  -7.236  1.00 38.91 LIG 0.24  C 
ATOM     48 O    PRO B  13     -12.823 -30.168  -6.498  1.00 32.88 LIG-0.27  OA
BRANCH 47 49
ATOM     49  CA  PRO B  13     -12.393 -32.471  -7.004  1.00 38.31 LIG 0.18  C 
ATOM     50  N   PRO B  13     -11.267 -33.060  -6.311  1.00 38.88 LIG-0.34  N 
ATOM     51  CD  PRO B  13     -11.705 -33.885  -5.175  1.00 43.50 LIG 0.13  C 
ATOM     52  C   PRO B  12      -9.984 -32.899  -6.672  1.00 40.77 LIG 0.26  C 
ATOM     53  CG  PRO B  13     -13.170 -34.039  -5.398  1.00 43.53 LIG 0.02  C 
ATOM     54  CB  PRO B  13     -13.574 -32.786  -6.086  1.00 39.91 LIG 0.04  C 
ATOM     55 O    PRO B  12      -9.629 -32.277  -7.684  1.00 44.45 LIG-0.27  OA
BRANCH 52 56
ATOM     56  CA  PRO B  12      -8.936 -33.518  -5.781  1.00 38.46 LIG 0.35  C 
ATOM     57  CB  PRO B  12      -8.217 -32.407  -5.015  1.00 43.42 LIG 0.05  C 
ATOM     58  CG  PRO B  12      -6.799 -32.805  -5.007  1.00 41.12 LIG 0.04  C 
ATOM     59  CD  PRO B  12      -6.578 -33.522  -6.307  1.00 39.74 LIG 0.32  C 
ATOM     60  N   PRO B  12      -7.896 -34.091  -6.600  1.00 38.12 LIG 0.32  N 
ENDBRANCH 52 56
ENDBRANCH 47 49
ENDBRANCH 44 45
BRANCH 44 61
ATOM     61  CB  ARG B  14     -10.107 -28.671  -7.684  1.00 34.42 LIG 0.04  C 
BRANCH 61 62
ATOM     62  CG  ARG B  14     -10.433 -28.659  -6.191  1.00 32.66 LIG 0.02  C 
BRANCH 62 63
ATOM     63  CD  ARG B  14     -11.300 -27.456  -5.879  1.00 35.24 LIG 0.14  C 
BRANCH 63 64
ATOM     64  NE  ARG B  14     -11.736 -26.734  -7.087  1.00 42.22 LIG-0.23  N 
ATOM     65  CZ  ARG B  14     -11.725 -25.410  -7.257  1.00 44.72 LIG 0.67  C 
ATOM     66  NH2 ARG B  14     -11.322 -24.592  -6.303  1.00 43.48 LIG-0.23  N 
ATOM     67  NH1 ARG B  14     -12.141 -24.896  -8.400  1.00 46.51 LIG-0.23  N 
ATOM     68 1HH2 ARG B  14     -11.057 -24.909  -5.548  1.00 43.48 LIG 0.17  HD
ATOM     69 2HH2 ARG B  14     -11.324 -23.742  -6.436  1.00 43.48 LIG 0.17  HD
ATOM     70 2HH1 ARG B  14     -12.137 -24.043  -8.515  1.00 46.51 LIG 0.17  HD
ATOM     71 1HH1 ARG B  14     -12.416 -25.413  -9.029  1.00 46.51 LIG 0.17  HD
ATOM     72 HE   ARG B  14     -12.024 -27.209  -7.744  1.00 42.22 LIG 0.18  HD
ENDBRANCH 63 64
ENDBRANCH 62 63
ENDBRANCH 61 62
ENDBRANCH 44 61
ENDBRANCH 1 44
TORSDOF 22
ENDMDL
MODEL 73
USER: ADFR SOLUTION from run 118
USER: SCORE 21.454906 LL:  -4.390 LR: -18.592 RR:   0.000 FEB: -12.029
USER: RMSD 5.823191
USER: SEED 117
USER: STATUS no improvement in best in 1 clusters for 5 generations
USER: GENES 24
USER: genes 0 Translation |==|  0.42687 0.63019 0.66932
USER: genes 1 Rotation |==|  0.77412 0.36188 0.11963 0.60537
USER: genes 2 Torsion [N]-CA--C-[O] |==|  0.77452
USER: genes 3 Torsion [C]-N--CA-[CB] |==|  0.42778
USER: genes 4 Torsion [N]-CA--CB-[CG2] |==|  0.53834
USER: genes 5 Torsion [CA]-CB--CG1-[CD1] |==|  0.32043
USER: genes 6 Torsion [N]-CA--C-[N] |==|  0.43726
USER: genes 7 Torsion [C]-N--CA-[C] |==|  0.71822
USER: genes 8 Torsion [N]-CA--C-[N] |==|  0.48803
USER: genes 9 Torsion [C]-N--CA-[CB] |==|  0.11903
USER: genes 10 Torsion [N]-CA--CB-[CG] |==|  0.50152
USER: genes 11 Torsion [CA]-CB--CG-[ND2] |==|  0.23978
USER: genes 12 Torsion [N]-CA--C-[O] |==|  0.94610
USER: genes 13 Torsion [N]-CA--CB-[CG] |==|  0.57131
USER: genes 14 Torsion [CA]-CB--CG-[CD2] |==|  0.66508
USER: genes 15 Torsion [CE2]-CZ--OH-[HH] |==|  0.56601
USER: genes 16 Torsion [N]-C--CA-[N] |==|  0.88346
USER: genes 17 Torsion [C]-CA--N-[C] |==|  0.82758
USER: genes 18 Torsion [N]-C--CA-[N] |==|  0.60155
USER: genes 19 Torsion [N]-C--CA-[CB] |==|  0.17269
USER: genes 20 Torsion [C]-CA--CB-[CG] |==|  0.53090
USER: genes 21 Torsion [CA]-CB--CG-[CD] |==|  0.28496
USER: genes 22 Torsion [CB]-CG--CD-[NE] |==|  0.13301
USER: genes 23 Torsion [CG]-CD--NE-[CZ] |==|  0.56695
ROOT
ATOM      1  C   ARG B  14     -11.094 -26.205  -7.234  1.00 32.92 LIG 0.24  C 
ATOM      2 O    ARG B  14     -11.348 -25.962  -8.415  1.00 37.82 LIG-0.27  OA
ATOM      3  N   PRO B  15      -9.886 -26.583  -6.809  1.00 31.88 LIG-0.34  N 
ATOM      4  CA  PRO B  15      -8.773 -26.687  -7.757  1.00 30.79 LIG 0.18  C 
ATOM      5  CB  PRO B  15      -7.601 -27.054  -6.870  1.00 31.22 LIG 0.04  C 
ATOM      6  CG  PRO B  15      -7.952 -26.418  -5.563  1.00 29.82 LIG 0.02  C 
ATOM      7  CD  PRO B  15      -9.416 -26.680  -5.417  1.00 31.43 LIG 0.13  C 
ENDROOT
BRANCH 4 8
ATOM      8  C   PRO B  15      -9.038 -27.804  -8.735  1.00 33.68 LIG 0.24  C 
ATOM      9  N   ILE B  16      -9.575 -27.456  -9.888  1.00 35.41 LIG-0.35  N 
ATOM     10 H    ILE B  16      -9.834 -26.658 -10.082  1.00 35.41 LIG 0.16  HD
ATOM     11 O    PRO B  15      -8.808 -28.963  -8.426  1.00 34.05 LIG-0.27  OA
BRANCH 9 12
ATOM     12  CA  ILE B  16      -9.765 -28.400 -10.909  1.00 37.77 LIG 0.18  C 
BRANCH 12 13
ATOM     13  CB  ILE B  16     -10.905 -28.003 -11.834  1.00 42.27 LIG 0.01  C 
ATOM     14  CG2 ILE B  16     -11.297 -29.172 -12.692  1.00 44.80 LIG 0.01  C 
BRANCH 13 15
ATOM     15  CG1 ILE B  16     -12.073 -27.490 -10.974  1.00 47.53 LIG 0.00  C 
ATOM     16  CD1 ILE B  16     -12.437 -26.020 -11.157  1.00 51.74 LIG 0.01  C 
ENDBRANCH 13 15
ENDBRANCH 12 13
BRANCH 12 17
ATOM     17  C   ILE B  16      -8.445 -28.499 -11.604  1.00 42.33 LIG 0.24  C 
ATOM     18 O    ILE B  16      -7.626 -27.629 -11.509  1.00 39.29 LIG-0.27  OA
ATOM     19  N   TYR B  17      -8.248 -29.622 -12.269  1.00 46.96 LIG-0.35  N 
ATOM     20 H    TYR B  17      -8.874 -30.192 -12.424  1.00 46.96 LIG 0.16  HD
BRANCH 19 21
ATOM     21  CA  TYR B  17      -6.973 -30.012 -12.802  1.00 51.19 LIG 0.18  C 
BRANCH 21 22
ATOM     22  C   TYR B  17      -6.931 -29.740 -14.263  1.00 56.10 LIG 0.24  C 
ATOM     23  N   ASN B  18      -5.794 -29.961 -14.893  1.00 65.39 LIG-0.35  N 
ATOM     24 H    ASN B  18      -5.130 -30.388 -14.552  1.00 65.39 LIG 0.16  HD
ATOM     25 O    TYR B  17      -7.949 -29.397 -14.837  1.00 61.36 LIG-0.27  OA
BRANCH 23 26
ATOM     26  CA  ASN B  18      -5.573 -29.480 -16.266  1.00 70.74 LIG 0.17  C 
BRANCH 26 27
ATOM     27  CB  ASN B  18      -6.113 -28.047 -16.389  1.00 84.74 LIG 0.14  C 
BRANCH 27 28
ATOM     28  CG  ASN B  18      -5.935 -27.470 -17.799  1.00 96.34 LIG 0.22  C 
ATOM     29 OD1  ASN B  18      -4.947 -26.775 -18.085  1.00 99.44 LIG-0.27  OA
ATOM     30  ND2 ASN B  18      -6.902 -27.740 -18.685  1.00 94.73 LIG-0.37  N 
ATOM     31 21HD ASN B  18      -6.852 -27.428 -19.485  1.00 94.73 LIG 0.16  HD
ATOM     32 22HD ASN B  18      -7.574 -28.225 -18.454  1.00 94.73 LIG 0.16  HD
ENDBRANCH 27 28
ENDBRANCH 26 27
BRANCH 26 33
ATOM     33  C   ASN B  18      -4.151 -29.609 -16.863  1.00 72.97 LIG 0.22  C 
ATOM     34 O    ASN B  18      -3.141 -29.760 -16.160  1.00 74.17 LIG-0.29  OA
ENDBRANCH 26 33
ENDBRANCH 23 26
ENDBRANCH 21 22
BRANCH 21 35
ATOM     35  CB  TYR B  17      -6.828 -31.514 -12.625  1.00 54.83 LIG 0.07  C 
BRANCH 35 36
ATOM     36  CG  TYR B  17      -5.404 -31.914 -12.560  1.00 56.96 LIG-0.06  A 
ATOM     37  CD2 TYR B  17      -4.884 -32.814 -13.498  1.00 61.26 LIG 0.01  A 
ATOM     38  CE2 TYR B  17      -3.567 -33.209 -13.448  1.00 70.21 LIG 0.04  A 
ATOM     39  CZ  TYR B  17      -2.763 -32.710 -12.438  1.00 76.40 LIG 0.07  A 
ATOM     40  CE1 TYR B  17      -3.259 -31.822 -11.490  1.00 67.10 LIG 0.04  A 
ATOM     41  CD1 TYR B  17      -4.585 -31.437 -11.559  1.00 57.92 LIG 0.01  A 
BRANCH 39 42
ATOM     42 OH   TYR B  17      -1.459 -33.106 -12.382  1.00 89.25 LIG-0.36  OA
ATOM     43 HH   TYR B  17      -1.173 -33.020 -11.597  1.00 89.25 LIG 0.22  HD
ENDBRANCH 39 42
ENDBRANCH 35 36
ENDBRANCH 21 35
ENDBRANCH 19 21
ENDBRANCH 12 17
ENDBRANCH 9 12
ENDBRANCH 4 8
BRANCH 1 44
ATOM     44  CA  ARG B  14     -12.195 -26.122  -6.219  1.00 32.45 LIG 0.18  C 
BRANCH 44 45
ATOM     45  N   ARG B  14     -11.994 -27.307  -5.415  1.00 38.19 LIG-0.35  N 
ATOM     46 H    ARG B  14     -11.817 -27.139  -4.590  1.00 38.19 LIG 0.16  HD
ATOM     47  C   PRO B  13     -12.074 -28.546  -5.907  1.00 38.91 LIG 0.24  C 
ATOM     48 O    PRO B  13     -12.340 -28.788  -7.068  1.00 32.88 LIG-0.27  OA
BRANCH 47 49
ATOM     49  CA  PRO B  13     -11.854 -29.696  -4.903  1.00 38.31 LIG 0.18  C 
ATOM     50  N   PRO B  13     -11.144 -30.830  -5.454  1.00 38.88 LIG-0.34  N 
ATOM     51  CD  PRO B  13     -10.022 -31.233  -4.594  1.00 43.50 LIG 0.13  C 
ATOM     52  C   PRO B  12     -11.481 -31.458  -6.592  1.00 40.77 LIG 0.26  C 
ATOM     53  CG  PRO B  13     -10.273 -30.497  -3.323  1.00 43.53 LIG 0.02  C 
ATOM     54  CB  PRO B  13     -10.960 -29.250  -3.746  1.00 39.91 LIG 0.04  C 
ATOM     55 O    PRO B  12     -12.484 -31.169  -7.263  1.00 44.45 LIG-0.27  OA
BRANCH 52 56
ATOM     56  CA  PRO B  12     -10.576 -32.570  -7.058  1.00 38.46 LIG 0.35  C 
ATOM     57  CB  PRO B  12     -10.570 -33.679  -6.005  1.00 43.42 LIG 0.05  C 
ATOM     58  CG  PRO B  12      -9.170 -34.132  -5.936  1.00 41.12 LIG 0.04  C 
ATOM     59  CD  PRO B  12      -8.342 -32.910  -6.202  1.00 39.74 LIG 0.32  C 
ATOM     60  N   PRO B  12      -9.211 -32.100  -7.059  1.00 38.12 LIG 0.32  N 
ENDBRANCH 52 56
ENDBRANCH 47 49
ENDBRANCH 44 45
BRANCH 44 61
ATOM     61  CB  ARG B  14     -11.960 -24.897  -5.330  1.00 34.42 LIG 0.04  C 
BRANCH 61 62
ATOM     62  CG  ARG B  14     -12.844 -24.826  -4.085  1.00 32.66 LIG 0.02  C 
BRANCH 62 63
ATOM     63  CD  ARG B  14     -12.037 -25.244  -2.874  1.00 35.24 LIG 0.14  C 
BRANCH 63 64
ATOM     64  NE  ARG B  14     -10.724 -24.578  -2.801  1.00 42.22 LIG-0.23  N 
ATOM     65  CZ  ARG B  14      -9.646 -25.035  -2.161  1.00 44.72 LIG 0.67  C 
ATOM     66  NH2 ARG B  14      -9.669 -26.169  -1.487  1.00 43.48 LIG-0.23  N 
ATOM     67  NH1 ARG B  14      -8.528 -24.333  -2.183  1.00 46.51 LIG-0.23  N 
ATOM     68 1HH2 ARG B  14     -10.392 -26.634  -1.453  1.00 43.48 LIG 0.17  HD
ATOM     69 2HH2 ARG B  14      -8.961 -26.443  -1.082  1.00 43.48 LIG 0.17  HD
ATOM     70 2HH1 ARG B  14      -7.830 -24.621  -1.772  1.00 46.51 LIG 0.17  HD
ATOM     71 1HH1 ARG B  14      -8.497 -23.586  -2.609  1.00 46.51 LIG 0.17  HD
ATOM     72 HE   ARG B  14     -10.646 -23.824  -3.210  1.00 42.22 LIG 0.18  HD
ENDBRANCH 63 64
ENDBRANCH 62 63
ENDBRANCH 61 62
ENDBRANCH 44 61
ENDBRANCH 1 44
TORSDOF 22
ENDMDL
MODEL 74
USER: ADFR SOLUTION from run 8
USER: SCORE 22.735521 LL:  -5.251 LR: -18.593 RR:   0.000 FEB: -12.030
USER: RMSD 4.870123
USER: SEED 74644
USER: STATUS no improvement in best in 20 clusters for 5 generations
USER: GENES 24
USER: genes 0 Translation |==|  0.48284 0.48984 0.57308
USER: genes 1 Rotation |==|  0.47240 0.55322 0.54693 0.99417
USER: genes 2 Torsion [N]-CA--C-[O] |==|  0.85829
USER: genes 3 Torsion [C]-N--CA-[CB] |==|  0.85497
USER: genes 4 Torsion [N]-CA--CB-[CG2] |==|  0.32445
USER: genes 5 Torsion [CA]-CB--CG1-[CD1] |==|  0.04579
USER: genes 6 Torsion [N]-CA--C-[N] |==|  0.46612
USER: genes 7 Torsion [C]-N--CA-[C] |==|  0.65075
USER: genes 8 Torsion [N]-CA--C-[N] |==|  0.86368
USER: genes 9 Torsion [C]-N--CA-[CB] |==|  0.78782
USER: genes 10 Torsion [N]-CA--CB-[CG] |==|  0.92413
USER: genes 11 Torsion [CA]-CB--CG-[ND2] |==|  0.29882
USER: genes 12 Torsion [N]-CA--C-[O] |==|  0.13744
USER: genes 13 Torsion [N]-CA--CB-[CG] |==|  0.97126
USER: genes 14 Torsion [CA]-CB--CG-[CD2] |==|  0.77313
USER: genes 15 Torsion [CE2]-CZ--OH-[HH] |==|  0.98620
USER: genes 16 Torsion [N]-C--CA-[N] |==|  0.37651
USER: genes 17 Torsion [C]-CA--N-[C] |==|  0.78927
USER: genes 18 Torsion [N]-C--CA-[N] |==|  0.48244
USER: genes 19 Torsion [N]-C--CA-[CB] |==|  0.55580
USER: genes 20 Torsion [C]-CA--CB-[CG] |==|  0.54109
USER: genes 21 Torsion [CA]-CB--CG-[CD] |==|  0.38781
USER: genes 22 Torsion [CB]-CG--CD-[NE] |==|  0.43176
USER: genes 23 Torsion [CG]-CD--NE-[CZ] |==|  0.33969
ROOT
ATOM      1  C   ARG B  14      -9.835 -28.837  -9.905  1.00 32.92 LIG 0.24  C 
ATOM      2 O    ARG B  14      -8.903 -29.638  -9.995  1.00 37.82 LIG-0.27  OA
ATOM      3  N   PRO B  15     -10.600 -28.487 -10.943  1.00 31.88 LIG-0.34  N 
ATOM      4  CA  PRO B  15     -10.376 -29.093 -12.258  1.00 30.79 LIG 0.18  C 
ATOM      5  CB  PRO B  15     -11.482 -28.495 -13.104  1.00 31.22 LIG 0.04  C 
ATOM      6  CG  PRO B  15     -12.575 -28.254 -12.112  1.00 29.82 LIG 0.02  C 
ATOM      7  CD  PRO B  15     -11.860 -27.725 -10.910  1.00 31.43 LIG 0.13  C 
ENDROOT
BRANCH 4 8
ATOM      8  C   PRO B  15      -9.036 -28.661 -12.798  1.00 33.68 LIG 0.24  C 
ATOM      9  N   ILE B  16      -8.215 -29.626 -13.164  1.00 35.41 LIG-0.35  N 
ATOM     10 H    ILE B  16      -8.372 -30.465 -13.056  1.00 35.41 LIG 0.16  HD
ATOM     11 O    PRO B  15      -8.735 -27.477 -12.830  1.00 34.05 LIG-0.27  OA
BRANCH 9 12
ATOM     12  CA  ILE B  16      -6.986 -29.332 -13.777  1.00 37.77 LIG 0.18  C 
BRANCH 12 13
ATOM     13  CB  ILE B  16      -7.163 -28.406 -14.970  1.00 42.27 LIG 0.01  C 
ATOM     14  CG2 ILE B  16      -6.456 -27.106 -14.717  1.00 44.80 LIG 0.01  C 
BRANCH 13 15
ATOM     15  CG1 ILE B  16      -6.637 -29.124 -16.226  1.00 47.53 LIG 0.00  C 
ATOM     16  CD1 ILE B  16      -6.452 -30.632 -16.101  1.00 51.74 LIG 0.01  C 
ENDBRANCH 13 15
ENDBRANCH 12 13
BRANCH 12 17
ATOM     17  C   ILE B  16      -6.136 -28.748 -12.695  1.00 42.33 LIG 0.24  C 
ATOM     18 O    ILE B  16      -6.600 -28.459 -11.628  1.00 39.29 LIG-0.27  OA
ATOM     19  N   TYR B  17      -4.855 -28.632 -12.994  1.00 46.96 LIG-0.35  N 
ATOM     20 H    TYR B  17      -4.548 -28.737 -13.790  1.00 46.96 LIG 0.16  HD
BRANCH 19 21
ATOM     21  CA  TYR B  17      -3.843 -28.319 -12.025  1.00 51.19 LIG 0.18  C 
BRANCH 21 22
ATOM     22  C   TYR B  17      -3.064 -27.134 -12.472  1.00 56.10 LIG 0.24  C 
ATOM     23  N   ASN B  18      -2.608 -27.136 -13.709  1.00 65.39 LIG-0.35  N 
ATOM     24 H    ASN B  18      -2.853 -27.697 -14.312  1.00 65.39 LIG 0.16  HD
ATOM     25 O    TYR B  17      -2.937 -26.184 -11.721  1.00 61.36 LIG-0.27  OA
BRANCH 23 26
ATOM     26  CA  ASN B  18      -1.616 -26.145 -14.160  1.00 70.74 LIG 0.17  C 
BRANCH 26 27
ATOM     27  CB  ASN B  18      -2.319 -24.799 -14.388  1.00 84.74 LIG 0.14  C 
BRANCH 27 28
ATOM     28  CG  ASN B  18      -3.801 -24.961 -14.750  1.00 96.34 LIG 0.22  C 
ATOM     29 OD1  ASN B  18      -4.143 -25.371 -15.870  1.00 99.44 LIG-0.27  OA
ATOM     30  ND2 ASN B  18      -4.689 -24.622 -13.808  1.00 94.73 LIG-0.37  N 
ATOM     31 21HD ASN B  18      -5.531 -24.685 -13.969  1.00 94.73 LIG 0.16  HD
ATOM     32 22HD ASN B  18      -4.418 -24.341 -13.042  1.00 94.73 LIG 0.16  HD
ENDBRANCH 27 28
ENDBRANCH 26 27
BRANCH 26 33
ATOM     33  C   ASN B  18      -0.321 -25.982 -13.329  1.00 72.97 LIG 0.22  C 
ATOM     34 O    ASN B  18       0.378 -26.946 -12.983  1.00 74.17 LIG-0.29  OA
ENDBRANCH 26 33
ENDBRANCH 23 26
ENDBRANCH 21 22
BRANCH 21 35
ATOM     35  CB  TYR B  17      -2.875 -29.489 -11.961  1.00 54.83 LIG 0.07  C 
BRANCH 35 36
ATOM     36  CG  TYR B  17      -3.395 -30.659 -12.705  1.00 56.96 LIG-0.06  A 
ATOM     37  CD2 TYR B  17      -4.326 -31.516 -12.106  1.00 61.26 LIG 0.01  A 
ATOM     38  CE2 TYR B  17      -4.813 -32.615 -12.774  1.00 70.21 LIG 0.04  A 
ATOM     39  CZ  TYR B  17      -4.351 -32.871 -14.054  1.00 76.40 LIG 0.07  A 
ATOM     40  CE1 TYR B  17      -3.421 -32.040 -14.667  1.00 67.10 LIG 0.04  A 
ATOM     41  CD1 TYR B  17      -2.946 -30.939 -13.978  1.00 57.92 LIG 0.01  A 
BRANCH 39 42
ATOM     42 OH   TYR B  17      -4.826 -33.966 -14.715  1.00 89.25 LIG-0.36  OA
ATOM     43 HH   TYR B  17      -5.323 -34.409 -14.203  1.00 89.25 LIG 0.22  HD
ENDBRANCH 39 42
ENDBRANCH 35 36
ENDBRANCH 21 35
ENDBRANCH 19 21
ENDBRANCH 12 17
ENDBRANCH 9 12
ENDBRANCH 4 8
BRANCH 1 44
ATOM     44  CA  ARG B  14     -10.108 -28.178  -8.585  1.00 32.45 LIG 0.18  C 
BRANCH 44 45
ATOM     45  N   ARG B  14     -10.059 -29.279  -7.650  1.00 38.19 LIG-0.35  N 
ATOM     46 H    ARG B  14      -9.337 -29.305  -7.184  1.00 38.19 LIG 0.16  HD
ATOM     47  C   PRO B  13     -11.045 -30.172  -7.520  1.00 38.91 LIG 0.24  C 
ATOM     48 O    PRO B  13     -12.074 -30.129  -8.163  1.00 32.88 LIG-0.27  OA
BRANCH 47 49
ATOM     49  CA  PRO B  13     -10.837 -31.269  -6.456  1.00 38.31 LIG 0.18  C 
ATOM     50  N   PRO B  13     -11.989 -32.121  -6.256  1.00 38.88 LIG-0.34  N 
ATOM     51  CD  PRO B  13     -11.625 -33.544  -6.315  1.00 43.50 LIG 0.13  C 
ATOM     52  C   PRO B  12     -13.233 -31.673  -6.018  1.00 40.77 LIG 0.26  C 
ATOM     53  CG  PRO B  13     -10.137 -33.528  -6.237  1.00 43.53 LIG 0.02  C 
ATOM     54  CB  PRO B  13      -9.746 -32.250  -6.885  1.00 39.91 LIG 0.04  C 
ATOM     55 O    PRO B  12     -13.515 -30.473  -5.879  1.00 44.45 LIG-0.27  OA
BRANCH 52 56
ATOM     56  CA  PRO B  12     -14.328 -32.705  -5.919  1.00 38.46 LIG 0.35  C 
ATOM     57  CB  PRO B  12     -15.677 -32.021  -6.151  1.00 43.42 LIG 0.05  C 
ATOM     58  CG  PRO B  12     -16.591 -32.643  -5.178  1.00 41.12 LIG 0.04  C 
ATOM     59  CD  PRO B  12     -15.745 -32.957  -3.979  1.00 39.74 LIG 0.32  C 
ATOM     60  N   PRO B  12     -14.417 -33.173  -4.557  1.00 38.12 LIG 0.32  N 
ENDBRANCH 52 56
ENDBRANCH 47 49
ENDBRANCH 44 45
BRANCH 44 61
ATOM     61  CB  ARG B  14      -8.956 -27.223  -8.259  1.00 34.42 LIG 0.04  C 
BRANCH 61 62
ATOM     62  CG  ARG B  14      -8.906 -26.749  -6.806  1.00 32.66 LIG 0.02  C 
BRANCH 62 63
ATOM     63  CD  ARG B  14      -7.465 -26.725  -6.338  1.00 35.24 LIG 0.14  C 
BRANCH 63 64
ATOM     64  NE  ARG B  14      -7.239 -25.783  -5.227  1.00 42.22 LIG-0.23  N 
ATOM     65  CZ  ARG B  14      -6.744 -26.090  -4.026  1.00 44.72 LIG 0.67  C 
ATOM     66  NH2 ARG B  14      -6.418 -27.328  -3.707  1.00 43.48 LIG-0.23  N 
ATOM     67  NH1 ARG B  14      -6.589 -25.140  -3.122  1.00 46.51 LIG-0.23  N 
ATOM     68 1HH2 ARG B  14      -6.522 -27.961  -4.280  1.00 43.48 LIG 0.17  HD
ATOM     69 2HH2 ARG B  14      -6.100 -27.501  -2.926  1.00 43.48 LIG 0.17  HD
ATOM     70 2HH1 ARG B  14      -6.272 -25.332  -2.346  1.00 46.51 LIG 0.17  HD
ATOM     71 1HH1 ARG B  14      -6.806 -24.329  -3.309  1.00 46.51 LIG 0.17  HD
ATOM     72 HE   ARG B  14      -7.445 -24.959  -5.366  1.00 42.22 LIG 0.18  HD
ENDBRANCH 63 64
ENDBRANCH 62 63
ENDBRANCH 61 62
ENDBRANCH 44 61
ENDBRANCH 1 44
TORSDOF 22
ENDMDL
MODEL 75
USER: ADFR SOLUTION from run 157
USER: SCORE 21.545569 LL:  -4.530 LR: -18.567 RR:   0.000 FEB: -12.005
USER: RMSD 4.875977
USER: SEED 156
USER: STATUS no improvement in best in 7 clusters for 5 generations
USER: GENES 24
USER: genes 0 Translation |==|  0.46457 0.49875 0.55962
USER: genes 1 Rotation |==|  0.46465 0.54074 0.59499 0.98792
USER: genes 2 Torsion [N]-CA--C-[O] |==|  0.88918
USER: genes 3 Torsion [C]-N--CA-[CB] |==|  0.15862
USER: genes 4 Torsion [N]-CA--CB-[CG2] |==|  0.11834
USER: genes 5 Torsion [CA]-CB--CG1-[CD1] |==|  0.55857
USER: genes 6 Torsion [N]-CA--C-[N] |==|  0.82398
USER: genes 7 Torsion [C]-N--CA-[C] |==|  0.87418
USER: genes 8 Torsion [N]-CA--C-[N] |==|  0.30109
USER: genes 9 Torsion [C]-N--CA-[CB] |==|  0.32175
USER: genes 10 Torsion [N]-CA--CB-[CG] |==|  0.68624
USER: genes 11 Torsion [CA]-CB--CG-[ND2] |==|  0.71753
USER: genes 12 Torsion [N]-CA--C-[O] |==|  0.18339
USER: genes 13 Torsion [N]-CA--CB-[CG] |==|  0.63267
USER: genes 14 Torsion [CA]-CB--CG-[CD2] |==|  0.26577
USER: genes 15 Torsion [CE2]-CZ--OH-[HH] |==|  0.18931
USER: genes 16 Torsion [N]-C--CA-[N] |==|  0.38417
USER: genes 17 Torsion [C]-CA--N-[C] |==|  0.75463
USER: genes 18 Torsion [N]-C--CA-[N] |==|  0.45152
USER: genes 19 Torsion [N]-C--CA-[CB] |==|  0.68839
USER: genes 20 Torsion [C]-CA--CB-[CG] |==|  0.52606
USER: genes 21 Torsion [CA]-CB--CG-[CD] |==|  0.84078
USER: genes 22 Torsion [CB]-CG--CD-[NE] |==|  0.55884
USER: genes 23 Torsion [CG]-CD--NE-[CZ] |==|  0.68652
ROOT
ATOM      1  C   ARG B  14     -10.246 -28.669 -10.279  1.00 32.92 LIG 0.24  C 
ATOM      2 O    ARG B  14      -9.172 -29.271 -10.324  1.00 37.82 LIG-0.27  OA
ATOM      3  N   PRO B  15     -11.023 -28.481 -11.349  1.00 31.88 LIG-0.34  N 
ATOM      4  CA  PRO B  15     -10.632 -29.035 -12.648  1.00 30.79 LIG 0.18  C 
ATOM      5  CB  PRO B  15     -11.800 -28.670 -13.541  1.00 31.22 LIG 0.04  C 
ATOM      6  CG  PRO B  15     -12.958 -28.646 -12.594  1.00 29.82 LIG 0.02  C 
ATOM      7  CD  PRO B  15     -12.409 -27.983 -11.372  1.00 31.43 LIG 0.13  C 
ENDROOT
BRANCH 4 8
ATOM      8  C   PRO B  15      -9.384 -28.348 -13.140  1.00 33.68 LIG 0.24  C 
ATOM      9  N   ILE B  16      -8.462 -29.125 -13.676  1.00 35.41 LIG-0.35  N 
ATOM     10 H    ILE B  16      -8.506 -29.984 -13.702  1.00 35.41 LIG 0.16  HD
ATOM     11 O    PRO B  15      -9.239 -27.144 -12.988  1.00 34.05 LIG-0.27  OA
BRANCH 9 12
ATOM     12  CA  ILE B  16      -7.310 -28.577 -14.262  1.00 37.77 LIG 0.18  C 
BRANCH 12 13
ATOM     13  CB  ILE B  16      -6.539 -27.711 -13.277  1.00 42.27 LIG 0.01  C 
ATOM     14  CG2 ILE B  16      -6.486 -28.386 -11.936  1.00 44.80 LIG 0.01  C 
BRANCH 13 15
ATOM     15  CG1 ILE B  16      -5.138 -27.447 -13.855  1.00 47.53 LIG 0.00  C 
ATOM     16  CD1 ILE B  16      -4.068 -27.043 -12.845  1.00 51.74 LIG 0.01  C 
ENDBRANCH 13 15
ENDBRANCH 12 13
BRANCH 12 17
ATOM     17  C   ILE B  16      -6.526 -29.749 -14.759  1.00 42.33 LIG 0.24  C 
ATOM     18 O    ILE B  16      -6.269 -29.876 -15.923  1.00 39.29 LIG-0.27  OA
ATOM     19  N   TYR B  17      -6.107 -30.578 -13.821  1.00 46.96 LIG-0.35  N 
ATOM     20 H    TYR B  17      -6.382 -30.543 -13.007  1.00 46.96 LIG 0.16  HD
BRANCH 19 21
ATOM     21  CA  TYR B  17      -5.151 -31.623 -14.058  1.00 51.19 LIG 0.18  C 
BRANCH 21 22
ATOM     22  C   TYR B  17      -5.495 -32.348 -15.310  1.00 56.10 LIG 0.24  C 
ATOM     23  N   ASN B  18      -4.717 -32.160 -16.358  1.00 65.39 LIG-0.35  N 
ATOM     24 H    ASN B  18      -3.951 -31.771 -16.325  1.00 65.39 LIG 0.16  HD
ATOM     25 O    TYR B  17      -6.424 -33.136 -15.308  1.00 61.36 LIG-0.27  OA
BRANCH 23 26
ATOM     26  CA  ASN B  18      -5.117 -32.616 -17.699  1.00 70.74 LIG 0.17  C 
BRANCH 26 27
ATOM     27  CB  ASN B  18      -5.288 -31.396 -18.615  1.00 84.74 LIG 0.14  C 
BRANCH 27 28
ATOM     28  CG  ASN B  18      -6.746 -31.177 -19.039  1.00 96.34 LIG 0.22  C 
ATOM     29 OD1  ASN B  18      -7.568 -30.670 -18.261  1.00 99.44 LIG-0.27  OA
ATOM     30  ND2 ASN B  18      -7.079 -31.578 -20.273  1.00 94.73 LIG-0.37  N 
ATOM     31 21HD ASN B  18      -7.887 -31.488 -20.551  1.00 94.73 LIG 0.16  HD
ATOM     32 22HD ASN B  18      -6.483 -31.927 -20.787  1.00 94.73 LIG 0.16  HD
ENDBRANCH 27 28
ENDBRANCH 26 27
BRANCH 26 33
ATOM     33  C   ASN B  18      -4.272 -33.724 -18.373  1.00 72.97 LIG 0.22  C 
ATOM     34 O    ASN B  18      -4.212 -34.881 -17.932  1.00 74.17 LIG-0.29  OA
ENDBRANCH 26 33
ENDBRANCH 23 26
ENDBRANCH 21 22
BRANCH 21 35
ATOM     35  CB  TYR B  17      -5.255 -32.624 -12.920  1.00 54.83 LIG 0.07  C 
BRANCH 35 36
ATOM     36  CG  TYR B  17      -3.920 -32.965 -12.379  1.00 56.96 LIG-0.06  A 
ATOM     37  CD2 TYR B  17      -3.425 -32.295 -11.255  1.00 61.26 LIG 0.01  A 
ATOM     38  CE2 TYR B  17      -2.182 -32.588 -10.743  1.00 70.21 LIG 0.04  A 
ATOM     39  CZ  TYR B  17      -1.416 -33.553 -11.373  1.00 76.40 LIG 0.07  A 
ATOM     40  CE1 TYR B  17      -1.883 -34.227 -12.496  1.00 67.10 LIG 0.04  A 
ATOM     41  CD1 TYR B  17      -3.136 -33.918 -12.994  1.00 57.92 LIG 0.01  A 
BRANCH 39 42
ATOM     42 OH   TYR B  17      -0.180 -33.840 -10.873  1.00 89.25 LIG-0.36  OA
ATOM     43 HH   TYR B  17      -0.260 -34.214 -10.125  1.00 89.25 LIG 0.22  HD
ENDBRANCH 39 42
ENDBRANCH 35 36
ENDBRANCH 21 35
ENDBRANCH 19 21
ENDBRANCH 12 17
ENDBRANCH 9 12
ENDBRANCH 4 8
BRANCH 1 44
ATOM     44  CA  ARG B  14     -10.696 -28.074  -8.977  1.00 32.45 LIG 0.18  C 
BRANCH 44 45
ATOM     45  N   ARG B  14     -10.405 -29.116  -8.019  1.00 38.19 LIG-0.35  N 
ATOM     46 H    ARG B  14      -9.625 -29.051  -7.662  1.00 38.19 LIG 0.16  HD
ATOM     47  C   PRO B  13     -11.268 -30.090  -7.714  1.00 38.91 LIG 0.24  C 
ATOM     48 O    PRO B  13     -12.376 -30.177  -8.202  1.00 32.88 LIG-0.27  OA
BRANCH 47 49
ATOM     49  CA  PRO B  13     -10.803 -31.107  -6.652  1.00 38.31 LIG 0.18  C 
ATOM     50  N   PRO B  13     -11.877 -31.882  -6.070  1.00 38.88 LIG-0.34  N 
ATOM     51  CD  PRO B  13     -11.579 -33.322  -6.096  1.00 43.50 LIG 0.13  C 
ATOM     52  C   PRO B  12     -12.996 -31.357  -5.545  1.00 40.77 LIG 0.26  C 
ATOM     53  CG  PRO B  13     -10.127 -33.372  -6.427  1.00 43.53 LIG 0.02  C 
ATOM     54  CB  PRO B  13      -9.897 -32.171  -7.270  1.00 39.91 LIG 0.04  C 
ATOM     55 O    PRO B  12     -13.199 -30.137  -5.444  1.00 44.45 LIG-0.27  OA
BRANCH 52 56
ATOM     56  CA  PRO B  12     -14.047 -32.323  -5.060  1.00 38.46 LIG 0.35  C 
ATOM     57  CB  PRO B  12     -15.276 -32.214  -5.964  1.00 43.42 LIG 0.05  C 
ATOM     58  CG  PRO B  12     -16.430 -32.301  -5.053  1.00 41.12 LIG 0.04  C 
ATOM     59  CD  PRO B  12     -15.981 -31.648  -3.778  1.00 39.74 LIG 0.32  C 
ATOM     60  N   PRO B  12     -14.536 -31.885  -3.774  1.00 38.12 LIG 0.32  N 
ENDBRANCH 52 56
ENDBRANCH 47 49
ENDBRANCH 44 45
BRANCH 44 61
ATOM     61  CB  ARG B  14      -9.811 -26.866  -8.652  1.00 34.42 LIG 0.04  C 
BRANCH 61 62
ATOM     62  CG  ARG B  14     -10.001 -26.290  -7.249  1.00 32.66 LIG 0.02  C 
BRANCH 62 63
ATOM     63  CD  ARG B  14     -11.453 -25.900  -7.061  1.00 35.24 LIG 0.14  C 
BRANCH 63 64
ATOM     64  NE  ARG B  14     -11.647 -24.911  -5.986  1.00 42.22 LIG-0.23  N 
ATOM     65  CZ  ARG B  14     -12.276 -25.124  -4.828  1.00 44.72 LIG 0.67  C 
ATOM     66  NH2 ARG B  14     -12.824 -26.290  -4.541  1.00 43.48 LIG-0.23  N 
ATOM     67  NH1 ARG B  14     -12.373 -24.145  -3.948  1.00 46.51 LIG-0.23  N 
ATOM     68 1HH2 ARG B  14     -12.779 -26.937  -5.107  1.00 43.48 LIG 0.17  HD
ATOM     69 2HH2 ARG B  14     -13.224 -26.404  -3.788  1.00 43.48 LIG 0.17  HD
ATOM     70 2HH1 ARG B  14     -12.778 -24.276  -3.201  1.00 46.51 LIG 0.17  HD
ATOM     71 1HH1 ARG B  14     -12.031 -23.375  -4.122  1.00 46.51 LIG 0.17  HD
ATOM     72 HE   ARG B  14     -11.324 -24.124  -6.116  1.00 42.22 LIG 0.18  HD
ENDBRANCH 63 64
ENDBRANCH 62 63
ENDBRANCH 61 62
ENDBRANCH 44 61
ENDBRANCH 1 44
TORSDOF 22
ENDMDL
MODEL 76
USER: ADFR SOLUTION from run 84
USER: SCORE 21.814067 LL:  -5.107 LR: -18.570 RR:   0.000 FEB: -12.008
USER: RMSD 12.820589
USER: SEED 83
USER: STATUS no improvement in best in 17 clusters for 5 generations
USER: GENES 24
USER: genes 0 Translation |==|  0.61540 0.45002 0.39809
USER: genes 1 Rotation |==|  0.26364 0.07614 0.38069 0.51567
USER: genes 2 Torsion [N]-CA--C-[O] |==|  0.85116
USER: genes 3 Torsion [C]-N--CA-[CB] |==|  0.41168
USER: genes 4 Torsion [N]-CA--CB-[CG2] |==|  0.63691
USER: genes 5 Torsion [CA]-CB--CG1-[CD1] |==|  0.46683
USER: genes 6 Torsion [N]-CA--C-[N] |==|  0.69753
USER: genes 7 Torsion [C]-N--CA-[C] |==|  0.14455
USER: genes 8 Torsion [N]-CA--C-[N] |==|  0.10346
USER: genes 9 Torsion [C]-N--CA-[CB] |==|  0.23302
USER: genes 10 Torsion [N]-CA--CB-[CG] |==|  0.69606
USER: genes 11 Torsion [CA]-CB--CG-[ND2] |==|  0.05026
USER: genes 12 Torsion [N]-CA--C-[O] |==|  0.87250
USER: genes 13 Torsion [N]-CA--CB-[CG] |==|  0.62230
USER: genes 14 Torsion [CA]-CB--CG-[CD2] |==|  0.98495
USER: genes 15 Torsion [CE2]-CZ--OH-[HH] |==|  0.81755
USER: genes 16 Torsion [N]-C--CA-[N] |==|  0.88210
USER: genes 17 Torsion [C]-CA--N-[C] |==|  0.80725
USER: genes 18 Torsion [N]-C--CA-[N] |==|  0.38711
USER: genes 19 Torsion [N]-C--CA-[CB] |==|  0.50831
USER: genes 20 Torsion [C]-CA--CB-[CG] |==|  0.04112
USER: genes 21 Torsion [CA]-CB--CG-[CD] |==|  0.57755
USER: genes 22 Torsion [CB]-CG--CD-[NE] |==|  0.35570
USER: genes 23 Torsion [CG]-CD--NE-[CZ] |==|  0.61804
ROOT
ATOM      1  C   ARG B  14      -6.852 -29.583 -14.761  1.00 32.92 LIG 0.24  C 
ATOM      2 O    ARG B  14      -8.062 -29.396 -14.901  1.00 37.82 LIG-0.27  OA
ATOM      3  N   PRO B  15      -6.323 -30.160 -13.679  1.00 31.88 LIG-0.34  N 
ATOM      4  CA  PRO B  15      -7.193 -30.642 -12.603  1.00 30.79 LIG 0.18  C 
ATOM      5  CB  PRO B  15      -6.218 -31.283 -11.636  1.00 31.22 LIG 0.04  C 
ATOM      6  CG  PRO B  15      -5.112 -31.751 -12.527  1.00 29.82 LIG 0.02  C 
ATOM      7  CD  PRO B  15      -4.939 -30.631 -13.502  1.00 31.43 LIG 0.13  C 
ENDROOT
BRANCH 4 8
ATOM      8  C   PRO B  15      -7.875 -29.475 -11.936  1.00 33.68 LIG 0.24  C 
ATOM      9  N   ILE B  16      -9.193 -29.506 -11.909  1.00 35.41 LIG-0.35  N 
ATOM     10 H    ILE B  16      -9.673 -30.107 -12.296  1.00 35.41 LIG 0.16  HD
ATOM     11 O    PRO B  15      -7.218 -28.540 -11.503  1.00 34.05 LIG-0.27  OA
BRANCH 9 12
ATOM     12  CA  ILE B  16      -9.923 -28.524 -11.221  1.00 37.77 LIG 0.18  C 
BRANCH 12 13
ATOM     13  CB  ILE B  16     -11.263 -28.252 -11.888  1.00 42.27 LIG 0.01  C 
ATOM     14  CG2 ILE B  16     -11.452 -26.773 -12.069  1.00 44.80 LIG 0.01  C 
BRANCH 13 15
ATOM     15  CG1 ILE B  16     -11.305 -29.015 -13.224  1.00 47.53 LIG 0.00  C 
ATOM     16  CD1 ILE B  16     -12.669 -29.094 -13.901  1.00 51.74 LIG 0.01  C 
ENDBRANCH 13 15
ENDBRANCH 12 13
BRANCH 12 17
ATOM     17  C   ILE B  16     -10.052 -29.036  -9.823  1.00 42.33 LIG 0.24  C 
ATOM     18 O    ILE B  16      -9.118 -29.031  -9.071  1.00 39.29 LIG-0.27  OA
ATOM     19  N   TYR B  17     -11.265 -29.431  -9.483  1.00 46.96 LIG-0.35  N 
ATOM     20 H    TYR B  17     -11.901 -29.534 -10.052  1.00 46.96 LIG 0.16  HD
BRANCH 19 21
ATOM     21  CA  TYR B  17     -11.650 -29.731  -8.133  1.00 51.19 LIG 0.18  C 
BRANCH 21 22
ATOM     22  C   TYR B  17     -11.291 -28.596  -7.241  1.00 56.10 LIG 0.24  C 
ATOM     23  N   ASN B  18     -11.433 -27.376  -7.721  1.00 65.39 LIG-0.35  N 
ATOM     24 H    ASN B  18     -11.853 -27.190  -8.447  1.00 65.39 LIG 0.16  HD
ATOM     25 O    TYR B  17     -10.955 -28.821  -6.093  1.00 61.36 LIG-0.27  OA
BRANCH 23 26
ATOM     26  CA  ASN B  18     -10.864 -26.210  -7.025  1.00 70.74 LIG 0.17  C 
BRANCH 26 27
ATOM     27  CB  ASN B  18      -9.389 -26.057  -7.425  1.00 84.74 LIG 0.14  C 
BRANCH 27 28
ATOM     28  CG  ASN B  18      -8.429 -26.403  -6.278  1.00 96.34 LIG 0.22  C 
ATOM     29 OD1  ASN B  18      -7.243 -26.042  -6.308  1.00 99.44 LIG-0.27  OA
ATOM     30  ND2 ASN B  18      -8.936 -27.123  -5.269  1.00 94.73 LIG-0.37  N 
ATOM     31 21HD ASN B  18      -8.433 -27.351  -4.610  1.00 94.73 LIG 0.16  HD
ATOM     32 22HD ASN B  18      -9.763 -27.357  -5.280  1.00 94.73 LIG 0.16  HD
ENDBRANCH 27 28
ENDBRANCH 26 27
BRANCH 26 33
ATOM     33  C   ASN B  18     -11.625 -24.865  -7.116  1.00 72.97 LIG 0.22  C 
ATOM     34 O    ASN B  18     -12.074 -24.421  -8.183  1.00 74.17 LIG-0.29  OA
ENDBRANCH 26 33
ENDBRANCH 23 26
ENDBRANCH 21 22
BRANCH 21 35
ATOM     35  CB  TYR B  17     -10.843 -30.933  -7.670  1.00 54.83 LIG 0.07  C 
BRANCH 35 36
ATOM     36  CG  TYR B  17     -11.694 -31.907  -6.948  1.00 56.96 LIG-0.06  A 
ATOM     37  CD2 TYR B  17     -13.032 -31.601  -6.673  1.00 61.26 LIG 0.01  A 
ATOM     38  CE2 TYR B  17     -13.837 -32.486  -5.993  1.00 70.21 LIG 0.04  A 
ATOM     39  CZ  TYR B  17     -13.294 -33.686  -5.569  1.00 76.40 LIG 0.07  A 
ATOM     40  CE1 TYR B  17     -11.965 -34.008  -5.823  1.00 67.10 LIG 0.04  A 
ATOM     41  CD1 TYR B  17     -11.174 -33.106  -6.510  1.00 57.92 LIG 0.01  A 
BRANCH 39 42
ATOM     42 OH   TYR B  17     -14.087 -34.561  -4.888  1.00 89.25 LIG-0.36  OA
ATOM     43 HH   TYR B  17     -14.306 -34.225  -4.150  1.00 89.25 LIG 0.22  HD
ENDBRANCH 39 42
ENDBRANCH 35 36
ENDBRANCH 21 35
ENDBRANCH 19 21
ENDBRANCH 12 17
ENDBRANCH 9 12
ENDBRANCH 4 8
BRANCH 1 44
ATOM     44  CA  ARG B  14      -5.912 -29.104 -15.826  1.00 32.45 LIG 0.18  C 
BRANCH 44 45
ATOM     45  N   ARG B  14      -4.846 -28.484 -15.072  1.00 38.19 LIG-0.35  N 
ATOM     46 H    ARG B  14      -4.103 -28.917 -15.102  1.00 38.19 LIG 0.16  HD
ATOM     47  C   PRO B  13      -4.999 -27.344 -14.392  1.00 38.91 LIG 0.24  C 
ATOM     48 O    PRO B  13      -6.041 -26.721 -14.361  1.00 32.88 LIG-0.27  OA
BRANCH 47 49
ATOM     49  CA  PRO B  13      -3.750 -26.811 -13.662  1.00 38.31 LIG 0.18  C 
ATOM     50  N   PRO B  13      -3.585 -25.376 -13.750  1.00 38.88 LIG-0.34  N 
ATOM     51  CD  PRO B  13      -3.353 -24.777 -12.427  1.00 43.50 LIG 0.13  C 
ATOM     52  C   PRO B  12      -3.610 -24.677 -14.896  1.00 40.77 LIG 0.26  C 
ATOM     53  CG  PRO B  13      -3.060 -25.952 -11.558  1.00 43.53 LIG 0.02  C 
ATOM     54  CB  PRO B  13      -3.845 -27.062 -12.157  1.00 39.91 LIG 0.04  C 
ATOM     55 O    PRO B  12      -3.714 -25.200 -16.016  1.00 44.45 LIG-0.27  OA
BRANCH 52 56
ATOM     56  CA  PRO B  12      -3.506 -23.177 -14.789  1.00 38.46 LIG 0.35  C 
ATOM     57  CB  PRO B  12      -3.629 -22.570 -16.188  1.00 43.42 LIG 0.05  C 
ATOM     58  CG  PRO B  12      -2.641 -21.477 -16.218  1.00 41.12 LIG 0.04  C 
ATOM     59  CD  PRO B  12      -1.507 -21.941 -15.351  1.00 39.74 LIG 0.32  C 
ATOM     60  N   PRO B  12      -2.166 -22.823 -14.385  1.00 38.12 LIG 0.32  N 
ENDBRANCH 52 56
ENDBRANCH 47 49
ENDBRANCH 44 45
BRANCH 44 61
ATOM     61  CB  ARG B  14      -5.333 -30.319 -16.560  1.00 34.42 LIG 0.04  C 
BRANCH 61 62
ATOM     62  CG  ARG B  14      -6.074 -31.632 -16.313  1.00 32.66 LIG 0.02  C 
BRANCH 62 63
ATOM     63  CD  ARG B  14      -5.108 -32.789 -16.470  1.00 35.24 LIG 0.14  C 
BRANCH 63 64
ATOM     64  NE  ARG B  14      -5.117 -33.705 -15.317  1.00 42.22 LIG-0.23  N 
ATOM     65  CZ  ARG B  14      -4.044 -34.249 -14.738  1.00 44.72 LIG 0.67  C 
ATOM     66  NH2 ARG B  14      -2.824 -34.017 -15.183  1.00 43.48 LIG-0.23  N 
ATOM     67  NH1 ARG B  14      -4.199 -35.054 -13.703  1.00 46.51 LIG-0.23  N 
ATOM     68 1HH2 ARG B  14      -2.704 -33.503 -15.863  1.00 43.48 LIG 0.17  HD
ATOM     69 2HH2 ARG B  14      -2.147 -34.378 -14.793  1.00 43.48 LIG 0.17  HD
ATOM     70 2HH1 ARG B  14      -3.512 -35.408 -13.326  1.00 46.51 LIG 0.17  HD
ATOM     71 1HH1 ARG B  14      -4.987 -35.225 -13.405  1.00 46.51 LIG 0.17  HD
ATOM     72 HE   ARG B  14      -5.884 -33.909 -14.986  1.00 42.22 LIG 0.18  HD
ENDBRANCH 63 64
ENDBRANCH 62 63
ENDBRANCH 61 62
ENDBRANCH 44 61
ENDBRANCH 1 44
TORSDOF 22
ENDMDL
MODEL 77
USER: ADFR SOLUTION from run 26
USER: SCORE 21.042308 LL:  -4.798 LR: -18.575 RR:   0.000 FEB: -12.012
USER: RMSD 13.052562
USER: SEED 25
USER: STATUS no improvement in best in 13 clusters for 5 generations
USER: GENES 24
USER: genes 0 Translation |==|  0.69081 0.52897 0.47286
USER: genes 1 Rotation |==|  0.71162 0.76172 0.86726 0.54296
USER: genes 2 Torsion [N]-CA--C-[O] |==|  0.04927
USER: genes 3 Torsion [C]-N--CA-[CB] |==|  0.36692
USER: genes 4 Torsion [N]-CA--CB-[CG2] |==|  0.54786
USER: genes 5 Torsion [CA]-CB--CG1-[CD1] |==|  0.82940
USER: genes 6 Torsion [N]-CA--C-[N] |==|  0.42699
USER: genes 7 Torsion [C]-N--CA-[C] |==|  0.69266
USER: genes 8 Torsion [N]-CA--C-[N] |==|  0.42111
USER: genes 9 Torsion [C]-N--CA-[CB] |==|  0.45669
USER: genes 10 Torsion [N]-CA--CB-[CG] |==|  0.53660
USER: genes 11 Torsion [CA]-CB--CG-[ND2] |==|  0.38228
USER: genes 12 Torsion [N]-CA--C-[O] |==|  0.01777
USER: genes 13 Torsion [N]-CA--CB-[CG] |==|  0.09091
USER: genes 14 Torsion [CA]-CB--CG-[CD2] |==|  0.74360
USER: genes 15 Torsion [CE2]-CZ--OH-[HH] |==|  0.74567
USER: genes 16 Torsion [N]-C--CA-[N] |==|  0.21827
USER: genes 17 Torsion [C]-CA--N-[C] |==|  0.67491
USER: genes 18 Torsion [N]-C--CA-[N] |==|  0.22050
USER: genes 19 Torsion [N]-C--CA-[CB] |==|  0.55854
USER: genes 20 Torsion [C]-CA--CB-[CG] |==|  0.46474
USER: genes 21 Torsion [CA]-CB--CG-[CD] |==|  0.38798
USER: genes 22 Torsion [CB]-CG--CD-[NE] |==|  0.51745
USER: genes 23 Torsion [CG]-CD--NE-[CZ] |==|  0.52887
ROOT
ATOM      1  C   ARG B  14      -5.156 -28.103 -12.686  1.00 32.92 LIG 0.24  C 
ATOM      2 O    ARG B  14      -5.948 -27.245 -13.081  1.00 37.82 LIG-0.27  OA
ATOM      3  N   PRO B  15      -5.486 -29.388 -12.535  1.00 31.88 LIG-0.34  N 
ATOM      4  CA  PRO B  15      -6.835 -29.846 -12.882  1.00 30.79 LIG 0.18  C 
ATOM      5  CB  PRO B  15      -6.760 -31.341 -12.644  1.00 31.22 LIG 0.04  C 
ATOM      6  CG  PRO B  15      -5.324 -31.657 -12.918  1.00 29.82 LIG 0.02  C 
ATOM      7  CD  PRO B  15      -4.580 -30.523 -12.290  1.00 31.43 LIG 0.13  C 
ENDROOT
BRANCH 4 8
ATOM      8  C   PRO B  15      -7.840 -29.233 -11.940  1.00 33.68 LIG 0.24  C 
ATOM      9  N   ILE B  16      -9.041 -29.778 -11.931  1.00 35.41 LIG-0.35  N 
ATOM     10 H    ILE B  16      -9.293 -30.405 -12.464  1.00 35.41 LIG 0.16  HD
ATOM     11 O    PRO B  15      -7.546 -28.252 -11.274  1.00 34.05 LIG-0.27  OA
BRANCH 9 12
ATOM     12  CA  ILE B  16     -10.018 -29.354 -11.018  1.00 37.77 LIG 0.18  C 
BRANCH 12 13
ATOM     13  CB  ILE B  16     -11.350 -29.094 -11.703  1.00 42.27 LIG 0.01  C 
ATOM     14  CG2 ILE B  16     -12.229 -28.261 -10.814  1.00 44.80 LIG 0.01  C 
BRANCH 13 15
ATOM     15  CG1 ILE B  16     -11.077 -28.414 -13.057  1.00 47.53 LIG 0.00  C 
ATOM     16  CD1 ILE B  16     -10.375 -27.062 -12.991  1.00 51.74 LIG 0.01  C 
ENDBRANCH 13 15
ENDBRANCH 12 13
BRANCH 12 17
ATOM     17  C   ILE B  16     -10.086 -30.432  -9.984  1.00 42.33 LIG 0.24  C 
ATOM     18 O    ILE B  16      -9.738 -31.553 -10.232  1.00 39.29 LIG-0.27  OA
ATOM     19  N   TYR B  17     -10.500 -30.039  -8.794  1.00 46.96 LIG-0.35  N 
ATOM     20 H    TYR B  17     -10.849 -29.266  -8.651  1.00 46.96 LIG 0.16  HD
BRANCH 19 21
ATOM     21  CA  TYR B  17     -10.412 -30.856  -7.616  1.00 51.19 LIG 0.18  C 
BRANCH 21 22
ATOM     22  C   TYR B  17     -11.774 -31.271  -7.187  1.00 56.10 LIG 0.24  C 
ATOM     23  N   ASN B  18     -11.886 -32.415  -6.540  1.00 65.39 LIG-0.35  N 
ATOM     24 H    ASN B  18     -11.221 -32.856  -6.222  1.00 65.39 LIG 0.16  HD
ATOM     25 O    TYR B  17     -12.715 -30.524  -7.378  1.00 61.36 LIG-0.27  OA
BRANCH 23 26
ATOM     26  CA  ASN B  18     -13.200 -33.036  -6.308  1.00 70.74 LIG 0.17  C 
BRANCH 26 27
ATOM     27  CB  ASN B  18     -12.997 -34.502  -5.896  1.00 84.74 LIG 0.14  C 
BRANCH 27 28
ATOM     28  CG  ASN B  18     -14.299 -35.313  -5.947  1.00 96.34 LIG 0.22  C 
ATOM     29 OD1  ASN B  18     -15.361 -34.844  -5.509  1.00 99.44 LIG-0.27  OA
ATOM     30  ND2 ASN B  18     -14.218 -36.545  -6.466  1.00 94.73 LIG-0.37  N 
ATOM     31 21HD ASN B  18     -14.919 -37.042  -6.505  1.00 94.73 LIG 0.16  HD
ATOM     32 22HD ASN B  18     -13.466 -36.839  -6.761  1.00 94.73 LIG 0.16  HD
ENDBRANCH 27 28
ENDBRANCH 26 27
BRANCH 26 33
ATOM     33  C   ASN B  18     -14.194 -32.310  -5.370  1.00 72.97 LIG 0.22  C 
ATOM     34 O    ASN B  18     -13.973 -31.182  -4.904  1.00 74.17 LIG-0.29  OA
ENDBRANCH 26 33
ENDBRANCH 23 26
ENDBRANCH 21 22
BRANCH 21 35
ATOM     35  CB  TYR B  17      -9.832 -30.007  -6.497  1.00 54.83 LIG 0.07  C 
BRANCH 35 36
ATOM     36  CG  TYR B  17     -10.244 -28.591  -6.626  1.00 56.96 LIG-0.06  A 
ATOM     37  CD2 TYR B  17      -9.436 -27.685  -7.323  1.00 61.26 LIG 0.01  A 
ATOM     38  CE2 TYR B  17      -9.793 -26.362  -7.445  1.00 70.21 LIG 0.04  A 
ATOM     39  CZ  TYR B  17     -10.967 -25.935  -6.848  1.00 76.40 LIG 0.07  A 
ATOM     40  CE1 TYR B  17     -11.781 -26.814  -6.143  1.00 67.10 LIG 0.04  A 
ATOM     41  CD1 TYR B  17     -11.405 -28.140  -6.034  1.00 57.92 LIG 0.01  A 
BRANCH 39 42
ATOM     42 OH   TYR B  17     -11.319 -24.622  -6.960  1.00 89.25 LIG-0.36  OA
ATOM     43 HH   TYR B  17     -11.012 -24.193  -6.307  1.00 89.25 LIG 0.22  HD
ENDBRANCH 39 42
ENDBRANCH 35 36
ENDBRANCH 21 35
ENDBRANCH 19 21
ENDBRANCH 12 17
ENDBRANCH 9 12
ENDBRANCH 4 8
BRANCH 1 44
ATOM     44  CA  ARG B  14      -3.763 -27.692 -12.309  1.00 32.45 LIG 0.18  C 
BRANCH 44 45
ATOM     45  N   ARG B  14      -2.973 -28.126 -13.440  1.00 38.19 LIG-0.35  N 
ATOM     46 H    ARG B  14      -3.180 -27.733 -14.177  1.00 38.19 LIG 0.16  HD
ATOM     47  C   PRO B  13      -2.012 -29.049 -13.349  1.00 38.91 LIG 0.24  C 
ATOM     48 O    PRO B  13      -1.706 -29.594 -12.307  1.00 32.88 LIG-0.27  OA
BRANCH 47 49
ATOM     49  CA  PRO B  13      -1.252 -29.375 -14.650  1.00 38.31 LIG 0.18  C 
ATOM     50  N   PRO B  13      -0.231 -28.408 -14.993  1.00 38.88 LIG-0.34  N 
ATOM     51  CD  PRO B  13       1.052 -29.060 -15.289  1.00 43.50 LIG 0.13  C 
ATOM     52  C   PRO B  12      -0.433 -27.082 -15.061  1.00 40.77 LIG 0.26  C 
ATOM     53  CG  PRO B  13       0.690 -30.499 -15.429  1.00 43.53 LIG 0.02  C 
ATOM     54  CB  PRO B  13      -0.468 -30.680 -14.516  1.00 39.91 LIG 0.04  C 
ATOM     55 O    PRO B  12      -1.540 -26.547 -14.899  1.00 44.45 LIG-0.27  OA
BRANCH 52 56
ATOM     56  CA  PRO B  12       0.769 -26.218 -15.350  1.00 38.46 LIG 0.35  C 
ATOM     57  CB  PRO B  12       0.479 -24.791 -14.879  1.00 43.42 LIG 0.05  C 
ATOM     58  CG  PRO B  12       1.050 -23.922 -15.922  1.00 41.12 LIG 0.04  C 
ATOM     59  CD  PRO B  12       0.881 -24.677 -17.207  1.00 39.74 LIG 0.32  C 
ATOM     60  N   PRO B  12       0.918 -26.077 -16.778  1.00 38.12 LIG 0.32  N 
ENDBRANCH 52 56
ENDBRANCH 47 49
ENDBRANCH 44 45
BRANCH 44 61
ATOM     61  CB  ARG B  14      -3.698 -26.163 -12.239  1.00 34.42 LIG 0.04  C 
BRANCH 61 62
ATOM     62  CG  ARG B  14      -2.439 -25.603 -11.577  1.00 32.66 LIG 0.02  C 
BRANCH 62 63
ATOM     63  CD  ARG B  14      -1.968 -24.387 -12.347  1.00 35.24 LIG 0.14  C 
BRANCH 63 64
ATOM     64  NE  ARG B  14      -0.675 -23.868 -11.866  1.00 42.22 LIG-0.23  N 
ATOM     65  CZ  ARG B  14      -0.115 -22.708 -12.216  1.00 44.72 LIG 0.67  C 
ATOM     66  NH2 ARG B  14      -0.690 -21.894 -13.081  1.00 43.48 LIG-0.23  N 
ATOM     67  NH1 ARG B  14       1.051 -22.366 -11.701  1.00 46.51 LIG-0.23  N 
ATOM     68 1HH2 ARG B  14      -1.445 -22.106 -13.434  1.00 43.48 LIG 0.17  HD
ATOM     69 2HH2 ARG B  14      -0.310 -21.152 -13.291  1.00 43.48 LIG 0.17  HD
ATOM     70 2HH1 ARG B  14       1.417 -21.620 -11.923  1.00 46.51 LIG 0.17  HD
ATOM     71 1HH1 ARG B  14       1.445 -22.888 -11.143  1.00 46.51 LIG 0.17  HD
ATOM     72 HE   ARG B  14      -0.241 -24.359 -11.308  1.00 42.22 LIG 0.18  HD
ENDBRANCH 63 64
ENDBRANCH 62 63
ENDBRANCH 61 62
ENDBRANCH 44 61
ENDBRANCH 1 44
TORSDOF 22
ENDMDL
MODEL 78
USER: ADFR SOLUTION from run 198
USER: SCORE 21.391988 LL:  -4.847 LR: -18.539 RR:   0.000 FEB: -11.976
USER: RMSD 12.847254
USER: SEED 197
USER: STATUS no improvement in best in 24 clusters for 5 generations
USER: GENES 24
USER: genes 0 Translation |==|  0.58511 0.46458 0.41554
USER: genes 1 Rotation |==|  0.75730 0.91997 0.58505 0.51373
USER: genes 2 Torsion [N]-CA--C-[O] |==|  0.85276
USER: genes 3 Torsion [C]-N--CA-[CB] |==|  0.43537
USER: genes 4 Torsion [N]-CA--CB-[CG2] |==|  0.51682
USER: genes 5 Torsion [CA]-CB--CG1-[CD1] |==|  0.31489
USER: genes 6 Torsion [N]-CA--C-[N] |==|  0.46556
USER: genes 7 Torsion [C]-N--CA-[C] |==|  0.13105
USER: genes 8 Torsion [N]-CA--C-[N] |==|  0.60556
USER: genes 9 Torsion [C]-N--CA-[CB] |==|  0.13353
USER: genes 10 Torsion [N]-CA--CB-[CG] |==|  0.42842
USER: genes 11 Torsion [CA]-CB--CG-[ND2] |==|  0.66648
USER: genes 12 Torsion [N]-CA--C-[O] |==|  0.09292
USER: genes 13 Torsion [N]-CA--CB-[CG] |==|  0.59534
USER: genes 14 Torsion [CA]-CB--CG-[CD2] |==|  0.60345
USER: genes 15 Torsion [CE2]-CZ--OH-[HH] |==|  0.57897
USER: genes 16 Torsion [N]-C--CA-[N] |==|  0.89150
USER: genes 17 Torsion [C]-CA--N-[C] |==|  0.78197
USER: genes 18 Torsion [N]-C--CA-[N] |==|  0.43951
USER: genes 19 Torsion [N]-C--CA-[CB] |==|  0.50475
USER: genes 20 Torsion [C]-CA--CB-[CG] |==|  0.29809
USER: genes 21 Torsion [CA]-CB--CG-[CD] |==|  0.19352
USER: genes 22 Torsion [CB]-CG--CD-[NE] |==|  0.74026
USER: genes 23 Torsion [CG]-CD--NE-[CZ] |==|  0.31307
ROOT
ATOM      1  C   ARG B  14      -7.534 -29.310 -14.277  1.00 32.92 LIG 0.24  C 
ATOM      2 O    ARG B  14      -8.718 -29.029 -14.474  1.00 37.82 LIG-0.27  OA
ATOM      3  N   PRO B  15      -7.072 -29.744 -13.101  1.00 31.88 LIG-0.34  N 
ATOM      4  CA  PRO B  15      -7.994 -29.946 -11.979  1.00 30.79 LIG 0.18  C 
ATOM      5  CB  PRO B  15      -7.096 -30.507 -10.895  1.00 31.22 LIG 0.04  C 
ATOM      6  CG  PRO B  15      -6.039 -31.228 -11.669  1.00 29.82 LIG 0.02  C 
ATOM      7  CD  PRO B  15      -5.745 -30.315 -12.815  1.00 31.43 LIG 0.13  C 
ENDROOT
BRANCH 4 8
ATOM      8  C   PRO B  15      -8.556 -28.620 -11.535  1.00 33.68 LIG 0.24  C 
ATOM      9  N   ILE B  16      -9.871 -28.517 -11.523  1.00 35.41 LIG-0.35  N 
ATOM     10 H    ILE B  16     -10.408 -29.126 -11.807  1.00 35.41 LIG 0.16  HD
ATOM     11 O    PRO B  15      -7.810 -27.692 -11.261  1.00 34.05 LIG-0.27  OA
BRANCH 9 12
ATOM     12  CA  ILE B  16     -10.499 -27.364 -11.027  1.00 37.77 LIG 0.18  C 
BRANCH 12 13
ATOM     13  CB  ILE B  16     -11.898 -27.198 -11.599  1.00 42.27 LIG 0.01  C 
ATOM     14  CG2 ILE B  16     -12.476 -25.883 -11.162  1.00 44.80 LIG 0.01  C 
BRANCH 13 15
ATOM     15  CG1 ILE B  16     -11.814 -27.319 -13.131  1.00 47.53 LIG 0.00  C 
ATOM     16  CD1 ILE B  16     -12.500 -28.538 -13.739  1.00 51.74 LIG 0.01  C 
ENDBRANCH 13 15
ENDBRANCH 12 13
BRANCH 12 17
ATOM     17  C   ILE B  16     -10.483 -27.515  -9.539  1.00 42.33 LIG 0.24  C 
ATOM     18 O    ILE B  16     -10.159 -28.548  -9.024  1.00 39.29 LIG-0.27  OA
ATOM     19  N   TYR B  17     -10.795 -26.425  -8.864  1.00 46.96 LIG-0.35  N 
ATOM     20 H    TYR B  17     -11.129 -25.724  -9.234  1.00 46.96 LIG 0.16  HD
BRANCH 19 21
ATOM     21  CA  TYR B  17     -10.612 -26.293  -7.446  1.00 51.19 LIG 0.18  C 
BRANCH 21 22
ATOM     22  C   TYR B  17      -9.253 -26.762  -7.066  1.00 56.10 LIG 0.24  C 
ATOM     23  N   ASN B  18      -9.132 -27.425  -5.933  1.00 65.39 LIG-0.35  N 
ATOM     24 H    ASN B  18      -9.796 -27.731  -5.480  1.00 65.39 LIG 0.16  HD
ATOM     25 O    TYR B  17      -8.324 -26.588  -7.833  1.00 61.36 LIG-0.27  OA
BRANCH 23 26
ATOM     26  CA  ASN B  18      -7.811 -27.699  -5.344  1.00 70.74 LIG 0.17  C 
BRANCH 26 27
ATOM     27  CB  ASN B  18      -6.987 -26.402  -5.333  1.00 84.74 LIG 0.14  C 
BRANCH 27 28
ATOM     28  CG  ASN B  18      -5.918 -26.393  -4.233  1.00 96.34 LIG 0.22  C 
ATOM     29 OD1  ASN B  18      -5.035 -27.263  -4.195  1.00 99.44 LIG-0.27  OA
ATOM     30  ND2 ASN B  18      -6.004 -25.416  -3.321  1.00 94.73 LIG-0.37  N 
ATOM     31 21HD ASN B  18      -5.434 -25.377  -2.678  1.00 94.73 LIG 0.16  HD
ATOM     32 22HD ASN B  18      -6.630 -24.829  -3.377  1.00 94.73 LIG 0.16  HD
ENDBRANCH 27 28
ENDBRANCH 26 27
BRANCH 26 33
ATOM     33  C   ASN B  18      -7.759 -28.421  -3.976  1.00 72.97 LIG 0.22  C 
ATOM     34 O    ASN B  18      -8.591 -29.276  -3.638  1.00 74.17 LIG-0.29  OA
ENDBRANCH 26 33
ENDBRANCH 23 26
ENDBRANCH 21 22
BRANCH 21 35
ATOM     35  CB  TYR B  17     -11.609 -27.209  -6.756  1.00 54.83 LIG 0.07  C 
BRANCH 35 36
ATOM     36  CG  TYR B  17     -12.087 -26.622  -5.483  1.00 56.96 LIG-0.06  A 
ATOM     37  CD2 TYR B  17     -12.322 -27.446  -4.375  1.00 61.26 LIG 0.01  A 
ATOM     38  CE2 TYR B  17     -12.778 -26.924  -3.187  1.00 70.21 LIG 0.04  A 
ATOM     39  CZ  TYR B  17     -13.017 -25.563  -3.109  1.00 76.40 LIG 0.07  A 
ATOM     40  CE1 TYR B  17     -12.800 -24.727  -4.198  1.00 67.10 LIG 0.04  A 
ATOM     41  CD1 TYR B  17     -12.339 -25.271  -5.383  1.00 57.92 LIG 0.01  A 
BRANCH 39 42
ATOM     42 OH   TYR B  17     -13.477 -25.044  -1.934  1.00 89.25 LIG-0.36  OA
ATOM     43 HH   TYR B  17     -13.935 -24.358  -2.091  1.00 89.25 LIG 0.22  HD
ENDBRANCH 39 42
ENDBRANCH 35 36
ENDBRANCH 21 35
ENDBRANCH 19 21
ENDBRANCH 12 17
ENDBRANCH 9 12
ENDBRANCH 4 8
BRANCH 1 44
ATOM     44  CA  ARG B  14      -6.543 -29.117 -15.386  1.00 32.45 LIG 0.18  C 
BRANCH 44 45
ATOM     45  N   ARG B  14      -5.392 -28.563 -14.708  1.00 38.19 LIG-0.35  N 
ATOM     46 H    ARG B  14      -4.767 -29.136 -14.563  1.00 38.19 LIG 0.16  HD
ATOM     47  C   PRO B  13      -5.307 -27.281 -14.342  1.00 38.91 LIG 0.24  C 
ATOM     48 O    PRO B  13      -6.180 -26.465 -14.560  1.00 32.88 LIG-0.27  OA
BRANCH 47 49
ATOM     49  CA  PRO B  13      -3.997 -26.854 -13.650  1.00 38.31 LIG 0.18  C 
ATOM     50  N   PRO B  13      -3.731 -25.433 -13.718  1.00 38.88 LIG-0.34  N 
ATOM     51  CD  PRO B  13      -3.409 -24.880 -12.395  1.00 43.50 LIG 0.13  C 
ATOM     52  C   PRO B  12      -3.747 -24.711 -14.850  1.00 40.77 LIG 0.26  C 
ATOM     53  CG  PRO B  13      -3.171 -26.090 -11.558  1.00 43.53 LIG 0.02  C 
ATOM     54  CB  PRO B  13      -4.056 -27.128 -12.147  1.00 39.91 LIG 0.04  C 
ATOM     55 O    PRO B  12      -3.929 -25.202 -15.975  1.00 44.45 LIG-0.27  OA
BRANCH 52 56
ATOM     56  CA  PRO B  12      -3.530 -23.224 -14.720  1.00 38.46 LIG 0.35  C 
ATOM     57  CB  PRO B  12      -3.627 -22.586 -16.107  1.00 43.42 LIG 0.05  C 
ATOM     58  CG  PRO B  12      -2.562 -21.569 -16.134  1.00 41.12 LIG 0.04  C 
ATOM     59  CD  PRO B  12      -1.453 -22.130 -15.293  1.00 39.74 LIG 0.32  C 
ATOM     60  N   PRO B  12      -2.163 -22.978 -14.331  1.00 38.12 LIG 0.32  N 
ENDBRANCH 52 56
ENDBRANCH 47 49
ENDBRANCH 44 45
BRANCH 44 61
ATOM     61  CB  ARG B  14      -6.152 -30.488 -15.947  1.00 34.42 LIG 0.04  C 
BRANCH 61 62
ATOM     62  CG  ARG B  14      -6.728 -30.806 -17.327  1.00 32.66 LIG 0.02  C 
BRANCH 62 63
ATOM     63  CD  ARG B  14      -6.061 -29.923 -18.362  1.00 35.24 LIG 0.14  C 
BRANCH 63 64
ATOM     64  NE  ARG B  14      -6.813 -28.684 -18.629  1.00 42.22 LIG-0.23  N 
ATOM     65  CZ  ARG B  14      -6.418 -27.445 -18.328  1.00 44.72 LIG 0.67  C 
ATOM     66  NH2 ARG B  14      -5.273 -27.213 -17.716  1.00 43.48 LIG-0.23  N 
ATOM     67  NH1 ARG B  14      -7.195 -26.421 -18.631  1.00 46.51 LIG-0.23  N 
ATOM     68 1HH2 ARG B  14      -4.759 -27.869 -17.501  1.00 43.48 LIG 0.17  HD
ATOM     69 2HH2 ARG B  14      -5.039 -26.406 -17.532  1.00 43.48 LIG 0.17  HD
ATOM     70 2HH1 ARG B  14      -6.946 -25.621 -18.439  1.00 46.51 LIG 0.17  HD
ATOM     71 1HH1 ARG B  14      -7.949 -26.555 -19.021  1.00 46.51 LIG 0.17  HD
ATOM     72 HE   ARG B  14      -7.578 -28.767 -19.016  1.00 42.22 LIG 0.18  HD
ENDBRANCH 63 64
ENDBRANCH 62 63
ENDBRANCH 61 62
ENDBRANCH 44 61
ENDBRANCH 1 44
TORSDOF 22
ENDMDL
MODEL 79
USER: ADFR SOLUTION from run 45
USER: SCORE 22.403443 LL:  -5.210 LR: -18.536 RR:   0.000 FEB: -11.973
USER: RMSD 7.215073
USER: SEED 44
USER: STATUS no improvement in best in 9 clusters for 5 generations
USER: GENES 24
USER: genes 0 Translation |==|  0.39701 0.38632 0.71411
USER: genes 1 Rotation |==|  0.26522 0.48787 0.91956 0.63675
USER: genes 2 Torsion [N]-CA--C-[O] |==|  0.92200
USER: genes 3 Torsion [C]-N--CA-[CB] |==|  0.24078
USER: genes 4 Torsion [N]-CA--CB-[CG2] |==|  0.10790
USER: genes 5 Torsion [CA]-CB--CG1-[CD1] |==|  0.24883
USER: genes 6 Torsion [N]-CA--C-[N] |==|  0.32523
USER: genes 7 Torsion [C]-N--CA-[C] |==|  0.71287
USER: genes 8 Torsion [N]-CA--C-[N] |==|  0.42285
USER: genes 9 Torsion [C]-N--CA-[CB] |==|  0.43879
USER: genes 10 Torsion [N]-CA--CB-[CG] |==|  0.75016
USER: genes 11 Torsion [CA]-CB--CG-[ND2] |==|  0.30611
USER: genes 12 Torsion [N]-CA--C-[O] |==|  0.07259
USER: genes 13 Torsion [N]-CA--CB-[CG] |==|  0.64214
USER: genes 14 Torsion [CA]-CB--CG-[CD2] |==|  0.02719
USER: genes 15 Torsion [CE2]-CZ--OH-[HH] |==|  0.38365
USER: genes 16 Torsion [N]-C--CA-[N] |==|  0.41511
USER: genes 17 Torsion [C]-CA--N-[C] |==|  0.72778
USER: genes 18 Torsion [N]-C--CA-[N] |==|  0.86382
USER: genes 19 Torsion [N]-C--CA-[CB] |==|  0.81264
USER: genes 20 Torsion [C]-CA--CB-[CG] |==|  0.36106
USER: genes 21 Torsion [CA]-CB--CG-[CD] |==|  0.89598
USER: genes 22 Torsion [CB]-CG--CD-[NE] |==|  0.59325
USER: genes 23 Torsion [CG]-CD--NE-[CZ] |==|  0.70006
ROOT
ATOM      1  C   ARG B  14     -11.766 -30.778  -5.991  1.00 32.92 LIG 0.24  C 
ATOM      2 O    ARG B  14     -11.662 -29.591  -6.309  1.00 37.82 LIG-0.27  OA
ATOM      3  N   PRO B  15     -10.945 -31.729  -6.444  1.00 31.88 LIG-0.34  N 
ATOM      4  CA  PRO B  15      -9.832 -31.379  -7.331  1.00 30.79 LIG 0.18  C 
ATOM      5  CB  PRO B  15      -9.126 -32.704  -7.533  1.00 31.22 LIG 0.04  C 
ATOM      6  CG  PRO B  15      -9.404 -33.435  -6.258  1.00 29.82 LIG 0.02  C 
ATOM      7  CD  PRO B  15     -10.835 -33.118  -5.966  1.00 31.43 LIG 0.13  C 
ENDROOT
BRANCH 4 8
ATOM      8  C   PRO B  15     -10.368 -30.885  -8.650  1.00 33.68 LIG 0.24  C 
ATOM      9  N   ILE B  16      -9.634 -29.986  -9.279  1.00 35.41 LIG-0.35  N 
ATOM     10 H    ILE B  16      -8.920 -29.631  -8.956  1.00 35.41 LIG 0.16  HD
ATOM     11 O    PRO B  15     -11.451 -31.271  -9.063  1.00 34.05 LIG-0.27  OA
BRANCH 9 12
ATOM     12  CA  ILE B  16      -9.986 -29.538 -10.562  1.00 37.77 LIG 0.18  C 
BRANCH 12 13
ATOM     13  CB  ILE B  16     -10.965 -28.376 -10.500  1.00 42.27 LIG 0.01  C 
ATOM     14  CG2 ILE B  16     -10.600 -27.460  -9.367  1.00 44.80 LIG 0.01  C 
BRANCH 13 15
ATOM     15  CG1 ILE B  16     -10.953 -27.657 -11.860  1.00 47.53 LIG 0.00  C 
ATOM     16  CD1 ILE B  16     -11.947 -28.176 -12.895  1.00 51.74 LIG 0.01  C 
ENDBRANCH 13 15
ENDBRANCH 12 13
BRANCH 12 17
ATOM     17  C   ILE B  16      -8.693 -29.188 -11.225  1.00 42.33 LIG 0.24  C 
ATOM     18 O    ILE B  16      -7.971 -28.344 -10.772  1.00 39.29 LIG-0.27  OA
ATOM     19  N   TYR B  17      -8.401 -29.907 -12.292  1.00 46.96 LIG-0.35  N 
ATOM     20 H    TYR B  17      -8.966 -30.431 -12.674  1.00 46.96 LIG 0.16  HD
BRANCH 19 21
ATOM     21  CA  TYR B  17      -7.113 -29.892 -12.928  1.00 51.19 LIG 0.18  C 
BRANCH 21 22
ATOM     22  C   TYR B  17      -7.173 -29.078 -14.171  1.00 56.10 LIG 0.24  C 
ATOM     23  N   ASN B  18      -6.061 -28.492 -14.571  1.00 65.39 LIG-0.35  N 
ATOM     24 H    ASN B  18      -5.283 -28.668 -14.252  1.00 65.39 LIG 0.16  HD
ATOM     25 O    TYR B  17      -8.209 -29.037 -14.810  1.00 61.36 LIG-0.27  OA
BRANCH 23 26
ATOM     26  CA  ASN B  18      -6.074 -27.465 -15.625  1.00 70.74 LIG 0.17  C 
BRANCH 26 27
ATOM     27  CB  ASN B  18      -4.811 -26.600 -15.499  1.00 84.74 LIG 0.14  C 
BRANCH 27 28
ATOM     28  CG  ASN B  18      -5.018 -25.387 -14.582  1.00 96.34 LIG 0.22  C 
ATOM     29 OD1  ASN B  18      -5.732 -24.435 -14.933  1.00 99.44 LIG-0.27  OA
ATOM     30  ND2 ASN B  18      -4.377 -25.408 -13.406  1.00 94.73 LIG-0.37  N 
ATOM     31 21HD ASN B  18      -4.452 -24.745 -12.864  1.00 94.73 LIG 0.16  HD
ATOM     32 22HD ASN B  18      -3.889 -26.084 -13.194  1.00 94.73 LIG 0.16  HD
ENDBRANCH 27 28
ENDBRANCH 26 27
BRANCH 26 33
ATOM     33  C   ASN B  18      -6.312 -27.922 -17.085  1.00 72.97 LIG 0.22  C 
ATOM     34 O    ASN B  18      -6.935 -28.955 -17.370  1.00 74.17 LIG-0.29  OA
ENDBRANCH 26 33
ENDBRANCH 23 26
ENDBRANCH 21 22
BRANCH 21 35
ATOM     35  CB  TYR B  17      -6.776 -31.314 -13.343  1.00 54.83 LIG 0.07  C 
BRANCH 35 36
ATOM     36  CG  TYR B  17      -5.432 -31.710 -12.865  1.00 56.96 LIG-0.06  A 
ATOM     37  CD2 TYR B  17      -4.739 -30.894 -11.964  1.00 61.26 LIG 0.01  A 
ATOM     38  CE2 TYR B  17      -3.483 -31.236 -11.516  1.00 70.21 LIG 0.04  A 
ATOM     39  CZ  TYR B  17      -2.907 -32.403 -11.988  1.00 76.40 LIG 0.07  A 
ATOM     40  CE1 TYR B  17      -3.572 -33.225 -12.890  1.00 67.10 LIG 0.04  A 
ATOM     41  CD1 TYR B  17      -4.834 -32.863 -13.326  1.00 57.92 LIG 0.01  A 
BRANCH 39 42
ATOM     42 OH   TYR B  17      -1.659 -32.740 -11.552  1.00 89.25 LIG-0.36  OA
ATOM     43 HH   TYR B  17      -1.631 -33.564 -11.392  1.00 89.25 LIG 0.22  HD
ENDBRANCH 39 42
ENDBRANCH 35 36
ENDBRANCH 21 35
ENDBRANCH 19 21
ENDBRANCH 12 17
ENDBRANCH 9 12
ENDBRANCH 4 8
BRANCH 1 44
ATOM     44  CA  ARG B  14     -12.890 -31.197  -5.092  1.00 32.45 LIG 0.18  C 
BRANCH 44 45
ATOM     45  N   ARG B  14     -13.081 -30.044  -4.240  1.00 38.19 LIG-0.35  N 
ATOM     46 H    ARG B  14     -13.561 -29.426  -4.597  1.00 38.19 LIG 0.16  HD
ATOM     47  C   PRO B  13     -12.560 -29.948  -3.014  1.00 38.91 LIG 0.24  C 
ATOM     48 O    PRO B  13     -11.897 -30.825  -2.499  1.00 32.88 LIG-0.27  OA
BRANCH 47 49
ATOM     49  CA  PRO B  13     -12.884 -28.657  -2.234  1.00 38.31 LIG 0.18  C 
ATOM     50  N   PRO B  13     -12.658 -27.443  -2.988  1.00 38.88 LIG-0.34  N 
ATOM     51  CD  PRO B  13     -13.824 -26.549  -2.933  1.00 43.50 LIG 0.13  C 
ATOM     52  C   PRO B  12     -11.519 -27.151  -3.636  1.00 40.77 LIG 0.26  C 
ATOM     53  CG  PRO B  13     -14.656 -27.126  -1.840  1.00 43.53 LIG 0.02  C 
ATOM     54  CB  PRO B  13     -14.370 -28.584  -1.887  1.00 39.91 LIG 0.04  C 
ATOM     55 O    PRO B  12     -10.507 -27.868  -3.602  1.00 44.45 LIG-0.27  OA
BRANCH 52 56
ATOM     56  CA  PRO B  12     -11.493 -25.876  -4.442  1.00 38.46 LIG 0.35  C 
ATOM     57  CB  PRO B  12     -12.446 -26.021  -5.629  1.00 43.42 LIG 0.05  C 
ATOM     58  CG  PRO B  12     -11.747 -25.384  -6.759  1.00 41.12 LIG 0.04  C 
ATOM     59  CD  PRO B  12     -10.288 -25.645  -6.523  1.00 39.74 LIG 0.32  C 
ATOM     60  N   PRO B  12     -10.198 -25.735  -5.064  1.00 38.12 LIG 0.32  N 
ENDBRANCH 52 56
ENDBRANCH 47 49
ENDBRANCH 44 45
BRANCH 44 61
ATOM     61  CB  ARG B  14     -14.157 -31.383  -5.933  1.00 34.42 LIG 0.04  C 
BRANCH 61 62
ATOM     62  CG  ARG B  14     -14.888 -32.708  -5.711  1.00 32.66 LIG 0.02  C 
BRANCH 62 63
ATOM     63  CD  ARG B  14     -13.870 -33.811  -5.505  1.00 35.24 LIG 0.14  C 
BRANCH 63 64
ATOM     64  NE  ARG B  14     -14.313 -35.108  -6.046  1.00 42.22 LIG-0.23  N 
ATOM     65  CZ  ARG B  14     -14.695 -36.168  -5.330  1.00 44.72 LIG 0.67  C 
ATOM     66  NH2 ARG B  14     -14.690 -36.151  -4.010  1.00 43.48 LIG-0.23  N 
ATOM     67  NH1 ARG B  14     -15.074 -37.271  -5.949  1.00 46.51 LIG-0.23  N 
ATOM     68 1HH2 ARG B  14     -14.436 -35.445  -3.590  1.00 43.48 LIG 0.17  HD
ATOM     69 2HH2 ARG B  14     -14.941 -36.847  -3.570  1.00 43.48 LIG 0.17  HD
ATOM     70 2HH1 ARG B  14     -15.321 -37.957  -5.493  1.00 46.51 LIG 0.17  HD
ATOM     71 1HH1 ARG B  14     -15.074 -37.303  -6.808  1.00 46.51 LIG 0.17  HD
ATOM     72 HE   ARG B  14     -14.326 -35.190  -6.902  1.00 42.22 LIG 0.18  HD
ENDBRANCH 63 64
ENDBRANCH 62 63
ENDBRANCH 61 62
ENDBRANCH 44 61
ENDBRANCH 1 44
TORSDOF 22
ENDMDL
MODEL 80
USER: ADFR SOLUTION from run 26
USER: SCORE 21.822120 LL:  -5.625 LR: -18.528 RR:   0.000 FEB: -11.966
USER: RMSD 12.545123
USER: SEED 25
USER: STATUS no improvement in best in 13 clusters for 5 generations
USER: GENES 24
USER: genes 0 Translation |==|  0.68669 0.53432 0.46506
USER: genes 1 Rotation |==|  0.72576 0.75989 0.86161 0.52702
USER: genes 2 Torsion [N]-CA--C-[O] |==|  0.05401
USER: genes 3 Torsion [C]-N--CA-[CB] |==|  0.35287
USER: genes 4 Torsion [N]-CA--CB-[CG2] |==|  0.56695
USER: genes 5 Torsion [CA]-CB--CG1-[CD1] |==|  0.75227
USER: genes 6 Torsion [N]-CA--C-[N] |==|  0.46244
USER: genes 7 Torsion [C]-N--CA-[C] |==|  0.67220
USER: genes 8 Torsion [N]-CA--C-[N] |==|  0.43828
USER: genes 9 Torsion [C]-N--CA-[CB] |==|  0.47040
USER: genes 10 Torsion [N]-CA--CB-[CG] |==|  0.57679
USER: genes 11 Torsion [CA]-CB--CG-[ND2] |==|  0.75786
USER: genes 12 Torsion [N]-CA--C-[O] |==|  0.94774
USER: genes 13 Torsion [N]-CA--CB-[CG] |==|  0.07754
USER: genes 14 Torsion [CA]-CB--CG-[CD2] |==|  0.74337
USER: genes 15 Torsion [CE2]-CZ--OH-[HH] |==|  0.71705
USER: genes 16 Torsion [N]-C--CA-[N] |==|  0.24105
USER: genes 17 Torsion [C]-CA--N-[C] |==|  0.60663
USER: genes 18 Torsion [N]-C--CA-[N] |==|  0.93332
USER: genes 19 Torsion [N]-C--CA-[CB] |==|  0.68074
USER: genes 20 Torsion [C]-CA--CB-[CG] |==|  0.45118
USER: genes 21 Torsion [CA]-CB--CG-[CD] |==|  0.35667
USER: genes 22 Torsion [CB]-CG--CD-[NE] |==|  0.51374
USER: genes 23 Torsion [CG]-CD--NE-[CZ] |==|  0.54170
ROOT
ATOM      1  C   ARG B  14      -5.249 -28.003 -12.902  1.00 32.92 LIG 0.24  C 
ATOM      2 O    ARG B  14      -6.081 -27.146 -13.207  1.00 37.82 LIG-0.27  OA
ATOM      3  N   PRO B  15      -5.551 -29.296 -12.757  1.00 31.88 LIG-0.34  N 
ATOM      4  CA  PRO B  15      -6.918 -29.763 -13.002  1.00 30.79 LIG 0.18  C 
ATOM      5  CB  PRO B  15      -6.808 -31.261 -12.810  1.00 31.22 LIG 0.04  C 
ATOM      6  CG  PRO B  15      -5.396 -31.552 -13.211  1.00 29.82 LIG 0.02  C 
ATOM      7  CD  PRO B  15      -4.615 -30.424 -12.619  1.00 31.43 LIG 0.13  C 
ENDROOT
BRANCH 4 8
ATOM      8  C   PRO B  15      -7.847 -29.187 -11.964  1.00 33.68 LIG 0.24  C 
ATOM      9  N   ILE B  16      -9.025 -29.770 -11.845  1.00 35.41 LIG-0.35  N 
ATOM     10 H    ILE B  16      -9.307 -30.402 -12.356  1.00 35.41 LIG 0.16  HD
ATOM     11 O    PRO B  15      -7.522 -28.199 -11.322  1.00 34.05 LIG-0.27  OA
BRANCH 9 12
ATOM     12  CA  ILE B  16      -9.923 -29.382 -10.839  1.00 37.77 LIG 0.18  C 
BRANCH 12 13
ATOM     13  CB  ILE B  16     -11.290 -29.041 -11.410  1.00 42.27 LIG 0.01  C 
ATOM     14  CG2 ILE B  16     -12.015 -28.108 -10.482  1.00 44.80 LIG 0.01  C 
BRANCH 13 15
ATOM     15  CG1 ILE B  16     -11.096 -28.437 -12.812  1.00 47.53 LIG 0.00  C 
ATOM     16  CD1 ILE B  16     -10.911 -26.924 -12.864  1.00 51.74 LIG 0.01  C 
ENDBRANCH 13 15
ENDBRANCH 12 13
BRANCH 12 17
ATOM     17  C   ILE B  16      -9.952 -30.524  -9.874  1.00 42.33 LIG 0.24  C 
ATOM     18 O    ILE B  16      -9.448 -31.578 -10.145  1.00 39.29 LIG-0.27  OA
ATOM     19  N   TYR B  17     -10.518 -30.258  -8.712  1.00 46.96 LIG-0.35  N 
ATOM     20 H    TYR B  17     -10.971 -29.542  -8.564  1.00 46.96 LIG 0.16  HD
BRANCH 19 21
ATOM     21  CA  TYR B  17     -10.440 -31.132  -7.576  1.00 51.19 LIG 0.18  C 
BRANCH 21 22
ATOM     22  C   TYR B  17     -11.802 -31.591  -7.196  1.00 56.10 LIG 0.24  C 
ATOM     23  N   ASN B  18     -11.897 -32.706  -6.499  1.00 65.39 LIG-0.35  N 
ATOM     24 H    ASN B  18     -11.230 -33.100  -6.126  1.00 65.39 LIG 0.16  HD
ATOM     25 O    TYR B  17     -12.765 -30.898  -7.470  1.00 61.36 LIG-0.27  OA
BRANCH 23 26
ATOM     26  CA  ASN B  18     -13.192 -33.378  -6.303  1.00 70.74 LIG 0.17  C 
BRANCH 26 27
ATOM     27  CB  ASN B  18     -12.952 -34.767  -5.693  1.00 84.74 LIG 0.14  C 
BRANCH 27 28
ATOM     28  CG  ASN B  18     -14.054 -35.769  -6.059  1.00 96.34 LIG 0.22  C 
ATOM     29 OD1  ASN B  18     -13.949 -36.497  -7.058  1.00 99.44 LIG-0.27  OA
ATOM     30  ND2 ASN B  18     -15.127 -35.799  -5.259  1.00 94.73 LIG-0.37  N 
ATOM     31 21HD ASN B  18     -15.776 -36.336  -5.430  1.00 94.73 LIG 0.16  HD
ATOM     32 22HD ASN B  18     -15.168 -35.280  -4.574  1.00 94.73 LIG 0.16  HD
ENDBRANCH 27 28
ENDBRANCH 26 27
BRANCH 26 33
ATOM     33  C   ASN B  18     -14.306 -32.607  -5.552  1.00 72.97 LIG 0.22  C 
ATOM     34 O    ASN B  18     -14.071 -31.628  -4.829  1.00 74.17 LIG-0.29  OA
ENDBRANCH 26 33
ENDBRANCH 23 26
ENDBRANCH 21 22
BRANCH 21 35
ATOM     35  CB  TYR B  17      -9.896 -30.332  -6.404  1.00 54.83 LIG 0.07  C 
BRANCH 35 36
ATOM     36  CG  TYR B  17     -10.233 -28.896  -6.529  1.00 56.96 LIG-0.06  A 
ATOM     37  CD2 TYR B  17      -9.339 -28.017  -7.152  1.00 61.26 LIG 0.01  A 
ATOM     38  CE2 TYR B  17      -9.626 -26.676  -7.268  1.00 70.21 LIG 0.04  A 
ATOM     39  CZ  TYR B  17     -10.816 -26.205  -6.741  1.00 76.40 LIG 0.07  A 
ATOM     40  CE1 TYR B  17     -11.716 -27.057  -6.111  1.00 67.10 LIG 0.04  A 
ATOM     41  CD1 TYR B  17     -11.409 -28.401  -6.006  1.00 57.92 LIG 0.01  A 
BRANCH 39 42
ATOM     42 OH   TYR B  17     -11.100 -24.875  -6.848  1.00 89.25 LIG-0.36  OA
ATOM     43 HH   TYR B  17     -10.947 -24.496  -6.114  1.00 89.25 LIG 0.22  HD
ENDBRANCH 39 42
ENDBRANCH 35 36
ENDBRANCH 21 35
ENDBRANCH 19 21
ENDBRANCH 12 17
ENDBRANCH 9 12
ENDBRANCH 4 8
BRANCH 1 44
ATOM     44  CA  ARG B  14      -3.834 -27.583 -12.633  1.00 32.45 LIG 0.18  C 
BRANCH 44 45
ATOM     45  N   ARG B  14      -3.179 -27.793 -13.904  1.00 38.19 LIG-0.35  N 
ATOM     46 H    ARG B  14      -3.664 -27.584 -14.582  1.00 38.19 LIG 0.16  HD
ATOM     47  C   PRO B  13      -1.934 -28.267 -14.015  1.00 38.91 LIG 0.24  C 
ATOM     48 O    PRO B  13      -1.239 -28.547 -13.060  1.00 32.88 LIG-0.27  OA
BRANCH 47 49
ATOM     49  CA  PRO B  13      -1.382 -28.406 -15.449  1.00 38.31 LIG 0.18  C 
ATOM     50  N   PRO B  13      -2.406 -28.536 -16.463  1.00 38.88 LIG-0.34  N 
ATOM     51  CD  PRO B  13      -2.191 -27.593 -17.570  1.00 43.50 LIG 0.13  C 
ATOM     52  C   PRO B  12      -3.412 -29.424 -16.419  1.00 40.77 LIG 0.26  C 
ATOM     53  CG  PRO B  13      -0.803 -27.099 -17.345  1.00 43.53 LIG 0.02  C 
ATOM     54  CB  PRO B  13      -0.628 -27.145 -15.870  1.00 39.91 LIG 0.04  C 
ATOM     55 O    PRO B  12      -3.534 -30.278 -15.527  1.00 44.45 LIG-0.27  OA
BRANCH 52 56
ATOM     56  CA  PRO B  12      -4.436 -29.359 -17.523  1.00 38.46 LIG 0.35  C 
ATOM     57  CB  PRO B  12      -5.787 -28.962 -16.925  1.00 43.42 LIG 0.05  C 
ATOM     58  CG  PRO B  12      -6.776 -29.794 -17.631  1.00 41.12 LIG 0.04  C 
ATOM     59  CD  PRO B  12      -6.075 -31.090 -17.919  1.00 39.74 LIG 0.32  C 
ATOM     60  N   PRO B  12      -4.670 -30.690 -18.031  1.00 38.12 LIG 0.32  N 
ENDBRANCH 52 56
ENDBRANCH 47 49
ENDBRANCH 44 45
BRANCH 44 61
ATOM     61  CB  ARG B  14      -3.811 -26.082 -12.326  1.00 34.42 LIG 0.04  C 
BRANCH 61 62
ATOM     62  CG  ARG B  14      -2.543 -25.588 -11.629  1.00 32.66 LIG 0.02  C 
BRANCH 62 63
ATOM     63  CD  ARG B  14      -1.983 -24.404 -12.391  1.00 35.24 LIG 0.14  C 
BRANCH 63 64
ATOM     64  NE  ARG B  14      -0.694 -23.935 -11.855  1.00 42.22 LIG-0.23  N 
ATOM     65  CZ  ARG B  14      -0.109 -22.765 -12.126  1.00 44.72 LIG 0.67  C 
ATOM     66  NH2 ARG B  14      -0.654 -21.895 -12.955  1.00 43.48 LIG-0.23  N 
ATOM     67  NH1 ARG B  14       1.051 -22.472 -11.569  1.00 46.51 LIG-0.23  N 
ATOM     68 1HH2 ARG B  14      -1.404 -22.074 -13.335  1.00 43.48 LIG 0.17  HD
ATOM     69 2HH2 ARG B  14      -0.258 -21.147 -13.114  1.00 43.48 LIG 0.17  HD
ATOM     70 2HH1 ARG B  14       1.433 -21.720 -11.740  1.00 46.51 LIG 0.17  HD
ATOM     71 1HH1 ARG B  14       1.425 -23.031 -11.035  1.00 46.51 LIG 0.17  HD
ATOM     72 HE   ARG B  14      -0.278 -24.463 -11.317  1.00 42.22 LIG 0.18  HD
ENDBRANCH 63 64
ENDBRANCH 62 63
ENDBRANCH 61 62
ENDBRANCH 44 61
ENDBRANCH 1 44
TORSDOF 22
ENDMDL
MODEL 81
USER: ADFR SOLUTION from run 132
USER: SCORE 21.951795 LL:  -5.081 LR: -18.528 RR:   0.000 FEB: -11.966
USER: RMSD 12.375386
USER: SEED 131
USER: STATUS no improvement in best in 29 clusters for 5 generations
USER: GENES 24
USER: genes 0 Translation |==|  0.62195 0.46787 0.37632
USER: genes 1 Rotation |==|  0.25264 0.09155 0.35478 0.52979
USER: genes 2 Torsion [N]-CA--C-[O] |==|  0.83566
USER: genes 3 Torsion [C]-N--CA-[CB] |==|  0.50187
USER: genes 4 Torsion [N]-CA--CB-[CG2] |==|  0.57723
USER: genes 5 Torsion [CA]-CB--CG1-[CD1] |==|  0.56559
USER: genes 6 Torsion [N]-CA--C-[N] |==|  0.80867
USER: genes 7 Torsion [C]-N--CA-[C] |==|  0.61237
USER: genes 8 Torsion [N]-CA--C-[N] |==|  0.50936
USER: genes 9 Torsion [C]-N--CA-[CB] |==|  0.28636
USER: genes 10 Torsion [N]-CA--CB-[CG] |==|  0.22554
USER: genes 11 Torsion [CA]-CB--CG-[ND2] |==|  0.35783
USER: genes 12 Torsion [N]-CA--C-[O] |==|  0.09377
USER: genes 13 Torsion [N]-CA--CB-[CG] |==|  0.74383
USER: genes 14 Torsion [CA]-CB--CG-[CD2] |==|  0.65701
USER: genes 15 Torsion [CE2]-CZ--OH-[HH] |==|  0.39820
USER: genes 16 Torsion [N]-C--CA-[N] |==|  0.33333
USER: genes 17 Torsion [C]-CA--N-[C] |==|  0.77990
USER: genes 18 Torsion [N]-C--CA-[N] |==|  0.50014
USER: genes 19 Torsion [N]-C--CA-[CB] |==|  0.67478
USER: genes 20 Torsion [C]-CA--CB-[CG] |==|  0.13511
USER: genes 21 Torsion [CA]-CB--CG-[CD] |==|  0.14011
USER: genes 22 Torsion [CB]-CG--CD-[NE] |==|  0.44362
USER: genes 23 Torsion [CG]-CD--NE-[CZ] |==|  0.42303
ROOT
ATOM      1  C   ARG B  14      -6.705 -29.248 -15.365  1.00 32.92 LIG 0.24  C 
ATOM      2 O    ARG B  14      -7.904 -28.978 -15.462  1.00 37.82 LIG-0.27  OA
ATOM      3  N   PRO B  15      -6.201 -29.987 -14.373  1.00 31.88 LIG-0.34  N 
ATOM      4  CA  PRO B  15      -7.089 -30.555 -13.354  1.00 30.79 LIG 0.18  C 
ATOM      5  CB  PRO B  15      -6.145 -31.366 -12.491  1.00 31.22 LIG 0.04  C 
ATOM      6  CG  PRO B  15      -5.074 -31.777 -13.451  1.00 29.82 LIG 0.02  C 
ATOM      7  CD  PRO B  15      -4.845 -30.553 -14.278  1.00 31.43 LIG 0.13  C 
ENDROOT
BRANCH 4 8
ATOM      8  C   PRO B  15      -7.698 -29.446 -12.534  1.00 33.68 LIG 0.24  C 
ATOM      9  N   ILE B  16      -9.012 -29.337 -12.584  1.00 35.41 LIG-0.35  N 
ATOM     10 H    ILE B  16      -9.519 -29.810 -13.093  1.00 35.41 LIG 0.16  HD
ATOM     11 O    PRO B  15      -6.985 -28.673 -11.913  1.00 34.05 LIG-0.27  OA
BRANCH 9 12
ATOM     12  CA  ILE B  16      -9.689 -28.409 -11.777  1.00 37.77 LIG 0.18  C 
BRANCH 12 13
ATOM     13  CB  ILE B  16     -11.193 -28.473 -11.991  1.00 42.27 LIG 0.01  C 
ATOM     14  CG2 ILE B  16     -11.808 -27.135 -11.700  1.00 44.80 LIG 0.01  C 
BRANCH 13 15
ATOM     15  CG1 ILE B  16     -11.460 -28.938 -13.433  1.00 47.53 LIG 0.00  C 
ATOM     16  CD1 ILE B  16     -12.813 -28.545 -14.018  1.00 51.74 LIG 0.01  C 
ENDBRANCH 13 15
ENDBRANCH 12 13
BRANCH 12 17
ATOM     17  C   ILE B  16      -9.276 -28.729 -10.376  1.00 42.33 LIG 0.24  C 
ATOM     18 O    ILE B  16      -8.618 -27.960  -9.732  1.00 39.29 LIG-0.27  OA
ATOM     19  N   TYR B  17      -9.733 -29.875  -9.908  1.00 46.96 LIG-0.35  N 
ATOM     20 H    TYR B  17     -10.109 -30.467 -10.405  1.00 46.96 LIG 0.16  HD
BRANCH 19 21
ATOM     21  CA  TYR B  17      -9.651 -30.254  -8.526  1.00 51.19 LIG 0.18  C 
BRANCH 21 22
ATOM     22  C   TYR B  17      -9.296 -31.693  -8.416  1.00 56.10 LIG 0.24  C 
ATOM     23  N   ASN B  18      -9.247 -32.219  -7.208  1.00 65.39 LIG-0.35  N 
ATOM     24 H    ASN B  18      -9.547 -31.832  -6.502  1.00 65.39 LIG 0.16  HD
ATOM     25 O    TYR B  17      -9.137 -32.349  -9.430  1.00 61.36 LIG-0.27  OA
BRANCH 23 26
ATOM     26  CA  ASN B  18      -8.656 -33.547  -6.975  1.00 70.74 LIG 0.17  C 
BRANCH 26 27
ATOM     27  CB  ASN B  18      -7.257 -33.375  -6.365  1.00 84.74 LIG 0.14  C 
BRANCH 27 28
ATOM     28  CG  ASN B  18      -7.301 -33.115  -4.854  1.00 96.34 LIG 0.22  C 
ATOM     29 OD1  ASN B  18      -8.011 -32.215  -4.381  1.00 99.44 LIG-0.27  OA
ATOM     30  ND2 ASN B  18      -6.525 -33.893  -4.089  1.00 94.73 LIG-0.37  N 
ATOM     31 21HD ASN B  18      -6.507 -33.778  -3.237  1.00 94.73 LIG 0.16  HD
ATOM     32 22HD ASN B  18      -6.044 -34.509  -4.449  1.00 94.73 LIG 0.16  HD
ENDBRANCH 27 28
ENDBRANCH 26 27
BRANCH 26 33
ATOM     33  C   ASN B  18      -9.495 -34.591  -6.198  1.00 72.97 LIG 0.22  C 
ATOM     34 O    ASN B  18     -10.730 -34.656  -6.285  1.00 74.17 LIG-0.29  OA
ENDBRANCH 26 33
ENDBRANCH 23 26
ENDBRANCH 21 22
BRANCH 21 35
ATOM     35  CB  TYR B  17     -11.029 -30.086  -7.909  1.00 54.83 LIG 0.07  C 
BRANCH 35 36
ATOM     36  CG  TYR B  17     -11.190 -28.744  -7.306  1.00 56.96 LIG-0.06  A 
ATOM     37  CD2 TYR B  17     -11.538 -28.617  -5.956  1.00 61.26 LIG 0.01  A 
ATOM     38  CE2 TYR B  17     -11.705 -27.380  -5.378  1.00 70.21 LIG 0.04  A 
ATOM     39  CZ  TYR B  17     -11.536 -26.253  -6.164  1.00 76.40 LIG 0.07  A 
ATOM     40  CE1 TYR B  17     -11.199 -26.353  -7.508  1.00 67.10 LIG 0.04  A 
ATOM     41  CD1 TYR B  17     -11.034 -27.606  -8.069  1.00 57.92 LIG 0.01  A 
BRANCH 39 42
ATOM     42 OH   TYR B  17     -11.709 -25.025  -5.595  1.00 89.25 LIG-0.36  OA
ATOM     43 HH   TYR B  17     -11.154 -24.486  -5.920  1.00 89.25 LIG 0.22  HD
ENDBRANCH 39 42
ENDBRANCH 35 36
ENDBRANCH 21 35
ENDBRANCH 19 21
ENDBRANCH 12 17
ENDBRANCH 9 12
ENDBRANCH 4 8
BRANCH 1 44
ATOM     44  CA  ARG B  14      -5.747 -28.690 -16.375  1.00 32.45 LIG 0.18  C 
BRANCH 44 45
ATOM     45  N   ARG B  14      -6.203 -29.268 -17.619  1.00 38.19 LIG-0.35  N 
ATOM     46 H    ARG B  14      -6.673 -28.730 -18.098  1.00 38.19 LIG 0.16  HD
ATOM     47  C   PRO B  13      -5.921 -30.520 -17.990  1.00 38.91 LIG 0.24  C 
ATOM     48 O    PRO B  13      -5.244 -31.277 -17.325  1.00 32.88 LIG-0.27  OA
BRANCH 47 49
ATOM     49  CA  PRO B  13      -6.469 -30.966 -19.361  1.00 38.31 LIG 0.18  C 
ATOM     50  N   PRO B  13      -6.136 -32.329 -19.713  1.00 38.88 LIG-0.34  N 
ATOM     51  CD  PRO B  13      -7.324 -33.082 -20.141  1.00 43.50 LIG 0.13  C 
ATOM     52  C   PRO B  12      -4.895 -32.841 -19.681  1.00 40.77 LIG 0.26  C 
ATOM     53  CG  PRO B  13      -8.353 -32.023 -20.348  1.00 43.53 LIG 0.02  C 
ATOM     54  CB  PRO B  13      -7.998 -30.965 -19.367  1.00 39.91 LIG 0.04  C 
ATOM     55 O    PRO B  12      -3.885 -32.174 -19.406  1.00 44.45 LIG-0.27  OA
BRANCH 52 56
ATOM     56  CA  PRO B  12      -4.747 -34.307 -19.999  1.00 38.46 LIG 0.35  C 
ATOM     57  CB  PRO B  12      -4.198 -35.029 -18.767  1.00 43.42 LIG 0.05  C 
ATOM     58  CG  PRO B  12      -3.227 -36.003 -19.297  1.00 41.12 LIG 0.04  C 
ATOM     59  CD  PRO B  12      -2.628 -35.350 -20.508  1.00 39.74 LIG 0.32  C 
ATOM     60  N   PRO B  12      -3.704 -34.476 -20.982  1.00 38.12 LIG 0.32  N 
ENDBRANCH 52 56
ENDBRANCH 47 49
ENDBRANCH 44 45
BRANCH 44 61
ATOM     61  CB  ARG B  14      -5.938 -27.172 -16.455  1.00 34.42 LIG 0.04  C 
BRANCH 61 62
ATOM     62  CG  ARG B  14      -5.964 -26.456 -15.105  1.00 32.66 LIG 0.02  C 
BRANCH 62 63
ATOM     63  CD  ARG B  14      -4.761 -26.883 -14.289  1.00 35.24 LIG 0.14  C 
BRANCH 63 64
ATOM     64  NE  ARG B  14      -4.431 -25.933 -13.212  1.00 42.22 LIG-0.23  N 
ATOM     65  CZ  ARG B  14      -3.824 -26.231 -12.061  1.00 44.72 LIG 0.67  C 
ATOM     66  NH2 ARG B  14      -3.466 -27.466 -11.766  1.00 43.48 LIG-0.23  N 
ATOM     67  NH1 ARG B  14      -3.585 -25.274 -11.183  1.00 46.51 LIG-0.23  N 
ATOM     68 1HH2 ARG B  14      -3.623 -28.104 -12.322  1.00 43.48 LIG 0.17  HD
ATOM     69 2HH2 ARG B  14      -3.075 -27.634 -11.018  1.00 43.48 LIG 0.17  HD
ATOM     70 2HH1 ARG B  14      -3.194 -25.460 -10.440  1.00 46.51 LIG 0.17  HD
ATOM     71 1HH1 ARG B  14      -3.820 -24.466 -11.354  1.00 46.51 LIG 0.17  HD
ATOM     72 HE   ARG B  14      -4.651 -25.111 -13.336  1.00 42.22 LIG 0.18  HD
ENDBRANCH 63 64
ENDBRANCH 62 63
ENDBRANCH 61 62
ENDBRANCH 44 61
ENDBRANCH 1 44
TORSDOF 22
ENDMDL
MODEL 82
USER: ADFR SOLUTION from run 32
USER: SCORE 20.558453 LL:  -4.315 LR: -18.533 RR:   0.000 FEB: -11.970
USER: RMSD 5.198727
USER: SEED 31
USER: STATUS no improvement in best in 3 clusters for 5 generations
USER: GENES 24
USER: genes 0 Translation |==|  0.52087 0.48702 0.49466
USER: genes 1 Rotation |==|  0.23525 0.47104 0.90475 0.62348
USER: genes 2 Torsion [N]-CA--C-[O] |==|  0.97561
USER: genes 3 Torsion [C]-N--CA-[CB] |==|  0.43370
USER: genes 4 Torsion [N]-CA--CB-[CG2] |==|  0.53695
USER: genes 5 Torsion [CA]-CB--CG1-[CD1] |==|  0.39323
USER: genes 6 Torsion [N]-CA--C-[N] |==|  0.43666
USER: genes 7 Torsion [C]-N--CA-[C] |==|  0.63685
USER: genes 8 Torsion [N]-CA--C-[N] |==|  0.86098
USER: genes 9 Torsion [C]-N--CA-[CB] |==|  0.38413
USER: genes 10 Torsion [N]-CA--CB-[CG] |==|  0.19432
USER: genes 11 Torsion [CA]-CB--CG-[ND2] |==|  0.92446
USER: genes 12 Torsion [N]-CA--C-[O] |==|  0.23106
USER: genes 13 Torsion [N]-CA--CB-[CG] |==|  0.49718
USER: genes 14 Torsion [CA]-CB--CG-[CD2] |==|  0.21158
USER: genes 15 Torsion [CE2]-CZ--OH-[HH] |==|  0.14021
USER: genes 16 Torsion [N]-C--CA-[N] |==|  0.17334
USER: genes 17 Torsion [C]-CA--N-[C] |==|  0.56440
USER: genes 18 Torsion [N]-C--CA-[N] |==|  0.43139
USER: genes 19 Torsion [N]-C--CA-[CB] |==|  0.80921
USER: genes 20 Torsion [C]-CA--CB-[CG] |==|  0.83527
USER: genes 21 Torsion [CA]-CB--CG-[CD] |==|  0.75501
USER: genes 22 Torsion [CB]-CG--CD-[NE] |==|  0.66154
USER: genes 23 Torsion [CG]-CD--NE-[CZ] |==|  0.66756
ROOT
ATOM      1  C   ARG B  14      -8.979 -28.889 -12.081  1.00 32.92 LIG 0.24  C 
ATOM      2 O    ARG B  14      -8.897 -27.698 -12.385  1.00 37.82 LIG-0.27  OA
ATOM      3  N   PRO B  15      -8.048 -29.791 -12.404  1.00 31.88 LIG-0.34  N 
ATOM      4  CA  PRO B  15      -6.838 -29.374 -13.118  1.00 30.79 LIG 0.18  C 
ATOM      5  CB  PRO B  15      -6.035 -30.656 -13.208  1.00 31.22 LIG 0.04  C 
ATOM      6  CG  PRO B  15      -6.457 -31.407 -11.985  1.00 29.82 LIG 0.02  C 
ATOM      7  CD  PRO B  15      -7.931 -31.173 -11.910  1.00 31.43 LIG 0.13  C 
ENDROOT
BRANCH 4 8
ATOM      8  C   PRO B  15      -7.200 -28.905 -14.504  1.00 33.68 LIG 0.24  C 
ATOM      9  N   ILE B  16      -6.252 -28.280 -15.176  1.00 35.41 LIG-0.35  N 
ATOM     10 H    ILE B  16      -5.481 -28.076 -14.851  1.00 35.41 LIG 0.16  HD
ATOM     11 O    PRO B  15      -8.333 -29.060 -14.934  1.00 34.05 LIG-0.27  OA
BRANCH 9 12
ATOM     12  CA  ILE B  16      -6.448 -27.896 -16.512  1.00 37.77 LIG 0.18  C 
BRANCH 12 13
ATOM     13  CB  ILE B  16      -5.543 -26.738 -16.900  1.00 42.27 LIG 0.01  C 
ATOM     14  CG2 ILE B  16      -5.999 -26.148 -18.204  1.00 44.80 LIG 0.01  C 
BRANCH 13 15
ATOM     15  CG1 ILE B  16      -5.553 -25.707 -15.757  1.00 47.53 LIG 0.00  C 
ATOM     16  CD1 ILE B  16      -4.218 -25.035 -15.457  1.00 51.74 LIG 0.01  C 
ENDBRANCH 13 15
ENDBRANCH 12 13
BRANCH 12 17
ATOM     17  C   ILE B  16      -6.206 -29.132 -17.317  1.00 42.33 LIG 0.24  C 
ATOM     18 O    ILE B  16      -5.579 -30.052 -16.869  1.00 39.29 LIG-0.27  OA
ATOM     19  N   TYR B  17      -6.773 -29.142 -18.508  1.00 46.96 LIG-0.35  N 
ATOM     20 H    TYR B  17      -7.127 -28.444 -18.865  1.00 46.96 LIG 0.16  HD
BRANCH 19 21
ATOM     21  CA  TYR B  17      -6.860 -30.314 -19.333  1.00 51.19 LIG 0.18  C 
BRANCH 21 22
ATOM     22  C   TYR B  17      -6.394 -29.999 -20.710  1.00 56.10 LIG 0.24  C 
ATOM     23  N   ASN B  18      -6.906 -28.936 -21.298  1.00 65.39 LIG-0.35  N 
ATOM     24 H    ASN B  18      -7.370 -28.337 -20.892  1.00 65.39 LIG 0.16  HD
ATOM     25 O    TYR B  17      -5.518 -30.676 -21.214  1.00 61.36 LIG-0.27  OA
BRANCH 23 26
ATOM     26  CA  ASN B  18      -6.714 -28.691 -22.737  1.00 70.74 LIG 0.17  C 
BRANCH 26 27
ATOM     27  CB  ASN B  18      -8.034 -28.189 -23.342  1.00 84.74 LIG 0.14  C 
BRANCH 27 28
ATOM     28  CG  ASN B  18      -8.394 -26.772 -22.876  1.00 96.34 LIG 0.22  C 
ATOM     29 OD1  ASN B  18      -9.074 -26.019 -23.590  1.00 99.44 LIG-0.27  OA
ATOM     30  ND2 ASN B  18      -7.922 -26.395 -21.681  1.00 94.73 LIG-0.37  N 
ATOM     31 21HD ASN B  18      -8.088 -25.606 -21.383  1.00 94.73 LIG 0.16  HD
ATOM     32 22HD ASN B  18      -7.453 -26.943 -21.211  1.00 94.73 LIG 0.16  HD
ENDBRANCH 27 28
ENDBRANCH 26 27
BRANCH 26 33
ATOM     33  C   ASN B  18      -5.515 -27.815 -23.172  1.00 72.97 LIG 0.22  C 
ATOM     34 O    ASN B  18      -4.369 -28.268 -23.307  1.00 74.17 LIG-0.29  OA
ENDBRANCH 26 33
ENDBRANCH 23 26
ENDBRANCH 21 22
BRANCH 21 35
ATOM     35  CB  TYR B  17      -8.324 -30.709 -19.438  1.00 54.83 LIG 0.07  C 
BRANCH 35 36
ATOM     36  CG  TYR B  17      -8.500 -31.901 -20.297  1.00 56.96 LIG-0.06  A 
ATOM     37  CD2 TYR B  17      -8.178 -33.173 -19.808  1.00 61.26 LIG 0.01  A 
ATOM     38  CE2 TYR B  17      -8.322 -34.293 -20.593  1.00 70.21 LIG 0.04  A 
ATOM     39  CZ  TYR B  17      -8.780 -34.140 -21.890  1.00 76.40 LIG 0.07  A 
ATOM     40  CE1 TYR B  17      -9.099 -32.886 -22.401  1.00 67.10 LIG 0.04  A 
ATOM     41  CD1 TYR B  17      -8.948 -31.773 -21.594  1.00 57.92 LIG 0.01  A 
BRANCH 39 42
ATOM     42 OH   TYR B  17      -8.916 -35.248 -22.673  1.00 89.25 LIG-0.36  OA
ATOM     43 HH   TYR B  17      -9.356 -35.831 -22.259  1.00 89.25 LIG 0.22  HD
ENDBRANCH 39 42
ENDBRANCH 35 36
ENDBRANCH 21 35
ENDBRANCH 19 21
ENDBRANCH 12 17
ENDBRANCH 9 12
ENDBRANCH 4 8
BRANCH 1 44
ATOM     44  CA  ARG B  14     -10.198 -29.376 -11.356  1.00 32.45 LIG 0.18  C 
BRANCH 44 45
ATOM     45  N   ARG B  14      -9.662 -29.893 -10.117  1.00 38.19 LIG-0.35  N 
ATOM     46 H    ARG B  14      -8.899 -29.557  -9.903  1.00 38.19 LIG 0.16  HD
ATOM     47  C   PRO B  13     -10.291 -30.807  -9.373  1.00 38.91 LIG 0.24  C 
ATOM     48 O    PRO B  13     -11.376 -31.271  -9.661  1.00 32.88 LIG-0.27  OA
BRANCH 47 49
ATOM     49  CA  PRO B  13      -9.586 -31.229  -8.068  1.00 38.31 LIG 0.18  C 
ATOM     50  N   PRO B  13     -10.482 -31.741  -7.054  1.00 38.88 LIG-0.34  N 
ATOM     51  CD  PRO B  13     -10.012 -33.027  -6.518  1.00 43.50 LIG 0.13  C 
ATOM     52  C   PRO B  12     -11.590 -31.112  -6.631  1.00 40.77 LIG 0.26  C 
ATOM     53  CG  PRO B  13      -8.611 -33.124  -7.019  1.00 43.53 LIG 0.02  C 
ATOM     54  CB  PRO B  13      -8.630 -32.396  -8.314  1.00 39.91 LIG 0.04  C 
ATOM     55 O    PRO B  12     -11.931 -29.986  -7.022  1.00 44.45 LIG-0.27  OA
BRANCH 52 56
ATOM     56  CA  PRO B  12     -12.451 -31.836  -5.626  1.00 38.46 LIG 0.35  C 
ATOM     57  CB  PRO B  12     -13.102 -33.041  -6.308  1.00 43.42 LIG 0.05  C 
ATOM     58  CG  PRO B  12     -14.477 -33.080  -5.783  1.00 41.12 LIG 0.04  C 
ATOM     59  CD  PRO B  12     -14.859 -31.646  -5.558  1.00 39.74 LIG 0.32  C 
ATOM     60  N   PRO B  12     -13.574 -31.001  -5.275  1.00 38.12 LIG 0.32  N 
ENDBRANCH 52 56
ENDBRANCH 47 49
ENDBRANCH 44 45
BRANCH 44 61
ATOM     61  CB  ARG B  14     -11.092 -28.176 -11.025  1.00 34.42 LIG 0.04  C 
BRANCH 61 62
ATOM     62  CG  ARG B  14     -10.434 -27.105 -10.155  1.00 32.66 LIG 0.02  C 
BRANCH 62 63
ATOM     63  CD  ARG B  14     -10.645 -27.449  -8.694  1.00 35.24 LIG 0.14  C 
BRANCH 63 64
ATOM     64  NE  ARG B  14     -11.346 -26.387  -7.951  1.00 42.22 LIG-0.23  N 
ATOM     65  CZ  ARG B  14     -10.869 -25.721  -6.897  1.00 44.72 LIG 0.67  C 
ATOM     66  NH2 ARG B  14      -9.677 -25.982  -6.394  1.00 43.48 LIG-0.23  N 
ATOM     67  NH1 ARG B  14     -11.607 -24.786  -6.328  1.00 46.51 LIG-0.23  N 
ATOM     68 1HH2 ARG B  14      -9.187 -26.594  -6.745  1.00 43.48 LIG 0.17  HD
ATOM     69 2HH2 ARG B  14      -9.391 -25.538  -5.714  1.00 43.48 LIG 0.17  HD
ATOM     70 2HH1 ARG B  14     -11.306 -24.353  -5.648  1.00 46.51 LIG 0.17  HD
ATOM     71 1HH1 ARG B  14     -12.390 -24.609  -6.636  1.00 46.51 LIG 0.17  HD
ATOM     72 HE   ARG B  14     -12.136 -26.178  -8.220  1.00 42.22 LIG 0.18  HD
ENDBRANCH 63 64
ENDBRANCH 62 63
ENDBRANCH 61 62
ENDBRANCH 44 61
ENDBRANCH 1 44
TORSDOF 22
ENDMDL
MODEL 83
USER: ADFR SOLUTION from run 157
USER: SCORE 21.827312 LL:  -4.833 LR: -18.522 RR:   0.000 FEB: -11.959
USER: RMSD 3.801986
USER: SEED 156
USER: STATUS no improvement in best in 7 clusters for 5 generations
USER: GENES 24
USER: genes 0 Translation |==|  0.49142 0.45735 0.57995
USER: genes 1 Rotation |==|  0.52537 0.46113 0.44592 0.99489
USER: genes 2 Torsion [N]-CA--C-[O] |==|  0.87925
USER: genes 3 Torsion [C]-N--CA-[CB] |==|  0.44802
USER: genes 4 Torsion [N]-CA--CB-[CG2] |==|  0.27180
USER: genes 5 Torsion [CA]-CB--CG1-[CD1] |==|  0.89478
USER: genes 6 Torsion [N]-CA--C-[N] |==|  0.90526
USER: genes 7 Torsion [C]-N--CA-[C] |==|  0.78819
USER: genes 8 Torsion [N]-CA--C-[N] |==|  0.47778
USER: genes 9 Torsion [C]-N--CA-[CB] |==|  0.16041
USER: genes 10 Torsion [N]-CA--CB-[CG] |==|  0.69547
USER: genes 11 Torsion [CA]-CB--CG-[ND2] |==|  0.48261
USER: genes 12 Torsion [N]-CA--C-[O] |==|  0.99063
USER: genes 13 Torsion [N]-CA--CB-[CG] |==|  0.72196
USER: genes 14 Torsion [CA]-CB--CG-[CD2] |==|  0.07558
USER: genes 15 Torsion [CE2]-CZ--OH-[HH] |==|  0.18930
USER: genes 16 Torsion [N]-C--CA-[N] |==|  0.45681
USER: genes 17 Torsion [C]-CA--N-[C] |==|  0.66806
USER: genes 18 Torsion [N]-C--CA-[N] |==|  0.53845
USER: genes 19 Torsion [N]-C--CA-[CB] |==|  0.68816
USER: genes 20 Torsion [C]-CA--CB-[CG] |==|  0.52887
USER: genes 21 Torsion [CA]-CB--CG-[CD] |==|  0.90635
USER: genes 22 Torsion [CB]-CG--CD-[NE] |==|  0.86425
USER: genes 23 Torsion [CG]-CD--NE-[CZ] |==|  0.75787
ROOT
ATOM      1  C   ARG B  14      -9.642 -29.446  -9.714  1.00 32.92 LIG 0.24  C 
ATOM      2 O    ARG B  14      -9.091 -30.548  -9.720  1.00 37.82 LIG-0.27  OA
ATOM      3  N   PRO B  15      -9.766 -28.685 -10.806  1.00 31.88 LIG-0.34  N 
ATOM      4  CA  PRO B  15      -9.271 -29.169 -12.098  1.00 30.79 LIG 0.18  C 
ATOM      5  CB  PRO B  15      -9.674 -28.065 -13.054  1.00 31.22 LIG 0.04  C 
ATOM      6  CG  PRO B  15     -10.910 -27.505 -12.424  1.00 29.82 LIG 0.02  C 
ATOM      7  CD  PRO B  15     -10.587 -27.474 -10.965  1.00 31.43 LIG 0.13  C 
ENDROOT
BRANCH 4 8
ATOM      8  C   PRO B  15      -7.768 -29.280 -12.059  1.00 33.68 LIG 0.24  C 
ATOM      9  N   ILE B  16      -7.252 -30.395 -12.540  1.00 35.41 LIG-0.35  N 
ATOM     10 H    ILE B  16      -7.716 -31.069 -12.809  1.00 35.41 LIG 0.16  HD
ATOM     11 O    PRO B  15      -7.094 -28.395 -11.554  1.00 34.05 LIG-0.27  OA
BRANCH 9 12
ATOM     12  CA  ILE B  16      -5.862 -30.558 -12.649  1.00 37.77 LIG 0.18  C 
BRANCH 12 13
ATOM     13  CB  ILE B  16      -5.478 -32.023 -12.781  1.00 42.27 LIG 0.01  C 
ATOM     14  CG2 ILE B  16      -5.261 -32.366 -14.227  1.00 44.80 LIG 0.01  C 
BRANCH 13 15
ATOM     15  CG1 ILE B  16      -4.226 -32.278 -11.925  1.00 47.53 LIG 0.00  C 
ATOM     16  CD1 ILE B  16      -3.189 -31.159 -11.915  1.00 51.74 LIG 0.01  C 
ENDBRANCH 13 15
ENDBRANCH 12 13
BRANCH 12 17
ATOM     17  C   ILE B  16      -5.460 -29.732 -13.829  1.00 42.33 LIG 0.24  C 
ATOM     18 O    ILE B  16      -4.385 -29.203 -13.879  1.00 39.29 LIG-0.27  OA
ATOM     19  N   TYR B  17      -6.347 -29.685 -14.805  1.00 46.96 LIG-0.35  N 
ATOM     20 H    TYR B  17      -7.153 -29.973 -14.720  1.00 46.96 LIG 0.16  HD
BRANCH 19 21
ATOM     21  CA  TYR B  17      -6.063 -29.149 -16.107  1.00 51.19 LIG 0.18  C 
BRANCH 21 22
ATOM     22  C   TYR B  17      -6.048 -27.663 -16.050  1.00 56.10 LIG 0.24  C 
ATOM     23  N   ASN B  18      -5.643 -27.016 -17.125  1.00 65.39 LIG-0.35  N 
ATOM     24 H    ASN B  18      -5.533 -27.383 -17.895  1.00 65.39 LIG 0.16  HD
ATOM     25 O    TYR B  17      -6.470 -27.099 -15.058  1.00 61.36 LIG-0.27  OA
BRANCH 23 26
ATOM     26  CA  ASN B  18      -5.342 -25.576 -17.083  1.00 70.74 LIG 0.17  C 
BRANCH 26 27
ATOM     27  CB  ASN B  18      -4.255 -25.320 -16.029  1.00 84.74 LIG 0.14  C 
BRANCH 27 28
ATOM     28  CG  ASN B  18      -4.794 -24.587 -14.794  1.00 96.34 LIG 0.22  C 
ATOM     29 OD1  ASN B  18      -5.954 -24.146 -14.768  1.00 99.44 LIG-0.27  OA
ATOM     30  ND2 ASN B  18      -3.947 -24.436 -13.768  1.00 94.73 LIG-0.37  N 
ATOM     31 21HD ASN B  18      -4.200 -24.021 -13.059  1.00 94.73 LIG 0.16  HD
ATOM     32 22HD ASN B  18      -3.149 -24.754 -13.818  1.00 94.73 LIG 0.16  HD
ENDBRANCH 27 28
ENDBRANCH 26 27
BRANCH 26 33
ATOM     33  C   ASN B  18      -5.026 -24.859 -18.418  1.00 72.97 LIG 0.22  C 
ATOM     34 O    ASN B  18      -4.957 -25.460 -19.500  1.00 74.17 LIG-0.29  OA
ENDBRANCH 26 33
ENDBRANCH 23 26
ENDBRANCH 21 22
BRANCH 21 35
ATOM     35  CB  TYR B  17      -7.197 -29.548 -17.037  1.00 54.83 LIG 0.07  C 
BRANCH 35 36
ATOM     36  CG  TYR B  17      -6.824 -30.712 -17.872  1.00 56.96 LIG-0.06  A 
ATOM     37  CD2 TYR B  17      -5.877 -31.633 -17.410  1.00 61.26 LIG 0.01  A 
ATOM     38  CE2 TYR B  17      -5.507 -32.716 -18.174  1.00 70.21 LIG 0.04  A 
ATOM     39  CZ  TYR B  17      -6.079 -32.871 -19.425  1.00 76.40 LIG 0.07  A 
ATOM     40  CE1 TYR B  17      -7.015 -31.964 -19.909  1.00 67.10 LIG 0.04  A 
ATOM     41  CD1 TYR B  17      -7.375 -30.884 -19.124  1.00 57.92 LIG 0.01  A 
BRANCH 39 42
ATOM     42 OH   TYR B  17      -5.707 -33.938 -20.188  1.00 89.25 LIG-0.36  OA
ATOM     43 HH   TYR B  17      -5.988 -34.646 -19.835  1.00 89.25 LIG 0.22  HD
ENDBRANCH 39 42
ENDBRANCH 35 36
ENDBRANCH 21 35
ENDBRANCH 19 21
ENDBRANCH 12 17
ENDBRANCH 9 12
ENDBRANCH 4 8
BRANCH 1 44
ATOM     44  CA  ARG B  14     -10.162 -28.895  -8.420  1.00 32.45 LIG 0.18  C 
BRANCH 44 45
ATOM     45  N   ARG B  14     -10.226 -30.061  -7.567  1.00 38.19 LIG-0.35  N 
ATOM     46 H    ARG B  14      -9.465 -30.442  -7.444  1.00 38.19 LIG 0.16  HD
ATOM     47  C   PRO B  13     -11.361 -30.505  -7.019  1.00 38.91 LIG 0.24  C 
ATOM     48 O    PRO B  13     -12.435 -29.960  -7.175  1.00 32.88 LIG-0.27  OA
BRANCH 47 49
ATOM     49  CA  PRO B  13     -11.242 -31.749  -6.116  1.00 38.31 LIG 0.18  C 
ATOM     50  N   PRO B  13     -12.510 -32.374  -5.807  1.00 38.88 LIG-0.34  N 
ATOM     51  CD  PRO B  13     -12.475 -33.821  -6.062  1.00 43.50 LIG 0.13  C 
ATOM     52  C   PRO B  12     -13.580 -31.724  -5.320  1.00 40.77 LIG 0.26  C 
ATOM     53  CG  PRO B  13     -11.023 -34.111  -6.236  1.00 43.53 LIG 0.02  C 
ATOM     54  CB  PRO B  13     -10.463 -32.862  -6.815  1.00 39.91 LIG 0.04  C 
ATOM     55 O    PRO B  12     -13.573 -30.520  -5.021  1.00 44.45 LIG-0.27  OA
BRANCH 52 56
ATOM     56  CA  PRO B  12     -14.846 -32.523  -5.138  1.00 38.46 LIG 0.35  C 
ATOM     57  CB  PRO B  12     -15.894 -32.026  -6.135  1.00 43.42 LIG 0.05  C 
ATOM     58  CG  PRO B  12     -17.162 -32.023  -5.386  1.00 41.12 LIG 0.04  C 
ATOM     59  CD  PRO B  12     -16.789 -31.685  -3.972  1.00 39.74 LIG 0.32  C 
ATOM     60  N   PRO B  12     -15.425 -32.206  -3.855  1.00 38.12 LIG 0.32  N 
ENDBRANCH 52 56
ENDBRANCH 47 49
ENDBRANCH 44 45
BRANCH 44 61
ATOM     61  CB  ARG B  14      -9.123 -27.932  -7.836  1.00 34.42 LIG 0.04  C 
BRANCH 61 62
ATOM     62  CG  ARG B  14      -9.398 -27.483  -6.401  1.00 32.66 LIG 0.02  C 
BRANCH 62 63
ATOM     63  CD  ARG B  14     -10.895 -27.381  -6.188  1.00 35.24 LIG 0.14  C 
BRANCH 63 64
ATOM     64  NE  ARG B  14     -11.576 -26.623  -7.252  1.00 42.22 LIG-0.23  N 
ATOM     65  CZ  ARG B  14     -11.751 -25.300  -7.285  1.00 44.72 LIG 0.67  C 
ATOM     66  NH2 ARG B  14     -11.324 -24.521  -6.309  1.00 43.48 LIG-0.23  N 
ATOM     67  NH1 ARG B  14     -12.379 -24.751  -8.308  1.00 46.51 LIG-0.23  N 
ATOM     68 1HH2 ARG B  14     -10.922 -24.863  -5.630  1.00 43.48 LIG 0.17  HD
ATOM     69 2HH2 ARG B  14     -11.448 -23.670  -6.353  1.00 43.48 LIG 0.17  HD
ATOM     70 2HH1 ARG B  14     -12.494 -23.899  -8.335  1.00 46.51 LIG 0.17  HD
ATOM     71 1HH1 ARG B  14     -12.672 -25.244  -8.948  1.00 46.51 LIG 0.17  HD
ATOM     72 HE   ARG B  14     -11.891 -27.075  -7.913  1.00 42.22 LIG 0.18  HD
ENDBRANCH 63 64
ENDBRANCH 62 63
ENDBRANCH 61 62
ENDBRANCH 44 61
ENDBRANCH 1 44
TORSDOF 22
ENDMDL
MODEL 84
USER: ADFR SOLUTION from run 100
USER: SCORE 22.319560 LL:  -5.292 LR: -18.505 RR:   0.000 FEB: -11.942
USER: RMSD 6.717535
USER: SEED 99
USER: STATUS no improvement in best in 6 clusters for 5 generations
USER: GENES 24
USER: genes 0 Translation |==|  0.43233 0.44028 0.68180
USER: genes 1 Rotation |==|  0.65101 0.70477 0.16806 0.77400
USER: genes 2 Torsion [N]-CA--C-[O] |==|  0.27596
USER: genes 3 Torsion [C]-N--CA-[CB] |==|  0.17826
USER: genes 4 Torsion [N]-CA--CB-[CG2] |==|  0.24057
USER: genes 5 Torsion [CA]-CB--CG1-[CD1] |==|  0.39818
USER: genes 6 Torsion [N]-CA--C-[N] |==|  0.43777
USER: genes 7 Torsion [C]-N--CA-[C] |==|  0.83033
USER: genes 8 Torsion [N]-CA--C-[N] |==|  0.37331
USER: genes 9 Torsion [C]-N--CA-[CB] |==|  0.57017
USER: genes 10 Torsion [N]-CA--CB-[CG] |==|  0.73490
USER: genes 11 Torsion [CA]-CB--CG-[ND2] |==|  0.97526
USER: genes 12 Torsion [N]-CA--C-[O] |==|  0.37296
USER: genes 13 Torsion [N]-CA--CB-[CG] |==|  0.65859
USER: genes 14 Torsion [CA]-CB--CG-[CD2] |==|  0.51500
USER: genes 15 Torsion [CE2]-CZ--OH-[HH] |==|  0.83955
USER: genes 16 Torsion [N]-C--CA-[N] |==|  0.24031
USER: genes 17 Torsion [C]-CA--N-[C] |==|  0.63431
USER: genes 18 Torsion [N]-C--CA-[N] |==|  0.87717
USER: genes 19 Torsion [N]-C--CA-[CB] |==|  0.62468
USER: genes 20 Torsion [C]-CA--CB-[CG] |==|  0.38052
USER: genes 21 Torsion [CA]-CB--CG-[CD] |==|  0.16206
USER: genes 22 Torsion [CB]-CG--CD-[NE] |==|  0.57116
USER: genes 23 Torsion [CG]-CD--NE-[CZ] |==|  0.33659
ROOT
ATOM      1  C   ARG B  14     -10.972 -29.766  -6.888  1.00 32.92 LIG 0.24  C 
ATOM      2 O    ARG B  14     -12.074 -30.073  -7.345  1.00 37.82 LIG-0.27  OA
ATOM      3  N   PRO B  15     -10.358 -28.614  -7.173  1.00 31.88 LIG-0.34  N 
ATOM      4  CA  PRO B  15     -11.014 -27.626  -8.035  1.00 30.79 LIG 0.18  C 
ATOM      5  CB  PRO B  15     -10.038 -26.467  -8.031  1.00 31.22 LIG 0.04  C 
ATOM      6  CG  PRO B  15      -9.381 -26.581  -6.692  1.00 29.82 LIG 0.02  C 
ATOM      7  CD  PRO B  15      -9.165 -28.050  -6.521  1.00 31.43 LIG 0.13  C 
ENDROOT
BRANCH 4 8
ATOM      8  C   PRO B  15     -11.144 -28.175  -9.433  1.00 33.68 LIG 0.24  C 
ATOM      9  N   ILE B  16     -10.087 -28.046 -10.212  1.00 35.41 LIG-0.35  N 
ATOM     10 H    ILE B  16      -9.371 -27.621  -9.992  1.00 35.41 LIG 0.16  HD
ATOM     11 O    PRO B  15     -12.200 -28.657  -9.813  1.00 34.05 LIG-0.27  OA
BRANCH 9 12
ATOM     12  CA  ILE B  16     -10.063 -28.615 -11.494  1.00 37.77 LIG 0.18  C 
BRANCH 12 13
ATOM     13  CB  ILE B  16     -11.110 -27.991 -12.403  1.00 42.27 LIG 0.01  C 
ATOM     14  CG2 ILE B  16     -10.550 -26.762 -13.060  1.00 44.80 LIG 0.01  C 
BRANCH 13 15
ATOM     15  CG1 ILE B  16     -11.558 -29.048 -13.428  1.00 47.53 LIG 0.00  C 
ATOM     16  CD1 ILE B  16     -13.035 -29.021 -13.808  1.00 51.74 LIG 0.01  C 
ENDBRANCH 13 15
ENDBRANCH 12 13
BRANCH 12 17
ATOM     17  C   ILE B  16      -8.664 -28.424 -11.985  1.00 42.33 LIG 0.24  C 
ATOM     18 O    ILE B  16      -7.943 -27.598 -11.499  1.00 39.29 LIG-0.27  OA
ATOM     19  N   TYR B  17      -8.287 -29.257 -12.936  1.00 46.96 LIG-0.35  N 
ATOM     20 H    TYR B  17      -8.836 -29.771 -13.354  1.00 46.96 LIG 0.16  HD
BRANCH 19 21
ATOM     21  CA  TYR B  17      -6.926 -29.395 -13.374  1.00 51.19 LIG 0.18  C 
BRANCH 21 22
ATOM     22  C   TYR B  17      -6.437 -28.101 -13.917  1.00 56.10 LIG 0.24  C 
ATOM     23  N   ASN B  18      -5.242 -27.693 -13.536  1.00 65.39 LIG-0.35  N 
ATOM     24 H    ASN B  18      -4.674 -28.187 -13.121  1.00 65.39 LIG 0.16  HD
ATOM     25 O    TYR B  17      -7.108 -27.505 -14.739  1.00 61.36 LIG-0.27  OA
BRANCH 23 26
ATOM     26  CA  ASN B  18      -4.782 -26.321 -13.803  1.00 70.74 LIG 0.17  C 
BRANCH 26 27
ATOM     27  CB  ASN B  18      -3.246 -26.305 -13.848  1.00 84.74 LIG 0.14  C 
BRANCH 27 28
ATOM     28  CG  ASN B  18      -2.622 -25.910 -12.503  1.00 96.34 LIG 0.22  C 
ATOM     29 OD1  ASN B  18      -1.402 -26.021 -12.308  1.00 99.44 LIG-0.27  OA
ATOM     30  ND2 ASN B  18      -3.462 -25.464 -11.560  1.00 94.73 LIG-0.37  N 
ATOM     31 21HD ASN B  18      -3.160 -25.242 -10.786  1.00 94.73 LIG 0.16  HD
ATOM     32 22HD ASN B  18      -4.303 -25.399 -11.728  1.00 94.73 LIG 0.16  HD
ENDBRANCH 27 28
ENDBRANCH 26 27
BRANCH 26 33
ATOM     33  C   ASN B  18      -5.397 -25.567 -15.007  1.00 72.97 LIG 0.22  C 
ATOM     34 O    ASN B  18      -5.790 -24.394 -14.933  1.00 74.17 LIG-0.29  OA
ENDBRANCH 26 33
ENDBRANCH 23 26
ENDBRANCH 21 22
BRANCH 21 35
ATOM     35  CB  TYR B  17      -6.899 -30.398 -14.516  1.00 54.83 LIG 0.07  C 
BRANCH 35 36
ATOM     36  CG  TYR B  17      -5.990 -31.528 -14.218  1.00 56.96 LIG-0.06  A 
ATOM     37  CD2 TYR B  17      -5.738 -32.501 -15.192  1.00 61.26 LIG 0.01  A 
ATOM     38  CE2 TYR B  17      -4.907 -33.567 -14.933  1.00 70.21 LIG 0.04  A 
ATOM     39  CZ  TYR B  17      -4.332 -33.669 -13.678  1.00 76.40 LIG 0.07  A 
ATOM     40  CE1 TYR B  17      -4.574 -32.720 -12.692  1.00 67.10 LIG 0.04  A 
ATOM     41  CD1 TYR B  17      -5.411 -31.656 -12.974  1.00 57.92 LIG 0.01  A 
BRANCH 39 42
ATOM     42 OH   TYR B  17      -3.514 -34.729 -13.416  1.00 89.25 LIG-0.36  OA
ATOM     43 HH   TYR B  17      -3.934 -35.445 -13.542  1.00 89.25 LIG 0.22  HD
ENDBRANCH 39 42
ENDBRANCH 35 36
ENDBRANCH 21 35
ENDBRANCH 19 21
ENDBRANCH 12 17
ENDBRANCH 9 12
ENDBRANCH 4 8
BRANCH 1 44
ATOM     44  CA  ARG B  14     -10.249 -30.740  -6.006  1.00 32.45 LIG 0.18  C 
BRANCH 44 45
ATOM     45  N   ARG B  14     -10.609 -30.309  -4.673  1.00 38.19 LIG-0.35  N 
ATOM     46 H    ARG B  14     -11.452 -30.177  -4.568  1.00 38.19 LIG 0.16  HD
ATOM     47  C   PRO B  13      -9.714 -30.132  -3.696  1.00 38.91 LIG 0.24  C 
ATOM     48 O    PRO B  13      -8.525 -30.334  -3.835  1.00 32.88 LIG-0.27  OA
BRANCH 47 49
ATOM     49  CA  PRO B  13     -10.275 -29.692  -2.329  1.00 38.31 LIG 0.18  C 
ATOM     50  N   PRO B  13     -11.273 -28.647  -2.411  1.00 38.88 LIG-0.34  N 
ATOM     51  CD  PRO B  13     -12.479 -28.990  -1.644  1.00 43.50 LIG 0.13  C 
ATOM     52  C   PRO B  12     -11.111 -27.493  -3.079  1.00 40.77 LIG 0.26  C 
ATOM     53  CG  PRO B  13     -12.049 -30.155  -0.819  1.00 43.53 LIG 0.02  C 
ATOM     54  CB  PRO B  13     -11.023 -30.838  -1.648  1.00 39.91 LIG 0.04  C 
ATOM     55 O    PRO B  12     -10.056 -27.171  -3.646  1.00 44.45 LIG-0.27  OA
BRANCH 52 56
ATOM     56  CA  PRO B  12     -12.291 -26.555  -3.127  1.00 38.46 LIG 0.35  C 
ATOM     57  CB  PRO B  12     -12.453 -26.034  -4.556  1.00 43.42 LIG 0.05  C 
ATOM     58  CG  PRO B  12     -12.802 -24.611  -4.406  1.00 41.12 LIG 0.04  C 
ATOM     59  CD  PRO B  12     -12.074 -24.149  -3.177  1.00 39.74 LIG 0.32  C 
ATOM     60  N   PRO B  12     -11.982 -25.367  -2.368  1.00 38.12 LIG 0.32  N 
ENDBRANCH 52 56
ENDBRANCH 47 49
ENDBRANCH 44 45
BRANCH 44 61
ATOM     61  CB  ARG B  14     -10.832 -32.139  -6.228  1.00 34.42 LIG 0.04  C 
BRANCH 61 62
ATOM     62  CG  ARG B  14      -9.796 -33.259  -6.328  1.00 32.66 LIG 0.02  C 
BRANCH 62 63
ATOM     63  CD  ARG B  14      -8.970 -33.289  -5.058  1.00 35.24 LIG 0.14  C 
BRANCH 63 64
ATOM     64  NE  ARG B  14      -7.630 -33.866  -5.259  1.00 42.22 LIG-0.23  N 
ATOM     65  CZ  ARG B  14      -6.467 -33.254  -5.022  1.00 44.72 LIG 0.67  C 
ATOM     66  NH2 ARG B  14      -6.416 -32.011  -4.583  1.00 43.48 LIG-0.23  N 
ATOM     67  NH1 ARG B  14      -5.335 -33.896  -5.244  1.00 46.51 LIG-0.23  N 
ATOM     68 1HH2 ARG B  14      -7.144 -31.574  -4.442  1.00 43.48 LIG 0.17  HD
ATOM     69 2HH2 ARG B  14      -5.655 -31.638  -4.437  1.00 43.48 LIG 0.17  HD
ATOM     70 2HH1 ARG B  14      -4.583 -33.507  -5.093  1.00 46.51 LIG 0.17  HD
ATOM     71 1HH1 ARG B  14      -5.349 -34.703  -5.539  1.00 46.51 LIG 0.17  HD
ATOM     72 HE   ARG B  14      -7.592 -34.672  -5.558  1.00 42.22 LIG 0.18  HD
ENDBRANCH 63 64
ENDBRANCH 62 63
ENDBRANCH 61 62
ENDBRANCH 44 61
ENDBRANCH 1 44
TORSDOF 22
ENDMDL
MODEL 85
USER: ADFR SOLUTION from run 167
USER: SCORE 22.162274 LL:  -4.895 LR: -18.491 RR:   0.000 FEB: -11.928
USER: RMSD 6.917465
USER: SEED 166
USER: STATUS no improvement in best in 13 clusters for 5 generations
USER: GENES 24
USER: genes 0 Translation |==|  0.46646 0.53323 0.67225
USER: genes 1 Rotation |==|  0.33054 0.70537 0.78856 0.80958
USER: genes 2 Torsion [N]-CA--C-[O] |==|  0.79698
USER: genes 3 Torsion [C]-N--CA-[CB] |==|  0.18224
USER: genes 4 Torsion [N]-CA--CB-[CG2] |==|  0.36242
USER: genes 5 Torsion [CA]-CB--CG1-[CD1] |==|  0.88881
USER: genes 6 Torsion [N]-CA--C-[N] |==|  0.34152
USER: genes 7 Torsion [C]-N--CA-[C] |==|  0.76684
USER: genes 8 Torsion [N]-CA--C-[N] |==|  0.35621
USER: genes 9 Torsion [C]-N--CA-[CB] |==|  0.33693
USER: genes 10 Torsion [N]-CA--CB-[CG] |==|  0.11943
USER: genes 11 Torsion [CA]-CB--CG-[ND2] |==|  0.54164
USER: genes 12 Torsion [N]-CA--C-[O] |==|  0.53316
USER: genes 13 Torsion [N]-CA--CB-[CG] |==|  0.63798
USER: genes 14 Torsion [CA]-CB--CG-[CD2] |==|  0.56134
USER: genes 15 Torsion [CE2]-CZ--OH-[HH] |==|  0.73613
USER: genes 16 Torsion [N]-C--CA-[N] |==|  0.39244
USER: genes 17 Torsion [C]-CA--N-[C] |==|  0.82252
USER: genes 18 Torsion [N]-C--CA-[N] |==|  0.29562
USER: genes 19 Torsion [N]-C--CA-[CB] |==|  0.54437
USER: genes 20 Torsion [C]-CA--CB-[CG] |==|  0.45948
USER: genes 21 Torsion [CA]-CB--CG-[CD] |==|  0.00980
USER: genes 22 Torsion [CB]-CG--CD-[NE] |==|  0.51809
USER: genes 23 Torsion [CG]-CD--NE-[CZ] |==|  0.68460
ROOT
ATOM      1  C   ARG B  14     -10.204 -28.023  -7.153  1.00 32.92 LIG 0.24  C 
ATOM      2 O    ARG B  14      -9.256 -27.788  -7.904  1.00 37.82 LIG-0.27  OA
ATOM      3  N   PRO B  15     -10.914 -29.153  -7.205  1.00 31.88 LIG-0.34  N 
ATOM      4  CA  PRO B  15     -10.554 -30.204  -8.160  1.00 30.79 LIG 0.18  C 
ATOM      5  CB  PRO B  15     -11.536 -31.312  -7.837  1.00 31.22 LIG 0.04  C 
ATOM      6  CG  PRO B  15     -11.801 -31.115  -6.378  1.00 29.82 LIG 0.02  C 
ATOM      7  CD  PRO B  15     -11.907 -29.632  -6.228  1.00 31.43 LIG 0.13  C 
ENDROOT
BRANCH 4 8
ATOM      8  C   PRO B  15     -10.787 -29.716  -9.568  1.00 33.68 LIG 0.24  C 
ATOM      9  N   ILE B  16      -9.713 -29.376 -10.254  1.00 35.41 LIG-0.35  N 
ATOM     10 H    ILE B  16      -8.916 -29.358  -9.930  1.00 35.41 LIG 0.16  HD
ATOM     11 O    PRO B  15     -11.923 -29.600 -10.002  1.00 34.05 LIG-0.27  OA
BRANCH 9 12
ATOM     12  CA  ILE B  16      -9.808 -29.010 -11.606  1.00 37.77 LIG 0.18  C 
BRANCH 12 13
ATOM     13  CB  ILE B  16     -10.591 -27.719 -11.782  1.00 42.27 LIG 0.01  C 
ATOM     14  CG2 ILE B  16      -9.824 -26.772 -12.660  1.00 44.80 LIG 0.01  C 
BRANCH 13 15
ATOM     15  CG1 ILE B  16     -11.974 -28.064 -12.363  1.00 47.53 LIG 0.00  C 
ATOM     16  CD1 ILE B  16     -11.993 -29.149 -13.435  1.00 51.74 LIG 0.01  C 
ENDBRANCH 13 15
ENDBRANCH 12 13
BRANCH 12 17
ATOM     17  C   ILE B  16      -8.396 -28.916 -12.088  1.00 42.33 LIG 0.24  C 
ATOM     18 O    ILE B  16      -7.593 -28.222 -11.529  1.00 39.29 LIG-0.27  OA
ATOM     19  N   TYR B  17      -8.107 -29.685 -13.121  1.00 46.96 LIG-0.35  N 
ATOM     20 H    TYR B  17      -8.706 -30.095 -13.582  1.00 46.96 LIG 0.16  HD
BRANCH 19 21
ATOM     21  CA  TYR B  17      -6.767 -29.919 -13.583  1.00 51.19 LIG 0.18  C 
BRANCH 21 22
ATOM     22  C   TYR B  17      -6.344 -28.815 -14.485  1.00 56.10 LIG 0.24  C 
ATOM     23  N   ASN B  18      -5.198 -28.219 -14.222  1.00 65.39 LIG-0.35  N 
ATOM     24 H    ASN B  18      -4.616 -28.518 -13.665  1.00 65.39 LIG 0.16  HD
ATOM     25 O    TYR B  17      -7.019 -28.549 -15.462  1.00 61.36 LIG-0.27  OA
BRANCH 23 26
ATOM     26  CA  ASN B  18      -4.821 -26.959 -14.885  1.00 70.74 LIG 0.17  C 
BRANCH 26 27
ATOM     27  CB  ASN B  18      -4.585 -25.880 -13.817  1.00 84.74 LIG 0.14  C 
BRANCH 27 28
ATOM     28  CG  ASN B  18      -3.789 -26.406 -12.615  1.00 96.34 LIG 0.22  C 
ATOM     29 OD1  ASN B  18      -3.186 -27.488 -12.672  1.00 99.44 LIG-0.27  OA
ATOM     30  ND2 ASN B  18      -3.800 -25.648 -11.511  1.00 94.73 LIG-0.37  N 
ATOM     31 21HD ASN B  18      -3.378 -25.906 -10.808  1.00 94.73 LIG 0.16  HD
ATOM     32 22HD ASN B  18      -4.228 -24.902 -11.505  1.00 94.73 LIG 0.16  HD
ENDBRANCH 27 28
ENDBRANCH 26 27
BRANCH 26 33
ATOM     33  C   ASN B  18      -3.674 -26.998 -15.923  1.00 72.97 LIG 0.22  C 
ATOM     34 O    ASN B  18      -3.142 -25.971 -16.371  1.00 74.17 LIG-0.29  OA
ENDBRANCH 26 33
ENDBRANCH 23 26
ENDBRANCH 21 22
BRANCH 21 35
ATOM     35  CB  TYR B  17      -6.771 -31.193 -14.410  1.00 54.83 LIG 0.07  C 
BRANCH 35 36
ATOM     36  CG  TYR B  17      -5.695 -32.116 -13.982  1.00 56.96 LIG-0.06  A 
ATOM     37  CD2 TYR B  17      -5.221 -33.098 -14.860  1.00 61.26 LIG 0.01  A 
ATOM     38  CE2 TYR B  17      -4.231 -33.974 -14.478  1.00 70.21 LIG 0.04  A 
ATOM     39  CZ  TYR B  17      -3.718 -33.877 -13.196  1.00 76.40 LIG 0.07  A 
ATOM     40  CE1 TYR B  17      -4.179 -32.916 -12.304  1.00 67.10 LIG 0.04  A 
ATOM     41  CD1 TYR B  17      -5.173 -32.044 -12.708  1.00 57.92 LIG 0.01  A 
BRANCH 39 42
ATOM     42 OH   TYR B  17      -2.743 -34.750 -12.813  1.00 89.25 LIG-0.36  OA
ATOM     43 HH   TYR B  17      -3.091 -35.402 -12.414  1.00 89.25 LIG 0.22  HD
ENDBRANCH 39 42
ENDBRANCH 35 36
ENDBRANCH 21 35
ENDBRANCH 19 21
ENDBRANCH 12 17
ENDBRANCH 9 12
ENDBRANCH 4 8
BRANCH 1 44
ATOM     44  CA  ARG B  14     -10.623 -26.981  -6.159  1.00 32.45 LIG 0.18  C 
BRANCH 44 45
ATOM     45  N   ARG B  14      -9.365 -26.464  -5.671  1.00 38.19 LIG-0.35  N 
ATOM     46 H    ARG B  14      -9.236 -25.634  -5.857  1.00 38.19 LIG 0.16  HD
ATOM     47  C   PRO B  13      -8.483 -27.205  -4.993  1.00 38.91 LIG 0.24  C 
ATOM     48 O    PRO B  13      -8.668 -28.372  -4.713  1.00 32.88 LIG-0.27  OA
BRANCH 47 49
ATOM     49  CA  PRO B  13      -7.201 -26.485  -4.527  1.00 38.31 LIG 0.18  C 
ATOM     50  N   PRO B  13      -7.163 -26.214  -3.106  1.00 38.88 LIG-0.34  N 
ATOM     51  CD  PRO B  13      -5.900 -26.666  -2.504  1.00 43.50 LIG 0.13  C 
ATOM     52  C   PRO B  12      -8.143 -25.601  -2.422  1.00 40.77 LIG 0.26  C 
ATOM     53  CG  PRO B  13      -5.027 -26.935  -3.683  1.00 43.53 LIG 0.02  C 
ATOM     54  CB  PRO B  13      -5.968 -27.360  -4.751  1.00 39.91 LIG 0.04  C 
ATOM     55 O    PRO B  12      -9.165 -25.140  -2.953  1.00 44.45 LIG-0.27  OA
BRANCH 52 56
ATOM     56  CA  PRO B  12      -7.967 -25.479  -0.930  1.00 38.46 LIG 0.35  C 
ATOM     57  CB  PRO B  12      -9.317 -25.132  -0.298  1.00 43.42 LIG 0.05  C 
ATOM     58  CG  PRO B  12      -9.005 -24.145   0.750  1.00 41.12 LIG 0.04  C 
ATOM     59  CD  PRO B  12      -7.840 -23.360   0.224  1.00 39.74 LIG 0.32  C 
ATOM     60  N   PRO B  12      -7.153 -24.322  -0.642  1.00 38.12 LIG 0.32  N 
ENDBRANCH 52 56
ENDBRANCH 47 49
ENDBRANCH 44 45
BRANCH 44 61
ATOM     61  CB  ARG B  14     -11.349 -25.852  -6.898  1.00 34.42 LIG 0.04  C 
BRANCH 61 62
ATOM     62  CG  ARG B  14     -12.136 -24.899  -6.000  1.00 32.66 LIG 0.02  C 
BRANCH 62 63
ATOM     63  CD  ARG B  14     -11.918 -25.282  -4.550  1.00 35.24 LIG 0.14  C 
BRANCH 63 64
ATOM     64  NE  ARG B  14     -12.760 -24.511  -3.619  1.00 42.22 LIG-0.23  N 
ATOM     65  CZ  ARG B  14     -12.328 -23.628  -2.716  1.00 44.72 LIG 0.67  C 
ATOM     66  NH2 ARG B  14     -11.043 -23.372  -2.558  1.00 43.48 LIG-0.23  N 
ATOM     67  NH1 ARG B  14     -13.199 -23.002  -1.947  1.00 46.51 LIG-0.23  N 
ATOM     68 1HH2 ARG B  14     -10.461 -23.778  -3.044  1.00 43.48 LIG 0.17  HD
ATOM     69 2HH2 ARG B  14     -10.788 -22.798  -1.970  1.00 43.48 LIG 0.17  HD
ATOM     70 2HH1 ARG B  14     -12.926 -22.433  -1.363  1.00 46.51 LIG 0.17  HD
ATOM     71 1HH1 ARG B  14     -14.039 -23.164  -2.029  1.00 46.51 LIG 0.17  HD
ATOM     72 HE   ARG B  14     -13.610 -24.642  -3.662  1.00 42.22 LIG 0.18  HD
ENDBRANCH 63 64
ENDBRANCH 62 63
ENDBRANCH 61 62
ENDBRANCH 44 61
ENDBRANCH 1 44
TORSDOF 22
ENDMDL
MODEL 86
USER: ADFR SOLUTION from run 120
USER: SCORE 21.998154 LL:  -4.855 LR: -18.493 RR:   0.000 FEB: -11.931
USER: RMSD 3.310064
USER: SEED 119
USER: STATUS no improvement in best in 16 clusters for 5 generations
USER: GENES 24
USER: genes 0 Translation |==|  0.45281 0.46056 0.56666
USER: genes 1 Rotation |==|  0.59889 0.51951 0.44818 0.98699
USER: genes 2 Torsion [N]-CA--C-[O] |==|  0.76930
USER: genes 3 Torsion [C]-N--CA-[CB] |==|  0.47510
USER: genes 4 Torsion [N]-CA--CB-[CG2] |==|  0.31740
USER: genes 5 Torsion [CA]-CB--CG1-[CD1] |==|  0.86823
USER: genes 6 Torsion [N]-CA--C-[N] |==|  0.36283
USER: genes 7 Torsion [C]-N--CA-[C] |==|  0.81426
USER: genes 8 Torsion [N]-CA--C-[N] |==|  0.33378
USER: genes 9 Torsion [C]-N--CA-[CB] |==|  0.80188
USER: genes 10 Torsion [N]-CA--CB-[CG] |==|  0.70558
USER: genes 11 Torsion [CA]-CB--CG-[ND2] |==|  0.09176
USER: genes 12 Torsion [N]-CA--C-[O] |==|  0.95627
USER: genes 13 Torsion [N]-CA--CB-[CG] |==|  0.55365
USER: genes 14 Torsion [CA]-CB--CG-[CD2] |==|  0.48049
USER: genes 15 Torsion [CE2]-CZ--OH-[HH] |==|  0.31726
USER: genes 16 Torsion [N]-C--CA-[N] |==|  0.39777
USER: genes 17 Torsion [C]-CA--N-[C] |==|  0.59491
USER: genes 18 Torsion [N]-C--CA-[N] |==|  0.20466
USER: genes 19 Torsion [N]-C--CA-[CB] |==|  0.74988
USER: genes 20 Torsion [C]-CA--CB-[CG] |==|  0.39922
USER: genes 21 Torsion [CA]-CB--CG-[CD] |==|  0.01627
USER: genes 22 Torsion [CB]-CG--CD-[NE] |==|  0.79252
USER: genes 23 Torsion [CG]-CD--NE-[CZ] |==|  0.76792
ROOT
ATOM      1  C   ARG B  14     -10.511 -29.385 -10.083  1.00 32.92 LIG 0.24  C 
ATOM      2 O    ARG B  14      -9.963 -30.391 -10.539  1.00 37.82 LIG-0.27  OA
ATOM      3  N   PRO B  15     -10.856 -28.337 -10.836  1.00 31.88 LIG-0.34  N 
ATOM      4  CA  PRO B  15     -10.624 -28.363 -12.283  1.00 30.79 LIG 0.18  C 
ATOM      5  CB  PRO B  15     -11.220 -27.050 -12.749  1.00 31.22 LIG 0.04  C 
ATOM      6  CG  PRO B  15     -12.309 -26.800 -11.755  1.00 29.82 LIG 0.02  C 
ATOM      7  CD  PRO B  15     -11.703 -27.196 -10.448  1.00 31.43 LIG 0.13  C 
ENDROOT
BRANCH 4 8
ATOM      8  C   PRO B  15      -9.143 -28.375 -12.562  1.00 33.68 LIG 0.24  C 
ATOM      9  N   ILE B  16      -8.590 -29.560 -12.733  1.00 35.41 LIG-0.35  N 
ATOM     10 H    ILE B  16      -9.004 -30.308 -12.633  1.00 35.41 LIG 0.16  HD
ATOM     11 O    PRO B  15      -8.506 -27.332 -12.570  1.00 34.05 LIG-0.27  OA
BRANCH 9 12
ATOM     12  CA  ILE B  16      -7.241 -29.680 -13.102  1.00 37.77 LIG 0.18  C 
BRANCH 12 13
ATOM     13  CB  ILE B  16      -6.766 -31.122 -13.027  1.00 42.27 LIG 0.01  C 
ATOM     14  CG2 ILE B  16      -6.429 -31.621 -14.403  1.00 44.80 LIG 0.01  C 
BRANCH 13 15
ATOM     15  CG1 ILE B  16      -5.562 -31.190 -12.070  1.00 47.53 LIG 0.00  C 
ATOM     16  CD1 ILE B  16      -4.480 -30.138 -12.288  1.00 51.74 LIG 0.01  C 
ENDBRANCH 13 15
ENDBRANCH 12 13
BRANCH 12 17
ATOM     17  C   ILE B  16      -7.156 -29.099 -14.477  1.00 42.33 LIG 0.24  C 
ATOM     18 O    ILE B  16      -7.949 -29.396 -15.326  1.00 39.29 LIG-0.27  OA
ATOM     19  N   TYR B  17      -6.191 -28.216 -14.651  1.00 46.96 LIG-0.35  N 
ATOM     20 H    TYR B  17      -5.563 -28.089 -14.077  1.00 46.96 LIG 0.16  HD
BRANCH 19 21
ATOM     21  CA  TYR B  17      -6.086 -27.378 -15.812  1.00 51.19 LIG 0.18  C 
BRANCH 21 22
ATOM     22  C   TYR B  17      -5.789 -28.207 -17.009  1.00 56.10 LIG 0.24  C 
ATOM     23  N   ASN B  18      -6.654 -28.174 -18.004  1.00 65.39 LIG-0.35  N 
ATOM     24 H    ASN B  18      -7.291 -27.600 -18.069  1.00 65.39 LIG 0.16  HD
ATOM     25 O    TYR B  17      -4.740 -28.822 -17.066  1.00 61.36 LIG-0.27  OA
BRANCH 23 26
ATOM     26  CA  ASN B  18      -6.590 -29.147 -19.107  1.00 70.74 LIG 0.17  C 
BRANCH 26 27
ATOM     27  CB  ASN B  18      -5.366 -28.835 -19.981  1.00 84.74 LIG 0.14  C 
BRANCH 27 28
ATOM     28  CG  ASN B  18      -5.749 -28.191 -21.321  1.00 96.34 LIG 0.22  C 
ATOM     29 OD1  ASN B  18      -5.075 -28.395 -22.342  1.00 99.44 LIG-0.27  OA
ATOM     30  ND2 ASN B  18      -6.824 -27.394 -21.318  1.00 94.73 LIG-0.37  N 
ATOM     31 21HD ASN B  18      -7.070 -27.001 -22.042  1.00 94.73 LIG 0.16  HD
ATOM     32 22HD ASN B  18      -7.269 -27.274 -20.591  1.00 94.73 LIG 0.16  HD
ENDBRANCH 27 28
ENDBRANCH 26 27
BRANCH 26 33
ATOM     33  C   ASN B  18      -6.674 -30.652 -18.756  1.00 72.97 LIG 0.22  C 
ATOM     34 O    ASN B  18      -6.508 -31.081 -17.605  1.00 74.17 LIG-0.29  OA
ENDBRANCH 26 33
ENDBRANCH 23 26
ENDBRANCH 21 22
BRANCH 21 35
ATOM     35  CB  TYR B  17      -4.903 -26.444 -15.612  1.00 54.83 LIG 0.07  C 
BRANCH 35 36
ATOM     36  CG  TYR B  17      -4.989 -25.268 -16.507  1.00 56.96 LIG-0.06  A 
ATOM     37  CD2 TYR B  17      -4.074 -24.216 -16.375  1.00 61.26 LIG 0.01  A 
ATOM     38  CE2 TYR B  17      -4.143 -23.108 -17.187  1.00 70.21 LIG 0.04  A 
ATOM     39  CZ  TYR B  17      -5.150 -23.043 -18.135  1.00 76.40 LIG 0.07  A 
ATOM     40  CE1 TYR B  17      -6.075 -24.070 -18.280  1.00 67.10 LIG 0.04  A 
ATOM     41  CD1 TYR B  17      -5.987 -25.176 -17.454  1.00 57.92 LIG 0.01  A 
BRANCH 39 42
ATOM     42 OH   TYR B  17      -5.225 -21.942 -18.937  1.00 89.25 LIG-0.36  OA
ATOM     43 HH   TYR B  17      -5.068 -22.162 -19.732  1.00 89.25 LIG 0.22  HD
ENDBRANCH 39 42
ENDBRANCH 35 36
ENDBRANCH 21 35
ENDBRANCH 19 21
ENDBRANCH 12 17
ENDBRANCH 9 12
ENDBRANCH 4 8
BRANCH 1 44
ATOM     44  CA  ARG B  14     -10.767 -29.298  -8.608  1.00 32.45 LIG 0.18  C 
BRANCH 44 45
ATOM     45  N   ARG B  14     -11.160 -30.645  -8.260  1.00 38.19 LIG-0.35  N 
ATOM     46 H    ARG B  14     -10.759 -31.252  -8.719  1.00 38.19 LIG 0.16  HD
ATOM     47  C   PRO B  13     -12.063 -30.922  -7.315  1.00 38.91 LIG 0.24  C 
ATOM     48 O    PRO B  13     -12.619 -30.070  -6.653  1.00 32.88 LIG-0.27  OA
BRANCH 47 49
ATOM     49  CA  PRO B  13     -12.345 -32.416  -7.057  1.00 38.31 LIG 0.18  C 
ATOM     50  N   PRO B  13     -11.285 -33.102  -6.349  1.00 38.88 LIG-0.34  N 
ATOM     51  CD  PRO B  13     -11.805 -33.859  -5.201  1.00 43.50 LIG 0.13  C 
ATOM     52  C   PRO B  12      -9.991 -33.076  -6.708  1.00 40.77 LIG 0.26  C 
ATOM     53  CG  PRO B  13     -13.278 -33.870  -5.427  1.00 43.53 LIG 0.02  C 
ATOM     54  CB  PRO B  13     -13.554 -32.595  -6.139  1.00 39.91 LIG 0.04  C 
ATOM     55 O    PRO B  12      -9.574 -32.511  -7.730  1.00 44.45 LIG-0.27  OA
BRANCH 52 56
ATOM     56  CA  PRO B  12      -9.013 -33.780  -5.802  1.00 38.46 LIG 0.35  C 
ATOM     57  CB  PRO B  12      -8.506 -32.789  -4.753  1.00 43.42 LIG 0.05  C 
ATOM     58  CG  PRO B  12      -7.069 -33.083  -4.613  1.00 41.12 LIG 0.04  C 
ATOM     59  CD  PRO B  12      -6.617 -33.520  -5.976  1.00 39.74 LIG 0.32  C 
ATOM     60  N   PRO B  12      -7.826 -34.112  -6.553  1.00 38.12 LIG 0.32  N 
ENDBRANCH 52 56
ENDBRANCH 47 49
ENDBRANCH 44 45
BRANCH 44 61
ATOM     61  CB  ARG B  14      -9.449 -28.986  -7.892  1.00 34.42 LIG 0.04  C 
BRANCH 61 62
ATOM     62  CG  ARG B  14      -9.578 -28.061  -6.682  1.00 32.66 LIG 0.02  C 
BRANCH 62 63
ATOM     63  CD  ARG B  14     -11.045 -27.795  -6.411  1.00 35.24 LIG 0.14  C 
BRANCH 63 64
ATOM     64  NE  ARG B  14     -11.647 -26.861  -7.378  1.00 42.22 LIG-0.23  N 
ATOM     65  CZ  ARG B  14     -11.596 -25.528  -7.319  1.00 44.72 LIG 0.67  C 
ATOM     66  NH2 ARG B  14     -10.987 -24.902  -6.330  1.00 43.48 LIG-0.23  N 
ATOM     67  NH1 ARG B  14     -12.179 -24.811  -8.261  1.00 46.51 LIG-0.23  N 
ATOM     68 1HH2 ARG B  14     -10.610 -25.353  -5.702  1.00 43.48 LIG 0.17  HD
ATOM     69 2HH2 ARG B  14     -10.966 -24.042  -6.314  1.00 43.48 LIG 0.17  HD
ATOM     70 2HH1 ARG B  14     -12.149 -23.952  -8.228  1.00 46.51 LIG 0.17  HD
ATOM     71 1HH1 ARG B  14     -12.589 -25.202  -8.908  1.00 46.51 LIG 0.17  HD
ATOM     72 HE   ARG B  14     -12.072 -27.206  -8.042  1.00 42.22 LIG 0.18  HD
ENDBRANCH 63 64
ENDBRANCH 62 63
ENDBRANCH 61 62
ENDBRANCH 44 61
ENDBRANCH 1 44
TORSDOF 22
ENDMDL
MODEL 87
USER: ADFR SOLUTION from run 48
USER: SCORE 22.796035 LL:  -5.685 LR: -18.482 RR:   0.000 FEB: -11.919
USER: RMSD 4.840916
USER: SEED 47
USER: STATUS no improvement in best in 9 clusters for 5 generations
USER: GENES 24
USER: genes 0 Translation |==|  0.48858 0.49272 0.61505
USER: genes 1 Rotation |==|  0.21305 0.58548 0.81598 0.74599
USER: genes 2 Torsion [N]-CA--C-[O] |==|  0.50178
USER: genes 3 Torsion [C]-N--CA-[CB] |==|  0.50581
USER: genes 4 Torsion [N]-CA--CB-[CG2] |==|  0.82553
USER: genes 5 Torsion [CA]-CB--CG1-[CD1] |==|  0.62646
USER: genes 6 Torsion [N]-CA--C-[N] |==|  0.34724
USER: genes 7 Torsion [C]-N--CA-[C] |==|  0.80555
USER: genes 8 Torsion [N]-CA--C-[N] |==|  0.46340
USER: genes 9 Torsion [C]-N--CA-[CB] |==|  0.46606
USER: genes 10 Torsion [N]-CA--CB-[CG] |==|  0.87347
USER: genes 11 Torsion [CA]-CB--CG-[ND2] |==|  0.87904
USER: genes 12 Torsion [N]-CA--C-[O] |==|  0.21795
USER: genes 13 Torsion [N]-CA--CB-[CG] |==|  0.21080
USER: genes 14 Torsion [CA]-CB--CG-[CD2] |==|  0.29485
USER: genes 15 Torsion [CE2]-CZ--OH-[HH] |==|  0.55588
USER: genes 16 Torsion [N]-C--CA-[N] |==|  0.20714
USER: genes 17 Torsion [C]-CA--N-[C] |==|  0.67427
USER: genes 18 Torsion [N]-C--CA-[N] |==|  0.76037
USER: genes 19 Torsion [N]-C--CA-[CB] |==|  0.79687
USER: genes 20 Torsion [C]-CA--CB-[CG] |==|  0.70240
USER: genes 21 Torsion [CA]-CB--CG-[CD] |==|  0.75986
USER: genes 22 Torsion [CB]-CG--CD-[NE] |==|  0.55449
USER: genes 23 Torsion [CG]-CD--NE-[CZ] |==|  0.59578
ROOT
ATOM      1  C   ARG B  14      -9.706 -28.783  -8.740  1.00 32.92 LIG 0.24  C 
ATOM      2 O    ARG B  14      -8.809 -28.018  -9.100  1.00 37.82 LIG-0.27  OA
ATOM      3  N   PRO B  15      -9.626 -30.111  -8.863  1.00 31.88 LIG-0.34  N 
ATOM      4  CA  PRO B  15      -8.414 -30.726  -9.411  1.00 30.79 LIG 0.18  C 
ATOM      5  CB  PRO B  15      -8.704 -32.209  -9.300  1.00 31.22 LIG 0.04  C 
ATOM      6  CG  PRO B  15      -9.608 -32.291  -8.112  1.00 29.82 LIG 0.02  C 
ATOM      7  CD  PRO B  15     -10.522 -31.120  -8.274  1.00 31.43 LIG 0.13  C 
ENDROOT
BRANCH 4 8
ATOM      8  C   PRO B  15      -8.260 -30.347 -10.862  1.00 33.68 LIG 0.24  C 
ATOM      9  N   ILE B  16      -9.219 -29.602 -11.376  1.00 35.41 LIG-0.35  N 
ATOM     10 H    ILE B  16      -9.939 -29.381 -10.959  1.00 35.41 LIG 0.16  HD
ATOM     11 O    PRO B  15      -7.316 -30.766 -11.514  1.00 34.05 LIG-0.27  OA
BRANCH 9 12
ATOM     12  CA  ILE B  16      -9.122 -29.105 -12.685  1.00 37.77 LIG 0.18  C 
BRANCH 12 13
ATOM     13  CB  ILE B  16     -10.316 -28.234 -13.043  1.00 42.27 LIG 0.01  C 
ATOM     14  CG2 ILE B  16     -11.575 -29.052 -13.005  1.00 44.80 LIG 0.01  C 
BRANCH 13 15
ATOM     15  CG1 ILE B  16     -10.362 -27.045 -12.067  1.00 47.53 LIG 0.00  C 
ATOM     16  CD1 ILE B  16     -11.731 -26.721 -11.479  1.00 51.74 LIG 0.01  C 
ENDBRANCH 13 15
ENDBRANCH 12 13
BRANCH 12 17
ATOM     17  C   ILE B  16      -7.820 -28.372 -12.733  1.00 42.33 LIG 0.24  C 
ATOM     18 O    ILE B  16      -7.551 -27.531 -11.921  1.00 39.29 LIG-0.27  OA
ATOM     19  N   TYR B  17      -6.996 -28.761 -13.687  1.00 46.96 LIG-0.35  N 
ATOM     20 H    TYR B  17      -7.233 -29.284 -14.327  1.00 46.96 LIG 0.16  HD
BRANCH 19 21
ATOM     21  CA  TYR B  17      -5.620 -28.356 -13.758  1.00 51.19 LIG 0.18  C 
BRANCH 21 22
ATOM     22  C   TYR B  17      -5.536 -26.913 -14.107  1.00 56.10 LIG 0.24  C 
ATOM     23  N   ASN B  18      -4.370 -26.316 -13.954  1.00 65.39 LIG-0.35  N 
ATOM     24 H    ASN B  18      -3.631 -26.731 -13.812  1.00 65.39 LIG 0.16  HD
ATOM     25 O    TYR B  17      -6.507 -26.355 -14.583  1.00 61.36 LIG-0.27  OA
BRANCH 23 26
ATOM     26  CA  ASN B  18      -4.247 -24.850 -14.017  1.00 70.74 LIG 0.17  C 
BRANCH 26 27
ATOM     27  CB  ASN B  18      -2.858 -24.440 -13.506  1.00 84.74 LIG 0.14  C 
BRANCH 27 28
ATOM     28  CG  ASN B  18      -2.469 -25.165 -12.211  1.00 96.34 LIG 0.22  C 
ATOM     29 OD1  ASN B  18      -1.335 -25.645 -12.065  1.00 99.44 LIG-0.27  OA
ATOM     30  ND2 ASN B  18      -3.417 -25.263 -11.271  1.00 94.73 LIG-0.37  N 
ATOM     31 21HD ASN B  18      -3.250 -25.671 -10.533  1.00 94.73 LIG 0.16  HD
ATOM     32 22HD ASN B  18      -4.194 -24.918 -11.405  1.00 94.73 LIG 0.16  HD
ENDBRANCH 27 28
ENDBRANCH 26 27
BRANCH 26 33
ATOM     33  C   ASN B  18      -4.598 -24.147 -15.351  1.00 72.97 LIG 0.22  C 
ATOM     34 O    ASN B  18      -5.766 -23.933 -15.708  1.00 74.17 LIG-0.29  OA
ENDBRANCH 26 33
ENDBRANCH 23 26
ENDBRANCH 21 22
BRANCH 21 35
ATOM     35  CB  TYR B  17      -4.960 -29.127 -14.888  1.00 54.83 LIG 0.07  C 
BRANCH 35 36
ATOM     36  CG  TYR B  17      -5.348 -28.583 -16.210  1.00 56.96 LIG-0.06  A 
ATOM     37  CD2 TYR B  17      -4.434 -27.829 -16.955  1.00 61.26 LIG 0.01  A 
ATOM     38  CE2 TYR B  17      -4.777 -27.303 -18.179  1.00 70.21 LIG 0.04  A 
ATOM     39  CZ  TYR B  17      -6.057 -27.522 -18.658  1.00 76.40 LIG 0.07  A 
ATOM     40  CE1 TYR B  17      -6.985 -28.260 -17.933  1.00 67.10 LIG 0.04  A 
ATOM     41  CD1 TYR B  17      -6.619 -28.781 -16.705  1.00 57.92 LIG 0.01  A 
BRANCH 39 42
ATOM     42 OH   TYR B  17      -6.403 -26.995 -19.868  1.00 89.25 LIG-0.36  OA
ATOM     43 HH   TYR B  17      -7.239 -26.950 -19.926  1.00 89.25 LIG 0.22  HD
ENDBRANCH 39 42
ENDBRANCH 35 36
ENDBRANCH 21 35
ENDBRANCH 19 21
ENDBRANCH 12 17
ENDBRANCH 9 12
ENDBRANCH 4 8
BRANCH 1 44
ATOM     44  CA  ARG B  14     -10.973 -28.210  -8.179  1.00 32.45 LIG 0.18  C 
BRANCH 44 45
ATOM     45  N   ARG B  14     -10.877 -28.514  -6.769  1.00 38.19 LIG-0.35  N 
ATOM     46 H    ARG B  14     -10.211 -28.135  -6.378  1.00 38.19 LIG 0.16  HD
ATOM     47  C   PRO B  13     -11.742 -29.308  -6.132  1.00 38.91 LIG 0.24  C 
ATOM     48 O    PRO B  13     -12.694 -29.831  -6.676  1.00 32.88 LIG-0.27  OA
BRANCH 47 49
ATOM     49  CA  PRO B  13     -11.504 -29.505  -4.621  1.00 38.31 LIG 0.18  C 
ATOM     50  N   PRO B  13     -10.576 -30.570  -4.306  1.00 38.88 LIG-0.34  N 
ATOM     51  CD  PRO B  13      -9.536 -30.120  -3.370  1.00 43.50 LIG 0.13  C 
ATOM     52  C   PRO B  12     -10.667 -31.822  -4.783  1.00 40.77 LIG 0.26  C 
ATOM     53  CG  PRO B  13     -10.055 -28.816  -2.870  1.00 43.53 LIG 0.02  C 
ATOM     54  CB  PRO B  13     -10.844 -28.271  -4.005  1.00 39.91 LIG 0.04  C 
ATOM     55 O    PRO B  12     -11.599 -32.218  -5.499  1.00 44.45 LIG-0.27  OA
BRANCH 52 56
ATOM     56  CA  PRO B  12      -9.561 -32.780  -4.415  1.00 38.46 LIG 0.35  C 
ATOM     57  CB  PRO B  12      -8.303 -32.411  -5.202  1.00 43.42 LIG 0.05  C 
ATOM     58  CG  PRO B  12      -7.712 -33.700  -5.602  1.00 41.12 LIG 0.04  C 
ATOM     59  CD  PRO B  12      -8.876 -34.622  -5.820  1.00 39.74 LIG 0.32  C 
ATOM     60  N   PRO B  12      -9.892 -34.096  -4.904  1.00 38.12 LIG 0.32  N 
ENDBRANCH 52 56
ENDBRANCH 47 49
ENDBRANCH 44 45
BRANCH 44 61
ATOM     61  CB  ARG B  14     -10.945 -26.687  -8.342  1.00 34.42 LIG 0.04  C 
BRANCH 61 62
ATOM     62  CG  ARG B  14     -10.722 -25.906  -7.047  1.00 32.66 LIG 0.02  C 
BRANCH 62 63
ATOM     63  CD  ARG B  14     -12.056 -25.678  -6.365  1.00 35.24 LIG 0.14  C 
BRANCH 63 64
ATOM     64  NE  ARG B  14     -12.020 -24.575  -5.389  1.00 42.22 LIG-0.23  N 
ATOM     65  CZ  ARG B  14     -12.704 -24.518  -4.243  1.00 44.72 LIG 0.67  C 
ATOM     66  NH2 ARG B  14     -13.526 -25.483  -3.878  1.00 43.48 LIG-0.23  N 
ATOM     67  NH1 ARG B  14     -12.571 -23.466  -3.457  1.00 46.51 LIG-0.23  N 
ATOM     68 1HH2 ARG B  14     -13.632 -26.172  -4.384  1.00 43.48 LIG 0.17  HD
ATOM     69 2HH2 ARG B  14     -13.955 -25.424  -3.135  1.00 43.48 LIG 0.17  HD
ATOM     70 2HH1 ARG B  14     -13.009 -23.423  -2.718  1.00 46.51 LIG 0.17  HD
ATOM     71 1HH1 ARG B  14     -12.048 -22.823  -3.683  1.00 46.51 LIG 0.17  HD
ATOM     72 HE   ARG B  14     -11.512 -23.906  -5.574  1.00 42.22 LIG 0.18  HD
ENDBRANCH 63 64
ENDBRANCH 62 63
ENDBRANCH 61 62
ENDBRANCH 44 61
ENDBRANCH 1 44
TORSDOF 22
ENDMDL
MODEL 88
USER: ADFR SOLUTION from run 58
USER: SCORE 22.349086 LL:  -5.182 LR: -18.470 RR:   0.000 FEB: -11.907
USER: RMSD 5.499951
USER: SEED 57
USER: STATUS no improvement in best in 9 clusters for 5 generations
USER: GENES 24
USER: genes 0 Translation |==|  0.45927 0.55030 0.64104
USER: genes 1 Rotation |==|  0.26758 0.56054 0.84647 0.76885
USER: genes 2 Torsion [N]-CA--C-[O] |==|  0.30076
USER: genes 3 Torsion [C]-N--CA-[CB] |==|  0.79444
USER: genes 4 Torsion [N]-CA--CB-[CG2] |==|  0.60256
USER: genes 5 Torsion [CA]-CB--CG1-[CD1] |==|  0.43466
USER: genes 6 Torsion [N]-CA--C-[N] |==|  0.16694
USER: genes 7 Torsion [C]-N--CA-[C] |==|  0.57355
USER: genes 8 Torsion [N]-CA--C-[N] |==|  0.36269
USER: genes 9 Torsion [C]-N--CA-[CB] |==|  0.42796
USER: genes 10 Torsion [N]-CA--CB-[CG] |==|  0.81316
USER: genes 11 Torsion [CA]-CB--CG-[ND2] |==|  0.25516
USER: genes 12 Torsion [N]-CA--C-[O] |==|  0.01882
USER: genes 13 Torsion [N]-CA--CB-[CG] |==|  0.59904
USER: genes 14 Torsion [CA]-CB--CG-[CD2] |==|  0.20976
USER: genes 15 Torsion [CE2]-CZ--OH-[HH] |==|  0.92495
USER: genes 16 Torsion [N]-C--CA-[N] |==|  0.21198
USER: genes 17 Torsion [C]-CA--N-[C] |==|  0.69257
USER: genes 18 Torsion [N]-C--CA-[N] |==|  0.97258
USER: genes 19 Torsion [N]-C--CA-[CB] |==|  0.78556
USER: genes 20 Torsion [C]-CA--CB-[CG] |==|  0.52281
USER: genes 21 Torsion [CA]-CB--CG-[CD] |==|  0.24391
USER: genes 22 Torsion [CB]-CG--CD-[NE] |==|  0.46902
USER: genes 23 Torsion [CG]-CD--NE-[CZ] |==|  0.61822
ROOT
ATOM      1  C   ARG B  14     -10.365 -27.703  -8.019  1.00 32.92 LIG 0.24  C 
ATOM      2 O    ARG B  14      -9.534 -26.839  -8.303  1.00 37.82 LIG-0.27  OA
ATOM      3  N   PRO B  15     -10.298 -28.958  -8.471  1.00 31.88 LIG-0.34  N 
ATOM      4  CA  PRO B  15      -9.175 -29.377  -9.314  1.00 30.79 LIG 0.18  C 
ATOM      5  CB  PRO B  15      -9.439 -30.853  -9.528  1.00 31.22 LIG 0.04  C 
ATOM      6  CG  PRO B  15     -10.162 -31.253  -8.281  1.00 29.82 LIG 0.02  C 
ATOM      7  CD  PRO B  15     -11.095 -30.114  -8.025  1.00 31.43 LIG 0.13  C 
ENDROOT
BRANCH 4 8
ATOM      8  C   PRO B  15      -9.234 -28.655 -10.636  1.00 33.68 LIG 0.24  C 
ATOM      9  N   ILE B  16     -10.154 -29.067 -11.487  1.00 35.41 LIG-0.35  N 
ATOM     10 H    ILE B  16     -10.665 -29.747 -11.357  1.00 35.41 LIG 0.16  HD
ATOM     11 O    PRO B  15      -8.425 -27.778 -10.899  1.00 34.05 LIG-0.27  OA
BRANCH 9 12
ATOM     12  CA  ILE B  16     -10.364 -28.396 -12.702  1.00 37.77 LIG 0.18  C 
BRANCH 12 13
ATOM     13  CB  ILE B  16     -11.083 -27.073 -12.493  1.00 42.27 LIG 0.01  C 
ATOM     14  CG2 ILE B  16     -12.043 -26.829 -13.622  1.00 44.80 LIG 0.01  C 
BRANCH 13 15
ATOM     15  CG1 ILE B  16     -11.787 -27.111 -11.125  1.00 47.53 LIG 0.00  C 
ATOM     16  CD1 ILE B  16     -12.076 -25.756 -10.489  1.00 51.74 LIG 0.01  C 
ENDBRANCH 13 15
ENDBRANCH 12 13
BRANCH 12 17
ATOM     17  C   ILE B  16      -9.006 -28.244 -13.308  1.00 42.33 LIG 0.24  C 
ATOM     18 O    ILE B  16      -8.533 -27.159 -13.506  1.00 39.29 LIG-0.27  OA
ATOM     19  N   TYR B  17      -8.372 -29.376 -13.548  1.00 46.96 LIG-0.35  N 
ATOM     20 H    TYR B  17      -8.754 -30.145 -13.507  1.00 46.96 LIG 0.16  HD
BRANCH 19 21
ATOM     21  CA  TYR B  17      -6.982 -29.444 -13.903  1.00 51.19 LIG 0.18  C 
BRANCH 21 22
ATOM     22  C   TYR B  17      -6.724 -30.672 -14.700  1.00 56.10 LIG 0.24  C 
ATOM     23  N   ASN B  18      -6.052 -30.538 -15.826  1.00 65.39 LIG-0.35  N 
ATOM     24 H    ASN B  18      -5.630 -29.824 -16.053  1.00 65.39 LIG 0.16  HD
ATOM     25 O    TYR B  17      -7.069 -31.754 -14.261  1.00 61.36 LIG-0.27  OA
BRANCH 23 26
ATOM     26  CA  ASN B  18      -5.974 -31.634 -16.806  1.00 70.74 LIG 0.17  C 
BRANCH 26 27
ATOM     27  CB  ASN B  18      -5.734 -31.043 -18.204  1.00 84.74 LIG 0.14  C 
BRANCH 27 28
ATOM     28  CG  ASN B  18      -6.934 -30.234 -18.715  1.00 96.34 LIG 0.22  C 
ATOM     29 OD1  ASN B  18      -7.846 -30.781 -19.354  1.00 99.44 LIG-0.27  OA
ATOM     30  ND2 ASN B  18      -6.929 -28.922 -18.451  1.00 94.73 LIG-0.37  N 
ATOM     31 21HD ASN B  18      -7.574 -28.425 -18.728  1.00 94.73 LIG 0.16  HD
ATOM     32 22HD ASN B  18      -6.280 -28.574 -18.005  1.00 94.73 LIG 0.16  HD
ENDBRANCH 27 28
ENDBRANCH 26 27
BRANCH 26 33
ATOM     33  C   ASN B  18      -5.012 -32.809 -16.509  1.00 72.97 LIG 0.22  C 
ATOM     34 O    ASN B  18      -4.406 -32.923 -15.433  1.00 74.17 LIG-0.29  OA
ENDBRANCH 26 33
ENDBRANCH 23 26
ENDBRANCH 21 22
BRANCH 21 35
ATOM     35  CB  TYR B  17      -6.175 -29.566 -12.621  1.00 54.83 LIG 0.07  C 
BRANCH 35 36
ATOM     36  CG  TYR B  17      -4.891 -28.835 -12.722  1.00 56.96 LIG-0.06  A 
ATOM     37  CD2 TYR B  17      -4.870 -27.438 -12.634  1.00 61.26 LIG 0.01  A 
ATOM     38  CE2 TYR B  17      -3.691 -26.737 -12.737  1.00 70.21 LIG 0.04  A 
ATOM     39  CZ  TYR B  17      -2.518 -27.442 -12.947  1.00 76.40 LIG 0.07  A 
ATOM     40  CE1 TYR B  17      -2.515 -28.828 -13.046  1.00 67.10 LIG 0.04  A 
ATOM     41  CD1 TYR B  17      -3.711 -29.513 -12.938  1.00 57.92 LIG 0.01  A 
BRANCH 39 42
ATOM     42 OH   TYR B  17      -1.348 -26.749 -13.057  1.00 89.25 LIG-0.36  OA
ATOM     43 HH   TYR B  17      -1.506 -25.976 -13.345  1.00 89.25 LIG 0.22  HD
ENDBRANCH 39 42
ENDBRANCH 35 36
ENDBRANCH 21 35
ENDBRANCH 19 21
ENDBRANCH 12 17
ENDBRANCH 9 12
ENDBRANCH 4 8
BRANCH 1 44
ATOM     44  CA  ARG B  14     -11.541 -27.332  -7.165  1.00 32.45 LIG 0.18  C 
BRANCH 44 45
ATOM     45  N   ARG B  14     -11.221 -27.925  -5.886  1.00 38.19 LIG-0.35  N 
ATOM     46 H    ARG B  14     -10.564 -27.544  -5.483  1.00 38.19 LIG 0.16  HD
ATOM     47  C   PRO B  13     -11.884 -28.967  -5.377  1.00 38.91 LIG 0.24  C 
ATOM     48 O    PRO B  13     -12.824 -29.497  -5.935  1.00 32.88 LIG-0.27  OA
BRANCH 47 49
ATOM     49  CA  PRO B  13     -11.425 -29.457  -3.989  1.00 38.31 LIG 0.18  C 
ATOM     50  N   PRO B  13     -10.189 -28.857  -3.533  1.00 38.88 LIG-0.34  N 
ATOM     51  CD  PRO B  13     -10.319 -28.326  -2.168  1.00 43.50 LIG 0.13  C 
ATOM     52  C   PRO B  12      -9.055 -28.813  -4.250  1.00 40.77 LIG 0.26  C 
ATOM     53  CG  PRO B  13     -11.599 -28.917  -1.683  1.00 43.53 LIG 0.02  C 
ATOM     54  CB  PRO B  13     -12.429 -29.061  -2.907  1.00 39.91 LIG 0.04  C 
ATOM     55 O    PRO B  12      -8.927 -29.345  -5.364  1.00 44.45 LIG-0.27  OA
BRANCH 52 56
ATOM     56  CA  PRO B  12      -7.888 -28.072  -3.648  1.00 38.46 LIG 0.35  C 
ATOM     57  CB  PRO B  12      -8.119 -26.568  -3.810  1.00 43.42 LIG 0.05  C 
ATOM     58  CG  PRO B  12      -6.799 -26.015  -4.159  1.00 41.12 LIG 0.04  C 
ATOM     59  CD  PRO B  12      -6.119 -27.084  -4.964  1.00 39.74 LIG 0.32  C 
ATOM     60  N   PRO B  12      -6.709 -28.319  -4.441  1.00 38.12 LIG 0.32  N 
ENDBRANCH 52 56
ENDBRANCH 47 49
ENDBRANCH 44 45
BRANCH 44 61
ATOM     61  CB  ARG B  14     -11.568 -25.809  -6.992  1.00 34.42 LIG 0.04  C 
BRANCH 61 62
ATOM     62  CG  ARG B  14     -12.596 -25.296  -5.983  1.00 32.66 LIG 0.02  C 
BRANCH 62 63
ATOM     63  CD  ARG B  14     -11.976 -25.281  -4.601  1.00 35.24 LIG 0.14  C 
BRANCH 63 64
ATOM     64  NE  ARG B  14     -12.797 -24.560  -3.612  1.00 42.22 LIG-0.23  N 
ATOM     65  CZ  ARG B  14     -12.345 -23.711  -2.686  1.00 44.72 LIG 0.67  C 
ATOM     66  NH2 ARG B  14     -11.059 -23.445  -2.558  1.00 43.48 LIG-0.23  N 
ATOM     67  NH1 ARG B  14     -13.198 -23.129  -1.863  1.00 46.51 LIG-0.23  N 
ATOM     68 1HH2 ARG B  14     -10.488 -23.823  -3.079  1.00 43.48 LIG 0.17  HD
ATOM     69 2HH2 ARG B  14     -10.792 -22.894  -1.954  1.00 43.48 LIG 0.17  HD
ATOM     70 2HH1 ARG B  14     -12.913 -22.581  -1.265  1.00 46.51 LIG 0.17  HD
ATOM     71 1HH1 ARG B  14     -14.039 -23.298  -1.926  1.00 46.51 LIG 0.17  HD
ATOM     72 HE   ARG B  14     -13.645 -24.699  -3.633  1.00 42.22 LIG 0.18  HD
ENDBRANCH 63 64
ENDBRANCH 62 63
ENDBRANCH 61 62
ENDBRANCH 44 61
ENDBRANCH 1 44
TORSDOF 22
ENDMDL
MODEL 89
USER: ADFR SOLUTION from run 5
USER: SCORE 22.533365 LL:  -4.561 LR: -18.470 RR:   0.000 FEB: -11.907
USER: RMSD 4.909417
USER: SEED 118633
USER: STATUS no improvement in best in 33 clusters for 5 generations
USER: GENES 24
USER: genes 0 Translation |==|  0.47931 0.49414 0.57927
USER: genes 1 Rotation |==|  0.51089 0.51678 0.43735 0.99566
USER: genes 2 Torsion [N]-CA--C-[O] |==|  0.99097
USER: genes 3 Torsion [C]-N--CA-[CB] |==|  0.53889
USER: genes 4 Torsion [N]-CA--CB-[CG2] |==|  0.34043
USER: genes 5 Torsion [CA]-CB--CG1-[CD1] |==|  0.99731
USER: genes 6 Torsion [N]-CA--C-[N] |==|  0.36886
USER: genes 7 Torsion [C]-N--CA-[C] |==|  0.80356
USER: genes 8 Torsion [N]-CA--C-[N] |==|  0.42424
USER: genes 9 Torsion [C]-N--CA-[CB] |==|  0.76454
USER: genes 10 Torsion [N]-CA--CB-[CG] |==|  0.78355
USER: genes 11 Torsion [CA]-CB--CG-[ND2] |==|  0.71656
USER: genes 12 Torsion [N]-CA--C-[O] |==|  0.12180
USER: genes 13 Torsion [N]-CA--CB-[CG] |==|  0.08376
USER: genes 14 Torsion [CA]-CB--CG-[CD2] |==|  0.22824
USER: genes 15 Torsion [CE2]-CZ--OH-[HH] |==|  0.10793
USER: genes 16 Torsion [N]-C--CA-[N] |==|  0.45195
USER: genes 17 Torsion [C]-CA--N-[C] |==|  0.79357
USER: genes 18 Torsion [N]-C--CA-[N] |==|  0.47922
USER: genes 19 Torsion [N]-C--CA-[CB] |==|  0.56051
USER: genes 20 Torsion [C]-CA--CB-[CG] |==|  0.53148
USER: genes 21 Torsion [CA]-CB--CG-[CD] |==|  0.39902
USER: genes 22 Torsion [CB]-CG--CD-[NE] |==|  0.42158
USER: genes 23 Torsion [CG]-CD--NE-[CZ] |==|  0.35775
ROOT
ATOM      1  C   ARG B  14      -9.915 -28.756  -9.733  1.00 32.92 LIG 0.24  C 
ATOM      2 O    ARG B  14      -9.405 -29.874  -9.826  1.00 37.82 LIG-0.27  OA
ATOM      3  N   PRO B  15     -10.266 -28.023 -10.793  1.00 31.88 LIG-0.34  N 
ATOM      4  CA  PRO B  15     -10.089 -28.556 -12.147  1.00 30.79 LIG 0.18  C 
ATOM      5  CB  PRO B  15     -10.674 -27.467 -13.023  1.00 31.22 LIG 0.04  C 
ATOM      6  CG  PRO B  15     -11.720 -26.853 -12.149  1.00 29.82 LIG 0.02  C 
ATOM      7  CD  PRO B  15     -11.073 -26.792 -10.803  1.00 31.43 LIG 0.13  C 
ENDROOT
BRANCH 4 8
ATOM      8  C   PRO B  15      -8.619 -28.712 -12.446  1.00 33.68 LIG 0.24  C 
ATOM      9  N   ILE B  16      -8.314 -29.301 -13.586  1.00 35.41 LIG-0.35  N 
ATOM     10 H    ILE B  16      -8.890 -29.648 -14.123  1.00 35.41 LIG 0.16  HD
ATOM     11 O    PRO B  15      -7.781 -28.352 -11.633  1.00 34.05 LIG-0.27  OA
BRANCH 9 12
ATOM     12  CA  ILE B  16      -6.980 -29.401 -14.011  1.00 37.77 LIG 0.18  C 
BRANCH 12 13
ATOM     13  CB  ILE B  16      -6.887 -29.796 -15.476  1.00 42.27 LIG 0.01  C 
ATOM     14  CG2 ILE B  16      -6.110 -28.760 -16.237  1.00 44.80 LIG 0.01  C 
BRANCH 13 15
ATOM     15  CG1 ILE B  16      -6.244 -31.192 -15.564  1.00 47.53 LIG 0.00  C 
ATOM     16  CD1 ILE B  16      -5.842 -31.823 -14.236  1.00 51.74 LIG 0.01  C 
ENDBRANCH 13 15
ENDBRANCH 12 13
BRANCH 12 17
ATOM     17  C   ILE B  16      -6.372 -28.067 -13.718  1.00 42.33 LIG 0.24  C 
ATOM     18 O    ILE B  16      -6.949 -27.050 -13.984  1.00 39.29 LIG-0.27  OA
ATOM     19  N   TYR B  17      -5.202 -28.109 -13.109  1.00 46.96 LIG-0.35  N 
ATOM     20 H    TYR B  17      -4.746 -28.832 -13.019  1.00 46.96 LIG 0.16  HD
BRANCH 19 21
ATOM     21  CA  TYR B  17      -4.567 -26.956 -12.535  1.00 51.19 LIG 0.18  C 
BRANCH 21 22
ATOM     22  C   TYR B  17      -4.094 -26.049 -13.614  1.00 56.10 LIG 0.24  C 
ATOM     23  N   ASN B  18      -4.002 -24.764 -13.333  1.00 65.39 LIG-0.35  N 
ATOM     24 H    ASN B  18      -4.052 -24.439 -12.539  1.00 65.39 LIG 0.16  HD
ATOM     25 O    TYR B  17      -3.742 -26.520 -14.679  1.00 61.36 LIG-0.27  OA
BRANCH 23 26
ATOM     26  CA  ASN B  18      -3.801 -23.762 -14.393  1.00 70.74 LIG 0.17  C 
BRANCH 26 27
ATOM     27  CB  ASN B  18      -2.300 -23.650 -14.701  1.00 84.74 LIG 0.14  C 
BRANCH 27 28
ATOM     28  CG  ASN B  18      -1.545 -22.822 -13.653  1.00 96.34 LIG 0.22  C 
ATOM     29 OD1  ASN B  18      -1.257 -23.302 -12.546  1.00 99.44 LIG-0.27  OA
ATOM     30  ND2 ASN B  18      -1.237 -21.564 -13.992  1.00 94.73 LIG-0.37  N 
ATOM     31 21HD ASN B  18      -0.824 -21.057 -13.433  1.00 94.73 LIG 0.16  HD
ATOM     32 22HD ASN B  18      -1.452 -21.262 -14.768  1.00 94.73 LIG 0.16  HD
ENDBRANCH 27 28
ENDBRANCH 26 27
BRANCH 26 33
ATOM     33  C   ASN B  18      -4.643 -23.891 -15.686  1.00 72.97 LIG 0.22  C 
ATOM     34 O    ASN B  18      -5.856 -24.146 -15.672  1.00 74.17 LIG-0.29  OA
ENDBRANCH 26 33
ENDBRANCH 23 26
ENDBRANCH 21 22
BRANCH 21 35
ATOM     35  CB  TYR B  17      -3.338 -27.425 -11.775  1.00 54.83 LIG 0.07  C 
BRANCH 35 36
ATOM     36  CG  TYR B  17      -2.759 -28.643 -12.387  1.00 56.96 LIG-0.06  A 
ATOM     37  CD2 TYR B  17      -1.909 -28.537 -13.494  1.00 61.26 LIG 0.01  A 
ATOM     38  CE2 TYR B  17      -1.371 -29.656 -14.085  1.00 70.21 LIG 0.04  A 
ATOM     39  CZ  TYR B  17      -1.698 -30.900 -13.573  1.00 76.40 LIG 0.07  A 
ATOM     40  CE1 TYR B  17      -2.547 -31.030 -12.479  1.00 67.10 LIG 0.04  A 
ATOM     41  CD1 TYR B  17      -3.076 -29.893 -11.899  1.00 57.92 LIG 0.01  A 
BRANCH 39 42
ATOM     42 OH   TYR B  17      -1.172 -32.011 -14.163  1.00 89.25 LIG-0.36  OA
ATOM     43 HH   TYR B  17      -0.376 -31.861 -14.385  1.00 89.25 LIG 0.22  HD
ENDBRANCH 39 42
ENDBRANCH 35 36
ENDBRANCH 21 35
ENDBRANCH 19 21
ENDBRANCH 12 17
ENDBRANCH 9 12
ENDBRANCH 4 8
BRANCH 1 44
ATOM     44  CA  ARG B  14     -10.114 -28.155  -8.374  1.00 32.45 LIG 0.18  C 
BRANCH 44 45
ATOM     45  N   ARG B  14     -10.051 -29.300  -7.493  1.00 38.19 LIG-0.35  N 
ATOM     46 H    ARG B  14      -9.318 -29.352  -7.046  1.00 38.19 LIG 0.16  HD
ATOM     47  C   PRO B  13     -11.039 -30.192  -7.384  1.00 38.91 LIG 0.24  C 
ATOM     48 O    PRO B  13     -12.082 -30.112  -8.000  1.00 32.88 LIG-0.27  OA
BRANCH 47 49
ATOM     49  CA  PRO B  13     -10.814 -31.340  -6.378  1.00 38.31 LIG 0.18  C 
ATOM     50  N   PRO B  13     -11.976 -32.178  -6.173  1.00 38.88 LIG-0.34  N 
ATOM     51  CD  PRO B  13     -11.644 -33.604  -6.309  1.00 43.50 LIG 0.13  C 
ATOM     52  C   PRO B  12     -13.200 -31.718  -5.867  1.00 40.77 LIG 0.26  C 
ATOM     53  CG  PRO B  13     -10.153 -33.620  -6.287  1.00 43.53 LIG 0.02  C 
ATOM     54  CB  PRO B  13      -9.760 -32.321  -6.892  1.00 39.91 LIG 0.04  C 
ATOM     55 O    PRO B  12     -13.452 -30.521  -5.664  1.00 44.45 LIG-0.27  OA
BRANCH 52 56
ATOM     56  CA  PRO B  12     -14.312 -32.733  -5.773  1.00 38.46 LIG 0.35  C 
ATOM     57  CB  PRO B  12     -15.651 -32.020  -5.964  1.00 43.42 LIG 0.05  C 
ATOM     58  CG  PRO B  12     -16.560 -32.648  -4.990  1.00 41.12 LIG 0.04  C 
ATOM     59  CD  PRO B  12     -15.699 -33.005  -3.814  1.00 39.74 LIG 0.32  C 
ATOM     60  N   PRO B  12     -14.385 -33.231  -4.421  1.00 38.12 LIG 0.32  N 
ENDBRANCH 52 56
ENDBRANCH 47 49
ENDBRANCH 44 45
BRANCH 44 61
ATOM     61  CB  ARG B  14      -8.925 -27.242  -8.055  1.00 34.42 LIG 0.04  C 
BRANCH 61 62
ATOM     62  CG  ARG B  14      -8.848 -26.771  -6.603  1.00 32.66 LIG 0.02  C 
BRANCH 62 63
ATOM     63  CD  ARG B  14      -7.396 -26.704  -6.176  1.00 35.24 LIG 0.14  C 
BRANCH 63 64
ATOM     64  NE  ARG B  14      -7.152 -25.697  -5.128  1.00 42.22 LIG-0.23  N 
ATOM     65  CZ  ARG B  14      -6.512 -25.904  -3.974  1.00 44.72 LIG 0.67  C 
ATOM     66  NH2 ARG B  14      -6.037 -27.091  -3.648  1.00 43.48 LIG-0.23  N 
ATOM     67  NH1 ARG B  14      -6.361 -24.905  -3.125  1.00 46.51 LIG-0.23  N 
ATOM     68 1HH2 ARG B  14      -6.136 -27.756  -4.186  1.00 43.48 LIG 0.17  HD
ATOM     69 2HH2 ARG B  14      -5.628 -27.199  -2.900  1.00 43.48 LIG 0.17  HD
ATOM     70 2HH1 ARG B  14      -5.950 -25.032  -2.380  1.00 46.51 LIG 0.17  HD
ATOM     71 1HH1 ARG B  14      -6.673 -24.127  -3.316  1.00 46.51 LIG 0.17  HD
ATOM     72 HE   ARG B  14      -7.450 -24.903  -5.272  1.00 42.22 LIG 0.18  HD
ENDBRANCH 63 64
ENDBRANCH 62 63
ENDBRANCH 61 62
ENDBRANCH 44 61
ENDBRANCH 1 44
TORSDOF 22
ENDMDL
MODEL 90
USER: ADFR SOLUTION from run 110
USER: SCORE 21.661760 LL:  -5.031 LR: -18.471 RR:   0.000 FEB: -11.909
USER: RMSD 12.448757
USER: SEED 109
USER: STATUS no improvement in best in 19 clusters for 5 generations
USER: GENES 24
USER: genes 0 Translation |==|  0.63561 0.41855 0.40368
USER: genes 1 Rotation |==|  0.71845 0.93910 0.57200 0.56549
USER: genes 2 Torsion [N]-CA--C-[O] |==|  0.79808
USER: genes 3 Torsion [C]-N--CA-[CB] |==|  0.50204
USER: genes 4 Torsion [N]-CA--CB-[CG2] |==|  0.09633
USER: genes 5 Torsion [CA]-CB--CG1-[CD1] |==|  0.35047
USER: genes 6 Torsion [N]-CA--C-[N] |==|  0.87332
USER: genes 7 Torsion [C]-N--CA-[C] |==|  0.86199
USER: genes 8 Torsion [N]-CA--C-[N] |==|  0.37222
USER: genes 9 Torsion [C]-N--CA-[CB] |==|  0.46739
USER: genes 10 Torsion [N]-CA--CB-[CG] |==|  0.91546
USER: genes 11 Torsion [CA]-CB--CG-[ND2] |==|  0.85405
USER: genes 12 Torsion [N]-CA--C-[O] |==|  0.14029
USER: genes 13 Torsion [N]-CA--CB-[CG] |==|  0.57259
USER: genes 14 Torsion [CA]-CB--CG-[CD2] |==|  0.38172
USER: genes 15 Torsion [CE2]-CZ--OH-[HH] |==|  0.66397
USER: genes 16 Torsion [N]-C--CA-[N] |==|  0.19724
USER: genes 17 Torsion [C]-CA--N-[C] |==|  0.63926
USER: genes 18 Torsion [N]-C--CA-[N] |==|  0.70392
USER: genes 19 Torsion [N]-C--CA-[CB] |==|  0.79612
USER: genes 20 Torsion [C]-CA--CB-[CG] |==|  0.75967
USER: genes 21 Torsion [CA]-CB--CG-[CD] |==|  0.70010
USER: genes 22 Torsion [CB]-CG--CD-[NE] |==|  0.35296
USER: genes 23 Torsion [CG]-CD--NE-[CZ] |==|  0.19112
ROOT
ATOM      1  C   ARG B  14      -6.398 -30.173 -14.606  1.00 32.92 LIG 0.24  C 
ATOM      2 O    ARG B  14      -7.551 -30.102 -15.035  1.00 37.82 LIG-0.27  OA
ATOM      3  N   PRO B  15      -6.109 -30.348 -13.313  1.00 31.88 LIG-0.34  N 
ATOM      4  CA  PRO B  15      -7.188 -30.507 -12.334  1.00 30.79 LIG 0.18  C 
ATOM      5  CB  PRO B  15      -6.441 -30.755 -11.040  1.00 31.22 LIG 0.04  C 
ATOM      6  CG  PRO B  15      -5.184 -31.425 -11.496  1.00 29.82 LIG 0.02  C 
ATOM      7  CD  PRO B  15      -4.798 -30.667 -12.724  1.00 31.43 LIG 0.13  C 
ENDROOT
BRANCH 4 8
ATOM      8  C   PRO B  15      -7.973 -29.224 -12.228  1.00 33.68 LIG 0.24  C 
ATOM      9  N   ILE B  16      -9.154 -29.211 -12.815  1.00 35.41 LIG-0.35  N 
ATOM     10 H    ILE B  16      -9.464 -29.854 -13.296  1.00 35.41 LIG 0.16  HD
ATOM     11 O    PRO B  15      -7.493 -28.249 -11.669  1.00 34.05 LIG-0.27  OA
BRANCH 9 12
ATOM     12  CA  ILE B  16     -10.010 -28.107 -12.688  1.00 37.77 LIG 0.18  C 
BRANCH 12 13
ATOM     13  CB  ILE B  16     -11.318 -28.323 -13.433  1.00 42.27 LIG 0.01  C 
ATOM     14  CG2 ILE B  16     -11.713 -29.771 -13.362  1.00 44.80 LIG 0.01  C 
BRANCH 13 15
ATOM     15  CG1 ILE B  16     -12.385 -27.396 -12.825  1.00 47.53 LIG 0.00  C 
ATOM     16  CD1 ILE B  16     -13.113 -26.486 -13.808  1.00 51.74 LIG 0.01  C 
ENDBRANCH 13 15
ENDBRANCH 12 13
BRANCH 12 17
ATOM     17  C   ILE B  16     -10.193 -27.917 -11.216  1.00 42.33 LIG 0.24  C 
ATOM     18 O    ILE B  16     -10.164 -26.824 -10.722  1.00 39.29 LIG-0.27  OA
ATOM     19  N   TYR B  17     -10.435 -29.022 -10.537  1.00 46.96 LIG-0.35  N 
ATOM     20 H    TYR B  17     -10.348 -29.809 -10.875  1.00 46.96 LIG 0.16  HD
BRANCH 19 21
ATOM     21  CA  TYR B  17     -10.869 -29.031  -9.168  1.00 51.19 LIG 0.18  C 
BRANCH 21 22
ATOM     22  C   TYR B  17      -9.986 -28.155  -8.353  1.00 56.10 LIG 0.24  C 
ATOM     23  N   ASN B  18     -10.564 -27.320  -7.513  1.00 65.39 LIG-0.35  N 
ATOM     24 H    ASN B  18     -11.396 -27.352  -7.297  1.00 65.39 LIG 0.16  HD
ATOM     25 O    TYR B  17      -8.778 -28.284  -8.431  1.00 61.36 LIG-0.27  OA
BRANCH 23 26
ATOM     26  CA  ASN B  18      -9.804 -26.240  -6.862  1.00 70.74 LIG 0.17  C 
BRANCH 26 27
ATOM     27  CB  ASN B  18     -10.785 -25.271  -6.186  1.00 84.74 LIG 0.14  C 
BRANCH 27 28
ATOM     28  CG  ASN B  18     -12.133 -25.194  -6.915  1.00 96.34 LIG 0.22  C 
ATOM     29 OD1  ASN B  18     -13.199 -25.381  -6.308  1.00 99.44 LIG-0.27  OA
ATOM     30  ND2 ASN B  18     -12.091 -24.935  -8.228  1.00 94.73 LIG-0.37  N 
ATOM     31 21HD ASN B  18     -12.820 -24.894  -8.682  1.00 94.73 LIG 0.16  HD
ATOM     32 22HD ASN B  18     -11.335 -24.811  -8.618  1.00 94.73 LIG 0.16  HD
ENDBRANCH 27 28
ENDBRANCH 26 27
BRANCH 26 33
ATOM     33  C   ASN B  18      -8.644 -26.634  -5.916  1.00 72.97 LIG 0.22  C 
ATOM     34 O    ASN B  18      -7.754 -27.432  -6.244  1.00 74.17 LIG-0.29  OA
ENDBRANCH 26 33
ENDBRANCH 23 26
ENDBRANCH 21 22
BRANCH 21 35
ATOM     35  CB  TYR B  17     -10.710 -30.444  -8.633  1.00 54.83 LIG 0.07  C 
BRANCH 35 36
ATOM     36  CG  TYR B  17     -11.654 -30.709  -7.524  1.00 56.96 LIG-0.06  A 
ATOM     37  CD2 TYR B  17     -12.338 -31.929  -7.460  1.00 61.26 LIG 0.01  A 
ATOM     38  CE2 TYR B  17     -13.229 -32.192  -6.445  1.00 70.21 LIG 0.04  A 
ATOM     39  CZ  TYR B  17     -13.452 -31.215  -5.490  1.00 76.40 LIG 0.07  A 
ATOM     40  CE1 TYR B  17     -12.791 -29.993  -5.537  1.00 67.10 LIG 0.04  A 
ATOM     41  CD1 TYR B  17     -11.898 -29.750  -6.564  1.00 57.92 LIG 0.01  A 
BRANCH 39 42
ATOM     42 OH   TYR B  17     -14.341 -31.470  -4.487  1.00 89.25 LIG-0.36  OA
ATOM     43 HH   TYR B  17     -14.954 -30.896  -4.504  1.00 89.25 LIG 0.22  HD
ENDBRANCH 39 42
ENDBRANCH 35 36
ENDBRANCH 21 35
ENDBRANCH 19 21
ENDBRANCH 12 17
ENDBRANCH 9 12
ENDBRANCH 4 8
BRANCH 1 44
ATOM     44  CA  ARG B  14      -5.252 -30.011 -15.560  1.00 32.45 LIG 0.18  C 
BRANCH 44 45
ATOM     45  N   ARG B  14      -4.672 -31.334 -15.608  1.00 38.19 LIG-0.35  N 
ATOM     46 H    ARG B  14      -5.245 -31.958 -15.755  1.00 38.19 LIG 0.16  HD
ATOM     47  C   PRO B  13      -3.367 -31.566 -15.440  1.00 38.91 LIG 0.24  C 
ATOM     48 O    PRO B  13      -2.551 -30.686 -15.250  1.00 32.88 LIG-0.27  OA
BRANCH 47 49
ATOM     49  CA  PRO B  13      -2.915 -33.037 -15.547  1.00 38.31 LIG 0.18  C 
ATOM     50  N   PRO B  13      -2.572 -33.640 -14.276  1.00 38.88 LIG-0.34  N 
ATOM     51  CD  PRO B  13      -3.250 -34.931 -14.092  1.00 43.50 LIG 0.13  C 
ATOM     52  C   PRO B  12      -1.721 -33.105 -13.387  1.00 40.77 LIG 0.26  C 
ATOM     53  CG  PRO B  13      -3.774 -35.249 -15.451  1.00 43.53 LIG 0.02  C 
ATOM     54  CB  PRO B  13      -4.049 -33.923 -16.061  1.00 39.91 LIG 0.04  C 
ATOM     55 O    PRO B  12      -1.083 -32.061 -13.590  1.00 44.45 LIG-0.27  OA
BRANCH 52 56
ATOM     56  CA  PRO B  12      -1.548 -33.833 -12.077  1.00 38.46 LIG 0.35  C 
ATOM     57  CB  PRO B  12      -2.799 -33.619 -11.223  1.00 43.42 LIG 0.05  C 
ATOM     58  CG  PRO B  12      -2.296 -33.424  -9.852  1.00 41.12 LIG 0.04  C 
ATOM     59  CD  PRO B  12      -0.976 -32.726 -10.007  1.00 39.74 LIG 0.32  C 
ATOM     60  N   PRO B  12      -0.505 -33.193 -11.313  1.00 38.12 LIG 0.32  N 
ENDBRANCH 52 56
ENDBRANCH 47 49
ENDBRANCH 44 45
BRANCH 44 61
ATOM     61  CB  ARG B  14      -5.806 -29.682 -16.950  1.00 34.42 LIG 0.04  C 
BRANCH 61 62
ATOM     62  CG  ARG B  14      -6.173 -30.899 -17.800  1.00 32.66 LIG 0.02  C 
BRANCH 62 63
ATOM     63  CD  ARG B  14      -5.158 -31.055 -18.914  1.00 35.24 LIG 0.14  C 
BRANCH 63 64
ATOM     64  NE  ARG B  14      -4.568 -32.404 -18.967  1.00 42.22 LIG-0.23  N 
ATOM     65  CZ  ARG B  14      -5.202 -33.525 -19.315  1.00 44.72 LIG 0.67  C 
ATOM     66  NH2 ARG B  14      -6.482 -33.526 -19.639  1.00 43.48 LIG-0.23  N 
ATOM     67  NH1 ARG B  14      -4.545 -34.670 -19.324  1.00 46.51 LIG-0.23  N 
ATOM     68 1HH2 ARG B  14      -6.928 -32.790 -19.629  1.00 43.48 LIG 0.17  HD
ATOM     69 2HH2 ARG B  14      -6.869 -34.261 -19.860  1.00 43.48 LIG 0.17  HD
ATOM     70 2HH1 ARG B  14      -4.949 -35.396 -19.547  1.00 46.51 LIG 0.17  HD
ATOM     71 1HH1 ARG B  14      -3.714 -34.691 -19.107  1.00 46.51 LIG 0.17  HD
ATOM     72 HE   ARG B  14      -3.737 -32.475 -18.754  1.00 42.22 LIG 0.18  HD
ENDBRANCH 63 64
ENDBRANCH 62 63
ENDBRANCH 61 62
ENDBRANCH 44 61
ENDBRANCH 1 44
TORSDOF 22
ENDMDL
MODEL 91
USER: ADFR SOLUTION from run 172
USER: SCORE 22.844438 LL:  -5.682 LR: -18.469 RR:   0.000 FEB: -11.906
USER: RMSD 4.440254
USER: SEED 171
USER: STATUS no improvement in best in 9 clusters for 5 generations
USER: GENES 24
USER: genes 0 Translation |==|  0.45650 0.47410 0.56430
USER: genes 1 Rotation |==|  0.59975 0.47711 0.42790 0.98407
USER: genes 2 Torsion [N]-CA--C-[O] |==|  0.86885
USER: genes 3 Torsion [C]-N--CA-[CB] |==|  0.17720
USER: genes 4 Torsion [N]-CA--CB-[CG2] |==|  0.20055
USER: genes 5 Torsion [CA]-CB--CG1-[CD1] |==|  0.17703
USER: genes 6 Torsion [N]-CA--C-[N] |==|  0.56581
USER: genes 7 Torsion [C]-N--CA-[C] |==|  0.58058
USER: genes 8 Torsion [N]-CA--C-[N] |==|  0.47680
USER: genes 9 Torsion [C]-N--CA-[CB] |==|  0.46288
USER: genes 10 Torsion [N]-CA--CB-[CG] |==|  0.13965
USER: genes 11 Torsion [CA]-CB--CG-[ND2] |==|  0.72247
USER: genes 12 Torsion [N]-CA--C-[O] |==|  0.35270
USER: genes 13 Torsion [N]-CA--CB-[CG] |==|  0.84117
USER: genes 14 Torsion [CA]-CB--CG-[CD2] |==|  0.27725
USER: genes 15 Torsion [CE2]-CZ--OH-[HH] |==|  0.39504
USER: genes 16 Torsion [N]-C--CA-[N] |==|  0.41784
USER: genes 17 Torsion [C]-CA--N-[C] |==|  0.54223
USER: genes 18 Torsion [N]-C--CA-[N] |==|  0.22512
USER: genes 19 Torsion [N]-C--CA-[CB] |==|  0.74606
USER: genes 20 Torsion [C]-CA--CB-[CG] |==|  0.25444
USER: genes 21 Torsion [CA]-CB--CG-[CD] |==|  0.08961
USER: genes 22 Torsion [CB]-CG--CD-[NE] |==|  0.19009
USER: genes 23 Torsion [CG]-CD--NE-[CZ] |==|  0.32937
ROOT
ATOM      1  C   ARG B  14     -10.428 -29.132 -10.149  1.00 32.92 LIG 0.24  C 
ATOM      2 O    ARG B  14      -9.938 -30.203 -10.511  1.00 37.82 LIG-0.27  OA
ATOM      3  N   PRO B  15     -10.536 -28.069 -10.951  1.00 31.88 LIG-0.34  N 
ATOM      4  CA  PRO B  15     -10.098 -28.155 -12.347  1.00 30.79 LIG 0.18  C 
ATOM      5  CB  PRO B  15     -10.464 -26.795 -12.905  1.00 31.22 LIG 0.04  C 
ATOM      6  CG  PRO B  15     -11.652 -26.401 -12.087  1.00 29.82 LIG 0.02  C 
ATOM      7  CD  PRO B  15     -11.294 -26.832 -10.702  1.00 31.43 LIG 0.13  C 
ENDROOT
BRANCH 4 8
ATOM      8  C   PRO B  15      -8.603 -28.340 -12.402  1.00 33.68 LIG 0.24  C 
ATOM      9  N   ILE B  16      -8.163 -29.325 -13.161  1.00 35.41 LIG-0.35  N 
ATOM     10 H    ILE B  16      -8.671 -29.892 -13.564  1.00 35.41 LIG 0.16  HD
ATOM     11 O    PRO B  15      -7.867 -27.635 -11.728  1.00 34.05 LIG-0.27  OA
BRANCH 9 12
ATOM     12  CA  ILE B  16      -6.788 -29.518 -13.367  1.00 37.77 LIG 0.18  C 
BRANCH 12 13
ATOM     13  CB  ILE B  16      -6.071 -29.863 -12.071  1.00 42.27 LIG 0.01  C 
ATOM     14  CG2 ILE B  16      -6.422 -31.262 -11.650  1.00 44.80 LIG 0.01  C 
BRANCH 13 15
ATOM     15  CG1 ILE B  16      -4.558 -29.680 -12.287  1.00 47.53 LIG 0.00  C 
ATOM     16  CD1 ILE B  16      -4.098 -28.258 -12.592  1.00 51.74 LIG 0.01  C 
ENDBRANCH 13 15
ENDBRANCH 12 13
BRANCH 12 17
ATOM     17  C   ILE B  16      -6.691 -30.593 -14.401  1.00 42.33 LIG 0.24  C 
ATOM     18 O    ILE B  16      -7.574 -30.775 -15.192  1.00 39.29 LIG-0.27  OA
ATOM     19  N   TYR B  17      -5.557 -31.268 -14.399  1.00 46.96 LIG-0.35  N 
ATOM     20 H    TYR B  17      -4.977 -31.209 -13.767  1.00 46.96 LIG 0.16  HD
BRANCH 19 21
ATOM     21  CA  TYR B  17      -5.172 -32.171 -15.448  1.00 51.19 LIG 0.18  C 
BRANCH 21 22
ATOM     22  C   TYR B  17      -4.298 -33.240 -14.899  1.00 56.10 LIG 0.24  C 
ATOM     23  N   ASN B  18      -3.993 -34.247 -15.695  1.00 65.39 LIG-0.35  N 
ATOM     24 H    ASN B  18      -4.138 -34.252 -16.542  1.00 65.39 LIG 0.16  HD
ATOM     25 O    TYR B  17      -3.839 -33.121 -13.778  1.00 61.36 LIG-0.27  OA
BRANCH 23 26
ATOM     26  CA  ASN B  18      -3.361 -35.470 -15.173  1.00 70.74 LIG 0.17  C 
BRANCH 26 27
ATOM     27  CB  ASN B  18      -3.435 -36.569 -16.244  1.00 84.74 LIG 0.14  C 
BRANCH 27 28
ATOM     28  CG  ASN B  18      -2.928 -36.093 -17.612  1.00 96.34 LIG 0.22  C 
ATOM     29 OD1  ASN B  18      -1.713 -36.023 -17.853  1.00 99.44 LIG-0.27  OA
ATOM     30  ND2 ASN B  18      -3.860 -35.745 -18.508  1.00 94.73 LIG-0.37  N 
ATOM     31 21HD ASN B  18      -3.624 -35.461 -19.285  1.00 94.73 LIG 0.16  HD
ATOM     32 22HD ASN B  18      -4.694 -35.805 -18.308  1.00 94.73 LIG 0.16  HD
ENDBRANCH 27 28
ENDBRANCH 26 27
BRANCH 26 33
ATOM     33  C   ASN B  18      -1.942 -35.355 -14.566  1.00 72.97 LIG 0.22  C 
ATOM     34 O    ASN B  18      -1.663 -35.774 -13.433  1.00 74.17 LIG-0.29  OA
ENDBRANCH 26 33
ENDBRANCH 23 26
ENDBRANCH 21 22
BRANCH 21 35
ATOM     35  CB  TYR B  17      -4.344 -31.393 -16.458  1.00 54.83 LIG 0.07  C 
BRANCH 35 36
ATOM     36  CG  TYR B  17      -5.094 -30.231 -16.988  1.00 56.96 LIG-0.06  A 
ATOM     37  CD2 TYR B  17      -4.854 -28.950 -16.478  1.00 61.26 LIG 0.01  A 
ATOM     38  CE2 TYR B  17      -5.547 -27.858 -16.947  1.00 70.21 LIG 0.04  A 
ATOM     39  CZ  TYR B  17      -6.504 -28.051 -17.927  1.00 76.40 LIG 0.07  A 
ATOM     40  CE1 TYR B  17      -6.766 -29.315 -18.443  1.00 67.10 LIG 0.04  A 
ATOM     41  CD1 TYR B  17      -6.057 -30.399 -17.959  1.00 57.92 LIG 0.01  A 
BRANCH 39 42
ATOM     42 OH   TYR B  17      -7.199 -26.971 -18.388  1.00 89.25 LIG-0.36  OA
ATOM     43 HH   TYR B  17      -7.324 -27.051 -19.215  1.00 89.25 LIG 0.22  HD
ENDBRANCH 39 42
ENDBRANCH 35 36
ENDBRANCH 21 35
ENDBRANCH 19 21
ENDBRANCH 12 17
ENDBRANCH 9 12
ENDBRANCH 4 8
BRANCH 1 44
ATOM     44  CA  ARG B  14     -10.887 -28.982  -8.729  1.00 32.45 LIG 0.18  C 
BRANCH 44 45
ATOM     45  N   ARG B  14     -11.318 -30.316  -8.378  1.00 38.19 LIG-0.35  N 
ATOM     46 H    ARG B  14     -11.045 -30.922  -8.923  1.00 38.19 LIG 0.16  HD
ATOM     47  C   PRO B  13     -12.071 -30.583  -7.306  1.00 38.91 LIG 0.24  C 
ATOM     48 O    PRO B  13     -12.444 -29.732  -6.525  1.00 32.88 LIG-0.27  OA
BRANCH 47 49
ATOM     49  CA  PRO B  13     -12.419 -32.066  -7.069  1.00 38.31 LIG 0.18  C 
ATOM     50  N   PRO B  13     -11.367 -32.821  -6.423  1.00 38.88 LIG-0.34  N 
ATOM     51  CD  PRO B  13     -11.875 -33.578  -5.270  1.00 43.50 LIG 0.13  C 
ATOM     52  C   PRO B  12     -10.090 -32.853  -6.837  1.00 40.77 LIG 0.26  C 
ATOM     53  CG  PRO B  13     -13.355 -33.509  -5.431  1.00 43.53 LIG 0.02  C 
ATOM     54  CB  PRO B  13     -13.595 -32.205  -6.102  1.00 39.91 LIG 0.04  C 
ATOM     55 O    PRO B  12      -9.688 -32.285  -7.864  1.00 44.45 LIG-0.27  OA
BRANCH 52 56
ATOM     56  CA  PRO B  12      -9.111 -33.627  -5.991  1.00 38.46 LIG 0.35  C 
ATOM     57  CB  PRO B  12      -8.484 -32.680  -4.966  1.00 43.42 LIG 0.05  C 
ATOM     58  CG  PRO B  12      -7.064 -33.068  -4.908  1.00 41.12 LIG 0.04  C 
ATOM     59  CD  PRO B  12      -6.717 -33.521  -6.296  1.00 39.74 LIG 0.32  C 
ATOM     60  N   PRO B  12      -7.992 -34.029  -6.808  1.00 38.12 LIG 0.32  N 
ENDBRANCH 52 56
ENDBRANCH 47 49
ENDBRANCH 44 45
BRANCH 44 61
ATOM     61  CB  ARG B  14      -9.683 -28.623  -7.852  1.00 34.42 LIG 0.04  C 
BRANCH 61 62
ATOM     62  CG  ARG B  14      -9.442 -27.124  -7.674  1.00 32.66 LIG 0.02  C 
BRANCH 62 63
ATOM     63  CD  ARG B  14     -10.772 -26.398  -7.695  1.00 35.24 LIG 0.14  C 
BRANCH 63 64
ATOM     64  NE  ARG B  14     -11.605 -26.692  -6.516  1.00 42.22 LIG-0.23  N 
ATOM     65  CZ  ARG B  14     -12.026 -25.805  -5.611  1.00 44.72 LIG 0.67  C 
ATOM     66  NH2 ARG B  14     -11.699 -24.529  -5.688  1.00 43.48 LIG-0.23  N 
ATOM     67  NH1 ARG B  14     -12.775 -26.209  -4.602  1.00 46.51 LIG-0.23  N 
ATOM     68 1HH2 ARG B  14     -11.203 -24.250  -6.333  1.00 43.48 LIG 0.17  HD
ATOM     69 2HH2 ARG B  14     -11.983 -23.976  -5.093  1.00 43.48 LIG 0.17  HD
ATOM     70 2HH1 ARG B  14     -13.049 -25.642  -4.016  1.00 46.51 LIG 0.17  HD
ATOM     71 1HH1 ARG B  14     -12.989 -27.038  -4.530  1.00 46.51 LIG 0.17  HD
ATOM     72 HE   ARG B  14     -11.842 -27.511  -6.399  1.00 42.22 LIG 0.18  HD
ENDBRANCH 63 64
ENDBRANCH 62 63
ENDBRANCH 61 62
ENDBRANCH 44 61
ENDBRANCH 1 44
TORSDOF 22
ENDMDL
MODEL 92
USER: ADFR SOLUTION from run 132
USER: SCORE 22.264921 LL:  -4.897 LR: -18.463 RR:   0.000 FEB: -11.900
USER: RMSD 12.691463
USER: SEED 131
USER: STATUS no improvement in best in 29 clusters for 5 generations
USER: GENES 24
USER: genes 0 Translation |==|  0.61942 0.46585 0.38722
USER: genes 1 Rotation |==|  0.26201 0.08157 0.36734 0.52611
USER: genes 2 Torsion [N]-CA--C-[O] |==|  0.81830
USER: genes 3 Torsion [C]-N--CA-[CB] |==|  0.48752
USER: genes 4 Torsion [N]-CA--CB-[CG2] |==|  0.38824
USER: genes 5 Torsion [CA]-CB--CG1-[CD1] |==|  0.46554
USER: genes 6 Torsion [N]-CA--C-[N] |==|  0.39373
USER: genes 7 Torsion [C]-N--CA-[C] |==|  0.80904
USER: genes 8 Torsion [N]-CA--C-[N] |==|  0.45540
USER: genes 9 Torsion [C]-N--CA-[CB] |==|  0.18864
USER: genes 10 Torsion [N]-CA--CB-[CG] |==|  0.69862
USER: genes 11 Torsion [CA]-CB--CG-[ND2] |==|  0.56720
USER: genes 12 Torsion [N]-CA--C-[O] |==|  0.27118
USER: genes 13 Torsion [N]-CA--CB-[CG] |==|  0.25989
USER: genes 14 Torsion [CA]-CB--CG-[CD2] |==|  0.29080
USER: genes 15 Torsion [CE2]-CZ--OH-[HH] |==|  0.15830
USER: genes 16 Torsion [N]-C--CA-[N] |==|  0.88127
USER: genes 17 Torsion [C]-CA--N-[C] |==|  0.76760
USER: genes 18 Torsion [N]-C--CA-[N] |==|  0.43986
USER: genes 19 Torsion [N]-C--CA-[CB] |==|  0.49961
USER: genes 20 Torsion [C]-CA--CB-[CG] |==|  0.28617
USER: genes 21 Torsion [CA]-CB--CG-[CD] |==|  0.20041
USER: genes 22 Torsion [CB]-CG--CD-[NE] |==|  0.72326
USER: genes 23 Torsion [CG]-CD--NE-[CZ] |==|  0.29967
ROOT
ATOM      1  C   ARG B  14      -6.762 -29.286 -15.063  1.00 32.92 LIG 0.24  C 
ATOM      2 O    ARG B  14      -7.972 -29.081 -15.174  1.00 37.82 LIG-0.27  OA
ATOM      3  N   PRO B  15      -6.224 -29.941 -14.030  1.00 31.88 LIG-0.34  N 
ATOM      4  CA  PRO B  15      -7.085 -30.492 -12.980  1.00 30.79 LIG 0.18  C 
ATOM      5  CB  PRO B  15      -6.104 -31.205 -12.072  1.00 31.22 LIG 0.04  C 
ATOM      6  CG  PRO B  15      -5.012 -31.617 -13.008  1.00 29.82 LIG 0.02  C 
ATOM      7  CD  PRO B  15      -4.842 -30.433 -13.905  1.00 31.43 LIG 0.13  C 
ENDROOT
BRANCH 4 8
ATOM      8  C   PRO B  15      -7.749 -29.369 -12.224  1.00 33.68 LIG 0.24  C 
ATOM      9  N   ILE B  16      -9.054 -29.251 -12.381  1.00 35.41 LIG-0.35  N 
ATOM     10 H    ILE B  16      -9.522 -29.726 -12.925  1.00 35.41 LIG 0.16  HD
ATOM     11 O    PRO B  15      -7.083 -28.593 -11.556  1.00 34.05 LIG-0.27  OA
BRANCH 9 12
ATOM     12  CA  ILE B  16      -9.786 -28.308 -11.643  1.00 37.77 LIG 0.18  C 
BRANCH 12 13
ATOM     13  CB  ILE B  16     -11.246 -28.276 -12.067  1.00 42.27 LIG 0.01  C 
ATOM     14  CG2 ILE B  16     -12.126 -28.134 -10.858  1.00 44.80 LIG 0.01  C 
BRANCH 13 15
ATOM     15  CG1 ILE B  16     -11.437 -27.124 -13.069  1.00 47.53 LIG 0.00  C 
ATOM     16  CD1 ILE B  16     -12.760 -27.115 -13.827  1.00 51.74 LIG 0.01  C 
ENDBRANCH 13 15
ENDBRANCH 12 13
BRANCH 12 17
ATOM     17  C   ILE B  16      -9.594 -28.693 -10.211  1.00 42.33 LIG 0.24  C 
ATOM     18 O    ILE B  16      -9.518 -29.844  -9.883  1.00 39.29 LIG-0.27  OA
ATOM     19  N   TYR B  17      -9.465 -27.681  -9.374  1.00 46.96 LIG-0.35  N 
ATOM     20 H    TYR B  17      -9.628 -26.866  -9.595  1.00 46.96 LIG 0.16  HD
BRANCH 19 21
ATOM     21  CA  TYR B  17      -9.042 -27.832  -8.010  1.00 51.19 LIG 0.18  C 
BRANCH 21 22
ATOM     22  C   TYR B  17     -10.095 -28.533  -7.229  1.00 56.10 LIG 0.24  C 
ATOM     23  N   ASN B  18      -9.752 -29.039  -6.060  1.00 65.39 LIG-0.35  N 
ATOM     24 H    ASN B  18      -9.012 -28.864  -5.658  1.00 65.39 LIG 0.16  HD
ATOM     25 O    TYR B  17     -11.237 -28.555  -7.649  1.00 61.36 LIG-0.27  OA
BRANCH 23 26
ATOM     26  CA  ASN B  18     -10.637 -29.968  -5.339  1.00 70.74 LIG 0.17  C 
BRANCH 26 27
ATOM     27  CB  ASN B  18     -10.721 -31.290  -6.118  1.00 84.74 LIG 0.14  C 
BRANCH 27 28
ATOM     28  CG  ASN B  18     -12.085 -31.491  -6.792  1.00 96.34 LIG 0.22  C 
ATOM     29 OD1  ASN B  18     -12.814 -30.523  -7.058  1.00 99.44 LIG-0.27  OA
ATOM     30  ND2 ASN B  18     -12.445 -32.754  -7.053  1.00 94.73 LIG-0.37  N 
ATOM     31 21HD ASN B  18     -13.205 -32.917  -7.419  1.00 94.73 LIG 0.16  HD
ATOM     32 22HD ASN B  18     -11.915 -33.402  -6.855  1.00 94.73 LIG 0.16  HD
ENDBRANCH 27 28
ENDBRANCH 26 27
BRANCH 26 33
ATOM     33  C   ASN B  18     -10.370 -30.207  -3.834  1.00 72.97 LIG 0.22  C 
ATOM     34 O    ASN B  18     -10.993 -29.614  -2.941  1.00 74.17 LIG-0.29  OA
ENDBRANCH 26 33
ENDBRANCH 23 26
ENDBRANCH 21 22
BRANCH 21 35
ATOM     35  CB  TYR B  17      -8.890 -26.445  -7.408  1.00 54.83 LIG 0.07  C 
BRANCH 35 36
ATOM     36  CG  TYR B  17     -10.128 -26.020  -6.716  1.00 56.96 LIG-0.06  A 
ATOM     37  CD2 TYR B  17     -10.188 -26.027  -5.317  1.00 61.26 LIG 0.01  A 
ATOM     38  CE2 TYR B  17     -11.332 -25.648  -4.654  1.00 70.21 LIG 0.04  A 
ATOM     39  CZ  TYR B  17     -12.436 -25.272  -5.398  1.00 76.40 LIG 0.07  A 
ATOM     40  CE1 TYR B  17     -12.403 -25.265  -6.788  1.00 67.10 LIG 0.04  A 
ATOM     41  CD1 TYR B  17     -11.243 -25.647  -7.435  1.00 57.92 LIG 0.01  A 
BRANCH 39 42
ATOM     42 OH   TYR B  17     -13.574 -24.903  -4.742  1.00 89.25 LIG-0.36  OA
ATOM     43 HH   TYR B  17     -13.404 -24.267  -4.221  1.00 89.25 LIG 0.22  HD
ENDBRANCH 39 42
ENDBRANCH 35 36
ENDBRANCH 21 35
ENDBRANCH 19 21
ENDBRANCH 12 17
ENDBRANCH 9 12
ENDBRANCH 4 8
BRANCH 1 44
ATOM     44  CA  ARG B  14      -5.830 -28.741 -16.104  1.00 32.45 LIG 0.18  C 
BRANCH 44 45
ATOM     45  N   ARG B  14      -4.754 -28.176 -15.321  1.00 38.19 LIG-0.35  N 
ATOM     46 H    ARG B  14      -4.080 -28.702 -15.230  1.00 38.19 LIG 0.16  HD
ATOM     47  C   PRO B  13      -4.802 -26.951 -14.790  1.00 38.91 LIG 0.24  C 
ATOM     48 O    PRO B  13      -5.744 -26.198 -14.932  1.00 32.88 LIG-0.27  OA
BRANCH 47 49
ATOM     49  CA  PRO B  13      -3.554 -26.499 -14.004  1.00 38.31 LIG 0.18  C 
ATOM     50  N   PRO B  13      -3.428 -25.062 -13.878  1.00 38.88 LIG-0.34  N 
ATOM     51  CD  PRO B  13      -3.190 -24.662 -12.483  1.00 43.50 LIG 0.13  C 
ATOM     52  C   PRO B  12      -3.490 -24.201 -14.906  1.00 40.77 LIG 0.26  C 
ATOM     53  CG  PRO B  13      -2.852 -25.945 -11.804  1.00 43.53 LIG 0.02  C 
ATOM     54  CB  PRO B  13      -3.619 -26.974 -12.553  1.00 39.91 LIG 0.04  C 
ATOM     55 O    PRO B  12      -3.599 -24.553 -16.090  1.00 44.45 LIG-0.27  OA
BRANCH 52 56
ATOM     56  CA  PRO B  12      -3.422 -22.731 -14.576  1.00 38.46 LIG 0.35  C 
ATOM     57  CB  PRO B  12      -3.505 -21.927 -15.875  1.00 43.42 LIG 0.05  C 
ATOM     58  CG  PRO B  12      -2.541 -20.826 -15.704  1.00 41.12 LIG 0.04  C 
ATOM     59  CD  PRO B  12      -1.431 -21.394 -14.869  1.00 39.74 LIG 0.32  C 
ATOM     60  N   PRO B  12      -2.107 -22.419 -14.070  1.00 38.12 LIG 0.32  N 
ENDBRANCH 52 56
ENDBRANCH 47 49
ENDBRANCH 44 45
BRANCH 44 61
ATOM     61  CB  ARG B  14      -5.264 -29.906 -16.923  1.00 34.42 LIG 0.04  C 
BRANCH 61 62
ATOM     62  CG  ARG B  14      -5.893 -30.084 -18.305  1.00 32.66 LIG 0.02  C 
BRANCH 62 63
ATOM     63  CD  ARG B  14      -5.423 -28.968 -19.216  1.00 35.24 LIG 0.14  C 
BRANCH 63 64
ATOM     64  NE  ARG B  14      -6.412 -27.884 -19.352  1.00 42.22 LIG-0.23  N 
ATOM     65  CZ  ARG B  14      -6.317 -26.663 -18.823  1.00 44.72 LIG 0.67  C 
ATOM     66  NH2 ARG B  14      -5.286 -26.309 -18.078  1.00 43.48 LIG-0.23  N 
ATOM     67  NH1 ARG B  14      -7.280 -25.785 -19.031  1.00 46.51 LIG-0.23  N 
ATOM     68 1HH2 ARG B  14      -4.654 -26.872 -17.923  1.00 43.48 LIG 0.17  HD
ATOM     69 2HH2 ARG B  14      -5.247 -25.516 -17.747  1.00 43.48 LIG 0.17  HD
ATOM     70 2HH1 ARG B  14      -7.224 -24.996 -18.692  1.00 46.51 LIG 0.17  HD
ATOM     71 1HH1 ARG B  14      -7.963 -26.000 -19.505  1.00 46.51 LIG 0.17  HD
ATOM     72 HE   ARG B  14      -7.117 -28.055 -19.816  1.00 42.22 LIG 0.18  HD
ENDBRANCH 63 64
ENDBRANCH 62 63
ENDBRANCH 61 62
ENDBRANCH 44 61
ENDBRANCH 1 44
TORSDOF 22
ENDMDL
MODEL 93
USER: ADFR SOLUTION from run 42
USER: SCORE 22.039357 LL:  -4.564 LR: -18.459 RR:   0.000 FEB: -11.896
USER: RMSD 12.812088
USER: SEED 41
USER: STATUS searching
USER: GENES 24
USER: genes 0 Translation |==|  0.62110 0.47045 0.37572
USER: genes 1 Rotation |==|  0.27806 0.07426 0.36144 0.51713
USER: genes 2 Torsion [N]-CA--C-[O] |==|  0.81119
USER: genes 3 Torsion [C]-N--CA-[CB] |==|  0.47222
USER: genes 4 Torsion [N]-CA--CB-[CG2] |==|  0.08089
USER: genes 5 Torsion [CA]-CB--CG1-[CD1] |==|  0.22051
USER: genes 6 Torsion [N]-CA--C-[N] |==|  0.40660
USER: genes 7 Torsion [C]-N--CA-[C] |==|  0.85324
USER: genes 8 Torsion [N]-CA--C-[N] |==|  0.37161
USER: genes 9 Torsion [C]-N--CA-[CB] |==|  0.44185
USER: genes 10 Torsion [N]-CA--CB-[CG] |==|  0.80115
USER: genes 11 Torsion [CA]-CB--CG-[ND2] |==|  0.53153
USER: genes 12 Torsion [N]-CA--C-[O] |==|  0.15991
USER: genes 13 Torsion [N]-CA--CB-[CG] |==|  0.60975
USER: genes 14 Torsion [CA]-CB--CG-[CD2] |==|  0.64691
USER: genes 15 Torsion [CE2]-CZ--OH-[HH] |==|  0.75048
USER: genes 16 Torsion [N]-C--CA-[N] |==|  0.35061
USER: genes 17 Torsion [C]-CA--N-[C] |==|  0.81733
USER: genes 18 Torsion [N]-C--CA-[N] |==|  0.47406
USER: genes 19 Torsion [N]-C--CA-[CB] |==|  0.62444
USER: genes 20 Torsion [C]-CA--CB-[CG] |==|  0.53562
USER: genes 21 Torsion [CA]-CB--CG-[CD] |==|  0.36324
USER: genes 22 Torsion [CB]-CG--CD-[NE] |==|  0.73787
USER: genes 23 Torsion [CG]-CD--NE-[CZ] |==|  0.68881
ROOT
ATOM      1  C   ARG B  14      -6.724 -29.200 -15.382  1.00 32.92 LIG 0.24  C 
ATOM      2 O    ARG B  14      -7.935 -29.064 -15.565  1.00 37.82 LIG-0.27  OA
ATOM      3  N   PRO B  15      -6.212 -29.823 -14.317  1.00 31.88 LIG-0.34  N 
ATOM      4  CA  PRO B  15      -7.102 -30.422 -13.317  1.00 30.79 LIG 0.18  C 
ATOM      5  CB  PRO B  15      -6.138 -31.078 -12.350  1.00 31.22 LIG 0.04  C 
ATOM      6  CG  PRO B  15      -4.971 -31.427 -13.218  1.00 29.82 LIG 0.02  C 
ATOM      7  CD  PRO B  15      -4.815 -30.236 -14.107  1.00 31.43 LIG 0.13  C 
ENDROOT
BRANCH 4 8
ATOM      8  C   PRO B  15      -7.873 -29.338 -12.607  1.00 33.68 LIG 0.24  C 
ATOM      9  N   ILE B  16      -9.161 -29.262 -12.882  1.00 35.41 LIG-0.35  N 
ATOM     10 H    ILE B  16      -9.560 -29.741 -13.475  1.00 35.41 LIG 0.16  HD
ATOM     11 O    PRO B  15      -7.300 -28.555 -11.866  1.00 34.05 LIG-0.27  OA
BRANCH 9 12
ATOM     12  CA  ILE B  16      -9.992 -28.360 -12.198  1.00 37.77 LIG 0.18  C 
BRANCH 12 13
ATOM     13  CB  ILE B  16     -11.368 -28.270 -12.839  1.00 42.27 LIG 0.01  C 
ATOM     14  CG2 ILE B  16     -11.709 -29.573 -13.503  1.00 44.80 LIG 0.01  C 
BRANCH 13 15
ATOM     15  CG1 ILE B  16     -12.387 -27.883 -11.753  1.00 47.53 LIG 0.00  C 
ATOM     16  CD1 ILE B  16     -12.431 -26.405 -11.379  1.00 51.74 LIG 0.01  C 
ENDBRANCH 13 15
ENDBRANCH 12 13
BRANCH 12 17
ATOM     17  C   ILE B  16     -10.028 -28.851 -10.787  1.00 42.33 LIG 0.24  C 
ATOM     18 O    ILE B  16      -9.930 -30.019 -10.532  1.00 39.29 LIG-0.27  OA
ATOM     19  N   TYR B  17     -10.119 -27.906  -9.870  1.00 46.96 LIG-0.35  N 
ATOM     20 H    TYR B  17     -10.297 -27.086 -10.058  1.00 46.96 LIG 0.16  HD
BRANCH 19 21
ATOM     21  CA  TYR B  17      -9.933 -28.145  -8.466  1.00 51.19 LIG 0.18  C 
BRANCH 21 22
ATOM     22  C   TYR B  17     -10.813 -29.257  -8.021  1.00 56.10 LIG 0.24  C 
ATOM     23  N   ASN B  18     -10.277 -30.192  -7.261  1.00 65.39 LIG-0.35  N 
ATOM     24 H    ASN B  18      -9.506 -30.125  -6.887  1.00 65.39 LIG 0.16  HD
ATOM     25 O    TYR B  17     -11.996 -29.233  -8.305  1.00 61.36 LIG-0.27  OA
BRANCH 23 26
ATOM     26  CA  ASN B  18     -10.983 -31.455  -6.991  1.00 70.74 LIG 0.17  C 
BRANCH 26 27
ATOM     27  CB  ASN B  18      -9.962 -32.517  -6.553  1.00 84.74 LIG 0.14  C 
BRANCH 27 28
ATOM     28  CG  ASN B  18      -9.075 -32.992  -7.711  1.00 96.34 LIG 0.22  C 
ATOM     29 OD1  ASN B  18      -9.079 -32.403  -8.802  1.00 99.44 LIG-0.27  OA
ATOM     30  ND2 ASN B  18      -8.321 -34.076  -7.483  1.00 94.73 LIG-0.37  N 
ATOM     31 21HD ASN B  18      -7.816 -34.387  -8.105  1.00 94.73 LIG 0.16  HD
ATOM     32 22HD ASN B  18      -8.342 -34.461  -6.714  1.00 94.73 LIG 0.16  HD
ENDBRANCH 27 28
ENDBRANCH 26 27
BRANCH 26 33
ATOM     33  C   ASN B  18     -12.209 -31.417  -6.047  1.00 72.97 LIG 0.22  C 
ATOM     34 O    ASN B  18     -13.199 -30.702  -6.265  1.00 74.17 LIG-0.29  OA
ENDBRANCH 26 33
ENDBRANCH 23 26
ENDBRANCH 21 22
BRANCH 21 35
ATOM     35  CB  TYR B  17     -10.374 -26.900  -7.715  1.00 54.83 LIG 0.07  C 
BRANCH 35 36
ATOM     36  CG  TYR B  17      -9.469 -26.608  -6.579  1.00 56.96 LIG-0.06  A 
ATOM     37  CD2 TYR B  17      -9.992 -26.427  -5.293  1.00 61.26 LIG 0.01  A 
ATOM     38  CE2 TYR B  17      -9.171 -26.142  -4.226  1.00 70.21 LIG 0.04  A 
ATOM     39  CZ  TYR B  17      -7.811 -26.021  -4.451  1.00 76.40 LIG 0.07  A 
ATOM     40  CE1 TYR B  17      -7.269 -26.188  -5.720  1.00 67.10 LIG 0.04  A 
ATOM     41  CD1 TYR B  17      -8.111 -26.475  -6.778  1.00 57.92 LIG 0.01  A 
BRANCH 39 42
ATOM     42 OH   TYR B  17      -6.996 -25.731  -3.396  1.00 89.25 LIG-0.36  OA
ATOM     43 HH   TYR B  17      -6.922 -24.898  -3.319  1.00 89.25 LIG 0.22  HD
ENDBRANCH 39 42
ENDBRANCH 35 36
ENDBRANCH 21 35
ENDBRANCH 19 21
ENDBRANCH 12 17
ENDBRANCH 9 12
ENDBRANCH 4 8
BRANCH 1 44
ATOM     44  CA  ARG B  14      -5.764 -28.602 -16.367  1.00 32.45 LIG 0.18  C 
BRANCH 44 45
ATOM     45  N   ARG B  14      -6.177 -29.183 -17.625  1.00 38.19 LIG-0.35  N 
ATOM     46 H    ARG B  14      -6.492 -28.610 -18.184  1.00 38.19 LIG 0.16  HD
ATOM     47  C   PRO B  13      -6.079 -30.488 -17.895  1.00 38.91 LIG 0.24  C 
ATOM     48 O    PRO B  13      -5.619 -31.298 -17.115  1.00 32.88 LIG-0.27  OA
BRANCH 47 49
ATOM     49  CA  PRO B  13      -6.544 -30.933 -19.296  1.00 38.31 LIG 0.18  C 
ATOM     50  N   PRO B  13      -6.222 -32.307 -19.614  1.00 38.88 LIG-0.34  N 
ATOM     51  CD  PRO B  13      -7.397 -33.035 -20.116  1.00 43.50 LIG 0.13  C 
ATOM     52  C   PRO B  12      -4.998 -32.848 -19.495  1.00 40.77 LIG 0.26  C 
ATOM     53  CG  PRO B  13      -8.383 -31.954 -20.399  1.00 43.53 LIG 0.02  C 
ATOM     54  CB  PRO B  13      -8.069 -30.895 -19.405  1.00 39.91 LIG 0.04  C 
ATOM     55 O    PRO B  12      -3.994 -32.203 -19.159  1.00 44.45 LIG-0.27  OA
BRANCH 52 56
ATOM     56  CA  PRO B  12      -4.866 -34.320 -19.792  1.00 38.46 LIG 0.35  C 
ATOM     57  CB  PRO B  12      -4.007 -34.970 -18.705  1.00 43.42 LIG 0.05  C 
ATOM     58  CG  PRO B  12      -3.149 -35.930 -19.420  1.00 41.12 LIG 0.04  C 
ATOM     59  CD  PRO B  12      -2.884 -35.307 -20.760  1.00 39.74 LIG 0.32  C 
ATOM     60  N   PRO B  12      -4.080 -34.493 -20.990  1.00 38.12 LIG 0.32  N 
ENDBRANCH 52 56
ENDBRANCH 47 49
ENDBRANCH 44 45
BRANCH 44 61
ATOM     61  CB  ARG B  14      -6.003 -27.090 -16.438  1.00 34.42 LIG 0.04  C 
BRANCH 61 62
ATOM     62  CG  ARG B  14      -5.321 -26.387 -17.612  1.00 32.66 LIG 0.02  C 
BRANCH 62 63
ATOM     63  CD  ARG B  14      -6.329 -25.508 -18.322  1.00 35.24 LIG 0.14  C 
BRANCH 63 64
ATOM     64  NE  ARG B  14      -6.968 -26.178 -19.469  1.00 42.22 LIG-0.23  N 
ATOM     65  CZ  ARG B  14      -6.804 -25.860 -20.755  1.00 44.72 LIG 0.67  C 
ATOM     66  NH2 ARG B  14      -6.033 -24.856 -21.128  1.00 43.48 LIG-0.23  N 
ATOM     67  NH1 ARG B  14      -7.438 -26.553 -21.683  1.00 46.51 LIG-0.23  N 
ATOM     68 1HH2 ARG B  14      -5.621 -24.388 -20.536  1.00 43.48 LIG 0.17  HD
ATOM     69 2HH2 ARG B  14      -5.943 -24.671 -21.963  1.00 43.48 LIG 0.17  HD
ATOM     70 2HH1 ARG B  14      -7.336 -26.352 -22.514  1.00 46.51 LIG 0.17  HD
ATOM     71 1HH1 ARG B  14      -7.951 -27.204 -21.459  1.00 46.51 LIG 0.17  HD
ATOM     72 HE   ARG B  14      -7.495 -26.835 -19.293  1.00 42.22 LIG 0.18  HD
ENDBRANCH 63 64
ENDBRANCH 62 63
ENDBRANCH 61 62
ENDBRANCH 44 61
ENDBRANCH 1 44
TORSDOF 22
ENDMDL
MODEL 94
USER: ADFR SOLUTION from run 123
USER: SCORE 21.173147 LL:  -5.061 LR: -18.436 RR:   0.000 FEB: -11.873
USER: RMSD 5.891970
USER: SEED 122
USER: STATUS no improvement in best in 13 clusters for 5 generations
USER: GENES 24
USER: genes 0 Translation |==|  0.49732 0.52867 0.66095
USER: genes 1 Rotation |==|  0.33413 0.70342 0.79787 0.80394
USER: genes 2 Torsion [N]-CA--C-[O] |==|  0.73586
USER: genes 3 Torsion [C]-N--CA-[CB] |==|  0.29110
USER: genes 4 Torsion [N]-CA--CB-[CG2] |==|  0.57597
USER: genes 5 Torsion [CA]-CB--CG1-[CD1] |==|  0.74936
USER: genes 6 Torsion [N]-CA--C-[N] |==|  0.33247
USER: genes 7 Torsion [C]-N--CA-[C] |==|  0.17551
USER: genes 8 Torsion [N]-CA--C-[N] |==|  0.58687
USER: genes 9 Torsion [C]-N--CA-[CB] |==|  0.26452
USER: genes 10 Torsion [N]-CA--CB-[CG] |==|  0.50597
USER: genes 11 Torsion [CA]-CB--CG-[ND2] |==|  0.12335
USER: genes 12 Torsion [N]-CA--C-[O] |==|  0.98516
USER: genes 13 Torsion [N]-CA--CB-[CG] |==|  0.73990
USER: genes 14 Torsion [CA]-CB--CG-[CD2] |==|  0.93534
USER: genes 15 Torsion [CE2]-CZ--OH-[HH] |==|  0.18231
USER: genes 16 Torsion [N]-C--CA-[N] |==|  0.31883
USER: genes 17 Torsion [C]-CA--N-[C] |==|  0.66788
USER: genes 18 Torsion [N]-C--CA-[N] |==|  0.76931
USER: genes 19 Torsion [N]-C--CA-[CB] |==|  0.59646
USER: genes 20 Torsion [C]-CA--CB-[CG] |==|  0.27994
USER: genes 21 Torsion [CA]-CB--CG-[CD] |==|  0.14177
USER: genes 22 Torsion [CB]-CG--CD-[NE] |==|  0.19200
USER: genes 23 Torsion [CG]-CD--NE-[CZ] |==|  0.50651
ROOT
ATOM      1  C   ARG B  14      -9.509 -28.108  -7.467  1.00 32.92 LIG 0.24  C 
ATOM      2 O    ARG B  14      -8.589 -27.827  -8.236  1.00 37.82 LIG-0.27  OA
ATOM      3  N   PRO B  15     -10.184 -29.260  -7.525  1.00 31.88 LIG-0.34  N 
ATOM      4  CA  PRO B  15      -9.814 -30.279  -8.511  1.00 30.79 LIG 0.18  C 
ATOM      5  CB  PRO B  15     -10.751 -31.425  -8.187  1.00 31.22 LIG 0.04  C 
ATOM      6  CG  PRO B  15     -10.984 -31.267  -6.718  1.00 29.82 LIG 0.02  C 
ATOM      7  CD  PRO B  15     -11.135 -29.792  -6.534  1.00 31.43 LIG 0.13  C 
ENDROOT
BRANCH 4 8
ATOM      8  C   PRO B  15     -10.100 -29.770  -9.901  1.00 33.68 LIG 0.24  C 
ATOM      9  N   ILE B  16      -9.184 -28.984 -10.435  1.00 35.41 LIG-0.35  N 
ATOM     10 H    ILE B  16      -8.484 -28.703 -10.020  1.00 35.41 LIG 0.16  HD
ATOM     11 O    PRO B  15     -11.153 -30.042 -10.456  1.00 34.05 LIG-0.27  OA
BRANCH 9 12
ATOM     12  CA  ILE B  16      -9.299 -28.541 -11.762  1.00 37.77 LIG 0.18  C 
BRANCH 12 13
ATOM     13  CB  ILE B  16      -9.730 -27.084 -11.831  1.00 42.27 LIG 0.01  C 
ATOM     14  CG2 ILE B  16     -10.466 -26.829 -13.114  1.00 44.80 LIG 0.01  C 
BRANCH 13 15
ATOM     15  CG1 ILE B  16     -10.587 -26.771 -10.592  1.00 47.53 LIG 0.00  C 
ATOM     16  CD1 ILE B  16     -12.087 -26.996 -10.747  1.00 51.74 LIG 0.01  C 
ENDBRANCH 13 15
ENDBRANCH 12 13
BRANCH 12 17
ATOM     17  C   ILE B  16      -7.961 -28.792 -12.379  1.00 42.33 LIG 0.24  C 
ATOM     18 O    ILE B  16      -6.964 -28.309 -11.919  1.00 39.29 LIG-0.27  OA
ATOM     19  N   TYR B  17      -7.968 -29.613 -13.412  1.00 46.96 LIG-0.35  N 
ATOM     20 H    TYR B  17      -8.691 -29.869 -13.803  1.00 46.96 LIG 0.16  HD
BRANCH 19 21
ATOM     21  CA  TYR B  17      -6.777 -30.165 -13.993  1.00 51.19 LIG 0.18  C 
BRANCH 21 22
ATOM     22  C   TYR B  17      -6.081 -31.024 -12.999  1.00 56.10 LIG 0.24  C 
ATOM     23  N   ASN B  18      -4.766 -31.095 -13.069  1.00 65.39 LIG-0.35  N 
ATOM     24 H    ASN B  18      -4.280 -30.571 -13.545  1.00 65.39 LIG 0.16  HD
ATOM     25 O    TYR B  17      -6.727 -31.567 -12.121  1.00 61.36 LIG-0.27  OA
BRANCH 23 26
ATOM     26  CA  ASN B  18      -4.013 -32.109 -12.312  1.00 70.74 LIG 0.17  C 
BRANCH 26 27
ATOM     27  CB  ASN B  18      -3.752 -33.322 -13.218  1.00 84.74 LIG 0.14  C 
BRANCH 27 28
ATOM     28  CG  ASN B  18      -3.015 -34.453 -12.490  1.00 96.34 LIG 0.22  C 
ATOM     29 OD1  ASN B  18      -2.078 -35.058 -13.034  1.00 99.44 LIG-0.27  OA
ATOM     30  ND2 ASN B  18      -3.448 -34.757 -11.260  1.00 94.73 LIG-0.37  N 
ATOM     31 21HD ASN B  18      -3.074 -35.392 -10.817  1.00 94.73 LIG 0.16  HD
ATOM     32 22HD ASN B  18      -4.101 -34.318 -10.913  1.00 94.73 LIG 0.16  HD
ENDBRANCH 27 28
ENDBRANCH 26 27
BRANCH 26 33
ATOM     33  C   ASN B  18      -2.731 -31.661 -11.571  1.00 72.97 LIG 0.22  C 
ATOM     34 O    ASN B  18      -2.266 -30.516 -11.669  1.00 74.17 LIG-0.29  OA
ENDBRANCH 26 33
ENDBRANCH 23 26
ENDBRANCH 21 22
BRANCH 21 35
ATOM     35  CB  TYR B  17      -5.838 -29.016 -14.322  1.00 54.83 LIG 0.07  C 
BRANCH 35 36
ATOM     36  CG  TYR B  17      -6.010 -28.565 -15.722  1.00 56.96 LIG-0.06  A 
ATOM     37  CD2 TYR B  17      -6.546 -29.435 -16.679  1.00 61.26 LIG 0.01  A 
ATOM     38  CE2 TYR B  17      -6.703 -29.041 -17.988  1.00 70.21 LIG 0.04  A 
ATOM     39  CZ  TYR B  17      -6.305 -27.765 -18.349  1.00 76.40 LIG 0.07  A 
ATOM     40  CE1 TYR B  17      -5.762 -26.887 -17.418  1.00 67.10 LIG 0.04  A 
ATOM     41  CD1 TYR B  17      -5.615 -27.302 -16.107  1.00 57.92 LIG 0.01  A 
BRANCH 39 42
ATOM     42 OH   TYR B  17      -6.452 -27.375 -19.648  1.00 89.25 LIG-0.36  OA
ATOM     43 HH   TYR B  17      -7.269 -27.338 -19.838  1.00 89.25 LIG 0.22  HD
ENDBRANCH 39 42
ENDBRANCH 35 36
ENDBRANCH 21 35
ENDBRANCH 19 21
ENDBRANCH 12 17
ENDBRANCH 9 12
ENDBRANCH 4 8
BRANCH 1 44
ATOM     44  CA  ARG B  14      -9.937 -27.102  -6.440  1.00 32.45 LIG 0.18  C 
BRANCH 44 45
ATOM     45  N   ARG B  14      -8.798 -27.030  -5.553  1.00 38.19 LIG-0.35  N 
ATOM     46 H    ARG B  14      -8.074 -26.773  -5.940  1.00 38.19 LIG 0.16  HD
ATOM     47  C   PRO B  13      -8.863 -27.333  -4.253  1.00 38.91 LIG 0.24  C 
ATOM     48 O    PRO B  13      -9.886 -27.680  -3.699  1.00 32.88 LIG-0.27  OA
BRANCH 47 49
ATOM     49  CA  PRO B  13      -7.556 -27.178  -3.449  1.00 38.31 LIG 0.18  C 
ATOM     50  N   PRO B  13      -6.665 -28.314  -3.550  1.00 38.88 LIG-0.34  N 
ATOM     51  CD  PRO B  13      -5.298 -27.899  -3.895  1.00 43.50 LIG 0.13  C 
ATOM     52  C   PRO B  12      -7.029 -29.588  -3.329  1.00 40.77 LIG 0.26  C 
ATOM     53  CG  PRO B  13      -5.316 -26.423  -3.684  1.00 43.53 LIG 0.02  C 
ATOM     54  CB  PRO B  13      -6.714 -26.022  -3.990  1.00 39.91 LIG 0.04  C 
ATOM     55 O    PRO B  12      -8.162 -29.921  -2.948  1.00 44.45 LIG-0.27  OA
BRANCH 52 56
ATOM     56  CA  PRO B  12      -5.987 -30.652  -3.563  1.00 38.46 LIG 0.35  C 
ATOM     57  CB  PRO B  12      -6.671 -31.905  -4.110  1.00 43.42 LIG 0.05  C 
ATOM     58  CG  PRO B  12      -6.000 -33.031  -3.437  1.00 41.12 LIG 0.04  C 
ATOM     59  CD  PRO B  12      -5.638 -32.521  -2.073  1.00 39.74 LIG 0.32  C 
ATOM     60  N   PRO B  12      -5.457 -31.084  -2.292  1.00 38.12 LIG 0.32  N 
ENDBRANCH 52 56
ENDBRANCH 47 49
ENDBRANCH 44 45
BRANCH 44 61
ATOM     61  CB  ARG B  14     -10.100 -25.738  -7.119  1.00 34.42 LIG 0.04  C 
BRANCH 61 62
ATOM     62  CG  ARG B  14     -11.543 -25.349  -7.439  1.00 32.66 LIG 0.02  C 
BRANCH 62 63
ATOM     63  CD  ARG B  14     -12.392 -25.512  -6.195  1.00 35.24 LIG 0.14  C 
BRANCH 63 64
ATOM     64  NE  ARG B  14     -12.074 -24.524  -5.149  1.00 42.22 LIG-0.23  N 
ATOM     65  CZ  ARG B  14     -12.629 -24.456  -3.937  1.00 44.72 LIG 0.67  C 
ATOM     66  NH2 ARG B  14     -13.572 -25.299  -3.559  1.00 43.48 LIG-0.23  N 
ATOM     67  NH1 ARG B  14     -12.243 -23.517  -3.094  1.00 46.51 LIG-0.23  N 
ATOM     68 1HH2 ARG B  14     -13.843 -25.912  -4.099  1.00 43.48 LIG 0.17  HD
ATOM     69 2HH2 ARG B  14     -13.914 -25.236  -2.772  1.00 43.48 LIG 0.17  HD
ATOM     70 2HH1 ARG B  14     -12.597 -23.468  -2.312  1.00 46.51 LIG 0.17  HD
ATOM     71 1HH1 ARG B  14     -11.637 -22.953  -3.327  1.00 46.51 LIG 0.17  HD
ATOM     72 HE   ARG B  14     -11.475 -23.935  -5.337  1.00 42.22 LIG 0.18  HD
ENDBRANCH 63 64
ENDBRANCH 62 63
ENDBRANCH 61 62
ENDBRANCH 44 61
ENDBRANCH 1 44
TORSDOF 22
ENDMDL
MODEL 95
USER: ADFR SOLUTION from run 101
USER: SCORE 22.347575 LL:  -5.970 LR: -18.430 RR:   0.000 FEB: -11.867
USER: RMSD 12.720037
USER: SEED 100
USER: STATUS no improvement in best in 6 clusters for 5 generations
USER: GENES 24
USER: genes 0 Translation |==|  0.59130 0.46836 0.49253
USER: genes 1 Rotation |==|  0.89363 0.37379 0.75159 0.62582
USER: genes 2 Torsion [N]-CA--C-[O] |==|  0.06539
USER: genes 3 Torsion [C]-N--CA-[CB] |==|  0.35749
USER: genes 4 Torsion [N]-CA--CB-[CG2] |==|  0.30641
USER: genes 5 Torsion [CA]-CB--CG1-[CD1] |==|  0.81362
USER: genes 6 Torsion [N]-CA--C-[N] |==|  0.41183
USER: genes 7 Torsion [C]-N--CA-[C] |==|  0.63711
USER: genes 8 Torsion [N]-CA--C-[N] |==|  0.33502
USER: genes 9 Torsion [C]-N--CA-[CB] |==|  0.20716
USER: genes 10 Torsion [N]-CA--CB-[CG] |==|  0.10847
USER: genes 11 Torsion [CA]-CB--CG-[ND2] |==|  0.32728
USER: genes 12 Torsion [N]-CA--C-[O] |==|  0.85299
USER: genes 13 Torsion [N]-CA--CB-[CG] |==|  0.87016
USER: genes 14 Torsion [CA]-CB--CG-[CD2] |==|  0.35110
USER: genes 15 Torsion [CE2]-CZ--OH-[HH] |==|  0.41308
USER: genes 16 Torsion [N]-C--CA-[N] |==|  0.32412
USER: genes 17 Torsion [C]-CA--N-[C] |==|  0.77739
USER: genes 18 Torsion [N]-C--CA-[N] |==|  0.34477
USER: genes 19 Torsion [N]-C--CA-[CB] |==|  0.78196
USER: genes 20 Torsion [C]-CA--CB-[CG] |==|  0.70573
USER: genes 21 Torsion [CA]-CB--CG-[CD] |==|  0.56187
USER: genes 22 Torsion [CB]-CG--CD-[NE] |==|  0.60408
USER: genes 23 Torsion [CG]-CD--NE-[CZ] |==|  0.42772
ROOT
ATOM      1  C   ARG B  14      -7.395 -29.239 -12.140  1.00 32.92 LIG 0.24  C 
ATOM      2 O    ARG B  14      -6.490 -28.634 -11.563  1.00 37.82 LIG-0.27  OA
ATOM      3  N   PRO B  15      -8.680 -28.886 -12.056  1.00 31.88 LIG-0.34  N 
ATOM      4  CA  PRO B  15      -9.068 -27.704 -11.281  1.00 30.79 LIG 0.18  C 
ATOM      5  CB  PRO B  15     -10.563 -27.620 -11.511  1.00 31.22 LIG 0.04  C 
ATOM      6  CG  PRO B  15     -10.732 -28.218 -12.871  1.00 29.82 LIG 0.02  C 
ATOM      7  CD  PRO B  15      -9.802 -29.388 -12.867  1.00 31.43 LIG 0.13  C 
ENDROOT
BRANCH 4 8
ATOM      8  C   PRO B  15      -8.793 -27.941  -9.817  1.00 33.68 LIG 0.24  C 
ATOM      9  N   ILE B  16      -9.455 -27.179  -8.968  1.00 35.41 LIG-0.35  N 
ATOM     10 H    ILE B  16      -9.971 -26.530  -9.198  1.00 35.41 LIG 0.16  HD
ATOM     11 O    PRO B  15      -7.959 -28.762  -9.470  1.00 34.05 LIG-0.27  OA
BRANCH 9 12
ATOM     12  CA  ILE B  16      -9.354 -27.387  -7.583  1.00 37.77 LIG 0.18  C 
BRANCH 12 13
ATOM     13  CB  ILE B  16      -9.012 -26.102  -6.847  1.00 42.27 LIG 0.01  C 
ATOM     14  CG2 ILE B  16     -10.194 -25.646  -6.039  1.00 44.80 LIG 0.01  C 
BRANCH 13 15
ATOM     15  CG1 ILE B  16      -7.770 -26.355  -5.974  1.00 47.53 LIG 0.00  C 
ATOM     16  CD1 ILE B  16      -7.962 -27.322  -4.810  1.00 51.74 LIG 0.01  C 
ENDBRANCH 13 15
ENDBRANCH 12 13
BRANCH 12 17
ATOM     17  C   ILE B  16     -10.668 -27.971  -7.176  1.00 42.33 LIG 0.24  C 
ATOM     18 O    ILE B  16     -11.675 -27.712  -7.773  1.00 39.29 LIG-0.27  OA
ATOM     19  N   TYR B  17     -10.614 -28.816  -6.163  1.00 46.96 LIG-0.35  N 
ATOM     20 H    TYR B  17      -9.914 -28.915  -5.672  1.00 46.96 LIG 0.16  HD
BRANCH 19 21
ATOM     21  CA  TYR B  17     -11.711 -29.656  -5.773  1.00 51.19 LIG 0.18  C 
BRANCH 21 22
ATOM     22  C   TYR B  17     -11.943 -29.538  -4.309  1.00 56.10 LIG 0.24  C 
ATOM     23  N   ASN B  18     -13.127 -29.117  -3.911  1.00 65.39 LIG-0.35  N 
ATOM     24 H    ASN B  18     -13.813 -29.051  -4.426  1.00 65.39 LIG 0.16  HD
ATOM     25 O    TYR B  17     -11.074 -29.897  -3.536  1.00 61.36 LIG-0.27  OA
BRANCH 23 26
ATOM     26  CA  ASN B  18     -13.368 -28.718  -2.515  1.00 70.74 LIG 0.17  C 
BRANCH 26 27
ATOM     27  CB  ASN B  18     -12.721 -27.348  -2.265  1.00 84.74 LIG 0.14  C 
BRANCH 27 28
ATOM     28  CG  ASN B  18     -12.879 -26.395  -3.457  1.00 96.34 LIG 0.22  C 
ATOM     29 OD1  ASN B  18     -12.369 -26.659  -4.557  1.00 99.44 LIG-0.27  OA
ATOM     30  ND2 ASN B  18     -13.573 -25.271  -3.238  1.00 94.73 LIG-0.37  N 
ATOM     31 21HD ASN B  18     -13.678 -24.701  -3.873  1.00 94.73 LIG 0.16  HD
ATOM     32 22HD ASN B  18     -13.913 -25.119  -2.463  1.00 94.73 LIG 0.16  HD
ENDBRANCH 27 28
ENDBRANCH 26 27
BRANCH 26 33
ATOM     33  C   ASN B  18     -14.821 -28.771  -1.983  1.00 72.97 LIG 0.22  C 
ATOM     34 O    ASN B  18     -15.765 -28.212  -2.559  1.00 74.17 LIG-0.29  OA
ENDBRANCH 26 33
ENDBRANCH 23 26
ENDBRANCH 21 22
BRANCH 21 35
ATOM     35  CB  TYR B  17     -11.320 -31.098  -6.048  1.00 54.83 LIG 0.07  C 
BRANCH 35 36
ATOM     36  CG  TYR B  17     -10.727 -31.248  -7.396  1.00 56.96 LIG-0.06  A 
ATOM     37  CD2 TYR B  17      -9.474 -31.854  -7.548  1.00 61.26 LIG 0.01  A 
ATOM     38  CE2 TYR B  17      -8.898 -31.992  -8.790  1.00 70.21 LIG 0.04  A 
ATOM     39  CZ  TYR B  17      -9.577 -31.504  -9.894  1.00 76.40 LIG 0.07  A 
ATOM     40  CE1 TYR B  17     -10.818 -30.891  -9.766  1.00 67.10 LIG 0.04  A 
ATOM     41  CD1 TYR B  17     -11.380 -30.764  -8.509  1.00 57.92 LIG 0.01  A 
BRANCH 39 42
ATOM     42 OH   TYR B  17      -9.004 -31.633 -11.125  1.00 89.25 LIG-0.36  OA
ATOM     43 HH   TYR B  17      -9.605 -31.717 -11.706  1.00 89.25 LIG 0.22  HD
ENDBRANCH 39 42
ENDBRANCH 35 36
ENDBRANCH 21 35
ENDBRANCH 19 21
ENDBRANCH 12 17
ENDBRANCH 9 12
ENDBRANCH 4 8
BRANCH 1 44
ATOM     44  CA  ARG B  14      -7.059 -30.461 -12.943  1.00 32.45 LIG 0.18  C 
BRANCH 44 45
ATOM     45  N   ARG B  14      -6.245 -29.938 -14.017  1.00 38.19 LIG-0.35  N 
ATOM     46 H    ARG B  14      -5.401 -30.045 -13.894  1.00 38.19 LIG 0.16  HD
ATOM     47  C   PRO B  13      -6.756 -29.344 -15.099  1.00 38.91 LIG 0.24  C 
ATOM     48 O    PRO B  13      -7.949 -29.206 -15.284  1.00 32.88 LIG-0.27  OA
BRANCH 47 49
ATOM     49  CA  PRO B  13      -5.743 -28.866 -16.159  1.00 38.31 LIG 0.18  C 
ATOM     50  N   PRO B  13      -5.980 -29.400 -17.483  1.00 38.88 LIG-0.34  N 
ATOM     51  CD  PRO B  13      -5.991 -28.338 -18.499  1.00 43.50 LIG 0.13  C 
ATOM     52  C   PRO B  12      -6.142 -30.705 -17.758  1.00 40.77 LIG 0.26  C 
ATOM     53  CG  PRO B  13      -5.425 -27.161 -17.781  1.00 43.53 LIG 0.02  C 
ATOM     54  CB  PRO B  13      -5.839 -27.355 -16.367  1.00 39.91 LIG 0.04  C 
ATOM     55 O    PRO B  12      -6.041 -31.603 -16.909  1.00 44.45 LIG-0.27  OA
BRANCH 52 56
ATOM     56  CA  PRO B  12      -6.466 -31.071 -19.185  1.00 38.46 LIG 0.35  C 
ATOM     57  CB  PRO B  12      -7.949 -30.800 -19.442  1.00 43.42 LIG 0.05  C 
ATOM     58  CG  PRO B  12      -8.405 -31.932 -20.268  1.00 41.12 LIG 0.04  C 
ATOM     59  CD  PRO B  12      -7.599 -33.111 -19.808  1.00 39.74 LIG 0.32  C 
ATOM     60  N   PRO B  12      -6.351 -32.500 -19.344  1.00 38.12 LIG 0.32  N 
ENDBRANCH 52 56
ENDBRANCH 47 49
ENDBRANCH 44 45
BRANCH 44 61
ATOM     61  CB  ARG B  14      -6.188 -31.391 -12.092  1.00 34.42 LIG 0.04  C 
BRANCH 61 62
ATOM     62  CG  ARG B  14      -4.711 -31.425 -12.486  1.00 32.66 LIG 0.02  C 
BRANCH 62 63
ATOM     63  CD  ARG B  14      -4.091 -32.715 -11.989  1.00 35.24 LIG 0.14  C 
BRANCH 63 64
ATOM     64  NE  ARG B  14      -2.710 -32.540 -11.506  1.00 42.22 LIG-0.23  N 
ATOM     65  CZ  ARG B  14      -2.091 -33.303 -10.603  1.00 44.72 LIG 0.67  C 
ATOM     66  NH2 ARG B  14      -2.700 -34.319 -10.021  1.00 43.48 LIG-0.23  N 
ATOM     67  NH1 ARG B  14      -0.844 -33.033 -10.265  1.00 46.51 LIG-0.23  N 
ATOM     68 1HH2 ARG B  14      -3.516 -34.504 -10.221  1.00 43.48 LIG 0.17  HD
ATOM     69 2HH2 ARG B  14      -2.280 -34.797  -9.441  1.00 43.48 LIG 0.17  HD
ATOM     70 2HH1 ARG B  14      -0.440 -33.521  -9.683  1.00 46.51 LIG 0.17  HD
ATOM     71 1HH1 ARG B  14      -0.435 -32.369 -10.627  1.00 46.51 LIG 0.17  HD
ATOM     72 HE   ARG B  14      -2.261 -31.885 -11.837  1.00 42.22 LIG 0.18  HD
ENDBRANCH 63 64
ENDBRANCH 62 63
ENDBRANCH 61 62
ENDBRANCH 44 61
ENDBRANCH 1 44
TORSDOF 22
ENDMDL
MODEL 96
USER: ADFR SOLUTION from run 37
USER: SCORE 22.860313 LL:  -5.596 LR: -18.417 RR:   0.000 FEB: -11.855
USER: RMSD 6.144984
USER: SEED 36
USER: STATUS no improvement in best in 2 clusters for 5 generations
USER: GENES 24
USER: genes 0 Translation |==|  0.42656 0.60169 0.66661
USER: genes 1 Rotation |==|  0.77474 0.33649 0.14275 0.64197
USER: genes 2 Torsion [N]-CA--C-[O] |==|  0.90352
USER: genes 3 Torsion [C]-N--CA-[CB] |==|  0.23287
USER: genes 4 Torsion [N]-CA--CB-[CG2] |==|  0.72712
USER: genes 5 Torsion [CA]-CB--CG1-[CD1] |==|  0.23356
USER: genes 6 Torsion [N]-CA--C-[N] |==|  0.47907
USER: genes 7 Torsion [C]-N--CA-[C] |==|  0.85447
USER: genes 8 Torsion [N]-CA--C-[N] |==|  0.36935
USER: genes 9 Torsion [C]-N--CA-[CB] |==|  0.26159
USER: genes 10 Torsion [N]-CA--CB-[CG] |==|  0.12956
USER: genes 11 Torsion [CA]-CB--CG-[ND2] |==|  0.49630
USER: genes 12 Torsion [N]-CA--C-[O] |==|  0.96555
USER: genes 13 Torsion [N]-CA--CB-[CG] |==|  0.66893
USER: genes 14 Torsion [CA]-CB--CG-[CD2] |==|  0.07062
USER: genes 15 Torsion [CE2]-CZ--OH-[HH] |==|  0.65261
USER: genes 16 Torsion [N]-C--CA-[N] |==|  0.86667
USER: genes 17 Torsion [C]-CA--N-[C] |==|  0.81980
USER: genes 18 Torsion [N]-C--CA-[N] |==|  0.68121
USER: genes 19 Torsion [N]-C--CA-[CB] |==|  0.55180
USER: genes 20 Torsion [C]-CA--CB-[CG] |==|  0.53979
USER: genes 21 Torsion [CA]-CB--CG-[CD] |==|  0.29696
USER: genes 22 Torsion [CB]-CG--CD-[NE] |==|  0.21196
USER: genes 23 Torsion [CG]-CD--NE-[CZ] |==|  0.19919
ROOT
ATOM      1  C   ARG B  14     -11.101 -26.739  -7.310  1.00 32.92 LIG 0.24  C 
ATOM      2 O    ARG B  14     -11.324 -26.734  -8.522  1.00 37.82 LIG-0.27  OA
ATOM      3  N   PRO B  15      -9.887 -26.938  -6.791  1.00 31.88 LIG-0.34  N 
ATOM      4  CA  PRO B  15      -8.732 -27.124  -7.674  1.00 30.79 LIG 0.18  C 
ATOM      5  CB  PRO B  15      -7.573 -27.232  -6.704  1.00 31.22 LIG 0.04  C 
ATOM      6  CG  PRO B  15      -8.022 -26.400  -5.545  1.00 29.82 LIG 0.02  C 
ATOM      7  CD  PRO B  15      -9.468 -26.746  -5.393  1.00 31.43 LIG 0.13  C 
ENDROOT
BRANCH 4 8
ATOM      8  C   PRO B  15      -8.876 -28.416  -8.437  1.00 33.68 LIG 0.24  C 
ATOM      9  N   ILE B  16      -8.462 -28.404  -9.690  1.00 35.41 LIG-0.35  N 
ATOM     10 H    ILE B  16      -8.181 -27.702 -10.102  1.00 35.41 LIG 0.16  HD
ATOM     11 O    PRO B  15      -9.401 -29.388  -7.915  1.00 34.05 LIG-0.27  OA
BRANCH 9 12
ATOM     12  CA  ILE B  16      -8.452 -29.580 -10.457  1.00 37.77 LIG 0.18  C 
BRANCH 12 13
ATOM     13  CB  ILE B  16      -9.813 -29.856 -11.075  1.00 42.27 LIG 0.01  C 
ATOM     14  CG2 ILE B  16     -10.560 -30.857 -10.240  1.00 44.80 LIG 0.01  C 
BRANCH 13 15
ATOM     15  CG1 ILE B  16     -10.569 -28.522 -11.205  1.00 47.53 LIG 0.00  C 
ATOM     16  CD1 ILE B  16     -10.256 -27.699 -12.450  1.00 51.74 LIG 0.01  C 
ENDBRANCH 13 15
ENDBRANCH 12 13
BRANCH 12 17
ATOM     17  C   ILE B  16      -7.371 -29.380 -11.471  1.00 42.33 LIG 0.24  C 
ATOM     18 O    ILE B  16      -6.787 -28.336 -11.558  1.00 39.29 LIG-0.27  OA
ATOM     19  N   TYR B  17      -7.090 -30.442 -12.202  1.00 46.96 LIG-0.35  N 
ATOM     20 H    TYR B  17      -7.580 -31.148 -12.211  1.00 46.96 LIG 0.16  HD
BRANCH 19 21
ATOM     21  CA  TYR B  17      -5.940 -30.530 -13.058  1.00 51.19 LIG 0.18  C 
BRANCH 21 22
ATOM     22  C   TYR B  17      -5.894 -29.353 -13.966  1.00 56.10 LIG 0.24  C 
ATOM     23  N   ASN B  18      -4.742 -28.723 -14.088  1.00 65.39 LIG-0.35  N 
ATOM     24 H    ASN B  18      -3.992 -29.030 -13.802  1.00 65.39 LIG 0.16  HD
ATOM     25 O    TYR B  17      -6.882 -29.057 -14.612  1.00 61.36 LIG-0.27  OA
BRANCH 23 26
ATOM     26  CA  ASN B  18      -4.655 -27.409 -14.745  1.00 70.74 LIG 0.17  C 
BRANCH 26 27
ATOM     27  CB  ASN B  18      -4.741 -26.307 -13.678  1.00 84.74 LIG 0.14  C 
BRANCH 27 28
ATOM     28  CG  ASN B  18      -3.829 -26.580 -12.475  1.00 96.34 LIG 0.22  C 
ATOM     29 OD1  ASN B  18      -3.153 -27.618 -12.409  1.00 99.44 LIG-0.27  OA
ATOM     30  ND2 ASN B  18      -3.820 -25.655 -11.507  1.00 94.73 LIG-0.37  N 
ATOM     31 21HD ASN B  18      -3.333 -25.770 -10.807  1.00 94.73 LIG 0.16  HD
ATOM     32 22HD ASN B  18      -4.301 -24.946 -11.584  1.00 94.73 LIG 0.16  HD
ENDBRANCH 27 28
ENDBRANCH 26 27
BRANCH 26 33
ATOM     33  C   ASN B  18      -3.487 -27.162 -15.730  1.00 72.97 LIG 0.22  C 
ATOM     34 O    ASN B  18      -2.513 -27.924 -15.817  1.00 74.17 LIG-0.29  OA
ENDBRANCH 26 33
ENDBRANCH 23 26
ENDBRANCH 21 22
BRANCH 21 35
ATOM     35  CB  TYR B  17      -6.099 -31.762 -13.933  1.00 54.83 LIG 0.07  C 
BRANCH 35 36
ATOM     36  CG  TYR B  17      -4.999 -32.727 -13.709  1.00 56.96 LIG-0.06  A 
ATOM     37  CD2 TYR B  17      -4.316 -32.742 -12.487  1.00 61.26 LIG 0.01  A 
ATOM     38  CE2 TYR B  17      -3.283 -33.622 -12.262  1.00 70.21 LIG 0.04  A 
ATOM     39  CZ  TYR B  17      -2.917 -34.489 -13.277  1.00 76.40 LIG 0.07  A 
ATOM     40  CE1 TYR B  17      -3.575 -34.487 -14.501  1.00 67.10 LIG 0.04  A 
ATOM     41  CD1 TYR B  17      -4.612 -33.596 -14.707  1.00 57.92 LIG 0.01  A 
BRANCH 39 42
ATOM     42 OH   TYR B  17      -1.888 -35.357 -13.059  1.00 89.25 LIG-0.36  OA
ATOM     43 HH   TYR B  17      -1.308 -35.262 -13.659  1.00 89.25 LIG 0.22  HD
ENDBRANCH 39 42
ENDBRANCH 35 36
ENDBRANCH 21 35
ENDBRANCH 19 21
ENDBRANCH 12 17
ENDBRANCH 9 12
ENDBRANCH 4 8
BRANCH 1 44
ATOM     44  CA  ARG B  14     -12.245 -26.561  -6.356  1.00 32.45 LIG 0.18  C 
BRANCH 44 45
ATOM     45  N   ARG B  14     -12.074 -27.655  -5.426  1.00 38.19 LIG-0.35  N 
ATOM     46 H    ARG B  14     -11.896 -27.401  -4.623  1.00 38.19 LIG 0.16  HD
ATOM     47  C   PRO B  13     -12.181 -28.939  -5.779  1.00 38.91 LIG 0.24  C 
ATOM     48 O    PRO B  13     -12.449 -29.300  -6.907  1.00 32.88 LIG-0.27  OA
BRANCH 47 49
ATOM     49  CA  PRO B  13     -11.991 -29.975  -4.653  1.00 38.31 LIG 0.18  C 
ATOM     50  N   PRO B  13     -10.824 -30.815  -4.818  1.00 38.88 LIG-0.34  N 
ATOM     51  CD  PRO B  13     -10.010 -30.854  -3.594  1.00 43.50 LIG 0.13  C 
ATOM     52  C   PRO B  12     -10.531 -31.498  -5.937  1.00 40.77 LIG 0.26  C 
ATOM     53  CG  PRO B  13     -10.903 -30.258  -2.561  1.00 43.53 LIG 0.02  C 
ATOM     54  CB  PRO B  13     -11.742 -29.287  -3.311  1.00 39.91 LIG 0.04  C 
ATOM     55 O    PRO B  12     -11.270 -31.532  -6.932  1.00 44.45 LIG-0.27  OA
BRANCH 52 56
ATOM     56  CA  PRO B  12      -9.227 -32.255  -5.958  1.00 38.46 LIG 0.35  C 
ATOM     57  CB  PRO B  12      -8.856 -32.562  -7.410  1.00 43.42 LIG 0.05  C 
ATOM     58  CG  PRO B  12      -8.318 -33.933  -7.384  1.00 41.12 LIG 0.04  C 
ATOM     59  CD  PRO B  12      -9.083 -34.642  -6.306  1.00 39.74 LIG 0.32  C 
ATOM     60  N   PRO B  12      -9.428 -33.561  -5.378  1.00 38.12 LIG 0.32  N 
ENDBRANCH 52 56
ENDBRANCH 47 49
ENDBRANCH 44 45
BRANCH 44 61
ATOM     61  CB  ARG B  14     -12.054 -25.248  -5.590  1.00 34.42 LIG 0.04  C 
BRANCH 61 62
ATOM     62  CG  ARG B  14     -12.938 -25.091  -4.353  1.00 32.66 LIG 0.02  C 
BRANCH 62 63
ATOM     63  CD  ARG B  14     -12.091 -25.255  -3.108  1.00 35.24 LIG 0.14  C 
BRANCH 63 64
ATOM     64  NE  ARG B  14     -11.269 -24.068  -2.813  1.00 42.22 LIG-0.23  N 
ATOM     65  CZ  ARG B  14     -11.718 -22.896  -2.360  1.00 44.72 LIG 0.67  C 
ATOM     66  NH2 ARG B  14     -13.003 -22.681  -2.146  1.00 43.48 LIG-0.23  N 
ATOM     67  NH1 ARG B  14     -10.865 -21.915  -2.132  1.00 46.51 LIG-0.23  N 
ATOM     68 1HH2 ARG B  14     -13.574 -23.306  -2.298  1.00 43.48 LIG 0.17  HD
ATOM     69 2HH2 ARG B  14     -13.268 -21.917  -1.853  1.00 43.48 LIG 0.17  HD
ATOM     70 2HH1 ARG B  14     -11.148 -21.156  -1.841  1.00 46.51 LIG 0.17  HD
ATOM     71 1HH1 ARG B  14     -10.026 -22.033  -2.276  1.00 46.51 LIG 0.17  HD
ATOM     72 HE   ARG B  14     -10.422 -24.137  -2.945  1.00 42.22 LIG 0.18  HD
ENDBRANCH 63 64
ENDBRANCH 62 63
ENDBRANCH 61 62
ENDBRANCH 44 61
ENDBRANCH 1 44
TORSDOF 22
ENDMDL
MODEL 97
USER: ADFR SOLUTION from run 197
USER: SCORE 22.866226 LL:  -5.521 LR: -18.403 RR:   0.000 FEB: -11.841
USER: RMSD 4.167636
USER: SEED 196
USER: STATUS no improvement in best in 14 clusters for 5 generations
USER: GENES 24
USER: genes 0 Translation |==|  0.47584 0.49799 0.58800
USER: genes 1 Rotation |==|  0.51628 0.50810 0.47959 0.99925
USER: genes 2 Torsion [N]-CA--C-[O] |==|  0.92316
USER: genes 3 Torsion [C]-N--CA-[CB] |==|  0.18231
USER: genes 4 Torsion [N]-CA--CB-[CG2] |==|  0.21135
USER: genes 5 Torsion [CA]-CB--CG1-[CD1] |==|  0.61190
USER: genes 6 Torsion [N]-CA--C-[N] |==|  0.51351
USER: genes 7 Torsion [C]-N--CA-[C] |==|  0.69444
USER: genes 8 Torsion [N]-CA--C-[N] |==|  0.98433
USER: genes 9 Torsion [C]-N--CA-[CB] |==|  0.41668
USER: genes 10 Torsion [N]-CA--CB-[CG] |==|  0.57413
USER: genes 11 Torsion [CA]-CB--CG-[ND2] |==|  0.39915
USER: genes 12 Torsion [N]-CA--C-[O] |==|  0.77101
USER: genes 13 Torsion [N]-CA--CB-[CG] |==|  0.09793
USER: genes 14 Torsion [CA]-CB--CG-[CD2] |==|  0.22323
USER: genes 15 Torsion [CE2]-CZ--OH-[HH] |==|  0.17726
USER: genes 16 Torsion [N]-C--CA-[N] |==|  0.43262
USER: genes 17 Torsion [C]-CA--N-[C] |==|  0.79647
USER: genes 18 Torsion [N]-C--CA-[N] |==|  0.45118
USER: genes 19 Torsion [N]-C--CA-[CB] |==|  0.57518
USER: genes 20 Torsion [C]-CA--CB-[CG] |==|  0.35060
USER: genes 21 Torsion [CA]-CB--CG-[CD] |==|  0.06060
USER: genes 22 Torsion [CB]-CG--CD-[NE] |==|  0.42681
USER: genes 23 Torsion [CG]-CD--NE-[CZ] |==|  0.62820
ROOT
ATOM      1  C   ARG B  14      -9.993 -28.684  -9.491  1.00 32.92 LIG 0.24  C 
ATOM      2 O    ARG B  14      -9.300 -29.699  -9.583  1.00 37.82 LIG-0.27  OA
ATOM      3  N   PRO B  15     -10.420 -27.992 -10.551  1.00 31.88 LIG-0.34  N 
ATOM      4  CA  PRO B  15     -10.103 -28.454 -11.906  1.00 30.79 LIG 0.18  C 
ATOM      5  CB  PRO B  15     -10.827 -27.455 -12.785  1.00 31.22 LIG 0.04  C 
ATOM      6  CG  PRO B  15     -11.996 -27.047 -11.945  1.00 29.82 LIG 0.02  C 
ATOM      7  CD  PRO B  15     -11.422 -26.913 -10.572  1.00 31.43 LIG 0.13  C 
ENDROOT
BRANCH 4 8
ATOM      8  C   PRO B  15      -8.618 -28.355 -12.144  1.00 33.68 LIG 0.24  C 
ATOM      9  N   ILE B  16      -8.098 -29.241 -12.972  1.00 35.41 LIG-0.35  N 
ATOM     10 H    ILE B  16      -8.537 -29.892 -13.323  1.00 35.41 LIG 0.16  HD
ATOM     11 O    PRO B  15      -7.949 -27.524 -11.547  1.00 34.05 LIG-0.27  OA
BRANCH 9 12
ATOM     12  CA  ILE B  16      -6.747 -29.172 -13.345  1.00 37.77 LIG 0.18  C 
BRANCH 12 13
ATOM     13  CB  ILE B  16      -5.826 -29.421 -12.162  1.00 42.27 LIG 0.01  C 
ATOM     14  CG2 ILE B  16      -5.794 -30.887 -11.838  1.00 44.80 LIG 0.01  C 
BRANCH 13 15
ATOM     15  CG1 ILE B  16      -4.431 -28.868 -12.505  1.00 47.53 LIG 0.00  C 
ATOM     16  CD1 ILE B  16      -3.249 -29.722 -12.059  1.00 51.74 LIG 0.01  C 
ENDBRANCH 13 15
ENDBRANCH 12 13
BRANCH 12 17
ATOM     17  C   ILE B  16      -6.589 -30.179 -14.440  1.00 42.33 LIG 0.24  C 
ATOM     18 O    ILE B  16      -7.539 -30.742 -14.907  1.00 39.29 LIG-0.27  OA
ATOM     19  N   TYR B  17      -5.353 -30.346 -14.870  1.00 46.96 LIG-0.35  N 
ATOM     20 H    TYR B  17      -4.667 -30.024 -14.462  1.00 46.96 LIG 0.16  HD
BRANCH 19 21
ATOM     21  CA  TYR B  17      -5.021 -31.081 -16.058  1.00 51.19 LIG 0.18  C 
BRANCH 21 22
ATOM     22  C   TYR B  17      -4.343 -32.353 -15.693  1.00 56.10 LIG 0.24  C 
ATOM     23  N   ASN B  18      -4.057 -32.548 -14.421  1.00 65.39 LIG-0.35  N 
ATOM     24 H    ASN B  18      -4.365 -32.067 -13.778  1.00 65.39 LIG 0.16  HD
ATOM     25 O    TYR B  17      -4.142 -33.191 -16.552  1.00 61.36 LIG-0.27  OA
BRANCH 23 26
ATOM     26  CA  ASN B  18      -3.163 -33.637 -13.996  1.00 70.74 LIG 0.17  C 
BRANCH 26 27
ATOM     27  CB  ASN B  18      -2.433 -33.217 -12.712  1.00 84.74 LIG 0.14  C 
BRANCH 27 28
ATOM     28  CG  ASN B  18      -1.077 -33.917 -12.549  1.00 96.34 LIG 0.22  C 
ATOM     29 OD1  ASN B  18      -0.925 -35.100 -12.890  1.00 99.44 LIG-0.27  OA
ATOM     30  ND2 ASN B  18      -0.089 -33.194 -12.006  1.00 94.73 LIG-0.37  N 
ATOM     31 21HD ASN B  18       0.685 -33.547 -11.884  1.00 94.73 LIG 0.16  HD
ATOM     32 22HD ASN B  18      -0.229 -32.376 -11.780  1.00 94.73 LIG 0.16  HD
ENDBRANCH 27 28
ENDBRANCH 26 27
BRANCH 26 33
ATOM     33  C   ASN B  18      -3.756 -35.062 -13.877  1.00 72.97 LIG 0.22  C 
ATOM     34 O    ASN B  18      -4.380 -35.446 -12.877  1.00 74.17 LIG-0.29  OA
ENDBRANCH 26 33
ENDBRANCH 23 26
ENDBRANCH 21 22
BRANCH 21 35
ATOM     35  CB  TYR B  17      -4.024 -30.258 -16.857  1.00 54.83 LIG 0.07  C 
BRANCH 35 36
ATOM     36  CG  TYR B  17      -3.104 -29.515 -15.967  1.00 56.96 LIG-0.06  A 
ATOM     37  CD2 TYR B  17      -2.005 -30.164 -15.393  1.00 61.26 LIG 0.01  A 
ATOM     38  CE2 TYR B  17      -1.144 -29.496 -14.553  1.00 70.21 LIG 0.04  A 
ATOM     39  CZ  TYR B  17      -1.393 -28.164 -14.271  1.00 76.40 LIG 0.07  A 
ATOM     40  CE1 TYR B  17      -2.482 -27.500 -14.823  1.00 67.10 LIG 0.04  A 
ATOM     41  CD1 TYR B  17      -3.334 -28.189 -15.666  1.00 57.92 LIG 0.01  A 
BRANCH 39 42
ATOM     42 OH   TYR B  17      -0.545 -27.502 -13.433  1.00 89.25 LIG-0.36  OA
ATOM     43 HH   TYR B  17       0.219 -27.464 -13.779  1.00 89.25 LIG 0.22  HD
ENDBRANCH 39 42
ENDBRANCH 35 36
ENDBRANCH 21 35
ENDBRANCH 19 21
ENDBRANCH 12 17
ENDBRANCH 9 12
ENDBRANCH 4 8
BRANCH 1 44
ATOM     44  CA  ARG B  14     -10.343 -28.160  -8.130  1.00 32.45 LIG 0.18  C 
BRANCH 44 45
ATOM     45  N   ARG B  14     -10.288 -29.339  -7.297  1.00 38.19 LIG-0.35  N 
ATOM     46 H    ARG B  14      -9.601 -29.365  -6.779  1.00 38.19 LIG 0.16  HD
ATOM     47  C   PRO B  13     -11.216 -30.300  -7.327  1.00 38.91 LIG 0.24  C 
ATOM     48 O    PRO B  13     -12.196 -30.259  -8.043  1.00 32.88 LIG-0.27  OA
BRANCH 47 49
ATOM     49  CA  PRO B  13     -11.012 -31.478  -6.353  1.00 38.31 LIG 0.18  C 
ATOM     50  N   PRO B  13     -12.204 -32.268  -6.128  1.00 38.88 LIG-0.34  N 
ATOM     51  CD  PRO B  13     -11.940 -33.703  -6.303  1.00 43.50 LIG 0.13  C 
ATOM     52  C   PRO B  12     -13.396 -31.761  -5.775  1.00 40.77 LIG 0.26  C 
ATOM     53  CG  PRO B  13     -10.452 -33.786  -6.329  1.00 43.53 LIG 0.02  C 
ATOM     54  CB  PRO B  13     -10.020 -32.493  -6.920  1.00 39.91 LIG 0.04  C 
ATOM     55 O    PRO B  12     -13.588 -30.558  -5.539  1.00 44.45 LIG-0.27  OA
BRANCH 52 56
ATOM     56  CA  PRO B  12     -14.549 -32.727  -5.666  1.00 38.46 LIG 0.35  C 
ATOM     57  CB  PRO B  12     -15.854 -31.975  -5.931  1.00 43.42 LIG 0.05  C 
ATOM     58  CG  PRO B  12     -16.814 -32.520  -4.956  1.00 41.12 LIG 0.04  C 
ATOM     59  CD  PRO B  12     -16.001 -32.851  -3.739  1.00 39.74 LIG 0.32  C 
ATOM     60  N   PRO B  12     -14.680 -33.156  -4.294  1.00 38.12 LIG 0.32  N 
ENDBRANCH 52 56
ENDBRANCH 47 49
ENDBRANCH 44 45
BRANCH 44 61
ATOM     61  CB  ARG B  14      -9.243 -27.198  -7.670  1.00 34.42 LIG 0.04  C 
BRANCH 61 62
ATOM     62  CG  ARG B  14      -9.735 -25.814  -7.245  1.00 32.66 LIG 0.02  C 
BRANCH 62 63
ATOM     63  CD  ARG B  14     -11.202 -25.897  -6.877  1.00 35.24 LIG 0.14  C 
BRANCH 63 64
ATOM     64  NE  ARG B  14     -11.611 -24.861  -5.912  1.00 42.22 LIG-0.23  N 
ATOM     65  CZ  ARG B  14     -12.352 -25.054  -4.819  1.00 44.72 LIG 0.67  C 
ATOM     66  NH2 ARG B  14     -12.823 -26.245  -4.503  1.00 43.48 LIG-0.23  N 
ATOM     67  NH1 ARG B  14     -12.640 -24.030  -4.037  1.00 46.51 LIG-0.23  N 
ATOM     68 1HH2 ARG B  14     -12.653 -26.922  -5.006  1.00 43.48 LIG 0.17  HD
ATOM     69 2HH2 ARG B  14     -13.298 -26.345  -3.793  1.00 43.48 LIG 0.17  HD
ATOM     70 2HH1 ARG B  14     -13.117 -24.148  -3.332  1.00 46.51 LIG 0.17  HD
ATOM     71 1HH1 ARG B  14     -12.350 -23.244  -4.233  1.00 46.51 LIG 0.17  HD
ATOM     72 HE   ARG B  14     -11.347 -24.056  -6.068  1.00 42.22 LIG 0.18  HD
ENDBRANCH 63 64
ENDBRANCH 62 63
ENDBRANCH 61 62
ENDBRANCH 44 61
ENDBRANCH 1 44
TORSDOF 22
ENDMDL
MODEL 98
USER: ADFR SOLUTION from run 3
USER: SCORE 22.826301 LL:  -5.934 LR: -18.387 RR:   0.000 FEB: -11.825
USER: RMSD 5.116273
USER: SEED 140896
USER: STATUS no improvement in best in 20 clusters for 5 generations
USER: GENES 24
USER: genes 0 Translation |==|  0.46701 0.47055 0.56417
USER: genes 1 Rotation |==|  0.58697 0.48491 0.46076 0.99058
USER: genes 2 Torsion [N]-CA--C-[O] |==|  0.88280
USER: genes 3 Torsion [C]-N--CA-[CB] |==|  0.16388
USER: genes 4 Torsion [N]-CA--CB-[CG2] |==|  0.22703
USER: genes 5 Torsion [CA]-CB--CG1-[CD1] |==|  0.21386
USER: genes 6 Torsion [N]-CA--C-[N] |==|  0.51776
USER: genes 7 Torsion [C]-N--CA-[C] |==|  0.68622
USER: genes 8 Torsion [N]-CA--C-[N] |==|  0.95098
USER: genes 9 Torsion [C]-N--CA-[CB] |==|  0.47789
USER: genes 10 Torsion [N]-CA--CB-[CG] |==|  0.69120
USER: genes 11 Torsion [CA]-CB--CG-[ND2] |==|  0.64965
USER: genes 12 Torsion [N]-CA--C-[O] |==|  0.90409
USER: genes 13 Torsion [N]-CA--CB-[CG] |==|  0.08820
USER: genes 14 Torsion [CA]-CB--CG-[CD2] |==|  0.71466
USER: genes 15 Torsion [CE2]-CZ--OH-[HH] |==|  0.80564
USER: genes 16 Torsion [N]-C--CA-[N] |==|  0.38659
USER: genes 17 Torsion [C]-CA--N-[C] |==|  0.55870
USER: genes 18 Torsion [N]-C--CA-[N] |==|  0.21573
USER: genes 19 Torsion [N]-C--CA-[CB] |==|  0.74559
USER: genes 20 Torsion [C]-CA--CB-[CG] |==|  0.44307
USER: genes 21 Torsion [CA]-CB--CG-[CD] |==|  0.69968
USER: genes 22 Torsion [CB]-CG--CD-[NE] |==|  0.19562
USER: genes 23 Torsion [CG]-CD--NE-[CZ] |==|  0.13605
ROOT
ATOM      1  C   ARG B  14     -10.191 -29.198 -10.152  1.00 32.92 LIG 0.24  C 
ATOM      2 O    ARG B  14      -9.564 -30.212 -10.463  1.00 37.82 LIG-0.27  OA
ATOM      3  N   PRO B  15     -10.449 -28.207 -11.010  1.00 31.88 LIG-0.34  N 
ATOM      4  CA  PRO B  15     -10.015 -28.313 -12.406  1.00 30.79 LIG 0.18  C 
ATOM      5  CB  PRO B  15     -10.566 -27.048 -13.032  1.00 31.22 LIG 0.04  C 
ATOM      6  CG  PRO B  15     -11.790 -26.771 -12.218  1.00 29.82 LIG 0.02  C 
ATOM      7  CD  PRO B  15     -11.365 -27.071 -10.817  1.00 31.43 LIG 0.13  C 
ENDROOT
BRANCH 4 8
ATOM      8  C   PRO B  15      -8.509 -28.298 -12.475  1.00 33.68 LIG 0.24  C 
ATOM      9  N   ILE B  16      -7.952 -29.194 -13.267  1.00 35.41 LIG-0.35  N 
ATOM     10 H    ILE B  16      -8.385 -29.809 -13.685  1.00 35.41 LIG 0.16  HD
ATOM     11 O    PRO B  15      -7.866 -27.524 -11.783  1.00 34.05 LIG-0.27  OA
BRANCH 9 12
ATOM     12  CA  ILE B  16      -6.565 -29.198 -13.487  1.00 37.77 LIG 0.18  C 
BRANCH 12 13
ATOM     13  CB  ILE B  16      -5.794 -29.369 -12.188  1.00 42.27 LIG 0.01  C 
ATOM     14  CG2 ILE B  16      -5.740 -30.823 -11.813  1.00 44.80 LIG 0.01  C 
BRANCH 13 15
ATOM     15  CG1 ILE B  16      -4.392 -28.760 -12.370  1.00 47.53 LIG 0.00  C 
ATOM     16  CD1 ILE B  16      -4.317 -27.238 -12.311  1.00 51.74 LIG 0.01  C 
ENDBRANCH 13 15
ENDBRANCH 12 13
BRANCH 12 17
ATOM     17  C   ILE B  16      -6.325 -30.301 -14.467  1.00 42.33 LIG 0.24  C 
ATOM     18 O    ILE B  16      -7.237 -30.857 -15.013  1.00 39.29 LIG-0.27  OA
ATOM     19  N   TYR B  17      -5.055 -30.562 -14.712  1.00 46.96 LIG-0.35  N 
ATOM     20 H    TYR B  17      -4.411 -30.240 -14.242  1.00 46.96 LIG 0.16  HD
BRANCH 19 21
ATOM     21  CA  TYR B  17      -4.614 -31.411 -15.783  1.00 51.19 LIG 0.18  C 
BRANCH 21 22
ATOM     22  C   TYR B  17      -4.000 -32.647 -15.230  1.00 56.10 LIG 0.24  C 
ATOM     23  N   ASN B  18      -3.628 -32.629 -13.965  1.00 65.39 LIG-0.35  N 
ATOM     24 H    ASN B  18      -3.850 -32.014 -13.406  1.00 65.39 LIG 0.16  HD
ATOM     25 O    TYR B  17      -3.927 -33.642 -15.926  1.00 61.36 LIG-0.27  OA
BRANCH 23 26
ATOM     26  CA  ASN B  18      -2.781 -33.692 -13.401  1.00 70.74 LIG 0.17  C 
BRANCH 26 27
ATOM     27  CB  ASN B  18      -2.357 -33.296 -11.979  1.00 84.74 LIG 0.14  C 
BRANCH 27 28
ATOM     28  CG  ASN B  18      -0.858 -32.985 -11.877  1.00 96.34 LIG 0.22  C 
ATOM     29 OD1  ASN B  18      -0.323 -32.165 -12.640  1.00 99.44 LIG-0.27  OA
ATOM     30  ND2 ASN B  18      -0.168 -33.653 -10.944  1.00 94.73 LIG-0.37  N 
ATOM     31 21HD ASN B  18       0.677 -33.521 -10.858  1.00 94.73 LIG 0.16  HD
ATOM     32 22HD ASN B  18      -0.570 -34.215 -10.432  1.00 94.73 LIG 0.16  HD
ENDBRANCH 27 28
ENDBRANCH 26 27
BRANCH 26 33
ATOM     33  C   ASN B  18      -3.306 -35.147 -13.458  1.00 72.97 LIG 0.22  C 
ATOM     34 O    ASN B  18      -4.507 -35.431 -13.346  1.00 74.17 LIG-0.29  OA
ENDBRANCH 26 33
ENDBRANCH 23 26
ENDBRANCH 21 22
BRANCH 21 35
ATOM     35  CB  TYR B  17      -3.526 -30.676 -16.548  1.00 54.83 LIG 0.07  C 
BRANCH 35 36
ATOM     36  CG  TYR B  17      -2.743 -29.793 -15.655  1.00 56.96 LIG-0.06  A 
ATOM     37  CD2 TYR B  17      -2.972 -28.412 -15.656  1.00 61.26 LIG 0.01  A 
ATOM     38  CE2 TYR B  17      -2.247 -27.571 -14.843  1.00 70.21 LIG 0.04  A 
ATOM     39  CZ  TYR B  17      -1.269 -28.115 -14.030  1.00 76.40 LIG 0.07  A 
ATOM     40  CE1 TYR B  17      -1.018 -29.482 -14.017  1.00 67.10 LIG 0.04  A 
ATOM     41  CD1 TYR B  17      -1.758 -30.311 -14.841  1.00 57.92 LIG 0.01  A 
BRANCH 39 42
ATOM     42 OH   TYR B  17      -0.544 -27.283 -13.229  1.00 89.25 LIG-0.36  OA
ATOM     43 HH   TYR B  17      -0.034 -26.813 -13.703  1.00 89.25 LIG 0.22  HD
ENDBRANCH 39 42
ENDBRANCH 35 36
ENDBRANCH 21 35
ENDBRANCH 19 21
ENDBRANCH 12 17
ENDBRANCH 9 12
ENDBRANCH 4 8
BRANCH 1 44
ATOM     44  CA  ARG B  14     -10.655 -29.031  -8.736  1.00 32.45 LIG 0.18  C 
BRANCH 44 45
ATOM     45  N   ARG B  14     -11.155 -30.343  -8.394  1.00 38.19 LIG-0.35  N 
ATOM     46 H    ARG B  14     -10.844 -30.972  -8.891  1.00 38.19 LIG 0.16  HD
ATOM     47  C   PRO B  13     -12.020 -30.559  -7.399  1.00 38.91 LIG 0.24  C 
ATOM     48 O    PRO B  13     -12.449 -29.676  -6.684  1.00 32.88 LIG-0.27  OA
BRANCH 47 49
ATOM     49  CA  PRO B  13     -12.432 -32.025  -7.157  1.00 38.31 LIG 0.18  C 
ATOM     50  N   PRO B  13     -11.438 -32.806  -6.452  1.00 38.88 LIG-0.34  N 
ATOM     51  CD  PRO B  13     -12.025 -33.527  -5.314  1.00 43.50 LIG 0.13  C 
ATOM     52  C   PRO B  12     -10.145 -32.889  -6.806  1.00 40.77 LIG 0.26  C 
ATOM     53  CG  PRO B  13     -13.493 -33.410  -5.545  1.00 43.53 LIG 0.02  C 
ATOM     54  CB  PRO B  13     -13.655 -32.109  -6.245  1.00 39.91 LIG 0.04  C 
ATOM     55 O    PRO B  12      -9.676 -32.351  -7.821  1.00 44.45 LIG-0.27  OA
BRANCH 52 56
ATOM     56  CA  PRO B  12      -9.234 -33.683  -5.904  1.00 38.46 LIG 0.35  C 
ATOM     57  CB  PRO B  12      -8.618 -32.742  -4.868  1.00 43.42 LIG 0.05  C 
ATOM     58  CG  PRO B  12      -7.218 -33.180  -4.739  1.00 41.12 LIG 0.04  C 
ATOM     59  CD  PRO B  12      -6.826 -33.670  -6.102  1.00 39.74 LIG 0.32  C 
ATOM     60  N   PRO B  12      -8.095 -34.139  -6.664  1.00 38.12 LIG 0.32  N 
ENDBRANCH 52 56
ENDBRANCH 47 49
ENDBRANCH 44 45
BRANCH 44 61
ATOM     61  CB  ARG B  14      -9.441 -28.737  -7.848  1.00 34.42 LIG 0.04  C 
BRANCH 61 62
ATOM     62  CG  ARG B  14      -9.769 -28.070  -6.512  1.00 32.66 LIG 0.02  C 
BRANCH 62 63
ATOM     63  CD  ARG B  14      -9.316 -26.624  -6.551  1.00 35.24 LIG 0.14  C 
BRANCH 63 64
ATOM     64  NE  ARG B  14     -10.138 -25.789  -7.444  1.00 42.22 LIG-0.23  N 
ATOM     65  CZ  ARG B  14     -11.471 -25.735  -7.462  1.00 44.72 LIG 0.67  C 
ATOM     66  NH2 ARG B  14     -12.205 -26.477  -6.654  1.00 43.48 LIG-0.23  N 
ATOM     67  NH1 ARG B  14     -12.080 -24.935  -8.317  1.00 46.51 LIG-0.23  N 
ATOM     68 1HH2 ARG B  14     -11.826 -27.012  -6.097  1.00 43.48 LIG 0.17  HD
ATOM     69 2HH2 ARG B  14     -13.064 -26.424  -6.683  1.00 43.48 LIG 0.17  HD
ATOM     70 2HH1 ARG B  14     -12.939 -24.896  -8.333  1.00 46.51 LIG 0.17  HD
ATOM     71 1HH1 ARG B  14     -11.618 -24.452  -8.857  1.00 46.51 LIG 0.17  HD
ATOM     72 HE   ARG B  14      -9.719 -25.290  -8.007  1.00 42.22 LIG 0.18  HD
ENDBRANCH 63 64
ENDBRANCH 62 63
ENDBRANCH 61 62
ENDBRANCH 44 61
ENDBRANCH 1 44
TORSDOF 22
ENDMDL
