MODEL 1
USER: ADFR SOLUTION from run 27
USER: SCORE 25.683560 LL:  -5.695 LR: -21.872 RR:   0.000 FEB: -13.519
USER: RMSD 12.774624
USER: SEED 26
USER: STATUS no improvement in best in 2 clusters for 5 generations
USER: GENES 30
USER: genes 0 Translation |==|  0.45757 0.34401 0.40394
USER: genes 1 Rotation |==|  0.63416 0.92290 0.28629 0.58652
USER: genes 2 Torsion [N]-CA--C-[N] |==|  0.37743
USER: genes 3 Torsion [C]-N--CA-[C] |==|  0.70268
USER: genes 4 Torsion [N]-CA--C-[N] |==|  0.55479
USER: genes 5 Torsion [C]-N--CA-[C] |==|  0.64334
USER: genes 6 Torsion [N]-CA--C-[N] |==|  0.42001
USER: genes 7 Torsion [C]-N--CA-[C] |==|  0.64084
USER: genes 8 Torsion [N]-CA--C-[N] |==|  0.90012
USER: genes 9 Torsion [C]-N--CA-[C] |==|  0.51854
USER: genes 10 Torsion [N]-CA--C-[O] |==|  0.10629
USER: genes 11 Torsion [N]-CA--CB-[CG2] |==|  0.48390
USER: genes 12 Torsion [CA]-CB--OG1-[HG1] |==|  0.00627
USER: genes 13 Torsion [N]-CA--CB-[CG] |==|  0.67453
USER: genes 14 Torsion [CA]-CB--CG-[CD1] |==|  0.92125
USER: genes 15 Torsion [N]-CA--CB-[CG] |==|  0.75069
USER: genes 16 Torsion [CA]-CB--CG-[CD2] |==|  0.91294
USER: genes 17 Torsion [C]-CA--CB-[CG] |==|  0.06158
USER: genes 18 Torsion [CA]-CB--CG-[CD2] |==|  0.57951
USER: genes 19 Torsion [C]-CA--N-[C] |==|  0.61394
USER: genes 20 Torsion [N]-C--CA-[N] |==|  0.17125
USER: genes 21 Torsion [C]-CA--CB-[CG] |==|  0.26645
USER: genes 22 Torsion [CA]-CB--CG-[CD] |==|  0.06486
USER: genes 23 Torsion [CB]-CG--CD-[NE] |==|  0.43274
USER: genes 24 Torsion [CG]-CD--NE-[HE] |==|  0.24366
USER: genes 25 Torsion [C]-CA--N-[C] |==|  0.60787
USER: genes 26 Torsion [N]-C--CA-[N] |==|  0.63770
USER: genes 27 Torsion [C]-CA--CB-[CG] |==|  0.80863
USER: genes 28 Torsion [CA]-CB--CG-[OD1] |==|  0.05748
USER: genes 29 Torsion [C]-CA--N-[H2] |==|  0.03630
ROOT
ATOM      1  CA  LEU E   3      44.734  40.610  14.626  1.00 22.83 LIG 0.18  C 
ENDROOT
BRANCH 1 2
ATOM      2  C   LEU E   3      45.429  41.272  15.861  1.00 19.55 LIG 0.24  C 
ATOM      3 O    LEU E   3      46.385  40.745  16.408  1.00 19.60 LIG-0.27  OA
ATOM      4  N   LEU E   4      44.921  42.411  16.269  1.00 19.32 LIG-0.35  N 
ATOM      5 H    LEU E   4      44.146  42.710  16.048  1.00 19.32 LIG 0.16  HD
BRANCH 4 6
ATOM      6  CA  LEU E   4      45.711  43.301  17.195  1.00 17.74 LIG 0.18  C 
BRANCH 6 7
ATOM      7  C   LEU E   4      45.162  43.282  18.578  1.00 18.94 LIG 0.24  C 
ATOM      8  N   LEU E   5      45.519  44.330  19.362  1.00 19.76 LIG-0.35  N 
ATOM      9 H    LEU E   5      45.962  45.014  19.085  1.00 19.76 LIG 0.16  HD
ATOM     10 O    LEU E   4      44.468  42.307  18.997  1.00 20.41 LIG-0.27  OA
BRANCH 8 11
ATOM     11  CA  LEU E   5      45.163  44.367  20.776  1.00 18.99 LIG 0.18  C 
BRANCH 11 12
ATOM     12  C   LEU E   5      44.484  45.713  21.034  1.00 20.67 LIG 0.24  C 
ATOM     13  N   THR E   6      43.591  45.712  22.025  1.00 21.83 LIG-0.34  N 
ATOM     14 H    THR E   6      43.324  45.018  22.455  1.00 21.83 LIG 0.16  HD
ATOM     15 O    LEU E   5      44.829  46.672  20.379  1.00 20.01 LIG-0.27  OA
BRANCH 13 16
ATOM     16  CA  THR E   6      42.993  46.993  22.440  1.00 24.74 LIG 0.20  C 
BRANCH 16 17
ATOM     17  C   THR E   6      43.113  47.146  23.958  1.00 26.78 LIG 0.24  C 
ATOM     18  N   GLY E   7      42.974  45.999  24.639  1.00 28.46 LIG-0.35  N 
ATOM     19 H    GLY E   7      43.124  45.232  24.280  1.00 28.46 LIG 0.16  HD
ATOM     20 O    THR E   6      43.362  48.226  24.503  1.00 25.34 LIG-0.27  OA
BRANCH 18 21
ATOM     21  CA  GLY E   7      42.564  45.899  26.037  1.00 36.11 LIG 0.23  C 
BRANCH 21 22
ATOM     22  C   GLY E   7      42.672  44.500  26.504  1.00 43.05 LIG 0.19  C 
ATOM     23 OXT  GLY E   7      41.788  44.111  27.270  1.00 50.23 LIG-0.65  OA
ATOM     24 O    GLY E   7      43.615  43.756  26.147  1.00 56.48 LIG-0.65  OA
ENDBRANCH 21 22
ENDBRANCH 18 21
ENDBRANCH 16 17
BRANCH 16 25
ATOM     25  CB  THR E   6      41.524  47.080  21.977  1.00 24.32 LIG 0.15  C 
ATOM     26  CG2 THR E   6      40.831  48.392  22.550  1.00 23.74 LIG 0.04  C 
BRANCH 25 27
ATOM     27 OG1  THR E   6      41.548  47.138  20.562  1.00 30.49 LIG-0.39  OA
ATOM     28 HG1  THR E   6      42.342  47.081  20.293  1.00 30.49 LIG 0.21  HD
ENDBRANCH 25 27
ENDBRANCH 16 25
ENDBRANCH 13 16
ENDBRANCH 11 12
BRANCH 11 29
ATOM     29  CB  LEU E   5      46.386  44.337  21.682  1.00 19.92 LIG 0.04  C 
BRANCH 29 30
ATOM     30  CG  LEU E   5      46.366  43.050  22.555  1.00 17.19 LIG-0.02  C 
ATOM     31  CD1 LEU E   5      44.939  42.620  22.773  1.00 19.71 LIG 0.01  C 
ATOM     32  CD2 LEU E   5      47.187  41.966  21.905  1.00 21.46 LIG 0.01  C 
ENDBRANCH 29 30
ENDBRANCH 11 29
ENDBRANCH 8 11
ENDBRANCH 6 7
BRANCH 6 33
ATOM     33  CB  LEU E   4      45.648  44.762  16.641  1.00 18.44 LIG 0.04  C 
BRANCH 33 34
ATOM     34  CG  LEU E   4      46.816  45.019  15.663  1.00 22.78 LIG-0.02  C 
ATOM     35  CD2 LEU E   4      48.087  44.220  16.009  1.00 23.44 LIG 0.01  C 
ATOM     36  CD1 LEU E   4      47.079  46.525  15.695  1.00 27.53 LIG 0.01  C 
ENDBRANCH 33 34
ENDBRANCH 6 33
ENDBRANCH 4 6
ENDBRANCH 1 2
BRANCH 1 37
ATOM     37  CB  LEU E   3      43.838  39.476  15.133  1.00 29.41 LIG 0.04  C 
BRANCH 37 38
ATOM     38  CG  LEU E   3      43.379  39.542  16.608  1.00 30.90 LIG-0.02  C 
ATOM     39  CD1 LEU E   3      42.097  40.390  16.752  1.00 35.09 LIG 0.01  C 
ATOM     40  CD2 LEU E   3      43.146  38.139  17.142  1.00 39.15 LIG 0.01  C 
ENDBRANCH 37 38
ENDBRANCH 1 37
BRANCH 1 41
ATOM     41  N   LEU E   3      45.744  40.103  13.649  1.00 22.92 LIG-0.35  N 
ATOM     42 H    LEU E   3      46.431  39.717  13.992  1.00 22.92 LIG 0.16  HD
ATOM     43  C   ARG E   2      45.529  40.274  12.350  1.00 28.87 LIG 0.24  C 
ATOM     44 O    ARG E   2      44.500  40.880  11.927  1.00 29.44 LIG-0.27  OA
BRANCH 43 45
ATOM     45  CA  ARG E   2      46.569  39.726  11.346  1.00 32.90 LIG 0.18  C 
BRANCH 45 46
ATOM     46  CB  ARG E   2      46.074  39.896   9.918  1.00 32.53 LIG 0.04  C 
BRANCH 46 47
ATOM     47  CG  ARG E   2      46.560  41.111   9.210  1.00 34.92 LIG 0.02  C 
BRANCH 47 48
ATOM     48  CD  ARG E   2      47.827  41.561   9.847  1.00 37.57 LIG 0.14  C 
BRANCH 48 49
ATOM     49  NE  ARG E   2      48.700  42.356   8.969  1.00 41.00 LIG-0.23  N 
ATOM     50 HE   ARG E   2      48.578  43.207   8.939  1.00 41.00 LIG 0.18  HD
ATOM     51  CZ  ARG E   2      49.675  41.831   8.215  1.00 43.22 LIG 0.67  C 
ATOM     52  NH2 ARG E   2      50.468  42.620   7.502  1.00 39.75 LIG-0.23  N 
ATOM     53  NH1 ARG E   2      49.867  40.500   8.168  1.00 41.20 LIG-0.23  N 
ATOM     54 2HH2 ARG E   2      51.093  42.279   7.020  1.00 39.75 LIG 0.17  HD
ATOM     55 1HH2 ARG E   2      50.358  43.473   7.523  1.00 39.75 LIG 0.17  HD
ATOM     56 1HH1 ARG E   2      49.361  39.976   8.625  1.00 41.20 LIG 0.17  HD
ATOM     57 2HH1 ARG E   2      50.496  40.175   7.680  1.00 41.20 LIG 0.17  HD
ENDBRANCH 48 49
ENDBRANCH 47 48
ENDBRANCH 46 47
ENDBRANCH 45 46
BRANCH 45 58
ATOM     58  N   ARG E   2      46.661  38.265  11.490  1.00 36.64 LIG-0.35  N 
ATOM     59 H    ARG E   2      45.900  37.889  11.629  1.00 36.64 LIG 0.16  HD
ATOM     60  C   ASN E   1      47.786  37.588  11.416  1.00 41.83 LIG 0.25  C 
ATOM     61 O    ASN E   1      48.862  38.152  11.168  1.00 38.61 LIG-0.27  OA
BRANCH 60 62
ATOM     62  CA  ASN E   1      47.658  36.029  11.558  1.00 50.15 LIG 0.28  C 
BRANCH 62 63
ATOM     63  CB  ASN E   1      46.212  35.516  11.871  1.00 58.25 LIG 0.14  C 
BRANCH 63 64
ATOM     64  CG  ASN E   1      45.696  35.891  13.304  1.00 70.07 LIG 0.22  C 
ATOM     65 OD1  ASN E   1      46.180  36.822  13.971  1.00 69.16 LIG-0.27  OA
ATOM     66  ND2 ASN E   1      44.693  35.142  13.771  1.00 65.88 LIG-0.37  N 
ATOM     67 22HD ASN E   1      44.375  34.503  13.291  1.00 65.88 LIG 0.16  HD
ATOM     68 21HD ASN E   1      44.367  35.299  14.551  1.00 65.88 LIG 0.16  HD
ENDBRANCH 63 64
ENDBRANCH 62 63
BRANCH 62 69
ATOM     69  N   ASN E   1      48.626  35.495  12.559  1.00 55.39 LIG-0.07  N 
ATOM     70 H1   ASN E   1      49.281  35.065  12.138  1.00 55.39 LIG 0.28  HD
ATOM     71 H2   ASN E   1      48.968  36.168  13.030  1.00 55.39 LIG 0.28  HD
ATOM     72 H3   ASN E   1      48.207  34.933  13.106  1.00 55.39 LIG 0.28  HD
ENDBRANCH 62 69
ENDBRANCH 60 62
ENDBRANCH 45 58
ENDBRANCH 43 45
ENDBRANCH 1 41
TORSDOF 28
ENDMDL
MODEL 2
USER: ADFR SOLUTION from run 24
USER: SCORE 25.664863 LL:  -5.179 LR: -21.527 RR:   0.000 FEB: -13.174
USER: RMSD 12.723268
USER: SEED 23
USER: STATUS no improvement in best in 15 clusters for 5 generations
USER: GENES 30
USER: genes 0 Translation |==|  0.43613 0.35314 0.41456
USER: genes 1 Rotation |==|  0.68468 0.90985 0.28321 0.53036
USER: genes 2 Torsion [N]-CA--C-[N] |==|  0.40542
USER: genes 3 Torsion [C]-N--CA-[C] |==|  0.66970
USER: genes 4 Torsion [N]-CA--C-[N] |==|  0.34491
USER: genes 5 Torsion [C]-N--CA-[C] |==|  0.80556
USER: genes 6 Torsion [N]-CA--C-[N] |==|  0.38156
USER: genes 7 Torsion [C]-N--CA-[C] |==|  0.68883
USER: genes 8 Torsion [N]-CA--C-[N] |==|  0.82956
USER: genes 9 Torsion [C]-N--CA-[C] |==|  0.40692
USER: genes 10 Torsion [N]-CA--C-[O] |==|  0.83277
USER: genes 11 Torsion [N]-CA--CB-[CG2] |==|  0.60821
USER: genes 12 Torsion [CA]-CB--OG1-[HG1] |==|  0.19907
USER: genes 13 Torsion [N]-CA--CB-[CG] |==|  0.07186
USER: genes 14 Torsion [CA]-CB--CG-[CD1] |==|  0.36401
USER: genes 15 Torsion [N]-CA--CB-[CG] |==|  0.76827
USER: genes 16 Torsion [CA]-CB--CG-[CD2] |==|  0.82995
USER: genes 17 Torsion [C]-CA--CB-[CG] |==|  0.10454
USER: genes 18 Torsion [CA]-CB--CG-[CD2] |==|  0.66267
USER: genes 19 Torsion [C]-CA--N-[C] |==|  0.62965
USER: genes 20 Torsion [N]-C--CA-[N] |==|  0.08098
USER: genes 21 Torsion [C]-CA--CB-[CG] |==|  0.89122
USER: genes 22 Torsion [CA]-CB--CG-[CD] |==|  0.42649
USER: genes 23 Torsion [CB]-CG--CD-[NE] |==|  0.46603
USER: genes 24 Torsion [CG]-CD--NE-[HE] |==|  0.31676
USER: genes 25 Torsion [C]-CA--N-[C] |==|  0.66185
USER: genes 26 Torsion [N]-C--CA-[N] |==|  0.52904
USER: genes 27 Torsion [C]-CA--CB-[CG] |==|  0.18097
USER: genes 28 Torsion [CA]-CB--CG-[OD1] |==|  0.09355
USER: genes 29 Torsion [C]-CA--N-[H2] |==|  0.54608
ROOT
ATOM      1  CA  LEU E   3      44.300  40.816  14.905  1.00 22.83 LIG 0.18  C 
ENDROOT
BRANCH 1 2
ATOM      2  C   LEU E   3      45.260  41.164  16.090  1.00 19.55 LIG 0.24  C 
ATOM      3 O    LEU E   3      46.188  40.431  16.389  1.00 19.60 LIG-0.27  OA
ATOM      4  N   LEU E   4      45.000  42.276  16.736  1.00 19.32 LIG-0.35  N 
ATOM      5 H    LEU E   4      44.258  42.708  16.692  1.00 19.32 LIG 0.16  HD
BRANCH 4 6
ATOM      6  CA  LEU E   4      46.044  42.886  17.637  1.00 17.74 LIG 0.18  C 
BRANCH 6 7
ATOM      7  C   LEU E   4      45.577  42.965  19.047  1.00 18.94 LIG 0.24  C 
ATOM      8  N   LEU E   5      46.376  42.360  19.962  1.00 19.76 LIG-0.35  N 
ATOM      9 H    LEU E   5      47.145  42.018  19.783  1.00 19.76 LIG 0.16  HD
ATOM     10 O    LEU E   4      44.468  43.505  19.343  1.00 20.41 LIG-0.27  OA
BRANCH 8 11
ATOM     11  CA  LEU E   5      45.968  42.245  21.358  1.00 18.99 LIG 0.18  C 
BRANCH 11 12
ATOM     12  C   LEU E   5      46.014  43.652  21.957  1.00 20.67 LIG 0.24  C 
ATOM     13  N   THR E   6      44.982  43.963  22.742  1.00 21.83 LIG-0.34  N 
ATOM     14 H    THR E   6      44.284  43.477  22.864  1.00 21.83 LIG 0.16  HD
ATOM     15 O    LEU E   5      46.979  44.347  21.729  1.00 20.01 LIG-0.27  OA
BRANCH 13 16
ATOM     16  CA  THR E   6      45.011  45.240  23.477  1.00 24.74 LIG 0.20  C 
BRANCH 16 17
ATOM     17  C   THR E   6      45.139  44.965  24.977  1.00 26.78 LIG 0.24  C 
ATOM     18  N   GLY E   7      44.120  44.264  25.497  1.00 28.46 LIG-0.35  N 
ATOM     19 H    GLY E   7      43.623  43.752  25.015  1.00 28.46 LIG 0.16  HD
ATOM     20 O    THR E   6      46.119  45.318  25.640  1.00 25.34 LIG-0.27  OA
BRANCH 18 21
ATOM     21  CA  GLY E   7      43.727  44.272  26.903  1.00 36.11 LIG 0.23  C 
BRANCH 21 22
ATOM     22  C   GLY E   7      42.262  44.120  27.028  1.00 43.05 LIG 0.19  C 
ATOM     23 OXT  GLY E   7      41.867  43.131  27.648  1.00 50.23 LIG-0.65  OA
ATOM     24 O    GLY E   7      41.468  44.947  26.523  1.00 56.48 LIG-0.65  OA
ENDBRANCH 21 22
ENDBRANCH 18 21
ENDBRANCH 16 17
BRANCH 16 25
ATOM     25  CB  THR E   6      43.754  46.076  23.160  1.00 24.32 LIG 0.15  C 
ATOM     26  CG2 THR E   6      44.122  47.618  23.034  1.00 23.74 LIG 0.04  C 
BRANCH 25 27
ATOM     27 OG1  THR E   6      43.257  45.606  21.920  1.00 30.49 LIG-0.39  OA
ATOM     28 HG1  THR E   6      42.919  44.844  22.025  1.00 30.49 LIG 0.21  HD
ENDBRANCH 25 27
ENDBRANCH 16 25
ENDBRANCH 13 16
ENDBRANCH 11 12
BRANCH 11 29
ATOM     29  CB  LEU E   5      46.941  41.410  22.178  1.00 19.92 LIG 0.04  C 
BRANCH 29 30
ATOM     30  CG  LEU E   5      48.356  41.461  21.534  1.00 17.19 LIG-0.02  C 
ATOM     31  CD1 LEU E   5      49.374  41.783  22.596  1.00 19.71 LIG 0.01  C 
ATOM     32  CD2 LEU E   5      48.659  40.159  20.839  1.00 21.46 LIG 0.01  C 
ENDBRANCH 29 30
ENDBRANCH 11 29
ENDBRANCH 8 11
ENDBRANCH 6 7
BRANCH 6 33
ATOM     33  CB  LEU E   4      46.353  44.329  17.120  1.00 18.44 LIG 0.04  C 
BRANCH 33 34
ATOM     34  CG  LEU E   4      47.388  44.282  15.972  1.00 22.78 LIG-0.02  C 
ATOM     35  CD2 LEU E   4      48.742  43.682  16.397  1.00 23.44 LIG 0.01  C 
ATOM     36  CD1 LEU E   4      47.546  45.721  15.478  1.00 27.53 LIG 0.01  C 
ENDBRANCH 33 34
ENDBRANCH 6 33
ENDBRANCH 4 6
ENDBRANCH 1 2
BRANCH 1 37
ATOM     37  CB  LEU E   3      43.167  39.938  15.448  1.00 29.41 LIG 0.04  C 
BRANCH 37 38
ATOM     38  CG  LEU E   3      42.630  40.271  16.860  1.00 30.90 LIG-0.02  C 
ATOM     39  CD1 LEU E   3      41.152  40.712  16.800  1.00 35.09 LIG 0.01  C 
ATOM     40  CD2 LEU E   3      42.784  39.066  17.770  1.00 39.15 LIG 0.01  C 
ENDBRANCH 37 38
ENDBRANCH 1 37
BRANCH 1 41
ATOM     41  N   LEU E   3      45.035  40.125  13.804  1.00 22.92 LIG-0.35  N 
ATOM     42 H    LEU E   3      45.557  39.486  14.048  1.00 22.92 LIG 0.16  HD
ATOM     43  C   ARG E   2      44.847  40.524  12.551  1.00 28.87 LIG 0.24  C 
ATOM     44 O    ARG E   2      44.080  41.494  12.277  1.00 29.44 LIG-0.27  OA
BRANCH 43 45
ATOM     45  CA  ARG E   2      45.596  39.787  11.416  1.00 32.90 LIG 0.18  C 
BRANCH 45 46
ATOM     46  CB  ARG E   2      44.704  39.646  10.193  1.00 32.53 LIG 0.04  C 
BRANCH 46 47
ATOM     47  CG  ARG E   2      43.275  39.338  10.469  1.00 34.92 LIG 0.02  C 
BRANCH 47 48
ATOM     48  CD  ARG E   2      42.450  39.850   9.342  1.00 37.57 LIG 0.14  C 
BRANCH 48 49
ATOM     49  NE  ARG E   2      41.059  39.371   9.341  1.00 41.00 LIG-0.23  N 
ATOM     50 HE   ARG E   2      40.431  39.946   9.468  1.00 41.00 LIG 0.18  HD
ATOM     51  CZ  ARG E   2      40.712  38.090   9.152  1.00 43.22 LIG 0.67  C 
ATOM     52  NH2 ARG E   2      39.433  37.745   9.094  1.00 39.75 LIG-0.23  N 
ATOM     53  NH1 ARG E   2      41.651  37.136   9.019  1.00 41.20 LIG-0.23  N 
ATOM     54 2HH2 ARG E   2      39.214  36.923   8.973  1.00 39.75 LIG 0.17  HD
ATOM     55 1HH2 ARG E   2      38.821  38.344   9.177  1.00 39.75 LIG 0.17  HD
ATOM     56 1HH1 ARG E   2      42.484  37.345   9.054  1.00 41.20 LIG 0.17  HD
ATOM     57 2HH1 ARG E   2      41.417  36.318   8.898  1.00 41.20 LIG 0.17  HD
ENDBRANCH 48 49
ENDBRANCH 47 48
ENDBRANCH 46 47
ENDBRANCH 45 46
BRANCH 45 58
ATOM     58  N   ARG E   2      45.831  38.391  11.815  1.00 36.64 LIG-0.35  N 
ATOM     59 H    ARG E   2      45.108  37.963  11.996  1.00 36.64 LIG 0.16  HD
ATOM     60  C   ASN E   1      47.022  37.838  11.889  1.00 41.83 LIG 0.25  C 
ATOM     61 O    ASN E   1      48.044  38.466  11.575  1.00 38.61 LIG-0.27  OA
BRANCH 60 62
ATOM     62  CA  ASN E   1      47.049  36.322  12.297  1.00 50.15 LIG 0.28  C 
BRANCH 62 63
ATOM     63  CB  ASN E   1      46.086  35.941  13.471  1.00 58.25 LIG 0.14  C 
BRANCH 63 64
ATOM     64  CG  ASN E   1      44.564  36.112  13.131  1.00 70.07 LIG 0.22  C 
ATOM     65 OD1  ASN E   1      44.102  35.913  11.995  1.00 69.16 LIG-0.27  OA
ATOM     66  ND2 ASN E   1      43.784  36.488  14.148  1.00 65.88 LIG-0.37  N 
ATOM     67 22HD ASN E   1      44.126  36.621  14.926  1.00 65.88 LIG 0.16  HD
ATOM     68 21HD ASN E   1      42.940  36.598  14.024  1.00 65.88 LIG 0.16  HD
ENDBRANCH 63 64
ENDBRANCH 62 63
BRANCH 62 69
ATOM     69  N   ASN E   1      48.436  35.866  12.595  1.00 55.39 LIG-0.07  N 
ATOM     70 H1   ASN E   1      48.681  36.162  13.398  1.00 55.39 LIG 0.28  HD
ATOM     71 H2   ASN E   1      48.465  34.976  12.586  1.00 55.39 LIG 0.28  HD
ATOM     72 H3   ASN E   1      48.993  36.187  11.980  1.00 55.39 LIG 0.28  HD
ENDBRANCH 62 69
ENDBRANCH 60 62
ENDBRANCH 45 58
ENDBRANCH 43 45
ENDBRANCH 1 41
TORSDOF 28
ENDMDL
MODEL 3
USER: ADFR SOLUTION from run 164
USER: SCORE 25.321223 LL:  -5.277 LR: -21.258 RR:   0.000 FEB: -12.906
USER: RMSD 12.716556
USER: SEED 163
USER: STATUS searching
USER: GENES 30
USER: genes 0 Translation |==|  0.43446 0.35026 0.41229
USER: genes 1 Rotation |==|  0.66614 0.91328 0.27530 0.53333
USER: genes 2 Torsion [N]-CA--C-[N] |==|  0.41562
USER: genes 3 Torsion [C]-N--CA-[C] |==|  0.69249
USER: genes 4 Torsion [N]-CA--C-[N] |==|  0.32912
USER: genes 5 Torsion [C]-N--CA-[C] |==|  0.79329
USER: genes 6 Torsion [N]-CA--C-[N] |==|  0.35015
USER: genes 7 Torsion [C]-N--CA-[C] |==|  0.67222
USER: genes 8 Torsion [N]-CA--C-[N] |==|  0.74578
USER: genes 9 Torsion [C]-N--CA-[C] |==|  0.50734
USER: genes 10 Torsion [N]-CA--C-[O] |==|  0.82437
USER: genes 11 Torsion [N]-CA--CB-[CG2] |==|  0.64870
USER: genes 12 Torsion [CA]-CB--OG1-[HG1] |==|  0.22173
USER: genes 13 Torsion [N]-CA--CB-[CG] |==|  0.10592
USER: genes 14 Torsion [CA]-CB--CG-[CD1] |==|  0.36882
USER: genes 15 Torsion [N]-CA--CB-[CG] |==|  0.67331
USER: genes 16 Torsion [CA]-CB--CG-[CD2] |==|  0.40024
USER: genes 17 Torsion [C]-CA--CB-[CG] |==|  0.07955
USER: genes 18 Torsion [CA]-CB--CG-[CD2] |==|  0.69999
USER: genes 19 Torsion [C]-CA--N-[C] |==|  0.64654
USER: genes 20 Torsion [N]-C--CA-[N] |==|  0.08230
USER: genes 21 Torsion [C]-CA--CB-[CG] |==|  0.36224
USER: genes 22 Torsion [CA]-CB--CG-[CD] |==|  0.00338
USER: genes 23 Torsion [CB]-CG--CD-[NE] |==|  0.51798
USER: genes 24 Torsion [CG]-CD--NE-[HE] |==|  0.90323
USER: genes 25 Torsion [C]-CA--N-[C] |==|  0.68365
USER: genes 26 Torsion [N]-C--CA-[N] |==|  0.50428
USER: genes 27 Torsion [C]-CA--CB-[CG] |==|  0.18020
USER: genes 28 Torsion [CA]-CB--CG-[OD1] |==|  0.10057
USER: genes 29 Torsion [C]-CA--N-[H2] |==|  0.85425
ROOT
ATOM      1  CA  LEU E   3      44.266  40.751  14.846  1.00 22.83 LIG 0.18  C 
ENDROOT
BRANCH 1 2
ATOM      2  C   LEU E   3      45.239  41.200  15.985  1.00 19.55 LIG 0.24  C 
ATOM      3 O    LEU E   3      46.261  40.578  16.227  1.00 19.60 LIG-0.27  OA
ATOM      4  N   LEU E   4      44.886  42.269  16.659  1.00 19.32 LIG-0.35  N 
ATOM      5 H    LEU E   4      44.098  42.612  16.658  1.00 19.32 LIG 0.16  HD
BRANCH 4 6
ATOM      6  CA  LEU E   4      45.897  42.989  17.514  1.00 17.74 LIG 0.18  C 
BRANCH 6 7
ATOM      7  C   LEU E   4      45.602  42.835  18.964  1.00 18.94 LIG 0.24  C 
ATOM      8  N   LEU E   5      46.562  42.211  19.692  1.00 19.76 LIG-0.35  N 
ATOM      9 H    LEU E   5      47.332  41.982  19.384  1.00 19.76 LIG 0.16  HD
ATOM     10 O    LEU E   4      44.492  43.206  19.452  1.00 20.41 LIG-0.27  OA
BRANCH 8 11
ATOM     11  CA  LEU E   5      46.342  41.874  21.094  1.00 18.99 LIG 0.18  C 
BRANCH 11 12
ATOM     12  C   LEU E   5      46.438  43.178  21.890  1.00 20.67 LIG 0.24  C 
ATOM     13  N   THR E   6      45.387  43.441  22.668  1.00 21.83 LIG-0.34  N 
ATOM     14 H    THR E   6      44.657  42.988  22.690  1.00 21.83 LIG 0.16  HD
ATOM     15 O    LEU E   5      47.451  43.835  21.804  1.00 20.01 LIG-0.27  OA
BRANCH 13 16
ATOM     16  CA  THR E   6      45.452  44.597  23.579  1.00 24.74 LIG 0.20  C 
BRANCH 16 17
ATOM     17  C   THR E   6      45.338  44.116  25.027  1.00 26.78 LIG 0.24  C 
ATOM     18  N   GLY E   7      44.083  44.088  25.500  1.00 28.46 LIG-0.35  N 
ATOM     19 H    GLY E   7      43.400  44.029  24.981  1.00 28.46 LIG 0.16  HD
ATOM     20 O    THR E   6      46.313  43.742  25.686  1.00 25.34 LIG-0.27  OA
BRANCH 18 21
ATOM     21  CA  GLY E   7      43.718  44.150  26.912  1.00 36.11 LIG 0.23  C 
BRANCH 21 22
ATOM     22  C   GLY E   7      42.253  44.031  27.069  1.00 43.05 LIG 0.19  C 
ATOM     23 OXT  GLY E   7      41.848  43.040  27.680  1.00 50.23 LIG-0.65  OA
ATOM     24 O    GLY E   7      41.468  44.887  26.600  1.00 56.48 LIG-0.65  OA
ENDBRANCH 21 22
ENDBRANCH 18 21
ENDBRANCH 16 17
BRANCH 16 25
ATOM     25  CB  THR E   6      44.350  45.620  23.234  1.00 24.32 LIG 0.15  C 
ATOM     26  CG2 THR E   6      44.976  47.066  23.013  1.00 23.74 LIG 0.04  C 
BRANCH 25 27
ATOM     27 OG1  THR E   6      43.748  45.177  22.032  1.00 30.49 LIG-0.39  OA
ATOM     28 HG1  THR E   6      43.200  44.563  22.203  1.00 30.49 LIG 0.21  HD
ENDBRANCH 25 27
ENDBRANCH 16 25
ENDBRANCH 13 16
ENDBRANCH 11 12
BRANCH 11 29
ATOM     29  CB  LEU E   5      47.430  40.966  21.649  1.00 19.92 LIG 0.04  C 
BRANCH 29 30
ATOM     30  CG  LEU E   5      48.812  41.380  21.067  1.00 17.19 LIG-0.02  C 
ATOM     31  CD1 LEU E   5      49.817  41.462  22.185  1.00 19.71 LIG 0.01  C 
ATOM     32  CD2 LEU E   5      49.238  40.408  19.996  1.00 21.46 LIG 0.01  C 
ENDBRANCH 29 30
ENDBRANCH 11 29
ENDBRANCH 8 11
ENDBRANCH 6 7
BRANCH 6 33
ATOM     33  CB  LEU E   4      45.857  44.508  17.143  1.00 18.44 LIG 0.04  C 
BRANCH 33 34
ATOM     34  CG  LEU E   4      47.221  44.960  16.572  1.00 22.78 LIG-0.02  C 
ATOM     35  CD2 LEU E   4      47.093  46.008  15.450  1.00 23.44 LIG 0.01  C 
ATOM     36  CD1 LEU E   4      47.918  43.693  16.074  1.00 27.53 LIG 0.01  C 
ENDBRANCH 33 34
ENDBRANCH 6 33
ENDBRANCH 4 6
ENDBRANCH 1 2
BRANCH 1 37
ATOM     37  CB  LEU E   3      43.216  39.815  15.453  1.00 29.41 LIG 0.04  C 
BRANCH 37 38
ATOM     38  CG  LEU E   3      42.863  40.022  16.944  1.00 30.90 LIG-0.02  C 
ATOM     39  CD1 LEU E   3      41.334  40.112  17.143  1.00 35.09 LIG 0.01  C 
ATOM     40  CD2 LEU E   3      43.436  38.888  17.775  1.00 39.15 LIG 0.01  C 
ENDBRANCH 37 38
ENDBRANCH 1 37
BRANCH 1 41
ATOM     41  N   LEU E   3      45.010  40.079  13.738  1.00 22.92 LIG-0.35  N 
ATOM     42 H    LEU E   3      45.522  39.430  13.974  1.00 22.92 LIG 0.16  HD
ATOM     43  C   ARG E   2      44.843  40.510  12.493  1.00 28.87 LIG 0.24  C 
ATOM     44 O    ARG E   2      44.089  41.493  12.231  1.00 29.44 LIG-0.27  OA
BRANCH 43 45
ATOM     45  CA  ARG E   2      45.600  39.793  11.351  1.00 32.90 LIG 0.18  C 
BRANCH 45 46
ATOM     46  CB  ARG E   2      44.728  39.700  10.109  1.00 32.53 LIG 0.04  C 
BRANCH 46 47
ATOM     47  CG  ARG E   2      45.363  40.147   8.841  1.00 34.92 LIG 0.02  C 
BRANCH 47 48
ATOM     48  CD  ARG E   2      46.763  40.563   9.129  1.00 37.57 LIG 0.14  C 
BRANCH 48 49
ATOM     49  NE  ARG E   2      47.464  41.171   7.987  1.00 41.00 LIG-0.23  N 
ATOM     50 HE   ARG E   2      47.290  40.874   7.199  1.00 41.00 LIG 0.18  HD
ATOM     51  CZ  ARG E   2      48.358  42.162   8.105  1.00 43.22 LIG 0.67  C 
ATOM     52  NH2 ARG E   2      48.897  42.709   7.024  1.00 39.75 LIG-0.23  N 
ATOM     53  NH1 ARG E   2      48.722  42.620   9.317  1.00 41.20 LIG-0.23  N 
ATOM     54 2HH2 ARG E   2      49.470  43.345   7.103  1.00 39.75 LIG 0.17  HD
ATOM     55 1HH2 ARG E   2      48.674  42.427   6.242  1.00 39.75 LIG 0.17  HD
ATOM     56 1HH1 ARG E   2      48.380  42.276  10.027  1.00 41.20 LIG 0.17  HD
ATOM     57 2HH1 ARG E   2      49.296  43.257   9.380  1.00 41.20 LIG 0.17  HD
ENDBRANCH 48 49
ENDBRANCH 47 48
ENDBRANCH 46 47
ENDBRANCH 45 46
BRANCH 45 58
ATOM     58  N   ARG E   2      45.807  38.383  11.714  1.00 36.64 LIG-0.35  N 
ATOM     59 H    ARG E   2      45.075  37.934  11.767  1.00 36.64 LIG 0.16  HD
ATOM     60  C   ASN E   1      46.986  37.846  11.938  1.00 41.83 LIG 0.25  C 
ATOM     61 O    ASN E   1      48.029  38.505  11.808  1.00 38.61 LIG-0.27  OA
BRANCH 60 62
ATOM     62  CA  ASN E   1      46.989  36.312  12.274  1.00 50.15 LIG 0.28  C 
BRANCH 62 63
ATOM     63  CB  ASN E   1      46.023  35.893  13.433  1.00 58.25 LIG 0.14  C 
BRANCH 63 64
ATOM     64  CG  ASN E   1      44.503  36.112  13.109  1.00 70.07 LIG 0.22  C 
ATOM     65 OD1  ASN E   1      44.025  35.934  11.976  1.00 69.16 LIG-0.27  OA
ATOM     66  ND2 ASN E   1      43.745  36.504  14.136  1.00 65.88 LIG-0.37  N 
ATOM     67 22HD ASN E   1      44.098  36.620  14.911  1.00 65.88 LIG 0.16  HD
ATOM     68 21HD ASN E   1      42.903  36.639  14.022  1.00 65.88 LIG 0.16  HD
ENDBRANCH 63 64
ENDBRANCH 62 63
BRANCH 62 69
ATOM     69  N   ASN E   1      48.369  35.819  12.546  1.00 55.39 LIG-0.07  N 
ATOM     70 H1   ASN E   1      48.358  34.933  12.625  1.00 55.39 LIG 0.28  HD
ATOM     71 H2   ASN E   1      48.905  36.050  11.873  1.00 55.39 LIG 0.28  HD
ATOM     72 H3   ASN E   1      48.670  36.180  13.301  1.00 55.39 LIG 0.28  HD
ENDBRANCH 62 69
ENDBRANCH 60 62
ENDBRANCH 45 58
ENDBRANCH 43 45
ENDBRANCH 1 41
TORSDOF 28
ENDMDL
MODEL 4
USER: ADFR SOLUTION from run 60
USER: SCORE 24.585185 LL:  -5.483 LR: -21.184 RR:   0.000 FEB: -12.832
USER: RMSD 12.175261
USER: SEED 59
USER: STATUS no improvement in best in 9 clusters for 5 generations
USER: GENES 30
USER: genes 0 Translation |==|  0.40095 0.33173 0.27759
USER: genes 1 Rotation |==|  0.76587 0.83826 0.32397 0.68414
USER: genes 2 Torsion [N]-CA--C-[N] |==|  0.94227
USER: genes 3 Torsion [C]-N--CA-[C] |==|  0.69289
USER: genes 4 Torsion [N]-CA--C-[N] |==|  0.39445
USER: genes 5 Torsion [C]-N--CA-[C] |==|  0.60596
USER: genes 6 Torsion [N]-CA--C-[N] |==|  0.49593
USER: genes 7 Torsion [C]-N--CA-[C] |==|  0.18683
USER: genes 8 Torsion [N]-CA--C-[N] |==|  0.14391
USER: genes 9 Torsion [C]-N--CA-[C] |==|  0.64724
USER: genes 10 Torsion [N]-CA--C-[O] |==|  0.76508
USER: genes 11 Torsion [N]-CA--CB-[CG2] |==|  0.54067
USER: genes 12 Torsion [CA]-CB--OG1-[HG1] |==|  0.71081
USER: genes 13 Torsion [N]-CA--CB-[CG] |==|  0.66702
USER: genes 14 Torsion [CA]-CB--CG-[CD1] |==|  0.57877
USER: genes 15 Torsion [N]-CA--CB-[CG] |==|  0.59310
USER: genes 16 Torsion [CA]-CB--CG-[CD2] |==|  0.40128
USER: genes 17 Torsion [C]-CA--CB-[CG] |==|  0.50966
USER: genes 18 Torsion [CA]-CB--CG-[CD2] |==|  0.59090
USER: genes 19 Torsion [C]-CA--N-[C] |==|  0.69311
USER: genes 20 Torsion [N]-C--CA-[N] |==|  0.51277
USER: genes 21 Torsion [C]-CA--CB-[CG] |==|  0.11096
USER: genes 22 Torsion [CA]-CB--CG-[CD] |==|  0.21581
USER: genes 23 Torsion [CB]-CG--CD-[NE] |==|  0.48680
USER: genes 24 Torsion [CG]-CD--NE-[HE] |==|  0.80592
USER: genes 25 Torsion [C]-CA--N-[C] |==|  0.15670
USER: genes 26 Torsion [N]-C--CA-[N] |==|  0.39131
USER: genes 27 Torsion [C]-CA--CB-[CG] |==|  0.98624
USER: genes 28 Torsion [CA]-CB--CG-[OD1] |==|  0.17873
USER: genes 29 Torsion [C]-CA--N-[H2] |==|  0.76608
ROOT
ATOM      1  CA  LEU E   3      43.587  40.334  11.310  1.00 22.83 LIG 0.18  C 
ENDROOT
BRANCH 1 2
ATOM      2  C   LEU E   3      43.566  40.916  12.762  1.00 19.55 LIG 0.24  C 
ATOM      3 O    LEU E   3      42.968  41.948  13.022  1.00 19.60 LIG-0.27  OA
ATOM      4  N   LEU E   4      44.230  40.235  13.667  1.00 19.32 LIG-0.35  N 
ATOM      5 H    LEU E   4      44.816  39.631  13.494  1.00 19.32 LIG 0.16  HD
BRANCH 4 6
ATOM      6  CA  LEU E   4      43.985  40.492  15.132  1.00 17.74 LIG 0.18  C 
BRANCH 6 7
ATOM      7  C   LEU E   4      45.153  41.149  15.779  1.00 18.94 LIG 0.24  C 
ATOM      8  N   LEU E   5      44.852  42.091  16.709  1.00 19.76 LIG-0.35  N 
ATOM      9 H    LEU E   5      44.055  42.260  16.986  1.00 19.76 LIG 0.16  HD
ATOM     10 O    LEU E   4      46.339  40.883  15.419  1.00 20.41 LIG-0.27  OA
BRANCH 8 11
ATOM     11  CA  LEU E   5      45.896  42.905  17.319  1.00 18.99 LIG 0.18  C 
BRANCH 11 12
ATOM     12  C   LEU E   5      45.522  43.086  18.792  1.00 20.67 LIG 0.24  C 
ATOM     13  N   THR E   6      46.397  43.790  19.512  1.00 21.83 LIG-0.34  N 
ATOM     14 H    THR E   6      47.162  44.067  19.235  1.00 21.83 LIG 0.16  HD
ATOM     15 O    LEU E   5      44.466  42.640  19.180  1.00 20.01 LIG-0.27  OA
BRANCH 13 16
ATOM     16  CA  THR E   6      46.052  44.138  20.901  1.00 24.74 LIG 0.20  C 
BRANCH 16 17
ATOM     17  C   THR E   6      46.005  42.867  21.752  1.00 26.78 LIG 0.24  C 
ATOM     18  N   GLY E   7      47.101  42.099  21.655  1.00 28.46 LIG-0.35  N 
ATOM     19 H    GLY E   7      47.863  42.417  21.415  1.00 28.46 LIG 0.16  HD
ATOM     20 O    THR E   6      45.059  42.596  22.497  1.00 25.34 LIG-0.27  OA
BRANCH 18 21
ATOM     21  CA  GLY E   7      47.149  40.667  21.936  1.00 36.11 LIG 0.23  C 
BRANCH 21 22
ATOM     22  C   GLY E   7      48.223  40.370  22.908  1.00 43.05 LIG 0.19  C 
ATOM     23 OXT  GLY E   7      47.886  40.306  24.091  1.00 50.23 LIG-0.65  OA
ATOM     24 O    GLY E   7      49.411  40.202  22.546  1.00 56.48 LIG-0.65  OA
ENDBRANCH 21 22
ENDBRANCH 18 21
ENDBRANCH 16 17
BRANCH 16 25
ATOM     25  CB  THR E   6      44.713  44.903  20.952  1.00 24.32 LIG 0.15  C 
ATOM     26  CG2 THR E   6      44.520  45.603  22.367  1.00 23.74 LIG 0.04  C 
BRANCH 25 27
ATOM     27 OG1  THR E   6      44.773  45.891  19.939  1.00 30.49 LIG-0.39  OA
ATOM     28 HG1  THR E   6      44.910  46.642  20.289  1.00 30.49 LIG 0.21  HD
ENDBRANCH 25 27
ENDBRANCH 16 25
ENDBRANCH 13 16
ENDBRANCH 11 12
BRANCH 11 29
ATOM     29  CB  LEU E   5      45.956  44.307  16.729  1.00 19.92 LIG 0.04  C 
BRANCH 29 30
ATOM     30  CG  LEU E   5      47.355  44.554  16.096  1.00 17.19 LIG-0.02  C 
ATOM     31  CD1 LEU E   5      47.673  46.025  16.152  1.00 19.71 LIG 0.01  C 
ATOM     32  CD2 LEU E   5      48.399  43.725  16.798  1.00 21.46 LIG 0.01  C 
ENDBRANCH 29 30
ENDBRANCH 11 29
ENDBRANCH 8 11
ENDBRANCH 6 7
BRANCH 6 33
ATOM     33  CB  LEU E   4      43.721  39.118  15.831  1.00 18.44 LIG 0.04  C 
BRANCH 33 34
ATOM     34  CG  LEU E   4      42.707  39.287  16.986  1.00 22.78 LIG-0.02  C 
ATOM     35  CD2 LEU E   4      41.763  38.080  17.148  1.00 23.44 LIG 0.01  C 
ATOM     36  CD1 LEU E   4      41.927  40.568  16.689  1.00 27.53 LIG 0.01  C 
ENDBRANCH 33 34
ENDBRANCH 6 33
ENDBRANCH 4 6
ENDBRANCH 1 2
BRANCH 1 37
ATOM     37  CB  LEU E   3      42.257  39.615  11.063  1.00 29.41 LIG 0.04  C 
BRANCH 37 38
ATOM     38  CG  LEU E   3      42.088  38.887   9.709  1.00 30.90 LIG-0.02  C 
ATOM     39  CD1 LEU E   3      42.562  37.421   9.806  1.00 35.09 LIG 0.01  C 
ATOM     40  CD2 LEU E   3      40.636  38.944   9.268  1.00 39.15 LIG 0.01  C 
ENDBRANCH 37 38
ENDBRANCH 1 37
BRANCH 1 41
ATOM     41  N   LEU E   3      44.744  39.407  11.120  1.00 22.92 LIG-0.35  N 
ATOM     42 H    LEU E   3      44.697  38.662  11.546  1.00 22.92 LIG 0.16  HD
ATOM     43  C   ARG E   2      45.744  39.776  10.328  1.00 28.87 LIG 0.24  C 
ATOM     44 O    ARG E   2      45.748  40.906   9.755  1.00 29.44 LIG-0.27  OA
BRANCH 43 45
ATOM     45  CA  ARG E   2      46.925  38.800  10.119  1.00 32.90 LIG 0.18  C 
BRANCH 45 46
ATOM     46  CB  ARG E   2      47.643  38.542  11.434  1.00 32.53 LIG 0.04  C 
BRANCH 46 47
ATOM     47  CG  ARG E   2      46.767  38.394  12.628  1.00 34.92 LIG 0.02  C 
BRANCH 47 48
ATOM     48  CD  ARG E   2      46.167  37.033  12.614  1.00 37.57 LIG 0.14  C 
BRANCH 48 49
ATOM     49  NE  ARG E   2      45.361  36.711  13.801  1.00 41.00 LIG-0.23  N 
ATOM     50 HE   ARG E   2      45.768  36.600  14.551  1.00 41.00 LIG 0.18  HD
ATOM     51  CZ  ARG E   2      44.027  36.581  13.783  1.00 43.22 LIG 0.67  C 
ATOM     52  NH2 ARG E   2      43.361  36.360  14.908  1.00 39.75 LIG-0.23  N 
ATOM     53  NH1 ARG E   2      43.343  36.674  12.628  1.00 41.20 LIG-0.23  N 
ATOM     54 2HH2 ARG E   2      42.505  36.277  14.892  1.00 39.75 LIG 0.17  HD
ATOM     55 1HH2 ARG E   2      43.785  36.299  15.654  1.00 39.75 LIG 0.17  HD
ATOM     56 1HH1 ARG E   2      43.761  36.818  11.891  1.00 41.20 LIG 0.17  HD
ATOM     57 2HH1 ARG E   2      42.487  36.589  12.628  1.00 41.20 LIG 0.17  HD
ENDBRANCH 48 49
ENDBRANCH 47 48
ENDBRANCH 46 47
ENDBRANCH 45 46
BRANCH 45 58
ATOM     58  N   ARG E   2      47.959  39.454   9.303  1.00 36.64 LIG-0.35  N 
ATOM     59 H    ARG E   2      48.157  39.015   8.590  1.00 36.64 LIG 0.16  HD
ATOM     60  C   ASN E   1      48.532  40.595   9.616  1.00 41.83 LIG 0.25  C 
ATOM     61 O    ASN E   1      48.191  41.231  10.625  1.00 38.61 LIG-0.27  OA
BRANCH 60 62
ATOM     62  CA  ASN E   1      49.584  41.140   8.585  1.00 50.15 LIG 0.28  C 
BRANCH 62 63
ATOM     63  CB  ASN E   1      51.064  40.720   8.876  1.00 58.25 LIG 0.14  C 
BRANCH 63 64
ATOM     64  CG  ASN E   1      51.252  39.929  10.218  1.00 70.07 LIG 0.22  C 
ATOM     65 OD1  ASN E   1      50.749  38.810  10.416  1.00 69.16 LIG-0.27  OA
ATOM     66  ND2 ASN E   1      51.996  40.537  11.147  1.00 65.88 LIG-0.37  N 
ATOM     67 22HD ASN E   1      52.334  41.312  10.987  1.00 65.88 LIG 0.16  HD
ATOM     68 21HD ASN E   1      52.136  40.154  11.904  1.00 65.88 LIG 0.16  HD
ENDBRANCH 63 64
ENDBRANCH 62 63
BRANCH 62 69
ATOM     69  N   ASN E   1      49.483  42.620   8.439  1.00 55.39 LIG-0.07  N 
ATOM     70 H1   ASN E   1      50.262  42.944   8.155  1.00 55.39 LIG 0.28  HD
ATOM     71 H2   ASN E   1      48.846  42.818   7.849  1.00 55.39 LIG 0.28  HD
ATOM     72 H3   ASN E   1      49.282  42.983   9.226  1.00 55.39 LIG 0.28  HD
ENDBRANCH 62 69
ENDBRANCH 60 62
ENDBRANCH 45 58
ENDBRANCH 43 45
ENDBRANCH 1 41
TORSDOF 28
ENDMDL
MODEL 5
USER: ADFR SOLUTION from run 71
USER: SCORE 23.806377 LL:  -4.961 LR: -21.050 RR:   0.000 FEB: -12.698
USER: RMSD 12.588733
USER: SEED 70
USER: STATUS no improvement in best in 4 clusters for 5 generations
USER: GENES 30
USER: genes 0 Translation |==|  0.43130 0.33398 0.28851
USER: genes 1 Rotation |==|  0.32408 0.92558 0.42124 0.67812
USER: genes 2 Torsion [N]-CA--C-[N] |==|  0.67683
USER: genes 3 Torsion [C]-N--CA-[C] |==|  0.61312
USER: genes 4 Torsion [N]-CA--C-[N] |==|  0.40823
USER: genes 5 Torsion [C]-N--CA-[C] |==|  0.69183
USER: genes 6 Torsion [N]-CA--C-[N] |==|  0.33428
USER: genes 7 Torsion [C]-N--CA-[C] |==|  0.85905
USER: genes 8 Torsion [N]-CA--C-[N] |==|  0.89349
USER: genes 9 Torsion [C]-N--CA-[C] |==|  0.49313
USER: genes 10 Torsion [N]-CA--C-[O] |==|  0.63003
USER: genes 11 Torsion [N]-CA--CB-[CG2] |==|  0.49576
USER: genes 12 Torsion [CA]-CB--OG1-[HG1] |==|  0.65818
USER: genes 13 Torsion [N]-CA--CB-[CG] |==|  0.83464
USER: genes 14 Torsion [CA]-CB--CG-[CD1] |==|  0.51737
USER: genes 15 Torsion [N]-CA--CB-[CG] |==|  0.75802
USER: genes 16 Torsion [CA]-CB--CG-[CD2] |==|  0.79380
USER: genes 17 Torsion [C]-CA--CB-[CG] |==|  0.23717
USER: genes 18 Torsion [CA]-CB--CG-[CD2] |==|  0.01028
USER: genes 19 Torsion [C]-CA--N-[C] |==|  0.46637
USER: genes 20 Torsion [N]-C--CA-[N] |==|  0.34470
USER: genes 21 Torsion [C]-CA--CB-[CG] |==|  0.22534
USER: genes 22 Torsion [CA]-CB--CG-[CD] |==|  0.36352
USER: genes 23 Torsion [CB]-CG--CD-[NE] |==|  0.53319
USER: genes 24 Torsion [CG]-CD--NE-[HE] |==|  0.80060
USER: genes 25 Torsion [C]-CA--N-[C] |==|  0.85000
USER: genes 26 Torsion [N]-C--CA-[N] |==|  0.23209
USER: genes 27 Torsion [C]-CA--CB-[CG] |==|  0.60360
USER: genes 28 Torsion [CA]-CB--CG-[OD1] |==|  0.88618
USER: genes 29 Torsion [C]-CA--N-[H2] |==|  0.52554
ROOT
ATOM      1  CA  LEU E   3      44.202  40.384  11.596  1.00 22.83 LIG 0.18  C 
ENDROOT
BRANCH 1 2
ATOM      2  C   LEU E   3      43.850  41.089  12.948  1.00 19.55 LIG 0.24  C 
ATOM      3 O    LEU E   3      42.960  41.922  13.015  1.00 19.60 LIG-0.27  OA
ATOM      4  N   LEU E   4      44.570  40.737  13.988  1.00 19.32 LIG-0.35  N 
ATOM      5 H    LEU E   4      45.318  40.316  13.947  1.00 19.32 LIG 0.16  HD
BRANCH 4 6
ATOM      6  CA  LEU E   4      44.095  41.068  15.380  1.00 17.74 LIG 0.18  C 
BRANCH 6 7
ATOM      7  C   LEU E   4      45.214  41.518  16.251  1.00 18.94 LIG 0.24  C 
ATOM      8  N   LEU E   5      44.889  42.446  17.186  1.00 19.76 LIG-0.35  N 
ATOM      9 H    LEU E   5      44.087  42.714  17.344  1.00 19.76 LIG 0.16  HD
ATOM     10 O    LEU E   4      46.398  41.102  16.067  1.00 20.41 LIG-0.27  OA
BRANCH 8 11
ATOM     11  CA  LEU E   5      45.915  43.071  18.013  1.00 18.99 LIG 0.18  C 
BRANCH 11 12
ATOM     12  C   LEU E   5      45.717  42.556  19.441  1.00 20.67 LIG 0.24  C 
ATOM     13  N   THR E   6      46.763  41.908  19.955  1.00 21.83 LIG-0.34  N 
ATOM     14 H    THR E   6      47.479  41.698  19.528  1.00 21.83 LIG 0.16  HD
ATOM     15 O    LEU E   5      44.679  42.811  20.009  1.00 20.01 LIG-0.27  OA
BRANCH 13 16
ATOM     16  CA  THR E   6      46.719  41.504  21.371  1.00 24.74 LIG 0.20  C 
BRANCH 16 17
ATOM     17  C   THR E   6      46.333  42.706  22.235  1.00 26.78 LIG 0.24  C 
ATOM     18  N   GLY E   7      46.872  43.867  21.835  1.00 28.46 LIG-0.35  N 
ATOM     19 H    GLY E   7      47.132  43.996  21.025  1.00 28.46 LIG 0.16  HD
ATOM     20 O    THR E   6      45.555  42.620  23.191  1.00 25.34 LIG-0.27  OA
BRANCH 18 21
ATOM     21  CA  GLY E   7      47.085  45.032  22.690  1.00 36.11 LIG 0.23  C 
BRANCH 21 22
ATOM     22  C   GLY E   7      47.753  46.110  21.931  1.00 43.05 LIG 0.19  C 
ATOM     23 OXT  GLY E   7      47.295  46.356  20.813  1.00 50.23 LIG-0.65  OA
ATOM     24 O    GLY E   7      48.735  46.734  22.396  1.00 56.48 LIG-0.65  OA
ENDBRANCH 21 22
ENDBRANCH 18 21
ENDBRANCH 16 17
BRANCH 16 25
ATOM     25  CB  THR E   6      48.073  40.905  21.806  1.00 24.32 LIG 0.15  C 
ATOM     26  CG2 THR E   6      48.041  40.504  23.344  1.00 23.74 LIG 0.04  C 
BRANCH 25 27
ATOM     27 OG1  THR E   6      48.274  39.745  21.018  1.00 30.49 LIG-0.39  OA
ATOM     28 HG1  THR E   6      48.382  39.081  21.521  1.00 30.49 LIG 0.21  HD
ENDBRANCH 25 27
ENDBRANCH 16 25
ENDBRANCH 13 16
ENDBRANCH 11 12
BRANCH 11 29
ATOM     29  CB  LEU E   5      45.757  44.582  18.089  1.00 19.92 LIG 0.04  C 
BRANCH 29 30
ATOM     30  CG  LEU E   5      45.844  45.195  16.662  1.00 17.19 LIG-0.02  C 
ATOM     31  CD1 LEU E   5      45.840  46.698  16.765  1.00 19.71 LIG 0.01  C 
ATOM     32  CD2 LEU E   5      47.069  44.683  15.948  1.00 21.46 LIG 0.01  C 
ENDBRANCH 29 30
ENDBRANCH 11 29
ENDBRANCH 8 11
ENDBRANCH 6 7
BRANCH 6 33
ATOM     33  CB  LEU E   4      43.453  39.782  15.996  1.00 18.44 LIG 0.04  C 
BRANCH 33 34
ATOM     34  CG  LEU E   4      41.958  39.689  15.616  1.00 22.78 LIG-0.02  C 
ATOM     35  CD2 LEU E   4      41.070  40.683  16.390  1.00 23.44 LIG 0.01  C 
ATOM     36  CD1 LEU E   4      41.537  38.243  15.882  1.00 27.53 LIG 0.01  C 
ENDBRANCH 33 34
ENDBRANCH 6 33
ENDBRANCH 4 6
ENDBRANCH 1 2
BRANCH 1 37
ATOM     37  CB  LEU E   3      45.254  39.307  11.877  1.00 29.41 LIG 0.04  C 
BRANCH 37 38
ATOM     38  CG  LEU E   3      44.743  37.921  12.333  1.00 30.90 LIG-0.02  C 
ATOM     39  CD1 LEU E   3      45.272  37.571  13.741  1.00 35.09 LIG 0.01  C 
ATOM     40  CD2 LEU E   3      43.224  37.899  12.320  1.00 39.15 LIG 0.01  C 
ENDBRANCH 37 38
ENDBRANCH 1 37
BRANCH 1 41
ATOM     41  N   LEU E   3      44.696  41.371  10.589  1.00 22.92 LIG-0.35  N 
ATOM     42 H    LEU E   3      44.581  42.199  10.792  1.00 22.92 LIG 0.16  HD
ATOM     43  C   ARG E   2      45.267  40.927   9.475  1.00 28.87 LIG 0.24  C 
ATOM     44 O    ARG E   2      45.374  39.687   9.240  1.00 29.44 LIG-0.27  OA
BRANCH 43 45
ATOM     45  CA  ARG E   2      45.796  41.956   8.450  1.00 32.90 LIG 0.18  C 
BRANCH 45 46
ATOM     46  CB  ARG E   2      45.156  41.732   7.090  1.00 32.53 LIG 0.04  C 
BRANCH 46 47
ATOM     47  CG  ARG E   2      43.795  42.308   6.916  1.00 34.92 LIG 0.02  C 
BRANCH 47 48
ATOM     48  CD  ARG E   2      43.762  43.080   5.645  1.00 37.57 LIG 0.14  C 
BRANCH 48 49
ATOM     49  NE  ARG E   2      42.572  43.928   5.479  1.00 41.00 LIG-0.23  N 
ATOM     50 HE   ARG E   2      41.818  43.545   5.322  1.00 41.00 LIG 0.18  HD
ATOM     51  CZ  ARG E   2      42.595  45.266   5.560  1.00 43.22 LIG 0.67  C 
ATOM     52  NH2 ARG E   2      41.468  45.960   5.470  1.00 39.75 LIG-0.23  N 
ATOM     53  NH1 ARG E   2      43.754  45.926   5.734  1.00 41.20 LIG-0.23  N 
ATOM     54 2HH2 ARG E   2      41.486  46.818   5.523  1.00 39.75 LIG 0.17  HD
ATOM     55 1HH2 ARG E   2      40.719  45.552   5.359  1.00 39.75 LIG 0.17  HD
ATOM     56 1HH1 ARG E   2      44.492  45.489   5.795  1.00 41.20 LIG 0.17  HD
ATOM     57 2HH1 ARG E   2      43.756  46.784   5.785  1.00 41.20 LIG 0.17  HD
ENDBRANCH 48 49
ENDBRANCH 47 48
ENDBRANCH 46 47
ENDBRANCH 45 46
BRANCH 45 58
ATOM     58  N   ARG E   2      47.220  41.696   8.191  1.00 36.64 LIG-0.35  N 
ATOM     59 H    ARG E   2      47.401  41.599   7.355  1.00 36.64 LIG 0.16  HD
ATOM     60  C   ASN E   1      48.137  41.618   9.130  1.00 41.83 LIG 0.25  C 
ATOM     61 O    ASN E   1      47.856  41.811  10.322  1.00 38.61 LIG-0.27  OA
BRANCH 60 62
ATOM     62  CA  ASN E   1      49.607  41.373   8.634  1.00 50.15 LIG 0.28  C 
BRANCH 62 63
ATOM     63  CB  ASN E   1      50.515  40.585   9.637  1.00 58.25 LIG 0.14  C 
BRANCH 63 64
ATOM     64  CG  ASN E   1      52.003  41.081   9.677  1.00 70.07 LIG 0.22  C 
ATOM     65 OD1  ASN E   1      52.636  41.394   8.654  1.00 69.16 LIG-0.27  OA
ATOM     66  ND2 ASN E   1      52.557  41.147  10.891  1.00 65.88 LIG-0.37  N 
ATOM     67 22HD ASN E   1      52.099  40.925  11.584  1.00 65.88 LIG 0.16  HD
ATOM     68 21HD ASN E   1      53.370  41.412  10.978  1.00 65.88 LIG 0.16  HD
ENDBRANCH 63 64
ENDBRANCH 62 63
BRANCH 62 69
ATOM     69  N   ASN E   1      50.264  42.651   8.233  1.00 55.39 LIG-0.07  N 
ATOM     70 H1   ASN E   1      50.409  43.149   8.955  1.00 55.39 LIG 0.28  HD
ATOM     71 H2   ASN E   1      51.039  42.474   7.834  1.00 55.39 LIG 0.28  HD
ATOM     72 H3   ASN E   1      49.735  43.093   7.671  1.00 55.39 LIG 0.28  HD
ENDBRANCH 62 69
ENDBRANCH 60 62
ENDBRANCH 45 58
ENDBRANCH 43 45
ENDBRANCH 1 41
TORSDOF 28
ENDMDL
MODEL 6
USER: ADFR SOLUTION from run 26
USER: SCORE 23.366574 LL:  -4.680 LR: -20.942 RR:   0.000 FEB: -12.590
USER: RMSD 12.446463
USER: SEED 25
USER: STATUS no improvement in best in 5 clusters for 5 generations
USER: GENES 30
USER: genes 0 Translation |==|  0.46099 0.38509 0.39042
USER: genes 1 Rotation |==|  0.75049 0.86688 0.28112 0.56887
USER: genes 2 Torsion [N]-CA--C-[N] |==|  0.44207
USER: genes 3 Torsion [C]-N--CA-[C] |==|  0.72222
USER: genes 4 Torsion [N]-CA--C-[N] |==|  0.48179
USER: genes 5 Torsion [C]-N--CA-[C] |==|  0.65787
USER: genes 6 Torsion [N]-CA--C-[N] |==|  0.37018
USER: genes 7 Torsion [C]-N--CA-[C] |==|  0.70136
USER: genes 8 Torsion [N]-CA--C-[N] |==|  0.78961
USER: genes 9 Torsion [C]-N--CA-[C] |==|  0.45727
USER: genes 10 Torsion [N]-CA--C-[O] |==|  0.81315
USER: genes 11 Torsion [N]-CA--CB-[CG2] |==|  0.64186
USER: genes 12 Torsion [CA]-CB--OG1-[HG1] |==|  0.11945
USER: genes 13 Torsion [N]-CA--CB-[CG] |==|  0.81919
USER: genes 14 Torsion [CA]-CB--CG-[CD1] |==|  0.24116
USER: genes 15 Torsion [N]-CA--CB-[CG] |==|  0.72473
USER: genes 16 Torsion [CA]-CB--CG-[CD2] |==|  0.40392
USER: genes 17 Torsion [C]-CA--CB-[CG] |==|  0.81675
USER: genes 18 Torsion [CA]-CB--CG-[CD2] |==|  0.56040
USER: genes 19 Torsion [C]-CA--N-[C] |==|  0.53626
USER: genes 20 Torsion [N]-C--CA-[N] |==|  0.75795
USER: genes 21 Torsion [C]-CA--CB-[CG] |==|  0.44024
USER: genes 22 Torsion [CA]-CB--CG-[CD] |==|  0.62308
USER: genes 23 Torsion [CB]-CG--CD-[NE] |==|  0.02474
USER: genes 24 Torsion [CG]-CD--NE-[HE] |==|  0.78222
USER: genes 25 Torsion [C]-CA--N-[C] |==|  0.81725
USER: genes 26 Torsion [N]-C--CA-[N] |==|  0.65495
USER: genes 27 Torsion [C]-CA--CB-[CG] |==|  0.41616
USER: genes 28 Torsion [CA]-CB--CG-[OD1] |==|  0.60723
USER: genes 29 Torsion [C]-CA--N-[H2] |==|  0.49055
ROOT
ATOM      1  CA  LEU E   3      44.803  41.534  14.272  1.00 22.83 LIG 0.18  C 
ENDROOT
BRANCH 1 2
ATOM      2  C   LEU E   3      45.517  41.860  15.625  1.00 19.55 LIG 0.24  C 
ATOM      3 O    LEU E   3      46.348  41.103  16.100  1.00 19.60 LIG-0.27  OA
ATOM      4  N   LEU E   4      45.162  42.979  16.211  1.00 19.32 LIG-0.35  N 
ATOM      5 H    LEU E   4      44.456  43.430  16.021  1.00 19.32 LIG 0.16  HD
BRANCH 4 6
ATOM      6  CA  LEU E   4      46.021  43.563  17.304  1.00 17.74 LIG 0.18  C 
BRANCH 6 7
ATOM      7  C   LEU E   4      45.481  43.251  18.655  1.00 18.94 LIG 0.24  C 
ATOM      8  N   LEU E   5      46.268  43.620  19.698  1.00 19.76 LIG-0.35  N 
ATOM      9 H    LEU E   5      46.993  44.076  19.619  1.00 19.76 LIG 0.16  HD
ATOM     10 O    LEU E   4      44.391  42.620  18.797  1.00 20.41 LIG-0.27  OA
BRANCH 8 11
ATOM     11  CA  LEU E   5      45.922  43.253  21.066  1.00 18.99 LIG 0.18  C 
BRANCH 11 12
ATOM     12  C   LEU E   5      45.831  44.552  21.870  1.00 20.67 LIG 0.24  C 
ATOM     13  N   THR E   6      44.752  44.658  22.646  1.00 21.83 LIG-0.34  N 
ATOM     14 H    THR E   6      44.093  44.106  22.663  1.00 21.83 LIG 0.16  HD
ATOM     15 O    LEU E   5      46.741  45.347  21.792  1.00 20.01 LIG-0.27  OA
BRANCH 13 16
ATOM     16  CA  THR E   6      44.650  45.806  23.564  1.00 24.74 LIG 0.20  C 
BRANCH 16 17
ATOM     17  C   THR E   6      44.864  45.332  25.004  1.00 26.78 LIG 0.24  C 
ATOM     18  N   GLY E   7      43.813  44.688  25.533  1.00 28.46 LIG-0.35  N 
ATOM     19 H    GLY E   7      43.222  44.299  25.045  1.00 28.46 LIG 0.16  HD
ATOM     20 O    THR E   6      45.930  45.489  25.607  1.00 25.34 LIG-0.27  OA
BRANCH 18 21
ATOM     21  CA  GLY E   7      43.540  44.562  26.962  1.00 36.11 LIG 0.23  C 
BRANCH 21 22
ATOM     22  C   GLY E   7      42.144  44.126  27.181  1.00 43.05 LIG 0.19  C 
ATOM     23 OXT  GLY E   7      41.993  42.996  27.648  1.00 50.23 LIG-0.65  OA
ATOM     24 O    GLY E   7      41.171  44.863  26.898  1.00 56.48 LIG-0.65  OA
ENDBRANCH 21 22
ENDBRANCH 18 21
ENDBRANCH 16 17
BRANCH 16 25
ATOM     25  CB  THR E   6      43.289  46.513  23.398  1.00 24.32 LIG 0.15  C 
ATOM     26  CG2 THR E   6      43.490  48.077  23.187  1.00 23.74 LIG 0.04  C 
BRANCH 25 27
ATOM     27 OG1  THR E   6      42.681  45.955  22.248  1.00 30.49 LIG-0.39  OA
ATOM     28 HG1  THR E   6      42.785  45.122  22.252  1.00 30.49 LIG 0.21  HD
ENDBRANCH 25 27
ENDBRANCH 16 25
ENDBRANCH 13 16
ENDBRANCH 11 12
BRANCH 11 29
ATOM     29  CB  LEU E   5      47.009  42.425  21.735  1.00 19.92 LIG 0.04  C 
BRANCH 29 30
ATOM     30  CG  LEU E   5      47.151  41.055  21.011  1.00 17.19 LIG-0.02  C 
ATOM     31  CD1 LEU E   5      48.105  41.200  19.856  1.00 19.71 LIG 0.01  C 
ATOM     32  CD2 LEU E   5      47.600  39.995  21.984  1.00 21.46 LIG 0.01  C 
ENDBRANCH 29 30
ENDBRANCH 11 29
ENDBRANCH 8 11
ENDBRANCH 6 7
BRANCH 6 33
ATOM     33  CB  LEU E   4      46.063  45.115  17.117  1.00 18.44 LIG 0.04  C 
BRANCH 33 34
ATOM     34  CG  LEU E   4      47.366  45.537  16.400  1.00 22.78 LIG-0.02  C 
ATOM     35  CD2 LEU E   4      47.180  46.743  15.459  1.00 23.44 LIG 0.01  C 
ATOM     36  CD1 LEU E   4      47.854  44.305  15.636  1.00 27.53 LIG 0.01  C 
ENDBRANCH 33 34
ENDBRANCH 6 33
ENDBRANCH 4 6
ENDBRANCH 1 2
BRANCH 1 37
ATOM     37  CB  LEU E   3      43.409  40.984  14.585  1.00 29.41 LIG 0.04  C 
BRANCH 37 38
ATOM     38  CG  LEU E   3      43.334  39.620  15.312  1.00 30.90 LIG-0.02  C 
ATOM     39  CD1 LEU E   3      43.591  39.785  16.825  1.00 35.09 LIG 0.01  C 
ATOM     40  CD2 LEU E   3      41.978  38.980  15.074  1.00 39.15 LIG 0.01  C 
ENDBRANCH 37 38
ENDBRANCH 1 37
BRANCH 1 41
ATOM     41  N   LEU E   3      45.598  40.560  13.466  1.00 22.92 LIG-0.35  N 
ATOM     42 H    LEU E   3      46.236  40.163  13.886  1.00 22.92 LIG 0.16  HD
ATOM     43  C   ARG E   2      45.286  40.369  12.190  1.00 28.87 LIG 0.24  C 
ATOM     44 O    ARG E   2      44.347  41.015  11.638  1.00 29.44 LIG-0.27  OA
BRANCH 43 45
ATOM     45  CA  ARG E   2      46.100  39.340  11.371  1.00 32.90 LIG 0.18  C 
BRANCH 45 46
ATOM     46  CB  ARG E   2      46.703  38.287  12.286  1.00 32.53 LIG 0.04  C 
BRANCH 46 47
ATOM     47  CG  ARG E   2      47.072  37.001  11.634  1.00 34.92 LIG 0.02  C 
BRANCH 47 48
ATOM     48  CD  ARG E   2      46.614  35.879  12.497  1.00 37.57 LIG 0.14  C 
BRANCH 48 49
ATOM     49  NE  ARG E   2      45.761  36.288  13.624  1.00 41.00 LIG-0.23  N 
ATOM     50 HE   ARG E   2      46.139  36.628  14.317  1.00 41.00 LIG 0.18  HD
ATOM     51  CZ  ARG E   2      44.427  36.159  13.631  1.00 43.22 LIG 0.67  C 
ATOM     52  NH2 ARG E   2      43.717  36.615  14.655  1.00 39.75 LIG-0.23  N 
ATOM     53  NH1 ARG E   2      43.786  35.570  12.606  1.00 41.20 LIG-0.23  N 
ATOM     54 2HH2 ARG E   2      42.862  36.532  14.657  1.00 39.75 LIG 0.17  HD
ATOM     55 1HH2 ARG E   2      44.113  36.995  15.318  1.00 39.75 LIG 0.17  HD
ATOM     56 1HH1 ARG E   2      44.232  35.270  11.935  1.00 41.20 LIG 0.17  HD
ATOM     57 2HH1 ARG E   2      42.930  35.494  12.622  1.00 41.20 LIG 0.17  HD
ENDBRANCH 48 49
ENDBRANCH 47 48
ENDBRANCH 46 47
ENDBRANCH 45 46
BRANCH 45 58
ATOM     58  N   ARG E   2      47.285  39.999  10.802  1.00 36.64 LIG-0.35  N 
ATOM     59 H    ARG E   2      48.026  39.702  11.122  1.00 36.64 LIG 0.16  HD
ATOM     60  C   ASN E   1      47.234  40.949   9.894  1.00 41.83 LIG 0.25  C 
ATOM     61 O    ASN E   1      46.153  41.325   9.415  1.00 38.61 LIG-0.27  OA
BRANCH 60 62
ATOM     62  CA  ASN E   1      48.619  41.491   9.390  1.00 50.15 LIG 0.28  C 
BRANCH 62 63
ATOM     63  CB  ASN E   1      49.867  40.779  10.013  1.00 58.25 LIG 0.14  C 
BRANCH 63 64
ATOM     64  CG  ASN E   1      51.118  40.737   9.067  1.00 70.07 LIG 0.22  C 
ATOM     65 OD1  ASN E   1      51.873  39.753   8.993  1.00 69.16 LIG-0.27  OA
ATOM     66  ND2 ASN E   1      51.325  41.836   8.335  1.00 65.88 LIG-0.37  N 
ATOM     67 22HD ASN E   1      50.788  42.505   8.403  1.00 65.88 LIG 0.16  HD
ATOM     68 21HD ASN E   1      51.994  41.873   7.797  1.00 65.88 LIG 0.16  HD
ENDBRANCH 63 64
ENDBRANCH 62 63
BRANCH 62 69
ATOM     69  N   ASN E   1      48.721  42.967   9.569  1.00 55.39 LIG-0.07  N 
ATOM     70 H1   ASN E   1      48.585  43.173  10.424  1.00 55.39 LIG 0.28  HD
ATOM     71 H2   ASN E   1      49.531  43.241   9.323  1.00 55.39 LIG 0.28  HD
ATOM     72 H3   ASN E   1      48.106  43.370   9.068  1.00 55.39 LIG 0.28  HD
ENDBRANCH 62 69
ENDBRANCH 60 62
ENDBRANCH 45 58
ENDBRANCH 43 45
ENDBRANCH 1 41
TORSDOF 28
ENDMDL
MODEL 7
USER: ADFR SOLUTION from run 184
USER: SCORE 25.345043 LL:  -6.008 LR: -20.912 RR:   0.000 FEB: -12.559
USER: RMSD 12.225852
USER: SEED 183
USER: STATUS 1 or 2 clusters left
USER: GENES 30
USER: genes 0 Translation |==|  0.43960 0.30762 0.43436
USER: genes 1 Rotation |==|  0.53293 0.93703 0.26597 0.55612
USER: genes 2 Torsion [N]-CA--C-[N] |==|  0.37263
USER: genes 3 Torsion [C]-N--CA-[C] |==|  0.14343
USER: genes 4 Torsion [N]-CA--C-[N] |==|  0.57256
USER: genes 5 Torsion [C]-N--CA-[C] |==|  0.54655
USER: genes 6 Torsion [N]-CA--C-[N] |==|  0.44948
USER: genes 7 Torsion [C]-N--CA-[C] |==|  0.62171
USER: genes 8 Torsion [N]-CA--C-[N] |==|  0.32778
USER: genes 9 Torsion [C]-N--CA-[C] |==|  0.27598
USER: genes 10 Torsion [N]-CA--C-[O] |==|  0.48445
USER: genes 11 Torsion [N]-CA--CB-[CG2] |==|  0.55666
USER: genes 12 Torsion [CA]-CB--OG1-[HG1] |==|  0.82732
USER: genes 13 Torsion [N]-CA--CB-[CG] |==|  0.11106
USER: genes 14 Torsion [CA]-CB--CG-[CD1] |==|  0.38493
USER: genes 15 Torsion [N]-CA--CB-[CG] |==|  0.67469
USER: genes 16 Torsion [CA]-CB--CG-[CD2] |==|  0.86679
USER: genes 17 Torsion [C]-CA--CB-[CG] |==|  0.31589
USER: genes 18 Torsion [CA]-CB--CG-[CD2] |==|  0.77143
USER: genes 19 Torsion [C]-CA--N-[C] |==|  0.75689
USER: genes 20 Torsion [N]-C--CA-[N] |==|  0.08203
USER: genes 21 Torsion [C]-CA--CB-[CG] |==|  0.34886
USER: genes 22 Torsion [CA]-CB--CG-[CD] |==|  0.12376
USER: genes 23 Torsion [CB]-CG--CD-[NE] |==|  0.54982
USER: genes 24 Torsion [CG]-CD--NE-[HE] |==|  0.92968
USER: genes 25 Torsion [C]-CA--N-[C] |==|  0.65224
USER: genes 26 Torsion [N]-C--CA-[N] |==|  0.62521
USER: genes 27 Torsion [C]-CA--CB-[CG] |==|  0.85094
USER: genes 28 Torsion [CA]-CB--CG-[OD1] |==|  0.95096
USER: genes 29 Torsion [C]-CA--N-[H2] |==|  0.66308
ROOT
ATOM      1  CA  LEU E   3      44.370  39.792  15.425  1.00 22.83 LIG 0.18  C 
ENDROOT
BRANCH 1 2
ATOM      2  C   LEU E   3      45.162  40.767  16.357  1.00 19.55 LIG 0.24  C 
ATOM      3 O    LEU E   3      46.338  40.575  16.621  1.00 19.60 LIG-0.27  OA
ATOM      4  N   LEU E   4      44.487  41.786  16.835  1.00 19.32 LIG-0.35  N 
ATOM      5 H    LEU E   4      43.630  41.848  16.839  1.00 19.32 LIG 0.16  HD
BRANCH 4 6
ATOM      6  CA  LEU E   4      45.219  42.961  17.431  1.00 17.74 LIG 0.18  C 
BRANCH 6 7
ATOM      7  C   LEU E   4      46.265  43.483  16.512  1.00 18.94 LIG 0.24  C 
ATOM      8  N   LEU E   5      47.303  44.121  17.110  1.00 19.76 LIG-0.35  N 
ATOM      9 H    LEU E   5      47.418  44.166  17.962  1.00 19.76 LIG 0.16  HD
ATOM     10 O    LEU E   4      46.141  43.389  15.254  1.00 20.41 LIG-0.27  OA
BRANCH 8 11
ATOM     11  CA  LEU E   5      48.325  44.798  16.321  1.00 18.99 LIG 0.18  C 
BRANCH 11 12
ATOM     12  C   LEU E   5      49.525  45.029  17.242  1.00 20.67 LIG 0.24  C 
ATOM     13  N   THR E   6      50.674  45.284  16.616  1.00 21.83 LIG-0.34  N 
ATOM     14 H    THR E   6      50.798  45.248  15.766  1.00 21.83 LIG 0.16  HD
ATOM     15 O    LEU E   5      49.346  45.018  18.440  1.00 20.01 LIG-0.27  OA
BRANCH 13 16
ATOM     16  CA  THR E   6      51.850  45.661  17.419  1.00 24.74 LIG 0.20  C 
BRANCH 16 17
ATOM     17  C   THR E   6      52.571  46.834  16.753  1.00 26.78 LIG 0.24  C 
ATOM     18  N   GLY E   7      52.613  47.949  17.499  1.00 28.46 LIG-0.35  N 
ATOM     19 H    GLY E   7      52.542  47.929  18.356  1.00 28.46 LIG 0.16  HD
ATOM     20 O    THR E   6      53.108  46.747  15.645  1.00 25.34 LIG-0.27  OA
BRANCH 18 21
ATOM     21  CA  GLY E   7      52.780  49.302  16.976  1.00 36.11 LIG 0.23  C 
BRANCH 21 22
ATOM     22  C   GLY E   7      51.471  49.984  16.891  1.00 43.05 LIG 0.19  C 
ATOM     23 OXT  GLY E   7      50.481  49.298  17.149  1.00 50.23 LIG-0.65  OA
ATOM     24 O    GLY E   7      51.377  51.191  16.567  1.00 56.48 LIG-0.65  OA
ENDBRANCH 21 22
ENDBRANCH 18 21
ENDBRANCH 16 17
BRANCH 16 25
ATOM     25  CB  THR E   6      52.790  44.451  17.605  1.00 24.32 LIG 0.15  C 
ATOM     26  CG2 THR E   6      53.748  44.671  18.855  1.00 23.74 LIG 0.04  C 
BRANCH 25 27
ATOM     27 OG1  THR E   6      51.961  43.326  17.837  1.00 30.49 LIG-0.39  OA
ATOM     28 HG1  THR E   6      51.521  43.443  18.543  1.00 30.49 LIG 0.21  HD
ENDBRANCH 25 27
ENDBRANCH 16 25
ENDBRANCH 13 16
ENDBRANCH 11 12
BRANCH 11 29
ATOM     29  CB  LEU E   5      47.882  46.179  15.860  1.00 19.92 LIG 0.04  C 
BRANCH 29 30
ATOM     30  CG  LEU E   5      47.099  46.891  17.001  1.00 17.19 LIG-0.02  C 
ATOM     31  CD1 LEU E   5      47.517  48.337  17.062  1.00 19.71 LIG 0.01  C 
ATOM     32  CD2 LEU E   5      45.615  46.742  16.787  1.00 21.46 LIG 0.01  C 
ENDBRANCH 29 30
ENDBRANCH 11 29
ENDBRANCH 8 11
ENDBRANCH 6 7
BRANCH 6 33
ATOM     33  CB  LEU E   4      45.896  42.491  18.761  1.00 18.44 LIG 0.04  C 
BRANCH 33 34
ATOM     34  CG  LEU E   4      45.312  43.263  19.966  1.00 22.78 LIG-0.02  C 
ATOM     35  CD2 LEU E   4      45.249  44.786  19.741  1.00 23.44 LIG 0.01  C 
ATOM     36  CD1 LEU E   4      46.192  42.913  21.167  1.00 27.53 LIG 0.01  C 
ENDBRANCH 33 34
ENDBRANCH 6 33
ENDBRANCH 4 6
ENDBRANCH 1 2
BRANCH 1 37
ATOM     37  CB  LEU E   3      44.038  38.528  16.225  1.00 29.41 LIG 0.04  C 
BRANCH 37 38
ATOM     38  CG  LEU E   3      42.546  38.255  16.527  1.00 30.90 LIG-0.02  C 
ATOM     39  CD1 LEU E   3      42.296  36.749  16.761  1.00 35.09 LIG 0.01  C 
ATOM     40  CD2 LEU E   3      42.106  39.057  17.738  1.00 39.15 LIG 0.01  C 
ENDBRANCH 37 38
ENDBRANCH 1 37
BRANCH 1 41
ATOM     41  N   LEU E   3      45.158  39.461  14.200  1.00 22.92 LIG-0.35  N 
ATOM     42 H    LEU E   3      45.644  38.753  14.250  1.00 22.92 LIG 0.16  HD
ATOM     43  C   ARG E   2      45.066  40.253  13.138  1.00 28.87 LIG 0.24  C 
ATOM     44 O    ARG E   2      44.345  41.295  13.154  1.00 29.44 LIG-0.27  OA
BRANCH 43 45
ATOM     45  CA  ARG E   2      45.867  39.889  11.867  1.00 32.90 LIG 0.18  C 
BRANCH 45 46
ATOM     46  CB  ARG E   2      45.060  40.204  10.618  1.00 32.53 LIG 0.04  C 
BRANCH 46 47
ATOM     47  CG  ARG E   2      45.729  41.086   9.624  1.00 34.92 LIG 0.02  C 
BRANCH 47 48
ATOM     48  CD  ARG E   2      47.134  40.629   9.450  1.00 37.57 LIG 0.14  C 
BRANCH 48 49
ATOM     49  NE  ARG E   2      48.025  41.624   8.834  1.00 41.00 LIG-0.23  N 
ATOM     50 HE   ARG E   2      47.675  42.225   8.328  1.00 41.00 LIG 0.18  HD
ATOM     51  CZ  ARG E   2      49.353  41.649   9.017  1.00 43.22 LIG 0.67  C 
ATOM     52  NH2 ARG E   2      50.083  42.620   8.485  1.00 39.75 LIG-0.23  N 
ATOM     53  NH1 ARG E   2      49.966  40.695   9.740  1.00 41.20 LIG-0.23  N 
ATOM     54 2HH2 ARG E   2      50.934  42.633   8.604  1.00 39.75 LIG 0.17  HD
ATOM     55 1HH2 ARG E   2      49.705  43.238   8.020  1.00 39.75 LIG 0.17  HD
ATOM     56 1HH1 ARG E   2      49.505  40.059  10.092  1.00 41.20 LIG 0.17  HD
ATOM     57 2HH1 ARG E   2      50.818  40.721   9.851  1.00 41.20 LIG 0.17  HD
ENDBRANCH 48 49
ENDBRANCH 47 48
ENDBRANCH 46 47
ENDBRANCH 45 46
BRANCH 45 58
ATOM     58  N   ARG E   2      46.030  38.430  11.795  1.00 36.64 LIG-0.35  N 
ATOM     59 H    ARG E   2      45.284  38.003  11.832  1.00 36.64 LIG 0.16  HD
ATOM     60  C   ASN E   1      47.191  37.823  11.684  1.00 41.83 LIG 0.25  C 
ATOM     61 O    ASN E   1      48.247  38.466  11.583  1.00 38.61 LIG-0.27  OA
BRANCH 60 62
ATOM     62  CA  ASN E   1      47.139  36.256  11.582  1.00 50.15 LIG 0.28  C 
BRANCH 62 63
ATOM     63  CB  ASN E   1      45.728  35.629  11.842  1.00 58.25 LIG 0.14  C 
BRANCH 63 64
ATOM     64  CG  ASN E   1      45.073  36.068  13.199  1.00 70.07 LIG 0.22  C 
ATOM     65 OD1  ASN E   1      45.726  36.571  14.129  1.00 69.16 LIG-0.27  OA
ATOM     66  ND2 ASN E   1      43.756  35.868  13.295  1.00 65.88 LIG-0.37  N 
ATOM     67 22HD ASN E   1      43.326  35.519  12.637  1.00 65.88 LIG 0.16  HD
ATOM     68 21HD ASN E   1      43.340  36.089  14.014  1.00 65.88 LIG 0.16  HD
ENDBRANCH 63 64
ENDBRANCH 62 63
BRANCH 62 69
ATOM     69  N   ASN E   1      48.159  35.622  12.465  1.00 55.39 LIG-0.07  N 
ATOM     70 H1   ASN E   1      47.753  35.112  13.070  1.00 55.39 LIG 0.28  HD
ATOM     71 H2   ASN E   1      48.707  35.121  11.974  1.00 55.39 LIG 0.28  HD
ATOM     72 H3   ASN E   1      48.628  36.255  12.879  1.00 55.39 LIG 0.28  HD
ENDBRANCH 62 69
ENDBRANCH 60 62
ENDBRANCH 45 58
ENDBRANCH 43 45
ENDBRANCH 1 41
TORSDOF 28
ENDMDL
MODEL 8
USER: ADFR SOLUTION from run 60
USER: SCORE 24.473235 LL:  -5.978 LR: -20.889 RR:   0.000 FEB: -12.536
USER: RMSD 12.109536
USER: SEED 59
USER: STATUS no improvement in best in 9 clusters for 5 generations
USER: GENES 30
USER: genes 0 Translation |==|  0.40246 0.32645 0.26731
USER: genes 1 Rotation |==|  0.77131 0.84428 0.32568 0.66575
USER: genes 2 Torsion [N]-CA--C-[N] |==|  0.90603
USER: genes 3 Torsion [C]-N--CA-[C] |==|  0.74144
USER: genes 4 Torsion [N]-CA--C-[N] |==|  0.34881
USER: genes 5 Torsion [C]-N--CA-[C] |==|  0.60238
USER: genes 6 Torsion [N]-CA--C-[N] |==|  0.56062
USER: genes 7 Torsion [C]-N--CA-[C] |==|  0.62480
USER: genes 8 Torsion [N]-CA--C-[N] |==|  0.96878
USER: genes 9 Torsion [C]-N--CA-[C] |==|  0.46025
USER: genes 10 Torsion [N]-CA--C-[O] |==|  0.22012
USER: genes 11 Torsion [N]-CA--CB-[CG2] |==|  0.65647
USER: genes 12 Torsion [CA]-CB--OG1-[HG1] |==|  0.89591
USER: genes 13 Torsion [N]-CA--CB-[CG] |==|  0.64486
USER: genes 14 Torsion [CA]-CB--CG-[CD1] |==|  0.56892
USER: genes 15 Torsion [N]-CA--CB-[CG] |==|  0.63578
USER: genes 16 Torsion [CA]-CB--CG-[CD2] |==|  0.04595
USER: genes 17 Torsion [C]-CA--CB-[CG] |==|  0.51582
USER: genes 18 Torsion [CA]-CB--CG-[CD2] |==|  0.59492
USER: genes 19 Torsion [C]-CA--N-[C] |==|  0.72955
USER: genes 20 Torsion [N]-C--CA-[N] |==|  0.48679
USER: genes 21 Torsion [C]-CA--CB-[CG] |==|  0.13101
USER: genes 22 Torsion [CA]-CB--CG-[CD] |==|  0.20195
USER: genes 23 Torsion [CB]-CG--CD-[NE] |==|  0.46186
USER: genes 24 Torsion [CG]-CD--NE-[HE] |==|  0.76827
USER: genes 25 Torsion [C]-CA--N-[C] |==|  0.16132
USER: genes 26 Torsion [N]-C--CA-[N] |==|  0.36475
USER: genes 27 Torsion [C]-CA--CB-[CG] |==|  0.98704
USER: genes 28 Torsion [CA]-CB--CG-[OD1] |==|  0.16341
USER: genes 29 Torsion [C]-CA--N-[H2] |==|  0.77227
ROOT
ATOM      1  CA  LEU E   3      43.618  40.215  11.040  1.00 22.83 LIG 0.18  C 
ENDROOT
BRANCH 1 2
ATOM      2  C   LEU E   3      43.680  40.708  12.523  1.00 19.55 LIG 0.24  C 
ATOM      3 O    LEU E   3      43.333  41.837  12.830  1.00 19.60 LIG-0.27  OA
ATOM      4  N   LEU E   4      44.130  39.843  13.401  1.00 19.32 LIG-0.35  N 
ATOM      5 H    LEU E   4      44.563  39.126  13.207  1.00 19.32 LIG 0.16  HD
BRANCH 4 6
ATOM      6  CA  LEU E   4      43.897  40.073  14.873  1.00 17.74 LIG 0.18  C 
BRANCH 6 7
ATOM      7  C   LEU E   4      45.037  40.791  15.505  1.00 18.94 LIG 0.24  C 
ATOM      8  N   LEU E   5      44.712  41.925  16.176  1.00 19.76 LIG-0.35  N 
ATOM      9 H    LEU E   5      43.905  42.192  16.315  1.00 19.76 LIG 0.16  HD
ATOM     10 O    LEU E   4      46.231  40.392  15.354  1.00 20.41 LIG-0.27  OA
BRANCH 8 11
ATOM     11  CA  LEU E   5      45.744  42.796  16.725  1.00 18.99 LIG 0.18  C 
BRANCH 11 12
ATOM     12  C   LEU E   5      45.218  43.334  18.057  1.00 20.67 LIG 0.24  C 
ATOM     13  N   THR E   6      45.792  44.463  18.474  1.00 21.83 LIG-0.34  N 
ATOM     14 H    THR E   6      46.465  44.847  18.102  1.00 21.83 LIG 0.16  HD
ATOM     15 O    LEU E   5      44.307  42.749  18.599  1.00 20.01 LIG-0.27  OA
BRANCH 13 16
ATOM     16  CA  THR E   6      45.252  45.132  19.670  1.00 24.74 LIG 0.20  C 
BRANCH 16 17
ATOM     17  C   THR E   6      45.138  46.636  19.409  1.00 26.78 LIG 0.24  C 
ATOM     18  N   GLY E   7      45.754  47.048  18.290  1.00 28.46 LIG-0.35  N 
ATOM     19 H    GLY E   7      45.913  46.517  17.633  1.00 28.46 LIG 0.16  HD
ATOM     20 O    THR E   6      44.495  47.395  20.140  1.00 25.34 LIG-0.27  OA
BRANCH 18 21
ATOM     21  CA  GLY E   7      46.222  48.409  18.045  1.00 36.11 LIG 0.23  C 
BRANCH 21 22
ATOM     22  C   GLY E   7      47.142  48.434  16.887  1.00 43.05 LIG 0.19  C 
ATOM     23 OXT  GLY E   7      48.345  48.485  17.147  1.00 50.23 LIG-0.65  OA
ATOM     24 O    GLY E   7      46.718  48.412  15.708  1.00 56.48 LIG-0.65  OA
ENDBRANCH 21 22
ENDBRANCH 18 21
ENDBRANCH 16 17
BRANCH 16 25
ATOM     25  CB  THR E   6      46.134  44.837  20.901  1.00 24.32 LIG 0.15  C 
ATOM     26  CG2 THR E   6      45.271  44.188  22.069  1.00 23.74 LIG 0.04  C 
BRANCH 25 27
ATOM     27 OG1  THR E   6      47.125  43.918  20.478  1.00 30.49 LIG-0.39  OA
ATOM     28 HG1  THR E   6      46.787  43.373  19.935  1.00 30.49 LIG 0.21  HD
ENDBRANCH 25 27
ENDBRANCH 16 25
ENDBRANCH 13 16
ENDBRANCH 11 12
BRANCH 11 29
ATOM     29  CB  LEU E   5      45.997  44.017  15.852  1.00 19.92 LIG 0.04  C 
BRANCH 29 30
ATOM     30  CG  LEU E   5      47.516  44.139  15.540  1.00 17.19 LIG-0.02  C 
ATOM     31  CD1 LEU E   5      47.846  45.576  15.236  1.00 19.71 LIG 0.01  C 
ATOM     32  CD2 LEU E   5      48.329  43.605  16.691  1.00 21.46 LIG 0.01  C 
ENDBRANCH 29 30
ENDBRANCH 11 29
ENDBRANCH 8 11
ENDBRANCH 6 7
BRANCH 6 33
ATOM     33  CB  LEU E   4      43.726  38.680  15.564  1.00 18.44 LIG 0.04  C 
BRANCH 33 34
ATOM     34  CG  LEU E   4      42.471  38.676  16.466  1.00 22.78 LIG-0.02  C 
ATOM     35  CD2 LEU E   4      41.502  39.835  16.166  1.00 23.44 LIG 0.01  C 
ATOM     36  CD1 LEU E   4      42.979  38.734  17.908  1.00 27.53 LIG 0.01  C 
ENDBRANCH 33 34
ENDBRANCH 6 33
ENDBRANCH 4 6
ENDBRANCH 1 2
BRANCH 1 37
ATOM     37  CB  LEU E   3      42.259  39.545  10.815  1.00 29.41 LIG 0.04  C 
BRANCH 37 38
ATOM     38  CG  LEU E   3      42.027  38.858   9.448  1.00 30.90 LIG-0.02  C 
ATOM     39  CD1 LEU E   3      42.423  37.367   9.504  1.00 35.09 LIG 0.01  C 
ATOM     40  CD2 LEU E   3      40.573  39.003   9.036  1.00 39.15 LIG 0.01  C 
ENDBRANCH 37 38
ENDBRANCH 1 37
BRANCH 1 41
ATOM     41  N   LEU E   3      44.739  39.275  10.739  1.00 22.92 LIG-0.35  N 
ATOM     42 H    LEU E   3      44.611  38.457  10.973  1.00 22.92 LIG 0.16  HD
ATOM     43  C   ARG E   2      45.832  39.741  10.148  1.00 28.87 LIG 0.24  C 
ATOM     44 O    ARG E   2      45.953  40.968   9.859  1.00 29.44 LIG-0.27  OA
BRANCH 43 45
ATOM     45  CA  ARG E   2      46.977  38.754   9.820  1.00 32.90 LIG 0.18  C 
BRANCH 45 46
ATOM     46  CB  ARG E   2      47.694  38.326  11.091  1.00 32.53 LIG 0.04  C 
BRANCH 46 47
ATOM     47  CG  ARG E   2      46.814  37.914  12.218  1.00 34.92 LIG 0.02  C 
BRANCH 47 48
ATOM     48  CD  ARG E   2      46.221  36.588  11.900  1.00 37.57 LIG 0.14  C 
BRANCH 48 49
ATOM     49  NE  ARG E   2      45.589  35.914  13.046  1.00 41.00 LIG-0.23  N 
ATOM     50 HE   ARG E   2      46.091  35.463  13.579  1.00 41.00 LIG 0.18  HD
ATOM     51  CZ  ARG E   2      44.275  35.964  13.306  1.00 43.22 LIG 0.67  C 
ATOM     52  NH2 ARG E   2      43.787  35.390  14.398  1.00 39.75 LIG-0.23  N 
ATOM     53  NH1 ARG E   2      43.431  36.595  12.470  1.00 41.20 LIG-0.23  N 
ATOM     54 2HH2 ARG E   2      42.944  35.425  14.562  1.00 39.75 LIG 0.17  HD
ATOM     55 1HH2 ARG E   2      44.315  34.984  14.942  1.00 39.75 LIG 0.17  HD
ATOM     56 1HH1 ARG E   2      43.733  36.973  11.758  1.00 41.20 LIG 0.17  HD
ATOM     57 2HH1 ARG E   2      42.591  36.621  12.647  1.00 41.20 LIG 0.17  HD
ENDBRANCH 48 49
ENDBRANCH 47 48
ENDBRANCH 46 47
ENDBRANCH 45 46
BRANCH 45 58
ATOM     58  N   ARG E   2      48.029  39.460   9.071  1.00 36.64 LIG-0.35  N 
ATOM     59 H    ARG E   2      48.191  39.110   8.303  1.00 36.64 LIG 0.16  HD
ATOM     60  C   ASN E   1      48.665  40.520   9.518  1.00 41.83 LIG 0.25  C 
ATOM     61 O    ASN E   1      48.376  41.032  10.610  1.00 38.61 LIG-0.27  OA
BRANCH 60 62
ATOM     62  CA  ASN E   1      49.725  41.145   8.543  1.00 50.15 LIG 0.28  C 
BRANCH 62 63
ATOM     63  CB  ASN E   1      51.214  40.803   8.887  1.00 58.25 LIG 0.14  C 
BRANCH 63 64
ATOM     64  CG  ASN E   1      51.392  39.989  10.216  1.00 70.07 LIG 0.22  C 
ATOM     65 OD1  ASN E   1      50.864  38.880  10.402  1.00 69.16 LIG-0.27  OA
ATOM     66  ND2 ASN E   1      52.157  40.566  11.148  1.00 65.88 LIG-0.37  N 
ATOM     67 22HD ASN E   1      52.512  41.334  10.996  1.00 65.88 LIG 0.16  HD
ATOM     68 21HD ASN E   1      52.292  40.169  11.898  1.00 65.88 LIG 0.16  HD
ENDBRANCH 63 64
ENDBRANCH 62 63
BRANCH 62 69
ATOM     69  N   ASN E   1      49.546  42.620   8.421  1.00 55.39 LIG-0.07  N 
ATOM     70 H1   ASN E   1      50.307  42.990   8.144  1.00 55.39 LIG 0.28  HD
ATOM     71 H2   ASN E   1      48.901  42.793   7.832  1.00 55.39 LIG 0.28  HD
ATOM     72 H3   ASN E   1      49.324  42.959   9.213  1.00 55.39 LIG 0.28  HD
ENDBRANCH 62 69
ENDBRANCH 60 62
ENDBRANCH 45 58
ENDBRANCH 43 45
ENDBRANCH 1 41
TORSDOF 28
ENDMDL
MODEL 9
USER: ADFR SOLUTION from run 60
USER: SCORE 25.251032 LL:  -5.916 LR: -20.775 RR:   0.000 FEB: -12.423
USER: RMSD 11.975872
USER: SEED 59
USER: STATUS no improvement in best in 9 clusters for 5 generations
USER: GENES 30
USER: genes 0 Translation |==|  0.40066 0.32719 0.26496
USER: genes 1 Rotation |==|  0.77501 0.84195 0.33148 0.67043
USER: genes 2 Torsion [N]-CA--C-[N] |==|  0.89005
USER: genes 3 Torsion [C]-N--CA-[C] |==|  0.72087
USER: genes 4 Torsion [N]-CA--C-[N] |==|  0.33302
USER: genes 5 Torsion [C]-N--CA-[C] |==|  0.81089
USER: genes 6 Torsion [N]-CA--C-[N] |==|  0.44140
USER: genes 7 Torsion [C]-N--CA-[C] |==|  0.81809
USER: genes 8 Torsion [N]-CA--C-[N] |==|  0.94370
USER: genes 9 Torsion [C]-N--CA-[C] |==|  0.61812
USER: genes 10 Torsion [N]-CA--C-[O] |==|  0.47055
USER: genes 11 Torsion [N]-CA--CB-[CG2] |==|  0.51192
USER: genes 12 Torsion [CA]-CB--OG1-[HG1] |==|  0.80097
USER: genes 13 Torsion [N]-CA--CB-[CG] |==|  0.71846
USER: genes 14 Torsion [CA]-CB--CG-[CD1] |==|  0.49639
USER: genes 15 Torsion [N]-CA--CB-[CG] |==|  0.58045
USER: genes 16 Torsion [CA]-CB--CG-[CD2] |==|  0.04720
USER: genes 17 Torsion [C]-CA--CB-[CG] |==|  0.51352
USER: genes 18 Torsion [CA]-CB--CG-[CD2] |==|  0.59494
USER: genes 19 Torsion [C]-CA--N-[C] |==|  0.73436
USER: genes 20 Torsion [N]-C--CA-[N] |==|  0.47442
USER: genes 21 Torsion [C]-CA--CB-[CG] |==|  0.12876
USER: genes 22 Torsion [CA]-CB--CG-[CD] |==|  0.18624
USER: genes 23 Torsion [CB]-CG--CD-[NE] |==|  0.45626
USER: genes 24 Torsion [CG]-CD--NE-[HE] |==|  0.79310
USER: genes 25 Torsion [C]-CA--N-[C] |==|  0.16667
USER: genes 26 Torsion [N]-C--CA-[N] |==|  0.36486
USER: genes 27 Torsion [C]-CA--CB-[CG] |==|  0.98936
USER: genes 28 Torsion [CA]-CB--CG-[OD1] |==|  0.16341
USER: genes 29 Torsion [C]-CA--N-[H2] |==|  0.77227
ROOT
ATOM      1  CA  LEU E   3      43.581  40.232  10.978  1.00 22.83 LIG 0.18  C 
ENDROOT
BRANCH 1 2
ATOM      2  C   LEU E   3      43.594  40.714  12.467  1.00 19.55 LIG 0.24  C 
ATOM      3 O    LEU E   3      43.337  41.870  12.760  1.00 19.60 LIG-0.27  OA
ATOM      4  N   LEU E   4      43.900  39.807  13.365  1.00 19.32 LIG-0.35  N 
ATOM      5 H    LEU E   4      44.275  39.053  13.193  1.00 19.32 LIG 0.16  HD
BRANCH 4 6
ATOM      6  CA  LEU E   4      43.596  40.056  14.820  1.00 17.74 LIG 0.18  C 
BRANCH 6 7
ATOM      7  C   LEU E   4      44.805  40.493  15.569  1.00 18.94 LIG 0.24  C 
ATOM      8  N   LEU E   5      44.719  41.714  16.154  1.00 19.76 LIG-0.35  N 
ATOM      9 H    LEU E   5      44.003  42.191  16.178  1.00 19.76 LIG 0.16  HD
ATOM     10 O    LEU E   4      45.858  39.787  15.587  1.00 20.41 LIG-0.27  OA
BRANCH 8 11
ATOM     11  CA  LEU E   5      45.877  42.320  16.802  1.00 18.99 LIG 0.18  C 
BRANCH 11 12
ATOM     12  C   LEU E   5      46.185  41.484  18.046  1.00 20.67 LIG 0.24  C 
ATOM     13  N   THR E   6      47.429  41.604  18.510  1.00 21.83 LIG-0.34  N 
ATOM     14 H    THR E   6      48.065  42.037  18.126  1.00 21.83 LIG 0.16  HD
ATOM     15 O    LEU E   5      45.293  40.833  18.541  1.00 20.01 LIG-0.27  OA
BRANCH 13 16
ATOM     16  CA  THR E   6      47.776  40.951  19.784  1.00 24.74 LIG 0.20  C 
BRANCH 16 17
ATOM     17  C   THR E   6      46.990  41.602  20.924  1.00 26.78 LIG 0.24  C 
ATOM     18  N   GLY E   7      46.526  42.829  20.642  1.00 28.46 LIG-0.35  N 
ATOM     19 H    GLY E   7      46.394  43.094  19.834  1.00 28.46 LIG 0.16  HD
ATOM     20 O    THR E   6      46.764  41.028  21.994  1.00 25.34 LIG-0.27  OA
BRANCH 18 21
ATOM     21  CA  GLY E   7      46.190  43.847  21.634  1.00 36.11 LIG 0.23  C 
BRANCH 21 22
ATOM     22  C   GLY E   7      44.926  44.522  21.269  1.00 43.05 LIG 0.19  C 
ATOM     23 OXT  GLY E   7      44.491  44.292  20.139  1.00 50.23 LIG-0.65  OA
ATOM     24 O    GLY E   7      44.337  45.291  22.063  1.00 56.48 LIG-0.65  OA
ENDBRANCH 21 22
ENDBRANCH 18 21
ENDBRANCH 16 17
BRANCH 16 25
ATOM     25  CB  THR E   6      49.297  41.021  20.033  1.00 24.32 LIG 0.15  C 
ATOM     26  CG2 THR E   6      49.688  40.222  21.351  1.00 23.74 LIG 0.04  C 
BRANCH 25 27
ATOM     27 OG1  THR E   6      49.918  40.418  18.912  1.00 30.49 LIG-0.39  OA
ATOM     28 HG1  THR E   6      49.792  39.589  18.935  1.00 30.49 LIG 0.21  HD
ENDBRANCH 25 27
ENDBRANCH 16 25
ENDBRANCH 13 16
ENDBRANCH 11 12
BRANCH 11 29
ATOM     29  CB  LEU E   5      45.588  43.727  17.306  1.00 19.92 LIG 0.04  C 
BRANCH 29 30
ATOM     30  CG  LEU E   5      46.180  44.774  16.320  1.00 17.19 LIG-0.02  C 
ATOM     31  CD1 LEU E   5      45.859  46.160  16.815  1.00 19.71 LIG 0.01  C 
ATOM     32  CD2 LEU E   5      47.664  44.562  16.163  1.00 21.46 LIG 0.01  C 
ENDBRANCH 29 30
ENDBRANCH 11 29
ENDBRANCH 8 11
ENDBRANCH 6 7
BRANCH 6 33
ATOM     33  CB  LEU E   4      43.064  38.723  15.443  1.00 18.44 LIG 0.04  C 
BRANCH 33 34
ATOM     34  CG  LEU E   4      42.097  39.021  16.611  1.00 22.78 LIG-0.02  C 
ATOM     35  CD2 LEU E   4      41.573  40.470  16.614  1.00 23.44 LIG 0.01  C 
ATOM     36  CD1 LEU E   4      42.866  38.704  17.895  1.00 27.53 LIG 0.01  C 
ENDBRANCH 33 34
ENDBRANCH 6 33
ENDBRANCH 4 6
ENDBRANCH 1 2
BRANCH 1 37
ATOM     37  CB  LEU E   3      42.230  39.564  10.702  1.00 29.41 LIG 0.04  C 
BRANCH 37 38
ATOM     38  CG  LEU E   3      42.037  38.906   9.316  1.00 30.90 LIG-0.02  C 
ATOM     39  CD1 LEU E   3      42.434  37.414   9.353  1.00 35.09 LIG 0.01  C 
ATOM     40  CD2 LEU E   3      40.595  39.057   8.867  1.00 39.15 LIG 0.01  C 
ENDBRANCH 37 38
ENDBRANCH 1 37
BRANCH 1 41
ATOM     41  N   LEU E   3      44.711  39.292  10.709  1.00 22.92 LIG-0.35  N 
ATOM     42 H    LEU E   3      44.566  38.469  10.911  1.00 22.92 LIG 0.16  HD
ATOM     43  C   ARG E   2      45.837  39.768  10.190  1.00 28.87 LIG 0.24  C 
ATOM     44 O    ARG E   2      45.980  41.002   9.945  1.00 29.44 LIG-0.27  OA
BRANCH 43 45
ATOM     45  CA  ARG E   2      46.992  38.783   9.893  1.00 32.90 LIG 0.18  C 
BRANCH 45 46
ATOM     46  CB  ARG E   2      47.708  38.396  11.177  1.00 32.53 LIG 0.04  C 
BRANCH 46 47
ATOM     47  CG  ARG E   2      46.828  38.026  12.318  1.00 34.92 LIG 0.02  C 
BRANCH 47 48
ATOM     48  CD  ARG E   2      46.124  36.758  11.987  1.00 37.57 LIG 0.14  C 
BRANCH 48 49
ATOM     49  NE  ARG E   2      45.510  36.083  13.141  1.00 41.00 LIG-0.23  N 
ATOM     50 HE   ARG E   2      46.027  35.672  13.693  1.00 41.00 LIG 0.18  HD
ATOM     51  CZ  ARG E   2      44.192  36.072  13.382  1.00 43.22 LIG 0.67  C 
ATOM     52  NH2 ARG E   2      43.718  35.502  14.482  1.00 39.75 LIG-0.23  N 
ATOM     53  NH1 ARG E   2      43.330  36.637  12.518  1.00 41.20 LIG-0.23  N 
ATOM     54 2HH2 ARG E   2      42.872  35.498  14.634  1.00 39.75 LIG 0.17  HD
ATOM     55 1HH2 ARG E   2      44.258  35.138  15.044  1.00 39.75 LIG 0.17  HD
ATOM     56 1HH1 ARG E   2      43.622  37.010  11.801  1.00 41.20 LIG 0.17  HD
ATOM     57 2HH1 ARG E   2      42.486  36.624  12.683  1.00 41.20 LIG 0.17  HD
ENDBRANCH 48 49
ENDBRANCH 47 48
ENDBRANCH 46 47
ENDBRANCH 45 46
BRANCH 45 58
ATOM     58  N   ARG E   2      48.039  39.477   9.128  1.00 36.64 LIG-0.35  N 
ATOM     59 H    ARG E   2      48.189  39.123   8.359  1.00 36.64 LIG 0.16  HD
ATOM     60  C   ASN E   1      48.690  40.534   9.563  1.00 41.83 LIG 0.25  C 
ATOM     61 O    ASN E   1      48.419  41.052  10.657  1.00 38.61 LIG-0.27  OA
BRANCH 60 62
ATOM     62  CA  ASN E   1      49.743  41.146   8.572  1.00 50.15 LIG 0.28  C 
BRANCH 62 63
ATOM     63  CB  ASN E   1      51.233  40.792   8.898  1.00 58.25 LIG 0.14  C 
BRANCH 63 64
ATOM     64  CG  ASN E   1      51.420  39.963  10.217  1.00 70.07 LIG 0.22  C 
ATOM     65 OD1  ASN E   1      50.886  38.855  10.396  1.00 69.16 LIG-0.27  OA
ATOM     66  ND2 ASN E   1      52.196  40.525  11.147  1.00 65.88 LIG-0.37  N 
ATOM     67 22HD ASN E   1      52.555  41.293  11.000  1.00 65.88 LIG 0.16  HD
ATOM     68 21HD ASN E   1      52.337  40.119  11.891  1.00 65.88 LIG 0.16  HD
ENDBRANCH 63 64
ENDBRANCH 62 63
BRANCH 62 69
ATOM     69  N   ASN E   1      49.575  42.622   8.448  1.00 55.39 LIG-0.07  N 
ATOM     70 H1   ASN E   1      50.335  42.984   8.160  1.00 55.39 LIG 0.28  HD
ATOM     71 H2   ASN E   1      48.924  42.799   7.867  1.00 55.39 LIG 0.28  HD
ATOM     72 H3   ASN E   1      49.367  42.965   9.242  1.00 55.39 LIG 0.28  HD
ENDBRANCH 62 69
ENDBRANCH 60 62
ENDBRANCH 45 58
ENDBRANCH 43 45
ENDBRANCH 1 41
TORSDOF 28
ENDMDL
MODEL 10
USER: ADFR SOLUTION from run 24
USER: SCORE 24.999847 LL:  -5.089 LR: -20.755 RR:   0.000 FEB: -12.403
USER: RMSD 13.311820
USER: SEED 23
USER: STATUS no improvement in best in 15 clusters for 5 generations
USER: GENES 30
USER: genes 0 Translation |==|  0.42789 0.36296 0.41028
USER: genes 1 Rotation |==|  0.73314 0.87482 0.26523 0.50617
USER: genes 2 Torsion [N]-CA--C-[N] |==|  0.46509
USER: genes 3 Torsion [C]-N--CA-[C] |==|  0.63073
USER: genes 4 Torsion [N]-CA--C-[N] |==|  0.36652
USER: genes 5 Torsion [C]-N--CA-[C] |==|  0.80135
USER: genes 6 Torsion [N]-CA--C-[N] |==|  0.37319
USER: genes 7 Torsion [C]-N--CA-[C] |==|  0.70036
USER: genes 8 Torsion [N]-CA--C-[N] |==|  0.83336
USER: genes 9 Torsion [C]-N--CA-[C] |==|  0.42634
USER: genes 10 Torsion [N]-CA--C-[O] |==|  0.82097
USER: genes 11 Torsion [N]-CA--CB-[CG2] |==|  0.61271
USER: genes 12 Torsion [CA]-CB--OG1-[HG1] |==|  0.19727
USER: genes 13 Torsion [N]-CA--CB-[CG] |==|  0.08178
USER: genes 14 Torsion [CA]-CB--CG-[CD1] |==|  0.37705
USER: genes 15 Torsion [N]-CA--CB-[CG] |==|  0.75737
USER: genes 16 Torsion [CA]-CB--CG-[CD2] |==|  0.80504
USER: genes 17 Torsion [C]-CA--CB-[CG] |==|  0.89800
USER: genes 18 Torsion [CA]-CB--CG-[CD2] |==|  0.75750
USER: genes 19 Torsion [C]-CA--N-[C] |==|  0.57114
USER: genes 20 Torsion [N]-C--CA-[N] |==|  0.43395
USER: genes 21 Torsion [C]-CA--CB-[CG] |==|  0.25362
USER: genes 22 Torsion [CA]-CB--CG-[CD] |==|  0.07742
USER: genes 23 Torsion [CB]-CG--CD-[NE] |==|  0.24649
USER: genes 24 Torsion [CG]-CD--NE-[HE] |==|  0.88154
USER: genes 25 Torsion [C]-CA--N-[C] |==|  0.80140
USER: genes 26 Torsion [N]-C--CA-[N] |==|  0.43431
USER: genes 27 Torsion [C]-CA--CB-[CG] |==|  0.51030
USER: genes 28 Torsion [CA]-CB--CG-[OD1] |==|  0.98105
USER: genes 29 Torsion [C]-CA--N-[H2] |==|  0.77143
ROOT
ATOM      1  CA  LEU E   3      44.133  41.037  14.793  1.00 22.83 LIG 0.18  C 
ENDROOT
BRANCH 1 2
ATOM      2  C   LEU E   3      45.176  41.210  15.945  1.00 19.55 LIG 0.24  C 
ATOM      3 O    LEU E   3      46.137  40.465  16.047  1.00 19.60 LIG-0.27  OA
ATOM      4  N   LEU E   4      44.950  42.191  16.787  1.00 19.32 LIG-0.35  N 
ATOM      5 H    LEU E   4      44.200  42.603  16.871  1.00 19.32 LIG 0.16  HD
BRANCH 4 6
ATOM      6  CA  LEU E   4      46.050  42.672  17.698  1.00 17.74 LIG 0.18  C 
BRANCH 6 7
ATOM      7  C   LEU E   4      45.579  42.818  19.102  1.00 18.94 LIG 0.24  C 
ATOM      8  N   LEU E   5      46.379  42.261  20.046  1.00 19.76 LIG-0.35  N 
ATOM      9 H    LEU E   5      47.149  41.914  19.886  1.00 19.76 LIG 0.16  HD
ATOM     10 O    LEU E   4      44.468  43.367  19.368  1.00 20.41 LIG-0.27  OA
BRANCH 8 11
ATOM     11  CA  LEU E   5      45.968  42.213  21.445  1.00 18.99 LIG 0.18  C 
BRANCH 11 12
ATOM     12  C   LEU E   5      46.044  43.642  21.986  1.00 20.67 LIG 0.24  C 
ATOM     13  N   THR E   6      44.990  44.029  22.704  1.00 21.83 LIG-0.34  N 
ATOM     14 H    THR E   6      44.266  43.577  22.811  1.00 21.83 LIG 0.16  HD
ATOM     15 O    LEU E   5      47.048  44.288  21.777  1.00 20.01 LIG-0.27  OA
BRANCH 13 16
ATOM     16  CA  THR E   6      45.037  45.334  23.385  1.00 24.74 LIG 0.20  C 
BRANCH 16 17
ATOM     17  C   THR E   6      45.184  45.121  24.893  1.00 26.78 LIG 0.24  C 
ATOM     18  N   GLY E   7      44.182  44.424  25.451  1.00 28.46 LIG-0.35  N 
ATOM     19 H    GLY E   7      43.690  43.885  24.995  1.00 28.46 LIG 0.16  HD
ATOM     20 O    THR E   6      46.164  45.517  25.532  1.00 25.34 LIG-0.27  OA
BRANCH 18 21
ATOM     21  CA  GLY E   7      43.804  44.481  26.860  1.00 36.11 LIG 0.23  C 
BRANCH 21 22
ATOM     22  C   GLY E   7      42.374  44.143  27.021  1.00 43.05 LIG 0.19  C 
ATOM     23 OXT  GLY E   7      42.124  43.113  27.648  1.00 50.23 LIG-0.65  OA
ATOM     24 O    GLY E   7      41.468  44.862  26.539  1.00 56.48 LIG-0.65  OA
ENDBRANCH 21 22
ENDBRANCH 18 21
ENDBRANCH 16 17
BRANCH 16 25
ATOM     25  CB  THR E   6      43.780  46.165  23.051  1.00 24.32 LIG 0.15  C 
ATOM     26  CG2 THR E   6      44.162  47.691  22.815  1.00 23.74 LIG 0.04  C 
BRANCH 25 27
ATOM     27 OG1  THR E   6      43.242  45.623  21.859  1.00 30.49 LIG-0.39  OA
ATOM     28 HG1  THR E   6      42.906  44.870  22.021  1.00 30.49 LIG 0.21  HD
ENDBRANCH 25 27
ENDBRANCH 16 25
ENDBRANCH 13 16
ENDBRANCH 11 12
BRANCH 11 29
ATOM     29  CB  LEU E   5      46.923  41.392  22.300  1.00 19.92 LIG 0.04  C 
BRANCH 29 30
ATOM     30  CG  LEU E   5      48.358  41.461  21.705  1.00 17.19 LIG-0.02  C 
ATOM     31  CD1 LEU E   5      49.348  41.683  22.819  1.00 19.71 LIG 0.01  C 
ATOM     32  CD2 LEU E   5      48.660  40.207  20.926  1.00 21.46 LIG 0.01  C 
ENDBRANCH 29 30
ENDBRANCH 11 29
ENDBRANCH 8 11
ENDBRANCH 6 7
BRANCH 6 33
ATOM     33  CB  LEU E   4      46.543  44.063  17.178  1.00 18.44 LIG 0.04  C 
BRANCH 33 34
ATOM     34  CG  LEU E   4      47.648  43.880  16.112  1.00 22.78 LIG-0.02  C 
ATOM     35  CD2 LEU E   4      48.976  43.361  16.696  1.00 23.44 LIG 0.01  C 
ATOM     36  CD1 LEU E   4      47.828  45.244  15.443  1.00 27.53 LIG 0.01  C 
ENDBRANCH 33 34
ENDBRANCH 6 33
ENDBRANCH 4 6
ENDBRANCH 1 2
BRANCH 1 37
ATOM     37  CB  LEU E   3      42.827  40.517  15.403  1.00 29.41 LIG 0.04  C 
BRANCH 37 38
ATOM     38  CG  LEU E   3      42.944  39.510  16.571  1.00 30.90 LIG-0.02  C 
ATOM     39  CD1 LEU E   3      41.740  39.632  17.529  1.00 35.09 LIG 0.01  C 
ATOM     40  CD2 LEU E   3      43.045  38.096  16.027  1.00 39.15 LIG 0.01  C 
ENDBRANCH 37 38
ENDBRANCH 1 37
BRANCH 1 41
ATOM     41  N   LEU E   3      44.644  40.106  13.742  1.00 22.92 LIG-0.35  N 
ATOM     42 H    LEU E   3      45.226  39.530  14.006  1.00 22.92 LIG 0.16  HD
ATOM     43  C   ARG E   2      44.184  40.217  12.501  1.00 28.87 LIG 0.24  C 
ATOM     44 O    ARG E   2      43.344  41.111  12.187  1.00 29.44 LIG-0.27  OA
BRANCH 43 45
ATOM     45  CA  ARG E   2      44.702  39.233  11.426  1.00 32.90 LIG 0.18  C 
BRANCH 45 46
ATOM     46  CB  ARG E   2      45.923  39.805  10.724  1.00 32.53 LIG 0.04  C 
BRANCH 46 47
ATOM     47  CG  ARG E   2      47.237  39.443  11.321  1.00 34.92 LIG 0.02  C 
BRANCH 47 48
ATOM     48  CD  ARG E   2      47.105  38.129  12.005  1.00 37.57 LIG 0.14  C 
BRANCH 48 49
ATOM     49  NE  ARG E   2      47.366  36.965  11.144  1.00 41.00 LIG-0.23  N 
ATOM     50 HE   ARG E   2      47.039  36.968  10.348  1.00 41.00 LIG 0.18  HD
ATOM     51  CZ  ARG E   2      48.083  35.900  11.528  1.00 43.22 LIG 0.67  C 
ATOM     52  NH2 ARG E   2      48.335  34.920  10.672  1.00 39.75 LIG-0.23  N 
ATOM     53  NH1 ARG E   2      48.558  35.807  12.783  1.00 41.20 LIG-0.23  N 
ATOM     54 2HH2 ARG E   2      48.796  34.238  10.921  1.00 39.75 LIG 0.17  HD
ATOM     55 1HH2 ARG E   2      48.038  34.965   9.866  1.00 39.75 LIG 0.17  HD
ATOM     56 1HH1 ARG E   2      48.403  36.435  13.349  1.00 41.20 LIG 0.17  HD
ATOM     57 2HH1 ARG E   2      49.017  35.120  13.018  1.00 41.20 LIG 0.17  HD
ENDBRANCH 48 49
ENDBRANCH 47 48
ENDBRANCH 46 47
ENDBRANCH 45 46
BRANCH 45 58
ATOM     58  N   ARG E   2      43.714  39.134  10.341  1.00 36.64 LIG-0.35  N 
ATOM     59 H    ARG E   2      43.970  39.515   9.613  1.00 36.64 LIG 0.16  HD
ATOM     60  C   ASN E   1      42.553  38.528  10.455  1.00 41.83 LIG 0.25  C 
ATOM     61 O    ASN E   1      42.231  37.945  11.502  1.00 38.61 LIG-0.27  OA
BRANCH 60 62
ATOM     62  CA  ASN E   1      41.663  38.502   9.162  1.00 50.15 LIG 0.28  C 
BRANCH 62 63
ATOM     63  CB  ASN E   1      40.922  39.846   8.849  1.00 58.25 LIG 0.14  C 
BRANCH 63 64
ATOM     64  CG  ASN E   1      39.967  39.774   7.606  1.00 70.07 LIG 0.22  C 
ATOM     65 OD1  ASN E   1      39.906  38.783   6.860  1.00 69.16 LIG-0.27  OA
ATOM     66  ND2 ASN E   1      39.212  40.856   7.396  1.00 65.88 LIG-0.37  N 
ATOM     67 22HD ASN E   1      39.271  41.531   7.927  1.00 65.88 LIG 0.16  HD
ATOM     68 21HD ASN E   1      38.668  40.878   6.731  1.00 65.88 LIG 0.16  HD
ENDBRANCH 63 64
ENDBRANCH 62 63
BRANCH 62 69
ATOM     69  N   ASN E   1      40.693  37.370   9.194  1.00 55.39 LIG-0.07  N 
ATOM     70 H1   ASN E   1      40.011  37.548   8.651  1.00 55.39 LIG 0.28  HD
ATOM     71 H2   ASN E   1      41.098  36.624   8.926  1.00 55.39 LIG 0.28  HD
ATOM     72 H3   ASN E   1      40.390  37.262  10.023  1.00 55.39 LIG 0.28  HD
ENDBRANCH 62 69
ENDBRANCH 60 62
ENDBRANCH 45 58
ENDBRANCH 43 45
ENDBRANCH 1 41
TORSDOF 28
ENDMDL
MODEL 11
USER: ADFR SOLUTION from run 27
USER: SCORE 25.288245 LL:  -5.566 LR: -20.738 RR:   0.000 FEB: -12.386
USER: RMSD 12.349356
USER: SEED 26
USER: STATUS no improvement in best in 2 clusters for 5 generations
USER: GENES 30
USER: genes 0 Translation |==|  0.46905 0.34675 0.41534
USER: genes 1 Rotation |==|  0.61475 0.92597 0.27555 0.57072
USER: genes 2 Torsion [N]-CA--C-[N] |==|  0.40003
USER: genes 3 Torsion [C]-N--CA-[C] |==|  0.66435
USER: genes 4 Torsion [N]-CA--C-[N] |==|  0.49645
USER: genes 5 Torsion [C]-N--CA-[C] |==|  0.15852
USER: genes 6 Torsion [N]-CA--C-[N] |==|  0.10746
USER: genes 7 Torsion [C]-N--CA-[C] |==|  0.80096
USER: genes 8 Torsion [N]-CA--C-[N] |==|  0.95554
USER: genes 9 Torsion [C]-N--CA-[C] |==|  0.48413
USER: genes 10 Torsion [N]-CA--C-[O] |==|  0.49773
USER: genes 11 Torsion [N]-CA--CB-[CG2] |==|  0.03970
USER: genes 12 Torsion [CA]-CB--OG1-[HG1] |==|  0.25589
USER: genes 13 Torsion [N]-CA--CB-[CG] |==|  0.74493
USER: genes 14 Torsion [CA]-CB--CG-[CD1] |==|  0.17009
USER: genes 15 Torsion [N]-CA--CB-[CG] |==|  0.75825
USER: genes 16 Torsion [CA]-CB--CG-[CD2] |==|  0.91517
USER: genes 17 Torsion [C]-CA--CB-[CG] |==|  0.11632
USER: genes 18 Torsion [CA]-CB--CG-[CD2] |==|  0.57207
USER: genes 19 Torsion [C]-CA--N-[C] |==|  0.62482
USER: genes 20 Torsion [N]-C--CA-[N] |==|  0.16767
USER: genes 21 Torsion [C]-CA--CB-[CG] |==|  0.30045
USER: genes 22 Torsion [CA]-CB--CG-[CD] |==|  0.03778
USER: genes 23 Torsion [CB]-CG--CD-[NE] |==|  0.46819
USER: genes 24 Torsion [CG]-CD--NE-[HE] |==|  0.22389
USER: genes 25 Torsion [C]-CA--N-[C] |==|  0.61201
USER: genes 26 Torsion [N]-C--CA-[N] |==|  0.65317
USER: genes 27 Torsion [C]-CA--CB-[CG] |==|  0.80326
USER: genes 28 Torsion [CA]-CB--CG-[OD1] |==|  0.06821
USER: genes 29 Torsion [C]-CA--N-[H2] |==|  0.01916
ROOT
ATOM      1  CA  LEU E   3      44.966  40.672  14.926  1.00 22.83 LIG 0.18  C 
ENDROOT
BRANCH 1 2
ATOM      2  C   LEU E   3      45.757  41.393  16.067  1.00 19.55 LIG 0.24  C 
ATOM      3 O    LEU E   3      46.853  40.994  16.427  1.00 19.60 LIG-0.27  OA
ATOM      4  N   LEU E   4      45.170  42.434  16.608  1.00 19.32 LIG-0.35  N 
ATOM      5 H    LEU E   4      44.336  42.624  16.528  1.00 19.32 LIG 0.16  HD
BRANCH 4 6
ATOM      6  CA  LEU E   4      45.971  43.402  17.442  1.00 17.74 LIG 0.18  C 
BRANCH 6 7
ATOM      7  C   LEU E   4      45.442  43.503  18.829  1.00 18.94 LIG 0.24  C 
ATOM      8  N   LEU E   5      46.125  44.335  19.655  1.00 19.76 LIG-0.35  N 
ATOM      9 H    LEU E   5      46.771  44.845  19.403  1.00 19.76 LIG 0.16  HD
ATOM     10 O    LEU E   4      44.462  42.796  19.212  1.00 20.41 LIG-0.27  OA
BRANCH 8 11
ATOM     11  CA  LEU E   5      45.797  44.423  21.073  1.00 18.99 LIG 0.18  C 
BRANCH 11 12
ATOM     12  C   LEU E   5      45.924  43.012  21.652  1.00 20.67 LIG 0.24  C 
ATOM     13  N   THR E   6      46.943  42.297  21.175  1.00 21.83 LIG-0.34  N 
ATOM     14 H    THR E   6      47.462  42.536  20.533  1.00 21.83 LIG 0.16  HD
ATOM     15 O    LEU E   5      45.148  42.669  22.516  1.00 20.01 LIG-0.27  OA
BRANCH 13 16
ATOM     16  CA  THR E   6      47.230  40.984  21.777  1.00 24.74 LIG 0.20  C 
BRANCH 16 17
ATOM     17  C   THR E   6      47.823  41.179  23.174  1.00 26.78 LIG 0.24  C 
ATOM     18  N   GLY E   7      48.265  42.423  23.415  1.00 28.46 LIG-0.35  N 
ATOM     19 H    GLY E   7      47.970  43.106  22.984  1.00 28.46 LIG 0.16  HD
ATOM     20 O    THR E   6      47.849  40.281  24.021  1.00 25.34 LIG-0.27  OA
BRANCH 18 21
ATOM     21  CA  GLY E   7      49.274  42.775  24.411  1.00 36.11 LIG 0.23  C 
BRANCH 21 22
ATOM     22  C   GLY E   7      49.615  44.210  24.309  1.00 43.05 LIG 0.19  C 
ATOM     23 OXT  GLY E   7      49.039  44.847  23.426  1.00 50.23 LIG-0.65  OA
ATOM     24 O    GLY E   7      50.450  44.745  25.075  1.00 56.48 LIG-0.65  OA
ENDBRANCH 21 22
ENDBRANCH 18 21
ENDBRANCH 16 17
BRANCH 16 25
ATOM     25  CB  THR E   6      48.175  40.167  20.871  1.00 24.32 LIG 0.15  C 
ATOM     26  CG2 THR E   6      48.840  41.100  19.767  1.00 23.74 LIG 0.04  C 
BRANCH 25 27
ATOM     27 OG1  THR E   6      49.183  39.636  21.711  1.00 30.49 LIG-0.39  OA
ATOM     28 HG1  THR E   6      48.954  38.873  21.976  1.00 30.49 LIG 0.21  HD
ENDBRANCH 25 27
ENDBRANCH 16 25
ENDBRANCH 13 16
ENDBRANCH 11 12
BRANCH 11 29
ATOM     29  CB  LEU E   5      44.354  44.843  21.308  1.00 19.92 LIG 0.04  C 
BRANCH 29 30
ATOM     30  CG  LEU E   5      44.268  46.390  21.444  1.00 17.19 LIG-0.02  C 
ATOM     31  CD1 LEU E   5      44.745  47.028  20.166  1.00 19.71 LIG 0.01  C 
ATOM     32  CD2 LEU E   5      42.862  46.806  21.791  1.00 21.46 LIG 0.01  C 
ENDBRANCH 29 30
ENDBRANCH 11 29
ENDBRANCH 8 11
ENDBRANCH 6 7
BRANCH 6 33
ATOM     33  CB  LEU E   4      45.896  44.809  16.764  1.00 18.44 LIG 0.04  C 
BRANCH 33 34
ATOM     34  CG  LEU E   4      47.009  44.956  15.700  1.00 22.78 LIG-0.02  C 
ATOM     35  CD2 LEU E   4      48.279  44.151  16.034  1.00 23.44 LIG 0.01  C 
ATOM     36  CD1 LEU E   4      47.309  46.452  15.597  1.00 27.53 LIG 0.01  C 
ENDBRANCH 33 34
ENDBRANCH 6 33
ENDBRANCH 4 6
ENDBRANCH 1 2
BRANCH 1 37
ATOM     37  CB  LEU E   3      44.166  39.524  15.549  1.00 29.41 LIG 0.04  C 
BRANCH 37 38
ATOM     38  CG  LEU E   3      43.456  39.805  16.894  1.00 30.90 LIG-0.02  C 
ATOM     39  CD1 LEU E   3      42.090  40.487  16.666  1.00 35.09 LIG 0.01  C 
ATOM     40  CD2 LEU E   3      43.277  38.509  17.666  1.00 39.15 LIG 0.01  C 
ENDBRANCH 37 38
ENDBRANCH 1 37
BRANCH 1 41
ATOM     41  N   LEU E   3      45.891  40.171  13.865  1.00 22.92 LIG-0.35  N 
ATOM     42 H    LEU E   3      46.598  39.770  14.147  1.00 22.92 LIG 0.16  HD
ATOM     43  C   ARG E   2      45.579  40.366  12.590  1.00 28.87 LIG 0.24  C 
ATOM     44 O    ARG E   2      44.529  40.991  12.257  1.00 29.44 LIG-0.27  OA
BRANCH 43 45
ATOM     45  CA  ARG E   2      46.531  39.823  11.500  1.00 32.90 LIG 0.18  C 
BRANCH 45 46
ATOM     46  CB  ARG E   2      45.917  39.995  10.120  1.00 32.53 LIG 0.04  C 
BRANCH 46 47
ATOM     47  CG  ARG E   2      46.538  41.042   9.264  1.00 34.92 LIG 0.02  C 
BRANCH 47 48
ATOM     48  CD  ARG E   2      47.836  41.444   9.869  1.00 37.57 LIG 0.14  C 
BRANCH 48 49
ATOM     49  NE  ARG E   2      48.681  42.275   8.997  1.00 41.00 LIG-0.23  N 
ATOM     50 HE   ARG E   2      48.508  43.116   8.946  1.00 41.00 LIG 0.18  HD
ATOM     51  CZ  ARG E   2      49.706  41.797   8.278  1.00 43.22 LIG 0.67  C 
ATOM     52  NH2 ARG E   2      50.468  42.620   7.570  1.00 39.75 LIG-0.23  N 
ATOM     53  NH1 ARG E   2      49.982  40.480   8.264  1.00 41.20 LIG-0.23  N 
ATOM     54 2HH2 ARG E   2      51.125  42.310   7.110  1.00 39.75 LIG 0.17  HD
ATOM     55 1HH2 ARG E   2      50.305  43.465   7.570  1.00 39.75 LIG 0.17  HD
ATOM     56 1HH1 ARG E   2      49.497  39.935   8.718  1.00 41.20 LIG 0.17  HD
ATOM     57 2HH1 ARG E   2      50.642  40.185   7.799  1.00 41.20 LIG 0.17  HD
ENDBRANCH 48 49
ENDBRANCH 47 48
ENDBRANCH 46 47
ENDBRANCH 45 46
BRANCH 45 58
ATOM     58  N   ARG E   2      46.640  38.362  11.632  1.00 36.64 LIG-0.35  N 
ATOM     59 H    ARG E   2      45.891  37.981  11.814  1.00 36.64 LIG 0.16  HD
ATOM     60  C   ASN E   1      47.762  37.692  11.488  1.00 41.83 LIG 0.25  C 
ATOM     61 O    ASN E   1      48.819  38.263  11.179  1.00 38.61 LIG-0.27  OA
BRANCH 60 62
ATOM     62  CA  ASN E   1      47.651  36.132  11.631  1.00 50.15 LIG 0.28  C 
BRANCH 62 63
ATOM     63  CB  ASN E   1      46.202  35.599  11.892  1.00 58.25 LIG 0.14  C 
BRANCH 63 64
ATOM     64  CG  ASN E   1      45.647  35.930  13.321  1.00 70.07 LIG 0.22  C 
ATOM     65 OD1  ASN E   1      46.057  36.889  13.997  1.00 69.16 LIG-0.27  OA
ATOM     66  ND2 ASN E   1      44.693  35.111  13.773  1.00 65.88 LIG-0.37  N 
ATOM     67 22HD ASN E   1      44.425  34.454  13.287  1.00 65.88 LIG 0.16  HD
ATOM     68 21HD ASN E   1      44.349  35.241  14.550  1.00 65.88 LIG 0.16  HD
ENDBRANCH 63 64
ENDBRANCH 62 63
BRANCH 62 69
ATOM     69  N   ASN E   1      48.589  35.615  12.669  1.00 55.39 LIG-0.07  N 
ATOM     70 H1   ASN E   1      49.216  35.117  12.281  1.00 55.39 LIG 0.28  HD
ATOM     71 H2   ASN E   1      48.972  36.299  13.091  1.00 55.39 LIG 0.28  HD
ATOM     72 H3   ASN E   1      48.139  35.119  13.255  1.00 55.39 LIG 0.28  HD
ENDBRANCH 62 69
ENDBRANCH 60 62
ENDBRANCH 45 58
ENDBRANCH 43 45
ENDBRANCH 1 41
TORSDOF 28
ENDMDL
MODEL 12
USER: ADFR SOLUTION from run 190
USER: SCORE 24.373865 LL:  -5.590 LR: -20.727 RR:   0.000 FEB: -12.375
USER: RMSD 12.830141
USER: SEED 189
USER: STATUS no improvement in best in 4 clusters for 5 generations
USER: GENES 30
USER: genes 0 Translation |==|  0.43143 0.33755 0.42566
USER: genes 1 Rotation |==|  0.60268 0.92452 0.25833 0.52888
USER: genes 2 Torsion [N]-CA--C-[N] |==|  0.42346
USER: genes 3 Torsion [C]-N--CA-[C] |==|  0.65581
USER: genes 4 Torsion [N]-CA--C-[N] |==|  0.67133
USER: genes 5 Torsion [C]-N--CA-[C] |==|  0.53392
USER: genes 6 Torsion [N]-CA--C-[N] |==|  0.37622
USER: genes 7 Torsion [C]-N--CA-[C] |==|  0.64627
USER: genes 8 Torsion [N]-CA--C-[N] |==|  0.92310
USER: genes 9 Torsion [C]-N--CA-[C] |==|  0.51170
USER: genes 10 Torsion [N]-CA--C-[O] |==|  0.61924
USER: genes 11 Torsion [N]-CA--CB-[CG2] |==|  0.49674
USER: genes 12 Torsion [CA]-CB--OG1-[HG1] |==|  0.59935
USER: genes 13 Torsion [N]-CA--CB-[CG] |==|  0.59751
USER: genes 14 Torsion [CA]-CB--CG-[CD1] |==|  0.72184
USER: genes 15 Torsion [N]-CA--CB-[CG] |==|  0.61415
USER: genes 16 Torsion [CA]-CB--CG-[CD2] |==|  0.52470
USER: genes 17 Torsion [C]-CA--CB-[CG] |==|  0.31859
USER: genes 18 Torsion [CA]-CB--CG-[CD2] |==|  0.32134
USER: genes 19 Torsion [C]-CA--N-[C] |==|  0.66751
USER: genes 20 Torsion [N]-C--CA-[N] |==|  0.09370
USER: genes 21 Torsion [C]-CA--CB-[CG] |==|  0.83532
USER: genes 22 Torsion [CA]-CB--CG-[CD] |==|  0.62643
USER: genes 23 Torsion [CB]-CG--CD-[NE] |==|  0.56125
USER: genes 24 Torsion [CG]-CD--NE-[HE] |==|  0.67945
USER: genes 25 Torsion [C]-CA--N-[C] |==|  0.69160
USER: genes 26 Torsion [N]-C--CA-[N] |==|  0.50917
USER: genes 27 Torsion [C]-CA--CB-[CG] |==|  0.16574
USER: genes 28 Torsion [CA]-CB--CG-[OD1] |==|  0.11886
USER: genes 29 Torsion [C]-CA--N-[H2] |==|  0.86029
ROOT
ATOM      1  CA  LEU E   3      44.205  40.465  15.197  1.00 22.83 LIG 0.18  C 
ENDROOT
BRANCH 1 2
ATOM      2  C   LEU E   3      45.217  41.176  16.154  1.00 19.55 LIG 0.24  C 
ATOM      3 O    LEU E   3      46.385  40.827  16.212  1.00 19.60 LIG-0.27  OA
ATOM      4  N   LEU E   4      44.733  42.152  16.885  1.00 19.32 LIG-0.35  N 
ATOM      5 H    LEU E   4      43.896  42.295  17.022  1.00 19.32 LIG 0.16  HD
BRANCH 4 6
ATOM      6  CA  LEU E   4      45.667  43.125  17.558  1.00 17.74 LIG 0.18  C 
BRANCH 6 7
ATOM      7  C   LEU E   4      45.441  43.181  19.027  1.00 18.94 LIG 0.24  C 
ATOM      8  N   LEU E   5      45.054  44.388  19.513  1.00 19.76 LIG-0.35  N 
ATOM      9 H    LEU E   5      44.866  45.069  19.023  1.00 19.76 LIG 0.16  HD
ATOM     10 O    LEU E   4      45.668  42.175  19.766  1.00 20.41 LIG-0.27  OA
BRANCH 8 11
ATOM     11  CA  LEU E   5      44.930  44.615  20.948  1.00 18.99 LIG 0.18  C 
BRANCH 11 12
ATOM     12  C   LEU E   5      44.195  45.944  21.131  1.00 20.67 LIG 0.24  C 
ATOM     13  N   THR E   6      43.233  45.933  22.054  1.00 21.83 LIG-0.34  N 
ATOM     14 H    THR E   6      42.956  45.238  22.477  1.00 21.83 LIG 0.16  HD
ATOM     15 O    LEU E   5      44.559  46.902  20.484  1.00 20.01 LIG-0.27  OA
BRANCH 13 16
ATOM     16  CA  THR E   6      42.569  47.201  22.401  1.00 24.74 LIG 0.20  C 
BRANCH 16 17
ATOM     17  C   THR E   6      42.617  47.407  23.917  1.00 26.78 LIG 0.24  C 
ATOM     18  N   GLY E   7      42.669  46.269  24.625  1.00 28.46 LIG-0.35  N 
ATOM     19 H    GLY E   7      42.965  45.534  24.290  1.00 28.46 LIG 0.16  HD
ATOM     20 O    THR E   6      42.651  48.526  24.438  1.00 25.34 LIG-0.27  OA
BRANCH 18 21
ATOM     21  CA  GLY E   7      42.245  46.127  26.015  1.00 36.11 LIG 0.23  C 
BRANCH 21 22
ATOM     22  C   GLY E   7      42.537  44.763  26.504  1.00 43.05 LIG 0.19  C 
ATOM     23 OXT  GLY E   7      43.630  44.291  26.186  1.00 50.23 LIG-0.65  OA
ATOM     24 O    GLY E   7      41.713  44.120  27.196  1.00 56.48 LIG-0.65  OA
ENDBRANCH 21 22
ENDBRANCH 18 21
ENDBRANCH 16 17
BRANCH 16 25
ATOM     25  CB  THR E   6      41.119  47.216  21.873  1.00 24.32 LIG 0.15  C 
ATOM     26  CG2 THR E   6      40.390  48.572  22.272  1.00 23.74 LIG 0.04  C 
BRANCH 25 27
ATOM     27 OG1  THR E   6      41.201  47.120  20.463  1.00 30.49 LIG-0.39  OA
ATOM     28 HG1  THR E   6      40.592  47.582  20.115  1.00 30.49 LIG 0.21  HD
ENDBRANCH 25 27
ENDBRANCH 16 25
ENDBRANCH 13 16
ENDBRANCH 11 12
BRANCH 11 29
ATOM     29  CB  LEU E   5      46.282  44.790  21.625  1.00 19.92 LIG 0.04  C 
BRANCH 29 30
ATOM     30  CG  LEU E   5      46.244  44.167  23.050  1.00 17.19 LIG-0.02  C 
ATOM     31  CD1 LEU E   5      46.048  45.262  24.066  1.00 19.71 LIG 0.01  C 
ATOM     32  CD2 LEU E   5      45.162  43.121  23.133  1.00 21.46 LIG 0.01  C 
ENDBRANCH 29 30
ENDBRANCH 11 29
ENDBRANCH 8 11
ENDBRANCH 6 7
BRANCH 6 33
ATOM     33  CB  LEU E   4      45.417  44.544  16.949  1.00 18.44 LIG 0.04  C 
BRANCH 33 34
ATOM     34  CG  LEU E   4      46.758  45.280  16.724  1.00 22.78 LIG-0.02  C 
ATOM     35  CD2 LEU E   4      46.582  46.759  16.332  1.00 23.44 LIG 0.01  C 
ATOM     36  CD1 LEU E   4      47.497  44.499  15.636  1.00 27.53 LIG 0.01  C 
ENDBRANCH 33 34
ENDBRANCH 6 33
ENDBRANCH 4 6
ENDBRANCH 1 2
BRANCH 1 37
ATOM     37  CB  LEU E   3      43.481  39.372  15.990  1.00 29.41 LIG 0.04  C 
BRANCH 37 38
ATOM     38  CG  LEU E   3      41.961  39.549  16.213  1.00 30.90 LIG-0.02  C 
ATOM     39  CD1 LEU E   3      41.484  40.928  15.707  1.00 35.09 LIG 0.01  C 
ATOM     40  CD2 LEU E   3      41.202  38.438  15.510  1.00 39.15 LIG 0.01  C 
ENDBRANCH 37 38
ENDBRANCH 1 37
BRANCH 1 41
ATOM     41  N   LEU E   3      44.903  39.893  14.006  1.00 22.92 LIG-0.35  N 
ATOM     42 H    LEU E   3      45.504  39.303  14.176  1.00 22.92 LIG 0.16  HD
ATOM     43  C   ARG E   2      44.565  40.316  12.794  1.00 28.87 LIG 0.24  C 
ATOM     44 O    ARG E   2      43.684  41.212  12.630  1.00 29.44 LIG-0.27  OA
BRANCH 43 45
ATOM     45  CA  ARG E   2      45.277  39.701  11.567  1.00 32.90 LIG 0.18  C 
BRANCH 45 46
ATOM     46  CB  ARG E   2      44.326  39.619  10.383  1.00 32.53 LIG 0.04  C 
BRANCH 46 47
ATOM     47  CG  ARG E   2      43.098  38.808  10.600  1.00 34.92 LIG 0.02  C 
BRANCH 47 48
ATOM     48  CD  ARG E   2      42.891  37.929   9.418  1.00 37.57 LIG 0.14  C 
BRANCH 48 49
ATOM     49  NE  ARG E   2      41.507  37.463   9.240  1.00 41.00 LIG-0.23  N 
ATOM     50 HE   ARG E   2      41.350  36.620   9.311  1.00 41.00 LIG 0.18  HD
ATOM     51  CZ  ARG E   2      40.476  38.277   8.975  1.00 43.22 LIG 0.67  C 
ATOM     52  NH2 ARG E   2      39.244  37.792   8.898  1.00 39.75 LIG-0.23  N 
ATOM     53  NH1 ARG E   2      40.670  39.594   8.784  1.00 41.20 LIG-0.23  N 
ATOM     54 2HH2 ARG E   2      38.585  38.317   8.729  1.00 39.75 LIG 0.17  HD
ATOM     55 1HH2 ARG E   2      39.104  36.952   9.019  1.00 39.75 LIG 0.17  HD
ATOM     56 1HH1 ARG E   2      41.464  39.923   8.832  1.00 41.20 LIG 0.17  HD
ATOM     57 2HH1 ARG E   2      40.001  40.107   8.615  1.00 41.20 LIG 0.17  HD
ENDBRANCH 48 49
ENDBRANCH 47 48
ENDBRANCH 46 47
ENDBRANCH 45 46
BRANCH 45 58
ATOM     58  N   ARG E   2      45.586  38.290  11.840  1.00 36.64 LIG-0.35  N 
ATOM     59 H    ARG E   2      44.887  37.791  11.879  1.00 36.64 LIG 0.16  HD
ATOM     60  C   ASN E   1      46.804  37.823  12.008  1.00 41.83 LIG 0.25  C 
ATOM     61 O    ASN E   1      47.797  38.557  11.898  1.00 38.61 LIG-0.27  OA
BRANCH 60 62
ATOM     62  CA  ASN E   1      46.916  36.275  12.251  1.00 50.15 LIG 0.28  C 
BRANCH 62 63
ATOM     63  CB  ASN E   1      45.976  35.717  13.371  1.00 58.25 LIG 0.14  C 
BRANCH 63 64
ATOM     64  CG  ASN E   1      44.449  35.959  13.104  1.00 70.07 LIG 0.22  C 
ATOM     65 OD1  ASN E   1      43.927  35.795  11.988  1.00 69.16 LIG-0.27  OA
ATOM     66  ND2 ASN E   1      43.734  36.357  14.160  1.00 65.88 LIG-0.37  N 
ATOM     67 22HD ASN E   1      44.118  36.464  14.922  1.00 65.88 LIG 0.16  HD
ATOM     68 21HD ASN E   1      42.891  36.506  14.076  1.00 65.88 LIG 0.16  HD
ENDBRANCH 63 64
ENDBRANCH 62 63
BRANCH 62 69
ATOM     69  N   ASN E   1      48.327  35.868  12.507  1.00 55.39 LIG-0.07  N 
ATOM     70 H1   ASN E   1      48.386  34.980  12.501  1.00 55.39 LIG 0.28  HD
ATOM     71 H2   ASN E   1      48.853  36.204  11.873  1.00 55.39 LIG 0.28  HD
ATOM     72 H3   ASN E   1      48.585  36.176  13.301  1.00 55.39 LIG 0.28  HD
ENDBRANCH 62 69
ENDBRANCH 60 62
ENDBRANCH 45 58
ENDBRANCH 43 45
ENDBRANCH 1 41
TORSDOF 28
ENDMDL
MODEL 13
USER: ADFR SOLUTION from run 120
USER: SCORE 24.910639 LL:  -4.947 LR: -20.702 RR:   0.000 FEB: -12.350
USER: RMSD 13.157796
USER: SEED 119
USER: STATUS no improvement in best in 14 clusters for 5 generations
USER: GENES 30
USER: genes 0 Translation |==|  0.42535 0.34870 0.41271
USER: genes 1 Rotation |==|  0.67510 0.91289 0.27922 0.51097
USER: genes 2 Torsion [N]-CA--C-[N] |==|  0.42330
USER: genes 3 Torsion [C]-N--CA-[C] |==|  0.63277
USER: genes 4 Torsion [N]-CA--C-[N] |==|  0.33912
USER: genes 5 Torsion [C]-N--CA-[C] |==|  0.81530
USER: genes 6 Torsion [N]-CA--C-[N] |==|  0.37416
USER: genes 7 Torsion [C]-N--CA-[C] |==|  0.69209
USER: genes 8 Torsion [N]-CA--C-[N] |==|  0.85262
USER: genes 9 Torsion [C]-N--CA-[C] |==|  0.34083
USER: genes 10 Torsion [N]-CA--C-[O] |==|  0.34525
USER: genes 11 Torsion [N]-CA--CB-[CG2] |==|  0.64491
USER: genes 12 Torsion [CA]-CB--OG1-[HG1] |==|  0.15254
USER: genes 13 Torsion [N]-CA--CB-[CG] |==|  0.08439
USER: genes 14 Torsion [CA]-CB--CG-[CD1] |==|  0.39545
USER: genes 15 Torsion [N]-CA--CB-[CG] |==|  0.74131
USER: genes 16 Torsion [CA]-CB--CG-[CD2] |==|  0.82751
USER: genes 17 Torsion [C]-CA--CB-[CG] |==|  0.09909
USER: genes 18 Torsion [CA]-CB--CG-[CD2] |==|  0.69860
USER: genes 19 Torsion [C]-CA--N-[C] |==|  0.60845
USER: genes 20 Torsion [N]-C--CA-[N] |==|  0.38750
USER: genes 21 Torsion [C]-CA--CB-[CG] |==|  0.30536
USER: genes 22 Torsion [CA]-CB--CG-[CD] |==|  0.47955
USER: genes 23 Torsion [CB]-CG--CD-[NE] |==|  0.49796
USER: genes 24 Torsion [CG]-CD--NE-[HE] |==|  0.98748
USER: genes 25 Torsion [C]-CA--N-[C] |==|  0.83889
USER: genes 26 Torsion [N]-C--CA-[N] |==|  0.40653
USER: genes 27 Torsion [C]-CA--CB-[CG] |==|  0.28551
USER: genes 28 Torsion [CA]-CB--CG-[OD1] |==|  0.01191
USER: genes 29 Torsion [C]-CA--N-[H2] |==|  0.35348
ROOT
ATOM      1  CA  LEU E   3      44.081  40.716  14.857  1.00 22.83 LIG 0.18  C 
ENDROOT
BRANCH 1 2
ATOM      2  C   LEU E   3      45.140  41.044  15.960  1.00 19.55 LIG 0.24  C 
ATOM      3 O    LEU E   3      46.152  40.373  16.087  1.00 19.60 LIG-0.27  OA
ATOM      4  N   LEU E   4      44.870  42.070  16.734  1.00 19.32 LIG-0.35  N 
ATOM      5 H    LEU E   4      44.097  42.437  16.810  1.00 19.32 LIG 0.16  HD
BRANCH 4 6
ATOM      6  CA  LEU E   4      45.960  42.689  17.572  1.00 17.74 LIG 0.18  C 
BRANCH 6 7
ATOM      7  C   LEU E   4      45.522  42.894  18.979  1.00 18.94 LIG 0.24  C 
ATOM      8  N   LEU E   5      46.282  42.280  19.921  1.00 19.76 LIG-0.35  N 
ATOM      9 H    LEU E   5      47.016  41.864  19.756  1.00 19.76 LIG 0.16  HD
ATOM     10 O    LEU E   4      44.468  43.543  19.252  1.00 20.41 LIG-0.27  OA
BRANCH 8 11
ATOM     11  CA  LEU E   5      45.888  42.287  21.325  1.00 18.99 LIG 0.18  C 
BRANCH 11 12
ATOM     12  C   LEU E   5      45.977  43.735  21.811  1.00 20.67 LIG 0.24  C 
ATOM     13  N   THR E   6      44.936  44.151  22.533  1.00 21.83 LIG-0.34  N 
ATOM     14 H    THR E   6      44.213  43.706  22.669  1.00 21.83 LIG 0.16  HD
ATOM     15 O    LEU E   5      46.978  44.369  21.562  1.00 20.01 LIG-0.27  OA
BRANCH 13 16
ATOM     16  CA  THR E   6      44.998  45.481  23.164  1.00 24.74 LIG 0.20  C 
BRANCH 16 17
ATOM     17  C   THR E   6      45.096  45.324  24.683  1.00 26.78 LIG 0.24  C 
ATOM     18  N   GLY E   7      44.140  44.550  25.219  1.00 28.46 LIG-0.35  N 
ATOM     19 H    GLY E   7      43.721  43.956  24.760  1.00 28.46 LIG 0.16  HD
ATOM     20 O    THR E   6      46.005  45.827  25.350  1.00 25.34 LIG-0.27  OA
BRANCH 18 21
ATOM     21  CA  GLY E   7      43.695  44.610  26.609  1.00 36.11 LIG 0.23  C 
BRANCH 21 22
ATOM     22  C   GLY E   7      42.242  44.876  26.671  1.00 43.05 LIG 0.19  C 
ATOM     23 OXT  GLY E   7      41.847  45.890  26.092  1.00 50.23 LIG-0.65  OA
ATOM     24 O    GLY E   7      41.458  44.115  27.284  1.00 56.48 LIG-0.65  OA
ENDBRANCH 21 22
ENDBRANCH 18 21
ENDBRANCH 16 17
BRANCH 16 25
ATOM     25  CB  THR E   6      43.774  46.329  22.761  1.00 24.32 LIG 0.15  C 
ATOM     26  CG2 THR E   6      44.232  47.742  22.193  1.00 23.74 LIG 0.04  C 
BRANCH 25 27
ATOM     27 OG1  THR E   6      43.098  45.608  21.747  1.00 30.49 LIG-0.39  OA
ATOM     28 HG1  THR E   6      42.920  44.836  22.023  1.00 30.49 LIG 0.21  HD
ENDBRANCH 25 27
ENDBRANCH 16 25
ENDBRANCH 13 16
ENDBRANCH 11 12
BRANCH 11 29
ATOM     29  CB  LEU E   5      46.848  41.494  22.200  1.00 19.92 LIG 0.04  C 
BRANCH 29 30
ATOM     30  CG  LEU E   5      48.282  41.552  21.599  1.00 17.19 LIG-0.02  C 
ATOM     31  CD1 LEU E   5      49.286  41.646  22.717  1.00 19.71 LIG 0.01  C 
ATOM     32  CD2 LEU E   5      48.528  40.353  20.720  1.00 21.46 LIG 0.01  C 
ENDBRANCH 29 30
ENDBRANCH 11 29
ENDBRANCH 8 11
ENDBRANCH 6 7
BRANCH 6 33
ATOM     33  CB  LEU E   4      46.330  44.073  16.945  1.00 18.44 LIG 0.04  C 
BRANCH 33 34
ATOM     34  CG  LEU E   4      47.512  43.921  15.960  1.00 22.78 LIG-0.02  C 
ATOM     35  CD2 LEU E   4      48.804  43.418  16.633  1.00 23.44 LIG 0.01  C 
ATOM     36  CD1 LEU E   4      47.716  45.296  15.320  1.00 27.53 LIG 0.01  C 
ENDBRANCH 33 34
ENDBRANCH 6 33
ENDBRANCH 4 6
ENDBRANCH 1 2
BRANCH 1 37
ATOM     37  CB  LEU E   3      43.001  39.826  15.480  1.00 29.41 LIG 0.04  C 
BRANCH 37 38
ATOM     38  CG  LEU E   3      42.621  40.102  16.953  1.00 30.90 LIG-0.02  C 
ATOM     39  CD1 LEU E   3      41.092  40.242  17.114  1.00 35.09 LIG 0.01  C 
ATOM     40  CD2 LEU E   3      43.144  38.986  17.840  1.00 39.15 LIG 0.01  C 
ENDBRANCH 37 38
ENDBRANCH 1 37
BRANCH 1 41
ATOM     41  N   LEU E   3      44.719  40.047  13.683  1.00 22.92 LIG-0.35  N 
ATOM     42 H    LEU E   3      45.335  39.476  13.869  1.00 22.92 LIG 0.16  HD
ATOM     43  C   ARG E   2      44.311  40.362  12.459  1.00 28.87 LIG 0.24  C 
ATOM     44 O    ARG E   2      43.415  41.236  12.268  1.00 29.44 LIG-0.27  OA
BRANCH 43 45
ATOM     45  CA  ARG E   2      44.961  39.647  11.252  1.00 32.90 LIG 0.18  C 
BRANCH 45 46
ATOM     46  CB  ARG E   2      45.877  40.598  10.498  1.00 32.53 LIG 0.04  C 
BRANCH 46 47
ATOM     47  CG  ARG E   2      47.333  40.315  10.612  1.00 34.92 LIG 0.02  C 
BRANCH 47 48
ATOM     48  CD  ARG E   2      48.069  41.214   9.683  1.00 37.57 LIG 0.14  C 
BRANCH 48 49
ATOM     49  NE  ARG E   2      49.531  41.050   9.707  1.00 41.00 LIG-0.23  N 
ATOM     50 HE   ARG E   2      49.869  40.506  10.281  1.00 41.00 LIG 0.18  HD
ATOM     51  CZ  ARG E   2      50.366  41.701   8.886  1.00 43.22 LIG 0.67  C 
ATOM     52  NH2 ARG E   2      51.668  41.449   8.919  1.00 39.75 LIG-0.23  N 
ATOM     53  NH1 ARG E   2      49.903  42.617   8.017  1.00 41.20 LIG-0.23  N 
ATOM     54 2HH2 ARG E   2      52.201  41.868   8.391  1.00 39.75 LIG 0.17  HD
ATOM     55 1HH2 ARG E   2      51.979  40.865   9.469  1.00 39.75 LIG 0.17  HD
ATOM     56 1HH1 ARG E   2      49.061  42.791   7.983  1.00 41.20 LIG 0.17  HD
ATOM     57 2HH1 ARG E   2      50.448  43.028   7.495  1.00 41.20 LIG 0.17  HD
ENDBRANCH 48 49
ENDBRANCH 47 48
ENDBRANCH 46 47
ENDBRANCH 45 46
BRANCH 45 58
ATOM     58  N   ARG E   2      43.925  39.330  10.258  1.00 36.64 LIG-0.35  N 
ATOM     59 H    ARG E   2      44.079  39.676   9.485  1.00 36.64 LIG 0.16  HD
ATOM     60  C   ASN E   1      42.865  38.594  10.508  1.00 41.83 LIG 0.25  C 
ATOM     61 O    ASN E   1      42.693  38.069  11.618  1.00 38.61 LIG-0.27  OA
BRANCH 60 62
ATOM     62  CA  ASN E   1      41.901  38.345   9.294  1.00 50.15 LIG 0.28  C 
BRANCH 62 63
ATOM     63  CB  ASN E   1      40.806  39.445   9.089  1.00 58.25 LIG 0.14  C 
BRANCH 63 64
ATOM     64  CG  ASN E   1      41.115  40.445   7.920  1.00 70.07 LIG 0.22  C 
ATOM     65 OD1  ASN E   1      42.100  40.322   7.171  1.00 69.16 LIG-0.27  OA
ATOM     66  ND2 ASN E   1      40.246  41.449   7.774  1.00 65.88 LIG-0.37  N 
ATOM     67 22HD ASN E   1      39.572  41.514   8.304  1.00 65.88 LIG 0.16  HD
ATOM     68 21HD ASN E   1      40.361  42.030   7.150  1.00 65.88 LIG 0.16  HD
ENDBRANCH 63 64
ENDBRANCH 62 63
BRANCH 62 69
ATOM     69  N   ASN E   1      41.273  36.995   9.369  1.00 55.39 LIG-0.07  N 
ATOM     70 H1   ASN E   1      41.478  36.615  10.147  1.00 55.39 LIG 0.28  HD
ATOM     71 H2   ASN E   1      40.389  37.075   9.303  1.00 55.39 LIG 0.28  HD
ATOM     72 H3   ASN E   1      41.576  36.489   8.703  1.00 55.39 LIG 0.28  HD
ENDBRANCH 62 69
ENDBRANCH 60 62
ENDBRANCH 45 58
ENDBRANCH 43 45
ENDBRANCH 1 41
TORSDOF 28
ENDMDL
MODEL 14
USER: ADFR SOLUTION from run 65
USER: SCORE 24.751230 LL:  -5.476 LR: -20.628 RR:   0.000 FEB: -12.276
USER: RMSD 12.163618
USER: SEED 64
USER: STATUS no improvement in best in 8 clusters for 5 generations
USER: GENES 30
USER: genes 0 Translation |==|  0.43840 0.35301 0.42013
USER: genes 1 Rotation |==|  0.62787 0.91100 0.24617 0.51735
USER: genes 2 Torsion [N]-CA--C-[N] |==|  0.36715
USER: genes 3 Torsion [C]-N--CA-[C] |==|  0.78884
USER: genes 4 Torsion [N]-CA--C-[N] |==|  0.34489
USER: genes 5 Torsion [C]-N--CA-[C] |==|  0.55621
USER: genes 6 Torsion [N]-CA--C-[N] |==|  0.80442
USER: genes 7 Torsion [C]-N--CA-[C] |==|  0.82604
USER: genes 8 Torsion [N]-CA--C-[N] |==|  0.35306
USER: genes 9 Torsion [C]-N--CA-[C] |==|  0.65195
USER: genes 10 Torsion [N]-CA--C-[O] |==|  0.04814
USER: genes 11 Torsion [N]-CA--CB-[CG2] |==|  0.67529
USER: genes 12 Torsion [CA]-CB--OG1-[HG1] |==|  0.35671
USER: genes 13 Torsion [N]-CA--CB-[CG] |==|  0.58847
USER: genes 14 Torsion [CA]-CB--CG-[CD1] |==|  0.74116
USER: genes 15 Torsion [N]-CA--CB-[CG] |==|  0.62956
USER: genes 16 Torsion [CA]-CB--CG-[CD2] |==|  0.43035
USER: genes 17 Torsion [C]-CA--CB-[CG] |==|  0.37969
USER: genes 18 Torsion [CA]-CB--CG-[CD2] |==|  0.72475
USER: genes 19 Torsion [C]-CA--N-[C] |==|  0.66102
USER: genes 20 Torsion [N]-C--CA-[N] |==|  0.08230
USER: genes 21 Torsion [C]-CA--CB-[CG] |==|  0.78172
USER: genes 22 Torsion [CA]-CB--CG-[CD] |==|  0.27327
USER: genes 23 Torsion [CB]-CG--CD-[NE] |==|  0.24305
USER: genes 24 Torsion [CG]-CD--NE-[HE] |==|  0.68411
USER: genes 25 Torsion [C]-CA--N-[C] |==|  0.69058
USER: genes 26 Torsion [N]-C--CA-[N] |==|  0.50698
USER: genes 27 Torsion [C]-CA--CB-[CG] |==|  0.17898
USER: genes 28 Torsion [CA]-CB--CG-[OD1] |==|  0.10367
USER: genes 29 Torsion [C]-CA--N-[H2] |==|  0.20487
ROOT
ATOM      1  CA  LEU E   3      44.346  40.813  15.051  1.00 22.83 LIG 0.18  C 
ENDROOT
BRANCH 1 2
ATOM      2  C   LEU E   3      45.437  41.445  15.977  1.00 19.55 LIG 0.24  C 
ATOM      3 O    LEU E   3      46.402  40.797  16.351  1.00 19.60 LIG-0.27  OA
ATOM      4  N   LEU E   4      45.247  42.696  16.324  1.00 19.32 LIG-0.35  N 
ATOM      5 H    LEU E   4      44.501  43.117  16.252  1.00 19.32 LIG 0.16  HD
BRANCH 4 6
ATOM      6  CA  LEU E   4      46.385  43.500  16.898  1.00 17.74 LIG 0.18  C 
BRANCH 6 7
ATOM      7  C   LEU E   4      46.660  43.134  18.313  1.00 18.94 LIG 0.24  C 
ATOM      8  N   LEU E   5      47.933  42.746  18.579  1.00 19.76 LIG-0.35  N 
ATOM      9 H    LEU E   5      48.578  42.777  18.010  1.00 19.76 LIG 0.16  HD
ATOM     10 O    LEU E   4      45.736  43.125  19.181  1.00 20.41 LIG-0.27  OA
BRANCH 8 11
ATOM     11  CA  LEU E   5      48.304  42.232  19.892  1.00 18.99 LIG 0.18  C 
BRANCH 11 12
ATOM     12  C   LEU E   5      49.822  42.375  20.020  1.00 20.67 LIG 0.24  C 
ATOM     13  N   THR E   6      50.532  41.549  19.250  1.00 21.83 LIG-0.34  N 
ATOM     14 H    THR E   6      50.209  40.915  18.769  1.00 21.83 LIG 0.16  HD
ATOM     15 O    LEU E   5      50.263  43.237  20.747  1.00 20.01 LIG-0.27  OA
BRANCH 13 16
ATOM     16  CA  THR E   6      51.995  41.713  19.197  1.00 24.74 LIG 0.20  C 
BRANCH 16 17
ATOM     17  C   THR E   6      52.337  43.087  18.619  1.00 26.78 LIG 0.24  C 
ATOM     18  N   GLY E   7      53.169  43.813  19.381  1.00 28.46 LIG-0.35  N 
ATOM     19 H    GLY E   7      53.703  43.451  19.949  1.00 28.46 LIG 0.16  HD
ATOM     20 O    THR E   6      51.920  43.474  17.523  1.00 25.34 LIG-0.27  OA
BRANCH 18 21
ATOM     21  CA  GLY E   7      53.280  45.269  19.349  1.00 36.11 LIG 0.23  C 
BRANCH 21 22
ATOM     22  C   GLY E   7      54.682  45.672  19.108  1.00 43.05 LIG 0.19  C 
ATOM     23 OXT  GLY E   7      54.967  46.840  19.374  1.00 50.23 LIG-0.65  OA
ATOM     24 O    GLY E   7      55.528  44.870  18.649  1.00 56.48 LIG-0.65  OA
ENDBRANCH 21 22
ENDBRANCH 18 21
ENDBRANCH 16 17
BRANCH 16 25
ATOM     25  CB  THR E   6      52.637  40.576  18.375  1.00 24.32 LIG 0.15  C 
ATOM     26  CG2 THR E   6      53.601  39.699  19.286  1.00 23.74 LIG 0.04  C 
BRANCH 25 27
ATOM     27 OG1  THR E   6      51.575  39.771  17.898  1.00 30.49 LIG-0.39  OA
ATOM     28 HG1  THR E   6      51.652  39.667  17.068  1.00 30.49 LIG 0.21  HD
ENDBRANCH 25 27
ENDBRANCH 16 25
ENDBRANCH 13 16
ENDBRANCH 11 12
BRANCH 11 29
ATOM     29  CB  LEU E   5      48.012  40.745  20.036  1.00 19.92 LIG 0.04  C 
BRANCH 29 30
ATOM     30  CG  LEU E   5      47.643  40.419  21.511  1.00 17.19 LIG-0.02  C 
ATOM     31  CD1 LEU E   5      48.885  39.997  22.252  1.00 19.71 LIG 0.01  C 
ATOM     32  CD2 LEU E   5      46.977  41.606  22.157  1.00 21.46 LIG 0.01  C 
ENDBRANCH 29 30
ENDBRANCH 11 29
ENDBRANCH 8 11
ENDBRANCH 6 7
BRANCH 6 33
ATOM     33  CB  LEU E   4      45.998  45.014  16.828  1.00 18.44 LIG 0.04  C 
BRANCH 33 34
ATOM     34  CG  LEU E   4      47.170  45.846  16.260  1.00 22.78 LIG-0.02  C 
ATOM     35  CD2 LEU E   4      46.718  47.160  15.596  1.00 23.44 LIG 0.01  C 
ATOM     36  CD1 LEU E   4      47.895  44.939  15.264  1.00 27.53 LIG 0.01  C 
ENDBRANCH 33 34
ENDBRANCH 6 33
ENDBRANCH 4 6
ENDBRANCH 1 2
BRANCH 1 37
ATOM     37  CB  LEU E   3      43.495  39.859  15.896  1.00 29.41 LIG 0.04  C 
BRANCH 37 38
ATOM     38  CG  LEU E   3      41.963  39.907  15.690  1.00 30.90 LIG-0.02  C 
ATOM     39  CD1 LEU E   3      41.362  38.485  15.680  1.00 35.09 LIG 0.01  C 
ATOM     40  CD2 LEU E   3      41.320  40.744  16.781  1.00 39.15 LIG 0.01  C 
ENDBRANCH 37 38
ENDBRANCH 1 37
BRANCH 1 41
ATOM     41  N   LEU E   3      44.969  40.099  13.896  1.00 22.92 LIG-0.35  N 
ATOM     42 H    LEU E   3      45.518  39.470  14.100  1.00 22.92 LIG 0.16  HD
ATOM     43  C   ARG E   2      44.648  40.466  12.661  1.00 28.87 LIG 0.24  C 
ATOM     44 O    ARG E   2      43.848  41.424  12.445  1.00 29.44 LIG-0.27  OA
BRANCH 43 45
ATOM     45  CA  ARG E   2      45.280  39.706  11.472  1.00 32.90 LIG 0.18  C 
BRANCH 45 46
ATOM     46  CB  ARG E   2      44.271  39.539  10.347  1.00 32.53 LIG 0.04  C 
BRANCH 46 47
ATOM     47  CG  ARG E   2      43.269  38.456  10.537  1.00 34.92 LIG 0.02  C 
BRANCH 47 48
ATOM     48  CD  ARG E   2      42.008  39.056  11.049  1.00 37.57 LIG 0.14  C 
BRANCH 48 49
ATOM     49  NE  ARG E   2      41.090  39.530  10.002  1.00 41.00 LIG-0.23  N 
ATOM     50 HE   ARG E   2      40.943  40.375   9.944  1.00 41.00 LIG 0.18  HD
ATOM     51  CZ  ARG E   2      40.470  38.720   9.133  1.00 43.22 LIG 0.67  C 
ATOM     52  NH2 ARG E   2      39.711  39.226   8.171  1.00 39.75 LIG-0.23  N 
ATOM     53  NH1 ARG E   2      40.606  37.384   9.220  1.00 41.20 LIG-0.23  N 
ATOM     54 2HH2 ARG E   2      39.315  38.704   7.615  1.00 39.75 LIG 0.17  HD
ATOM     55 1HH2 ARG E   2      39.615  40.079   8.102  1.00 39.75 LIG 0.17  HD
ATOM     56 1HH1 ARG E   2      41.095  37.041   9.839  1.00 41.20 LIG 0.17  HD
ATOM     57 2HH1 ARG E   2      40.204  36.874   8.657  1.00 41.20 LIG 0.17  HD
ENDBRANCH 48 49
ENDBRANCH 47 48
ENDBRANCH 46 47
ENDBRANCH 45 46
BRANCH 45 58
ATOM     58  N   ARG E   2      45.558  38.318  11.874  1.00 36.64 LIG-0.35  N 
ATOM     59 H    ARG E   2      44.846  37.853  12.000  1.00 36.64 LIG 0.16  HD
ATOM     60  C   ASN E   1      46.767  37.825  12.028  1.00 41.83 LIG 0.25  C 
ATOM     61 O    ASN E   1      47.776  38.506  11.791  1.00 38.61 LIG-0.27  OA
BRANCH 60 62
ATOM     62  CA  ASN E   1      46.842  36.307  12.423  1.00 50.15 LIG 0.28  C 
BRANCH 62 63
ATOM     63  CB  ASN E   1      45.962  35.905  13.653  1.00 58.25 LIG 0.14  C 
BRANCH 63 64
ATOM     64  CG  ASN E   1      44.419  36.071  13.417  1.00 70.07 LIG 0.22  C 
ATOM     65 OD1  ASN E   1      43.874  35.821  12.329  1.00 69.16 LIG-0.27  OA
ATOM     66  ND2 ASN E   1      43.718  36.503  14.469  1.00 65.88 LIG-0.37  N 
ATOM     67 22HD ASN E   1      44.117  36.670  15.212  1.00 65.88 LIG 0.16  HD
ATOM     68 21HD ASN E   1      42.868  36.613  14.402  1.00 65.88 LIG 0.16  HD
ENDBRANCH 63 64
ENDBRANCH 62 63
BRANCH 62 69
ATOM     69  N   ASN E   1      48.253  35.870  12.629  1.00 55.39 LIG-0.07  N 
ATOM     70 H1   ASN E   1      48.757  36.168  11.959  1.00 55.39 LIG 0.28  HD
ATOM     71 H2   ASN E   1      48.556  36.200  13.398  1.00 55.39 LIG 0.28  HD
ATOM     72 H3   ASN E   1      48.288  34.981  12.652  1.00 55.39 LIG 0.28  HD
ENDBRANCH 62 69
ENDBRANCH 60 62
ENDBRANCH 45 58
ENDBRANCH 43 45
ENDBRANCH 1 41
TORSDOF 28
ENDMDL
MODEL 15
USER: ADFR SOLUTION from run 65
USER: SCORE 25.205177 LL:  -5.509 LR: -20.619 RR:   0.000 FEB: -12.267
USER: RMSD 12.245394
USER: SEED 64
USER: STATUS no improvement in best in 8 clusters for 5 generations
USER: GENES 30
USER: genes 0 Translation |==|  0.44799 0.35116 0.41469
USER: genes 1 Rotation |==|  0.57893 0.90732 0.22115 0.51034
USER: genes 2 Torsion [N]-CA--C-[N] |==|  0.34582
USER: genes 3 Torsion [C]-N--CA-[C] |==|  0.86142
USER: genes 4 Torsion [N]-CA--C-[N] |==|  0.35556
USER: genes 5 Torsion [C]-N--CA-[C] |==|  0.66994
USER: genes 6 Torsion [N]-CA--C-[N] |==|  0.84467
USER: genes 7 Torsion [C]-N--CA-[C] |==|  0.75466
USER: genes 8 Torsion [N]-CA--C-[N] |==|  0.41842
USER: genes 9 Torsion [C]-N--CA-[C] |==|  0.80549
USER: genes 10 Torsion [N]-CA--C-[O] |==|  0.90248
USER: genes 11 Torsion [N]-CA--CB-[CG2] |==|  0.37537
USER: genes 12 Torsion [CA]-CB--OG1-[HG1] |==|  0.45076
USER: genes 13 Torsion [N]-CA--CB-[CG] |==|  0.65238
USER: genes 14 Torsion [CA]-CB--CG-[CD1] |==|  0.62703
USER: genes 15 Torsion [N]-CA--CB-[CG] |==|  0.54540
USER: genes 16 Torsion [CA]-CB--CG-[CD2] |==|  0.50591
USER: genes 17 Torsion [C]-CA--CB-[CG] |==|  0.52573
USER: genes 18 Torsion [CA]-CB--CG-[CD2] |==|  0.85861
USER: genes 19 Torsion [C]-CA--N-[C] |==|  0.69652
USER: genes 20 Torsion [N]-C--CA-[N] |==|  0.07126
USER: genes 21 Torsion [C]-CA--CB-[CG] |==|  0.78387
USER: genes 22 Torsion [CA]-CB--CG-[CD] |==|  0.28178
USER: genes 23 Torsion [CB]-CG--CD-[NE] |==|  0.22258
USER: genes 24 Torsion [CG]-CD--NE-[HE] |==|  0.68362
USER: genes 25 Torsion [C]-CA--N-[C] |==|  0.69803
USER: genes 26 Torsion [N]-C--CA-[N] |==|  0.51924
USER: genes 27 Torsion [C]-CA--CB-[CG] |==|  0.18620
USER: genes 28 Torsion [CA]-CB--CG-[OD1] |==|  0.09291
USER: genes 29 Torsion [C]-CA--N-[H2] |==|  0.91393
ROOT
ATOM      1  CA  LEU E   3      44.540  40.771  14.909  1.00 22.83 LIG 0.18  C 
ENDROOT
BRANCH 1 2
ATOM      2  C   LEU E   3      45.647  41.630  15.604  1.00 19.55 LIG 0.24  C 
ATOM      3 O    LEU E   3      46.685  41.124  16.001  1.00 19.60 LIG-0.27  OA
ATOM      4  N   LEU E   4      45.388  42.910  15.736  1.00 19.32 LIG-0.35  N 
ATOM      5 H    LEU E   4      44.609  43.263  15.656  1.00 19.32 LIG 0.16  HD
BRANCH 4 6
ATOM      6  CA  LEU E   4      46.502  43.876  16.051  1.00 17.74 LIG 0.18  C 
BRANCH 6 7
ATOM      7  C   LEU E   4      47.322  43.414  17.204  1.00 18.94 LIG 0.24  C 
ATOM      8  N   LEU E   5      48.661  43.371  16.987  1.00 19.76 LIG-0.35  N 
ATOM      9 H    LEU E   5      49.046  43.661  16.275  1.00 19.76 LIG 0.16  HD
ATOM     10 O    LEU E   4      46.780  43.024  18.281  1.00 20.41 LIG-0.27  OA
BRANCH 8 11
ATOM     11  CA  LEU E   5      49.565  42.810  17.984  1.00 18.99 LIG 0.18  C 
BRANCH 11 12
ATOM     12  C   LEU E   5      50.517  43.930  18.409  1.00 20.67 LIG 0.24  C 
ATOM     13  N   THR E   6      51.193  44.503  17.412  1.00 21.83 LIG-0.34  N 
ATOM     14 H    THR E   6      51.191  44.242  16.593  1.00 21.83 LIG 0.16  HD
ATOM     15 O    LEU E   5      50.552  44.249  19.577  1.00 20.01 LIG-0.27  OA
BRANCH 13 16
ATOM     16  CA  THR E   6      52.023  45.684  17.706  1.00 24.74 LIG 0.20  C 
BRANCH 16 17
ATOM     17  C   THR E   6      51.175  46.951  17.578  1.00 26.78 LIG 0.24  C 
ATOM     18  N   GLY E   7      51.570  47.960  18.370  1.00 28.46 LIG-0.35  N 
ATOM     19 H    GLY E   7      52.374  48.019  18.669  1.00 28.46 LIG 0.16  HD
ATOM     20 O    THR E   6      50.237  47.051  16.781  1.00 25.34 LIG-0.27  OA
BRANCH 18 21
ATOM     21  CA  GLY E   7      50.717  49.057  18.817  1.00 36.11 LIG 0.23  C 
BRANCH 21 22
ATOM     22  C   GLY E   7      50.393  49.950  17.683  1.00 43.05 LIG 0.19  C 
ATOM     23 OXT  GLY E   7      49.266  50.447  17.685  1.00 50.23 LIG-0.65  OA
ATOM     24 O    GLY E   7      51.218  50.180  16.769  1.00 56.48 LIG-0.65  OA
ENDBRANCH 21 22
ENDBRANCH 18 21
ENDBRANCH 16 17
BRANCH 16 25
ATOM     25  CB  THR E   6      53.251  45.729  16.773  1.00 24.32 LIG 0.15  C 
ATOM     26  CG2 THR E   6      53.468  47.196  16.200  1.00 23.74 LIG 0.04  C 
BRANCH 25 27
ATOM     27 OG1  THR E   6      54.370  45.358  17.558  1.00 30.49 LIG-0.39  OA
ATOM     28 HG1  THR E   6      55.004  45.135  17.055  1.00 30.49 LIG 0.21  HD
ENDBRANCH 25 27
ENDBRANCH 16 25
ENDBRANCH 13 16
ENDBRANCH 11 12
BRANCH 11 29
ATOM     29  CB  LEU E   5      50.447  41.709  17.411  1.00 19.92 LIG 0.04  C 
BRANCH 29 30
ATOM     30  CG  LEU E   5      50.290  40.413  18.258  1.00 17.19 LIG-0.02  C 
ATOM     31  CD1 LEU E   5      51.652  39.835  18.537  1.00 19.71 LIG 0.01  C 
ATOM     32  CD2 LEU E   5      49.532  40.708  19.527  1.00 21.46 LIG 0.01  C 
ENDBRANCH 29 30
ENDBRANCH 11 29
ENDBRANCH 8 11
ENDBRANCH 6 7
BRANCH 6 33
ATOM     33  CB  LEU E   4      45.864  45.260  16.401  1.00 18.44 LIG 0.04  C 
BRANCH 33 34
ATOM     34  CG  LEU E   4      46.929  46.378  16.332  1.00 22.78 LIG-0.02  C 
ATOM     35  CD2 LEU E   4      46.381  47.766  16.716  1.00 23.44 LIG 0.01  C 
ATOM     36  CD1 LEU E   4      47.468  46.369  14.900  1.00 27.53 LIG 0.01  C 
ENDBRANCH 33 34
ENDBRANCH 6 33
ENDBRANCH 4 6
ENDBRANCH 1 2
BRANCH 1 37
ATOM     37  CB  LEU E   3      43.964  39.802  15.946  1.00 29.41 LIG 0.04  C 
BRANCH 37 38
ATOM     38  CG  LEU E   3      43.007  38.702  15.430  1.00 30.90 LIG-0.02  C 
ATOM     39  CD1 LEU E   3      42.383  37.917  16.604  1.00 35.09 LIG 0.01  C 
ATOM     40  CD2 LEU E   3      41.918  39.323  14.573  1.00 39.15 LIG 0.01  C 
ENDBRANCH 37 38
ENDBRANCH 1 37
BRANCH 1 41
ATOM     41  N   LEU E   3      45.091  40.035  13.731  1.00 22.92 LIG-0.35  N 
ATOM     42 H    LEU E   3      45.627  39.387  13.915  1.00 22.92 LIG 0.16  HD
ATOM     43  C   ARG E   2      44.735  40.411  12.509  1.00 28.87 LIG 0.24  C 
ATOM     44 O    ARG E   2      43.960  41.396  12.322  1.00 29.44 LIG-0.27  OA
BRANCH 43 45
ATOM     45  CA  ARG E   2      45.293  39.628  11.298  1.00 32.90 LIG 0.18  C 
BRANCH 45 46
ATOM     46  CB  ARG E   2      44.207  39.410  10.257  1.00 32.53 LIG 0.04  C 
BRANCH 46 47
ATOM     47  CG  ARG E   2      43.233  38.327  10.559  1.00 34.92 LIG 0.02  C 
BRANCH 47 48
ATOM     48  CD  ARG E   2      41.978  38.941  11.069  1.00 37.57 LIG 0.14  C 
BRANCH 48 49
ATOM     49  NE  ARG E   2      41.093  39.476  10.023  1.00 41.00 LIG-0.23  N 
ATOM     50 HE   ARG E   2      40.967  40.326   9.993  1.00 41.00 LIG 0.18  HD
ATOM     51  CZ  ARG E   2      40.472  38.713   9.112  1.00 43.22 LIG 0.67  C 
ATOM     52  NH2 ARG E   2      39.745  39.273   8.154  1.00 39.75 LIG-0.23  N 
ATOM     53  NH1 ARG E   2      40.575  37.373   9.152  1.00 41.20 LIG-0.23  N 
ATOM     54 2HH2 ARG E   2      39.348  38.781   7.572  1.00 39.75 LIG 0.17  HD
ATOM     55 1HH2 ARG E   2      39.670  40.129   8.116  1.00 39.75 LIG 0.17  HD
ATOM     56 1HH1 ARG E   2      41.043  36.995   9.766  1.00 41.20 LIG 0.17  HD
ATOM     57 2HH1 ARG E   2      40.173  36.894   8.562  1.00 41.20 LIG 0.17  HD
ENDBRANCH 48 49
ENDBRANCH 47 48
ENDBRANCH 46 47
ENDBRANCH 45 46
BRANCH 45 58
ATOM     58  N   ARG E   2      45.628  38.258  11.716  1.00 36.64 LIG-0.35  N 
ATOM     59 H    ARG E   2      44.936  37.773  11.873  1.00 36.64 LIG 0.16  HD
ATOM     60  C   ASN E   1      46.856  37.807  11.842  1.00 41.83 LIG 0.25  C 
ATOM     61 O    ASN E   1      47.835  38.516  11.562  1.00 38.61 LIG-0.27  OA
BRANCH 60 62
ATOM     62  CA  ASN E   1      46.993  36.300  12.262  1.00 50.15 LIG 0.28  C 
BRANCH 62 63
ATOM     63  CB  ASN E   1      46.081  35.868  13.459  1.00 58.25 LIG 0.14  C 
BRANCH 63 64
ATOM     64  CG  ASN E   1      44.546  35.888  13.133  1.00 70.07 LIG 0.22  C 
ATOM     65 OD1  ASN E   1      44.093  35.618  12.008  1.00 69.16 LIG-0.27  OA
ATOM     66  ND2 ASN E   1      43.745  36.217  14.150  1.00 65.88 LIG-0.37  N 
ATOM     67 22HD ASN E   1      44.081  36.400  14.920  1.00 65.88 LIG 0.16  HD
ATOM     68 21HD ASN E   1      42.893  36.245  14.034  1.00 65.88 LIG 0.16  HD
ENDBRANCH 63 64
ENDBRANCH 62 63
BRANCH 62 69
ATOM     69  N   ASN E   1      48.414  35.941  12.536  1.00 55.39 LIG-0.07  N 
ATOM     70 H1   ASN E   1      48.541  35.078  12.359  1.00 55.39 LIG 0.28  HD
ATOM     71 H2   ASN E   1      48.949  36.431  12.021  1.00 55.39 LIG 0.28  HD
ATOM     72 H3   ASN E   1      48.600  36.097  13.392  1.00 55.39 LIG 0.28  HD
ENDBRANCH 62 69
ENDBRANCH 60 62
ENDBRANCH 45 58
ENDBRANCH 43 45
ENDBRANCH 1 41
TORSDOF 28
ENDMDL
MODEL 16
USER: ADFR SOLUTION from run 73
USER: SCORE 24.254051 LL:  -5.114 LR: -20.596 RR:   0.000 FEB: -12.244
USER: RMSD 12.628139
USER: SEED 72
USER: STATUS no improvement in best in 3 clusters for 5 generations
USER: GENES 30
USER: genes 0 Translation |==|  0.46170 0.33784 0.40988
USER: genes 1 Rotation |==|  0.61131 0.92587 0.27659 0.57962
USER: genes 2 Torsion [N]-CA--C-[N] |==|  0.37078
USER: genes 3 Torsion [C]-N--CA-[C] |==|  0.66462
USER: genes 4 Torsion [N]-CA--C-[N] |==|  0.57564
USER: genes 5 Torsion [C]-N--CA-[C] |==|  0.65266
USER: genes 6 Torsion [N]-CA--C-[N] |==|  0.37972
USER: genes 7 Torsion [C]-N--CA-[C] |==|  0.84490
USER: genes 8 Torsion [N]-CA--C-[N] |==|  0.35592
USER: genes 9 Torsion [C]-N--CA-[C] |==|  0.23460
USER: genes 10 Torsion [N]-CA--C-[O] |==|  0.82188
USER: genes 11 Torsion [N]-CA--CB-[CG2] |==|  0.39282
USER: genes 12 Torsion [CA]-CB--OG1-[HG1] |==|  0.06107
USER: genes 13 Torsion [N]-CA--CB-[CG] |==|  0.62757
USER: genes 14 Torsion [CA]-CB--CG-[CD1] |==|  0.77917
USER: genes 15 Torsion [N]-CA--CB-[CG] |==|  0.72255
USER: genes 16 Torsion [CA]-CB--CG-[CD2] |==|  0.90984
USER: genes 17 Torsion [C]-CA--CB-[CG] |==|  0.09861
USER: genes 18 Torsion [CA]-CB--CG-[CD2] |==|  0.56156
USER: genes 19 Torsion [C]-CA--N-[C] |==|  0.64592
USER: genes 20 Torsion [N]-C--CA-[N] |==|  0.15549
USER: genes 21 Torsion [C]-CA--CB-[CG] |==|  0.41153
USER: genes 22 Torsion [CA]-CB--CG-[CD] |==|  0.69572
USER: genes 23 Torsion [CB]-CG--CD-[NE] |==|  0.37194
USER: genes 24 Torsion [CG]-CD--NE-[HE] |==|  0.66648
USER: genes 25 Torsion [C]-CA--N-[C] |==|  0.62394
USER: genes 26 Torsion [N]-C--CA-[N] |==|  0.62658
USER: genes 27 Torsion [C]-CA--CB-[CG] |==|  0.81302
USER: genes 28 Torsion [CA]-CB--CG-[OD1] |==|  0.06546
USER: genes 29 Torsion [C]-CA--N-[H2] |==|  0.04034
ROOT
ATOM      1  CA  LEU E   3      44.817  40.471  14.782  1.00 22.83 LIG 0.18  C 
ENDROOT
BRANCH 1 2
ATOM      2  C   LEU E   3      45.559  41.221  15.938  1.00 19.55 LIG 0.24  C 
ATOM      3 O    LEU E   3      46.559  40.753  16.457  1.00 19.60 LIG-0.27  OA
ATOM      4  N   LEU E   4      45.038  42.366  16.311  1.00 19.32 LIG-0.35  N 
ATOM      5 H    LEU E   4      44.243  42.630  16.118  1.00 19.32 LIG 0.16  HD
BRANCH 4 6
ATOM      6  CA  LEU E   4      45.849  43.328  17.141  1.00 17.74 LIG 0.18  C 
BRANCH 6 7
ATOM      7  C   LEU E   4      45.192  43.622  18.444  1.00 18.94 LIG 0.24  C 
ATOM      8  N   LEU E   5      45.486  44.831  18.987  1.00 19.76 LIG-0.35  N 
ATOM      9 H    LEU E   5      45.949  45.439  18.592  1.00 19.76 LIG 0.16  HD
ATOM     10 O    LEU E   4      44.468  42.758  19.024  1.00 20.41 LIG-0.27  OA
BRANCH 8 11
ATOM     11  CA  LEU E   5      45.019  45.189  20.321  1.00 18.99 LIG 0.18  C 
BRANCH 11 12
ATOM     12  C   LEU E   5      44.247  46.503  20.190  1.00 20.67 LIG 0.24  C 
ATOM     13  N   THR E   6      43.105  46.556  20.876  1.00 21.83 LIG-0.34  N 
ATOM     14 H    THR E   6      42.749  45.900  21.303  1.00 21.83 LIG 0.16  HD
ATOM     15 O    LEU E   5      44.735  47.399  19.536  1.00 20.01 LIG-0.27  OA
BRANCH 13 16
ATOM     16  CA  THR E   6      42.368  47.830  20.927  1.00 24.74 LIG 0.20  C 
BRANCH 16 17
ATOM     17  C   THR E   6      43.283  48.932  21.465  1.00 26.78 LIG 0.24  C 
ATOM     18  N   GLY E   7      43.335  50.029  20.694  1.00 28.46 LIG-0.35  N 
ATOM     19 H    GLY E   7      42.704  50.235  20.148  1.00 28.46 LIG 0.16  HD
ATOM     20 O    THR E   6      43.884  48.836  22.539  1.00 25.34 LIG-0.27  OA
BRANCH 18 21
ATOM     21  CA  GLY E   7      44.434  50.991  20.679  1.00 36.11 LIG 0.23  C 
BRANCH 21 22
ATOM     22  C   GLY E   7      45.508  50.529  19.773  1.00 43.05 LIG 0.19  C 
ATOM     23 OXT  GLY E   7      45.725  51.229  18.783  1.00 50.23 LIG-0.65  OA
ATOM     24 O    GLY E   7      46.154  49.479  19.998  1.00 56.48 LIG-0.65  OA
ENDBRANCH 21 22
ENDBRANCH 18 21
ENDBRANCH 16 17
BRANCH 16 25
ATOM     25  CB  THR E   6      41.093  47.684  21.784  1.00 24.32 LIG 0.15  C 
ATOM     26  CG2 THR E   6      40.847  48.994  22.651  1.00 23.74 LIG 0.04  C 
BRANCH 25 27
ATOM     27 OG1  THR E   6      40.017  47.505  20.881  1.00 30.49 LIG-0.39  OA
ATOM     28 HG1  THR E   6      40.310  47.221  20.148  1.00 30.49 LIG 0.21  HD
ENDBRANCH 25 27
ENDBRANCH 16 25
ENDBRANCH 13 16
ENDBRANCH 11 12
BRANCH 11 29
ATOM     29  CB  LEU E   5      46.167  45.473  21.279  1.00 19.92 LIG 0.04  C 
BRANCH 29 30
ATOM     30  CG  LEU E   5      45.917  44.751  22.633  1.00 17.19 LIG-0.02  C 
ATOM     31  CD1 LEU E   5      44.938  45.552  23.450  1.00 19.71 LIG 0.01  C 
ATOM     32  CD2 LEU E   5      45.432  43.344  22.392  1.00 21.46 LIG 0.01  C 
ENDBRANCH 29 30
ENDBRANCH 11 29
ENDBRANCH 8 11
ENDBRANCH 6 7
BRANCH 6 33
ATOM     33  CB  LEU E   4      46.002  44.660  16.336  1.00 18.44 LIG 0.04  C 
BRANCH 33 34
ATOM     34  CG  LEU E   4      47.386  44.720  15.649  1.00 22.78 LIG-0.02  C 
ATOM     35  CD2 LEU E   4      48.495  44.014  16.452  1.00 23.44 LIG 0.01  C 
ATOM     36  CD1 LEU E   4      47.701  46.204  15.449  1.00 27.53 LIG 0.01  C 
ENDBRANCH 33 34
ENDBRANCH 6 33
ENDBRANCH 4 6
ENDBRANCH 1 2
BRANCH 1 37
ATOM     37  CB  LEU E   3      44.035  39.305  15.393  1.00 29.41 LIG 0.04  C 
BRANCH 37 38
ATOM     38  CG  LEU E   3      43.410  39.527  16.790  1.00 30.90 LIG-0.02  C 
ATOM     39  CD1 LEU E   3      42.091  40.324  16.686  1.00 35.09 LIG 0.01  C 
ATOM     40  CD2 LEU E   3      43.167  38.190  17.468  1.00 39.15 LIG 0.01  C 
ENDBRANCH 37 38
ENDBRANCH 1 37
BRANCH 1 41
ATOM     41  N   LEU E   3      45.783  39.990  13.749  1.00 22.92 LIG-0.35  N 
ATOM     42 H    LEU E   3      46.442  39.522  14.045  1.00 22.92 LIG 0.16  HD
ATOM     43  C   ARG E   2      45.574  40.301  12.475  1.00 28.87 LIG 0.24  C 
ATOM     44 O    ARG E   2      44.592  41.018  12.124  1.00 29.44 LIG-0.27  OA
BRANCH 43 45
ATOM     45  CA  ARG E   2      46.567  39.777  11.411  1.00 32.90 LIG 0.18  C 
BRANCH 45 46
ATOM     46  CB  ARG E   2      46.013  39.997  10.012  1.00 32.53 LIG 0.04  C 
BRANCH 46 47
ATOM     47  CG  ARG E   2      47.025  40.252   8.952  1.00 34.92 LIG 0.02  C 
BRANCH 47 48
ATOM     48  CD  ARG E   2      46.925  41.675   8.528  1.00 37.57 LIG 0.14  C 
BRANCH 48 49
ATOM     49  NE  ARG E   2      48.217  42.370   8.420  1.00 41.00 LIG-0.23  N 
ATOM     50 HE   ARG E   2      48.347  43.063   8.913  1.00 41.00 LIG 0.18  HD
ATOM     51  CZ  ARG E   2      49.203  41.985   7.599  1.00 43.22 LIG 0.67  C 
ATOM     52  NH2 ARG E   2      50.368  42.620   7.608  1.00 39.75 LIG-0.23  N 
ATOM     53  NH1 ARG E   2      49.032  40.952   6.755  1.00 41.20 LIG-0.23  N 
ATOM     54 2HH2 ARG E   2      50.998  42.370   7.080  1.00 39.75 LIG 0.17  HD
ATOM     55 1HH2 ARG E   2      50.492  43.282   8.143  1.00 39.75 LIG 0.17  HD
ATOM     56 1HH1 ARG E   2      48.283  40.530   6.738  1.00 41.20 LIG 0.17  HD
ATOM     57 2HH1 ARG E   2      49.672  40.713   6.232  1.00 41.20 LIG 0.17  HD
ENDBRANCH 48 49
ENDBRANCH 47 48
ENDBRANCH 46 47
ENDBRANCH 45 46
BRANCH 45 58
ATOM     58  N   ARG E   2      46.654  38.312  11.504  1.00 36.64 LIG-0.35  N 
ATOM     59 H    ARG E   2      45.887  37.931  11.585  1.00 36.64 LIG 0.16  HD
ATOM     60  C   ASN E   1      47.783  37.639  11.470  1.00 41.83 LIG 0.25  C 
ATOM     61 O    ASN E   1      48.870  38.212  11.305  1.00 38.61 LIG-0.27  OA
BRANCH 60 62
ATOM     62  CA  ASN E   1      47.650  36.076  11.545  1.00 50.15 LIG 0.28  C 
BRANCH 62 63
ATOM     63  CB  ASN E   1      46.206  35.554  11.852  1.00 58.25 LIG 0.14  C 
BRANCH 63 64
ATOM     64  CG  ASN E   1      45.694  35.902  13.294  1.00 70.07 LIG 0.22  C 
ATOM     65 OD1  ASN E   1      46.142  36.854  13.956  1.00 69.16 LIG-0.27  OA
ATOM     66  ND2 ASN E   1      44.734  35.106  13.773  1.00 65.88 LIG-0.37  N 
ATOM     67 22HD ASN E   1      44.440  34.453  13.296  1.00 65.88 LIG 0.16  HD
ATOM     68 21HD ASN E   1      44.412  35.246  14.558  1.00 65.88 LIG 0.16  HD
ENDBRANCH 63 64
ENDBRANCH 62 63
BRANCH 62 69
ATOM     69  N   ASN E   1      48.627  35.495  12.510  1.00 55.39 LIG-0.07  N 
ATOM     70 H1   ASN E   1      49.287  35.099  12.063  1.00 55.39 LIG 0.28  HD
ATOM     71 H2   ASN E   1      48.962  36.143  13.020  1.00 55.39 LIG 0.28  HD
ATOM     72 H3   ASN E   1      48.218  34.895  13.023  1.00 55.39 LIG 0.28  HD
ENDBRANCH 62 69
ENDBRANCH 60 62
ENDBRANCH 45 58
ENDBRANCH 43 45
ENDBRANCH 1 41
TORSDOF 28
ENDMDL
MODEL 17
USER: ADFR SOLUTION from run 134
USER: SCORE 25.167662 LL:  -5.620 LR: -20.596 RR:   0.000 FEB: -12.244
USER: RMSD 12.264576
USER: SEED 133
USER: STATUS searching
USER: GENES 30
USER: genes 0 Translation |==|  0.46112 0.36166 0.40380
USER: genes 1 Rotation |==|  0.65440 0.92367 0.29679 0.57329
USER: genes 2 Torsion [N]-CA--C-[N] |==|  0.41671
USER: genes 3 Torsion [C]-N--CA-[C] |==|  0.73939
USER: genes 4 Torsion [N]-CA--C-[N] |==|  0.38515
USER: genes 5 Torsion [C]-N--CA-[C] |==|  0.82810
USER: genes 6 Torsion [N]-CA--C-[N] |==|  0.93502
USER: genes 7 Torsion [C]-N--CA-[C] |==|  0.57093
USER: genes 8 Torsion [N]-CA--C-[N] |==|  0.48078
USER: genes 9 Torsion [C]-N--CA-[C] |==|  0.53967
USER: genes 10 Torsion [N]-CA--C-[O] |==|  0.42175
USER: genes 11 Torsion [N]-CA--CB-[CG2] |==|  0.25775
USER: genes 12 Torsion [CA]-CB--OG1-[HG1] |==|  0.12473
USER: genes 13 Torsion [N]-CA--CB-[CG] |==|  0.69417
USER: genes 14 Torsion [CA]-CB--CG-[CD1] |==|  0.93416
USER: genes 15 Torsion [N]-CA--CB-[CG] |==|  0.76189
USER: genes 16 Torsion [CA]-CB--CG-[CD2] |==|  0.91362
USER: genes 17 Torsion [C]-CA--CB-[CG] |==|  0.04830
USER: genes 18 Torsion [CA]-CB--CG-[CD2] |==|  0.63727
USER: genes 19 Torsion [C]-CA--N-[C] |==|  0.55462
USER: genes 20 Torsion [N]-C--CA-[N] |==|  0.21124
USER: genes 21 Torsion [C]-CA--CB-[CG] |==|  0.31929
USER: genes 22 Torsion [CA]-CB--CG-[CD] |==|  0.00800
USER: genes 23 Torsion [CB]-CG--CD-[NE] |==|  0.49169
USER: genes 24 Torsion [CG]-CD--NE-[HE] |==|  0.25965
USER: genes 25 Torsion [C]-CA--N-[C] |==|  0.63799
USER: genes 26 Torsion [N]-C--CA-[N] |==|  0.60572
USER: genes 27 Torsion [C]-CA--CB-[CG] |==|  0.83190
USER: genes 28 Torsion [CA]-CB--CG-[OD1] |==|  0.02698
USER: genes 29 Torsion [C]-CA--N-[H2] |==|  0.67971
ROOT
ATOM      1  CA  LEU E   3      44.806  41.007  14.623  1.00 22.83 LIG 0.18  C 
ENDROOT
BRANCH 1 2
ATOM      2  C   LEU E   3      45.550  41.528  15.897  1.00 19.55 LIG 0.24  C 
ATOM      3 O    LEU E   3      46.607  41.036  16.258  1.00 19.60 LIG-0.27  OA
ATOM      4  N   LEU E   4      44.967  42.509  16.545  1.00 19.32 LIG-0.35  N 
ATOM      5 H    LEU E   4      44.147  42.744  16.446  1.00 19.32 LIG 0.16  HD
BRANCH 4 6
ATOM      6  CA  LEU E   4      45.749  43.316  17.551  1.00 17.74 LIG 0.18  C 
BRANCH 6 7
ATOM      7  C   LEU E   4      45.588  42.783  18.930  1.00 18.94 LIG 0.24  C 
ATOM      8  N   LEU E   5      46.719  42.754  19.680  1.00 19.76 LIG-0.35  N 
ATOM      9 H    LEU E   5      47.472  43.088  19.434  1.00 19.76 LIG 0.16  HD
ATOM     10 O    LEU E   4      44.476  42.326  19.333  1.00 20.41 LIG-0.27  OA
BRANCH 8 11
ATOM     11  CA  LEU E   5      46.730  42.131  20.999  1.00 18.99 LIG 0.18  C 
BRANCH 11 12
ATOM     12  C   LEU E   5      45.741  42.907  21.871  1.00 20.67 LIG 0.24  C 
ATOM     13  N   THR E   6      45.500  44.157  21.474  1.00 21.83 LIG-0.34  N 
ATOM     14 H    THR E   6      45.907  44.564  20.835  1.00 21.83 LIG 0.16  HD
ATOM     15 O    LEU E   5      45.218  42.336  22.803  1.00 20.01 LIG-0.27  OA
BRANCH 13 16
ATOM     16  CA  THR E   6      44.455  44.931  22.165  1.00 24.74 LIG 0.20  C 
BRANCH 16 17
ATOM     17  C   THR E   6      43.906  46.006  21.225  1.00 26.78 LIG 0.24  C 
ATOM     18  N   GLY E   7      42.846  46.672  21.709  1.00 28.46 LIG-0.35  N 
ATOM     19 H    GLY E   7      42.688  46.729  22.553  1.00 28.46 LIG 0.16  HD
ATOM     20 O    THR E   6      44.423  46.268  20.135  1.00 25.34 LIG-0.27  OA
BRANCH 18 21
ATOM     21  CA  GLY E   7      41.852  47.368  20.898  1.00 36.11 LIG 0.23  C 
BRANCH 21 22
ATOM     22  C   GLY E   7      41.035  48.264  21.745  1.00 43.05 LIG 0.19  C 
ATOM     23 OXT  GLY E   7      40.897  47.926  22.921  1.00 50.23 LIG-0.65  OA
ATOM     24 O    GLY E   7      40.508  49.304  21.286  1.00 56.48 LIG-0.65  OA
ENDBRANCH 21 22
ENDBRANCH 18 21
ENDBRANCH 16 17
BRANCH 16 25
ATOM     25  CB  THR E   6      45.009  45.547  23.467  1.00 24.32 LIG 0.15  C 
ATOM     26  CG2 THR E   6      45.552  47.019  23.205  1.00 23.74 LIG 0.04  C 
BRANCH 25 27
ATOM     27 OG1  THR E   6      43.930  45.597  24.382  1.00 30.49 LIG-0.39  OA
ATOM     28 HG1  THR E   6      43.512  44.869  24.363  1.00 30.49 LIG 0.21  HD
ENDBRANCH 25 27
ENDBRANCH 16 25
ENDBRANCH 13 16
ENDBRANCH 11 12
BRANCH 11 29
ATOM     29  CB  LEU E   5      48.081  42.257  21.687  1.00 19.92 LIG 0.04  C 
BRANCH 29 30
ATOM     30  CG  LEU E   5      48.769  40.864  21.760  1.00 17.19 LIG-0.02  C 
ATOM     31  CD1 LEU E   5      47.720  39.787  21.685  1.00 19.71 LIG 0.01  C 
ATOM     32  CD2 LEU E   5      49.794  40.731  20.663  1.00 21.46 LIG 0.01  C 
ENDBRANCH 29 30
ENDBRANCH 11 29
ENDBRANCH 8 11
ENDBRANCH 6 7
BRANCH 6 33
ATOM     33  CB  LEU E   4      45.225  44.789  17.508  1.00 18.44 LIG 0.04  C 
BRANCH 33 34
ATOM     34  CG  LEU E   4      45.950  45.589  16.401  1.00 22.78 LIG-0.02  C 
ATOM     35  CD2 LEU E   4      47.395  45.116  16.157  1.00 23.44 LIG 0.01  C 
ATOM     36  CD1 LEU E   4      45.908  47.055  16.835  1.00 27.53 LIG 0.01  C 
ENDBRANCH 33 34
ENDBRANCH 6 33
ENDBRANCH 4 6
ENDBRANCH 1 2
BRANCH 1 37
ATOM     37  CB  LEU E   3      43.817  39.921  15.056  1.00 29.41 LIG 0.04  C 
BRANCH 37 38
ATOM     38  CG  LEU E   3      43.448  39.858  16.557  1.00 30.90 LIG-0.02  C 
ATOM     39  CD1 LEU E   3      42.012  40.373  16.796  1.00 35.09 LIG 0.01  C 
ATOM     40  CD2 LEU E   3      43.590  38.434  17.066  1.00 39.15 LIG 0.01  C 
ENDBRANCH 37 38
ENDBRANCH 1 37
BRANCH 1 41
ATOM     41  N   LEU E   3      45.774  40.483  13.613  1.00 22.92 LIG-0.35  N 
ATOM     42 H    LEU E   3      46.552  40.277  13.915  1.00 22.92 LIG 0.16  HD
ATOM     43  C   ARG E   2      45.389  40.370  12.347  1.00 28.87 LIG 0.24  C 
ATOM     44 O    ARG E   2      44.230  40.722  11.977  1.00 29.44 LIG-0.27  OA
BRANCH 43 45
ATOM     45  CA  ARG E   2      46.390  39.804  11.313  1.00 32.90 LIG 0.18  C 
BRANCH 45 46
ATOM     46  CB  ARG E   2      45.843  39.953   9.903  1.00 32.53 LIG 0.04  C 
BRANCH 46 47
ATOM     47  CG  ARG E   2      46.604  40.867   9.010  1.00 34.92 LIG 0.02  C 
BRANCH 47 48
ATOM     48  CD  ARG E   2      47.797  41.369   9.744  1.00 37.57 LIG 0.14  C 
BRANCH 48 49
ATOM     49  NE  ARG E   2      48.681  42.235   8.949  1.00 41.00 LIG-0.23  N 
ATOM     50 HE   ARG E   2      48.560  43.086   8.990  1.00 41.00 LIG 0.18  HD
ATOM     51  CZ  ARG E   2      49.665  41.774   8.165  1.00 43.22 LIG 0.67  C 
ATOM     52  NH2 ARG E   2      50.468  42.620   7.533  1.00 39.75 LIG-0.23  N 
ATOM     53  NH1 ARG E   2      49.858  40.452   8.007  1.00 41.20 LIG-0.23  N 
ATOM     54 2HH2 ARG E   2      51.099  42.321   7.031  1.00 39.75 LIG 0.17  HD
ATOM     55 1HH2 ARG E   2      50.358  43.468   7.625  1.00 39.75 LIG 0.17  HD
ATOM     56 1HH1 ARG E   2      49.346  39.892   8.411  1.00 41.20 LIG 0.17  HD
ATOM     57 2HH1 ARG E   2      50.492  40.168   7.502  1.00 41.20 LIG 0.17  HD
ENDBRANCH 48 49
ENDBRANCH 47 48
ENDBRANCH 46 47
ENDBRANCH 45 46
BRANCH 45 58
ATOM     58  N   ARG E   2      46.487  38.346  11.477  1.00 36.64 LIG-0.35  N 
ATOM     59 H    ARG E   2      45.722  37.955  11.502  1.00 36.64 LIG 0.16  HD
ATOM     60  C   ASN E   1      47.623  37.691  11.576  1.00 41.83 LIG 0.25  C 
ATOM     61 O    ASN E   1      48.713  38.275  11.488  1.00 38.61 LIG-0.27  OA
BRANCH 60 62
ATOM     62  CA  ASN E   1      47.505  36.130  11.704  1.00 50.15 LIG 0.28  C 
BRANCH 62 63
ATOM     63  CB  ASN E   1      46.077  35.610  12.081  1.00 58.25 LIG 0.14  C 
BRANCH 63 64
ATOM     64  CG  ASN E   1      45.547  36.139  13.460  1.00 70.07 LIG 0.22  C 
ATOM     65 OD1  ASN E   1      46.121  37.035  14.103  1.00 69.16 LIG-0.27  OA
ATOM     66  ND2 ASN E   1      44.427  35.564  13.907  1.00 65.88 LIG-0.37  N 
ATOM     67 22HD ASN E   1      44.047  34.946  13.445  1.00 65.88 LIG 0.16  HD
ATOM     68 21HD ASN E   1      44.087  35.811  14.657  1.00 65.88 LIG 0.16  HD
ENDBRANCH 63 64
ENDBRANCH 62 63
BRANCH 62 69
ATOM     69  N   ASN E   1      48.521  35.586  12.649  1.00 55.39 LIG-0.07  N 
ATOM     70 H1   ASN E   1      48.114  35.113  13.284  1.00 55.39 LIG 0.28  HD
ATOM     71 H2   ASN E   1      49.088  35.061  12.207  1.00 55.39 LIG 0.28  HD
ATOM     72 H3   ASN E   1      48.969  36.258  13.023  1.00 55.39 LIG 0.28  HD
ENDBRANCH 62 69
ENDBRANCH 60 62
ENDBRANCH 45 58
ENDBRANCH 43 45
ENDBRANCH 1 41
TORSDOF 28
ENDMDL
MODEL 18
USER: ADFR SOLUTION from run 140
USER: SCORE 24.932352 LL:  -5.348 LR: -20.546 RR:   0.000 FEB: -12.193
USER: RMSD 12.305726
USER: SEED 139
USER: STATUS searching
USER: GENES 30
USER: genes 0 Translation |==|  0.42257 0.36741 0.43116
USER: genes 1 Rotation |==|  0.38007 0.11934 0.79733 0.54807
USER: genes 2 Torsion [N]-CA--C-[N] |==|  0.36819
USER: genes 3 Torsion [C]-N--CA-[C] |==|  0.83054
USER: genes 4 Torsion [N]-CA--C-[N] |==|  0.36833
USER: genes 5 Torsion [C]-N--CA-[C] |==|  0.69527
USER: genes 6 Torsion [N]-CA--C-[N] |==|  0.84548
USER: genes 7 Torsion [C]-N--CA-[C] |==|  0.61261
USER: genes 8 Torsion [N]-CA--C-[N] |==|  0.44882
USER: genes 9 Torsion [C]-N--CA-[C] |==|  0.25139
USER: genes 10 Torsion [N]-CA--C-[O] |==|  0.50028
USER: genes 11 Torsion [N]-CA--CB-[CG2] |==|  0.67508
USER: genes 12 Torsion [CA]-CB--OG1-[HG1] |==|  0.67755
USER: genes 13 Torsion [N]-CA--CB-[CG] |==|  0.56087
USER: genes 14 Torsion [CA]-CB--CG-[CD1] |==|  0.69287
USER: genes 15 Torsion [N]-CA--CB-[CG] |==|  0.58292
USER: genes 16 Torsion [CA]-CB--CG-[CD2] |==|  0.73686
USER: genes 17 Torsion [C]-CA--CB-[CG] |==|  0.49463
USER: genes 18 Torsion [CA]-CB--CG-[CD2] |==|  0.70946
USER: genes 19 Torsion [C]-CA--N-[C] |==|  0.64569
USER: genes 20 Torsion [N]-C--CA-[N] |==|  0.04513
USER: genes 21 Torsion [C]-CA--CB-[CG] |==|  0.42650
USER: genes 22 Torsion [CA]-CB--CG-[CD] |==|  0.59981
USER: genes 23 Torsion [CB]-CG--CD-[NE] |==|  0.70198
USER: genes 24 Torsion [CG]-CD--NE-[HE] |==|  0.06666
USER: genes 25 Torsion [C]-CA--N-[C] |==|  0.16196
USER: genes 26 Torsion [N]-C--CA-[N] |==|  0.59617
USER: genes 27 Torsion [C]-CA--CB-[CG] |==|  0.22843
USER: genes 28 Torsion [CA]-CB--CG-[OD1] |==|  0.83353
USER: genes 29 Torsion [C]-CA--N-[H2] |==|  0.97759
ROOT
ATOM      1  CA  LEU E   3      44.025  41.137  15.341  1.00 22.83 LIG 0.18  C 
ENDROOT
BRANCH 1 2
ATOM      2  C   LEU E   3      45.400  41.689  15.843  1.00 19.55 LIG 0.24  C 
ATOM      3 O    LEU E   3      46.345  40.944  16.047  1.00 19.60 LIG-0.27  OA
ATOM      4  N   LEU E   4      45.466  42.986  16.036  1.00 19.32 LIG-0.35  N 
ATOM      5 H    LEU E   4      44.786  43.508  16.098  1.00 19.32 LIG 0.16  HD
BRANCH 4 6
ATOM      6  CA  LEU E   4      46.808  43.661  16.164  1.00 17.74 LIG 0.18  C 
BRANCH 6 7
ATOM      7  C   LEU E   4      47.577  43.140  17.326  1.00 18.94 LIG 0.24  C 
ATOM      8  N   LEU E   5      48.871  42.819  17.073  1.00 19.76 LIG-0.35  N 
ATOM      9 H    LEU E   5      49.271  42.971  16.326  1.00 19.76 LIG 0.16  HD
ATOM     10 O    LEU E   4      47.022  42.951  18.450  1.00 20.41 LIG-0.27  OA
BRANCH 8 11
ATOM     11  CA  LEU E   5      49.698  42.172  18.086  1.00 18.99 LIG 0.18  C 
BRANCH 11 12
ATOM     12  C   LEU E   5      50.730  43.202  18.548  1.00 20.67 LIG 0.24  C 
ATOM     13  N   THR E   6      51.475  43.728  17.576  1.00 21.83 LIG-0.34  N 
ATOM     14 H    THR E   6      51.470  43.479  16.753  1.00 21.83 LIG 0.16  HD
ATOM     15 O    LEU E   5      50.765  43.501  19.722  1.00 20.01 LIG-0.27  OA
BRANCH 13 16
ATOM     16  CA  THR E   6      52.395  44.831  17.906  1.00 24.74 LIG 0.20  C 
BRANCH 16 17
ATOM     17  C   THR E   6      52.360  45.879  16.791  1.00 26.78 LIG 0.24  C 
ATOM     18  N   GLY E   7      52.839  47.080  17.150  1.00 28.46 LIG-0.35  N 
ATOM     19 H    GLY E   7      53.392  47.176  17.802  1.00 28.46 LIG 0.16  HD
ATOM     20 O    THR E   6      51.968  45.626  15.648  1.00 25.34 LIG-0.27  OA
BRANCH 18 21
ATOM     21  CA  GLY E   7      52.500  48.344  16.503  1.00 36.11 LIG 0.23  C 
BRANCH 21 22
ATOM     22  C   GLY E   7      51.325  48.957  17.160  1.00 43.05 LIG 0.19  C 
ATOM     23 OXT  GLY E   7      50.837  48.329  18.101  1.00 50.23 LIG-0.65  OA
ATOM     24 O    GLY E   7      50.849  50.050  16.774  1.00 56.48 LIG-0.65  OA
ENDBRANCH 21 22
ENDBRANCH 18 21
ENDBRANCH 16 17
BRANCH 16 25
ATOM     25  CB  THR E   6      53.823  44.295  18.134  1.00 24.32 LIG 0.15  C 
ATOM     26  CG2 THR E   6      54.292  44.565  19.630  1.00 23.74 LIG 0.04  C 
BRANCH 25 27
ATOM     27 OG1  THR E   6      53.775  42.900  17.898  1.00 30.49 LIG-0.39  OA
ATOM     28 HG1  THR E   6      53.954  42.489  18.608  1.00 30.49 LIG 0.21  HD
ENDBRANCH 25 27
ENDBRANCH 16 25
ENDBRANCH 13 16
ENDBRANCH 11 12
BRANCH 11 29
ATOM     29  CB  LEU E   5      50.496  41.005  17.523  1.00 19.92 LIG 0.04  C 
BRANCH 29 30
ATOM     30  CG  LEU E   5      50.901  40.038  18.673  1.00 17.19 LIG-0.02  C 
ATOM     31  CD1 LEU E   5      52.389  40.120  18.889  1.00 19.71 LIG 0.01  C 
ATOM     32  CD2 LEU E   5      50.130  40.367  19.926  1.00 21.46 LIG 0.01  C 
ENDBRANCH 29 30
ENDBRANCH 11 29
ENDBRANCH 8 11
ENDBRANCH 6 7
BRANCH 6 33
ATOM     33  CB  LEU E   4      46.567  45.194  16.357  1.00 18.44 LIG 0.04  C 
BRANCH 33 34
ATOM     34  CG  LEU E   4      47.746  46.003  15.770  1.00 22.78 LIG-0.02  C 
ATOM     35  CD2 LEU E   4      48.815  46.368  16.818  1.00 23.44 LIG 0.01  C 
ATOM     36  CD1 LEU E   4      47.135  47.256  15.140  1.00 27.53 LIG 0.01  C 
ENDBRANCH 33 34
ENDBRANCH 6 33
ENDBRANCH 4 6
ENDBRANCH 1 2
BRANCH 1 37
ATOM     37  CB  LEU E   3      43.332  40.437  16.515  1.00 29.41 LIG 0.04  C 
BRANCH 37 38
ATOM     38  CG  LEU E   3      41.925  39.850  16.257  1.00 30.90 LIG-0.02  C 
ATOM     39  CD1 LEU E   3      41.816  38.412  16.808  1.00 35.09 LIG 0.01  C 
ATOM     40  CD2 LEU E   3      40.869  40.739  16.889  1.00 39.15 LIG 0.01  C 
ENDBRANCH 37 38
ENDBRANCH 1 37
BRANCH 1 41
ATOM     41  N   LEU E   3      44.210  40.202  14.191  1.00 22.92 LIG-0.35  N 
ATOM     42 H    LEU E   3      44.771  39.562  14.318  1.00 22.92 LIG 0.16  HD
ATOM     43  C   ARG E   2      43.521  40.406  13.074  1.00 28.87 LIG 0.24  C 
ATOM     44 O    ARG E   2      42.733  41.391  12.957  1.00 29.44 LIG-0.27  OA
BRANCH 43 45
ATOM     45  CA  ARG E   2      43.702  39.419  11.898  1.00 32.90 LIG 0.18  C 
BRANCH 45 46
ATOM     46  CB  ARG E   2      42.352  38.925  11.403  1.00 32.53 LIG 0.04  C 
BRANCH 46 47
ATOM     47  CG  ARG E   2      42.305  38.499   9.978  1.00 34.92 LIG 0.02  C 
BRANCH 47 48
ATOM     48  CD  ARG E   2      40.983  38.878   9.410  1.00 37.57 LIG 0.14  C 
BRANCH 48 49
ATOM     49  NE  ARG E   2      40.072  37.745   9.182  1.00 41.00 LIG-0.23  N 
ATOM     50 HE   ARG E   2      40.189  37.030   9.645  1.00 41.00 LIG 0.18  HD
ATOM     51  CZ  ARG E   2      39.070  37.764   8.292  1.00 43.22 LIG 0.67  C 
ATOM     52  NH2 ARG E   2      38.246  36.730   8.192  1.00 39.75 LIG-0.23  N 
ATOM     53  NH1 ARG E   2      38.882  38.827   7.490  1.00 41.20 LIG-0.23  N 
ATOM     54 2HH2 ARG E   2      37.604  36.745   7.620  1.00 39.75 LIG 0.17  HD
ATOM     55 1HH2 ARG E   2      38.353  36.043   8.698  1.00 39.75 LIG 0.17  HD
ATOM     56 1HH1 ARG E   2      39.408  39.505   7.544  1.00 41.20 LIG 0.17  HD
ATOM     57 2HH1 ARG E   2      38.236  38.828   6.923  1.00 41.20 LIG 0.17  HD
ENDBRANCH 48 49
ENDBRANCH 47 48
ENDBRANCH 46 47
ENDBRANCH 45 46
BRANCH 45 58
ATOM     58  N   ARG E   2      44.344  38.190  12.387  1.00 36.64 LIG-0.35  N 
ATOM     59 H    ARG E   2      45.085  38.012  11.988  1.00 36.64 LIG 0.16  HD
ATOM     60  C   ASN E   1      43.848  37.430  13.338  1.00 41.83 LIG 0.25  C 
ATOM     61 O    ASN E   1      42.802  37.737  13.929  1.00 38.61 LIG-0.27  OA
BRANCH 60 62
ATOM     62  CA  ASN E   1      44.714  36.182  13.739  1.00 50.15 LIG 0.28  C 
BRANCH 62 63
ATOM     63  CB  ASN E   1      45.776  35.751  12.672  1.00 58.25 LIG 0.14  C 
BRANCH 63 64
ATOM     64  CG  ASN E   1      47.108  36.577  12.727  1.00 70.07 LIG 0.22  C 
ATOM     65 OD1  ASN E   1      47.144  37.809  12.564  1.00 69.16 LIG-0.27  OA
ATOM     66  ND2 ASN E   1      48.217  35.870  12.963  1.00 65.88 LIG-0.37  N 
ATOM     67 22HD ASN E   1      48.167  35.018  13.073  1.00 65.88 LIG 0.16  HD
ATOM     68 21HD ASN E   1      48.978  36.267  13.005  1.00 65.88 LIG 0.16  HD
ENDBRANCH 63 64
ENDBRANCH 62 63
BRANCH 62 69
ATOM     69  N   ASN E   1      43.853  35.023  14.112  1.00 55.39 LIG-0.07  N 
ATOM     70 H1   ASN E   1      44.104  34.710  14.906  1.00 55.39 LIG 0.28  HD
ATOM     71 H2   ASN E   1      43.003  35.285  14.152  1.00 55.39 LIG 0.28  HD
ATOM     72 H3   ASN E   1      43.938  34.382  13.502  1.00 55.39 LIG 0.28  HD
ENDBRANCH 62 69
ENDBRANCH 60 62
ENDBRANCH 45 58
ENDBRANCH 43 45
ENDBRANCH 1 41
TORSDOF 28
ENDMDL
MODEL 19
USER: ADFR SOLUTION from run 177
USER: SCORE 24.159927 LL:  -5.147 LR: -20.469 RR:   0.000 FEB: -12.116
USER: RMSD 12.712185
USER: SEED 176
USER: STATUS searching
USER: GENES 30
USER: genes 0 Translation |==|  0.40057 0.32529 0.42384
USER: genes 1 Rotation |==|  0.68707 0.90417 0.27300 0.51099
USER: genes 2 Torsion [N]-CA--C-[N] |==|  0.41675
USER: genes 3 Torsion [C]-N--CA-[C] |==|  0.16124
USER: genes 4 Torsion [N]-CA--C-[N] |==|  0.37513
USER: genes 5 Torsion [C]-N--CA-[C] |==|  0.77489
USER: genes 6 Torsion [N]-CA--C-[N] |==|  0.91287
USER: genes 7 Torsion [C]-N--CA-[C] |==|  0.15928
USER: genes 8 Torsion [N]-CA--C-[N] |==|  0.11172
USER: genes 9 Torsion [C]-N--CA-[C] |==|  0.75360
USER: genes 10 Torsion [N]-CA--C-[O] |==|  0.11112
USER: genes 11 Torsion [N]-CA--CB-[CG2] |==|  0.53182
USER: genes 12 Torsion [CA]-CB--OG1-[HG1] |==|  0.56935
USER: genes 13 Torsion [N]-CA--CB-[CG] |==|  0.85130
USER: genes 14 Torsion [CA]-CB--CG-[CD1] |==|  0.37493
USER: genes 15 Torsion [N]-CA--CB-[CG] |==|  0.52520
USER: genes 16 Torsion [CA]-CB--CG-[CD2] |==|  0.51271
USER: genes 17 Torsion [C]-CA--CB-[CG] |==|  0.13610
USER: genes 18 Torsion [CA]-CB--CG-[CD2] |==|  0.58272
USER: genes 19 Torsion [C]-CA--N-[C] |==|  0.64175
USER: genes 20 Torsion [N]-C--CA-[N] |==|  0.38660
USER: genes 21 Torsion [C]-CA--CB-[CG] |==|  0.27298
USER: genes 22 Torsion [CA]-CB--CG-[CD] |==|  0.03852
USER: genes 23 Torsion [CB]-CG--CD-[NE] |==|  0.24249
USER: genes 24 Torsion [CG]-CD--NE-[HE] |==|  0.86743
USER: genes 25 Torsion [C]-CA--N-[C] |==|  0.81210
USER: genes 26 Torsion [N]-C--CA-[N] |==|  0.46128
USER: genes 27 Torsion [C]-CA--CB-[CG] |==|  0.51160
USER: genes 28 Torsion [CA]-CB--CG-[OD1] |==|  0.96192
USER: genes 29 Torsion [C]-CA--N-[H2] |==|  0.01465
ROOT
ATOM      1  CA  LEU E   3      43.579  40.189  15.149  1.00 22.83 LIG 0.18  C 
ENDROOT
BRANCH 1 2
ATOM      2  C   LEU E   3      44.641  40.501  16.255  1.00 19.55 LIG 0.24  C 
ATOM      3 O    LEU E   3      45.591  39.760  16.448  1.00 19.60 LIG-0.27  OA
ATOM      4  N   LEU E   4      44.441  41.592  16.957  1.00 19.32 LIG-0.35  N 
ATOM      5 H    LEU E   4      43.698  42.024  16.991  1.00 19.32 LIG 0.16  HD
BRANCH 4 6
ATOM      6  CA  LEU E   4      45.561  42.173  17.781  1.00 17.74 LIG 0.18  C 
BRANCH 6 7
ATOM      7  C   LEU E   4      46.748  42.497  16.945  1.00 18.94 LIG 0.24  C 
ATOM      8  N   LEU E   5      47.319  43.705  17.186  1.00 19.76 LIG-0.35  N 
ATOM      9 H    LEU E   5      47.086  44.233  17.824  1.00 19.76 LIG 0.16  HD
ATOM     10 O    LEU E   4      47.140  41.715  16.028  1.00 20.41 LIG-0.27  OA
BRANCH 8 11
ATOM     11  CA  LEU E   5      48.403  44.204  16.348  1.00 18.99 LIG 0.18  C 
BRANCH 11 12
ATOM     12  C   LEU E   5      49.692  43.539  16.836  1.00 20.67 LIG 0.24  C 
ATOM     13  N   THR E   6      49.723  43.262  18.140  1.00 21.83 LIG-0.34  N 
ATOM     14 H    THR E   6      49.127  43.495  18.714  1.00 21.83 LIG 0.16  HD
ATOM     15 O    LEU E   5      50.548  43.269  16.023  1.00 20.01 LIG-0.27  OA
BRANCH 13 16
ATOM     16  CA  THR E   6      50.861  42.493  18.673  1.00 24.74 LIG 0.20  C 
BRANCH 16 17
ATOM     17  C   THR E   6      52.168  43.220  18.351  1.00 26.78 LIG 0.24  C 
ATOM     18  N   GLY E   7      52.103  44.553  18.488  1.00 28.46 LIG-0.35  N 
ATOM     19 H    GLY E   7      51.524  44.934  18.997  1.00 28.46 LIG 0.16  HD
ATOM     20 O    THR E   6      53.204  42.626  18.037  1.00 25.34 LIG-0.27  OA
BRANCH 18 21
ATOM     21  CA  GLY E   7      52.980  45.508  17.816  1.00 36.11 LIG 0.23  C 
BRANCH 21 22
ATOM     22  C   GLY E   7      54.191  45.753  18.629  1.00 43.05 LIG 0.19  C 
ATOM     23 OXT  GLY E   7      54.598  46.916  18.665  1.00 50.23 LIG-0.65  OA
ATOM     24 O    GLY E   7      54.773  44.827  19.240  1.00 56.48 LIG-0.65  OA
ENDBRANCH 21 22
ENDBRANCH 18 21
ENDBRANCH 16 17
BRANCH 16 25
ATOM     25  CB  THR E   6      50.857  41.058  18.106  1.00 24.32 LIG 0.15  C 
ATOM     26  CG2 THR E   6      51.893  40.141  18.891  1.00 23.74 LIG 0.04  C 
BRANCH 25 27
ATOM     27 OG1  THR E   6      49.547  40.553  18.289  1.00 30.49 LIG-0.39  OA
ATOM     28 HG1  THR E   6      49.571  39.715  18.322  1.00 30.49 LIG 0.21  HD
ENDBRANCH 25 27
ENDBRANCH 16 25
ENDBRANCH 13 16
ENDBRANCH 11 12
BRANCH 11 29
ATOM     29  CB  LEU E   5      48.619  45.702  16.511  1.00 19.92 LIG 0.04  C 
BRANCH 29 30
ATOM     30  CG  LEU E   5      47.279  46.458  16.278  1.00 17.19 LIG-0.02  C 
ATOM     31  CD1 LEU E   5      47.102  47.498  17.353  1.00 19.71 LIG 0.01  C 
ATOM     32  CD2 LEU E   5      47.256  47.063  14.898  1.00 21.46 LIG 0.01  C 
ENDBRANCH 29 30
ENDBRANCH 11 29
ENDBRANCH 8 11
ENDBRANCH 6 7
BRANCH 6 33
ATOM     33  CB  LEU E   4      45.970  41.120  18.863  1.00 18.44 LIG 0.04  C 
BRANCH 33 34
ATOM     34  CG  LEU E   4      46.954  41.744  19.878  1.00 22.78 LIG-0.02  C 
ATOM     35  CD2 LEU E   4      47.488  40.731  20.909  1.00 23.44 LIG 0.01  C 
ATOM     36  CD1 LEU E   4      46.200  42.887  20.559  1.00 27.53 LIG 0.01  C 
ENDBRANCH 33 34
ENDBRANCH 6 33
ENDBRANCH 4 6
ENDBRANCH 1 2
BRANCH 1 37
ATOM     37  CB  LEU E   3      42.446  39.380  15.787  1.00 29.41 LIG 0.04  C 
BRANCH 37 38
ATOM     38  CG  LEU E   3      41.849  39.919  17.107  1.00 30.90 LIG-0.02  C 
ATOM     39  CD1 LEU E   3      40.710  40.924  16.830  1.00 35.09 LIG 0.01  C 
ATOM     40  CD2 LEU E   3      41.340  38.766  17.954  1.00 39.15 LIG 0.01  C 
ENDBRANCH 37 38
ENDBRANCH 1 37
BRANCH 1 41
ATOM     41  N   LEU E   3      44.195  39.447  14.008  1.00 22.92 LIG-0.35  N 
ATOM     42 H    LEU E   3      44.652  38.750  14.221  1.00 22.92 LIG 0.16  HD
ATOM     43  C   ARG E   2      44.008  39.892  12.771  1.00 28.87 LIG 0.24  C 
ATOM     44 O    ARG E   2      43.343  40.945  12.543  1.00 29.44 LIG-0.27  OA
BRANCH 43 45
ATOM     45  CA  ARG E   2      44.631  39.103  11.596  1.00 32.90 LIG 0.18  C 
BRANCH 45 46
ATOM     46  CB  ARG E   2      45.802  39.868  11.000  1.00 32.53 LIG 0.04  C 
BRANCH 46 47
ATOM     47  CG  ARG E   2      47.151  39.444  11.464  1.00 34.92 LIG 0.02  C 
BRANCH 47 48
ATOM     48  CD  ARG E   2      47.027  38.134  12.158  1.00 37.57 LIG 0.14  C 
BRANCH 48 49
ATOM     49  NE  ARG E   2      47.113  36.964  11.270  1.00 41.00 LIG-0.23  N 
ATOM     50 HE   ARG E   2      46.641  36.965  10.551  1.00 41.00 LIG 0.18  HD
ATOM     51  CZ  ARG E   2      47.886  35.898  11.517  1.00 43.22 LIG 0.67  C 
ATOM     52  NH2 ARG E   2      47.966  34.911  10.634  1.00 39.75 LIG-0.23  N 
ATOM     53  NH1 ARG E   2      48.592  35.809  12.658  1.00 41.20 LIG-0.23  N 
ATOM     54 2HH2 ARG E   2      48.463  34.228  10.796  1.00 39.75 LIG 0.17  HD
ATOM     55 1HH2 ARG E   2      47.521  34.954   9.899  1.00 39.75 LIG 0.17  HD
ATOM     56 1HH1 ARG E   2      48.550  36.441  13.240  1.00 41.20 LIG 0.17  HD
ATOM     57 2HH1 ARG E   2      49.084  35.120  12.806  1.00 41.20 LIG 0.17  HD
ENDBRANCH 48 49
ENDBRANCH 47 48
ENDBRANCH 46 47
ENDBRANCH 45 46
BRANCH 45 58
ATOM     58  N   ARG E   2      43.672  39.051  10.482  1.00 36.64 LIG-0.35  N 
ATOM     59 H    ARG E   2      43.926  39.501   9.794  1.00 36.64 LIG 0.16  HD
ATOM     60  C   ASN E   1      42.536  38.389  10.519  1.00 41.83 LIG 0.25  C 
ATOM     61 O    ASN E   1      42.218  37.710  11.507  1.00 38.61 LIG-0.27  OA
BRANCH 60 62
ATOM     62  CA  ASN E   1      41.675  38.431   9.206  1.00 50.15 LIG 0.28  C 
BRANCH 62 63
ATOM     63  CB  ASN E   1      41.076  39.836   8.860  1.00 58.25 LIG 0.14  C 
BRANCH 63 64
ATOM     64  CG  ASN E   1      40.136  39.838   7.604  1.00 70.07 LIG 0.22  C 
ATOM     65 OD1  ASN E   1      40.081  38.889   6.803  1.00 69.16 LIG-0.27  OA
ATOM     66  ND2 ASN E   1      39.387  40.932   7.446  1.00 65.88 LIG-0.37  N 
ATOM     67 22HD ASN E   1      39.442  41.576   8.013  1.00 65.88 LIG 0.16  HD
ATOM     68 21HD ASN E   1      38.851  40.993   6.776  1.00 65.88 LIG 0.16  HD
ENDBRANCH 63 64
ENDBRANCH 62 63
BRANCH 62 69
ATOM     69  N   ASN E   1      40.600  37.400   9.230  1.00 55.39 LIG-0.07  N 
ATOM     70 H1   ASN E   1      40.750  36.798   8.592  1.00 55.39 LIG 0.28  HD
ATOM     71 H2   ASN E   1      40.594  36.995  10.023  1.00 55.39 LIG 0.28  HD
ATOM     72 H3   ASN E   1      39.812  37.788   9.090  1.00 55.39 LIG 0.28  HD
ENDBRANCH 62 69
ENDBRANCH 60 62
ENDBRANCH 45 58
ENDBRANCH 43 45
ENDBRANCH 1 41
TORSDOF 28
ENDMDL
MODEL 20
USER: ADFR SOLUTION from run 164
USER: SCORE 23.516717 LL:  -5.231 LR: -20.456 RR:   0.000 FEB: -12.104
USER: RMSD 13.005879
USER: SEED 163
USER: STATUS searching
USER: GENES 30
USER: genes 0 Translation |==|  0.39983 0.33767 0.42334
USER: genes 1 Rotation |==|  0.74275 0.90832 0.34621 0.52643
USER: genes 2 Torsion [N]-CA--C-[N] |==|  0.34468
USER: genes 3 Torsion [C]-N--CA-[C] |==|  0.52920
USER: genes 4 Torsion [N]-CA--C-[N] |==|  0.42456
USER: genes 5 Torsion [C]-N--CA-[C] |==|  0.42778
USER: genes 6 Torsion [N]-CA--C-[N] |==|  0.42313
USER: genes 7 Torsion [C]-N--CA-[C] |==|  0.65646
USER: genes 8 Torsion [N]-CA--C-[N] |==|  0.47115
USER: genes 9 Torsion [C]-N--CA-[C] |==|  0.25244
USER: genes 10 Torsion [N]-CA--C-[O] |==|  0.65847
USER: genes 11 Torsion [N]-CA--CB-[CG2] |==|  0.55948
USER: genes 12 Torsion [CA]-CB--OG1-[HG1] |==|  0.61700
USER: genes 13 Torsion [N]-CA--CB-[CG] |==|  0.56209
USER: genes 14 Torsion [CA]-CB--CG-[CD1] |==|  0.25094
USER: genes 15 Torsion [N]-CA--CB-[CG] |==|  0.21475
USER: genes 16 Torsion [CA]-CB--CG-[CD2] |==|  0.77517
USER: genes 17 Torsion [C]-CA--CB-[CG] |==|  0.03538
USER: genes 18 Torsion [CA]-CB--CG-[CD2] |==|  0.69874
USER: genes 19 Torsion [C]-CA--N-[C] |==|  0.60613
USER: genes 20 Torsion [N]-C--CA-[N] |==|  0.05584
USER: genes 21 Torsion [C]-CA--CB-[CG] |==|  0.89567
USER: genes 22 Torsion [CA]-CB--CG-[CD] |==|  0.44427
USER: genes 23 Torsion [CB]-CG--CD-[NE] |==|  0.45871
USER: genes 24 Torsion [CG]-CD--NE-[HE] |==|  0.31210
USER: genes 25 Torsion [C]-CA--N-[C] |==|  0.66199
USER: genes 26 Torsion [N]-C--CA-[N] |==|  0.50517
USER: genes 27 Torsion [C]-CA--CB-[CG] |==|  0.18417
USER: genes 28 Torsion [CA]-CB--CG-[OD1] |==|  0.11908
USER: genes 29 Torsion [C]-CA--N-[H2] |==|  0.85131
ROOT
ATOM      1  CA  LEU E   3      43.565  40.468  15.136  1.00 22.83 LIG 0.18  C 
ENDROOT
BRANCH 1 2
ATOM      2  C   LEU E   3      44.313  40.366  16.506  1.00 19.55 LIG 0.24  C 
ATOM      3 O    LEU E   3      44.699  39.292  16.939  1.00 19.60 LIG-0.27  OA
ATOM      4  N   LEU E   4      44.489  41.494  17.153  1.00 19.32 LIG-0.35  N 
ATOM      5 H    LEU E   4      44.068  42.225  16.988  1.00 19.32 LIG 0.16  HD
BRANCH 4 6
ATOM      6  CA  LEU E   4      45.490  41.569  18.277  1.00 17.74 LIG 0.18  C 
BRANCH 6 7
ATOM      7  C   LEU E   4      45.366  42.840  19.041  1.00 18.94 LIG 0.24  C 
ATOM      8  N   LEU E   5      45.765  42.783  20.337  1.00 19.76 LIG-0.35  N 
ATOM      9 H    LEU E   5      46.144  42.100  20.698  1.00 19.76 LIG 0.16  HD
ATOM     10 O    LEU E   4      44.853  43.874  18.518  1.00 20.41 LIG-0.27  OA
BRANCH 8 11
ATOM     11  CA  LEU E   5      45.571  43.917  21.234  1.00 18.99 LIG 0.18  C 
BRANCH 11 12
ATOM     12  C   LEU E   5      45.493  43.357  22.656  1.00 20.67 LIG 0.24  C 
ATOM     13  N   THR E   6      45.888  44.197  23.613  1.00 21.83 LIG-0.34  N 
ATOM     14 H    THR E   6      46.245  44.969  23.484  1.00 21.83 LIG 0.16  HD
ATOM     15 O    LEU E   5      45.042  42.245  22.817  1.00 20.01 LIG-0.27  OA
BRANCH 13 16
ATOM     16  CA  THR E   6      45.713  43.799  25.021  1.00 24.74 LIG 0.20  C 
BRANCH 16 17
ATOM     17  C   THR E   6      44.886  44.857  25.754  1.00 26.78 LIG 0.24  C 
ATOM     18  N   GLY E   7      44.483  44.489  26.979  1.00 28.46 LIG-0.35  N 
ATOM     19 H    GLY E   7      44.893  43.885  27.434  1.00 28.46 LIG 0.16  HD
ATOM     20 O    THR E   6      44.650  45.971  25.276  1.00 25.34 LIG-0.27  OA
BRANCH 18 21
ATOM     21  CA  GLY E   7      43.331  45.044  27.685  1.00 36.11 LIG 0.23  C 
BRANCH 21 22
ATOM     22  C   GLY E   7      42.118  44.252  27.389  1.00 43.05 LIG 0.19  C 
ATOM     23 OXT  GLY E   7      42.177  43.048  27.644  1.00 50.23 LIG-0.65  OA
ATOM     24 O    GLY E   7      41.091  44.777  26.898  1.00 56.48 LIG-0.65  OA
ENDBRANCH 21 22
ENDBRANCH 18 21
ENDBRANCH 16 17
BRANCH 16 25
ATOM     25  CB  THR E   6      47.083  43.583  25.697  1.00 24.32 LIG 0.15  C 
ATOM     26  CG2 THR E   6      46.936  42.655  26.981  1.00 23.74 LIG 0.04  C 
BRANCH 25 27
ATOM     27 OG1  THR E   6      47.909  42.943  24.743  1.00 30.49 LIG-0.39  OA
ATOM     28 HG1  THR E   6      48.352  42.336  25.118  1.00 30.49 LIG 0.21  HD
ENDBRANCH 25 27
ENDBRANCH 16 25
ENDBRANCH 13 16
ENDBRANCH 11 12
BRANCH 11 29
ATOM     29  CB  LEU E   5      44.247  44.626  20.992  1.00 19.92 LIG 0.04  C 
BRANCH 29 30
ATOM     30  CG  LEU E   5      44.323  46.085  21.526  1.00 17.19 LIG-0.02  C 
ATOM     31  CD1 LEU E   5      44.807  46.992  20.426  1.00 19.71 LIG 0.01  C 
ATOM     32  CD2 LEU E   5      42.981  46.515  22.062  1.00 21.46 LIG 0.01  C 
ENDBRANCH 29 30
ENDBRANCH 11 29
ENDBRANCH 8 11
ENDBRANCH 6 7
BRANCH 6 33
ATOM     33  CB  LEU E   4      46.925  41.483  17.660  1.00 18.44 LIG 0.04  C 
BRANCH 33 34
ATOM     34  CG  LEU E   4      47.326  42.838  17.034  1.00 22.78 LIG-0.02  C 
ATOM     35  CD2 LEU E   4      46.737  43.055  15.626  1.00 23.44 LIG 0.01  C 
ATOM     36  CD1 LEU E   4      48.855  42.863  17.008  1.00 27.53 LIG 0.01  C 
ENDBRANCH 33 34
ENDBRANCH 6 33
ENDBRANCH 4 6
ENDBRANCH 1 2
BRANCH 1 37
ATOM     37  CB  LEU E   3      42.220  39.745  15.269  1.00 29.41 LIG 0.04  C 
BRANCH 37 38
ATOM     38  CG  LEU E   3      41.758  39.370  16.697  1.00 30.90 LIG-0.02  C 
ATOM     39  CD1 LEU E   3      40.314  39.851  16.955  1.00 35.09 LIG 0.01  C 
ATOM     40  CD2 LEU E   3      41.858  37.868  16.896  1.00 39.15 LIG 0.01  C 
ENDBRANCH 37 38
ENDBRANCH 1 37
BRANCH 1 41
ATOM     41  N   LEU E   3      44.384  39.882  14.032  1.00 22.92 LIG-0.35  N 
ATOM     42 H    LEU E   3      44.827  39.173  14.234  1.00 22.92 LIG 0.16  HD
ATOM     43  C   ARG E   2      44.379  40.470  12.842  1.00 28.87 LIG 0.24  C 
ATOM     44 O    ARG E   2      43.718  41.530  12.633  1.00 29.44 LIG-0.27  OA
BRANCH 43 45
ATOM     45  CA  ARG E   2      45.212  39.842  11.700  1.00 32.90 LIG 0.18  C 
BRANCH 45 46
ATOM     46  CB  ARG E   2      44.387  39.751  10.426  1.00 32.53 LIG 0.04  C 
BRANCH 46 47
ATOM     47  CG  ARG E   2      42.952  39.405  10.611  1.00 34.92 LIG 0.02  C 
BRANCH 47 48
ATOM     48  CD  ARG E   2      42.200  39.823   9.398  1.00 37.57 LIG 0.14  C 
BRANCH 48 49
ATOM     49  NE  ARG E   2      40.852  39.244   9.289  1.00 41.00 LIG-0.23  N 
ATOM     50 HE   ARG E   2      40.176  39.772   9.362  1.00 41.00 LIG 0.18  HD
ATOM     51  CZ  ARG E   2      40.615  37.941   9.083  1.00 43.22 LIG 0.67  C 
ATOM     52  NH2 ARG E   2      39.373  37.503   8.925  1.00 39.75 LIG-0.23  N 
ATOM     53  NH1 ARG E   2      41.628  37.057   9.031  1.00 41.20 LIG-0.23  N 
ATOM     54 2HH2 ARG E   2      39.225  36.667   8.792  1.00 39.75 LIG 0.17  HD
ATOM     55 1HH2 ARG E   2      38.715  38.057   8.955  1.00 39.75 LIG 0.17  HD
ATOM     56 1HH1 ARG E   2      42.439  37.326   9.131  1.00 41.20 LIG 0.17  HD
ATOM     57 2HH1 ARG E   2      41.465  36.224   8.898  1.00 41.20 LIG 0.17  HD
ENDBRANCH 48 49
ENDBRANCH 47 48
ENDBRANCH 46 47
ENDBRANCH 45 46
BRANCH 45 58
ATOM     58  N   ARG E   2      45.488  38.433  12.016  1.00 36.64 LIG-0.35  N 
ATOM     59 H    ARG E   2      44.775  37.965  12.131  1.00 36.64 LIG 0.16  HD
ATOM     60  C   ASN E   1      46.696  37.924  12.115  1.00 41.83 LIG 0.25  C 
ATOM     61 O    ASN E   1      47.705  38.611  11.896  1.00 38.61 LIG-0.27  OA
BRANCH 60 62
ATOM     62  CA  ASN E   1      46.768  36.385  12.422  1.00 50.15 LIG 0.28  C 
BRANCH 62 63
ATOM     63  CB  ASN E   1      45.924  35.922  13.656  1.00 58.25 LIG 0.14  C 
BRANCH 63 64
ATOM     64  CG  ASN E   1      44.374  36.072  13.463  1.00 70.07 LIG 0.22  C 
ATOM     65 OD1  ASN E   1      43.794  35.758  12.409  1.00 69.16 LIG-0.27  OA
ATOM     66  ND2 ASN E   1      43.706  36.561  14.511  1.00 65.88 LIG-0.37  N 
ATOM     67 22HD ASN E   1      44.129  36.771  15.230  1.00 65.88 LIG 0.16  HD
ATOM     68 21HD ASN E   1      42.854  36.666  14.467  1.00 65.88 LIG 0.16  HD
ENDBRANCH 63 64
ENDBRANCH 62 63
BRANCH 62 69
ATOM     69  N   ASN E   1      48.180  35.925  12.557  1.00 55.39 LIG-0.07  N 
ATOM     70 H1   ASN E   1      48.198  35.039  12.637  1.00 55.39 LIG 0.28  HD
ATOM     71 H2   ASN E   1      48.642  36.167  11.836  1.00 55.39 LIG 0.28  HD
ATOM     72 H3   ASN E   1      48.544  36.294  13.280  1.00 55.39 LIG 0.28  HD
ENDBRANCH 62 69
ENDBRANCH 60 62
ENDBRANCH 45 58
ENDBRANCH 43 45
ENDBRANCH 1 41
TORSDOF 28
ENDMDL
MODEL 21
USER: ADFR SOLUTION from run 164
USER: SCORE 23.468991 LL:  -5.185 LR: -20.443 RR:   0.000 FEB: -12.090
USER: RMSD 12.968446
USER: SEED 163
USER: STATUS searching
USER: GENES 30
USER: genes 0 Translation |==|  0.40056 0.33697 0.42252
USER: genes 1 Rotation |==|  0.74031 0.90954 0.34598 0.52833
USER: genes 2 Torsion [N]-CA--C-[N] |==|  0.34096
USER: genes 3 Torsion [C]-N--CA-[C] |==|  0.53333
USER: genes 4 Torsion [N]-CA--C-[N] |==|  0.42504
USER: genes 5 Torsion [C]-N--CA-[C] |==|  0.42781
USER: genes 6 Torsion [N]-CA--C-[N] |==|  0.42281
USER: genes 7 Torsion [C]-N--CA-[C] |==|  0.65627
USER: genes 8 Torsion [N]-CA--C-[N] |==|  0.47160
USER: genes 9 Torsion [C]-N--CA-[C] |==|  0.25265
USER: genes 10 Torsion [N]-CA--C-[O] |==|  0.65833
USER: genes 11 Torsion [N]-CA--CB-[CG2] |==|  0.55966
USER: genes 12 Torsion [CA]-CB--OG1-[HG1] |==|  0.61700
USER: genes 13 Torsion [N]-CA--CB-[CG] |==|  0.56188
USER: genes 14 Torsion [CA]-CB--CG-[CD1] |==|  0.25166
USER: genes 15 Torsion [N]-CA--CB-[CG] |==|  0.21399
USER: genes 16 Torsion [CA]-CB--CG-[CD2] |==|  0.77334
USER: genes 17 Torsion [C]-CA--CB-[CG] |==|  0.03477
USER: genes 18 Torsion [CA]-CB--CG-[CD2] |==|  0.69665
USER: genes 19 Torsion [C]-CA--N-[C] |==|  0.60544
USER: genes 20 Torsion [N]-C--CA-[N] |==|  0.05856
USER: genes 21 Torsion [C]-CA--CB-[CG] |==|  0.37050
USER: genes 22 Torsion [CA]-CB--CG-[CD] |==|  0.00274
USER: genes 23 Torsion [CB]-CG--CD-[NE] |==|  0.49944
USER: genes 24 Torsion [CG]-CD--NE-[HE] |==|  0.90244
USER: genes 25 Torsion [C]-CA--N-[C] |==|  0.66225
USER: genes 26 Torsion [N]-C--CA-[N] |==|  0.50812
USER: genes 27 Torsion [C]-CA--CB-[CG] |==|  0.17620
USER: genes 28 Torsion [CA]-CB--CG-[OD1] |==|  0.11813
USER: genes 29 Torsion [C]-CA--N-[H2] |==|  0.85454
ROOT
ATOM      1  CA  LEU E   3      43.579  40.452  15.114  1.00 22.83 LIG 0.18  C 
ENDROOT
BRANCH 1 2
ATOM      2  C   LEU E   3      44.325  40.364  16.487  1.00 19.55 LIG 0.24  C 
ATOM      3 O    LEU E   3      44.702  39.294  16.935  1.00 19.60 LIG-0.27  OA
ATOM      4  N   LEU E   4      44.509  41.500  17.117  1.00 19.32 LIG-0.35  N 
ATOM      5 H    LEU E   4      44.095  42.232  16.941  1.00 19.32 LIG 0.16  HD
BRANCH 4 6
ATOM      6  CA  LEU E   4      45.510  41.584  18.241  1.00 17.74 LIG 0.18  C 
BRANCH 6 7
ATOM      7  C   LEU E   4      45.372  42.851  19.009  1.00 18.94 LIG 0.24  C 
ATOM      8  N   LEU E   5      45.776  42.797  20.304  1.00 19.76 LIG-0.35  N 
ATOM      9 H    LEU E   5      46.164  42.118  20.661  1.00 19.76 LIG 0.16  HD
ATOM     10 O    LEU E   4      44.844  43.880  18.489  1.00 20.41 LIG-0.27  OA
BRANCH 8 11
ATOM     11  CA  LEU E   5      45.569  43.925  21.203  1.00 18.99 LIG 0.18  C 
BRANCH 11 12
ATOM     12  C   LEU E   5      45.503  43.362  22.624  1.00 20.67 LIG 0.24  C 
ATOM     13  N   THR E   6      45.892  44.203  23.582  1.00 21.83 LIG-0.34  N 
ATOM     14 H    THR E   6      46.239  44.979  23.454  1.00 21.83 LIG 0.16  HD
ATOM     15 O    LEU E   5      45.065  42.244  22.784  1.00 20.01 LIG-0.27  OA
BRANCH 13 16
ATOM     16  CA  THR E   6      45.726  43.800  24.990  1.00 24.74 LIG 0.20  C 
BRANCH 16 17
ATOM     17  C   THR E   6      44.891  44.848  25.729  1.00 26.78 LIG 0.24  C 
ATOM     18  N   GLY E   7      44.500  44.474  26.956  1.00 28.46 LIG-0.35  N 
ATOM     19 H    GLY E   7      44.920  43.875  27.408  1.00 28.46 LIG 0.16  HD
ATOM     20 O    THR E   6      44.640  45.959  25.253  1.00 25.34 LIG-0.27  OA
BRANCH 18 21
ATOM     21  CA  GLY E   7      43.346  45.015  27.669  1.00 36.11 LIG 0.23  C 
BRANCH 21 22
ATOM     22  C   GLY E   7      42.141  44.208  27.381  1.00 43.05 LIG 0.19  C 
ATOM     23 OXT  GLY E   7      42.216  43.004  27.635  1.00 50.23 LIG-0.65  OA
ATOM     24 O    GLY E   7      41.105  44.720  26.898  1.00 56.48 LIG-0.65  OA
ENDBRANCH 21 22
ENDBRANCH 18 21
ENDBRANCH 16 17
BRANCH 16 25
ATOM     25  CB  THR E   6      47.101  43.597  25.660  1.00 24.32 LIG 0.15  C 
ATOM     26  CG2 THR E   6      46.969  42.663  26.940  1.00 23.74 LIG 0.04  C 
BRANCH 25 27
ATOM     27 OG1  THR E   6      47.931  42.968  24.700  1.00 30.49 LIG-0.39  OA
ATOM     28 HG1  THR E   6      48.382  42.365  25.071  1.00 30.49 LIG 0.21  HD
ENDBRANCH 25 27
ENDBRANCH 16 25
ENDBRANCH 13 16
ENDBRANCH 11 12
BRANCH 11 29
ATOM     29  CB  LEU E   5      44.235  44.618  20.967  1.00 19.92 LIG 0.04  C 
BRANCH 29 30
ATOM     30  CG  LEU E   5      44.292  46.076  21.506  1.00 17.19 LIG-0.02  C 
ATOM     31  CD1 LEU E   5      44.756  46.994  20.407  1.00 19.71 LIG 0.01  C 
ATOM     32  CD2 LEU E   5      42.948  46.483  22.053  1.00 21.46 LIG 0.01  C 
ENDBRANCH 29 30
ENDBRANCH 11 29
ENDBRANCH 8 11
ENDBRANCH 6 7
BRANCH 6 33
ATOM     33  CB  LEU E   4      46.946  41.516  17.624  1.00 18.44 LIG 0.04  C 
BRANCH 33 34
ATOM     34  CG  LEU E   4      47.328  42.875  16.994  1.00 22.78 LIG-0.02  C 
ATOM     35  CD2 LEU E   4      46.750  43.075  15.581  1.00 23.44 LIG 0.01  C 
ATOM     36  CD1 LEU E   4      48.857  42.928  16.984  1.00 27.53 LIG 0.01  C 
ENDBRANCH 33 34
ENDBRANCH 6 33
ENDBRANCH 4 6
ENDBRANCH 1 2
BRANCH 1 37
ATOM     37  CB  LEU E   3      42.244  39.713  15.247  1.00 29.41 LIG 0.04  C 
BRANCH 37 38
ATOM     38  CG  LEU E   3      41.785  39.332  16.674  1.00 30.90 LIG-0.02  C 
ATOM     39  CD1 LEU E   3      40.342  39.812  16.937  1.00 35.09 LIG 0.01  C 
ATOM     40  CD2 LEU E   3      41.886  37.830  16.867  1.00 39.15 LIG 0.01  C 
ENDBRANCH 37 38
ENDBRANCH 1 37
BRANCH 1 41
ATOM     41  N   LEU E   3      44.408  39.873  14.015  1.00 22.92 LIG-0.35  N 
ATOM     42 H    LEU E   3      44.863  39.172  14.221  1.00 22.92 LIG 0.16  HD
ATOM     43  C   ARG E   2      44.396  40.454  12.821  1.00 28.87 LIG 0.24  C 
ATOM     44 O    ARG E   2      43.718  41.502  12.605  1.00 29.44 LIG-0.27  OA
BRANCH 43 45
ATOM     45  CA  ARG E   2      45.239  39.833  11.683  1.00 32.90 LIG 0.18  C 
BRANCH 45 46
ATOM     46  CB  ARG E   2      44.425  39.743  10.403  1.00 32.53 LIG 0.04  C 
BRANCH 46 47
ATOM     47  CG  ARG E   2      45.108  40.219   9.170  1.00 34.92 LIG 0.02  C 
BRANCH 47 48
ATOM     48  CD  ARG E   2      46.484  40.658   9.526  1.00 37.57 LIG 0.14  C 
BRANCH 48 49
ATOM     49  NE  ARG E   2      47.278  41.152   8.390  1.00 41.00 LIG-0.23  N 
ATOM     50 HE   ARG E   2      47.167  40.777   7.623  1.00 41.00 LIG 0.18  HD
ATOM     51  CZ  ARG E   2      48.165  42.152   8.481  1.00 43.22 LIG 0.67  C 
ATOM     52  NH2 ARG E   2      48.792  42.590   7.397  1.00 39.75 LIG-0.23  N 
ATOM     53  NH1 ARG E   2      48.433  42.729   9.666  1.00 41.20 LIG-0.23  N 
ATOM     54 2HH2 ARG E   2      49.361  43.232   7.459  1.00 39.75 LIG 0.17  HD
ATOM     55 1HH2 ARG E   2      48.631  42.232   6.632  1.00 39.75 LIG 0.17  HD
ATOM     56 1HH1 ARG E   2      48.033  42.456  10.377  1.00 41.20 LIG 0.17  HD
ATOM     57 2HH1 ARG E   2      49.003  43.370   9.712  1.00 41.20 LIG 0.17  HD
ENDBRANCH 48 49
ENDBRANCH 47 48
ENDBRANCH 46 47
ENDBRANCH 45 46
BRANCH 45 58
ATOM     58  N   ARG E   2      45.517  38.423  11.996  1.00 36.64 LIG-0.35  N 
ATOM     59 H    ARG E   2      44.805  37.953  12.103  1.00 36.64 LIG 0.16  HD
ATOM     60  C   ASN E   1      46.726  37.918  12.105  1.00 41.83 LIG 0.25  C 
ATOM     61 O    ASN E   1      47.734  38.610  11.898  1.00 38.61 LIG-0.27  OA
BRANCH 60 62
ATOM     62  CA  ASN E   1      46.801  36.378  12.406  1.00 50.15 LIG 0.28  C 
BRANCH 62 63
ATOM     63  CB  ASN E   1      45.926  35.904  13.615  1.00 58.25 LIG 0.14  C 
BRANCH 63 64
ATOM     64  CG  ASN E   1      44.385  36.109  13.408  1.00 70.07 LIG 0.22  C 
ATOM     65 OD1  ASN E   1      43.810  35.854  12.336  1.00 69.16 LIG-0.27  OA
ATOM     66  ND2 ASN E   1      43.718  36.579  14.466  1.00 65.88 LIG-0.37  N 
ATOM     67 22HD ASN E   1      44.138  36.748  15.198  1.00 65.88 LIG 0.16  HD
ATOM     68 21HD ASN E   1      42.870  36.712  14.415  1.00 65.88 LIG 0.16  HD
ENDBRANCH 63 64
ENDBRANCH 62 63
BRANCH 62 69
ATOM     69  N   ASN E   1      48.212  35.928  12.578  1.00 55.39 LIG-0.07  N 
ATOM     70 H1   ASN E   1      48.235  35.041  12.637  1.00 55.39 LIG 0.28  HD
ATOM     71 H2   ASN E   1      48.695  36.191  11.879  1.00 55.39 LIG 0.28  HD
ATOM     72 H3   ASN E   1      48.548  36.282  13.322  1.00 55.39 LIG 0.28  HD
ENDBRANCH 62 69
ENDBRANCH 60 62
ENDBRANCH 45 58
ENDBRANCH 43 45
ENDBRANCH 1 41
TORSDOF 28
ENDMDL
MODEL 22
USER: ADFR SOLUTION from run 53
USER: SCORE 24.088672 LL:  -5.302 LR: -20.439 RR:   0.000 FEB: -12.087
USER: RMSD 12.119582
USER: SEED 52
USER: STATUS no improvement in best in 27 clusters for 5 generations
USER: GENES 30
USER: genes 0 Translation |==|  0.44154 0.35128 0.41322
USER: genes 1 Rotation |==|  0.62268 0.91387 0.25015 0.53508
USER: genes 2 Torsion [N]-CA--C-[N] |==|  0.35830
USER: genes 3 Torsion [C]-N--CA-[C] |==|  0.78921
USER: genes 4 Torsion [N]-CA--C-[N] |==|  0.32870
USER: genes 5 Torsion [C]-N--CA-[C] |==|  0.53764
USER: genes 6 Torsion [N]-CA--C-[N] |==|  0.84023
USER: genes 7 Torsion [C]-N--CA-[C] |==|  0.81105
USER: genes 8 Torsion [N]-CA--C-[N] |==|  0.37639
USER: genes 9 Torsion [C]-N--CA-[C] |==|  0.78010
USER: genes 10 Torsion [N]-CA--C-[O] |==|  0.00550
USER: genes 11 Torsion [N]-CA--CB-[CG2] |==|  0.64343
USER: genes 12 Torsion [CA]-CB--OG1-[HG1] |==|  0.83951
USER: genes 13 Torsion [N]-CA--CB-[CG] |==|  0.56966
USER: genes 14 Torsion [CA]-CB--CG-[CD1] |==|  0.75365
USER: genes 15 Torsion [N]-CA--CB-[CG] |==|  0.60445
USER: genes 16 Torsion [CA]-CB--CG-[CD2] |==|  0.46858
USER: genes 17 Torsion [C]-CA--CB-[CG] |==|  0.42388
USER: genes 18 Torsion [CA]-CB--CG-[CD2] |==|  0.50781
USER: genes 19 Torsion [C]-CA--N-[C] |==|  0.66846
USER: genes 20 Torsion [N]-C--CA-[N] |==|  0.09120
USER: genes 21 Torsion [C]-CA--CB-[CG] |==|  0.33589
USER: genes 22 Torsion [CA]-CB--CG-[CD] |==|  0.01739
USER: genes 23 Torsion [CB]-CG--CD-[NE] |==|  0.48990
USER: genes 24 Torsion [CG]-CD--NE-[HE] |==|  0.92899
USER: genes 25 Torsion [C]-CA--N-[C] |==|  0.67881
USER: genes 26 Torsion [N]-C--CA-[N] |==|  0.50573
USER: genes 27 Torsion [C]-CA--CB-[CG] |==|  0.19333
USER: genes 28 Torsion [CA]-CB--CG-[OD1] |==|  0.09191
USER: genes 29 Torsion [C]-CA--N-[H2] |==|  0.82119
ROOT
ATOM      1  CA  LEU E   3      44.409  40.774  14.870  1.00 22.83 LIG 0.18  C 
ENDROOT
BRANCH 1 2
ATOM      2  C   LEU E   3      45.414  41.465  15.849  1.00 19.55 LIG 0.24  C 
ATOM      3 O    LEU E   3      46.362  40.855  16.319  1.00 19.60 LIG-0.27  OA
ATOM      4  N   LEU E   4      45.172  42.723  16.134  1.00 19.32 LIG-0.35  N 
ATOM      5 H    LEU E   4      44.425  43.123  15.991  1.00 19.32 LIG 0.16  HD
BRANCH 4 6
ATOM      6  CA  LEU E   4      46.247  43.575  16.760  1.00 17.74 LIG 0.18  C 
BRANCH 6 7
ATOM      7  C   LEU E   4      46.424  43.265  18.204  1.00 18.94 LIG 0.24  C 
ATOM      8  N   LEU E   5      47.650  42.799  18.554  1.00 19.76 LIG-0.35  N 
ATOM      9 H    LEU E   5      48.322  42.754  18.019  1.00 19.76 LIG 0.16  HD
ATOM     10 O    LEU E   4      45.461  43.369  19.022  1.00 20.41 LIG-0.27  OA
BRANCH 8 11
ATOM     11  CA  LEU E   5      47.916  42.330  19.909  1.00 18.99 LIG 0.18  C 
BRANCH 11 12
ATOM     12  C   LEU E   5      49.435  42.208  20.052  1.00 20.67 LIG 0.24  C 
ATOM     13  N   THR E   6      50.020  41.400  19.167  1.00 21.83 LIG-0.34  N 
ATOM     14 H    THR E   6      49.611  40.903  18.599  1.00 21.83 LIG 0.16  HD
ATOM     15 O    LEU E   5      49.992  42.872  20.898  1.00 20.01 LIG-0.27  OA
BRANCH 13 16
ATOM     16  CA  THR E   6      51.492  41.333  19.136  1.00 24.74 LIG 0.20  C 
BRANCH 16 17
ATOM     17  C   THR E   6      52.056  42.664  18.636  1.00 26.78 LIG 0.24  C 
ATOM     18  N   GLY E   7      53.100  43.120  19.344  1.00 28.46 LIG-0.35  N 
ATOM     19 H    GLY E   7      53.601  42.598  19.808  1.00 28.46 LIG 0.16  HD
ATOM     20 O    THR E   6      51.616  43.244  17.638  1.00 25.34 LIG-0.27  OA
BRANCH 18 21
ATOM     21  CA  GLY E   7      53.514  44.519  19.421  1.00 36.11 LIG 0.23  C 
BRANCH 21 22
ATOM     22  C   GLY E   7      54.275  44.895  18.210  1.00 43.05 LIG 0.19  C 
ATOM     23 OXT  GLY E   7      54.705  46.049  18.173  1.00 50.23 LIG-0.65  OA
ATOM     24 O    GLY E   7      54.464  44.086  17.272  1.00 56.48 LIG-0.65  OA
ENDBRANCH 21 22
ENDBRANCH 18 21
ENDBRANCH 16 17
BRANCH 16 25
ATOM     25  CB  THR E   6      51.961  40.154  18.258  1.00 24.32 LIG 0.15  C 
ATOM     26  CG2 THR E   6      52.999  39.244  19.047  1.00 23.74 LIG 0.04  C 
BRANCH 25 27
ATOM     27 OG1  THR E   6      50.806  39.395  17.949  1.00 30.49 LIG-0.39  OA
ATOM     28 HG1  THR E   6      50.438  39.143  18.660  1.00 30.49 LIG 0.21  HD
ENDBRANCH 25 27
ENDBRANCH 16 25
ENDBRANCH 13 16
ENDBRANCH 11 12
BRANCH 11 29
ATOM     29  CB  LEU E   5      47.361  40.935  20.158  1.00 19.92 LIG 0.04  C 
BRANCH 29 30
ATOM     30  CG  LEU E   5      47.093  40.736  21.678  1.00 17.19 LIG-0.02  C 
ATOM     31  CD1 LEU E   5      48.339  40.207  22.336  1.00 19.71 LIG 0.01  C 
ATOM     32  CD2 LEU E   5      46.633  42.030  22.300  1.00 21.46 LIG 0.01  C 
ENDBRANCH 29 30
ENDBRANCH 11 29
ENDBRANCH 8 11
ENDBRANCH 6 7
BRANCH 6 33
ATOM     33  CB  LEU E   4      45.832  45.075  16.607  1.00 18.44 LIG 0.04  C 
BRANCH 33 34
ATOM     34  CG  LEU E   4      47.072  45.951  16.316  1.00 22.78 LIG-0.02  C 
ATOM     35  CD2 LEU E   4      46.715  47.386  15.882  1.00 23.44 LIG 0.01  C 
ATOM     36  CD1 LEU E   4      47.867  45.223  15.232  1.00 27.53 LIG 0.01  C 
ENDBRANCH 33 34
ENDBRANCH 6 33
ENDBRANCH 4 6
ENDBRANCH 1 2
BRANCH 1 37
ATOM     37  CB  LEU E   3      43.572  39.772  15.671  1.00 29.41 LIG 0.04  C 
BRANCH 37 38
ATOM     38  CG  LEU E   3      42.152  39.457  15.145  1.00 30.90 LIG-0.02  C 
ATOM     39  CD1 LEU E   3      42.210  38.853  13.725  1.00 35.09 LIG 0.01  C 
ATOM     40  CD2 LEU E   3      41.447  38.505  16.095  1.00 39.15 LIG 0.01  C 
ENDBRANCH 37 38
ENDBRANCH 1 37
BRANCH 1 41
ATOM     41  N   LEU E   3      45.130  40.098  13.749  1.00 22.92 LIG-0.35  N 
ATOM     42 H    LEU E   3      45.677  39.476  13.980  1.00 22.92 LIG 0.16  HD
ATOM     43  C   ARG E   2      44.892  40.485  12.502  1.00 28.87 LIG 0.24  C 
ATOM     44 O    ARG E   2      44.090  41.431  12.247  1.00 29.44 LIG-0.27  OA
BRANCH 43 45
ATOM     45  CA  ARG E   2      45.626  39.764  11.347  1.00 32.90 LIG 0.18  C 
BRANCH 45 46
ATOM     46  CB  ARG E   2      44.732  39.672  10.121  1.00 32.53 LIG 0.04  C 
BRANCH 46 47
ATOM     47  CG  ARG E   2      45.260  40.315   8.888  1.00 34.92 LIG 0.02  C 
BRANCH 47 48
ATOM     48  CD  ARG E   2      46.651  40.774   9.148  1.00 37.57 LIG 0.14  C 
BRANCH 48 49
ATOM     49  NE  ARG E   2      47.328  41.357   7.979  1.00 41.00 LIG-0.23  N 
ATOM     50 HE   ARG E   2      47.068  41.113   7.196  1.00 41.00 LIG 0.18  HD
ATOM     51  CZ  ARG E   2      48.326  42.247   8.064  1.00 43.22 LIG 0.67  C 
ATOM     52  NH2 ARG E   2      48.840  42.783   6.965  1.00 39.75 LIG-0.23  N 
ATOM     53  NH1 ARG E   2      48.822  42.613   9.260  1.00 41.20 LIG-0.23  N 
ATOM     54 2HH2 ARG E   2      49.480  43.354   7.023  1.00 39.75 LIG 0.17  HD
ATOM     55 1HH2 ARG E   2      48.533  42.559   6.193  1.00 39.75 LIG 0.17  HD
ATOM     56 1HH1 ARG E   2      48.498  42.275   9.981  1.00 41.20 LIG 0.17  HD
ATOM     57 2HH1 ARG E   2      49.462  43.185   9.302  1.00 41.20 LIG 0.17  HD
ENDBRANCH 48 49
ENDBRANCH 47 48
ENDBRANCH 46 47
ENDBRANCH 45 46
BRANCH 45 58
ATOM     58  N   ARG E   2      45.836  38.354  11.709  1.00 36.64 LIG-0.35  N 
ATOM     59 H    ARG E   2      45.102  37.914  11.799  1.00 36.64 LIG 0.16  HD
ATOM     60  C   ASN E   1      47.019  37.806  11.881  1.00 41.83 LIG 0.25  C 
ATOM     61 O    ASN E   1      48.061  38.453  11.697  1.00 38.61 LIG-0.27  OA
BRANCH 60 62
ATOM     62  CA  ASN E   1      47.021  36.274  12.226  1.00 50.15 LIG 0.28  C 
BRANCH 62 63
ATOM     63  CB  ASN E   1      46.096  35.870  13.423  1.00 58.25 LIG 0.14  C 
BRANCH 63 64
ATOM     64  CG  ASN E   1      44.562  35.990  13.115  1.00 70.07 LIG 0.22  C 
ATOM     65 OD1  ASN E   1      44.084  35.778  11.988  1.00 69.16 LIG-0.27  OA
ATOM     66  ND2 ASN E   1      43.791  36.335  14.149  1.00 65.88 LIG-0.37  N 
ATOM     67 22HD ASN E   1      44.145  36.476  14.921  1.00 65.88 LIG 0.16  HD
ATOM     68 21HD ASN E   1      42.942  36.416  14.044  1.00 65.88 LIG 0.16  HD
ENDBRANCH 63 64
ENDBRANCH 62 63
BRANCH 62 69
ATOM     69  N   ASN E   1      48.406  35.771  12.447  1.00 55.39 LIG-0.07  N 
ATOM     70 H1   ASN E   1      48.376  34.919  12.702  1.00 55.39 LIG 0.28  HD
ATOM     71 H2   ASN E   1      48.871  35.837  11.691  1.00 55.39 LIG 0.28  HD
ATOM     72 H3   ASN E   1      48.800  36.255  13.081  1.00 55.39 LIG 0.28  HD
ENDBRANCH 62 69
ENDBRANCH 60 62
ENDBRANCH 45 58
ENDBRANCH 43 45
ENDBRANCH 1 41
TORSDOF 28
ENDMDL
MODEL 23
USER: ADFR SOLUTION from run 145
USER: SCORE 24.848976 LL:  -5.368 LR: -20.427 RR:   0.000 FEB: -12.075
USER: RMSD 12.230880
USER: SEED 144
USER: STATUS 1 or 2 clusters left
USER: GENES 30
USER: genes 0 Translation |==|  0.43831 0.36956 0.41526
USER: genes 1 Rotation |==|  0.73342 0.89170 0.29502 0.50830
USER: genes 2 Torsion [N]-CA--C-[N] |==|  0.48973
USER: genes 3 Torsion [C]-N--CA-[C] |==|  0.14460
USER: genes 4 Torsion [N]-CA--C-[N] |==|  0.14368
USER: genes 5 Torsion [C]-N--CA-[C] |==|  0.85876
USER: genes 6 Torsion [N]-CA--C-[N] |==|  0.39206
USER: genes 7 Torsion [C]-N--CA-[C] |==|  0.67632
USER: genes 8 Torsion [N]-CA--C-[N] |==|  0.33133
USER: genes 9 Torsion [C]-N--CA-[C] |==|  0.34956
USER: genes 10 Torsion [N]-CA--C-[O] |==|  0.96215
USER: genes 11 Torsion [N]-CA--CB-[CG2] |==|  0.59037
USER: genes 12 Torsion [CA]-CB--OG1-[HG1] |==|  0.11156
USER: genes 13 Torsion [N]-CA--CB-[CG] |==|  0.14285
USER: genes 14 Torsion [CA]-CB--CG-[CD1] |==|  0.45424
USER: genes 15 Torsion [N]-CA--CB-[CG] |==|  0.58541
USER: genes 16 Torsion [CA]-CB--CG-[CD2] |==|  0.03166
USER: genes 17 Torsion [C]-CA--CB-[CG] |==|  0.75790
USER: genes 18 Torsion [CA]-CB--CG-[CD2] |==|  0.51815
USER: genes 19 Torsion [C]-CA--N-[C] |==|  0.57190
USER: genes 20 Torsion [N]-C--CA-[N] |==|  0.09381
USER: genes 21 Torsion [C]-CA--CB-[CG] |==|  0.80003
USER: genes 22 Torsion [CA]-CB--CG-[CD] |==|  0.62007
USER: genes 23 Torsion [CB]-CG--CD-[NE] |==|  0.59179
USER: genes 24 Torsion [CG]-CD--NE-[HE] |==|  0.67329
USER: genes 25 Torsion [C]-CA--N-[C] |==|  0.67607
USER: genes 26 Torsion [N]-C--CA-[N] |==|  0.51299
USER: genes 27 Torsion [C]-CA--CB-[CG] |==|  0.23565
USER: genes 28 Torsion [CA]-CB--CG-[OD1] |==|  0.95283
USER: genes 29 Torsion [C]-CA--N-[H2] |==|  0.54463
ROOT
ATOM      1  CA  LEU E   3      44.344  41.185  14.924  1.00 22.83 LIG 0.18  C 
ENDROOT
BRANCH 1 2
ATOM      2  C   LEU E   3      45.309  41.255  16.153  1.00 19.55 LIG 0.24  C 
ATOM      3 O    LEU E   3      46.372  40.656  16.158  1.00 19.60 LIG-0.27  OA
ATOM      4  N   LEU E   4      44.904  41.985  17.165  1.00 19.32 LIG-0.35  N 
ATOM      5 H    LEU E   4      44.096  42.254  17.284  1.00 19.32 LIG 0.16  HD
BRANCH 4 6
ATOM      6  CA  LEU E   4      45.885  42.413  18.226  1.00 17.74 LIG 0.18  C 
BRANCH 6 7
ATOM      7  C   LEU E   4      47.084  43.069  17.636  1.00 18.94 LIG 0.24  C 
ATOM      8  N   LEU E   5      46.828  44.082  16.770  1.00 19.76 LIG-0.35  N 
ATOM      9 H    LEU E   5      46.044  44.400  16.615  1.00 19.76 LIG 0.16  HD
ATOM     10 O    LEU E   4      48.253  42.647  17.885  1.00 20.41 LIG-0.27  OA
BRANCH 8 11
ATOM     11  CA  LEU E   5      47.903  44.718  16.019  1.00 18.99 LIG 0.18  C 
BRANCH 11 12
ATOM     12  C   LEU E   5      48.988  45.104  17.026  1.00 20.67 LIG 0.24  C 
ATOM     13  N   THR E   6      50.240  44.927  16.600  1.00 21.83 LIG-0.34  N 
ATOM     14 H    THR E   6      50.467  44.551  15.862  1.00 21.83 LIG 0.16  HD
ATOM     15 O    LEU E   5      48.651  45.579  18.087  1.00 20.01 LIG-0.27  OA
BRANCH 13 16
ATOM     16  CA  THR E   6      51.349  45.405  17.444  1.00 24.74 LIG 0.20  C 
BRANCH 16 17
ATOM     17  C   THR E   6      52.117  46.504  16.707  1.00 26.78 LIG 0.24  C 
ATOM     18  N   GLY E   7      52.122  47.689  17.336  1.00 28.46 LIG-0.35  N 
ATOM     19 H    GLY E   7      51.999  47.758  18.184  1.00 28.46 LIG 0.16  HD
ATOM     20 O    THR E   6      52.720  46.303  15.648  1.00 25.34 LIG-0.27  OA
BRANCH 18 21
ATOM     21  CA  GLY E   7      52.330  48.981  16.687  1.00 36.11 LIG 0.23  C 
BRANCH 21 22
ATOM     22  C   GLY E   7      51.218  49.901  17.008  1.00 43.05 LIG 0.19  C 
ATOM     23 OXT  GLY E   7      51.402  51.091  16.749  1.00 50.23 LIG-0.65  OA
ATOM     24 O    GLY E   7      50.151  49.492  17.523  1.00 56.48 LIG-0.65  OA
ENDBRANCH 21 22
ENDBRANCH 18 21
ENDBRANCH 16 17
BRANCH 16 25
ATOM     25  CB  THR E   6      52.273  44.235  17.838  1.00 24.32 LIG 0.15  C 
ATOM     26  CG2 THR E   6      52.894  44.471  19.283  1.00 23.74 LIG 0.04  C 
BRANCH 25 27
ATOM     27 OG1  THR E   6      51.467  43.070  17.854  1.00 30.49 LIG-0.39  OA
ATOM     28 HG1  THR E   6      50.934  43.090  17.206  1.00 30.49 LIG 0.21  HD
ENDBRANCH 25 27
ENDBRANCH 16 25
ENDBRANCH 13 16
ENDBRANCH 11 12
BRANCH 11 29
ATOM     29  CB  LEU E   5      47.461  46.018  15.363  1.00 19.92 LIG 0.04  C 
BRANCH 29 30
ATOM     30  CG  LEU E   5      46.783  46.938  16.418  1.00 17.19 LIG-0.02  C 
ATOM     31  CD1 LEU E   5      46.718  48.344  15.882  1.00 19.71 LIG 0.01  C 
ATOM     32  CD2 LEU E   5      45.418  46.407  16.773  1.00 21.46 LIG 0.01  C 
ENDBRANCH 29 30
ENDBRANCH 11 29
ENDBRANCH 8 11
ENDBRANCH 6 7
BRANCH 6 33
ATOM     33  CB  LEU E   4      46.336  41.141  19.016  1.00 18.44 LIG 0.04  C 
BRANCH 33 34
ATOM     34  CG  LEU E   4      46.669  41.505  20.481  1.00 22.78 LIG-0.02  C 
ATOM     35  CD2 LEU E   4      46.218  42.925  20.873  1.00 23.44 LIG 0.01  C 
ATOM     36  CD1 LEU E   4      48.182  41.339  20.631  1.00 27.53 LIG 0.01  C 
ENDBRANCH 33 34
ENDBRANCH 6 33
ENDBRANCH 4 6
ENDBRANCH 1 2
BRANCH 1 37
ATOM     37  CB  LEU E   3      43.026  40.555  15.386  1.00 29.41 LIG 0.04  C 
BRANCH 37 38
ATOM     38  CG  LEU E   3      42.929  39.012  15.351  1.00 30.90 LIG-0.02  C 
ATOM     39  CD1 LEU E   3      43.934  38.373  16.333  1.00 35.09 LIG 0.01  C 
ATOM     40  CD2 LEU E   3      41.514  38.574  15.684  1.00 39.15 LIG 0.01  C 
ENDBRANCH 37 38
ENDBRANCH 1 37
BRANCH 1 41
ATOM     41  N   LEU E   3      44.953  40.402  13.807  1.00 22.92 LIG-0.35  N 
ATOM     42 H    LEU E   3      45.538  39.816  14.039  1.00 22.92 LIG 0.16  HD
ATOM     43  C   ARG E   2      44.567  40.647  12.560  1.00 28.87 LIG 0.24  C 
ATOM     44 O    ARG E   2      43.717  41.548  12.299  1.00 29.44 LIG-0.27  OA
BRANCH 43 45
ATOM     45  CA  ARG E   2      45.186  39.815  11.413  1.00 32.90 LIG 0.18  C 
BRANCH 45 46
ATOM     46  CB  ARG E   2      44.171  39.597  10.303  1.00 32.53 LIG 0.04  C 
BRANCH 46 47
ATOM     47  CG  ARG E   2      43.069  38.648  10.616  1.00 34.92 LIG 0.02  C 
BRANCH 47 48
ATOM     48  CD  ARG E   2      42.850  37.765   9.439  1.00 37.57 LIG 0.14  C 
BRANCH 48 49
ATOM     49  NE  ARG E   2      41.453  37.349   9.241  1.00 41.00 LIG-0.23  N 
ATOM     50 HE   ARG E   2      41.268  36.511   9.288  1.00 41.00 LIG 0.18  HD
ATOM     51  CZ  ARG E   2      40.450  38.204   8.993  1.00 43.22 LIG 0.67  C 
ATOM     52  NH2 ARG E   2      39.203  37.762   8.896  1.00 39.75 LIG-0.23  N 
ATOM     53  NH1 ARG E   2      40.688  39.519   8.839  1.00 41.20 LIG-0.23  N 
ATOM     54 2HH2 ARG E   2      38.563  38.312   8.737  1.00 39.75 LIG 0.17  HD
ATOM     55 1HH2 ARG E   2      39.035  36.924   8.993  1.00 39.75 LIG 0.17  HD
ATOM     56 1HH1 ARG E   2      41.492  39.820   8.899  1.00 41.20 LIG 0.17  HD
ATOM     57 2HH1 ARG E   2      40.038  40.057   8.680  1.00 41.20 LIG 0.17  HD
ENDBRANCH 48 49
ENDBRANCH 47 48
ENDBRANCH 46 47
ENDBRANCH 45 46
BRANCH 45 58
ATOM     58  N   ARG E   2      45.451  38.449  11.891  1.00 36.64 LIG-0.35  N 
ATOM     59 H    ARG E   2      44.737  38.023  12.113  1.00 36.64 LIG 0.16  HD
ATOM     60  C   ASN E   1      46.651  37.918  11.974  1.00 41.83 LIG 0.25  C 
ATOM     61 O    ASN E   1      47.657  38.539  11.600  1.00 38.61 LIG-0.27  OA
BRANCH 60 62
ATOM     62  CA  ASN E   1      46.708  36.430  12.472  1.00 50.15 LIG 0.28  C 
BRANCH 62 63
ATOM     63  CB  ASN E   1      45.885  36.142  13.773  1.00 58.25 LIG 0.14  C 
BRANCH 63 64
ATOM     64  CG  ASN E   1      44.368  35.838  13.515  1.00 70.07 LIG 0.22  C 
ATOM     65 OD1  ASN E   1      43.797  36.120  12.448  1.00 69.16 LIG-0.27  OA
ATOM     66  ND2 ASN E   1      43.718  35.249  14.523  1.00 65.88 LIG-0.37  N 
ATOM     67 22HD ASN E   1      44.134  35.064  15.252  1.00 65.88 LIG 0.16  HD
ATOM     68 21HD ASN E   1      42.884  35.057  14.442  1.00 65.88 LIG 0.16  HD
ENDBRANCH 63 64
ENDBRANCH 62 63
BRANCH 62 69
ATOM     69  N   ASN E   1      48.116  35.967  12.636  1.00 55.39 LIG-0.07  N 
ATOM     70 H1   ASN E   1      48.458  36.315  13.380  1.00 55.39 LIG 0.28  HD
ATOM     71 H2   ASN E   1      48.133  35.079  12.688  1.00 55.39 LIG 0.28  HD
ATOM     72 H3   ASN E   1      48.599  36.233  11.937  1.00 55.39 LIG 0.28  HD
ENDBRANCH 62 69
ENDBRANCH 60 62
ENDBRANCH 45 58
ENDBRANCH 43 45
ENDBRANCH 1 41
TORSDOF 28
ENDMDL
MODEL 24
USER: ADFR SOLUTION from run 86
USER: SCORE 24.448427 LL:  -4.923 LR: -20.343 RR:   0.000 FEB: -11.991
USER: RMSD 12.873588
USER: SEED 85
USER: STATUS searching
USER: GENES 30
USER: genes 0 Translation |==|  0.42424 0.34603 0.41725
USER: genes 1 Rotation |==|  0.42667 0.07604 0.75206 0.53669
USER: genes 2 Torsion [N]-CA--C-[N] |==|  0.33769
USER: genes 3 Torsion [C]-N--CA-[C] |==|  0.83785
USER: genes 4 Torsion [N]-CA--C-[N] |==|  0.37671
USER: genes 5 Torsion [C]-N--CA-[C] |==|  0.67239
USER: genes 6 Torsion [N]-CA--C-[N] |==|  0.81674
USER: genes 7 Torsion [C]-N--CA-[C] |==|  0.61552
USER: genes 8 Torsion [N]-CA--C-[N] |==|  0.44313
USER: genes 9 Torsion [C]-N--CA-[C] |==|  0.21284
USER: genes 10 Torsion [N]-CA--C-[O] |==|  0.85584
USER: genes 11 Torsion [N]-CA--CB-[CG2] |==|  0.72344
USER: genes 12 Torsion [CA]-CB--OG1-[HG1] |==|  0.21700
USER: genes 13 Torsion [N]-CA--CB-[CG] |==|  0.56252
USER: genes 14 Torsion [CA]-CB--CG-[CD1] |==|  0.67479
USER: genes 15 Torsion [N]-CA--CB-[CG] |==|  0.55240
USER: genes 16 Torsion [CA]-CB--CG-[CD2] |==|  0.42367
USER: genes 17 Torsion [C]-CA--CB-[CG] |==|  0.42888
USER: genes 18 Torsion [CA]-CB--CG-[CD2] |==|  0.76085
USER: genes 19 Torsion [C]-CA--N-[C] |==|  0.71349
USER: genes 20 Torsion [N]-C--CA-[N] |==|  0.35065
USER: genes 21 Torsion [C]-CA--CB-[CG] |==|  0.28355
USER: genes 22 Torsion [CA]-CB--CG-[CD] |==|  0.37915
USER: genes 23 Torsion [CB]-CG--CD-[NE] |==|  0.33361
USER: genes 24 Torsion [CG]-CD--NE-[HE] |==|  0.86394
USER: genes 25 Torsion [C]-CA--N-[C] |==|  0.79695
USER: genes 26 Torsion [N]-C--CA-[N] |==|  0.98808
USER: genes 27 Torsion [C]-CA--CB-[CG] |==|  0.46337
USER: genes 28 Torsion [CA]-CB--CG-[OD1] |==|  0.20335
USER: genes 29 Torsion [C]-CA--N-[H2] |==|  0.44368
ROOT
ATOM      1  CA  LEU E   3      44.059  40.656  14.976  1.00 22.83 LIG 0.18  C 
ENDROOT
BRANCH 1 2
ATOM      2  C   LEU E   3      45.324  41.324  15.610  1.00 19.55 LIG 0.24  C 
ATOM      3 O    LEU E   3      46.343  40.684  15.811  1.00 19.60 LIG-0.27  OA
ATOM      4  N   LEU E   4      45.215  42.596  15.913  1.00 19.32 LIG-0.35  N 
ATOM      5 H    LEU E   4      44.472  43.024  15.974  1.00 19.32 LIG 0.16  HD
BRANCH 4 6
ATOM      6  CA  LEU E   4      46.451  43.415  16.183  1.00 17.74 LIG 0.18  C 
BRANCH 6 7
ATOM      7  C   LEU E   4      47.250  42.852  17.305  1.00 18.94 LIG 0.24  C 
ATOM      8  N   LEU E   5      48.590  42.793  17.096  1.00 19.76 LIG-0.35  N 
ATOM      9 H    LEU E   5      48.988  43.125  16.409  1.00 19.76 LIG 0.16  HD
ATOM     10 O    LEU E   4      46.690  42.399  18.348  1.00 20.41 LIG-0.27  OA
BRANCH 8 11
ATOM     11  CA  LEU E   5      49.472  42.141  18.056  1.00 18.99 LIG 0.18  C 
BRANCH 11 12
ATOM     12  C   LEU E   5      50.431  43.210  18.584  1.00 20.67 LIG 0.24  C 
ATOM     13  N   THR E   6      51.277  43.704  17.678  1.00 21.83 LIG-0.34  N 
ATOM     14 H    THR E   6      51.370  43.416  16.874  1.00 21.83 LIG 0.16  HD
ATOM     15 O    LEU E   5      50.326  43.564  19.737  1.00 20.01 LIG-0.27  OA
BRANCH 13 16
ATOM     16  CA  THR E   6      52.138  44.837  18.058  1.00 24.74 LIG 0.20  C 
BRANCH 16 17
ATOM     17  C   THR E   6      52.198  45.843  16.906  1.00 26.78 LIG 0.24  C 
ATOM     18  N   GLY E   7      52.575  47.078  17.274  1.00 28.46 LIG-0.35  N 
ATOM     19 H    GLY E   7      53.036  47.223  17.985  1.00 28.46 LIG 0.16  HD
ATOM     20 O    THR E   6      51.965  45.533  15.734  1.00 25.34 LIG-0.27  OA
BRANCH 18 21
ATOM     21  CA  GLY E   7      52.265  48.302  16.540  1.00 36.11 LIG 0.23  C 
BRANCH 21 22
ATOM     22  C   GLY E   7      50.859  48.696  16.773  1.00 43.05 LIG 0.19  C 
ATOM     23 OXT  GLY E   7      50.672  49.855  17.148  1.00 50.23 LIG-0.65  OA
ATOM     24 O    GLY E   7      49.912  47.892  16.605  1.00 56.48 LIG-0.65  OA
ENDBRANCH 21 22
ENDBRANCH 18 21
ENDBRANCH 16 17
BRANCH 16 25
ATOM     25  CB  THR E   6      53.546  44.341  18.449  1.00 24.32 LIG 0.15  C 
ATOM     26  CG2 THR E   6      53.692  44.257  20.031  1.00 23.74 LIG 0.04  C 
BRANCH 25 27
ATOM     27 OG1  THR E   6      53.688  43.047  17.892  1.00 30.49 LIG-0.39  OA
ATOM     28 HG1  THR E   6      53.856  43.112  17.072  1.00 30.49 LIG 0.21  HD
ENDBRANCH 25 27
ENDBRANCH 16 25
ENDBRANCH 13 16
ENDBRANCH 11 12
BRANCH 11 29
ATOM     29  CB  LEU E   5      50.348  41.078  17.408  1.00 19.92 LIG 0.04  C 
BRANCH 29 30
ATOM     30  CG  LEU E   5      50.823  40.058  18.483  1.00 17.19 LIG-0.02  C 
ATOM     31  CD1 LEU E   5      52.324  40.115  18.592  1.00 19.71 LIG 0.01  C 
ATOM     32  CD2 LEU E   5      50.151  40.339  19.802  1.00 21.46 LIG 0.01  C 
ENDBRANCH 29 30
ENDBRANCH 11 29
ENDBRANCH 8 11
ENDBRANCH 6 7
BRANCH 6 33
ATOM     33  CB  LEU E   4      46.005  44.867  16.552  1.00 18.44 LIG 0.04  C 
BRANCH 33 34
ATOM     34  CG  LEU E   4      47.182  45.854  16.379  1.00 22.78 LIG-0.02  C 
ATOM     35  CD2 LEU E   4      46.729  47.292  16.060  1.00 23.44 LIG 0.01  C 
ATOM     36  CD1 LEU E   4      48.058  45.285  15.262  1.00 27.53 LIG 0.01  C 
ENDBRANCH 33 34
ENDBRANCH 6 33
ENDBRANCH 4 6
ENDBRANCH 1 2
BRANCH 1 37
ATOM     37  CB  LEU E   3      43.558  39.572  15.936  1.00 29.41 LIG 0.04  C 
BRANCH 37 38
ATOM     38  CG  LEU E   3      42.058  39.203  15.864  1.00 30.90 LIG-0.02  C 
ATOM     39  CD1 LEU E   3      41.827  37.737  16.292  1.00 35.09 LIG 0.01  C 
ATOM     40  CD2 LEU E   3      41.251  40.142  16.743  1.00 39.15 LIG 0.01  C 
ENDBRANCH 37 38
ENDBRANCH 1 37
BRANCH 1 41
ATOM     41  N   LEU E   3      44.371  40.082  13.632  1.00 22.92 LIG-0.35  N 
ATOM     42 H    LEU E   3      44.801  39.337  13.636  1.00 22.92 LIG 0.16  HD
ATOM     43  C   ARG E   2      43.980  40.735  12.544  1.00 28.87 LIG 0.24  C 
ATOM     44 O    ARG E   2      43.373  41.844  12.624  1.00 29.44 LIG-0.27  OA
BRANCH 43 45
ATOM     45  CA  ARG E   2      44.288  40.122  11.158  1.00 32.90 LIG 0.18  C 
BRANCH 45 46
ATOM     46  CB  ARG E   2      45.131  41.076  10.327  1.00 32.53 LIG 0.04  C 
BRANCH 46 47
ATOM     47  CG  ARG E   2      46.580  40.751  10.247  1.00 34.92 LIG 0.02  C 
BRANCH 47 48
ATOM     48  CD  ARG E   2      47.031  40.925   8.840  1.00 37.57 LIG 0.14  C 
BRANCH 48 49
ATOM     49  NE  ARG E   2      48.098  41.922   8.662  1.00 41.00 LIG-0.23  N 
ATOM     50 HE   ARG E   2      47.997  42.695   9.026  1.00 41.00 LIG 0.18  HD
ATOM     51  CZ  ARG E   2      49.220  41.696   7.964  1.00 43.22 LIG 0.67  C 
ATOM     52  NH2 ARG E   2      50.169  42.620   7.907  1.00 39.75 LIG-0.23  N 
ATOM     53  NH1 ARG E   2      49.403  40.533   7.314  1.00 41.20 LIG-0.23  N 
ATOM     54 2HH2 ARG E   2      50.888  42.471   7.458  1.00 39.75 LIG 0.17  HD
ATOM     55 1HH2 ARG E   2      50.067  43.368   8.318  1.00 39.75 LIG 0.17  HD
ATOM     56 1HH1 ARG E   2      48.796  39.924   7.343  1.00 41.20 LIG 0.17  HD
ATOM     57 2HH1 ARG E   2      50.126  40.398   6.870  1.00 41.20 LIG 0.17  HD
ENDBRANCH 48 49
ENDBRANCH 47 48
ENDBRANCH 46 47
ENDBRANCH 45 46
BRANCH 45 58
ATOM     58  N   ARG E   2      43.042  40.022  10.383  1.00 36.64 LIG-0.35  N 
ATOM     59 H    ARG E   2      42.991  40.600   9.748  1.00 36.64 LIG 0.16  HD
ATOM     60  C   ASN E   1      42.094  39.143  10.623  1.00 41.83 LIG 0.25  C 
ATOM     61 O    ASN E   1      42.217  38.290  11.515  1.00 38.61 LIG-0.27  OA
BRANCH 60 62
ATOM     62  CA  ASN E   1      40.862  39.180   9.649  1.00 50.15 LIG 0.28  C 
BRANCH 62 63
ATOM     63  CB  ASN E   1      40.581  37.837   8.896  1.00 58.25 LIG 0.14  C 
BRANCH 63 64
ATOM     64  CG  ASN E   1      39.181  37.781   8.189  1.00 70.07 LIG 0.22  C 
ATOM     65 OD1  ASN E   1      38.925  38.418   7.153  1.00 69.16 LIG-0.27  OA
ATOM     66  ND2 ASN E   1      38.271  36.998   8.773  1.00 65.88 LIG-0.37  N 
ATOM     67 22HD ASN E   1      38.471  36.567   9.490  1.00 65.88 LIG 0.16  HD
ATOM     68 21HD ASN E   1      37.484  36.926   8.433  1.00 65.88 LIG 0.16  HD
ENDBRANCH 63 64
ENDBRANCH 62 63
BRANCH 62 69
ATOM     69  N   ASN E   1      40.973  40.307   8.678  1.00 55.39 LIG-0.07  N 
ATOM     70 H1   ASN E   1      41.818  40.384   8.409  1.00 55.39 LIG 0.28  HD
ATOM     71 H2   ASN E   1      40.451  40.146   7.976  1.00 55.39 LIG 0.28  HD
ATOM     72 H3   ASN E   1      40.718  41.063   9.071  1.00 55.39 LIG 0.28  HD
ENDBRANCH 62 69
ENDBRANCH 60 62
ENDBRANCH 45 58
ENDBRANCH 43 45
ENDBRANCH 1 41
TORSDOF 28
ENDMDL
MODEL 25
USER: ADFR SOLUTION from run 133
USER: SCORE 25.150232 LL:  -5.690 LR: -20.270 RR:   0.000 FEB: -11.918
USER: RMSD 11.824250
USER: SEED 132
USER: STATUS no improvement in best in 4 clusters for 5 generations
USER: GENES 30
USER: genes 0 Translation |==|  0.45041 0.35147 0.42579
USER: genes 1 Rotation |==|  0.56827 0.90987 0.22267 0.52083
USER: genes 2 Torsion [N]-CA--C-[N] |==|  0.35561
USER: genes 3 Torsion [C]-N--CA-[C] |==|  0.83632
USER: genes 4 Torsion [N]-CA--C-[N] |==|  0.89444
USER: genes 5 Torsion [C]-N--CA-[C] |==|  0.77061
USER: genes 6 Torsion [N]-CA--C-[N] |==|  0.23785
USER: genes 7 Torsion [C]-N--CA-[C] |==|  0.76474
USER: genes 8 Torsion [N]-CA--C-[N] |==|  0.21825
USER: genes 9 Torsion [C]-N--CA-[C] |==|  0.36077
USER: genes 10 Torsion [N]-CA--C-[O] |==|  0.91679
USER: genes 11 Torsion [N]-CA--CB-[CG2] |==|  0.51728
USER: genes 12 Torsion [CA]-CB--OG1-[HG1] |==|  0.70906
USER: genes 13 Torsion [N]-CA--CB-[CG] |==|  0.71344
USER: genes 14 Torsion [CA]-CB--CG-[CD1] |==|  0.23654
USER: genes 15 Torsion [N]-CA--CB-[CG] |==|  0.50898
USER: genes 16 Torsion [CA]-CB--CG-[CD2] |==|  0.57169
USER: genes 17 Torsion [C]-CA--CB-[CG] |==|  0.56840
USER: genes 18 Torsion [CA]-CB--CG-[CD2] |==|  0.84816
USER: genes 19 Torsion [C]-CA--N-[C] |==|  0.70691
USER: genes 20 Torsion [N]-C--CA-[N] |==|  0.08153
USER: genes 21 Torsion [C]-CA--CB-[CG] |==|  0.33331
USER: genes 22 Torsion [CA]-CB--CG-[CD] |==|  0.94180
USER: genes 23 Torsion [CB]-CG--CD-[NE] |==|  0.41978
USER: genes 24 Torsion [CG]-CD--NE-[HE] |==|  0.02166
USER: genes 25 Torsion [C]-CA--N-[C] |==|  0.68043
USER: genes 26 Torsion [N]-C--CA-[N] |==|  0.51980
USER: genes 27 Torsion [C]-CA--CB-[CG] |==|  0.22304
USER: genes 28 Torsion [CA]-CB--CG-[OD1] |==|  0.96711
USER: genes 29 Torsion [C]-CA--N-[H2] |==|  0.53521
ROOT
ATOM      1  CA  LEU E   3      44.589  40.778  15.200  1.00 22.83 LIG 0.18  C 
ENDROOT
BRANCH 1 2
ATOM      2  C   LEU E   3      45.635  41.699  15.910  1.00 19.55 LIG 0.24  C 
ATOM      3 O    LEU E   3      46.722  41.270  16.260  1.00 19.60 LIG-0.27  OA
ATOM      4  N   LEU E   4      45.269  42.944  16.107  1.00 19.32 LIG-0.35  N 
ATOM      5 H    LEU E   4      44.461  43.231  16.061  1.00 19.32 LIG 0.16  HD
BRANCH 4 6
ATOM      6  CA  LEU E   4      46.303  43.989  16.442  1.00 17.74 LIG 0.18  C 
BRANCH 6 7
ATOM      7  C   LEU E   4      47.046  43.650  17.685  1.00 18.94 LIG 0.24  C 
ATOM      8  N   LEU E   5      46.306  43.083  18.672  1.00 19.76 LIG-0.35  N 
ATOM      9 H    LEU E   5      45.483  42.849  18.586  1.00 19.76 LIG 0.16  HD
ATOM     10 O    LEU E   4      48.272  43.943  17.819  1.00 20.41 LIG-0.27  OA
BRANCH 8 11
ATOM     11  CA  LEU E   5      46.879  42.826  19.988  1.00 18.99 LIG 0.18  C 
BRANCH 11 12
ATOM     12  C   LEU E   5      47.641  41.503  19.897  1.00 20.67 LIG 0.24  C 
ATOM     13  N   THR E   6      48.896  41.605  19.457  1.00 21.83 LIG-0.34  N 
ATOM     14 H    THR E   6      49.262  42.323  19.157  1.00 21.83 LIG 0.16  HD
ATOM     15 O    LEU E   5      47.091  40.490  20.269  1.00 20.01 LIG-0.27  OA
BRANCH 13 16
ATOM     16  CA  THR E   6      49.752  40.407  19.472  1.00 24.74 LIG 0.20  C 
BRANCH 16 17
ATOM     17  C   THR E   6      50.388  40.249  20.855  1.00 26.78 LIG 0.24  C 
ATOM     18  N   GLY E   7      49.567  39.729  21.782  1.00 28.46 LIG-0.35  N 
ATOM     19 H    GLY E   7      48.888  39.245  21.572  1.00 28.46 LIG 0.16  HD
ATOM     20 O    THR E   6      51.567  40.532  21.085  1.00 25.34 LIG-0.27  OA
BRANCH 18 21
ATOM     21  CA  GLY E   7      49.711  39.909  23.224  1.00 36.11 LIG 0.23  C 
BRANCH 21 22
ATOM     22  C   GLY E   7      48.430  40.348  23.816  1.00 43.05 LIG 0.19  C 
ATOM     23 OXT  GLY E   7      48.217  39.997  24.978  1.00 50.23 LIG-0.65  OA
ATOM     24 O    GLY E   7      47.604  41.032  23.168  1.00 56.48 LIG-0.65  OA
ENDBRANCH 21 22
ENDBRANCH 18 21
ENDBRANCH 16 17
BRANCH 16 25
ATOM     25  CB  THR E   6      50.822  40.491  18.364  1.00 24.32 LIG 0.15  C 
ATOM     26  CG2 THR E   6      51.645  39.133  18.273  1.00 23.74 LIG 0.04  C 
BRANCH 25 27
ATOM     27 OG1  THR E   6      50.129  40.707  17.148  1.00 30.49 LIG-0.39  OA
ATOM     28 HG1  THR E   6      50.117  39.995  16.702  1.00 30.49 LIG 0.21  HD
ENDBRANCH 25 27
ENDBRANCH 16 25
ENDBRANCH 13 16
ENDBRANCH 11 12
BRANCH 11 29
ATOM     29  CB  LEU E   5      45.812  42.620  21.054  1.00 19.92 LIG 0.04  C 
BRANCH 29 30
ATOM     30  CG  LEU E   5      45.680  43.902  21.925  1.00 17.19 LIG-0.02  C 
ATOM     31  CD1 LEU E   5      44.741  44.866  21.251  1.00 19.71 LIG 0.01  C 
ATOM     32  CD2 LEU E   5      45.218  43.543  23.314  1.00 21.46 LIG 0.01  C 
ENDBRANCH 29 30
ENDBRANCH 11 29
ENDBRANCH 8 11
ENDBRANCH 6 7
BRANCH 6 33
ATOM     33  CB  LEU E   4      45.569  45.356  16.644  1.00 18.44 LIG 0.04  C 
BRANCH 33 34
ATOM     34  CG  LEU E   4      46.592  46.484  16.911  1.00 22.78 LIG-0.02  C 
ATOM     35  CD2 LEU E   4      46.005  47.660  17.714  1.00 23.44 LIG 0.01  C 
ATOM     36  CD1 LEU E   4      47.093  46.941  15.540  1.00 27.53 LIG 0.01  C 
ENDBRANCH 33 34
ENDBRANCH 6 33
ENDBRANCH 4 6
ENDBRANCH 1 2
BRANCH 1 37
ATOM     37  CB  LEU E   3      44.061  39.772  16.228  1.00 29.41 LIG 0.04  C 
BRANCH 37 38
ATOM     38  CG  LEU E   3      43.497  38.438  15.686  1.00 30.90 LIG-0.02  C 
ATOM     39  CD1 LEU E   3      42.939  37.567  16.833  1.00 35.09 LIG 0.01  C 
ATOM     40  CD2 LEU E   3      42.414  38.713  14.657  1.00 39.15 LIG 0.01  C 
ENDBRANCH 37 38
ENDBRANCH 1 37
BRANCH 1 41
ATOM     41  N   LEU E   3      45.196  40.080  14.027  1.00 22.92 LIG-0.35  N 
ATOM     42 H    LEU E   3      45.729  39.432  14.215  1.00 22.92 LIG 0.16  HD
ATOM     43  C   ARG E   2      44.888  40.489  12.802  1.00 28.87 LIG 0.24  C 
ATOM     44 O    ARG E   2      44.114  41.472  12.610  1.00 29.44 LIG-0.27  OA
BRANCH 43 45
ATOM     45  CA  ARG E   2      45.504  39.745  11.594  1.00 32.90 LIG 0.18  C 
BRANCH 45 46
ATOM     46  CB  ARG E   2      44.492  39.628  10.466  1.00 32.53 LIG 0.04  C 
BRANCH 46 47
ATOM     47  CG  ARG E   2      44.884  40.266   9.180  1.00 34.92 LIG 0.02  C 
BRANCH 47 48
ATOM     48  CD  ARG E   2      45.934  41.284   9.453  1.00 37.57 LIG 0.14  C 
BRANCH 48 49
ATOM     49  NE  ARG E   2      46.867  41.509   8.338  1.00 41.00 LIG-0.23  N 
ATOM     50 HE   ARG E   2      46.697  41.132   7.583  1.00 41.00 LIG 0.18  HD
ATOM     51  CZ  ARG E   2      47.968  42.268   8.430  1.00 43.22 LIG 0.67  C 
ATOM     52  NH2 ARG E   2      48.724  42.483   7.361  1.00 39.75 LIG-0.23  N 
ATOM     53  NH1 ARG E   2      48.323  42.825   9.602  1.00 41.20 LIG-0.23  N 
ATOM     54 2HH2 ARG E   2      49.429  42.970   7.424  1.00 39.75 LIG 0.17  HD
ATOM     55 1HH2 ARG E   2      48.509  42.134   6.605  1.00 39.75 LIG 0.17  HD
ATOM     56 1HH1 ARG E   2      47.843  42.696  10.303  1.00 41.20 LIG 0.17  HD
ATOM     57 2HH1 ARG E   2      49.031  43.311   9.649  1.00 41.20 LIG 0.17  HD
ENDBRANCH 48 49
ENDBRANCH 47 48
ENDBRANCH 46 47
ENDBRANCH 45 46
BRANCH 45 58
ATOM     58  N   ARG E   2      45.752  38.342  11.960  1.00 36.64 LIG-0.35  N 
ATOM     59 H    ARG E   2      45.031  37.902  12.124  1.00 36.64 LIG 0.16  HD
ATOM     60  C   ASN E   1      46.948  37.801  12.034  1.00 41.83 LIG 0.25  C 
ATOM     61 O    ASN E   1      47.966  38.447  11.745  1.00 38.61 LIG-0.27  OA
BRANCH 60 62
ATOM     62  CA  ASN E   1      46.988  36.275  12.404  1.00 50.15 LIG 0.28  C 
BRANCH 62 63
ATOM     63  CB  ASN E   1      46.078  35.870  13.613  1.00 58.25 LIG 0.14  C 
BRANCH 63 64
ATOM     64  CG  ASN E   1      44.564  35.691  13.241  1.00 70.07 LIG 0.22  C 
ATOM     65 OD1  ASN E   1      44.090  36.058  12.153  1.00 69.16 LIG-0.27  OA
ATOM     66  ND2 ASN E   1      43.806  35.111  14.176  1.00 65.88 LIG-0.37  N 
ATOM     67 22HD ASN E   1      44.157  34.864  14.922  1.00 65.88 LIG 0.16  HD
ATOM     68 21HD ASN E   1      42.968  34.984  14.031  1.00 65.88 LIG 0.16  HD
ENDBRANCH 63 64
ENDBRANCH 62 63
BRANCH 62 69
ATOM     69  N   ASN E   1      48.386  35.808  12.628  1.00 55.39 LIG-0.07  N 
ATOM     70 H1   ASN E   1      48.688  36.132  13.400  1.00 55.39 LIG 0.28  HD
ATOM     71 H2   ASN E   1      48.402  34.919  12.653  1.00 55.39 LIG 0.28  HD
ATOM     72 H3   ASN E   1      48.904  36.096  11.964  1.00 55.39 LIG 0.28  HD
ENDBRANCH 62 69
ENDBRANCH 60 62
ENDBRANCH 45 58
ENDBRANCH 43 45
ENDBRANCH 1 41
TORSDOF 28
ENDMDL
MODEL 26
USER: ADFR SOLUTION from run 30
USER: SCORE 25.046234 LL:  -5.903 LR: -20.252 RR:   0.000 FEB: -11.900
USER: RMSD 12.638115
USER: SEED 29
USER: STATUS searching
USER: GENES 30
USER: genes 0 Translation |==|  0.44947 0.33100 0.40625
USER: genes 1 Rotation |==|  0.60293 0.92641 0.27084 0.57116
USER: genes 2 Torsion [N]-CA--C-[N] |==|  0.34490
USER: genes 3 Torsion [C]-N--CA-[C] |==|  0.79378
USER: genes 4 Torsion [N]-CA--C-[N] |==|  0.31482
USER: genes 5 Torsion [C]-N--CA-[C] |==|  0.81059
USER: genes 6 Torsion [N]-CA--C-[N] |==|  0.44438
USER: genes 7 Torsion [C]-N--CA-[C] |==|  0.68947
USER: genes 8 Torsion [N]-CA--C-[N] |==|  0.91715
USER: genes 9 Torsion [C]-N--CA-[C] |==|  0.44704
USER: genes 10 Torsion [N]-CA--C-[O] |==|  0.97299
USER: genes 11 Torsion [N]-CA--CB-[CG2] |==|  0.69170
USER: genes 12 Torsion [CA]-CB--OG1-[HG1] |==|  0.68247
USER: genes 13 Torsion [N]-CA--CB-[CG] |==|  0.62258
USER: genes 14 Torsion [CA]-CB--CG-[CD1] |==|  0.60552
USER: genes 15 Torsion [N]-CA--CB-[CG] |==|  0.58046
USER: genes 16 Torsion [CA]-CB--CG-[CD2] |==|  0.48418
USER: genes 17 Torsion [C]-CA--CB-[CG] |==|  0.09576
USER: genes 18 Torsion [CA]-CB--CG-[CD2] |==|  0.55352
USER: genes 19 Torsion [C]-CA--N-[C] |==|  0.67862
USER: genes 20 Torsion [N]-C--CA-[N] |==|  0.12222
USER: genes 21 Torsion [C]-CA--CB-[CG] |==|  0.33166
USER: genes 22 Torsion [CA]-CB--CG-[CD] |==|  0.97618
USER: genes 23 Torsion [CB]-CG--CD-[NE] |==|  0.48353
USER: genes 24 Torsion [CG]-CD--NE-[HE] |==|  0.22680
USER: genes 25 Torsion [C]-CA--N-[C] |==|  0.65514
USER: genes 26 Torsion [N]-C--CA-[N] |==|  0.58954
USER: genes 27 Torsion [C]-CA--CB-[CG] |==|  0.83327
USER: genes 28 Torsion [CA]-CB--CG-[OD1] |==|  0.00322
USER: genes 29 Torsion [C]-CA--N-[H2] |==|  0.03074
ROOT
ATOM      1  CA  LEU E   3      44.570  40.317  14.687  1.00 22.83 LIG 0.18  C 
ENDROOT
BRANCH 1 2
ATOM      2  C   LEU E   3      45.359  41.094  15.793  1.00 19.55 LIG 0.24  C 
ATOM      3 O    LEU E   3      46.290  40.575  16.388  1.00 19.60 LIG-0.27  OA
ATOM      4  N   LEU E   4      44.956  42.318  16.038  1.00 19.32 LIG-0.35  N 
ATOM      5 H    LEU E   4      44.199  42.644  15.793  1.00 19.32 LIG 0.16  HD
BRANCH 4 6
ATOM      6  CA  LEU E   4      45.846  43.266  16.802  1.00 17.74 LIG 0.18  C 
BRANCH 6 7
ATOM      7  C   LEU E   4      45.887  42.935  18.252  1.00 18.94 LIG 0.24  C 
ATOM      8  N   LEU E   5      47.084  42.496  18.717  1.00 19.76 LIG-0.35  N 
ATOM      9 H    LEU E   5      47.807  42.478  18.252  1.00 19.76 LIG 0.16  HD
ATOM     10 O    LEU E   4      44.844  42.997  18.970  1.00 20.41 LIG-0.27  OA
BRANCH 8 11
ATOM     11  CA  LEU E   5      47.226  42.010  20.084  1.00 18.99 LIG 0.18  C 
BRANCH 11 12
ATOM     12  C   LEU E   5      47.042  43.213  21.012  1.00 20.67 LIG 0.24  C 
ATOM     13  N   THR E   6      46.725  42.909  22.271  1.00 21.83 LIG-0.34  N 
ATOM     14 H    THR E   6      46.546  42.121  22.564  1.00 21.83 LIG 0.16  HD
ATOM     15 O    LEU E   5      47.241  44.322  20.568  1.00 20.01 LIG-0.27  OA
BRANCH 13 16
ATOM     16  CA  THR E   6      46.670  43.993  23.268  1.00 24.74 LIG 0.20  C 
BRANCH 16 17
ATOM     17  C   THR E   6      47.812  43.824  24.272  1.00 26.78 LIG 0.24  C 
ATOM     18  N   GLY E   7      48.187  42.551  24.470  1.00 28.46 LIG-0.35  N 
ATOM     19 H    GLY E   7      48.045  41.936  23.887  1.00 28.46 LIG 0.16  HD
ATOM     20 O    THR E   6      48.370  44.782  24.816  1.00 25.34 LIG-0.27  OA
BRANCH 18 21
ATOM     21  CA  GLY E   7      48.865  42.054  25.664  1.00 36.11 LIG 0.23  C 
BRANCH 21 22
ATOM     22  C   GLY E   7      48.723  40.585  25.760  1.00 43.05 LIG 0.19  C 
ATOM     23 OXT  GLY E   7      49.412  40.026  26.615  1.00 50.23 LIG-0.65  OA
ATOM     24 O    GLY E   7      47.951  39.947  25.008  1.00 56.48 LIG-0.65  OA
ENDBRANCH 21 22
ENDBRANCH 18 21
ENDBRANCH 16 17
BRANCH 16 25
ATOM     25  CB  THR E   6      45.296  44.012  23.971  1.00 24.32 LIG 0.15  C 
ATOM     26  CG2 THR E   6      44.468  45.303  23.550  1.00 23.74 LIG 0.04  C 
BRANCH 25 27
ATOM     27 OG1  THR E   6      44.608  42.849  23.546  1.00 30.49 LIG-0.39  OA
ATOM     28 HG1  THR E   6      43.938  43.071  23.091  1.00 30.49 LIG 0.21  HD
ENDBRANCH 25 27
ENDBRANCH 16 25
ENDBRANCH 13 16
ENDBRANCH 11 12
BRANCH 11 29
ATOM     29  CB  LEU E   5      48.623  41.476  20.367  1.00 19.92 LIG 0.04  C 
BRANCH 29 30
ATOM     30  CG  LEU E   5      48.529  40.135  21.150  1.00 17.19 LIG-0.02  C 
ATOM     31  CD1 LEU E   5      49.633  40.079  22.173  1.00 19.71 LIG 0.01  C 
ATOM     32  CD2 LEU E   5      47.168  39.995  21.781  1.00 21.46 LIG 0.01  C 
ENDBRANCH 29 30
ENDBRANCH 11 29
ENDBRANCH 8 11
ENDBRANCH 6 7
BRANCH 6 33
ATOM     33  CB  LEU E   4      45.284  44.714  16.625  1.00 18.44 LIG 0.04  C 
BRANCH 33 34
ATOM     34  CG  LEU E   4      46.426  45.752  16.716  1.00 22.78 LIG-0.02  C 
ATOM     35  CD2 LEU E   4      45.968  47.191  16.412  1.00 23.44 LIG 0.01  C 
ATOM     36  CD1 LEU E   4      47.503  45.291  15.733  1.00 27.53 LIG 0.01  C 
ENDBRANCH 33 34
ENDBRANCH 6 33
ENDBRANCH 4 6
ENDBRANCH 1 2
BRANCH 1 37
ATOM     37  CB  LEU E   3      43.830  39.154  15.355  1.00 29.41 LIG 0.04  C 
BRANCH 37 38
ATOM     38  CG  LEU E   3      43.294  39.385  16.787  1.00 30.90 LIG-0.02  C 
ATOM     39  CD1 LEU E   3      42.008  40.239  16.764  1.00 35.09 LIG 0.01  C 
ATOM     40  CD2 LEU E   3      43.030  38.052  17.463  1.00 39.15 LIG 0.01  C 
ENDBRANCH 37 38
ENDBRANCH 1 37
BRANCH 1 41
ATOM     41  N   LEU E   3      45.488  39.828  13.615  1.00 22.92 LIG-0.35  N 
ATOM     42 H    LEU E   3      46.072  39.246  13.862  1.00 22.92 LIG 0.16  HD
ATOM     43  C   ARG E   2      45.355  40.304  12.383  1.00 28.87 LIG 0.24  C 
ATOM     44 O    ARG E   2      44.485  41.182  12.106  1.00 29.44 LIG-0.27  OA
BRANCH 43 45
ATOM     45  CA  ARG E   2      46.295  39.774  11.276  1.00 32.90 LIG 0.18  C 
BRANCH 45 46
ATOM     46  CB  ARG E   2      45.665  39.962   9.905  1.00 32.53 LIG 0.04  C 
BRANCH 46 47
ATOM     47  CG  ARG E   2      46.424  40.824   8.960  1.00 34.92 LIG 0.02  C 
BRANCH 47 48
ATOM     48  CD  ARG E   2      47.546  41.466   9.696  1.00 37.57 LIG 0.14  C 
BRANCH 48 49
ATOM     49  NE  ARG E   2      48.464  42.243   8.848  1.00 41.00 LIG-0.23  N 
ATOM     50 HE   ARG E   2      48.237  43.044   8.631  1.00 41.00 LIG 0.18  HD
ATOM     51  CZ  ARG E   2      49.634  41.773   8.394  1.00 43.22 LIG 0.67  C 
ATOM     52  NH2 ARG E   2      50.442  42.557   7.692  1.00 39.75 LIG-0.23  N 
ATOM     53  NH1 ARG E   2      50.010  40.506   8.641  1.00 41.20 LIG-0.23  N 
ATOM     54 2HH2 ARG E   2      51.193  42.253   7.402  1.00 39.75 LIG 0.17  HD
ATOM     55 1HH2 ARG E   2      50.216  43.370   7.526  1.00 39.75 LIG 0.17  HD
ATOM     56 1HH1 ARG E   2      49.497  39.986   9.095  1.00 41.20 LIG 0.17  HD
ATOM     57 2HH1 ARG E   2      50.763  40.215   8.345  1.00 41.20 LIG 0.17  HD
ENDBRANCH 48 49
ENDBRANCH 47 48
ENDBRANCH 46 47
ENDBRANCH 45 46
BRANCH 45 58
ATOM     58  N   ARG E   2      46.406  38.312  11.390  1.00 36.64 LIG-0.35  N 
ATOM     59 H    ARG E   2      45.646  37.911  11.364  1.00 36.64 LIG 0.16  HD
ATOM     60  C   ASN E   1      47.545  37.668  11.519  1.00 41.83 LIG 0.25  C 
ATOM     61 O    ASN E   1      48.630  38.269  11.505  1.00 38.61 LIG-0.27  OA
BRANCH 60 62
ATOM     62  CA  ASN E   1      47.444  36.102  11.585  1.00 50.15 LIG 0.28  C 
BRANCH 62 63
ATOM     63  CB  ASN E   1      46.041  35.554  12.013  1.00 58.25 LIG 0.14  C 
BRANCH 63 64
ATOM     64  CG  ASN E   1      45.577  36.027  13.436  1.00 70.07 LIG 0.22  C 
ATOM     65 OD1  ASN E   1      46.256  36.788  14.146  1.00 69.16 LIG-0.27  OA
ATOM     66  ND2 ASN E   1      44.394  35.558  13.842  1.00 65.88 LIG-0.37  N 
ATOM     67 22HD ASN E   1      43.943  35.032  13.333  1.00 65.88 LIG 0.16  HD
ATOM     68 21HD ASN E   1      44.085  35.782  14.612  1.00 65.88 LIG 0.16  HD
ENDBRANCH 63 64
ENDBRANCH 62 63
BRANCH 62 69
ATOM     69  N   ASN E   1      48.513  35.526  12.449  1.00 55.39 LIG-0.07  N 
ATOM     70 H1   ASN E   1      49.110  35.103  11.942  1.00 55.39 LIG 0.28  HD
ATOM     71 H2   ASN E   1      48.916  36.180  12.899  1.00 55.39 LIG 0.28  HD
ATOM     72 H3   ASN E   1      48.152  34.950  13.023  1.00 55.39 LIG 0.28  HD
ENDBRANCH 62 69
ENDBRANCH 60 62
ENDBRANCH 45 58
ENDBRANCH 43 45
ENDBRANCH 1 41
TORSDOF 28
ENDMDL
MODEL 27
USER: ADFR SOLUTION from run 17
USER: SCORE 24.730152 LL:  -5.988 LR: -20.232 RR:   0.000 FEB: -11.880
USER: RMSD 6.169930
USER: SEED 16
USER: STATUS no improvement in best in 3 clusters for 5 generations
USER: GENES 30
USER: genes 0 Translation |==|  0.53891 0.44538 0.63245
USER: genes 1 Rotation |==|  0.22661 0.47245 0.08238 0.50952
USER: genes 2 Torsion [N]-CA--C-[N] |==|  0.87379
USER: genes 3 Torsion [C]-N--CA-[C] |==|  0.74016
USER: genes 4 Torsion [N]-CA--C-[N] |==|  0.38800
USER: genes 5 Torsion [C]-N--CA-[C] |==|  0.65000
USER: genes 6 Torsion [N]-CA--C-[N] |==|  0.41495
USER: genes 7 Torsion [C]-N--CA-[C] |==|  0.66608
USER: genes 8 Torsion [N]-CA--C-[N] |==|  0.46414
USER: genes 9 Torsion [C]-N--CA-[C] |==|  0.45911
USER: genes 10 Torsion [N]-CA--C-[O] |==|  0.91520
USER: genes 11 Torsion [N]-CA--CB-[CG2] |==|  0.61320
USER: genes 12 Torsion [CA]-CB--OG1-[HG1] |==|  0.46651
USER: genes 13 Torsion [N]-CA--CB-[CG] |==|  0.83821
USER: genes 14 Torsion [CA]-CB--CG-[CD1] |==|  0.47844
USER: genes 15 Torsion [N]-CA--CB-[CG] |==|  0.79531
USER: genes 16 Torsion [CA]-CB--CG-[CD2] |==|  0.90807
USER: genes 17 Torsion [C]-CA--CB-[CG] |==|  0.23905
USER: genes 18 Torsion [CA]-CB--CG-[CD2] |==|  0.08093
USER: genes 19 Torsion [C]-CA--N-[C] |==|  0.63921
USER: genes 20 Torsion [N]-C--CA-[N] |==|  0.98736
USER: genes 21 Torsion [C]-CA--CB-[CG] |==|  0.52436
USER: genes 22 Torsion [CA]-CB--CG-[CD] |==|  0.78488
USER: genes 23 Torsion [CB]-CG--CD-[NE] |==|  0.41606
USER: genes 24 Torsion [CG]-CD--NE-[HE] |==|  0.06452
USER: genes 25 Torsion [C]-CA--N-[C] |==|  0.58582
USER: genes 26 Torsion [N]-C--CA-[N] |==|  0.64823
USER: genes 27 Torsion [C]-CA--CB-[CG] |==|  0.79589
USER: genes 28 Torsion [CA]-CB--CG-[OD1] |==|  0.53951
USER: genes 29 Torsion [C]-CA--N-[H2] |==|  0.96061
ROOT
ATOM      1  CA  LEU E   3      46.381  42.891  20.625  1.00 22.83 LIG 0.18  C 
ENDROOT
BRANCH 1 2
ATOM      2  C   LEU E   3      45.678  42.761  19.233  1.00 19.55 LIG 0.24  C 
ATOM      3 O    LEU E   3      44.469  42.619  19.145  1.00 19.60 LIG-0.27  OA
ATOM      4  N   LEU E   4      46.464  42.808  18.183  1.00 19.32 LIG-0.35  N 
ATOM      5 H    LEU E   4      47.317  42.706  18.203  1.00 19.32 LIG 0.16  HD
BRANCH 4 6
ATOM      6  CA  LEU E   4      45.879  43.054  16.815  1.00 17.74 LIG 0.18  C 
BRANCH 6 7
ATOM      7  C   LEU E   4      45.587  41.781  16.104  1.00 18.94 LIG 0.24  C 
ATOM      8  N   LEU E   5      44.426  41.758  15.401  1.00 19.76 LIG-0.35  N 
ATOM      9 H    LEU E   5      43.915  42.441  15.287  1.00 19.76 LIG 0.16  HD
ATOM     10 O    LEU E   4      46.348  40.774  16.218  1.00 20.41 LIG-0.27  OA
BRANCH 8 11
ATOM     11  CA  LEU E   5      43.952  40.532  14.770  1.00 18.99 LIG 0.18  C 
BRANCH 11 12
ATOM     12  C   LEU E   5      43.708  40.850  13.294  1.00 20.67 LIG 0.24  C 
ATOM     13  N   THR E   6      43.896  39.828  12.459  1.00 21.83 LIG-0.34  N 
ATOM     14 H    THR E   6      44.211  39.058  12.676  1.00 21.83 LIG 0.16  HD
ATOM     15 O    LEU E   5      43.320  41.958  12.997  1.00 20.01 LIG-0.27  OA
BRANCH 13 16
ATOM     16  CA  THR E   6      43.546  39.999  11.039  1.00 24.74 LIG 0.20  C 
BRANCH 16 17
ATOM     17  C   THR E   6      42.481  38.973  10.645  1.00 26.78 LIG 0.24  C 
ATOM     18  N   GLY E   7      41.896  39.213   9.462  1.00 28.46 LIG-0.35  N 
ATOM     19 H    GLY E   7      42.278  39.681   8.849  1.00 28.46 LIG 0.16  HD
ATOM     20 O    THR E   6      42.218  37.984  11.337  1.00 25.34 LIG-0.27  OA
BRANCH 18 21
ATOM     21  CA  GLY E   7      40.577  38.729   9.066  1.00 36.11 LIG 0.23  C 
BRANCH 21 22
ATOM     22  C   GLY E   7      40.102  39.456   7.869  1.00 43.05 LIG 0.19  C 
ATOM     23 OXT  GLY E   7      39.369  38.827   7.104  1.00 50.23 LIG-0.65  OA
ATOM     24 O    GLY E   7      40.434  40.643   7.644  1.00 56.48 LIG-0.65  OA
ENDBRANCH 21 22
ENDBRANCH 18 21
ENDBRANCH 16 17
BRANCH 16 25
ATOM     25  CB  THR E   6      44.803  39.878  10.152  1.00 24.32 LIG 0.15  C 
ATOM     26  CG2 THR E   6      44.778  40.965   8.991  1.00 23.74 LIG 0.04  C 
BRANCH 25 27
ATOM     27 OG1  THR E   6      45.917  40.113  10.995  1.00 30.49 LIG-0.39  OA
ATOM     28 HG1  THR E   6      46.622  39.896  10.594  1.00 30.49 LIG 0.21  HD
ENDBRANCH 25 27
ENDBRANCH 16 25
ENDBRANCH 13 16
ENDBRANCH 11 12
BRANCH 11 29
ATOM     29  CB  LEU E   5      42.611  40.075  15.326  1.00 19.92 LIG 0.04  C 
BRANCH 29 30
ATOM     30  CG  LEU E   5      42.724  39.850  16.861  1.00 17.19 LIG-0.02  C 
ATOM     31  CD1 LEU E   5      41.353  39.586  17.427  1.00 19.71 LIG 0.01  C 
ATOM     32  CD2 LEU E   5      43.681  38.724  17.154  1.00 21.46 LIG 0.01  C 
ENDBRANCH 29 30
ENDBRANCH 11 29
ENDBRANCH 8 11
ENDBRANCH 6 7
BRANCH 6 33
ATOM     33  CB  LEU E   4      46.916  43.878  15.982  1.00 18.44 LIG 0.04  C 
BRANCH 33 34
ATOM     34  CG  LEU E   4      46.957  45.344  16.469  1.00 22.78 LIG-0.02  C 
ATOM     35  CD2 LEU E   4      45.593  45.859  16.967  1.00 23.44 LIG 0.01  C 
ATOM     36  CD1 LEU E   4      47.468  46.173  15.289  1.00 27.53 LIG 0.01  C 
ENDBRANCH 33 34
ENDBRANCH 6 33
ENDBRANCH 4 6
ENDBRANCH 1 2
BRANCH 1 37
ATOM     37  CB  LEU E   3      46.736  44.365  20.846  1.00 29.41 LIG 0.04  C 
BRANCH 37 38
ATOM     38  CG  LEU E   3      45.644  45.271  21.461  1.00 30.90 LIG-0.02  C 
ATOM     39  CD1 LEU E   3      44.822  45.973  20.358  1.00 35.09 LIG 0.01  C 
ATOM     40  CD2 LEU E   3      44.733  44.450  22.355  1.00 39.15 LIG 0.01  C 
ENDBRANCH 37 38
ENDBRANCH 1 37
BRANCH 1 41
ATOM     41  N   LEU E   3      47.598  42.027  20.695  1.00 22.92 LIG-0.35  N 
ATOM     42 H    LEU E   3      48.148  42.106  20.038  1.00 22.92 LIG 0.16  HD
ATOM     43  C   ARG E   2      47.754  41.214  21.733  1.00 28.87 LIG 0.24  C 
ATOM     44 O    ARG E   2      46.882  41.138  22.647  1.00 29.44 LIG-0.27  OA
BRANCH 43 45
ATOM     45  CA  ARG E   2      49.028  40.341  21.807  1.00 32.90 LIG 0.18  C 
BRANCH 45 46
ATOM     46  CB  ARG E   2      49.963  40.853  22.891  1.00 32.53 LIG 0.04  C 
BRANCH 46 47
ATOM     47  CG  ARG E   2      51.312  40.225  22.928  1.00 34.92 LIG 0.02  C 
BRANCH 47 48
ATOM     48  CD  ARG E   2      51.197  38.885  23.562  1.00 37.57 LIG 0.14  C 
BRANCH 48 49
ATOM     49  NE  ARG E   2      52.176  37.898  23.080  1.00 41.00 LIG-0.23  N 
ATOM     50 HE   ARG E   2      52.906  38.188  22.731  1.00 41.00 LIG 0.18  HD
ATOM     51  CZ  ARG E   2      51.994  36.572  23.154  1.00 43.22 LIG 0.67  C 
ATOM     52  NH2 ARG E   2      52.953  35.743  22.763  1.00 39.75 LIG-0.23  N 
ATOM     53  NH1 ARG E   2      50.843  36.060  23.625  1.00 41.20 LIG-0.23  N 
ATOM     54 2HH2 ARG E   2      52.833  34.893  22.812  1.00 39.75 LIG 0.17  HD
ATOM     55 1HH2 ARG E   2      53.695  36.055  22.460  1.00 39.75 LIG 0.17  HD
ATOM     56 1HH1 ARG E   2      50.213  36.585  23.883  1.00 41.20 LIG 0.17  HD
ATOM     57 2HH1 ARG E   2      50.738  35.208  23.668  1.00 41.20 LIG 0.17  HD
ENDBRANCH 48 49
ENDBRANCH 47 48
ENDBRANCH 46 47
ENDBRANCH 45 46
BRANCH 45 58
ATOM     58  N   ARG E   2      49.817  40.524  20.579  1.00 36.64 LIG-0.35  N 
ATOM     59 H    ARG E   2      49.734  41.309  20.236  1.00 36.64 LIG 0.16  HD
ATOM     60  C   ASN E   1      50.576  39.592  20.046  1.00 41.83 LIG 0.25  C 
ATOM     61 O    ASN E   1      50.713  38.485  20.589  1.00 38.61 LIG-0.27  OA
BRANCH 60 62
ATOM     62  CA  ASN E   1      51.366  40.007  18.754  1.00 50.15 LIG 0.28  C 
BRANCH 62 63
ATOM     63  CB  ASN E   1      51.122  41.480  18.282  1.00 58.25 LIG 0.14  C 
BRANCH 63 64
ATOM     64  CG  ASN E   1      49.718  41.717  17.624  1.00 70.07 LIG 0.22  C 
ATOM     65 OD1  ASN E   1      49.445  42.736  16.967  1.00 69.16 LIG-0.27  OA
ATOM     66  ND2 ASN E   1      48.821  40.745  17.813  1.00 65.88 LIG-0.37  N 
ATOM     67 22HD ASN E   1      49.033  40.049  18.272  1.00 65.88 LIG 0.16  HD
ATOM     68 21HD ASN E   1      48.033  40.816  17.477  1.00 65.88 LIG 0.16  HD
ENDBRANCH 63 64
ENDBRANCH 62 63
BRANCH 62 69
ATOM     69  N   ASN E   1      51.113  39.055  17.635  1.00 55.39 LIG-0.07  N 
ATOM     70 H1   ASN E   1      51.884  38.843  17.245  1.00 55.39 LIG 0.28  HD
ATOM     71 H2   ASN E   1      50.729  38.318  17.953  1.00 55.39 LIG 0.28  HD
ATOM     72 H3   ASN E   1      50.574  39.436  17.038  1.00 55.39 LIG 0.28  HD
ENDBRANCH 62 69
ENDBRANCH 60 62
ENDBRANCH 45 58
ENDBRANCH 43 45
ENDBRANCH 1 41
TORSDOF 28
ENDMDL
MODEL 28
USER: ADFR SOLUTION from run 18
USER: SCORE 24.361969 LL:  -5.021 LR: -20.227 RR:   0.000 FEB: -11.875
USER: RMSD 12.731250
USER: SEED 17
USER: STATUS no improvement in best in 27 clusters for 5 generations
USER: GENES 30
USER: genes 0 Translation |==|  0.43865 0.34516 0.41009
USER: genes 1 Rotation |==|  0.61107 0.89985 0.22112 0.50303
USER: genes 2 Torsion [N]-CA--C-[N] |==|  0.37545
USER: genes 3 Torsion [C]-N--CA-[C] |==|  0.85405
USER: genes 4 Torsion [N]-CA--C-[N] |==|  0.37364
USER: genes 5 Torsion [C]-N--CA-[C] |==|  0.65309
USER: genes 6 Torsion [N]-CA--C-[N] |==|  0.82061
USER: genes 7 Torsion [C]-N--CA-[C] |==|  0.60836
USER: genes 8 Torsion [N]-CA--C-[N] |==|  0.45297
USER: genes 9 Torsion [C]-N--CA-[C] |==|  0.22955
USER: genes 10 Torsion [N]-CA--C-[O] |==|  0.92189
USER: genes 11 Torsion [N]-CA--CB-[CG2] |==|  0.70788
USER: genes 12 Torsion [CA]-CB--OG1-[HG1] |==|  0.90899
USER: genes 13 Torsion [N]-CA--CB-[CG] |==|  0.57705
USER: genes 14 Torsion [CA]-CB--CG-[CD1] |==|  0.65401
USER: genes 15 Torsion [N]-CA--CB-[CG] |==|  0.57368
USER: genes 16 Torsion [CA]-CB--CG-[CD2] |==|  0.41688
USER: genes 17 Torsion [C]-CA--CB-[CG] |==|  0.24261
USER: genes 18 Torsion [CA]-CB--CG-[CD2] |==|  0.49266
USER: genes 19 Torsion [C]-CA--N-[C] |==|  0.63501
USER: genes 20 Torsion [N]-C--CA-[N] |==|  0.44680
USER: genes 21 Torsion [C]-CA--CB-[CG] |==|  0.25428
USER: genes 22 Torsion [CA]-CB--CG-[CD] |==|  0.05566
USER: genes 23 Torsion [CB]-CG--CD-[NE] |==|  0.25603
USER: genes 24 Torsion [CG]-CD--NE-[HE] |==|  0.89731
USER: genes 25 Torsion [C]-CA--N-[C] |==|  0.80544
USER: genes 26 Torsion [N]-C--CA-[N] |==|  0.40739
USER: genes 27 Torsion [C]-CA--CB-[CG] |==|  0.35406
USER: genes 28 Torsion [CA]-CB--CG-[OD1] |==|  0.01571
USER: genes 29 Torsion [C]-CA--N-[H2] |==|  0.51156
ROOT
ATOM      1  CA  LEU E   3      44.351  40.636  14.788  1.00 22.83 LIG 0.18  C 
ENDROOT
BRANCH 1 2
ATOM      2  C   LEU E   3      45.523  41.358  15.531  1.00 19.55 LIG 0.24  C 
ATOM      3 O    LEU E   3      46.554  40.768  15.811  1.00 19.60 LIG-0.27  OA
ATOM      4  N   LEU E   4      45.325  42.620  15.835  1.00 19.32 LIG-0.35  N 
ATOM      5 H    LEU E   4      44.559  43.009  15.837  1.00 19.32 LIG 0.16  HD
BRANCH 4 6
ATOM      6  CA  LEU E   4      46.491  43.496  16.214  1.00 17.74 LIG 0.18  C 
BRANCH 6 7
ATOM      7  C   LEU E   4      47.303  42.890  17.304  1.00 18.94 LIG 0.24  C 
ATOM      8  N   LEU E   5      48.648  42.925  17.118  1.00 19.76 LIG-0.35  N 
ATOM      9 H    LEU E   5      49.036  43.334  16.469  1.00 19.76 LIG 0.16  HD
ATOM     10 O    LEU E   4      46.754  42.322  18.295  1.00 20.41 LIG-0.27  OA
BRANCH 8 11
ATOM     11  CA  LEU E   5      49.551  42.248  18.041  1.00 18.99 LIG 0.18  C 
BRANCH 11 12
ATOM     12  C   LEU E   5      50.551  43.294  18.540  1.00 20.67 LIG 0.24  C 
ATOM     13  N   THR E   6      51.353  43.798  17.602  1.00 21.83 LIG-0.34  N 
ATOM     14 H    THR E   6      51.399  43.528  16.787  1.00 21.83 LIG 0.16  HD
ATOM     15 O    LEU E   5      50.512  43.622  19.705  1.00 20.01 LIG-0.27  OA
BRANCH 13 16
ATOM     16  CA  THR E   6      52.247  44.913  17.960  1.00 24.74 LIG 0.20  C 
BRANCH 16 17
ATOM     17  C   THR E   6      52.309  45.913  16.803  1.00 26.78 LIG 0.24  C 
ATOM     18  N   GLY E   7      52.792  47.118  17.143  1.00 28.46 LIG-0.35  N 
ATOM     19 H    GLY E   7      53.304  47.230  17.824  1.00 28.46 LIG 0.16  HD
ATOM     20 O    THR E   6      51.985  45.620  15.648  1.00 25.34 LIG-0.27  OA
BRANCH 18 21
ATOM     21  CA  GLY E   7      52.525  48.361  16.424  1.00 36.11 LIG 0.23  C 
BRANCH 21 22
ATOM     22  C   GLY E   7      51.226  48.928  16.847  1.00 43.05 LIG 0.19  C 
ATOM     23 OXT  GLY E   7      51.116  50.153  16.773  1.00 50.23 LIG-0.65  OA
ATOM     24 O    GLY E   7      50.295  48.202  17.266  1.00 56.48 LIG-0.65  OA
ENDBRANCH 21 22
ENDBRANCH 18 21
ENDBRANCH 16 17
BRANCH 16 25
ATOM     25  CB  THR E   6      53.650  44.385  18.326  1.00 24.32 LIG 0.15  C 
ATOM     26  CG2 THR E   6      53.878  44.440  19.899  1.00 23.74 LIG 0.04  C 
BRANCH 25 27
ATOM     27 OG1  THR E   6      53.704  43.040  17.887  1.00 30.49 LIG-0.39  OA
ATOM     28 HG1  THR E   6      52.943  42.693  17.954  1.00 30.49 LIG 0.21  HD
ENDBRANCH 25 27
ENDBRANCH 16 25
ENDBRANCH 13 16
ENDBRANCH 11 12
BRANCH 11 29
ATOM     29  CB  LEU E   5      50.381  41.173  17.354  1.00 19.92 LIG 0.04  C 
BRANCH 29 30
ATOM     30  CG  LEU E   5      50.763  40.066  18.378  1.00 17.19 LIG-0.02  C 
ATOM     31  CD1 LEU E   5      52.260  39.898  18.393  1.00 19.71 LIG 0.01  C 
ATOM     32  CD2 LEU E   5      50.221  40.407  19.742  1.00 21.46 LIG 0.01  C 
ENDBRANCH 29 30
ENDBRANCH 11 29
ENDBRANCH 8 11
ENDBRANCH 6 7
BRANCH 6 33
ATOM     33  CB  LEU E   4      45.931  44.873  16.700  1.00 18.44 LIG 0.04  C 
BRANCH 33 34
ATOM     34  CG  LEU E   4      46.974  45.991  16.473  1.00 22.78 LIG-0.02  C 
ATOM     35  CD2 LEU E   4      46.340  47.371  16.215  1.00 23.44 LIG 0.01  C 
ATOM     36  CD1 LEU E   4      47.832  45.542  15.289  1.00 27.53 LIG 0.01  C 
ENDBRANCH 33 34
ENDBRANCH 6 33
ENDBRANCH 4 6
ENDBRANCH 1 2
BRANCH 1 37
ATOM     37  CB  LEU E   3      43.609  39.760  15.802  1.00 29.41 LIG 0.04  C 
BRANCH 37 38
ATOM     38  CG  LEU E   3      42.472  40.424  16.612  1.00 30.90 LIG-0.02  C 
ATOM     39  CD1 LEU E   3      41.427  41.067  15.675  1.00 35.09 LIG 0.01  C 
ATOM     40  CD2 LEU E   3      41.810  39.397  17.514  1.00 39.15 LIG 0.01  C 
ENDBRANCH 37 38
ENDBRANCH 1 37
BRANCH 1 41
ATOM     41  N   LEU E   3      44.861  39.822  13.644  1.00 22.92 LIG-0.35  N 
ATOM     42 H    LEU E   3      45.526  39.307  13.822  1.00 22.92 LIG 0.16  HD
ATOM     43  C   ARG E   2      44.277  39.938  12.457  1.00 28.87 LIG 0.24  C 
ATOM     44 O    ARG E   2      43.316  40.742  12.271  1.00 29.44 LIG-0.27  OA
BRANCH 43 45
ATOM     45  CA  ARG E   2      44.797  39.074  11.285  1.00 32.90 LIG 0.18  C 
BRANCH 45 46
ATOM     46  CB  ARG E   2      45.953  39.768  10.582  1.00 32.53 LIG 0.04  C 
BRANCH 46 47
ATOM     47  CG  ARG E   2      47.310  39.433  11.090  1.00 34.92 LIG 0.02  C 
BRANCH 47 48
ATOM     48  CD  ARG E   2      47.238  38.146  11.834  1.00 37.57 LIG 0.14  C 
BRANCH 48 49
ATOM     49  NE  ARG E   2      47.516  36.955  11.017  1.00 41.00 LIG-0.23  N 
ATOM     50 HE   ARG E   2      47.233  36.945  10.204  1.00 41.00 LIG 0.18  HD
ATOM     51  CZ  ARG E   2      48.184  35.883  11.466  1.00 43.22 LIG 0.67  C 
ATOM     52  NH2 ARG E   2      48.458  34.875  10.649  1.00 39.75 LIG-0.23  N 
ATOM     53  NH1 ARG E   2      48.588  35.812  12.747  1.00 41.20 LIG-0.23  N 
ATOM     54 2HH2 ARG E   2      48.887  34.189  10.940  1.00 39.75 LIG 0.17  HD
ATOM     55 1HH2 ARG E   2      48.206  34.907   9.827  1.00 39.75 LIG 0.17  HD
ATOM     56 1HH1 ARG E   2      48.418  36.458  13.288  1.00 41.20 LIG 0.17  HD
ATOM     57 2HH1 ARG E   2      49.016  35.120  13.024  1.00 41.20 LIG 0.17  HD
ENDBRANCH 48 49
ENDBRANCH 47 48
ENDBRANCH 46 47
ENDBRANCH 45 46
BRANCH 45 58
ATOM     58  N   ARG E   2      43.768  39.004  10.237  1.00 36.64 LIG-0.35  N 
ATOM     59 H    ARG E   2      43.979  39.439   9.525  1.00 36.64 LIG 0.16  HD
ATOM     60  C   ASN E   1      42.636  38.347  10.360  1.00 41.83 LIG 0.25  C 
ATOM     61 O    ASN E   1      42.381  37.688  11.379  1.00 38.61 LIG-0.27  OA
BRANCH 60 62
ATOM     62  CA  ASN E   1      41.692  38.367   9.105  1.00 50.15 LIG 0.28  C 
BRANCH 62 63
ATOM     63  CB  ASN E   1      40.718  39.590   9.036  1.00 58.25 LIG 0.14  C 
BRANCH 63 64
ATOM     64  CG  ASN E   1      40.775  40.378   7.681  1.00 70.07 LIG 0.22  C 
ATOM     65 OD1  ASN E   1      41.452  39.999   6.710  1.00 69.16 LIG-0.27  OA
ATOM     66  ND2 ASN E   1      40.044  41.495   7.631  1.00 65.88 LIG-0.37  N 
ATOM     67 22HD ASN E   1      39.584  41.738   8.316  1.00 65.88 LIG 0.16  HD
ATOM     68 21HD ASN E   1      40.034  41.970   6.915  1.00 65.88 LIG 0.16  HD
ENDBRANCH 63 64
ENDBRANCH 62 63
BRANCH 62 69
ATOM     69  N   ASN E   1      40.932  37.090   8.978  1.00 55.39 LIG-0.07  N 
ATOM     70 H1   ASN E   1      40.389  36.998   9.676  1.00 55.39 LIG 0.28  HD
ATOM     71 H2   ASN E   1      40.452  37.103   8.228  1.00 55.39 LIG 0.28  HD
ATOM     72 H3   ASN E   1      41.502  36.407   8.954  1.00 55.39 LIG 0.28  HD
ENDBRANCH 62 69
ENDBRANCH 60 62
ENDBRANCH 45 58
ENDBRANCH 43 45
ENDBRANCH 1 41
TORSDOF 28
ENDMDL
MODEL 29
USER: ADFR SOLUTION from run 18
USER: SCORE 25.287245 LL:  -5.554 LR: -20.228 RR:   0.000 FEB: -11.875
USER: RMSD 12.389737
USER: SEED 17
USER: STATUS no improvement in best in 27 clusters for 5 generations
USER: GENES 30
USER: genes 0 Translation |==|  0.42145 0.34366 0.40480
USER: genes 1 Rotation |==|  0.68273 0.90580 0.27273 0.51678
USER: genes 2 Torsion [N]-CA--C-[N] |==|  0.40471
USER: genes 3 Torsion [C]-N--CA-[C] |==|  0.80037
USER: genes 4 Torsion [N]-CA--C-[N] |==|  0.42391
USER: genes 5 Torsion [C]-N--CA-[C] |==|  0.79444
USER: genes 6 Torsion [N]-CA--C-[N] |==|  0.86393
USER: genes 7 Torsion [C]-N--CA-[C] |==|  0.15859
USER: genes 8 Torsion [N]-CA--C-[N] |==|  0.11839
USER: genes 9 Torsion [C]-N--CA-[C] |==|  0.20615
USER: genes 10 Torsion [N]-CA--C-[O] |==|  0.66167
USER: genes 11 Torsion [N]-CA--CB-[CG2] |==|  0.91531
USER: genes 12 Torsion [CA]-CB--OG1-[HG1] |==|  0.34035
USER: genes 13 Torsion [N]-CA--CB-[CG] |==|  0.79614
USER: genes 14 Torsion [CA]-CB--CG-[CD1] |==|  0.24820
USER: genes 15 Torsion [N]-CA--CB-[CG] |==|  0.77565
USER: genes 16 Torsion [CA]-CB--CG-[CD2] |==|  0.88132
USER: genes 17 Torsion [C]-CA--CB-[CG] |==|  0.10629
USER: genes 18 Torsion [CA]-CB--CG-[CD2] |==|  0.65702
USER: genes 19 Torsion [C]-CA--N-[C] |==|  0.66325
USER: genes 20 Torsion [N]-C--CA-[N] |==|  0.03984
USER: genes 21 Torsion [C]-CA--CB-[CG] |==|  0.92585
USER: genes 22 Torsion [CA]-CB--CG-[CD] |==|  0.43946
USER: genes 23 Torsion [CB]-CG--CD-[NE] |==|  0.42363
USER: genes 24 Torsion [CG]-CD--NE-[HE] |==|  0.28462
USER: genes 25 Torsion [C]-CA--N-[C] |==|  0.71941
USER: genes 26 Torsion [N]-C--CA-[N] |==|  0.47887
USER: genes 27 Torsion [C]-CA--CB-[CG] |==|  0.16378
USER: genes 28 Torsion [CA]-CB--CG-[OD1] |==|  0.09264
USER: genes 29 Torsion [C]-CA--N-[H2] |==|  0.85566
ROOT
ATOM      1  CA  LEU E   3      44.002  40.602  14.649  1.00 22.83 LIG 0.18  C 
ENDROOT
BRANCH 1 2
ATOM      2  C   LEU E   3      45.043  40.950  15.764  1.00 19.55 LIG 0.24  C 
ATOM      3 O    LEU E   3      45.968  40.197  16.024  1.00 19.60 LIG-0.27  OA
ATOM      4  N   LEU E   4      44.855  42.085  16.396  1.00 19.32 LIG-0.35  N 
ATOM      5 H    LEU E   4      44.125  42.537  16.386  1.00 19.32 LIG 0.16  HD
BRANCH 4 6
ATOM      6  CA  LEU E   4      45.970  42.684  17.216  1.00 17.74 LIG 0.18  C 
BRANCH 6 7
ATOM      7  C   LEU E   4      46.209  41.914  18.466  1.00 18.94 LIG 0.24  C 
ATOM      8  N   LEU E   5      47.473  41.978  18.958  1.00 19.76 LIG-0.35  N 
ATOM      9 H    LEU E   5      48.091  42.484  18.640  1.00 19.76 LIG 0.16  HD
ATOM     10 O    LEU E   4      45.299  41.197  18.981  1.00 20.41 LIG-0.27  OA
BRANCH 8 11
ATOM     11  CA  LEU E   5      47.877  41.164  20.098  1.00 18.99 LIG 0.18  C 
BRANCH 11 12
ATOM     12  C   LEU E   5      47.239  41.785  21.343  1.00 20.67 LIG 0.24  C 
ATOM     13  N   THR E   6      47.408  43.102  21.465  1.00 21.83 LIG-0.34  N 
ATOM     14 H    THR E   6      47.899  43.591  20.956  1.00 21.83 LIG 0.16  HD
ATOM     15 O    LEU E   5      46.598  41.071  22.082  1.00 20.01 LIG-0.27  OA
BRANCH 13 16
ATOM     16  CA  THR E   6      46.709  43.808  22.552  1.00 24.74 LIG 0.20  C 
BRANCH 16 17
ATOM     17  C   THR E   6      47.094  43.188  23.897  1.00 26.78 LIG 0.24  C 
ATOM     18  N   GLY E   7      48.401  42.908  24.020  1.00 28.46 LIG-0.35  N 
ATOM     19 H    GLY E   7      49.001  43.311  23.554  1.00 28.46 LIG 0.16  HD
ATOM     20 O    THR E   6      46.280  43.006  24.807  1.00 25.34 LIG-0.27  OA
BRANCH 18 21
ATOM     21  CA  GLY E   7      48.963  41.914  24.930  1.00 36.11 LIG 0.23  C 
BRANCH 21 22
ATOM     22  C   GLY E   7      48.703  40.549  24.425  1.00 43.05 LIG 0.19  C 
ATOM     23 OXT  GLY E   7      49.132  40.294  23.299  1.00 50.23 LIG-0.65  OA
ATOM     24 O    GLY E   7      48.073  39.704  25.103  1.00 56.48 LIG-0.65  OA
ENDBRANCH 21 22
ENDBRANCH 18 21
ENDBRANCH 16 17
BRANCH 16 25
ATOM     25  CB  THR E   6      45.183  43.771  22.329  1.00 24.32 LIG 0.15  C 
ATOM     26  CG2 THR E   6      44.844  43.733  20.775  1.00 23.74 LIG 0.04  C 
BRANCH 25 27
ATOM     27 OG1  THR E   6      44.713  42.585  22.944  1.00 30.49 LIG-0.39  OA
ATOM     28 HG1  THR E   6      44.131  42.779  23.518  1.00 30.49 LIG 0.21  HD
ENDBRANCH 25 27
ENDBRANCH 16 25
ENDBRANCH 13 16
ENDBRANCH 11 12
BRANCH 11 29
ATOM     29  CB  LEU E   5      49.380  41.206  20.335  1.00 19.92 LIG 0.04  C 
BRANCH 29 30
ATOM     30  CG  LEU E   5      50.111  40.372  19.244  1.00 17.19 LIG-0.02  C 
ATOM     31  CD1 LEU E   5      50.427  41.260  18.070  1.00 19.71 LIG 0.01  C 
ATOM     32  CD2 LEU E   5      51.350  39.734  19.818  1.00 21.46 LIG 0.01  C 
ENDBRANCH 29 30
ENDBRANCH 11 29
ENDBRANCH 8 11
ENDBRANCH 6 7
BRANCH 6 33
ATOM     33  CB  LEU E   4      45.570  44.150  17.587  1.00 18.44 LIG 0.04  C 
BRANCH 33 34
ATOM     34  CG  LEU E   4      45.856  45.103  16.405  1.00 22.78 LIG-0.02  C 
ATOM     35  CD2 LEU E   4      47.208  44.834  15.719  1.00 23.44 LIG 0.01  C 
ATOM     36  CD1 LEU E   4      45.792  46.522  16.974  1.00 27.53 LIG 0.01  C 
ENDBRANCH 33 34
ENDBRANCH 6 33
ENDBRANCH 4 6
ENDBRANCH 1 2
BRANCH 1 37
ATOM     37  CB  LEU E   3      42.885  39.767  15.281  1.00 29.41 LIG 0.04  C 
BRANCH 37 38
ATOM     38  CG  LEU E   3      42.435  40.152  16.709  1.00 30.90 LIG-0.02  C 
ATOM     39  CD1 LEU E   3      40.981  40.672  16.711  1.00 35.09 LIG 0.01  C 
ATOM     40  CD2 LEU E   3      42.569  38.956  17.635  1.00 39.15 LIG 0.01  C 
ENDBRANCH 37 38
ENDBRANCH 1 37
BRANCH 1 41
ATOM     41  N   LEU E   3      44.650  39.869  13.520  1.00 22.92 LIG-0.35  N 
ATOM     42 H    LEU E   3      45.036  39.130  13.729  1.00 22.92 LIG 0.16  HD
ATOM     43  C   ARG E   2      44.594  40.385  12.298  1.00 28.87 LIG 0.24  C 
ATOM     44 O    ARG E   2      44.028  41.496  12.077  1.00 29.44 LIG-0.27  OA
BRANCH 43 45
ATOM     45  CA  ARG E   2      45.247  39.607  11.132  1.00 32.90 LIG 0.18  C 
BRANCH 45 46
ATOM     46  CB  ARG E   2      44.253  39.409   9.999  1.00 32.53 LIG 0.04  C 
BRANCH 46 47
ATOM     47  CG  ARG E   2      42.819  39.391  10.396  1.00 34.92 LIG 0.02  C 
BRANCH 47 48
ATOM     48  CD  ARG E   2      41.990  39.722   9.206  1.00 37.57 LIG 0.14  C 
BRANCH 48 49
ATOM     49  NE  ARG E   2      40.634  39.152   9.232  1.00 41.00 LIG-0.23  N 
ATOM     50 HE   ARG E   2      39.979  39.671   9.436  1.00 41.00 LIG 0.18  HD
ATOM     51  CZ  ARG E   2      40.361  37.870   8.955  1.00 43.22 LIG 0.67  C 
ATOM     52  NH2 ARG E   2      39.104  37.444   8.929  1.00 39.75 LIG-0.23  N 
ATOM     53  NH1 ARG E   2      41.349  36.995   8.697  1.00 41.20 LIG-0.23  N 
ATOM     54 2HH2 ARG E   2      38.932  36.621   8.751  1.00 39.75 LIG 0.17  HD
ATOM     55 1HH2 ARG E   2      38.461  37.992   9.091  1.00 39.75 LIG 0.17  HD
ATOM     56 1HH1 ARG E   2      42.169  37.256   8.709  1.00 41.20 LIG 0.17  HD
ATOM     57 2HH1 ARG E   2      41.162  36.175   8.520  1.00 41.20 LIG 0.17  HD
ENDBRANCH 48 49
ENDBRANCH 47 48
ENDBRANCH 46 47
ENDBRANCH 45 46
BRANCH 45 58
ATOM     58  N   ARG E   2      45.532  38.231  11.564  1.00 36.64 LIG-0.35  N 
ATOM     59 H    ARG E   2      44.839  37.722  11.555  1.00 36.64 LIG 0.16  HD
ATOM     60  C   ASN E   1      46.722  37.806  11.930  1.00 41.83 LIG 0.25  C 
ATOM     61 O    ASN E   1      47.713  38.550  11.887  1.00 38.61 LIG-0.27  OA
BRANCH 60 62
ATOM     62  CA  ASN E   1      46.817  36.287  12.318  1.00 50.15 LIG 0.28  C 
BRANCH 62 63
ATOM     63  CB  ASN E   1      45.929  35.864  13.537  1.00 58.25 LIG 0.14  C 
BRANCH 63 64
ATOM     64  CG  ASN E   1      44.396  36.134  13.335  1.00 70.07 LIG 0.22  C 
ATOM     65 OD1  ASN E   1      43.839  36.050  12.227  1.00 69.16 LIG-0.27  OA
ATOM     66  ND2 ASN E   1      43.718  36.462  14.438  1.00 65.88 LIG-0.37  N 
ATOM     67 22HD ASN E   1      44.126  36.513  15.193  1.00 65.88 LIG 0.16  HD
ATOM     68 21HD ASN E   1      42.874  36.621  14.391  1.00 65.88 LIG 0.16  HD
ENDBRANCH 63 64
ENDBRANCH 62 63
BRANCH 62 69
ATOM     69  N   ASN E   1      48.232  35.872  12.538  1.00 55.39 LIG-0.07  N 
ATOM     70 H1   ASN E   1      48.270  34.989  12.641  1.00 55.39 LIG 0.28  HD
ATOM     71 H2   ASN E   1      48.724  36.110  11.836  1.00 55.39 LIG 0.28  HD
ATOM     72 H3   ASN E   1      48.547  36.268  13.269  1.00 55.39 LIG 0.28  HD
ENDBRANCH 62 69
ENDBRANCH 60 62
ENDBRANCH 45 58
ENDBRANCH 43 45
ENDBRANCH 1 41
TORSDOF 28
ENDMDL
MODEL 30
USER: ADFR SOLUTION from run 130
USER: SCORE 24.775123 LL:  -5.490 LR: -20.196 RR:   0.000 FEB: -11.844
USER: RMSD 11.964210
USER: SEED 129
USER: STATUS no improvement in best in 12 clusters for 5 generations
USER: GENES 30
USER: genes 0 Translation |==|  0.44502 0.35583 0.41642
USER: genes 1 Rotation |==|  0.57452 0.90207 0.21243 0.50940
USER: genes 2 Torsion [N]-CA--C-[N] |==|  0.36613
USER: genes 3 Torsion [C]-N--CA-[C] |==|  0.84704
USER: genes 4 Torsion [N]-CA--C-[N] |==|  0.88663
USER: genes 5 Torsion [C]-N--CA-[C] |==|  0.80305
USER: genes 6 Torsion [N]-CA--C-[N] |==|  0.43826
USER: genes 7 Torsion [C]-N--CA-[C] |==|  0.59354
USER: genes 8 Torsion [N]-CA--C-[N] |==|  0.17044
USER: genes 9 Torsion [C]-N--CA-[C] |==|  0.38454
USER: genes 10 Torsion [N]-CA--C-[O] |==|  0.89805
USER: genes 11 Torsion [N]-CA--CB-[CG2] |==|  0.48625
USER: genes 12 Torsion [CA]-CB--OG1-[HG1] |==|  0.69480
USER: genes 13 Torsion [N]-CA--CB-[CG] |==|  0.75260
USER: genes 14 Torsion [CA]-CB--CG-[CD1] |==|  0.19503
USER: genes 15 Torsion [N]-CA--CB-[CG] |==|  0.49917
USER: genes 16 Torsion [CA]-CB--CG-[CD2] |==|  0.62871
USER: genes 17 Torsion [C]-CA--CB-[CG] |==|  0.41491
USER: genes 18 Torsion [CA]-CB--CG-[CD2] |==|  0.15241
USER: genes 19 Torsion [C]-CA--N-[C] |==|  0.70382
USER: genes 20 Torsion [N]-C--CA-[N] |==|  0.07114
USER: genes 21 Torsion [C]-CA--CB-[CG] |==|  0.77862
USER: genes 22 Torsion [CA]-CB--CG-[CD] |==|  0.29523
USER: genes 23 Torsion [CB]-CG--CD-[NE] |==|  0.21436
USER: genes 24 Torsion [CG]-CD--NE-[HE] |==|  0.69518
USER: genes 25 Torsion [C]-CA--N-[C] |==|  0.69647
USER: genes 26 Torsion [N]-C--CA-[N] |==|  0.51311
USER: genes 27 Torsion [C]-CA--CB-[CG] |==|  0.23939
USER: genes 28 Torsion [CA]-CB--CG-[OD1] |==|  0.95694
USER: genes 29 Torsion [C]-CA--N-[H2] |==|  0.54229
ROOT
ATOM      1  CA  LEU E   3      44.480  40.876  14.954  1.00 22.83 LIG 0.18  C 
ENDROOT
BRANCH 1 2
ATOM      2  C   LEU E   3      45.592  41.771  15.594  1.00 19.55 LIG 0.24  C 
ATOM      3 O    LEU E   3      46.690  41.315  15.871  1.00 19.60 LIG-0.27  OA
ATOM      4  N   LEU E   4      45.269  43.023  15.817  1.00 19.32 LIG-0.35  N 
ATOM      5 H    LEU E   4      44.466  43.329  15.824  1.00 19.32 LIG 0.16  HD
BRANCH 4 6
ATOM      6  CA  LEU E   4      46.346  44.043  16.084  1.00 17.74 LIG 0.18  C 
BRANCH 6 7
ATOM      7  C   LEU E   4      47.220  43.637  17.218  1.00 18.94 LIG 0.24  C 
ATOM      8  N   LEU E   5      46.580  43.081  18.278  1.00 19.76 LIG-0.35  N 
ATOM      9 H    LEU E   5      45.742  42.889  18.291  1.00 19.76 LIG 0.16  HD
ATOM     10 O    LEU E   4      48.467  43.869  17.203  1.00 20.41 LIG-0.27  OA
BRANCH 8 11
ATOM     11  CA  LEU E   5      47.298  42.764  19.507  1.00 18.99 LIG 0.18  C 
BRANCH 11 12
ATOM     12  C   LEU E   5      48.207  41.572  19.202  1.00 20.67 LIG 0.24  C 
ATOM     13  N   THR E   6      49.247  41.433  20.024  1.00 21.83 LIG-0.34  N 
ATOM     14 H    THR E   6      49.477  41.991  20.636  1.00 21.83 LIG 0.16  HD
ATOM     15 O    LEU E   5      47.901  40.826  18.298  1.00 20.01 LIG-0.27  OA
BRANCH 13 16
ATOM     16  CA  THR E   6      50.094  40.234  19.898  1.00 24.74 LIG 0.20  C 
BRANCH 16 17
ATOM     17  C   THR E   6      50.614  39.826  21.279  1.00 26.78 LIG 0.24  C 
ATOM     18  N   GLY E   7      49.651  39.506  22.156  1.00 28.46 LIG-0.35  N 
ATOM     19 H    GLY E   7      48.871  39.245  21.905  1.00 28.46 LIG 0.16  HD
ATOM     20 O    THR E   6      51.817  39.753  21.545  1.00 25.34 LIG-0.27  OA
BRANCH 18 21
ATOM     21  CA  GLY E   7      49.791  39.557  23.609  1.00 36.11 LIG 0.23  C 
BRANCH 21 22
ATOM     22  C   GLY E   7      48.569  40.120  24.223  1.00 43.05 LIG 0.19  C 
ATOM     23 OXT  GLY E   7      48.218  39.624  25.294  1.00 50.23 LIG-0.65  OA
ATOM     24 O    GLY E   7      47.924  41.045  23.677  1.00 56.48 LIG-0.65  OA
ENDBRANCH 21 22
ENDBRANCH 18 21
ENDBRANCH 16 17
BRANCH 16 25
ATOM     25  CB  THR E   6      51.252  40.490  18.911  1.00 24.32 LIG 0.15  C 
ATOM     26  CG2 THR E   6      52.240  39.245  18.869  1.00 23.74 LIG 0.04  C 
BRANCH 25 27
ATOM     27 OG1  THR E   6      50.664  40.671  17.636  1.00 30.49 LIG-0.39  OA
ATOM     28 HG1  THR E   6      50.844  40.012  17.148  1.00 30.49 LIG 0.21  HD
ENDBRANCH 25 27
ENDBRANCH 16 25
ENDBRANCH 13 16
ENDBRANCH 11 12
BRANCH 11 29
ATOM     29  CB  LEU E   5      46.366  42.305  20.619  1.00 19.92 LIG 0.04  C 
BRANCH 29 30
ATOM     30  CG  LEU E   5      45.873  43.533  21.436  1.00 17.19 LIG-0.02  C 
ATOM     31  CD1 LEU E   5      44.927  44.345  20.591  1.00 19.71 LIG 0.01  C 
ATOM     32  CD2 LEU E   5      45.231  43.080  22.723  1.00 21.46 LIG 0.01  C 
ENDBRANCH 29 30
ENDBRANCH 11 29
ENDBRANCH 8 11
ENDBRANCH 6 7
BRANCH 6 33
ATOM     33  CB  LEU E   4      45.657  45.403  16.433  1.00 18.44 LIG 0.04  C 
BRANCH 33 34
ATOM     34  CG  LEU E   4      46.719  46.488  16.725  1.00 22.78 LIG-0.02  C 
ATOM     35  CD2 LEU E   4      46.419  47.308  17.994  1.00 23.44 LIG 0.01  C 
ATOM     36  CD1 LEU E   4      46.771  47.381  15.484  1.00 27.53 LIG 0.01  C 
ENDBRANCH 33 34
ENDBRANCH 6 33
ENDBRANCH 4 6
ENDBRANCH 1 2
BRANCH 1 37
ATOM     37  CB  LEU E   3      43.931  39.945  16.039  1.00 29.41 LIG 0.04  C 
BRANCH 37 38
ATOM     38  CG  LEU E   3      42.449  39.519  15.922  1.00 30.90 LIG-0.02  C 
ATOM     39  CD1 LEU E   3      41.508  40.722  16.144  1.00 35.09 LIG 0.01  C 
ATOM     40  CD2 LEU E   3      42.195  38.895  14.561  1.00 39.15 LIG 0.01  C 
ENDBRANCH 37 38
ENDBRANCH 1 37
BRANCH 1 41
ATOM     41  N   LEU E   3      45.016  40.098  13.797  1.00 22.92 LIG-0.35  N 
ATOM     42 H    LEU E   3      45.533  39.440  13.999  1.00 22.92 LIG 0.16  HD
ATOM     43  C   ARG E   2      44.676  40.455  12.564  1.00 28.87 LIG 0.24  C 
ATOM     44 O    ARG E   2      43.930  41.456  12.351  1.00 29.44 LIG-0.27  OA
BRANCH 43 45
ATOM     45  CA  ARG E   2      45.219  39.629  11.375  1.00 32.90 LIG 0.18  C 
BRANCH 45 46
ATOM     46  CB  ARG E   2      44.132  39.416  10.333  1.00 32.53 LIG 0.04  C 
BRANCH 46 47
ATOM     47  CG  ARG E   2      43.153  38.337  10.635  1.00 34.92 LIG 0.02  C 
BRANCH 47 48
ATOM     48  CD  ARG E   2      41.863  38.960  11.033  1.00 37.57 LIG 0.14  C 
BRANCH 48 49
ATOM     49  NE  ARG E   2      41.069  39.485   9.911  1.00 41.00 LIG-0.23  N 
ATOM     50 HE   ARG E   2      40.994  40.339   9.830  1.00 41.00 LIG 0.18  HD
ATOM     51  CZ  ARG E   2      40.456  38.710   9.005  1.00 43.22 LIG 0.67  C 
ATOM     52  NH2 ARG E   2      39.817  39.257   7.980  1.00 39.75 LIG-0.23  N 
ATOM     53  NH1 ARG E   2      40.479  37.370   9.119  1.00 41.20 LIG-0.23  N 
ATOM     54 2HH2 ARG E   2      39.425  38.757   7.401  1.00 39.75 LIG 0.17  HD
ATOM     55 1HH2 ARG E   2      39.795  40.112   7.894  1.00 39.75 LIG 0.17  HD
ATOM     56 1HH1 ARG E   2      40.890  37.001   9.778  1.00 41.20 LIG 0.17  HD
ATOM     57 2HH1 ARG E   2      40.083  36.883   8.532  1.00 41.20 LIG 0.17  HD
ENDBRANCH 48 49
ENDBRANCH 47 48
ENDBRANCH 46 47
ENDBRANCH 45 46
BRANCH 45 58
ATOM     58  N   ARG E   2      45.514  38.261  11.827  1.00 36.64 LIG-0.35  N 
ATOM     59 H    ARG E   2      44.809  37.801  11.999  1.00 36.64 LIG 0.16  HD
ATOM     60  C   ASN E   1      46.730  37.777  11.959  1.00 41.83 LIG 0.25  C 
ATOM     61 O    ASN E   1      47.727  38.448  11.658  1.00 38.61 LIG-0.27  OA
BRANCH 60 62
ATOM     62  CA  ASN E   1      46.823  36.277  12.417  1.00 50.15 LIG 0.28  C 
BRANCH 62 63
ATOM     63  CB  ASN E   1      45.945  35.916  13.663  1.00 58.25 LIG 0.14  C 
BRANCH 63 64
ATOM     64  CG  ASN E   1      44.466  35.527  13.311  1.00 70.07 LIG 0.22  C 
ATOM     65 OD1  ASN E   1      43.951  35.771  12.207  1.00 69.16 LIG-0.27  OA
ATOM     66  ND2 ASN E   1      43.786  34.910  14.281  1.00 65.88 LIG-0.37  N 
ATOM     67 22HD ASN E   1      44.164  34.752  15.037  1.00 65.88 LIG 0.16  HD
ATOM     68 21HD ASN E   1      42.971  34.671  14.148  1.00 65.88 LIG 0.16  HD
ENDBRANCH 63 64
ENDBRANCH 62 63
BRANCH 62 69
ATOM     69  N   ASN E   1      48.238  35.867  12.644  1.00 55.39 LIG-0.07  N 
ATOM     70 H1   ASN E   1      48.530  36.215  13.409  1.00 55.39 LIG 0.28  HD
ATOM     71 H2   ASN E   1      48.288  34.980  12.684  1.00 55.39 LIG 0.28  HD
ATOM     72 H3   ASN E   1      48.744  36.163  11.974  1.00 55.39 LIG 0.28  HD
ENDBRANCH 62 69
ENDBRANCH 60 62
ENDBRANCH 45 58
ENDBRANCH 43 45
ENDBRANCH 1 41
TORSDOF 28
ENDMDL
MODEL 31
USER: ADFR SOLUTION from run 60
USER: SCORE 25.002030 LL:  -6.629 LR: -20.169 RR:   0.000 FEB: -11.816
USER: RMSD 12.661553
USER: SEED 59
USER: STATUS no improvement in best in 9 clusters for 5 generations
USER: GENES 30
USER: genes 0 Translation |==|  0.40750 0.32723 0.26064
USER: genes 1 Rotation |==|  0.75493 0.85615 0.33555 0.67643
USER: genes 2 Torsion [N]-CA--C-[N] |==|  0.87373
USER: genes 3 Torsion [C]-N--CA-[C] |==|  0.73524
USER: genes 4 Torsion [N]-CA--C-[N] |==|  0.33814
USER: genes 5 Torsion [C]-N--CA-[C] |==|  0.61875
USER: genes 6 Torsion [N]-CA--C-[N] |==|  0.57586
USER: genes 7 Torsion [C]-N--CA-[C] |==|  0.63351
USER: genes 8 Torsion [N]-CA--C-[N] |==|  0.96553
USER: genes 9 Torsion [C]-N--CA-[C] |==|  0.46323
USER: genes 10 Torsion [N]-CA--C-[O] |==|  0.21964
USER: genes 11 Torsion [N]-CA--CB-[CG2] |==|  0.65617
USER: genes 12 Torsion [CA]-CB--OG1-[HG1] |==|  0.96315
USER: genes 13 Torsion [N]-CA--CB-[CG] |==|  0.63487
USER: genes 14 Torsion [CA]-CB--CG-[CD1] |==|  0.59269
USER: genes 15 Torsion [N]-CA--CB-[CG] |==|  0.56970
USER: genes 16 Torsion [CA]-CB--CG-[CD2] |==|  0.05093
USER: genes 17 Torsion [C]-CA--CB-[CG] |==|  0.61130
USER: genes 18 Torsion [CA]-CB--CG-[CD2] |==|  0.57599
USER: genes 19 Torsion [C]-CA--N-[C] |==|  0.69275
USER: genes 20 Torsion [N]-C--CA-[N] |==|  0.99836
USER: genes 21 Torsion [C]-CA--CB-[CG] |==|  0.26874
USER: genes 22 Torsion [CA]-CB--CG-[CD] |==|  0.14237
USER: genes 23 Torsion [CB]-CG--CD-[NE] |==|  0.56050
USER: genes 24 Torsion [CG]-CD--NE-[HE] |==|  0.69954
USER: genes 25 Torsion [C]-CA--N-[C] |==|  0.65656
USER: genes 26 Torsion [N]-C--CA-[N] |==|  0.51997
USER: genes 27 Torsion [C]-CA--CB-[CG] |==|  0.83984
USER: genes 28 Torsion [CA]-CB--CG-[OD1] |==|  0.07108
USER: genes 29 Torsion [C]-CA--N-[H2] |==|  0.06454
ROOT
ATOM      1  CA  LEU E   3      43.720  40.233  10.865  1.00 22.83 LIG 0.18  C 
ENDROOT
BRANCH 1 2
ATOM      2  C   LEU E   3      43.715  40.730  12.348  1.00 19.55 LIG 0.24  C 
ATOM      3 O    LEU E   3      43.452  41.889  12.626  1.00 19.60 LIG-0.27  OA
ATOM      4  N   LEU E   4      44.013  39.834  13.259  1.00 19.32 LIG-0.35  N 
ATOM      5 H    LEU E   4      44.391  39.079  13.099  1.00 19.32 LIG 0.16  HD
BRANCH 4 6
ATOM      6  CA  LEU E   4      43.692  40.097  14.708  1.00 17.74 LIG 0.18  C 
BRANCH 6 7
ATOM      7  C   LEU E   4      44.860  40.662  15.437  1.00 18.94 LIG 0.24  C 
ATOM      8  N   LEU E   5      44.655  41.871  16.020  1.00 19.76 LIG-0.35  N 
ATOM      9 H    LEU E   5      43.893  42.269  16.054  1.00 19.76 LIG 0.16  HD
ATOM     10 O    LEU E   4      45.981  40.071  15.441  1.00 20.41 LIG-0.27  OA
BRANCH 8 11
ATOM     11  CA  LEU E   5      45.751  42.598  16.648  1.00 18.99 LIG 0.18  C 
BRANCH 11 12
ATOM     12  C   LEU E   5      45.218  43.167  17.965  1.00 20.67 LIG 0.24  C 
ATOM     13  N   THR E   6      45.826  44.276  18.386  1.00 21.83 LIG-0.34  N 
ATOM     14 H    THR E   6      46.521  44.632  18.025  1.00 21.83 LIG 0.16  HD
ATOM     15 O    LEU E   5      44.275  42.620  18.492  1.00 20.01 LIG-0.27  OA
BRANCH 13 16
ATOM     16  CA  THR E   6      45.287  44.975  19.566  1.00 24.74 LIG 0.20  C 
BRANCH 16 17
ATOM     17  C   THR E   6      45.162  46.470  19.263  1.00 26.78 LIG 0.24  C 
ATOM     18  N   GLY E   7      45.791  46.859  18.144  1.00 28.46 LIG-0.35  N 
ATOM     19 H    GLY E   7      45.966  46.312  17.503  1.00 28.46 LIG 0.16  HD
ATOM     20 O    THR E   6      44.500  47.241  19.965  1.00 25.34 LIG-0.27  OA
BRANCH 18 21
ATOM     21  CA  GLY E   7      46.250  48.218  17.870  1.00 36.11 LIG 0.23  C 
BRANCH 21 22
ATOM     22  C   GLY E   7      47.167  48.226  16.710  1.00 43.05 LIG 0.19  C 
ATOM     23 OXT  GLY E   7      48.370  48.294  16.966  1.00 50.23 LIG-0.65  OA
ATOM     24 O    GLY E   7      46.741  48.174  15.533  1.00 56.48 LIG-0.65  OA
ENDBRANCH 21 22
ENDBRANCH 18 21
ENDBRANCH 16 17
BRANCH 16 25
ATOM     25  CB  THR E   6      46.177  44.720  20.800  1.00 24.32 LIG 0.15  C 
ATOM     26  CG2 THR E   6      45.323  44.101  21.990  1.00 23.74 LIG 0.04  C 
BRANCH 25 27
ATOM     27 OG1  THR E   6      47.170  43.793  20.399  1.00 30.49 LIG-0.39  OA
ATOM     28 HG1  THR E   6      46.955  43.455  19.660  1.00 30.49 LIG 0.21  HD
ENDBRANCH 25 27
ENDBRANCH 16 25
ENDBRANCH 13 16
ENDBRANCH 11 12
BRANCH 11 29
ATOM     29  CB  LEU E   5      46.196  43.798  15.826  1.00 19.92 LIG 0.04  C 
BRANCH 29 30
ATOM     30  CG  LEU E   5      47.745  43.792  15.676  1.00 17.19 LIG-0.02  C 
ATOM     31  CD1 LEU E   5      48.246  45.211  15.641  1.00 19.71 LIG 0.01  C 
ATOM     32  CD2 LEU E   5      48.373  43.000  16.794  1.00 21.46 LIG 0.01  C 
ENDBRANCH 29 30
ENDBRANCH 11 29
ENDBRANCH 8 11
ENDBRANCH 6 7
BRANCH 6 33
ATOM     33  CB  LEU E   4      43.284  38.741  15.372  1.00 18.44 LIG 0.04  C 
BRANCH 33 34
ATOM     34  CG  LEU E   4      42.374  38.992  16.597  1.00 22.78 LIG-0.02  C 
ATOM     35  CD2 LEU E   4      41.737  40.394  16.605  1.00 23.44 LIG 0.01  C 
ATOM     36  CD1 LEU E   4      43.249  38.770  17.832  1.00 27.53 LIG 0.01  C 
ENDBRANCH 33 34
ENDBRANCH 6 33
ENDBRANCH 4 6
ENDBRANCH 1 2
BRANCH 1 37
ATOM     37  CB  LEU E   3      42.437  39.431  10.624  1.00 29.41 LIG 0.04  C 
BRANCH 37 38
ATOM     38  CG  LEU E   3      42.554  38.149   9.767  1.00 30.90 LIG-0.02  C 
ATOM     39  CD1 LEU E   3      42.978  36.942  10.631  1.00 35.09 LIG 0.01  C 
ATOM     40  CD2 LEU E   3      41.232  37.865   9.075  1.00 39.15 LIG 0.01  C 
ENDBRANCH 37 38
ENDBRANCH 1 37
BRANCH 1 41
ATOM     41  N   LEU E   3      44.932  39.407  10.579  1.00 22.92 LIG-0.35  N 
ATOM     42 H    LEU E   3      44.958  38.639  10.965  1.00 22.92 LIG 0.16  HD
ATOM     43  C   ARG E   2      45.869  39.892   9.773  1.00 28.87 LIG 0.24  C 
ATOM     44 O    ARG E   2      45.767  41.048   9.265  1.00 29.44 LIG-0.27  OA
BRANCH 43 45
ATOM     45  CA  ARG E   2      47.108  39.020   9.466  1.00 32.90 LIG 0.18  C 
BRANCH 45 46
ATOM     46  CB  ARG E   2      47.108  38.586   8.009  1.00 32.53 LIG 0.04  C 
BRANCH 46 47
ATOM     47  CG  ARG E   2      47.930  39.417   7.089  1.00 34.92 LIG 0.02  C 
BRANCH 47 48
ATOM     48  CD  ARG E   2      49.296  39.553   7.661  1.00 37.57 LIG 0.14  C 
BRANCH 48 49
ATOM     49  NE  ARG E   2      50.051  40.714   7.162  1.00 41.00 LIG-0.23  N 
ATOM     50 HE   ARG E   2      50.707  40.571   6.625  1.00 41.00 LIG 0.18  HD
ATOM     51  CZ  ARG E   2      49.774  41.982   7.498  1.00 43.22 LIG 0.67  C 
ATOM     52  NH2 ARG E   2      50.454  42.981   6.953  1.00 39.75 LIG-0.23  N 
ATOM     53  NH1 ARG E   2      48.805  42.262   8.388  1.00 41.20 LIG-0.23  N 
ATOM     54 2HH2 ARG E   2      50.273  43.793   7.170  1.00 39.75 LIG 0.17  HD
ATOM     55 1HH2 ARG E   2      51.076  42.818   6.381  1.00 39.75 LIG 0.17  HD
ATOM     56 1HH1 ARG E   2      48.355  41.625   8.749  1.00 41.20 LIG 0.17  HD
ATOM     57 2HH1 ARG E   2      48.636  43.079   8.595  1.00 41.20 LIG 0.17  HD
ENDBRANCH 48 49
ENDBRANCH 47 48
ENDBRANCH 46 47
ENDBRANCH 45 46
BRANCH 45 58
ATOM     58  N   ARG E   2      46.999  37.745  10.190  1.00 36.64 LIG-0.35  N 
ATOM     59 H    ARG E   2      46.276  37.314  10.011  1.00 36.64 LIG 0.16  HD
ATOM     60  C   ASN E   1      47.905  37.295  11.029  1.00 41.83 LIG 0.25  C 
ATOM     61 O    ASN E   1      48.960  37.915  11.232  1.00 38.61 LIG-0.27  OA
BRANCH 60 62
ATOM     62  CA  ASN E   1      47.612  35.890  11.667  1.00 50.15 LIG 0.28  C 
BRANCH 62 63
ATOM     63  CB  ASN E   1      46.155  35.709  12.212  1.00 58.25 LIG 0.14  C 
BRANCH 63 64
ATOM     64  CG  ASN E   1      45.743  36.766  13.296  1.00 70.07 LIG 0.22  C 
ATOM     65 OD1  ASN E   1      46.260  37.893  13.368  1.00 69.16 LIG-0.27  OA
ATOM     66  ND2 ASN E   1      44.790  36.377  14.148  1.00 65.88 LIG-0.37  N 
ATOM     67 22HD ASN E   1      44.447  35.591  14.079  1.00 65.88 LIG 0.16  HD
ATOM     68 21HD ASN E   1      44.521  36.912  14.765  1.00 65.88 LIG 0.16  HD
ENDBRANCH 63 64
ENDBRANCH 62 63
BRANCH 62 69
ATOM     69  N   ASN E   1      48.607  35.556  12.725  1.00 55.39 LIG-0.07  N 
ATOM     70 H1   ASN E   1      49.247  35.042  12.380  1.00 55.39 LIG 0.28  HD
ATOM     71 H2   ASN E   1      48.968  36.306  13.040  1.00 55.39 LIG 0.28  HD
ATOM     72 H3   ASN E   1      48.203  35.120  13.386  1.00 55.39 LIG 0.28  HD
ENDBRANCH 62 69
ENDBRANCH 60 62
ENDBRANCH 45 58
ENDBRANCH 43 45
ENDBRANCH 1 41
TORSDOF 28
ENDMDL
MODEL 32
USER: ADFR SOLUTION from run 156
USER: SCORE 23.317831 LL:  -5.560 LR: -20.141 RR:   0.000 FEB: -11.788
USER: RMSD 12.766722
USER: SEED 155
USER: STATUS searching
USER: GENES 30
USER: genes 0 Translation |==|  0.46068 0.26953 0.31329
USER: genes 1 Rotation |==|  0.60565 0.87496 0.32619 0.76083
USER: genes 2 Torsion [N]-CA--C-[N] |==|  0.83576
USER: genes 3 Torsion [C]-N--CA-[C] |==|  0.68981
USER: genes 4 Torsion [N]-CA--C-[N] |==|  0.41455
USER: genes 5 Torsion [C]-N--CA-[C] |==|  0.20556
USER: genes 6 Torsion [N]-CA--C-[N] |==|  0.47471
USER: genes 7 Torsion [C]-N--CA-[C] |==|  0.67399
USER: genes 8 Torsion [N]-CA--C-[N] |==|  0.72269
USER: genes 9 Torsion [C]-N--CA-[C] |==|  0.38084
USER: genes 10 Torsion [N]-CA--C-[O] |==|  0.57804
USER: genes 11 Torsion [N]-CA--CB-[CG2] |==|  0.59208
USER: genes 12 Torsion [CA]-CB--OG1-[HG1] |==|  0.76992
USER: genes 13 Torsion [N]-CA--CB-[CG] |==|  0.65897
USER: genes 14 Torsion [CA]-CB--CG-[CD1] |==|  0.02952
USER: genes 15 Torsion [N]-CA--CB-[CG] |==|  0.71671
USER: genes 16 Torsion [CA]-CB--CG-[CD2] |==|  0.17914
USER: genes 17 Torsion [C]-CA--CB-[CG] |==|  0.65670
USER: genes 18 Torsion [CA]-CB--CG-[CD2] |==|  0.53320
USER: genes 19 Torsion [C]-CA--N-[C] |==|  0.67566
USER: genes 20 Torsion [N]-C--CA-[N] |==|  0.24298
USER: genes 21 Torsion [C]-CA--CB-[CG] |==|  0.48217
USER: genes 22 Torsion [CA]-CB--CG-[CD] |==|  0.37372
USER: genes 23 Torsion [CB]-CG--CD-[NE] |==|  0.25002
USER: genes 24 Torsion [CG]-CD--NE-[HE] |==|  0.25538
USER: genes 25 Torsion [C]-CA--N-[C] |==|  0.75364
USER: genes 26 Torsion [N]-C--CA-[N] |==|  0.47509
USER: genes 27 Torsion [C]-CA--CB-[CG] |==|  0.85554
USER: genes 28 Torsion [CA]-CB--CG-[OD1] |==|  0.30035
USER: genes 29 Torsion [C]-CA--N-[H2] |==|  0.03698
ROOT
ATOM      1  CA  LEU E   3      44.797  38.934  12.247  1.00 22.83 LIG 0.18  C 
ENDROOT
BRANCH 1 2
ATOM      2  C   LEU E   3      44.372  39.851  13.441  1.00 19.55 LIG 0.24  C 
ATOM      3 O    LEU E   3      43.700  40.854  13.261  1.00 19.60 LIG-0.27  OA
ATOM      4  N   LEU E   4      44.784  39.479  14.630  1.00 19.32 LIG-0.35  N 
ATOM      5 H    LEU E   4      45.410  38.909  14.777  1.00 19.32 LIG 0.16  HD
BRANCH 4 6
ATOM      6  CA  LEU E   4      44.148  40.065  15.865  1.00 17.74 LIG 0.18  C 
BRANCH 6 7
ATOM      7  C   LEU E   4      45.091  40.946  16.606  1.00 18.94 LIG 0.24  C 
ATOM      8  N   LEU E   5      44.519  41.975  17.281  1.00 19.76 LIG-0.35  N 
ATOM      9 H    LEU E   5      43.671  42.089  17.363  1.00 19.76 LIG 0.16  HD
ATOM     10 O    LEU E   4      46.345  40.771  16.538  1.00 20.41 LIG-0.27  OA
BRANCH 8 11
ATOM     11  CA  LEU E   5      45.336  42.991  17.935  1.00 18.99 LIG 0.18  C 
BRANCH 11 12
ATOM     12  C   LEU E   5      45.911  43.884  16.833  1.00 20.67 LIG 0.24  C 
ATOM     13  N   THR E   6      46.531  44.982  17.265  1.00 21.83 LIG-0.34  N 
ATOM     14 H    THR E   6      46.558  45.252  18.081  1.00 21.83 LIG 0.16  HD
ATOM     15 O    LEU E   5      45.814  43.518  15.682  1.00 20.01 LIG-0.27  OA
BRANCH 13 16
ATOM     16  CA  THR E   6      47.240  45.826  16.287  1.00 24.74 LIG 0.20  C 
BRANCH 16 17
ATOM     17  C   THR E   6      48.733  45.856  16.622  1.00 26.78 LIG 0.24  C 
ATOM     18  N   GLY E   7      49.126  46.956  17.282  1.00 28.46 LIG-0.35  N 
ATOM     19 H    GLY E   7      48.580  47.431  17.747  1.00 28.46 LIG 0.16  HD
ATOM     20 O    THR E   6      49.498  44.926  16.349  1.00 25.34 LIG-0.27  OA
BRANCH 18 21
ATOM     21  CA  GLY E   7      50.489  47.479  17.301  1.00 36.11 LIG 0.23  C 
BRANCH 21 22
ATOM     22  C   GLY E   7      50.477  48.949  17.148  1.00 43.05 LIG 0.19  C 
ATOM     23 OXT  GLY E   7      49.468  49.531  17.550  1.00 50.23 LIG-0.65  OA
ATOM     24 O    GLY E   7      51.437  49.566  16.630  1.00 56.48 LIG-0.65  OA
ENDBRANCH 21 22
ENDBRANCH 18 21
ENDBRANCH 16 17
BRANCH 16 25
ATOM     25  CB  THR E   6      46.637  47.246  16.260  1.00 24.32 LIG 0.15  C 
ATOM     26  CG2 THR E   6      46.718  47.863  14.797  1.00 23.74 LIG 0.04  C 
BRANCH 25 27
ATOM     27 OG1  THR E   6      45.281  47.118  16.645  1.00 30.49 LIG-0.39  OA
ATOM     28 HG1  THR E   6      44.820  46.894  15.979  1.00 30.49 LIG 0.21  HD
ENDBRANCH 25 27
ENDBRANCH 16 25
ENDBRANCH 13 16
ENDBRANCH 11 12
BRANCH 11 29
ATOM     29  CB  LEU E   5      46.536  42.394  18.655  1.00 19.92 LIG 0.04  C 
BRANCH 29 30
ATOM     30  CG  LEU E   5      46.503  42.794  20.158  1.00 17.19 LIG-0.02  C 
ATOM     31  CD1 LEU E   5      45.171  43.419  20.477  1.00 19.71 LIG 0.01  C 
ATOM     32  CD2 LEU E   5      46.783  41.592  21.024  1.00 21.46 LIG 0.01  C 
ENDBRANCH 29 30
ENDBRANCH 11 29
ENDBRANCH 8 11
ENDBRANCH 6 7
BRANCH 6 33
ATOM     33  CB  LEU E   4      43.714  38.886  16.797  1.00 18.44 LIG 0.04  C 
BRANCH 33 34
ATOM     34  CG  LEU E   4      42.191  38.641  16.684  1.00 22.78 LIG-0.02  C 
ATOM     35  CD2 LEU E   4      41.753  38.172  15.283  1.00 23.44 LIG 0.01  C 
ATOM     36  CD1 LEU E   4      41.516  39.959  17.067  1.00 27.53 LIG 0.01  C 
ENDBRANCH 33 34
ENDBRANCH 6 33
ENDBRANCH 4 6
ENDBRANCH 1 2
BRANCH 1 37
ATOM     37  CB  LEU E   3      44.165  37.554  12.454  1.00 29.41 LIG 0.04  C 
BRANCH 37 38
ATOM     38  CG  LEU E   3      45.120  36.338  12.491  1.00 30.90 LIG-0.02  C 
ATOM     39  CD1 LEU E   3      45.983  36.351  13.772  1.00 35.09 LIG 0.01  C 
ATOM     40  CD2 LEU E   3      44.321  35.050  12.406  1.00 39.15 LIG 0.01  C 
ENDBRANCH 37 38
ENDBRANCH 1 37
BRANCH 1 41
ATOM     41  N   LEU E   3      46.284  38.836  12.148  1.00 22.92 LIG-0.35  N 
ATOM     42 H    LEU E   3      46.678  38.472  12.820  1.00 22.92 LIG 0.16  HD
ATOM     43  C   ARG E   2      46.892  39.303  11.064  1.00 28.87 LIG 0.24  C 
ATOM     44 O    ARG E   2      46.240  39.852  10.127  1.00 29.44 LIG-0.27  OA
BRANCH 43 45
ATOM     45  CA  ARG E   2      48.430  39.176  10.961  1.00 32.90 LIG 0.18  C 
BRANCH 45 46
ATOM     46  CB  ARG E   2      48.981  40.164   9.946  1.00 32.53 LIG 0.04  C 
BRANCH 46 47
ATOM     47  CG  ARG E   2      50.464  40.243   9.863  1.00 34.92 LIG 0.02  C 
BRANCH 47 48
ATOM     48  CD  ARG E   2      50.863  40.237   8.430  1.00 37.57 LIG 0.14  C 
BRANCH 48 49
ATOM     49  NE  ARG E   2      50.954  41.571   7.818  1.00 41.00 LIG-0.23  N 
ATOM     50 HE   ARG E   2      51.715  41.973   7.830  1.00 41.00 LIG 0.18  HD
ATOM     51  CZ  ARG E   2      49.918  42.198   7.242  1.00 43.22 LIG 0.67  C 
ATOM     52  NH2 ARG E   2      50.093  43.371   6.648  1.00 39.75 LIG-0.23  N 
ATOM     53  NH1 ARG E   2      48.689  41.651   7.256  1.00 41.20 LIG-0.23  N 
ATOM     54 2HH2 ARG E   2      49.427  43.770   6.279  1.00 39.75 LIG 0.17  HD
ATOM     55 1HH2 ARG E   2      50.873  43.732   6.631  1.00 39.75 LIG 0.17  HD
ATOM     56 1HH1 ARG E   2      48.561  40.891   7.637  1.00 41.20 LIG 0.17  HD
ATOM     57 2HH1 ARG E   2      48.033  42.062   6.883  1.00 41.20 LIG 0.17  HD
ENDBRANCH 48 49
ENDBRANCH 47 48
ENDBRANCH 46 47
ENDBRANCH 45 46
BRANCH 45 58
ATOM     58  N   ARG E   2      48.773  37.873  10.372  1.00 36.64 LIG-0.35  N 
ATOM     59 H    ARG E   2      48.848  37.897   9.516  1.00 36.64 LIG 0.16  HD
ATOM     60  C   ASN E   1      48.950  36.773  11.071  1.00 41.83 LIG 0.25  C 
ATOM     61 O    ASN E   1      48.882  36.778  12.309  1.00 38.61 LIG-0.27  OA
BRANCH 60 62
ATOM     62  CA  ASN E   1      49.350  35.496  10.248  1.00 50.15 LIG 0.28  C 
BRANCH 62 63
ATOM     63  CB  ASN E   1      48.279  35.023   9.209  1.00 58.25 LIG 0.14  C 
BRANCH 63 64
ATOM     64  CG  ASN E   1      46.841  34.840   9.811  1.00 70.07 LIG 0.22  C 
ATOM     65 OD1  ASN E   1      45.904  35.618   9.563  1.00 69.16 LIG-0.27  OA
ATOM     66  ND2 ASN E   1      46.682  33.786  10.616  1.00 65.88 LIG-0.37  N 
ATOM     67 22HD ASN E   1      47.346  33.261  10.773  1.00 65.88 LIG 0.16  HD
ATOM     68 21HD ASN E   1      45.917  33.632  10.976  1.00 65.88 LIG 0.16  HD
ENDBRANCH 63 64
ENDBRANCH 62 63
BRANCH 62 69
ATOM     69  N   ASN E   1      49.733  34.371  11.148  1.00 55.39 LIG-0.07  N 
ATOM     70 H1   ASN E   1      50.615  34.256  11.121  1.00 55.39 LIG 0.28  HD
ATOM     71 H2   ASN E   1      49.484  34.559  11.982  1.00 55.39 LIG 0.28  HD
ATOM     72 H3   ASN E   1      49.330  33.625  10.879  1.00 55.39 LIG 0.28  HD
ENDBRANCH 62 69
ENDBRANCH 60 62
ENDBRANCH 45 58
ENDBRANCH 43 45
ENDBRANCH 1 41
TORSDOF 28
ENDMDL
MODEL 33
USER: ADFR SOLUTION from run 115
USER: SCORE 24.639759 LL:  -5.874 LR: -20.145 RR:   0.000 FEB: -11.792
USER: RMSD 12.594628
USER: SEED 114
USER: STATUS searching
USER: GENES 30
USER: genes 0 Translation |==|  0.41395 0.26426 0.30678
USER: genes 1 Rotation |==|  0.32744 0.92464 0.32659 0.59917
USER: genes 2 Torsion [N]-CA--C-[N] |==|  0.63677
USER: genes 3 Torsion [C]-N--CA-[C] |==|  0.68017
USER: genes 4 Torsion [N]-CA--C-[N] |==|  0.40266
USER: genes 5 Torsion [C]-N--CA-[C] |==|  0.84480
USER: genes 6 Torsion [N]-CA--C-[N] |==|  0.35664
USER: genes 7 Torsion [C]-N--CA-[C] |==|  0.59924
USER: genes 8 Torsion [N]-CA--C-[N] |==|  0.43456
USER: genes 9 Torsion [C]-N--CA-[C] |==|  0.80872
USER: genes 10 Torsion [N]-CA--C-[O] |==|  0.44982
USER: genes 11 Torsion [N]-CA--CB-[CG2] |==|  0.34821
USER: genes 12 Torsion [CA]-CB--OG1-[HG1] |==|  0.53044
USER: genes 13 Torsion [N]-CA--CB-[CG] |==|  0.63503
USER: genes 14 Torsion [CA]-CB--CG-[CD1] |==|  0.56787
USER: genes 15 Torsion [N]-CA--CB-[CG] |==|  0.85280
USER: genes 16 Torsion [CA]-CB--CG-[CD2] |==|  0.65331
USER: genes 17 Torsion [C]-CA--CB-[CG] |==|  0.45892
USER: genes 18 Torsion [CA]-CB--CG-[CD2] |==|  0.98529
USER: genes 19 Torsion [C]-CA--N-[C] |==|  0.16229
USER: genes 20 Torsion [N]-C--CA-[N] |==|  0.53696
USER: genes 21 Torsion [C]-CA--CB-[CG] |==|  0.77429
USER: genes 22 Torsion [CA]-CB--CG-[CD] |==|  0.25353
USER: genes 23 Torsion [CB]-CG--CD-[NE] |==|  0.68291
USER: genes 24 Torsion [CG]-CD--NE-[HE] |==|  0.11471
USER: genes 25 Torsion [C]-CA--N-[C] |==|  0.56240
USER: genes 26 Torsion [N]-C--CA-[N] |==|  0.61500
USER: genes 27 Torsion [C]-CA--CB-[CG] |==|  0.18911
USER: genes 28 Torsion [CA]-CB--CG-[OD1] |==|  0.69127
USER: genes 29 Torsion [C]-CA--N-[H2] |==|  0.59804
ROOT
ATOM      1  CA  LEU E   3      43.851  38.816  12.076  1.00 22.83 LIG 0.18  C 
ENDROOT
BRANCH 1 2
ATOM      2  C   LEU E   3      43.852  40.064  13.019  1.00 19.55 LIG 0.24  C 
ATOM      3 O    LEU E   3      43.342  41.118  12.675  1.00 19.60 LIG-0.27  OA
ATOM      4  N   LEU E   4      44.434  39.907  14.185  1.00 19.32 LIG-0.35  N 
ATOM      5 H    LEU E   4      44.968  39.263  14.384  1.00 19.32 LIG 0.16  HD
BRANCH 4 6
ATOM      6  CA  LEU E   4      44.183  40.898  15.292  1.00 17.74 LIG 0.18  C 
BRANCH 6 7
ATOM      7  C   LEU E   4      45.420  41.641  15.657  1.00 18.94 LIG 0.24  C 
ATOM      8  N   LEU E   5      45.238  42.936  16.019  1.00 19.76 LIG-0.35  N 
ATOM      9 H    LEU E   5      44.468  43.307  16.119  1.00 19.76 LIG 0.16  HD
ATOM     10 O    LEU E   4      46.563  41.101  15.561  1.00 20.41 LIG-0.27  OA
BRANCH 8 11
ATOM     11  CA  LEU E   5      46.375  43.814  16.268  1.00 18.99 LIG 0.18  C 
BRANCH 11 12
ATOM     12  C   LEU E   5      47.235  43.142  17.341  1.00 20.67 LIG 0.24  C 
ATOM     13  N   THR E   6      48.527  43.023  17.033  1.00 21.83 LIG-0.34  N 
ATOM     14 H    THR E   6      48.878  43.216  16.272  1.00 21.83 LIG 0.16  HD
ATOM     15 O    LEU E   5      46.713  42.823  18.386  1.00 20.01 LIG-0.27  OA
BRANCH 13 16
ATOM     16  CA  THR E   6      49.456  42.521  18.059  1.00 24.74 LIG 0.20  C 
BRANCH 16 17
ATOM     17  C   THR E   6      50.804  43.234  17.924  1.00 26.78 LIG 0.24  C 
ATOM     18  N   GLY E   7      51.535  43.246  19.049  1.00 28.46 LIG-0.35  N 
ATOM     19 H    GLY E   7      51.428  42.663  19.671  1.00 28.46 LIG 0.16  HD
ATOM     20 O    THR E   6      51.202  43.714  16.858  1.00 25.34 LIG-0.27  OA
BRANCH 18 21
ATOM     21  CA  GLY E   7      52.578  44.220  19.359  1.00 36.11 LIG 0.23  C 
BRANCH 21 22
ATOM     22  C   GLY E   7      53.742  44.027  18.468  1.00 43.05 LIG 0.19  C 
ATOM     23 OXT  GLY E   7      53.817  42.937  17.898  1.00 50.23 LIG-0.65  OA
ATOM     24 O    GLY E   7      54.605  44.920  18.308  1.00 56.48 LIG-0.65  OA
ENDBRANCH 21 22
ENDBRANCH 18 21
ENDBRANCH 16 17
BRANCH 16 25
ATOM     25  CB  THR E   6      49.612  40.990  17.947  1.00 24.32 LIG 0.15  C 
ATOM     26  CG2 THR E   6      51.145  40.591  17.804  1.00 23.74 LIG 0.04  C 
BRANCH 25 27
ATOM     27 OG1  THR E   6      49.090  40.442  19.144  1.00 30.49 LIG-0.39  OA
ATOM     28 HG1  THR E   6      49.290  39.627  19.189  1.00 30.49 LIG 0.21  HD
ENDBRANCH 25 27
ENDBRANCH 16 25
ENDBRANCH 13 16
ENDBRANCH 11 12
BRANCH 11 29
ATOM     29  CB  LEU E   5      45.954  45.155  16.851  1.00 19.92 LIG 0.04  C 
BRANCH 29 30
ATOM     30  CG  LEU E   5      46.639  46.311  16.067  1.00 17.19 LIG-0.02  C 
ATOM     31  CD1 LEU E   5      46.727  47.527  16.951  1.00 19.71 LIG 0.01  C 
ATOM     32  CD2 LEU E   5      47.994  45.874  15.573  1.00 21.46 LIG 0.01  C 
ENDBRANCH 29 30
ENDBRANCH 11 29
ENDBRANCH 8 11
ENDBRANCH 6 7
BRANCH 6 33
ATOM     33  CB  LEU E   4      43.671  40.113  16.545  1.00 18.44 LIG 0.04  C 
BRANCH 33 34
ATOM     34  CG  LEU E   4      42.463  39.225  16.168  1.00 22.78 LIG-0.02  C 
ATOM     35  CD2 LEU E   4      41.219  39.490  17.037  1.00 23.44 LIG 0.01  C 
ATOM     36  CD1 LEU E   4      42.938  37.777  16.302  1.00 27.53 LIG 0.01  C 
ENDBRANCH 33 34
ENDBRANCH 6 33
ENDBRANCH 4 6
ENDBRANCH 1 2
BRANCH 1 37
ATOM     37  CB  LEU E   3      44.749  37.743  12.700  1.00 29.41 LIG 0.04  C 
BRANCH 37 38
ATOM     38  CG  LEU E   3      44.630  36.307  12.138  1.00 30.90 LIG-0.02  C 
ATOM     39  CD1 LEU E   3      44.391  35.287  13.272  1.00 35.09 LIG 0.01  C 
ATOM     40  CD2 LEU E   3      43.503  36.240  11.123  1.00 39.15 LIG 0.01  C 
ENDBRANCH 37 38
ENDBRANCH 1 37
BRANCH 1 41
ATOM     41  N   LEU E   3      44.319  39.179  10.705  1.00 22.92 LIG-0.35  N 
ATOM     42 H    LEU E   3      43.764  39.019  10.067  1.00 22.92 LIG 0.16  HD
ATOM     43  C   ARG E   2      45.526  39.712  10.554  1.00 28.87 LIG 0.24  C 
ATOM     44 O    ARG E   2      46.295  39.891  11.543  1.00 29.44 LIG-0.27  OA
BRANCH 43 45
ATOM     45  CA  ARG E   2      45.991  40.106   9.133  1.00 32.90 LIG 0.18  C 
BRANCH 45 46
ATOM     46  CB  ARG E   2      45.870  38.924   8.184  1.00 32.53 LIG 0.04  C 
BRANCH 46 47
ATOM     47  CG  ARG E   2      46.983  37.938   8.237  1.00 34.92 LIG 0.02  C 
BRANCH 47 48
ATOM     48  CD  ARG E   2      46.637  36.880   9.224  1.00 37.57 LIG 0.14  C 
BRANCH 48 49
ATOM     49  NE  ARG E   2      47.506  36.847  10.411  1.00 41.00 LIG-0.23  N 
ATOM     50 HE   ARG E   2      47.737  37.595  10.766  1.00 41.00 LIG 0.18  HD
ATOM     51  CZ  ARG E   2      47.958  35.716  10.971  1.00 43.22 LIG 0.67  C 
ATOM     52  NH2 ARG E   2      48.680  35.763  12.082  1.00 39.75 LIG-0.23  N 
ATOM     53  NH1 ARG E   2      47.688  34.519  10.419  1.00 41.20 LIG-0.23  N 
ATOM     54 2HH2 ARG E   2      48.968  35.036  12.439  1.00 39.75 LIG 0.17  HD
ATOM     55 1HH2 ARG E   2      48.860  36.521  12.447  1.00 39.75 LIG 0.17  HD
ATOM     56 1HH1 ARG E   2      47.221  34.473   9.699  1.00 41.20 LIG 0.17  HD
ATOM     57 2HH1 ARG E   2      47.983  33.801  10.788  1.00 41.20 LIG 0.17  HD
ENDBRANCH 48 49
ENDBRANCH 47 48
ENDBRANCH 46 47
ENDBRANCH 45 46
BRANCH 45 58
ATOM     58  N   ARG E   2      47.439  40.367   9.149  1.00 36.64 LIG-0.35  N 
ATOM     59 H    ARG E   2      47.845  39.985   9.804  1.00 36.64 LIG 0.16  HD
ATOM     60  C   ASN E   1      48.063  41.107   8.260  1.00 41.83 LIG 0.25  C 
ATOM     61 O    ASN E   1      47.459  41.606   7.299  1.00 38.61 LIG-0.27  OA
BRANCH 60 62
ATOM     62  CA  ASN E   1      49.619  41.226   8.438  1.00 50.15 LIG 0.28  C 
BRANCH 62 63
ATOM     63  CB  ASN E   1      50.163  40.702   9.810  1.00 58.25 LIG 0.14  C 
BRANCH 63 64
ATOM     64  CG  ASN E   1      50.041  39.149   9.995  1.00 70.07 LIG 0.22  C 
ATOM     65 OD1  ASN E   1      49.262  38.628  10.811  1.00 69.16 LIG-0.27  OA
ATOM     66  ND2 ASN E   1      50.832  38.410   9.213  1.00 65.88 LIG-0.37  N 
ATOM     67 22HD ASN E   1      51.363  38.794   8.655  1.00 65.88 LIG 0.16  HD
ATOM     68 21HD ASN E   1      50.810  37.553   9.267  1.00 65.88 LIG 0.16  HD
ENDBRANCH 63 64
ENDBRANCH 62 63
BRANCH 62 69
ATOM     69  N   ASN E   1      50.087  42.620   8.192  1.00 55.39 LIG-0.07  N 
ATOM     70 H1   ASN E   1      50.147  43.055   8.967  1.00 55.39 LIG 0.28  HD
ATOM     71 H2   ASN E   1      50.887  42.600   7.801  1.00 55.39 LIG 0.28  HD
ATOM     72 H3   ASN E   1      49.508  43.039   7.663  1.00 55.39 LIG 0.28  HD
ENDBRANCH 62 69
ENDBRANCH 60 62
ENDBRANCH 45 58
ENDBRANCH 43 45
ENDBRANCH 1 41
TORSDOF 28
ENDMDL
MODEL 34
USER: ADFR SOLUTION from run 109
USER: SCORE 24.062983 LL:  -5.727 LR: -20.130 RR:   0.000 FEB: -11.778
USER: RMSD 13.137818
USER: SEED 108
USER: STATUS no improvement in best in 12 clusters for 5 generations
USER: GENES 30
USER: genes 0 Translation |==|  0.46210 0.26932 0.29349
USER: genes 1 Rotation |==|  0.52643 0.84134 0.24104 0.75637
USER: genes 2 Torsion [N]-CA--C-[N] |==|  0.84211
USER: genes 3 Torsion [C]-N--CA-[C] |==|  0.50900
USER: genes 4 Torsion [N]-CA--C-[N] |==|  0.45888
USER: genes 5 Torsion [C]-N--CA-[C] |==|  0.68773
USER: genes 6 Torsion [N]-CA--C-[N] |==|  0.54191
USER: genes 7 Torsion [C]-N--CA-[C] |==|  0.68543
USER: genes 8 Torsion [N]-CA--C-[N] |==|  0.44295
USER: genes 9 Torsion [C]-N--CA-[C] |==|  0.73015
USER: genes 10 Torsion [N]-CA--C-[O] |==|  0.44602
USER: genes 11 Torsion [N]-CA--CB-[CG2] |==|  0.24943
USER: genes 12 Torsion [CA]-CB--OG1-[HG1] |==|  0.91416
USER: genes 13 Torsion [N]-CA--CB-[CG] |==|  0.92583
USER: genes 14 Torsion [CA]-CB--CG-[CD1] |==|  0.44604
USER: genes 15 Torsion [N]-CA--CB-[CG] |==|  0.17274
USER: genes 16 Torsion [CA]-CB--CG-[CD2] |==|  0.66046
USER: genes 17 Torsion [C]-CA--CB-[CG] |==|  0.59510
USER: genes 18 Torsion [CA]-CB--CG-[CD2] |==|  0.59129
USER: genes 19 Torsion [C]-CA--N-[C] |==|  0.79392
USER: genes 20 Torsion [N]-C--CA-[N] |==|  0.18458
USER: genes 21 Torsion [C]-CA--CB-[CG] |==|  0.32592
USER: genes 22 Torsion [CA]-CB--CG-[CD] |==|  0.32991
USER: genes 23 Torsion [CB]-CG--CD-[NE] |==|  0.54378
USER: genes 24 Torsion [CG]-CD--NE-[HE] |==|  0.68758
USER: genes 25 Torsion [C]-CA--N-[C] |==|  0.76084
USER: genes 26 Torsion [N]-C--CA-[N] |==|  0.53151
USER: genes 27 Torsion [C]-CA--CB-[CG] |==|  0.83969
USER: genes 28 Torsion [CA]-CB--CG-[OD1] |==|  0.95108
USER: genes 29 Torsion [C]-CA--N-[H2] |==|  0.91628
ROOT
ATOM      1  CA  LEU E   3      44.826  38.930  11.727  1.00 22.83 LIG 0.18  C 
ENDROOT
BRANCH 1 2
ATOM      2  C   LEU E   3      44.493  40.289  12.427  1.00 19.55 LIG 0.24  C 
ATOM      3 O    LEU E   3      43.720  41.088  11.923  1.00 19.60 LIG-0.27  OA
ATOM      4  N   LEU E   4      45.096  40.513  13.571  1.00 19.32 LIG-0.35  N 
ATOM      5 H    LEU E   4      45.782  40.082  13.856  1.00 19.32 LIG 0.16  HD
BRANCH 4 6
ATOM      6  CA  LEU E   4      44.589  41.594  14.490  1.00 17.74 LIG 0.18  C 
BRANCH 6 7
ATOM      7  C   LEU E   4      45.451  41.742  15.694  1.00 18.94 LIG 0.24  C 
ATOM      8  N   LEU E   5      45.262  42.878  16.412  1.00 19.76 LIG-0.35  N 
ATOM      9 H    LEU E   5      44.640  43.452  16.255  1.00 19.76 LIG 0.16  HD
ATOM     10 O    LEU E   4      46.343  40.885  15.973  1.00 20.41 LIG-0.27  OA
BRANCH 8 11
ATOM     11  CA  LEU E   5      46.131  43.212  17.534  1.00 18.99 LIG 0.18  C 
BRANCH 11 12
ATOM     12  C   LEU E   5      45.282  43.117  18.804  1.00 20.67 LIG 0.24  C 
ATOM     13  N   THR E   6      45.819  43.688  19.883  1.00 21.83 LIG-0.34  N 
ATOM     14 H    THR E   6      46.611  44.019  19.931  1.00 21.83 LIG 0.16  HD
ATOM     15 O    LEU E   5      44.192  42.595  18.734  1.00 20.01 LIG-0.27  OA
BRANCH 13 16
ATOM     16  CA  THR E   6      45.013  43.773  21.113  1.00 24.74 LIG 0.20  C 
BRANCH 16 17
ATOM     17  C   THR E   6      44.696  45.239  21.418  1.00 26.78 LIG 0.24  C 
ATOM     18  N   GLY E   7      43.642  45.416  22.229  1.00 28.46 LIG-0.35  N 
ATOM     19 H    GLY E   7      43.374  44.805  22.772  1.00 28.46 LIG 0.16  HD
ATOM     20 O    THR E   6      45.380  46.173  20.991  1.00 25.34 LIG-0.27  OA
BRANCH 18 21
ATOM     21  CA  GLY E   7      42.834  46.630  22.299  1.00 36.11 LIG 0.23  C 
BRANCH 21 22
ATOM     22  C   GLY E   7      43.285  47.483  23.419  1.00 43.05 LIG 0.19  C 
ATOM     23 OXT  GLY E   7      43.941  46.925  24.300  1.00 50.23 LIG-0.65  OA
ATOM     24 O    GLY E   7      43.008  48.704  23.472  1.00 56.48 LIG-0.65  OA
ENDBRANCH 21 22
ENDBRANCH 18 21
ENDBRANCH 16 17
BRANCH 16 25
ATOM     25  CB  THR E   6      45.748  43.097  22.290  1.00 24.32 LIG 0.15  C 
ATOM     26  CG2 THR E   6      46.671  44.144  23.052  1.00 23.74 LIG 0.04  C 
BRANCH 25 27
ATOM     27 OG1  THR E   6      44.747  42.619  23.171  1.00 30.49 LIG-0.39  OA
ATOM     28 HG1  THR E   6      44.076  43.121  23.130  1.00 30.49 LIG 0.21  HD
ENDBRANCH 25 27
ENDBRANCH 16 25
ENDBRANCH 13 16
ENDBRANCH 11 12
BRANCH 11 29
ATOM     29  CB  LEU E   5      46.630  44.648  17.473  1.00 19.92 LIG 0.04  C 
BRANCH 29 30
ATOM     30  CG  LEU E   5      46.661  45.135  15.995  1.00 17.19 LIG-0.02  C 
ATOM     31  CD1 LEU E   5      46.685  46.640  15.968  1.00 19.71 LIG 0.01  C 
ATOM     32  CD2 LEU E   5      47.843  44.539  15.275  1.00 21.46 LIG 0.01  C 
ENDBRANCH 29 30
ENDBRANCH 11 29
ENDBRANCH 8 11
ENDBRANCH 6 7
BRANCH 6 33
ATOM     33  CB  LEU E   4      43.141  41.212  14.943  1.00 18.44 LIG 0.04  C 
BRANCH 33 34
ATOM     34  CG  LEU E   4      43.156  39.885  15.735  1.00 22.78 LIG-0.02  C 
ATOM     35  CD2 LEU E   4      42.256  38.798  15.118  1.00 23.44 LIG 0.01  C 
ATOM     36  CD1 LEU E   4      42.715  40.231  17.158  1.00 27.53 LIG 0.01  C 
ENDBRANCH 33 34
ENDBRANCH 6 33
ENDBRANCH 4 6
ENDBRANCH 1 2
BRANCH 1 37
ATOM     37  CB  LEU E   3      44.297  37.795  12.610  1.00 29.41 LIG 0.04  C 
BRANCH 37 38
ATOM     38  CG  LEU E   3      45.115  36.482  12.639  1.00 30.90 LIG-0.02  C 
ATOM     39  CD1 LEU E   3      46.169  36.512  13.767  1.00 35.09 LIG 0.01  C 
ATOM     40  CD2 LEU E   3      44.184  35.296  12.818  1.00 39.15 LIG 0.01  C 
ENDBRANCH 37 38
ENDBRANCH 1 37
BRANCH 1 41
ATOM     41  N   LEU E   3      46.295  38.791  11.494  1.00 22.92 LIG-0.35  N 
ATOM     42 H    LEU E   3      46.704  38.242  12.015  1.00 22.92 LIG 0.16  HD
ATOM     43  C   ARG E   2      46.865  39.500  10.528  1.00 28.87 LIG 0.24  C 
ATOM     44 O    ARG E   2      46.195  40.309   9.820  1.00 29.44 LIG-0.27  OA
BRANCH 43 45
ATOM     45  CA  ARG E   2      48.382  39.332  10.279  1.00 32.90 LIG 0.18  C 
BRANCH 45 46
ATOM     46  CB  ARG E   2      48.834  40.210   9.123  1.00 32.53 LIG 0.04  C 
BRANCH 46 47
ATOM     47  CG  ARG E   2      49.825  41.265   9.464  1.00 34.92 LIG 0.02  C 
BRANCH 47 48
ATOM     48  CD  ARG E   2      51.071  41.019   8.689  1.00 37.57 LIG 0.14  C 
BRANCH 48 49
ATOM     49  NE  ARG E   2      52.249  41.750   9.183  1.00 41.00 LIG-0.23  N 
ATOM     50 HE   ARG E   2      52.579  42.371   8.687  1.00 41.00 LIG 0.18  HD
ATOM     51  CZ  ARG E   2      52.837  41.503  10.362  1.00 43.22 LIG 0.67  C 
ATOM     52  NH2 ARG E   2      53.853  42.251  10.771  1.00 39.75 LIG-0.23  N 
ATOM     53  NH1 ARG E   2      52.410  40.499  11.148  1.00 41.20 LIG-0.23  N 
ATOM     54 2HH2 ARG E   2      54.228  42.091  11.528  1.00 39.75 LIG 0.17  HD
ATOM     55 1HH2 ARG E   2      54.137  42.898  10.280  1.00 39.75 LIG 0.17  HD
ATOM     56 1HH1 ARG E   2      51.752  40.006  10.896  1.00 41.20 LIG 0.17  HD
ATOM     57 2HH1 ARG E   2      52.795  40.350  11.902  1.00 41.20 LIG 0.17  HD
ENDBRANCH 48 49
ENDBRANCH 47 48
ENDBRANCH 46 47
ENDBRANCH 45 46
BRANCH 45 58
ATOM     58  N   ARG E   2      48.647  37.973   9.785  1.00 36.64 LIG-0.35  N 
ATOM     59 H    ARG E   2      48.668  37.922   8.926  1.00 36.64 LIG 0.16  HD
ATOM     60  C   ASN E   1      48.837  36.930  10.563  1.00 41.83 LIG 0.25  C 
ATOM     61 O    ASN E   1      48.850  37.043  11.798  1.00 38.61 LIG-0.27  OA
BRANCH 60 62
ATOM     62  CA  ASN E   1      49.145  35.575   9.831  1.00 50.15 LIG 0.28  C 
BRANCH 62 63
ATOM     63  CB  ASN E   1      48.267  35.301   8.564  1.00 58.25 LIG 0.14  C 
BRANCH 63 64
ATOM     64  CG  ASN E   1      46.723  35.293   8.845  1.00 70.07 LIG 0.22  C 
ATOM     65 OD1  ASN E   1      46.248  35.169   9.986  1.00 69.16 LIG-0.27  OA
ATOM     66  ND2 ASN E   1      45.941  35.431   7.771  1.00 65.88 LIG-0.37  N 
ATOM     67 22HD ASN E   1      46.293  35.516   6.991  1.00 65.88 LIG 0.16  HD
ATOM     68 21HD ASN E   1      45.086  35.436   7.860  1.00 65.88 LIG 0.16  HD
ENDBRANCH 63 64
ENDBRANCH 62 63
BRANCH 62 69
ATOM     69  N   ASN E   1      49.072  34.422  10.773  1.00 55.39 LIG-0.07  N 
ATOM     70 H1   ASN E   1      49.630  33.783  10.504  1.00 55.39 LIG 0.28  HD
ATOM     71 H2   ASN E   1      49.300  34.691  11.590  1.00 55.39 LIG 0.28  HD
ATOM     72 H3   ASN E   1      48.242  34.102  10.787  1.00 55.39 LIG 0.28  HD
ENDBRANCH 62 69
ENDBRANCH 60 62
ENDBRANCH 45 58
ENDBRANCH 43 45
ENDBRANCH 1 41
TORSDOF 28
ENDMDL
MODEL 35
USER: ADFR SOLUTION from run 60
USER: SCORE 25.927991 LL:  -6.668 LR: -20.124 RR:   0.000 FEB: -11.772
USER: RMSD 12.566634
USER: SEED 59
USER: STATUS no improvement in best in 9 clusters for 5 generations
USER: GENES 30
USER: genes 0 Translation |==|  0.40286 0.32709 0.26251
USER: genes 1 Rotation |==|  0.75391 0.85735 0.33356 0.67359
USER: genes 2 Torsion [N]-CA--C-[N] |==|  0.86148
USER: genes 3 Torsion [C]-N--CA-[C] |==|  0.72851
USER: genes 4 Torsion [N]-CA--C-[N] |==|  0.33620
USER: genes 5 Torsion [C]-N--CA-[C] |==|  0.81316
USER: genes 6 Torsion [N]-CA--C-[N] |==|  0.44178
USER: genes 7 Torsion [C]-N--CA-[C] |==|  0.81748
USER: genes 8 Torsion [N]-CA--C-[N] |==|  0.94298
USER: genes 9 Torsion [C]-N--CA-[C] |==|  0.62222
USER: genes 10 Torsion [N]-CA--C-[O] |==|  0.47085
USER: genes 11 Torsion [N]-CA--CB-[CG2] |==|  0.51022
USER: genes 12 Torsion [CA]-CB--OG1-[HG1] |==|  0.80043
USER: genes 13 Torsion [N]-CA--CB-[CG] |==|  0.71986
USER: genes 14 Torsion [CA]-CB--CG-[CD1] |==|  0.49417
USER: genes 15 Torsion [N]-CA--CB-[CG] |==|  0.57895
USER: genes 16 Torsion [CA]-CB--CG-[CD2] |==|  0.04448
USER: genes 17 Torsion [C]-CA--CB-[CG] |==|  0.61759
USER: genes 18 Torsion [CA]-CB--CG-[CD2] |==|  0.56889
USER: genes 19 Torsion [C]-CA--N-[C] |==|  0.70995
USER: genes 20 Torsion [N]-C--CA-[N] |==|  0.98168
USER: genes 21 Torsion [C]-CA--CB-[CG] |==|  0.27448
USER: genes 22 Torsion [CA]-CB--CG-[CD] |==|  0.14046
USER: genes 23 Torsion [CB]-CG--CD-[NE] |==|  0.56103
USER: genes 24 Torsion [CG]-CD--NE-[HE] |==|  0.69257
USER: genes 25 Torsion [C]-CA--N-[C] |==|  0.64067
USER: genes 26 Torsion [N]-C--CA-[N] |==|  0.53782
USER: genes 27 Torsion [C]-CA--CB-[CG] |==|  0.84041
USER: genes 28 Torsion [CA]-CB--CG-[OD1] |==|  0.07048
USER: genes 29 Torsion [C]-CA--N-[H2] |==|  0.06570
ROOT
ATOM      1  CA  LEU E   3      43.626  40.229  10.914  1.00 22.83 LIG 0.18  C 
ENDROOT
BRANCH 1 2
ATOM      2  C   LEU E   3      43.644  40.727  12.397  1.00 19.55 LIG 0.24  C 
ATOM      3 O    LEU E   3      43.465  41.902  12.673  1.00 19.60 LIG-0.27  OA
ATOM      4  N   LEU E   4      43.867  39.811  13.311  1.00 19.32 LIG-0.35  N 
ATOM      5 H    LEU E   4      44.189  39.030  13.154  1.00 19.32 LIG 0.16  HD
BRANCH 4 6
ATOM      6  CA  LEU E   4      43.553  40.098  14.757  1.00 17.74 LIG 0.18  C 
BRANCH 6 7
ATOM      7  C   LEU E   4      44.764  40.520  15.511  1.00 18.94 LIG 0.24  C 
ATOM      8  N   LEU E   5      44.694  41.745  16.090  1.00 19.76 LIG-0.35  N 
ATOM      9 H    LEU E   5      43.985  42.233  16.107  1.00 19.76 LIG 0.16  HD
ATOM     10 O    LEU E   4      45.806  39.798  15.538  1.00 20.41 LIG-0.27  OA
BRANCH 8 11
ATOM     11  CA  LEU E   5      45.857  42.337  16.741  1.00 18.99 LIG 0.18  C 
BRANCH 11 12
ATOM     12  C   LEU E   5      46.158  41.489  17.979  1.00 20.67 LIG 0.24  C 
ATOM     13  N   THR E   6      47.403  41.597  18.445  1.00 21.83 LIG-0.34  N 
ATOM     14 H    THR E   6      48.042  42.028  18.066  1.00 21.83 LIG 0.16  HD
ATOM     15 O    LEU E   5      45.261  40.841  18.469  1.00 20.01 LIG-0.27  OA
BRANCH 13 16
ATOM     16  CA  THR E   6      47.743  40.932  19.715  1.00 24.74 LIG 0.20  C 
BRANCH 16 17
ATOM     17  C   THR E   6      46.965  41.584  20.860  1.00 26.78 LIG 0.24  C 
ATOM     18  N   GLY E   7      46.518  42.820  20.588  1.00 28.46 LIG-0.35  N 
ATOM     19 H    GLY E   7      46.391  43.094  19.782  1.00 28.46 LIG 0.16  HD
ATOM     20 O    THR E   6      46.730  41.004  21.924  1.00 25.34 LIG-0.27  OA
BRANCH 18 21
ATOM     21  CA  GLY E   7      46.195  43.834  21.588  1.00 36.11 LIG 0.23  C 
BRANCH 21 22
ATOM     22  C   GLY E   7      44.923  44.505  21.246  1.00 43.05 LIG 0.19  C 
ATOM     23 OXT  GLY E   7      44.469  44.275  20.124  1.00 50.23 LIG-0.65  OA
ATOM     24 O    GLY E   7      44.345  45.271  22.051  1.00 56.48 LIG-0.65  OA
ENDBRANCH 21 22
ENDBRANCH 18 21
ENDBRANCH 16 17
BRANCH 16 25
ATOM     25  CB  THR E   6      49.265  40.985  19.964  1.00 24.32 LIG 0.15  C 
ATOM     26  CG2 THR E   6      49.647  40.187  21.285  1.00 23.74 LIG 0.04  C 
BRANCH 25 27
ATOM     27 OG1  THR E   6      49.879  40.370  18.845  1.00 30.49 LIG-0.39  OA
ATOM     28 HG1  THR E   6      49.745  39.542  18.873  1.00 30.49 LIG 0.21  HD
ENDBRANCH 25 27
ENDBRANCH 16 25
ENDBRANCH 13 16
ENDBRANCH 11 12
BRANCH 11 29
ATOM     29  CB  LEU E   5      45.581  43.742  17.255  1.00 19.92 LIG 0.04  C 
BRANCH 29 30
ATOM     30  CG  LEU E   5      46.172  44.791  16.269  1.00 17.19 LIG-0.02  C 
ATOM     31  CD1 LEU E   5      45.846  46.176  16.763  1.00 19.71 LIG 0.01  C 
ATOM     32  CD2 LEU E   5      47.656  44.582  16.114  1.00 21.46 LIG 0.01  C 
ENDBRANCH 29 30
ENDBRANCH 11 29
ENDBRANCH 8 11
ENDBRANCH 6 7
BRANCH 6 33
ATOM     33  CB  LEU E   4      42.980  38.792  15.401  1.00 18.44 LIG 0.04  C 
BRANCH 33 34
ATOM     34  CG  LEU E   4      42.019  39.139  16.560  1.00 22.78 LIG-0.02  C 
ATOM     35  CD2 LEU E   4      41.557  40.609  16.549  1.00 23.44 LIG 0.01  C 
ATOM     36  CD1 LEU E   4      42.765  38.799  17.852  1.00 27.53 LIG 0.01  C 
ENDBRANCH 33 34
ENDBRANCH 6 33
ENDBRANCH 4 6
ENDBRANCH 1 2
BRANCH 1 37
ATOM     37  CB  LEU E   3      42.338  39.429  10.693  1.00 29.41 LIG 0.04  C 
BRANCH 37 38
ATOM     38  CG  LEU E   3      42.451  38.119   9.878  1.00 30.90 LIG-0.02  C 
ATOM     39  CD1 LEU E   3      42.923  36.952  10.772  1.00 35.09 LIG 0.01  C 
ATOM     40  CD2 LEU E   3      41.113  37.789   9.241  1.00 39.15 LIG 0.01  C 
ENDBRANCH 37 38
ENDBRANCH 1 37
BRANCH 1 41
ATOM     41  N   LEU E   3      44.833  39.403  10.610  1.00 22.92 LIG-0.35  N 
ATOM     42 H    LEU E   3      44.825  38.603  10.927  1.00 22.92 LIG 0.16  HD
ATOM     43  C   ARG E   2      45.815  39.933   9.891  1.00 28.87 LIG 0.24  C 
ATOM     44 O    ARG E   2      45.760  41.131   9.483  1.00 29.44 LIG-0.27  OA
BRANCH 43 45
ATOM     45  CA  ARG E   2      47.049  39.061   9.563  1.00 32.90 LIG 0.18  C 
BRANCH 45 46
ATOM     46  CB  ARG E   2      47.027  38.633   8.104  1.00 32.53 LIG 0.04  C 
BRANCH 46 47
ATOM     47  CG  ARG E   2      47.874  39.437   7.183  1.00 34.92 LIG 0.02  C 
BRANCH 47 48
ATOM     48  CD  ARG E   2      49.242  39.537   7.758  1.00 37.57 LIG 0.14  C 
BRANCH 48 49
ATOM     49  NE  ARG E   2      50.029  40.677   7.262  1.00 41.00 LIG-0.23  N 
ATOM     50 HE   ARG E   2      50.703  40.514   6.752  1.00 41.00 LIG 0.18  HD
ATOM     51  CZ  ARG E   2      49.756  41.955   7.558  1.00 43.22 LIG 0.67  C 
ATOM     52  NH2 ARG E   2      50.468  42.934   7.015  1.00 39.75 LIG-0.23  N 
ATOM     53  NH1 ARG E   2      48.759  42.267   8.405  1.00 41.20 LIG-0.23  N 
ATOM     54 2HH2 ARG E   2      50.290  43.753   7.207  1.00 39.75 LIG 0.17  HD
ATOM     55 1HH2 ARG E   2      51.108  42.750   6.471  1.00 39.75 LIG 0.17  HD
ATOM     56 1HH1 ARG E   2      48.289  41.643   8.764  1.00 41.20 LIG 0.17  HD
ATOM     57 2HH1 ARG E   2      48.593  43.091   8.588  1.00 41.20 LIG 0.17  HD
ENDBRANCH 48 49
ENDBRANCH 47 48
ENDBRANCH 46 47
ENDBRANCH 45 46
BRANCH 45 58
ATOM     58  N   ARG E   2      46.949  37.783  10.283  1.00 36.64 LIG-0.35  N 
ATOM     59 H    ARG E   2      46.191  37.391  10.174  1.00 36.64 LIG 0.16  HD
ATOM     60  C   ASN E   1      47.911  37.278  11.023  1.00 41.83 LIG 0.25  C 
ATOM     61 O    ASN E   1      49.011  37.842  11.123  1.00 38.61 LIG-0.27  OA
BRANCH 60 62
ATOM     62  CA  ASN E   1      47.613  35.880  11.674  1.00 50.15 LIG 0.28  C 
BRANCH 62 63
ATOM     63  CB  ASN E   1      46.156  35.710  12.223  1.00 58.25 LIG 0.14  C 
BRANCH 63 64
ATOM     64  CG  ASN E   1      45.747  36.783  13.293  1.00 70.07 LIG 0.22  C 
ATOM     65 OD1  ASN E   1      46.270  37.909  13.352  1.00 69.16 LIG-0.27  OA
ATOM     66  ND2 ASN E   1      44.791  36.409  14.148  1.00 65.88 LIG-0.37  N 
ATOM     67 22HD ASN E   1      44.444  35.625  14.088  1.00 65.88 LIG 0.16  HD
ATOM     68 21HD ASN E   1      44.524  36.954  14.758  1.00 65.88 LIG 0.16  HD
ENDBRANCH 63 64
ENDBRANCH 62 63
BRANCH 62 69
ATOM     69  N   ASN E   1      48.608  35.553  12.735  1.00 55.39 LIG-0.07  N 
ATOM     70 H1   ASN E   1      49.248  35.038  12.393  1.00 55.39 LIG 0.28  HD
ATOM     71 H2   ASN E   1      48.968  36.305  13.047  1.00 55.39 LIG 0.28  HD
ATOM     72 H3   ASN E   1      48.204  35.120  13.398  1.00 55.39 LIG 0.28  HD
ENDBRANCH 62 69
ENDBRANCH 60 62
ENDBRANCH 45 58
ENDBRANCH 43 45
ENDBRANCH 1 41
TORSDOF 28
ENDMDL
MODEL 36
USER: ADFR SOLUTION from run 65
USER: SCORE 24.460092 LL:  -5.627 LR: -20.118 RR:   0.000 FEB: -11.765
USER: RMSD 12.172158
USER: SEED 64
USER: STATUS no improvement in best in 8 clusters for 5 generations
USER: GENES 30
USER: genes 0 Translation |==|  0.45355 0.34868 0.41307
USER: genes 1 Rotation |==|  0.57707 0.91404 0.23221 0.53037
USER: genes 2 Torsion [N]-CA--C-[N] |==|  0.35508
USER: genes 3 Torsion [C]-N--CA-[C] |==|  0.87222
USER: genes 4 Torsion [N]-CA--C-[N] |==|  0.34068
USER: genes 5 Torsion [C]-N--CA-[C] |==|  0.66145
USER: genes 6 Torsion [N]-CA--C-[N] |==|  0.83836
USER: genes 7 Torsion [C]-N--CA-[C] |==|  0.75001
USER: genes 8 Torsion [N]-CA--C-[N] |==|  0.42129
USER: genes 9 Torsion [C]-N--CA-[C] |==|  0.80604
USER: genes 10 Torsion [N]-CA--C-[O] |==|  0.90127
USER: genes 11 Torsion [N]-CA--CB-[CG2] |==|  0.37550
USER: genes 12 Torsion [CA]-CB--OG1-[HG1] |==|  0.45409
USER: genes 13 Torsion [N]-CA--CB-[CG] |==|  0.64451
USER: genes 14 Torsion [CA]-CB--CG-[CD1] |==|  0.62624
USER: genes 15 Torsion [N]-CA--CB-[CG] |==|  0.53197
USER: genes 16 Torsion [CA]-CB--CG-[CD2] |==|  0.50270
USER: genes 17 Torsion [C]-CA--CB-[CG] |==|  0.37328
USER: genes 18 Torsion [CA]-CB--CG-[CD2] |==|  0.74695
USER: genes 19 Torsion [C]-CA--N-[C] |==|  0.69120
USER: genes 20 Torsion [N]-C--CA-[N] |==|  0.09945
USER: genes 21 Torsion [C]-CA--CB-[CG] |==|  0.35575
USER: genes 22 Torsion [CA]-CB--CG-[CD] |==|  0.92311
USER: genes 23 Torsion [CB]-CG--CD-[NE] |==|  0.24199
USER: genes 24 Torsion [CG]-CD--NE-[HE] |==|  0.91813
USER: genes 25 Torsion [C]-CA--N-[C] |==|  0.67678
USER: genes 26 Torsion [N]-C--CA-[N] |==|  0.61796
USER: genes 27 Torsion [C]-CA--CB-[CG] |==|  0.84953
USER: genes 28 Torsion [CA]-CB--CG-[OD1] |==|  0.96928
USER: genes 29 Torsion [C]-CA--N-[H2] |==|  0.93131
ROOT
ATOM      1  CA  LEU E   3      44.652  40.715  14.866  1.00 22.83 LIG 0.18  C 
ENDROOT
BRANCH 1 2
ATOM      2  C   LEU E   3      45.660  41.605  15.666  1.00 19.55 LIG 0.24  C 
ATOM      3 O    LEU E   3      46.724  41.156  16.063  1.00 19.60 LIG-0.27  OA
ATOM      4  N   LEU E   4      45.289  42.844  15.885  1.00 19.32 LIG-0.35  N 
ATOM      5 H    LEU E   4      44.486  43.138  15.803  1.00 19.32 LIG 0.16  HD
BRANCH 4 6
ATOM      6  CA  LEU E   4      46.307  43.871  16.315  1.00 17.74 LIG 0.18  C 
BRANCH 6 7
ATOM      7  C   LEU E   4      47.187  43.354  17.398  1.00 18.94 LIG 0.24  C 
ATOM      8  N   LEU E   5      48.516  43.369  17.126  1.00 19.76 LIG-0.35  N 
ATOM      9 H    LEU E   5      48.863  43.721  16.422  1.00 19.76 LIG 0.16  HD
ATOM     10 O    LEU E   4      46.702  42.871  18.465  1.00 20.41 LIG-0.27  OA
BRANCH 8 11
ATOM     11  CA  LEU E   5      49.478  42.767  18.042  1.00 18.99 LIG 0.18  C 
BRANCH 11 12
ATOM     12  C   LEU E   5      50.461  43.867  18.449  1.00 20.67 LIG 0.24  C 
ATOM     13  N   THR E   6      51.112  44.442  17.438  1.00 21.83 LIG-0.34  N 
ATOM     14 H    THR E   6      51.078  44.191  16.616  1.00 21.83 LIG 0.16  HD
ATOM     15 O    LEU E   5      50.540  44.169  19.619  1.00 20.01 LIG-0.27  OA
BRANCH 13 16
ATOM     16  CA  THR E   6      51.970  45.606  17.719  1.00 24.74 LIG 0.20  C 
BRANCH 16 17
ATOM     17  C   THR E   6      51.148  46.891  17.595  1.00 26.78 LIG 0.24  C 
ATOM     18  N   GLY E   7      51.586  47.900  18.362  1.00 28.46 LIG-0.35  N 
ATOM     19 H    GLY E   7      52.398  47.945  18.640  1.00 28.46 LIG 0.16  HD
ATOM     20 O    THR E   6      50.193  47.001  16.820  1.00 25.34 LIG-0.27  OA
BRANCH 18 21
ATOM     21  CA  GLY E   7      50.769  49.023  18.815  1.00 36.11 LIG 0.23  C 
BRANCH 21 22
ATOM     22  C   GLY E   7      50.433  49.905  17.677  1.00 43.05 LIG 0.19  C 
ATOM     23 OXT  GLY E   7      49.314  50.420  17.698  1.00 50.23 LIG-0.65  OA
ATOM     24 O    GLY E   7      51.240  50.109  16.741  1.00 56.48 LIG-0.65  OA
ENDBRANCH 21 22
ENDBRANCH 18 21
ENDBRANCH 16 17
BRANCH 16 25
ATOM     25  CB  THR E   6      53.189  45.621  16.773  1.00 24.32 LIG 0.15  C 
ATOM     26  CG2 THR E   6      53.432  47.082  16.193  1.00 23.74 LIG 0.04  C 
BRANCH 25 27
ATOM     27 OG1  THR E   6      54.307  45.228  17.548  1.00 30.49 LIG-0.39  OA
ATOM     28 HG1  THR E   6      54.937  45.006  17.039  1.00 30.49 LIG 0.21  HD
ENDBRANCH 25 27
ENDBRANCH 16 25
ENDBRANCH 13 16
ENDBRANCH 11 12
BRANCH 11 29
ATOM     29  CB  LEU E   5      50.315  41.685  17.375  1.00 19.92 LIG 0.04  C 
BRANCH 29 30
ATOM     30  CG  LEU E   5      50.261  40.379  18.218  1.00 17.19 LIG-0.02  C 
ATOM     31  CD1 LEU E   5      51.652  39.816  18.351  1.00 19.71 LIG 0.01  C 
ATOM     32  CD2 LEU E   5      49.633  40.651  19.561  1.00 21.46 LIG 0.01  C 
ENDBRANCH 29 30
ENDBRANCH 11 29
ENDBRANCH 8 11
ENDBRANCH 6 7
BRANCH 6 33
ATOM     33  CB  LEU E   4      45.540  45.130  16.838  1.00 18.44 LIG 0.04  C 
BRANCH 33 34
ATOM     34  CG  LEU E   4      46.513  46.317  17.022  1.00 22.78 LIG-0.02  C 
ATOM     35  CD2 LEU E   4      45.828  47.588  17.559  1.00 23.44 LIG 0.01  C 
ATOM     36  CD1 LEU E   4      47.150  46.564  15.654  1.00 27.53 LIG 0.01  C 
ENDBRANCH 33 34
ENDBRANCH 6 33
ENDBRANCH 4 6
ENDBRANCH 1 2
BRANCH 1 37
ATOM     37  CB  LEU E   3      44.065  39.675  15.825  1.00 29.41 LIG 0.04  C 
BRANCH 37 38
ATOM     38  CG  LEU E   3      42.535  39.455  15.779  1.00 30.90 LIG-0.02  C 
ATOM     39  CD1 LEU E   3      42.179  37.982  16.076  1.00 35.09 LIG 0.01  C 
ATOM     40  CD2 LEU E   3      41.849  40.374  16.773  1.00 39.15 LIG 0.01  C 
ENDBRANCH 37 38
ENDBRANCH 1 37
BRANCH 1 41
ATOM     41  N   LEU E   3      45.322  40.058  13.704  1.00 22.92 LIG-0.35  N 
ATOM     42 H    LEU E   3      45.899  39.452  13.901  1.00 22.92 LIG 0.16  HD
ATOM     43  C   ARG E   2      44.998  40.437  12.473  1.00 28.87 LIG 0.24  C 
ATOM     44 O    ARG E   2      44.155  41.359  12.267  1.00 29.44 LIG-0.27  OA
BRANCH 43 45
ATOM     45  CA  ARG E   2      45.680  39.734  11.276  1.00 32.90 LIG 0.18  C 
BRANCH 45 46
ATOM     46  CB  ARG E   2      44.740  39.680  10.082  1.00 32.53 LIG 0.04  C 
BRANCH 46 47
ATOM     47  CG  ARG E   2      45.294  40.197   8.802  1.00 34.92 LIG 0.02  C 
BRANCH 47 48
ATOM     48  CD  ARG E   2      46.331  41.219   9.109  1.00 37.57 LIG 0.14  C 
BRANCH 48 49
ATOM     49  NE  ARG E   2      47.680  40.672   9.319  1.00 41.00 LIG-0.23  N 
ATOM     50 HE   ARG E   2      47.751  39.875   9.635  1.00 41.00 LIG 0.18  HD
ATOM     51  CZ  ARG E   2      48.807  41.344   9.047  1.00 43.22 LIG 0.67  C 
ATOM     52  NH2 ARG E   2      49.988  40.759   9.196  1.00 39.75 LIG-0.23  N 
ATOM     53  NH1 ARG E   2      48.761  42.618   8.617  1.00 41.20 LIG-0.23  N 
ATOM     54 2HH2 ARG E   2      50.709  41.193   9.020  1.00 39.75 LIG 0.17  HD
ATOM     55 1HH2 ARG E   2      50.033  39.945   9.469  1.00 39.75 LIG 0.17  HD
ATOM     56 1HH1 ARG E   2      48.003  43.011   8.515  1.00 41.20 LIG 0.17  HD
ATOM     57 2HH1 ARG E   2      49.490  43.040   8.445  1.00 41.20 LIG 0.17  HD
ENDBRANCH 48 49
ENDBRANCH 47 48
ENDBRANCH 46 47
ENDBRANCH 45 46
BRANCH 45 58
ATOM     58  N   ARG E   2      45.885  38.314  11.597  1.00 36.64 LIG-0.35  N 
ATOM     59 H    ARG E   2      45.151  37.882  11.714  1.00 36.64 LIG 0.16  HD
ATOM     60  C   ASN E   1      47.067  37.746  11.699  1.00 41.83 LIG 0.25  C 
ATOM     61 O    ASN E   1      48.108  38.382  11.477  1.00 38.61 LIG-0.27  OA
BRANCH 60 62
ATOM     62  CA  ASN E   1      47.063  36.207  12.011  1.00 50.15 LIG 0.28  C 
BRANCH 62 63
ATOM     63  CB  ASN E   1      45.670  35.626  12.429  1.00 58.25 LIG 0.14  C 
BRANCH 63 64
ATOM     64  CG  ASN E   1      45.000  36.377  13.633  1.00 70.07 LIG 0.22  C 
ATOM     65 OD1  ASN E   1      45.607  37.209  14.329  1.00 69.16 LIG-0.27  OA
ATOM     66  ND2 ASN E   1      43.722  36.065  13.868  1.00 65.88 LIG-0.37  N 
ATOM     67 22HD ASN E   1      43.323  35.487  13.373  1.00 65.88 LIG 0.16  HD
ATOM     68 21HD ASN E   1      43.300  36.444  14.514  1.00 65.88 LIG 0.16  HD
ENDBRANCH 63 64
ENDBRANCH 62 63
BRANCH 62 69
ATOM     69  N   ASN E   1      48.096  35.857  13.027  1.00 55.39 LIG-0.07  N 
ATOM     70 H1   ASN E   1      48.438  35.057  12.840  1.00 55.39 LIG 0.28  HD
ATOM     71 H2   ASN E   1      48.745  36.467  13.013  1.00 55.39 LIG 0.28  HD
ATOM     72 H3   ASN E   1      47.724  35.838  13.835  1.00 55.39 LIG 0.28  HD
ENDBRANCH 62 69
ENDBRANCH 60 62
ENDBRANCH 45 58
ENDBRANCH 43 45
ENDBRANCH 1 41
TORSDOF 28
ENDMDL
MODEL 37
USER: ADFR SOLUTION from run 67
USER: SCORE 24.395776 LL:  -5.007 LR: -20.113 RR:   0.000 FEB: -11.760
USER: RMSD 6.312331
USER: SEED 66
USER: STATUS searching
USER: GENES 30
USER: genes 0 Translation |==|  0.52838 0.43348 0.62279
USER: genes 1 Rotation |==|  0.24614 0.47290 0.09067 0.63140
USER: genes 2 Torsion [N]-CA--C-[N] |==|  0.97215
USER: genes 3 Torsion [C]-N--CA-[C] |==|  0.73921
USER: genes 4 Torsion [N]-CA--C-[N] |==|  0.35089
USER: genes 5 Torsion [C]-N--CA-[C] |==|  0.68280
USER: genes 6 Torsion [N]-CA--C-[N] |==|  0.43543
USER: genes 7 Torsion [C]-N--CA-[C] |==|  0.60311
USER: genes 8 Torsion [N]-CA--C-[N] |==|  0.43308
USER: genes 9 Torsion [C]-N--CA-[C] |==|  0.49002
USER: genes 10 Torsion [N]-CA--C-[O] |==|  0.46075
USER: genes 11 Torsion [N]-CA--CB-[CG2] |==|  0.41554
USER: genes 12 Torsion [CA]-CB--OG1-[HG1] |==|  0.01772
USER: genes 13 Torsion [N]-CA--CB-[CG] |==|  0.89243
USER: genes 14 Torsion [CA]-CB--CG-[CD1] |==|  0.45356
USER: genes 15 Torsion [N]-CA--CB-[CG] |==|  0.72008
USER: genes 16 Torsion [CA]-CB--CG-[CD2] |==|  0.37918
USER: genes 17 Torsion [C]-CA--CB-[CG] |==|  0.28197
USER: genes 18 Torsion [CA]-CB--CG-[CD2] |==|  0.57405
USER: genes 19 Torsion [C]-CA--N-[C] |==|  0.67909
USER: genes 20 Torsion [N]-C--CA-[N] |==|  0.46982
USER: genes 21 Torsion [C]-CA--CB-[CG] |==|  0.37392
USER: genes 22 Torsion [CA]-CB--CG-[CD] |==|  0.41437
USER: genes 23 Torsion [CB]-CG--CD-[NE] |==|  0.63102
USER: genes 24 Torsion [CG]-CD--NE-[HE] |==|  0.71107
USER: genes 25 Torsion [C]-CA--N-[C] |==|  0.61169
USER: genes 26 Torsion [N]-C--CA-[N] |==|  0.41281
USER: genes 27 Torsion [C]-CA--CB-[CG] |==|  0.01985
USER: genes 28 Torsion [CA]-CB--CG-[OD1] |==|  0.28442
USER: genes 29 Torsion [C]-CA--N-[H2] |==|  0.37285
ROOT
ATOM      1  CA  LEU E   3      46.168  42.623  20.371  1.00 22.83 LIG 0.18  C 
ENDROOT
BRANCH 1 2
ATOM      2  C   LEU E   3      45.528  42.598  18.944  1.00 19.55 LIG 0.24  C 
ATOM      3 O    LEU E   3      44.317  42.630  18.792  1.00 19.60 LIG-0.27  OA
ATOM      4  N   LEU E   4      46.365  42.535  17.936  1.00 19.32 LIG-0.35  N 
ATOM      5 H    LEU E   4      47.193  42.313  17.999  1.00 19.32 LIG 0.16  HD
BRANCH 4 6
ATOM      6  CA  LEU E   4      45.894  42.865  16.542  1.00 17.74 LIG 0.18  C 
BRANCH 6 7
ATOM      7  C   LEU E   4      45.469  41.647  15.802  1.00 18.94 LIG 0.24  C 
ATOM      8  N   LEU E   5      44.220  41.693  15.272  1.00 19.76 LIG-0.35  N 
ATOM      9 H    LEU E   5      43.717  42.391  15.275  1.00 19.76 LIG 0.16  HD
ATOM     10 O    LEU E   4      46.211  40.621  15.743  1.00 20.41 LIG-0.27  OA
BRANCH 8 11
ATOM     11  CA  LEU E   5      43.629  40.519  14.640  1.00 18.99 LIG 0.18  C 
BRANCH 11 12
ATOM     12  C   LEU E   5      43.461  40.845  13.154  1.00 20.67 LIG 0.24  C 
ATOM     13  N   THR E   6      43.401  39.784  12.349  1.00 21.83 LIG-0.34  N 
ATOM     14 H    THR E   6      43.527  38.968  12.588  1.00 21.83 LIG 0.16  HD
ATOM     15 O    LEU E   5      43.343  42.004  12.825  1.00 20.01 LIG-0.27  OA
BRANCH 13 16
ATOM     16  CA  THR E   6      43.097  39.993  10.923  1.00 24.74 LIG 0.20  C 
BRANCH 16 17
ATOM     17  C   THR E   6      42.213  38.852  10.414  1.00 26.78 LIG 0.24  C 
ATOM     18  N   GLY E   7      41.472  39.167   9.341  1.00 28.46 LIG-0.35  N 
ATOM     19 H    GLY E   7      41.690  39.802   8.804  1.00 28.46 LIG 0.16  HD
ATOM     20 O    THR E   6      42.218  37.726  10.920  1.00 25.34 LIG-0.27  OA
BRANCH 18 21
ATOM     21  CA  GLY E   7      40.235  38.496   8.951  1.00 36.11 LIG 0.23  C 
BRANCH 21 22
ATOM     22  C   GLY E   7      39.642  39.158   7.769  1.00 43.05 LIG 0.19  C 
ATOM     23 OXT  GLY E   7      40.087  40.273   7.489  1.00 50.23 LIG-0.65  OA
ATOM     24 O    GLY E   7      38.733  38.618   7.097  1.00 56.48 LIG-0.65  OA
ENDBRANCH 21 22
ENDBRANCH 18 21
ENDBRANCH 16 17
BRANCH 16 25
ATOM     25  CB  THR E   6      44.398  40.110  10.102  1.00 24.32 LIG 0.15  C 
ATOM     26  CG2 THR E   6      44.180  39.566   8.623  1.00 23.74 LIG 0.04  C 
BRANCH 25 27
ATOM     27 OG1  THR E   6      44.725  41.487  10.056  1.00 30.49 LIG-0.39  OA
ATOM     28 HG1  THR E   6      44.199  41.916  10.549  1.00 30.49 LIG 0.21  HD
ENDBRANCH 25 27
ENDBRANCH 16 25
ENDBRANCH 13 16
ENDBRANCH 11 12
BRANCH 11 29
ATOM     29  CB  LEU E   5      42.230  40.223  15.162  1.00 19.92 LIG 0.04  C 
BRANCH 29 30
ATOM     30  CG  LEU E   5      42.170  40.490  16.693  1.00 17.19 LIG-0.02  C 
ATOM     31  CD1 LEU E   5      40.731  40.596  17.123  1.00 19.71 LIG 0.01  C 
ATOM     32  CD2 LEU E   5      42.903  39.405  17.441  1.00 21.46 LIG 0.01  C 
ENDBRANCH 29 30
ENDBRANCH 11 29
ENDBRANCH 8 11
ENDBRANCH 6 7
BRANCH 6 33
ATOM     33  CB  LEU E   4      47.076  43.543  15.774  1.00 18.44 LIG 0.04  C 
BRANCH 33 34
ATOM     34  CG  LEU E   4      46.889  45.077  15.741  1.00 22.78 LIG-0.02  C 
ATOM     35  CD2 LEU E   4      48.186  45.855  16.032  1.00 23.44 LIG 0.01  C 
ATOM     36  CD1 LEU E   4      45.803  45.399  16.769  1.00 27.53 LIG 0.01  C 
ENDBRANCH 33 34
ENDBRANCH 6 33
ENDBRANCH 4 6
ENDBRANCH 1 2
BRANCH 1 37
ATOM     37  CB  LEU E   3      45.910  44.002  20.987  1.00 29.41 LIG 0.04  C 
BRANCH 37 38
ATOM     38  CG  LEU E   3      44.768  44.110  22.026  1.00 30.90 LIG-0.02  C 
ATOM     39  CD1 LEU E   3      45.262  43.712  23.434  1.00 35.09 LIG 0.01  C 
ATOM     40  CD2 LEU E   3      44.214  45.523  22.041  1.00 39.15 LIG 0.01  C 
ENDBRANCH 37 38
ENDBRANCH 1 37
BRANCH 1 41
ATOM     41  N   LEU E   3      47.631  42.327  20.309  1.00 22.92 LIG-0.35  N 
ATOM     42 H    LEU E   3      48.110  42.904  19.888  1.00 22.92 LIG 0.16  HD
ATOM     43  C   ARG E   2      48.092  41.224  20.887  1.00 28.87 LIG 0.24  C 
ATOM     44 O    ARG E   2      47.314  40.409  21.465  1.00 29.44 LIG-0.27  OA
BRANCH 43 45
ATOM     45  CA  ARG E   2      49.610  40.938  20.837  1.00 32.90 LIG 0.18  C 
BRANCH 45 46
ATOM     46  CB  ARG E   2      50.005  40.387  19.476  1.00 32.53 LIG 0.04  C 
BRANCH 46 47
ATOM     47  CG  ARG E   2      51.226  40.984  18.869  1.00 34.92 LIG 0.02  C 
BRANCH 47 48
ATOM     48  CD  ARG E   2      51.895  39.953  18.031  1.00 37.57 LIG 0.14  C 
BRANCH 48 49
ATOM     49  NE  ARG E   2      53.346  39.842  18.247  1.00 41.00 LIG-0.23  N 
ATOM     50 HE   ARG E   2      53.872  40.180  17.656  1.00 41.00 LIG 0.18  HD
ATOM     51  CZ  ARG E   2      53.896  39.244  19.313  1.00 43.22 LIG 0.67  C 
ATOM     52  NH2 ARG E   2      55.213  39.245  19.475  1.00 39.75 LIG-0.23  N 
ATOM     53  NH1 ARG E   2      53.128  38.636  20.234  1.00 41.20 LIG-0.23  N 
ATOM     54 2HH2 ARG E   2      55.563  38.861  20.160  1.00 39.75 LIG 0.17  HD
ATOM     55 1HH2 ARG E   2      55.717  39.630  18.894  1.00 39.75 LIG 0.17  HD
ATOM     56 1HH1 ARG E   2      52.273  38.628  20.144  1.00 41.20 LIG 0.17  HD
ATOM     57 2HH1 ARG E   2      53.492  38.256  20.914  1.00 41.20 LIG 0.17  HD
ENDBRANCH 48 49
ENDBRANCH 47 48
ENDBRANCH 46 47
ENDBRANCH 45 46
BRANCH 45 58
ATOM     58  N   ARG E   2      49.927  39.827  21.746  1.00 36.64 LIG-0.35  N 
ATOM     59 H    ARG E   2      49.343  39.196  21.728  1.00 36.64 LIG 0.16  HD
ATOM     60  C   ASN E   1      50.993  39.786  22.516  1.00 41.83 LIG 0.25  C 
ATOM     61 O    ASN E   1      51.843  40.688  22.486  1.00 38.61 LIG-0.27  OA
BRANCH 60 62
ATOM     62  CA  ASN E   1      51.163  38.488  23.383  1.00 50.15 LIG 0.28  C 
BRANCH 62 63
ATOM     63  CB  ASN E   1      50.397  38.507  24.749  1.00 58.25 LIG 0.14  C 
BRANCH 63 64
ATOM     64  CG  ASN E   1      49.451  39.745  24.934  1.00 70.07 LIG 0.22  C 
ATOM     65 OD1  ASN E   1      48.218  39.677  24.792  1.00 69.16 LIG-0.27  OA
ATOM     66  ND2 ASN E   1      50.057  40.890  25.258  1.00 65.88 LIG-0.37  N 
ATOM     67 22HD ASN E   1      50.912  40.913  25.351  1.00 65.88 LIG 0.16  HD
ATOM     68 21HD ASN E   1      49.592  41.604  25.374  1.00 65.88 LIG 0.16  HD
ENDBRANCH 63 64
ENDBRANCH 62 63
BRANCH 62 69
ATOM     69  N   ASN E   1      52.602  38.166  23.600  1.00 55.39 LIG-0.07  N 
ATOM     70 H1   ASN E   1      53.100  38.869  23.379  1.00 55.39 LIG 0.28  HD
ATOM     71 H2   ASN E   1      52.736  37.966  24.457  1.00 55.39 LIG 0.28  HD
ATOM     72 H3   ASN E   1      52.831  37.471  23.094  1.00 55.39 LIG 0.28  HD
ENDBRANCH 62 69
ENDBRANCH 60 62
ENDBRANCH 45 58
ENDBRANCH 43 45
ENDBRANCH 1 41
TORSDOF 28
ENDMDL
MODEL 38
USER: ADFR SOLUTION from run 68
USER: SCORE 23.745479 LL:  -5.105 LR: -20.055 RR:   0.000 FEB: -11.703
USER: RMSD 12.878666
USER: SEED 67
USER: STATUS no improvement in best in 22 clusters for 5 generations
USER: GENES 30
USER: genes 0 Translation |==|  0.41233 0.33646 0.42182
USER: genes 1 Rotation |==|  0.66750 0.90506 0.25974 0.51217
USER: genes 2 Torsion [N]-CA--C-[N] |==|  0.44289
USER: genes 3 Torsion [C]-N--CA-[C] |==|  0.16182
USER: genes 4 Torsion [N]-CA--C-[N] |==|  0.49860
USER: genes 5 Torsion [C]-N--CA-[C] |==|  0.58068
USER: genes 6 Torsion [N]-CA--C-[N] |==|  0.51111
USER: genes 7 Torsion [C]-N--CA-[C] |==|  0.75823
USER: genes 8 Torsion [N]-CA--C-[N] |==|  0.98125
USER: genes 9 Torsion [C]-N--CA-[C] |==|  0.32206
USER: genes 10 Torsion [N]-CA--C-[O] |==|  0.41799
USER: genes 11 Torsion [N]-CA--CB-[CG2] |==|  0.21652
USER: genes 12 Torsion [CA]-CB--OG1-[HG1] |==|  0.42040
USER: genes 13 Torsion [N]-CA--CB-[CG] |==|  0.82800
USER: genes 14 Torsion [CA]-CB--CG-[CD1] |==|  0.28582
USER: genes 15 Torsion [N]-CA--CB-[CG] |==|  0.59963
USER: genes 16 Torsion [CA]-CB--CG-[CD2] |==|  0.45799
USER: genes 17 Torsion [C]-CA--CB-[CG] |==|  0.14947
USER: genes 18 Torsion [CA]-CB--CG-[CD2] |==|  0.57793
USER: genes 19 Torsion [C]-CA--N-[C] |==|  0.61945
USER: genes 20 Torsion [N]-C--CA-[N] |==|  0.42288
USER: genes 21 Torsion [C]-CA--CB-[CG] |==|  0.26477
USER: genes 22 Torsion [CA]-CB--CG-[CD] |==|  0.04674
USER: genes 23 Torsion [CB]-CG--CD-[NE] |==|  0.22843
USER: genes 24 Torsion [CG]-CD--NE-[HE] |==|  0.87815
USER: genes 25 Torsion [C]-CA--N-[C] |==|  0.81289
USER: genes 26 Torsion [N]-C--CA-[N] |==|  0.45001
USER: genes 27 Torsion [C]-CA--CB-[CG] |==|  0.50317
USER: genes 28 Torsion [CA]-CB--CG-[OD1] |==|  0.97117
USER: genes 29 Torsion [C]-CA--N-[H2] |==|  0.40636
ROOT
ATOM      1  CA  LEU E   3      43.818  40.440  15.096  1.00 22.83 LIG 0.18  C 
ENDROOT
BRANCH 1 2
ATOM      2  C   LEU E   3      44.910  40.871  16.130  1.00 19.55 LIG 0.24  C 
ATOM      3 O    LEU E   3      45.988  40.302  16.185  1.00 19.60 LIG-0.27  OA
ATOM      4  N   LEU E   4      44.592  41.864  16.927  1.00 19.32 LIG-0.35  N 
ATOM      5 H    LEU E   4      43.793  42.153  17.056  1.00 19.32 LIG 0.16  HD
BRANCH 4 6
ATOM      6  CA  LEU E   4      45.668  42.587  17.696  1.00 17.74 LIG 0.18  C 
BRANCH 6 7
ATOM      7  C   LEU E   4      46.693  43.173  16.791  1.00 18.94 LIG 0.24  C 
ATOM      8  N   LEU E   5      47.694  43.852  17.406  1.00 19.76 LIG-0.35  N 
ATOM      9 H    LEU E   5      47.802  43.889  18.258  1.00 19.76 LIG 0.16  HD
ATOM     10 O    LEU E   4      46.580  43.092  15.531  1.00 20.41 LIG-0.27  OA
BRANCH 8 11
ATOM     11  CA  LEU E   5      48.687  44.589  16.633  1.00 18.99 LIG 0.18  C 
BRANCH 11 12
ATOM     12  C   LEU E   5      49.980  44.595  17.451  1.00 20.67 LIG 0.24  C 
ATOM     13  N   THR E   6      50.977  45.306  16.922  1.00 21.83 LIG-0.34  N 
ATOM     14 H    THR E   6      50.968  45.677  16.147  1.00 21.83 LIG 0.16  HD
ATOM     15 O    LEU E   5      49.995  44.018  18.515  1.00 20.01 LIG-0.27  OA
BRANCH 13 16
ATOM     16  CA  THR E   6      52.210  45.488  17.707  1.00 24.74 LIG 0.20  C 
BRANCH 16 17
ATOM     17  C   THR E   6      52.064  46.711  18.615  1.00 26.78 LIG 0.24  C 
ATOM     18  N   GLY E   7      50.943  47.419  18.408  1.00 28.46 LIG-0.35  N 
ATOM     19 H    GLY E   7      50.242  47.072  18.051  1.00 28.46 LIG 0.16  HD
ATOM     20 O    THR E   6      52.884  46.992  19.495  1.00 25.34 LIG-0.27  OA
BRANCH 18 21
ATOM     21  CA  GLY E   7      50.768  48.828  18.748  1.00 36.11 LIG 0.23  C 
BRANCH 21 22
ATOM     22  C   GLY E   7      50.554  49.629  17.523  1.00 43.05 LIG 0.19  C 
ATOM     23 OXT  GLY E   7      51.090  49.209  16.496  1.00 50.23 LIG-0.65  OA
ATOM     24 O    GLY E   7      49.872  50.679  17.533  1.00 56.48 LIG-0.65  OA
ENDBRANCH 21 22
ENDBRANCH 18 21
ENDBRANCH 16 17
BRANCH 16 25
ATOM     25  CB  THR E   6      53.432  45.621  16.773  1.00 24.32 LIG 0.15  C 
ATOM     26  CG2 THR E   6      53.503  47.080  16.145  1.00 23.74 LIG 0.04  C 
BRANCH 25 27
ATOM     27 OG1  THR E   6      54.578  45.393  17.572  1.00 30.49 LIG-0.39  OA
ATOM     28 HG1  THR E   6      55.192  45.072  17.097  1.00 30.49 LIG 0.21  HD
ENDBRANCH 25 27
ENDBRANCH 16 25
ENDBRANCH 13 16
ENDBRANCH 11 12
BRANCH 11 29
ATOM     29  CB  LEU E   5      48.306  46.051  16.445  1.00 19.92 LIG 0.04  C 
BRANCH 29 30
ATOM     30  CG  LEU E   5      46.973  46.151  15.650  1.00 17.19 LIG-0.02  C 
ATOM     31  CD1 LEU E   5      45.849  46.467  16.602  1.00 19.71 LIG 0.01  C 
ATOM     32  CD2 LEU E   5      47.093  47.183  14.558  1.00 21.46 LIG 0.01  C 
ENDBRANCH 29 30
ENDBRANCH 11 29
ENDBRANCH 8 11
ENDBRANCH 6 7
BRANCH 6 33
ATOM     33  CB  LEU E   4      46.359  41.560  18.653  1.00 18.44 LIG 0.04  C 
BRANCH 33 34
ATOM     34  CG  LEU E   4      46.747  42.240  19.985  1.00 22.78 LIG-0.02  C 
ATOM     35  CD2 LEU E   4      47.088  41.237  21.104  1.00 23.44 LIG 0.01  C 
ATOM     36  CD1 LEU E   4      45.564  43.128  20.374  1.00 27.53 LIG 0.01  C 
ENDBRANCH 33 34
ENDBRANCH 6 33
ENDBRANCH 4 6
ENDBRANCH 1 2
BRANCH 1 37
ATOM     37  CB  LEU E   3      42.774  39.590  15.827  1.00 29.41 LIG 0.04  C 
BRANCH 37 38
ATOM     38  CG  LEU E   3      42.125  40.200  17.091  1.00 30.90 LIG-0.02  C 
ATOM     39  CD1 LEU E   3      40.915  41.084  16.721  1.00 35.09 LIG 0.01  C 
ATOM     40  CD2 LEU E   3      41.700  39.094  18.040  1.00 39.15 LIG 0.01  C 
ENDBRANCH 37 38
ENDBRANCH 1 37
BRANCH 1 41
ATOM     41  N   LEU E   3      44.424  39.687  13.957  1.00 22.92 LIG-0.35  N 
ATOM     42 H    LEU E   3      45.018  39.103  14.171  1.00 22.92 LIG 0.16  HD
ATOM     43  C   ARG E   2      44.024  39.955  12.719  1.00 28.87 LIG 0.24  C 
ATOM     44 O    ARG E   2      43.161  40.852  12.485  1.00 29.44 LIG-0.27  OA
BRANCH 43 45
ATOM     45  CA  ARG E   2      44.640  39.153  11.550  1.00 32.90 LIG 0.18  C 
BRANCH 45 46
ATOM     46  CB  ARG E   2      45.809  39.911  10.941  1.00 32.53 LIG 0.04  C 
BRANCH 46 47
ATOM     47  CG  ARG E   2      47.155  39.539  11.453  1.00 34.92 LIG 0.02  C 
BRANCH 47 48
ATOM     48  CD  ARG E   2      47.055  38.227  12.148  1.00 37.57 LIG 0.14  C 
BRANCH 48 49
ATOM     49  NE  ARG E   2      47.099  37.060  11.253  1.00 41.00 LIG-0.23  N 
ATOM     50 HE   ARG E   2      46.635  37.086  10.529  1.00 41.00 LIG 0.18  HD
ATOM     51  CZ  ARG E   2      47.820  35.958  11.502  1.00 43.22 LIG 0.67  C 
ATOM     52  NH2 ARG E   2      47.865  34.974  10.614  1.00 39.75 LIG-0.23  N 
ATOM     53  NH1 ARG E   2      48.509  35.831  12.651  1.00 41.20 LIG-0.23  N 
ATOM     54 2HH2 ARG E   2      48.329  34.269  10.777  1.00 39.75 LIG 0.17  HD
ATOM     55 1HH2 ARG E   2      47.431  35.041   9.875  1.00 39.75 LIG 0.17  HD
ATOM     56 1HH1 ARG E   2      48.490  36.461  13.236  1.00 41.20 LIG 0.17  HD
ATOM     57 2HH1 ARG E   2      48.968  35.120  12.799  1.00 41.20 LIG 0.17  HD
ENDBRANCH 48 49
ENDBRANCH 47 48
ENDBRANCH 46 47
ENDBRANCH 45 46
BRANCH 45 58
ATOM     58  N   ARG E   2      43.676  39.090  10.441  1.00 36.64 LIG-0.35  N 
ATOM     59 H    ARG E   2      43.929  39.528   9.746  1.00 36.64 LIG 0.16  HD
ATOM     60  C   ASN E   1      42.538  38.432  10.492  1.00 41.83 LIG 0.25  C 
ATOM     61 O    ASN E   1      42.222  37.769  11.491  1.00 38.61 LIG-0.27  OA
BRANCH 60 62
ATOM     62  CA  ASN E   1      41.672  38.460   9.183  1.00 50.15 LIG 0.28  C 
BRANCH 62 63
ATOM     63  CB  ASN E   1      40.995  39.837   8.873  1.00 58.25 LIG 0.14  C 
BRANCH 63 64
ATOM     64  CG  ASN E   1      40.111  39.838   7.577  1.00 70.07 LIG 0.22  C 
ATOM     65 OD1  ASN E   1      40.109  38.899   6.763  1.00 69.16 LIG-0.27  OA
ATOM     66  ND2 ASN E   1      39.349  40.921   7.399  1.00 65.88 LIG-0.37  N 
ATOM     67 22HD ASN E   1      39.366  41.558   7.977  1.00 65.88 LIG 0.16  HD
ATOM     68 21HD ASN E   1      38.841  40.980   6.707  1.00 65.88 LIG 0.16  HD
ENDBRANCH 63 64
ENDBRANCH 62 63
BRANCH 62 69
ATOM     69  N   ASN E   1      40.654  37.370   9.184  1.00 55.39 LIG-0.07  N 
ATOM     70 H1   ASN E   1      40.454  37.151  10.023  1.00 55.39 LIG 0.28  HD
ATOM     71 H2   ASN E   1      39.919  37.649   8.766  1.00 55.39 LIG 0.28  HD
ATOM     72 H3   ASN E   1      40.982  36.658   8.763  1.00 55.39 LIG 0.28  HD
ENDBRANCH 62 69
ENDBRANCH 60 62
ENDBRANCH 45 58
ENDBRANCH 43 45
ENDBRANCH 1 41
TORSDOF 28
ENDMDL
MODEL 39
USER: ADFR SOLUTION from run 177
USER: SCORE 24.410210 LL:  -5.898 LR: -20.039 RR:   0.000 FEB: -11.687
USER: RMSD 12.105135
USER: SEED 176
USER: STATUS searching
USER: GENES 30
USER: genes 0 Translation |==|  0.40568 0.32917 0.41815
USER: genes 1 Rotation |==|  0.67178 0.92006 0.29071 0.51557
USER: genes 2 Torsion [N]-CA--C-[N] |==|  0.39925
USER: genes 3 Torsion [C]-N--CA-[C] |==|  0.16194
USER: genes 4 Torsion [N]-CA--C-[N] |==|  0.36696
USER: genes 5 Torsion [C]-N--CA-[C] |==|  0.78631
USER: genes 6 Torsion [N]-CA--C-[N] |==|  0.91126
USER: genes 7 Torsion [C]-N--CA-[C] |==|  0.15671
USER: genes 8 Torsion [N]-CA--C-[N] |==|  0.11444
USER: genes 9 Torsion [C]-N--CA-[C] |==|  0.75555
USER: genes 10 Torsion [N]-CA--C-[O] |==|  0.10763
USER: genes 11 Torsion [N]-CA--CB-[CG2] |==|  0.53191
USER: genes 12 Torsion [CA]-CB--OG1-[HG1] |==|  0.57198
USER: genes 13 Torsion [N]-CA--CB-[CG] |==|  0.85042
USER: genes 14 Torsion [CA]-CB--CG-[CD1] |==|  0.37953
USER: genes 15 Torsion [N]-CA--CB-[CG] |==|  0.52320
USER: genes 16 Torsion [CA]-CB--CG-[CD2] |==|  0.51249
USER: genes 17 Torsion [C]-CA--CB-[CG] |==|  0.13693
USER: genes 18 Torsion [CA]-CB--CG-[CD2] |==|  0.57982
USER: genes 19 Torsion [C]-CA--N-[C] |==|  0.67981
USER: genes 20 Torsion [N]-C--CA-[N] |==|  0.02907
USER: genes 21 Torsion [C]-CA--CB-[CG] |==|  0.38006
USER: genes 22 Torsion [CA]-CB--CG-[CD] |==|  0.06714
USER: genes 23 Torsion [CB]-CG--CD-[NE] |==|  0.64789
USER: genes 24 Torsion [CG]-CD--NE-[HE] |==|  0.87450
USER: genes 25 Torsion [C]-CA--N-[C] |==|  0.70193
USER: genes 26 Torsion [N]-C--CA-[N] |==|  0.49185
USER: genes 27 Torsion [C]-CA--CB-[CG] |==|  0.15794
USER: genes 28 Torsion [CA]-CB--CG-[OD1] |==|  0.11713
USER: genes 29 Torsion [C]-CA--N-[H2] |==|  0.14749
ROOT
ATOM      1  CA  LEU E   3      43.683  40.276  15.000  1.00 22.83 LIG 0.18  C 
ENDROOT
BRANCH 1 2
ATOM      2  C   LEU E   3      44.705  40.587  16.143  1.00 19.55 LIG 0.24  C 
ATOM      3 O    LEU E   3      45.651  39.849  16.364  1.00 19.60 LIG-0.27  OA
ATOM      4  N   LEU E   4      44.476  41.674  16.842  1.00 19.32 LIG-0.35  N 
ATOM      5 H    LEU E   4      43.732  42.103  16.854  1.00 19.32 LIG 0.16  HD
BRANCH 4 6
ATOM      6  CA  LEU E   4      45.565  42.256  17.707  1.00 17.74 LIG 0.18  C 
BRANCH 6 7
ATOM      7  C   LEU E   4      46.777  42.594  16.913  1.00 18.94 LIG 0.24  C 
ATOM      8  N   LEU E   5      47.295  43.829  17.136  1.00 19.76 LIG-0.35  N 
ATOM      9 H    LEU E   5      47.016  44.368  17.746  1.00 19.76 LIG 0.16  HD
ATOM     10 O    LEU E   4      47.236  41.796  16.041  1.00 20.41 LIG-0.27  OA
BRANCH 8 11
ATOM     11  CA  LEU E   5      48.398  44.338  16.329  1.00 18.99 LIG 0.18  C 
BRANCH 11 12
ATOM     12  C   LEU E   5      49.673  43.656  16.828  1.00 20.67 LIG 0.24  C 
ATOM     13  N   THR E   6      49.683  43.363  18.129  1.00 21.83 LIG-0.34  N 
ATOM     14 H    THR E   6      49.081  43.594  18.697  1.00 21.83 LIG 0.16  HD
ATOM     15 O    LEU E   5      50.539  43.387  16.024  1.00 20.01 LIG-0.27  OA
BRANCH 13 16
ATOM     16  CA  THR E   6      50.806  42.577  18.669  1.00 24.74 LIG 0.20  C 
BRANCH 16 17
ATOM     17  C   THR E   6      52.126  43.284  18.355  1.00 26.78 LIG 0.24  C 
ATOM     18  N   GLY E   7      52.086  44.616  18.511  1.00 28.46 LIG-0.35  N 
ATOM     19 H    GLY E   7      51.514  45.000  19.026  1.00 28.46 LIG 0.16  HD
ATOM     20 O    THR E   6      53.150  42.676  18.030  1.00 25.34 LIG-0.27  OA
BRANCH 18 21
ATOM     21  CA  GLY E   7      52.979  45.564  17.851  1.00 36.11 LIG 0.23  C 
BRANCH 21 22
ATOM     22  C   GLY E   7      54.203  45.762  18.656  1.00 43.05 LIG 0.19  C 
ATOM     23 OXT  GLY E   7      54.652  46.909  18.694  1.00 50.23 LIG-0.65  OA
ATOM     24 O    GLY E   7      54.756  44.814  19.259  1.00 56.48 LIG-0.65  OA
ENDBRANCH 21 22
ENDBRANCH 18 21
ENDBRANCH 16 17
BRANCH 16 25
ATOM     25  CB  THR E   6      50.784  41.141  18.103  1.00 24.32 LIG 0.15  C 
ATOM     26  CG2 THR E   6      51.801  40.210  18.895  1.00 23.74 LIG 0.04  C 
BRANCH 25 27
ATOM     27 OG1  THR E   6      49.465  40.657  18.277  1.00 30.49 LIG-0.39  OA
ATOM     28 HG1  THR E   6      49.478  39.819  18.323  1.00 30.49 LIG 0.21  HD
ENDBRANCH 25 27
ENDBRANCH 16 25
ENDBRANCH 13 16
ENDBRANCH 11 12
BRANCH 11 29
ATOM     29  CB  LEU E   5      48.619  45.831  16.528  1.00 19.92 LIG 0.04  C 
BRANCH 29 30
ATOM     30  CG  LEU E   5      47.290  46.600  16.277  1.00 17.19 LIG-0.02  C 
ATOM     31  CD1 LEU E   5      47.114  47.648  17.344  1.00 19.71 LIG 0.01  C 
ATOM     32  CD2 LEU E   5      47.288  47.199  14.894  1.00 21.46 LIG 0.01  C 
ENDBRANCH 29 30
ENDBRANCH 11 29
ENDBRANCH 8 11
ENDBRANCH 6 7
BRANCH 6 33
ATOM     33  CB  LEU E   4      45.946  41.196  18.793  1.00 18.44 LIG 0.04  C 
BRANCH 33 34
ATOM     34  CG  LEU E   4      46.907  41.813  19.835  1.00 22.78 LIG-0.02  C 
ATOM     35  CD2 LEU E   4      47.412  40.795  20.875  1.00 23.44 LIG 0.01  C 
ATOM     36  CD1 LEU E   4      46.140  42.956  20.502  1.00 27.53 LIG 0.01  C 
ENDBRANCH 33 34
ENDBRANCH 6 33
ENDBRANCH 4 6
ENDBRANCH 1 2
BRANCH 1 37
ATOM     37  CB  LEU E   3      42.616  39.329  15.555  1.00 29.41 LIG 0.04  C 
BRANCH 37 38
ATOM     38  CG  LEU E   3      41.959  39.715  16.901  1.00 30.90 LIG-0.02  C 
ATOM     39  CD1 LEU E   3      40.757  40.660  16.679  1.00 35.09 LIG 0.01  C 
ATOM     40  CD2 LEU E   3      41.516  38.465  17.640  1.00 39.15 LIG 0.01  C 
ENDBRANCH 37 38
ENDBRANCH 1 37
BRANCH 1 41
ATOM     41  N   LEU E   3      44.369  39.679  13.814  1.00 22.92 LIG-0.35  N 
ATOM     42 H    LEU E   3      44.729  38.908  13.942  1.00 22.92 LIG 0.16  HD
ATOM     43  C   ARG E   2      44.383  40.351  12.669  1.00 28.87 LIG 0.24  C 
ATOM     44 O    ARG E   2      43.852  41.496  12.571  1.00 29.44 LIG-0.27  OA
BRANCH 43 45
ATOM     45  CA  ARG E   2      45.075  39.714  11.442  1.00 32.90 LIG 0.18  C 
BRANCH 45 46
ATOM     46  CB  ARG E   2      44.104  39.605  10.278  1.00 32.53 LIG 0.04  C 
BRANCH 46 47
ATOM     47  CG  ARG E   2      44.648  39.988   8.947  1.00 34.92 LIG 0.02  C 
BRANCH 47 48
ATOM     48  CD  ARG E   2      46.126  39.826   8.972  1.00 37.57 LIG 0.14  C 
BRANCH 48 49
ATOM     49  NE  ARG E   2      46.876  41.022   8.555  1.00 41.00 LIG-0.23  N 
ATOM     50 HE   ARG E   2      46.612  41.441   7.851  1.00 41.00 LIG 0.18  HD
ATOM     51  CZ  ARG E   2      47.946  41.495   9.208  1.00 43.22 LIG 0.67  C 
ATOM     52  NH2 ARG E   2      48.527  42.620   8.813  1.00 39.75 LIG-0.23  N 
ATOM     53  NH1 ARG E   2      48.446  40.843  10.273  1.00 41.20 LIG-0.23  N 
ATOM     54 2HH2 ARG E   2      49.213  42.921   9.235  1.00 39.75 LIG 0.17  HD
ATOM     55 1HH2 ARG E   2      48.218  43.049   8.134  1.00 39.75 LIG 0.17  HD
ATOM     56 1HH1 ARG E   2      48.079  40.113  10.541  1.00 41.20 LIG 0.17  HD
ATOM     57 2HH1 ARG E   2      49.132  41.156  10.684  1.00 41.20 LIG 0.17  HD
ENDBRANCH 48 49
ENDBRANCH 47 48
ENDBRANCH 46 47
ENDBRANCH 45 46
BRANCH 45 58
ATOM     58  N   ARG E   2      45.394  38.309  11.738  1.00 36.64 LIG-0.35  N 
ATOM     59 H    ARG E   2      44.702  37.799  11.750  1.00 36.64 LIG 0.16  HD
ATOM     60  C   ASN E   1      46.610  37.862  11.963  1.00 41.83 LIG 0.25  C 
ATOM     61 O    ASN E   1      47.595  38.611  11.892  1.00 38.61 LIG-0.27  OA
BRANCH 60 62
ATOM     62  CA  ASN E   1      46.735  36.317  12.220  1.00 50.15 LIG 0.28  C 
BRANCH 62 63
ATOM     63  CB  ASN E   1      45.866  35.777  13.405  1.00 58.25 LIG 0.14  C 
BRANCH 63 64
ATOM     64  CG  ASN E   1      44.333  36.081  13.264  1.00 70.07 LIG 0.22  C 
ATOM     65 OD1  ASN E   1      43.721  35.964  12.189  1.00 69.16 LIG-0.27  OA
ATOM     66  ND2 ASN E   1      43.718  36.476  14.382  1.00 65.88 LIG-0.37  N 
ATOM     67 22HD ASN E   1      44.163  36.550  15.114  1.00 65.88 LIG 0.16  HD
ATOM     68 21HD ASN E   1      42.877  36.657  14.368  1.00 65.88 LIG 0.16  HD
ENDBRANCH 63 64
ENDBRANCH 62 63
BRANCH 62 69
ATOM     69  N   ASN E   1      48.159  35.911  12.394  1.00 55.39 LIG-0.07  N 
ATOM     70 H1   ASN E   1      48.595  36.020  11.625  1.00 55.39 LIG 0.28  HD
ATOM     71 H2   ASN E   1      48.537  36.414  13.023  1.00 55.39 LIG 0.28  HD
ATOM     72 H3   ASN E   1      48.197  35.056  12.635  1.00 55.39 LIG 0.28  HD
ENDBRANCH 62 69
ENDBRANCH 60 62
ENDBRANCH 45 58
ENDBRANCH 43 45
ENDBRANCH 1 41
TORSDOF 28
ENDMDL
MODEL 40
USER: ADFR SOLUTION from run 53
USER: SCORE 23.859856 LL:  -5.015 LR: -19.977 RR:   0.000 FEB: -11.625
USER: RMSD 12.425747
USER: SEED 52
USER: STATUS no improvement in best in 27 clusters for 5 generations
USER: GENES 30
USER: genes 0 Translation |==|  0.42371 0.33668 0.40755
USER: genes 1 Rotation |==|  0.61132 0.91392 0.24296 0.51450
USER: genes 2 Torsion [N]-CA--C-[N] |==|  0.35298
USER: genes 3 Torsion [C]-N--CA-[C] |==|  0.77295
USER: genes 4 Torsion [N]-CA--C-[N] |==|  0.32006
USER: genes 5 Torsion [C]-N--CA-[C] |==|  0.57043
USER: genes 6 Torsion [N]-CA--C-[N] |==|  0.81852
USER: genes 7 Torsion [C]-N--CA-[C] |==|  0.83660
USER: genes 8 Torsion [N]-CA--C-[N] |==|  0.38448
USER: genes 9 Torsion [C]-N--CA-[C] |==|  0.77123
USER: genes 10 Torsion [N]-CA--C-[O] |==|  0.99538
USER: genes 11 Torsion [N]-CA--CB-[CG2] |==|  0.64723
USER: genes 12 Torsion [CA]-CB--OG1-[HG1] |==|  0.84274
USER: genes 13 Torsion [N]-CA--CB-[CG] |==|  0.55938
USER: genes 14 Torsion [CA]-CB--CG-[CD1] |==|  0.72849
USER: genes 15 Torsion [N]-CA--CB-[CG] |==|  0.53168
USER: genes 16 Torsion [CA]-CB--CG-[CD2] |==|  0.46984
USER: genes 17 Torsion [C]-CA--CB-[CG] |==|  0.13084
USER: genes 18 Torsion [CA]-CB--CG-[CD2] |==|  0.60722
USER: genes 19 Torsion [C]-CA--N-[C] |==|  0.67174
USER: genes 20 Torsion [N]-C--CA-[N] |==|  0.37908
USER: genes 21 Torsion [C]-CA--CB-[CG] |==|  0.41184
USER: genes 22 Torsion [CA]-CB--CG-[CD] |==|  0.67651
USER: genes 23 Torsion [CB]-CG--CD-[NE] |==|  0.66334
USER: genes 24 Torsion [CG]-CD--NE-[HE] |==|  0.73961
USER: genes 25 Torsion [C]-CA--N-[C] |==|  0.84380
USER: genes 26 Torsion [N]-C--CA-[N] |==|  0.39440
USER: genes 27 Torsion [C]-CA--CB-[CG] |==|  0.29613
USER: genes 28 Torsion [CA]-CB--CG-[OD1] |==|  0.99397
USER: genes 29 Torsion [C]-CA--N-[H2] |==|  0.20975
ROOT
ATOM      1  CA  LEU E   3      44.048  40.445  14.721  1.00 22.83 LIG 0.18  C 
ENDROOT
BRANCH 1 2
ATOM      2  C   LEU E   3      45.148  41.137  15.593  1.00 19.55 LIG 0.24  C 
ATOM      3 O    LEU E   3      46.116  40.515  16.001  1.00 19.60 LIG-0.27  OA
ATOM      4  N   LEU E   4      44.960  42.408  15.858  1.00 19.32 LIG-0.35  N 
ATOM      5 H    LEU E   4      44.213  42.824  15.765  1.00 19.32 LIG 0.16  HD
BRANCH 4 6
ATOM      6  CA  LEU E   4      46.103  43.249  16.367  1.00 17.74 LIG 0.18  C 
BRANCH 6 7
ATOM      7  C   LEU E   4      46.303  43.079  17.831  1.00 18.94 LIG 0.24  C 
ATOM      8  N   LEU E   5      47.481  42.512  18.198  1.00 19.76 LIG-0.35  N 
ATOM      9 H    LEU E   5      48.121  42.329  17.653  1.00 19.76 LIG 0.16  HD
ATOM     10 O    LEU E   4      45.392  43.384  18.659  1.00 20.41 LIG-0.27  OA
BRANCH 8 11
ATOM     11  CA  LEU E   5      47.747  42.165  19.589  1.00 18.99 LIG 0.18  C 
BRANCH 11 12
ATOM     12  C   LEU E   5      49.266  42.172  19.772  1.00 20.67 LIG 0.24  C 
ATOM     13  N   THR E   6      49.920  41.238  19.081  1.00 21.83 LIG-0.34  N 
ATOM     14 H    THR E   6      49.555  40.609  18.624  1.00 21.83 LIG 0.16  HD
ATOM     15 O    LEU E   5      49.761  43.032  20.467  1.00 20.01 LIG-0.27  OA
BRANCH 13 16
ATOM     16  CA  THR E   6      51.393  41.260  19.082  1.00 24.74 LIG 0.20  C 
BRANCH 16 17
ATOM     17  C   THR E   6      51.887  42.598  18.527  1.00 26.78 LIG 0.24  C 
ATOM     18  N   GLY E   7      52.926  43.121  19.196  1.00 28.46 LIG-0.35  N 
ATOM     19 H    GLY E   7      53.460  42.635  19.664  1.00 28.46 LIG 0.16  HD
ATOM     20 O    THR E   6      51.400  43.126  17.523  1.00 25.34 LIG-0.27  OA
BRANCH 18 21
ATOM     21  CA  GLY E   7      53.280  44.537  19.219  1.00 36.11 LIG 0.23  C 
BRANCH 21 22
ATOM     22  C   GLY E   7      54.062  44.890  18.015  1.00 43.05 LIG 0.19  C 
ATOM     23 OXT  GLY E   7      54.387  46.073  17.903  1.00 50.23 LIG-0.65  OA
ATOM     24 O    GLY E   7      54.370  44.033  17.155  1.00 56.48 LIG-0.65  OA
ENDBRANCH 21 22
ENDBRANCH 18 21
ENDBRANCH 16 17
BRANCH 16 25
ATOM     25  CB  THR E   6      51.952  40.071  18.272  1.00 24.32 LIG 0.15  C 
ATOM     26  CG2 THR E   6      53.000  39.245  19.137  1.00 23.74 LIG 0.04  C 
BRANCH 25 27
ATOM     27 OG1  THR E   6      50.848  39.245  17.951  1.00 30.49 LIG-0.39  OA
ATOM     28 HG1  THR E   6      50.454  39.017  18.657  1.00 30.49 LIG 0.21  HD
ENDBRANCH 25 27
ENDBRANCH 16 25
ENDBRANCH 13 16
ENDBRANCH 11 12
BRANCH 11 29
ATOM     29  CB  LEU E   5      47.293  40.753  19.930  1.00 19.92 LIG 0.04  C 
BRANCH 29 30
ATOM     30  CG  LEU E   5      47.091  40.619  21.467  1.00 17.19 LIG-0.02  C 
ATOM     31  CD1 LEU E   5      48.319  39.995  22.076  1.00 19.71 LIG 0.01  C 
ATOM     32  CD2 LEU E   5      46.784  41.965  22.071  1.00 21.46 LIG 0.01  C 
ENDBRANCH 29 30
ENDBRANCH 11 29
ENDBRANCH 8 11
ENDBRANCH 6 7
BRANCH 6 33
ATOM     33  CB  LEU E   4      45.778  44.749  16.067  1.00 18.44 LIG 0.04  C 
BRANCH 33 34
ATOM     34  CG  LEU E   4      47.027  45.629  16.303  1.00 22.78 LIG-0.02  C 
ATOM     35  CD2 LEU E   4      46.865  47.069  15.778  1.00 23.44 LIG 0.01  C 
ATOM     36  CD1 LEU E   4      48.192  44.914  15.616  1.00 27.53 LIG 0.01  C 
ENDBRANCH 33 34
ENDBRANCH 6 33
ENDBRANCH 4 6
ENDBRANCH 1 2
BRANCH 1 37
ATOM     37  CB  LEU E   3      43.288  39.454  15.607  1.00 29.41 LIG 0.04  C 
BRANCH 37 38
ATOM     38  CG  LEU E   3      42.823  39.957  16.994  1.00 30.90 LIG-0.02  C 
ATOM     39  CD1 LEU E   3      41.356  40.433  16.947  1.00 35.09 LIG 0.01  C 
ATOM     40  CD2 LEU E   3      42.987  38.856  18.027  1.00 39.15 LIG 0.01  C 
ENDBRANCH 37 38
ENDBRANCH 1 37
BRANCH 1 41
ATOM     41  N   LEU E   3      44.652  39.758  13.540  1.00 22.92 LIG-0.35  N 
ATOM     42 H    LEU E   3      45.204  39.124  13.721  1.00 22.92 LIG 0.16  HD
ATOM     43  C   ARG E   2      44.314  40.155  12.319  1.00 28.87 LIG 0.24  C 
ATOM     44 O    ARG E   2      43.512  41.118  12.138  1.00 29.44 LIG-0.27  OA
BRANCH 43 45
ATOM     45  CA  ARG E   2      44.927  39.422  11.103  1.00 32.90 LIG 0.18  C 
BRANCH 45 46
ATOM     46  CB  ARG E   2      45.898  40.331  10.366  1.00 32.53 LIG 0.04  C 
BRANCH 46 47
ATOM     47  CG  ARG E   2      47.046  39.649   9.710  1.00 34.92 LIG 0.02  C 
BRANCH 47 48
ATOM     48  CD  ARG E   2      48.306  40.114  10.350  1.00 37.57 LIG 0.14  C 
BRANCH 48 49
ATOM     49  NE  ARG E   2      49.259  40.749   9.425  1.00 41.00 LIG-0.23  N 
ATOM     50 HE   ARG E   2      49.871  40.258   9.073  1.00 41.00 LIG 0.18  HD
ATOM     51  CZ  ARG E   2      49.228  42.049   9.102  1.00 43.22 LIG 0.67  C 
ATOM     52  NH2 ARG E   2      50.077  42.535   8.206  1.00 39.75 LIG-0.23  N 
ATOM     53  NH1 ARG E   2      48.339  42.880   9.675  1.00 41.20 LIG-0.23  N 
ATOM     54 2HH2 ARG E   2      50.054  43.370   8.000  1.00 39.75 LIG 0.17  HD
ATOM     55 1HH2 ARG E   2      50.650  42.016   7.830  1.00 39.75 LIG 0.17  HD
ATOM     56 1HH1 ARG E   2      47.782  42.580  10.257  1.00 41.20 LIG 0.17  HD
ATOM     57 2HH1 ARG E   2      48.329  43.712   9.459  1.00 41.20 LIG 0.17  HD
ENDBRANCH 48 49
ENDBRANCH 47 48
ENDBRANCH 46 47
ENDBRANCH 45 46
BRANCH 45 58
ATOM     58  N   ARG E   2      43.878  39.178  10.101  1.00 36.64 LIG-0.35  N 
ATOM     59 H    ARG E   2      44.065  39.506   9.328  1.00 36.64 LIG 0.16  HD
ATOM     60  C   ASN E   1      42.762  38.528  10.347  1.00 41.83 LIG 0.25  C 
ATOM     61 O    ASN E   1      42.541  38.026  11.459  1.00 38.61 LIG-0.27  OA
BRANCH 60 62
ATOM     62  CA  ASN E   1      41.793  38.344   9.125  1.00 50.15 LIG 0.28  C 
BRANCH 62 63
ATOM     63  CB  ASN E   1      40.717  39.471   8.966  1.00 58.25 LIG 0.14  C 
BRANCH 63 64
ATOM     64  CG  ASN E   1      40.995  40.456   7.776  1.00 70.07 LIG 0.22  C 
ATOM     65 OD1  ASN E   1      42.002  40.371   7.053  1.00 69.16 LIG-0.27  OA
ATOM     66  ND2 ASN E   1      40.072  41.402   7.584  1.00 65.88 LIG-0.37  N 
ATOM     67 22HD ASN E   1      39.383  41.441   8.097  1.00 65.88 LIG 0.16  HD
ATOM     68 21HD ASN E   1      40.167  41.972   6.946  1.00 65.88 LIG 0.16  HD
ENDBRANCH 63 64
ENDBRANCH 62 63
BRANCH 62 69
ATOM     69  N   ASN E   1      41.140  37.004   9.148  1.00 55.39 LIG-0.07  N 
ATOM     70 H1   ASN E   1      41.747  36.381   9.338  1.00 55.39 LIG 0.28  HD
ATOM     71 H2   ASN E   1      40.502  36.995   9.769  1.00 55.39 LIG 0.28  HD
ATOM     72 H3   ASN E   1      40.782  36.834   8.352  1.00 55.39 LIG 0.28  HD
ENDBRANCH 62 69
ENDBRANCH 60 62
ENDBRANCH 45 58
ENDBRANCH 43 45
ENDBRANCH 1 41
TORSDOF 28
ENDMDL
MODEL 41
USER: ADFR SOLUTION from run 130
USER: SCORE 24.355673 LL:  -5.495 LR: -19.960 RR:   0.000 FEB: -11.608
USER: RMSD 12.552355
USER: SEED 129
USER: STATUS no improvement in best in 12 clusters for 5 generations
USER: GENES 30
USER: genes 0 Translation |==|  0.43839 0.36002 0.41411
USER: genes 1 Rotation |==|  0.68157 0.89769 0.25742 0.50572
USER: genes 2 Torsion [N]-CA--C-[N] |==|  0.46876
USER: genes 3 Torsion [C]-N--CA-[C] |==|  0.85406
USER: genes 4 Torsion [N]-CA--C-[N] |==|  0.33907
USER: genes 5 Torsion [C]-N--CA-[C] |==|  0.81967
USER: genes 6 Torsion [N]-CA--C-[N] |==|  0.40172
USER: genes 7 Torsion [C]-N--CA-[C] |==|  0.57320
USER: genes 8 Torsion [N]-CA--C-[N] |==|  0.56861
USER: genes 9 Torsion [C]-N--CA-[C] |==|  0.67446
USER: genes 10 Torsion [N]-CA--C-[O] |==|  0.88961
USER: genes 11 Torsion [N]-CA--CB-[CG2] |==|  0.71476
USER: genes 12 Torsion [CA]-CB--OG1-[HG1] |==|  0.21239
USER: genes 13 Torsion [N]-CA--CB-[CG] |==|  0.45595
USER: genes 14 Torsion [CA]-CB--CG-[CD1] |==|  0.25806
USER: genes 15 Torsion [N]-CA--CB-[CG] |==|  0.71712
USER: genes 16 Torsion [CA]-CB--CG-[CD2] |==|  0.04759
USER: genes 17 Torsion [C]-CA--CB-[CG] |==|  0.75813
USER: genes 18 Torsion [CA]-CB--CG-[CD2] |==|  0.72445
USER: genes 19 Torsion [C]-CA--N-[C] |==|  0.63085
USER: genes 20 Torsion [N]-C--CA-[N] |==|  0.07004
USER: genes 21 Torsion [C]-CA--CB-[CG] |==|  0.77454
USER: genes 22 Torsion [CA]-CB--CG-[CD] |==|  0.29017
USER: genes 23 Torsion [CB]-CG--CD-[NE] |==|  0.21124
USER: genes 24 Torsion [CG]-CD--NE-[HE] |==|  0.69489
USER: genes 25 Torsion [C]-CA--N-[C] |==|  0.68443
USER: genes 26 Torsion [N]-C--CA-[N] |==|  0.51916
USER: genes 27 Torsion [C]-CA--CB-[CG] |==|  0.24478
USER: genes 28 Torsion [CA]-CB--CG-[OD1] |==|  0.95050
USER: genes 29 Torsion [C]-CA--N-[H2] |==|  0.54471
ROOT
ATOM      1  CA  LEU E   3      44.345  40.970  14.893  1.00 22.83 LIG 0.18  C 
ENDROOT
BRANCH 1 2
ATOM      2  C   LEU E   3      45.461  41.338  15.927  1.00 19.55 LIG 0.24  C 
ATOM      3 O    LEU E   3      46.561  40.811  15.885  1.00 19.60 LIG-0.27  OA
ATOM      4  N   LEU E   4      45.138  42.230  16.833  1.00 19.32 LIG-0.35  N 
ATOM      5 H    LEU E   4      44.334  42.471  17.020  1.00 19.32 LIG 0.16  HD
BRANCH 4 6
ATOM      6  CA  LEU E   4      46.216  42.915  17.635  1.00 17.74 LIG 0.18  C 
BRANCH 6 7
ATOM      7  C   LEU E   4      47.134  41.934  18.273  1.00 18.94 LIG 0.24  C 
ATOM      8  N   LEU E   5      48.445  42.062  17.944  1.00 19.76 LIG-0.35  N 
ATOM      9 H    LEU E   5      48.764  42.704  17.469  1.00 19.76 LIG 0.16  HD
ATOM     10 O    LEU E   4      46.692  41.005  19.014  1.00 20.41 LIG-0.27  OA
BRANCH 8 11
ATOM     11  CA  LEU E   5      49.431  41.084  18.390  1.00 18.99 LIG 0.18  C 
BRANCH 11 12
ATOM     12  C   LEU E   5      49.495  41.174  19.916  1.00 20.67 LIG 0.24  C 
ATOM     13  N   THR E   6      49.701  40.014  20.540  1.00 21.83 LIG-0.34  N 
ATOM     14 H    THR E   6      49.717  39.241  20.163  1.00 21.83 LIG 0.16  HD
ATOM     15 O    LEU E   5      49.412  42.265  20.436  1.00 20.01 LIG-0.27  OA
BRANCH 13 16
ATOM     16  CA  THR E   6      49.921  40.022  21.996  1.00 24.74 LIG 0.20  C 
BRANCH 16 17
ATOM     17  C   THR E   6      50.749  38.799  22.397  1.00 26.78 LIG 0.24  C 
ATOM     18  N   GLY E   7      50.579  38.414  23.671  1.00 28.46 LIG-0.35  N 
ATOM     19 H    GLY E   7      49.870  38.607  24.117  1.00 28.46 LIG 0.16  HD
ATOM     20 O    THR E   6      51.473  38.193  21.602  1.00 25.34 LIG-0.27  OA
BRANCH 18 21
ATOM     21  CA  GLY E   7      51.542  37.638  24.447  1.00 36.11 LIG 0.23  C 
BRANCH 21 22
ATOM     22  C   GLY E   7      50.960  36.334  24.831  1.00 43.05 LIG 0.19  C 
ATOM     23 OXT  GLY E   7      51.713  35.361  24.769  1.00 50.23 LIG-0.65  OA
ATOM     24 O    GLY E   7      49.765  36.226  25.191  1.00 56.48 LIG-0.65  OA
ENDBRANCH 21 22
ENDBRANCH 18 21
ENDBRANCH 16 17
BRANCH 16 25
ATOM     25  CB  THR E   6      48.574  40.065  22.748  1.00 24.32 LIG 0.15  C 
ATOM     26  CG2 THR E   6      48.280  41.530  23.292  1.00 23.74 LIG 0.04  C 
BRANCH 25 27
ATOM     27 OG1  THR E   6      47.576  39.700  21.811  1.00 30.49 LIG-0.39  OA
ATOM     28 HG1  THR E   6      47.595  38.869  21.691  1.00 30.49 LIG 0.21  HD
ENDBRANCH 25 27
ENDBRANCH 16 25
ENDBRANCH 13 16
ENDBRANCH 11 12
BRANCH 11 29
ATOM     29  CB  LEU E   5      50.833  41.408  17.893  1.00 19.92 LIG 0.04  C 
BRANCH 29 30
ATOM     30  CG  LEU E   5      51.882  40.594  18.704  1.00 17.19 LIG-0.02  C 
ATOM     31  CD1 LEU E   5      52.179  39.308  17.981  1.00 19.71 LIG 0.01  C 
ATOM     32  CD2 LEU E   5      53.124  41.418  18.924  1.00 21.46 LIG 0.01  C 
ENDBRANCH 29 30
ENDBRANCH 11 29
ENDBRANCH 8 11
ENDBRANCH 6 7
BRANCH 6 33
ATOM     33  CB  LEU E   4      45.528  43.769  18.749  1.00 18.44 LIG 0.04  C 
BRANCH 33 34
ATOM     34  CG  LEU E   4      45.507  45.262  18.350  1.00 22.78 LIG-0.02  C 
ATOM     35  CD2 LEU E   4      45.758  45.494  16.847  1.00 23.44 LIG 0.01  C 
ATOM     36  CD1 LEU E   4      46.573  45.950  19.205  1.00 27.53 LIG 0.01  C 
ENDBRANCH 33 34
ENDBRANCH 6 33
ENDBRANCH 4 6
ENDBRANCH 1 2
BRANCH 1 37
ATOM     37  CB  LEU E   3      43.244  40.202  15.630  1.00 29.41 LIG 0.04  C 
BRANCH 37 38
ATOM     38  CG  LEU E   3      43.415  38.670  15.757  1.00 30.90 LIG-0.02  C 
ATOM     39  CD1 LEU E   3      43.011  38.182  17.165  1.00 35.09 LIG 0.01  C 
ATOM     40  CD2 LEU E   3      42.585  37.967  14.697  1.00 39.15 LIG 0.01  C 
ENDBRANCH 37 38
ENDBRANCH 1 37
BRANCH 1 41
ATOM     41  N   LEU E   3      44.903  40.164  13.766  1.00 22.92 LIG-0.35  N 
ATOM     42 H    LEU E   3      45.411  39.509  13.993  1.00 22.92 LIG 0.16  HD
ATOM     43  C   ARG E   2      44.590  40.496  12.518  1.00 28.87 LIG 0.24  C 
ATOM     44 O    ARG E   2      43.854  41.495  12.267  1.00 29.44 LIG-0.27  OA
BRANCH 43 45
ATOM     45  CA  ARG E   2      45.154  39.641  11.359  1.00 32.90 LIG 0.18  C 
BRANCH 45 46
ATOM     46  CB  ARG E   2      44.085  39.402  10.305  1.00 32.53 LIG 0.04  C 
BRANCH 46 47
ATOM     47  CG  ARG E   2      43.122  38.307  10.600  1.00 34.92 LIG 0.02  C 
BRANCH 47 48
ATOM     48  CD  ARG E   2      41.828  38.909  11.019  1.00 37.57 LIG 0.14  C 
BRANCH 48 49
ATOM     49  NE  ARG E   2      41.030  39.464   9.915  1.00 41.00 LIG-0.23  N 
ATOM     50 HE   ARG E   2      40.948  40.318   9.862  1.00 41.00 LIG 0.18  HD
ATOM     51  CZ  ARG E   2      40.422  38.713   8.986  1.00 43.22 LIG 0.67  C 
ATOM     52  NH2 ARG E   2      39.777  39.287   7.979  1.00 39.75 LIG-0.23  N 
ATOM     53  NH1 ARG E   2      40.455  37.370   9.056  1.00 41.20 LIG-0.23  N 
ATOM     54 2HH2 ARG E   2      39.389  38.803   7.384  1.00 39.75 LIG 0.17  HD
ATOM     55 1HH2 ARG E   2      39.748  40.145   7.920  1.00 39.75 LIG 0.17  HD
ATOM     56 1HH1 ARG E   2      40.870  36.983   9.703  1.00 41.20 LIG 0.17  HD
ATOM     57 2HH1 ARG E   2      40.062  36.899   8.454  1.00 41.20 LIG 0.17  HD
ENDBRANCH 48 49
ENDBRANCH 47 48
ENDBRANCH 46 47
ENDBRANCH 45 46
BRANCH 45 58
ATOM     58  N   ARG E   2      45.442  38.285  11.850  1.00 36.64 LIG-0.35  N 
ATOM     59 H    ARG E   2      44.736  37.849  12.077  1.00 36.64 LIG 0.16  HD
ATOM     60  C   ASN E   1      46.651  37.776  11.938  1.00 41.83 LIG 0.25  C 
ATOM     61 O    ASN E   1      47.646  38.411  11.558  1.00 38.61 LIG-0.27  OA
BRANCH 60 62
ATOM     62  CA  ASN E   1      46.735  36.294  12.451  1.00 50.15 LIG 0.28  C 
BRANCH 62 63
ATOM     63  CB  ASN E   1      45.874  35.990  13.723  1.00 58.25 LIG 0.14  C 
BRANCH 63 64
ATOM     64  CG  ASN E   1      44.398  35.560  13.408  1.00 70.07 LIG 0.22  C 
ATOM     65 OD1  ASN E   1      43.855  35.771  12.310  1.00 69.16 LIG-0.27  OA
ATOM     66  ND2 ASN E   1      43.752  34.944  14.402  1.00 65.88 LIG-0.37  N 
ATOM     67 22HD ASN E   1      44.149  34.810  15.154  1.00 65.88 LIG 0.16  HD
ATOM     68 21HD ASN E   1      42.941  34.684  14.291  1.00 65.88 LIG 0.16  HD
ENDBRANCH 63 64
ENDBRANCH 62 63
BRANCH 62 69
ATOM     69  N   ASN E   1      48.149  35.875  12.669  1.00 55.39 LIG-0.07  N 
ATOM     70 H1   ASN E   1      48.453  36.238  13.423  1.00 55.39 LIG 0.28  HD
ATOM     71 H2   ASN E   1      48.191  34.988  12.729  1.00 55.39 LIG 0.28  HD
ATOM     72 H3   ASN E   1      48.649  36.150  11.987  1.00 55.39 LIG 0.28  HD
ENDBRANCH 62 69
ENDBRANCH 60 62
ENDBRANCH 45 58
ENDBRANCH 43 45
ENDBRANCH 1 41
TORSDOF 28
ENDMDL
MODEL 42
USER: ADFR SOLUTION from run 93
USER: SCORE 24.442764 LL:  -5.060 LR: -19.964 RR:   0.000 FEB: -11.612
USER: RMSD 12.757838
USER: SEED 92
USER: STATUS no improvement in best in 6 clusters for 5 generations
USER: GENES 30
USER: genes 0 Translation |==|  0.41289 0.34938 0.39283
USER: genes 1 Rotation |==|  0.71990 0.87133 0.24769 0.51001
USER: genes 2 Torsion [N]-CA--C-[N] |==|  0.42682
USER: genes 3 Torsion [C]-N--CA-[C] |==|  0.80044
USER: genes 4 Torsion [N]-CA--C-[N] |==|  0.43747
USER: genes 5 Torsion [C]-N--CA-[C] |==|  0.83267
USER: genes 6 Torsion [N]-CA--C-[N] |==|  0.93847
USER: genes 7 Torsion [C]-N--CA-[C] |==|  0.51111
USER: genes 8 Torsion [N]-CA--C-[N] |==|  0.49249
USER: genes 9 Torsion [C]-N--CA-[C] |==|  0.55112
USER: genes 10 Torsion [N]-CA--C-[O] |==|  0.99067
USER: genes 11 Torsion [N]-CA--CB-[CG2] |==|  0.25701
USER: genes 12 Torsion [CA]-CB--OG1-[HG1] |==|  0.88502
USER: genes 13 Torsion [N]-CA--CB-[CG] |==|  0.75385
USER: genes 14 Torsion [CA]-CB--CG-[CD1] |==|  0.19558
USER: genes 15 Torsion [N]-CA--CB-[CG] |==|  0.73859
USER: genes 16 Torsion [CA]-CB--CG-[CD2] |==|  0.89253
USER: genes 17 Torsion [C]-CA--CB-[CG] |==|  0.04578
USER: genes 18 Torsion [CA]-CB--CG-[CD2] |==|  0.71824
USER: genes 19 Torsion [C]-CA--N-[C] |==|  0.63959
USER: genes 20 Torsion [N]-C--CA-[N] |==|  0.37525
USER: genes 21 Torsion [C]-CA--CB-[CG] |==|  0.20695
USER: genes 22 Torsion [CA]-CB--CG-[CD] |==|  0.11141
USER: genes 23 Torsion [CB]-CG--CD-[NE] |==|  0.18274
USER: genes 24 Torsion [CG]-CD--NE-[HE] |==|  0.92538
USER: genes 25 Torsion [C]-CA--N-[C] |==|  0.83252
USER: genes 26 Torsion [N]-C--CA-[N] |==|  0.35102
USER: genes 27 Torsion [C]-CA--CB-[CG] |==|  0.33066
USER: genes 28 Torsion [CA]-CB--CG-[OD1] |==|  0.05706
USER: genes 29 Torsion [C]-CA--N-[H2] |==|  0.58845
ROOT
ATOM      1  CA  LEU E   3      43.829  40.731  14.335  1.00 22.83 LIG 0.18  C 
ENDROOT
BRANCH 1 2
ATOM      2  C   LEU E   3      44.915  41.022  15.423  1.00 19.55 LIG 0.24  C 
ATOM      3 O    LEU E   3      45.773  40.199  15.697  1.00 19.60 LIG-0.27  OA
ATOM      4  N   LEU E   4      44.839  42.190  16.017  1.00 19.32 LIG-0.35  N 
ATOM      5 H    LEU E   4      44.152  42.705  16.000  1.00 19.32 LIG 0.16  HD
BRANCH 4 6
ATOM      6  CA  LEU E   4      46.016  42.715  16.800  1.00 17.74 LIG 0.18  C 
BRANCH 6 7
ATOM      7  C   LEU E   4      46.206  41.969  18.073  1.00 18.94 LIG 0.24  C 
ATOM      8  N   LEU E   5      47.456  42.023  18.600  1.00 19.76 LIG-0.35  N 
ATOM      9 H    LEU E   5      48.092  42.512  18.288  1.00 19.76 LIG 0.16  HD
ATOM     10 O    LEU E   4      45.270  41.279  18.577  1.00 20.41 LIG-0.27  OA
BRANCH 8 11
ATOM     11  CA  LEU E   5      47.814  41.229  19.768  1.00 18.99 LIG 0.18  C 
BRANCH 11 12
ATOM     12  C   LEU E   5      46.892  41.664  20.909  1.00 20.67 LIG 0.24  C 
ATOM     13  N   THR E   6      46.359  42.879  20.769  1.00 21.83 LIG-0.34  N 
ATOM     14 H    THR E   6      46.555  43.441  20.149  1.00 21.83 LIG 0.16  HD
ATOM     15 O    LEU E   5      46.671  40.882  21.806  1.00 20.01 LIG-0.27  OA
BRANCH 13 16
ATOM     16  CA  THR E   6      45.348  43.325  21.742  1.00 24.74 LIG 0.20  C 
BRANCH 16 17
ATOM     17  C   THR E   6      44.810  44.697  21.331  1.00 26.78 LIG 0.24  C 
ATOM     18  N   GLY E   7      43.837  45.167  22.126  1.00 28.46 LIG-0.35  N 
ATOM     19 H    GLY E   7      43.743  44.905  22.940  1.00 28.46 LIG 0.16  HD
ATOM     20 O    THR E   6      45.265  45.335  20.377  1.00 25.34 LIG-0.27  OA
BRANCH 18 21
ATOM     21  CA  GLY E   7      42.837  46.157  21.732  1.00 36.11 LIG 0.23  C 
BRANCH 21 22
ATOM     22  C   GLY E   7      42.218  46.764  22.929  1.00 43.05 LIG 0.19  C 
ATOM     23 OXT  GLY E   7      41.407  47.669  22.724  1.00 50.23 LIG-0.65  OA
ATOM     24 O    GLY E   7      42.509  46.384  24.087  1.00 56.48 LIG-0.65  OA
ENDBRANCH 21 22
ENDBRANCH 18 21
ENDBRANCH 16 17
BRANCH 16 25
ATOM     25  CB  THR E   6      45.942  43.354  23.166  1.00 24.32 LIG 0.15  C 
ATOM     26  CG2 THR E   6      46.524  44.796  23.502  1.00 23.74 LIG 0.04  C 
BRANCH 25 27
ATOM     27 OG1  THR E   6      44.880  43.054  24.054  1.00 30.49 LIG-0.39  OA
ATOM     28 HG1  THR E   6      44.186  43.455  23.806  1.00 30.49 LIG 0.21  HD
ENDBRANCH 25 27
ENDBRANCH 16 25
ENDBRANCH 13 16
ENDBRANCH 11 12
BRANCH 11 29
ATOM     29  CB  LEU E   5      49.231  41.510  20.248  1.00 19.92 LIG 0.04  C 
BRANCH 29 30
ATOM     30  CG  LEU E   5      50.233  40.573  19.514  1.00 17.19 LIG-0.02  C 
ATOM     31  CD1 LEU E   5      50.339  40.991  18.071  1.00 19.71 LIG 0.01  C 
ATOM     32  CD2 LEU E   5      51.572  40.597  20.207  1.00 21.46 LIG 0.01  C 
ENDBRANCH 29 30
ENDBRANCH 11 29
ENDBRANCH 8 11
ENDBRANCH 6 7
BRANCH 6 33
ATOM     33  CB  LEU E   4      45.753  44.222  17.125  1.00 18.44 LIG 0.04  C 
BRANCH 33 34
ATOM     34  CG  LEU E   4      46.405  45.127  16.054  1.00 22.78 LIG-0.02  C 
ATOM     35  CD2 LEU E   4      47.777  44.615  15.578  1.00 23.44 LIG 0.01  C 
ATOM     36  CD1 LEU E   4      46.515  46.519  16.678  1.00 27.53 LIG 0.01  C 
ENDBRANCH 33 34
ENDBRANCH 6 33
ENDBRANCH 4 6
ENDBRANCH 1 2
BRANCH 1 37
ATOM     37  CB  LEU E   3      42.574  40.205  15.039  1.00 29.41 LIG 0.04  C 
BRANCH 37 38
ATOM     38  CG  LEU E   3      42.470  40.437  16.564  1.00 30.90 LIG-0.02  C 
ATOM     39  CD1 LEU E   3      41.054  40.910  16.957  1.00 35.09 LIG 0.01  C 
ATOM     40  CD2 LEU E   3      42.826  39.161  17.308  1.00 39.15 LIG 0.01  C 
ENDBRANCH 37 38
ENDBRANCH 1 37
BRANCH 1 41
ATOM     41  N   LEU E   3      44.330  39.751  13.325  1.00 22.92 LIG-0.35  N 
ATOM     42 H    LEU E   3      44.677  39.032  13.644  1.00 22.92 LIG 0.16  HD
ATOM     43  C   ARG E   2      44.216  40.038  12.033  1.00 28.87 LIG 0.24  C 
ATOM     44 O    ARG E   2      43.716  41.135  11.644  1.00 29.44 LIG-0.27  OA
BRANCH 43 45
ATOM     45  CA  ARG E   2      44.716  39.007  10.996  1.00 32.90 LIG 0.18  C 
BRANCH 45 46
ATOM     46  CB  ARG E   2      45.933  39.541  10.256  1.00 32.53 LIG 0.04  C 
BRANCH 46 47
ATOM     47  CG  ARG E   2      47.204  39.546  11.028  1.00 34.92 LIG 0.02  C 
BRANCH 47 48
ATOM     48  CD  ARG E   2      47.284  38.293  11.825  1.00 37.57 LIG 0.14  C 
BRANCH 48 49
ATOM     49  NE  ARG E   2      47.396  37.066  11.021  1.00 41.00 LIG-0.23  N 
ATOM     50 HE   ARG E   2      47.069  37.071  10.225  1.00 41.00 LIG 0.18  HD
ATOM     51  CZ  ARG E   2      47.979  35.941  11.458  1.00 43.22 LIG 0.67  C 
ATOM     52  NH2 ARG E   2      48.106  34.897  10.650  1.00 39.75 LIG-0.23  N 
ATOM     53  NH1 ARG E   2      48.445  35.851  12.716  1.00 41.20 LIG-0.23  N 
ATOM     54 2HH2 ARG E   2      48.481  34.177  10.933  1.00 39.75 LIG 0.17  HD
ATOM     55 1HH2 ARG E   2      47.813  34.940   9.842  1.00 39.75 LIG 0.17  HD
ATOM     56 1HH1 ARG E   2      48.371  36.520  13.251  1.00 41.20 LIG 0.17  HD
ATOM     57 2HH1 ARG E   2      48.818  35.124  12.985  1.00 41.20 LIG 0.17  HD
ENDBRANCH 48 49
ENDBRANCH 47 48
ENDBRANCH 46 47
ENDBRANCH 45 46
BRANCH 45 58
ATOM     58  N   ARG E   2      43.716  38.867   9.926  1.00 36.64 LIG-0.35  N 
ATOM     59 H    ARG E   2      44.020  39.074   9.149  1.00 36.64 LIG 0.16  HD
ATOM     60  C   ASN E   1      42.479  38.466  10.124  1.00 41.83 LIG 0.25  C 
ATOM     61 O    ASN E   1      42.083  38.128  11.249  1.00 38.61 LIG-0.27  OA
BRANCH 60 62
ATOM     62  CA  ASN E   1      41.585  38.347   8.838  1.00 50.15 LIG 0.28  C 
BRANCH 62 63
ATOM     63  CB  ASN E   1      40.491  39.459   8.695  1.00 58.25 LIG 0.14  C 
BRANCH 63 64
ATOM     64  CG  ASN E   1      40.644  40.344   7.409  1.00 70.07 LIG 0.22  C 
ATOM     65 OD1  ASN E   1      41.286  39.975   6.411  1.00 69.16 LIG-0.27  OA
ATOM     66  ND2 ASN E   1      40.033  41.531   7.449  1.00 65.88 LIG-0.37  N 
ATOM     67 22HD ASN E   1      39.594  41.765   8.151  1.00 65.88 LIG 0.16  HD
ATOM     68 21HD ASN E   1      40.080  42.062   6.774  1.00 65.88 LIG 0.16  HD
ENDBRANCH 63 64
ENDBRANCH 62 63
BRANCH 62 69
ATOM     69  N   ASN E   1      40.967  36.995   8.732  1.00 55.39 LIG-0.07  N 
ATOM     70 H1   ASN E   1      40.168  37.001   9.125  1.00 55.39 LIG 0.28  HD
ATOM     71 H2   ASN E   1      40.873  36.778   7.874  1.00 55.39 LIG 0.28  HD
ATOM     72 H3   ASN E   1      41.489  36.397   9.134  1.00 55.39 LIG 0.28  HD
ENDBRANCH 62 69
ENDBRANCH 60 62
ENDBRANCH 45 58
ENDBRANCH 43 45
ENDBRANCH 1 41
TORSDOF 28
ENDMDL
MODEL 43
USER: ADFR SOLUTION from run 93
USER: SCORE 25.074968 LL:  -5.923 LR: -19.953 RR:   0.000 FEB: -11.601
USER: RMSD 12.235999
USER: SEED 92
USER: STATUS no improvement in best in 6 clusters for 5 generations
USER: GENES 30
USER: genes 0 Translation |==|  0.41580 0.33659 0.38457
USER: genes 1 Rotation |==|  0.69177 0.89535 0.26196 0.51623
USER: genes 2 Torsion [N]-CA--C-[N] |==|  0.40689
USER: genes 3 Torsion [C]-N--CA-[C] |==|  0.80103
USER: genes 4 Torsion [N]-CA--C-[N] |==|  0.43721
USER: genes 5 Torsion [C]-N--CA-[C] |==|  0.82353
USER: genes 6 Torsion [N]-CA--C-[N] |==|  0.94304
USER: genes 7 Torsion [C]-N--CA-[C] |==|  0.49476
USER: genes 8 Torsion [N]-CA--C-[N] |==|  0.48866
USER: genes 9 Torsion [C]-N--CA-[C] |==|  0.55097
USER: genes 10 Torsion [N]-CA--C-[O] |==|  0.99682
USER: genes 11 Torsion [N]-CA--CB-[CG2] |==|  0.25260
USER: genes 12 Torsion [CA]-CB--OG1-[HG1] |==|  0.88475
USER: genes 13 Torsion [N]-CA--CB-[CG] |==|  0.75718
USER: genes 14 Torsion [CA]-CB--CG-[CD1] |==|  0.19965
USER: genes 15 Torsion [N]-CA--CB-[CG] |==|  0.70496
USER: genes 16 Torsion [CA]-CB--CG-[CD2] |==|  0.91791
USER: genes 17 Torsion [C]-CA--CB-[CG] |==|  0.03158
USER: genes 18 Torsion [CA]-CB--CG-[CD2] |==|  0.70866
USER: genes 19 Torsion [C]-CA--N-[C] |==|  0.67236
USER: genes 20 Torsion [N]-C--CA-[N] |==|  0.02011
USER: genes 21 Torsion [C]-CA--CB-[CG] |==|  0.87797
USER: genes 22 Torsion [CA]-CB--CG-[CD] |==|  0.46522
USER: genes 23 Torsion [CB]-CG--CD-[NE] |==|  0.42854
USER: genes 24 Torsion [CG]-CD--NE-[HE] |==|  0.91695
USER: genes 25 Torsion [C]-CA--N-[C] |==|  0.75016
USER: genes 26 Torsion [N]-C--CA-[N] |==|  0.52756
USER: genes 27 Torsion [C]-CA--CB-[CG] |==|  0.91747
USER: genes 28 Torsion [CA]-CB--CG-[OD1] |==|  0.86502
USER: genes 29 Torsion [C]-CA--N-[H2] |==|  0.61234
ROOT
ATOM      1  CA  LEU E   3      43.888  40.443  14.118  1.00 22.83 LIG 0.18  C 
ENDROOT
BRANCH 1 2
ATOM      2  C   LEU E   3      44.945  40.799  15.215  1.00 19.55 LIG 0.24  C 
ATOM      3 O    LEU E   3      45.842  40.024  15.505  1.00 19.60 LIG-0.27  OA
ATOM      4  N   LEU E   4      44.802  41.966  15.798  1.00 19.32 LIG-0.35  N 
ATOM      5 H    LEU E   4      44.089  42.445  15.770  1.00 19.32 LIG 0.16  HD
BRANCH 4 6
ATOM      6  CA  LEU E   4      45.941  42.558  16.589  1.00 17.74 LIG 0.18  C 
BRANCH 6 7
ATOM      7  C   LEU E   4      46.159  41.830  17.868  1.00 18.94 LIG 0.24  C 
ATOM      8  N   LEU E   5      47.400  41.953  18.405  1.00 19.76 LIG-0.35  N 
ATOM      9 H    LEU E   5      48.012  42.472  18.096  1.00 19.76 LIG 0.16  HD
ATOM     10 O    LEU E   4      45.256  41.094  18.369  1.00 20.41 LIG-0.27  OA
BRANCH 8 11
ATOM     11  CA  LEU E   5      47.789  41.184  19.581  1.00 18.99 LIG 0.18  C 
BRANCH 11 12
ATOM     12  C   LEU E   5      46.889  41.637  20.733  1.00 20.67 LIG 0.24  C 
ATOM     13  N   THR E   6      46.319  42.830  20.565  1.00 21.83 LIG-0.34  N 
ATOM     14 H    THR E   6      46.479  43.374  19.919  1.00 21.83 LIG 0.16  HD
ATOM     15 O    LEU E   5      46.718  40.883  21.665  1.00 20.01 LIG-0.27  OA
BRANCH 13 16
ATOM     16  CA  THR E   6      45.324  43.285  21.553  1.00 24.74 LIG 0.20  C 
BRANCH 16 17
ATOM     17  C   THR E   6      44.842  44.690  21.186  1.00 26.78 LIG 0.24  C 
ATOM     18  N   GLY E   7      43.868  45.162  21.978  1.00 28.46 LIG-0.35  N 
ATOM     19 H    GLY E   7      43.747  44.870  22.778  1.00 28.46 LIG 0.16  HD
ATOM     20 O    THR E   6      45.341  45.350  20.269  1.00 25.34 LIG-0.27  OA
BRANCH 18 21
ATOM     21  CA  GLY E   7      42.912  46.200  21.603  1.00 36.11 LIG 0.23  C 
BRANCH 21 22
ATOM     22  C   GLY E   7      42.284  46.779  22.810  1.00 43.05 LIG 0.19  C 
ATOM     23 OXT  GLY E   7      41.477  47.691  22.621  1.00 50.23 LIG-0.65  OA
ATOM     24 O    GLY E   7      42.565  46.370  23.960  1.00 56.48 LIG-0.65  OA
ENDBRANCH 21 22
ENDBRANCH 18 21
ENDBRANCH 16 17
BRANCH 16 25
ATOM     25  CB  THR E   6      45.917  43.244  22.976  1.00 24.32 LIG 0.15  C 
ATOM     26  CG2 THR E   6      46.592  44.636  23.344  1.00 23.74 LIG 0.04  C 
BRANCH 25 27
ATOM     27 OG1  THR E   6      44.837  42.995  23.858  1.00 30.49 LIG-0.39  OA
ATOM     28 HG1  THR E   6      44.171  43.447  23.619  1.00 30.49 LIG 0.21  HD
ENDBRANCH 25 27
ENDBRANCH 16 25
ENDBRANCH 13 16
ENDBRANCH 11 12
BRANCH 11 29
ATOM     29  CB  LEU E   5      49.215  41.484  20.023  1.00 19.92 LIG 0.04  C 
BRANCH 29 30
ATOM     30  CG  LEU E   5      50.209  40.560  19.264  1.00 17.19 LIG-0.02  C 
ATOM     31  CD1 LEU E   5      50.298  41.001  17.827  1.00 19.71 LIG 0.01  C 
ATOM     32  CD2 LEU E   5      51.555  40.574  19.942  1.00 21.46 LIG 0.01  C 
ENDBRANCH 29 30
ENDBRANCH 11 29
ENDBRANCH 8 11
ENDBRANCH 6 7
BRANCH 6 33
ATOM     33  CB  LEU E   4      45.594  44.050  16.904  1.00 18.44 LIG 0.04  C 
BRANCH 33 34
ATOM     34  CG  LEU E   4      46.443  44.998  16.026  1.00 22.78 LIG-0.02  C 
ATOM     35  CD2 LEU E   4      47.816  44.411  15.647  1.00 23.44 LIG 0.01  C 
ATOM     36  CD1 LEU E   4      46.593  46.297  16.819  1.00 27.53 LIG 0.01  C 
ENDBRANCH 33 34
ENDBRANCH 6 33
ENDBRANCH 4 6
ENDBRANCH 1 2
BRANCH 1 37
ATOM     37  CB  LEU E   3      42.733  39.695  14.791  1.00 29.41 LIG 0.04  C 
BRANCH 37 38
ATOM     38  CG  LEU E   3      42.698  39.692  16.337  1.00 30.90 LIG-0.02  C 
ATOM     39  CD1 LEU E   3      41.287  40.040  16.860  1.00 35.09 LIG 0.01  C 
ATOM     40  CD2 LEU E   3      43.136  38.336  16.862  1.00 39.15 LIG 0.01  C 
ENDBRANCH 37 38
ENDBRANCH 1 37
BRANCH 1 41
ATOM     41  N   LEU E   3      44.499  39.623  13.029  1.00 22.92 LIG-0.35  N 
ATOM     42 H    LEU E   3      44.811  38.858  13.270  1.00 22.92 LIG 0.16  HD
ATOM     43  C   ARG E   2      44.525  40.106  11.793  1.00 28.87 LIG 0.24  C 
ATOM     44 O    ARG E   2      44.068  41.257  11.525  1.00 29.44 LIG-0.27  OA
BRANCH 43 45
ATOM     45  CA  ARG E   2      45.139  39.240  10.669  1.00 32.90 LIG 0.18  C 
BRANCH 45 46
ATOM     46  CB  ARG E   2      44.106  38.952   9.591  1.00 32.53 LIG 0.04  C 
BRANCH 46 47
ATOM     47  CG  ARG E   2      42.754  38.570  10.081  1.00 34.92 LIG 0.02  C 
BRANCH 47 48
ATOM     48  CD  ARG E   2      41.801  38.623   8.940  1.00 37.57 LIG 0.14  C 
BRANCH 48 49
ATOM     49  NE  ARG E   2      40.629  37.745   9.086  1.00 41.00 LIG-0.23  N 
ATOM     50 HE   ARG E   2      40.719  37.019   9.539  1.00 41.00 LIG 0.18  HD
ATOM     51  CZ  ARG E   2      39.428  38.012   8.553  1.00 43.22 LIG 0.67  C 
ATOM     52  NH2 ARG E   2      38.399  37.208   8.787  1.00 39.75 LIG-0.23  N 
ATOM     53  NH1 ARG E   2      39.245  39.095   7.777  1.00 41.20 LIG-0.23  N 
ATOM     54 2HH2 ARG E   2      37.631  37.382   8.444  1.00 39.75 LIG 0.17  HD
ATOM     55 1HH2 ARG E   2      38.501  36.512   9.282  1.00 39.75 LIG 0.17  HD
ATOM     56 1HH1 ARG E   2      39.902  39.626   7.617  1.00 41.20 LIG 0.17  HD
ATOM     57 2HH1 ARG E   2      38.470  39.256   7.441  1.00 41.20 LIG 0.17  HD
ENDBRANCH 48 49
ENDBRANCH 47 48
ENDBRANCH 46 47
ENDBRANCH 45 46
BRANCH 45 58
ATOM     58  N   ARG E   2      45.444  37.902  11.197  1.00 36.64 LIG-0.35  N 
ATOM     59 H    ARG E   2      44.793  37.347  11.113  1.00 36.64 LIG 0.16  HD
ATOM     60  C   ASN E   1      46.593  37.571  11.746  1.00 41.83 LIG 0.25  C 
ATOM     61 O    ASN E   1      47.532  38.379  11.810  1.00 38.61 LIG-0.27  OA
BRANCH 60 62
ATOM     62  CA  ASN E   1      46.726  36.077  12.210  1.00 50.15 LIG 0.28  C 
BRANCH 62 63
ATOM     63  CB  ASN E   1      45.475  35.510  12.962  1.00 58.25 LIG 0.14  C 
BRANCH 63 64
ATOM     64  CG  ASN E   1      44.664  36.591  13.758  1.00 70.07 LIG 0.22  C 
ATOM     65 OD1  ASN E   1      45.203  37.407  14.525  1.00 69.16 LIG-0.27  OA
ATOM     66  ND2 ASN E   1      43.343  36.584  13.558  1.00 65.88 LIG-0.37  N 
ATOM     67 22HD ASN E   1      42.993  36.010  13.022  1.00 65.88 LIG 0.16  HD
ATOM     68 21HD ASN E   1      42.844  37.154  13.966  1.00 65.88 LIG 0.16  HD
ENDBRANCH 63 64
ENDBRANCH 62 63
BRANCH 62 69
ATOM     69  N   ASN E   1      47.958  35.870  13.023  1.00 55.39 LIG-0.07  N 
ATOM     70 H1   ASN E   1      47.746  35.857  13.887  1.00 55.39 LIG 0.28  HD
ATOM     71 H2   ASN E   1      48.336  35.095  12.799  1.00 55.39 LIG 0.28  HD
ATOM     72 H3   ASN E   1      48.530  36.534  12.870  1.00 55.39 LIG 0.28  HD
ENDBRANCH 62 69
ENDBRANCH 60 62
ENDBRANCH 45 58
ENDBRANCH 43 45
ENDBRANCH 1 41
TORSDOF 28
ENDMDL
MODEL 44
USER: ADFR SOLUTION from run 115
USER: SCORE 24.782526 LL:  -6.366 LR: -19.940 RR:   0.000 FEB: -11.588
USER: RMSD 12.412314
USER: SEED 114
USER: STATUS searching
USER: GENES 30
USER: genes 0 Translation |==|  0.41823 0.27238 0.30955
USER: genes 1 Rotation |==|  0.31218 0.91665 0.32403 0.60083
USER: genes 2 Torsion [N]-CA--C-[N] |==|  0.62567
USER: genes 3 Torsion [C]-N--CA-[C] |==|  0.61154
USER: genes 4 Torsion [N]-CA--C-[N] |==|  0.48333
USER: genes 5 Torsion [C]-N--CA-[C] |==|  0.83276
USER: genes 6 Torsion [N]-CA--C-[N] |==|  0.40048
USER: genes 7 Torsion [C]-N--CA-[C] |==|  0.76402
USER: genes 8 Torsion [N]-CA--C-[N] |==|  0.24973
USER: genes 9 Torsion [C]-N--CA-[C] |==|  0.29157
USER: genes 10 Torsion [N]-CA--C-[O] |==|  0.82405
USER: genes 11 Torsion [N]-CA--CB-[CG2] |==|  0.49440
USER: genes 12 Torsion [CA]-CB--OG1-[HG1] |==|  0.73745
USER: genes 13 Torsion [N]-CA--CB-[CG] |==|  0.81135
USER: genes 14 Torsion [CA]-CB--CG-[CD1] |==|  0.57644
USER: genes 15 Torsion [N]-CA--CB-[CG] |==|  0.09109
USER: genes 16 Torsion [CA]-CB--CG-[CD2] |==|  0.67411
USER: genes 17 Torsion [C]-CA--CB-[CG] |==|  0.42892
USER: genes 18 Torsion [CA]-CB--CG-[CD2] |==|  0.97317
USER: genes 19 Torsion [C]-CA--N-[C] |==|  0.18254
USER: genes 20 Torsion [N]-C--CA-[N] |==|  0.52585
USER: genes 21 Torsion [C]-CA--CB-[CG] |==|  0.76947
USER: genes 22 Torsion [CA]-CB--CG-[CD] |==|  0.26435
USER: genes 23 Torsion [CB]-CG--CD-[NE] |==|  0.68894
USER: genes 24 Torsion [CG]-CD--NE-[HE] |==|  0.10285
USER: genes 25 Torsion [C]-CA--N-[C] |==|  0.56235
USER: genes 26 Torsion [N]-C--CA-[N] |==|  0.61176
USER: genes 27 Torsion [C]-CA--CB-[CG] |==|  0.19009
USER: genes 28 Torsion [CA]-CB--CG-[OD1] |==|  0.69861
USER: genes 29 Torsion [C]-CA--N-[H2] |==|  0.60170
ROOT
ATOM      1  CA  LEU E   3      43.937  38.999  12.149  1.00 22.83 LIG 0.18  C 
ENDROOT
BRANCH 1 2
ATOM      2  C   LEU E   3      43.864  40.272  13.055  1.00 19.55 LIG 0.24  C 
ATOM      3 O    LEU E   3      43.350  41.304  12.656  1.00 19.60 LIG-0.27  OA
ATOM      4  N   LEU E   4      44.390  40.160  14.252  1.00 19.32 LIG-0.35  N 
ATOM      5 H    LEU E   4      44.926  39.534  14.496  1.00 19.32 LIG 0.16  HD
BRANCH 4 6
ATOM      6  CA  LEU E   4      44.062  41.175  15.317  1.00 17.74 LIG 0.18  C 
BRANCH 6 7
ATOM      7  C   LEU E   4      45.258  41.527  16.130  1.00 18.94 LIG 0.24  C 
ATOM      8  N   LEU E   5      45.079  42.528  17.028  1.00 19.76 LIG-0.35  N 
ATOM      9 H    LEU E   5      44.321  42.897  17.198  1.00 19.76 LIG 0.16  HD
ATOM     10 O    LEU E   4      46.376  40.964  15.930  1.00 20.41 LIG-0.27  OA
BRANCH 8 11
ATOM     11  CA  LEU E   5      46.201  43.063  17.791  1.00 18.99 LIG 0.18  C 
BRANCH 11 12
ATOM     12  C   LEU E   5      46.783  41.906  18.606  1.00 20.67 LIG 0.24  C 
ATOM     13  N   THR E   6      48.109  41.928  18.747  1.00 21.83 LIG-0.34  N 
ATOM     14 H    THR E   6      48.642  42.479  18.360  1.00 21.83 LIG 0.16  HD
ATOM     15 O    LEU E   5      46.021  41.103  19.097  1.00 20.01 LIG-0.27  OA
BRANCH 13 16
ATOM     16  CA  THR E   6      48.743  40.938  19.635  1.00 24.74 LIG 0.20  C 
BRANCH 16 17
ATOM     17  C   THR E   6      48.716  41.450  21.077  1.00 26.78 LIG 0.24  C 
ATOM     18  N   GLY E   7      47.621  41.096  21.766  1.00 28.46 LIG-0.35  N 
ATOM     19 H    GLY E   7      47.149  40.409  21.554  1.00 28.46 LIG 0.16  HD
ATOM     20 O    THR E   6      49.645  42.094  21.574  1.00 25.34 LIG-0.27  OA
BRANCH 18 21
ATOM     21  CA  GLY E   7      47.100  41.804  22.932  1.00 36.11 LIG 0.23  C 
BRANCH 21 22
ATOM     22  C   GLY E   7      45.897  42.581  22.564  1.00 43.05 LIG 0.19  C 
ATOM     23 OXT  GLY E   7      44.843  42.245  23.108  1.00 50.23 LIG-0.65  OA
ATOM     24 O    GLY E   7      45.947  43.523  21.740  1.00 56.48 LIG-0.65  OA
ENDBRANCH 21 22
ENDBRANCH 18 21
ENDBRANCH 16 17
BRANCH 16 25
ATOM     25  CB  THR E   6      50.182  40.635  19.168  1.00 24.32 LIG 0.15  C 
ATOM     26  CG2 THR E   6      50.887  39.606  20.154  1.00 23.74 LIG 0.04  C 
BRANCH 25 27
ATOM     27 OG1  THR E   6      50.077  40.059  17.879  1.00 30.49 LIG-0.39  OA
ATOM     28 HG1  THR E   6      50.072  39.222  17.946  1.00 30.49 LIG 0.21  HD
ENDBRANCH 25 27
ENDBRANCH 16 25
ENDBRANCH 13 16
ENDBRANCH 11 12
BRANCH 11 29
ATOM     29  CB  LEU E   5      45.765  44.110  18.805  1.00 19.92 LIG 0.04  C 
BRANCH 29 30
ATOM     30  CG  LEU E   5      45.260  45.383  18.068  1.00 17.19 LIG-0.02  C 
ATOM     31  CD1 LEU E   5      45.472  46.585  18.950  1.00 19.71 LIG 0.01  C 
ATOM     32  CD2 LEU E   5      45.960  45.528  16.741  1.00 21.46 LIG 0.01  C 
ENDBRANCH 29 30
ENDBRANCH 11 29
ENDBRANCH 8 11
ENDBRANCH 6 7
BRANCH 6 33
ATOM     33  CB  LEU E   4      42.969  40.565  16.255  1.00 18.44 LIG 0.04  C 
BRANCH 33 34
ATOM     34  CG  LEU E   4      43.152  39.034  16.372  1.00 22.78 LIG-0.02  C 
ATOM     35  CD2 LEU E   4      41.954  38.234  15.825  1.00 23.44 LIG 0.01  C 
ATOM     36  CD1 LEU E   4      43.386  38.743  17.856  1.00 27.53 LIG 0.01  C 
ENDBRANCH 33 34
ENDBRANCH 6 33
ENDBRANCH 4 6
ENDBRANCH 1 2
BRANCH 1 37
ATOM     37  CB  LEU E   3      44.904  38.004  12.798  1.00 29.41 LIG 0.04  C 
BRANCH 37 38
ATOM     38  CG  LEU E   3      44.703  36.506  12.470  1.00 30.90 LIG-0.02  C 
ATOM     39  CD1 LEU E   3      44.720  35.651  13.756  1.00 35.09 LIG 0.01  C 
ATOM     40  CD2 LEU E   3      43.395  36.310  11.724  1.00 39.15 LIG 0.01  C 
ENDBRANCH 37 38
ENDBRANCH 1 37
BRANCH 1 41
ATOM     41  N   LEU E   3      44.375  39.350  10.764  1.00 22.92 LIG-0.35  N 
ATOM     42 H    LEU E   3      43.790  39.226  10.146  1.00 22.92 LIG 0.16  HD
ATOM     43  C   ARG E   2      45.603  39.818  10.574  1.00 28.87 LIG 0.24  C 
ATOM     44 O    ARG E   2      46.416  39.946  11.536  1.00 29.44 LIG-0.27  OA
BRANCH 43 45
ATOM     45  CA  ARG E   2      46.038  40.200   9.140  1.00 32.90 LIG 0.18  C 
BRANCH 45 46
ATOM     46  CB  ARG E   2      45.911  39.006   8.207  1.00 32.53 LIG 0.04  C 
BRANCH 46 47
ATOM     47  CG  ARG E   2      47.054  38.054   8.221  1.00 34.92 LIG 0.02  C 
BRANCH 47 48
ATOM     48  CD  ARG E   2      46.739  36.944   9.161  1.00 37.57 LIG 0.14  C 
BRANCH 48 49
ATOM     49  NE  ARG E   2      47.574  36.917  10.372  1.00 41.00 LIG-0.23  N 
ATOM     50 HE   ARG E   2      47.799  37.668  10.727  1.00 41.00 LIG 0.18  HD
ATOM     51  CZ  ARG E   2      48.003  35.789  10.954  1.00 43.22 LIG 0.67  C 
ATOM     52  NH2 ARG E   2      48.694  35.842  12.086  1.00 39.75 LIG-0.23  N 
ATOM     53  NH1 ARG E   2      47.743  34.589  10.406  1.00 41.20 LIG-0.23  N 
ATOM     54 2HH2 ARG E   2      48.968  35.117  12.457  1.00 39.75 LIG 0.17  HD
ATOM     55 1HH2 ARG E   2      48.868  36.602  12.449  1.00 39.75 LIG 0.17  HD
ATOM     56 1HH1 ARG E   2      47.295  34.539   9.674  1.00 41.20 LIG 0.17  HD
ATOM     57 2HH1 ARG E   2      48.023  33.872  10.789  1.00 41.20 LIG 0.17  HD
ENDBRANCH 48 49
ENDBRANCH 47 48
ENDBRANCH 46 47
ENDBRANCH 45 46
BRANCH 45 58
ATOM     58  N   ARG E   2      47.483  40.476   9.127  1.00 36.64 LIG-0.35  N 
ATOM     59 H    ARG E   2      47.905  40.106   9.779  1.00 36.64 LIG 0.16  HD
ATOM     60  C   ASN E   1      48.083  41.213   8.218  1.00 41.83 LIG 0.25  C 
ATOM     61 O    ASN E   1      47.456  41.694   7.262  1.00 38.61 LIG-0.27  OA
BRANCH 60 62
ATOM     62  CA  ASN E   1      49.640  41.349   8.366  1.00 50.15 LIG 0.28  C 
BRANCH 62 63
ATOM     63  CB  ASN E   1      50.212  40.874   9.744  1.00 58.25 LIG 0.14  C 
BRANCH 63 64
ATOM     64  CG  ASN E   1      50.113  39.325   9.977  1.00 70.07 LIG 0.22  C 
ATOM     65 OD1  ASN E   1      49.320  38.816  10.786  1.00 69.16 LIG-0.27  OA
ATOM     66  ND2 ASN E   1      50.943  38.577   9.243  1.00 65.88 LIG-0.37  N 
ATOM     67 22HD ASN E   1      51.483  38.953   8.690  1.00 65.88 LIG 0.16  HD
ATOM     68 21HD ASN E   1      50.936  37.722   9.326  1.00 65.88 LIG 0.16  HD
ENDBRANCH 63 64
ENDBRANCH 62 63
BRANCH 62 69
ATOM     69  N   ASN E   1      50.093  42.738   8.068  1.00 55.39 LIG-0.07  N 
ATOM     70 H1   ASN E   1      50.180  43.192   8.828  1.00 55.39 LIG 0.28  HD
ATOM     71 H2   ASN E   1      50.877  42.711   7.647  1.00 55.39 LIG 0.28  HD
ATOM     72 H3   ASN E   1      49.492  43.142   7.550  1.00 55.39 LIG 0.28  HD
ENDBRANCH 62 69
ENDBRANCH 60 62
ENDBRANCH 45 58
ENDBRANCH 43 45
ENDBRANCH 1 41
TORSDOF 28
ENDMDL
MODEL 45
USER: ADFR SOLUTION from run 60
USER: SCORE 25.086341 LL:  -6.352 LR: -19.934 RR:   0.000 FEB: -11.582
USER: RMSD 12.820972
USER: SEED 59
USER: STATUS no improvement in best in 9 clusters for 5 generations
USER: GENES 30
USER: genes 0 Translation |==|  0.41331 0.33473 0.27268
USER: genes 1 Rotation |==|  0.75703 0.85710 0.33349 0.66936
USER: genes 2 Torsion [N]-CA--C-[N] |==|  0.91740
USER: genes 3 Torsion [C]-N--CA-[C] |==|  0.73739
USER: genes 4 Torsion [N]-CA--C-[N] |==|  0.37120
USER: genes 5 Torsion [C]-N--CA-[C] |==|  0.62520
USER: genes 6 Torsion [N]-CA--C-[N] |==|  0.47735
USER: genes 7 Torsion [C]-N--CA-[C] |==|  0.18284
USER: genes 8 Torsion [N]-CA--C-[N] |==|  0.13136
USER: genes 9 Torsion [C]-N--CA-[C] |==|  0.67668
USER: genes 10 Torsion [N]-CA--C-[O] |==|  0.74978
USER: genes 11 Torsion [N]-CA--CB-[CG2] |==|  0.54909
USER: genes 12 Torsion [CA]-CB--OG1-[HG1] |==|  0.12588
USER: genes 13 Torsion [N]-CA--CB-[CG] |==|  0.61656
USER: genes 14 Torsion [CA]-CB--CG-[CD1] |==|  0.66837
USER: genes 15 Torsion [N]-CA--CB-[CG] |==|  0.73878
USER: genes 16 Torsion [CA]-CB--CG-[CD2] |==|  0.94919
USER: genes 17 Torsion [C]-CA--CB-[CG] |==|  0.61356
USER: genes 18 Torsion [CA]-CB--CG-[CD2] |==|  0.57846
USER: genes 19 Torsion [C]-CA--N-[C] |==|  0.67454
USER: genes 20 Torsion [N]-C--CA-[N] |==|  0.01697
USER: genes 21 Torsion [C]-CA--CB-[CG] |==|  0.26721
USER: genes 22 Torsion [CA]-CB--CG-[CD] |==|  0.14283
USER: genes 23 Torsion [CB]-CG--CD-[NE] |==|  0.55230
USER: genes 24 Torsion [CG]-CD--NE-[HE] |==|  0.69122
USER: genes 25 Torsion [C]-CA--N-[C] |==|  0.64178
USER: genes 26 Torsion [N]-C--CA-[N] |==|  0.54073
USER: genes 27 Torsion [C]-CA--CB-[CG] |==|  0.82586
USER: genes 28 Torsion [CA]-CB--CG-[OD1] |==|  0.06490
USER: genes 29 Torsion [C]-CA--N-[H2] |==|  0.06508
ROOT
ATOM      1  CA  LEU E   3      43.838  40.401  11.181  1.00 22.83 LIG 0.18  C 
ENDROOT
BRANCH 1 2
ATOM      2  C   LEU E   3      43.874  40.880  12.670  1.00 19.55 LIG 0.24  C 
ATOM      3 O    LEU E   3      43.373  41.940  13.007  1.00 19.60 LIG-0.27  OA
ATOM      4  N   LEU E   4      44.478  40.081  13.519  1.00 19.32 LIG-0.35  N 
ATOM      5 H    LEU E   4      45.006  39.440  13.299  1.00 19.32 LIG 0.16  HD
BRANCH 4 6
ATOM      6  CA  LEU E   4      44.262  40.255  15.001  1.00 17.74 LIG 0.18  C 
BRANCH 6 7
ATOM      7  C   LEU E   4      45.322  41.100  15.615  1.00 18.94 LIG 0.24  C 
ATOM      8  N   LEU E   5      44.880  42.070  16.456  1.00 19.76 LIG-0.35  N 
ATOM      9 H    LEU E   5      44.060  42.162  16.701  1.00 19.76 LIG 0.16  HD
ATOM     10 O    LEU E   4      46.542  40.953  15.306  1.00 20.41 LIG-0.27  OA
BRANCH 8 11
ATOM     11  CA  LEU E   5      45.798  43.053  17.019  1.00 18.99 LIG 0.18  C 
BRANCH 11 12
ATOM     12  C   LEU E   5      45.470  43.175  18.508  1.00 20.67 LIG 0.24  C 
ATOM     13  N   THR E   6      46.329  43.910  19.215  1.00 21.83 LIG-0.34  N 
ATOM     14 H    THR E   6      47.067  44.237  18.919  1.00 21.83 LIG 0.16  HD
ATOM     15 O    LEU E   5      44.455  42.659  18.922  1.00 20.01 LIG-0.27  OA
BRANCH 13 16
ATOM     16  CA  THR E   6      46.017  44.203  20.625  1.00 24.74 LIG 0.20  C 
BRANCH 16 17
ATOM     17  C   THR E   6      46.038  42.905  21.435  1.00 26.78 LIG 0.24  C 
ATOM     18  N   GLY E   7      47.111  42.132  21.209  1.00 28.46 LIG-0.35  N 
ATOM     19 H    GLY E   7      47.850  42.453  20.906  1.00 28.46 LIG 0.16  HD
ATOM     20 O    THR E   6      45.165  42.618  22.260  1.00 25.34 LIG-0.27  OA
BRANCH 18 21
ATOM     21  CA  GLY E   7      47.170  40.692  21.439  1.00 36.11 LIG 0.23  C 
BRANCH 21 22
ATOM     22  C   GLY E   7      48.166  40.380  22.486  1.00 43.05 LIG 0.19  C 
ATOM     23 OXT  GLY E   7      47.750  40.365  23.646  1.00 50.23 LIG-0.65  OA
ATOM     24 O    GLY E   7      49.366  40.151  22.208  1.00 56.48 LIG-0.65  OA
ENDBRANCH 21 22
ENDBRANCH 18 21
ENDBRANCH 16 17
BRANCH 16 25
ATOM     25  CB  THR E   6      44.655  44.920  20.740  1.00 24.32 LIG 0.15  C 
ATOM     26  CG2 THR E   6      44.515  45.635  22.154  1.00 23.74 LIG 0.04  C 
BRANCH 25 27
ATOM     27 OG1  THR E   6      44.622  45.893  19.713  1.00 30.49 LIG-0.39  OA
ATOM     28 HG1  THR E   6      44.896  45.553  18.995  1.00 30.49 LIG 0.21  HD
ENDBRANCH 25 27
ENDBRANCH 16 25
ENDBRANCH 13 16
ENDBRANCH 11 12
BRANCH 11 29
ATOM     29  CB  LEU E   5      45.592  44.441  16.431  1.00 19.92 LIG 0.04  C 
BRANCH 29 30
ATOM     30  CG  LEU E   5      46.970  45.106  16.149  1.00 17.19 LIG-0.02  C 
ATOM     31  CD1 LEU E   5      47.087  46.370  16.958  1.00 19.71 LIG 0.01  C 
ATOM     32  CD2 LEU E   5      48.087  44.139  16.449  1.00 21.46 LIG 0.01  C 
ENDBRANCH 29 30
ENDBRANCH 11 29
ENDBRANCH 8 11
ENDBRANCH 6 7
BRANCH 6 33
ATOM     33  CB  LEU E   4      44.287  38.841  15.668  1.00 18.44 LIG 0.04  C 
BRANCH 33 34
ATOM     34  CG  LEU E   4      42.852  38.279  15.795  1.00 22.78 LIG-0.02  C 
ATOM     35  CD2 LEU E   4      41.762  39.361  15.676  1.00 23.44 LIG 0.01  C 
ATOM     36  CD1 LEU E   4      42.789  37.571  17.150  1.00 27.53 LIG 0.01  C 
ENDBRANCH 33 34
ENDBRANCH 6 33
ENDBRANCH 4 6
ENDBRANCH 1 2
BRANCH 1 37
ATOM     37  CB  LEU E   3      42.536  39.624  10.960  1.00 29.41 LIG 0.04  C 
BRANCH 37 38
ATOM     38  CG  LEU E   3      42.617  38.341  10.100  1.00 30.90 LIG-0.02  C 
ATOM     39  CD1 LEU E   3      43.010  37.121  10.961  1.00 35.09 LIG 0.01  C 
ATOM     40  CD2 LEU E   3      41.286  38.094   9.412  1.00 39.15 LIG 0.01  C 
ENDBRANCH 37 38
ENDBRANCH 1 37
BRANCH 1 41
ATOM     41  N   LEU E   3      45.029  39.560  10.857  1.00 22.92 LIG-0.35  N 
ATOM     42 H    LEU E   3      45.096  38.825  11.299  1.00 22.92 LIG 0.16  HD
ATOM     43  C   ARG E   2      45.888  39.983   9.937  1.00 28.87 LIG 0.24  C 
ATOM     44 O    ARG E   2      45.731  41.094   9.350  1.00 29.44 LIG-0.27  OA
BRANCH 43 45
ATOM     45  CA  ARG E   2      47.106  39.094   9.593  1.00 32.90 LIG 0.18  C 
BRANCH 45 46
ATOM     46  CB  ARG E   2      47.068  38.680   8.131  1.00 32.53 LIG 0.04  C 
BRANCH 46 47
ATOM     47  CG  ARG E   2      47.876  39.517   7.203  1.00 34.92 LIG 0.02  C 
BRANCH 47 48
ATOM     48  CD  ARG E   2      49.257  39.631   7.744  1.00 37.57 LIG 0.14  C 
BRANCH 48 49
ATOM     49  NE  ARG E   2      50.035  40.752   7.193  1.00 41.00 LIG-0.23  N 
ATOM     50 HE   ARG E   2      50.700  40.571   6.679  1.00 41.00 LIG 0.18  HD
ATOM     51  CZ  ARG E   2      49.766  42.040   7.447  1.00 43.22 LIG 0.67  C 
ATOM     52  NH2 ARG E   2      50.468  42.999   6.858  1.00 39.75 LIG-0.23  N 
ATOM     53  NH1 ARG E   2      48.782  42.383   8.299  1.00 41.20 LIG-0.23  N 
ATOM     54 2HH2 ARG E   2      50.292  43.824   7.023  1.00 39.75 LIG 0.17  HD
ATOM     55 1HH2 ARG E   2      51.099  42.795   6.310  1.00 39.75 LIG 0.17  HD
ATOM     56 1HH1 ARG E   2      48.318  41.773   8.688  1.00 41.20 LIG 0.17  HD
ATOM     57 2HH1 ARG E   2      48.619  43.212   8.453  1.00 41.20 LIG 0.17  HD
ENDBRANCH 48 49
ENDBRANCH 47 48
ENDBRANCH 46 47
ENDBRANCH 45 46
BRANCH 45 58
ATOM     58  N   ARG E   2      46.988  37.811  10.302  1.00 36.64 LIG-0.35  N 
ATOM     59 H    ARG E   2      46.225  37.430  10.189  1.00 36.64 LIG 0.16  HD
ATOM     60  C   ASN E   1      47.943  37.286  11.037  1.00 41.83 LIG 0.25  C 
ATOM     61 O    ASN E   1      49.050  37.835  11.143  1.00 38.61 LIG-0.27  OA
BRANCH 60 62
ATOM     62  CA  ASN E   1      47.626  35.887  11.676  1.00 50.15 LIG 0.28  C 
BRANCH 62 63
ATOM     63  CB  ASN E   1      46.159  35.723  12.200  1.00 58.25 LIG 0.14  C 
BRANCH 63 64
ATOM     64  CG  ASN E   1      45.781  36.708  13.361  1.00 70.07 LIG 0.22  C 
ATOM     65 OD1  ASN E   1      46.369  37.787  13.546  1.00 69.16 LIG-0.27  OA
ATOM     66  ND2 ASN E   1      44.776  36.314  14.148  1.00 65.88 LIG-0.37  N 
ATOM     67 22HD ASN E   1      44.385  35.563  14.000  1.00 65.88 LIG 0.16  HD
ATOM     68 21HD ASN E   1      44.522  36.812  14.801  1.00 65.88 LIG 0.16  HD
ENDBRANCH 63 64
ENDBRANCH 62 63
BRANCH 62 69
ATOM     69  N   ASN E   1      48.602  35.548  12.751  1.00 55.39 LIG-0.07  N 
ATOM     70 H1   ASN E   1      49.243  35.029  12.418  1.00 55.39 LIG 0.28  HD
ATOM     71 H2   ASN E   1      48.963  36.296  13.071  1.00 55.39 LIG 0.28  HD
ATOM     72 H3   ASN E   1      48.183  35.117  13.407  1.00 55.39 LIG 0.28  HD
ENDBRANCH 62 69
ENDBRANCH 60 62
ENDBRANCH 45 58
ENDBRANCH 43 45
ENDBRANCH 1 41
TORSDOF 28
ENDMDL
MODEL 46
USER: ADFR SOLUTION from run 133
USER: SCORE 24.366989 LL:  -5.137 LR: -19.923 RR:   0.000 FEB: -11.571
USER: RMSD 12.420031
USER: SEED 132
USER: STATUS no improvement in best in 4 clusters for 5 generations
USER: GENES 30
USER: genes 0 Translation |==|  0.43262 0.35148 0.43022
USER: genes 1 Rotation |==|  0.44111 0.08563 0.77215 0.52766
USER: genes 2 Torsion [N]-CA--C-[N] |==|  0.35272
USER: genes 3 Torsion [C]-N--CA-[C] |==|  0.80629
USER: genes 4 Torsion [N]-CA--C-[N] |==|  0.91667
USER: genes 5 Torsion [C]-N--CA-[C] |==|  0.77600
USER: genes 6 Torsion [N]-CA--C-[N] |==|  0.24173
USER: genes 7 Torsion [C]-N--CA-[C] |==|  0.77085
USER: genes 8 Torsion [N]-CA--C-[N] |==|  0.21049
USER: genes 9 Torsion [C]-N--CA-[C] |==|  0.36343
USER: genes 10 Torsion [N]-CA--C-[O] |==|  0.91762
USER: genes 11 Torsion [N]-CA--CB-[CG2] |==|  0.52301
USER: genes 12 Torsion [CA]-CB--OG1-[HG1] |==|  0.69203
USER: genes 13 Torsion [N]-CA--CB-[CG] |==|  0.71825
USER: genes 14 Torsion [CA]-CB--CG-[CD1] |==|  0.22424
USER: genes 15 Torsion [N]-CA--CB-[CG] |==|  0.51421
USER: genes 16 Torsion [CA]-CB--CG-[CD2] |==|  0.57473
USER: genes 17 Torsion [C]-CA--CB-[CG] |==|  0.41678
USER: genes 18 Torsion [CA]-CB--CG-[CD2] |==|  0.17623
USER: genes 19 Torsion [C]-CA--N-[C] |==|  0.71475
USER: genes 20 Torsion [N]-C--CA-[N] |==|  0.38081
USER: genes 21 Torsion [C]-CA--CB-[CG] |==|  0.37777
USER: genes 22 Torsion [CA]-CB--CG-[CD] |==|  0.66091
USER: genes 23 Torsion [CB]-CG--CD-[NE] |==|  0.75071
USER: genes 24 Torsion [CG]-CD--NE-[HE] |==|  0.16347
USER: genes 25 Torsion [C]-CA--N-[C] |==|  0.79186
USER: genes 26 Torsion [N]-C--CA-[N] |==|  0.98407
USER: genes 27 Torsion [C]-CA--CB-[CG] |==|  0.47824
USER: genes 28 Torsion [CA]-CB--CG-[OD1] |==|  0.11594
USER: genes 29 Torsion [C]-CA--N-[H2] |==|  0.01394
ROOT
ATOM      1  CA  LEU E   3      44.229  40.778  15.316  1.00 22.83 LIG 0.18  C 
ENDROOT
BRANCH 1 2
ATOM      2  C   LEU E   3      45.451  41.583  15.869  1.00 19.55 LIG 0.24  C 
ATOM      3 O    LEU E   3      46.542  41.055  16.017  1.00 19.60 LIG-0.27  OA
ATOM      4  N   LEU E   4      45.229  42.842  16.164  1.00 19.32 LIG-0.35  N 
ATOM      5 H    LEU E   4      44.450  43.193  16.264  1.00 19.32 LIG 0.16  HD
BRANCH 4 6
ATOM      6  CA  LEU E   4      46.387  43.788  16.353  1.00 17.74 LIG 0.18  C 
BRANCH 6 7
ATOM      7  C   LEU E   4      47.148  43.486  17.596  1.00 18.94 LIG 0.24  C 
ATOM      8  N   LEU E   5      46.422  42.945  18.607  1.00 19.76 LIG-0.35  N 
ATOM      9 H    LEU E   5      45.598  42.707  18.539  1.00 19.76 LIG 0.16  HD
ATOM     10 O    LEU E   4      48.375  43.786  17.705  1.00 20.41 LIG-0.27  OA
BRANCH 8 11
ATOM     11  CA  LEU E   5      47.012  42.728  19.923  1.00 18.99 LIG 0.18  C 
BRANCH 11 12
ATOM     12  C   LEU E   5      47.818  41.429  19.845  1.00 20.67 LIG 0.24  C 
ATOM     13  N   THR E   6      49.074  41.571  19.422  1.00 21.83 LIG-0.34  N 
ATOM     14 H    THR E   6      49.421  42.299  19.125  1.00 21.83 LIG 0.16  HD
ATOM     15 O    LEU E   5      47.295  40.400  20.212  1.00 20.01 LIG-0.27  OA
BRANCH 13 16
ATOM     16  CA  THR E   6      49.968  40.400  19.452  1.00 24.74 LIG 0.20  C 
BRANCH 16 17
ATOM     17  C   THR E   6      50.547  40.233  20.859  1.00 26.78 LIG 0.24  C 
ATOM     18  N   GLY E   7      49.685  39.723  21.751  1.00 28.46 LIG-0.35  N 
ATOM     19 H    GLY E   7      49.009  39.247  21.515  1.00 28.46 LIG 0.16  HD
ATOM     20 O    THR E   6      51.720  40.502  21.135  1.00 25.34 LIG-0.27  OA
BRANCH 18 21
ATOM     21  CA  GLY E   7      49.774  39.900  23.198  1.00 36.11 LIG 0.23  C 
BRANCH 21 22
ATOM     22  C   GLY E   7      48.470  40.331  23.744  1.00 43.05 LIG 0.19  C 
ATOM     23 OXT  GLY E   7      48.218  39.982  24.898  1.00 50.23 LIG-0.65  OA
ATOM     24 O    GLY E   7      47.663  41.008  23.065  1.00 56.48 LIG-0.65  OA
ENDBRANCH 21 22
ENDBRANCH 18 21
ENDBRANCH 16 17
BRANCH 16 25
ATOM     25  CB  THR E   6      51.082  40.542  18.394  1.00 24.32 LIG 0.15  C 
ATOM     26  CG2 THR E   6      51.919  39.194  18.276  1.00 23.74 LIG 0.04  C 
BRANCH 25 27
ATOM     27 OG1  THR E   6      50.439  40.809  17.162  1.00 30.49 LIG-0.39  OA
ATOM     28 HG1  THR E   6      50.524  40.147  16.652  1.00 30.49 LIG 0.21  HD
ENDBRANCH 25 27
ENDBRANCH 16 25
ENDBRANCH 13 16
ENDBRANCH 11 12
BRANCH 11 29
ATOM     29  CB  LEU E   5      45.960  42.502  20.999  1.00 19.92 LIG 0.04  C 
BRANCH 29 30
ATOM     30  CG  LEU E   5      45.761  43.805  21.825  1.00 17.19 LIG-0.02  C 
ATOM     31  CD1 LEU E   5      44.853  44.739  21.068  1.00 19.71 LIG 0.01  C 
ATOM     32  CD2 LEU E   5      45.219  43.478  23.193  1.00 21.46 LIG 0.01  C 
ENDBRANCH 29 30
ENDBRANCH 11 29
ENDBRANCH 8 11
ENDBRANCH 6 7
BRANCH 6 33
ATOM     33  CB  LEU E   4      45.821  45.243  16.443  1.00 18.44 LIG 0.04  C 
BRANCH 33 34
ATOM     34  CG  LEU E   4      46.975  46.269  16.509  1.00 22.78 LIG-0.02  C 
ATOM     35  CD2 LEU E   4      46.590  47.574  17.231  1.00 23.44 LIG 0.01  C 
ATOM     36  CD1 LEU E   4      47.395  46.536  15.062  1.00 27.53 LIG 0.01  C 
ENDBRANCH 33 34
ENDBRANCH 6 33
ENDBRANCH 4 6
ENDBRANCH 1 2
BRANCH 1 37
ATOM     37  CB  LEU E   3      43.812  39.753  16.375  1.00 29.41 LIG 0.04  C 
BRANCH 37 38
ATOM     38  CG  LEU E   3      42.318  39.358  16.427  1.00 30.90 LIG-0.02  C 
ATOM     39  CD1 LEU E   3      41.427  40.593  16.681  1.00 35.09 LIG 0.01  C 
ATOM     40  CD2 LEU E   3      41.917  38.675  15.131  1.00 39.15 LIG 0.01  C 
ENDBRANCH 37 38
ENDBRANCH 1 37
BRANCH 1 41
ATOM     41  N   LEU E   3      44.566  40.110  14.023  1.00 22.92 LIG-0.35  N 
ATOM     42 H    LEU E   3      45.040  39.395  14.086  1.00 22.92 LIG 0.16  HD
ATOM     43  C   ARG E   2      44.128  40.641  12.888  1.00 28.87 LIG 0.24  C 
ATOM     44 O    ARG E   2      43.455  41.715  12.879  1.00 29.44 LIG-0.27  OA
BRANCH 43 45
ATOM     45  CA  ARG E   2      44.462  39.929  11.557  1.00 32.90 LIG 0.18  C 
BRANCH 45 46
ATOM     46  CB  ARG E   2      45.458  40.747  10.749  1.00 32.53 LIG 0.04  C 
BRANCH 46 47
ATOM     47  CG  ARG E   2      46.569  39.977  10.129  1.00 34.92 LIG 0.02  C 
BRANCH 47 48
ATOM     48  CD  ARG E   2      47.862  40.526  10.619  1.00 37.57 LIG 0.14  C 
BRANCH 48 49
ATOM     49  NE  ARG E   2      48.411  41.616   9.798  1.00 41.00 LIG-0.23  N 
ATOM     50 HE   ARG E   2      47.934  42.323   9.690  1.00 41.00 LIG 0.18  HD
ATOM     51  CZ  ARG E   2      49.614  41.569   9.207  1.00 43.22 LIG 0.67  C 
ATOM     52  NH2 ARG E   2      50.072  42.620   8.540  1.00 39.75 LIG-0.23  N 
ATOM     53  NH1 ARG E   2      50.375  40.463   9.281  1.00 41.20 LIG-0.23  N 
ATOM     54 2HH2 ARG E   2      50.844  42.587   8.163  1.00 39.75 LIG 0.17  HD
ATOM     55 1HH2 ARG E   2      49.597  43.335   8.485  1.00 39.75 LIG 0.17  HD
ATOM     56 1HH1 ARG E   2      50.091  39.774   9.711  1.00 41.20 LIG 0.17  HD
ATOM     57 2HH1 ARG E   2      51.144  40.444   8.899  1.00 41.20 LIG 0.17  HD
ENDBRANCH 48 49
ENDBRANCH 47 48
ENDBRANCH 46 47
ENDBRANCH 45 46
BRANCH 45 58
ATOM     58  N   ARG E   2      43.269  39.920  10.696  1.00 36.64 LIG-0.35  N 
ATOM     59 H    ARG E   2      43.313  40.485  10.049  1.00 36.64 LIG 0.16  HD
ATOM     60  C   ASN E   1      42.233  39.133  10.884  1.00 41.83 LIG 0.25  C 
ATOM     61 O    ASN E   1      42.218  38.294  11.797  1.00 38.61 LIG-0.27  OA
BRANCH 60 62
ATOM     62  CA  ASN E   1      41.079  39.255   9.825  1.00 50.15 LIG 0.28  C 
BRANCH 62 63
ATOM     63  CB  ASN E   1      40.757  37.932   9.052  1.00 58.25 LIG 0.14  C 
BRANCH 63 64
ATOM     64  CG  ASN E   1      39.481  38.018   8.142  1.00 70.07 LIG 0.22  C 
ATOM     65 OD1  ASN E   1      39.222  39.010   7.440  1.00 69.16 LIG-0.27  OA
ATOM     66  ND2 ASN E   1      38.682  36.948   8.166  1.00 65.88 LIG-0.37  N 
ATOM     67 22HD ASN E   1      38.883  36.273   8.660  1.00 65.88 LIG 0.16  HD
ATOM     68 21HD ASN E   1      37.968  36.935   7.688  1.00 65.88 LIG 0.16  HD
ENDBRANCH 63 64
ENDBRANCH 62 63
BRANCH 62 69
ATOM     69  N   ASN E   1      41.340  40.366   8.865  1.00 55.39 LIG-0.07  N 
ATOM     70 H1   ASN E   1      40.719  40.996   8.964  1.00 55.39 LIG 0.28  HD
ATOM     71 H2   ASN E   1      42.144  40.714   9.025  1.00 55.39 LIG 0.28  HD
ATOM     72 H3   ASN E   1      41.313  40.052   8.033  1.00 55.39 LIG 0.28  HD
ENDBRANCH 62 69
ENDBRANCH 60 62
ENDBRANCH 45 58
ENDBRANCH 43 45
ENDBRANCH 1 41
TORSDOF 28
ENDMDL
MODEL 47
USER: ADFR SOLUTION from run 130
USER: SCORE 24.180789 LL:  -5.106 LR: -19.898 RR:   0.000 FEB: -11.545
USER: RMSD 12.419332
USER: SEED 129
USER: STATUS no improvement in best in 12 clusters for 5 generations
USER: GENES 30
USER: genes 0 Translation |==|  0.44142 0.34990 0.41566
USER: genes 1 Rotation |==|  0.57740 0.89927 0.20936 0.51073
USER: genes 2 Torsion [N]-CA--C-[N] |==|  0.36863
USER: genes 3 Torsion [C]-N--CA-[C] |==|  0.84745
USER: genes 4 Torsion [N]-CA--C-[N] |==|  0.87929
USER: genes 5 Torsion [C]-N--CA-[C] |==|  0.81149
USER: genes 6 Torsion [N]-CA--C-[N] |==|  0.43419
USER: genes 7 Torsion [C]-N--CA-[C] |==|  0.59740
USER: genes 8 Torsion [N]-CA--C-[N] |==|  0.16910
USER: genes 9 Torsion [C]-N--CA-[C] |==|  0.38478
USER: genes 10 Torsion [N]-CA--C-[O] |==|  0.89643
USER: genes 11 Torsion [N]-CA--CB-[CG2] |==|  0.48843
USER: genes 12 Torsion [CA]-CB--OG1-[HG1] |==|  0.69023
USER: genes 13 Torsion [N]-CA--CB-[CG] |==|  0.75111
USER: genes 14 Torsion [CA]-CB--CG-[CD1] |==|  0.19716
USER: genes 15 Torsion [N]-CA--CB-[CG] |==|  0.49374
USER: genes 16 Torsion [CA]-CB--CG-[CD2] |==|  0.57477
USER: genes 17 Torsion [C]-CA--CB-[CG] |==|  0.39751
USER: genes 18 Torsion [CA]-CB--CG-[CD2] |==|  0.19135
USER: genes 19 Torsion [C]-CA--N-[C] |==|  0.65734
USER: genes 20 Torsion [N]-C--CA-[N] |==|  0.43854
USER: genes 21 Torsion [C]-CA--CB-[CG] |==|  0.27670
USER: genes 22 Torsion [CA]-CB--CG-[CD] |==|  0.04187
USER: genes 23 Torsion [CB]-CG--CD-[NE] |==|  0.26506
USER: genes 24 Torsion [CG]-CD--NE-[HE] |==|  0.91091
USER: genes 25 Torsion [C]-CA--N-[C] |==|  0.80568
USER: genes 26 Torsion [N]-C--CA-[N] |==|  0.41660
USER: genes 27 Torsion [C]-CA--CB-[CG] |==|  0.29825
USER: genes 28 Torsion [CA]-CB--CG-[OD1] |==|  0.96729
USER: genes 29 Torsion [C]-CA--N-[H2] |==|  0.89375
ROOT
ATOM      1  CA  LEU E   3      44.407  40.743  14.934  1.00 22.83 LIG 0.18  C 
ENDROOT
BRANCH 1 2
ATOM      2  C   LEU E   3      45.520  41.639  15.570  1.00 19.55 LIG 0.24  C 
ATOM      3 O    LEU E   3      46.617  41.183  15.850  1.00 19.60 LIG-0.27  OA
ATOM      4  N   LEU E   4      45.199  42.893  15.785  1.00 19.32 LIG-0.35  N 
ATOM      5 H    LEU E   4      44.397  43.201  15.791  1.00 19.32 LIG 0.16  HD
BRANCH 4 6
ATOM      6  CA  LEU E   4      46.279  43.913  16.047  1.00 17.74 LIG 0.18  C 
BRANCH 6 7
ATOM      7  C   LEU E   4      47.153  43.510  17.181  1.00 18.94 LIG 0.24  C 
ATOM      8  N   LEU E   5      46.509  43.011  18.266  1.00 19.76 LIG-0.35  N 
ATOM      9 H    LEU E   5      45.665  42.850  18.296  1.00 19.76 LIG 0.16  HD
ATOM     10 O    LEU E   4      48.407  43.695  17.142  1.00 20.41 LIG-0.27  OA
BRANCH 8 11
ATOM     11  CA  LEU E   5      47.232  42.706  19.495  1.00 18.99 LIG 0.18  C 
BRANCH 11 12
ATOM     12  C   LEU E   5      48.150  41.519  19.194  1.00 20.67 LIG 0.24  C 
ATOM     13  N   THR E   6      49.211  41.411  19.994  1.00 21.83 LIG-0.34  N 
ATOM     14 H    THR E   6      49.447  41.984  20.590  1.00 21.83 LIG 0.16  HD
ATOM     15 O    LEU E   5      47.834  40.752  18.312  1.00 20.01 LIG-0.27  OA
BRANCH 13 16
ATOM     16  CA  THR E   6      50.071  40.221  19.873  1.00 24.74 LIG 0.20  C 
BRANCH 16 17
ATOM     17  C   THR E   6      50.599  39.827  21.255  1.00 26.78 LIG 0.24  C 
ATOM     18  N   GLY E   7      49.642  39.512  22.140  1.00 28.46 LIG-0.35  N 
ATOM     19 H    GLY E   7      48.862  39.245  21.895  1.00 28.46 LIG 0.16  HD
ATOM     20 O    THR E   6      51.804  39.761  21.516  1.00 25.34 LIG-0.27  OA
BRANCH 18 21
ATOM     21  CA  GLY E   7      49.789  39.575  23.591  1.00 36.11 LIG 0.23  C 
BRANCH 21 22
ATOM     22  C   GLY E   7      48.567  40.138  24.206  1.00 43.05 LIG 0.19  C 
ATOM     23 OXT  GLY E   7      48.218  39.642  25.279  1.00 50.23 LIG-0.65  OA
ATOM     24 O    GLY E   7      47.920  41.062  23.661  1.00 56.48 LIG-0.65  OA
ENDBRANCH 21 22
ENDBRANCH 18 21
ENDBRANCH 16 17
BRANCH 16 25
ATOM     25  CB  THR E   6      51.223  40.484  18.881  1.00 24.32 LIG 0.15  C 
ATOM     26  CG2 THR E   6      52.214  39.241  18.828  1.00 23.74 LIG 0.04  C 
BRANCH 25 27
ATOM     27 OG1  THR E   6      50.628  40.669  17.609  1.00 30.49 LIG-0.39  OA
ATOM     28 HG1  THR E   6      50.826  40.023  17.111  1.00 30.49 LIG 0.21  HD
ENDBRANCH 25 27
ENDBRANCH 16 25
ENDBRANCH 13 16
ENDBRANCH 11 12
BRANCH 11 29
ATOM     29  CB  LEU E   5      46.308  42.244  20.612  1.00 19.92 LIG 0.04  C 
BRANCH 29 30
ATOM     30  CG  LEU E   5      45.817  43.471  21.433  1.00 17.19 LIG-0.02  C 
ATOM     31  CD1 LEU E   5      44.851  44.272  20.600  1.00 19.71 LIG 0.01  C 
ATOM     32  CD2 LEU E   5      45.200  43.017  22.731  1.00 21.46 LIG 0.01  C 
ENDBRANCH 29 30
ENDBRANCH 11 29
ENDBRANCH 8 11
ENDBRANCH 6 7
BRANCH 6 33
ATOM     33  CB  LEU E   4      45.591  45.275  16.391  1.00 18.44 LIG 0.04  C 
BRANCH 33 34
ATOM     34  CG  LEU E   4      46.654  46.347  16.725  1.00 22.78 LIG-0.02  C 
ATOM     35  CD2 LEU E   4      46.133  47.447  17.669  1.00 23.44 LIG 0.01  C 
ATOM     36  CD1 LEU E   4      47.108  46.931  15.386  1.00 27.53 LIG 0.01  C 
ENDBRANCH 33 34
ENDBRANCH 6 33
ENDBRANCH 4 6
ENDBRANCH 1 2
BRANCH 1 37
ATOM     37  CB  LEU E   3      43.840  39.834  16.030  1.00 29.41 LIG 0.04  C 
BRANCH 37 38
ATOM     38  CG  LEU E   3      42.323  39.539  15.989  1.00 30.90 LIG-0.02  C 
ATOM     39  CD1 LEU E   3      41.505  40.848  15.939  1.00 35.09 LIG 0.01  C 
ATOM     40  CD2 LEU E   3      41.997  38.667  14.789  1.00 39.15 LIG 0.01  C 
ENDBRANCH 37 38
ENDBRANCH 1 37
BRANCH 1 41
ATOM     41  N   LEU E   3      44.948  39.941  13.796  1.00 22.92 LIG-0.35  N 
ATOM     42 H    LEU E   3      45.619  39.436  13.982  1.00 22.92 LIG 0.16  HD
ATOM     43  C   ARG E   2      44.379  40.050  12.601  1.00 28.87 LIG 0.24  C 
ATOM     44 O    ARG E   2      43.408  40.838  12.403  1.00 29.44 LIG-0.27  OA
BRANCH 43 45
ATOM     45  CA  ARG E   2      44.932  39.198  11.435  1.00 32.90 LIG 0.18  C 
BRANCH 45 46
ATOM     46  CB  ARG E   2      46.037  39.945  10.705  1.00 32.53 LIG 0.04  C 
BRANCH 46 47
ATOM     47  CG  ARG E   2      47.426  39.557  11.069  1.00 34.92 LIG 0.02  C 
BRANCH 47 48
ATOM     48  CD  ARG E   2      47.383  38.265  11.807  1.00 37.57 LIG 0.14  C 
BRANCH 48 49
ATOM     49  NE  ARG E   2      47.609  37.078  10.968  1.00 41.00 LIG-0.23  N 
ATOM     50 HE   ARG E   2      47.340  37.101  10.151  1.00 41.00 LIG 0.18  HD
ATOM     51  CZ  ARG E   2      48.209  35.962  11.404  1.00 43.22 LIG 0.67  C 
ATOM     52  NH2 ARG E   2      48.440  34.957  10.569  1.00 39.75 LIG-0.23  N 
ATOM     53  NH1 ARG E   2      48.586  35.840  12.689  1.00 41.20 LIG-0.23  N 
ATOM     54 2HH2 ARG E   2      48.826  34.243  10.852  1.00 39.75 LIG 0.17  HD
ATOM     55 1HH2 ARG E   2      48.205  35.021   9.744  1.00 39.75 LIG 0.17  HD
ATOM     56 1HH1 ARG E   2      48.443  36.483  13.242  1.00 41.20 LIG 0.17  HD
ATOM     57 2HH1 ARG E   2      48.971  35.120  12.957  1.00 41.20 LIG 0.17  HD
ENDBRANCH 48 49
ENDBRANCH 47 48
ENDBRANCH 46 47
ENDBRANCH 45 46
BRANCH 45 58
ATOM     58  N   ARG E   2      43.895  39.054  10.402  1.00 36.64 LIG-0.35  N 
ATOM     59 H    ARG E   2      44.071  39.488   9.681  1.00 36.64 LIG 0.16  HD
ATOM     60  C   ASN E   1      42.802  38.338  10.552  1.00 41.83 LIG 0.25  C 
ATOM     61 O    ASN E   1      42.597  37.684  11.585  1.00 38.61 LIG-0.27  OA
BRANCH 60 62
ATOM     62  CA  ASN E   1      41.842  38.285   9.309  1.00 50.15 LIG 0.28  C 
BRANCH 62 63
ATOM     63  CB  ASN E   1      40.856  39.495   9.192  1.00 58.25 LIG 0.14  C 
BRANCH 63 64
ATOM     64  CG  ASN E   1      41.213  40.502   8.043  1.00 70.07 LIG 0.22  C 
ATOM     65 OD1  ASN E   1      42.297  40.473   7.436  1.00 69.16 LIG-0.27  OA
ATOM     66  ND2 ASN E   1      40.271  41.403   7.751  1.00 65.88 LIG-0.37  N 
ATOM     67 22HD ASN E   1      39.528  41.403   8.185  1.00 65.88 LIG 0.16  HD
ATOM     68 21HD ASN E   1      40.408  41.981   7.130  1.00 65.88 LIG 0.16  HD
ENDBRANCH 63 64
ENDBRANCH 62 63
BRANCH 62 69
ATOM     69  N   ASN E   1      41.093  36.997   9.259  1.00 55.39 LIG-0.07  N 
ATOM     70 H1   ASN E   1      40.813  36.849   8.427  1.00 55.39 LIG 0.28  HD
ATOM     71 H2   ASN E   1      41.627  36.332   9.514  1.00 55.39 LIG 0.28  HD
ATOM     72 H3   ASN E   1      40.391  37.040   9.804  1.00 55.39 LIG 0.28  HD
ENDBRANCH 62 69
ENDBRANCH 60 62
ENDBRANCH 45 58
ENDBRANCH 43 45
ENDBRANCH 1 41
TORSDOF 28
ENDMDL
MODEL 48
USER: ADFR SOLUTION from run 109
USER: SCORE 23.552600 LL:  -5.428 LR: -19.892 RR:   0.000 FEB: -11.540
USER: RMSD 12.699021
USER: SEED 108
USER: STATUS no improvement in best in 12 clusters for 5 generations
USER: GENES 30
USER: genes 0 Translation |==|  0.41901 0.27581 0.30005
USER: genes 1 Rotation |==|  0.52667 0.88048 0.28081 0.73765
USER: genes 2 Torsion [N]-CA--C-[N] |==|  0.85135
USER: genes 3 Torsion [C]-N--CA-[C] |==|  0.55560
USER: genes 4 Torsion [N]-CA--C-[N] |==|  0.46642
USER: genes 5 Torsion [C]-N--CA-[C] |==|  0.84234
USER: genes 6 Torsion [N]-CA--C-[N] |==|  0.36533
USER: genes 7 Torsion [C]-N--CA-[C] |==|  0.81086
USER: genes 8 Torsion [N]-CA--C-[N] |==|  0.35616
USER: genes 9 Torsion [C]-N--CA-[C] |==|  0.76811
USER: genes 10 Torsion [N]-CA--C-[O] |==|  0.53611
USER: genes 11 Torsion [N]-CA--CB-[CG2] |==|  0.49855
USER: genes 12 Torsion [CA]-CB--OG1-[HG1] |==|  0.55167
USER: genes 13 Torsion [N]-CA--CB-[CG] |==|  0.77038
USER: genes 14 Torsion [CA]-CB--CG-[CD1] |==|  0.60970
USER: genes 15 Torsion [N]-CA--CB-[CG] |==|  0.11263
USER: genes 16 Torsion [CA]-CB--CG-[CD2] |==|  0.65616
USER: genes 17 Torsion [C]-CA--CB-[CG] |==|  0.67784
USER: genes 18 Torsion [CA]-CB--CG-[CD2] |==|  0.54316
USER: genes 19 Torsion [C]-CA--N-[C] |==|  0.65538
USER: genes 20 Torsion [N]-C--CA-[N] |==|  0.70501
USER: genes 21 Torsion [C]-CA--CB-[CG] |==|  0.18540
USER: genes 22 Torsion [CA]-CB--CG-[CD] |==|  0.24307
USER: genes 23 Torsion [CB]-CG--CD-[NE] |==|  0.57659
USER: genes 24 Torsion [CG]-CD--NE-[HE] |==|  0.71546
USER: genes 25 Torsion [C]-CA--N-[C] |==|  0.54564
USER: genes 26 Torsion [N]-C--CA-[N] |==|  0.34751
USER: genes 27 Torsion [C]-CA--CB-[CG] |==|  0.77260
USER: genes 28 Torsion [CA]-CB--CG-[OD1] |==|  0.28049
USER: genes 29 Torsion [C]-CA--N-[H2] |==|  0.91628
ROOT
ATOM      1  CA  LEU E   3      43.953  39.076  11.899  1.00 22.83 LIG 0.18  C 
ENDROOT
BRANCH 1 2
ATOM      2  C   LEU E   3      43.660  40.254  12.886  1.00 19.55 LIG 0.24  C 
ATOM      3 O    LEU E   3      42.760  41.050  12.671  1.00 19.60 LIG-0.27  OA
ATOM      4  N   LEU E   4      44.438  40.333  13.939  1.00 19.32 LIG-0.35  N 
ATOM      5 H    LEU E   4      45.191  39.927  14.025  1.00 19.32 LIG 0.16  HD
BRANCH 4 6
ATOM      6  CA  LEU E   4      44.031  41.185  15.115  1.00 17.74 LIG 0.18  C 
BRANCH 6 7
ATOM      7  C   LEU E   4      45.196  41.534  15.972  1.00 18.94 LIG 0.24  C 
ATOM      8  N   LEU E   5      44.970  42.499  16.899  1.00 19.76 LIG-0.35  N 
ATOM      9 H    LEU E   5      44.199  42.844  17.060  1.00 19.76 LIG 0.16  HD
ATOM     10 O    LEU E   4      46.333  41.004  15.784  1.00 20.41 LIG-0.27  OA
BRANCH 8 11
ATOM     11  CA  LEU E   5      46.059  43.031  17.710  1.00 18.99 LIG 0.18  C 
BRANCH 11 12
ATOM     12  C   LEU E   5      46.701  41.846  18.434  1.00 20.67 LIG 0.24  C 
ATOM     13  N   THR E   6      48.032  41.794  18.357  1.00 21.83 LIG-0.34  N 
ATOM     14 H    THR E   6      48.524  42.314  17.882  1.00 21.83 LIG 0.16  HD
ATOM     15 O    LEU E   5      45.987  41.089  19.053  1.00 20.01 LIG-0.27  OA
BRANCH 13 16
ATOM     16  CA  THR E   6      48.747  40.773  19.142  1.00 24.74 LIG 0.20  C 
BRANCH 16 17
ATOM     17  C   THR E   6      48.619  41.090  20.634  1.00 26.78 LIG 0.24  C 
ATOM     18  N   GLY E   7      48.184  40.063  21.379  1.00 28.46 LIG-0.35  N 
ATOM     19 H    GLY E   7      48.273  39.245  21.128  1.00 28.46 LIG 0.16  HD
ATOM     20 O    THR E   6      48.935  42.183  21.114  1.00 25.34 LIG-0.27  OA
BRANCH 18 21
ATOM     21  CA  GLY E   7      47.523  40.189  22.675  1.00 36.11 LIG 0.23  C 
BRANCH 21 22
ATOM     22  C   GLY E   7      48.527  40.328  23.751  1.00 43.05 LIG 0.19  C 
ATOM     23 OXT  GLY E   7      49.683  40.557  23.393  1.00 50.23 LIG-0.65  OA
ATOM     24 O    GLY E   7      48.218  40.212  24.960  1.00 56.48 LIG-0.65  OA
ENDBRANCH 21 22
ENDBRANCH 18 21
ENDBRANCH 16 17
BRANCH 16 25
ATOM     25  CB  THR E   6      50.225  40.691  18.705  1.00 24.32 LIG 0.15  C 
ATOM     26  CG2 THR E   6      51.003  39.599  19.560  1.00 23.74 LIG 0.04  C 
BRANCH 25 27
ATOM     27 OG1  THR E   6      50.223  40.311  17.341  1.00 30.49 LIG-0.39  OA
ATOM     28 HG1  THR E   6      50.979  40.012  17.133  1.00 30.49 LIG 0.21  HD
ENDBRANCH 25 27
ENDBRANCH 16 25
ENDBRANCH 13 16
ENDBRANCH 11 12
BRANCH 11 29
ATOM     29  CB  LEU E   5      45.562  43.967  18.803  1.00 19.92 LIG 0.04  C 
BRANCH 29 30
ATOM     30  CG  LEU E   5      45.340  45.391  18.218  1.00 17.19 LIG-0.02  C 
ATOM     31  CD1 LEU E   5      45.799  46.417  19.220  1.00 19.71 LIG 0.01  C 
ATOM     32  CD2 LEU E   5      46.057  45.531  16.899  1.00 21.46 LIG 0.01  C 
ENDBRANCH 29 30
ENDBRANCH 11 29
ENDBRANCH 8 11
ENDBRANCH 6 7
BRANCH 6 33
ATOM     33  CB  LEU E   4      42.995  40.379  15.966  1.00 18.44 LIG 0.04  C 
BRANCH 33 34
ATOM     34  CG  LEU E   4      43.413  38.894  16.062  1.00 22.78 LIG-0.02  C 
ATOM     35  CD2 LEU E   4      42.326  37.922  15.564  1.00 23.44 LIG 0.01  C 
ATOM     36  CD1 LEU E   4      43.758  38.640  17.530  1.00 27.53 LIG 0.01  C 
ENDBRANCH 33 34
ENDBRANCH 6 33
ENDBRANCH 4 6
ENDBRANCH 1 2
BRANCH 1 37
ATOM     37  CB  LEU E   3      43.584  37.763  12.598  1.00 29.41 LIG 0.04  C 
BRANCH 37 38
ATOM     38  CG  LEU E   3      44.731  36.764  12.876  1.00 30.90 LIG-0.02  C 
ATOM     39  CD1 LEU E   3      45.633  37.261  14.026  1.00 35.09 LIG 0.01  C 
ATOM     40  CD2 LEU E   3      44.158  35.397  13.207  1.00 39.15 LIG 0.01  C 
ENDBRANCH 37 38
ENDBRANCH 1 37
BRANCH 1 41
ATOM     41  N   LEU E   3      45.385  39.075  11.474  1.00 22.92 LIG-0.35  N 
ATOM     42 H    LEU E   3      45.962  39.046  12.111  1.00 22.92 LIG 0.16  HD
ATOM     43  C   ARG E   2      45.674  39.118  10.179  1.00 28.87 LIG 0.24  C 
ATOM     44 O    ARG E   2      44.763  39.186   9.302  1.00 29.44 LIG-0.27  OA
BRANCH 43 45
ATOM     45  CA  ARG E   2      47.159  39.093   9.748  1.00 32.90 LIG 0.18  C 
BRANCH 45 46
ATOM     46  CB  ARG E   2      48.060  38.861  10.950  1.00 32.53 LIG 0.04  C 
BRANCH 46 47
ATOM     47  CG  ARG E   2      47.944  37.524  11.593  1.00 34.92 LIG 0.02  C 
BRANCH 47 48
ATOM     48  CD  ARG E   2      48.870  36.583  10.909  1.00 37.57 LIG 0.14  C 
BRANCH 48 49
ATOM     49  NE  ARG E   2      48.450  35.174  10.958  1.00 41.00 LIG-0.23  N 
ATOM     50 HE   ARG E   2      48.843  34.652  11.518  1.00 41.00 LIG 0.18  HD
ATOM     51  CZ  ARG E   2      47.491  34.655  10.179  1.00 43.22 LIG 0.67  C 
ATOM     52  NH2 ARG E   2      47.117  33.391  10.329  1.00 39.75 LIG-0.23  N 
ATOM     53  NH1 ARG E   2      46.891  35.404   9.236  1.00 41.20 LIG-0.23  N 
ATOM     54 2HH2 ARG E   2      46.501  33.062   9.828  1.00 39.75 LIG 0.17  HD
ATOM     55 1HH2 ARG E   2      47.492  32.901  10.928  1.00 39.75 LIG 0.17  HD
ATOM     56 1HH1 ARG E   2      47.122  36.225   9.127  1.00 41.20 LIG 0.17  HD
ATOM     57 2HH1 ARG E   2      46.276  35.061   8.742  1.00 41.20 LIG 0.17  HD
ENDBRANCH 48 49
ENDBRANCH 47 48
ENDBRANCH 46 47
ENDBRANCH 45 46
BRANCH 45 58
ATOM     58  N   ARG E   2      47.557  40.434   9.293  1.00 36.64 LIG-0.35  N 
ATOM     59 H    ARG E   2      47.010  41.051   9.538  1.00 36.64 LIG 0.16  HD
ATOM     60  C   ASN E   1      48.635  40.680   8.583  1.00 41.83 LIG 0.25  C 
ATOM     61 O    ASN E   1      49.431  39.777   8.285  1.00 38.61 LIG-0.27  OA
BRANCH 60 62
ATOM     62  CA  ASN E   1      48.897  42.189   8.234  1.00 50.15 LIG 0.28  C 
BRANCH 62 63
ATOM     63  CB  ASN E   1      48.669  42.564   6.731  1.00 58.25 LIG 0.14  C 
BRANCH 63 64
ATOM     64  CG  ASN E   1      49.883  42.225   5.797  1.00 70.07 LIG 0.22  C 
ATOM     65 OD1  ASN E   1      49.910  41.219   5.067  1.00 69.16 LIG-0.27  OA
ATOM     66  ND2 ASN E   1      50.898  43.093   5.832  1.00 65.88 LIG-0.37  N 
ATOM     67 22HD ASN E   1      50.856  43.782   6.345  1.00 65.88 LIG 0.16  HD
ATOM     68 21HD ASN E   1      51.592  42.962   5.342  1.00 65.88 LIG 0.16  HD
ENDBRANCH 63 64
ENDBRANCH 62 63
BRANCH 62 69
ATOM     69  N   ASN E   1      50.254  42.620   8.677  1.00 55.39 LIG-0.07  N 
ATOM     70 H1   ASN E   1      50.239  43.487   8.878  1.00 55.39 LIG 0.28  HD
ATOM     71 H2   ASN E   1      50.494  42.153   9.395  1.00 55.39 LIG 0.28  HD
ATOM     72 H3   ASN E   1      50.839  42.479   8.022  1.00 55.39 LIG 0.28  HD
ENDBRANCH 62 69
ENDBRANCH 60 62
ENDBRANCH 45 58
ENDBRANCH 43 45
ENDBRANCH 1 41
TORSDOF 28
ENDMDL
MODEL 49
USER: ADFR SOLUTION from run 4
USER: SCORE 24.547766 LL:  -5.423 LR: -19.886 RR:   0.000 FEB: -11.533
USER: RMSD 12.116378
USER: SEED 590492
USER: STATUS no improvement in best in 2 clusters for 5 generations
USER: GENES 30
USER: genes 0 Translation |==|  0.42682 0.34364 0.42569
USER: genes 1 Rotation |==|  0.64918 0.91774 0.26949 0.51004
USER: genes 2 Torsion [N]-CA--C-[N] |==|  0.42613
USER: genes 3 Torsion [C]-N--CA-[C] |==|  0.76230
USER: genes 4 Torsion [N]-CA--C-[N] |==|  0.53883
USER: genes 5 Torsion [C]-N--CA-[C] |==|  0.14925
USER: genes 6 Torsion [N]-CA--C-[N] |==|  0.14337
USER: genes 7 Torsion [C]-N--CA-[C] |==|  0.83765
USER: genes 8 Torsion [N]-CA--C-[N] |==|  0.92280
USER: genes 9 Torsion [C]-N--CA-[C] |==|  0.30425
USER: genes 10 Torsion [N]-CA--C-[O] |==|  0.37753
USER: genes 11 Torsion [N]-CA--CB-[CG2] |==|  0.48338
USER: genes 12 Torsion [CA]-CB--OG1-[HG1] |==|  0.66871
USER: genes 13 Torsion [N]-CA--CB-[CG] |==|  0.77895
USER: genes 14 Torsion [CA]-CB--CG-[CD1] |==|  0.87475
USER: genes 15 Torsion [N]-CA--CB-[CG] |==|  0.68056
USER: genes 16 Torsion [CA]-CB--CG-[CD2] |==|  0.44078
USER: genes 17 Torsion [C]-CA--CB-[CG] |==|  0.20553
USER: genes 18 Torsion [CA]-CB--CG-[CD2] |==|  0.53300
USER: genes 19 Torsion [C]-CA--N-[C] |==|  0.65595
USER: genes 20 Torsion [N]-C--CA-[N] |==|  0.06620
USER: genes 21 Torsion [C]-CA--CB-[CG] |==|  0.86455
USER: genes 22 Torsion [CA]-CB--CG-[CD] |==|  0.52193
USER: genes 23 Torsion [CB]-CG--CD-[NE] |==|  0.74736
USER: genes 24 Torsion [CG]-CD--NE-[HE] |==|  0.89287
USER: genes 25 Torsion [C]-CA--N-[C] |==|  0.69736
USER: genes 26 Torsion [N]-C--CA-[N] |==|  0.50114
USER: genes 27 Torsion [C]-CA--CB-[CG] |==|  0.17366
USER: genes 28 Torsion [CA]-CB--CG-[OD1] |==|  0.11666
USER: genes 29 Torsion [C]-CA--N-[H2] |==|  0.85693
ROOT
ATOM      1  CA  LEU E   3      44.111  40.602  15.197  1.00 22.83 LIG 0.18  C 
ENDROOT
BRANCH 1 2
ATOM      2  C   LEU E   3      45.202  41.053  16.224  1.00 19.55 LIG 0.24  C 
ATOM      3 O    LEU E   3      46.283  40.490  16.288  1.00 19.60 LIG-0.27  OA
ATOM      4  N   LEU E   4      44.881  42.058  17.004  1.00 19.32 LIG-0.35  N 
ATOM      5 H    LEU E   4      44.081  42.346  17.129  1.00 19.32 LIG 0.16  HD
BRANCH 4 6
ATOM      6  CA  LEU E   4      45.954  42.798  17.761  1.00 17.74 LIG 0.18  C 
BRANCH 6 7
ATOM      7  C   LEU E   4      46.274  42.134  19.054  1.00 18.94 LIG 0.24  C 
ATOM      8  N   LEU E   5      47.002  42.876  19.927  1.00 19.76 LIG-0.35  N 
ATOM      9 H    LEU E   5      47.209  43.702  19.805  1.00 19.76 LIG 0.16  HD
ATOM     10 O    LEU E   4      45.939  40.932  19.276  1.00 20.41 LIG-0.27  OA
BRANCH 8 11
ATOM     11  CA  LEU E   5      47.498  42.300  21.171  1.00 18.99 LIG 0.18  C 
BRANCH 11 12
ATOM     12  C   LEU E   5      48.278  41.037  20.802  1.00 20.67 LIG 0.24  C 
ATOM     13  N   THR E   6      49.208  41.204  19.862  1.00 21.83 LIG-0.34  N 
ATOM     14 H    THR E   6      49.338  41.924  19.411  1.00 21.83 LIG 0.16  HD
ATOM     15 O    LEU E   5      48.044  40.014  21.407  1.00 20.01 LIG-0.27  OA
BRANCH 13 16
ATOM     16  CA  THR E   6      50.106  40.079  19.545  1.00 24.74 LIG 0.20  C 
BRANCH 16 17
ATOM     17  C   THR E   6      50.862  39.656  20.807  1.00 26.78 LIG 0.24  C 
ATOM     18  N   GLY E   7      51.041  40.643  21.697  1.00 28.46 LIG-0.35  N 
ATOM     19 H    GLY E   7      50.530  41.334  21.725  1.00 28.46 LIG 0.16  HD
ATOM     20 O    THR E   6      51.233  38.496  21.006  1.00 25.34 LIG-0.27  OA
BRANCH 18 21
ATOM     21  CA  GLY E   7      52.094  40.678  22.709  1.00 36.11 LIG 0.23  C 
BRANCH 21 22
ATOM     22  C   GLY E   7      53.093  41.715  22.374  1.00 43.05 LIG 0.19  C 
ATOM     23 OXT  GLY E   7      53.459  41.760  21.199  1.00 50.23 LIG-0.65  OA
ATOM     24 O    GLY E   7      53.547  42.497  23.241  1.00 56.48 LIG-0.65  OA
ENDBRANCH 21 22
ENDBRANCH 18 21
ENDBRANCH 16 17
BRANCH 16 25
ATOM     25  CB  THR E   6      51.074  40.463  18.407  1.00 24.32 LIG 0.15  C 
ATOM     26  CG2 THR E   6      52.143  39.310  18.167  1.00 23.74 LIG 0.04  C 
BRANCH 25 27
ATOM     27 OG1  THR E   6      50.285  40.626  17.242  1.00 30.49 LIG-0.39  OA
ATOM     28 HG1  THR E   6      50.532  40.077  16.657  1.00 30.49 LIG 0.21  HD
ENDBRANCH 25 27
ENDBRANCH 16 25
ENDBRANCH 13 16
ENDBRANCH 11 12
BRANCH 11 29
ATOM     29  CB  LEU E   5      46.372  41.843  22.087  1.00 19.92 LIG 0.04  C 
BRANCH 29 30
ATOM     30  CG  LEU E   5      45.774  43.065  22.840  1.00 17.19 LIG-0.02  C 
ATOM     31  CD1 LEU E   5      46.895  43.926  23.360  1.00 19.71 LIG 0.01  C 
ATOM     32  CD2 LEU E   5      44.847  43.834  21.934  1.00 21.46 LIG 0.01  C 
ENDBRANCH 29 30
ENDBRANCH 11 29
ENDBRANCH 8 11
ENDBRANCH 6 7
BRANCH 6 33
ATOM     33  CB  LEU E   4      45.441  44.248  18.045  1.00 18.44 LIG 0.04  C 
BRANCH 33 34
ATOM     34  CG  LEU E   4      46.310  45.284  17.295  1.00 22.78 LIG-0.02  C 
ATOM     35  CD2 LEU E   4      45.600  46.636  17.086  1.00 23.44 LIG 0.01  C 
ATOM     36  CD1 LEU E   4      46.686  44.641  15.959  1.00 27.53 LIG 0.01  C 
ENDBRANCH 33 34
ENDBRANCH 6 33
ENDBRANCH 4 6
ENDBRANCH 1 2
BRANCH 1 37
ATOM     37  CB  LEU E   3      43.156  39.637  15.907  1.00 29.41 LIG 0.04  C 
BRANCH 37 38
ATOM     38  CG  LEU E   3      42.155  40.247  16.916  1.00 30.90 LIG-0.02  C 
ATOM     39  CD1 LEU E   3      41.081  41.087  16.190  1.00 35.09 LIG 0.01  C 
ATOM     40  CD2 LEU E   3      41.501  39.144  17.729  1.00 39.15 LIG 0.01  C 
ENDBRANCH 37 38
ENDBRANCH 1 37
BRANCH 1 41
ATOM     41  N   LEU E   3      44.733  39.960  14.000  1.00 22.92 LIG-0.35  N 
ATOM     42 H    LEU E   3      45.245  39.289  14.162  1.00 22.92 LIG 0.16  HD
ATOM     43  C   ARG E   2      44.467  40.449  12.794  1.00 28.87 LIG 0.24  C 
ATOM     44 O    ARG E   2      43.721  41.461  12.643  1.00 29.44 LIG-0.27  OA
BRANCH 43 45
ATOM     45  CA  ARG E   2      45.097  39.763  11.560  1.00 32.90 LIG 0.18  C 
BRANCH 45 46
ATOM     46  CB  ARG E   2      44.071  39.618  10.448  1.00 32.53 LIG 0.04  C 
BRANCH 46 47
ATOM     47  CG  ARG E   2      42.760  39.042  10.852  1.00 34.92 LIG 0.02  C 
BRANCH 47 48
ATOM     48  CD  ARG E   2      41.951  38.791   9.629  1.00 37.57 LIG 0.14  C 
BRANCH 48 49
ATOM     49  NE  ARG E   2      41.089  39.915   9.230  1.00 41.00 LIG-0.23  N 
ATOM     50 HE   ARG E   2      40.697  40.366   9.848  1.00 41.00 LIG 0.18  HD
ATOM     51  CZ  ARG E   2      40.878  40.274   7.956  1.00 43.22 LIG 0.67  C 
ATOM     52  NH2 ARG E   2      40.143  41.343   7.676  1.00 39.75 LIG-0.23  N 
ATOM     53  NH1 ARG E   2      41.406  39.563   6.944  1.00 41.20 LIG-0.23  N 
ATOM     54 2HH2 ARG E   2      40.010  41.571   6.858  1.00 39.75 LIG 0.17  HD
ATOM     55 1HH2 ARG E   2      39.800  41.808   8.313  1.00 39.75 LIG 0.17  HD
ATOM     56 1HH1 ARG E   2      41.885  38.869   7.110  1.00 41.20 LIG 0.17  HD
ATOM     57 2HH1 ARG E   2      41.264  39.804   6.131  1.00 41.20 LIG 0.17  HD
ENDBRANCH 48 49
ENDBRANCH 47 48
ENDBRANCH 46 47
ENDBRANCH 45 46
BRANCH 45 58
ATOM     58  N   ARG E   2      45.424  38.368  11.891  1.00 36.64 LIG-0.35  N 
ATOM     59 H    ARG E   2      44.729  37.868  11.976  1.00 36.64 LIG 0.16  HD
ATOM     60  C   ASN E   1      46.649  37.915  12.044  1.00 41.83 LIG 0.25  C 
ATOM     61 O    ASN E   1      47.633  38.648  11.867  1.00 38.61 LIG-0.27  OA
BRANCH 60 62
ATOM     62  CA  ASN E   1      46.778  36.381  12.357  1.00 50.15 LIG 0.28  C 
BRANCH 62 63
ATOM     63  CB  ASN E   1      45.930  35.888  13.577  1.00 58.25 LIG 0.14  C 
BRANCH 63 64
ATOM     64  CG  ASN E   1      44.381  36.060  13.391  1.00 70.07 LIG 0.22  C 
ATOM     65 OD1  ASN E   1      43.799  35.802  12.323  1.00 69.16 LIG-0.27  OA
ATOM     66  ND2 ASN E   1      43.717  36.505  14.461  1.00 65.88 LIG-0.37  N 
ATOM     67 22HD ASN E   1      44.142  36.676  15.189  1.00 65.88 LIG 0.16  HD
ATOM     68 21HD ASN E   1      42.866  36.619  14.422  1.00 65.88 LIG 0.16  HD
ENDBRANCH 63 64
ENDBRANCH 62 63
BRANCH 62 69
ATOM     69  N   ASN E   1      48.204  35.980  12.520  1.00 55.39 LIG-0.07  N 
ATOM     70 H1   ASN E   1      48.259  35.094  12.573  1.00 55.39 LIG 0.28  HD
ATOM     71 H2   ASN E   1      48.675  36.265  11.820  1.00 55.39 LIG 0.28  HD
ATOM     72 H3   ASN E   1      48.531  36.342  13.264  1.00 55.39 LIG 0.28  HD
ENDBRANCH 62 69
ENDBRANCH 60 62
ENDBRANCH 45 58
ENDBRANCH 43 45
ENDBRANCH 1 41
TORSDOF 28
ENDMDL
