MODEL 1
USER: ADFR SOLUTION from run 67
USER: SCORE 21.927486 LL:  -3.645 LR: -18.869 RR:   0.000 FEB: -12.306
USER: RMSD 7.157967
USER: SEED 66
USER: STATUS no improvement in best in 2 clusters for 5 generations
USER: GENES 24
USER: genes 0 Translation |==|  0.56098 0.56022 0.32493
USER: genes 1 Rotation |==|  0.66064 0.27445 0.85364 0.71969
USER: genes 2 Torsion [N]-C--CA-[N] |==|  0.07356
USER: genes 3 Torsion [C]-CA--CB-[CG] |==|  0.42624
USER: genes 4 Torsion [CA]-CB--CG-[CD] |==|  0.94923
USER: genes 5 Torsion [CB]-CG--CD-[NE] |==|  0.33505
USER: genes 6 Torsion [CG]-CD--NE-[HE] |==|  0.91385
USER: genes 7 Torsion [C]-CA--N-[C] |==|  0.18089
USER: genes 8 Torsion [N]-C--CA-[N] |==|  0.79155
USER: genes 9 Torsion [C]-CA--CB-[CG] |==|  0.41713
USER: genes 10 Torsion [CA]-CB--CG-[OD1] |==|  0.18159
USER: genes 11 Torsion [C]-CA--N-[H1] |==|  0.34971
USER: genes 12 Torsion [C]-N--CA-[CB] |==|  0.88889
USER: genes 13 Torsion [N]-CA--C-[N] |==|  0.89352
USER: genes 14 Torsion [C]-N--CA-[C] |==|  0.82208
USER: genes 15 Torsion [N]-CA--CB-[CG1] |==|  0.15604
USER: genes 16 Torsion [CA]-CB--CG1-[CD1] |==|  0.61835
USER: genes 17 Torsion [N]-CA--C-[N] |==|  0.38578
USER: genes 18 Torsion [C]-N--CA-[C] |==|  0.80357
USER: genes 19 Torsion [N]-CA--C-[O] |==|  0.14429
USER: genes 20 Torsion [N]-CA--CB-[CG] |==|  0.62237
USER: genes 21 Torsion [CA]-CB--CG-[CD1] |==|  0.45761
USER: genes 22 Torsion [N]-CA--CB-[CG] |==|  0.78580
USER: genes 23 Torsion [CA]-CB--CG-[CD1] |==|  0.51683
ROOT
ATOM      1  C   ARG B   2      58.288  88.106  25.946  1.00 25.54 LIG 0.24  C 
ATOM      2 O    ARG B   2      59.184  87.984  26.839  1.00 21.45 LIG-0.27  OA
ATOM      3  N   LEU B   3      57.476  87.110  25.628  1.00 32.00 LIG-0.35  N 
ATOM      4 H    LEU B   3      56.796  87.188  25.107  1.00 32.00 LIG 0.16  HD
ENDROOT
BRANCH 1 5
ATOM      5  CA  ARG B   2      58.103  89.395  25.157  1.00 29.44 LIG 0.18  C 
BRANCH 5 6
ATOM      6  CB  ARG B   2      58.451  90.624  26.055  1.00 37.02 LIG 0.04  C 
BRANCH 6 7
ATOM      7  CG  ARG B   2      58.921  91.847  25.268  1.00 39.92 LIG 0.02  C 
BRANCH 7 8
ATOM      8  CD  ARG B   2      59.365  91.441  23.858  1.00 40.77 LIG 0.14  C 
BRANCH 8 9
ATOM      9  NE  ARG B   2      58.506  92.196  22.933  1.00 48.07 LIG-0.23  N 
ATOM     10 HE   ARG B   2      57.712  92.369  23.216  1.00 48.07 LIG 0.18  HD
ATOM     11  CZ  ARG B   2      58.802  92.648  21.706  1.00 44.36 LIG 0.67  C 
ATOM     12  NH1 ARG B   2      57.843  93.339  21.063  1.00 36.12 LIG-0.23  N 
ATOM     13  NH2 ARG B   2      60.007  92.436  21.128  1.00 39.61 LIG-0.23  N 
ATOM     14 1HH1 ARG B   2      57.082  93.473  21.440  1.00 36.12 LIG 0.17  HD
ATOM     15 2HH1 ARG B   2      57.992  93.647  20.274  1.00 36.12 LIG 0.17  HD
ATOM     16 1HH2 ARG B   2      60.615  91.998  21.549  1.00 39.61 LIG 0.17  HD
ATOM     17 2HH2 ARG B   2      60.164  92.740  20.339  1.00 39.61 LIG 0.17  HD
ENDBRANCH 8 9
ENDBRANCH 7 8
ENDBRANCH 6 7
ENDBRANCH 5 6
BRANCH 5 18
ATOM     18  N   ARG B   2      56.722  89.519  24.657  1.00 32.37 LIG-0.35  N 
ATOM     19 H    ARG B   2      56.623  89.502  23.803  1.00 32.37 LIG 0.16  HD
ATOM     20  C   ASN B   1      55.756  89.646  25.546  1.00 31.22 LIG 0.25  C 
ATOM     21 O    ASN B   1      56.008  89.721  26.729  1.00 24.61 LIG-0.27  OA
BRANCH 20 22
ATOM     22  CA  ASN B   1      54.309  89.750  25.095  1.00 32.89 LIG 0.28  C 
BRANCH 22 23
ATOM     23  CB  ASN B   1      54.085  88.610  24.100  1.00 38.07 LIG 0.14  C 
BRANCH 23 24
ATOM     24  CG  ASN B   1      52.690  88.125  24.101  1.00 44.05 LIG 0.22  C 
ATOM     25  ND2 ASN B   1      52.508  86.906  24.537  1.00 47.62 LIG-0.37  N 
ATOM     26 21HD ASN B   1      51.715  86.576  24.574  1.00 47.62 LIG 0.16  HD
ATOM     27 22HD ASN B   1      53.182  86.433  24.786  1.00 47.62 LIG 0.16  HD
ATOM     28 OD1  ASN B   1      51.758  88.852  23.729  1.00 47.48 LIG-0.27  OA
ENDBRANCH 23 24
ENDBRANCH 22 23
BRANCH 22 29
ATOM     29  N   ASN B   1      53.862  91.044  24.502  1.00 44.58 LIG-0.07  N 
ATOM     30 H1   ASN B   1      53.498  90.896  23.704  1.00 44.58 LIG 0.28  HD
ATOM     31 H3   ASN B   1      54.561  91.587  24.413  1.00 44.58 LIG 0.28  HD
ATOM     32 H2   ASN B   1      53.259  91.423  25.037  1.00 44.58 LIG 0.28  HD
ENDBRANCH 22 29
ENDBRANCH 20 22
ENDBRANCH 5 18
ENDBRANCH 1 5
BRANCH 3 33
ATOM     33  CA  LEU B   3      57.686  85.770  26.154  1.00 27.74 LIG 0.18  C 
BRANCH 33 34
ATOM     34  C   LEU B   3      57.200  85.665  27.546  1.00 25.40 LIG 0.24  C 
ATOM     35 O    LEU B   3      56.640  84.651  27.942  1.00 26.81 LIG-0.27  OA
ATOM     36  N   ILE B   4      57.402  86.701  28.323  1.00 26.13 LIG-0.35  N 
ATOM     37 H    ILE B   4      57.868  87.391  28.108  1.00 26.13 LIG 0.16  HD
BRANCH 36 38
ATOM     38  CA  ILE B   4      56.846  86.738  29.596  1.00 24.17 LIG 0.18  C 
BRANCH 38 39
ATOM     39  CB  ILE B   4      57.473  87.951  30.316  1.00 29.09 LIG 0.01  C 
ATOM     40  CG2 ILE B   4      58.943  87.724  30.404  1.00 25.20 LIG 0.01  C 
BRANCH 39 41
ATOM     41  CG1 ILE B   4      57.272  89.256  29.557  1.00 28.67 LIG 0.00  C 
ATOM     42  CD1 ILE B   4      58.518  90.106  29.545  1.00 34.41 LIG 0.01  C 
ENDBRANCH 39 41
ENDBRANCH 38 39
BRANCH 38 43
ATOM     43  C   ILE B   4      55.314  86.754  29.559  1.00 29.58 LIG 0.24  C 
ATOM     44  N   LEU B   5      54.717  85.993  30.468  1.00 36.70 LIG-0.35  N 
ATOM     45 H    LEU B   5      55.132  85.438  30.975  1.00 36.70 LIG 0.16  HD
ATOM     46 O    ILE B   4      54.671  87.438  28.705  1.00 23.70 LIG-0.27  OA
BRANCH 44 47
ATOM     47  CA  LEU B   5      53.292  86.042  30.680  1.00 37.00 LIG 0.16  C 
BRANCH 47 48
ATOM     48  C   LEU B   5      52.875  87.366  31.352  1.00 42.59 LIG 0.22  C 
ATOM     49 O    LEU B   5      53.232  88.478  30.879  1.00 38.80 LIG-0.29  OA
ENDBRANCH 47 48
BRANCH 47 50
ATOM     50  CB  LEU B   5      52.908  84.866  31.568  1.00 50.59 LIG 0.04  C 
BRANCH 50 51
ATOM     51  CG  LEU B   5      51.668  84.101  31.146  1.00 50.85 LIG-0.02  C 
ATOM     52  CD1 LEU B   5      51.650  82.781  31.885  1.00 54.07 LIG 0.01  C 
ATOM     53  CD2 LEU B   5      50.465  84.962  31.515  1.00 54.33 LIG 0.01  C 
ENDBRANCH 50 51
ENDBRANCH 47 50
ENDBRANCH 44 47
ENDBRANCH 38 43
ENDBRANCH 36 38
ENDBRANCH 33 34
BRANCH 33 54
ATOM     54  CB  LEU B   3      59.170  85.488  26.149  1.00 34.11 LIG 0.04  C 
BRANCH 54 55
ATOM     55  CG  LEU B   3      59.566  85.172  24.747  1.00 35.49 LIG-0.02  C 
ATOM     56  CD1 LEU B   3      61.020  84.740  24.750  1.00 39.12 LIG 0.01  C 
ATOM     57  CD2 LEU B   3      58.664  84.017  24.391  1.00 34.32 LIG 0.01  C 
ENDBRANCH 54 55
ENDBRANCH 33 54
ENDBRANCH 3 33
TORSDOF 22
ENDMDL
MODEL 2
USER: ADFR SOLUTION from run 165
USER: SCORE 20.620804 LL:  -3.992 LR: -18.126 RR:   0.000 FEB: -11.563
USER: RMSD 10.258008
USER: SEED 164
USER: STATUS 1 or 2 clusters left
USER: GENES 24
USER: genes 0 Translation |==|  0.38355 0.50298 0.63410
USER: genes 1 Rotation |==|  0.08266 0.70041 0.32541 0.57197
USER: genes 2 Torsion [N]-C--CA-[N] |==|  0.07415
USER: genes 3 Torsion [C]-CA--CB-[CG] |==|  0.36124
USER: genes 4 Torsion [CA]-CB--CG-[CD] |==|  0.82160
USER: genes 5 Torsion [CB]-CG--CD-[NE] |==|  0.65594
USER: genes 6 Torsion [CG]-CD--NE-[HE] |==|  0.09374
USER: genes 7 Torsion [C]-CA--N-[C] |==|  0.17131
USER: genes 8 Torsion [N]-C--CA-[N] |==|  0.32959
USER: genes 9 Torsion [C]-CA--CB-[CG] |==|  0.53095
USER: genes 10 Torsion [CA]-CB--CG-[OD1] |==|  0.98549
USER: genes 11 Torsion [C]-CA--N-[H1] |==|  0.25560
USER: genes 12 Torsion [C]-N--CA-[CB] |==|  0.48039
USER: genes 13 Torsion [N]-CA--C-[N] |==|  0.43473
USER: genes 14 Torsion [C]-N--CA-[C] |==|  0.71111
USER: genes 15 Torsion [N]-CA--CB-[CG1] |==|  0.13429
USER: genes 16 Torsion [CA]-CB--CG1-[CD1] |==|  0.74335
USER: genes 17 Torsion [N]-CA--C-[N] |==|  0.78622
USER: genes 18 Torsion [C]-N--CA-[C] |==|  0.62697
USER: genes 19 Torsion [N]-CA--C-[O] |==|  0.98176
USER: genes 20 Torsion [N]-CA--CB-[CG] |==|  0.81413
USER: genes 21 Torsion [CA]-CB--CG-[CD1] |==|  0.25316
USER: genes 22 Torsion [N]-CA--CB-[CG] |==|  0.59126
USER: genes 23 Torsion [CA]-CB--CG-[CD1] |==|  0.72113
ROOT
ATOM      1  C   ARG B   2      54.562  87.033  32.671  1.00 25.54 LIG 0.24  C 
ATOM      2 O    ARG B   2      55.702  87.447  33.049  1.00 21.45 LIG-0.27  OA
ATOM      3  N   LEU B   3      54.363  86.537  31.459  1.00 32.00 LIG-0.35  N 
ATOM      4 H    LEU B   3      53.635  86.154  31.207  1.00 32.00 LIG 0.16  HD
ENDROOT
BRANCH 1 5
ATOM      5  CA  ARG B   2      53.336  87.106  33.570  1.00 29.44 LIG 0.18  C 
BRANCH 5 6
ATOM      6  CB  ARG B   2      53.757  86.917  35.061  1.00 37.02 LIG 0.04  C 
BRANCH 6 7
ATOM      7  CG  ARG B   2      53.198  87.986  35.999  1.00 39.92 LIG 0.02  C 
BRANCH 7 8
ATOM      8  CD  ARG B   2      53.767  89.365  35.641  1.00 40.77 LIG 0.14  C 
BRANCH 8 9
ATOM      9  NE  ARG B   2      54.395  89.872  36.871  1.00 48.07 LIG-0.23  N 
ATOM     10 HE   ARG B   2      54.757  89.280  37.379  1.00 48.07 LIG 0.18  HD
ATOM     11  CZ  ARG B   2      54.475  91.139  37.301  1.00 44.36 LIG 0.67  C 
ATOM     12  NH1 ARG B   2      55.128  91.351  38.458  1.00 36.12 LIG-0.23  N 
ATOM     13  NH2 ARG B   2      53.938  92.173  36.612  1.00 39.61 LIG-0.23  N 
ATOM     14 1HH1 ARG B   2      55.471  90.689  38.886  1.00 36.12 LIG 0.17  HD
ATOM     15 2HH1 ARG B   2      55.203  92.149  38.770  1.00 36.12 LIG 0.17  HD
ATOM     16 1HH2 ARG B   2      53.527  92.028  35.871  1.00 39.61 LIG 0.17  HD
ATOM     17 2HH2 ARG B   2      54.007  92.974  36.916  1.00 39.61 LIG 0.17  HD
ENDBRANCH 8 9
ENDBRANCH 7 8
ENDBRANCH 6 7
ENDBRANCH 5 6
BRANCH 5 18
ATOM     18  N   ARG B   2      52.342  86.082  33.200  1.00 32.37 LIG-0.35  N 
ATOM     19 H    ARG B   2      51.575  86.371  32.941  1.00 32.37 LIG 0.16  HD
ATOM     20  C   ASN B   1      52.701  84.816  33.293  1.00 31.22 LIG 0.25  C 
ATOM     21 O    ASN B   1      53.791  84.511  33.729  1.00 24.61 LIG-0.27  OA
BRANCH 20 22
ATOM     22  CA  ASN B   1      51.733  83.715  32.899  1.00 32.89 LIG 0.28  C 
BRANCH 22 23
ATOM     23  CB  ASN B   1      51.469  82.898  34.166  1.00 38.07 LIG 0.14  C 
BRANCH 23 24
ATOM     24  CG  ASN B   1      50.753  81.637  33.886  1.00 44.05 LIG 0.22  C 
ATOM     25  ND2 ASN B   1      50.565  80.847  34.910  1.00 47.62 LIG-0.37  N 
ATOM     26 21HD ASN B   1      50.141  80.106  34.809  1.00 47.62 LIG 0.16  HD
ATOM     27 22HD ASN B   1      50.866  81.067  35.685  1.00 47.62 LIG 0.16  HD
ATOM     28 OD1  ASN B   1      50.342  81.373  32.747  1.00 47.48 LIG-0.27  OA
ENDBRANCH 23 24
ENDBRANCH 22 23
BRANCH 22 29
ATOM     29  N   ASN B   1      52.132  82.812  31.780  1.00 44.58 LIG-0.07  N 
ATOM     30 H1   ASN B   1      52.552  82.099  32.108  1.00 44.58 LIG 0.28  HD
ATOM     31 H3   ASN B   1      52.676  83.248  31.227  1.00 44.58 LIG 0.28  HD
ATOM     32 H2   ASN B   1      51.406  82.549  31.337  1.00 44.58 LIG 0.28  HD
ENDBRANCH 22 29
ENDBRANCH 20 22
ENDBRANCH 5 18
ENDBRANCH 1 5
BRANCH 3 33
ATOM     33  CA  LEU B   3      55.397  86.607  30.438  1.00 27.74 LIG 0.18  C 
BRANCH 33 34
ATOM     34  C   LEU B   3      55.620  88.003  30.004  1.00 25.40 LIG 0.24  C 
ATOM     35 O    LEU B   3      54.748  88.851  30.140  1.00 26.81 LIG-0.27  OA
ATOM     36  N   ILE B   4      56.788  88.279  29.476  1.00 26.13 LIG-0.35  N 
ATOM     37 H    ILE B   4      57.452  87.734  29.446  1.00 26.13 LIG 0.16  HD
BRANCH 36 38
ATOM     38  CA  ILE B   4      57.021  89.526  28.911  1.00 24.17 LIG 0.18  C 
BRANCH 38 39
ATOM     39  CB  ILE B   4      58.347  90.040  29.508  1.00 29.09 LIG 0.01  C 
ATOM     40  CG2 ILE B   4      58.113  90.352  30.947  1.00 25.20 LIG 0.01  C 
BRANCH 39 41
ATOM     41  CG1 ILE B   4      59.459  89.002  29.456  1.00 28.67 LIG 0.00  C 
ATOM     42  CD1 ILE B   4      59.530  88.178  30.718  1.00 34.41 LIG 0.01  C 
ENDBRANCH 39 41
ENDBRANCH 38 39
BRANCH 38 43
ATOM     43  C   ILE B   4      56.998  89.482  27.379  1.00 29.58 LIG 0.24  C 
ATOM     44  N   LEU B   5      58.087  88.980  26.810  1.00 36.70 LIG-0.35  N 
ATOM     45 H    LEU B   5      58.809  88.793  27.238  1.00 36.70 LIG 0.16  HD
ATOM     46 O    ILE B   4      56.009  89.911  26.710  1.00 23.70 LIG-0.27  OA
BRANCH 44 47
ATOM     47  CA  LEU B   5      58.146  88.703  25.397  1.00 37.00 LIG 0.16  C 
BRANCH 47 48
ATOM     48  C   LEU B   5      58.764  87.317  25.128  1.00 42.59 LIG 0.22  C 
ATOM     49 O    LEU B   5      59.257  86.629  26.062  1.00 38.80 LIG-0.29  OA
ENDBRANCH 47 48
BRANCH 47 50
ATOM     50  CB  LEU B   5      58.992  89.785  24.740  1.00 50.59 LIG 0.04  C 
BRANCH 50 51
ATOM     51  CG  LEU B   5      58.400  91.182  24.754  1.00 50.85 LIG-0.02  C 
ATOM     52  CD1 LEU B   5      58.882  91.889  26.002  1.00 54.07 LIG 0.01  C 
ATOM     53  CD2 LEU B   5      58.886  91.886  23.492  1.00 54.33 LIG 0.01  C 
ENDBRANCH 50 51
ENDBRANCH 47 50
ENDBRANCH 44 47
ENDBRANCH 38 43
ENDBRANCH 36 38
ENDBRANCH 33 34
BRANCH 33 54
ATOM     54  CB  LEU B   3      54.934  85.809  29.242  1.00 34.11 LIG 0.04  C 
BRANCH 54 55
ATOM     55  CG  LEU B   3      56.139  85.207  28.605  1.00 35.49 LIG-0.02  C 
ATOM     56  CD1 LEU B   3      56.512  86.051  27.402  1.00 39.12 LIG 0.01  C 
ATOM     57  CD2 LEU B   3      57.185  85.318  29.685  1.00 34.32 LIG 0.01  C 
ENDBRANCH 54 55
ENDBRANCH 33 54
ENDBRANCH 3 33
TORSDOF 22
ENDMDL
MODEL 3
USER: ADFR SOLUTION from run 158
USER: SCORE 20.579961 LL:  -3.681 LR: -17.826 RR:   0.000 FEB: -11.263
USER: RMSD 6.385296
USER: SEED 157
USER: STATUS no improvement in best in 1 clusters for 5 generations
USER: GENES 24
USER: genes 0 Translation |==|  0.37147 0.45368 0.25489
USER: genes 1 Rotation |==|  0.70853 0.72194 0.65181 0.86635
USER: genes 2 Torsion [N]-C--CA-[N] |==|  0.35186
USER: genes 3 Torsion [C]-CA--CB-[CG] |==|  0.21933
USER: genes 4 Torsion [CA]-CB--CG-[CD] |==|  0.68578
USER: genes 5 Torsion [CB]-CG--CD-[NE] |==|  0.54106
USER: genes 6 Torsion [CG]-CD--NE-[HE] |==|  0.70639
USER: genes 7 Torsion [C]-CA--N-[C] |==|  0.73171
USER: genes 8 Torsion [N]-C--CA-[N] |==|  0.64834
USER: genes 9 Torsion [C]-CA--CB-[CG] |==|  0.23242
USER: genes 10 Torsion [CA]-CB--CG-[OD1] |==|  0.10178
USER: genes 11 Torsion [C]-CA--N-[H1] |==|  0.42658
USER: genes 12 Torsion [C]-N--CA-[CB] |==|  0.19250
USER: genes 13 Torsion [N]-CA--C-[N] |==|  0.85856
USER: genes 14 Torsion [C]-N--CA-[C] |==|  0.71147
USER: genes 15 Torsion [N]-CA--CB-[CG1] |==|  0.50261
USER: genes 16 Torsion [CA]-CB--CG1-[CD1] |==|  0.28258
USER: genes 17 Torsion [N]-CA--C-[N] |==|  0.34661
USER: genes 18 Torsion [C]-N--CA-[C] |==|  0.74940
USER: genes 19 Torsion [N]-CA--C-[O] |==|  0.98689
USER: genes 20 Torsion [N]-CA--CB-[CG] |==|  0.73270
USER: genes 21 Torsion [CA]-CB--CG-[CD1] |==|  0.50433
USER: genes 22 Torsion [N]-CA--CB-[CG] |==|  0.41935
USER: genes 23 Torsion [CA]-CB--CG-[CD1] |==|  0.30723
ROOT
ATOM      1  C   ARG B   2      54.308  86.108  24.423  1.00 25.54 LIG 0.24  C 
ATOM      2 O    ARG B   2      55.001  85.704  23.437  1.00 21.45 LIG-0.27  OA
ATOM      3  N   LEU B   3      54.790  86.128  25.656  1.00 32.00 LIG-0.35  N 
ATOM      4 H    LEU B   3      54.389  86.490  26.326  1.00 32.00 LIG 0.16  HD
ENDROOT
BRANCH 1 5
ATOM      5  CA  ARG B   2      52.866  86.569  24.263  1.00 29.44 LIG 0.18  C 
BRANCH 5 6
ATOM      6  CB  ARG B   2      51.962  85.361  23.861  1.00 37.02 LIG 0.04  C 
BRANCH 6 7
ATOM      7  CG  ARG B   2      51.588  84.457  25.035  1.00 39.92 LIG 0.02  C 
BRANCH 7 8
ATOM      8  CD  ARG B   2      52.237  83.076  24.880  1.00 40.77 LIG 0.14  C 
BRANCH 8 9
ATOM      9  NE  ARG B   2      51.543  82.196  25.831  1.00 48.07 LIG-0.23  N 
ATOM     10 HE   ARG B   2      51.984  81.986  26.539  1.00 48.07 LIG 0.18  HD
ATOM     11  CZ  ARG B   2      50.309  81.679  25.736  1.00 44.36 LIG 0.67  C 
ATOM     12  NH1 ARG B   2      49.888  80.913  26.759  1.00 36.12 LIG-0.23  N 
ATOM     13  NH2 ARG B   2      49.507  81.912  24.672  1.00 39.61 LIG-0.23  N 
ATOM     14 1HH1 ARG B   2      50.403  80.775  27.434  1.00 36.12 LIG 0.17  HD
ATOM     15 2HH1 ARG B   2      49.103  80.563  26.739  1.00 36.12 LIG 0.17  HD
ATOM     16 1HH2 ARG B   2      49.783  82.408  24.026  1.00 39.61 LIG 0.17  HD
ATOM     17 2HH2 ARG B   2      48.721  81.565  24.642  1.00 39.61 LIG 0.17  HD
ENDBRANCH 8 9
ENDBRANCH 7 8
ENDBRANCH 6 7
ENDBRANCH 5 6
BRANCH 5 18
ATOM     18  N   ARG B   2      52.757  87.631  23.246  1.00 32.37 LIG-0.35  N 
ATOM     19 H    ARG B   2      52.706  87.371  22.428  1.00 32.37 LIG 0.16  HD
ATOM     20  C   ASN B   1      52.744  88.882  23.664  1.00 31.22 LIG 0.25  C 
ATOM     21 O    ASN B   1      52.882  89.145  24.839  1.00 24.61 LIG-0.27  OA
BRANCH 20 22
ATOM     22  CA  ASN B   1      52.605  90.020  22.667  1.00 32.89 LIG 0.28  C 
BRANCH 22 23
ATOM     23  CB  ASN B   1      52.571  89.378  21.280  1.00 38.07 LIG 0.14  C 
BRANCH 23 24
ATOM     24  CG  ASN B   1      51.222  88.907  20.907  1.00 44.05 LIG 0.22  C 
ATOM     25  ND2 ASN B   1      51.171  87.783  20.242  1.00 47.62 LIG-0.37  N 
ATOM     26 21HD ASN B   1      50.411  87.454  20.012  1.00 47.62 LIG 0.16  HD
ATOM     27 22HD ASN B   1      51.897  87.373  20.034  1.00 47.62 LIG 0.16  HD
ATOM     28 OD1  ASN B   1      50.209  89.542  21.235  1.00 47.48 LIG-0.27  OA
ENDBRANCH 23 24
ENDBRANCH 22 23
BRANCH 22 29
ATOM     29  N   ASN B   1      53.632  91.102  22.708  1.00 44.58 LIG-0.07  N 
ATOM     30 H1   ASN B   1      53.698  91.479  21.904  1.00 44.58 LIG 0.28  HD
ATOM     31 H3   ASN B   1      54.419  90.756  22.938  1.00 44.58 LIG 0.28  HD
ATOM     32 H2   ASN B   1      53.392  91.717  23.305  1.00 44.58 LIG 0.28  HD
ENDBRANCH 22 29
ENDBRANCH 20 22
ENDBRANCH 5 18
ENDBRANCH 1 5
BRANCH 3 33
ATOM     33  CA  LEU B   3      56.072  85.519  25.974  1.00 27.74 LIG 0.18  C 
BRANCH 33 34
ATOM     34  C   LEU B   3      56.304  85.502  27.434  1.00 25.40 LIG 0.24  C 
ATOM     35 O    LEU B   3      56.632  84.471  28.006  1.00 26.81 LIG-0.27  OA
ATOM     36  N   ILE B   4      56.144  86.636  28.072  1.00 26.13 LIG-0.35  N 
ATOM     37 H    ILE B   4      56.003  87.394  27.693  1.00 26.13 LIG 0.16  HD
BRANCH 36 38
ATOM     38  CA  ILE B   4      56.199  86.670  29.459  1.00 24.17 LIG 0.18  C 
BRANCH 38 39
ATOM     39  CB  ILE B   4      57.168  87.810  29.835  1.00 29.09 LIG 0.01  C 
ATOM     40  CG2 ILE B   4      56.584  89.090  29.343  1.00 25.20 LIG 0.01  C 
BRANCH 39 41
ATOM     41  CG1 ILE B   4      57.350  87.957  31.339  1.00 28.67 LIG 0.00  C 
ATOM     42  CD1 ILE B   4      58.646  87.352  31.819  1.00 34.41 LIG 0.01  C 
ENDBRANCH 39 41
ENDBRANCH 38 39
BRANCH 38 43
ATOM     43  C   ILE B   4      54.808  86.795  30.091  1.00 29.58 LIG 0.24  C 
ATOM     44  N   LEU B   5      54.500  85.855  30.975  1.00 36.70 LIG-0.35  N 
ATOM     45 H    LEU B   5      54.978  85.155  31.117  1.00 36.70 LIG 0.16  HD
ATOM     46 O    ILE B   4      54.009  87.729  29.772  1.00 23.70 LIG-0.27  OA
BRANCH 44 47
ATOM     47  CA  LEU B   5      53.310  85.937  31.785  1.00 37.00 LIG 0.16  C 
BRANCH 47 48
ATOM     48  C   LEU B   5      53.591  86.672  33.111  1.00 42.59 LIG 0.22  C 
ATOM     49 O    LEU B   5      54.757  87.038  33.420  1.00 38.80 LIG-0.29  OA
ENDBRANCH 47 48
BRANCH 47 50
ATOM     50  CB  LEU B   5      52.835  84.518  32.069  1.00 50.59 LIG 0.04  C 
BRANCH 50 51
ATOM     51  CG  LEU B   5      51.752  83.991  31.146  1.00 50.85 LIG-0.02  C 
ATOM     52  CD1 LEU B   5      51.382  82.595  31.598  1.00 54.07 LIG 0.01  C 
ATOM     53  CD2 LEU B   5      50.569  84.944  31.256  1.00 54.33 LIG 0.01  C 
ENDBRANCH 50 51
ENDBRANCH 47 50
ENDBRANCH 44 47
ENDBRANCH 38 43
ENDBRANCH 36 38
ENDBRANCH 33 34
BRANCH 33 54
ATOM     54  CB  LEU B   3      57.160  86.347  25.332  1.00 34.11 LIG 0.04  C 
BRANCH 54 55
ATOM     55  CG  LEU B   3      58.386  86.210  26.168  1.00 35.49 LIG-0.02  C 
ATOM     56  CD1 LEU B   3      59.407  85.408  25.386  1.00 39.12 LIG 0.01  C 
ATOM     57  CD2 LEU B   3      58.842  87.638  26.339  1.00 34.32 LIG 0.01  C 
ENDBRANCH 54 55
ENDBRANCH 33 54
ENDBRANCH 3 33
TORSDOF 22
ENDMDL
MODEL 4
USER: ADFR SOLUTION from run 20
USER: SCORE 20.234795 LL:  -3.296 LR: -17.737 RR:   0.000 FEB: -11.174
USER: RMSD 4.703879
USER: SEED 19
USER: STATUS no improvement in best in 7 clusters for 5 generations
USER: GENES 24
USER: genes 0 Translation |==|  0.52923 0.49340 0.41858
USER: genes 1 Rotation |==|  0.52394 0.41666 0.35879 0.97174
USER: genes 2 Torsion [N]-C--CA-[N] |==|  0.00561
USER: genes 3 Torsion [C]-CA--CB-[CG] |==|  0.31664
USER: genes 4 Torsion [CA]-CB--CG-[CD] |==|  0.27503
USER: genes 5 Torsion [CB]-CG--CD-[NE] |==|  0.17265
USER: genes 6 Torsion [CG]-CD--NE-[HE] |==|  0.65772
USER: genes 7 Torsion [C]-CA--N-[C] |==|  0.71688
USER: genes 8 Torsion [N]-C--CA-[N] |==|  0.85124
USER: genes 9 Torsion [C]-CA--CB-[CG] |==|  0.33037
USER: genes 10 Torsion [CA]-CB--CG-[OD1] |==|  0.88978
USER: genes 11 Torsion [C]-CA--N-[H1] |==|  0.61191
USER: genes 12 Torsion [C]-N--CA-[CB] |==|  0.50000
USER: genes 13 Torsion [N]-CA--C-[N] |==|  0.39856
USER: genes 14 Torsion [C]-N--CA-[C] |==|  0.74820
USER: genes 15 Torsion [N]-CA--CB-[CG1] |==|  0.54622
USER: genes 16 Torsion [CA]-CB--CG1-[CD1] |==|  0.48379
USER: genes 17 Torsion [N]-CA--C-[N] |==|  0.36909
USER: genes 18 Torsion [C]-N--CA-[C] |==|  0.49864
USER: genes 19 Torsion [N]-CA--C-[O] |==|  0.76535
USER: genes 20 Torsion [N]-CA--CB-[CG] |==|  0.60539
USER: genes 21 Torsion [CA]-CB--CG-[CD1] |==|  0.30171
USER: genes 22 Torsion [N]-CA--CB-[CG] |==|  0.76830
USER: genes 23 Torsion [CA]-CB--CG-[CD1] |==|  0.93135
ROOT
ATOM      1  C   ARG B   2      57.621  86.853  27.983  1.00 25.54 LIG 0.24  C 
ATOM      2 O    ARG B   2      57.151  85.734  28.360  1.00 21.45 LIG-0.27  OA
ATOM      3  N   LEU B   3      57.700  87.890  28.803  1.00 32.00 LIG-0.35  N 
ATOM      4 H    LEU B   3      58.105  88.625  28.614  1.00 32.00 LIG 0.16  HD
ENDROOT
BRANCH 1 5
ATOM      5  CA  ARG B   2      58.095  87.092  26.556  1.00 29.44 LIG 0.18  C 
BRANCH 5 6
ATOM      6  CB  ARG B   2      59.212  86.066  26.187  1.00 37.02 LIG 0.04  C 
BRANCH 6 7
ATOM      7  CG  ARG B   2      58.804  85.081  25.092  1.00 39.92 LIG 0.02  C 
BRANCH 7 8
ATOM      8  CD  ARG B   2      59.356  85.529  23.733  1.00 40.77 LIG 0.14  C 
BRANCH 8 9
ATOM      9  NE  ARG B   2      60.821  85.512  23.870  1.00 48.07 LIG-0.23  N 
ATOM     10 HE   ARG B   2      61.222  86.254  23.702  1.00 48.07 LIG 0.18  HD
ATOM     11  CZ  ARG B   2      61.609  84.487  24.224  1.00 44.36 LIG 0.67  C 
ATOM     12  NH1 ARG B   2      62.931  84.732  24.301  1.00 36.12 LIG-0.23  N 
ATOM     13  NH2 ARG B   2      61.118  83.258  24.504  1.00 39.61 LIG-0.23  N 
ATOM     14 1HH1 ARG B   2      63.233  85.518  24.126  1.00 36.12 LIG 0.17  HD
ATOM     15 2HH1 ARG B   2      63.472  84.103  24.525  1.00 36.12 LIG 0.17  HD
ATOM     16 1HH2 ARG B   2      60.272  83.113  24.458  1.00 39.61 LIG 0.17  HD
ATOM     17 2HH2 ARG B   2      61.652  82.622  24.728  1.00 39.61 LIG 0.17  HD
ENDBRANCH 8 9
ENDBRANCH 7 8
ENDBRANCH 6 7
ENDBRANCH 5 6
BRANCH 5 18
ATOM     18  N   ARG B   2      58.607  88.465  26.389  1.00 32.37 LIG-0.35  N 
ATOM     19 H    ARG B   2      59.398  88.616  26.690  1.00 32.37 LIG 0.16  HD
ATOM     20  C   ASN B   1      57.821  89.346  25.799  1.00 31.22 LIG 0.25  C 
ATOM     21 O    ASN B   1      56.695  89.047  25.465  1.00 24.61 LIG-0.27  OA
BRANCH 20 22
ATOM     22  CA  ASN B   1      58.302  90.768  25.572  1.00 32.89 LIG 0.28  C 
BRANCH 22 23
ATOM     23  CB  ASN B   1      59.379  90.693  24.490  1.00 38.07 LIG 0.14  C 
BRANCH 23 24
ATOM     24  CG  ASN B   1      59.024  91.466  23.283  1.00 44.05 LIG 0.22  C 
ATOM     25  ND2 ASN B   1      60.005  92.109  22.705  1.00 47.62 LIG-0.37  N 
ATOM     26 21HD ASN B   1      59.859  92.564  21.991  1.00 47.62 LIG 0.16  HD
ATOM     27 22HD ASN B   1      60.796  92.077  23.040  1.00 47.62 LIG 0.16  HD
ATOM     28 OD1  ASN B   1      57.864  91.476  22.847  1.00 47.48 LIG-0.27  OA
ENDBRANCH 23 24
ENDBRANCH 22 23
BRANCH 22 29
ATOM     29  N   ASN B   1      58.813  91.521  26.755  1.00 44.58 LIG-0.07  N 
ATOM     30 H1   ASN B   1      58.529  92.364  26.717  1.00 44.58 LIG 0.28  HD
ATOM     31 H3   ASN B   1      59.703  91.509  26.753  1.00 44.58 LIG 0.28  HD
ATOM     32 H2   ASN B   1      58.513  91.141  27.502  1.00 44.58 LIG 0.28  HD
ENDBRANCH 22 29
ENDBRANCH 20 22
ENDBRANCH 5 18
ENDBRANCH 1 5
BRANCH 3 33
ATOM     33  CA  LEU B   3      57.089  87.856  30.122  1.00 27.74 LIG 0.18  C 
BRANCH 33 34
ATOM     34  C   LEU B   3      55.625  87.675  30.024  1.00 25.40 LIG 0.24  C 
ATOM     35 O    LEU B   3      54.986  88.197  29.119  1.00 26.81 LIG-0.27  OA
ATOM     36  N   ILE B   4      55.057  86.932  30.943  1.00 26.13 LIG-0.35  N 
ATOM     37 H    ILE B   4      55.482  86.480  31.538  1.00 26.13 LIG 0.16  HD
BRANCH 36 38
ATOM     38  CA  ILE B   4      53.673  86.836  31.005  1.00 24.17 LIG 0.18  C 
BRANCH 38 39
ATOM     39  CB  ILE B   4      53.350  85.385  31.420  1.00 29.09 LIG 0.01  C 
ATOM     40  CG2 ILE B   4      53.557  85.271  32.892  1.00 25.20 LIG 0.01  C 
BRANCH 39 41
ATOM     41  CG1 ILE B   4      51.902  85.001  31.147  1.00 28.67 LIG 0.00  C 
ATOM     42  CD1 ILE B   4      51.636  83.542  31.425  1.00 34.41 LIG 0.01  C 
ENDBRANCH 39 41
ENDBRANCH 38 39
BRANCH 38 43
ATOM     43  C   ILE B   4      53.058  87.900  31.920  1.00 29.58 LIG 0.24  C 
ATOM     44  N   LEU B   5      52.017  88.549  31.416  1.00 36.70 LIG-0.35  N 
ATOM     45 H    LEU B   5      51.757  88.478  30.599  1.00 36.70 LIG 0.16  HD
ATOM     46 O    ILE B   4      53.529  88.147  33.073  1.00 23.70 LIG-0.27  OA
BRANCH 44 47
ATOM     47  CA  LEU B   5      51.220  89.445  32.216  1.00 37.00 LIG 0.16  C 
BRANCH 47 48
ATOM     48  C   LEU B   5      50.085  90.074  31.384  1.00 42.59 LIG 0.22  C 
ATOM     49 O    LEU B   5      50.282  91.101  30.681  1.00 38.80 LIG-0.29  OA
ENDBRANCH 47 48
BRANCH 47 50
ATOM     50  CB  LEU B   5      52.136  90.537  32.754  1.00 50.59 LIG 0.04  C 
BRANCH 50 51
ATOM     51  CG  LEU B   5      51.852  90.993  34.173  1.00 50.85 LIG-0.02  C 
ATOM     52  CD1 LEU B   5      52.962  90.485  35.066  1.00 54.07 LIG 0.01  C 
ATOM     53  CD2 LEU B   5      51.807  92.517  34.151  1.00 54.33 LIG 0.01  C 
ENDBRANCH 50 51
ENDBRANCH 47 50
ENDBRANCH 44 47
ENDBRANCH 38 43
ENDBRANCH 36 38
ENDBRANCH 33 34
BRANCH 33 54
ATOM     54  CB  LEU B   3      57.357  89.179  30.801  1.00 34.11 LIG 0.04  C 
BRANCH 54 55
ATOM     55  CG  LEU B   3      58.714  89.107  31.413  1.00 35.49 LIG-0.02  C 
ATOM     56  CD1 LEU B   3      59.042  87.650  31.672  1.00 39.12 LIG 0.01  C 
ATOM     57  CD2 LEU B   3      59.603  89.675  30.335  1.00 34.32 LIG 0.01  C 
ENDBRANCH 54 55
ENDBRANCH 33 54
ENDBRANCH 3 33
TORSDOF 22
ENDMDL
MODEL 5
USER: ADFR SOLUTION from run 67
USER: SCORE 20.063018 LL:  -3.666 LR: -17.707 RR:   0.000 FEB: -11.145
USER: RMSD 6.034142
USER: SEED 66
USER: STATUS no improvement in best in 2 clusters for 5 generations
USER: GENES 24
USER: genes 0 Translation |==|  0.56692 0.56677 0.33811
USER: genes 1 Rotation |==|  0.66320 0.23888 0.83189 0.71220
USER: genes 2 Torsion [N]-C--CA-[N] |==|  0.82803
USER: genes 3 Torsion [C]-CA--CB-[CG] |==|  0.02402
USER: genes 4 Torsion [CA]-CB--CG-[CD] |==|  0.67920
USER: genes 5 Torsion [CB]-CG--CD-[NE] |==|  0.01781
USER: genes 6 Torsion [CG]-CD--NE-[HE] |==|  0.22158
USER: genes 7 Torsion [C]-CA--N-[C] |==|  0.56809
USER: genes 8 Torsion [N]-C--CA-[N] |==|  0.56502
USER: genes 9 Torsion [C]-CA--CB-[CG] |==|  0.62213
USER: genes 10 Torsion [CA]-CB--CG-[OD1] |==|  0.88086
USER: genes 11 Torsion [C]-CA--N-[H1] |==|  0.59407
USER: genes 12 Torsion [C]-N--CA-[CB] |==|  0.88253
USER: genes 13 Torsion [N]-CA--C-[N] |==|  0.90798
USER: genes 14 Torsion [C]-N--CA-[C] |==|  0.81653
USER: genes 15 Torsion [N]-CA--CB-[CG1] |==|  0.19935
USER: genes 16 Torsion [CA]-CB--CG1-[CD1] |==|  0.60826
USER: genes 17 Torsion [N]-CA--C-[N] |==|  0.43085
USER: genes 18 Torsion [C]-N--CA-[C] |==|  0.78978
USER: genes 19 Torsion [N]-CA--C-[O] |==|  0.12798
USER: genes 20 Torsion [N]-CA--CB-[CG] |==|  0.64044
USER: genes 21 Torsion [CA]-CB--CG-[CD1] |==|  0.44805
USER: genes 22 Torsion [N]-CA--CB-[CG] |==|  0.75998
USER: genes 23 Torsion [CA]-CB--CG-[CD1] |==|  0.49289
ROOT
ATOM      1  C   ARG B   2      58.412  88.229  26.233  1.00 25.54 LIG 0.24  C 
ATOM      2 O    ARG B   2      59.259  87.917  27.128  1.00 21.45 LIG-0.27  OA
ATOM      3  N   LEU B   3      57.563  87.344  25.735  1.00 32.00 LIG-0.35  N 
ATOM      4 H    LEU B   3      56.912  87.542  25.208  1.00 32.00 LIG 0.16  HD
ENDROOT
BRANCH 1 5
ATOM      5  CA  ARG B   2      58.335  89.632  25.646  1.00 29.44 LIG 0.18  C 
BRANCH 5 6
ATOM      6  CB  ARG B   2      56.910  90.227  25.875  1.00 37.02 LIG 0.04  C 
BRANCH 6 7
ATOM      7  CG  ARG B   2      56.028  89.377  26.790  1.00 39.92 LIG 0.02  C 
BRANCH 7 8
ATOM      8  CD  ARG B   2      54.820  88.832  26.018  1.00 40.77 LIG 0.14  C 
BRANCH 8 9
ATOM      9  NE  ARG B   2      55.038  89.209  24.613  1.00 48.07 LIG-0.23  N 
ATOM     10 HE   ARG B   2      55.583  88.711  24.171  1.00 48.07 LIG 0.18  HD
ATOM     11  CZ  ARG B   2      54.496  90.229  23.934  1.00 44.36 LIG 0.67  C 
ATOM     12  NH1 ARG B   2      54.839  90.351  22.638  1.00 36.12 LIG-0.23  N 
ATOM     13  NH2 ARG B   2      53.633  91.102  24.505  1.00 39.61 LIG-0.23  N 
ATOM     14 1HH1 ARG B   2      55.384  89.789  22.283  1.00 36.12 LIG 0.17  HD
ATOM     15 2HH1 ARG B   2      54.514  90.991  22.166  1.00 36.12 LIG 0.17  HD
ATOM     16 1HH2 ARG B   2      53.415  91.013  25.331  1.00 39.61 LIG 0.17  HD
ATOM     17 2HH2 ARG B   2      53.304  91.747  24.040  1.00 39.61 LIG 0.17  HD
ENDBRANCH 8 9
ENDBRANCH 7 8
ENDBRANCH 6 7
ENDBRANCH 5 6
BRANCH 5 18
ATOM     18  N   ARG B   2      58.645  89.623  24.205  1.00 32.37 LIG-0.35  N 
ATOM     19 H    ARG B   2      58.510  88.882  23.791  1.00 32.37 LIG 0.16  HD
ATOM     20  C   ASN B   1      59.099  90.739  23.668  1.00 31.22 LIG 0.25  C 
ATOM     21 O    ASN B   1      59.311  91.716  24.353  1.00 24.61 LIG-0.27  OA
BRANCH 20 22
ATOM     22  CA  ASN B   1      59.409  90.802  22.182  1.00 32.89 LIG 0.28  C 
BRANCH 22 23
ATOM     23  CB  ASN B   1      59.896  89.408  21.783  1.00 38.07 LIG 0.14  C 
BRANCH 23 24
ATOM     24  CG  ASN B   1      61.084  89.454  20.907  1.00 44.05 LIG 0.22  C 
ATOM     25  ND2 ASN B   1      62.019  88.577  21.165  1.00 47.62 LIG-0.37  N 
ATOM     26 21HD ASN B   1      62.727  88.548  20.678  1.00 47.62 LIG 0.16  HD
ATOM     27 22HD ASN B   1      61.927  88.030  21.822  1.00 47.62 LIG 0.16  HD
ATOM     28 OD1  ASN B   1      61.162  90.266  19.975  1.00 47.48 LIG-0.27  OA
ENDBRANCH 23 24
ENDBRANCH 22 23
BRANCH 22 29
ATOM     29  N   ASN B   1      60.382  91.836  21.724  1.00 44.58 LIG-0.07  N 
ATOM     30 H1   ASN B   1      60.149  92.127  20.915  1.00 44.58 LIG 0.28  HD
ATOM     31 H3   ASN B   1      61.198  91.482  21.688  1.00 44.58 LIG 0.28  HD
ATOM     32 H2   ASN B   1      60.380  92.519  22.295  1.00 44.58 LIG 0.28  HD
ENDBRANCH 22 29
ENDBRANCH 20 22
ENDBRANCH 5 18
ENDBRANCH 1 5
BRANCH 3 33
ATOM     33  CA  LEU B   3      57.675  85.929  26.055  1.00 27.74 LIG 0.18  C 
BRANCH 33 34
ATOM     34  C   LEU B   3      57.171  85.652  27.417  1.00 25.40 LIG 0.24  C 
ATOM     35 O    LEU B   3      56.622  84.591  27.681  1.00 26.81 LIG-0.27  OA
ATOM     36  N   ILE B   4      57.346  86.591  28.315  1.00 26.13 LIG-0.35  N 
ATOM     37 H    ILE B   4      57.804  87.308  28.190  1.00 26.13 LIG 0.16  HD
BRANCH 36 38
ATOM     38  CA  ILE B   4      56.773  86.468  29.574  1.00 24.17 LIG 0.18  C 
BRANCH 38 39
ATOM     39  CB  ILE B   4      57.408  87.564  30.457  1.00 29.09 LIG 0.01  C 
ATOM     40  CG2 ILE B   4      58.881  87.539  30.230  1.00 25.20 LIG 0.01  C 
BRANCH 39 41
ATOM     41  CG1 ILE B   4      56.929  88.963  30.097  1.00 28.67 LIG 0.00  C 
ATOM     42  CD1 ILE B   4      58.038  89.983  30.170  1.00 34.41 LIG 0.01  C 
ENDBRANCH 39 41
ENDBRANCH 38 39
BRANCH 38 43
ATOM     43  C   ILE B   4      55.242  86.516  29.521  1.00 29.58 LIG 0.24  C 
ATOM     44  N   LEU B   5      54.620  85.914  30.527  1.00 36.70 LIG-0.35  N 
ATOM     45 H    LEU B   5      55.018  85.430  31.115  1.00 36.70 LIG 0.16  HD
ATOM     46 O    ILE B   4      54.622  87.081  28.569  1.00 23.70 LIG-0.27  OA
BRANCH 44 47
ATOM     47  CA  LEU B   5      53.196  86.029  30.716  1.00 37.00 LIG 0.16  C 
BRANCH 47 48
ATOM     48  C   LEU B   5      52.822  87.408  31.296  1.00 42.59 LIG 0.22  C 
ATOM     49 O    LEU B   5      53.313  88.469  30.826  1.00 38.80 LIG-0.29  OA
ENDBRANCH 47 48
BRANCH 47 50
ATOM     50  CB  LEU B   5      52.757  84.927  31.671  1.00 50.59 LIG 0.04  C 
BRANCH 50 51
ATOM     51  CG  LEU B   5      51.586  84.082  31.207  1.00 50.85 LIG-0.02  C 
ATOM     52  CD1 LEU B   5      51.582  82.797  32.006  1.00 54.07 LIG 0.01  C 
ATOM     53  CD2 LEU B   5      50.322  84.897  31.456  1.00 54.33 LIG 0.01  C 
ENDBRANCH 50 51
ENDBRANCH 47 50
ENDBRANCH 44 47
ENDBRANCH 38 43
ENDBRANCH 36 38
ENDBRANCH 33 34
BRANCH 33 54
ATOM     54  CB  LEU B   3      59.135  85.548  26.005  1.00 34.11 LIG 0.04  C 
BRANCH 54 55
ATOM     55  CG  LEU B   3      59.464  85.196  24.594  1.00 35.49 LIG-0.02  C 
ATOM     56  CD1 LEU B   3      60.943  84.873  24.516  1.00 39.12 LIG 0.01  C 
ATOM     57  CD2 LEU B   3      58.630  83.963  24.349  1.00 34.32 LIG 0.01  C 
ENDBRANCH 54 55
ENDBRANCH 33 54
ENDBRANCH 3 33
TORSDOF 22
ENDMDL
MODEL 6
USER: ADFR SOLUTION from run 129
USER: SCORE 19.352602 LL:  -3.659 LR: -17.692 RR:   0.000 FEB: -11.129
USER: RMSD 4.048724
USER: SEED 128
USER: STATUS no improvement in best in 12 clusters for 5 generations
USER: GENES 24
USER: genes 0 Translation |==|  0.40189 0.48254 0.38148
USER: genes 1 Rotation |==|  0.50196 0.60366 0.50728 0.98908
USER: genes 2 Torsion [N]-C--CA-[N] |==|  0.21090
USER: genes 3 Torsion [C]-CA--CB-[CG] |==|  0.31147
USER: genes 4 Torsion [CA]-CB--CG-[CD] |==|  0.49294
USER: genes 5 Torsion [CB]-CG--CD-[NE] |==|  0.31752
USER: genes 6 Torsion [CG]-CD--NE-[HE] |==|  0.82905
USER: genes 7 Torsion [C]-CA--N-[C] |==|  0.77778
USER: genes 8 Torsion [N]-C--CA-[N] |==|  0.30639
USER: genes 9 Torsion [C]-CA--CB-[CG] |==|  0.19784
USER: genes 10 Torsion [CA]-CB--CG-[OD1] |==|  0.09494
USER: genes 11 Torsion [C]-CA--N-[H1] |==|  0.83159
USER: genes 12 Torsion [C]-N--CA-[CB] |==|  0.40042
USER: genes 13 Torsion [N]-CA--C-[N] |==|  0.32165
USER: genes 14 Torsion [C]-N--CA-[C] |==|  0.77739
USER: genes 15 Torsion [N]-CA--CB-[CG1] |==|  0.70470
USER: genes 16 Torsion [CA]-CB--CG1-[CD1] |==|  0.54255
USER: genes 17 Torsion [N]-CA--C-[N] |==|  0.44622
USER: genes 18 Torsion [C]-N--CA-[C] |==|  0.16693
USER: genes 19 Torsion [N]-CA--C-[O] |==|  0.43938
USER: genes 20 Torsion [N]-CA--CB-[CG] |==|  0.50741
USER: genes 21 Torsion [CA]-CB--CG-[CD1] |==|  0.17620
USER: genes 22 Torsion [N]-CA--CB-[CG] |==|  0.54183
USER: genes 23 Torsion [CA]-CB--CG-[CD1] |==|  0.12996
ROOT
ATOM      1  C   ARG B   2      54.947  86.650  27.176  1.00 25.54 LIG 0.24  C 
ATOM      2 O    ARG B   2      55.507  85.551  27.484  1.00 21.45 LIG-0.27  OA
ATOM      3  N   LEU B   3      54.974  87.699  27.983  1.00 32.00 LIG-0.35  N 
ATOM      4 H    LEU B   3      54.698  88.484  27.765  1.00 32.00 LIG 0.16  HD
ENDROOT
BRANCH 1 5
ATOM      5  CA  ARG B   2      54.178  86.829  25.874  1.00 29.44 LIG 0.18  C 
BRANCH 5 6
ATOM      6  CB  ARG B   2      53.852  85.435  25.252  1.00 37.02 LIG 0.04  C 
BRANCH 6 7
ATOM      7  CG  ARG B   2      52.362  85.092  25.260  1.00 39.92 LIG 0.02  C 
BRANCH 7 8
ATOM      8  CD  ARG B   2      52.118  83.740  24.577  1.00 40.77 LIG 0.14  C 
BRANCH 8 9
ATOM      9  NE  ARG B   2      51.627  82.841  25.632  1.00 48.07 LIG-0.23  N 
ATOM     10 HE   ARG B   2      52.166  82.699  26.287  1.00 48.07 LIG 0.18  HD
ATOM     11  CZ  ARG B   2      50.444  82.214  25.703  1.00 44.36 LIG 0.67  C 
ATOM     12  NH1 ARG B   2      50.220  81.456  26.793  1.00 36.12 LIG-0.23  N 
ATOM     13  NH2 ARG B   2      49.502  82.333  24.739  1.00 39.61 LIG-0.23  N 
ATOM     14 1HH1 ARG B   2      50.822  81.391  27.403  1.00 36.12 LIG 0.17  HD
ATOM     15 2HH1 ARG B   2      49.474  81.037  26.878  1.00 36.12 LIG 0.17  HD
ATOM     16 1HH2 ARG B   2      49.652  82.824  24.050  1.00 39.61 LIG 0.17  HD
ATOM     17 2HH2 ARG B   2      48.753  81.916  24.815  1.00 39.61 LIG 0.17  HD
ENDBRANCH 8 9
ENDBRANCH 7 8
ENDBRANCH 6 7
ENDBRANCH 5 6
BRANCH 5 18
ATOM     18  N   ARG B   2      54.947  87.637  24.910  1.00 32.37 LIG-0.35  N 
ATOM     19 H    ARG B   2      55.364  87.202  24.297  1.00 32.37 LIG 0.16  HD
ATOM     20  C   ASN B   1      54.936  88.947  25.059  1.00 31.22 LIG 0.25  C 
ATOM     21 O    ASN B   1      54.363  89.460  25.996  1.00 24.61 LIG-0.27  OA
BRANCH 20 22
ATOM     22  CA  ASN B   1      55.685  89.835  24.081  1.00 32.89 LIG 0.28  C 
BRANCH 22 23
ATOM     23  CB  ASN B   1      56.615  90.712  24.920  1.00 38.07 LIG 0.14  C 
BRANCH 23 24
ATOM     24  CG  ASN B   1      57.741  89.951  25.498  1.00 44.05 LIG 0.22  C 
ATOM     25  ND2 ASN B   1      58.133  90.323  26.688  1.00 47.62 LIG-0.37  N 
ATOM     26 21HD ASN B   1      58.775  89.906  27.079  1.00 47.62 LIG 0.16  HD
ATOM     27 22HD ASN B   1      57.750  90.986  27.080  1.00 47.62 LIG 0.16  HD
ATOM     28 OD1  ASN B   1      58.256  89.005  24.885  1.00 47.48 LIG-0.27  OA
ENDBRANCH 23 24
ENDBRANCH 22 23
BRANCH 22 29
ATOM     29  N   ASN B   1      54.874  90.683  23.158  1.00 44.58 LIG-0.07  N 
ATOM     30 H1   ASN B   1      54.364  90.162  22.647  1.00 44.58 LIG 0.28  HD
ATOM     31 H3   ASN B   1      55.417  91.163  22.642  1.00 44.58 LIG 0.28  HD
ATOM     32 H2   ASN B   1      54.357  91.229  23.634  1.00 44.58 LIG 0.28  HD
ENDBRANCH 22 29
ENDBRANCH 20 22
ENDBRANCH 5 18
ENDBRANCH 1 5
BRANCH 3 33
ATOM     33  CA  LEU B   3      55.489  87.593  29.340  1.00 27.74 LIG 0.18  C 
BRANCH 33 34
ATOM     34  C   LEU B   3      54.391  87.408  30.312  1.00 25.40 LIG 0.24  C 
ATOM     35 O    LEU B   3      53.548  88.279  30.482  1.00 26.81 LIG-0.27  OA
ATOM     36  N   ILE B   4      54.368  86.274  30.969  1.00 26.13 LIG-0.35  N 
ATOM     37 H    ILE B   4      54.887  85.607  30.813  1.00 26.13 LIG 0.16  HD
BRANCH 36 38
ATOM     38  CA  ILE B   4      53.458  86.084  32.002  1.00 24.17 LIG 0.18  C 
BRANCH 38 39
ATOM     39  CB  ILE B   4      53.221  84.563  32.108  1.00 29.09 LIG 0.01  C 
ATOM     40  CG2 ILE B   4      53.247  84.194  33.552  1.00 25.20 LIG 0.01  C 
BRANCH 39 41
ATOM     41  CG1 ILE B   4      51.862  84.139  31.568  1.00 28.67 LIG 0.00  C 
ATOM     42  CD1 ILE B   4      51.486  82.744  32.002  1.00 34.41 LIG 0.01  C 
ENDBRANCH 39 41
ENDBRANCH 38 39
BRANCH 38 43
ATOM     43  C   ILE B   4      53.920  86.739  33.308  1.00 29.58 LIG 0.24  C 
ATOM     44  N   LEU B   5      52.964  86.953  34.204  1.00 36.70 LIG-0.35  N 
ATOM     45 H    LEU B   5      52.126  86.848  34.046  1.00 36.70 LIG 0.16  HD
ATOM     46 O    ILE B   4      55.131  87.064  33.504  1.00 23.70 LIG-0.27  OA
BRANCH 44 47
ATOM     47  CA  LEU B   5      53.265  87.390  35.545  1.00 37.00 LIG 0.16  C 
BRANCH 47 48
ATOM     48  C   LEU B   5      54.001  88.745  35.536  1.00 42.59 LIG 0.22  C 
ATOM     49 O    LEU B   5      54.001  89.494  36.548  1.00 38.80 LIG-0.29  OA
ENDBRANCH 47 48
BRANCH 47 50
ATOM     50  CB  LEU B   5      54.138  86.329  36.200  1.00 50.59 LIG 0.04  C 
BRANCH 50 51
ATOM     51  CG  LEU B   5      54.508  86.585  37.649  1.00 50.85 LIG-0.02  C 
ATOM     52  CD1 LEU B   5      53.237  86.583  38.471  1.00 54.07 LIG 0.01  C 
ATOM     53  CD2 LEU B   5      55.448  85.464  38.076  1.00 54.33 LIG 0.01  C 
ENDBRANCH 50 51
ENDBRANCH 47 50
ENDBRANCH 44 47
ENDBRANCH 38 43
ENDBRANCH 36 38
ENDBRANCH 33 34
BRANCH 33 54
ATOM     54  CB  LEU B   3      56.204  88.881  29.674  1.00 34.11 LIG 0.04  C 
BRANCH 54 55
ATOM     55  CG  LEU B   3      57.032  88.637  30.890  1.00 35.49 LIG-0.02  C 
ATOM     56  CD1 LEU B   3      57.786  87.336  30.698  1.00 39.12 LIG 0.01  C 
ATOM     57  CD2 LEU B   3      57.978  89.811  30.897  1.00 34.32 LIG 0.01  C 
ENDBRANCH 54 55
ENDBRANCH 33 54
ENDBRANCH 3 33
TORSDOF 22
ENDMDL
MODEL 7
USER: ADFR SOLUTION from run 192
USER: SCORE 20.908184 LL:  -4.011 LR: -17.640 RR:   0.000 FEB: -11.077
USER: RMSD 10.571735
USER: SEED 191
USER: STATUS no improvement in best in 5 clusters for 5 generations
USER: GENES 24
USER: genes 0 Translation |==|  0.35932 0.54234 0.68286
USER: genes 1 Rotation |==|  0.89989 0.22974 0.62362 0.54200
USER: genes 2 Torsion [N]-C--CA-[N] |==|  0.88333
USER: genes 3 Torsion [C]-CA--CB-[CG] |==|  0.41285
USER: genes 4 Torsion [CA]-CB--CG-[CD] |==|  0.08171
USER: genes 5 Torsion [CB]-CG--CD-[NE] |==|  0.67208
USER: genes 6 Torsion [CG]-CD--NE-[HE] |==|  0.95898
USER: genes 7 Torsion [C]-CA--N-[C] |==|  0.77256
USER: genes 8 Torsion [N]-C--CA-[N] |==|  0.53931
USER: genes 9 Torsion [C]-CA--CB-[CG] |==|  0.78047
USER: genes 10 Torsion [CA]-CB--CG-[OD1] |==|  0.19132
USER: genes 11 Torsion [C]-CA--N-[H1] |==|  0.72956
USER: genes 12 Torsion [C]-N--CA-[CB] |==|  0.53612
USER: genes 13 Torsion [N]-CA--C-[N] |==|  0.30688
USER: genes 14 Torsion [C]-N--CA-[C] |==|  0.82854
USER: genes 15 Torsion [N]-CA--CB-[CG1] |==|  0.82992
USER: genes 16 Torsion [CA]-CB--CG1-[CD1] |==|  0.55319
USER: genes 17 Torsion [N]-CA--C-[N] |==|  0.37640
USER: genes 18 Torsion [C]-N--CA-[C] |==|  0.15307
USER: genes 19 Torsion [N]-CA--C-[O] |==|  0.41721
USER: genes 20 Torsion [N]-CA--CB-[CG] |==|  0.65603
USER: genes 21 Torsion [CA]-CB--CG-[CD1] |==|  0.77786
USER: genes 22 Torsion [N]-CA--CB-[CG] |==|  0.77794
USER: genes 23 Torsion [CA]-CB--CG-[CD1] |==|  0.96499
ROOT
ATOM      1  C   ARG B   2      54.053  87.771  33.731  1.00 25.54 LIG 0.24  C 
ATOM      2 O    ARG B   2      55.317  87.720  33.610  1.00 21.45 LIG-0.27  OA
ATOM      3  N   LEU B   3      53.241  87.269  32.814  1.00 32.00 LIG-0.35  N 
ATOM      4 H    LEU B   3      52.390  87.193  32.911  1.00 32.00 LIG 0.16  HD
ENDROOT
BRANCH 1 5
ATOM      5  CA  ARG B   2      53.381  88.440  34.922  1.00 29.44 LIG 0.18  C 
BRANCH 5 6
ATOM      6  CB  ARG B   2      52.897  87.358  35.938  1.00 37.02 LIG 0.04  C 
BRANCH 6 7
ATOM      7  CG  ARG B   2      52.922  87.826  37.393  1.00 39.92 LIG 0.02  C 
BRANCH 7 8
ATOM      8  CD  ARG B   2      52.701  89.342  37.474  1.00 40.77 LIG 0.14  C 
BRANCH 8 9
ATOM      9  NE  ARG B   2      53.923  89.894  38.078  1.00 48.07 LIG-0.23  N 
ATOM     10 HE   ARG B   2      54.444  89.325  38.458  1.00 48.07 LIG 0.18  HD
ATOM     11  CZ  ARG B   2      54.328  91.171  38.112  1.00 44.36 LIG 0.67  C 
ATOM     12  NH1 ARG B   2      55.507  91.422  38.710  1.00 36.12 LIG-0.23  N 
ATOM     13  NH2 ARG B   2      53.602  92.176  37.568  1.00 39.61 LIG-0.23  N 
ATOM     14 1HH1 ARG B   2      55.964  90.777  39.049  1.00 36.12 LIG 0.17  HD
ATOM     15 2HH1 ARG B   2      55.804  92.227  38.754  1.00 36.12 LIG 0.17  HD
ATOM     16 1HH2 ARG B   2      52.853  92.005  37.183  1.00 39.61 LIG 0.17  HD
ATOM     17 2HH2 ARG B   2      53.891  92.985  37.607  1.00 39.61 LIG 0.17  HD
ENDBRANCH 8 9
ENDBRANCH 7 8
ENDBRANCH 6 7
ENDBRANCH 5 6
BRANCH 5 18
ATOM     18  N   ARG B   2      52.237  89.266  34.492  1.00 32.37 LIG-0.35  N 
ATOM     19 H    ARG B   2      51.460  88.905  34.562  1.00 32.37 LIG 0.16  HD
ATOM     20  C   ASN B   1      52.491  90.479  34.040  1.00 31.22 LIG 0.25  C 
ATOM     21 O    ASN B   1      53.632  90.872  33.925  1.00 24.61 LIG-0.27  OA
BRANCH 20 22
ATOM     22  CA  ASN B   1      51.353  91.388  33.609  1.00 32.89 LIG 0.28  C 
BRANCH 22 23
ATOM     23  CB  ASN B   1      50.373  90.513  32.827  1.00 38.07 LIG 0.14  C 
BRANCH 23 24
ATOM     24  CG  ASN B   1      50.820  90.264  31.441  1.00 44.05 LIG 0.22  C 
ATOM     25  ND2 ASN B   1      50.124  90.851  30.502  1.00 47.62 LIG-0.37  N 
ATOM     26 21HD ASN B   1      50.348  90.754  29.677  1.00 47.62 LIG 0.16  HD
ATOM     27 22HD ASN B   1      49.444  91.334  30.708  1.00 47.62 LIG 0.16  HD
ATOM     28 OD1  ASN B   1      51.809  89.558  31.203  1.00 47.48 LIG-0.27  OA
ENDBRANCH 23 24
ENDBRANCH 22 23
BRANCH 22 29
ATOM     29  N   ASN B   1      51.704  92.602  32.816  1.00 44.58 LIG-0.07  N 
ATOM     30 H1   ASN B   1      51.752  93.308  33.357  1.00 44.58 LIG 0.28  HD
ATOM     31 H3   ASN B   1      51.078  92.745  32.198  1.00 44.58 LIG 0.28  HD
ATOM     32 H2   ASN B   1      52.491  92.481  32.418  1.00 44.58 LIG 0.28  HD
ENDBRANCH 22 29
ENDBRANCH 20 22
ENDBRANCH 5 18
ENDBRANCH 1 5
BRANCH 3 33
ATOM     33  CA  LEU B   3      53.750  86.795  31.536  1.00 27.74 LIG 0.18  C 
BRANCH 33 34
ATOM     34  C   LEU B   3      54.657  87.789  30.924  1.00 25.40 LIG 0.24  C 
ATOM     35 O    LEU B   3      54.228  88.852  30.496  1.00 26.81 LIG-0.27  OA
ATOM     36  N   ILE B   4      55.929  87.476  30.871  1.00 26.13 LIG-0.35  N 
ATOM     37 H    ILE B   4      56.278  86.782  31.239  1.00 26.13 LIG 0.16  HD
BRANCH 36 38
ATOM     38  CA  ILE B   4      56.819  88.289  30.181  1.00 24.17 LIG 0.18  C 
BRANCH 38 39
ATOM     39  CB  ILE B   4      58.233  87.743  30.474  1.00 29.09 LIG 0.01  C 
ATOM     40  CG2 ILE B   4      59.216  88.611  29.764  1.00 25.20 LIG 0.01  C 
BRANCH 39 41
ATOM     41  CG1 ILE B   4      58.589  87.790  31.953  1.00 28.67 LIG 0.00  C 
ATOM     42  CD1 ILE B   4      60.077  87.705  32.185  1.00 34.41 LIG 0.01  C 
ENDBRANCH 39 41
ENDBRANCH 38 39
BRANCH 38 43
ATOM     43  C   ILE B   4      56.481  88.385  28.689  1.00 29.58 LIG 0.24  C 
ATOM     44  N   LEU B   5      56.536  89.606  28.172  1.00 36.70 LIG-0.35  N 
ATOM     45 H    LEU B   5      56.639  90.320  28.639  1.00 36.70 LIG 0.16  HD
ATOM     46 O    ILE B   4      56.157  87.364  28.008  1.00 23.70 LIG-0.27  OA
BRANCH 44 47
ATOM     47  CA  LEU B   5      56.425  89.835  26.753  1.00 37.00 LIG 0.16  C 
BRANCH 47 48
ATOM     48  C   LEU B   5      55.132  89.212  26.190  1.00 42.59 LIG 0.22  C 
ATOM     49 O    LEU B   5      54.549  89.711  25.191  1.00 38.80 LIG-0.29  OA
ENDBRANCH 47 48
BRANCH 47 50
ATOM     50  CB  LEU B   5      57.639  89.210  26.079  1.00 50.59 LIG 0.04  C 
BRANCH 50 51
ATOM     51  CG  LEU B   5      58.470  90.147  25.223  1.00 50.85 LIG-0.02  C 
ATOM     52  CD1 LEU B   5      57.782  90.303  23.885  1.00 54.07 LIG 0.01  C 
ATOM     53  CD2 LEU B   5      58.552  91.476  25.965  1.00 54.33 LIG 0.01  C 
ENDBRANCH 50 51
ENDBRANCH 47 50
ENDBRANCH 44 47
ENDBRANCH 38 43
ENDBRANCH 36 38
ENDBRANCH 33 34
BRANCH 33 54
ATOM     54  CB  LEU B   3      52.577  86.591  30.607  1.00 34.11 LIG 0.04  C 
BRANCH 54 55
ATOM     55  CG  LEU B   3      51.949  85.283  30.949  1.00 35.49 LIG-0.02  C 
ATOM     56  CD1 LEU B   3      52.894  84.527  31.862  1.00 39.12 LIG 0.01  C 
ATOM     57  CD2 LEU B   3      50.699  85.690  31.688  1.00 34.32 LIG 0.01  C 
ENDBRANCH 54 55
ENDBRANCH 33 54
ENDBRANCH 3 33
TORSDOF 22
ENDMDL
MODEL 8
USER: ADFR SOLUTION from run 66
USER: SCORE 20.633718 LL:  -3.167 LR: -17.633 RR:   0.000 FEB: -11.070
USER: RMSD 5.598264
USER: SEED 65
USER: STATUS no improvement in best in 3 clusters for 5 generations
USER: GENES 24
USER: genes 0 Translation |==|  0.49970 0.58936 0.37802
USER: genes 1 Rotation |==|  0.49775 0.44895 0.99662 0.52745
USER: genes 2 Torsion [N]-C--CA-[N] |==|  0.36355
USER: genes 3 Torsion [C]-CA--CB-[CG] |==|  0.74417
USER: genes 4 Torsion [CA]-CB--CG-[CD] |==|  0.59991
USER: genes 5 Torsion [CB]-CG--CD-[NE] |==|  0.34772
USER: genes 6 Torsion [CG]-CD--NE-[HE] |==|  0.04192
USER: genes 7 Torsion [C]-CA--N-[C] |==|  0.82492
USER: genes 8 Torsion [N]-C--CA-[N] |==|  0.89880
USER: genes 9 Torsion [C]-CA--CB-[CG] |==|  0.30797
USER: genes 10 Torsion [CA]-CB--CG-[OD1] |==|  0.07730
USER: genes 11 Torsion [C]-CA--N-[H1] |==|  0.74893
USER: genes 12 Torsion [C]-N--CA-[CB] |==|  0.86667
USER: genes 13 Torsion [N]-CA--C-[N] |==|  0.36454
USER: genes 14 Torsion [C]-N--CA-[C] |==|  0.77456
USER: genes 15 Torsion [N]-CA--CB-[CG1] |==|  0.66394
USER: genes 16 Torsion [CA]-CB--CG1-[CD1] |==|  0.51480
USER: genes 17 Torsion [N]-CA--C-[N] |==|  0.42986
USER: genes 18 Torsion [C]-N--CA-[C] |==|  0.80441
USER: genes 19 Torsion [N]-CA--C-[O] |==|  0.13924
USER: genes 20 Torsion [N]-CA--CB-[CG] |==|  0.84761
USER: genes 21 Torsion [CA]-CB--CG-[CD1] |==|  0.28399
USER: genes 22 Torsion [N]-CA--CB-[CG] |==|  0.47195
USER: genes 23 Torsion [CA]-CB--CG-[CD1] |==|  0.31716
ROOT
ATOM      1  C   ARG B   2      57.001  88.652  27.101  1.00 25.54 LIG 0.24  C 
ATOM      2 O    ARG B   2      56.758  89.667  27.827  1.00 21.45 LIG-0.27  OA
ATOM      3  N   LEU B   3      57.140  87.441  27.616  1.00 32.00 LIG-0.35  N 
ATOM      4 H    LEU B   3      57.201  86.721  27.149  1.00 32.00 LIG 0.16  HD
ENDROOT
BRANCH 1 5
ATOM      5  CA  ARG B   2      57.179  88.761  25.593  1.00 29.44 LIG 0.18  C 
BRANCH 5 6
ATOM      6  CB  ARG B   2      58.533  89.465  25.266  1.00 37.02 LIG 0.04  C 
BRANCH 6 7
ATOM      7  CG  ARG B   2      58.414  90.980  25.100  1.00 39.92 LIG 0.02  C 
BRANCH 7 8
ATOM      8  CD  ARG B   2      59.368  91.478  24.007  1.00 40.77 LIG 0.14  C 
BRANCH 8 9
ATOM      9  NE  ARG B   2      58.531  92.220  23.052  1.00 48.07 LIG-0.23  N 
ATOM     10 HE   ARG B   2      57.745  92.433  23.329  1.00 48.07 LIG 0.18  HD
ATOM     11  CZ  ARG B   2      58.837  92.605  21.805  1.00 44.36 LIG 0.67  C 
ATOM     12  NH1 ARG B   2      57.900  93.300  21.134  1.00 36.12 LIG-0.23  N 
ATOM     13  NH2 ARG B   2      60.032  92.326  21.234  1.00 39.61 LIG-0.23  N 
ATOM     14 1HH1 ARG B   2      57.146  93.478  21.507  1.00 36.12 LIG 0.17  HD
ATOM     15 2HH1 ARG B   2      58.056  93.567  20.332  1.00 36.12 LIG 0.17  HD
ATOM     16 1HH2 ARG B   2      60.626  91.887  21.673  1.00 39.61 LIG 0.17  HD
ATOM     17 2HH2 ARG B   2      60.196  92.589  20.431  1.00 39.61 LIG 0.17  HD
ENDBRANCH 8 9
ENDBRANCH 7 8
ENDBRANCH 6 7
ENDBRANCH 5 6
BRANCH 5 18
ATOM     18  N   ARG B   2      56.068  89.510  24.978  1.00 32.37 LIG-0.35  N 
ATOM     19 H    ARG B   2      56.276  90.247  24.588  1.00 32.37 LIG 0.16  HD
ATOM     20  C   ASN B   1      54.856  88.998  25.073  1.00 31.22 LIG 0.25  C 
ATOM     21 O    ASN B   1      54.660  87.979  25.700  1.00 24.61 LIG-0.27  OA
BRANCH 20 22
ATOM     22  CA  ASN B   1      53.674  89.708  24.436  1.00 32.89 LIG 0.28  C 
BRANCH 22 23
ATOM     23  CB  ASN B   1      53.596  89.207  22.993  1.00 38.07 LIG 0.14  C 
BRANCH 23 24
ATOM     24  CG  ASN B   1      52.412  88.357  22.752  1.00 44.05 LIG 0.22  C 
ATOM     25  ND2 ASN B   1      52.539  87.448  21.822  1.00 47.62 LIG-0.37  N 
ATOM     26 21HD ASN B   1      51.887  86.915  21.650  1.00 47.62 LIG 0.16  HD
ATOM     27 22HD ASN B   1      53.275  87.382  21.383  1.00 47.62 LIG 0.16  HD
ATOM     28 OD1  ASN B   1      51.376  88.499  23.418  1.00 47.48 LIG-0.27  OA
ENDBRANCH 23 24
ENDBRANCH 22 23
BRANCH 22 29
ATOM     29  N   ASN B   1      53.668  91.199  24.463  1.00 44.58 LIG-0.07  N 
ATOM     30 H1   ASN B   1      53.257  91.482  25.200  1.00 44.58 LIG 0.28  HD
ATOM     31 H3   ASN B   1      53.238  91.508  23.747  1.00 44.58 LIG 0.28  HD
ATOM     32 H2   ASN B   1      54.506  91.500  24.457  1.00 44.58 LIG 0.28  HD
ENDBRANCH 22 29
ENDBRANCH 20 22
ENDBRANCH 5 18
ENDBRANCH 1 5
BRANCH 3 33
ATOM     33  CA  LEU B   3      57.204  87.237  29.055  1.00 27.74 LIG 0.18  C 
BRANCH 33 34
ATOM     34  C   LEU B   3      55.888  87.480  29.684  1.00 25.40 LIG 0.24  C 
ATOM     35 O    LEU B   3      55.246  88.491  29.428  1.00 26.81 LIG-0.27  OA
ATOM     36  N   ILE B   4      55.451  86.566  30.516  1.00 26.13 LIG-0.35  N 
ATOM     37 H    ILE B   4      55.830  85.807  30.651  1.00 26.13 LIG 0.16  HD
BRANCH 36 38
ATOM     38  CA  ILE B   4      54.297  86.791  31.256  1.00 24.17 LIG 0.18  C 
BRANCH 38 39
ATOM     39  CB  ILE B   4      53.693  85.404  31.563  1.00 29.09 LIG 0.01  C 
ATOM     40  CG2 ILE B   4      53.610  85.257  33.044  1.00 25.20 LIG 0.01  C 
BRANCH 39 41
ATOM     41  CG1 ILE B   4      52.279  85.244  31.023  1.00 28.67 LIG 0.00  C 
ATOM     42  CD1 ILE B   4      51.653  83.936  31.440  1.00 34.41 LIG 0.01  C 
ENDBRANCH 39 41
ENDBRANCH 38 39
BRANCH 38 43
ATOM     43  C   ILE B   4      54.564  87.647  32.499  1.00 29.58 LIG 0.24  C 
ATOM     44  N   LEU B   5      53.520  88.329  32.953  1.00 36.70 LIG-0.35  N 
ATOM     45 H    LEU B   5      52.771  88.393  32.535  1.00 36.70 LIG 0.16  HD
ATOM     46 O    ILE B   4      55.711  87.704  33.040  1.00 23.70 LIG-0.27  OA
BRANCH 44 47
ATOM     47  CA  LEU B   5      53.561  89.032  34.211  1.00 37.00 LIG 0.16  C 
BRANCH 47 48
ATOM     48  C   LEU B   5      53.582  88.047  35.397  1.00 42.59 LIG 0.22  C 
ATOM     49 O    LEU B   5      54.400  87.089  35.436  1.00 38.80 LIG-0.29  OA
ENDBRANCH 47 48
BRANCH 47 50
ATOM     50  CB  LEU B   5      52.327  89.919  34.295  1.00 50.59 LIG 0.04  C 
BRANCH 50 51
ATOM     51  CG  LEU B   5      52.129  90.882  33.139  1.00 50.85 LIG-0.02  C 
ATOM     52  CD1 LEU B   5      51.066  90.314  32.224  1.00 54.07 LIG 0.01  C 
ATOM     53  CD2 LEU B   5      51.695  92.215  33.737  1.00 54.33 LIG 0.01  C 
ENDBRANCH 50 51
ENDBRANCH 47 50
ENDBRANCH 44 47
ENDBRANCH 38 43
ENDBRANCH 36 38
ENDBRANCH 33 34
BRANCH 33 54
ATOM     54  CB  LEU B   3      58.191  88.225  29.629  1.00 34.11 LIG 0.04  C 
BRANCH 54 55
ATOM     55  CG  LEU B   3      58.067  88.180  31.114  1.00 35.49 LIG-0.02  C 
ATOM     56  CD1 LEU B   3      59.362  87.635  31.683  1.00 39.12 LIG 0.01  C 
ATOM     57  CD2 LEU B   3      57.887  89.631  31.484  1.00 34.32 LIG 0.01  C 
ENDBRANCH 54 55
ENDBRANCH 33 54
ENDBRANCH 3 33
TORSDOF 22
ENDMDL
MODEL 9
USER: ADFR SOLUTION from run 120
USER: SCORE 19.120165 LL:  -3.510 LR: -17.608 RR:   0.000 FEB: -11.045
USER: RMSD 11.005995
USER: SEED 119
USER: STATUS no improvement in best in 5 clusters for 5 generations
USER: GENES 24
USER: genes 0 Translation |==|  0.33227 0.44811 0.69852
USER: genes 1 Rotation |==|  0.33626 0.97086 0.46158 0.50061
USER: genes 2 Torsion [N]-C--CA-[N] |==|  0.48829
USER: genes 3 Torsion [C]-CA--CB-[CG] |==|  0.27400
USER: genes 4 Torsion [CA]-CB--CG-[CD] |==|  0.21873
USER: genes 5 Torsion [CB]-CG--CD-[NE] |==|  0.23317
USER: genes 6 Torsion [CG]-CD--NE-[HE] |==|  0.75369
USER: genes 7 Torsion [C]-CA--N-[C] |==|  0.59445
USER: genes 8 Torsion [N]-C--CA-[N] |==|  0.87774
USER: genes 9 Torsion [C]-CA--CB-[CG] |==|  0.68623
USER: genes 10 Torsion [CA]-CB--CG-[OD1] |==|  0.83130
USER: genes 11 Torsion [C]-CA--N-[H1] |==|  0.81208
USER: genes 12 Torsion [C]-N--CA-[CB] |==|  0.33884
USER: genes 13 Torsion [N]-CA--C-[N] |==|  0.22933
USER: genes 14 Torsion [C]-N--CA-[C] |==|  0.79737
USER: genes 15 Torsion [N]-CA--CB-[CG1] |==|  0.55624
USER: genes 16 Torsion [CA]-CB--CG1-[CD1] |==|  0.45819
USER: genes 17 Torsion [N]-CA--C-[N] |==|  0.45681
USER: genes 18 Torsion [C]-N--CA-[C] |==|  0.85821
USER: genes 19 Torsion [N]-CA--C-[O] |==|  0.75839
USER: genes 20 Torsion [N]-CA--CB-[CG] |==|  0.52063
USER: genes 21 Torsion [CA]-CB--CG-[CD1] |==|  0.17458
USER: genes 22 Torsion [N]-CA--CB-[CG] |==|  0.74975
USER: genes 23 Torsion [CA]-CB--CG-[CD1] |==|  0.94147
ROOT
ATOM      1  C   ARG B   2      53.485  86.004  34.072  1.00 25.54 LIG 0.24  C 
ATOM      2 O    ARG B   2      53.917  84.854  33.746  1.00 21.45 LIG-0.27  OA
ATOM      3  N   LEU B   3      53.084  86.883  33.166  1.00 32.00 LIG-0.35  N 
ATOM      4 H    LEU B   3      52.691  87.625  33.354  1.00 32.00 LIG 0.16  HD
ENDROOT
BRANCH 1 5
ATOM      5  CA  ARG B   2      53.426  86.465  35.521  1.00 29.44 LIG 0.18  C 
BRANCH 5 6
ATOM      6  CB  ARG B   2      54.381  87.682  35.732  1.00 37.02 LIG 0.04  C 
BRANCH 6 7
ATOM      7  CG  ARG B   2      53.669  89.035  35.701  1.00 39.92 LIG 0.02  C 
BRANCH 7 8
ATOM      8  CD  ARG B   2      52.966  89.303  37.037  1.00 40.77 LIG 0.14  C 
BRANCH 8 9
ATOM      9  NE  ARG B   2      53.994  89.866  37.926  1.00 48.07 LIG-0.23  N 
ATOM     10 HE   ARG B   2      54.451  89.295  38.379  1.00 48.07 LIG 0.18  HD
ATOM     11  CZ  ARG B   2      54.309  91.154  38.119  1.00 44.36 LIG 0.67  C 
ATOM     12  NH1 ARG B   2      55.314  91.415  38.976  1.00 36.12 LIG-0.23  N 
ATOM     13  NH2 ARG B   2      53.664  92.161  37.485  1.00 39.61 LIG-0.23  N 
ATOM     14 1HH1 ARG B   2      55.721  90.769  39.371  1.00 36.12 LIG 0.17  HD
ATOM     15 2HH1 ARG B   2      55.548  92.228  39.129  1.00 36.12 LIG 0.17  HD
ATOM     16 1HH2 ARG B   2      53.027  91.984  36.935  1.00 39.61 LIG 0.17  HD
ATOM     17 2HH2 ARG B   2      53.891  92.977  37.632  1.00 39.61 LIG 0.17  HD
ENDBRANCH 8 9
ENDBRANCH 7 8
ENDBRANCH 6 7
ENDBRANCH 5 6
BRANCH 5 18
ATOM     18  N   ARG B   2      53.799  85.375  36.442  1.00 32.37 LIG-0.35  N 
ATOM     19 H    ARG B   2      54.397  84.826  36.159  1.00 32.37 LIG 0.16  HD
ATOM     20  C   ASN B   1      53.195  85.327  37.613  1.00 31.22 LIG 0.25  C 
ATOM     21 O    ASN B   1      52.318  86.117  37.892  1.00 24.61 LIG-0.27  OA
BRANCH 20 22
ATOM     22  CA  ASN B   1      53.556  84.245  38.616  1.00 32.89 LIG 0.28  C 
BRANCH 22 23
ATOM     23  CB  ASN B   1      54.848  84.701  39.296  1.00 38.07 LIG 0.14  C 
BRANCH 23 24
ATOM     24  CG  ASN B   1      55.997  83.835  38.964  1.00 44.05 LIG 0.22  C 
ATOM     25  ND2 ASN B   1      57.007  84.424  38.379  1.00 47.62 LIG-0.37  N 
ATOM     26 21HD ASN B   1      57.709  83.972  38.176  1.00 47.62 LIG 0.16  HD
ATOM     27 22HD ASN B   1      56.969  85.263  38.198  1.00 47.62 LIG 0.16  HD
ATOM     28 OD1  ASN B   1      55.995  82.629  39.249  1.00 47.48 LIG-0.27  OA
ENDBRANCH 23 24
ENDBRANCH 22 23
BRANCH 22 29
ATOM     29  N   ASN B   1      53.709  82.852  38.104  1.00 44.58 LIG-0.07  N 
ATOM     30 H1   ASN B   1      52.917  82.544  37.837  1.00 44.58 LIG 0.28  HD
ATOM     31 H3   ASN B   1      54.026  82.330  38.751  1.00 44.58 LIG 0.28  HD
ATOM     32 H2   ASN B   1      54.274  82.849  37.416  1.00 44.58 LIG 0.28  HD
ENDBRANCH 22 29
ENDBRANCH 20 22
ENDBRANCH 5 18
ENDBRANCH 1 5
BRANCH 3 33
ATOM     33  CA  LEU B   3      53.287  86.647  31.745  1.00 27.74 LIG 0.18  C 
BRANCH 33 34
ATOM     34  C   LEU B   3      54.131  87.703  31.148  1.00 25.40 LIG 0.24  C 
ATOM     35 O    LEU B   3      53.630  88.653  30.560  1.00 26.81 LIG-0.27  OA
ATOM     36  N   ILE B   4      55.429  87.570  31.283  1.00 26.13 LIG-0.35  N 
ATOM     37 H    ILE B   4      55.811  86.968  31.762  1.00 26.13 LIG 0.16  HD
BRANCH 36 38
ATOM     38  CA  ILE B   4      56.291  88.438  30.625  1.00 24.17 LIG 0.18  C 
BRANCH 38 39
ATOM     39  CB  ILE B   4      57.655  88.331  31.340  1.00 29.09 LIG 0.01  C 
ATOM     40  CG2 ILE B   4      58.365  87.138  30.798  1.00 25.20 LIG 0.01  C 
BRANCH 39 41
ATOM     41  CG1 ILE B   4      58.552  89.534  31.082  1.00 28.67 LIG 0.00  C 
ATOM     42  CD1 ILE B   4      59.707  89.602  32.049  1.00 34.41 LIG 0.01  C 
ENDBRANCH 39 41
ENDBRANCH 38 39
BRANCH 38 43
ATOM     43  C   ILE B   4      56.350  88.165  29.118  1.00 29.58 LIG 0.24  C 
ATOM     44  N   LEU B   5      56.886  89.134  28.386  1.00 36.70 LIG-0.35  N 
ATOM     45 H    LEU B   5      57.088  89.911  28.694  1.00 36.70 LIG 0.16  HD
ATOM     46 O    ILE B   4      55.902  87.090  28.613  1.00 23.70 LIG-0.27  OA
BRANCH 44 47
ATOM     47  CA  LEU B   5      57.179  88.954  26.986  1.00 37.00 LIG 0.16  C 
BRANCH 47 48
ATOM     48  C   LEU B   5      57.999  87.669  26.751  1.00 42.59 LIG 0.22  C 
ATOM     49 O    LEU B   5      59.257  87.675  26.826  1.00 38.80 LIG-0.29  OA
ENDBRANCH 47 48
BRANCH 47 50
ATOM     50  CB  LEU B   5      57.967  90.167  26.510  1.00 50.59 LIG 0.04  C 
BRANCH 50 51
ATOM     51  CG  LEU B   5      58.217  90.243  25.016  1.00 50.85 LIG-0.02  C 
ATOM     52  CD1 LEU B   5      56.880  90.352  24.316  1.00 54.07 LIG 0.01  C 
ATOM     53  CD2 LEU B   5      59.077  91.477  24.769  1.00 54.33 LIG 0.01  C 
ENDBRANCH 50 51
ENDBRANCH 47 50
ENDBRANCH 44 47
ENDBRANCH 38 43
ENDBRANCH 36 38
ENDBRANCH 33 34
BRANCH 33 54
ATOM     54  CB  LEU B   3      51.939  86.678  31.065  1.00 34.11 LIG 0.04  C 
BRANCH 54 55
ATOM     55  CG  LEU B   3      51.396  85.290  31.071  1.00 35.49 LIG-0.02  C 
ATOM     56  CD1 LEU B   3      52.553  84.328  31.254  1.00 39.12 LIG 0.01  C 
ATOM     57  CD2 LEU B   3      50.495  85.284  32.280  1.00 34.32 LIG 0.01  C 
ENDBRANCH 54 55
ENDBRANCH 33 54
ENDBRANCH 3 33
TORSDOF 22
ENDMDL
MODEL 10
USER: ADFR SOLUTION from run 36
USER: SCORE 18.998036 LL:  -3.165 LR: -17.582 RR:   0.000 FEB: -11.020
USER: RMSD 6.168762
USER: SEED 35
USER: STATUS no improvement in best in 4 clusters for 5 generations
USER: GENES 24
USER: genes 0 Translation |==|  0.51016 0.56908 0.30561
USER: genes 1 Rotation |==|  0.58344 0.24780 0.44221 0.91964
USER: genes 2 Torsion [N]-C--CA-[N] |==|  0.54204
USER: genes 3 Torsion [C]-CA--CB-[CG] |==|  0.53464
USER: genes 4 Torsion [CA]-CB--CG-[CD] |==|  0.65029
USER: genes 5 Torsion [CB]-CG--CD-[NE] |==|  0.77174
USER: genes 6 Torsion [CG]-CD--NE-[HE] |==|  0.20581
USER: genes 7 Torsion [C]-CA--N-[C] |==|  0.80556
USER: genes 8 Torsion [N]-C--CA-[N] |==|  0.13103
USER: genes 9 Torsion [C]-CA--CB-[CG] |==|  0.62281
USER: genes 10 Torsion [CA]-CB--CG-[OD1] |==|  0.72736
USER: genes 11 Torsion [C]-CA--N-[H1] |==|  0.31158
USER: genes 12 Torsion [C]-N--CA-[CB] |==|  0.83176
USER: genes 13 Torsion [N]-CA--C-[N] |==|  0.14219
USER: genes 14 Torsion [C]-N--CA-[C] |==|  0.82627
USER: genes 15 Torsion [N]-CA--CB-[CG1] |==|  0.18909
USER: genes 16 Torsion [CA]-CB--CG1-[CD1] |==|  0.69128
USER: genes 17 Torsion [N]-CA--C-[N] |==|  0.42419
USER: genes 18 Torsion [C]-N--CA-[C] |==|  0.82039
USER: genes 19 Torsion [N]-CA--C-[O] |==|  0.90928
USER: genes 20 Torsion [N]-CA--CB-[CG] |==|  0.62727
USER: genes 21 Torsion [CA]-CB--CG-[CD1] |==|  0.25279
USER: genes 22 Torsion [N]-CA--CB-[CG] |==|  0.75231
USER: genes 23 Torsion [CA]-CB--CG-[CD1] |==|  0.19186
ROOT
ATOM      1  C   ARG B   2      57.220  88.272  25.526  1.00 25.54 LIG 0.24  C 
ATOM      2 O    ARG B   2      56.905  87.043  25.594  1.00 21.45 LIG-0.27  OA
ATOM      3  N   LEU B   3      56.460  89.220  26.053  1.00 32.00 LIG-0.35  N 
ATOM      4 H    LEU B   3      56.693  90.046  26.116  1.00 32.00 LIG 0.16  HD
ENDROOT
BRANCH 1 5
ATOM      5  CA  ARG B   2      58.476  88.746  24.808  1.00 29.44 LIG 0.18  C 
BRANCH 5 6
ATOM      6  CB  ARG B   2      58.147  89.990  23.924  1.00 37.02 LIG 0.04  C 
BRANCH 6 7
ATOM      7  CG  ARG B   2      59.257  90.355  22.938  1.00 39.92 LIG 0.02  C 
BRANCH 7 8
ATOM      8  CD  ARG B   2      59.666  91.823  23.109  1.00 40.77 LIG 0.14  C 
BRANCH 8 9
ATOM      9  NE  ARG B   2      58.679  92.606  22.349  1.00 48.07 LIG-0.23  N 
ATOM     10 HE   ARG B   2      57.900  92.676  22.707  1.00 48.07 LIG 0.18  HD
ATOM     11  CZ  ARG B   2      58.840  93.225  21.171  1.00 44.36 LIG 0.67  C 
ATOM     12  NH1 ARG B   2      57.782  93.903  20.689  1.00 36.12 LIG-0.23  N 
ATOM     13  NH2 ARG B   2      60.007  93.189  20.487  1.00 39.61 LIG-0.23  N 
ATOM     14 1HH1 ARG B   2      57.046  93.925  21.133  1.00 36.12 LIG 0.17  HD
ATOM     15 2HH1 ARG B   2      57.842  94.315  19.936  1.00 36.12 LIG 0.17  HD
ATOM     16 1HH2 ARG B   2      60.679  92.758  20.807  1.00 39.61 LIG 0.17  HD
ATOM     17 2HH2 ARG B   2      60.076  93.597  19.734  1.00 39.61 LIG 0.17  HD
ENDBRANCH 8 9
ENDBRANCH 7 8
ENDBRANCH 6 7
ENDBRANCH 5 6
BRANCH 5 18
ATOM     18  N   ARG B   2      59.044  87.675  23.968  1.00 32.37 LIG-0.35  N 
ATOM     19 H    ARG B   2      58.981  87.785  23.117  1.00 32.37 LIG 0.16  HD
ATOM     20  C   ASN B   1      59.598  86.646  24.577  1.00 31.22 LIG 0.25  C 
ATOM     21 O    ASN B   1      59.582  86.558  25.786  1.00 24.61 LIG-0.27  OA
BRANCH 20 22
ATOM     22  CA  ASN B   1      60.226  85.524  23.768  1.00 32.89 LIG 0.28  C 
BRANCH 22 23
ATOM     23  CB  ASN B   1      60.960  84.629  24.767  1.00 38.07 LIG 0.14  C 
BRANCH 23 24
ATOM     24  CG  ASN B   1      62.302  84.235  24.294  1.00 44.05 LIG 0.22  C 
ATOM     25  ND2 ASN B   1      63.259  85.102  24.501  1.00 47.62 LIG-0.37  N 
ATOM     26 21HD ASN B   1      64.064  84.919  24.260  1.00 47.62 LIG 0.16  HD
ATOM     27 22HD ASN B   1      63.084  85.854  24.878  1.00 47.62 LIG 0.16  HD
ATOM     28 OD1  ASN B   1      62.495  83.136  23.755  1.00 47.48 LIG-0.27  OA
ENDBRANCH 23 24
ENDBRANCH 22 23
BRANCH 22 29
ATOM     29  N   ASN B   1      61.142  85.907  22.653  1.00 44.58 LIG-0.07  N 
ATOM     30 H1   ASN B   1      61.973  85.661  22.853  1.00 44.58 LIG 0.28  HD
ATOM     31 H3   ASN B   1      61.113  86.789  22.535  1.00 44.58 LIG 0.28  HD
ATOM     32 H2   ASN B   1      60.885  85.499  21.904  1.00 44.58 LIG 0.28  HD
ENDBRANCH 22 29
ENDBRANCH 20 22
ENDBRANCH 5 18
ENDBRANCH 1 5
BRANCH 3 33
ATOM     33  CA  LEU B   3      55.137  88.920  26.577  1.00 27.74 LIG 0.18  C 
BRANCH 33 34
ATOM     34  C   LEU B   3      55.208  87.897  27.642  1.00 25.40 LIG 0.24  C 
ATOM     35 O    LEU B   3      54.499  86.900  27.605  1.00 26.81 LIG-0.27  OA
ATOM     36  N   ILE B   4      56.063  88.111  28.612  1.00 26.13 LIG-0.35  N 
ATOM     37 H    ILE B   4      56.638  88.750  28.626  1.00 26.13 LIG 0.16  HD
BRANCH 36 38
ATOM     38  CA  ILE B   4      56.085  87.274  29.721  1.00 24.17 LIG 0.18  C 
BRANCH 38 39
ATOM     39  CB  ILE B   4      57.323  87.673  30.551  1.00 29.09 LIG 0.01  C 
ATOM     40  CG2 ILE B   4      58.495  87.723  29.631  1.00 25.20 LIG 0.01  C 
BRANCH 39 41
ATOM     41  CG1 ILE B   4      57.193  89.054  31.178  1.00 28.67 LIG 0.00  C 
ATOM     42  CD1 ILE B   4      58.141  90.053  30.559  1.00 34.41 LIG 0.01  C 
ENDBRANCH 39 41
ENDBRANCH 38 39
BRANCH 38 43
ATOM     43  C   ILE B   4      54.767  87.315  30.502  1.00 29.58 LIG 0.24  C 
ATOM     44  N   LEU B   5      54.476  86.212  31.182  1.00 36.70 LIG-0.35  N 
ATOM     45 H    LEU B   5      54.917  85.478  31.115  1.00 36.70 LIG 0.16  HD
ATOM     46 O    ILE B   4      54.007  88.331  30.483  1.00 23.70 LIG-0.27  OA
BRANCH 44 47
ATOM     47  CA  LEU B   5      53.372  86.160  32.107  1.00 37.00 LIG 0.16  C 
BRANCH 47 48
ATOM     48  C   LEU B   5      53.600  87.112  33.298  1.00 42.59 LIG 0.22  C 
ATOM     49 O    LEU B   5      54.757  87.338  33.741  1.00 38.80 LIG-0.29  OA
ENDBRANCH 47 48
BRANCH 47 50
ATOM     50  CB  LEU B   5      53.242  84.727  32.604  1.00 50.59 LIG 0.04  C 
BRANCH 50 51
ATOM     51  CG  LEU B   5      51.834  84.162  32.621  1.00 50.85 LIG-0.02  C 
ATOM     52  CD1 LEU B   5      51.580  83.481  31.293  1.00 54.07 LIG 0.01  C 
ATOM     53  CD2 LEU B   5      51.764  83.171  33.777  1.00 54.33 LIG 0.01  C 
ENDBRANCH 50 51
ENDBRANCH 47 50
ENDBRANCH 44 47
ENDBRANCH 38 43
ENDBRANCH 36 38
ENDBRANCH 33 34
BRANCH 33 54
ATOM     54  CB  LEU B   3      54.296  88.371  25.450  1.00 34.11 LIG 0.04  C 
BRANCH 54 55
ATOM     55  CG  LEU B   3      53.633  89.524  24.775  1.00 35.49 LIG-0.02  C 
ATOM     56  CD1 LEU B   3      54.697  90.327  24.053  1.00 39.12 LIG 0.01  C 
ATOM     57  CD2 LEU B   3      52.706  88.854  23.792  1.00 34.32 LIG 0.01  C 
ENDBRANCH 54 55
ENDBRANCH 33 54
ENDBRANCH 3 33
TORSDOF 22
ENDMDL
MODEL 11
USER: ADFR SOLUTION from run 53
USER: SCORE 20.740620 LL:  -3.878 LR: -17.558 RR:   0.000 FEB: -10.995
USER: RMSD 10.775836
USER: SEED 52
USER: STATUS 1 or 2 clusters left
USER: GENES 24
USER: genes 0 Translation |==|  0.30572 0.60803 0.62320
USER: genes 1 Rotation |==|  0.88723 0.72495 0.49921 0.72236
USER: genes 2 Torsion [N]-C--CA-[N] |==|  0.51666
USER: genes 3 Torsion [C]-CA--CB-[CG] |==|  0.32715
USER: genes 4 Torsion [CA]-CB--CG-[CD] |==|  0.88859
USER: genes 5 Torsion [CB]-CG--CD-[NE] |==|  0.45859
USER: genes 6 Torsion [CG]-CD--NE-[HE] |==|  0.27715
USER: genes 7 Torsion [C]-CA--N-[C] |==|  0.62327
USER: genes 8 Torsion [N]-C--CA-[N] |==|  0.68286
USER: genes 9 Torsion [C]-CA--CB-[CG] |==|  0.76889
USER: genes 10 Torsion [CA]-CB--CG-[OD1] |==|  0.12948
USER: genes 11 Torsion [C]-CA--N-[H1] |==|  0.45451
USER: genes 12 Torsion [C]-N--CA-[CB] |==|  0.87041
USER: genes 13 Torsion [N]-CA--C-[N] |==|  0.36461
USER: genes 14 Torsion [C]-N--CA-[C] |==|  0.71000
USER: genes 15 Torsion [N]-CA--CB-[CG1] |==|  0.89240
USER: genes 16 Torsion [CA]-CB--CG1-[CD1] |==|  0.58129
USER: genes 17 Torsion [N]-CA--C-[N] |==|  0.35063
USER: genes 18 Torsion [C]-N--CA-[C] |==|  0.73683
USER: genes 19 Torsion [N]-CA--C-[O] |==|  0.07826
USER: genes 20 Torsion [N]-CA--CB-[CG] |==|  0.94269
USER: genes 21 Torsion [CA]-CB--CG-[CD1] |==|  0.27493
USER: genes 22 Torsion [N]-CA--CB-[CG] |==|  0.69665
USER: genes 23 Torsion [CA]-CB--CG-[CD1] |==|  0.04686
ROOT
ATOM      1  C   ARG B   2      52.927  89.003  32.434  1.00 25.54 LIG 0.24  C 
ATOM      2 O    ARG B   2      52.566  89.118  31.220  1.00 21.45 LIG-0.27  OA
ATOM      3  N   LEU B   3      53.803  88.087  32.819  1.00 32.00 LIG-0.35  N 
ATOM      4 H    LEU B   3      54.146  88.048  33.607  1.00 32.00 LIG 0.16  HD
ENDROOT
BRANCH 1 5
ATOM      5  CA  ARG B   2      52.356  89.886  33.535  1.00 29.44 LIG 0.18  C 
BRANCH 5 6
ATOM      6  CB  ARG B   2      51.788  88.999  34.687  1.00 37.02 LIG 0.04  C 
BRANCH 6 7
ATOM      7  CG  ARG B   2      52.495  89.205  36.026  1.00 39.92 LIG 0.02  C 
BRANCH 7 8
ATOM      8  CD  ARG B   2      54.007  89.355  35.819  1.00 40.77 LIG 0.14  C 
BRANCH 8 9
ATOM      9  NE  ARG B   2      54.533  89.901  37.079  1.00 48.07 LIG-0.23  N 
ATOM     10 HE   ARG B   2      54.895  89.331  37.612  1.00 48.07 LIG 0.18  HD
ATOM     11  CZ  ARG B   2      54.520  91.173  37.502  1.00 44.36 LIG 0.67  C 
ATOM     12  NH1 ARG B   2      55.091  91.425  38.695  1.00 36.12 LIG-0.23  N 
ATOM     13  NH2 ARG B   2      53.971  92.173  36.775  1.00 39.61 LIG-0.23  N 
ATOM     14 1HH1 ARG B   2      55.442  90.784  39.148  1.00 36.12 LIG 0.17  HD
ATOM     15 2HH1 ARG B   2      55.105  92.227  39.004  1.00 36.12 LIG 0.17  HD
ATOM     16 1HH2 ARG B   2      53.614  92.003  36.012  1.00 39.61 LIG 0.17  HD
ATOM     17 2HH2 ARG B   2      53.979  92.978  37.076  1.00 39.61 LIG 0.17  HD
ENDBRANCH 8 9
ENDBRANCH 7 8
ENDBRANCH 6 7
ENDBRANCH 5 6
BRANCH 5 18
ATOM     18  N   ARG B   2      51.294  90.765  33.013  1.00 32.37 LIG-0.35  N 
ATOM     19 H    ARG B   2      50.720  90.399  32.489  1.00 32.37 LIG 0.16  HD
ATOM     20  C   ASN B   1      51.306  92.030  33.387  1.00 31.22 LIG 0.25  C 
ATOM     21 O    ASN B   1      52.198  92.463  34.085  1.00 24.61 LIG-0.27  OA
BRANCH 20 22
ATOM     22  CA  ASN B   1      50.222  92.980  32.907  1.00 32.89 LIG 0.28  C 
BRANCH 22 23
ATOM     23  CB  ASN B   1      49.159  92.115  32.228  1.00 38.07 LIG 0.14  C 
BRANCH 23 24
ATOM     24  CG  ASN B   1      49.498  91.800  30.826  1.00 44.05 LIG 0.22  C 
ATOM     25  ND2 ASN B   1      48.544  91.982  29.951  1.00 47.62 LIG-0.37  N 
ATOM     26 21HD ASN B   1      48.689  91.829  29.118  1.00 47.62 LIG 0.16  HD
ATOM     27 22HD ASN B   1      47.770  92.254  30.209  1.00 47.62 LIG 0.16  HD
ATOM     28 OD1  ASN B   1      50.632  91.410  30.513  1.00 47.48 LIG-0.27  OA
ENDBRANCH 23 24
ENDBRANCH 22 23
BRANCH 22 29
ATOM     29  N   ASN B   1      50.632  94.094  32.003  1.00 44.58 LIG-0.07  N 
ATOM     30 H1   ASN B   1      49.913  94.432  31.603  1.00 44.58 LIG 0.28  HD
ATOM     31 H3   ASN B   1      51.196  93.785  31.388  1.00 44.58 LIG 0.28  HD
ATOM     32 H2   ASN B   1      51.032  94.731  32.479  1.00 44.58 LIG 0.28  HD
ENDBRANCH 22 29
ENDBRANCH 20 22
ENDBRANCH 5 18
ENDBRANCH 1 5
BRANCH 3 33
ATOM     33  CA  LEU B   3      54.259  87.050  31.907  1.00 27.74 LIG 0.18  C 
BRANCH 33 34
ATOM     34  C   LEU B   3      55.161  87.609  30.877  1.00 25.40 LIG 0.24  C 
ATOM     35 O    LEU B   3      54.854  88.617  30.253  1.00 26.81 LIG-0.27  OA
ATOM     36  N   ILE B   4      56.292  86.978  30.674  1.00 26.13 LIG-0.35  N 
ATOM     37 H    ILE B   4      56.579  86.324  31.152  1.00 26.13 LIG 0.16  HD
BRANCH 36 38
ATOM     38  CA  ILE B   4      57.122  87.353  29.626  1.00 24.17 LIG 0.18  C 
BRANCH 38 39
ATOM     39  CB  ILE B   4      58.535  87.527  30.222  1.00 29.09 LIG 0.01  C 
ATOM     40  CG2 ILE B   4      59.300  88.444  29.330  1.00 25.20 LIG 0.01  C 
BRANCH 39 41
ATOM     41  CG1 ILE B   4      58.517  88.166  31.603  1.00 28.67 LIG 0.00  C 
ATOM     42  CD1 ILE B   4      59.771  88.958  31.882  1.00 34.41 LIG 0.01  C 
ENDBRANCH 39 41
ENDBRANCH 38 39
BRANCH 38 43
ATOM     43  C   ILE B   4      57.054  86.369  28.453  1.00 29.58 LIG 0.24  C 
ATOM     44  N   LEU B   5      56.777  86.912  27.273  1.00 36.70 LIG-0.35  N 
ATOM     45 H    LEU B   5      56.538  87.730  27.166  1.00 36.70 LIG 0.16  HD
ATOM     46 O    ILE B   4      57.236  85.123  28.610  1.00 23.70 LIG-0.27  OA
BRANCH 44 47
ATOM     47  CA  LEU B   5      56.858  86.152  26.051  1.00 37.00 LIG 0.16  C 
BRANCH 47 48
ATOM     48  C   LEU B   5      58.230  86.337  25.371  1.00 42.59 LIG 0.22  C 
ATOM     49 O    LEU B   5      59.262  86.599  26.045  1.00 38.80 LIG-0.29  OA
ENDBRANCH 47 48
BRANCH 47 50
ATOM     50  CB  LEU B   5      55.750  86.632  25.124  1.00 50.59 LIG 0.04  C 
BRANCH 50 51
ATOM     51  CG  LEU B   5      54.595  87.349  25.796  1.00 50.85 LIG-0.02  C 
ATOM     52  CD1 LEU B   5      54.809  88.839  25.643  1.00 54.07 LIG 0.01  C 
ATOM     53  CD2 LEU B   5      53.319  86.895  25.097  1.00 54.33 LIG 0.01  C 
ENDBRANCH 50 51
ENDBRANCH 47 50
ENDBRANCH 44 47
ENDBRANCH 38 43
ENDBRANCH 36 38
ENDBRANCH 33 34
BRANCH 33 54
ATOM     54  CB  LEU B   3      53.052  86.467  31.212  1.00 34.11 LIG 0.04  C 
BRANCH 54 55
ATOM     55  CG  LEU B   3      52.845  85.089  31.741  1.00 35.49 LIG-0.02  C 
ATOM     56  CD1 LEU B   3      53.628  84.954  33.033  1.00 39.12 LIG 0.01  C 
ATOM     57  CD2 LEU B   3      51.361  85.047  32.006  1.00 34.32 LIG 0.01  C 
ENDBRANCH 54 55
ENDBRANCH 33 54
ENDBRANCH 3 33
TORSDOF 22
ENDMDL
MODEL 12
USER: ADFR SOLUTION from run 140
USER: SCORE 19.246639 LL:  -3.310 LR: -17.547 RR:   0.000 FEB: -10.984
USER: RMSD 6.831516
USER: SEED 139
USER: STATUS no improvement in best in 13 clusters for 5 generations
USER: GENES 24
USER: genes 0 Translation |==|  0.39765 0.52349 0.51403
USER: genes 1 Rotation |==|  0.68171 0.50897 0.03768 0.55622
USER: genes 2 Torsion [N]-C--CA-[N] |==|  0.51603
USER: genes 3 Torsion [C]-CA--CB-[CG] |==|  0.87456
USER: genes 4 Torsion [CA]-CB--CG-[CD] |==|  0.58465
USER: genes 5 Torsion [CB]-CG--CD-[NE] |==|  0.19179
USER: genes 6 Torsion [CG]-CD--NE-[HE] |==|  0.62386
USER: genes 7 Torsion [C]-CA--N-[C] |==|  0.55762
USER: genes 8 Torsion [N]-C--CA-[N] |==|  0.32887
USER: genes 9 Torsion [C]-CA--CB-[CG] |==|  0.19759
USER: genes 10 Torsion [CA]-CB--CG-[OD1] |==|  0.79004
USER: genes 11 Torsion [C]-CA--N-[H1] |==|  0.37280
USER: genes 12 Torsion [C]-N--CA-[CB] |==|  0.45135
USER: genes 13 Torsion [N]-CA--C-[N] |==|  0.47222
USER: genes 14 Torsion [C]-N--CA-[C] |==|  0.67397
USER: genes 15 Torsion [N]-CA--CB-[CG1] |==|  0.86570
USER: genes 16 Torsion [CA]-CB--CG1-[CD1] |==|  0.27251
USER: genes 17 Torsion [N]-CA--C-[N] |==|  0.46592
USER: genes 18 Torsion [C]-N--CA-[C] |==|  0.64891
USER: genes 19 Torsion [N]-CA--C-[O] |==|  0.76465
USER: genes 20 Torsion [N]-CA--CB-[CG] |==|  0.78822
USER: genes 21 Torsion [CA]-CB--CG-[CD1] |==|  0.54226
USER: genes 22 Torsion [N]-CA--CB-[CG] |==|  0.60885
USER: genes 23 Torsion [CA]-CB--CG-[CD1] |==|  0.27840
ROOT
ATOM      1  C   ARG B   2      54.858  87.417  30.059  1.00 25.54 LIG 0.24  C 
ATOM      2 O    ARG B   2      54.020  88.370  30.141  1.00 21.45 LIG-0.27  OA
ATOM      3  N   LEU B   3      54.785  86.353  30.843  1.00 32.00 LIG-0.35  N 
ATOM      4 H    LEU B   3      55.268  85.648  30.746  1.00 32.00 LIG 0.16  HD
ENDROOT
BRANCH 1 5
ATOM      5  CA  ARG B   2      56.021  87.446  29.078  1.00 29.44 LIG 0.18  C 
BRANCH 5 6
ATOM      6  CB  ARG B   2      57.364  87.206  29.837  1.00 37.02 LIG 0.04  C 
BRANCH 6 7
ATOM      7  CG  ARG B   2      57.493  88.015  31.128  1.00 39.92 LIG 0.02  C 
BRANCH 7 8
ATOM      8  CD  ARG B   2      58.964  88.349  31.408  1.00 40.77 LIG 0.14  C 
BRANCH 8 9
ATOM      9  NE  ARG B   2      59.361  89.313  30.370  1.00 48.07 LIG-0.23  N 
ATOM     10 HE   ARG B   2      60.124  89.171  29.998  1.00 48.07 LIG 0.18  HD
ATOM     11  CZ  ARG B   2      58.686  90.383  29.928  1.00 44.36 LIG 0.67  C 
ATOM     12  NH1 ARG B   2      59.257  91.102  28.944  1.00 36.12 LIG-0.23  N 
ATOM     13  NH2 ARG B   2      57.480  90.736  30.430  1.00 39.61 LIG-0.23  N 
ATOM     14 1HH1 ARG B   2      60.021  90.867  28.627  1.00 36.12 LIG 0.17  HD
ATOM     15 2HH1 ARG B   2      58.858  91.796  28.631  1.00 36.12 LIG 0.17  HD
ATOM     16 1HH2 ARG B   2      57.120  90.267  31.055  1.00 39.61 LIG 0.17  HD
ATOM     17 2HH2 ARG B   2      57.073  91.429  30.125  1.00 39.61 LIG 0.17  HD
ENDBRANCH 8 9
ENDBRANCH 7 8
ENDBRANCH 6 7
ENDBRANCH 5 6
BRANCH 5 18
ATOM     18  N   ARG B   2      56.079  88.732  28.358  1.00 32.37 LIG-0.35  N 
ATOM     19 H    ARG B   2      55.676  89.394  28.730  1.00 32.37 LIG 0.16  HD
ATOM     20  C   ASN B   1      56.736  88.767  27.215  1.00 31.22 LIG 0.25  C 
ATOM     21 O    ASN B   1      57.220  87.759  26.747  1.00 24.61 LIG-0.27  OA
BRANCH 20 22
ATOM     22  CA  ASN B   1      56.856  90.068  26.441  1.00 32.89 LIG 0.28  C 
BRANCH 22 23
ATOM     23  CB  ASN B   1      56.155  89.839  25.101  1.00 38.07 LIG 0.14  C 
BRANCH 23 24
ATOM     24  CG  ASN B   1      54.687  89.748  25.239  1.00 44.05 LIG 0.22  C 
ATOM     25  ND2 ASN B   1      54.009  90.789  24.833  1.00 47.62 LIG-0.37  N 
ATOM     26 21HD ASN B   1      53.150  90.786  24.876  1.00 47.62 LIG 0.16  HD
ATOM     27 22HD ASN B   1      54.421  91.477  24.524  1.00 47.62 LIG 0.16  HD
ATOM     28 OD1  ASN B   1      54.149  88.729  25.693  1.00 47.48 LIG-0.27  OA
ENDBRANCH 23 24
ENDBRANCH 22 23
BRANCH 22 29
ATOM     29  N   ASN B   1      58.226  90.614  26.217  1.00 44.58 LIG-0.07  N 
ATOM     30 H1   ASN B   1      58.311  90.867  25.368  1.00 44.58 LIG 0.28  HD
ATOM     31 H3   ASN B   1      58.830  89.987  26.401  1.00 44.58 LIG 0.28  HD
ATOM     32 H2   ASN B   1      58.357  91.316  26.749  1.00 44.58 LIG 0.28  HD
ENDBRANCH 22 29
ENDBRANCH 20 22
ENDBRANCH 5 18
ENDBRANCH 1 5
BRANCH 3 33
ATOM     33  CA  LEU B   3      53.853  86.301  31.959  1.00 27.74 LIG 0.18  C 
BRANCH 33 34
ATOM     34  C   LEU B   3      54.370  87.060  33.117  1.00 25.40 LIG 0.24  C 
ATOM     35 O    LEU B   3      55.520  87.479  33.132  1.00 26.81 LIG-0.27  OA
ATOM     36  N   ILE B   4      53.540  87.260  34.112  1.00 26.13 LIG-0.35  N 
ATOM     37 H    ILE B   4      52.704  87.060  34.099  1.00 26.13 LIG 0.16  HD
BRANCH 36 38
ATOM     38  CA  ILE B   4      53.992  87.833  35.294  1.00 24.17 LIG 0.18  C 
BRANCH 38 39
ATOM     39  CB  ILE B   4      53.238  89.170  35.452  1.00 29.09 LIG 0.01  C 
ATOM     40  CG2 ILE B   4      53.927  89.964  36.509  1.00 25.20 LIG 0.01  C 
BRANCH 39 41
ATOM     41  CG1 ILE B   4      53.257  90.012  34.184  1.00 28.67 LIG 0.00  C 
ATOM     42  CD1 ILE B   4      51.991  89.859  33.378  1.00 34.41 LIG 0.01  C 
ENDBRANCH 39 41
ENDBRANCH 38 39
BRANCH 38 43
ATOM     43  C   ILE B   4      53.846  86.886  36.490  1.00 29.58 LIG 0.24  C 
ATOM     44  N   LEU B   5      54.483  87.262  37.592  1.00 36.70 LIG-0.35  N 
ATOM     45 H    LEU B   5      55.034  87.921  37.626  1.00 36.70 LIG 0.16  HD
ATOM     46 O    ILE B   4      53.174  85.812  36.417  1.00 23.70 LIG-0.27  OA
BRANCH 44 47
ATOM     47  CA  LEU B   5      54.296  86.578  38.847  1.00 37.00 LIG 0.16  C 
BRANCH 47 48
ATOM     48  C   LEU B   5      53.903  87.566  39.964  1.00 42.59 LIG 0.22  C 
ATOM     49 O    LEU B   5      54.777  88.206  40.607  1.00 38.80 LIG-0.29  OA
ENDBRANCH 47 48
BRANCH 47 50
ATOM     50  CB  LEU B   5      55.603  85.884  39.205  1.00 50.59 LIG 0.04  C 
BRANCH 50 51
ATOM     51  CG  LEU B   5      55.904  84.612  38.435  1.00 50.85 LIG-0.02  C 
ATOM     52  CD1 LEU B   5      57.007  83.870  39.157  1.00 54.07 LIG 0.01  C 
ATOM     53  CD2 LEU B   5      54.616  83.797  38.398  1.00 54.33 LIG 0.01  C 
ENDBRANCH 50 51
ENDBRANCH 47 50
ENDBRANCH 44 47
ENDBRANCH 38 43
ENDBRANCH 36 38
ENDBRANCH 33 34
BRANCH 33 54
ATOM     54  CB  LEU B   3      53.694  84.857  32.373  1.00 34.11 LIG 0.04  C 
BRANCH 54 55
ATOM     55  CG  LEU B   3      52.258  84.639  32.712  1.00 35.49 LIG-0.02  C 
ATOM     56  CD1 LEU B   3      51.587  83.968  31.530  1.00 39.12 LIG 0.01  C 
ATOM     57  CD2 LEU B   3      52.327  83.704  33.893  1.00 34.32 LIG 0.01  C 
ENDBRANCH 54 55
ENDBRANCH 33 54
ENDBRANCH 3 33
TORSDOF 22
ENDMDL
MODEL 13
USER: ADFR SOLUTION from run 100
USER: SCORE 20.119025 LL:  -3.183 LR: -17.518 RR:   0.000 FEB: -10.956
USER: RMSD 5.922834
USER: SEED 99
USER: STATUS no improvement in best in 4 clusters for 5 generations
USER: GENES 24
USER: genes 0 Translation |==|  0.48238 0.60191 0.39873
USER: genes 1 Rotation |==|  0.49542 0.46538 0.99853 0.51570
USER: genes 2 Torsion [N]-C--CA-[N] |==|  0.38667
USER: genes 3 Torsion [C]-CA--CB-[CG] |==|  0.73934
USER: genes 4 Torsion [CA]-CB--CG-[CD] |==|  0.57844
USER: genes 5 Torsion [CB]-CG--CD-[NE] |==|  0.37242
USER: genes 6 Torsion [CG]-CD--NE-[HE] |==|  0.06349
USER: genes 7 Torsion [C]-CA--N-[C] |==|  0.78462
USER: genes 8 Torsion [N]-C--CA-[N] |==|  0.93705
USER: genes 9 Torsion [C]-CA--CB-[CG] |==|  0.25689
USER: genes 10 Torsion [CA]-CB--CG-[OD1] |==|  0.08158
USER: genes 11 Torsion [C]-CA--N-[H1] |==|  0.41994
USER: genes 12 Torsion [C]-N--CA-[CB] |==|  0.86571
USER: genes 13 Torsion [N]-CA--C-[N] |==|  0.36244
USER: genes 14 Torsion [C]-N--CA-[C] |==|  0.70103
USER: genes 15 Torsion [N]-CA--CB-[CG1] |==|  0.20083
USER: genes 16 Torsion [CA]-CB--CG1-[CD1] |==|  0.29894
USER: genes 17 Torsion [N]-CA--C-[N] |==|  0.52020
USER: genes 18 Torsion [C]-N--CA-[C] |==|  0.18877
USER: genes 19 Torsion [N]-CA--C-[O] |==|  0.55693
USER: genes 20 Torsion [N]-CA--CB-[CG] |==|  0.59864
USER: genes 21 Torsion [CA]-CB--CG-[CD1] |==|  0.31671
USER: genes 22 Torsion [N]-CA--CB-[CG] |==|  0.52846
USER: genes 23 Torsion [CA]-CB--CG-[CD1] |==|  0.19016
ROOT
ATOM      1  C   ARG B   2      56.637  88.888  27.551  1.00 25.54 LIG 0.24  C 
ATOM      2 O    ARG B   2      56.340  89.936  28.205  1.00 21.45 LIG-0.27  OA
ATOM      3  N   LEU B   3      56.826  87.721  28.148  1.00 32.00 LIG-0.35  N 
ATOM      4 H    LEU B   3      56.924  86.975  27.731  1.00 32.00 LIG 0.16  HD
ENDROOT
BRANCH 1 5
ATOM      5  CA  ARG B   2      56.828  88.904  26.041  1.00 29.44 LIG 0.18  C 
BRANCH 5 6
ATOM      6  CB  ARG B   2      58.246  89.455  25.690  1.00 37.02 LIG 0.04  C 
BRANCH 6 7
ATOM      7  CG  ARG B   2      58.269  90.957  25.408  1.00 39.92 LIG 0.02  C 
BRANCH 7 8
ATOM      8  CD  ARG B   2      59.408  91.306  24.442  1.00 40.77 LIG 0.14  C 
BRANCH 8 9
ATOM      9  NE  ARG B   2      58.821  92.208  23.439  1.00 48.07 LIG-0.23  N 
ATOM     10 HE   ARG B   2      58.113  92.630  23.683  1.00 48.07 LIG 0.18  HD
ATOM     11  CZ  ARG B   2      59.251  92.455  22.194  1.00 44.36 LIG 0.67  C 
ATOM     12  NH1 ARG B   2      58.548  93.348  21.472  1.00 36.12 LIG-0.23  N 
ATOM     13  NH2 ARG B   2      60.344  91.852  21.671  1.00 39.61 LIG-0.23  N 
ATOM     14 1HH1 ARG B   2      57.858  93.731  21.814  1.00 36.12 LIG 0.17  HD
ATOM     15 2HH1 ARG B   2      58.789  93.537  20.669  1.00 36.12 LIG 0.17  HD
ATOM     16 1HH2 ARG B   2      60.789  91.288  22.142  1.00 39.61 LIG 0.17  HD
ATOM     17 2HH2 ARG B   2      60.592  92.033  20.868  1.00 39.61 LIG 0.17  HD
ENDBRANCH 8 9
ENDBRANCH 7 8
ENDBRANCH 6 7
ENDBRANCH 5 6
BRANCH 5 18
ATOM     18  N   ARG B   2      55.797  89.727  25.383  1.00 32.37 LIG-0.35  N 
ATOM     19 H    ARG B   2      56.042  90.510  25.127  1.00 32.37 LIG 0.16  HD
ATOM     20  C   ASN B   1      54.594  89.205  25.239  1.00 31.22 LIG 0.25  C 
ATOM     21 O    ASN B   1      54.335  88.110  25.691  1.00 24.61 LIG-0.27  OA
BRANCH 20 22
ATOM     22  CA  ASN B   1      53.497  89.991  24.544  1.00 32.89 LIG 0.28  C 
BRANCH 22 23
ATOM     23  CB  ASN B   1      53.400  89.434  23.123  1.00 38.07 LIG 0.14  C 
BRANCH 23 24
ATOM     24  CG  ASN B   1      52.399  88.353  23.007  1.00 44.05 LIG 0.22  C 
ATOM     25  ND2 ASN B   1      52.646  87.439  22.107  1.00 47.62 LIG-0.37  N 
ATOM     26 21HD ASN B   1      52.106  86.778  22.006  1.00 47.62 LIG 0.16  HD
ATOM     27 22HD ASN B   1      53.349  87.497  21.615  1.00 47.62 LIG 0.16  HD
ATOM     28 OD1  ASN B   1      51.403  88.321  23.744  1.00 47.48 LIG-0.27  OA
ENDBRANCH 23 24
ENDBRANCH 22 23
BRANCH 22 29
ATOM     29  N   ASN B   1      53.632  91.477  24.504  1.00 44.58 LIG-0.07  N 
ATOM     30 H1   ASN B   1      53.227  91.793  23.777  1.00 44.58 LIG 0.28  HD
ATOM     31 H3   ASN B   1      54.494  91.697  24.482  1.00 44.58 LIG 0.28  HD
ATOM     32 H2   ASN B   1      53.255  91.829  25.230  1.00 44.58 LIG 0.28  HD
ENDBRANCH 22 29
ENDBRANCH 20 22
ENDBRANCH 5 18
ENDBRANCH 1 5
BRANCH 3 33
ATOM     33  CA  LEU B   3      56.881  87.616  29.598  1.00 27.74 LIG 0.18  C 
BRANCH 33 34
ATOM     34  C   LEU B   3      55.549  87.848  30.198  1.00 25.40 LIG 0.24  C 
ATOM     35 O    LEU B   3      54.877  88.820  29.879  1.00 26.81 LIG-0.27  OA
ATOM     36  N   ILE B   4      55.133  86.966  31.074  1.00 26.13 LIG-0.35  N 
ATOM     37 H    ILE B   4      55.537  86.229  31.255  1.00 26.13 LIG 0.16  HD
BRANCH 36 38
ATOM     38  CA  ILE B   4      53.963  87.191  31.788  1.00 24.17 LIG 0.18  C 
BRANCH 38 39
ATOM     39  CB  ILE B   4      53.078  85.943  31.588  1.00 29.09 LIG 0.01  C 
ATOM     40  CG2 ILE B   4      53.100  85.592  30.139  1.00 25.20 LIG 0.01  C 
BRANCH 39 41
ATOM     41  CG1 ILE B   4      53.592  84.727  32.345  1.00 28.67 LIG 0.00  C 
ATOM     42  CD1 ILE B   4      52.731  84.391  33.538  1.00 34.41 LIG 0.01  C 
ENDBRANCH 39 41
ENDBRANCH 38 39
BRANCH 38 43
ATOM     43  C   ILE B   4      54.238  87.535  33.256  1.00 29.58 LIG 0.24  C 
ATOM     44  N   LEU B   5      53.163  87.614  34.031  1.00 36.70 LIG-0.35  N 
ATOM     45 H    LEU B   5      52.356  87.590  33.735  1.00 36.70 LIG 0.16  HD
ATOM     46 O    ILE B   4      55.413  87.744  33.688  1.00 23.70 LIG-0.27  OA
BRANCH 44 47
ATOM     47  CA  LEU B   5      53.268  87.747  35.463  1.00 37.00 LIG 0.16  C 
BRANCH 47 48
ATOM     48  C   LEU B   5      53.854  89.119  35.852  1.00 42.59 LIG 0.22  C 
ATOM     49 O    LEU B   5      54.381  89.307  36.981  1.00 38.80 LIG-0.29  OA
ENDBRANCH 47 48
BRANCH 47 50
ATOM     50  CB  LEU B   5      54.171  86.632  35.974  1.00 50.59 LIG 0.04  C 
BRANCH 50 51
ATOM     51  CG  LEU B   5      53.798  86.053  37.326  1.00 50.85 LIG-0.02  C 
ATOM     52  CD1 LEU B   5      53.373  84.615  37.124  1.00 54.07 LIG 0.01  C 
ATOM     53  CD2 LEU B   5      55.036  86.149  38.210  1.00 54.33 LIG 0.01  C 
ENDBRANCH 50 51
ENDBRANCH 47 50
ENDBRANCH 44 47
ENDBRANCH 38 43
ENDBRANCH 36 38
ENDBRANCH 33 34
BRANCH 33 54
ATOM     54  CB  LEU B   3      57.822  88.680  30.112  1.00 34.11 LIG 0.04  C 
BRANCH 54 55
ATOM     55  CG  LEU B   3      58.067  88.408  31.558  1.00 35.49 LIG-0.02  C 
ATOM     56  CD1 LEU B   3      58.874  87.129  31.670  1.00 39.12 LIG 0.01  C 
ATOM     57  CD2 LEU B   3      58.884  89.598  31.993  1.00 34.32 LIG 0.01  C 
ENDBRANCH 54 55
ENDBRANCH 33 54
ENDBRANCH 3 33
TORSDOF 22
ENDMDL
MODEL 14
USER: ADFR SOLUTION from run 120
USER: SCORE 18.914433 LL:  -3.483 LR: -17.497 RR:   0.000 FEB: -10.934
USER: RMSD 11.196443
USER: SEED 119
USER: STATUS no improvement in best in 5 clusters for 5 generations
USER: GENES 24
USER: genes 0 Translation |==|  0.33114 0.44240 0.69191
USER: genes 1 Rotation |==|  0.67157 0.04163 0.59522 0.53727
USER: genes 2 Torsion [N]-C--CA-[N] |==|  0.49156
USER: genes 3 Torsion [C]-CA--CB-[CG] |==|  0.34263
USER: genes 4 Torsion [CA]-CB--CG-[CD] |==|  0.15309
USER: genes 5 Torsion [CB]-CG--CD-[NE] |==|  0.25125
USER: genes 6 Torsion [CG]-CD--NE-[HE] |==|  0.71710
USER: genes 7 Torsion [C]-CA--N-[C] |==|  0.77179
USER: genes 8 Torsion [N]-C--CA-[N] |==|  0.70254
USER: genes 9 Torsion [C]-CA--CB-[CG] |==|  0.61464
USER: genes 10 Torsion [CA]-CB--CG-[OD1] |==|  0.83925
USER: genes 11 Torsion [C]-CA--N-[H1] |==|  0.83188
USER: genes 12 Torsion [C]-N--CA-[CB] |==|  0.36058
USER: genes 13 Torsion [N]-CA--C-[N] |==|  0.28627
USER: genes 14 Torsion [C]-N--CA-[C] |==|  0.65002
USER: genes 15 Torsion [N]-CA--CB-[CG1] |==|  0.74772
USER: genes 16 Torsion [CA]-CB--CG1-[CD1] |==|  0.69644
USER: genes 17 Torsion [N]-CA--C-[N] |==|  0.37894
USER: genes 18 Torsion [C]-N--CA-[C] |==|  0.64373
USER: genes 19 Torsion [N]-CA--C-[O] |==|  0.19259
USER: genes 20 Torsion [N]-CA--CB-[CG] |==|  0.67646
USER: genes 21 Torsion [CA]-CB--CG-[CD1] |==|  0.46527
USER: genes 22 Torsion [N]-CA--CB-[CG] |==|  0.69951
USER: genes 23 Torsion [CA]-CB--CG-[CD1] |==|  0.05193
ROOT
ATOM      1  C   ARG B   2      53.461  85.897  33.928  1.00 25.54 LIG 0.24  C 
ATOM      2 O    ARG B   2      53.920  84.713  33.886  1.00 21.45 LIG-0.27  OA
ATOM      3  N   LEU B   3      52.964  86.494  32.855  1.00 32.00 LIG-0.35  N 
ATOM      4 H    LEU B   3      52.553  87.249  32.870  1.00 32.00 LIG 0.16  HD
ENDROOT
BRANCH 1 5
ATOM      5  CA  ARG B   2      53.478  86.726  35.205  1.00 29.44 LIG 0.18  C 
BRANCH 5 6
ATOM      6  CB  ARG B   2      54.367  87.993  35.006  1.00 37.02 LIG 0.04  C 
BRANCH 6 7
ATOM      7  CG  ARG B   2      53.634  89.307  35.275  1.00 39.92 LIG 0.02  C 
BRANCH 7 8
ATOM      8  CD  ARG B   2      53.017  89.301  36.679  1.00 40.77 LIG 0.14  C 
BRANCH 8 9
ATOM      9  NE  ARG B   2      54.041  89.866  37.570  1.00 48.07 LIG-0.23  N 
ATOM     10 HE   ARG B   2      54.483  89.298  38.041  1.00 48.07 LIG 0.18  HD
ATOM     11  CZ  ARG B   2      54.373  91.153  37.742  1.00 44.36 LIG 0.67  C 
ATOM     12  NH1 ARG B   2      55.370  91.416  38.607  1.00 36.12 LIG-0.23  N 
ATOM     13  NH2 ARG B   2      53.752  92.156  37.079  1.00 39.61 LIG-0.23  N 
ATOM     14 1HH1 ARG B   2      55.762  90.772  39.020  1.00 36.12 LIG 0.17  HD
ATOM     15 2HH1 ARG B   2      55.615  92.228  38.747  1.00 36.12 LIG 0.17  HD
ATOM     16 1HH2 ARG B   2      53.121  91.978  36.524  1.00 39.61 LIG 0.17  HD
ATOM     17 2HH2 ARG B   2      53.990  92.972  37.213  1.00 39.61 LIG 0.17  HD
ENDBRANCH 8 9
ENDBRANCH 7 8
ENDBRANCH 6 7
ENDBRANCH 5 6
BRANCH 5 18
ATOM     18  N   ARG B   2      53.983  85.937  36.344  1.00 32.37 LIG-0.35  N 
ATOM     19 H    ARG B   2      54.812  86.045  36.544  1.00 32.37 LIG 0.16  HD
ATOM     20  C   ASN B   1      53.135  85.137  36.961  1.00 31.22 LIG 0.25  C 
ATOM     21 O    ASN B   1      51.998  85.011  36.561  1.00 24.61 LIG-0.27  OA
BRANCH 20 22
ATOM     22  CA  ASN B   1      53.588  84.320  38.159  1.00 32.89 LIG 0.28  C 
BRANCH 22 23
ATOM     23  CB  ASN B   1      54.893  84.952  38.644  1.00 38.07 LIG 0.14  C 
BRANCH 23 24
ATOM     24  CG  ASN B   1      55.902  83.943  39.024  1.00 44.05 LIG 0.22  C 
ATOM     25  ND2 ASN B   1      57.050  84.019  38.404  1.00 47.62 LIG-0.37  N 
ATOM     26 21HD ASN B   1      57.680  83.466  38.596  1.00 47.62 LIG 0.16  HD
ATOM     27 22HD ASN B   1      57.176  84.621  37.803  1.00 47.62 LIG 0.16  HD
ATOM     28 OD1  ASN B   1      55.664  83.097  39.898  1.00 47.48 LIG-0.27  OA
ENDBRANCH 23 24
ENDBRANCH 22 23
BRANCH 22 29
ATOM     29  N   ASN B   1      53.769  82.852  37.965  1.00 44.58 LIG-0.07  N 
ATOM     30 H1   ASN B   1      52.995  82.487  37.718  1.00 44.58 LIG 0.28  HD
ATOM     31 H3   ASN B   1      54.041  82.483  38.727  1.00 44.58 LIG 0.28  HD
ATOM     32 H2   ASN B   1      54.378  82.709  37.331  1.00 44.58 LIG 0.28  HD
ENDBRANCH 22 29
ENDBRANCH 20 22
ENDBRANCH 5 18
ENDBRANCH 1 5
BRANCH 3 33
ATOM     33  CA  LEU B   3      53.084  85.893  31.536  1.00 27.74 LIG 0.18  C 
BRANCH 33 34
ATOM     34  C   LEU B   3      53.995  86.678  30.676  1.00 25.40 LIG 0.24  C 
ATOM     35 O    LEU B   3      53.627  87.728  30.164  1.00 26.81 LIG-0.27  OA
ATOM     36  N   ILE B   4      55.201  86.198  30.498  1.00 26.13 LIG-0.35  N 
ATOM     37 H    ILE B   4      55.522  85.515  30.911  1.00 26.13 LIG 0.16  HD
BRANCH 36 38
ATOM     38  CA  ILE B   4      56.064  86.798  29.589  1.00 24.17 LIG 0.18  C 
BRANCH 38 39
ATOM     39  CB  ILE B   4      57.150  87.514  30.419  1.00 29.09 LIG 0.01  C 
ATOM     40  CG2 ILE B   4      58.399  87.552  29.605  1.00 25.20 LIG 0.01  C 
BRANCH 39 41
ATOM     41  CG1 ILE B   4      56.789  88.958  30.741  1.00 28.67 LIG 0.00  C 
ATOM     42  CD1 ILE B   4      57.640  89.943  29.978  1.00 34.41 LIG 0.01  C 
ENDBRANCH 39 41
ENDBRANCH 38 39
BRANCH 38 43
ATOM     43  C   ILE B   4      56.615  85.798  28.567  1.00 29.58 LIG 0.24  C 
ATOM     44  N   LEU B   5      56.635  86.225  27.310  1.00 36.70 LIG-0.35  N 
ATOM     45 H    LEU B   5      56.270  86.957  27.047  1.00 36.70 LIG 0.16  HD
ATOM     46 O    ILE B   4      57.007  84.639  28.906  1.00 23.70 LIG-0.27  OA
BRANCH 44 47
ATOM     47  CA  LEU B   5      57.289  85.477  26.265  1.00 37.00 LIG 0.16  C 
BRANCH 47 48
ATOM     48  C   LEU B   5      58.269  86.367  25.475  1.00 42.59 LIG 0.22  C 
ATOM     49 O    LEU B   5      59.332  86.793  26.000  1.00 38.80 LIG-0.29  OA
ENDBRANCH 47 48
BRANCH 47 50
ATOM     50  CB  LEU B   5      56.215  84.933  25.333  1.00 50.59 LIG 0.04  C 
BRANCH 50 51
ATOM     51  CG  LEU B   5      56.107  83.421  25.267  1.00 50.85 LIG-0.02  C 
ATOM     52  CD1 LEU B   5      54.818  83.069  24.557  1.00 54.07 LIG 0.01  C 
ATOM     53  CD2 LEU B   5      57.322  82.919  24.497  1.00 54.33 LIG 0.01  C 
ENDBRANCH 50 51
ENDBRANCH 47 50
ENDBRANCH 44 47
ENDBRANCH 38 43
ENDBRANCH 36 38
ENDBRANCH 33 34
BRANCH 33 54
ATOM     54  CB  LEU B   3      51.717  85.887  30.894  1.00 34.11 LIG 0.04  C 
BRANCH 54 55
ATOM     55  CG  LEU B   3      51.232  84.478  30.872  1.00 35.49 LIG-0.02  C 
ATOM     56  CD1 LEU B   3      52.038  83.682  31.881  1.00 39.12 LIG 0.01  C 
ATOM     57  CD2 LEU B   3      49.796  84.606  31.313  1.00 34.32 LIG 0.01  C 
ENDBRANCH 54 55
ENDBRANCH 33 54
ENDBRANCH 3 33
TORSDOF 22
ENDMDL
MODEL 15
USER: ADFR SOLUTION from run 168
USER: SCORE 20.588816 LL:  -3.775 LR: -17.490 RR:   0.000 FEB: -10.927
USER: RMSD 10.022919
USER: SEED 167
USER: STATUS no improvement in best in 5 clusters for 5 generations
USER: GENES 24
USER: genes 0 Translation |==|  0.39106 0.57415 0.59925
USER: genes 1 Rotation |==|  0.86651 0.78977 0.67753 0.51350
USER: genes 2 Torsion [N]-C--CA-[N] |==|  0.83056
USER: genes 3 Torsion [C]-CA--CB-[CG] |==|  0.39177
USER: genes 4 Torsion [CA]-CB--CG-[CD] |==|  0.74323
USER: genes 5 Torsion [CB]-CG--CD-[NE] |==|  0.72104
USER: genes 6 Torsion [CG]-CD--NE-[HE] |==|  0.98719
USER: genes 7 Torsion [C]-CA--N-[C] |==|  0.67781
USER: genes 8 Torsion [N]-C--CA-[N] |==|  0.21312
USER: genes 9 Torsion [C]-CA--CB-[CG] |==|  0.57108
USER: genes 10 Torsion [CA]-CB--CG-[OD1] |==|  0.35296
USER: genes 11 Torsion [C]-CA--N-[H1] |==|  0.50117
USER: genes 12 Torsion [C]-N--CA-[CB] |==|  0.55003
USER: genes 13 Torsion [N]-CA--C-[N] |==|  0.43372
USER: genes 14 Torsion [C]-N--CA-[C] |==|  0.84444
USER: genes 15 Torsion [N]-CA--CB-[CG1] |==|  0.49546
USER: genes 16 Torsion [CA]-CB--CG1-[CD1] |==|  0.13236
USER: genes 17 Torsion [N]-CA--C-[N] |==|  0.89475
USER: genes 18 Torsion [C]-N--CA-[C] |==|  0.78388
USER: genes 19 Torsion [N]-CA--C-[O] |==|  0.81662
USER: genes 20 Torsion [N]-CA--CB-[CG] |==|  0.71935
USER: genes 21 Torsion [CA]-CB--CG-[CD1] |==|  0.21541
USER: genes 22 Torsion [N]-CA--CB-[CG] |==|  0.68774
USER: genes 23 Torsion [CA]-CB--CG-[CD1] |==|  0.65667
ROOT
ATOM      1  C   ARG B   2      54.719  88.367  31.913  1.00 25.54 LIG 0.24  C 
ATOM      2 O    ARG B   2      54.107  89.227  31.205  1.00 21.45 LIG-0.27  OA
ATOM      3  N   LEU B   3      55.990  88.064  31.700  1.00 32.00 LIG-0.35  N 
ATOM      4 H    LEU B   3      56.462  87.568  32.221  1.00 32.00 LIG 0.16  HD
ENDROOT
BRANCH 1 5
ATOM      5  CA  ARG B   2      54.029  87.602  33.033  1.00 29.44 LIG 0.18  C 
BRANCH 5 6
ATOM      6  CB  ARG B   2      54.751  87.878  34.389  1.00 37.02 LIG 0.04  C 
BRANCH 6 7
ATOM      7  CG  ARG B   2      53.797  88.022  35.575  1.00 39.92 LIG 0.02  C 
BRANCH 7 8
ATOM      8  CD  ARG B   2      53.424  89.494  35.788  1.00 40.77 LIG 0.14  C 
BRANCH 8 9
ATOM      9  NE  ARG B   2      54.266  89.965  36.899  1.00 48.07 LIG-0.23  N 
ATOM     10 HE   ARG B   2      54.757  89.369  37.276  1.00 48.07 LIG 0.18  HD
ATOM     11  CZ  ARG B   2      54.365  91.206  37.396  1.00 44.36 LIG 0.67  C 
ATOM     12  NH1 ARG B   2      55.232  91.390  38.409  1.00 36.12 LIG-0.23  N 
ATOM     13  NH2 ARG B   2      53.641  92.241  36.911  1.00 39.61 LIG-0.23  N 
ATOM     14 1HH1 ARG B   2      55.692  90.727  38.708  1.00 36.12 LIG 0.17  HD
ATOM     15 2HH1 ARG B   2      55.327  92.170  38.758  1.00 36.12 LIG 0.17  HD
ATOM     16 1HH2 ARG B   2      53.094  92.115  36.260  1.00 39.61 LIG 0.17  HD
ATOM     17 2HH2 ARG B   2      53.728  93.025  37.254  1.00 39.61 LIG 0.17  HD
ENDBRANCH 8 9
ENDBRANCH 7 8
ENDBRANCH 6 7
ENDBRANCH 5 6
BRANCH 5 18
ATOM     18  N   ARG B   2      54.018  86.153  32.760  1.00 32.37 LIG-0.35  N 
ATOM     19 H    ARG B   2      54.786  85.767  32.727  1.00 32.37 LIG 0.16  HD
ATOM     20  C   ASN B   1      52.848  85.569  32.589  1.00 31.22 LIG 0.25  C 
ATOM     21 O    ASN B   1      51.824  86.218  32.594  1.00 24.61 LIG-0.27  OA
BRANCH 20 22
ATOM     22  CA  ASN B   1      52.770  84.074  32.333  1.00 32.89 LIG 0.28  C 
BRANCH 22 23
ATOM     23  CB  ASN B   1      51.411  83.819  31.680  1.00 38.07 LIG 0.14  C 
BRANCH 23 24
ATOM     24  CG  ASN B   1      50.923  82.443  31.909  1.00 44.05 LIG 0.22  C 
ATOM     25  ND2 ASN B   1      51.757  81.483  31.608  1.00 47.62 LIG-0.37  N 
ATOM     26 21HD ASN B   1      51.532  80.663  31.735  1.00 47.62 LIG 0.16  HD
ATOM     27 22HD ASN B   1      52.531  81.671  31.283  1.00 47.62 LIG 0.16  HD
ATOM     28 OD1  ASN B   1      49.796  82.233  32.379  1.00 47.48 LIG-0.27  OA
ENDBRANCH 23 24
ENDBRANCH 22 23
BRANCH 22 29
ATOM     29  N   ASN B   1      52.958  83.163  33.500  1.00 44.58 LIG-0.07  N 
ATOM     30 H1   ASN B   1      52.898  82.317  33.230  1.00 44.58 LIG 0.28  HD
ATOM     31 H3   ASN B   1      52.329  83.325  34.108  1.00 44.58 LIG 0.28  HD
ATOM     32 H2   ASN B   1      53.761  83.302  33.859  1.00 44.58 LIG 0.28  HD
ENDBRANCH 22 29
ENDBRANCH 20 22
ENDBRANCH 5 18
ENDBRANCH 1 5
BRANCH 3 33
ATOM     33  CA  LEU B   3      56.700  88.564  30.533  1.00 27.74 LIG 0.18  C 
BRANCH 33 34
ATOM     34  C   LEU B   3      55.864  88.458  29.318  1.00 25.40 LIG 0.24  C 
ATOM     35 O    LEU B   3      54.950  87.646  29.252  1.00 26.81 LIG-0.27  OA
ATOM     36  N   ILE B   4      56.148  89.273  28.331  1.00 26.13 LIG-0.35  N 
ATOM     37 H    ILE B   4      56.720  89.913  28.375  1.00 26.13 LIG 0.16  HD
BRANCH 36 38
ATOM     38  CA  ILE B   4      55.507  89.135  27.106  1.00 24.17 LIG 0.18  C 
BRANCH 38 39
ATOM     39  CB  ILE B   4      56.040  90.266  26.200  1.00 29.09 LIG 0.01  C 
ATOM     40  CG2 ILE B   4      57.513  90.085  26.060  1.00 25.20 LIG 0.01  C 
BRANCH 39 41
ATOM     41  CG1 ILE B   4      55.453  90.222  24.796  1.00 28.67 LIG 0.00  C 
ATOM     42  CD1 ILE B   4      53.953  90.056  24.810  1.00 34.41 LIG 0.01  C 
ENDBRANCH 39 41
ENDBRANCH 38 39
BRANCH 38 43
ATOM     43  C   ILE B   4      55.675  87.730  26.519  1.00 29.58 LIG 0.24  C 
ATOM     44  N   LEU B   5      56.865  87.174  26.710  1.00 36.70 LIG-0.35  N 
ATOM     45 H    LEU B   5      57.543  87.591  27.035  1.00 36.70 LIG 0.16  HD
ATOM     46 O    ILE B   4      54.741  87.153  25.883  1.00 23.70 LIG-0.27  OA
BRANCH 44 47
ATOM     47  CA  LEU B   5      57.119  85.793  26.381  1.00 37.00 LIG 0.16  C 
BRANCH 47 48
ATOM     48  C   LEU B   5      56.544  84.851  27.457  1.00 42.59 LIG 0.22  C 
ATOM     49 O    LEU B   5      57.007  84.838  28.629  1.00 38.80 LIG-0.29  OA
ENDBRANCH 47 48
BRANCH 47 50
ATOM     50  CB  LEU B   5      58.626  85.604  26.277  1.00 50.59 LIG 0.04  C 
BRANCH 50 51
ATOM     51  CG  LEU B   5      59.189  85.571  24.868  1.00 50.85 LIG-0.02  C 
ATOM     52  CD1 LEU B   5      59.257  86.992  24.352  1.00 54.07 LIG 0.01  C 
ATOM     53  CD2 LEU B   5      60.575  84.943  24.955  1.00 54.33 LIG 0.01  C 
ENDBRANCH 50 51
ENDBRANCH 47 50
ENDBRANCH 44 47
ENDBRANCH 38 43
ENDBRANCH 36 38
ENDBRANCH 33 34
BRANCH 33 54
ATOM     54  CB  LEU B   3      57.934  87.718  30.332  1.00 34.11 LIG 0.04  C 
BRANCH 54 55
ATOM     55  CG  LEU B   3      59.122  88.576  30.605  1.00 35.49 LIG-0.02  C 
ATOM     56  CD1 LEU B   3      60.014  88.557  29.379  1.00 39.12 LIG 0.01  C 
ATOM     57  CD2 LEU B   3      58.514  89.942  30.805  1.00 34.32 LIG 0.01  C 
ENDBRANCH 54 55
ENDBRANCH 33 54
ENDBRANCH 3 33
TORSDOF 22
ENDMDL
MODEL 16
USER: ADFR SOLUTION from run 192
USER: SCORE 20.270318 LL:  -3.887 LR: -17.466 RR:   0.000 FEB: -10.904
USER: RMSD 10.843101
USER: SEED 191
USER: STATUS no improvement in best in 5 clusters for 5 generations
USER: GENES 24
USER: genes 0 Translation |==|  0.35151 0.52041 0.66736
USER: genes 1 Rotation |==|  0.90961 0.26778 0.63071 0.60586
USER: genes 2 Torsion [N]-C--CA-[N] |==|  0.84782
USER: genes 3 Torsion [C]-CA--CB-[CG] |==|  0.35432
USER: genes 4 Torsion [CA]-CB--CG-[CD] |==|  0.17413
USER: genes 5 Torsion [CB]-CG--CD-[NE] |==|  0.60237
USER: genes 6 Torsion [CG]-CD--NE-[HE] |==|  0.90953
USER: genes 7 Torsion [C]-CA--N-[C] |==|  0.67225
USER: genes 8 Torsion [N]-C--CA-[N] |==|  0.59544
USER: genes 9 Torsion [C]-CA--CB-[CG] |==|  0.80704
USER: genes 10 Torsion [CA]-CB--CG-[OD1] |==|  0.16120
USER: genes 11 Torsion [C]-CA--N-[H1] |==|  0.74227
USER: genes 12 Torsion [C]-N--CA-[CB] |==|  0.53670
USER: genes 13 Torsion [N]-CA--C-[N] |==|  0.32853
USER: genes 14 Torsion [C]-N--CA-[C] |==|  0.63587
USER: genes 15 Torsion [N]-CA--CB-[CG1] |==|  0.12413
USER: genes 16 Torsion [CA]-CB--CG1-[CD1] |==|  0.40877
USER: genes 17 Torsion [N]-CA--C-[N] |==|  0.41892
USER: genes 18 Torsion [C]-N--CA-[C] |==|  0.68916
USER: genes 19 Torsion [N]-CA--C-[O] |==|  0.01037
USER: genes 20 Torsion [N]-CA--CB-[CG] |==|  0.64583
USER: genes 21 Torsion [CA]-CB--CG-[CD1] |==|  0.88667
USER: genes 22 Torsion [N]-CA--CB-[CG] |==|  0.75885
USER: genes 23 Torsion [CA]-CB--CG-[CD1] |==|  0.24436
ROOT
ATOM      1  C   ARG B   2      53.889  87.360  33.394  1.00 25.54 LIG 0.24  C 
ATOM      2 O    ARG B   2      55.126  87.360  33.105  1.00 21.45 LIG-0.27  OA
ATOM      3  N   LEU B   3      53.022  86.588  32.757  1.00 32.00 LIG-0.35  N 
ATOM      4 H    LEU B   3      52.201  86.486  32.994  1.00 32.00 LIG 0.16  HD
ENDROOT
BRANCH 1 5
ATOM      5  CA  ARG B   2      53.309  88.268  34.470  1.00 29.44 LIG 0.18  C 
BRANCH 5 6
ATOM      6  CB  ARG B   2      52.767  87.411  35.656  1.00 37.02 LIG 0.04  C 
BRANCH 6 7
ATOM      7  CG  ARG B   2      53.309  87.836  37.020  1.00 39.92 LIG 0.02  C 
BRANCH 7 8
ATOM      8  CD  ARG B   2      52.873  89.270  37.348  1.00 40.77 LIG 0.14  C 
BRANCH 8 9
ATOM      9  NE  ARG B   2      54.010  89.884  38.051  1.00 48.07 LIG-0.23  N 
ATOM     10 HE   ARG B   2      54.481  89.354  38.538  1.00 48.07 LIG 0.18  HD
ATOM     11  CZ  ARG B   2      54.406  91.164  38.028  1.00 44.36 LIG 0.67  C 
ATOM     12  NH1 ARG B   2      55.502  91.477  38.745  1.00 36.12 LIG-0.23  N 
ATOM     13  NH2 ARG B   2      53.752  92.112  37.318  1.00 39.61 LIG-0.23  N 
ATOM     14 1HH1 ARG B   2      55.914  90.867  39.189  1.00 36.12 LIG 0.17  HD
ATOM     15 2HH1 ARG B   2      55.790  92.287  38.758  1.00 36.12 LIG 0.17  HD
ATOM     16 1HH2 ARG B   2      53.057  91.902  36.858  1.00 39.61 LIG 0.17  HD
ATOM     17 2HH2 ARG B   2      54.033  92.925  37.325  1.00 39.61 LIG 0.17  HD
ENDBRANCH 8 9
ENDBRANCH 7 8
ENDBRANCH 6 7
ENDBRANCH 5 6
BRANCH 5 18
ATOM     18  N   ARG B   2      52.226  89.109  33.928  1.00 32.37 LIG-0.35  N 
ATOM     19 H    ARG B   2      51.537  88.694  33.624  1.00 32.37 LIG 0.16  HD
ATOM     20  C   ASN B   1      52.395  90.417  33.950  1.00 31.22 LIG 0.25  C 
ATOM     21 O    ASN B   1      53.433  90.902  34.346  1.00 24.61 LIG-0.27  OA
BRANCH 20 22
ATOM     22  CA  ASN B   1      51.304  91.339  33.433  1.00 32.89 LIG 0.28  C 
BRANCH 22 23
ATOM     23  CB  ASN B   1      50.439  90.498  32.492  1.00 38.07 LIG 0.14  C 
BRANCH 23 24
ATOM     24  CG  ASN B   1      51.145  90.140  31.245  1.00 44.05 LIG 0.22  C 
ATOM     25  ND2 ASN B   1      50.587  90.547  30.135  1.00 47.62 LIG-0.37  N 
ATOM     26 21HD ASN B   1      50.962  90.380  29.379  1.00 47.62 LIG 0.16  HD
ATOM     27 22HD ASN B   1      49.846  90.981  30.159  1.00 47.62 LIG 0.16  HD
ATOM     28 OD1  ASN B   1      52.213  89.512  31.271  1.00 47.48 LIG-0.27  OA
ENDBRANCH 23 24
ENDBRANCH 22 23
BRANCH 22 29
ATOM     29  N   ASN B   1      51.728  92.598  32.754  1.00 44.58 LIG-0.07  N 
ATOM     30 H1   ASN B   1      51.763  93.259  33.348  1.00 44.58 LIG 0.28  HD
ATOM     31 H3   ASN B   1      51.142  92.803  32.116  1.00 44.58 LIG 0.28  HD
ATOM     32 H2   ASN B   1      52.533  92.483  32.392  1.00 44.58 LIG 0.28  HD
ENDBRANCH 22 29
ENDBRANCH 20 22
ENDBRANCH 5 18
ENDBRANCH 1 5
BRANCH 3 33
ATOM     33  CA  LEU B   3      53.410  85.835  31.574  1.00 27.74 LIG 0.18  C 
BRANCH 33 34
ATOM     34  C   LEU B   3      54.135  86.694  30.613  1.00 25.40 LIG 0.24  C 
ATOM     35 O    LEU B   3      53.595  87.671  30.111  1.00 26.81 LIG-0.27  OA
ATOM     36  N   ILE B   4      55.371  86.359  30.336  1.00 26.13 LIG-0.35  N 
ATOM     37 H    ILE B   4      55.810  85.736  30.734  1.00 26.13 LIG 0.16  HD
BRANCH 36 38
ATOM     38  CA  ILE B   4      56.067  87.025  29.335  1.00 24.17 LIG 0.18  C 
BRANCH 38 39
ATOM     39  CB  ILE B   4      57.036  87.996  30.043  1.00 29.09 LIG 0.01  C 
ATOM     40  CG2 ILE B   4      56.233  89.122  30.599  1.00 25.20 LIG 0.01  C 
BRANCH 39 41
ATOM     41  CG1 ILE B   4      57.765  87.352  31.215  1.00 28.67 LIG 0.00  C 
ATOM     42  CD1 ILE B   4      59.158  87.903  31.393  1.00 34.41 LIG 0.01  C 
ENDBRANCH 39 41
ENDBRANCH 38 39
BRANCH 38 43
ATOM     43  C   ILE B   4      56.750  86.058  28.362  1.00 29.58 LIG 0.24  C 
ATOM     44  N   LEU B   5      56.899  86.512  27.123  1.00 36.70 LIG-0.35  N 
ATOM     45 H    LEU B   5      56.548  87.241  26.834  1.00 36.70 LIG 0.16  HD
ATOM     46 O    ILE B   4      57.128  84.901  28.720  1.00 23.70 LIG-0.27  OA
BRANCH 44 47
ATOM     47  CA  LEU B   5      57.681  85.799  26.143  1.00 37.00 LIG 0.16  C 
BRANCH 47 48
ATOM     48  C   LEU B   5      58.961  86.579  25.781  1.00 42.59 LIG 0.22  C 
ATOM     49 O    LEU B   5      59.257  87.655  26.364  1.00 38.80 LIG-0.29  OA
ENDBRANCH 47 48
BRANCH 47 50
ATOM     50  CB  LEU B   5      56.819  85.609  24.902  1.00 50.59 LIG 0.04  C 
BRANCH 50 51
ATOM     51  CG  LEU B   5      56.713  84.186  24.388  1.00 50.85 LIG-0.02  C 
ATOM     52  CD1 LEU B   5      58.078  83.541  24.490  1.00 54.07 LIG 0.01  C 
ATOM     53  CD2 LEU B   5      55.692  83.469  25.264  1.00 54.33 LIG 0.01  C 
ENDBRANCH 50 51
ENDBRANCH 47 50
ENDBRANCH 44 47
ENDBRANCH 38 43
ENDBRANCH 36 38
ENDBRANCH 33 34
BRANCH 33 54
ATOM     54  CB  LEU B   3      52.155  85.331  30.903  1.00 34.11 LIG 0.04  C 
BRANCH 54 55
ATOM     55  CG  LEU B   3      51.796  84.028  31.533  1.00 35.49 LIG-0.02  C 
ATOM     56  CD1 LEU B   3      50.923  84.308  32.740  1.00 39.12 LIG 0.01  C 
ATOM     57  CD2 LEU B   3      51.010  83.333  30.450  1.00 34.32 LIG 0.01  C 
ENDBRANCH 54 55
ENDBRANCH 33 54
ENDBRANCH 3 33
TORSDOF 22
ENDMDL
MODEL 17
USER: ADFR SOLUTION from run 167
USER: SCORE 19.683894 LL:  -3.926 LR: -17.451 RR:   0.000 FEB: -10.888
USER: RMSD 3.964810
USER: SEED 166
USER: STATUS no improvement in best in 13 clusters for 5 generations
USER: GENES 24
USER: genes 0 Translation |==|  0.40247 0.46540 0.36929
USER: genes 1 Rotation |==|  0.53956 0.61306 0.59515 0.97602
USER: genes 2 Torsion [N]-C--CA-[N] |==|  0.25556
USER: genes 3 Torsion [C]-CA--CB-[CG] |==|  0.33019
USER: genes 4 Torsion [CA]-CB--CG-[CD] |==|  0.52449
USER: genes 5 Torsion [CB]-CG--CD-[NE] |==|  0.31910
USER: genes 6 Torsion [CG]-CD--NE-[HE] |==|  0.81782
USER: genes 7 Torsion [C]-CA--N-[C] |==|  0.65563
USER: genes 8 Torsion [N]-C--CA-[N] |==|  0.51123
USER: genes 9 Torsion [C]-CA--CB-[CG] |==|  0.85181
USER: genes 10 Torsion [CA]-CB--CG-[OD1] |==|  0.95448
USER: genes 11 Torsion [C]-CA--N-[H1] |==|  0.49792
USER: genes 12 Torsion [C]-N--CA-[CB] |==|  0.29350
USER: genes 13 Torsion [N]-CA--C-[N] |==|  0.36894
USER: genes 14 Torsion [C]-N--CA-[C] |==|  0.81946
USER: genes 15 Torsion [N]-CA--CB-[CG1] |==|  0.74708
USER: genes 16 Torsion [CA]-CB--CG1-[CD1] |==|  0.95371
USER: genes 17 Torsion [N]-CA--C-[N] |==|  0.38197
USER: genes 18 Torsion [C]-N--CA-[C] |==|  0.82737
USER: genes 19 Torsion [N]-CA--C-[O] |==|  0.48537
USER: genes 20 Torsion [N]-CA--CB-[CG] |==|  0.76070
USER: genes 21 Torsion [CA]-CB--CG-[CD1] |==|  0.83794
USER: genes 22 Torsion [N]-CA--CB-[CG] |==|  0.45582
USER: genes 23 Torsion [CA]-CB--CG-[CD1] |==|  0.31171
ROOT
ATOM      1  C   ARG B   2      54.959  86.328  26.911  1.00 25.54 LIG 0.24  C 
ATOM      2 O    ARG B   2      55.848  85.422  26.958  1.00 21.45 LIG-0.27  OA
ATOM      3  N   LEU B   3      54.733  87.141  27.931  1.00 32.00 LIG-0.35  N 
ATOM      4 H    LEU B   3      54.216  87.828  27.897  1.00 32.00 LIG 0.16  HD
ENDROOT
BRANCH 1 5
ATOM      5  CA  ARG B   2      54.068  86.525  25.692  1.00 29.44 LIG 0.18  C 
BRANCH 5 6
ATOM      6  CB  ARG B   2      53.801  85.151  25.001  1.00 37.02 LIG 0.04  C 
BRANCH 6 7
ATOM      7  CG  ARG B   2      52.324  84.759  24.962  1.00 39.92 LIG 0.02  C 
BRANCH 7 8
ATOM      8  CD  ARG B   2      52.164  83.315  24.472  1.00 40.77 LIG 0.14  C 
BRANCH 8 9
ATOM      9  NE  ARG B   2      51.611  82.563  25.609  1.00 48.07 LIG-0.23  N 
ATOM     10 HE   ARG B   2      52.123  82.491  26.296  1.00 48.07 LIG 0.18  HD
ATOM     11  CZ  ARG B   2      50.409  81.977  25.710  1.00 44.36 LIG 0.67  C 
ATOM     12  NH1 ARG B   2      50.126  81.364  26.875  1.00 36.12 LIG-0.23  N 
ATOM     13  NH2 ARG B   2      49.506  81.998  24.703  1.00 39.61 LIG-0.23  N 
ATOM     14 1HH1 ARG B   2      50.704  81.361  27.511  1.00 36.12 LIG 0.17  HD
ATOM     15 2HH1 ARG B   2      49.367  80.976  26.982  1.00 36.12 LIG 0.17  HD
ATOM     16 1HH2 ARG B   2      49.693  82.397  23.965  1.00 39.61 LIG 0.17  HD
ATOM     17 2HH2 ARG B   2      48.744  81.611  24.801  1.00 39.61 LIG 0.17  HD
ENDBRANCH 8 9
ENDBRANCH 7 8
ENDBRANCH 6 7
ENDBRANCH 5 6
BRANCH 5 18
ATOM     18  N   ARG B   2      54.683  87.455  24.728  1.00 32.37 LIG-0.35  N 
ATOM     19 H    ARG B   2      55.470  87.250  24.450  1.00 32.37 LIG 0.16  HD
ATOM     20  C   ASN B   1      53.988  88.518  24.371  1.00 31.22 LIG 0.25  C 
ATOM     21 O    ASN B   1      52.907  88.749  24.869  1.00 24.61 LIG-0.27  OA
BRANCH 20 22
ATOM     22  CA  ASN B   1      54.555  89.499  23.360  1.00 32.89 LIG 0.28  C 
BRANCH 22 23
ATOM     23  CB  ASN B   1      55.948  89.882  23.864  1.00 38.07 LIG 0.14  C 
BRANCH 23 24
ATOM     24  CG  ASN B   1      55.930  90.367  25.259  1.00 44.05 LIG 0.22  C 
ATOM     25  ND2 ASN B   1      57.089  90.418  25.862  1.00 47.62 LIG-0.37  N 
ATOM     26 21HD ASN B   1      57.141  90.707  26.670  1.00 47.62 LIG 0.16  HD
ATOM     27 22HD ASN B   1      57.800  90.164  25.450  1.00 47.62 LIG 0.16  HD
ATOM     28 OD1  ASN B   1      54.873  90.719  25.801  1.00 47.48 LIG-0.27  OA
ENDBRANCH 23 24
ENDBRANCH 22 23
BRANCH 22 29
ATOM     29  N   ASN B   1      53.759  90.727  23.068  1.00 44.58 LIG-0.07  N 
ATOM     30 H1   ASN B   1      54.193  91.228  22.474  1.00 44.58 LIG 0.28  HD
ATOM     31 H3   ASN B   1      53.643  91.191  23.819  1.00 44.58 LIG 0.28  HD
ATOM     32 H2   ASN B   1      52.966  90.495  22.737  1.00 44.58 LIG 0.28  HD
ENDBRANCH 22 29
ENDBRANCH 20 22
ENDBRANCH 5 18
ENDBRANCH 1 5
BRANCH 3 33
ATOM     33  CA  LEU B   3      55.366  86.923  29.223  1.00 27.74 LIG 0.18  C 
BRANCH 33 34
ATOM     34  C   LEU B   3      54.396  87.094  30.325  1.00 25.40 LIG 0.24  C 
ATOM     35 O    LEU B   3      53.645  88.061  30.357  1.00 26.81 LIG-0.27  OA
ATOM     36  N   ILE B   4      54.380  86.166  31.250  1.00 26.13 LIG-0.35  N 
ATOM     37 H    ILE B   4      54.827  85.432  31.214  1.00 26.13 LIG 0.16  HD
BRANCH 36 38
ATOM     38  CA  ILE B   4      53.604  86.329  32.390  1.00 24.17 LIG 0.18  C 
BRANCH 38 39
ATOM     39  CB  ILE B   4      53.600  84.969  33.120  1.00 29.09 LIG 0.01  C 
ATOM     40  CG2 ILE B   4      53.433  85.232  34.578  1.00 25.20 LIG 0.01  C 
BRANCH 39 41
ATOM     41  CG1 ILE B   4      52.443  84.076  32.696  1.00 28.67 LIG 0.00  C 
ATOM     42  CD1 ILE B   4      51.358  84.846  31.984  1.00 34.41 LIG 0.01  C 
ENDBRANCH 39 41
ENDBRANCH 38 39
BRANCH 38 43
ATOM     43  C   ILE B   4      54.082  87.502  33.253  1.00 29.58 LIG 0.24  C 
ATOM     44  N   LEU B   5      53.120  88.272  33.747  1.00 36.70 LIG-0.35  N 
ATOM     45 H    LEU B   5      52.292  88.208  33.523  1.00 36.70 LIG 0.16  HD
ATOM     46 O    ILE B   4      55.314  87.723  33.462  1.00 23.70 LIG-0.27  OA
BRANCH 44 47
ATOM     47  CA  LEU B   5      53.395  89.299  34.720  1.00 37.00 LIG 0.16  C 
BRANCH 47 48
ATOM     48  C   LEU B   5      53.964  88.695  36.020  1.00 42.59 LIG 0.22  C 
ATOM     49 O    LEU B   5      54.362  89.431  36.962  1.00 38.80 LIG-0.29  OA
ENDBRANCH 47 48
BRANCH 47 50
ATOM     50  CB  LEU B   5      52.091  90.030  35.014  1.00 50.59 LIG 0.04  C 
BRANCH 50 51
ATOM     51  CG  LEU B   5      51.753  91.172  34.076  1.00 50.85 LIG-0.02  C 
ATOM     52  CD1 LEU B   5      52.882  92.178  34.126  1.00 54.07 LIG 0.01  C 
ATOM     53  CD2 LEU B   5      51.600  90.575  32.682  1.00 54.33 LIG 0.01  C 
ENDBRANCH 50 51
ENDBRANCH 47 50
ENDBRANCH 44 47
ENDBRANCH 38 43
ENDBRANCH 36 38
ENDBRANCH 33 34
BRANCH 33 54
ATOM     54  CB  LEU B   3      56.460  87.950  29.393  1.00 34.11 LIG 0.04  C 
BRANCH 54 55
ATOM     55  CG  LEU B   3      56.834  87.980  30.836  1.00 35.49 LIG-0.02  C 
ATOM     56  CD1 LEU B   3      58.241  87.434  30.973  1.00 39.12 LIG 0.01  C 
ATOM     57  CD2 LEU B   3      56.794  89.451  31.166  1.00 34.32 LIG 0.01  C 
ENDBRANCH 54 55
ENDBRANCH 33 54
ENDBRANCH 3 33
TORSDOF 22
ENDMDL
MODEL 18
USER: ADFR SOLUTION from run 167
USER: SCORE 19.784943 LL:  -3.476 LR: -17.353 RR:   0.000 FEB: -10.790
USER: RMSD 4.684754
USER: SEED 166
USER: STATUS no improvement in best in 13 clusters for 5 generations
USER: GENES 24
USER: genes 0 Translation |==|  0.43356 0.56735 0.38870
USER: genes 1 Rotation |==|  0.57780 0.59078 0.35102 0.96207
USER: genes 2 Torsion [N]-C--CA-[N] |==|  0.06105
USER: genes 3 Torsion [C]-CA--CB-[CG] |==|  0.43939
USER: genes 4 Torsion [CA]-CB--CG-[CD] |==|  0.94173
USER: genes 5 Torsion [CB]-CG--CD-[NE] |==|  0.38209
USER: genes 6 Torsion [CG]-CD--NE-[HE] |==|  0.73410
USER: genes 7 Torsion [C]-CA--N-[C] |==|  0.18396
USER: genes 8 Torsion [N]-C--CA-[N] |==|  0.25118
USER: genes 9 Torsion [C]-CA--CB-[CG] |==|  0.27080
USER: genes 10 Torsion [CA]-CB--CG-[OD1] |==|  0.87100
USER: genes 11 Torsion [C]-CA--N-[H1] |==|  0.96366
USER: genes 12 Torsion [C]-N--CA-[CB] |==|  0.48889
USER: genes 13 Torsion [N]-CA--C-[N] |==|  0.38164
USER: genes 14 Torsion [C]-N--CA-[C] |==|  0.76638
USER: genes 15 Torsion [N]-CA--CB-[CG1] |==|  0.68214
USER: genes 16 Torsion [CA]-CB--CG1-[CD1] |==|  0.87607
USER: genes 17 Torsion [N]-CA--C-[N] |==|  0.46067
USER: genes 18 Torsion [C]-N--CA-[C] |==|  0.18716
USER: genes 19 Torsion [N]-CA--C-[O] |==|  0.55825
USER: genes 20 Torsion [N]-CA--CB-[CG] |==|  0.63896
USER: genes 21 Torsion [CA]-CB--CG-[CD1] |==|  0.30084
USER: genes 22 Torsion [N]-CA--CB-[CG] |==|  0.75056
USER: genes 23 Torsion [CA]-CB--CG-[CD1] |==|  0.36335
ROOT
ATOM      1  C   ARG B   2      55.612  88.240  27.333  1.00 25.54 LIG 0.24  C 
ATOM      2 O    ARG B   2      55.330  87.005  27.434  1.00 21.45 LIG-0.27  OA
ATOM      3  N   LEU B   3      56.231  88.898  28.301  1.00 32.00 LIG-0.35  N 
ATOM      4 H    LEU B   3      56.528  89.701  28.225  1.00 32.00 LIG 0.16  HD
ENDROOT
BRANCH 1 5
ATOM      5  CA  ARG B   2      55.230  89.059  26.108  1.00 29.44 LIG 0.18  C 
BRANCH 5 6
ATOM      6  CB  ARG B   2      55.393  88.195  24.818  1.00 37.02 LIG 0.04  C 
BRANCH 6 7
ATOM      7  CG  ARG B   2      54.568  88.698  23.633  1.00 39.92 LIG 0.02  C 
BRANCH 7 8
ATOM      8  CD  ARG B   2      53.414  89.583  24.118  1.00 40.77 LIG 0.14  C 
BRANCH 8 9
ATOM      9  NE  ARG B   2      53.368  90.725  23.193  1.00 48.07 LIG-0.23  N 
ATOM     10 HE   ARG B   2      53.784  91.433  23.448  1.00 48.07 LIG 0.18  HD
ATOM     11  CZ  ARG B   2      52.759  90.802  22.000  1.00 44.36 LIG 0.67  C 
ATOM     12  NH1 ARG B   2      52.883  91.961  21.326  1.00 36.12 LIG-0.23  N 
ATOM     13  NH2 ARG B   2      52.056  89.771  21.478  1.00 39.61 LIG-0.23  N 
ATOM     14 1HH1 ARG B   2      53.336  92.609  21.664  1.00 36.12 LIG 0.17  HD
ATOM     15 2HH1 ARG B   2      52.509  92.053  20.558  1.00 36.12 LIG 0.17  HD
ATOM     16 1HH2 ARG B   2      51.988  89.033  21.913  1.00 39.61 LIG 0.17  HD
ATOM     17 2HH2 ARG B   2      51.678  89.854  20.710  1.00 39.61 LIG 0.17  HD
ENDBRANCH 8 9
ENDBRANCH 7 8
ENDBRANCH 6 7
ENDBRANCH 5 6
BRANCH 5 18
ATOM     18  N   ARG B   2      56.058  90.274  26.001  1.00 32.37 LIG-0.35  N 
ATOM     19 H    ARG B   2      55.649  91.023  26.099  1.00 32.37 LIG 0.16  HD
ATOM     20  C   ASN B   1      57.347  90.120  25.767  1.00 31.22 LIG 0.25  C 
ATOM     21 O    ASN B   1      57.817  89.017  25.583  1.00 24.61 LIG-0.27  OA
BRANCH 20 22
ATOM     22  CA  ASN B   1      58.258  91.331  25.674  1.00 32.89 LIG 0.28  C 
BRANCH 22 23
ATOM     23  CB  ASN B   1      59.321  90.993  24.627  1.00 38.07 LIG 0.14  C 
BRANCH 23 24
ATOM     24  CG  ASN B   1      58.999  91.547  23.296  1.00 44.05 LIG 0.22  C 
ATOM     25  ND2 ASN B   1      59.983  92.137  22.669  1.00 47.62 LIG-0.37  N 
ATOM     26 21HD ASN B   1      59.857  92.465  21.884  1.00 47.62 LIG 0.16  HD
ATOM     27 22HD ASN B   1      60.756  92.197  23.041  1.00 47.62 LIG 0.16  HD
ATOM     28 OD1  ASN B   1      57.865  91.431  22.811  1.00 47.48 LIG-0.27  OA
ENDBRANCH 23 24
ENDBRANCH 22 23
BRANCH 22 29
ATOM     29  N   ASN B   1      58.908  91.804  26.932  1.00 44.58 LIG-0.07  N 
ATOM     30 H1   ASN B   1      58.522  91.411  27.631  1.00 44.58 LIG 0.28  HD
ATOM     31 H3   ASN B   1      58.817  92.686  27.000  1.00 44.58 LIG 0.28  HD
ATOM     32 H2   ASN B   1      59.773  91.595  26.915  1.00 44.58 LIG 0.28  HD
ENDBRANCH 22 29
ENDBRANCH 20 22
ENDBRANCH 5 18
ENDBRANCH 1 5
BRANCH 3 33
ATOM     33  CA  LEU B   3      56.460  88.287  29.601  1.00 27.74 LIG 0.18  C 
BRANCH 33 34
ATOM     34  C   LEU B   3      55.182  88.028  30.298  1.00 25.40 LIG 0.24  C 
ATOM     35 O    LEU B   3      54.282  88.858  30.289  1.00 26.81 LIG-0.27  OA
ATOM     36  N   ILE B   4      55.065  86.877  30.914  1.00 26.13 LIG-0.35  N 
ATOM     37 H    ILE B   4      55.638  86.237  30.867  1.00 26.13 LIG 0.16  HD
BRANCH 36 38
ATOM     38  CA  ILE B   4      53.957  86.621  31.712  1.00 24.17 LIG 0.18  C 
BRANCH 38 39
ATOM     39  CB  ILE B   4      53.714  85.098  31.654  1.00 29.09 LIG 0.01  C 
ATOM     40  CG2 ILE B   4      53.631  84.593  33.054  1.00 25.20 LIG 0.01  C 
BRANCH 39 41
ATOM     41  CG1 ILE B   4      52.400  84.737  30.975  1.00 28.67 LIG 0.00  C 
ATOM     42  CD1 ILE B   4      51.258  85.606  31.442  1.00 34.41 LIG 0.01  C 
ENDBRANCH 39 41
ENDBRANCH 38 39
BRANCH 38 43
ATOM     43  C   ILE B   4      54.125  87.175  33.131  1.00 29.58 LIG 0.24  C 
ATOM     44  N   LEU B   5      53.013  87.231  33.853  1.00 36.70 LIG-0.35  N 
ATOM     45 H    LEU B   5      52.228  87.082  33.537  1.00 36.70 LIG 0.16  HD
ATOM     46 O    ILE B   4      55.250  87.565  33.570  1.00 23.70 LIG-0.27  OA
BRANCH 44 47
ATOM     47  CA  LEU B   5      53.036  87.554  35.258  1.00 37.00 LIG 0.16  C 
BRANCH 47 48
ATOM     48  C   LEU B   5      53.470  89.016  35.485  1.00 42.59 LIG 0.22  C 
ATOM     49 O    LEU B   5      53.930  89.395  36.595  1.00 38.80 LIG-0.29  OA
ENDBRANCH 47 48
BRANCH 47 50
ATOM     50  CB  LEU B   5      54.016  86.609  35.942  1.00 50.59 LIG 0.04  C 
BRANCH 50 51
ATOM     51  CG  LEU B   5      53.493  85.903  37.178  1.00 50.85 LIG-0.02  C 
ATOM     52  CD1 LEU B   5      53.277  84.445  36.836  1.00 54.07 LIG 0.01  C 
ATOM     53  CD2 LEU B   5      54.546  86.070  38.267  1.00 54.33 LIG 0.01  C 
ENDBRANCH 50 51
ENDBRANCH 47 50
ENDBRANCH 44 47
ENDBRANCH 38 43
ENDBRANCH 36 38
ENDBRANCH 33 34
BRANCH 33 54
ATOM     54  CB  LEU B   3      57.268  89.248  30.439  1.00 34.11 LIG 0.04  C 
BRANCH 54 55
ATOM     55  CG  LEU B   3      58.711  88.955  30.201  1.00 35.49 LIG-0.02  C 
ATOM     56  CD1 LEU B   3      59.417  90.261  29.896  1.00 39.12 LIG 0.01  C 
ATOM     57  CD2 LEU B   3      59.166  88.395  31.525  1.00 34.32 LIG 0.01  C 
ENDBRANCH 54 55
ENDBRANCH 33 54
ENDBRANCH 3 33
TORSDOF 22
ENDMDL
MODEL 19
USER: ADFR SOLUTION from run 156
USER: SCORE 18.614553 LL:  -3.888 LR: -17.323 RR:   0.000 FEB: -10.760
USER: RMSD 6.370526
USER: SEED 155
USER: STATUS no improvement in best in 8 clusters for 5 generations
USER: GENES 24
USER: genes 0 Translation |==|  0.49266 0.62370 0.31694
USER: genes 1 Rotation |==|  0.22735 0.32538 0.83380 0.68371
USER: genes 2 Torsion [N]-C--CA-[N] |==|  0.98940
USER: genes 3 Torsion [C]-CA--CB-[CG] |==|  0.73779
USER: genes 4 Torsion [CA]-CB--CG-[CD] |==|  0.52979
USER: genes 5 Torsion [CB]-CG--CD-[NE] |==|  0.68140
USER: genes 6 Torsion [CG]-CD--NE-[HE] |==|  0.10088
USER: genes 7 Torsion [C]-CA--N-[C] |==|  0.68142
USER: genes 8 Torsion [N]-C--CA-[N] |==|  0.27299
USER: genes 9 Torsion [C]-CA--CB-[CG] |==|  0.52695
USER: genes 10 Torsion [CA]-CB--CG-[OD1] |==|  0.93212
USER: genes 11 Torsion [C]-CA--N-[H1] |==|  0.50078
USER: genes 12 Torsion [C]-N--CA-[CB] |==|  0.43451
USER: genes 13 Torsion [N]-CA--C-[N] |==|  0.11766
USER: genes 14 Torsion [C]-N--CA-[C] |==|  0.65812
USER: genes 15 Torsion [N]-CA--CB-[CG1] |==|  0.21918
USER: genes 16 Torsion [CA]-CB--CG1-[CD1] |==|  0.83350
USER: genes 17 Torsion [N]-CA--C-[N] |==|  0.63728
USER: genes 18 Torsion [C]-N--CA-[C] |==|  0.17584
USER: genes 19 Torsion [N]-CA--C-[O] |==|  0.27640
USER: genes 20 Torsion [N]-CA--CB-[CG] |==|  0.83711
USER: genes 21 Torsion [CA]-CB--CG-[CD1] |==|  0.42481
USER: genes 22 Torsion [N]-CA--CB-[CG] |==|  0.75949
USER: genes 23 Torsion [CA]-CB--CG-[CD1] |==|  0.62119
ROOT
ATOM      1  C   ARG B   2      56.853  89.296  25.772  1.00 25.54 LIG 0.24  C 
ATOM      2 O    ARG B   2      56.424  90.110  26.649  1.00 21.45 LIG-0.27  OA
ATOM      3  N   LEU B   3      56.038  88.496  25.103  1.00 32.00 LIG-0.35  N 
ATOM      4 H    LEU B   3      56.278  88.011  24.434  1.00 32.00 LIG 0.16  HD
ENDROOT
BRANCH 1 5
ATOM      5  CA  ARG B   2      58.335  89.159  25.452  1.00 29.44 LIG 0.18  C 
BRANCH 5 6
ATOM      6  CB  ARG B   2      58.880  90.500  24.867  1.00 37.02 LIG 0.04  C 
BRANCH 6 7
ATOM      7  CG  ARG B   2      58.873  90.553  23.340  1.00 39.92 LIG 0.02  C 
BRANCH 7 8
ATOM      8  CD  ARG B   2      59.658  91.772  22.840  1.00 40.77 LIG 0.14  C 
BRANCH 8 9
ATOM      9  NE  ARG B   2      58.673  92.641  22.180  1.00 48.07 LIG-0.23  N 
ATOM     10 HE   ARG B   2      57.893  92.666  22.541  1.00 48.07 LIG 0.18  HD
ATOM     11  CZ  ARG B   2      58.837  93.400  21.087  1.00 44.36 LIG 0.67  C 
ATOM     12  NH1 ARG B   2      57.779  94.131  20.688  1.00 36.12 LIG-0.23  N 
ATOM     13  NH2 ARG B   2      60.006  93.448  20.407  1.00 39.61 LIG-0.23  N 
ATOM     14 1HH1 ARG B   2      57.042  94.098  21.129  1.00 36.12 LIG 0.17  HD
ATOM     15 2HH1 ARG B   2      57.841  94.632  19.992  1.00 36.12 LIG 0.17  HD
ATOM     16 1HH2 ARG B   2      60.677  92.982  20.673  1.00 39.61 LIG 0.17  HD
ATOM     17 2HH2 ARG B   2      60.077  93.946  19.709  1.00 39.61 LIG 0.17  HD
ENDBRANCH 8 9
ENDBRANCH 7 8
ENDBRANCH 6 7
ENDBRANCH 5 6
BRANCH 5 18
ATOM     18  N   ARG B   2      58.572  88.065  24.492  1.00 32.37 LIG-0.35  N 
ATOM     19 H    ARG B   2      58.244  88.172  23.705  1.00 32.37 LIG 0.16  HD
ATOM     20  C   ASN B   1      59.260  87.020  24.910  1.00 31.22 LIG 0.25  C 
ATOM     21 O    ASN B   1      59.628  86.940  26.062  1.00 24.61 LIG-0.27  OA
BRANCH 20 22
ATOM     22  CA  ASN B   1      59.563  85.874  23.961  1.00 32.89 LIG 0.28  C 
BRANCH 22 23
ATOM     23  CB  ASN B   1      59.341  84.586  24.755  1.00 38.07 LIG 0.14  C 
BRANCH 23 24
ATOM     24  CG  ASN B   1      59.816  83.388  24.033  1.00 44.05 LIG 0.22  C 
ATOM     25  ND2 ASN B   1      60.106  82.351  24.774  1.00 47.62 LIG-0.37  N 
ATOM     26 21HD ASN B   1      60.373  81.621  24.406  1.00 47.62 LIG 0.16  HD
ATOM     27 22HD ASN B   1      60.030  82.398  25.629  1.00 47.62 LIG 0.16  HD
ATOM     28 OD1  ASN B   1      59.906  83.379  22.797  1.00 47.48 LIG-0.27  OA
ENDBRANCH 23 24
ENDBRANCH 22 23
BRANCH 22 29
ATOM     29  N   ASN B   1      60.905  85.852  23.310  1.00 44.58 LIG-0.07  N 
ATOM     30 H1   ASN B   1      60.966  85.142  22.777  1.00 44.58 LIG 0.28  HD
ATOM     31 H3   ASN B   1      61.538  85.808  23.935  1.00 44.58 LIG 0.28  HD
ATOM     32 H2   ASN B   1      61.015  86.593  22.830  1.00 44.58 LIG 0.28  HD
ENDBRANCH 22 29
ENDBRANCH 20 22
ENDBRANCH 5 18
ENDBRANCH 1 5
BRANCH 3 33
ATOM     33  CA  LEU B   3      54.633  88.379  25.463  1.00 27.74 LIG 0.18  C 
BRANCH 33 34
ATOM     34  C   LEU B   3      54.443  87.386  26.541  1.00 25.40 LIG 0.24  C 
ATOM     35 O    LEU B   3      53.519  86.585  26.503  1.00 26.81 LIG-0.27  OA
ATOM     36  N   ILE B   4      55.310  87.408  27.525  1.00 26.13 LIG-0.35  N 
ATOM     37 H    ILE B   4      56.019  87.894  27.542  1.00 26.13 LIG 0.16  HD
BRANCH 36 38
ATOM     38  CA  ILE B   4      55.115  86.609  28.645  1.00 24.17 LIG 0.18  C 
BRANCH 38 39
ATOM     39  CB  ILE B   4      56.217  85.529  28.613  1.00 29.09 LIG 0.01  C 
ATOM     40  CG2 ILE B   4      56.405  85.107  27.196  1.00 25.20 LIG 0.01  C 
BRANCH 39 41
ATOM     41  CG1 ILE B   4      57.562  86.045  29.103  1.00 28.67 LIG 0.00  C 
ATOM     42  CD1 ILE B   4      58.072  87.194  28.269  1.00 34.41 LIG 0.01  C 
ENDBRANCH 39 41
ENDBRANCH 38 39
BRANCH 38 43
ATOM     43  C   ILE B   4      55.076  87.427  29.940  1.00 29.58 LIG 0.24  C 
ATOM     44  N   LEU B   5      55.853  86.978  30.918  1.00 36.70 LIG-0.35  N 
ATOM     45 H    LEU B   5      56.269  86.226  30.893  1.00 36.70 LIG 0.16  HD
ATOM     46 O    ILE B   4      54.337  88.452  30.065  1.00 23.70 LIG-0.27  OA
BRANCH 44 47
ATOM     47  CA  LEU B   5      56.066  87.735  32.126  1.00 37.00 LIG 0.16  C 
BRANCH 47 48
ATOM     48  C   LEU B   5      54.750  87.916  32.908  1.00 42.59 LIG 0.22  C 
ATOM     49 O    LEU B   5      54.470  87.184  33.894  1.00 38.80 LIG-0.29  OA
ENDBRANCH 47 48
BRANCH 47 50
ATOM     50  CB  LEU B   5      56.631  89.095  31.737  1.00 50.59 LIG 0.04  C 
BRANCH 50 51
ATOM     51  CG  LEU B   5      57.933  89.068  30.959  1.00 50.85 LIG-0.02  C 
ATOM     52  CD1 LEU B   5      58.003  90.316  30.107  1.00 54.07 LIG 0.01  C 
ATOM     53  CD2 LEU B   5      59.063  89.027  31.981  1.00 54.33 LIG 0.01  C 
ENDBRANCH 50 51
ENDBRANCH 47 50
ENDBRANCH 44 47
ENDBRANCH 38 43
ENDBRANCH 36 38
ENDBRANCH 33 34
BRANCH 33 54
ATOM     54  CB  LEU B   3      53.872  87.906  24.247  1.00 34.11 LIG 0.04  C 
BRANCH 54 55
ATOM     55  CG  LEU B   3      53.503  89.109  23.447  1.00 35.49 LIG-0.02  C 
ATOM     56  CD1 LEU B   3      52.064  88.956  22.994  1.00 39.12 LIG 0.01  C 
ATOM     57  CD2 LEU B   3      53.636  90.233  24.444  1.00 34.32 LIG 0.01  C 
ENDBRANCH 54 55
ENDBRANCH 33 54
ENDBRANCH 3 33
TORSDOF 22
ENDMDL
MODEL 20
USER: ADFR SOLUTION from run 71
USER: SCORE 19.203745 LL:  -3.848 LR: -17.282 RR:   0.000 FEB: -10.720
USER: RMSD 4.835066
USER: SEED 70
USER: STATUS no improvement in best in 15 clusters for 5 generations
USER: GENES 24
USER: genes 0 Translation |==|  0.53147 0.50302 0.39856
USER: genes 1 Rotation |==|  0.57613 0.45326 0.60604 0.98039
USER: genes 2 Torsion [N]-C--CA-[N] |==|  0.22016
USER: genes 3 Torsion [C]-CA--CB-[CG] |==|  0.58738
USER: genes 4 Torsion [CA]-CB--CG-[CD] |==|  0.49535
USER: genes 5 Torsion [CB]-CG--CD-[NE] |==|  0.74536
USER: genes 6 Torsion [CG]-CD--NE-[HE] |==|  0.74740
USER: genes 7 Torsion [C]-CA--N-[C] |==|  0.70556
USER: genes 8 Torsion [N]-C--CA-[N] |==|  0.77993
USER: genes 9 Torsion [C]-CA--CB-[CG] |==|  0.25115
USER: genes 10 Torsion [CA]-CB--CG-[OD1] |==|  0.88755
USER: genes 11 Torsion [C]-CA--N-[H1] |==|  0.62791
USER: genes 12 Torsion [C]-N--CA-[CB] |==|  0.23885
USER: genes 13 Torsion [N]-CA--C-[N] |==|  0.41546
USER: genes 14 Torsion [C]-N--CA-[C] |==|  0.73414
USER: genes 15 Torsion [N]-CA--CB-[CG1] |==|  0.18032
USER: genes 16 Torsion [CA]-CB--CG1-[CD1] |==|  0.29746
USER: genes 17 Torsion [N]-CA--C-[N] |==|  0.54226
USER: genes 18 Torsion [C]-N--CA-[C] |==|  0.18326
USER: genes 19 Torsion [N]-CA--C-[O] |==|  0.55589
USER: genes 20 Torsion [N]-CA--CB-[CG] |==|  0.61715
USER: genes 21 Torsion [CA]-CB--CG-[CD1] |==|  0.31004
USER: genes 22 Torsion [N]-CA--CB-[CG] |==|  0.09531
USER: genes 23 Torsion [CA]-CB--CG-[CD1] |==|  0.32532
ROOT
ATOM      1  C   ARG B   2      57.668  87.034  27.548  1.00 25.54 LIG 0.24  C 
ATOM      2 O    ARG B   2      58.409  86.040  27.831  1.00 21.45 LIG-0.27  OA
ATOM      3  N   LEU B   3      56.878  87.597  28.449  1.00 32.00 LIG-0.35  N 
ATOM      4 H    LEU B   3      56.445  88.330  28.321  1.00 32.00 LIG 0.16  HD
ENDROOT
BRANCH 1 5
ATOM      5  CA  ARG B   2      57.610  87.626  26.146  1.00 29.44 LIG 0.18  C 
BRANCH 5 6
ATOM      6  CB  ARG B   2      58.142  86.589  25.108  1.00 37.02 LIG 0.04  C 
BRANCH 6 7
ATOM      7  CG  ARG B   2      58.832  87.225  23.901  1.00 39.92 LIG 0.02  C 
BRANCH 7 8
ATOM      8  CD  ARG B   2      59.360  86.143  22.952  1.00 40.77 LIG 0.14  C 
BRANCH 8 9
ATOM      9  NE  ARG B   2      60.743  85.877  23.376  1.00 48.07 LIG-0.23  N 
ATOM     10 HE   ARG B   2      61.351  86.349  22.991  1.00 48.07 LIG 0.18  HD
ATOM     11  CZ  ARG B   2      61.177  84.993  24.286  1.00 44.36 LIG 0.67  C 
ATOM     12  NH1 ARG B   2      62.503  84.955  24.515  1.00 36.12 LIG-0.23  N 
ATOM     13  NH2 ARG B   2      60.336  84.174  24.959  1.00 39.61 LIG-0.23  N 
ATOM     14 1HH1 ARG B   2      63.029  85.483  24.086  1.00 36.12 LIG 0.17  HD
ATOM     15 2HH1 ARG B   2      62.824  84.403  25.091  1.00 36.12 LIG 0.17  HD
ATOM     16 1HH2 ARG B   2      59.490  84.210  24.809  1.00 39.61 LIG 0.17  HD
ATOM     17 2HH2 ARG B   2      60.648  83.618  25.536  1.00 39.61 LIG 0.17  HD
ENDBRANCH 8 9
ENDBRANCH 7 8
ENDBRANCH 6 7
ENDBRANCH 5 6
BRANCH 5 18
ATOM     18  N   ARG B   2      58.403  88.866  26.061  1.00 32.37 LIG-0.35  N 
ATOM     19 H    ARG B   2      59.257  88.772  26.052  1.00 32.37 LIG 0.16  HD
ATOM     20  C   ASN B   1      57.748  90.010  26.004  1.00 31.22 LIG 0.25  C 
ATOM     21 O    ASN B   1      56.539  90.038  26.084  1.00 24.61 LIG-0.27  OA
BRANCH 20 22
ATOM     22  CA  ASN B   1      58.507  91.321  25.886  1.00 32.89 LIG 0.28  C 
BRANCH 22 23
ATOM     23  CB  ASN B   1      59.589  91.099  24.828  1.00 38.07 LIG 0.14  C 
BRANCH 23 24
ATOM     24  CG  ASN B   1      59.127  91.440  23.467  1.00 44.05 LIG 0.22  C 
ATOM     25  ND2 ASN B   1      59.998  92.043  22.701  1.00 47.62 LIG-0.37  N 
ATOM     26 21HD ASN B   1      59.788  92.252  21.894  1.00 47.62 LIG 0.16  HD
ATOM     27 22HD ASN B   1      60.780  92.231  23.004  1.00 47.62 LIG 0.16  HD
ATOM     28 OD1  ASN B   1      57.986  91.144  23.085  1.00 47.48 LIG-0.27  OA
ENDBRANCH 23 24
ENDBRANCH 22 23
BRANCH 22 29
ATOM     29  N   ASN B   1      59.112  91.883  27.129  1.00 44.58 LIG-0.07  N 
ATOM     30 H1   ASN B   1      58.928  92.752  27.183  1.00 44.58 LIG 0.28  HD
ATOM     31 H3   ASN B   1      59.994  91.767  27.108  1.00 44.58 LIG 0.28  HD
ATOM     32 H2   ASN B   1      58.774  91.464  27.839  1.00 44.58 LIG 0.28  HD
ENDBRANCH 22 29
ENDBRANCH 20 22
ENDBRANCH 5 18
ENDBRANCH 1 5
BRANCH 3 33
ATOM     33  CA  LEU B   3      56.682  86.998  29.760  1.00 27.74 LIG 0.18  C 
BRANCH 33 34
ATOM     34  C   LEU B   3      55.392  87.417  30.347  1.00 25.40 LIG 0.24  C 
ATOM     35 O    LEU B   3      54.908  88.511  30.086  1.00 26.81 LIG-0.27  OA
ATOM     36  N   ILE B   4      54.802  86.565  31.149  1.00 26.13 LIG-0.35  N 
ATOM     37 H    ILE B   4      55.066  85.758  31.285  1.00 26.13 LIG 0.16  HD
BRANCH 36 38
ATOM     38  CA  ILE B   4      53.666  86.941  31.854  1.00 24.17 LIG 0.18  C 
BRANCH 38 39
ATOM     39  CB  ILE B   4      52.694  85.744  31.798  1.00 29.09 LIG 0.01  C 
ATOM     40  CG2 ILE B   4      52.521  85.361  30.367  1.00 25.20 LIG 0.01  C 
BRANCH 39 41
ATOM     41  CG1 ILE B   4      53.228  84.516  32.523  1.00 28.67 LIG 0.00  C 
ATOM     42  CD1 ILE B   4      52.509  84.265  33.825  1.00 34.41 LIG 0.01  C 
ENDBRANCH 39 41
ENDBRANCH 38 39
BRANCH 38 43
ATOM     43  C   ILE B   4      53.996  87.414  33.274  1.00 29.58 LIG 0.24  C 
ATOM     44  N   LEU B   5      52.961  87.488  34.102  1.00 36.70 LIG-0.35  N 
ATOM     45 H    LEU B   5      52.143  87.393  33.857  1.00 36.70 LIG 0.16  HD
ATOM     46 O    ILE B   4      55.176  87.726  33.621  1.00 23.70 LIG-0.27  OA
BRANCH 44 47
ATOM     47  CA  LEU B   5      53.133  87.737  35.512  1.00 37.00 LIG 0.16  C 
BRANCH 47 48
ATOM     48  C   LEU B   5      53.696  89.151  35.761  1.00 42.59 LIG 0.22  C 
ATOM     49 O    LEU B   5      54.267  89.444  36.846  1.00 38.80 LIG-0.29  OA
ENDBRANCH 47 48
BRANCH 47 50
ATOM     50  CB  LEU B   5      54.094  86.691  36.061  1.00 50.59 LIG 0.04  C 
BRANCH 50 51
ATOM     51  CG  LEU B   5      53.719  86.097  37.406  1.00 50.85 LIG-0.02  C 
ATOM     52  CD1 LEU B   5      53.342  84.646  37.195  1.00 54.07 LIG 0.01  C 
ATOM     53  CD2 LEU B   5      54.940  86.229  38.309  1.00 54.33 LIG 0.01  C 
ENDBRANCH 50 51
ENDBRANCH 47 50
ENDBRANCH 44 47
ENDBRANCH 38 43
ENDBRANCH 36 38
ENDBRANCH 33 34
BRANCH 33 54
ATOM     54  CB  LEU B   3      57.792  87.474  30.667  1.00 34.11 LIG 0.04  C 
BRANCH 54 55
ATOM     55  CG  LEU B   3      58.126  88.874  30.278  1.00 35.49 LIG-0.02  C 
ATOM     56  CD1 LEU B   3      57.823  89.780  31.455  1.00 39.12 LIG 0.01  C 
ATOM     57  CD2 LEU B   3      59.611  88.808  30.019  1.00 34.32 LIG 0.01  C 
ENDBRANCH 54 55
ENDBRANCH 33 54
ENDBRANCH 3 33
TORSDOF 22
ENDMDL
MODEL 21
USER: ADFR SOLUTION from run 139
USER: SCORE 19.647430 LL:  -3.922 LR: -17.250 RR:   0.000 FEB: -10.687
USER: RMSD 5.725264
USER: SEED 138
USER: STATUS no improvement in best in 4 clusters for 5 generations
USER: GENES 24
USER: genes 0 Translation |==|  0.39461 0.54432 0.31691
USER: genes 1 Rotation |==|  0.25656 0.57083 0.16156 0.76679
USER: genes 2 Torsion [N]-C--CA-[N] |==|  0.88456
USER: genes 3 Torsion [C]-CA--CB-[CG] |==|  0.31343
USER: genes 4 Torsion [CA]-CB--CG-[CD] |==|  0.44494
USER: genes 5 Torsion [CB]-CG--CD-[NE] |==|  0.47616
USER: genes 6 Torsion [CG]-CD--NE-[HE] |==|  0.95250
USER: genes 7 Torsion [C]-CA--N-[C] |==|  0.79763
USER: genes 8 Torsion [N]-C--CA-[N] |==|  0.49002
USER: genes 9 Torsion [C]-CA--CB-[CG] |==|  0.22406
USER: genes 10 Torsion [CA]-CB--CG-[OD1] |==|  0.15826
USER: genes 11 Torsion [C]-CA--N-[H1] |==|  0.05426
USER: genes 12 Torsion [C]-N--CA-[CB] |==|  0.82398
USER: genes 13 Torsion [N]-CA--C-[N] |==|  0.71680
USER: genes 14 Torsion [C]-N--CA-[C] |==|  0.65853
USER: genes 15 Torsion [N]-CA--CB-[CG1] |==|  0.55186
USER: genes 16 Torsion [CA]-CB--CG1-[CD1] |==|  0.40596
USER: genes 17 Torsion [N]-CA--C-[N] |==|  0.38721
USER: genes 18 Torsion [C]-N--CA-[C] |==|  0.78780
USER: genes 19 Torsion [N]-CA--C-[O] |==|  0.92625
USER: genes 20 Torsion [N]-CA--CB-[CG] |==|  0.49617
USER: genes 21 Torsion [CA]-CB--CG-[CD1] |==|  0.35131
USER: genes 22 Torsion [N]-CA--CB-[CG] |==|  0.71567
USER: genes 23 Torsion [CA]-CB--CG-[CD1] |==|  0.67935
ROOT
ATOM      1  C   ARG B   2      54.794  87.808  25.772  1.00 25.54 LIG 0.24  C 
ATOM      2 O    ARG B   2      54.574  88.104  26.988  1.00 21.45 LIG-0.27  OA
ATOM      3  N   LEU B   3      56.006  87.872  25.244  1.00 32.00 LIG-0.35  N 
ATOM      4 H    LEU B   3      56.208  87.582  24.459  1.00 32.00 LIG 0.16  HD
ENDROOT
BRANCH 1 5
ATOM      5  CA  ARG B   2      53.676  87.390  24.827  1.00 29.44 LIG 0.18  C 
BRANCH 5 6
ATOM      6  CB  ARG B   2      53.676  85.838  24.655  1.00 37.02 LIG 0.04  C 
BRANCH 6 7
ATOM      7  CG  ARG B   2      52.447  85.154  25.252  1.00 39.92 LIG 0.02  C 
BRANCH 7 8
ATOM      8  CD  ARG B   2      52.259  83.759  24.643  1.00 40.77 LIG 0.14  C 
BRANCH 8 9
ATOM      9  NE  ARG B   2      51.192  83.118  25.427  1.00 48.07 LIG-0.23  N 
ATOM     10 HE   ARG B   2      51.018  83.479  26.189  1.00 48.07 LIG 0.18  HD
ATOM     11  CZ  ARG B   2      50.458  82.044  25.107  1.00 44.36 LIG 0.67  C 
ATOM     12  NH1 ARG B   2      49.518  81.661  25.992  1.00 36.12 LIG-0.23  N 
ATOM     13  NH2 ARG B   2      50.632  81.366  23.949  1.00 39.61 LIG-0.23  N 
ATOM     14 1HH1 ARG B   2      49.411  82.101  26.723  1.00 36.12 LIG 0.17  HD
ATOM     15 2HH1 ARG B   2      49.024  80.977  25.825  1.00 36.12 LIG 0.17  HD
ATOM     16 1HH2 ARG B   2      51.231  81.622  23.387  1.00 39.61 LIG 0.17  HD
ATOM     17 2HH2 ARG B   2      50.143  80.680  23.774  1.00 39.61 LIG 0.17  HD
ENDBRANCH 8 9
ENDBRANCH 7 8
ENDBRANCH 6 7
ENDBRANCH 5 6
BRANCH 5 18
ATOM     18  N   ARG B   2      53.823  88.036  23.510  1.00 32.37 LIG-0.35  N 
ATOM     19 H    ARG B   2      54.082  87.530  22.864  1.00 32.37 LIG 0.16  HD
ATOM     20  C   ASN B   1      53.550  89.324  23.423  1.00 31.22 LIG 0.25  C 
ATOM     21 O    ASN B   1      53.250  89.962  24.410  1.00 24.61 LIG-0.27  OA
BRANCH 20 22
ATOM     22  CA  ASN B   1      53.656  90.041  22.088  1.00 32.89 LIG 0.28  C 
BRANCH 22 23
ATOM     23  CB  ASN B   1      55.106  89.884  21.628  1.00 38.07 LIG 0.14  C 
BRANCH 23 24
ATOM     24  CG  ASN B   1      55.362  88.571  21.003  1.00 44.05 LIG 0.22  C 
ATOM     25  ND2 ASN B   1      56.296  87.845  21.559  1.00 47.62 LIG-0.37  N 
ATOM     26 21HD ASN B   1      56.478  87.065  21.246  1.00 47.62 LIG 0.16  HD
ATOM     27 22HD ASN B   1      56.729  88.147  22.237  1.00 47.62 LIG 0.16  HD
ATOM     28 OD1  ASN B   1      54.705  88.188  20.025  1.00 47.48 LIG-0.27  OA
ENDBRANCH 23 24
ENDBRANCH 22 23
BRANCH 22 29
ATOM     29  N   ASN B   1      53.255  91.477  22.043  1.00 44.58 LIG-0.07  N 
ATOM     30 H1   ASN B   1      53.265  91.815  22.866  1.00 44.58 LIG 0.28  HD
ATOM     31 H3   ASN B   1      52.434  91.546  21.705  1.00 44.58 LIG 0.28  HD
ATOM     32 H2   ASN B   1      53.825  91.929  21.530  1.00 44.58 LIG 0.28  HD
ENDBRANCH 22 29
ENDBRANCH 20 22
ENDBRANCH 5 18
ENDBRANCH 1 5
BRANCH 3 33
ATOM     33  CA  LEU B   3      57.118  88.457  25.978  1.00 27.74 LIG 0.18  C 
BRANCH 33 34
ATOM     34  C   LEU B   3      57.290  87.801  27.291  1.00 25.40 LIG 0.24  C 
ATOM     35 O    LEU B   3      57.837  86.710  27.382  1.00 26.81 LIG-0.27  OA
ATOM     36  N   ILE B   4      56.834  88.444  28.339  1.00 26.13 LIG-0.35  N 
ATOM     37 H    ILE B   4      56.526  89.246  28.324  1.00 26.13 LIG 0.16  HD
BRANCH 36 38
ATOM     38  CA  ILE B   4      56.824  87.830  29.585  1.00 24.17 LIG 0.18  C 
BRANCH 38 39
ATOM     39  CB  ILE B   4      57.868  88.569  30.448  1.00 29.09 LIG 0.01  C 
ATOM     40  CG2 ILE B   4      57.238  89.817  30.964  1.00 25.20 LIG 0.01  C 
BRANCH 39 41
ATOM     41  CG1 ILE B   4      58.307  87.762  31.662  1.00 28.67 LIG 0.00  C 
ATOM     42  CD1 ILE B   4      59.755  88.000  32.014  1.00 34.41 LIG 0.01  C 
ENDBRANCH 39 41
ENDBRANCH 38 39
BRANCH 38 43
ATOM     43  C   ILE B   4      55.421  87.787  30.199  1.00 29.58 LIG 0.24  C 
ATOM     44  N   LEU B   5      55.107  86.656  30.818  1.00 36.70 LIG-0.35  N 
ATOM     45 H    LEU B   5      55.591  85.946  30.794  1.00 36.70 LIG 0.16  HD
ATOM     46 O    ILE B   4      54.616  88.764  30.103  1.00 23.70 LIG-0.27  OA
BRANCH 44 47
ATOM     47  CA  LEU B   5      53.903  86.528  31.600  1.00 37.00 LIG 0.16  C 
BRANCH 47 48
ATOM     48  C   LEU B   5      54.048  87.230  32.965  1.00 42.59 LIG 0.22  C 
ATOM     49 O    LEU B   5      55.177  87.380  33.504  1.00 38.80 LIG-0.29  OA
ENDBRANCH 47 48
BRANCH 47 50
ATOM     50  CB  LEU B   5      53.631  85.043  31.806  1.00 50.59 LIG 0.04  C 
BRANCH 50 51
ATOM     51  CG  LEU B   5      52.410  84.709  32.641  1.00 50.85 LIG-0.02  C 
ATOM     52  CD1 LEU B   5      51.539  83.757  31.849  1.00 54.07 LIG 0.01  C 
ATOM     53  CD2 LEU B   5      52.912  84.064  33.928  1.00 54.33 LIG 0.01  C 
ENDBRANCH 50 51
ENDBRANCH 47 50
ENDBRANCH 44 47
ENDBRANCH 38 43
ENDBRANCH 36 38
ENDBRANCH 33 34
BRANCH 33 54
ATOM     54  CB  LEU B   3      56.810  89.917  26.216  1.00 34.11 LIG 0.04  C 
BRANCH 54 55
ATOM     55  CG  LEU B   3      57.602  90.713  25.235  1.00 35.49 LIG-0.02  C 
ATOM     56  CD1 LEU B   3      58.600  91.557  26.004  1.00 39.12 LIG 0.01  C 
ATOM     57  CD2 LEU B   3      58.306  89.652  24.427  1.00 34.32 LIG 0.01  C 
ENDBRANCH 54 55
ENDBRANCH 33 54
ENDBRANCH 3 33
TORSDOF 22
ENDMDL
MODEL 22
USER: ADFR SOLUTION from run 75
USER: SCORE 20.309904 LL:  -4.464 LR: -17.142 RR:   0.000 FEB: -10.580
USER: RMSD 6.413519
USER: SEED 74
USER: STATUS no improvement in best in 3 clusters for 5 generations
USER: GENES 24
USER: genes 0 Translation |==|  0.50525 0.61252 0.31986
USER: genes 1 Rotation |==|  0.28734 0.36117 0.88483 0.69341
USER: genes 2 Torsion [N]-C--CA-[N] |==|  0.93415
USER: genes 3 Torsion [C]-CA--CB-[CG] |==|  0.28430
USER: genes 4 Torsion [CA]-CB--CG-[CD] |==|  0.41022
USER: genes 5 Torsion [CB]-CG--CD-[NE] |==|  0.22249
USER: genes 6 Torsion [CG]-CD--NE-[HE] |==|  0.98888
USER: genes 7 Torsion [C]-CA--N-[C] |==|  0.77817
USER: genes 8 Torsion [N]-C--CA-[N] |==|  0.46496
USER: genes 9 Torsion [C]-CA--CB-[CG] |==|  0.79657
USER: genes 10 Torsion [CA]-CB--CG-[OD1] |==|  0.09939
USER: genes 11 Torsion [C]-CA--N-[H1] |==|  0.76996
USER: genes 12 Torsion [C]-N--CA-[CB] |==|  0.48333
USER: genes 13 Torsion [N]-CA--C-[N] |==|  0.22604
USER: genes 14 Torsion [C]-N--CA-[C] |==|  0.80405
USER: genes 15 Torsion [N]-CA--CB-[CG1] |==|  0.90808
USER: genes 16 Torsion [CA]-CB--CG1-[CD1] |==|  0.76846
USER: genes 17 Torsion [N]-CA--C-[N] |==|  0.37086
USER: genes 18 Torsion [C]-N--CA-[C] |==|  0.73753
USER: genes 19 Torsion [N]-CA--C-[O] |==|  0.04161
USER: genes 20 Torsion [N]-CA--CB-[CG] |==|  0.70895
USER: genes 21 Torsion [CA]-CB--CG-[CD1] |==|  0.59019
USER: genes 22 Torsion [N]-CA--CB-[CG] |==|  0.77317
USER: genes 23 Torsion [CA]-CB--CG-[CD1] |==|  0.97980
ROOT
ATOM      1  C   ARG B   2      57.117  89.087  25.836  1.00 25.54 LIG 0.24  C 
ATOM      2 O    ARG B   2      56.952  89.937  26.766  1.00 21.45 LIG-0.27  OA
ATOM      3  N   LEU B   3      56.179  88.209  25.516  1.00 32.00 LIG-0.35  N 
ATOM      4 H    LEU B   3      56.215  87.692  24.829  1.00 32.00 LIG 0.16  HD
ENDROOT
BRANCH 1 5
ATOM      5  CA  ARG B   2      58.415  88.994  25.046  1.00 29.44 LIG 0.18  C 
BRANCH 5 6
ATOM      6  CB  ARG B   2      58.412  90.046  23.893  1.00 37.02 LIG 0.04  C 
BRANCH 6 7
ATOM      7  CG  ARG B   2      59.257  91.286  24.189  1.00 39.92 LIG 0.02  C 
BRANCH 7 8
ATOM      8  CD  ARG B   2      59.869  91.841  22.897  1.00 40.77 LIG 0.14  C 
BRANCH 8 9
ATOM      9  NE  ARG B   2      58.801  92.616  22.247  1.00 48.07 LIG-0.23  N 
ATOM     10 HE   ARG B   2      58.033  92.595  22.634  1.00 48.07 LIG 0.18  HD
ATOM     11  CZ  ARG B   2      58.872  93.352  21.129  1.00 44.36 LIG 0.67  C 
ATOM     12  NH1 ARG B   2      57.752  93.992  20.747  1.00 36.12 LIG-0.23  N 
ATOM     13  NH2 ARG B   2      60.012  93.465  20.408  1.00 39.61 LIG-0.23  N 
ATOM     14 1HH1 ARG B   2      57.034  93.919  21.215  1.00 36.12 LIG 0.17  HD
ATOM     15 2HH1 ARG B   2      57.754  94.475  20.036  1.00 36.12 LIG 0.17  HD
ATOM     16 1HH2 ARG B   2      60.724  93.057  20.663  1.00 39.61 LIG 0.17  HD
ATOM     17 2HH2 ARG B   2      60.023  93.946  19.695  1.00 39.61 LIG 0.17  HD
ENDBRANCH 8 9
ENDBRANCH 7 8
ENDBRANCH 6 7
ENDBRANCH 5 6
BRANCH 5 18
ATOM     18  N   ARG B   2      58.602  87.643  24.486  1.00 32.37 LIG-0.35  N 
ATOM     19 H    ARG B   2      58.399  87.544  23.657  1.00 32.37 LIG 0.16  HD
ATOM     20  C   ASN B   1      59.060  86.703  25.290  1.00 31.22 LIG 0.25  C 
ATOM     21 O    ASN B   1      59.258  86.933  26.464  1.00 24.61 LIG-0.27  OA
BRANCH 20 22
ATOM     22  CA  ASN B   1      59.300  85.298  24.766  1.00 32.89 LIG 0.28  C 
BRANCH 22 23
ATOM     23  CB  ASN B   1      57.922  84.709  24.463  1.00 38.07 LIG 0.14  C 
BRANCH 23 24
ATOM     24  CG  ASN B   1      57.175  84.359  25.688  1.00 44.05 LIG 0.22  C 
ATOM     25  ND2 ASN B   1      56.446  83.276  25.624  1.00 47.62 LIG-0.37  N 
ATOM     26 21HD ASN B   1      56.001  83.016  26.312  1.00 47.62 LIG 0.16  HD
ATOM     27 22HD ASN B   1      56.411  82.823  24.894  1.00 47.62 LIG 0.16  HD
ATOM     28 OD1  ASN B   1      57.263  85.052  26.712  1.00 47.48 LIG-0.27  OA
ENDBRANCH 23 24
ENDBRANCH 22 23
BRANCH 22 29
ATOM     29  N   ASN B   1      60.080  84.364  25.630  1.00 44.58 LIG-0.07  N 
ATOM     30 H1   ASN B   1      60.951  84.508  25.514  1.00 44.58 LIG 0.28  HD
ATOM     31 H3   ASN B   1      59.887  83.523  25.408  1.00 44.58 LIG 0.28  HD
ATOM     32 H2   ASN B   1      59.868  84.502  26.483  1.00 44.58 LIG 0.28  HD
ENDBRANCH 22 29
ENDBRANCH 20 22
ENDBRANCH 5 18
ENDBRANCH 1 5
BRANCH 3 33
ATOM     33  CA  LEU B   3      54.983  88.054  26.330  1.00 27.74 LIG 0.18  C 
BRANCH 33 34
ATOM     34  C   LEU B   3      55.314  87.487  27.655  1.00 25.40 LIG 0.24  C 
ATOM     35 O    LEU B   3      55.173  86.293  27.881  1.00 26.81 LIG-0.27  OA
ATOM     36  N   ILE B   4      55.762  88.323  28.560  1.00 26.13 LIG-0.35  N 
ATOM     37 H    ILE B   4      55.957  89.147  28.411  1.00 26.13 LIG 0.16  HD
BRANCH 36 38
ATOM     38  CA  ILE B   4      55.954  87.897  29.868  1.00 24.17 LIG 0.18  C 
BRANCH 38 39
ATOM     39  CB  ILE B   4      56.850  88.953  30.549  1.00 29.09 LIG 0.01  C 
ATOM     40  CG2 ILE B   4      57.641  88.269  31.611  1.00 25.20 LIG 0.01  C 
BRANCH 39 41
ATOM     41  CG1 ILE B   4      57.850  89.584  29.591  1.00 28.67 LIG 0.00  C 
ATOM     42  CD1 ILE B   4      59.091  88.743  29.426  1.00 34.41 LIG 0.01  C 
ENDBRANCH 39 41
ENDBRANCH 38 39
BRANCH 38 43
ATOM     43  C   ILE B   4      54.629  87.639  30.593  1.00 29.58 LIG 0.24  C 
ATOM     44  N   LEU B   5      54.566  86.500  31.272  1.00 36.70 LIG-0.35  N 
ATOM     45 H    LEU B   5      55.165  85.884  31.232  1.00 36.70 LIG 0.16  HD
ATOM     46 O    ILE B   4      53.659  88.456  30.531  1.00 23.70 LIG-0.27  OA
BRANCH 44 47
ATOM     47  CA  LEU B   5      53.463  86.199  32.150  1.00 37.00 LIG 0.16  C 
BRANCH 47 48
ATOM     48  C   LEU B   5      53.787  86.595  33.605  1.00 42.59 LIG 0.22  C 
ATOM     49 O    LEU B   5      54.758  87.353  33.874  1.00 38.80 LIG-0.29  OA
ENDBRANCH 47 48
BRANCH 47 50
ATOM     50  CB  LEU B   5      53.190  84.704  32.068  1.00 50.59 LIG 0.04  C 
BRANCH 50 51
ATOM     51  CG  LEU B   5      51.964  84.302  31.270  1.00 50.85 LIG-0.02  C 
ATOM     52  CD1 LEU B   5      51.379  83.054  31.893  1.00 54.07 LIG 0.01  C 
ATOM     53  CD2 LEU B   5      50.985  85.469  31.338  1.00 54.33 LIG 0.01  C 
ENDBRANCH 50 51
ENDBRANCH 47 50
ENDBRANCH 44 47
ENDBRANCH 38 43
ENDBRANCH 36 38
ENDBRANCH 33 34
BRANCH 33 54
ATOM     54  CB  LEU B   3      54.054  87.094  25.624  1.00 34.11 LIG 0.04  C 
BRANCH 54 55
ATOM     55  CG  LEU B   3      53.312  87.863  24.585  1.00 35.49 LIG-0.02  C 
ATOM     56  CD1 LEU B   3      53.641  89.333  24.757  1.00 39.12 LIG 0.01  C 
ATOM     57  CD2 LEU B   3      53.887  87.332  23.296  1.00 34.32 LIG 0.01  C 
ENDBRANCH 54 55
ENDBRANCH 33 54
ENDBRANCH 3 33
TORSDOF 22
ENDMDL
MODEL 23
USER: ADFR SOLUTION from run 35
USER: SCORE 19.666397 LL:  -4.138 LR: -17.144 RR:   0.000 FEB: -10.582
USER: RMSD 4.357701
USER: SEED 34
USER: STATUS no improvement in best in 9 clusters for 5 generations
USER: GENES 24
USER: genes 0 Translation |==|  0.47411 0.46021 0.38536
USER: genes 1 Rotation |==|  0.46933 0.53817 0.41065 0.98951
USER: genes 2 Torsion [N]-C--CA-[N] |==|  0.02764
USER: genes 3 Torsion [C]-CA--CB-[CG] |==|  0.78075
USER: genes 4 Torsion [CA]-CB--CG-[CD] |==|  0.22792
USER: genes 5 Torsion [CB]-CG--CD-[NE] |==|  0.29807
USER: genes 6 Torsion [CG]-CD--NE-[HE] |==|  0.69575
USER: genes 7 Torsion [C]-CA--N-[C] |==|  0.74035
USER: genes 8 Torsion [N]-C--CA-[N] |==|  0.44771
USER: genes 9 Torsion [C]-CA--CB-[CG] |==|  0.18641
USER: genes 10 Torsion [CA]-CB--CG-[OD1] |==|  0.09831
USER: genes 11 Torsion [C]-CA--N-[H1] |==|  0.41391
USER: genes 12 Torsion [C]-N--CA-[CB] |==|  0.43666
USER: genes 13 Torsion [N]-CA--C-[N] |==|  0.32731
USER: genes 14 Torsion [C]-N--CA-[C] |==|  0.77654
USER: genes 15 Torsion [N]-CA--CB-[CG1] |==|  0.65479
USER: genes 16 Torsion [CA]-CB--CG1-[CD1] |==|  0.47602
USER: genes 17 Torsion [N]-CA--C-[N] |==|  0.38413
USER: genes 18 Torsion [C]-N--CA-[C] |==|  0.82595
USER: genes 19 Torsion [N]-CA--C-[O] |==|  0.23218
USER: genes 20 Torsion [N]-CA--CB-[CG] |==|  0.79585
USER: genes 21 Torsion [CA]-CB--CG-[CD1] |==|  0.33804
USER: genes 22 Torsion [N]-CA--CB-[CG] |==|  0.53386
USER: genes 23 Torsion [CA]-CB--CG-[CD1] |==|  0.12341
ROOT
ATOM      1  C   ARG B   2      56.463  86.231  27.260  1.00 25.54 LIG 0.24  C 
ATOM      2 O    ARG B   2      56.500  85.121  27.879  1.00 21.45 LIG-0.27  OA
ATOM      3  N   LEU B   3      56.701  87.381  27.872  1.00 32.00 LIG-0.35  N 
ATOM      4 H    LEU B   3      56.787  88.135  27.466  1.00 32.00 LIG 0.16  HD
ENDROOT
BRANCH 1 5
ATOM      5  CA  ARG B   2      56.112  86.321  25.782  1.00 29.44 LIG 0.18  C 
BRANCH 5 6
ATOM      6  CB  ARG B   2      56.966  85.300  24.968  1.00 37.02 LIG 0.04  C 
BRANCH 6 7
ATOM      7  CG  ARG B   2      58.396  85.769  24.701  1.00 39.92 LIG 0.02  C 
BRANCH 7 8
ATOM      8  CD  ARG B   2      59.289  85.494  25.917  1.00 40.77 LIG 0.14  C 
BRANCH 8 9
ATOM      9  NE  ARG B   2      60.157  84.371  25.532  1.00 48.07 LIG-0.23  N 
ATOM     10 HE   ARG B   2      59.997  83.622  25.922  1.00 48.07 LIG 0.18  HD
ATOM     11  CZ  ARG B   2      61.166  84.367  24.649  1.00 44.36 LIG 0.67  C 
ATOM     12  NH1 ARG B   2      61.800  83.196  24.452  1.00 36.12 LIG-0.23  N 
ATOM     13  NH2 ARG B   2      61.539  85.477  23.970  1.00 39.61 LIG-0.23  N 
ATOM     14 1HH1 ARG B   2      61.553  82.495  24.884  1.00 36.12 LIG 0.17  HD
ATOM     15 2HH1 ARG B   2      62.453  83.149  23.895  1.00 36.12 LIG 0.17  HD
ATOM     16 1HH2 ARG B   2      61.124  86.219  24.098  1.00 39.61 LIG 0.17  HD
ATOM     17 2HH2 ARG B   2      62.191  85.440  23.411  1.00 39.61 LIG 0.17  HD
ENDBRANCH 8 9
ENDBRANCH 7 8
ENDBRANCH 6 7
ENDBRANCH 5 6
BRANCH 5 18
ATOM     18  N   ARG B   2      56.338  87.683  25.264  1.00 32.37 LIG-0.35  N 
ATOM     19 H    ARG B   2      57.133  87.859  24.989  1.00 32.37 LIG 0.16  HD
ATOM     20  C   ASN B   1      55.315  88.517  25.262  1.00 31.22 LIG 0.25  C 
ATOM     21 O    ASN B   1      54.246  88.189  25.730  1.00 24.61 LIG-0.27  OA
BRANCH 20 22
ATOM     22  CA  ASN B   1      55.477  89.924  24.715  1.00 32.89 LIG 0.28  C 
BRANCH 22 23
ATOM     23  CB  ASN B   1      56.261  90.710  25.768  1.00 38.07 LIG 0.14  C 
BRANCH 23 24
ATOM     24  CG  ASN B   1      57.650  90.229  25.913  1.00 44.05 LIG 0.22  C 
ATOM     25  ND2 ASN B   1      58.137  90.243  27.126  1.00 47.62 LIG-0.37  N 
ATOM     26 21HD ASN B   1      58.935  89.960  27.272  1.00 47.62 LIG 0.16  HD
ATOM     27 22HD ASN B   1      57.658  90.534  27.778  1.00 47.62 LIG 0.16  HD
ATOM     28 OD1  ASN B   1      58.292  89.821  24.935  1.00 47.48 LIG-0.27  OA
ENDBRANCH 23 24
ENDBRANCH 22 23
BRANCH 22 29
ATOM     29  N   ASN B   1      54.237  90.665  24.339  1.00 44.58 LIG-0.07  N 
ATOM     30 H1   ASN B   1      54.362  91.537  24.467  1.00 44.58 LIG 0.28  HD
ATOM     31 H3   ASN B   1      53.560  90.385  24.844  1.00 44.58 LIG 0.28  HD
ATOM     32 H2   ASN B   1      54.051  90.516  23.482  1.00 44.58 LIG 0.28  HD
ENDBRANCH 22 29
ENDBRANCH 20 22
ENDBRANCH 5 18
ENDBRANCH 1 5
BRANCH 3 33
ATOM     33  CA  LEU B   3      56.840  87.451  29.318  1.00 27.74 LIG 0.18  C 
BRANCH 33 34
ATOM     34  C   LEU B   3      55.518  87.555  29.973  1.00 25.40 LIG 0.24  C 
ATOM     35 O    LEU B   3      54.785  88.512  29.760  1.00 26.81 LIG-0.27  OA
ATOM     36  N   ILE B   4      55.178  86.579  30.779  1.00 26.13 LIG-0.35  N 
ATOM     37 H    ILE B   4      55.626  85.852  30.883  1.00 26.13 LIG 0.16  HD
BRANCH 36 38
ATOM     38  CA  ILE B   4      54.022  86.675  31.542  1.00 24.17 LIG 0.18  C 
BRANCH 38 39
ATOM     39  CB  ILE B   4      53.559  85.230  31.825  1.00 29.09 LIG 0.01  C 
ATOM     40  CG2 ILE B   4      53.594  85.017  33.300  1.00 25.20 LIG 0.01  C 
BRANCH 39 41
ATOM     41  CG1 ILE B   4      52.127  84.971  31.375  1.00 28.67 LIG 0.00  C 
ATOM     42  CD1 ILE B   4      51.757  83.511  31.464  1.00 34.41 LIG 0.01  C 
ENDBRANCH 39 41
ENDBRANCH 38 39
BRANCH 38 43
ATOM     43  C   ILE B   4      54.228  87.525  32.801  1.00 29.58 LIG 0.24  C 
ATOM     44  N   LEU B   5      53.235  88.357  33.092  1.00 36.70 LIG-0.35  N 
ATOM     45 H    LEU B   5      52.569  88.509  32.571  1.00 36.70 LIG 0.16  HD
ATOM     46 O    ILE B   4      55.283  87.442  33.501  1.00 23.70 LIG-0.27  OA
BRANCH 44 47
ATOM     47  CA  LEU B   5      53.197  89.086  34.335  1.00 37.00 LIG 0.16  C 
BRANCH 47 48
ATOM     48  C   LEU B   5      53.106  88.127  35.539  1.00 42.59 LIG 0.22  C 
ATOM     49 O    LEU B   5      54.138  87.592  36.027  1.00 38.80 LIG-0.29  OA
ENDBRANCH 47 48
BRANCH 47 50
ATOM     50  CB  LEU B   5      51.979  90.000  34.307  1.00 50.59 LIG 0.04  C 
BRANCH 50 51
ATOM     51  CG  LEU B   5      52.091  91.215  33.406  1.00 50.85 LIG-0.02  C 
ATOM     52  CD1 LEU B   5      50.965  91.161  32.396  1.00 54.07 LIG 0.01  C 
ATOM     53  CD2 LEU B   5      51.979  92.445  34.298  1.00 54.33 LIG 0.01  C 
ENDBRANCH 50 51
ENDBRANCH 47 50
ENDBRANCH 44 47
ENDBRANCH 38 43
ENDBRANCH 36 38
ENDBRANCH 33 34
BRANCH 33 54
ATOM     54  CB  LEU B   3      57.633  88.691  29.657  1.00 34.11 LIG 0.04  C 
BRANCH 54 55
ATOM     55  CG  LEU B   3      58.025  88.600  31.093  1.00 35.49 LIG-0.02  C 
ATOM     56  CD1 LEU B   3      58.519  87.192  31.363  1.00 39.12 LIG 0.01  C 
ATOM     57  CD2 LEU B   3      59.153  89.595  31.200  1.00 34.32 LIG 0.01  C 
ENDBRANCH 54 55
ENDBRANCH 33 54
ENDBRANCH 3 33
TORSDOF 22
ENDMDL
MODEL 24
USER: ADFR SOLUTION from run 61
USER: SCORE 19.029514 LL:  -3.431 LR: -17.073 RR:   0.000 FEB: -10.511
USER: RMSD 10.531761
USER: SEED 60
USER: STATUS no improvement in best in 6 clusters for 5 generations
USER: GENES 24
USER: genes 0 Translation |==|  0.41828 0.56819 0.61299
USER: genes 1 Rotation |==|  0.87218 0.75220 0.71414 0.54500
USER: genes 2 Torsion [N]-C--CA-[N] |==|  0.83987
USER: genes 3 Torsion [C]-CA--CB-[CG] |==|  0.38637
USER: genes 4 Torsion [CA]-CB--CG-[CD] |==|  0.74904
USER: genes 5 Torsion [CB]-CG--CD-[NE] |==|  0.74439
USER: genes 6 Torsion [CG]-CD--NE-[HE] |==|  0.00760
USER: genes 7 Torsion [C]-CA--N-[C] |==|  0.63100
USER: genes 8 Torsion [N]-C--CA-[N] |==|  0.22542
USER: genes 9 Torsion [C]-CA--CB-[CG] |==|  0.46220
USER: genes 10 Torsion [CA]-CB--CG-[OD1] |==|  0.17567
USER: genes 11 Torsion [C]-CA--N-[H1] |==|  0.66696
USER: genes 12 Torsion [C]-N--CA-[CB] |==|  0.48889
USER: genes 13 Torsion [N]-CA--C-[N] |==|  0.38137
USER: genes 14 Torsion [C]-N--CA-[C] |==|  0.75379
USER: genes 15 Torsion [N]-CA--CB-[CG1] |==|  0.60227
USER: genes 16 Torsion [CA]-CB--CG1-[CD1] |==|  0.52161
USER: genes 17 Torsion [N]-CA--C-[N] |==|  0.47720
USER: genes 18 Torsion [C]-N--CA-[C] |==|  0.56029
USER: genes 19 Torsion [N]-CA--C-[O] |==|  0.24800
USER: genes 20 Torsion [N]-CA--CB-[CG] |==|  0.41746
USER: genes 21 Torsion [CA]-CB--CG-[CD1] |==|  0.27943
USER: genes 22 Torsion [N]-CA--CB-[CG] |==|  0.62214
USER: genes 23 Torsion [CA]-CB--CG-[CD1] |==|  0.99734
ROOT
ATOM      1  C   ARG B   2      55.291  88.255  32.211  1.00 25.54 LIG 0.24  C 
ATOM      2 O    ARG B   2      54.959  89.227  31.463  1.00 21.45 LIG-0.27  OA
ATOM      3  N   LEU B   3      56.515  87.751  32.202  1.00 32.00 LIG-0.35  N 
ATOM      4 H    LEU B   3      56.801  87.167  32.765  1.00 32.00 LIG 0.16  HD
ENDROOT
BRANCH 1 5
ATOM      5  CA  ARG B   2      54.298  87.581  33.149  1.00 29.44 LIG 0.18  C 
BRANCH 5 6
ATOM      6  CB  ARG B   2      54.757  87.763  34.630  1.00 37.02 LIG 0.04  C 
BRANCH 6 7
ATOM      7  CG  ARG B   2      53.612  88.071  35.595  1.00 39.92 LIG 0.02  C 
BRANCH 7 8
ATOM      8  CD  ARG B   2      53.400  89.585  35.711  1.00 40.77 LIG 0.14  C 
BRANCH 8 9
ATOM      9  NE  ARG B   2      54.225  90.020  36.848  1.00 48.07 LIG-0.23  N 
ATOM     10 HE   ARG B   2      54.698  89.408  37.224  1.00 48.07 LIG 0.18  HD
ATOM     11  CZ  ARG B   2      54.333  91.249  37.373  1.00 44.36 LIG 0.67  C 
ATOM     12  NH1 ARG B   2      55.181  91.398  38.408  1.00 36.12 LIG-0.23  N 
ATOM     13  NH2 ARG B   2      53.637  92.305  36.893  1.00 39.61 LIG-0.23  N 
ATOM     14 1HH1 ARG B   2      55.623  90.722  38.703  1.00 36.12 LIG 0.17  HD
ATOM     15 2HH1 ARG B   2      55.281  92.169  38.774  1.00 36.12 LIG 0.17  HD
ATOM     16 1HH2 ARG B   2      53.103  92.201  36.228  1.00 39.61 LIG 0.17  HD
ATOM     17 2HH2 ARG B   2      53.730  93.081  37.254  1.00 39.61 LIG 0.17  HD
ENDBRANCH 8 9
ENDBRANCH 7 8
ENDBRANCH 6 7
ENDBRANCH 5 6
BRANCH 5 18
ATOM     18  N   ARG B   2      54.167  86.145  32.841  1.00 32.37 LIG-0.35  N 
ATOM     19 H    ARG B   2      54.901  85.711  32.734  1.00 32.37 LIG 0.16  HD
ATOM     20  C   ASN B   1      52.950  85.645  32.754  1.00 31.22 LIG 0.25  C 
ATOM     21 O    ASN B   1      51.976  86.358  32.862  1.00 24.61 LIG-0.27  OA
BRANCH 20 22
ATOM     22  CA  ASN B   1      52.750  84.167  32.468  1.00 32.89 LIG 0.28  C 
BRANCH 22 23
ATOM     23  CB  ASN B   1      51.370  84.036  31.821  1.00 38.07 LIG 0.14  C 
BRANCH 23 24
ATOM     24  CG  ASN B   1      51.162  82.714  31.196  1.00 44.05 LIG 0.22  C 
ATOM     25  ND2 ASN B   1      51.007  82.712  29.898  1.00 47.62 LIG-0.37  N 
ATOM     26 21HD ASN B   1      50.897  81.969  29.479  1.00 47.62 LIG 0.16  HD
ATOM     27 22HD ASN B   1      51.015  83.453  29.463  1.00 47.62 LIG 0.16  HD
ATOM     28 OD1  ASN B   1      51.159  81.677  31.876  1.00 47.48 LIG-0.27  OA
ENDBRANCH 23 24
ENDBRANCH 22 23
BRANCH 22 29
ATOM     29  N   ASN B   1      52.872  83.219  33.614  1.00 44.58 LIG-0.07  N 
ATOM     30 H1   ASN B   1      53.527  82.639  33.452  1.00 44.58 LIG 0.28  HD
ATOM     31 H3   ASN B   1      52.105  82.778  33.718  1.00 44.58 LIG 0.28  HD
ATOM     32 H2   ASN B   1      53.056  83.673  34.357  1.00 44.58 LIG 0.28  HD
ENDBRANCH 22 29
ENDBRANCH 20 22
ENDBRANCH 5 18
ENDBRANCH 1 5
BRANCH 3 33
ATOM     33  CA  LEU B   3      57.492  88.163  31.206  1.00 27.74 LIG 0.18  C 
BRANCH 33 34
ATOM     34  C   LEU B   3      57.075  87.747  29.850  1.00 25.40 LIG 0.24  C 
ATOM     35 O    LEU B   3      56.601  86.636  29.651  1.00 26.81 LIG-0.27  OA
ATOM     36  N   ILE B   4      57.235  88.621  28.887  1.00 26.13 LIG-0.35  N 
ATOM     37 H    ILE B   4      57.480  89.437  29.003  1.00 26.13 LIG 0.16  HD
BRANCH 36 38
ATOM     38  CA  ILE B   4      57.006  88.256  27.566  1.00 24.17 LIG 0.18  C 
BRANCH 38 39
ATOM     39  CB  ILE B   4      56.426  89.498  26.859  1.00 29.09 LIG 0.01  C 
ATOM     40  CG2 ILE B   4      57.535  90.166  26.120  1.00 25.20 LIG 0.01  C 
BRANCH 39 41
ATOM     41  CG1 ILE B   4      55.359  89.146  25.831  1.00 28.67 LIG 0.00  C 
ATOM     42  CD1 ILE B   4      54.935  90.343  25.016  1.00 34.41 LIG 0.01  C 
ENDBRANCH 39 41
ENDBRANCH 38 39
BRANCH 38 43
ATOM     43  C   ILE B   4      58.261  87.683  26.898  1.00 29.58 LIG 0.24  C 
ATOM     44  N   LEU B   5      58.073  87.157  25.694  1.00 36.70 LIG-0.35  N 
ATOM     45 H    LEU B   5      57.299  87.032  25.342  1.00 36.70 LIG 0.16  HD
ATOM     46 O    ILE B   4      59.393  87.701  27.471  1.00 23.70 LIG-0.27  OA
BRANCH 44 47
ATOM     47  CA  LEU B   5      59.177  86.746  24.865  1.00 37.00 LIG 0.16  C 
BRANCH 47 48
ATOM     48  C   LEU B   5      58.765  86.687  23.380  1.00 42.59 LIG 0.22  C 
ATOM     49 O    LEU B   5      58.870  87.696  22.633  1.00 38.80 LIG-0.29  OA
ENDBRANCH 47 48
BRANCH 47 50
ATOM     50  CB  LEU B   5      59.632  85.370  25.333  1.00 50.59 LIG 0.04  C 
BRANCH 50 51
ATOM     51  CG  LEU B   5      60.236  84.479  24.265  1.00 50.85 LIG-0.02  C 
ATOM     52  CD1 LEU B   5      61.743  84.531  24.400  1.00 54.07 LIG 0.01  C 
ATOM     53  CD2 LEU B   5      59.704  83.071  24.504  1.00 54.33 LIG 0.01  C 
ENDBRANCH 50 51
ENDBRANCH 47 50
ENDBRANCH 44 47
ENDBRANCH 38 43
ENDBRANCH 36 38
ENDBRANCH 33 34
BRANCH 33 54
ATOM     54  CB  LEU B   3      58.804  87.486  31.525  1.00 34.11 LIG 0.04  C 
BRANCH 54 55
ATOM     55  CG  LEU B   3      59.885  88.503  31.380  1.00 35.49 LIG-0.02  C 
ATOM     56  CD1 LEU B   3      59.252  89.811  30.948  1.00 39.12 LIG 0.01  C 
ATOM     57  CD2 LEU B   3      60.438  88.611  32.779  1.00 34.32 LIG 0.01  C 
ENDBRANCH 54 55
ENDBRANCH 33 54
ENDBRANCH 3 33
TORSDOF 22
ENDMDL
MODEL 25
USER: ADFR SOLUTION from run 41
USER: SCORE 18.797611 LL:  -3.521 LR: -17.045 RR:   0.000 FEB: -10.483
USER: RMSD 3.032217
USER: SEED 40
USER: STATUS no improvement in best in 14 clusters for 5 generations
USER: GENES 24
USER: genes 0 Translation |==|  0.49615 0.46617 0.38964
USER: genes 1 Rotation |==|  0.50766 0.51136 0.50962 0.99972
USER: genes 2 Torsion [N]-C--CA-[N] |==|  0.41484
USER: genes 3 Torsion [C]-CA--CB-[CG] |==|  0.27533
USER: genes 4 Torsion [CA]-CB--CG-[CD] |==|  0.02452
USER: genes 5 Torsion [CB]-CG--CD-[NE] |==|  0.29544
USER: genes 6 Torsion [CG]-CD--NE-[HE] |==|  0.80709
USER: genes 7 Torsion [C]-CA--N-[C] |==|  0.79811
USER: genes 8 Torsion [N]-C--CA-[N] |==|  0.34704
USER: genes 9 Torsion [C]-CA--CB-[CG] |==|  0.54414
USER: genes 10 Torsion [CA]-CB--CG-[OD1] |==|  0.75278
USER: genes 11 Torsion [C]-CA--N-[H1] |==|  0.05444
USER: genes 12 Torsion [C]-N--CA-[CB] |==|  0.37239
USER: genes 13 Torsion [N]-CA--C-[N] |==|  0.34911
USER: genes 14 Torsion [C]-N--CA-[C] |==|  0.78100
USER: genes 15 Torsion [N]-CA--CB-[CG1] |==|  0.64320
USER: genes 16 Torsion [CA]-CB--CG1-[CD1] |==|  0.52132
USER: genes 17 Torsion [N]-CA--C-[N] |==|  0.41665
USER: genes 18 Torsion [C]-N--CA-[C] |==|  0.17200
USER: genes 19 Torsion [N]-CA--C-[O] |==|  0.16948
USER: genes 20 Torsion [N]-CA--CB-[CG] |==|  0.31253
USER: genes 21 Torsion [CA]-CB--CG-[CD1] |==|  0.25136
USER: genes 22 Torsion [N]-CA--CB-[CG] |==|  0.76314
USER: genes 23 Torsion [CA]-CB--CG-[CD1] |==|  0.38260
ROOT
ATOM      1  C   ARG B   2      56.926  86.343  27.354  1.00 25.54 LIG 0.24  C 
ATOM      2 O    ARG B   2      57.345  85.234  27.812  1.00 21.45 LIG-0.27  OA
ATOM      3  N   LEU B   3      56.650  87.368  28.145  1.00 32.00 LIG-0.35  N 
ATOM      4 H    LEU B   3      56.466  88.159  27.864  1.00 32.00 LIG 0.16  HD
ENDROOT
BRANCH 1 5
ATOM      5  CA  ARG B   2      56.682  86.562  25.867  1.00 29.44 LIG 0.18  C 
BRANCH 5 6
ATOM      6  CB  ARG B   2      55.213  86.175  25.506  1.00 37.02 LIG 0.04  C 
BRANCH 6 7
ATOM      7  CG  ARG B   2      54.267  87.371  25.410  1.00 39.92 LIG 0.02  C 
BRANCH 7 8
ATOM      8  CD  ARG B   2      55.054  88.686  25.482  1.00 40.77 LIG 0.14  C 
BRANCH 8 9
ATOM      9  NE  ARG B   2      55.051  89.231  24.116  1.00 48.07 LIG-0.23  N 
ATOM     10 HE   ARG B   2      55.518  88.797  23.538  1.00 48.07 LIG 0.18  HD
ATOM     11  CZ  ARG B   2      54.412  90.317  23.657  1.00 44.36 LIG 0.67  C 
ATOM     12  NH1 ARG B   2      54.549  90.597  22.348  1.00 36.12 LIG-0.23  N 
ATOM     13  NH2 ARG B   2      53.653  91.102  24.456  1.00 39.61 LIG-0.23  N 
ATOM     14 1HH1 ARG B   2      55.030  90.089  21.847  1.00 36.12 LIG 0.17  HD
ATOM     15 2HH1 ARG B   2      54.157  91.284  22.012  1.00 36.12 LIG 0.17  HD
ATOM     16 1HH2 ARG B   2      53.567  90.911  25.289  1.00 39.61 LIG 0.17  HD
ATOM     17 2HH2 ARG B   2      53.257  91.792  24.129  1.00 39.61 LIG 0.17  HD
ENDBRANCH 8 9
ENDBRANCH 7 8
ENDBRANCH 6 7
ENDBRANCH 5 6
BRANCH 5 18
ATOM     18  N   ARG B   2      57.620  85.771  25.051  1.00 32.37 LIG-0.35  N 
ATOM     19 H    ARG B   2      57.290  85.089  24.645  1.00 32.37 LIG 0.16  HD
ATOM     20  C   ASN B   1      58.879  86.164  25.007  1.00 31.22 LIG 0.25  C 
ATOM     21 O    ASN B   1      59.257  87.108  25.668  1.00 24.61 LIG-0.27  OA
BRANCH 20 22
ATOM     22  CA  ASN B   1      59.888  85.407  24.162  1.00 32.89 LIG 0.28  C 
BRANCH 22 23
ATOM     23  CB  ASN B   1      60.843  84.722  25.140  1.00 38.07 LIG 0.14  C 
BRANCH 23 24
ATOM     24  CG  ASN B   1      62.086  84.261  24.488  1.00 44.05 LIG 0.22  C 
ATOM     25  ND2 ASN B   1      63.087  85.102  24.504  1.00 47.62 LIG-0.37  N 
ATOM     26 21HD ASN B   1      63.840  84.881  24.153  1.00 47.62 LIG 0.16  HD
ATOM     27 22HD ASN B   1      62.993  85.876  24.867  1.00 47.62 LIG 0.16  HD
ATOM     28 OD1  ASN B   1      62.162  83.134  23.980  1.00 47.48 LIG-0.27  OA
ENDBRANCH 23 24
ENDBRANCH 22 23
BRANCH 22 29
ATOM     29  N   ASN B   1      60.660  86.185  23.149  1.00 44.58 LIG-0.07  N 
ATOM     30 H1   ASN B   1      60.635  87.050  23.355  1.00 44.58 LIG 0.28  HD
ATOM     31 H3   ASN B   1      60.302  86.061  22.343  1.00 44.58 LIG 0.28  HD
ATOM     32 H2   ASN B   1      61.506  85.907  23.143  1.00 44.58 LIG 0.28  HD
ENDBRANCH 22 29
ENDBRANCH 20 22
ENDBRANCH 5 18
ENDBRANCH 1 5
BRANCH 3 33
ATOM     33  CA  LEU B   3      56.639  87.220  29.592  1.00 27.74 LIG 0.18  C 
BRANCH 33 34
ATOM     34  C   LEU B   3      55.257  87.251  30.118  1.00 25.40 LIG 0.24  C 
ATOM     35 O    LEU B   3      54.505  88.181  29.856  1.00 26.81 LIG-0.27  OA
ATOM     36  N   ILE B   4      54.885  86.241  30.865  1.00 26.13 LIG-0.35  N 
ATOM     37 H    ILE B   4      55.353  85.531  30.996  1.00 26.13 LIG 0.16  HD
BRANCH 36 38
ATOM     38  CA  ILE B   4      53.658  86.268  31.515  1.00 24.17 LIG 0.18  C 
BRANCH 38 39
ATOM     39  CB  ILE B   4      53.254  84.798  31.757  1.00 29.09 LIG 0.01  C 
ATOM     40  CG2 ILE B   4      53.261  84.556  33.228  1.00 25.20 LIG 0.01  C 
BRANCH 39 41
ATOM     41  CG1 ILE B   4      51.849  84.483  31.264  1.00 28.67 LIG 0.00  C 
ATOM     42  CD1 ILE B   4      51.397  83.102  31.670  1.00 34.41 LIG 0.01  C 
ENDBRANCH 39 41
ENDBRANCH 38 39
BRANCH 38 43
ATOM     43  C   ILE B   4      53.693  87.125  32.785  1.00 29.58 LIG 0.24  C 
ATOM     44  N   LEU B   5      52.546  87.708  33.108  1.00 36.70 LIG-0.35  N 
ATOM     45 H    LEU B   5      51.852  87.714  32.601  1.00 36.70 LIG 0.16  HD
ATOM     46 O    ILE B   4      54.755  87.272  33.465  1.00 23.70 LIG-0.27  OA
BRANCH 44 47
ATOM     47  CA  LEU B   5      52.370  88.393  34.364  1.00 37.00 LIG 0.16  C 
BRANCH 47 48
ATOM     48  C   LEU B   5      53.338  89.586  34.488  1.00 42.59 LIG 0.22  C 
ATOM     49 O    LEU B   5      53.300  90.544  33.671  1.00 38.80 LIG-0.29  OA
ENDBRANCH 47 48
BRANCH 47 50
ATOM     50  CB  LEU B   5      52.630  87.395  35.485  1.00 50.59 LIG 0.04  C 
BRANCH 50 51
ATOM     51  CG  LEU B   5      53.869  87.654  36.321  1.00 50.85 LIG-0.02  C 
ATOM     52  CD1 LEU B   5      53.477  88.532  37.489  1.00 54.07 LIG 0.01  C 
ATOM     53  CD2 LEU B   5      54.382  86.298  36.792  1.00 54.33 LIG 0.01  C 
ENDBRANCH 50 51
ENDBRANCH 47 50
ENDBRANCH 44 47
ENDBRANCH 38 43
ENDBRANCH 36 38
ENDBRANCH 33 34
BRANCH 33 54
ATOM     54  CB  LEU B   3      57.397  88.381  30.191  1.00 34.11 LIG 0.04  C 
BRANCH 54 55
ATOM     55  CG  LEU B   3      58.844  88.022  30.196  1.00 35.49 LIG-0.02  C 
ATOM     56  CD1 LEU B   3      59.637  89.238  29.758  1.00 39.12 LIG 0.01  C 
ATOM     57  CD2 LEU B   3      59.109  87.702  31.646  1.00 34.32 LIG 0.01  C 
ENDBRANCH 54 55
ENDBRANCH 33 54
ENDBRANCH 3 33
TORSDOF 22
ENDMDL
MODEL 26
USER: ADFR SOLUTION from run 4
USER: SCORE 20.268931 LL:  -4.154 LR: -17.033 RR:   0.000 FEB: -10.470
USER: RMSD 10.421307
USER: SEED 623535
USER: STATUS no improvement in best in 4 clusters for 5 generations
USER: GENES 24
USER: genes 0 Translation |==|  0.36310 0.55081 0.70001
USER: genes 1 Rotation |==|  0.88760 0.21840 0.61651 0.58305
USER: genes 2 Torsion [N]-C--CA-[N] |==|  0.90606
USER: genes 3 Torsion [C]-CA--CB-[CG] |==|  0.07190
USER: genes 4 Torsion [CA]-CB--CG-[CD] |==|  0.37067
USER: genes 5 Torsion [CB]-CG--CD-[NE] |==|  0.38931
USER: genes 6 Torsion [CG]-CD--NE-[HE] |==|  0.83012
USER: genes 7 Torsion [C]-CA--N-[C] |==|  0.80556
USER: genes 8 Torsion [N]-C--CA-[N] |==|  0.46158
USER: genes 9 Torsion [C]-CA--CB-[CG] |==|  0.71168
USER: genes 10 Torsion [CA]-CB--CG-[OD1] |==|  0.83476
USER: genes 11 Torsion [C]-CA--N-[H1] |==|  0.42775
USER: genes 12 Torsion [C]-N--CA-[CB] |==|  0.52721
USER: genes 13 Torsion [N]-CA--C-[N] |==|  0.26362
USER: genes 14 Torsion [C]-N--CA-[C] |==|  0.75796
USER: genes 15 Torsion [N]-CA--CB-[CG1] |==|  0.53401
USER: genes 16 Torsion [CA]-CB--CG1-[CD1] |==|  0.13666
USER: genes 17 Torsion [N]-CA--C-[N] |==|  0.42525
USER: genes 18 Torsion [C]-N--CA-[C] |==|  0.79183
USER: genes 19 Torsion [N]-CA--C-[O] |==|  0.47565
USER: genes 20 Torsion [N]-CA--CB-[CG] |==|  0.02944
USER: genes 21 Torsion [CA]-CB--CG-[CD1] |==|  0.37254
USER: genes 22 Torsion [N]-CA--CB-[CG] |==|  0.67036
USER: genes 23 Torsion [CA]-CB--CG-[CD1] |==|  0.06883
ROOT
ATOM      1  C   ARG B   2      54.132  87.930  34.104  1.00 25.54 LIG 0.24  C 
ATOM      2 O    ARG B   2      55.366  87.727  33.877  1.00 21.45 LIG-0.27  OA
ATOM      3  N   LEU B   3      53.186  87.428  33.326  1.00 32.00 LIG-0.35  N 
ATOM      4 H    LEU B   3      52.345  87.457  33.507  1.00 32.00 LIG 0.16  HD
ENDROOT
BRANCH 1 5
ATOM      5  CA  ARG B   2      53.654  88.789  35.267  1.00 29.44 LIG 0.18  C 
BRANCH 5 6
ATOM      6  CB  ARG B   2      53.366  87.890  36.510  1.00 37.02 LIG 0.04  C 
BRANCH 6 7
ATOM      7  CG  ARG B   2      54.166  86.588  36.526  1.00 39.92 LIG 0.02  C 
BRANCH 7 8
ATOM      8  CD  ARG B   2      54.787  86.355  37.909  1.00 40.77 LIG 0.14  C 
BRANCH 8 9
ATOM      9  NE  ARG B   2      54.650  84.915  38.173  1.00 48.07 LIG-0.23  N 
ATOM     10 HE   ARG B   2      53.845  84.613  38.199  1.00 48.07 LIG 0.18  HD
ATOM     11  CZ  ARG B   2      55.620  84.013  38.379  1.00 44.36 LIG 0.67  C 
ATOM     12  NH1 ARG B   2      55.236  82.738  38.579  1.00 36.12 LIG-0.23  N 
ATOM     13  NH2 ARG B   2      56.931  84.347  38.381  1.00 39.61 LIG-0.23  N 
ATOM     14 1HH1 ARG B   2      54.401  82.534  38.571  1.00 36.12 LIG 0.17  HD
ATOM     15 2HH1 ARG B   2      55.826  82.128  38.714  1.00 36.12 LIG 0.17  HD
ATOM     16 1HH2 ARG B   2      57.167  85.163  38.246  1.00 39.61 LIG 0.17  HD
ATOM     17 2HH2 ARG B   2      57.529  83.744  38.516  1.00 39.61 LIG 0.17  HD
ENDBRANCH 8 9
ENDBRANCH 7 8
ENDBRANCH 6 7
ENDBRANCH 5 6
BRANCH 5 18
ATOM     18  N   ARG B   2      52.440  89.543  34.906  1.00 32.37 LIG-0.35  N 
ATOM     19 H    ARG B   2      51.711  89.298  35.290  1.00 32.37 LIG 0.16  HD
ATOM     20  C   ASN B   1      52.563  90.525  34.034  1.00 31.22 LIG 0.25  C 
ATOM     21 O    ASN B   1      53.629  90.753  33.503  1.00 24.61 LIG-0.27  OA
BRANCH 20 22
ATOM     22  CA  ASN B   1      51.355  91.358  33.643  1.00 32.89 LIG 0.28  C 
BRANCH 22 23
ATOM     23  CB  ASN B   1      50.450  90.444  32.815  1.00 38.07 LIG 0.14  C 
BRANCH 23 24
ATOM     24  CG  ASN B   1      50.525  90.734  31.369  1.00 44.05 LIG 0.22  C 
ATOM     25  ND2 ASN B   1      50.894  89.740  30.605  1.00 47.62 LIG-0.37  N 
ATOM     26 21HD ASN B   1      50.941  89.847  29.753  1.00 47.62 LIG 0.16  HD
ATOM     27 22HD ASN B   1      51.091  88.979  30.953  1.00 47.62 LIG 0.16  HD
ATOM     28 OD1  ASN B   1      50.230  91.852  30.923  1.00 47.48 LIG-0.27  OA
ENDBRANCH 23 24
ENDBRANCH 22 23
BRANCH 22 29
ATOM     29  N   ASN B   1      51.604  92.634  32.910  1.00 44.58 LIG-0.07  N 
ATOM     30 H1   ASN B   1      50.891  92.839  32.418  1.00 44.58 LIG 0.28  HD
ATOM     31 H3   ASN B   1      52.313  92.539  32.380  1.00 44.58 LIG 0.28  HD
ATOM     32 H2   ASN B   1      51.757  93.288  33.495  1.00 44.58 LIG 0.28  HD
ENDBRANCH 22 29
ENDBRANCH 20 22
ENDBRANCH 5 18
ENDBRANCH 1 5
BRANCH 3 33
ATOM     33  CA  LEU B   3      53.513  86.771  32.070  1.00 27.74 LIG 0.18  C 
BRANCH 33 34
ATOM     34  C   LEU B   3      54.388  87.625  31.237  1.00 25.40 LIG 0.24  C 
ATOM     35 O    LEU B   3      53.916  88.484  30.504  1.00 26.81 LIG-0.27  OA
ATOM     36  N   ILE B   4      55.679  87.416  31.329  1.00 26.13 LIG-0.35  N 
ATOM     37 H    ILE B   4      56.050  86.886  31.895  1.00 26.13 LIG 0.16  HD
BRANCH 36 38
ATOM     38  CA  ILE B   4      56.554  88.072  30.473  1.00 24.17 LIG 0.18  C 
BRANCH 38 39
ATOM     39  CB  ILE B   4      57.854  88.313  31.271  1.00 29.09 LIG 0.01  C 
ATOM     40  CG2 ILE B   4      58.570  87.011  31.385  1.00 25.20 LIG 0.01  C 
BRANCH 39 41
ATOM     41  CG1 ILE B   4      58.802  89.280  30.575  1.00 28.67 LIG 0.00  C 
ATOM     42  CD1 ILE B   4      58.105  90.541  30.129  1.00 34.41 LIG 0.01  C 
ENDBRANCH 39 41
ENDBRANCH 38 39
BRANCH 38 43
ATOM     43  C   ILE B   4      56.758  87.312  29.158  1.00 29.58 LIG 0.24  C 
ATOM     44  N   LEU B   5      57.087  88.062  28.114  1.00 36.70 LIG-0.35  N 
ATOM     45 H    LEU B   5      57.081  88.922  28.121  1.00 36.70 LIG 0.16  HD
ATOM     46 O    ILE B   4      56.606  86.054  29.080  1.00 23.70 LIG-0.27  OA
BRANCH 44 47
ATOM     47  CA  LEU B   5      57.489  87.481  26.858  1.00 37.00 LIG 0.16  C 
BRANCH 47 48
ATOM     48  C   LEU B   5      58.923  86.921  26.939  1.00 42.59 LIG 0.22  C 
ATOM     49 O    LEU B   5      59.407  86.227  26.005  1.00 38.80 LIG-0.29  OA
ENDBRANCH 47 48
BRANCH 47 50
ATOM     50  CB  LEU B   5      57.414  88.565  25.791  1.00 50.59 LIG 0.04  C 
BRANCH 50 51
ATOM     51  CG  LEU B   5      57.205  89.978  26.304  1.00 50.85 LIG-0.02  C 
ATOM     52  CD1 LEU B   5      58.173  90.891  25.584  1.00 54.07 LIG 0.01  C 
ATOM     53  CD2 LEU B   5      55.759  90.352  26.004  1.00 54.33 LIG 0.01  C 
ENDBRANCH 50 51
ENDBRANCH 47 50
ENDBRANCH 44 47
ENDBRANCH 38 43
ENDBRANCH 36 38
ENDBRANCH 33 34
BRANCH 33 54
ATOM     54  CB  LEU B   3      52.228  86.533  31.313  1.00 34.11 LIG 0.04  C 
BRANCH 54 55
ATOM     55  CG  LEU B   3      52.077  85.061  31.130  1.00 35.49 LIG-0.02  C 
ATOM     56  CD1 LEU B   3      52.853  84.363  32.229  1.00 39.12 LIG 0.01  C 
ATOM     57  CD2 LEU B   3      50.594  84.848  31.301  1.00 34.32 LIG 0.01  C 
ENDBRANCH 54 55
ENDBRANCH 33 54
ENDBRANCH 3 33
TORSDOF 22
ENDMDL
MODEL 27
USER: ADFR SOLUTION from run 162
USER: SCORE 19.366033 LL:  -4.052 LR: -17.015 RR:   0.000 FEB: -10.453
USER: RMSD 4.862712
USER: SEED 161
USER: STATUS no improvement in best in 16 clusters for 5 generations
USER: GENES 24
USER: genes 0 Translation |==|  0.48246 0.46950 0.39694
USER: genes 1 Rotation |==|  0.46618 0.53122 0.46126 0.99637
USER: genes 2 Torsion [N]-C--CA-[N] |==|  0.04936
USER: genes 3 Torsion [C]-CA--CB-[CG] |==|  0.76603
USER: genes 4 Torsion [CA]-CB--CG-[CD] |==|  0.31688
USER: genes 5 Torsion [CB]-CG--CD-[NE] |==|  0.41682
USER: genes 6 Torsion [CG]-CD--NE-[HE] |==|  0.16077
USER: genes 7 Torsion [C]-CA--N-[C] |==|  0.72733
USER: genes 8 Torsion [N]-C--CA-[N] |==|  0.48037
USER: genes 9 Torsion [C]-CA--CB-[CG] |==|  0.22247
USER: genes 10 Torsion [CA]-CB--CG-[OD1] |==|  0.02096
USER: genes 11 Torsion [C]-CA--N-[H1] |==|  0.83759
USER: genes 12 Torsion [C]-N--CA-[CB] |==|  0.42149
USER: genes 13 Torsion [N]-CA--C-[N] |==|  0.31156
USER: genes 14 Torsion [C]-N--CA-[C] |==|  0.76243
USER: genes 15 Torsion [N]-CA--CB-[CG1] |==|  0.64636
USER: genes 16 Torsion [CA]-CB--CG1-[CD1] |==|  0.94961
USER: genes 17 Torsion [N]-CA--C-[N] |==|  0.47768
USER: genes 18 Torsion [C]-N--CA-[C] |==|  0.20397
USER: genes 19 Torsion [N]-CA--C-[O] |==|  0.02056
USER: genes 20 Torsion [N]-CA--CB-[CG] |==|  0.65860
USER: genes 21 Torsion [CA]-CB--CG-[CD1] |==|  0.27077
USER: genes 22 Torsion [N]-CA--CB-[CG] |==|  0.74982
USER: genes 23 Torsion [CA]-CB--CG-[CD1] |==|  0.44806
ROOT
ATOM      1  C   ARG B   2      56.639  86.405  27.512  1.00 25.54 LIG 0.24  C 
ATOM      2 O    ARG B   2      56.893  85.326  28.133  1.00 21.45 LIG-0.27  OA
ATOM      3  N   LEU B   3      56.627  87.579  28.125  1.00 32.00 LIG-0.35  N 
ATOM      4 H    LEU B   3      56.563  88.335  27.720  1.00 32.00 LIG 0.16  HD
ENDROOT
BRANCH 1 5
ATOM      5  CA  ARG B   2      56.298  86.424  26.029  1.00 29.44 LIG 0.18  C 
BRANCH 5 6
ATOM      6  CB  ARG B   2      57.233  85.443  25.255  1.00 37.02 LIG 0.04  C 
BRANCH 6 7
ATOM      7  CG  ARG B   2      58.582  86.052  24.873  1.00 39.92 LIG 0.02  C 
BRANCH 7 8
ATOM      8  CD  ARG B   2      59.721  85.350  25.622  1.00 40.77 LIG 0.14  C 
BRANCH 8 9
ATOM      9  NE  ARG B   2      60.894  85.433  24.739  1.00 48.07 LIG-0.23  N 
ATOM     10 HE   ARG B   2      61.137  86.226  24.512  1.00 48.07 LIG 0.18  HD
ATOM     11  CZ  ARG B   2      61.632  84.430  24.243  1.00 44.36 LIG 0.67  C 
ATOM     12  NH1 ARG B   2      62.680  84.769  23.469  1.00 36.12 LIG-0.23  N 
ATOM     13  NH2 ARG B   2      61.358  83.131  24.504  1.00 39.61 LIG-0.23  N 
ATOM     14 1HH1 ARG B   2      62.850  85.597  23.313  1.00 36.12 LIG 0.17  HD
ATOM     15 2HH1 ARG B   2      63.180  84.157  23.131  1.00 36.12 LIG 0.17  HD
ATOM     16 1HH2 ARG B   2      60.690  82.925  25.004  1.00 39.61 LIG 0.17  HD
ATOM     17 2HH2 ARG B   2      61.852  82.512  24.169  1.00 39.61 LIG 0.17  HD
ENDBRANCH 8 9
ENDBRANCH 7 8
ENDBRANCH 6 7
ENDBRANCH 5 6
BRANCH 5 18
ATOM     18  N   ARG B   2      56.429  87.782  25.470  1.00 32.37 LIG-0.35  N 
ATOM     19 H    ARG B   2      57.223  88.029  25.254  1.00 32.37 LIG 0.16  HD
ATOM     20  C   ASN B   1      55.332  88.503  25.345  1.00 31.22 LIG 0.25  C 
ATOM     21 O    ASN B   1      54.265  88.083  25.737  1.00 24.61 LIG-0.27  OA
BRANCH 20 22
ATOM     22  CA  ASN B   1      55.397  89.899  24.750  1.00 32.89 LIG 0.28  C 
BRANCH 22 23
ATOM     23  CB  ASN B   1      56.265  90.731  25.696  1.00 38.07 LIG 0.14  C 
BRANCH 23 24
ATOM     24  CG  ASN B   1      57.709  90.503  25.487  1.00 44.05 LIG 0.22  C 
ATOM     25  ND2 ASN B   1      58.507  91.042  26.371  1.00 47.62 LIG-0.37  N 
ATOM     26 21HD ASN B   1      59.357  90.929  26.308  1.00 47.62 LIG 0.16  HD
ATOM     27 22HD ASN B   1      58.183  91.509  27.015  1.00 47.62 LIG 0.16  HD
ATOM     28 OD1  ASN B   1      58.119  89.820  24.538  1.00 47.48 LIG-0.27  OA
ENDBRANCH 23 24
ENDBRANCH 22 23
BRANCH 22 29
ATOM     29  N   ASN B   1      54.106  90.599  24.487  1.00 44.58 LIG-0.07  N 
ATOM     30 H1   ASN B   1      53.611  90.111  23.931  1.00 44.58 LIG 0.28  HD
ATOM     31 H3   ASN B   1      54.268  91.394  24.121  1.00 44.58 LIG 0.28  HD
ATOM     32 H2   ASN B   1      53.667  90.709  25.254  1.00 44.58 LIG 0.28  HD
ENDBRANCH 22 29
ENDBRANCH 20 22
ENDBRANCH 5 18
ENDBRANCH 1 5
BRANCH 3 33
ATOM     33  CA  LEU B   3      56.727  87.674  29.573  1.00 27.74 LIG 0.18  C 
BRANCH 33 34
ATOM     34  C   LEU B   3      55.389  87.635  30.201  1.00 25.40 LIG 0.24  C 
ATOM     35 O    LEU B   3      54.596  88.554  30.047  1.00 26.81 LIG-0.27  OA
ATOM     36  N   ILE B   4      55.102  86.575  30.917  1.00 26.13 LIG-0.35  N 
ATOM     37 H    ILE B   4      55.596  85.874  30.973  1.00 26.13 LIG 0.16  HD
BRANCH 36 38
ATOM     38  CA  ILE B   4      53.927  86.531  31.657  1.00 24.17 LIG 0.18  C 
BRANCH 38 39
ATOM     39  CB  ILE B   4      53.489  85.051  31.701  1.00 29.09 LIG 0.01  C 
ATOM     40  CG2 ILE B   4      53.567  84.591  33.117  1.00 25.20 LIG 0.01  C 
BRANCH 39 41
ATOM     41  CG1 ILE B   4      52.049  84.849  31.249  1.00 28.67 LIG 0.00  C 
ATOM     42  CD1 ILE B   4      51.255  86.131  31.283  1.00 34.41 LIG 0.01  C 
ENDBRANCH 39 41
ENDBRANCH 38 39
BRANCH 38 43
ATOM     43  C   ILE B   4      54.086  87.178  33.036  1.00 29.58 LIG 0.24  C 
ATOM     44  N   LEU B   5      52.963  87.320  33.729  1.00 36.70 LIG-0.35  N 
ATOM     45 H    LEU B   5      52.179  87.173  33.408  1.00 36.70 LIG 0.16  HD
ATOM     46 O    ILE B   4      55.215  87.563  33.471  1.00 23.70 LIG-0.27  OA
BRANCH 44 47
ATOM     47  CA  LEU B   5      52.970  87.740  35.108  1.00 37.00 LIG 0.16  C 
BRANCH 47 48
ATOM     48  C   LEU B   5      53.300  89.241  35.230  1.00 42.59 LIG 0.22  C 
ATOM     49 O    LEU B   5      53.388  89.975  34.209  1.00 38.80 LIG-0.29  OA
ENDBRANCH 47 48
BRANCH 47 50
ATOM     50  CB  LEU B   5      54.017  86.917  35.846  1.00 50.59 LIG 0.04  C 
BRANCH 50 51
ATOM     51  CG  LEU B   5      53.512  86.129  37.040  1.00 50.85 LIG-0.02  C 
ATOM     52  CD1 LEU B   5      53.252  84.707  36.594  1.00 54.07 LIG 0.01  C 
ATOM     53  CD2 LEU B   5      54.599  86.188  38.107  1.00 54.33 LIG 0.01  C 
ENDBRANCH 50 51
ENDBRANCH 47 50
ENDBRANCH 44 47
ENDBRANCH 38 43
ENDBRANCH 36 38
ENDBRANCH 33 34
BRANCH 33 54
ATOM     54  CB  LEU B   3      57.371  88.996  29.916  1.00 34.11 LIG 0.04  C 
BRANCH 54 55
ATOM     55  CG  LEU B   3      58.846  88.781  29.972  1.00 35.49 LIG-0.02  C 
ATOM     56  CD1 LEU B   3      59.528  90.129  29.850  1.00 39.12 LIG 0.01  C 
ATOM     57  CD2 LEU B   3      59.051  88.198  31.348  1.00 34.32 LIG 0.01  C 
ENDBRANCH 54 55
ENDBRANCH 33 54
ENDBRANCH 3 33
TORSDOF 22
ENDMDL
MODEL 28
USER: ADFR SOLUTION from run 99
USER: SCORE 19.752537 LL:  -3.793 LR: -17.004 RR:   0.000 FEB: -10.442
USER: RMSD 6.642540
USER: SEED 98
USER: STATUS no improvement in best in 8 clusters for 5 generations
USER: GENES 24
USER: genes 0 Translation |==|  0.42885 0.43374 0.31333
USER: genes 1 Rotation |==|  0.39076 0.73197 0.18748 0.79426
USER: genes 2 Torsion [N]-C--CA-[N] |==|  0.39553
USER: genes 3 Torsion [C]-CA--CB-[CG] |==|  0.31385
USER: genes 4 Torsion [CA]-CB--CG-[CD] |==|  0.33436
USER: genes 5 Torsion [CB]-CG--CD-[NE] |==|  0.53177
USER: genes 6 Torsion [CG]-CD--NE-[HE] |==|  0.74610
USER: genes 7 Torsion [C]-CA--N-[C] |==|  0.82045
USER: genes 8 Torsion [N]-C--CA-[N] |==|  0.45836
USER: genes 9 Torsion [C]-CA--CB-[CG] |==|  0.47047
USER: genes 10 Torsion [CA]-CB--CG-[OD1] |==|  0.98023
USER: genes 11 Torsion [C]-CA--N-[H1] |==|  0.45328
USER: genes 12 Torsion [C]-N--CA-[CB] |==|  0.55040
USER: genes 13 Torsion [N]-CA--C-[N] |==|  0.77845
USER: genes 14 Torsion [C]-N--CA-[C] |==|  0.81587
USER: genes 15 Torsion [N]-CA--CB-[CG1] |==|  0.45745
USER: genes 16 Torsion [CA]-CB--CG1-[CD1] |==|  0.19505
USER: genes 17 Torsion [N]-CA--C-[N] |==|  0.34659
USER: genes 18 Torsion [C]-N--CA-[C] |==|  0.66418
USER: genes 19 Torsion [N]-CA--C-[O] |==|  0.91383
USER: genes 20 Torsion [N]-CA--CB-[CG] |==|  0.43899
USER: genes 21 Torsion [CA]-CB--CG-[CD1] |==|  0.36939
USER: genes 22 Torsion [N]-CA--CB-[CG] |==|  0.74403
USER: genes 23 Torsion [CA]-CB--CG-[CD1] |==|  0.65845
ROOT
ATOM      1  C   ARG B   2      55.513  85.735  25.694  1.00 25.54 LIG 0.24  C 
ATOM      2 O    ARG B   2      55.265  85.101  26.767  1.00 21.45 LIG-0.27  OA
ATOM      3  N   LEU B   3      56.747  85.878  25.235  1.00 32.00 LIG-0.35  N 
ATOM      4 H    LEU B   3      56.940  86.208  24.465  1.00 32.00 LIG 0.16  HD
ENDROOT
BRANCH 1 5
ATOM      5  CA  ARG B   2      54.415  86.400  24.876  1.00 29.44 LIG 0.18  C 
BRANCH 5 6
ATOM      6  CB  ARG B   2      54.079  87.801  25.476  1.00 37.02 LIG 0.04  C 
BRANCH 6 7
ATOM      7  CG  ARG B   2      54.461  88.968  24.566  1.00 39.92 LIG 0.02  C 
BRANCH 7 8
ATOM      8  CD  ARG B   2      53.225  89.804  24.214  1.00 40.77 LIG 0.14  C 
BRANCH 8 9
ATOM      9  NE  ARG B   2      53.646  90.710  23.135  1.00 48.07 LIG-0.23  N 
ATOM     10 HE   ARG B   2      53.944  91.477  23.383  1.00 48.07 LIG 0.18  HD
ATOM     11  CZ  ARG B   2      53.624  90.490  21.812  1.00 44.36 LIG 0.67  C 
ATOM     12  NH1 ARG B   2      54.089  91.477  21.023  1.00 36.12 LIG-0.23  N 
ATOM     13  NH2 ARG B   2      53.168  89.334  21.277  1.00 39.61 LIG-0.23  N 
ATOM     14 1HH1 ARG B   2      54.382  92.206  21.372  1.00 36.12 LIG 0.17  HD
ATOM     15 2HH1 ARG B   2      54.094  91.378  20.169  1.00 36.12 LIG 0.17  HD
ATOM     16 1HH2 ARG B   2      52.879  88.708  21.789  1.00 39.61 LIG 0.17  HD
ATOM     17 2HH2 ARG B   2      53.168  89.226  20.424  1.00 39.61 LIG 0.17  HD
ENDBRANCH 8 9
ENDBRANCH 7 8
ENDBRANCH 6 7
ENDBRANCH 5 6
BRANCH 5 18
ATOM     18  N   ARG B   2      53.198  85.568  24.842  1.00 32.37 LIG-0.35  N 
ATOM     19 H    ARG B   2      52.500  85.899  25.219  1.00 32.37 LIG 0.16  HD
ATOM     20  C   ASN B   1      53.273  84.396  24.243  1.00 31.22 LIG 0.25  C 
ATOM     21 O    ASN B   1      54.325  83.994  23.793  1.00 24.61 LIG-0.27  OA
BRANCH 20 22
ATOM     22  CA  ASN B   1      52.047  83.504  24.149  1.00 32.89 LIG 0.28  C 
BRANCH 22 23
ATOM     23  CB  ASN B   1      51.783  82.984  25.563  1.00 38.07 LIG 0.14  C 
BRANCH 23 24
ATOM     24  CG  ASN B   1      50.477  82.304  25.681  1.00 44.05 LIG 0.22  C 
ATOM     25  ND2 ASN B   1      50.233  81.726  26.828  1.00 47.62 LIG-0.37  N 
ATOM     26 21HD ASN B   1      49.483  81.328  26.958  1.00 47.62 LIG 0.16  HD
ATOM     27 22HD ASN B   1      50.824  81.744  27.452  1.00 47.62 LIG 0.16  HD
ATOM     28 OD1  ASN B   1      49.665  82.311  24.745  1.00 47.48 LIG-0.27  OA
ENDBRANCH 23 24
ENDBRANCH 22 23
BRANCH 22 29
ATOM     29  N   ASN B   1      52.091  82.368  23.183  1.00 44.58 LIG-0.07  N 
ATOM     30 H1   ASN B   1      51.447  81.785  23.379  1.00 44.58 LIG 0.28  HD
ATOM     31 H3   ASN B   1      52.883  81.964  23.236  1.00 44.58 LIG 0.28  HD
ATOM     32 H2   ASN B   1      51.970  82.676  22.357  1.00 44.58 LIG 0.28  HD
ENDBRANCH 22 29
ENDBRANCH 20 22
ENDBRANCH 5 18
ENDBRANCH 1 5
BRANCH 3 33
ATOM     33  CA  LEU B   3      57.897  85.475  26.029  1.00 27.74 LIG 0.18  C 
BRANCH 33 34
ATOM     34  C   LEU B   3      57.743  85.896  27.438  1.00 25.40 LIG 0.24  C 
ATOM     35 O    LEU B   3      57.382  85.102  28.296  1.00 26.81 LIG-0.27  OA
ATOM     36  N   ILE B   4      58.015  87.149  27.714  1.00 26.13 LIG-0.35  N 
ATOM     37 H    ILE B   4      58.355  87.710  27.158  1.00 26.13 LIG 0.16  HD
BRANCH 36 38
ATOM     38  CA  ILE B   4      57.753  87.657  28.980  1.00 24.17 LIG 0.18  C 
BRANCH 38 39
ATOM     39  CB  ILE B   4      58.456  89.029  29.059  1.00 29.09 LIG 0.01  C 
ATOM     40  CG2 ILE B   4      58.132  89.783  27.814  1.00 25.20 LIG 0.01  C 
BRANCH 39 41
ATOM     41  CG1 ILE B   4      57.968  89.875  30.227  1.00 28.67 LIG 0.00  C 
ATOM     42  CD1 ILE B   4      58.421  89.325  31.557  1.00 34.41 LIG 0.01  C 
ENDBRANCH 39 41
ENDBRANCH 38 39
BRANCH 38 43
ATOM     43  C   ILE B   4      56.253  87.702  29.288  1.00 29.58 LIG 0.24  C 
ATOM     44  N   LEU B   5      55.881  87.071  30.395  1.00 36.70 LIG-0.35  N 
ATOM     45 H    LEU B   5      56.404  86.572  30.860  1.00 36.70 LIG 0.16  HD
ATOM     46 O    ILE B   4      55.429  88.292  28.524  1.00 23.70 LIG-0.27  OA
BRANCH 44 47
ATOM     47  CA  LEU B   5      54.541  87.178  30.915  1.00 37.00 LIG 0.16  C 
BRANCH 47 48
ATOM     48  C   LEU B   5      54.545  87.750  32.347  1.00 42.59 LIG 0.22  C 
ATOM     49 O    LEU B   5      55.507  87.538  33.132  1.00 38.80 LIG-0.29  OA
ENDBRANCH 47 48
BRANCH 47 50
ATOM     50  CB  LEU B   5      53.924  85.785  30.915  1.00 50.59 LIG 0.04  C 
BRANCH 50 51
ATOM     51  CG  LEU B   5      52.763  85.581  31.869  1.00 50.85 LIG-0.02  C 
ATOM     52  CD1 LEU B   5      51.649  84.884  31.118  1.00 54.07 LIG 0.01  C 
ATOM     53  CD2 LEU B   5      53.277  84.726  33.021  1.00 54.33 LIG 0.01  C 
ENDBRANCH 50 51
ENDBRANCH 47 50
ENDBRANCH 44 47
ENDBRANCH 38 43
ENDBRANCH 36 38
ENDBRANCH 33 34
BRANCH 33 54
ATOM     54  CB  LEU B   3      59.122  86.155  25.464  1.00 34.11 LIG 0.04  C 
BRANCH 54 55
ATOM     55  CG  LEU B   3      59.731  85.232  24.464  1.00 35.49 LIG-0.02  C 
ATOM     56  CD1 LEU B   3      61.166  84.967  24.875  1.00 39.12 LIG 0.01  C 
ATOM     57  CD2 LEU B   3      58.894  83.984  24.600  1.00 34.32 LIG 0.01  C 
ENDBRANCH 54 55
ENDBRANCH 33 54
ENDBRANCH 3 33
TORSDOF 22
ENDMDL
MODEL 29
USER: ADFR SOLUTION from run 97
USER: SCORE 19.859448 LL:  -3.758 LR: -16.987 RR:   0.000 FEB: -10.424
USER: RMSD 4.680120
USER: SEED 96
USER: STATUS no improvement in best in 5 clusters for 5 generations
USER: GENES 24
USER: genes 0 Translation |==|  0.54832 0.49975 0.37890
USER: genes 1 Rotation |==|  0.54537 0.48755 0.27181 0.94240
USER: genes 2 Torsion [N]-C--CA-[N] |==|  0.95218
USER: genes 3 Torsion [C]-CA--CB-[CG] |==|  0.10015
USER: genes 4 Torsion [CA]-CB--CG-[CD] |==|  0.40285
USER: genes 5 Torsion [CB]-CG--CD-[NE] |==|  0.38790
USER: genes 6 Torsion [CG]-CD--NE-[HE] |==|  0.02398
USER: genes 7 Torsion [C]-CA--N-[C] |==|  0.75634
USER: genes 8 Torsion [N]-C--CA-[N] |==|  0.78438
USER: genes 9 Torsion [C]-CA--CB-[CG] |==|  0.24185
USER: genes 10 Torsion [CA]-CB--CG-[OD1] |==|  0.90723
USER: genes 11 Torsion [C]-CA--N-[H1] |==|  0.59574
USER: genes 12 Torsion [C]-N--CA-[CB] |==|  0.50100
USER: genes 13 Torsion [N]-CA--C-[N] |==|  0.35556
USER: genes 14 Torsion [C]-N--CA-[C] |==|  0.77138
USER: genes 15 Torsion [N]-CA--CB-[CG1] |==|  0.63280
USER: genes 16 Torsion [CA]-CB--CG1-[CD1] |==|  0.57221
USER: genes 17 Torsion [N]-CA--C-[N] |==|  0.45607
USER: genes 18 Torsion [C]-N--CA-[C] |==|  0.82655
USER: genes 19 Torsion [N]-CA--C-[O] |==|  0.09165
USER: genes 20 Torsion [N]-CA--CB-[CG] |==|  0.92804
USER: genes 21 Torsion [CA]-CB--CG-[CD1] |==|  0.27717
USER: genes 22 Torsion [N]-CA--CB-[CG] |==|  0.51832
USER: genes 23 Torsion [CA]-CB--CG-[CD1] |==|  0.14898
ROOT
ATOM      1  C   ARG B   2      58.022  86.972  27.120  1.00 25.54 LIG 0.24  C 
ATOM      2 O    ARG B   2      57.272  85.986  27.404  1.00 21.45 LIG-0.27  OA
ATOM      3  N   LEU B   3      58.620  87.690  28.058  1.00 32.00 LIG-0.35  N 
ATOM      4 H    LEU B   3      59.211  88.294  27.901  1.00 32.00 LIG 0.16  HD
ENDROOT
BRANCH 1 5
ATOM      5  CA  ARG B   2      58.260  87.420  25.685  1.00 29.44 LIG 0.18  C 
BRANCH 5 6
ATOM      6  CB  ARG B   2      59.268  86.454  24.986  1.00 37.02 LIG 0.04  C 
BRANCH 6 7
ATOM      7  CG  ARG B   2      59.116  84.994  25.411  1.00 39.92 LIG 0.02  C 
BRANCH 7 8
ATOM      8  CD  ARG B   2      59.405  84.058  24.231  1.00 40.77 LIG 0.14  C 
BRANCH 8 9
ATOM      9  NE  ARG B   2      60.175  82.935  24.789  1.00 48.07 LIG-0.23  N 
ATOM     10 HE   ARG B   2      60.237  82.912  25.646  1.00 48.07 LIG 0.18  HD
ATOM     11  CZ  ARG B   2      60.793  81.945  24.130  1.00 44.36 LIG 0.67  C 
ATOM     12  NH1 ARG B   2      61.418  81.014  24.875  1.00 36.12 LIG-0.23  N 
ATOM     13  NH2 ARG B   2      60.793  81.862  22.780  1.00 39.61 LIG-0.23  N 
ATOM     14 1HH1 ARG B   2      61.409  81.072  25.733  1.00 36.12 LIG 0.17  HD
ATOM     15 2HH1 ARG B   2      61.827  80.361  24.493  1.00 36.12 LIG 0.17  HD
ATOM     16 1HH2 ARG B   2      60.386  82.458  22.313  1.00 39.61 LIG 0.17  HD
ATOM     17 2HH2 ARG B   2      61.200  81.213  22.388  1.00 39.61 LIG 0.17  HD
ENDBRANCH 8 9
ENDBRANCH 7 8
ENDBRANCH 6 7
ENDBRANCH 5 6
BRANCH 5 18
ATOM     18  N   ARG B   2      58.778  88.800  25.637  1.00 32.37 LIG-0.35  N 
ATOM     19 H    ARG B   2      59.633  88.885  25.629  1.00 32.37 LIG 0.16  HD
ATOM     20  C   ASN B   1      57.901  89.784  25.609  1.00 31.22 LIG 0.25  C 
ATOM     21 O    ASN B   1      56.712  89.558  25.685  1.00 24.61 LIG-0.27  OA
BRANCH 20 22
ATOM     22  CA  ASN B   1      58.371  91.226  25.531  1.00 32.89 LIG 0.28  C 
BRANCH 22 23
ATOM     23  CB  ASN B   1      59.445  91.271  24.443  1.00 38.07 LIG 0.14  C 
BRANCH 23 24
ATOM     24  CG  ASN B   1      58.877  91.481  23.096  1.00 44.05 LIG 0.22  C 
ATOM     25  ND2 ASN B   1      59.622  92.156  22.260  1.00 47.62 LIG-0.37  N 
ATOM     26 21HD ASN B   1      59.348  92.296  21.457  1.00 47.62 LIG 0.16  HD
ATOM     27 22HD ASN B   1      60.385  92.461  22.513  1.00 47.62 LIG 0.16  HD
ATOM     28 OD1  ASN B   1      57.770  91.018  22.789  1.00 47.48 LIG-0.27  OA
ENDBRANCH 23 24
ENDBRANCH 22 23
BRANCH 22 29
ATOM     29  N   ASN B   1      58.882  91.854  26.784  1.00 44.58 LIG-0.07  N 
ATOM     30 H1   ASN B   1      58.663  92.717  26.795  1.00 44.58 LIG 0.28  HD
ATOM     31 H3   ASN B   1      59.768  91.773  26.818  1.00 44.58 LIG 0.28  HD
ATOM     32 H2   ASN B   1      58.520  91.449  27.489  1.00 44.58 LIG 0.28  HD
ENDBRANCH 22 29
ENDBRANCH 20 22
ENDBRANCH 5 18
ENDBRANCH 1 5
BRANCH 3 33
ATOM     33  CA  LEU B   3      58.307  87.499  29.466  1.00 27.74 LIG 0.18  C 
BRANCH 33 34
ATOM     34  C   LEU B   3      56.882  87.785  29.736  1.00 25.40 LIG 0.24  C 
ATOM     35 O    LEU B   3      56.371  88.836  29.372  1.00 26.81 LIG-0.27  OA
ATOM     36  N   ILE B   4      56.204  86.863  30.375  1.00 26.13 LIG-0.35  N 
ATOM     37 H    ILE B   4      56.503  86.080  30.566  1.00 26.13 LIG 0.16  HD
BRANCH 36 38
ATOM     38  CA  ILE B   4      54.904  87.117  30.795  1.00 24.17 LIG 0.18  C 
BRANCH 38 39
ATOM     39  CB  ILE B   4      54.178  85.755  30.831  1.00 29.09 LIG 0.01  C 
ATOM     40  CG2 ILE B   4      53.934  85.403  32.259  1.00 25.20 LIG 0.01  C 
BRANCH 39 41
ATOM     41  CG1 ILE B   4      52.819  85.794  30.147  1.00 28.67 LIG 0.00  C 
ATOM     42  CD1 ILE B   4      51.877  84.748  30.691  1.00 34.41 LIG 0.01  C 
ENDBRANCH 39 41
ENDBRANCH 38 39
BRANCH 38 43
ATOM     43  C   ILE B   4      54.863  87.884  32.121  1.00 29.58 LIG 0.24  C 
ATOM     44  N   LEU B   5      53.697  88.443  32.417  1.00 36.70 LIG-0.35  N 
ATOM     45 H    LEU B   5      53.033  88.484  31.873  1.00 36.70 LIG 0.16  HD
ATOM     46 O    ILE B   4      55.884  87.985  32.869  1.00 23.70 LIG-0.27  OA
BRANCH 44 47
ATOM     47  CA  LEU B   5      53.446  89.039  33.705  1.00 37.00 LIG 0.16  C 
BRANCH 47 48
ATOM     48  C   LEU B   5      53.540  87.990  34.831  1.00 42.59 LIG 0.22  C 
ATOM     49 O    LEU B   5      54.342  87.021  34.755  1.00 38.80 LIG-0.29  OA
ENDBRANCH 47 48
BRANCH 47 50
ATOM     50  CB  LEU B   5      52.051  89.649  33.679  1.00 50.59 LIG 0.04  C 
BRANCH 50 51
ATOM     51  CG  LEU B   5      51.537  90.054  32.310  1.00 50.85 LIG-0.02  C 
ATOM     52  CD1 LEU B   5      50.607  88.969  31.813  1.00 54.07 LIG 0.01  C 
ATOM     53  CD2 LEU B   5      50.804  91.379  32.483  1.00 54.33 LIG 0.01  C 
ENDBRANCH 50 51
ENDBRANCH 47 50
ENDBRANCH 44 47
ENDBRANCH 38 43
ENDBRANCH 36 38
ENDBRANCH 33 34
BRANCH 33 54
ATOM     54  CB  LEU B   3      59.143  88.467  30.271  1.00 34.11 LIG 0.04  C 
BRANCH 54 55
ATOM     55  CG  LEU B   3      58.936  88.154  31.713  1.00 35.49 LIG-0.02  C 
ATOM     56  CD1 LEU B   3      59.226  86.681  31.927  1.00 39.12 LIG 0.01  C 
ATOM     57  CD2 LEU B   3      59.972  89.010  32.398  1.00 34.32 LIG 0.01  C 
ENDBRANCH 54 55
ENDBRANCH 33 54
ENDBRANCH 3 33
TORSDOF 22
ENDMDL
MODEL 30
USER: ADFR SOLUTION from run 193
USER: SCORE 18.436585 LL:  -3.621 LR: -16.922 RR:   0.000 FEB: -10.360
USER: RMSD 9.840284
USER: SEED 192
USER: STATUS no improvement in best in 20 clusters for 5 generations
USER: GENES 24
USER: genes 0 Translation |==|  0.42376 0.56894 0.58763
USER: genes 1 Rotation |==|  0.85057 0.75490 0.72107 0.61513
USER: genes 2 Torsion [N]-C--CA-[N] |==|  0.84521
USER: genes 3 Torsion [C]-CA--CB-[CG] |==|  0.46831
USER: genes 4 Torsion [CA]-CB--CG-[CD] |==|  0.49656
USER: genes 5 Torsion [CB]-CG--CD-[NE] |==|  0.22592
USER: genes 6 Torsion [CG]-CD--NE-[HE] |==|  0.08647
USER: genes 7 Torsion [C]-CA--N-[C] |==|  0.71341
USER: genes 8 Torsion [N]-C--CA-[N] |==|  0.08646
USER: genes 9 Torsion [C]-CA--CB-[CG] |==|  0.46666
USER: genes 10 Torsion [CA]-CB--CG-[OD1] |==|  0.19134
USER: genes 11 Torsion [C]-CA--N-[H1] |==|  0.82083
USER: genes 12 Torsion [C]-N--CA-[CB] |==|  0.48333
USER: genes 13 Torsion [N]-CA--C-[N] |==|  0.29877
USER: genes 14 Torsion [C]-N--CA-[C] |==|  0.63082
USER: genes 15 Torsion [N]-CA--CB-[CG1] |==|  0.14330
USER: genes 16 Torsion [CA]-CB--CG1-[CD1] |==|  0.30673
USER: genes 17 Torsion [N]-CA--C-[N] |==|  0.82227
USER: genes 18 Torsion [C]-N--CA-[C] |==|  0.59325
USER: genes 19 Torsion [N]-CA--C-[O] |==|  0.25833
USER: genes 20 Torsion [N]-CA--CB-[CG] |==|  0.39923
USER: genes 21 Torsion [CA]-CB--CG-[CD1] |==|  0.20222
USER: genes 22 Torsion [N]-CA--CB-[CG] |==|  0.61957
USER: genes 23 Torsion [CA]-CB--CG-[CD1] |==|  0.00729
ROOT
ATOM      1  C   ARG B   2      55.406  88.270  31.660  1.00 25.54 LIG 0.24  C 
ATOM      2 O    ARG B   2      55.306  89.075  30.682  1.00 21.45 LIG-0.27  OA
ATOM      3  N   LEU B   3      56.562  87.720  31.999  1.00 32.00 LIG-0.35  N 
ATOM      4 H    LEU B   3      56.685  87.256  32.713  1.00 32.00 LIG 0.16  HD
ENDROOT
BRANCH 1 5
ATOM      5  CA  ARG B   2      54.200  87.854  32.491  1.00 29.44 LIG 0.18  C 
BRANCH 5 6
ATOM      6  CB  ARG B   2      54.362  88.366  33.957  1.00 37.02 LIG 0.04  C 
BRANCH 6 7
ATOM      7  CG  ARG B   2      53.090  88.242  34.795  1.00 39.92 LIG 0.02  C 
BRANCH 7 8
ATOM      8  CD  ARG B   2      53.338  88.736  36.226  1.00 40.77 LIG 0.14  C 
BRANCH 8 9
ATOM      9  NE  ARG B   2      53.229  90.201  36.169  1.00 48.07 LIG-0.23  N 
ATOM     10 HE   ARG B   2      52.684  90.515  35.583  1.00 48.07 LIG 0.18  HD
ATOM     11  CZ  ARG B   2      53.870  91.111  36.917  1.00 44.36 LIG 0.67  C 
ATOM     12  NH1 ARG B   2      53.578  92.405  36.687  1.00 36.12 LIG-0.23  N 
ATOM     13  NH2 ARG B   2      54.768  90.764  37.868  1.00 39.61 LIG-0.23  N 
ATOM     14 1HH1 ARG B   2      53.003  92.616  36.084  1.00 36.12 LIG 0.17  HD
ATOM     15 2HH1 ARG B   2      53.967  93.020  37.144  1.00 36.12 LIG 0.17  HD
ATOM     16 1HH2 ARG B   2      54.943  89.934  38.012  1.00 39.61 LIG 0.17  HD
ATOM     17 2HH2 ARG B   2      55.162  91.373  38.330  1.00 39.61 LIG 0.17  HD
ENDBRANCH 8 9
ENDBRANCH 7 8
ENDBRANCH 6 7
ENDBRANCH 5 6
BRANCH 5 18
ATOM     18  N   ARG B   2      54.034  86.389  32.491  1.00 32.37 LIG-0.35  N 
ATOM     19 H    ARG B   2      54.569  85.946  32.997  1.00 32.37 LIG 0.16  HD
ATOM     20  C   ASN B   1      53.089  85.878  31.726  1.00 31.22 LIG 0.25  C 
ATOM     21 O    ASN B   1      52.426  86.588  31.001  1.00 24.61 LIG-0.27  OA
BRANCH 20 22
ATOM     22  CA  ASN B   1      52.850  84.378  31.704  1.00 32.89 LIG 0.28  C 
BRANCH 22 23
ATOM     23  CB  ASN B   1      51.394  84.180  31.278  1.00 38.07 LIG 0.14  C 
BRANCH 23 24
ATOM     24  CG  ASN B   1      51.091  82.775  30.938  1.00 44.05 LIG 0.22  C 
ATOM     25  ND2 ASN B   1      50.876  82.526  29.673  1.00 47.62 LIG-0.37  N 
ATOM     26 21HD ASN B   1      50.710  81.723  29.415  1.00 47.62 LIG 0.16  HD
ATOM     27 22HD ASN B   1      50.900  83.165  29.098  1.00 47.62 LIG 0.16  HD
ATOM     28 OD1  ASN B   1      51.069  81.895  31.810  1.00 47.48 LIG-0.27  OA
ENDBRANCH 23 24
ENDBRANCH 22 23
BRANCH 22 29
ATOM     29  N   ASN B   1      53.126  83.617  32.957  1.00 44.58 LIG-0.07  N 
ATOM     30 H1   ASN B   1      53.995  83.660  33.146  1.00 44.58 LIG 0.28  HD
ATOM     31 H3   ASN B   1      52.889  82.766  32.847  1.00 44.58 LIG 0.28  HD
ATOM     32 H2   ASN B   1      52.659  83.970  33.628  1.00 44.58 LIG 0.28  HD
ENDBRANCH 22 29
ENDBRANCH 20 22
ENDBRANCH 5 18
ENDBRANCH 1 5
BRANCH 3 33
ATOM     33  CA  LEU B   3      57.741  87.868  31.161  1.00 27.74 LIG 0.18  C 
BRANCH 33 34
ATOM     34  C   LEU B   3      57.573  87.153  29.877  1.00 25.40 LIG 0.24  C 
ATOM     35 O    LEU B   3      57.602  85.931  29.830  1.00 26.81 LIG-0.27  OA
ATOM     36  N   ILE B   4      57.389  87.891  28.809  1.00 26.13 LIG-0.35  N 
ATOM     37 H    ILE B   4      57.274  88.743  28.817  1.00 26.13 LIG 0.16  HD
BRANCH 36 38
ATOM     38  CA  ILE B   4      57.370  87.303  27.550  1.00 24.17 LIG 0.18  C 
BRANCH 38 39
ATOM     39  CB  ILE B   4      55.887  87.185  27.140  1.00 29.09 LIG 0.01  C 
ATOM     40  CG2 ILE B   4      55.232  86.214  28.063  1.00 25.20 LIG 0.01  C 
BRANCH 39 41
ATOM     41  CG1 ILE B   4      55.132  88.500  27.274  1.00 28.67 LIG 0.00  C 
ATOM     42  CD1 ILE B   4      54.758  89.083  25.933  1.00 34.41 LIG 0.01  C 
ENDBRANCH 39 41
ENDBRANCH 38 39
BRANCH 38 43
ATOM     43  C   ILE B   4      58.240  88.064  26.543  1.00 29.58 LIG 0.24  C 
ATOM     44  N   LEU B   5      57.844  89.301  26.273  1.00 36.70 LIG-0.35  N 
ATOM     45 H    LEU B   5      57.099  89.635  26.540  1.00 36.70 LIG 0.16  HD
ATOM     46 O    ILE B   4      59.257  87.533  26.000  1.00 23.70 LIG-0.27  OA
BRANCH 44 47
ATOM     47  CA  LEU B   5      58.654  90.203  25.492  1.00 37.00 LIG 0.16  C 
BRANCH 47 48
ATOM     48  C   LEU B   5      58.483  91.659  25.969  1.00 42.59 LIG 0.22  C 
ATOM     49 O    LEU B   5      59.260  92.161  26.824  1.00 38.80 LIG-0.29  OA
ENDBRANCH 47 48
BRANCH 47 50
ATOM     50  CB  LEU B   5      58.225  90.080  24.036  1.00 50.59 LIG 0.04  C 
BRANCH 50 51
ATOM     51  CG  LEU B   5      58.246  91.367  23.233  1.00 50.85 LIG-0.02  C 
ATOM     52  CD1 LEU B   5      59.688  91.734  22.963  1.00 54.07 LIG 0.01  C 
ATOM     53  CD2 LEU B   5      57.487  91.099  21.939  1.00 54.33 LIG 0.01  C 
ENDBRANCH 50 51
ENDBRANCH 47 50
ENDBRANCH 44 47
ENDBRANCH 38 43
ENDBRANCH 36 38
ENDBRANCH 33 34
BRANCH 33 54
ATOM     54  CB  LEU B   3      58.917  87.260  31.889  1.00 34.11 LIG 0.04  C 
BRANCH 54 55
ATOM     55  CG  LEU B   3      60.077  88.183  31.726  1.00 35.49 LIG-0.02  C 
ATOM     56  CD1 LEU B   3      59.610  89.400  30.952  1.00 39.12 LIG 0.01  C 
ATOM     57  CD2 LEU B   3      60.420  88.550  33.148  1.00 34.32 LIG 0.01  C 
ENDBRANCH 54 55
ENDBRANCH 33 54
ENDBRANCH 3 33
TORSDOF 22
ENDMDL
MODEL 31
USER: ADFR SOLUTION from run 184
USER: SCORE 19.026047 LL:  -2.900 LR: -16.888 RR:   0.000 FEB: -10.325
USER: RMSD 5.598936
USER: SEED 183
USER: STATUS no improvement in best in 4 clusters for 5 generations
USER: GENES 24
USER: genes 0 Translation |==|  0.49607 0.58517 0.45038
USER: genes 1 Rotation |==|  0.44904 0.48114 0.00317 0.51427
USER: genes 2 Torsion [N]-C--CA-[N] |==|  0.45177
USER: genes 3 Torsion [C]-CA--CB-[CG] |==|  0.28409
USER: genes 4 Torsion [CA]-CB--CG-[CD] |==|  0.30846
USER: genes 5 Torsion [CB]-CG--CD-[NE] |==|  0.36431
USER: genes 6 Torsion [CG]-CD--NE-[HE] |==|  0.71213
USER: genes 7 Torsion [C]-CA--N-[C] |==|  0.64748
USER: genes 8 Torsion [N]-C--CA-[N] |==|  0.04834
USER: genes 9 Torsion [C]-CA--CB-[CG] |==|  0.47206
USER: genes 10 Torsion [CA]-CB--CG-[OD1] |==|  0.71676
USER: genes 11 Torsion [C]-CA--N-[H1] |==|  0.03139
USER: genes 12 Torsion [C]-N--CA-[CB] |==|  0.80286
USER: genes 13 Torsion [N]-CA--C-[N] |==|  0.23764
USER: genes 14 Torsion [C]-N--CA-[C] |==|  0.60976
USER: genes 15 Torsion [N]-CA--CB-[CG1] |==|  0.46053
USER: genes 16 Torsion [CA]-CB--CG1-[CD1] |==|  0.50503
USER: genes 17 Torsion [N]-CA--C-[N] |==|  0.40658
USER: genes 18 Torsion [C]-N--CA-[C] |==|  0.53013
USER: genes 19 Torsion [N]-CA--C-[O] |==|  0.29733
USER: genes 20 Torsion [N]-CA--CB-[CG] |==|  0.54416
USER: genes 21 Torsion [CA]-CB--CG-[CD1] |==|  0.18368
USER: genes 22 Torsion [N]-CA--CB-[CG] |==|  0.65273
USER: genes 23 Torsion [CA]-CB--CG-[CD1] |==|  0.65451
ROOT
ATOM      1  C   ARG B   2      56.924  88.574  28.675  1.00 25.54 LIG 0.24  C 
ATOM      2 O    ARG B   2      56.609  89.702  29.169  1.00 21.45 LIG-0.27  OA
ATOM      3  N   LEU B   3      57.407  87.593  29.422  1.00 32.00 LIG-0.35  N 
ATOM      4 H    LEU B   3      57.532  86.789  29.142  1.00 32.00 LIG 0.16  HD
ENDROOT
BRANCH 1 5
ATOM      5  CA  ARG B   2      56.800  88.280  27.186  1.00 29.44 LIG 0.18  C 
BRANCH 5 6
ATOM      6  CB  ARG B   2      58.208  88.335  26.513  1.00 37.02 LIG 0.04  C 
BRANCH 6 7
ATOM      7  CG  ARG B   2      58.810  86.958  26.235  1.00 39.92 LIG 0.02  C 
BRANCH 7 8
ATOM      8  CD  ARG B   2      58.863  86.690  24.726  1.00 40.77 LIG 0.14  C 
BRANCH 8 9
ATOM      9  NE  ARG B   2      60.229  86.219  24.449  1.00 48.07 LIG-0.23  N 
ATOM     10 HE   ARG B   2      60.756  86.791  24.083  1.00 48.07 LIG 0.18  HD
ATOM     11  CZ  ARG B   2      60.756  85.011  24.695  1.00 44.36 LIG 0.67  C 
ATOM     12  NH1 ARG B   2      62.050  84.832  24.368  1.00 36.12 LIG-0.23  N 
ATOM     13  NH2 ARG B   2      60.040  84.008  25.254  1.00 39.61 LIG-0.23  N 
ATOM     14 1HH1 ARG B   2      62.498  85.477  24.018  1.00 36.12 LIG 0.17  HD
ATOM     15 2HH1 ARG B   2      62.427  84.073  24.509  1.00 36.12 LIG 0.17  HD
ATOM     16 1HH2 ARG B   2      59.216  84.134  25.465  1.00 39.61 LIG 0.17  HD
ATOM     17 2HH2 ARG B   2      60.409  83.245  25.398  1.00 39.61 LIG 0.17  HD
ENDBRANCH 8 9
ENDBRANCH 7 8
ENDBRANCH 6 7
ENDBRANCH 5 6
BRANCH 5 18
ATOM     18  N   ARG B   2      55.896  89.241  26.528  1.00 32.37 LIG-0.35  N 
ATOM     19 H    ARG B   2      56.072  90.073  26.650  1.00 32.37 LIG 0.16  HD
ATOM     20  C   ASN B   1      54.900  88.755  25.812  1.00 31.22 LIG 0.25  C 
ATOM     21 O    ASN B   1      54.703  87.561  25.753  1.00 24.61 LIG-0.27  OA
BRANCH 20 22
ATOM     22  CA  ASN B   1      53.952  89.693  25.086  1.00 32.89 LIG 0.28  C 
BRANCH 22 23
ATOM     23  CB  ASN B   1      53.641  89.036  23.740  1.00 38.07 LIG 0.14  C 
BRANCH 23 24
ATOM     24  CG  ASN B   1      52.546  89.716  23.019  1.00 44.05 LIG 0.22  C 
ATOM     25  ND2 ASN B   1      52.870  90.815  22.391  1.00 47.62 LIG-0.37  N 
ATOM     26 21HD ASN B   1      52.275  91.245  21.942  1.00 47.62 LIG 0.16  HD
ATOM     27 22HD ASN B   1      53.677  91.109  22.426  1.00 47.62 LIG 0.16  HD
ATOM     28 OD1  ASN B   1      51.400  89.245  23.004  1.00 47.48 LIG-0.27  OA
ENDBRANCH 23 24
ENDBRANCH 22 23
BRANCH 22 29
ATOM     29  N   ASN B   1      54.398  91.102  24.879  1.00 44.58 LIG-0.07  N 
ATOM     30 H1   ASN B   1      55.263  91.173  25.078  1.00 44.58 LIG 0.28  HD
ATOM     31 H3   ASN B   1      53.927  91.643  25.406  1.00 44.58 LIG 0.28  HD
ATOM     32 H2   ASN B   1      54.270  91.332  24.028  1.00 44.58 LIG 0.28  HD
ENDBRANCH 22 29
ENDBRANCH 20 22
ENDBRANCH 5 18
ENDBRANCH 1 5
BRANCH 3 33
ATOM     33  CA  LEU B   3      57.771  87.815  30.813  1.00 27.74 LIG 0.18  C 
BRANCH 33 34
ATOM     34  C   LEU B   3      56.702  88.539  31.532  1.00 25.40 LIG 0.24  C 
ATOM     35 O    LEU B   3      56.731  89.758  31.642  1.00 26.81 LIG-0.27  OA
ATOM     36  N   ILE B   4      55.731  87.815  32.035  1.00 26.13 LIG-0.35  N 
ATOM     37 H    ILE B   4      55.631  86.972  31.901  1.00 26.13 LIG 0.16  HD
BRANCH 36 38
ATOM     38  CA  ILE B   4      54.771  88.403  32.848  1.00 24.17 LIG 0.18  C 
BRANCH 38 39
ATOM     39  CB  ILE B   4      53.592  88.788  31.930  1.00 29.09 LIG 0.01  C 
ATOM     40  CG2 ILE B   4      53.272  87.610  31.074  1.00 25.20 LIG 0.01  C 
BRANCH 39 41
ATOM     41  CG1 ILE B   4      52.326  89.126  32.707  1.00 28.67 LIG 0.00  C 
ATOM     42  CD1 ILE B   4      51.170  89.459  31.796  1.00 34.41 LIG 0.01  C 
ENDBRANCH 39 41
ENDBRANCH 38 39
BRANCH 38 43
ATOM     43  C   ILE B   4      54.380  87.504  34.026  1.00 29.58 LIG 0.24  C 
ATOM     44  N   LEU B   5      54.074  88.142  35.149  1.00 36.70 LIG-0.35  N 
ATOM     45 H    LEU B   5      54.187  88.986  35.267  1.00 36.70 LIG 0.16  HD
ATOM     46 O    ILE B   4      54.369  86.238  33.929  1.00 23.70 LIG-0.27  OA
BRANCH 44 47
ATOM     47  CA  LEU B   5      53.513  87.452  36.284  1.00 37.00 LIG 0.16  C 
BRANCH 47 48
ATOM     48  C   LEU B   5      53.004  88.450  37.344  1.00 42.59 LIG 0.22  C 
ATOM     49 O    LEU B   5      51.771  88.640  37.523  1.00 38.80 LIG-0.29  OA
ENDBRANCH 47 48
BRANCH 47 50
ATOM     50  CB  LEU B   5      54.600  86.569  36.882  1.00 50.59 LIG 0.04  C 
BRANCH 50 51
ATOM     51  CG  LEU B   5      54.120  85.493  37.838  1.00 50.85 LIG-0.02  C 
ATOM     52  CD1 LEU B   5      53.294  84.496  37.055  1.00 54.07 LIG 0.01  C 
ATOM     53  CD2 LEU B   5      55.361  84.841  38.436  1.00 54.33 LIG 0.01  C 
ENDBRANCH 50 51
ENDBRANCH 47 50
ENDBRANCH 44 47
ENDBRANCH 38 43
ENDBRANCH 36 38
ENDBRANCH 33 34
BRANCH 33 54
ATOM     54  CB  LEU B   3      59.020  88.664  30.844  1.00 34.11 LIG 0.04  C 
BRANCH 54 55
ATOM     55  CG  LEU B   3      60.042  87.937  31.650  1.00 35.49 LIG-0.02  C 
ATOM     56  CD1 LEU B   3      60.504  88.851  32.768  1.00 39.12 LIG 0.01  C 
ATOM     57  CD2 LEU B   3      59.269  86.765  32.200  1.00 34.32 LIG 0.01  C 
ENDBRANCH 54 55
ENDBRANCH 33 54
ENDBRANCH 3 33
TORSDOF 22
ENDMDL
MODEL 32
USER: ADFR SOLUTION from run 190
USER: SCORE 18.632382 LL:  -3.303 LR: -16.883 RR:   0.000 FEB: -10.321
USER: RMSD 6.060990
USER: SEED 189
USER: STATUS 1 or 2 clusters left
USER: GENES 24
USER: genes 0 Translation |==|  0.51735 0.61340 0.34756
USER: genes 1 Rotation |==|  0.74325 0.32986 0.84660 0.70433
USER: genes 2 Torsion [N]-C--CA-[N] |==|  0.73199
USER: genes 3 Torsion [C]-CA--CB-[CG] |==|  0.76138
USER: genes 4 Torsion [CA]-CB--CG-[CD] |==|  0.58864
USER: genes 5 Torsion [CB]-CG--CD-[NE] |==|  0.25904
USER: genes 6 Torsion [CG]-CD--NE-[HE] |==|  0.85607
USER: genes 7 Torsion [C]-CA--N-[C] |==|  0.74350
USER: genes 8 Torsion [N]-C--CA-[N] |==|  0.62986
USER: genes 9 Torsion [C]-CA--CB-[CG] |==|  0.39302
USER: genes 10 Torsion [CA]-CB--CG-[OD1] |==|  0.37535
USER: genes 11 Torsion [C]-CA--N-[H1] |==|  0.24566
USER: genes 12 Torsion [C]-N--CA-[CB] |==|  0.89036
USER: genes 13 Torsion [N]-CA--C-[N] |==|  0.89999
USER: genes 14 Torsion [C]-N--CA-[C] |==|  0.72549
USER: genes 15 Torsion [N]-CA--CB-[CG1] |==|  0.97544
USER: genes 16 Torsion [CA]-CB--CG1-[CD1] |==|  0.32212
USER: genes 17 Torsion [N]-CA--C-[N] |==|  0.31470
USER: genes 18 Torsion [C]-N--CA-[C] |==|  0.18823
USER: genes 19 Torsion [N]-CA--C-[O] |==|  0.69876
USER: genes 20 Torsion [N]-CA--CB-[CG] |==|  0.71519
USER: genes 21 Torsion [CA]-CB--CG-[CD1] |==|  0.60683
USER: genes 22 Torsion [N]-CA--CB-[CG] |==|  0.62388
USER: genes 23 Torsion [CA]-CB--CG-[CD1] |==|  0.04223
ROOT
ATOM      1  C   ARG B   2      57.371  89.103  26.438  1.00 25.54 LIG 0.24  C 
ATOM      2 O    ARG B   2      58.501  89.225  27.008  1.00 21.45 LIG-0.27  OA
ATOM      3  N   LEU B   3      56.769  87.930  26.322  1.00 32.00 LIG-0.35  N 
ATOM      4 H    LEU B   3      55.964  87.826  26.038  1.00 32.00 LIG 0.16  HD
ENDROOT
BRANCH 1 5
ATOM      5  CA  ARG B   2      56.645  90.290  25.821  1.00 29.44 LIG 0.18  C 
BRANCH 5 6
ATOM      6  CB  ARG B   2      55.113  90.000  25.753  1.00 37.02 LIG 0.04  C 
BRANCH 6 7
ATOM      7  CG  ARG B   2      54.687  89.236  24.499  1.00 39.92 LIG 0.02  C 
BRANCH 7 8
ATOM      8  CD  ARG B   2      53.271  89.645  24.075  1.00 40.77 LIG 0.14  C 
BRANCH 8 9
ATOM      9  NE  ARG B   2      53.442  90.727  23.094  1.00 48.07 LIG-0.23  N 
ATOM     10 HE   ARG B   2      53.945  91.380  23.339  1.00 48.07 LIG 0.18  HD
ATOM     11  CZ  ARG B   2      52.915  90.824  21.865  1.00 44.36 LIG 0.67  C 
ATOM     12  NH1 ARG B   2      53.244  91.912  21.144  1.00 36.12 LIG-0.23  N 
ATOM     13  NH2 ARG B   2      52.094  89.878  21.352  1.00 39.61 LIG-0.23  N 
ATOM     14 1HH1 ARG B   2      53.771  92.505  21.476  1.00 36.12 LIG 0.17  HD
ATOM     15 2HH1 ARG B   2      52.928  92.014  20.351  1.00 36.12 LIG 0.17  HD
ATOM     16 1HH2 ARG B   2      51.895  89.184  21.818  1.00 39.61 LIG 0.17  HD
ATOM     17 2HH2 ARG B   2      51.773  89.972  20.560  1.00 39.61 LIG 0.17  HD
ENDBRANCH 8 9
ENDBRANCH 7 8
ENDBRANCH 6 7
ENDBRANCH 5 6
BRANCH 5 18
ATOM     18  N   ARG B   2      57.157  90.582  24.469  1.00 32.37 LIG-0.35  N 
ATOM     19 H    ARG B   2      56.785  90.156  23.821  1.00 32.37 LIG 0.16  HD
ATOM     20  C   ASN B   1      58.133  91.462  24.359  1.00 31.22 LIG 0.25  C 
ATOM     21 O    ASN B   1      58.630  91.964  25.344  1.00 24.61 LIG-0.27  OA
BRANCH 20 22
ATOM     22  CA  ASN B   1      58.684  91.827  22.991  1.00 32.89 LIG 0.28  C 
BRANCH 22 23
ATOM     23  CB  ASN B   1      58.066  90.839  22.000  1.00 38.07 LIG 0.14  C 
BRANCH 23 24
ATOM     24  CG  ASN B   1      57.716  91.474  20.713  1.00 44.05 LIG 0.22  C 
ATOM     25  ND2 ASN B   1      57.128  92.639  20.791  1.00 47.62 LIG-0.37  N 
ATOM     26 21HD ASN B   1      56.914  93.062  20.074  1.00 47.62 LIG 0.16  HD
ATOM     27 22HD ASN B   1      56.954  92.982  21.560  1.00 47.62 LIG 0.16  HD
ATOM     28 OD1  ASN B   1      57.991  90.930  19.634  1.00 47.48 LIG-0.27  OA
ENDBRANCH 23 24
ENDBRANCH 22 23
BRANCH 22 29
ATOM     29  N   ASN B   1      60.167  91.857  22.830  1.00 44.58 LIG-0.07  N 
ATOM     30 H1   ASN B   1      60.458  91.048  22.601  1.00 44.58 LIG 0.28  HD
ATOM     31 H3   ASN B   1      60.544  92.101  23.598  1.00 44.58 LIG 0.28  HD
ATOM     32 H2   ASN B   1      60.385  92.440  22.194  1.00 44.58 LIG 0.28  HD
ENDBRANCH 22 29
ENDBRANCH 20 22
ENDBRANCH 5 18
ENDBRANCH 1 5
BRANCH 3 33
ATOM     33  CA  LEU B   3      57.450  86.695  26.679  1.00 27.74 LIG 0.18  C 
BRANCH 33 34
ATOM     34  C   LEU B   3      57.447  86.492  28.144  1.00 25.40 LIG 0.24  C 
ATOM     35 O    LEU B   3      57.342  85.371  28.623  1.00 26.81 LIG-0.27  OA
ATOM     36  N   ILE B   4      57.566  87.563  28.890  1.00 26.13 LIG-0.35  N 
ATOM     37 H    ILE B   4      57.730  88.352  28.590  1.00 26.13 LIG 0.16  HD
BRANCH 36 38
ATOM     38  CA  ILE B   4      57.424  87.473  30.268  1.00 24.17 LIG 0.18  C 
BRANCH 38 39
ATOM     39  CB  ILE B   4      58.568  88.304  30.886  1.00 29.09 LIG 0.01  C 
ATOM     40  CG2 ILE B   4      59.297  87.436  31.854  1.00 25.20 LIG 0.01  C 
BRANCH 39 41
ATOM     41  CG1 ILE B   4      59.586  88.765  29.852  1.00 28.67 LIG 0.00  C 
ATOM     42  CD1 ILE B   4      59.625  90.267  29.718  1.00 34.41 LIG 0.01  C 
ENDBRANCH 39 41
ENDBRANCH 38 39
BRANCH 38 43
ATOM     43  C   ILE B   4      56.025  87.889  30.735  1.00 29.58 LIG 0.24  C 
ATOM     44  N   LEU B   5      55.287  86.915  31.254  1.00 36.70 LIG-0.35  N 
ATOM     45 H    LEU B   5      55.508  86.085  31.237  1.00 36.70 LIG 0.16  HD
ATOM     46 O    ILE B   4      55.605  89.081  30.616  1.00 23.70 LIG-0.27  OA
BRANCH 44 47
ATOM     47  CA  LEU B   5      54.027  87.181  31.902  1.00 37.00 LIG 0.16  C 
BRANCH 47 48
ATOM     48  C   LEU B   5      52.973  87.671  30.889  1.00 42.59 LIG 0.22  C 
ATOM     49 O    LEU B   5      52.587  88.871  30.877  1.00 38.80 LIG-0.29  OA
ENDBRANCH 47 48
BRANCH 47 50
ATOM     50  CB  LEU B   5      54.260  88.246  32.966  1.00 50.59 LIG 0.04  C 
BRANCH 50 51
ATOM     51  CG  LEU B   5      54.333  87.742  34.395  1.00 50.85 LIG-0.02  C 
ATOM     52  CD1 LEU B   5      53.638  88.746  35.288  1.00 54.07 LIG 0.01  C 
ATOM     53  CD2 LEU B   5      53.633  86.388  34.428  1.00 54.33 LIG 0.01  C 
ENDBRANCH 50 51
ENDBRANCH 47 50
ENDBRANCH 44 47
ENDBRANCH 38 43
ENDBRANCH 36 38
ENDBRANCH 33 34
BRANCH 33 54
ATOM     54  CB  LEU B   3      58.885  86.797  26.219  1.00 34.11 LIG 0.04  C 
BRANCH 54 55
ATOM     55  CG  LEU B   3      59.244  85.507  25.564  1.00 35.49 LIG-0.02  C 
ATOM     56  CD1 LEU B   3      57.963  84.750  25.272  1.00 39.12 LIG 0.01  C 
ATOM     57  CD2 LEU B   3      59.909  85.950  24.285  1.00 34.32 LIG 0.01  C 
ENDBRANCH 54 55
ENDBRANCH 33 54
ENDBRANCH 3 33
TORSDOF 22
ENDMDL
