MODEL 1
USER: ADFR SOLUTION from run 99
USER: SCORE 24.541019 LL:  -6.306 LR: -20.138 RR:   0.000 FEB: -11.786
USER: RMSD 11.840917
USER: SEED 98
USER: STATUS no improvement in best in 2 clusters for 5 generations
USER: GENES 30
USER: genes 0 Translation |==|  0.53870 0.58178 0.46335
USER: genes 1 Rotation |==|  0.13708 0.34177 0.20013 0.55770
USER: genes 2 Torsion [N]-CA--C-[N] |==|  0.70328
USER: genes 3 Torsion [C]-N--CA-[C] |==|  0.14446
USER: genes 4 Torsion [N]-CA--CB-[CG2] |==|  0.56140
USER: genes 5 Torsion [N]-CA--C-[N] |==|  0.10622
USER: genes 6 Torsion [C]-N--CA-[C] |==|  0.17222
USER: genes 7 Torsion [N]-CA--C-[N] |==|  0.66651
USER: genes 8 Torsion [C]-N--CA-[CB] |==|  0.40799
USER: genes 9 Torsion [N]-CA--CB-[CG1] |==|  0.44410
USER: genes 10 Torsion [CA]-CB--CG1-[CD1] |==|  0.50446
USER: genes 11 Torsion [N]-CA--C-[OXT] |==|  0.94658
USER: genes 12 Torsion [N]-CA--CB-[CG] |==|  0.51506
USER: genes 13 Torsion [CA]-CB--CG-[CD] |==|  0.49352
USER: genes 14 Torsion [CB]-CG--CD-[CE] |==|  0.45650
USER: genes 15 Torsion [CG]-CD--CE-[NZ] |==|  0.02403
USER: genes 16 Torsion [CD]-CE--NZ-[HZ1] |==|  0.83566
USER: genes 17 Torsion [C]-CA--CB-[CG] |==|  0.31347
USER: genes 18 Torsion [CA]-CB--CG-[CD2] |==|  0.77396
USER: genes 19 Torsion [C]-CA--N-[C] |==|  0.79214
USER: genes 20 Torsion [N]-C--CA-[CB] |==|  0.65694
USER: genes 21 Torsion [N]-C--CA-[N] |==|  0.87674
USER: genes 22 Torsion [C]-CA--N-[C] |==|  0.81717
USER: genes 23 Torsion [N]-C--CA-[N] |==|  0.53479
USER: genes 24 Torsion [C]-CA--CB-[CG] |==|  0.26904
USER: genes 25 Torsion [CA]-CB--CG-[CD] |==|  0.05478
USER: genes 26 Torsion [CB]-CG--CD-[OE1] |==|  0.65968
USER: genes 27 Torsion [C]-CA--N-[H1] |==|  0.86671
USER: genes 28 Torsion [C]-CA--CB-[CG] |==|  0.06766
USER: genes 29 Torsion [CA]-CB--CG-[CD2] |==|  0.63686
ROOT
ATOM      1  CA  LEU B   4      56.452  88.166  29.711  1.00 30.07 LIG 0.18  C 
ENDROOT
BRANCH 1 2
ATOM      2  C   LEU B   4      56.613  87.855  28.246  1.00 30.58 LIG 0.24  C 
ATOM      3 O    LEU B   4      55.639  87.893  27.490  1.00 35.83 LIG-0.27  OA
ATOM      4  N   VAL B   5      57.823  87.469  27.849  1.00 32.24 LIG-0.35  N 
ATOM      5 H    VAL B   5      58.502  87.418  28.375  1.00 32.24 LIG 0.16  HD
BRANCH 4 6
ATOM      6  CA  VAL B   5      58.111  87.091  26.462  1.00 32.53 LIG 0.18  C 
BRANCH 6 7
ATOM      7  CB  VAL B   5      57.423  85.768  26.079  1.00 34.70 LIG 0.01  C 
ATOM      8  CG2 VAL B   5      58.147  85.157  24.907  1.00 38.22 LIG 0.01  C 
ATOM      9  CG1 VAL B   5      55.951  85.968  25.739  1.00 39.77 LIG 0.01  C 
ENDBRANCH 6 7
BRANCH 6 10
ATOM     10  C   VAL B   5      57.648  88.164  25.515  1.00 39.16 LIG 0.24  C 
ATOM     11 O    VAL B   5      57.105  87.879  24.440  1.00 33.69 LIG-0.27  OA
ATOM     12  N   LYS B   6      57.834  89.402  25.940  1.00 40.12 LIG-0.35  N 
ATOM     13 H    LYS B   6      58.167  89.601  26.708  1.00 40.12 LIG 0.16  HD
BRANCH 12 14
ATOM     14  CA  LYS B   6      57.487  90.532  25.133  1.00 45.41 LIG 0.18  C 
BRANCH 14 15
ATOM     15  C   LYS B   6      55.992  90.376  24.959  1.00 44.99 LIG 0.24  C 
ATOM     16 O    LYS B   6      55.257  90.431  25.923  1.00 45.85 LIG-0.27  OA
ATOM     17  N   ILE B   7      55.495  90.250  23.747  1.00 47.54 LIG-0.34  N 
ATOM     18 H    ILE B   7      55.942  90.204  23.013  1.00 47.54 LIG 0.16  HD
BRANCH 17 19
ATOM     19  CA  ILE B   7      54.027  90.180  23.635  1.00 57.67 LIG 0.19  C 
BRANCH 19 20
ATOM     20  CB  ILE B   7      53.421  90.826  22.327  1.00 59.41 LIG 0.01  C 
ATOM     21  CG2 ILE B   7      54.326  90.623  21.117  1.00 60.58 LIG 0.01  C 
BRANCH 20 22
ATOM     22  CG1 ILE B   7      51.991  90.286  22.040  1.00 65.20 LIG 0.00  C 
ATOM     23  CD1 ILE B   7      51.289  90.795  20.778  1.00 51.92 LIG 0.01  C 
ENDBRANCH 20 22
ENDBRANCH 19 20
BRANCH 19 24
ATOM     24  C   ILE B   7      53.473  88.787  23.971  1.00 61.74 LIG 0.20  C 
ATOM     25 O    ILE B   7      52.305  88.567  24.250  1.00 61.53 LIG-0.65  OA
ATOM     26 OXT  ILE B   7      54.217  87.806  23.945  1.00 68.92 LIG-0.65  OA
ENDBRANCH 19 24
ENDBRANCH 17 19
ENDBRANCH 14 15
BRANCH 14 27
ATOM     27  CB  LYS B   6      58.264  90.425  23.810  1.00 46.87 LIG 0.04  C 
BRANCH 27 28
ATOM     28  CG  LYS B   6      58.114  91.614  22.881  1.00 55.56 LIG 0.00  C 
BRANCH 28 29
ATOM     29  CD  LYS B   6      58.951  91.471  21.618  1.00 60.95 LIG 0.03  C 
BRANCH 29 30
ATOM     30  CE  LYS B   6      58.508  92.461  20.534  1.00 62.93 LIG 0.23  C 
BRANCH 30 31
ATOM     31  NZ  LYS B   6      57.514  93.453  21.049  1.00 65.77 LIG-0.08  N 
ATOM     32 HZ1  LYS B   6      56.797  93.023  21.355  1.00 65.77 LIG 0.27  HD
ATOM     33 HZ2  LYS B   6      57.880  93.925  21.708  1.00 65.77 LIG 0.27  HD
ATOM     34 HZ3  LYS B   6      57.273  94.001  20.390  1.00 65.77 LIG 0.27  HD
ENDBRANCH 30 31
ENDBRANCH 29 30
ENDBRANCH 28 29
ENDBRANCH 27 28
ENDBRANCH 14 27
ENDBRANCH 12 14
ENDBRANCH 6 10
ENDBRANCH 4 6
ENDBRANCH 1 2
BRANCH 1 35
ATOM     35  CB  LEU B   4      57.844  88.289  30.295  1.00 28.63 LIG 0.04  C 
BRANCH 35 36
ATOM     36  CG  LEU B   4      58.138  89.719  30.733  1.00 30.56 LIG-0.02  C 
ATOM     37  CD2 LEU B   4      58.550  90.525  29.520  1.00 33.80 LIG 0.01  C 
ATOM     38  CD1 LEU B   4      59.274  89.686  31.768  1.00 28.87 LIG 0.01  C 
ENDBRANCH 35 36
ENDBRANCH 1 35
BRANCH 1 39
ATOM     39  N   LEU B   4      55.702  87.192  30.537  1.00 28.62 LIG-0.35  N 
ATOM     40 H    LEU B   4      56.189  86.704  31.051  1.00 28.62 LIG 0.16  HD
ATOM     41  C   PRO B   3      54.389  87.109  30.460  1.00 33.12 LIG 0.24  C 
ATOM     42 O    PRO B   3      53.678  87.960  29.896  1.00 32.36 LIG-0.27  OA
BRANCH 41 43
ATOM     43  CA  PRO B   3      53.764  85.906  31.161  1.00 33.48 LIG 0.18  C 
ATOM     44  CB  PRO B   3      52.911  85.072  30.168  1.00 32.62 LIG 0.04  C 
ATOM     45  CG  PRO B   3      51.664  84.702  30.928  1.00 32.85 LIG 0.02  C 
ATOM     46  CD  PRO B   3      51.435  85.842  31.917  1.00 29.95 LIG 0.13  C 
ATOM     47  N   PRO B   3      52.794  86.426  32.108  1.00 33.01 LIG-0.34  N 
ATOM     48  C   LEU B   2      53.235  87.284  33.054  1.00 31.97 LIG 0.24  C 
ATOM     49 O    LEU B   2      54.426  87.546  33.250  1.00 33.64 LIG-0.27  OA
BRANCH 48 50
ATOM     50  CA  LEU B   2      52.190  87.902  33.955  1.00 32.67 LIG 0.18  C 
BRANCH 50 51
ATOM     51  N   LEU B   2      51.099  88.302  33.073  1.00 33.85 LIG-0.35  N 
ATOM     52 H    LEU B   2      50.372  87.863  33.207  1.00 33.85 LIG 0.16  HD
ATOM     53  C   GLU B   1      51.213  89.252  32.151  1.00 36.42 LIG 0.25  C 
ATOM     54 O    GLU B   1      52.159  90.057  32.146  1.00 32.31 LIG-0.27  OA
BRANCH 53 55
ATOM     55  CA  GLU B   1      50.043  89.375  31.149  1.00 35.71 LIG 0.28  C 
BRANCH 55 56
ATOM     56  CB  GLU B   1      49.679  87.974  30.646  1.00 39.23 LIG 0.05  C 
BRANCH 56 57
ATOM     57  CG  GLU B   1      48.504  87.359  31.405  1.00 48.64 LIG 0.12  C 
BRANCH 57 58
ATOM     58  CD  GLU B   1      47.614  88.355  32.160  1.00 56.94 LIG 0.17  C 
ATOM     59 OE1  GLU B   1      47.485  88.174  33.383  1.00 65.53 LIG-0.65  OA
ATOM     60 OE2  GLU B   1      47.026  89.302  31.566  1.00 53.19 LIG-0.65  OA
ENDBRANCH 57 58
ENDBRANCH 56 57
ENDBRANCH 55 56
BRANCH 55 61
ATOM     61  N   GLU B   1      50.397  90.256  29.983  1.00 36.67 LIG-0.07  N 
ATOM     62 H1   GLU B   1      50.764  91.010  30.281  1.00 36.67 LIG 0.28  HD
ATOM     63 H3   GLU B   1      49.660  90.447  29.521  1.00 36.67 LIG 0.28  HD
ATOM     64 H2   GLU B   1      50.975  89.832  29.456  1.00 36.67 LIG 0.28  HD
ENDBRANCH 55 61
ENDBRANCH 53 55
ENDBRANCH 50 51
BRANCH 50 65
ATOM     65  CB  LEU B   2      51.747  86.867  35.021  1.00 34.84 LIG 0.04  C 
BRANCH 65 66
ATOM     66  CG  LEU B   2      52.750  85.750  35.357  1.00 34.30 LIG-0.02  C 
ATOM     67  CD2 LEU B   2      52.094  84.360  35.318  1.00 39.39 LIG 0.01  C 
ATOM     68  CD1 LEU B   2      53.456  85.972  36.696  1.00 34.61 LIG 0.01  C 
ENDBRANCH 65 66
ENDBRANCH 50 65
ENDBRANCH 48 50
ENDBRANCH 41 43
ENDBRANCH 1 39
TORSDOF 28
ENDMDL
MODEL 2
USER: ADFR SOLUTION from run 99
USER: SCORE 23.844348 LL:  -5.899 LR: -19.930 RR:   0.000 FEB: -11.578
USER: RMSD 12.463369
USER: SEED 98
USER: STATUS no improvement in best in 2 clusters for 5 generations
USER: GENES 30
USER: genes 0 Translation |==|  0.53971 0.58231 0.46405
USER: genes 1 Rotation |==|  0.13351 0.34409 0.20283 0.55535
USER: genes 2 Torsion [N]-CA--C-[N] |==|  0.70411
USER: genes 3 Torsion [C]-N--CA-[C] |==|  0.14463
USER: genes 4 Torsion [N]-CA--CB-[CG2] |==|  0.56118
USER: genes 5 Torsion [N]-CA--C-[N] |==|  0.10363
USER: genes 6 Torsion [C]-N--CA-[C] |==|  0.17074
USER: genes 7 Torsion [N]-CA--C-[N] |==|  0.66646
USER: genes 8 Torsion [C]-N--CA-[CB] |==|  0.40752
USER: genes 9 Torsion [N]-CA--CB-[CG1] |==|  0.44416
USER: genes 10 Torsion [CA]-CB--CG1-[CD1] |==|  0.50421
USER: genes 11 Torsion [N]-CA--C-[OXT] |==|  0.94694
USER: genes 12 Torsion [N]-CA--CB-[CG] |==|  0.51434
USER: genes 13 Torsion [CA]-CB--CG-[CD] |==|  0.49358
USER: genes 14 Torsion [CB]-CG--CD-[CE] |==|  0.45582
USER: genes 15 Torsion [CG]-CD--CE-[NZ] |==|  0.02388
USER: genes 16 Torsion [CD]-CE--NZ-[HZ1] |==|  0.83539
USER: genes 17 Torsion [C]-CA--CB-[CG] |==|  0.31540
USER: genes 18 Torsion [CA]-CB--CG-[CD2] |==|  0.77359
USER: genes 19 Torsion [C]-CA--N-[C] |==|  0.78677
USER: genes 20 Torsion [N]-C--CA-[CB] |==|  0.66240
USER: genes 21 Torsion [N]-C--CA-[N] |==|  0.44132
USER: genes 22 Torsion [C]-CA--N-[C] |==|  0.53889
USER: genes 23 Torsion [N]-C--CA-[N] |==|  0.27048
USER: genes 24 Torsion [C]-CA--CB-[CG] |==|  0.61461
USER: genes 25 Torsion [CA]-CB--CG-[CD] |==|  0.81565
USER: genes 26 Torsion [CB]-CG--CD-[OE1] |==|  0.78977
USER: genes 27 Torsion [C]-CA--N-[H1] |==|  0.87451
USER: genes 28 Torsion [C]-CA--CB-[CG] |==|  0.19245
USER: genes 29 Torsion [CA]-CB--CG-[CD2] |==|  0.60168
ROOT
ATOM      1  CA  LEU B   4      56.473  88.178  29.729  1.00 30.07 LIG 0.18  C 
ENDROOT
BRANCH 1 2
ATOM      2  C   LEU B   4      56.608  87.856  28.263  1.00 30.58 LIG 0.24  C 
ATOM      3 O    LEU B   4      55.625  87.909  27.521  1.00 35.83 LIG-0.27  OA
ATOM      4  N   VAL B   5      57.805  87.442  27.853  1.00 32.24 LIG-0.35  N 
ATOM      5 H    VAL B   5      58.489  87.380  28.370  1.00 32.24 LIG 0.16  HD
BRANCH 4 6
ATOM      6  CA  VAL B   5      58.065  87.050  26.465  1.00 32.53 LIG 0.18  C 
BRANCH 6 7
ATOM      7  CB  VAL B   5      57.344  85.740  26.098  1.00 34.70 LIG 0.01  C 
ATOM      8  CG2 VAL B   5      58.038  85.108  24.919  1.00 38.22 LIG 0.01  C 
ATOM      9  CG1 VAL B   5      55.872  85.970  25.778  1.00 39.77 LIG 0.01  C 
ENDBRANCH 6 7
BRANCH 6 10
ATOM     10  C   VAL B   5      57.614  88.128  25.517  1.00 39.16 LIG 0.24  C 
ATOM     11 O    VAL B   5      57.065  87.849  24.443  1.00 33.69 LIG-0.27  OA
ATOM     12  N   LYS B   6      57.815  89.364  25.941  1.00 40.12 LIG-0.35  N 
ATOM     13 H    LYS B   6      58.151  89.560  26.708  1.00 40.12 LIG 0.16  HD
BRANCH 12 14
ATOM     14  CA  LYS B   6      57.479  90.498  25.134  1.00 45.41 LIG 0.18  C 
BRANCH 14 15
ATOM     15  C   LYS B   6      55.984  90.351  24.951  1.00 44.99 LIG 0.24  C 
ATOM     16 O    LYS B   6      55.244  90.409  25.911  1.00 45.85 LIG-0.27  OA
ATOM     17  N   ILE B   7      55.494  90.231  23.736  1.00 47.54 LIG-0.34  N 
ATOM     18 H    ILE B   7      55.944  90.183  23.005  1.00 47.54 LIG 0.16  HD
BRANCH 17 19
ATOM     19  CA  ILE B   7      54.026  90.170  23.615  1.00 57.67 LIG 0.19  C 
BRANCH 19 20
ATOM     20  CB  ILE B   7      53.432  90.826  22.307  1.00 59.41 LIG 0.01  C 
ATOM     21  CG2 ILE B   7      54.342  90.623  21.101  1.00 60.58 LIG 0.01  C 
BRANCH 20 22
ATOM     22  CG1 ILE B   7      51.999  90.296  22.010  1.00 65.20 LIG 0.00  C 
ATOM     23  CD1 ILE B   7      51.307  90.818  20.747  1.00 51.92 LIG 0.01  C 
ENDBRANCH 20 22
ENDBRANCH 19 20
BRANCH 19 24
ATOM     24  C   ILE B   7      53.462  88.779  23.942  1.00 61.74 LIG 0.20  C 
ATOM     25 O    ILE B   7      52.290  88.564  24.211  1.00 61.53 LIG-0.65  OA
ATOM     26 OXT  ILE B   7      54.200  87.794  23.917  1.00 68.92 LIG-0.65  OA
ENDBRANCH 19 24
ENDBRANCH 17 19
ENDBRANCH 14 15
BRANCH 14 27
ATOM     27  CB  LYS B   6      58.264  90.387  23.816  1.00 46.87 LIG 0.04  C 
BRANCH 27 28
ATOM     28  CG  LYS B   6      58.121  91.576  22.885  1.00 55.56 LIG 0.00  C 
BRANCH 28 29
ATOM     29  CD  LYS B   6      58.964  91.430  21.626  1.00 60.95 LIG 0.03  C 
BRANCH 29 30
ATOM     30  CE  LYS B   6      58.526  92.416  20.537  1.00 62.93 LIG 0.23  C 
BRANCH 30 31
ATOM     31  NZ  LYS B   6      57.528  93.408  21.044  1.00 65.77 LIG-0.08  N 
ATOM     32 HZ1  LYS B   6      56.809  92.978  21.346  1.00 65.77 LIG 0.27  HD
ATOM     33 HZ2  LYS B   6      57.889  93.882  21.705  1.00 65.77 LIG 0.27  HD
ATOM     34 HZ3  LYS B   6      57.290  93.955  20.382  1.00 65.77 LIG 0.27  HD
ENDBRANCH 30 31
ENDBRANCH 29 30
ENDBRANCH 28 29
ENDBRANCH 27 28
ENDBRANCH 14 27
ENDBRANCH 12 14
ENDBRANCH 6 10
ENDBRANCH 4 6
ENDBRANCH 1 2
BRANCH 1 35
ATOM     35  CB  LEU B   4      57.876  88.283  30.292  1.00 28.63 LIG 0.04  C 
BRANCH 35 36
ATOM     36  CG  LEU B   4      58.192  89.707  30.732  1.00 30.56 LIG-0.02  C 
ATOM     37  CD2 LEU B   4      58.597  90.514  29.517  1.00 33.80 LIG 0.01  C 
ATOM     38  CD1 LEU B   4      59.341  89.656  31.752  1.00 28.87 LIG 0.01  C 
ENDBRANCH 35 36
ENDBRANCH 1 35
BRANCH 1 39
ATOM     39  N   LEU B   4      55.720  87.221  30.572  1.00 28.62 LIG-0.35  N 
ATOM     40 H    LEU B   4      56.208  86.711  31.063  1.00 28.62 LIG 0.16  HD
ATOM     41  C   PRO B   3      54.403  87.184  30.542  1.00 33.12 LIG 0.24  C 
ATOM     42 O    PRO B   3      53.702  88.066  30.014  1.00 32.36 LIG-0.27  OA
BRANCH 41 43
ATOM     43  CA  PRO B   3      53.762  85.995  31.253  1.00 33.48 LIG 0.18  C 
ATOM     44  CB  PRO B   3      52.885  85.174  30.271  1.00 32.62 LIG 0.04  C 
ATOM     45  CG  PRO B   3      51.639  84.830  31.044  1.00 32.85 LIG 0.02  C 
ATOM     46  CD  PRO B   3      51.440  85.978  32.031  1.00 29.95 LIG 0.13  C 
ATOM     47  N   PRO B   3      52.812  86.537  32.207  1.00 33.01 LIG-0.34  N 
ATOM     48  C   LEU B   2      53.277  87.390  33.147  1.00 31.97 LIG 0.24  C 
ATOM     49 O    LEU B   2      54.475  87.630  33.330  1.00 33.64 LIG-0.27  OA
BRANCH 48 50
ATOM     50  CA  LEU B   2      52.253  88.030  34.055  1.00 32.67 LIG 0.18  C 
BRANCH 50 51
ATOM     51  N   LEU B   2      52.991  88.457  35.239  1.00 33.85 LIG-0.35  N 
ATOM     52 H    LEU B   2      53.844  88.452  35.131  1.00 33.85 LIG 0.16  HD
ATOM     53  C   GLU B   1      52.407  88.819  36.376  1.00 36.42 LIG 0.25  C 
ATOM     54 O    GLU B   1      51.195  89.084  36.441  1.00 32.31 LIG-0.27  OA
BRANCH 53 55
ATOM     55  CA  GLU B   1      53.339  89.004  37.594  1.00 35.71 LIG 0.28  C 
BRANCH 55 56
ATOM     56  CB  GLU B   1      52.628  88.469  38.842  1.00 39.23 LIG 0.05  C 
BRANCH 56 57
ATOM     57  CG  GLU B   1      52.827  89.361  40.067  1.00 48.64 LIG 0.12  C 
BRANCH 57 58
ATOM     58  CD  GLU B   1      54.263  89.434  40.602  1.00 56.94 LIG 0.17  C 
ATOM     59 OE1  GLU B   1      54.672  88.451  41.242  1.00 65.53 LIG-0.65  OA
ATOM     60 OE2  GLU B   1      54.990  90.451  40.417  1.00 53.19 LIG-0.65  OA
ENDBRANCH 57 58
ENDBRANCH 56 57
ENDBRANCH 55 56
BRANCH 55 61
ATOM     61  N   GLU B   1      53.708  90.447  37.801  1.00 36.67 LIG-0.07  N 
ATOM     62 H1   GLU B   1      53.929  90.812  37.020  1.00 36.67 LIG 0.28  HD
ATOM     63 H3   GLU B   1      54.400  90.500  38.359  1.00 36.67 LIG 0.28  HD
ATOM     64 H2   GLU B   1      53.015  90.884  38.148  1.00 36.67 LIG 0.28  HD
ENDBRANCH 55 61
ENDBRANCH 53 55
ENDBRANCH 50 51
BRANCH 50 65
ATOM     65  CB  LEU B   2      51.571  89.211  33.318  1.00 34.84 LIG 0.04  C 
BRANCH 65 66
ATOM     66  CG  LEU B   2      50.642  88.849  32.147  1.00 34.30 LIG-0.02  C 
ATOM     67  CD2 LEU B   2      50.739  89.871  31.001  1.00 39.39 LIG 0.01  C 
ATOM     68  CD1 LEU B   2      49.186  88.668  32.581  1.00 34.61 LIG 0.01  C 
ENDBRANCH 65 66
ENDBRANCH 50 65
ENDBRANCH 48 50
ENDBRANCH 41 43
ENDBRANCH 1 39
TORSDOF 28
ENDMDL
MODEL 3
USER: ADFR SOLUTION from run 68
USER: SCORE 24.441177 LL:  -6.797 LR: -19.903 RR:   0.000 FEB: -11.550
USER: RMSD 6.823722
USER: SEED 67
USER: STATUS no improvement in best in 3 clusters for 5 generations
USER: GENES 30
USER: genes 0 Translation |==|  0.52316 0.58233 0.46058
USER: genes 1 Rotation |==|  0.31203 0.58946 0.61295 0.94035
USER: genes 2 Torsion [N]-CA--C-[N] |==|  0.45275
USER: genes 3 Torsion [C]-N--CA-[C] |==|  0.23254
USER: genes 4 Torsion [N]-CA--CB-[CG2] |==|  0.64499
USER: genes 5 Torsion [N]-CA--C-[N] |==|  0.43344
USER: genes 6 Torsion [C]-N--CA-[C] |==|  0.81225
USER: genes 7 Torsion [N]-CA--C-[N] |==|  0.34315
USER: genes 8 Torsion [C]-N--CA-[CB] |==|  0.29001
USER: genes 9 Torsion [N]-CA--CB-[CG1] |==|  0.88190
USER: genes 10 Torsion [CA]-CB--CG1-[CD1] |==|  0.32286
USER: genes 11 Torsion [N]-CA--C-[OXT] |==|  0.83190
USER: genes 12 Torsion [N]-CA--CB-[CG] |==|  0.64722
USER: genes 13 Torsion [CA]-CB--CG-[CD] |==|  0.21680
USER: genes 14 Torsion [CB]-CG--CD-[CE] |==|  0.52744
USER: genes 15 Torsion [CG]-CD--CE-[NZ] |==|  0.37517
USER: genes 16 Torsion [CD]-CE--NZ-[HZ1] |==|  0.49038
USER: genes 17 Torsion [C]-CA--CB-[CG] |==|  0.29127
USER: genes 18 Torsion [CA]-CB--CG-[CD2] |==|  0.35972
USER: genes 19 Torsion [C]-CA--N-[C] |==|  0.56811
USER: genes 20 Torsion [N]-C--CA-[CB] |==|  0.58991
USER: genes 21 Torsion [N]-C--CA-[N] |==|  0.34496
USER: genes 22 Torsion [C]-CA--N-[C] |==|  0.23688
USER: genes 23 Torsion [N]-C--CA-[N] |==|  0.74708
USER: genes 24 Torsion [C]-CA--CB-[CG] |==|  0.38489
USER: genes 25 Torsion [CA]-CB--CG-[CD] |==|  0.15915
USER: genes 26 Torsion [CB]-CG--CD-[OE1] |==|  0.04633
USER: genes 27 Torsion [C]-CA--N-[H1] |==|  0.44870
USER: genes 28 Torsion [C]-CA--CB-[CG] |==|  0.24847
USER: genes 29 Torsion [CA]-CB--CG-[CD2] |==|  0.60283
ROOT
ATOM      1  CA  LEU B   4      56.125  88.178  29.641  1.00 30.07 LIG 0.18  C 
ENDROOT
BRANCH 1 2
ATOM      2  C   LEU B   4      54.934  88.053  30.555  1.00 30.58 LIG 0.24  C 
ATOM      3 O    LEU B   4      53.812  87.837  30.090  1.00 35.83 LIG-0.27  OA
ATOM      4  N   VAL B   5      55.153  88.266  31.850  1.00 32.24 LIG-0.35  N 
ATOM      5 H    VAL B   5      55.928  88.439  32.179  1.00 32.24 LIG 0.16  HD
BRANCH 4 6
ATOM      6  CA  VAL B   5      54.076  88.223  32.845  1.00 32.53 LIG 0.18  C 
BRANCH 6 7
ATOM      7  CB  VAL B   5      52.768  88.819  32.294  1.00 34.70 LIG 0.01  C 
ATOM      8  CG2 VAL B   5      52.259  89.864  33.253  1.00 38.22 LIG 0.01  C 
ATOM      9  CG1 VAL B   5      51.705  87.751  32.070  1.00 39.77 LIG 0.01  C 
ENDBRANCH 6 7
BRANCH 6 10
ATOM     10  C   VAL B   5      53.813  86.807  33.279  1.00 39.16 LIG 0.24  C 
ATOM     11 O    VAL B   5      54.137  85.848  32.567  1.00 33.69 LIG-0.27  OA
ATOM     12  N   LYS B   6      53.256  86.683  34.471  1.00 40.12 LIG-0.35  N 
ATOM     13 H    LYS B   6      53.075  87.346  34.989  1.00 40.12 LIG 0.16  HD
BRANCH 12 14
ATOM     14  CA  LYS B   6      52.904  85.402  35.005  1.00 45.41 LIG 0.18  C 
BRANCH 14 15
ATOM     15  C   LYS B   6      51.777  84.956  34.098  1.00 44.99 LIG 0.24  C 
ATOM     16 O    LYS B   6      50.820  85.680  33.914  1.00 45.85 LIG-0.27  OA
ATOM     17  N   ILE B   7      51.881  83.810  33.460  1.00 47.54 LIG-0.34  N 
ATOM     18 H    ILE B   7      52.523  83.241  33.531  1.00 47.54 LIG 0.16  HD
BRANCH 17 19
ATOM     19  CA  ILE B   7      50.790  83.466  32.531  1.00 57.67 LIG 0.19  C 
BRANCH 19 20
ATOM     20  CB  ILE B   7      51.132  83.638  30.999  1.00 59.41 LIG 0.01  C 
ATOM     21  CG2 ILE B   7      49.886  83.574  30.123  1.00 60.58 LIG 0.01  C 
BRANCH 20 22
ATOM     22  CG1 ILE B   7      51.918  84.956  30.740  1.00 65.20 LIG 0.00  C 
ATOM     23  CD1 ILE B   7      53.347  84.826  30.204  1.00 51.92 LIG 0.01  C 
ENDBRANCH 20 22
ENDBRANCH 19 20
BRANCH 19 24
ATOM     24  C   ILE B   7      50.109  82.135  32.885  1.00 61.74 LIG 0.20  C 
ATOM     25 O    ILE B   7      48.920  82.025  33.143  1.00 61.53 LIG-0.65  OA
ATOM     26 OXT  ILE B   7      50.763  81.092  32.895  1.00 68.92 LIG-0.65  OA
ENDBRANCH 19 24
ENDBRANCH 17 19
ENDBRANCH 14 15
BRANCH 14 27
ATOM     27  CB  LYS B   6      52.461  85.605  36.464  1.00 46.87 LIG 0.04  C 
BRANCH 27 28
ATOM     28  CG  LYS B   6      53.175  84.731  37.477  1.00 55.56 LIG 0.00  C 
BRANCH 28 29
ATOM     29  CD  LYS B   6      54.568  85.248  37.807  1.00 60.95 LIG 0.03  C 
BRANCH 29 30
ATOM     30  CE  LYS B   6      55.363  84.233  38.637  1.00 62.93 LIG 0.23  C 
BRANCH 30 31
ATOM     31  NZ  LYS B   6      56.764  84.071  38.138  1.00 65.77 LIG-0.08  N 
ATOM     32 HZ1  LYS B   6      57.208  83.515  38.673  1.00 65.77 LIG 0.27  HD
ATOM     33 HZ2  LYS B   6      56.749  83.740  37.312  1.00 65.77 LIG 0.27  HD
ATOM     34 HZ3  LYS B   6      57.170  84.864  38.132  1.00 65.77 LIG 0.27  HD
ENDBRANCH 30 31
ENDBRANCH 29 30
ENDBRANCH 28 29
ENDBRANCH 27 28
ENDBRANCH 14 27
ENDBRANCH 12 14
ENDBRANCH 6 10
ENDBRANCH 4 6
ENDBRANCH 1 2
BRANCH 1 35
ATOM     35  CB  LEU B   4      56.402  89.658  29.473  1.00 28.63 LIG 0.04  C 
BRANCH 35 36
ATOM     36  CG  LEU B   4      57.621  90.090  30.279  1.00 30.56 LIG-0.02  C 
ATOM     37  CD2 LEU B   4      58.555  90.863  29.374  1.00 33.80 LIG 0.01  C 
ATOM     38  CD1 LEU B   4      58.316  88.830  30.821  1.00 28.87 LIG 0.01  C 
ENDBRANCH 35 36
ENDBRANCH 1 35
BRANCH 1 39
ATOM     39  N   LEU B   4      56.013  87.584  28.289  1.00 28.62 LIG-0.35  N 
ATOM     40 H    LEU B   4      55.209  87.505  27.995  1.00 28.62 LIG 0.16  HD
ATOM     41  C   PRO B   3      57.088  87.218  27.621  1.00 33.12 LIG 0.24  C 
ATOM     42 O    PRO B   3      58.245  87.541  27.946  1.00 32.36 LIG-0.27  OA
BRANCH 41 43
ATOM     43  CA  PRO B   3      56.830  86.393  26.362  1.00 33.48 LIG 0.18  C 
ATOM     44  CB  PRO B   3      57.982  85.381  26.121  1.00 32.62 LIG 0.04  C 
ATOM     45  CG  PRO B   3      58.248  85.427  24.640  1.00 32.85 LIG 0.02  C 
ATOM     46  CD  PRO B   3      57.898  86.848  24.206  1.00 29.95 LIG 0.13  C 
ATOM     47  N   PRO B   3      56.919  87.304  25.235  1.00 33.01 LIG-0.34  N 
ATOM     48  C   LEU B   2      56.089  88.370  25.219  1.00 31.97 LIG 0.24  C 
ATOM     49 O    LEU B   2      55.171  88.544  26.027  1.00 33.64 LIG-0.27  OA
BRANCH 48 50
ATOM     50  CA  LEU B   2      56.279  89.365  24.097  1.00 32.67 LIG 0.18  C 
BRANCH 50 51
ATOM     51  N   LEU B   2      54.982  89.463  23.436  1.00 33.85 LIG-0.35  N 
ATOM     52 H    LEU B   2      54.905  88.945  22.755  1.00 33.85 LIG 0.16  HD
ATOM     53  C   GLU B   1      54.011  90.273  23.844  1.00 36.42 LIG 0.25  C 
ATOM     54 O    GLU B   1      54.022  90.805  24.966  1.00 32.31 LIG-0.27  OA
BRANCH 53 55
ATOM     55  CA  GLU B   1      52.805  90.428  22.890  1.00 35.71 LIG 0.28  C 
BRANCH 55 56
ATOM     56  CB  GLU B   1      52.632  89.124  22.104  1.00 39.23 LIG 0.05  C 
BRANCH 56 57
ATOM     57  CG  GLU B   1      51.168  88.709  21.959  1.00 48.64 LIG 0.12  C 
BRANCH 57 58
ATOM     58  CD  GLU B   1      50.253  89.744  21.291  1.00 56.94 LIG 0.17  C 
ATOM     59 OE1  GLU B   1      50.809  90.655  20.655  1.00 65.53 LIG-0.65  OA
ATOM     60 OE2  GLU B   1      48.995  89.684  21.398  1.00 53.19 LIG-0.65  OA
ENDBRANCH 57 58
ENDBRANCH 56 57
ENDBRANCH 55 56
BRANCH 55 61
ATOM     61  N   GLU B   1      52.991  91.574  21.936  1.00 36.67 LIG-0.07  N 
ATOM     62 H1   GLU B   1      52.436  91.480  21.247  1.00 36.67 LIG 0.28  HD
ATOM     63 H3   GLU B   1      53.831  91.582  21.641  1.00 36.67 LIG 0.28  HD
ATOM     64 H2   GLU B   1      52.817  92.340  22.355  1.00 36.67 LIG 0.28  HD
ENDBRANCH 55 61
ENDBRANCH 53 55
ENDBRANCH 50 51
BRANCH 50 65
ATOM     65  CB  LEU B   2      56.755  90.721  24.681  1.00 34.84 LIG 0.04  C 
BRANCH 65 66
ATOM     66  CG  LEU B   2      58.274  90.917  24.818  1.00 34.30 LIG-0.02  C 
ATOM     67  CD2 LEU B   2      58.639  91.700  26.091  1.00 39.39 LIG 0.01  C 
ATOM     68  CD1 LEU B   2      58.899  91.576  23.586  1.00 34.61 LIG 0.01  C 
ENDBRANCH 65 66
ENDBRANCH 50 65
ENDBRANCH 48 50
ENDBRANCH 41 43
ENDBRANCH 1 39
TORSDOF 28
ENDMDL
MODEL 4
USER: ADFR SOLUTION from run 32
USER: SCORE 25.296767 LL:  -6.366 LR: -19.777 RR:   0.000 FEB: -11.425
USER: RMSD 12.101630
USER: SEED 31
USER: STATUS no improvement in best in 11 clusters for 5 generations
USER: GENES 30
USER: genes 0 Translation |==|  0.39335 0.50447 0.55924
USER: genes 1 Rotation |==|  0.76765 0.08536 0.57666 0.52379
USER: genes 2 Torsion [N]-CA--C-[N] |==|  0.35591
USER: genes 3 Torsion [C]-N--CA-[C] |==|  0.79999
USER: genes 4 Torsion [N]-CA--CB-[CG2] |==|  0.10714
USER: genes 5 Torsion [N]-CA--C-[N] |==|  0.54378
USER: genes 6 Torsion [C]-N--CA-[C] |==|  0.85659
USER: genes 7 Torsion [N]-CA--C-[N] |==|  0.89644
USER: genes 8 Torsion [C]-N--CA-[CB] |==|  0.29458
USER: genes 9 Torsion [N]-CA--CB-[CG1] |==|  0.91327
USER: genes 10 Torsion [CA]-CB--CG1-[CD1] |==|  0.65807
USER: genes 11 Torsion [N]-CA--C-[OXT] |==|  0.90986
USER: genes 12 Torsion [N]-CA--CB-[CG] |==|  0.46688
USER: genes 13 Torsion [CA]-CB--CG-[CD] |==|  0.41544
USER: genes 14 Torsion [CB]-CG--CD-[CE] |==|  0.47978
USER: genes 15 Torsion [CG]-CD--CE-[NZ] |==|  0.34198
USER: genes 16 Torsion [CD]-CE--NZ-[HZ1] |==|  0.48886
USER: genes 17 Torsion [C]-CA--CB-[CG] |==|  0.54025
USER: genes 18 Torsion [CA]-CB--CG-[CD2] |==|  0.86734
USER: genes 19 Torsion [C]-CA--N-[C] |==|  0.84730
USER: genes 20 Torsion [N]-C--CA-[CB] |==|  0.61543
USER: genes 21 Torsion [N]-C--CA-[N] |==|  0.46744
USER: genes 22 Torsion [C]-CA--N-[C] |==|  0.78664
USER: genes 23 Torsion [N]-C--CA-[N] |==|  0.21927
USER: genes 24 Torsion [C]-CA--CB-[CG] |==|  0.24608
USER: genes 25 Torsion [CA]-CB--CG-[CD] |==|  0.17206
USER: genes 26 Torsion [CB]-CG--CD-[OE1] |==|  0.49996
USER: genes 27 Torsion [C]-CA--N-[H1] |==|  0.26485
USER: genes 28 Torsion [C]-CA--CB-[CG] |==|  0.55725
USER: genes 29 Torsion [CA]-CB--CG-[CD2] |==|  0.90285
ROOT
ATOM      1  CA  LEU B   4      53.399  86.427  32.157  1.00 30.07 LIG 0.18  C 
ENDROOT
BRANCH 1 2
ATOM      2  C   LEU B   4      54.025  87.619  31.480  1.00 30.58 LIG 0.24  C 
ATOM      3 O    LEU B   4      53.339  88.603  31.195  1.00 35.83 LIG-0.27  OA
ATOM      4  N   VAL B   5      55.309  87.509  31.148  1.00 32.24 LIG-0.35  N 
ATOM      5 H    VAL B   5      55.788  86.816  31.324  1.00 32.24 LIG 0.16  HD
BRANCH 4 6
ATOM      6  CA  VAL B   5      56.031  88.573  30.443  1.00 32.53 LIG 0.18  C 
BRANCH 6 7
ATOM      7  CB  VAL B   5      57.552  88.340  30.465  1.00 34.70 LIG 0.01  C 
ATOM      8  CG2 VAL B   5      57.829  86.868  30.298  1.00 38.22 LIG 0.01  C 
ATOM      9  CG1 VAL B   5      58.189  88.850  31.752  1.00 39.77 LIG 0.01  C 
ENDBRANCH 6 7
BRANCH 6 10
ATOM     10  C   VAL B   5      55.580  88.659  29.011  1.00 39.16 LIG 0.24  C 
ATOM     11 O    VAL B   5      54.516  88.144  28.641  1.00 33.69 LIG-0.27  OA
ATOM     12  N   LYS B   6      56.379  89.347  28.214  1.00 40.12 LIG-0.35  N 
ATOM     13 H    LYS B   6      57.094  89.747  28.479  1.00 40.12 LIG 0.16  HD
BRANCH 12 14
ATOM     14  CA  LYS B   6      56.109  89.482  26.815  1.00 45.41 LIG 0.18  C 
BRANCH 14 15
ATOM     15  C   LYS B   6      55.903  88.050  26.371  1.00 44.99 LIG 0.24  C 
ATOM     16 O    LYS B   6      55.107  87.793  25.491  1.00 45.85 LIG-0.27  OA
ATOM     17  N   ILE B   7      56.643  87.100  26.901  1.00 47.54 LIG-0.34  N 
ATOM     18 H    ILE B   7      57.227  87.194  27.525  1.00 47.54 LIG 0.16  HD
BRANCH 17 19
ATOM     19  CA  ILE B   7      56.451  85.736  26.373  1.00 57.67 LIG 0.19  C 
BRANCH 19 20
ATOM     20  CB  ILE B   7      57.608  85.209  25.438  1.00 59.41 LIG 0.01  C 
ATOM     21  CG2 ILE B   7      57.124  84.122  24.485  1.00 60.58 LIG 0.01  C 
BRANCH 20 22
ATOM     22  CG1 ILE B   7      58.273  86.374  24.649  1.00 65.20 LIG 0.00  C 
ATOM     23  CD1 ILE B   7      58.283  86.270  23.121  1.00 51.92 LIG 0.01  C 
ENDBRANCH 20 22
ENDBRANCH 19 20
BRANCH 19 24
ATOM     24  C   ILE B   7      56.003  84.741  27.455  1.00 61.74 LIG 0.20  C 
ATOM     25 O    ILE B   7      55.288  83.775  27.238  1.00 61.53 LIG-0.65  OA
ATOM     26 OXT  ILE B   7      56.388  84.879  28.616  1.00 68.92 LIG-0.65  OA
ENDBRANCH 19 24
ENDBRANCH 17 19
ENDBRANCH 14 15
BRANCH 14 27
ATOM     27  CB  LYS B   6      57.332  90.148  26.160  1.00 46.87 LIG 0.04  C 
BRANCH 27 28
ATOM     28  CG  LYS B   6      57.344  90.115  24.644  1.00 55.56 LIG 0.00  C 
BRANCH 28 29
ATOM     29  CD  LYS B   6      58.060  91.316  24.045  1.00 60.95 LIG 0.03  C 
BRANCH 29 30
ATOM     30  CE  LYS B   6      58.219  91.177  22.526  1.00 62.93 LIG 0.23  C 
BRANCH 30 31
ATOM     31  NZ  LYS B   6      57.610  92.326  21.788  1.00 65.77 LIG-0.08  N 
ATOM     32 HZ1  LYS B   6      57.772  92.239  20.917  1.00 65.77 LIG 0.27  HD
ATOM     33 HZ2  LYS B   6      56.730  92.335  21.926  1.00 65.77 LIG 0.27  HD
ATOM     34 HZ3  LYS B   6      57.963  93.088  22.081  1.00 65.77 LIG 0.27  HD
ENDBRANCH 30 31
ENDBRANCH 29 30
ENDBRANCH 28 29
ENDBRANCH 27 28
ENDBRANCH 14 27
ENDBRANCH 12 14
ENDBRANCH 6 10
ENDBRANCH 4 6
ENDBRANCH 1 2
BRANCH 1 35
ATOM     35  CB  LEU B   4      52.414  85.826  31.175  1.00 28.63 LIG 0.04  C 
BRANCH 35 36
ATOM     36  CG  LEU B   4      51.473  84.845  31.864  1.00 30.56 LIG-0.02  C 
ATOM     37  CD2 LEU B   4      52.293  83.908  32.725  1.00 33.80 LIG 0.01  C 
ATOM     38  CD1 LEU B   4      50.716  84.057  30.781  1.00 28.87 LIG 0.01  C 
ENDBRANCH 35 36
ENDBRANCH 1 35
BRANCH 1 39
ATOM     39  N   LEU B   4      52.680  86.664  33.430  1.00 28.62 LIG-0.35  N 
ATOM     40 H    LEU B   4      51.867  86.385  33.441  1.00 28.62 LIG 0.16  HD
ATOM     41  C   PRO B   3      53.277  87.260  34.442  1.00 33.12 LIG 0.24  C 
ATOM     42 O    PRO B   3      54.505  87.451  34.502  1.00 32.36 LIG-0.27  OA
BRANCH 41 43
ATOM     43  CA  PRO B   3      52.362  87.672  35.593  1.00 33.48 LIG 0.18  C 
ATOM     44  CB  PRO B   3      52.745  89.080  36.123  1.00 32.62 LIG 0.04  C 
ATOM     45  CG  PRO B   3      52.665  88.975  37.623  1.00 32.85 LIG 0.02  C 
ATOM     46  CD  PRO B   3      53.009  87.524  37.951  1.00 29.95 LIG 0.13  C 
ATOM     47  N   PRO B   3      52.658  86.785  36.704  1.00 33.01 LIG-0.34  N 
ATOM     48  C   LEU B   2      52.514  85.456  36.505  1.00 31.97 LIG 0.24  C 
ATOM     49 O    LEU B   2      52.019  84.958  35.489  1.00 33.64 LIG-0.27  OA
BRANCH 48 50
ATOM     50  CA  LEU B   2      52.936  84.547  37.637  1.00 32.67 LIG 0.18  C 
BRANCH 50 51
ATOM     51  N   LEU B   2      52.423  83.226  37.291  1.00 33.85 LIG-0.35  N 
ATOM     52 H    LEU B   2      53.026  82.692  36.990  1.00 33.85 LIG 0.16  HD
ATOM     53  C   GLU B   1      51.148  82.877  37.424  1.00 36.42 LIG 0.25  C 
ATOM     54 O    GLU B   1      50.348  83.544  38.102  1.00 32.31 LIG-0.27  OA
BRANCH 53 55
ATOM     55  CA  GLU B   1      50.737  81.532  36.785  1.00 35.71 LIG 0.28  C 
BRANCH 55 56
ATOM     56  CB  GLU B   1      49.217  81.528  36.586  1.00 39.23 LIG 0.05  C 
BRANCH 56 57
ATOM     57  CG  GLU B   1      48.793  82.117  35.241  1.00 48.64 LIG 0.12  C 
BRANCH 57 58
ATOM     58  CD  GLU B   1      49.305  81.368  34.003  1.00 56.94 LIG 0.17  C 
ATOM     59 OE1  GLU B   1      48.975  81.826  32.896  1.00 65.53 LIG-0.65  OA
ATOM     60 OE2  GLU B   1      50.013  80.327  34.104  1.00 53.19 LIG-0.65  OA
ENDBRANCH 57 58
ENDBRANCH 56 57
ENDBRANCH 55 56
BRANCH 55 61
ATOM     61  N   GLU B   1      51.139  80.361  37.638  1.00 36.67 LIG-0.07  N 
ATOM     62 H1   GLU B   1      50.453  80.117  38.150  1.00 36.67 LIG 0.28  HD
ATOM     63 H3   GLU B   1      51.827  80.592  38.154  1.00 36.67 LIG 0.28  HD
ATOM     64 H2   GLU B   1      51.376  79.681  37.115  1.00 36.67 LIG 0.28  HD
ENDBRANCH 55 61
ENDBRANCH 53 55
ENDBRANCH 50 51
BRANCH 50 65
ATOM     65  CB  LEU B   2      54.481  84.571  37.772  1.00 34.84 LIG 0.04  C 
BRANCH 65 66
ATOM     66  CG  LEU B   2      55.127  83.383  38.504  1.00 34.30 LIG-0.02  C 
ATOM     67  CD2 LEU B   2      54.242  82.868  39.653  1.00 39.39 LIG 0.01  C 
ATOM     68  CD1 LEU B   2      56.535  83.697  39.014  1.00 34.61 LIG 0.01  C 
ENDBRANCH 65 66
ENDBRANCH 50 65
ENDBRANCH 48 50
ENDBRANCH 41 43
ENDBRANCH 1 39
TORSDOF 28
ENDMDL
MODEL 5
USER: ADFR SOLUTION from run 55
USER: SCORE 25.666948 LL:  -6.557 LR: -19.667 RR:   0.000 FEB: -11.315
USER: RMSD 6.215938
USER: SEED 54
USER: STATUS searching
USER: GENES 30
USER: genes 0 Translation |==|  0.53615 0.57807 0.48194
USER: genes 1 Rotation |==|  0.35560 0.66861 0.62912 0.92901
USER: genes 2 Torsion [N]-CA--C-[N] |==|  0.87549
USER: genes 3 Torsion [C]-N--CA-[C] |==|  0.83608
USER: genes 4 Torsion [N]-CA--CB-[CG2] |==|  0.54079
USER: genes 5 Torsion [N]-CA--C-[N] |==|  0.41110
USER: genes 6 Torsion [C]-N--CA-[C] |==|  0.81432
USER: genes 7 Torsion [N]-CA--C-[N] |==|  0.34445
USER: genes 8 Torsion [C]-N--CA-[CB] |==|  0.23605
USER: genes 9 Torsion [N]-CA--CB-[CG1] |==|  0.60969
USER: genes 10 Torsion [CA]-CB--CG1-[CD1] |==|  0.27492
USER: genes 11 Torsion [N]-CA--C-[OXT] |==|  0.88912
USER: genes 12 Torsion [N]-CA--CB-[CG] |==|  0.92182
USER: genes 13 Torsion [CA]-CB--CG-[CD] |==|  0.29470
USER: genes 14 Torsion [CB]-CG--CD-[CE] |==|  0.64192
USER: genes 15 Torsion [CG]-CD--CE-[NZ] |==|  0.70610
USER: genes 16 Torsion [CD]-CE--NZ-[HZ1] |==|  0.32573
USER: genes 17 Torsion [C]-CA--CB-[CG] |==|  0.30497
USER: genes 18 Torsion [CA]-CB--CG-[CD2] |==|  0.41177
USER: genes 19 Torsion [C]-CA--N-[C] |==|  0.68957
USER: genes 20 Torsion [N]-C--CA-[CB] |==|  0.56554
USER: genes 21 Torsion [N]-C--CA-[N] |==|  0.34470
USER: genes 22 Torsion [C]-CA--N-[C] |==|  0.79503
USER: genes 23 Torsion [N]-C--CA-[N] |==|  0.99049
USER: genes 24 Torsion [C]-CA--CB-[CG] |==|  0.24815
USER: genes 25 Torsion [CA]-CB--CG-[CD] |==|  0.08553
USER: genes 26 Torsion [CB]-CG--CD-[OE1] |==|  0.81913
USER: genes 27 Torsion [C]-CA--N-[H1] |==|  0.41156
USER: genes 28 Torsion [C]-CA--CB-[CG] |==|  0.68907
USER: genes 29 Torsion [CA]-CB--CG-[CD2] |==|  0.74239
ROOT
ATOM      1  CA  LEU B   4      56.398  88.083  30.185  1.00 30.07 LIG 0.18  C 
ENDROOT
BRANCH 1 2
ATOM      2  C   LEU B   4      55.584  87.957  31.448  1.00 30.58 LIG 0.24  C 
ATOM      3 O    LEU B   4      56.077  87.450  32.458  1.00 35.83 LIG-0.27  OA
ATOM      4  N   VAL B   5      54.313  88.343  31.376  1.00 32.24 LIG-0.35  N 
ATOM      5 H    VAL B   5      53.956  88.677  30.668  1.00 32.24 LIG 0.16  HD
BRANCH 4 6
ATOM      6  CA  VAL B   5      53.394  88.233  32.514  1.00 32.53 LIG 0.18  C 
BRANCH 6 7
ATOM      7  CB  VAL B   5      51.988  88.750  32.163  1.00 34.70 LIG 0.01  C 
ATOM      8  CG2 VAL B   5      51.204  88.951  33.435  1.00 38.22 LIG 0.01  C 
ATOM      9  CG1 VAL B   5      51.245  87.798  31.234  1.00 39.77 LIG 0.01  C 
ENDBRANCH 6 7
BRANCH 6 10
ATOM     10  C   VAL B   5      53.280  86.802  32.963  1.00 39.16 LIG 0.24  C 
ATOM     11 O    VAL B   5      53.410  85.866  32.164  1.00 33.69 LIG-0.27  OA
ATOM     12  N   LYS B   6      53.072  86.639  34.259  1.00 40.12 LIG-0.35  N 
ATOM     13 H    LYS B   6      53.030  87.286  34.824  1.00 40.12 LIG 0.16  HD
BRANCH 12 14
ATOM     14  CA  LYS B   6      52.898  85.339  34.833  1.00 45.41 LIG 0.18  C 
BRANCH 14 15
ATOM     15  C   LYS B   6      51.582  84.882  34.241  1.00 44.99 LIG 0.24  C 
ATOM     16 O    LYS B   6      50.598  85.587  34.326  1.00 45.85 LIG-0.27  OA
ATOM     17  N   ILE B   7      51.535  83.747  33.577  1.00 47.54 LIG-0.34  N 
ATOM     18 H    ILE B   7      52.183  83.191  33.468  1.00 47.54 LIG 0.16  HD
BRANCH 17 19
ATOM     19  CA  ILE B   7      50.246  83.393  32.956  1.00 57.67 LIG 0.19  C 
BRANCH 19 20
ATOM     20  CB  ILE B   7      49.993  84.018  31.529  1.00 59.41 LIG 0.01  C 
ATOM     21  CG2 ILE B   7      50.389  83.064  30.408  1.00 60.58 LIG 0.01  C 
BRANCH 20 22
ATOM     22  CG1 ILE B   7      48.514  84.474  31.365  1.00 65.20 LIG 0.00  C 
ATOM     23  CD1 ILE B   7      48.212  85.961  31.569  1.00 51.92 LIG 0.01  C 
ENDBRANCH 20 22
ENDBRANCH 19 20
BRANCH 19 24
ATOM     24  C   ILE B   7      49.932  81.893  33.059  1.00 61.74 LIG 0.20  C 
ATOM     25 O    ILE B   7      48.817  81.442  33.271  1.00 61.53 LIG-0.65  OA
ATOM     26 OXT  ILE B   7      50.829  81.063  32.898  1.00 68.92 LIG-0.65  OA
ENDBRANCH 19 24
ENDBRANCH 17 19
ENDBRANCH 14 15
BRANCH 14 27
ATOM     27  CB  LYS B   6      52.849  85.501  36.362  1.00 46.87 LIG 0.04  C 
BRANCH 27 28
ATOM     28  CG  LYS B   6      53.615  86.693  36.904  1.00 55.56 LIG 0.00  C 
BRANCH 28 29
ATOM     29  CD  LYS B   6      52.694  87.817  37.356  1.00 60.95 LIG 0.03  C 
BRANCH 29 30
ATOM     30  CE  LYS B   6      53.101  89.161  36.742  1.00 62.93 LIG 0.23  C 
BRANCH 30 31
ATOM     31  NZ  LYS B   6      53.764  90.059  37.738  1.00 65.77 LIG-0.08  N 
ATOM     32 HZ1  LYS B   6      54.601  90.221  37.481  1.00 65.77 LIG 0.27  HD
ATOM     33 HZ2  LYS B   6      53.316  90.826  37.791  1.00 65.77 LIG 0.27  HD
ATOM     34 HZ3  LYS B   6      53.770  89.663  38.536  1.00 65.77 LIG 0.27  HD
ENDBRANCH 30 31
ENDBRANCH 29 30
ENDBRANCH 28 29
ENDBRANCH 27 28
ENDBRANCH 14 27
ENDBRANCH 12 14
ENDBRANCH 6 10
ENDBRANCH 4 6
ENDBRANCH 1 2
BRANCH 1 35
ATOM     35  CB  LEU B   4      56.740  89.549  30.022  1.00 28.63 LIG 0.04  C 
BRANCH 35 36
ATOM     36  CG  LEU B   4      58.223  89.803  30.261  1.00 30.56 LIG-0.02  C 
ATOM     37  CD2 LEU B   4      58.667  90.958  29.389  1.00 33.80 LIG 0.01  C 
ATOM     38  CD1 LEU B   4      58.999  88.526  29.899  1.00 28.87 LIG 0.01  C 
ENDBRANCH 35 36
ENDBRANCH 1 35
BRANCH 1 39
ATOM     39  N   LEU B   4      55.776  87.621  28.923  1.00 28.62 LIG-0.35  N 
ATOM     40 H    LEU B   4      55.114  88.099  28.652  1.00 28.62 LIG 0.16  HD
ATOM     41  C   PRO B   3      56.231  86.556  28.295  1.00 33.12 LIG 0.24  C 
ATOM     42 O    PRO B   3      57.317  86.011  28.561  1.00 32.36 LIG-0.27  OA
BRANCH 41 43
ATOM     43  CA  PRO B   3      55.353  86.040  27.157  1.00 33.48 LIG 0.18  C 
ATOM     44  CB  PRO B   3      55.626  84.535  26.892  1.00 32.62 LIG 0.04  C 
ATOM     45  CG  PRO B   3      55.650  84.395  25.392  1.00 32.85 LIG 0.02  C 
ATOM     46  CD  PRO B   3      56.156  85.735  24.864  1.00 29.95 LIG 0.13  C 
ATOM     47  N   PRO B   3      55.803  86.699  25.945  1.00 33.01 LIG-0.34  N 
ATOM     48  C   LEU B   2      55.779  88.050  25.917  1.00 31.97 LIG 0.24  C 
ATOM     49 O    LEU B   2      55.274  88.752  26.799  1.00 33.64 LIG-0.27  OA
BRANCH 48 50
ATOM     50  CA  LEU B   2      56.359  88.717  24.690  1.00 32.67 LIG 0.18  C 
BRANCH 50 51
ATOM     51  N   LEU B   2      55.296  89.568  24.167  1.00 33.85 LIG-0.35  N 
ATOM     52 H    LEU B   2      55.425  90.406  24.309  1.00 33.85 LIG 0.16  HD
ATOM     53  C   GLU B   1      54.228  89.098  23.531  1.00 36.42 LIG 0.25  C 
ATOM     54 O    GLU B   1      54.178  87.937  23.092  1.00 32.31 LIG-0.27  OA
BRANCH 53 55
ATOM     55  CA  GLU B   1      53.092  90.111  23.264  1.00 35.71 LIG 0.28  C 
BRANCH 55 56
ATOM     56  CB  GLU B   1      52.907  90.251  21.749  1.00 39.23 LIG 0.05  C 
BRANCH 56 57
ATOM     57  CG  GLU B   1      51.908  89.245  21.177  1.00 48.64 LIG 0.12  C 
BRANCH 57 58
ATOM     58  CD  GLU B   1      50.779  88.826  22.128  1.00 56.94 LIG 0.17  C 
ATOM     59 OE1  GLU B   1      51.110  88.195  23.146  1.00 65.53 LIG-0.65  OA
ATOM     60 OE2  GLU B   1      49.569  89.093  21.879  1.00 53.19 LIG-0.65  OA
ENDBRANCH 57 58
ENDBRANCH 56 57
ENDBRANCH 55 56
BRANCH 55 61
ATOM     61  N   GLU B   1      53.389  91.456  23.865  1.00 36.67 LIG-0.07  N 
ATOM     62 H1   GLU B   1      53.025  92.093  23.361  1.00 36.67 LIG 0.28  HD
ATOM     63 H3   GLU B   1      54.270  91.576  23.904  1.00 36.67 LIG 0.28  HD
ATOM     64 H2   GLU B   1      53.048  91.496  24.686  1.00 36.67 LIG 0.28  HD
ENDBRANCH 55 61
ENDBRANCH 53 55
ENDBRANCH 50 51
BRANCH 50 65
ATOM     65  CB  LEU B   2      57.626  89.520  25.086  1.00 34.84 LIG 0.04  C 
BRANCH 65 66
ATOM     66  CG  LEU B   2      57.528  91.052  24.993  1.00 34.30 LIG-0.02  C 
ATOM     67  CD2 LEU B   2      58.012  91.575  23.629  1.00 39.39 LIG 0.01  C 
ATOM     68  CD1 LEU B   2      58.264  91.763  26.131  1.00 34.61 LIG 0.01  C 
ENDBRANCH 65 66
ENDBRANCH 50 65
ENDBRANCH 48 50
ENDBRANCH 41 43
ENDBRANCH 1 39
TORSDOF 28
ENDMDL
MODEL 6
USER: ADFR SOLUTION from run 74
USER: SCORE 24.658212 LL:  -6.407 LR: -19.610 RR:   0.000 FEB: -11.258
USER: RMSD 2.993935
USER: SEED 73
USER: STATUS no improvement in best in 17 clusters for 5 generations
USER: GENES 30
USER: genes 0 Translation |==|  0.53529 0.60172 0.47227
USER: genes 1 Rotation |==|  0.48722 0.49730 0.58623 0.99234
USER: genes 2 Torsion [N]-CA--C-[N] |==|  0.39158
USER: genes 3 Torsion [C]-N--CA-[C] |==|  0.66498
USER: genes 4 Torsion [N]-CA--CB-[CG2] |==|  0.93178
USER: genes 5 Torsion [N]-CA--C-[N] |==|  0.53333
USER: genes 6 Torsion [C]-N--CA-[C] |==|  0.55071
USER: genes 7 Torsion [N]-CA--C-[N] |==|  0.17876
USER: genes 8 Torsion [C]-N--CA-[CB] |==|  0.85561
USER: genes 9 Torsion [N]-CA--CB-[CG1] |==|  0.85961
USER: genes 10 Torsion [CA]-CB--CG1-[CD1] |==|  0.60454
USER: genes 11 Torsion [N]-CA--C-[OXT] |==|  0.42615
USER: genes 12 Torsion [N]-CA--CB-[CG] |==|  0.59080
USER: genes 13 Torsion [CA]-CB--CG-[CD] |==|  0.29808
USER: genes 14 Torsion [CB]-CG--CD-[CE] |==|  0.36281
USER: genes 15 Torsion [CG]-CD--CE-[NZ] |==|  0.44570
USER: genes 16 Torsion [CD]-CE--NZ-[HZ1] |==|  0.50416
USER: genes 17 Torsion [C]-CA--CB-[CG] |==|  0.39152
USER: genes 18 Torsion [CA]-CB--CG-[CD2] |==|  0.21815
USER: genes 19 Torsion [C]-CA--N-[C] |==|  0.66727
USER: genes 20 Torsion [N]-C--CA-[CB] |==|  0.01502
USER: genes 21 Torsion [N]-C--CA-[N] |==|  0.40117
USER: genes 22 Torsion [C]-CA--N-[C] |==|  0.82766
USER: genes 23 Torsion [N]-C--CA-[N] |==|  0.80200
USER: genes 24 Torsion [C]-CA--CB-[CG] |==|  0.73634
USER: genes 25 Torsion [CA]-CB--CG-[CD] |==|  0.74227
USER: genes 26 Torsion [CB]-CG--CD-[OE1] |==|  0.06254
USER: genes 27 Torsion [C]-CA--N-[H1] |==|  0.49553
USER: genes 28 Torsion [C]-CA--CB-[CG] |==|  0.46365
USER: genes 29 Torsion [CA]-CB--CG-[CD2] |==|  0.24442
ROOT
ATOM      1  CA  LEU B   4      56.380  88.615  29.939  1.00 30.07 LIG 0.18  C 
ENDROOT
BRANCH 1 2
ATOM      2  C   LEU B   4      54.982  88.156  30.265  1.00 30.58 LIG 0.24  C 
ATOM      3 O    LEU B   4      54.009  88.821  29.906  1.00 35.83 LIG-0.27  OA
ATOM      4  N   VAL B   5      54.876  87.061  31.015  1.00 32.24 LIG-0.35  N 
ATOM      5 H    VAL B   5      55.551  86.604  31.288  1.00 32.24 LIG 0.16  HD
BRANCH 4 6
ATOM      6  CA  VAL B   5      53.579  86.530  31.447  1.00 32.53 LIG 0.18  C 
BRANCH 6 7
ATOM      7  CB  VAL B   5      53.334  85.112  30.900  1.00 34.70 LIG 0.01  C 
ATOM      8  CG2 VAL B   5      54.151  84.917  29.649  1.00 38.22 LIG 0.01  C 
ATOM      9  CG1 VAL B   5      51.860  84.860  30.608  1.00 39.77 LIG 0.01  C 
ENDBRANCH 6 7
BRANCH 6 10
ATOM     10  C   VAL B   5      53.500  86.486  32.948  1.00 39.16 LIG 0.24  C 
ATOM     11 O    VAL B   5      54.321  87.087  33.652  1.00 33.69 LIG-0.27  OA
ATOM     12  N   LYS B   6      52.480  85.798  33.434  1.00 40.12 LIG-0.35  N 
ATOM     13 H    LYS B   6      51.880  85.419  32.946  1.00 40.12 LIG 0.16  HD
BRANCH 12 14
ATOM     14  CA  LYS B   6      52.293  85.626  34.843  1.00 45.41 LIG 0.18  C 
BRANCH 14 15
ATOM     15  C   LYS B   6      51.347  84.447  34.916  1.00 44.99 LIG 0.24  C 
ATOM     16 O    LYS B   6      50.211  84.601  35.315  1.00 45.85 LIG-0.27  OA
ATOM     17  N   ILE B   7      51.748  83.272  34.480  1.00 47.54 LIG-0.34  N 
ATOM     18 H    ILE B   7      52.531  83.077  34.182  1.00 47.54 LIG 0.16  HD
BRANCH 17 19
ATOM     19  CA  ILE B   7      50.757  82.181  34.505  1.00 57.67 LIG 0.19  C 
BRANCH 19 20
ATOM     20  CB  ILE B   7      50.035  81.960  35.892  1.00 59.41 LIG 0.01  C 
ATOM     21  CG2 ILE B   7      49.118  80.743  35.872  1.00 60.58 LIG 0.01  C 
BRANCH 20 22
ATOM     22  CG1 ILE B   7      51.064  81.854  37.054  1.00 65.20 LIG 0.00  C 
ATOM     23  CD1 ILE B   7      50.761  80.851  38.170  1.00 51.92 LIG 0.01  C 
ENDBRANCH 20 22
ENDBRANCH 19 20
BRANCH 19 24
ATOM     24  C   ILE B   7      49.813  82.211  33.293  1.00 61.74 LIG 0.20  C 
ATOM     25 O    ILE B   7      49.555  83.221  32.656  1.00 61.53 LIG-0.65  OA
ATOM     26 OXT  ILE B   7      49.287  81.172  32.896  1.00 68.92 LIG-0.65  OA
ENDBRANCH 19 24
ENDBRANCH 17 19
ENDBRANCH 14 15
BRANCH 14 27
ATOM     27  CB  LYS B   6      51.685  86.925  35.399  1.00 46.87 LIG 0.04  C 
BRANCH 27 28
ATOM     28  CG  LYS B   6      52.103  87.271  36.815  1.00 55.56 LIG 0.00  C 
BRANCH 28 29
ATOM     29  CD  LYS B   6      53.073  88.444  36.863  1.00 60.95 LIG 0.03  C 
BRANCH 29 30
ATOM     30  CE  LYS B   6      52.631  89.499  37.884  1.00 62.93 LIG 0.23  C 
BRANCH 30 31
ATOM     31  NZ  LYS B   6      53.757  90.397  38.288  1.00 65.77 LIG-0.08  N 
ATOM     32 HZ1  LYS B   6      53.468  90.980  38.896  1.00 65.77 LIG 0.27  HD
ATOM     33 HZ2  LYS B   6      54.416  89.909  38.636  1.00 65.77 LIG 0.27  HD
ATOM     34 HZ3  LYS B   6      54.058  90.836  37.575  1.00 65.77 LIG 0.27  HD
ENDBRANCH 30 31
ENDBRANCH 29 30
ENDBRANCH 28 29
ENDBRANCH 27 28
ENDBRANCH 14 27
ENDBRANCH 12 14
ENDBRANCH 6 10
ENDBRANCH 4 6
ENDBRANCH 1 2
BRANCH 1 35
ATOM     35  CB  LEU B   4      56.728  89.712  30.924  1.00 28.63 LIG 0.04  C 
BRANCH 35 36
ATOM     36  CG  LEU B   4      58.179  89.610  31.378  1.00 30.56 LIG-0.02  C 
ATOM     37  CD2 LEU B   4      59.069  90.179  30.295  1.00 33.80 LIG 0.01  C 
ATOM     38  CD1 LEU B   4      58.508  88.128  31.623  1.00 28.87 LIG 0.01  C 
ENDBRANCH 35 36
ENDBRANCH 1 35
BRANCH 1 39
ATOM     39  N   LEU B   4      56.625  89.139  28.575  1.00 28.62 LIG-0.35  N 
ATOM     40 H    LEU B   4      56.157  89.828  28.365  1.00 28.62 LIG 0.16  HD
ATOM     41  C   PRO B   3      57.501  88.563  27.777  1.00 33.12 LIG 0.24  C 
ATOM     42 O    PRO B   3      58.332  87.720  28.161  1.00 32.36 LIG-0.27  OA
BRANCH 41 43
ATOM     43  CA  PRO B   3      57.476  89.034  26.325  1.00 33.48 LIG 0.18  C 
ATOM     44  CB  PRO B   3      56.483  90.213  26.147  1.00 32.62 LIG 0.04  C 
ATOM     45  CG  PRO B   3      55.757  89.930  24.858  1.00 32.85 LIG 0.02  C 
ATOM     46  CD  PRO B   3      55.723  88.409  24.733  1.00 29.95 LIG 0.13  C 
ATOM     47  N   PRO B   3      56.892  87.959  25.544  1.00 33.01 LIG-0.34  N 
ATOM     48  C   LEU B   2      57.494  86.750  25.585  1.00 31.97 LIG 0.24  C 
ATOM     49 O    LEU B   2      58.581  86.537  26.132  1.00 33.64 LIG-0.27  OA
BRANCH 48 50
ATOM     50  CA  LEU B   2      56.805  85.619  24.857  1.00 32.67 LIG 0.18  C 
BRANCH 50 51
ATOM     51  N   LEU B   2      57.876  84.797  24.306  1.00 33.85 LIG-0.35  N 
ATOM     52 H    LEU B   2      57.885  83.994  24.614  1.00 33.85 LIG 0.16  HD
ATOM     53  C   GLU B   1      58.755  85.240  23.414  1.00 36.42 LIG 0.25  C 
ATOM     54 O    GLU B   1      58.577  86.292  22.777  1.00 32.31 LIG-0.27  OA
BRANCH 53 55
ATOM     55  CA  GLU B   1      59.961  84.318  23.126  1.00 35.71 LIG 0.28  C 
BRANCH 55 56
ATOM     56  CB  GLU B   1      59.439  82.906  22.836  1.00 39.23 LIG 0.05  C 
BRANCH 56 57
ATOM     57  CG  GLU B   1      59.438  82.009  24.073  1.00 48.64 LIG 0.12  C 
BRANCH 57 58
ATOM     58  CD  GLU B   1      60.699  81.157  24.271  1.00 56.94 LIG 0.17  C 
ATOM     59 OE1  GLU B   1      61.736  81.556  23.714  1.00 65.53 LIG-0.65  OA
ATOM     60 OE2  GLU B   1      60.681  80.093  24.952  1.00 53.19 LIG-0.65  OA
ENDBRANCH 57 58
ENDBRANCH 56 57
ENDBRANCH 55 56
BRANCH 55 61
ATOM     61  N   GLU B   1      60.921  84.275  24.282  1.00 36.67 LIG-0.07  N 
ATOM     62 H1   GLU B   1      61.590  83.719  24.093  1.00 36.67 LIG 0.28  HD
ATOM     63 H3   GLU B   1      60.497  83.991  25.011  1.00 36.67 LIG 0.28  HD
ATOM     64 H2   GLU B   1      61.246  85.091  24.428  1.00 36.67 LIG 0.28  HD
ENDBRANCH 55 61
ENDBRANCH 53 55
ENDBRANCH 50 51
BRANCH 50 65
ATOM     65  CB  LEU B   2      55.902  84.838  25.847  1.00 34.84 LIG 0.04  C 
BRANCH 65 66
ATOM     66  CG  LEU B   2      54.891  83.856  25.231  1.00 34.30 LIG-0.02  C 
ATOM     67  CD2 LEU B   2      55.503  82.461  25.021  1.00 39.39 LIG 0.01  C 
ATOM     68  CD1 LEU B   2      54.282  84.375  23.927  1.00 34.61 LIG 0.01  C 
ENDBRANCH 65 66
ENDBRANCH 50 65
ENDBRANCH 48 50
ENDBRANCH 41 43
ENDBRANCH 1 39
TORSDOF 28
ENDMDL
MODEL 7
USER: ADFR SOLUTION from run 48
USER: SCORE 24.266968 LL:  -6.672 LR: -19.576 RR:   0.000 FEB: -11.224
USER: RMSD 12.551978
USER: SEED 47
USER: STATUS no improvement in best in 2 clusters for 5 generations
USER: GENES 30
USER: genes 0 Translation |==|  0.51911 0.54167 0.44711
USER: genes 1 Rotation |==|  0.16167 0.25725 0.22325 0.50416
USER: genes 2 Torsion [N]-CA--C-[N] |==|  0.30556
USER: genes 3 Torsion [C]-N--CA-[C] |==|  0.15028
USER: genes 4 Torsion [N]-CA--CB-[CG2] |==|  0.25613
USER: genes 5 Torsion [N]-CA--C-[N] |==|  0.50709
USER: genes 6 Torsion [C]-N--CA-[C] |==|  0.61490
USER: genes 7 Torsion [N]-CA--C-[N] |==|  0.23361
USER: genes 8 Torsion [C]-N--CA-[CB] |==|  0.26463
USER: genes 9 Torsion [N]-CA--CB-[CG1] |==|  0.54372
USER: genes 10 Torsion [CA]-CB--CG1-[CD1] |==|  0.69125
USER: genes 11 Torsion [N]-CA--C-[OXT] |==|  0.05332
USER: genes 12 Torsion [N]-CA--CB-[CG] |==|  0.85799
USER: genes 13 Torsion [CA]-CB--CG-[CD] |==|  0.43216
USER: genes 14 Torsion [CB]-CG--CD-[CE] |==|  0.40939
USER: genes 15 Torsion [CG]-CD--CE-[NZ] |==|  0.71705
USER: genes 16 Torsion [CD]-CE--NZ-[HZ1] |==|  0.84088
USER: genes 17 Torsion [C]-CA--CB-[CG] |==|  0.51872
USER: genes 18 Torsion [CA]-CB--CG-[CD2] |==|  0.84372
USER: genes 19 Torsion [C]-CA--N-[C] |==|  0.71667
USER: genes 20 Torsion [N]-C--CA-[CB] |==|  0.66552
USER: genes 21 Torsion [N]-C--CA-[N] |==|  0.87021
USER: genes 22 Torsion [C]-CA--N-[C] |==|  0.73520
USER: genes 23 Torsion [N]-C--CA-[N] |==|  0.49405
USER: genes 24 Torsion [C]-CA--CB-[CG] |==|  0.27776
USER: genes 25 Torsion [CA]-CB--CG-[CD] |==|  0.01817
USER: genes 26 Torsion [CB]-CG--CD-[OE1] |==|  0.20554
USER: genes 27 Torsion [C]-CA--N-[H1] |==|  0.30062
USER: genes 28 Torsion [C]-CA--CB-[CG] |==|  0.29396
USER: genes 29 Torsion [CA]-CB--CG-[CD2] |==|  0.05894
ROOT
ATOM      1  CA  LEU B   4      56.040  87.264  29.297  1.00 30.07 LIG 0.18  C 
ENDROOT
BRANCH 1 2
ATOM      2  C   LEU B   4      56.427  86.479  28.070  1.00 30.58 LIG 0.24  C 
ATOM      3 O    LEU B   4      57.363  85.679  28.112  1.00 35.83 LIG-0.27  OA
ATOM      4  N   VAL B   5      55.763  86.760  26.951  1.00 32.24 LIG-0.35  N 
ATOM      5 H    VAL B   5      55.123  87.334  26.909  1.00 32.24 LIG 0.16  HD
BRANCH 4 6
ATOM      6  CA  VAL B   5      56.067  86.107  25.674  1.00 32.53 LIG 0.18  C 
BRANCH 6 7
ATOM      7  CB  VAL B   5      57.458  86.505  25.149  1.00 34.70 LIG 0.01  C 
ATOM      8  CG2 VAL B   5      58.474  85.503  25.635  1.00 38.22 LIG 0.01  C 
ATOM      9  CG1 VAL B   5      57.854  87.909  25.588  1.00 39.77 LIG 0.01  C 
ENDBRANCH 6 7
BRANCH 6 10
ATOM     10  C   VAL B   5      56.019  84.611  25.821  1.00 39.16 LIG 0.24  C 
ATOM     11 O    VAL B   5      55.674  84.081  26.885  1.00 33.69 LIG-0.27  OA
ATOM     12  N   LYS B   6      56.333  83.933  24.730  1.00 40.12 LIG-0.35  N 
ATOM     13 H    LYS B   6      56.526  84.299  23.975  1.00 40.12 LIG 0.16  HD
BRANCH 12 14
ATOM     14  CA  LYS B   6      56.376  82.502  24.722  1.00 45.41 LIG 0.18  C 
BRANCH 14 15
ATOM     15  C   LYS B   6      57.616  82.206  23.905  1.00 44.99 LIG 0.24  C 
ATOM     16 O    LYS B   6      57.528  82.031  22.707  1.00 45.85 LIG-0.27  OA
ATOM     17  N   ILE B   7      58.792  82.210  24.496  1.00 47.54 LIG-0.34  N 
ATOM     18 H    ILE B   7      58.942  82.327  25.335  1.00 47.54 LIG 0.16  HD
BRANCH 17 19
ATOM     19  CA  ILE B   7      59.968  81.993  23.635  1.00 57.67 LIG 0.19  C 
BRANCH 19 20
ATOM     20  CB  ILE B   7      60.686  83.307  23.133  1.00 59.41 LIG 0.01  C 
ATOM     21  CG2 ILE B   7      61.429  84.018  24.258  1.00 60.58 LIG 0.01  C 
BRANCH 20 22
ATOM     22  CG1 ILE B   7      61.644  83.010  21.944  1.00 65.20 LIG 0.00  C 
ATOM     23  CD1 ILE B   7      63.147  83.144  22.203  1.00 51.92 LIG 0.01  C 
ENDBRANCH 20 22
ENDBRANCH 19 20
BRANCH 19 24
ATOM     24  C   ILE B   7      60.919  80.922  24.191  1.00 61.74 LIG 0.20  C 
ATOM     25 O    ILE B   7      62.094  80.823  23.875  1.00 61.53 LIG-0.65  OA
ATOM     26 OXT  ILE B   7      60.514  80.113  25.027  1.00 68.92 LIG-0.65  OA
ENDBRANCH 19 24
ENDBRANCH 17 19
ENDBRANCH 14 15
BRANCH 14 27
ATOM     27  CB  LYS B   6      55.082  81.994  24.064  1.00 46.87 LIG 0.04  C 
BRANCH 27 28
ATOM     28  CG  LYS B   6      53.804  82.578  24.632  1.00 55.56 LIG 0.00  C 
BRANCH 28 29
ATOM     29  CD  LYS B   6      52.655  82.539  23.634  1.00 60.95 LIG 0.03  C 
BRANCH 29 30
ATOM     30  CE  LYS B   6      51.306  82.342  24.335  1.00 62.93 LIG 0.23  C 
BRANCH 30 31
ATOM     31  NZ  LYS B   6      50.818  80.932  24.232  1.00 65.77 LIG-0.08  N 
ATOM     32 HZ1  LYS B   6      50.756  80.701  23.375  1.00 65.77 LIG 0.27  HD
ATOM     33 HZ2  LYS B   6      51.389  80.389  24.645  1.00 65.77 LIG 0.27  HD
ATOM     34 HZ3  LYS B   6      50.017  80.867  24.615  1.00 65.77 LIG 0.27  HD
ENDBRANCH 30 31
ENDBRANCH 29 30
ENDBRANCH 28 29
ENDBRANCH 27 28
ENDBRANCH 14 27
ENDBRANCH 12 14
ENDBRANCH 6 10
ENDBRANCH 4 6
ENDBRANCH 1 2
BRANCH 1 35
ATOM     35  CB  LEU B   4      57.318  87.829  29.883  1.00 28.63 LIG 0.04  C 
BRANCH 35 36
ATOM     36  CG  LEU B   4      57.062  88.505  31.224  1.00 30.56 LIG-0.02  C 
ATOM     37  CD2 LEU B   4      56.007  89.573  31.037  1.00 33.80 LIG 0.01  C 
ATOM     38  CD1 LEU B   4      58.380  89.129  31.713  1.00 28.87 LIG 0.01  C 
ENDBRANCH 35 36
ENDBRANCH 1 35
BRANCH 1 39
ATOM     39  N   LEU B   4      55.332  86.537  30.376  1.00 28.62 LIG-0.35  N 
ATOM     40 H    LEU B   4      55.837  86.049  30.874  1.00 28.62 LIG 0.16  HD
ATOM     41  C   PRO B   3      54.029  86.656  30.529  1.00 33.12 LIG 0.24  C 
ATOM     42 O    PRO B   3      53.346  87.529  29.963  1.00 32.36 LIG-0.27  OA
BRANCH 41 43
ATOM     43  CA  PRO B   3      53.389  85.669  31.502  1.00 33.48 LIG 0.18  C 
ATOM     44  CB  PRO B   3      52.317  84.806  30.785  1.00 32.62 LIG 0.04  C 
ATOM     45  CG  PRO B   3      51.162  84.725  31.749  1.00 32.85 LIG 0.02  C 
ATOM     46  CD  PRO B   3      51.202  86.027  32.545  1.00 29.95 LIG 0.13  C 
ATOM     47  N   PRO B   3      52.629  86.453  32.459  1.00 33.01 LIG-0.34  N 
ATOM     48  C   LEU B   2      53.291  87.386  33.178  1.00 31.97 LIG 0.24  C 
ATOM     49 O    LEU B   2      54.519  87.520  33.173  1.00 33.64 LIG-0.27  OA
BRANCH 48 50
ATOM     50  CA  LEU B   2      52.461  88.268  34.082  1.00 32.67 LIG 0.18  C 
BRANCH 50 51
ATOM     51  N   LEU B   2      51.331  88.707  33.271  1.00 33.85 LIG-0.35  N 
ATOM     52 H    LEU B   2      50.680  88.146  33.256  1.00 33.85 LIG 0.16  HD
ATOM     53  C   GLU B   1      51.305  89.863  32.615  1.00 36.42 LIG 0.25  C 
ATOM     54 O    GLU B   1      52.112  90.776  32.854  1.00 32.31 LIG-0.27  OA
BRANCH 53 55
ATOM     55  CA  GLU B   1      50.142  90.055  31.616  1.00 35.71 LIG 0.28  C 
BRANCH 55 56
ATOM     56  CB  GLU B   1      50.236  88.968  30.540  1.00 39.23 LIG 0.05  C 
BRANCH 56 57
ATOM     57  CG  GLU B   1      49.273  87.807  30.785  1.00 48.64 LIG 0.12  C 
BRANCH 57 58
ATOM     58  CD  GLU B   1      48.291  88.000  31.948  1.00 56.94 LIG 0.17  C 
ATOM     59 OE1  GLU B   1      47.349  88.788  31.761  1.00 65.53 LIG-0.65  OA
ATOM     60 OE2  GLU B   1      48.441  87.400  33.050  1.00 53.19 LIG-0.65  OA
ENDBRANCH 57 58
ENDBRANCH 56 57
ENDBRANCH 55 56
BRANCH 55 61
ATOM     61  N   GLU B   1      50.179  91.412  30.970  1.00 36.67 LIG-0.07  N 
ATOM     62 H1   GLU B   1      50.426  91.329  30.119  1.00 36.67 LIG 0.28  HD
ATOM     63 H3   GLU B   1      50.763  91.930  31.398  1.00 36.67 LIG 0.28  HD
ATOM     64 H2   GLU B   1      49.371  91.782  31.009  1.00 36.67 LIG 0.28  HD
ENDBRANCH 55 61
ENDBRANCH 53 55
ENDBRANCH 50 51
BRANCH 50 65
ATOM     65  CB  LEU B   2      52.021  87.462  35.332  1.00 34.84 LIG 0.04  C 
BRANCH 65 66
ATOM     66  CG  LEU B   2      52.741  87.789  36.651  1.00 34.30 LIG-0.02  C 
ATOM     67  CD2 LEU B   2      53.387  89.184  36.621  1.00 39.39 LIG 0.01  C 
ATOM     68  CD1 LEU B   2      53.774  86.729  37.039  1.00 34.61 LIG 0.01  C 
ENDBRANCH 65 66
ENDBRANCH 50 65
ENDBRANCH 48 50
ENDBRANCH 41 43
ENDBRANCH 1 39
TORSDOF 28
ENDMDL
MODEL 8
USER: ADFR SOLUTION from run 2
USER: SCORE 25.614627 LL:  -7.269 LR: -19.407 RR:   0.000 FEB: -11.054
USER: RMSD 12.326543
USER: SEED 332656
USER: STATUS no improvement in best in 4 clusters for 5 generations
USER: GENES 30
USER: genes 0 Translation |==|  0.52304 0.57417 0.45694
USER: genes 1 Rotation |==|  0.11050 0.35618 0.22909 0.56488
USER: genes 2 Torsion [N]-CA--C-[N] |==|  0.87232
USER: genes 3 Torsion [C]-N--CA-[C] |==|  0.57467
USER: genes 4 Torsion [N]-CA--CB-[CG2] |==|  0.15613
USER: genes 5 Torsion [N]-CA--C-[N] |==|  0.52683
USER: genes 6 Torsion [C]-N--CA-[C] |==|  0.65204
USER: genes 7 Torsion [N]-CA--C-[N] |==|  0.13311
USER: genes 8 Torsion [C]-N--CA-[CB] |==|  0.40521
USER: genes 9 Torsion [N]-CA--CB-[CG1] |==|  0.82789
USER: genes 10 Torsion [CA]-CB--CG1-[CD1] |==|  0.96691
USER: genes 11 Torsion [N]-CA--C-[OXT] |==|  0.75892
USER: genes 12 Torsion [N]-CA--CB-[CG] |==|  0.82426
USER: genes 13 Torsion [CA]-CB--CG-[CD] |==|  0.52563
USER: genes 14 Torsion [CB]-CG--CD-[CE] |==|  0.33778
USER: genes 15 Torsion [CG]-CD--CE-[NZ] |==|  0.61558
USER: genes 16 Torsion [CD]-CE--NZ-[HZ1] |==|  0.34630
USER: genes 17 Torsion [C]-CA--CB-[CG] |==|  0.35213
USER: genes 18 Torsion [CA]-CB--CG-[CD2] |==|  0.37910
USER: genes 19 Torsion [C]-CA--N-[C] |==|  0.82554
USER: genes 20 Torsion [N]-C--CA-[CB] |==|  0.62706
USER: genes 21 Torsion [N]-C--CA-[N] |==|  0.33333
USER: genes 22 Torsion [C]-CA--N-[C] |==|  0.82614
USER: genes 23 Torsion [N]-C--CA-[N] |==|  0.10290
USER: genes 24 Torsion [C]-CA--CB-[CG] |==|  0.41542
USER: genes 25 Torsion [CA]-CB--CG-[CD] |==|  0.06754
USER: genes 26 Torsion [CB]-CG--CD-[OE1] |==|  0.66196
USER: genes 27 Torsion [C]-CA--N-[H1] |==|  0.86005
USER: genes 28 Torsion [C]-CA--CB-[CG] |==|  0.18322
USER: genes 29 Torsion [CA]-CB--CG-[CD2] |==|  0.43161
ROOT
ATOM      1  CA  LEU B   4      56.123  87.995  29.548  1.00 30.07 LIG 0.18  C 
ENDROOT
BRANCH 1 2
ATOM      2  C   LEU B   4      56.029  87.692  28.075  1.00 30.58 LIG 0.24  C 
ATOM      3 O    LEU B   4      55.661  88.563  27.283  1.00 35.83 LIG-0.27  OA
ATOM      4  N   VAL B   5      56.283  86.438  27.708  1.00 32.24 LIG-0.35  N 
ATOM      5 H    VAL B   5      56.518  85.820  28.258  1.00 32.24 LIG 0.16  HD
BRANCH 4 6
ATOM      6  CA  VAL B   5      56.183  85.994  26.314  1.00 32.53 LIG 0.18  C 
BRANCH 6 7
ATOM      7  CB  VAL B   5      57.487  86.255  25.538  1.00 34.70 LIG 0.01  C 
ATOM      8  CG2 VAL B   5      58.630  85.582  26.253  1.00 38.22 LIG 0.01  C 
ATOM      9  CG1 VAL B   5      57.769  87.744  25.383  1.00 39.77 LIG 0.01  C 
ENDBRANCH 6 7
BRANCH 6 10
ATOM     10  C   VAL B   5      55.873  84.523  26.249  1.00 39.16 LIG 0.24  C 
ATOM     11 O    VAL B   5      55.530  83.895  27.259  1.00 33.69 LIG-0.27  OA
ATOM     12  N   LYS B   6      55.960  83.987  25.044  1.00 40.12 LIG-0.35  N 
ATOM     13 H    LYS B   6      56.151  84.432  24.332  1.00 40.12 LIG 0.16  HD
BRANCH 12 14
ATOM     14  CA  LYS B   6      55.738  82.589  24.826  1.00 45.41 LIG 0.18  C 
BRANCH 14 15
ATOM     15  C   LYS B   6      57.004  82.151  24.123  1.00 44.99 LIG 0.24  C 
ATOM     16 O    LYS B   6      56.940  81.530  23.082  1.00 45.85 LIG-0.27  OA
ATOM     17  N   ILE B   7      58.171  82.511  24.615  1.00 47.54 LIG-0.34  N 
ATOM     18 H    ILE B   7      58.305  82.950  25.343  1.00 47.54 LIG 0.16  HD
BRANCH 17 19
ATOM     19  CA  ILE B   7      59.366  82.122  23.845  1.00 57.67 LIG 0.19  C 
BRANCH 19 20
ATOM     20  CB  ILE B   7      60.561  83.153  23.893  1.00 59.41 LIG 0.01  C 
ATOM     21  CG2 ILE B   7      61.811  82.612  23.207  1.00 60.58 LIG 0.01  C 
BRANCH 20 22
ATOM     22  CG1 ILE B   7      60.150  84.524  23.283  1.00 65.20 LIG 0.00  C 
ATOM     23  CD1 ILE B   7      58.830  84.579  22.508  1.00 51.92 LIG 0.01  C 
ENDBRANCH 20 22
ENDBRANCH 19 20
BRANCH 19 24
ATOM     24  C   ILE B   7      59.775  80.661  24.085  1.00 61.74 LIG 0.20  C 
ATOM     25 O    ILE B   7      59.430  79.730  23.374  1.00 61.53 LIG-0.65  OA
ATOM     26 OXT  ILE B   7      60.514  80.375  25.028  1.00 68.92 LIG-0.65  OA
ENDBRANCH 19 24
ENDBRANCH 17 19
ENDBRANCH 14 15
BRANCH 14 27
ATOM     27  CB  LYS B   6      54.479  82.442  23.954  1.00 46.87 LIG 0.04  C 
BRANCH 27 28
ATOM     28  CG  LYS B   6      53.199  82.949  24.588  1.00 55.56 LIG 0.00  C 
BRANCH 28 29
ATOM     29  CD  LYS B   6      51.965  82.575  23.779  1.00 60.95 LIG 0.03  C 
BRANCH 29 30
ATOM     30  CE  LYS B   6      50.976  81.748  24.610  1.00 62.93 LIG 0.23  C 
BRANCH 30 31
ATOM     31  NZ  LYS B   6      50.389  80.617  23.825  1.00 65.77 LIG-0.08  N 
ATOM     32 HZ1  LYS B   6      50.532  79.851  24.255  1.00 65.77 LIG 0.27  HD
ATOM     33 HZ2  LYS B   6      49.513  80.745  23.730  1.00 65.77 LIG 0.27  HD
ATOM     34 HZ3  LYS B   6      50.772  80.583  23.022  1.00 65.77 LIG 0.27  HD
ENDBRANCH 30 31
ENDBRANCH 29 30
ENDBRANCH 28 29
ENDBRANCH 27 28
ENDBRANCH 14 27
ENDBRANCH 12 14
ENDBRANCH 6 10
ENDBRANCH 4 6
ENDBRANCH 1 2
BRANCH 1 35
ATOM     35  CB  LEU B   4      57.596  88.051  29.897  1.00 28.63 LIG 0.04  C 
BRANCH 35 36
ATOM     36  CG  LEU B   4      57.950  89.353  30.603  1.00 30.56 LIG-0.02  C 
ATOM     37  CD2 LEU B   4      58.863  89.042  31.769  1.00 33.80 LIG 0.01  C 
ATOM     38  CD1 LEU B   4      56.649  90.007  31.098  1.00 28.87 LIG 0.01  C 
ENDBRANCH 35 36
ENDBRANCH 1 35
BRANCH 1 39
ATOM     39  N   LEU B   4      55.474  87.046  30.482  1.00 28.62 LIG-0.35  N 
ATOM     40 H    LEU B   4      56.011  86.649  31.023  1.00 28.62 LIG 0.16  HD
ATOM     41  C   PRO B   3      54.171  86.854  30.453  1.00 33.12 LIG 0.24  C 
ATOM     42 O    PRO B   3      53.380  87.590  29.837  1.00 32.36 LIG-0.27  OA
BRANCH 41 43
ATOM     43  CA  PRO B   3      53.662  85.676  31.281  1.00 33.48 LIG 0.18  C 
ATOM     44  CB  PRO B   3      52.640  84.835  30.470  1.00 32.62 LIG 0.04  C 
ATOM     45  CG  PRO B   3      51.539  84.502  31.443  1.00 32.85 LIG 0.02  C 
ATOM     46  CD  PRO B   3      51.499  85.667  32.429  1.00 29.95 LIG 0.13  C 
ATOM     47  N   PRO B   3      52.878  86.233  32.368  1.00 33.01 LIG-0.34  N 
ATOM     48  C   LEU B   2      53.486  87.104  33.203  1.00 31.97 LIG 0.24  C 
ATOM     49 O    LEU B   2      54.696  87.351  33.184  1.00 33.64 LIG-0.27  OA
BRANCH 48 50
ATOM     50  CA  LEU B   2      52.621  87.758  34.257  1.00 32.67 LIG 0.18  C 
BRANCH 50 51
ATOM     51  N   LEU B   2      53.202  87.371  35.537  1.00 33.85 LIG-0.35  N 
ATOM     52 H    LEU B   2      53.493  88.036  35.997  1.00 33.85 LIG 0.16  HD
ATOM     53  C   GLU B   1      53.278  86.113  35.957  1.00 36.42 LIG 0.25  C 
ATOM     54 O    GLU B   1      52.623  85.199  35.429  1.00 32.31 LIG-0.27  OA
BRANCH 53 55
ATOM     55  CA  GLU B   1      54.138  85.863  37.216  1.00 35.71 LIG 0.28  C 
BRANCH 55 56
ATOM     56  CB  GLU B   1      53.694  84.545  37.860  1.00 39.23 LIG 0.05  C 
BRANCH 56 57
ATOM     57  CG  GLU B   1      54.831  83.827  38.585  1.00 48.64 LIG 0.12  C 
BRANCH 57 58
ATOM     58  CD  GLU B   1      55.984  84.724  39.055  1.00 56.94 LIG 0.17  C 
ATOM     59 OE1  GLU B   1      57.117  84.451  38.624  1.00 65.53 LIG-0.65  OA
ATOM     60 OE2  GLU B   1      55.795  85.683  39.855  1.00 53.19 LIG-0.65  OA
ENDBRANCH 57 58
ENDBRANCH 56 57
ENDBRANCH 55 56
BRANCH 55 61
ATOM     61  N   GLU B   1      54.010  86.982  38.212  1.00 36.67 LIG-0.07  N 
ATOM     62 H1   GLU B   1      54.141  87.761  37.802  1.00 36.67 LIG 0.28  HD
ATOM     63 H3   GLU B   1      54.617  86.879  38.855  1.00 36.67 LIG 0.28  HD
ATOM     64 H2   GLU B   1      53.194  86.969  38.570  1.00 36.67 LIG 0.28  HD
ENDBRANCH 55 61
ENDBRANCH 53 55
ENDBRANCH 50 51
BRANCH 50 65
ATOM     65  CB  LEU B   2      52.615  89.294  34.043  1.00 34.84 LIG 0.04  C 
BRANCH 65 66
ATOM     66  CG  LEU B   2      51.953  89.807  32.753  1.00 34.30 LIG-0.02  C 
ATOM     67  CD2 LEU B   2      51.459  91.257  32.901  1.00 39.39 LIG 0.01  C 
ATOM     68  CD1 LEU B   2      50.818  88.902  32.269  1.00 34.61 LIG 0.01  C 
ENDBRANCH 65 66
ENDBRANCH 50 65
ENDBRANCH 48 50
ENDBRANCH 41 43
ENDBRANCH 1 39
TORSDOF 28
ENDMDL
MODEL 9
USER: ADFR SOLUTION from run 187
USER: SCORE 24.592906 LL:  -6.099 LR: -19.389 RR:   0.000 FEB: -11.036
USER: RMSD 6.063805
USER: SEED 186
USER: STATUS no improvement in best in 5 clusters for 5 generations
USER: GENES 30
USER: genes 0 Translation |==|  0.39779 0.56700 0.55548
USER: genes 1 Rotation |==|  0.79703 0.46935 0.10045 0.53461
USER: genes 2 Torsion [N]-CA--C-[N] |==|  0.44113
USER: genes 3 Torsion [C]-N--CA-[C] |==|  0.84413
USER: genes 4 Torsion [N]-CA--CB-[CG2] |==|  0.76481
USER: genes 5 Torsion [N]-CA--C-[N] |==|  0.33428
USER: genes 6 Torsion [C]-N--CA-[C] |==|  0.70873
USER: genes 7 Torsion [N]-CA--C-[N] |==|  0.91683
USER: genes 8 Torsion [C]-N--CA-[CB] |==|  0.31020
USER: genes 9 Torsion [N]-CA--CB-[CG1] |==|  0.20327
USER: genes 10 Torsion [CA]-CB--CG1-[CD1] |==|  0.45143
USER: genes 11 Torsion [N]-CA--C-[OXT] |==|  0.19875
USER: genes 12 Torsion [N]-CA--CB-[CG] |==|  0.47696
USER: genes 13 Torsion [CA]-CB--CG-[CD] |==|  0.38865
USER: genes 14 Torsion [CB]-CG--CD-[CE] |==|  0.49003
USER: genes 15 Torsion [CG]-CD--CE-[NZ] |==|  0.36393
USER: genes 16 Torsion [CD]-CE--NZ-[HZ1] |==|  0.74681
USER: genes 17 Torsion [C]-CA--CB-[CG] |==|  0.73137
USER: genes 18 Torsion [CA]-CB--CG-[CD2] |==|  0.64141
USER: genes 19 Torsion [C]-CA--N-[C] |==|  0.64441
USER: genes 20 Torsion [N]-C--CA-[CB] |==|  0.81628
USER: genes 21 Torsion [N]-C--CA-[N] |==|  0.31696
USER: genes 22 Torsion [C]-CA--N-[C] |==|  0.83623
USER: genes 23 Torsion [N]-C--CA-[N] |==|  0.39125
USER: genes 24 Torsion [C]-CA--CB-[CG] |==|  0.10115
USER: genes 25 Torsion [CA]-CB--CG-[CD] |==|  0.68765
USER: genes 26 Torsion [CB]-CG--CD-[OE1] |==|  0.68200
USER: genes 27 Torsion [C]-CA--N-[H1] |==|  0.07271
USER: genes 28 Torsion [C]-CA--CB-[CG] |==|  0.57189
USER: genes 29 Torsion [CA]-CB--CG-[CD2] |==|  0.25468
ROOT
ATOM      1  CA  LEU B   4      53.493  87.833  32.061  1.00 30.07 LIG 0.18  C 
ENDROOT
BRANCH 1 2
ATOM      2  C   LEU B   4      53.595  88.083  33.544  1.00 30.58 LIG 0.24  C 
ATOM      3 O    LEU B   4      54.389  87.436  34.230  1.00 35.83 LIG-0.27  OA
ATOM      4  N   VAL B   5      52.740  88.962  34.059  1.00 32.24 LIG-0.35  N 
ATOM      5 H    VAL B   5      52.168  89.401  33.590  1.00 32.24 LIG 0.16  HD
BRANCH 4 6
ATOM      6  CA  VAL B   5      52.696  89.266  35.493  1.00 32.53 LIG 0.18  C 
BRANCH 6 7
ATOM      7  CB  VAL B   5      51.573  90.263  35.830  1.00 34.70 LIG 0.01  C 
ATOM      8  CG2 VAL B   5      52.075  91.666  35.609  1.00 38.22 LIG 0.01  C 
ATOM      9  CG1 VAL B   5      51.079  90.102  37.263  1.00 39.77 LIG 0.01  C 
ENDBRANCH 6 7
BRANCH 6 10
ATOM     10  C   VAL B   5      52.480  88.011  36.293  1.00 39.16 LIG 0.24  C 
ATOM     11 O    VAL B   5      51.488  87.294  36.106  1.00 33.69 LIG-0.27  OA
ATOM     12  N   LYS B   6      53.437  87.730  37.161  1.00 40.12 LIG-0.35  N 
ATOM     13 H    LYS B   6      54.151  88.201  37.259  1.00 40.12 LIG 0.16  HD
BRANCH 12 14
ATOM     14  CA  LYS B   6      53.355  86.593  38.027  1.00 45.41 LIG 0.18  C 
BRANCH 14 15
ATOM     15  C   LYS B   6      53.011  87.212  39.365  1.00 44.99 LIG 0.24  C 
ATOM     16 O    LYS B   6      52.411  86.566  40.199  1.00 45.85 LIG-0.27  OA
ATOM     17  N   ILE B   7      53.430  88.429  39.637  1.00 47.54 LIG-0.34  N 
ATOM     18 H    ILE B   7      53.861  88.952  39.107  1.00 47.54 LIG 0.16  HD
BRANCH 17 19
ATOM     19  CA  ILE B   7      53.133  88.949  40.984  1.00 57.67 LIG 0.19  C 
BRANCH 19 20
ATOM     20  CB  ILE B   7      54.388  89.143  41.922  1.00 59.41 LIG 0.01  C 
ATOM     21  CG2 ILE B   7      55.252  87.889  41.989  1.00 60.58 LIG 0.01  C 
BRANCH 20 22
ATOM     22  CG1 ILE B   7      55.236  90.372  41.483  1.00 65.20 LIG 0.00  C 
ATOM     23  CD1 ILE B   7      56.229  90.938  42.502  1.00 51.92 LIG 0.01  C 
ENDBRANCH 20 22
ENDBRANCH 19 20
BRANCH 19 24
ATOM     24  C   ILE B   7      52.167  90.143  40.957  1.00 61.74 LIG 0.20  C 
ATOM     25 O    ILE B   7      52.504  91.297  41.174  1.00 61.53 LIG-0.65  OA
ATOM     26 OXT  ILE B   7      50.980  89.970  40.681  1.00 68.92 LIG-0.65  OA
ENDBRANCH 19 24
ENDBRANCH 17 19
ENDBRANCH 14 15
BRANCH 14 27
ATOM     27  CB  LYS B   6      54.724  85.893  38.018  1.00 46.87 LIG 0.04  C 
BRANCH 27 28
ATOM     28  CG  LYS B   6      54.880  84.778  39.035  1.00 55.56 LIG 0.00  C 
BRANCH 28 29
ATOM     29  CD  LYS B   6      55.637  83.583  38.472  1.00 60.95 LIG 0.03  C 
BRANCH 29 30
ATOM     30  CE  LYS B   6      55.860  82.505  39.539  1.00 62.93 LIG 0.23  C 
BRANCH 30 31
ATOM     31  NZ  LYS B   6      55.470  81.145  39.056  1.00 65.77 LIG-0.08  N 
ATOM     32 HZ1  LYS B   6      54.618  80.990  39.261  1.00 65.77 LIG 0.27  HD
ATOM     33 HZ2  LYS B   6      55.574  81.102  38.172  1.00 65.77 LIG 0.27  HD
ATOM     34 HZ3  LYS B   6      55.985  80.532  39.445  1.00 65.77 LIG 0.27  HD
ENDBRANCH 30 31
ENDBRANCH 29 30
ENDBRANCH 28 29
ENDBRANCH 27 28
ENDBRANCH 14 27
ENDBRANCH 12 14
ENDBRANCH 6 10
ENDBRANCH 4 6
ENDBRANCH 1 2
BRANCH 1 35
ATOM     35  CB  LEU B   4      52.339  86.875  31.851  1.00 28.63 LIG 0.04  C 
BRANCH 35 36
ATOM     36  CG  LEU B   4      52.827  85.436  31.733  1.00 30.56 LIG-0.02  C 
ATOM     37  CD2 LEU B   4      52.229  84.819  30.487  1.00 33.80 LIG 0.01  C 
ATOM     38  CD1 LEU B   4      52.376  84.666  32.985  1.00 28.87 LIG 0.01  C 
ENDBRANCH 35 36
ENDBRANCH 1 35
BRANCH 1 39
ATOM     39  N   LEU B   4      54.680  87.266  31.381  1.00 28.62 LIG-0.35  N 
ATOM     40 H    LEU B   4      54.997  86.554  31.744  1.00 28.62 LIG 0.16  HD
ATOM     41  C   PRO B   3      55.181  87.839  30.305  1.00 33.12 LIG 0.24  C 
ATOM     42 O    PRO B   3      54.591  88.722  29.658  1.00 32.36 LIG-0.27  OA
BRANCH 41 43
ATOM     43  CA  PRO B   3      56.541  87.312  29.853  1.00 33.48 LIG 0.18  C 
ATOM     44  CB  PRO B   3      57.636  87.647  30.901  1.00 32.62 LIG 0.04  C 
ATOM     45  CG  PRO B   3      58.832  88.087  30.099  1.00 32.85 LIG 0.02  C 
ATOM     46  CD  PRO B   3      58.264  88.722  28.832  1.00 29.95 LIG 0.13  C 
ATOM     47  N   PRO B   3      56.924  88.082  28.684  1.00 33.01 LIG-0.34  N 
ATOM     48  C   LEU B   2      56.092  88.069  27.620  1.00 31.97 LIG 0.24  C 
ATOM     49 O    LEU B   2      55.099  87.339  27.526  1.00 33.64 LIG-0.27  OA
BRANCH 48 50
ATOM     50  CA  LEU B   2      56.453  88.968  26.460  1.00 32.67 LIG 0.18  C 
BRANCH 50 51
ATOM     51  N   LEU B   2      56.765  88.073  25.352  1.00 33.85 LIG-0.35  N 
ATOM     52 H    LEU B   2      56.268  88.194  24.661  1.00 33.85 LIG 0.16  HD
ATOM     53  C   GLU B   1      57.725  87.155  25.400  1.00 36.42 LIG 0.25  C 
ATOM     54 O    GLU B   1      58.605  87.165  26.276  1.00 32.31 LIG-0.27  OA
BRANCH 53 55
ATOM     55  CA  GLU B   1      57.755  86.137  24.238  1.00 35.71 LIG 0.28  C 
BRANCH 55 56
ATOM     56  CB  GLU B   1      57.053  84.852  24.693  1.00 39.23 LIG 0.05  C 
BRANCH 56 57
ATOM     57  CG  GLU B   1      55.854  85.122  25.601  1.00 48.64 LIG 0.12  C 
BRANCH 57 58
ATOM     58  CD  GLU B   1      56.014  84.664  27.057  1.00 56.94 LIG 0.17  C 
ATOM     59 OE1  GLU B   1      55.264  83.751  27.442  1.00 65.53 LIG-0.65  OA
ATOM     60 OE2  GLU B   1      56.855  85.200  27.833  1.00 53.19 LIG-0.65  OA
ENDBRANCH 57 58
ENDBRANCH 56 57
ENDBRANCH 55 56
BRANCH 55 61
ATOM     61  N   GLU B   1      59.161  85.821  23.808  1.00 36.67 LIG-0.07  N 
ATOM     62 H1   GLU B   1      59.717  85.951  24.491  1.00 36.67 LIG 0.28  HD
ATOM     63 H3   GLU B   1      59.392  86.352  23.133  1.00 36.67 LIG 0.28  HD
ATOM     64 H2   GLU B   1      59.207  84.971  23.546  1.00 36.67 LIG 0.28  HD
ENDBRANCH 55 61
ENDBRANCH 53 55
ENDBRANCH 50 51
BRANCH 50 65
ATOM     65  CB  LEU B   2      55.264  89.914  26.146  1.00 34.84 LIG 0.04  C 
BRANCH 65 66
ATOM     66  CG  LEU B   2      55.165  90.442  24.705  1.00 34.30 LIG-0.02  C 
ATOM     67  CD2 LEU B   2      54.292  89.534  23.821  1.00 39.39 LIG 0.01  C 
ATOM     68  CD1 LEU B   2      56.535  90.661  24.060  1.00 34.61 LIG 0.01  C 
ENDBRANCH 65 66
ENDBRANCH 50 65
ENDBRANCH 48 50
ENDBRANCH 41 43
ENDBRANCH 1 39
TORSDOF 28
ENDMDL
MODEL 10
USER: ADFR SOLUTION from run 143
USER: SCORE 25.871938 LL:  -8.065 LR: -19.272 RR:   0.000 FEB: -10.920
USER: RMSD 2.986981
USER: SEED 142
USER: STATUS no improvement in best in 3 clusters for 5 generations
USER: GENES 30
USER: genes 0 Translation |==|  0.50733 0.52327 0.42185
USER: genes 1 Rotation |==|  0.52870 0.61932 0.44347 0.98140
USER: genes 2 Torsion [N]-CA--C-[N] |==|  0.40564
USER: genes 3 Torsion [C]-N--CA-[C] |==|  0.78903
USER: genes 4 Torsion [N]-CA--CB-[CG2] |==|  0.69896
USER: genes 5 Torsion [N]-CA--C-[N] |==|  0.42621
USER: genes 6 Torsion [C]-N--CA-[C] |==|  0.73037
USER: genes 7 Torsion [N]-CA--C-[N] |==|  0.39107
USER: genes 8 Torsion [C]-N--CA-[CB] |==|  0.34893
USER: genes 9 Torsion [N]-CA--CB-[CG1] |==|  0.67852
USER: genes 10 Torsion [CA]-CB--CG1-[CD1] |==|  0.60192
USER: genes 11 Torsion [N]-CA--C-[OXT] |==|  0.85966
USER: genes 12 Torsion [N]-CA--CB-[CG] |==|  0.48755
USER: genes 13 Torsion [CA]-CB--CG-[CD] |==|  0.72100
USER: genes 14 Torsion [CB]-CG--CD-[CE] |==|  0.37311
USER: genes 15 Torsion [CG]-CD--CE-[NZ] |==|  0.98643
USER: genes 16 Torsion [CD]-CE--NZ-[HZ1] |==|  0.07234
USER: genes 17 Torsion [C]-CA--CB-[CG] |==|  0.03028
USER: genes 18 Torsion [CA]-CB--CG-[CD2] |==|  0.69720
USER: genes 19 Torsion [C]-CA--N-[C] |==|  0.21777
USER: genes 20 Torsion [N]-C--CA-[CB] |==|  0.24074
USER: genes 21 Torsion [N]-C--CA-[N] |==|  0.25405
USER: genes 22 Torsion [C]-CA--N-[C] |==|  0.71112
USER: genes 23 Torsion [N]-C--CA-[N] |==|  0.94155
USER: genes 24 Torsion [C]-CA--CB-[CG] |==|  0.84604
USER: genes 25 Torsion [CA]-CB--CG-[CD] |==|  0.73804
USER: genes 26 Torsion [CB]-CG--CD-[OE1] |==|  0.59676
USER: genes 27 Torsion [C]-CA--N-[H1] |==|  0.27397
USER: genes 28 Torsion [C]-CA--CB-[CG] |==|  0.55280
USER: genes 29 Torsion [CA]-CB--CG-[CD2] |==|  0.23935
ROOT
ATOM      1  CA  LEU B   4      55.793  86.850  28.653  1.00 30.07 LIG 0.18  C 
ENDROOT
BRANCH 1 2
ATOM      2  C   LEU B   4      54.682  87.100  29.640  1.00 30.58 LIG 0.24  C 
ATOM      3 O    LEU B   4      54.127  88.200  29.686  1.00 35.83 LIG-0.27  OA
ATOM      4  N   VAL B   5      54.406  86.112  30.488  1.00 32.24 LIG-0.35  N 
ATOM      5 H    VAL B   5      54.805  85.351  30.477  1.00 32.24 LIG 0.16  HD
BRANCH 4 6
ATOM      6  CA  VAL B   5      53.383  86.237  31.531  1.00 32.53 LIG 0.18  C 
BRANCH 6 7
ATOM      7  CB  VAL B   5      52.965  84.863  32.086  1.00 34.70 LIG 0.01  C 
ATOM      8  CG2 VAL B   5      51.574  84.538  31.604  1.00 38.22 LIG 0.01  C 
ATOM      9  CG1 VAL B   5      53.014  84.825  33.608  1.00 39.77 LIG 0.01  C 
ENDBRANCH 6 7
BRANCH 6 10
ATOM     10  C   VAL B   5      53.888  87.081  32.669  1.00 39.16 LIG 0.24  C 
ATOM     11 O    VAL B   5      55.099  87.193  32.896  1.00 33.69 LIG-0.27  OA
ATOM     12  N   LYS B   6      52.949  87.705  33.361  1.00 40.12 LIG-0.35  N 
ATOM     13 H    LYS B   6      52.110  87.668  33.174  1.00 40.12 LIG 0.16  HD
BRANCH 12 14
ATOM     14  CA  LYS B   6      53.268  88.511  34.500  1.00 45.41 LIG 0.18  C 
BRANCH 14 15
ATOM     15  C   LYS B   6      53.027  87.567  35.659  1.00 44.99 LIG 0.24  C 
ATOM     16 O    LYS B   6      52.121  86.760  35.609  1.00 45.85 LIG-0.27  OA
ATOM     17  N   ILE B   7      53.850  87.585  36.685  1.00 47.54 LIG-0.34  N 
ATOM     18 H    ILE B   7      54.514  88.120  36.799  1.00 47.54 LIG 0.16  HD
BRANCH 17 19
ATOM     19  CA  ILE B   7      53.611  86.590  37.746  1.00 57.67 LIG 0.19  C 
BRANCH 19 20
ATOM     20  CB  ILE B   7      54.851  85.682  38.108  1.00 59.41 LIG 0.01  C 
ATOM     21  CG2 ILE B   7      55.268  85.837  39.567  1.00 60.58 LIG 0.01  C 
BRANCH 20 22
ATOM     22  CG1 ILE B   7      54.575  84.188  37.771  1.00 65.20 LIG 0.00  C 
ATOM     23  CD1 ILE B   7      55.146  83.137  38.727  1.00 51.92 LIG 0.01  C 
ENDBRANCH 20 22
ENDBRANCH 19 20
BRANCH 19 24
ATOM     24  C   ILE B   7      52.882  87.185  38.961  1.00 61.74 LIG 0.20  C 
ATOM     25 O    ILE B   7      51.899  86.679  39.480  1.00 61.53 LIG-0.65  OA
ATOM     26 OXT  ILE B   7      53.298  88.219  39.485  1.00 68.92 LIG-0.65  OA
ENDBRANCH 19 24
ENDBRANCH 17 19
ENDBRANCH 14 15
BRANCH 14 27
ATOM     27  CB  LYS B   6      52.321  89.723  34.501  1.00 46.87 LIG 0.04  C 
BRANCH 27 28
ATOM     28  CG  LYS B   6      52.448  90.634  35.706  1.00 55.56 LIG 0.00  C 
BRANCH 28 29
ATOM     29  CD  LYS B   6      51.357  90.385  36.738  1.00 60.95 LIG 0.03  C 
BRANCH 29 30
ATOM     30  CE  LYS B   6      51.931  90.315  38.159  1.00 62.93 LIG 0.23  C 
BRANCH 30 31
ATOM     31  NZ  LYS B   6      53.425  90.392  38.167  1.00 65.77 LIG-0.08  N 
ATOM     32 HZ1  LYS B   6      53.704  90.827  37.442  1.00 65.77 LIG 0.27  HD
ATOM     33 HZ2  LYS B   6      53.696  90.826  38.896  1.00 65.77 LIG 0.27  HD
ATOM     34 HZ3  LYS B   6      53.764  89.569  38.169  1.00 65.77 LIG 0.27  HD
ENDBRANCH 30 31
ENDBRANCH 29 30
ENDBRANCH 28 29
ENDBRANCH 27 28
ENDBRANCH 14 27
ENDBRANCH 12 14
ENDBRANCH 6 10
ENDBRANCH 4 6
ENDBRANCH 1 2
BRANCH 1 35
ATOM     35  CB  LEU B   4      57.068  87.380  29.276  1.00 28.63 LIG 0.04  C 
BRANCH 35 36
ATOM     36  CG  LEU B   4      56.865  87.726  30.746  1.00 30.56 LIG-0.02  C 
ATOM     37  CD2 LEU B   4      56.891  89.231  30.900  1.00 33.80 LIG 0.01  C 
ATOM     38  CD1 LEU B   4      58.002  87.082  31.558  1.00 28.87 LIG 0.01  C 
ENDBRANCH 35 36
ENDBRANCH 1 35
BRANCH 1 39
ATOM     39  N   LEU B   4      55.661  87.458  27.309  1.00 28.62 LIG-0.35  N 
ATOM     40 H    LEU B   4      55.405  86.916  26.692  1.00 28.62 LIG 0.16  HD
ATOM     41  C   PRO B   3      55.926  88.734  27.115  1.00 33.12 LIG 0.24  C 
ATOM     42 O    PRO B   3      56.069  89.555  28.039  1.00 32.36 LIG-0.27  OA
BRANCH 41 43
ATOM     43  CA  PRO B   3      56.000  89.175  25.656  1.00 33.48 LIG 0.18  C 
ATOM     44  CB  PRO B   3      54.592  89.551  25.123  1.00 32.62 LIG 0.04  C 
ATOM     45  CG  PRO B   3      54.521  88.964  23.738  1.00 32.85 LIG 0.02  C 
ATOM     46  CD  PRO B   3      55.409  87.722  23.774  1.00 29.95 LIG 0.13  C 
ATOM     47  N   PRO B   3      56.369  88.005  24.880  1.00 33.01 LIG-0.34  N 
ATOM     48  C   LEU B   2      57.527  87.382  25.192  1.00 31.97 LIG 0.24  C 
ATOM     49 O    LEU B   2      58.354  87.820  25.999  1.00 33.64 LIG-0.27  OA
BRANCH 48 50
ATOM     50  CA  LEU B   2      57.835  86.101  24.450  1.00 32.67 LIG 0.18  C 
BRANCH 50 51
ATOM     51  N   LEU B   2      58.609  86.502  23.281  1.00 33.85 LIG-0.35  N 
ATOM     52 H    LEU B   2      59.426  86.701  23.462  1.00 33.85 LIG 0.16  HD
ATOM     53  C   GLU B   1      58.107  86.556  22.052  1.00 36.42 LIG 0.25  C 
ATOM     54 O    GLU B   1      57.029  86.015  21.755  1.00 32.31 LIG-0.27  OA
BRANCH 53 55
ATOM     55  CA  GLU B   1      58.992  87.232  20.981  1.00 35.71 LIG 0.28  C 
BRANCH 55 56
ATOM     56  CB  GLU B   1      59.691  86.140  20.163  1.00 39.23 LIG 0.05  C 
BRANCH 56 57
ATOM     57  CG  GLU B   1      60.491  85.170  21.032  1.00 48.64 LIG 0.12  C 
BRANCH 57 58
ATOM     58  CD  GLU B   1      61.980  85.507  21.197  1.00 56.94 LIG 0.17  C 
ATOM     59 OE1  GLU B   1      62.766  84.547  21.271  1.00 65.53 LIG-0.65  OA
ATOM     60 OE2  GLU B   1      62.385  86.701  21.271  1.00 53.19 LIG-0.65  OA
ENDBRANCH 57 58
ENDBRANCH 56 57
ENDBRANCH 55 56
BRANCH 55 61
ATOM     61  N   GLU B   1      60.019  88.140  21.597  1.00 36.67 LIG-0.07  N 
ATOM     62 H1   GLU B   1      60.800  87.716  21.646  1.00 36.67 LIG 0.28  HD
ATOM     63 H3   GLU B   1      59.757  88.374  22.415  1.00 36.67 LIG 0.28  HD
ATOM     64 H2   GLU B   1      60.110  88.870  21.095  1.00 36.67 LIG 0.28  HD
ENDBRANCH 55 61
ENDBRANCH 53 55
ENDBRANCH 50 51
BRANCH 50 65
ATOM     65  CB  LEU B   2      58.614  85.136  25.381  1.00 34.84 LIG 0.04  C 
BRANCH 65 66
ATOM     66  CG  LEU B   2      59.396  84.001  24.698  1.00 34.30 LIG-0.02  C 
ATOM     67  CD2 LEU B   2      60.803  84.451  24.271  1.00 39.39 LIG 0.01  C 
ATOM     68  CD1 LEU B   2      58.644  83.396  23.510  1.00 34.61 LIG 0.01  C 
ENDBRANCH 65 66
ENDBRANCH 50 65
ENDBRANCH 48 50
ENDBRANCH 41 43
ENDBRANCH 1 39
TORSDOF 28
ENDMDL
MODEL 11
USER: ADFR SOLUTION from run 190
USER: SCORE 24.167315 LL:  -6.529 LR: -19.267 RR:   0.000 FEB: -10.915
USER: RMSD 6.892427
USER: SEED 189
USER: STATUS no improvement in best in 6 clusters for 5 generations
USER: GENES 30
USER: genes 0 Translation |==|  0.55858 0.58178 0.47159
USER: genes 1 Rotation |==|  0.26400 0.58030 0.59026 0.92392
USER: genes 2 Torsion [N]-CA--C-[N] |==|  0.16355
USER: genes 3 Torsion [C]-N--CA-[C] |==|  0.21091
USER: genes 4 Torsion [N]-CA--CB-[CG2] |==|  0.63946
USER: genes 5 Torsion [N]-CA--C-[N] |==|  0.39132
USER: genes 6 Torsion [C]-N--CA-[C] |==|  0.82725
USER: genes 7 Torsion [N]-CA--C-[N] |==|  0.87295
USER: genes 8 Torsion [C]-N--CA-[CB] |==|  0.83456
USER: genes 9 Torsion [N]-CA--CB-[CG1] |==|  0.66253
USER: genes 10 Torsion [CA]-CB--CG1-[CD1] |==|  0.00848
USER: genes 11 Torsion [N]-CA--C-[OXT] |==|  0.35822
USER: genes 12 Torsion [N]-CA--CB-[CG] |==|  0.48389
USER: genes 13 Torsion [CA]-CB--CG-[CD] |==|  0.28143
USER: genes 14 Torsion [CB]-CG--CD-[CE] |==|  0.82236
USER: genes 15 Torsion [CG]-CD--CE-[NZ] |==|  0.53947
USER: genes 16 Torsion [CD]-CE--NZ-[HZ1] |==|  0.99517
USER: genes 17 Torsion [C]-CA--CB-[CG] |==|  0.28230
USER: genes 18 Torsion [CA]-CB--CG-[CD2] |==|  0.40977
USER: genes 19 Torsion [C]-CA--N-[C] |==|  0.11619
USER: genes 20 Torsion [N]-C--CA-[CB] |==|  0.04149
USER: genes 21 Torsion [N]-C--CA-[N] |==|  0.40560
USER: genes 22 Torsion [C]-CA--N-[C] |==|  0.61245
USER: genes 23 Torsion [N]-C--CA-[N] |==|  0.33693
USER: genes 24 Torsion [C]-CA--CB-[CG] |==|  0.26736
USER: genes 25 Torsion [CA]-CB--CG-[CD] |==|  0.02935
USER: genes 26 Torsion [CB]-CG--CD-[OE1] |==|  0.31442
USER: genes 27 Torsion [C]-CA--N-[H1] |==|  0.09064
USER: genes 28 Torsion [C]-CA--CB-[CG] |==|  0.29461
USER: genes 29 Torsion [CA]-CB--CG-[CD2] |==|  0.54150
ROOT
ATOM      1  CA  LEU B   4      56.869  88.166  29.921  1.00 30.07 LIG 0.18  C 
ENDROOT
BRANCH 1 2
ATOM      2  C   LEU B   4      55.593  88.236  30.719  1.00 30.58 LIG 0.24  C 
ATOM      3 O    LEU B   4      55.070  89.325  30.964  1.00 35.83 LIG-0.27  OA
ATOM      4  N   VAL B   5      55.126  87.084  31.197  1.00 32.24 LIG-0.35  N 
ATOM      5 H    VAL B   5      55.498  86.323  31.050  1.00 32.24 LIG 0.16  HD
BRANCH 4 6
ATOM      6  CA  VAL B   5      53.921  87.012  32.029  1.00 32.53 LIG 0.18  C 
BRANCH 6 7
ATOM      7  CB  VAL B   5      53.914  88.100  33.118  1.00 34.70 LIG 0.01  C 
ATOM      8  CG2 VAL B   5      53.620  87.462  34.451  1.00 38.22 LIG 0.01  C 
ATOM      9  CG1 VAL B   5      52.894  89.194  32.824  1.00 39.77 LIG 0.01  C 
ENDBRANCH 6 7
BRANCH 6 10
ATOM     10  C   VAL B   5      52.686  87.169  31.185  1.00 39.16 LIG 0.24  C 
ATOM     11 O    VAL B   5      52.661  87.950  30.225  1.00 33.69 LIG-0.27  OA
ATOM     12  N   LYS B   6      51.672  86.393  31.528  1.00 40.12 LIG-0.35  N 
ATOM     13 H    LYS B   6      51.703  85.815  32.165  1.00 40.12 LIG 0.16  HD
BRANCH 12 14
ATOM     14  CA  LYS B   6      50.413  86.458  30.849  1.00 45.41 LIG 0.18  C 
BRANCH 14 15
ATOM     15  C   LYS B   6      49.955  87.874  31.122  1.00 44.99 LIG 0.24  C 
ATOM     16 O    LYS B   6      49.451  88.533  30.237  1.00 45.85 LIG-0.27  OA
ATOM     17  N   ILE B   7      50.046  88.355  32.344  1.00 47.54 LIG-0.34  N 
ATOM     18 H    ILE B   7      50.387  87.957  33.026  1.00 47.54 LIG 0.16  HD
BRANCH 17 19
ATOM     19  CA  ILE B   7      49.513  89.712  32.565  1.00 57.67 LIG 0.19  C 
BRANCH 19 20
ATOM     20  CB  ILE B   7      50.184  90.847  31.698  1.00 59.41 LIG 0.01  C 
ATOM     21  CG2 ILE B   7      49.207  91.456  30.697  1.00 60.58 LIG 0.01  C 
BRANCH 20 22
ATOM     22  CG1 ILE B   7      50.808  91.952  32.598  1.00 65.20 LIG 0.00  C 
ATOM     23  CD1 ILE B   7      50.744  91.741  34.113  1.00 51.92 LIG 0.01  C 
ENDBRANCH 20 22
ENDBRANCH 19 20
BRANCH 19 24
ATOM     24  C   ILE B   7      47.977  89.747  32.582  1.00 61.74 LIG 0.20  C 
ATOM     25 O    ILE B   7      47.274  89.237  31.724  1.00 61.53 LIG-0.65  OA
ATOM     26 OXT  ILE B   7      47.383  90.292  33.514  1.00 68.92 LIG-0.65  OA
ENDBRANCH 19 24
ENDBRANCH 17 19
ENDBRANCH 14 15
BRANCH 14 27
ATOM     27  CB  LYS B   6      49.489  85.394  31.466  1.00 46.87 LIG 0.04  C 
BRANCH 27 28
ATOM     28  CG  LYS B   6      48.061  85.414  30.956  1.00 55.56 LIG 0.00  C 
BRANCH 28 29
ATOM     29  CD  LYS B   6      47.799  84.328  29.923  1.00 60.95 LIG 0.03  C 
BRANCH 29 30
ATOM     30  CE  LYS B   6      48.641  84.539  28.658  1.00 62.93 LIG 0.23  C 
BRANCH 30 31
ATOM     31  NZ  LYS B   6      48.162  83.701  27.516  1.00 65.77 LIG-0.08  N 
ATOM     32 HZ1  LYS B   6      47.476  83.200  27.782  1.00 65.77 LIG 0.27  HD
ATOM     33 HZ2  LYS B   6      47.901  84.229  26.848  1.00 65.77 LIG 0.27  HD
ATOM     34 HZ3  LYS B   6      48.823  83.174  27.236  1.00 65.77 LIG 0.27  HD
ENDBRANCH 30 31
ENDBRANCH 29 30
ENDBRANCH 28 29
ENDBRANCH 27 28
ENDBRANCH 14 27
ENDBRANCH 12 14
ENDBRANCH 6 10
ENDBRANCH 4 6
ENDBRANCH 1 2
BRANCH 1 35
ATOM     35  CB  LEU B   4      57.200  89.580  29.489  1.00 28.63 LIG 0.04  C 
BRANCH 35 36
ATOM     36  CG  LEU B   4      58.293  90.185  30.362  1.00 30.56 LIG-0.02  C 
ATOM     37  CD2 LEU B   4      59.122  91.129  29.518  1.00 33.80 LIG 0.01  C 
ATOM     38  CD1 LEU B   4      59.167  89.043  30.907  1.00 28.87 LIG 0.01  C 
ENDBRANCH 35 36
ENDBRANCH 1 35
BRANCH 1 39
ATOM     39  N   LEU B   4      56.871  87.312  28.711  1.00 28.62 LIG-0.35  N 
ATOM     40 H    LEU B   4      57.584  86.843  28.602  1.00 28.62 LIG 0.16  HD
ATOM     41  C   PRO B   3      55.841  87.302  27.889  1.00 33.12 LIG 0.24  C 
ATOM     42 O    PRO B   3      54.735  87.798  28.166  1.00 32.36 LIG-0.27  OA
BRANCH 41 43
ATOM     43  CA  PRO B   3      56.069  86.586  26.560  1.00 33.48 LIG 0.18  C 
ATOM     44  CB  PRO B   3      57.346  85.706  26.621  1.00 32.62 LIG 0.04  C 
ATOM     45  CG  PRO B   3      58.040  85.921  25.302  1.00 32.85 LIG 0.02  C 
ATOM     46  CD  PRO B   3      57.679  87.342  24.877  1.00 29.95 LIG 0.13  C 
ATOM     47  N   PRO B   3      56.391  87.608  25.581  1.00 33.01 LIG-0.34  N 
ATOM     48  C   LEU B   2      55.490  88.595  25.379  1.00 31.97 LIG 0.24  C 
ATOM     49 O    LEU B   2      54.358  88.609  25.872  1.00 33.64 LIG-0.27  OA
BRANCH 48 50
ATOM     50  CA  LEU B   2      55.896  89.709  24.441  1.00 32.67 LIG 0.18  C 
BRANCH 50 51
ATOM     51  N   LEU B   2      54.671  90.117  23.765  1.00 33.85 LIG-0.35  N 
ATOM     52 H    LEU B   2      53.985  90.145  24.283  1.00 33.85 LIG 0.16  HD
ATOM     53  C   GLU B   1      54.613  90.419  22.472  1.00 36.42 LIG 0.25  C 
ATOM     54 O    GLU B   1      55.633  90.642  21.799  1.00 32.31 LIG-0.27  OA
BRANCH 53 55
ATOM     55  CA  GLU B   1      53.199  90.591  21.873  1.00 35.71 LIG 0.28  C 
BRANCH 55 56
ATOM     56  CB  GLU B   1      52.991  89.524  20.792  1.00 39.23 LIG 0.05  C 
BRANCH 56 57
ATOM     57  CG  GLU B   1      52.255  88.290  21.312  1.00 48.64 LIG 0.12  C 
BRANCH 57 58
ATOM     58  CD  GLU B   1      51.639  88.431  22.711  1.00 56.94 LIG 0.17  C 
ATOM     59 OE1  GLU B   1      50.398  88.414  22.780  1.00 65.53 LIG-0.65  OA
ATOM     60 OE2  GLU B   1      52.357  88.574  23.740  1.00 53.19 LIG-0.65  OA
ENDBRANCH 57 58
ENDBRANCH 56 57
ENDBRANCH 55 56
BRANCH 55 61
ATOM     61  N   GLU B   1      53.007  91.959  21.278  1.00 36.67 LIG-0.07  N 
ATOM     62 H1   GLU B   1      53.779  92.249  20.945  1.00 36.67 LIG 0.28  HD
ATOM     63 H3   GLU B   1      52.726  92.521  21.909  1.00 36.67 LIG 0.28  HD
ATOM     64 H2   GLU B   1      52.400  91.917  20.628  1.00 36.67 LIG 0.28  HD
ENDBRANCH 55 61
ENDBRANCH 53 55
ENDBRANCH 50 51
BRANCH 50 65
ATOM     65  CB  LEU B   2      56.543  90.861  25.253  1.00 34.84 LIG 0.04  C 
BRANCH 65 66
ATOM     66  CG  LEU B   2      58.070  91.010  25.141  1.00 34.30 LIG-0.02  C 
ATOM     67  CD2 LEU B   2      58.639  91.918  26.245  1.00 39.39 LIG 0.01  C 
ATOM     68  CD1 LEU B   2      58.517  91.498  23.762  1.00 34.61 LIG 0.01  C 
ENDBRANCH 65 66
ENDBRANCH 50 65
ENDBRANCH 48 50
ENDBRANCH 41 43
ENDBRANCH 1 39
TORSDOF 28
ENDMDL
MODEL 12
USER: ADFR SOLUTION from run 189
USER: SCORE 25.691287 LL:  -6.704 LR: -19.208 RR:   0.000 FEB: -10.855
USER: RMSD 12.380952
USER: SEED 188
USER: STATUS searching
USER: GENES 30
USER: genes 0 Translation |==|  0.39225 0.51051 0.53755
USER: genes 1 Rotation |==|  0.75735 0.08588 0.60491 0.53566
USER: genes 2 Torsion [N]-CA--C-[N] |==|  0.33992
USER: genes 3 Torsion [C]-N--CA-[C] |==|  0.80191
USER: genes 4 Torsion [N]-CA--CB-[CG2] |==|  0.92422
USER: genes 5 Torsion [N]-CA--C-[N] |==|  0.45235
USER: genes 6 Torsion [C]-N--CA-[C] |==|  0.79363
USER: genes 7 Torsion [N]-CA--C-[N] |==|  0.40729
USER: genes 8 Torsion [C]-N--CA-[CB] |==|  0.26297
USER: genes 9 Torsion [N]-CA--CB-[CG1] |==|  0.91933
USER: genes 10 Torsion [CA]-CB--CG1-[CD1] |==|  0.77786
USER: genes 11 Torsion [N]-CA--C-[OXT] |==|  0.59336
USER: genes 12 Torsion [N]-CA--CB-[CG] |==|  0.42087
USER: genes 13 Torsion [CA]-CB--CG-[CD] |==|  0.67001
USER: genes 14 Torsion [CB]-CG--CD-[CE] |==|  0.48793
USER: genes 15 Torsion [CG]-CD--CE-[NZ] |==|  0.23366
USER: genes 16 Torsion [CD]-CE--NZ-[HZ1] |==|  0.83153
USER: genes 17 Torsion [C]-CA--CB-[CG] |==|  0.40751
USER: genes 18 Torsion [CA]-CB--CG-[CD2] |==|  0.40424
USER: genes 19 Torsion [C]-CA--N-[C] |==|  0.81857
USER: genes 20 Torsion [N]-C--CA-[CB] |==|  0.65189
USER: genes 21 Torsion [N]-C--CA-[N] |==|  0.45309
USER: genes 22 Torsion [C]-CA--N-[C] |==|  0.78919
USER: genes 23 Torsion [N]-C--CA-[N] |==|  0.51001
USER: genes 24 Torsion [C]-CA--CB-[CG] |==|  0.55996
USER: genes 25 Torsion [CA]-CB--CG-[CD] |==|  0.42224
USER: genes 26 Torsion [CB]-CG--CD-[OE1] |==|  0.72905
USER: genes 27 Torsion [C]-CA--N-[H1] |==|  0.29295
USER: genes 28 Torsion [C]-CA--CB-[CG] |==|  0.47541
USER: genes 29 Torsion [CA]-CB--CG-[CD2] |==|  0.76368
ROOT
ATOM      1  CA  LEU B   4      53.376  86.563  31.603  1.00 30.07 LIG 0.18  C 
ENDROOT
BRANCH 1 2
ATOM      2  C   LEU B   4      54.062  87.642  30.807  1.00 30.58 LIG 0.24  C 
ATOM      3 O    LEU B   4      53.404  88.551  30.295  1.00 35.83 LIG-0.27  OA
ATOM      4  N   VAL B   5      55.374  87.508  30.629  1.00 32.24 LIG-0.35  N 
ATOM      5 H    VAL B   5      55.836  86.865  30.964  1.00 32.24 LIG 0.16  HD
BRANCH 4 6
ATOM      6  CA  VAL B   5      56.159  88.459  29.836  1.00 32.53 LIG 0.18  C 
BRANCH 6 7
ATOM      7  CB  VAL B   5      57.672  88.257  30.037  1.00 34.70 LIG 0.01  C 
ATOM      8  CG2 VAL B   5      57.913  87.665  31.402  1.00 38.22 LIG 0.01  C 
ATOM      9  CG1 VAL B   5      58.447  89.560  29.886  1.00 39.77 LIG 0.01  C 
ENDBRANCH 6 7
BRANCH 6 10
ATOM     10  C   VAL B   5      55.846  88.312  28.372  1.00 39.16 LIG 0.24  C 
ATOM     11 O    VAL B   5      55.254  87.314  27.940  1.00 33.69 LIG-0.27  OA
ATOM     12  N   LYS B   6      56.216  89.332  27.616  1.00 40.12 LIG-0.35  N 
ATOM     13 H    LYS B   6      56.584  90.047  27.921  1.00 40.12 LIG 0.16  HD
BRANCH 12 14
ATOM     14  CA  LYS B   6      56.026  89.321  26.197  1.00 45.41 LIG 0.18  C 
BRANCH 14 15
ATOM     15  C   LYS B   6      57.100  88.367  25.720  1.00 44.99 LIG 0.24  C 
ATOM     16 O    LYS B   6      58.138  88.258  26.340  1.00 45.85 LIG-0.27  OA
ATOM     17  N   ILE B   7      56.867  87.611  24.669  1.00 47.54 LIG-0.34  N 
ATOM     18 H    ILE B   7      56.163  87.623  24.176  1.00 47.54 LIG 0.16  HD
BRANCH 17 19
ATOM     19  CA  ILE B   7      57.919  86.646  24.299  1.00 57.67 LIG 0.19  C 
BRANCH 19 20
ATOM     20  CB  ILE B   7      57.730  85.190  24.880  1.00 59.41 LIG 0.01  C 
ATOM     21  CG2 ILE B   7      59.058  84.457  25.033  1.00 60.58 LIG 0.01  C 
BRANCH 20 22
ATOM     22  CG1 ILE B   7      56.958  85.217  26.231  1.00 65.20 LIG 0.00  C 
ATOM     23  CD1 ILE B   7      57.757  85.577  27.487  1.00 51.92 LIG 0.01  C 
ENDBRANCH 20 22
ENDBRANCH 19 20
BRANCH 19 24
ATOM     24  C   ILE B   7      58.266  86.694  22.803  1.00 61.74 LIG 0.20  C 
ATOM     25 O    ILE B   7      58.263  87.717  22.136  1.00 61.53 LIG-0.65  OA
ATOM     26 OXT  ILE B   7      58.595  85.664  22.213  1.00 68.92 LIG-0.65  OA
ENDBRANCH 19 24
ENDBRANCH 17 19
ENDBRANCH 14 15
BRANCH 14 27
ATOM     27  CB  LYS B   6      56.223  90.758  25.685  1.00 46.87 LIG 0.04  C 
BRANCH 27 28
ATOM     28  CG  LYS B   6      56.727  90.866  24.258  1.00 55.56 LIG 0.00  C 
BRANCH 28 29
ATOM     29  CD  LYS B   6      58.074  91.570  24.172  1.00 60.95 LIG 0.03  C 
BRANCH 29 30
ATOM     30  CE  LYS B   6      58.616  91.574  22.737  1.00 62.93 LIG 0.23  C 
BRANCH 30 31
ATOM     31  NZ  LYS B   6      58.059  92.701  21.927  1.00 65.77 LIG-0.08  N 
ATOM     32 HZ1  LYS B   6      57.173  92.623  21.880  1.00 65.77 LIG 0.27  HD
ATOM     33 HZ2  LYS B   6      58.268  93.476  22.313  1.00 65.77 LIG 0.27  HD
ATOM     34 HZ3  LYS B   6      58.403  92.675  21.107  1.00 65.77 LIG 0.27  HD
ENDBRANCH 30 31
ENDBRANCH 29 30
ENDBRANCH 28 29
ENDBRANCH 27 28
ENDBRANCH 14 27
ENDBRANCH 12 14
ENDBRANCH 6 10
ENDBRANCH 4 6
ENDBRANCH 1 2
BRANCH 1 35
ATOM     35  CB  LEU B   4      52.394  85.880  30.673  1.00 28.63 LIG 0.04  C 
BRANCH 35 36
ATOM     36  CG  LEU B   4      52.258  84.398  31.000  1.00 30.56 LIG-0.02  C 
ATOM     37  CD2 LEU B   4      50.830  83.972  30.740  1.00 33.80 LIG 0.01  C 
ATOM     38  CD1 LEU B   4      52.621  84.192  32.480  1.00 28.87 LIG 0.01  C 
ENDBRANCH 35 36
ENDBRANCH 1 35
BRANCH 1 39
ATOM     39  N   LEU B   4      52.635  86.976  32.817  1.00 28.62 LIG-0.35  N 
ATOM     40 H    LEU B   4      51.784  86.853  32.779  1.00 28.62 LIG 0.16  HD
ATOM     41  C   PRO B   3      53.266  87.490  33.853  1.00 33.12 LIG 0.24  C 
ATOM     42 O    PRO B   3      54.502  87.454  33.993  1.00 32.36 LIG-0.27  OA
BRANCH 41 43
ATOM     43  CA  PRO B   3      52.373  88.107  34.927  1.00 33.48 LIG 0.18  C 
ATOM     44  CB  PRO B   3      52.788  89.576  35.210  1.00 32.62 LIG 0.04  C 
ATOM     45  CG  PRO B   3      52.724  89.725  36.707  1.00 32.85 LIG 0.02  C 
ATOM     46  CD  PRO B   3      53.046  88.343  37.270  1.00 29.95 LIG 0.13  C 
ATOM     47  N   PRO B   3      52.665  87.413  36.167  1.00 33.01 LIG-0.34  N 
ATOM     48  C   LEU B   2      52.495  86.073  36.195  1.00 31.97 LIG 0.24  C 
ATOM     49 O    LEU B   2      51.978  85.422  35.281  1.00 33.64 LIG-0.27  OA
BRANCH 48 50
ATOM     50  CA  LEU B   2      52.914  85.357  37.459  1.00 32.67 LIG 0.18  C 
BRANCH 50 51
ATOM     51  N   LEU B   2      52.269  84.051  37.403  1.00 33.85 LIG-0.35  N 
ATOM     52 H    LEU B   2      52.805  83.412  37.194  1.00 33.85 LIG 0.16  HD
ATOM     53  C   GLU B   1      50.976  83.860  37.648  1.00 36.42 LIG 0.25  C 
ATOM     54 O    GLU B   1      50.276  84.721  38.206  1.00 32.31 LIG-0.27  OA
BRANCH 53 55
ATOM     55  CA  GLU B   1      50.415  82.462  37.305  1.00 35.71 LIG 0.28  C 
BRANCH 55 56
ATOM     56  CB  GLU B   1      50.723  82.157  35.834  1.00 39.23 LIG 0.05  C 
BRANCH 56 57
ATOM     57  CG  GLU B   1      49.800  81.092  35.243  1.00 48.64 LIG 0.12  C 
BRANCH 57 58
ATOM     58  CD  GLU B   1      49.563  81.191  33.731  1.00 56.94 LIG 0.17  C 
ATOM     59 OE1  GLU B   1      48.522  81.763  33.364  1.00 65.53 LIG-0.65  OA
ATOM     60 OE2  GLU B   1      50.376  80.701  32.897  1.00 53.19 LIG-0.65  OA
ENDBRANCH 57 58
ENDBRANCH 56 57
ENDBRANCH 55 56
BRANCH 55 61
ATOM     61  N   GLU B   1      48.932  82.382  37.538  1.00 36.67 LIG-0.07  N 
ATOM     62 H1   GLU B   1      48.507  82.394  36.756  1.00 36.67 LIG 0.28  HD
ATOM     63 H3   GLU B   1      48.670  83.079  38.027  1.00 36.67 LIG 0.28  HD
ATOM     64 H2   GLU B   1      48.739  81.628  37.970  1.00 36.67 LIG 0.28  HD
ENDBRANCH 55 61
ENDBRANCH 53 55
ENDBRANCH 50 51
BRANCH 50 65
ATOM     65  CB  LEU B   2      54.461  85.258  37.511  1.00 34.84 LIG 0.04  C 
BRANCH 65 66
ATOM     66  CG  LEU B   2      55.075  84.748  38.825  1.00 34.30 LIG-0.02  C 
ATOM     67  CD2 LEU B   2      55.262  85.881  39.848  1.00 39.39 LIG 0.01  C 
ATOM     68  CD1 LEU B   2      56.392  83.998  38.610  1.00 34.61 LIG 0.01  C 
ENDBRANCH 65 66
ENDBRANCH 50 65
ENDBRANCH 48 50
ENDBRANCH 41 43
ENDBRANCH 1 39
TORSDOF 28
ENDMDL
MODEL 13
USER: ADFR SOLUTION from run 95
USER: SCORE 24.985973 LL:  -7.008 LR: -19.179 RR:   0.000 FEB: -10.826
USER: RMSD 5.421837
USER: SEED 94
USER: STATUS no improvement in best in 7 clusters for 5 generations
USER: GENES 30
USER: genes 0 Translation |==|  0.56975 0.55291 0.43540
USER: genes 1 Rotation |==|  0.32110 0.52630 0.50757 0.96609
USER: genes 2 Torsion [N]-CA--C-[N] |==|  0.35021
USER: genes 3 Torsion [C]-N--CA-[C] |==|  0.67253
USER: genes 4 Torsion [N]-CA--CB-[CG2] |==|  0.92152
USER: genes 5 Torsion [N]-CA--C-[N] |==|  0.66485
USER: genes 6 Torsion [C]-N--CA-[C] |==|  0.58304
USER: genes 7 Torsion [N]-CA--C-[N] |==|  0.49267
USER: genes 8 Torsion [C]-N--CA-[CB] |==|  0.43811
USER: genes 9 Torsion [N]-CA--CB-[CG1] |==|  0.11016
USER: genes 10 Torsion [CA]-CB--CG1-[CD1] |==|  0.58203
USER: genes 11 Torsion [N]-CA--C-[OXT] |==|  0.89810
USER: genes 12 Torsion [N]-CA--CB-[CG] |==|  0.73300
USER: genes 13 Torsion [CA]-CB--CG-[CD] |==|  0.74442
USER: genes 14 Torsion [CB]-CG--CD-[CE] |==|  0.98636
USER: genes 15 Torsion [CG]-CD--CE-[NZ] |==|  0.36467
USER: genes 16 Torsion [CD]-CE--NZ-[HZ1] |==|  0.53813
USER: genes 17 Torsion [C]-CA--CB-[CG] |==|  0.25465
USER: genes 18 Torsion [CA]-CB--CG-[CD2] |==|  0.08512
USER: genes 19 Torsion [C]-CA--N-[C] |==|  0.83398
USER: genes 20 Torsion [N]-C--CA-[CB] |==|  0.24562
USER: genes 21 Torsion [N]-C--CA-[N] |==|  0.39063
USER: genes 22 Torsion [C]-CA--N-[C] |==|  0.59832
USER: genes 23 Torsion [N]-C--CA-[N] |==|  0.36093
USER: genes 24 Torsion [C]-CA--CB-[CG] |==|  0.35363
USER: genes 25 Torsion [CA]-CB--CG-[CD] |==|  0.02090
USER: genes 26 Torsion [CB]-CG--CD-[OE1] |==|  0.81159
USER: genes 27 Torsion [C]-CA--N-[H1] |==|  0.50329
USER: genes 28 Torsion [C]-CA--CB-[CG] |==|  0.32988
USER: genes 29 Torsion [CA]-CB--CG-[CD2] |==|  0.49115
ROOT
ATOM      1  CA  LEU B   4      57.104  87.517  28.999  1.00 30.07 LIG 0.18  C 
ENDROOT
BRANCH 1 2
ATOM      2  C   LEU B   4      55.670  87.771  29.386  1.00 30.58 LIG 0.24  C 
ATOM      3 O    LEU B   4      54.968  88.529  28.712  1.00 35.83 LIG-0.27  OA
ATOM      4  N   VAL B   5      55.249  87.205  30.514  1.00 32.24 LIG-0.35  N 
ATOM      5 H    VAL B   5      55.739  86.693  31.001  1.00 32.24 LIG 0.16  HD
BRANCH 4 6
ATOM      6  CA  VAL B   5      53.893  87.407  31.034  1.00 32.53 LIG 0.18  C 
BRANCH 6 7
ATOM      7  CB  VAL B   5      53.134  86.075  31.178  1.00 34.70 LIG 0.01  C 
ATOM      8  CG2 VAL B   5      53.661  85.095  30.161  1.00 38.22 LIG 0.01  C 
ATOM      9  CG1 VAL B   5      51.631  86.253  31.003  1.00 39.77 LIG 0.01  C 
ENDBRANCH 6 7
BRANCH 6 10
ATOM     10  C   VAL B   5      53.937  88.080  32.379  1.00 39.16 LIG 0.24  C 
ATOM     11 O    VAL B   5      54.430  89.207  32.515  1.00 33.69 LIG-0.27  OA
ATOM     12  N   LYS B   6      53.382  87.396  33.365  1.00 40.12 LIG-0.35  N 
ATOM     13 H    LYS B   6      52.996  86.634  33.263  1.00 40.12 LIG 0.16  HD
BRANCH 12 14
ATOM     14  CA  LYS B   6      53.384  87.884  34.711  1.00 45.41 LIG 0.18  C 
BRANCH 14 15
ATOM     15  C   LYS B   6      53.393  86.612  35.531  1.00 44.99 LIG 0.24  C 
ATOM     16 O    LYS B   6      53.413  85.531  34.979  1.00 45.85 LIG-0.27  OA
ATOM     17  N   ILE B   7      53.450  86.694  36.843  1.00 47.54 LIG-0.34  N 
ATOM     18 H    ILE B   7      53.442  87.415  37.312  1.00 47.54 LIG 0.16  HD
BRANCH 17 19
ATOM     19  CA  ILE B   7      53.535  85.422  37.585  1.00 57.67 LIG 0.19  C 
BRANCH 19 20
ATOM     20  CB  ILE B   7      54.140  85.532  39.039  1.00 59.41 LIG 0.01  C 
ATOM     21  CG2 ILE B   7      55.664  85.480  39.031  1.00 60.58 LIG 0.01  C 
BRANCH 20 22
ATOM     22  CG1 ILE B   7      53.638  86.814  39.765  1.00 65.20 LIG 0.00  C 
ATOM     23  CD1 ILE B   7      54.570  87.442  40.804  1.00 51.92 LIG 0.01  C 
ENDBRANCH 20 22
ENDBRANCH 19 20
BRANCH 19 24
ATOM     24  C   ILE B   7      52.243  84.596  37.493  1.00 61.74 LIG 0.20  C 
ATOM     25 O    ILE B   7      52.216  83.376  37.445  1.00 61.53 LIG-0.65  OA
ATOM     26 OXT  ILE B   7      51.149  85.161  37.491  1.00 68.92 LIG-0.65  OA
ENDBRANCH 19 24
ENDBRANCH 17 19
ENDBRANCH 14 15
BRANCH 14 27
ATOM     27  CB  LYS B   6      52.110  88.723  34.910  1.00 46.87 LIG 0.04  C 
BRANCH 27 28
ATOM     28  CG  LYS B   6      52.292  90.217  34.725  1.00 55.56 LIG 0.00  C 
BRANCH 28 29
ATOM     29  CD  LYS B   6      52.615  90.927  36.032  1.00 60.95 LIG 0.03  C 
BRANCH 29 30
ATOM     30  CE  LYS B   6      52.555  89.965  37.225  1.00 62.93 LIG 0.23  C 
BRANCH 30 31
ATOM     31  NZ  LYS B   6      53.764  90.074  38.098  1.00 65.77 LIG-0.08  N 
ATOM     32 HZ1  LYS B   6      53.792  89.379  38.654  1.00 65.77 LIG 0.27  HD
ATOM     33 HZ2  LYS B   6      54.497  90.078  37.592  1.00 65.77 LIG 0.27  HD
ATOM     34 HZ3  LYS B   6      53.724  90.828  38.568  1.00 65.77 LIG 0.27  HD
ENDBRANCH 30 31
ENDBRANCH 29 30
ENDBRANCH 28 29
ENDBRANCH 27 28
ENDBRANCH 14 27
ENDBRANCH 12 14
ENDBRANCH 6 10
ENDBRANCH 4 6
ENDBRANCH 1 2
BRANCH 1 35
ATOM     35  CB  LEU B   4      57.835  88.839  29.110  1.00 28.63 LIG 0.04  C 
BRANCH 35 36
ATOM     36  CG  LEU B   4      58.452  89.017  30.491  1.00 30.56 LIG-0.02  C 
ATOM     37  CD2 LEU B   4      58.820  87.656  31.040  1.00 33.80 LIG 0.01  C 
ATOM     38  CD1 LEU B   4      57.418  89.703  31.400  1.00 28.87 LIG 0.01  C 
ENDBRANCH 35 36
ENDBRANCH 1 35
BRANCH 1 39
ATOM     39  N   LEU B   4      57.359  86.973  27.645  1.00 28.62 LIG-0.35  N 
ATOM     40 H    LEU B   4      57.853  87.468  27.145  1.00 28.62 LIG 0.16  HD
ATOM     41  C   PRO B   3      56.849  85.816  27.274  1.00 33.12 LIG 0.24  C 
ATOM     42 O    PRO B   3      56.336  85.005  28.065  1.00 32.36 LIG-0.27  OA
BRANCH 41 43
ATOM     43  CA  PRO B   3      56.970  85.491  25.787  1.00 33.48 LIG 0.18  C 
ATOM     44  CB  PRO B   3      58.311  84.768  25.489  1.00 32.62 LIG 0.04  C 
ATOM     45  CG  PRO B   3      58.821  85.386  24.214  1.00 32.85 LIG 0.02  C 
ATOM     46  CD  PRO B   3      58.300  86.821  24.218  1.00 29.95 LIG 0.13  C 
ATOM     47  N   PRO B   3      57.090  86.757  25.088  1.00 33.01 LIG-0.34  N 
ATOM     48  C   LEU B   2      56.096  87.660  25.243  1.00 31.97 LIG 0.24  C 
ATOM     49 O    LEU B   2      55.033  87.425  25.828  1.00 33.64 LIG-0.27  OA
BRANCH 48 50
ATOM     50  CA  LEU B   2      56.296  89.013  24.600  1.00 32.67 LIG 0.18  C 
BRANCH 50 51
ATOM     51  N   LEU B   2      54.993  89.387  24.061  1.00 33.85 LIG-0.35  N 
ATOM     52 H    LEU B   2      54.333  89.127  24.547  1.00 33.85 LIG 0.16  HD
ATOM     53  C   GLU B   1      54.835  90.064  22.929  1.00 36.42 LIG 0.25  C 
ATOM     54 O    GLU B   1      55.774  90.666  22.383  1.00 32.31 LIG-0.27  OA
BRANCH 53 55
ATOM     55  CA  GLU B   1      53.392  90.160  22.385  1.00 35.71 LIG 0.28  C 
BRANCH 55 56
ATOM     56  CB  GLU B   1      53.282  89.287  21.130  1.00 39.23 LIG 0.05  C 
BRANCH 56 57
ATOM     57  CG  GLU B   1      52.122  88.295  21.198  1.00 48.64 LIG 0.12  C 
BRANCH 57 58
ATOM     58  CD  GLU B   1      51.180  88.463  22.398  1.00 56.94 LIG 0.17  C 
ATOM     59 OE1  GLU B   1      51.649  88.204  23.519  1.00 65.53 LIG-0.65  OA
ATOM     60 OE2  GLU B   1      49.980  88.831  22.252  1.00 53.19 LIG-0.65  OA
ENDBRANCH 57 58
ENDBRANCH 56 57
ENDBRANCH 55 56
BRANCH 55 61
ATOM     61  N   GLU B   1      53.013  91.576  22.052  1.00 36.67 LIG-0.07  N 
ATOM     62 H1   GLU B   1      52.173  91.598  21.759  1.00 36.67 LIG 0.28  HD
ATOM     63 H3   GLU B   1      53.555  91.888  21.419  1.00 36.67 LIG 0.28  HD
ATOM     64 H2   GLU B   1      53.086  92.082  22.781  1.00 36.67 LIG 0.28  HD
ENDBRANCH 55 61
ENDBRANCH 53 55
ENDBRANCH 50 51
BRANCH 50 65
ATOM     65  CB  LEU B   2      56.815  90.019  25.659  1.00 34.84 LIG 0.04  C 
BRANCH 65 66
ATOM     66  CG  LEU B   2      58.196  90.645  25.397  1.00 34.30 LIG-0.02  C 
ATOM     67  CD2 LEU B   2      58.569  91.681  26.470  1.00 39.39 LIG 0.01  C 
ATOM     68  CD1 LEU B   2      58.312  91.256  23.999  1.00 34.61 LIG 0.01  C 
ENDBRANCH 65 66
ENDBRANCH 50 65
ENDBRANCH 48 50
ENDBRANCH 41 43
ENDBRANCH 1 39
TORSDOF 28
ENDMDL
MODEL 14
USER: ADFR SOLUTION from run 30
USER: SCORE 23.961291 LL:  -6.673 LR: -19.137 RR:   0.000 FEB: -10.784
USER: RMSD 4.374977
USER: SEED 29
USER: STATUS searching
USER: GENES 30
USER: genes 0 Translation |==|  0.53307 0.56619 0.46423
USER: genes 1 Rotation |==|  0.48749 0.51364 0.53196 0.99863
USER: genes 2 Torsion [N]-CA--C-[N] |==|  0.38107
USER: genes 3 Torsion [C]-N--CA-[C] |==|  0.76476
USER: genes 4 Torsion [N]-CA--CB-[CG2] |==|  0.67051
USER: genes 5 Torsion [N]-CA--C-[N] |==|  0.36625
USER: genes 6 Torsion [C]-N--CA-[C] |==|  0.48806
USER: genes 7 Torsion [N]-CA--C-[N] |==|  0.89444
USER: genes 8 Torsion [C]-N--CA-[CB] |==|  0.41337
USER: genes 9 Torsion [N]-CA--CB-[CG1] |==|  0.70255
USER: genes 10 Torsion [CA]-CB--CG1-[CD1] |==|  0.10352
USER: genes 11 Torsion [N]-CA--C-[OXT] |==|  0.98345
USER: genes 12 Torsion [N]-CA--CB-[CG] |==|  0.53642
USER: genes 13 Torsion [CA]-CB--CG-[CD] |==|  0.10464
USER: genes 14 Torsion [CB]-CG--CD-[CE] |==|  0.45889
USER: genes 15 Torsion [CG]-CD--CE-[NZ] |==|  0.88996
USER: genes 16 Torsion [CD]-CE--NZ-[HZ1] |==|  0.62369
USER: genes 17 Torsion [C]-CA--CB-[CG] |==|  0.45722
USER: genes 18 Torsion [CA]-CB--CG-[CD2] |==|  0.68215
USER: genes 19 Torsion [C]-CA--N-[C] |==|  0.83760
USER: genes 20 Torsion [N]-C--CA-[CB] |==|  0.70032
USER: genes 21 Torsion [N]-C--CA-[N] |==|  0.23417
USER: genes 22 Torsion [C]-CA--N-[C] |==|  0.67681
USER: genes 23 Torsion [N]-C--CA-[N] |==|  0.96184
USER: genes 24 Torsion [C]-CA--CB-[CG] |==|  0.88361
USER: genes 25 Torsion [CA]-CB--CG-[CD] |==|  0.81525
USER: genes 26 Torsion [CB]-CG--CD-[OE1] |==|  0.90665
USER: genes 27 Torsion [C]-CA--N-[H1] |==|  0.25910
USER: genes 28 Torsion [C]-CA--CB-[CG] |==|  0.40135
USER: genes 29 Torsion [CA]-CB--CG-[CD2] |==|  0.29357
ROOT
ATOM      1  CA  LEU B   4      56.333  87.815  29.734  1.00 30.07 LIG 0.18  C 
ENDROOT
BRANCH 1 2
ATOM      2  C   LEU B   4      54.891  87.673  30.147  1.00 30.58 LIG 0.24  C 
ATOM      3 O    LEU B   4      54.081  88.568  29.896  1.00 35.83 LIG-0.27  OA
ATOM      4  N   VAL B   5      54.579  86.589  30.853  1.00 32.24 LIG-0.35  N 
ATOM      5 H    VAL B   5      55.144  85.972  31.051  1.00 32.24 LIG 0.16  HD
BRANCH 4 6
ATOM      6  CA  VAL B   5      53.225  86.347  31.360  1.00 32.53 LIG 0.18  C 
BRANCH 6 7
ATOM      7  CB  VAL B   5      52.950  84.845  31.558  1.00 34.70 LIG 0.01  C 
ATOM      8  CG2 VAL B   5      51.807  84.431  30.668  1.00 38.22 LIG 0.01  C 
ATOM      9  CG1 VAL B   5      52.632  84.510  33.010  1.00 39.77 LIG 0.01  C 
ENDBRANCH 6 7
BRANCH 6 10
ATOM     10  C   VAL B   5      53.019  87.049  32.674  1.00 39.16 LIG 0.24  C 
ATOM     11 O    VAL B   5      53.865  86.984  33.576  1.00 33.69 LIG-0.27  OA
ATOM     12  N   LYS B   6      51.903  87.754  32.763  1.00 40.12 LIG-0.35  N 
ATOM     13 H    LYS B   6      51.337  87.840  32.121  1.00 40.12 LIG 0.16  HD
BRANCH 12 14
ATOM     14  CA  LYS B   6      51.544  88.443  33.965  1.00 45.41 LIG 0.18  C 
BRANCH 14 15
ATOM     15  C   LYS B   6      50.283  89.179  33.568  1.00 44.99 LIG 0.24  C 
ATOM     16 O    LYS B   6      49.391  89.339  34.376  1.00 45.85 LIG-0.27  OA
ATOM     17  N   ILE B   7      50.195  89.701  32.363  1.00 47.54 LIG-0.34  N 
ATOM     18 H    ILE B   7      50.778  89.637  31.734  1.00 47.54 LIG 0.16  HD
BRANCH 17 19
ATOM     19  CA  ILE B   7      48.976  90.473  32.061  1.00 57.67 LIG 0.19  C 
BRANCH 19 20
ATOM     20  CB  ILE B   7      49.170  91.661  31.039  1.00 59.41 LIG 0.01  C 
ATOM     21  CG2 ILE B   7      48.161  91.603  29.897  1.00 60.58 LIG 0.01  C 
BRANCH 20 22
ATOM     22  CG1 ILE B   7      49.108  93.040  31.757  1.00 65.20 LIG 0.00  C 
ATOM     23  CD1 ILE B   7      49.736  93.134  33.150  1.00 51.92 LIG 0.01  C 
ENDBRANCH 20 22
ENDBRANCH 19 20
BRANCH 19 24
ATOM     24  C   ILE B   7      47.764  89.575  31.771  1.00 61.74 LIG 0.20  C 
ATOM     25 O    ILE B   7      46.635  89.996  31.575  1.00 61.53 LIG-0.65  OA
ATOM     26 OXT  ILE B   7      47.905  88.353  31.699  1.00 68.92 LIG-0.65  OA
ENDBRANCH 19 24
ENDBRANCH 17 19
ENDBRANCH 14 15
BRANCH 14 27
ATOM     27  CB  LYS B   6      52.704  89.384  34.333  1.00 46.87 LIG 0.04  C 
BRANCH 27 28
ATOM     28  CG  LYS B   6      52.639  89.962  35.734  1.00 55.56 LIG 0.00  C 
BRANCH 28 29
ATOM     29  CD  LYS B   6      52.115  88.958  36.751  1.00 60.95 LIG 0.03  C 
BRANCH 29 30
ATOM     30  CE  LYS B   6      52.392  89.414  38.188  1.00 62.93 LIG 0.23  C 
BRANCH 30 31
ATOM     31  NZ  LYS B   6      53.742  90.044  38.328  1.00 65.77 LIG-0.08  N 
ATOM     32 HZ1  LYS B   6      54.140  89.732  39.061  1.00 65.77 LIG 0.27  HD
ATOM     33 HZ2  LYS B   6      54.238  89.847  37.616  1.00 65.77 LIG 0.27  HD
ATOM     34 HZ3  LYS B   6      53.652  90.927  38.392  1.00 65.77 LIG 0.27  HD
ENDBRANCH 30 31
ENDBRANCH 29 30
ENDBRANCH 28 29
ENDBRANCH 27 28
ENDBRANCH 14 27
ENDBRANCH 12 14
ENDBRANCH 6 10
ENDBRANCH 4 6
ENDBRANCH 1 2
BRANCH 1 35
ATOM     35  CB  LEU B   4      56.971  88.812  30.681  1.00 28.63 LIG 0.04  C 
BRANCH 35 36
ATOM     36  CG  LEU B   4      58.491  88.755  30.605  1.00 30.56 LIG-0.02  C 
ATOM     37  CD2 LEU B   4      59.026  88.261  31.932  1.00 33.80 LIG 0.01  C 
ATOM     38  CD1 LEU B   4      59.016  90.169  30.306  1.00 28.87 LIG 0.01  C 
ENDBRANCH 35 36
ENDBRANCH 1 35
BRANCH 1 39
ATOM     39  N   LEU B   4      56.605  88.270  28.351  1.00 28.62 LIG-0.35  N 
ATOM     40 H    LEU B   4      57.070  88.992  28.293  1.00 28.62 LIG 0.16  HD
ATOM     41  C   PRO B   3      56.151  87.594  27.315  1.00 33.12 LIG 0.24  C 
ATOM     42 O    PRO B   3      55.685  86.444  27.395  1.00 32.36 LIG-0.27  OA
BRANCH 41 43
ATOM     43  CA  PRO B   3      56.277  88.296  25.965  1.00 33.48 LIG 0.18  C 
ATOM     44  CB  PRO B   3      54.887  88.763  25.457  1.00 32.62 LIG 0.04  C 
ATOM     45  CG  PRO B   3      54.873  88.440  23.986  1.00 32.85 LIG 0.02  C 
ATOM     46  CD  PRO B   3      55.770  87.215  23.827  1.00 29.95 LIG 0.13  C 
ATOM     47  N   PRO B   3      56.685  87.290  25.003  1.00 33.01 LIG-0.34  N 
ATOM     48  C   LEU B   2      57.836  86.621  25.239  1.00 31.97 LIG 0.24  C 
ATOM     49 O    LEU B   2      58.627  86.904  26.144  1.00 33.64 LIG-0.27  OA
BRANCH 48 50
ATOM     50  CA  LEU B   2      58.181  85.499  24.286  1.00 32.67 LIG 0.18  C 
BRANCH 50 51
ATOM     51  N   LEU B   2      58.846  86.137  23.155  1.00 33.85 LIG-0.35  N 
ATOM     52 H    LEU B   2      59.587  86.518  23.364  1.00 33.85 LIG 0.16  HD
ATOM     53  C   GLU B   1      58.357  86.131  21.920  1.00 36.42 LIG 0.25  C 
ATOM     54 O    GLU B   1      57.446  85.361  21.573  1.00 32.31 LIG-0.27  OA
BRANCH 53 55
ATOM     55  CA  GLU B   1      59.061  87.057  20.902  1.00 35.71 LIG 0.28  C 
BRANCH 55 56
ATOM     56  CB  GLU B   1      59.872  86.191  19.932  1.00 39.23 LIG 0.05  C 
BRANCH 56 57
ATOM     57  CG  GLU B   1      60.614  85.052  20.631  1.00 48.64 LIG 0.12  C 
BRANCH 57 58
ATOM     58  CD  GLU B   1      61.737  85.485  21.583  1.00 56.94 LIG 0.17  C 
ATOM     59 OE1  GLU B   1      62.373  86.506  21.271  1.00 65.53 LIG-0.65  OA
ATOM     60 OE2  GLU B   1      62.014  84.826  22.625  1.00 53.19 LIG-0.65  OA
ENDBRANCH 57 58
ENDBRANCH 56 57
ENDBRANCH 55 56
BRANCH 55 61
ATOM     61  N   GLU B   1      59.970  88.044  21.580  1.00 36.67 LIG-0.07  N 
ATOM     62 H1   GLU B   1      60.795  87.713  21.615  1.00 36.67 LIG 0.28  HD
ATOM     63 H3   GLU B   1      59.678  88.198  22.407  1.00 36.67 LIG 0.28  HD
ATOM     64 H2   GLU B   1      59.975  88.806  21.121  1.00 36.67 LIG 0.28  HD
ENDBRANCH 55 61
ENDBRANCH 53 55
ENDBRANCH 50 51
BRANCH 50 65
ATOM     65  CB  LEU B   2      59.087  84.467  25.007  1.00 34.84 LIG 0.04  C 
BRANCH 65 66
ATOM     66  CG  LEU B   2      58.881  82.990  24.632  1.00 34.30 LIG-0.02  C 
ATOM     67  CD2 LEU B   2      60.018  82.460  23.741  1.00 39.39 LIG 0.01  C 
ATOM     68  CD1 LEU B   2      57.522  82.729  23.978  1.00 34.61 LIG 0.01  C 
ENDBRANCH 65 66
ENDBRANCH 50 65
ENDBRANCH 48 50
ENDBRANCH 41 43
ENDBRANCH 1 39
TORSDOF 28
ENDMDL
MODEL 15
USER: ADFR SOLUTION from run 13
USER: SCORE 25.072546 LL:  -6.463 LR: -19.119 RR:   0.000 FEB: -10.766
USER: RMSD 2.404790
USER: SEED 373465
USER: STATUS no improvement in best in 6 clusters for 5 generations
USER: GENES 30
USER: genes 0 Translation |==|  0.54591 0.58202 0.46566
USER: genes 1 Rotation |==|  0.47002 0.53214 0.52144 0.99760
USER: genes 2 Torsion [N]-CA--C-[N] |==|  0.40836
USER: genes 3 Torsion [C]-N--CA-[C] |==|  0.71988
USER: genes 4 Torsion [N]-CA--CB-[CG2] |==|  0.82809
USER: genes 5 Torsion [N]-CA--C-[N] |==|  0.32107
USER: genes 6 Torsion [C]-N--CA-[C] |==|  0.83180
USER: genes 7 Torsion [N]-CA--C-[N] |==|  0.33602
USER: genes 8 Torsion [C]-N--CA-[CB] |==|  0.28649
USER: genes 9 Torsion [N]-CA--CB-[CG1] |==|  0.17656
USER: genes 10 Torsion [CA]-CB--CG1-[CD1] |==|  0.45358
USER: genes 11 Torsion [N]-CA--C-[OXT] |==|  0.28686
USER: genes 12 Torsion [N]-CA--CB-[CG] |==|  0.10144
USER: genes 13 Torsion [CA]-CB--CG-[CD] |==|  0.68758
USER: genes 14 Torsion [CB]-CG--CD-[CE] |==|  0.46052
USER: genes 15 Torsion [CG]-CD--CE-[NZ] |==|  0.53702
USER: genes 16 Torsion [CD]-CE--NZ-[HZ1] |==|  0.61392
USER: genes 17 Torsion [C]-CA--CB-[CG] |==|  0.36271
USER: genes 18 Torsion [CA]-CB--CG-[CD2] |==|  0.85442
USER: genes 19 Torsion [C]-CA--N-[C] |==|  0.58719
USER: genes 20 Torsion [N]-C--CA-[CB] |==|  0.07773
USER: genes 21 Torsion [N]-C--CA-[N] |==|  0.38173
USER: genes 22 Torsion [C]-CA--N-[C] |==|  0.83950
USER: genes 23 Torsion [N]-C--CA-[N] |==|  0.76561
USER: genes 24 Torsion [C]-CA--CB-[CG] |==|  0.48521
USER: genes 25 Torsion [CA]-CB--CG-[CD] |==|  0.26568
USER: genes 26 Torsion [CB]-CG--CD-[OE1] |==|  0.89335
USER: genes 27 Torsion [C]-CA--N-[H1] |==|  0.70008
USER: genes 28 Torsion [C]-CA--CB-[CG] |==|  0.05135
USER: genes 29 Torsion [CA]-CB--CG-[CD2] |==|  0.15502
ROOT
ATOM      1  CA  LEU B   4      56.603  88.171  29.770  1.00 30.07 LIG 0.18  C 
ENDROOT
BRANCH 1 2
ATOM      2  C   LEU B   4      55.189  88.124  30.289  1.00 30.58 LIG 0.24  C 
ATOM      3 O    LEU B   4      54.349  88.930  29.881  1.00 35.83 LIG-0.27  OA
ATOM      4  N   VAL B   5      54.936  87.236  31.247  1.00 32.24 LIG-0.35  N 
ATOM      5 H    VAL B   5      55.522  86.686  31.552  1.00 32.24 LIG 0.16  HD
BRANCH 4 6
ATOM      6  CA  VAL B   5      53.617  87.114  31.875  1.00 32.53 LIG 0.18  C 
BRANCH 6 7
ATOM      7  CB  VAL B   5      53.215  85.642  32.075  1.00 34.70 LIG 0.01  C 
ATOM      8  CG2 VAL B   5      53.127  84.966  30.731  1.00 38.22 LIG 0.01  C 
ATOM      9  CG1 VAL B   5      51.891  85.508  32.817  1.00 39.77 LIG 0.01  C 
ENDBRANCH 6 7
BRANCH 6 10
ATOM     10  C   VAL B   5      53.602  87.802  33.213  1.00 39.16 LIG 0.24  C 
ATOM     11 O    VAL B   5      54.333  87.422  34.137  1.00 33.69 LIG-0.27  OA
ATOM     12  N   LYS B   6      52.790  88.842  33.297  1.00 40.12 LIG-0.35  N 
ATOM     13 H    LYS B   6      52.318  89.137  32.642  1.00 40.12 LIG 0.16  HD
BRANCH 12 14
ATOM     14  CA  LYS B   6      52.633  89.573  34.518  1.00 45.41 LIG 0.18  C 
BRANCH 14 15
ATOM     15  C   LYS B   6      52.107  88.525  35.474  1.00 44.99 LIG 0.24  C 
ATOM     16 O    LYS B   6      51.104  87.898  35.201  1.00 45.85 LIG-0.27  OA
ATOM     17  N   ILE B   7      52.787  88.254  36.568  1.00 47.54 LIG-0.34  N 
ATOM     18 H    ILE B   7      53.504  88.647  36.836  1.00 47.54 LIG 0.16  HD
BRANCH 17 19
ATOM     19  CA  ILE B   7      52.268  87.170  37.422  1.00 57.67 LIG 0.19  C 
BRANCH 19 20
ATOM     20  CB  ILE B   7      53.044  85.799  37.313  1.00 59.41 LIG 0.01  C 
ATOM     21  CG2 ILE B   7      52.996  85.224  35.901  1.00 60.58 LIG 0.01  C 
BRANCH 20 22
ATOM     22  CG1 ILE B   7      54.516  85.943  37.798  1.00 65.20 LIG 0.00  C 
ATOM     23  CD1 ILE B   7      55.276  84.655  38.125  1.00 51.92 LIG 0.01  C 
ENDBRANCH 20 22
ENDBRANCH 19 20
BRANCH 19 24
ATOM     24  C   ILE B   7      51.989  87.631  38.860  1.00 61.74 LIG 0.20  C 
ATOM     25 O    ILE B   7      52.861  87.834  39.691  1.00 61.53 LIG-0.65  OA
ATOM     26 OXT  ILE B   7      50.833  87.843  39.227  1.00 68.92 LIG-0.65  OA
ENDBRANCH 19 24
ENDBRANCH 17 19
ENDBRANCH 14 15
BRANCH 14 27
ATOM     27  CB  LYS B   6      51.631  90.712  34.259  1.00 46.87 LIG 0.04  C 
BRANCH 27 28
ATOM     28  CG  LYS B   6      50.495  90.363  33.318  1.00 55.56 LIG 0.00  C 
BRANCH 28 29
ATOM     29  CD  LYS B   6      50.577  91.126  32.003  1.00 60.95 LIG 0.03  C 
BRANCH 29 30
ATOM     30  CE  LYS B   6      49.650  90.521  30.942  1.00 62.93 LIG 0.23  C 
BRANCH 30 31
ATOM     31  NZ  LYS B   6      49.945  91.043  29.572  1.00 65.77 LIG-0.08  N 
ATOM     32 HZ1  LYS B   6      49.181  91.198  29.142  1.00 65.77 LIG 0.27  HD
ATOM     33 HZ2  LYS B   6      50.408  91.801  29.636  1.00 65.77 LIG 0.27  HD
ATOM     34 HZ3  LYS B   6      50.422  90.441  29.122  1.00 65.77 LIG 0.27  HD
ENDBRANCH 30 31
ENDBRANCH 29 30
ENDBRANCH 28 29
ENDBRANCH 27 28
ENDBRANCH 14 27
ENDBRANCH 12 14
ENDBRANCH 6 10
ENDBRANCH 4 6
ENDBRANCH 1 2
BRANCH 1 35
ATOM     35  CB  LEU B   4      57.343  89.206  30.593  1.00 28.63 LIG 0.04  C 
BRANCH 35 36
ATOM     36  CG  LEU B   4      58.666  88.658  31.114  1.00 30.56 LIG-0.02  C 
ATOM     37  CD2 LEU B   4      58.404  87.348  31.825  1.00 33.80 LIG 0.01  C 
ATOM     38  CD1 LEU B   4      59.269  89.687  32.086  1.00 28.87 LIG 0.01  C 
ENDBRANCH 35 36
ENDBRANCH 1 35
BRANCH 1 39
ATOM     39  N   LEU B   4      56.795  88.510  28.341  1.00 28.62 LIG-0.35  N 
ATOM     40 H    LEU B   4      56.204  89.043  28.015  1.00 28.62 LIG 0.16  HD
ATOM     41  C   PRO B   3      57.806  88.013  27.658  1.00 33.12 LIG 0.24  C 
ATOM     42 O    PRO B   3      58.775  87.437  28.184  1.00 32.36 LIG-0.27  OA
BRANCH 41 43
ATOM     43  CA  PRO B   3      57.749  88.230  26.148  1.00 33.48 LIG 0.18  C 
ATOM     44  CB  PRO B   3      56.953  89.518  25.808  1.00 32.62 LIG 0.04  C 
ATOM     45  CG  PRO B   3      56.095  89.153  24.624  1.00 32.85 LIG 0.02  C 
ATOM     46  CD  PRO B   3      55.801  87.663  24.776  1.00 29.95 LIG 0.13  C 
ATOM     47  N   PRO B   3      56.938  87.158  25.599  1.00 33.01 LIG-0.34  N 
ATOM     48  C   LEU B   2      57.334  85.887  25.828  1.00 31.97 LIG 0.24  C 
ATOM     49 O    LEU B   2      58.409  85.581  26.354  1.00 33.64 LIG-0.27  OA
BRANCH 48 50
ATOM     50  CA  LEU B   2      56.414  84.788  25.347  1.00 32.67 LIG 0.18  C 
BRANCH 50 51
ATOM     51  N   LEU B   2      57.284  83.782  24.748  1.00 33.85 LIG-0.35  N 
ATOM     52 H    LEU B   2      57.208  83.005  25.108  1.00 33.85 LIG 0.16  HD
ATOM     53  C   GLU B   1      58.117  84.037  23.744  1.00 36.42 LIG 0.25  C 
ATOM     54 O    GLU B   1      58.028  85.069  23.059  1.00 32.31 LIG-0.27  OA
BRANCH 53 55
ATOM     55  CA  GLU B   1      59.133  82.925  23.400  1.00 35.71 LIG 0.28  C 
BRANCH 55 56
ATOM     56  CB  GLU B   1      58.451  81.565  23.583  1.00 39.23 LIG 0.05  C 
BRANCH 56 57
ATOM     57  CG  GLU B   1      59.332  80.396  23.142  1.00 48.64 LIG 0.12  C 
BRANCH 57 58
ATOM     58  CD  GLU B   1      60.132  79.716  24.262  1.00 56.94 LIG 0.17  C 
ATOM     59 OE1  GLU B   1      60.607  80.456  25.139  1.00 65.53 LIG-0.65  OA
ATOM     60 OE2  GLU B   1      60.315  78.466  24.281  1.00 53.19 LIG-0.65  OA
ENDBRANCH 57 58
ENDBRANCH 56 57
ENDBRANCH 55 56
BRANCH 55 61
ATOM     61  N   GLU B   1      60.357  82.999  24.269  1.00 36.67 LIG-0.07  N 
ATOM     62 H1   GLU B   1      61.047  83.291  23.788  1.00 36.67 LIG 0.28  HD
ATOM     63 H3   GLU B   1      60.542  82.190  24.591  1.00 36.67 LIG 0.28  HD
ATOM     64 H2   GLU B   1      60.209  83.559  24.945  1.00 36.67 LIG 0.28  HD
ENDBRANCH 55 61
ENDBRANCH 53 55
ENDBRANCH 50 51
BRANCH 50 65
ATOM     65  CB  LEU B   2      55.596  84.235  26.543  1.00 34.84 LIG 0.04  C 
BRANCH 65 66
ATOM     66  CG  LEU B   2      55.519  85.124  27.795  1.00 34.30 LIG-0.02  C 
ATOM     67  CD2 LEU B   2      54.971  86.524  27.471  1.00 39.39 LIG 0.01  C 
ATOM     68  CD1 LEU B   2      56.858  85.231  28.529  1.00 34.61 LIG 0.01  C 
ENDBRANCH 65 66
ENDBRANCH 50 65
ENDBRANCH 48 50
ENDBRANCH 41 43
ENDBRANCH 1 39
TORSDOF 28
ENDMDL
MODEL 16
USER: ADFR SOLUTION from run 150
USER: SCORE 25.509506 LL:  -6.956 LR: -19.104 RR:   0.000 FEB: -10.751
USER: RMSD 12.260991
USER: SEED 149
USER: STATUS no improvement in best in 8 clusters for 5 generations
USER: GENES 30
USER: genes 0 Translation |==|  0.52590 0.57338 0.45891
USER: genes 1 Rotation |==|  0.10202 0.37063 0.23191 0.55483
USER: genes 2 Torsion [N]-CA--C-[N] |==|  0.89609
USER: genes 3 Torsion [C]-N--CA-[C] |==|  0.53889
USER: genes 4 Torsion [N]-CA--CB-[CG2] |==|  0.56063
USER: genes 5 Torsion [N]-CA--C-[N] |==|  0.45991
USER: genes 6 Torsion [C]-N--CA-[C] |==|  0.73338
USER: genes 7 Torsion [N]-CA--C-[N] |==|  0.46743
USER: genes 8 Torsion [C]-N--CA-[CB] |==|  0.38431
USER: genes 9 Torsion [N]-CA--CB-[CG1] |==|  0.56465
USER: genes 10 Torsion [CA]-CB--CG1-[CD1] |==|  0.13707
USER: genes 11 Torsion [N]-CA--C-[OXT] |==|  0.98180
USER: genes 12 Torsion [N]-CA--CB-[CG] |==|  0.70544
USER: genes 13 Torsion [CA]-CB--CG-[CD] |==|  0.50198
USER: genes 14 Torsion [CB]-CG--CD-[CE] |==|  0.55827
USER: genes 15 Torsion [CG]-CD--CE-[NZ] |==|  0.70256
USER: genes 16 Torsion [CD]-CE--NZ-[HZ1] |==|  0.00183
USER: genes 17 Torsion [C]-CA--CB-[CG] |==|  0.50763
USER: genes 18 Torsion [CA]-CB--CG-[CD2] |==|  0.68409
USER: genes 19 Torsion [C]-CA--N-[C] |==|  0.83030
USER: genes 20 Torsion [N]-C--CA-[CB] |==|  0.64841
USER: genes 21 Torsion [N]-C--CA-[N] |==|  0.86112
USER: genes 22 Torsion [C]-CA--N-[C] |==|  0.83110
USER: genes 23 Torsion [N]-C--CA-[N] |==|  0.49829
USER: genes 24 Torsion [C]-CA--CB-[CG] |==|  0.27602
USER: genes 25 Torsion [CA]-CB--CG-[CD] |==|  0.05212
USER: genes 26 Torsion [CB]-CG--CD-[OE1] |==|  0.66960
USER: genes 27 Torsion [C]-CA--N-[H1] |==|  0.12561
USER: genes 28 Torsion [C]-CA--CB-[CG] |==|  0.25344
USER: genes 29 Torsion [CA]-CB--CG-[CD2] |==|  0.06178
ROOT
ATOM      1  CA  LEU B   4      56.183  87.977  29.598  1.00 30.07 LIG 0.18  C 
ENDROOT
BRANCH 1 2
ATOM      2  C   LEU B   4      56.032  87.672  28.130  1.00 30.58 LIG 0.24  C 
ATOM      3 O    LEU B   4      55.868  88.586  27.318  1.00 35.83 LIG-0.27  OA
ATOM      4  N   VAL B   5      56.007  86.386  27.789  1.00 32.24 LIG-0.35  N 
ATOM      5 H    VAL B   5      56.098  85.743  28.353  1.00 32.24 LIG 0.16  HD
BRANCH 4 6
ATOM      6  CA  VAL B   5      55.819  85.946  26.403  1.00 32.53 LIG 0.18  C 
BRANCH 6 7
ATOM      7  CB  VAL B   5      57.075  86.199  25.550  1.00 34.70 LIG 0.01  C 
ATOM      8  CG2 VAL B   5      56.681  86.246  24.096  1.00 38.22 LIG 0.01  C 
ATOM      9  CG1 VAL B   5      58.139  85.132  25.771  1.00 39.77 LIG 0.01  C 
ENDBRANCH 6 7
BRANCH 6 10
ATOM     10  C   VAL B   5      55.494  84.478  26.354  1.00 39.16 LIG 0.24  C 
ATOM     11 O    VAL B   5      55.639  83.755  27.349  1.00 33.69 LIG-0.27  OA
ATOM     12  N   LYS B   6      55.017  84.050  25.198  1.00 40.12 LIG-0.35  N 
ATOM     13 H    LYS B   6      54.870  84.559  24.520  1.00 40.12 LIG 0.16  HD
BRANCH 12 14
ATOM     14  CA  LYS B   6      54.702  82.670  24.980  1.00 45.41 LIG 0.18  C 
BRANCH 14 15
ATOM     15  C   LYS B   6      55.951  82.140  24.309  1.00 44.99 LIG 0.24  C 
ATOM     16 O    LYS B   6      56.827  82.905  23.961  1.00 45.85 LIG-0.27  OA
ATOM     17  N   ILE B   7      56.105  80.841  24.172  1.00 47.54 LIG-0.34  N 
ATOM     18 H    ILE B   7      55.538  80.232  24.392  1.00 47.54 LIG 0.16  HD
BRANCH 17 19
ATOM     19  CA  ILE B   7      57.376  80.381  23.582  1.00 57.67 LIG 0.19  C 
BRANCH 19 20
ATOM     20  CB  ILE B   7      58.016  79.113  24.271  1.00 59.41 LIG 0.01  C 
ATOM     21  CG2 ILE B   7      57.338  77.820  23.832  1.00 60.58 LIG 0.01  C 
BRANCH 20 22
ATOM     22  CG1 ILE B   7      59.549  79.043  24.014  1.00 65.20 LIG 0.00  C 
ATOM     23  CD1 ILE B   7      60.363  80.312  24.284  1.00 51.92 LIG 0.01  C 
ENDBRANCH 20 22
ENDBRANCH 19 20
BRANCH 19 24
ATOM     24  C   ILE B   7      57.327  80.316  22.048  1.00 61.74 LIG 0.20  C 
ATOM     25 O    ILE B   7      58.290  80.049  21.346  1.00 61.53 LIG-0.65  OA
ATOM     26 OXT  ILE B   7      56.265  80.513  21.457  1.00 68.92 LIG-0.65  OA
ENDBRANCH 19 24
ENDBRANCH 17 19
ENDBRANCH 14 15
BRANCH 14 27
ATOM     27  CB  LYS B   6      53.458  82.607  24.078  1.00 46.87 LIG 0.04  C 
BRANCH 27 28
ATOM     28  CG  LYS B   6      52.176  82.210  24.784  1.00 55.56 LIG 0.00  C 
BRANCH 28 29
ATOM     29  CD  LYS B   6      50.987  82.149  23.835  1.00 60.95 LIG 0.03  C 
BRANCH 29 30
ATOM     30  CE  LYS B   6      49.657  82.263  24.589  1.00 62.93 LIG 0.23  C 
BRANCH 30 31
ATOM     31  NZ  LYS B   6      48.929  80.958  24.646  1.00 65.77 LIG-0.08  N 
ATOM     32 HZ1  LYS B   6      49.408  80.332  24.233  1.00 65.77 LIG 0.27  HD
ATOM     33 HZ2  LYS B   6      48.805  80.723  25.496  1.00 65.77 LIG 0.27  HD
ATOM     34 HZ3  LYS B   6      48.139  81.041  24.244  1.00 65.77 LIG 0.27  HD
ENDBRANCH 30 31
ENDBRANCH 29 30
ENDBRANCH 28 29
ENDBRANCH 27 28
ENDBRANCH 14 27
ENDBRANCH 12 14
ENDBRANCH 6 10
ENDBRANCH 4 6
ENDBRANCH 1 2
BRANCH 1 35
ATOM     35  CB  LEU B   4      57.664  87.924  29.913  1.00 28.63 LIG 0.04  C 
BRANCH 35 36
ATOM     36  CG  LEU B   4      57.924  88.154  31.396  1.00 30.56 LIG-0.02  C 
ATOM     37  CD2 LEU B   4      58.666  89.462  31.564  1.00 33.80 LIG 0.01  C 
ATOM     38  CD1 LEU B   4      58.770  86.984  31.928  1.00 28.87 LIG 0.01  C 
ENDBRANCH 35 36
ENDBRANCH 1 35
BRANCH 1 39
ATOM     39  N   LEU B   4      55.487  87.086  30.555  1.00 28.62 LIG-0.35  N 
ATOM     40 H    LEU B   4      56.004  86.671  31.102  1.00 28.62 LIG 0.16  HD
ATOM     41  C   PRO B   3      54.175  86.967  30.536  1.00 33.12 LIG 0.24  C 
ATOM     42 O    PRO B   3      53.423  87.733  29.907  1.00 32.36 LIG-0.27  OA
BRANCH 41 43
ATOM     43  CA  PRO B   3      53.605  85.837  31.390  1.00 33.48 LIG 0.18  C 
ATOM     44  CB  PRO B   3      52.679  84.922  30.545  1.00 32.62 LIG 0.04  C 
ATOM     45  CG  PRO B   3      51.494  84.632  31.429  1.00 32.85 LIG 0.02  C 
ATOM     46  CD  PRO B   3      51.341  85.859  32.323  1.00 29.95 LIG 0.13  C 
ATOM     47  N   PRO B   3      52.711  86.449  32.356  1.00 33.01 LIG-0.34  N 
ATOM     48  C   LEU B   2      53.222  87.387  33.183  1.00 31.97 LIG 0.24  C 
ATOM     49 O    LEU B   2      54.425  87.658  33.263  1.00 33.64 LIG-0.27  OA
BRANCH 48 50
ATOM     50  CA  LEU B   2      52.249  88.092  34.100  1.00 32.67 LIG 0.18  C 
BRANCH 50 51
ATOM     51  N   LEU B   2      51.156  88.538  33.244  1.00 33.85 LIG-0.35  N 
ATOM     52 H    LEU B   2      50.394  88.201  33.457  1.00 33.85 LIG 0.16  HD
ATOM     53  C   GLU B   1      51.316  89.382  32.231  1.00 36.42 LIG 0.25  C 
ATOM     54 O    GLU B   1      52.343  90.068  32.099  1.00 32.31 LIG-0.27  OA
BRANCH 53 55
ATOM     55  CA  GLU B   1      50.105  89.553  31.285  1.00 35.71 LIG 0.28  C 
BRANCH 55 56
ATOM     56  CB  GLU B   1      49.762  88.188  30.678  1.00 39.23 LIG 0.05  C 
BRANCH 56 57
ATOM     57  CG  GLU B   1      48.594  87.502  31.386  1.00 48.64 LIG 0.12  C 
BRANCH 57 58
ATOM     58  CD  GLU B   1      47.702  88.423  32.229  1.00 56.94 LIG 0.17  C 
ATOM     59 OE1  GLU B   1      47.634  88.176  33.445  1.00 65.53 LIG-0.65  OA
ATOM     60 OE2  GLU B   1      47.053  89.375  31.711  1.00 53.19 LIG-0.65  OA
ENDBRANCH 57 58
ENDBRANCH 56 57
ENDBRANCH 55 56
BRANCH 55 61
ATOM     61  N   GLU B   1      50.389  90.539  30.187  1.00 36.67 LIG-0.07  N 
ATOM     62 H1   GLU B   1      51.194  90.378  29.843  1.00 36.67 LIG 0.28  HD
ATOM     63 H3   GLU B   1      50.368  91.366  30.516  1.00 36.67 LIG 0.28  HD
ATOM     64 H2   GLU B   1      49.773  90.459  29.549  1.00 36.67 LIG 0.28  HD
ENDBRANCH 55 61
ENDBRANCH 53 55
ENDBRANCH 50 51
BRANCH 50 65
ATOM     65  CB  LEU B   2      51.779  87.114  35.209  1.00 34.84 LIG 0.04  C 
BRANCH 65 66
ATOM     66  CG  LEU B   2      52.597  87.104  36.511  1.00 34.30 LIG-0.02  C 
ATOM     67  CD2 LEU B   2      53.383  88.413  36.705  1.00 39.39 LIG 0.01  C 
ATOM     68  CD1 LEU B   2      53.534  85.898  36.612  1.00 34.61 LIG 0.01  C 
ENDBRANCH 65 66
ENDBRANCH 50 65
ENDBRANCH 48 50
ENDBRANCH 41 43
ENDBRANCH 1 39
TORSDOF 28
ENDMDL
MODEL 17
USER: ADFR SOLUTION from run 66
USER: SCORE 24.680831 LL:  -6.396 LR: -19.094 RR:   0.000 FEB: -10.742
USER: RMSD 11.573615
USER: SEED 65
USER: STATUS no improvement in best in 3 clusters for 5 generations
USER: GENES 30
USER: genes 0 Translation |==|  0.55124 0.56375 0.50141
USER: genes 1 Rotation |==|  0.81087 0.54626 0.88791 0.52734
USER: genes 2 Torsion [N]-CA--C-[N] |==|  0.01206
USER: genes 3 Torsion [C]-N--CA-[C] |==|  0.78652
USER: genes 4 Torsion [N]-CA--CB-[CG2] |==|  0.91963
USER: genes 5 Torsion [N]-CA--C-[N] |==|  0.95006
USER: genes 6 Torsion [C]-N--CA-[C] |==|  0.20173
USER: genes 7 Torsion [N]-CA--C-[N] |==|  0.03930
USER: genes 8 Torsion [C]-N--CA-[CB] |==|  0.37426
USER: genes 9 Torsion [N]-CA--CB-[CG1] |==|  0.81423
USER: genes 10 Torsion [CA]-CB--CG1-[CD1] |==|  0.94093
USER: genes 11 Torsion [N]-CA--C-[OXT] |==|  0.18881
USER: genes 12 Torsion [N]-CA--CB-[CG] |==|  0.46210
USER: genes 13 Torsion [CA]-CB--CG-[CD] |==|  0.68290
USER: genes 14 Torsion [CB]-CG--CD-[CE] |==|  0.34508
USER: genes 15 Torsion [CG]-CD--CE-[NZ] |==|  0.25065
USER: genes 16 Torsion [CD]-CE--NZ-[HZ1] |==|  0.54236
USER: genes 17 Torsion [C]-CA--CB-[CG] |==|  0.24354
USER: genes 18 Torsion [CA]-CB--CG-[CD2] |==|  0.02122
USER: genes 19 Torsion [C]-CA--N-[C] |==|  0.63333
USER: genes 20 Torsion [N]-C--CA-[CB] |==|  0.64091
USER: genes 21 Torsion [N]-C--CA-[N] |==|  0.36558
USER: genes 22 Torsion [C]-CA--N-[C] |==|  0.67136
USER: genes 23 Torsion [N]-C--CA-[N] |==|  0.20493
USER: genes 24 Torsion [C]-CA--CB-[CG] |==|  0.40340
USER: genes 25 Torsion [CA]-CB--CG-[CD] |==|  0.77257
USER: genes 26 Torsion [CB]-CG--CD-[OE1] |==|  0.82517
USER: genes 27 Torsion [C]-CA--N-[H1] |==|  0.75848
USER: genes 28 Torsion [C]-CA--CB-[CG] |==|  0.32908
USER: genes 29 Torsion [CA]-CB--CG-[CD2] |==|  0.19393
ROOT
ATOM      1  CA  LEU B   4      56.715  87.760  30.682  1.00 30.07 LIG 0.18  C 
ENDROOT
BRANCH 1 2
ATOM      2  C   LEU B   4      57.363  87.466  29.354  1.00 30.58 LIG 0.24  C 
ATOM      3 O    LEU B   4      58.516  87.841  29.127  1.00 35.83 LIG-0.27  OA
ATOM      4  N   VAL B   5      56.603  86.866  28.441  1.00 32.24 LIG-0.35  N 
ATOM      5 H    VAL B   5      55.791  86.621  28.585  1.00 32.24 LIG 0.16  HD
BRANCH 4 6
ATOM      6  CA  VAL B   5      57.090  86.563  27.092  1.00 32.53 LIG 0.18  C 
BRANCH 6 7
ATOM      7  CB  VAL B   5      56.216  85.504  26.395  1.00 34.70 LIG 0.01  C 
ATOM      8  CG2 VAL B   5      55.609  84.601  27.438  1.00 38.22 LIG 0.01  C 
ATOM      9  CG1 VAL B   5      57.011  84.681  25.388  1.00 39.77 LIG 0.01  C 
ENDBRANCH 6 7
BRANCH 6 10
ATOM     10  C   VAL B   5      57.105  87.805  26.244  1.00 39.16 LIG 0.24  C 
ATOM     11 O    VAL B   5      57.745  87.852  25.185  1.00 33.69 LIG-0.27  OA
ATOM     12  N   LYS B   6      56.364  88.801  26.699  1.00 40.12 LIG-0.35  N 
ATOM     13 H    LYS B   6      55.880  88.754  27.409  1.00 40.12 LIG 0.16  HD
BRANCH 12 14
ATOM     14  CA  LYS B   6      56.310  90.064  26.028  1.00 45.41 LIG 0.18  C 
BRANCH 14 15
ATOM     15  C   LYS B   6      55.490  89.756  24.794  1.00 44.99 LIG 0.24  C 
ATOM     16 O    LYS B   6      55.510  90.510  23.844  1.00 45.85 LIG-0.27  OA
ATOM     17  N   ILE B   7      54.812  88.629  24.738  1.00 47.54 LIG-0.34  N 
ATOM     18 H    ILE B   7      54.745  88.040  25.361  1.00 47.54 LIG 0.16  HD
BRANCH 17 19
ATOM     19  CA  ILE B   7      54.096  88.347  23.480  1.00 57.67 LIG 0.19  C 
BRANCH 19 20
ATOM     20  CB  ILE B   7      54.257  86.875  22.931  1.00 59.41 LIG 0.01  C 
ATOM     21  CG2 ILE B   7      53.280  86.576  21.799  1.00 60.58 LIG 0.01  C 
BRANCH 20 22
ATOM     22  CG1 ILE B   7      55.721  86.596  22.482  1.00 65.20 LIG 0.00  C 
ATOM     23  CD1 ILE B   7      56.597  87.809  22.156  1.00 51.92 LIG 0.01  C 
ENDBRANCH 20 22
ENDBRANCH 19 20
BRANCH 19 24
ATOM     24  C   ILE B   7      52.650  88.866  23.494  1.00 61.74 LIG 0.20  C 
ATOM     25 O    ILE B   7      51.667  88.143  23.523  1.00 61.53 LIG-0.65  OA
ATOM     26 OXT  ILE B   7      52.431  90.078  23.501  1.00 68.92 LIG-0.65  OA
ENDBRANCH 19 24
ENDBRANCH 17 19
ENDBRANCH 14 15
BRANCH 14 27
ATOM     27  CB  LYS B   6      57.752  90.489  25.705  1.00 46.87 LIG 0.04  C 
BRANCH 27 28
ATOM     28  CG  LYS B   6      57.876  91.633  24.717  1.00 55.56 LIG 0.00  C 
BRANCH 28 29
ATOM     29  CD  LYS B   6      58.528  91.202  23.411  1.00 60.95 LIG 0.03  C 
BRANCH 29 30
ATOM     30  CE  LYS B   6      57.639  91.523  22.204  1.00 62.93 LIG 0.23  C 
BRANCH 30 31
ATOM     31  NZ  LYS B   6      57.916  92.883  21.646  1.00 65.77 LIG-0.08  N 
ATOM     32 HZ1  LYS B   6      57.251  93.124  21.105  1.00 65.77 LIG 0.27  HD
ATOM     33 HZ2  LYS B   6      57.983  93.470  22.312  1.00 65.77 LIG 0.27  HD
ATOM     34 HZ3  LYS B   6      58.680  92.866  21.188  1.00 65.77 LIG 0.27  HD
ENDBRANCH 30 31
ENDBRANCH 29 30
ENDBRANCH 28 29
ENDBRANCH 27 28
ENDBRANCH 14 27
ENDBRANCH 12 14
ENDBRANCH 6 10
ENDBRANCH 4 6
ENDBRANCH 1 2
BRANCH 1 35
ATOM     35  CB  LEU B   4      57.590  87.137  31.750  1.00 28.63 LIG 0.04  C 
BRANCH 35 36
ATOM     36  CG  LEU B   4      58.688  88.095  32.196  1.00 30.56 LIG-0.02  C 
ATOM     37  CD2 LEU B   4      58.444  89.446  31.560  1.00 33.80 LIG 0.01  C 
ATOM     38  CD1 LEU B   4      60.043  87.525  31.743  1.00 28.87 LIG 0.01  C 
ENDBRANCH 35 36
ENDBRANCH 1 35
BRANCH 1 39
ATOM     39  N   LEU B   4      55.333  87.271  30.890  1.00 28.62 LIG-0.35  N 
ATOM     40 H    LEU B   4      55.204  86.449  30.671  1.00 28.62 LIG 0.16  HD
ATOM     41  C   PRO B   3      54.400  88.066  31.374  1.00 33.12 LIG 0.24  C 
ATOM     42 O    PRO B   3      54.639  89.169  31.898  1.00 32.36 LIG-0.27  OA
BRANCH 41 43
ATOM     43  CA  PRO B   3      52.974  87.526  31.301  1.00 33.48 LIG 0.18  C 
ATOM     44  CB  PRO B   3      52.023  88.570  30.656  1.00 32.62 LIG 0.04  C 
ATOM     45  CG  PRO B   3      50.765  88.526  31.484  1.00 32.85 LIG 0.02  C 
ATOM     46  CD  PRO B   3      51.214  88.139  32.890  1.00 29.95 LIG 0.13  C 
ATOM     47  N   PRO B   3      52.496  87.410  32.666  1.00 33.01 LIG-0.34  N 
ATOM     48  C   LEU B   2      53.200  86.630  33.516  1.00 31.97 LIG 0.24  C 
ATOM     49 O    LEU B   2      54.139  85.904  33.173  1.00 33.64 LIG-0.27  OA
BRANCH 48 50
ATOM     50  CA  LEU B   2      52.751  86.615  34.960  1.00 32.67 LIG 0.18  C 
BRANCH 50 51
ATOM     51  N   LEU B   2      52.677  85.207  35.333  1.00 33.85 LIG-0.35  N 
ATOM     52 H    LEU B   2      53.432  84.799  35.283  1.00 33.85 LIG 0.16  HD
ATOM     53  C   GLU B   1      51.554  84.608  35.715  1.00 36.42 LIG 0.25  C 
ATOM     54 O    GLU B   1      50.543  85.249  36.046  1.00 32.31 LIG-0.27  OA
BRANCH 53 55
ATOM     55  CA  GLU B   1      51.608  83.068  35.835  1.00 35.71 LIG 0.28  C 
BRANCH 55 56
ATOM     56  CB  GLU B   1      50.174  82.533  35.910  1.00 39.23 LIG 0.05  C 
BRANCH 56 57
ATOM     57  CG  GLU B   1      50.009  81.182  35.214  1.00 48.64 LIG 0.12  C 
BRANCH 57 58
ATOM     58  CD  GLU B   1      49.828  81.242  33.691  1.00 56.94 LIG 0.17  C 
ATOM     59 OE1  GLU B   1      48.814  81.826  33.271  1.00 65.53 LIG-0.65  OA
ATOM     60 OE2  GLU B   1      50.658  80.710  32.902  1.00 53.19 LIG-0.65  OA
ENDBRANCH 57 58
ENDBRANCH 56 57
ENDBRANCH 55 56
BRANCH 55 61
ATOM     61  N   GLU B   1      52.376  82.630  37.051  1.00 36.67 LIG-0.07  N 
ATOM     62 H1   GLU B   1      53.242  82.575  36.852  1.00 36.67 LIG 0.28  HD
ATOM     63 H3   GLU B   1      52.082  81.832  37.316  1.00 36.67 LIG 0.28  HD
ATOM     64 H2   GLU B   1      52.259  83.221  37.706  1.00 36.67 LIG 0.28  HD
ENDBRANCH 55 61
ENDBRANCH 53 55
ENDBRANCH 50 51
BRANCH 50 65
ATOM     65  CB  LEU B   2      53.763  87.410  35.826  1.00 34.84 LIG 0.04  C 
BRANCH 65 66
ATOM     66  CG  LEU B   2      53.220  88.649  36.557  1.00 34.30 LIG-0.02  C 
ATOM     67  CD2 LEU B   2      52.263  88.266  37.699  1.00 39.39 LIG 0.01  C 
ATOM     68  CD1 LEU B   2      52.552  89.649  35.612  1.00 34.61 LIG 0.01  C 
ENDBRANCH 65 66
ENDBRANCH 50 65
ENDBRANCH 48 50
ENDBRANCH 41 43
ENDBRANCH 1 39
TORSDOF 28
ENDMDL
MODEL 18
USER: ADFR SOLUTION from run 133
USER: SCORE 26.002459 LL:  -7.462 LR: -19.067 RR:   0.000 FEB: -10.714
USER: RMSD 12.984972
USER: SEED 132
USER: STATUS no improvement in best in 8 clusters for 5 generations
USER: GENES 30
USER: genes 0 Translation |==|  0.51026 0.58755 0.48710
USER: genes 1 Rotation |==|  0.11495 0.37254 0.21886 0.58031
USER: genes 2 Torsion [N]-CA--C-[N] |==|  0.88465
USER: genes 3 Torsion [C]-N--CA-[C] |==|  0.55257
USER: genes 4 Torsion [N]-CA--CB-[CG2] |==|  0.06364
USER: genes 5 Torsion [N]-CA--C-[N] |==|  0.45317
USER: genes 6 Torsion [C]-N--CA-[C] |==|  0.78097
USER: genes 7 Torsion [N]-CA--C-[N] |==|  0.96210
USER: genes 8 Torsion [C]-N--CA-[CB] |==|  0.17780
USER: genes 9 Torsion [N]-CA--CB-[CG1] |==|  0.58117
USER: genes 10 Torsion [CA]-CB--CG1-[CD1] |==|  0.05866
USER: genes 11 Torsion [N]-CA--C-[OXT] |==|  0.03082
USER: genes 12 Torsion [N]-CA--CB-[CG] |==|  0.30277
USER: genes 13 Torsion [CA]-CB--CG-[CD] |==|  0.34433
USER: genes 14 Torsion [CB]-CG--CD-[CE] |==|  0.65025
USER: genes 15 Torsion [CG]-CD--CE-[NZ] |==|  0.46526
USER: genes 16 Torsion [CD]-CE--NZ-[HZ1] |==|  0.61505
USER: genes 17 Torsion [C]-CA--CB-[CG] |==|  0.28112
USER: genes 18 Torsion [CA]-CB--CG-[CD2] |==|  0.76568
USER: genes 19 Torsion [C]-CA--N-[C] |==|  0.84994
USER: genes 20 Torsion [N]-C--CA-[CB] |==|  0.62022
USER: genes 21 Torsion [N]-C--CA-[N] |==|  0.45675
USER: genes 22 Torsion [C]-CA--N-[C] |==|  0.52547
USER: genes 23 Torsion [N]-C--CA-[N] |==|  0.26367
USER: genes 24 Torsion [C]-CA--CB-[CG] |==|  0.47950
USER: genes 25 Torsion [CA]-CB--CG-[CD] |==|  0.17762
USER: genes 26 Torsion [CB]-CG--CD-[OE1] |==|  0.09359
USER: genes 27 Torsion [C]-CA--N-[H1] |==|  0.28299
USER: genes 28 Torsion [C]-CA--CB-[CG] |==|  0.90311
USER: genes 29 Torsion [CA]-CB--CG-[CD2] |==|  0.70205
ROOT
ATOM      1  CA  LEU B   4      55.855  88.296  30.317  1.00 30.07 LIG 0.18  C 
ENDROOT
BRANCH 1 2
ATOM      2  C   LEU B   4      55.780  88.140  28.820  1.00 30.58 LIG 0.24  C 
ATOM      3 O    LEU B   4      55.519  89.110  28.105  1.00 35.83 LIG-0.27  OA
ATOM      4  N   VAL B   5      55.928  86.906  28.343  1.00 32.24 LIG-0.35  N 
ATOM      5 H    VAL B   5      56.087  86.221  28.837  1.00 32.24 LIG 0.16  HD
BRANCH 4 6
ATOM      6  CA  VAL B   5      55.831  86.603  26.911  1.00 32.53 LIG 0.18  C 
BRANCH 6 7
ATOM      7  CB  VAL B   5      57.115  86.995  26.158  1.00 34.70 LIG 0.01  C 
ATOM      8  CG2 VAL B   5      58.264  87.040  27.132  1.00 38.22 LIG 0.01  C 
ATOM      9  CG1 VAL B   5      56.974  88.336  25.450  1.00 39.77 LIG 0.01  C 
ENDBRANCH 6 7
BRANCH 6 10
ATOM     10  C   VAL B   5      55.578  85.136  26.698  1.00 39.16 LIG 0.24  C 
ATOM     11 O    VAL B   5      55.749  84.316  27.609  1.00 33.69 LIG-0.27  OA
ATOM     12  N   LYS B   6      55.133  84.815  25.495  1.00 40.12 LIG-0.35  N 
ATOM     13 H    LYS B   6      54.967  85.388  24.875  1.00 40.12 LIG 0.16  HD
BRANCH 12 14
ATOM     14  CA  LYS B   6      54.887  83.454  25.124  1.00 45.41 LIG 0.18  C 
BRANCH 14 15
ATOM     15  C   LYS B   6      56.275  82.931  24.822  1.00 44.99 LIG 0.24  C 
ATOM     16 O    LYS B   6      56.454  81.743  24.650  1.00 45.85 LIG-0.27  OA
ATOM     17  N   ILE B   7      57.267  83.784  24.681  1.00 47.54 LIG-0.34  N 
ATOM     18 H    ILE B   7      57.227  84.637  24.784  1.00 47.54 LIG 0.16  HD
BRANCH 17 19
ATOM     19  CA  ILE B   7      58.579  83.221  24.312  1.00 57.67 LIG 0.19  C 
BRANCH 19 20
ATOM     20  CB  ILE B   7      58.636  82.525  22.895  1.00 59.41 LIG 0.01  C 
ATOM     21  CG2 ILE B   7      58.891  83.527  21.775  1.00 60.58 LIG 0.01  C 
BRANCH 20 22
ATOM     22  CG1 ILE B   7      59.698  81.388  22.867  1.00 65.20 LIG 0.00  C 
ATOM     23  CD1 ILE B   7      60.124  80.793  24.212  1.00 51.92 LIG 0.01  C 
ENDBRANCH 20 22
ENDBRANCH 19 20
BRANCH 19 24
ATOM     24  C   ILE B   7      59.738  84.190  24.592  1.00 61.74 LIG 0.20  C 
ATOM     25 O    ILE B   7      60.873  84.034  24.170  1.00 61.53 LIG-0.65  OA
ATOM     26 OXT  ILE B   7      59.543  85.208  25.257  1.00 68.92 LIG-0.65  OA
ENDBRANCH 19 24
ENDBRANCH 17 19
ENDBRANCH 14 15
BRANCH 14 27
ATOM     27  CB  LYS B   6      53.963  83.460  23.894  1.00 46.87 LIG 0.04  C 
BRANCH 27 28
ATOM     28  CG  LYS B   6      54.623  83.041  22.595  1.00 55.56 LIG 0.00  C 
BRANCH 28 29
ATOM     29  CD  LYS B   6      53.905  81.874  21.931  1.00 60.95 LIG 0.03  C 
BRANCH 29 30
ATOM     30  CE  LYS B   6      54.866  80.714  21.641  1.00 62.93 LIG 0.23  C 
BRANCH 30 31
ATOM     31  NZ  LYS B   6      54.139  79.460  21.271  1.00 65.77 LIG-0.08  N 
ATOM     32 HZ1  LYS B   6      54.527  78.764  21.667  1.00 65.77 LIG 0.27  HD
ATOM     33 HZ2  LYS B   6      53.291  79.518  21.538  1.00 65.77 LIG 0.27  HD
ATOM     34 HZ3  LYS B   6      54.165  79.351  20.388  1.00 65.77 LIG 0.27  HD
ENDBRANCH 30 31
ENDBRANCH 29 30
ENDBRANCH 28 29
ENDBRANCH 27 28
ENDBRANCH 14 27
ENDBRANCH 12 14
ENDBRANCH 6 10
ENDBRANCH 4 6
ENDBRANCH 1 2
BRANCH 1 35
ATOM     35  CB  LEU B   4      57.323  88.290  30.691  1.00 28.63 LIG 0.04  C 
BRANCH 35 36
ATOM     36  CG  LEU B   4      57.835  89.702  30.947  1.00 30.56 LIG-0.02  C 
ATOM     37  CD2 LEU B   4      58.222  90.327  29.624  1.00 33.80 LIG 0.01  C 
ATOM     38  CD1 LEU B   4      59.056  89.614  31.878  1.00 28.87 LIG 0.01  C 
ENDBRANCH 35 36
ENDBRANCH 1 35
BRANCH 1 39
ATOM     39  N   LEU B   4      55.175  87.273  31.144  1.00 28.62 LIG-0.35  N 
ATOM     40 H    LEU B   4      55.674  86.898  31.735  1.00 28.62 LIG 0.16  HD
ATOM     41  C   PRO B   3      53.902  86.989  30.958  1.00 33.12 LIG 0.24  C 
ATOM     42 O    PRO B   3      53.135  87.686  30.270  1.00 32.36 LIG-0.27  OA
BRANCH 41 43
ATOM     43  CA  PRO B   3      53.390  85.751  31.690  1.00 33.48 LIG 0.18  C 
ATOM     44  CB  PRO B   3      52.484  84.898  30.763  1.00 32.62 LIG 0.04  C 
ATOM     45  CG  PRO B   3      51.327  84.467  31.625  1.00 32.85 LIG 0.02  C 
ATOM     46  CD  PRO B   3      51.143  85.582  32.651  1.00 29.95 LIG 0.13  C 
ATOM     47  N   PRO B   3      52.490  86.218  32.729  1.00 33.01 LIG-0.34  N 
ATOM     48  C   LEU B   2      52.981  87.080  33.648  1.00 31.97 LIG 0.24  C 
ATOM     49 O    LEU B   2      54.174  87.387  33.740  1.00 33.64 LIG-0.27  OA
BRANCH 48 50
ATOM     50  CA  LEU B   2      51.998  87.641  34.650  1.00 32.67 LIG 0.18  C 
BRANCH 50 51
ATOM     51  N   LEU B   2      52.811  88.211  35.719  1.00 33.85 LIG-0.35  N 
ATOM     52 H    LEU B   2      53.650  88.240  35.533  1.00 33.85 LIG 0.16  HD
ATOM     53  C   GLU B   1      52.308  88.645  36.870  1.00 36.42 LIG 0.25  C 
ATOM     54 O    GLU B   1      51.094  88.854  37.023  1.00 32.31 LIG-0.27  OA
BRANCH 53 55
ATOM     55  CA  GLU B   1      53.331  88.988  37.976  1.00 35.71 LIG 0.28  C 
BRANCH 55 56
ATOM     56  CB  GLU B   1      52.738  88.589  39.332  1.00 39.23 LIG 0.05  C 
BRANCH 56 57
ATOM     57  CG  GLU B   1      53.740  88.720  40.479  1.00 48.64 LIG 0.12  C 
BRANCH 57 58
ATOM     58  CD  GLU B   1      54.230  90.145  40.767  1.00 56.94 LIG 0.17  C 
ATOM     59 OE1  GLU B   1      53.415  91.065  40.583  1.00 65.53 LIG-0.65  OA
ATOM     60 OE2  GLU B   1      55.411  90.375  41.154  1.00 53.19 LIG-0.65  OA
ENDBRANCH 57 58
ENDBRANCH 56 57
ENDBRANCH 55 56
BRANCH 55 61
ATOM     61  N   GLU B   1      53.677  90.451  37.984  1.00 36.67 LIG-0.07  N 
ATOM     62 H1   GLU B   1      53.237  90.856  38.644  1.00 36.67 LIG 0.28  HD
ATOM     63 H3   GLU B   1      53.446  90.815  37.206  1.00 36.67 LIG 0.28  HD
ATOM     64 H2   GLU B   1      54.553  90.548  38.108  1.00 36.67 LIG 0.28  HD
ENDBRANCH 55 61
ENDBRANCH 53 55
ENDBRANCH 50 51
BRANCH 50 65
ATOM     65  CB  LEU B   2      51.097  88.697  33.958  1.00 34.84 LIG 0.04  C 
BRANCH 65 66
ATOM     66  CG  LEU B   2      51.756  89.557  32.867  1.00 34.30 LIG-0.02  C 
ATOM     67  CD2 LEU B   2      51.991  91.002  33.339  1.00 39.39 LIG 0.01  C 
ATOM     68  CD1 LEU B   2      50.975  89.544  31.551  1.00 34.61 LIG 0.01  C 
ENDBRANCH 65 66
ENDBRANCH 50 65
ENDBRANCH 48 50
ENDBRANCH 41 43
ENDBRANCH 1 39
TORSDOF 28
ENDMDL
MODEL 19
USER: ADFR SOLUTION from run 74
USER: SCORE 24.119068 LL:  -5.970 LR: -19.049 RR:   0.000 FEB: -10.697
USER: RMSD 4.080896
USER: SEED 73
USER: STATUS no improvement in best in 17 clusters for 5 generations
USER: GENES 30
USER: genes 0 Translation |==|  0.53437 0.57510 0.47154
USER: genes 1 Rotation |==|  0.50578 0.48338 0.53556 0.99842
USER: genes 2 Torsion [N]-CA--C-[N] |==|  0.36568
USER: genes 3 Torsion [C]-N--CA-[C] |==|  0.80552
USER: genes 4 Torsion [N]-CA--CB-[CG2] |==|  0.58097
USER: genes 5 Torsion [N]-CA--C-[N] |==|  0.33589
USER: genes 6 Torsion [C]-N--CA-[C] |==|  0.49196
USER: genes 7 Torsion [N]-CA--C-[N] |==|  0.46936
USER: genes 8 Torsion [C]-N--CA-[CB] |==|  0.82473
USER: genes 9 Torsion [N]-CA--CB-[CG1] |==|  0.63508
USER: genes 10 Torsion [CA]-CB--CG1-[CD1] |==|  0.80711
USER: genes 11 Torsion [N]-CA--C-[OXT] |==|  0.99092
USER: genes 12 Torsion [N]-CA--CB-[CG] |==|  0.70562
USER: genes 13 Torsion [CA]-CB--CG-[CD] |==|  0.68374
USER: genes 14 Torsion [CB]-CG--CD-[CE] |==|  0.48182
USER: genes 15 Torsion [CG]-CD--CE-[NZ] |==|  0.34679
USER: genes 16 Torsion [CD]-CE--NZ-[HZ1] |==|  0.57174
USER: genes 17 Torsion [C]-CA--CB-[CG] |==|  0.38745
USER: genes 18 Torsion [CA]-CB--CG-[CD2] |==|  0.23711
USER: genes 19 Torsion [C]-CA--N-[C] |==|  0.63709
USER: genes 20 Torsion [N]-C--CA-[CB] |==|  0.03356
USER: genes 21 Torsion [N]-C--CA-[N] |==|  0.39651
USER: genes 22 Torsion [C]-CA--N-[C] |==|  0.82670
USER: genes 23 Torsion [N]-C--CA-[N] |==|  0.77806
USER: genes 24 Torsion [C]-CA--CB-[CG] |==|  0.72918
USER: genes 25 Torsion [CA]-CB--CG-[CD] |==|  0.74665
USER: genes 26 Torsion [CB]-CG--CD-[OE1] |==|  0.13699
USER: genes 27 Torsion [C]-CA--N-[H1] |==|  0.81157
USER: genes 28 Torsion [C]-CA--CB-[CG] |==|  0.48207
USER: genes 29 Torsion [CA]-CB--CG-[CD2] |==|  0.26961
ROOT
ATOM      1  CA  LEU B   4      56.361  88.016  29.920  1.00 30.07 LIG 0.18  C 
ENDROOT
BRANCH 1 2
ATOM      2  C   LEU B   4      54.884  87.825  30.151  1.00 30.58 LIG 0.24  C 
ATOM      3 O    LEU B   4      54.101  88.761  29.976  1.00 35.83 LIG-0.27  OA
ATOM      4  N   VAL B   5      54.504  86.639  30.620  1.00 32.24 LIG-0.35  N 
ATOM      5 H    VAL B   5      55.047  85.989  30.766  1.00 32.24 LIG 0.16  HD
BRANCH 4 6
ATOM      6  CA  VAL B   5      53.105  86.333  30.935  1.00 32.53 LIG 0.18  C 
BRANCH 6 7
ATOM      7  CB  VAL B   5      52.896  84.830  31.196  1.00 34.70 LIG 0.01  C 
ATOM      8  CG2 VAL B   5      51.489  84.453  30.808  1.00 38.22 LIG 0.01  C 
ATOM      9  CG1 VAL B   5      53.155  84.462  32.651  1.00 39.77 LIG 0.01  C 
ENDBRANCH 6 7
BRANCH 6 10
ATOM     10  C   VAL B   5      52.656  87.097  32.150  1.00 39.16 LIG 0.24  C 
ATOM     11 O    VAL B   5      53.248  86.988  33.232  1.00 33.69 LIG-0.27  OA
ATOM     12  N   LYS B   6      51.626  87.902  31.955  1.00 40.12 LIG-0.35  N 
ATOM     13 H    LYS B   6      51.243  88.017  31.193  1.00 40.12 LIG 0.16  HD
BRANCH 12 14
ATOM     14  CA  LYS B   6      51.055  88.664  33.024  1.00 45.41 LIG 0.18  C 
BRANCH 14 15
ATOM     15  C   LYS B   6      49.980  89.470  32.328  1.00 44.99 LIG 0.24  C 
ATOM     16 O    LYS B   6      49.895  89.456  31.117  1.00 45.85 LIG-0.27  OA
ATOM     17  N   ILE B   7      49.100  90.130  33.052  1.00 47.54 LIG-0.34  N 
ATOM     18 H    ILE B   7      49.087  90.192  33.909  1.00 47.54 LIG 0.16  HD
BRANCH 17 19
ATOM     19  CA  ILE B   7      48.032  90.833  32.319  1.00 57.67 LIG 0.19  C 
BRANCH 19 20
ATOM     20  CB  ILE B   7      48.522  91.989  31.362  1.00 59.41 LIG 0.01  C 
ATOM     21  CG2 ILE B   7      48.486  91.572  29.896  1.00 60.58 LIG 0.01  C 
BRANCH 20 22
ATOM     22  CG1 ILE B   7      47.700  93.292  31.583  1.00 65.20 LIG 0.00  C 
ATOM     23  CD1 ILE B   7      46.236  93.282  31.136  1.00 51.92 LIG 0.01  C 
ENDBRANCH 20 22
ENDBRANCH 19 20
BRANCH 19 24
ATOM     24  C   ILE B   7      47.016  89.870  31.686  1.00 61.74 LIG 0.20  C 
ATOM     25 O    ILE B   7      46.031  90.233  31.061  1.00 61.53 LIG-0.65  OA
ATOM     26 OXT  ILE B   7      47.184  88.653  31.771  1.00 68.92 LIG-0.65  OA
ENDBRANCH 19 24
ENDBRANCH 17 19
ENDBRANCH 14 15
BRANCH 14 27
ATOM     27  CB  LYS B   6      52.168  89.535  33.630  1.00 46.87 LIG 0.04  C 
BRANCH 27 28
ATOM     28  CG  LYS B   6      52.681  89.070  34.979  1.00 55.56 LIG 0.00  C 
BRANCH 28 29
ATOM     29  CD  LYS B   6      52.355  90.056  36.093  1.00 60.95 LIG 0.03  C 
BRANCH 29 30
ATOM     30  CE  LYS B   6      52.737  89.497  37.469  1.00 62.93 LIG 0.23  C 
BRANCH 30 31
ATOM     31  NZ  LYS B   6      53.653  90.414  38.215  1.00 65.77 LIG-0.08  N 
ATOM     32 HZ1  LYS B   6      54.139  89.943  38.793  1.00 65.77 LIG 0.27  HD
ATOM     33 HZ2  LYS B   6      54.194  90.826  37.640  1.00 65.77 LIG 0.27  HD
ATOM     34 HZ3  LYS B   6      53.172  91.020  38.656  1.00 65.77 LIG 0.27  HD
ENDBRANCH 30 31
ENDBRANCH 29 30
ENDBRANCH 28 29
ENDBRANCH 27 28
ENDBRANCH 14 27
ENDBRANCH 12 14
ENDBRANCH 6 10
ENDBRANCH 4 6
ENDBRANCH 1 2
BRANCH 1 35
ATOM     35  CB  LEU B   4      56.865  88.938  31.011  1.00 28.63 LIG 0.04  C 
BRANCH 35 36
ATOM     36  CG  LEU B   4      58.223  88.488  31.535  1.00 30.56 LIG-0.02  C 
ATOM     37  CD2 LEU B   4      59.303  89.064  30.645  1.00 33.80 LIG 0.01  C 
ATOM     38  CD1 LEU B   4      58.268  86.951  31.510  1.00 28.87 LIG 0.01  C 
ENDBRANCH 35 36
ENDBRANCH 1 35
BRANCH 1 39
ATOM     39  N   LEU B   4      56.780  88.585  28.619  1.00 28.62 LIG-0.35  N 
ATOM     40 H    LEU B   4      56.360  89.298  28.386  1.00 28.62 LIG 0.16  HD
ATOM     41  C   PRO B   3      57.727  88.012  27.904  1.00 33.12 LIG 0.24  C 
ATOM     42 O    PRO B   3      58.482  87.127  28.344  1.00 32.36 LIG-0.27  OA
BRANCH 41 43
ATOM     43  CA  PRO B   3      57.887  88.542  26.481  1.00 33.48 LIG 0.18  C 
ATOM     44  CB  PRO B   3      57.085  89.857  26.291  1.00 32.62 LIG 0.04  C 
ATOM     45  CG  PRO B   3      56.436  89.734  24.937  1.00 32.85 LIG 0.02  C 
ATOM     46  CD  PRO B   3      56.201  88.240  24.730  1.00 29.95 LIG 0.13  C 
ATOM     47  N   PRO B   3      57.226  87.595  25.602  1.00 33.01 LIG-0.34  N 
ATOM     48  C   LEU B   2      57.649  86.312  25.625  1.00 31.97 LIG 0.24  C 
ATOM     49 O    LEU B   2      58.647  85.923  26.241  1.00 33.64 LIG-0.27  OA
BRANCH 48 50
ATOM     50  CA  LEU B   2      56.871  85.322  24.788  1.00 32.67 LIG 0.18  C 
BRANCH 50 51
ATOM     51  N   LEU B   2      57.865  84.403  24.244  1.00 33.85 LIG-0.35  N 
ATOM     52 H    LEU B   2      57.758  83.590  24.503  1.00 33.85 LIG 0.16  HD
ATOM     53  C   GLU B   1      58.842  84.780  23.427  1.00 36.42 LIG 0.25  C 
ATOM     54 O    GLU B   1      58.831  85.878  22.847  1.00 32.31 LIG-0.27  OA
BRANCH 53 55
ATOM     55  CA  GLU B   1      59.941  83.731  23.146  1.00 35.71 LIG 0.28  C 
BRANCH 55 56
ATOM     56  CB  GLU B   1      59.276  82.363  22.957  1.00 39.23 LIG 0.05  C 
BRANCH 56 57
ATOM     57  CG  GLU B   1      59.299  81.512  24.227  1.00 48.64 LIG 0.12  C 
BRANCH 57 58
ATOM     58  CD  GLU B   1      60.513  80.584  24.376  1.00 56.94 LIG 0.17  C 
ATOM     59 OE1  GLU B   1      61.632  81.095  24.200  1.00 65.53 LIG-0.65  OA
ATOM     60 OE2  GLU B   1      60.381  79.357  24.647  1.00 53.19 LIG-0.65  OA
ENDBRANCH 57 58
ENDBRANCH 56 57
ENDBRANCH 55 56
BRANCH 55 61
ATOM     61  N   GLU B   1      60.943  83.657  24.265  1.00 36.67 LIG-0.07  N 
ATOM     62 H1   GLU B   1      61.413  84.412  24.293  1.00 36.67 LIG 0.28  HD
ATOM     63 H3   GLU B   1      61.492  82.970  24.127  1.00 36.67 LIG 0.28  HD
ATOM     64 H2   GLU B   1      60.516  83.544  25.038  1.00 36.67 LIG 0.28  HD
ENDBRANCH 55 61
ENDBRANCH 53 55
ENDBRANCH 50 51
BRANCH 50 65
ATOM     65  CB  LEU B   2      55.819  84.607  25.675  1.00 34.84 LIG 0.04  C 
BRANCH 65 66
ATOM     66  CG  LEU B   2      54.831  83.673  24.956  1.00 34.30 LIG-0.02  C 
ATOM     67  CD2 LEU B   2      55.278  82.203  25.025  1.00 39.39 LIG 0.01  C 
ATOM     68  CD1 LEU B   2      54.576  84.087  23.505  1.00 34.61 LIG 0.01  C 
ENDBRANCH 65 66
ENDBRANCH 50 65
ENDBRANCH 48 50
ENDBRANCH 41 43
ENDBRANCH 1 39
TORSDOF 28
ENDMDL
MODEL 20
USER: ADFR SOLUTION from run 92
USER: SCORE 25.225596 LL:  -6.884 LR: -19.047 RR:   0.000 FEB: -10.695
USER: RMSD 3.262672
USER: SEED 91
USER: STATUS no improvement in best in 4 clusters for 5 generations
USER: GENES 30
USER: genes 0 Translation |==|  0.57791 0.58856 0.46264
USER: genes 1 Rotation |==|  0.41746 0.46018 0.53886 0.98999
USER: genes 2 Torsion [N]-CA--C-[N] |==|  0.37430
USER: genes 3 Torsion [C]-N--CA-[C] |==|  0.63754
USER: genes 4 Torsion [N]-CA--CB-[CG2] |==|  0.29031
USER: genes 5 Torsion [N]-CA--C-[N] |==|  0.45968
USER: genes 6 Torsion [C]-N--CA-[C] |==|  0.63114
USER: genes 7 Torsion [N]-CA--C-[N] |==|  0.04690
USER: genes 8 Torsion [C]-N--CA-[CB] |==|  0.29716
USER: genes 9 Torsion [N]-CA--CB-[CG1] |==|  0.14020
USER: genes 10 Torsion [CA]-CB--CG1-[CD1] |==|  0.28792
USER: genes 11 Torsion [N]-CA--C-[OXT] |==|  0.95100
USER: genes 12 Torsion [N]-CA--CB-[CG] |==|  0.80441
USER: genes 13 Torsion [CA]-CB--CG-[CD] |==|  0.62926
USER: genes 14 Torsion [CB]-CG--CD-[CE] |==|  0.21938
USER: genes 15 Torsion [CG]-CD--CE-[NZ] |==|  0.39957
USER: genes 16 Torsion [CD]-CE--NZ-[HZ1] |==|  0.86514
USER: genes 17 Torsion [C]-CA--CB-[CG] |==|  0.29274
USER: genes 18 Torsion [CA]-CB--CG-[CD2] |==|  0.37244
USER: genes 19 Torsion [C]-CA--N-[C] |==|  0.86667
USER: genes 20 Torsion [N]-C--CA-[CB] |==|  0.80590
USER: genes 21 Torsion [N]-C--CA-[N] |==|  0.38837
USER: genes 22 Torsion [C]-CA--N-[C] |==|  0.64234
USER: genes 23 Torsion [N]-C--CA-[N] |==|  0.00116
USER: genes 24 Torsion [C]-CA--CB-[CG] |==|  0.80408
USER: genes 25 Torsion [CA]-CB--CG-[CD] |==|  0.75482
USER: genes 26 Torsion [CB]-CG--CD-[OE1] |==|  0.16675
USER: genes 27 Torsion [C]-CA--N-[H1] |==|  0.81022
USER: genes 28 Torsion [C]-CA--CB-[CG] |==|  0.47252
USER: genes 29 Torsion [CA]-CB--CG-[CD2] |==|  0.21552
ROOT
ATOM      1  CA  LEU B   4      57.275  88.319  29.693  1.00 30.07 LIG 0.18  C 
ENDROOT
BRANCH 1 2
ATOM      2  C   LEU B   4      55.778  88.183  29.802  1.00 30.58 LIG 0.24  C 
ATOM      3 O    LEU B   4      55.037  88.951  29.183  1.00 35.83 LIG-0.27  OA
ATOM      4  N   VAL B   5      55.324  87.261  30.647  1.00 32.24 LIG-0.35  N 
ATOM      5 H    VAL B   5      55.835  86.738  31.099  1.00 32.24 LIG 0.16  HD
BRANCH 4 6
ATOM      6  CA  VAL B   5      53.892  87.054  30.886  1.00 32.53 LIG 0.18  C 
BRANCH 6 7
ATOM      7  CB  VAL B   5      53.395  85.737  30.264  1.00 34.70 LIG 0.01  C 
ATOM      8  CG2 VAL B   5      53.199  84.718  31.357  1.00 38.22 LIG 0.01  C 
ATOM      9  CG1 VAL B   5      54.362  85.201  29.216  1.00 39.77 LIG 0.01  C 
ENDBRANCH 6 7
BRANCH 6 10
ATOM     10  C   VAL B   5      53.601  87.028  32.362  1.00 39.16 LIG 0.24  C 
ATOM     11 O    VAL B   5      54.513  86.935  33.194  1.00 33.69 LIG-0.27  OA
ATOM     12  N   LYS B   6      52.323  87.148  32.681  1.00 40.12 LIG-0.35  N 
ATOM     13 H    LYS B   6      51.693  87.262  32.107  1.00 40.12 LIG 0.16  HD
BRANCH 12 14
ATOM     14  CA  LYS B   6      51.882  87.097  34.042  1.00 45.41 LIG 0.18  C 
BRANCH 14 15
ATOM     15  C   LYS B   6      50.710  86.141  33.981  1.00 44.99 LIG 0.24  C 
ATOM     16 O    LYS B   6      49.876  86.142  34.863  1.00 45.85 LIG-0.27  OA
ATOM     17  N   ILE B   7      50.571  85.360  32.931  1.00 47.54 LIG-0.34  N 
ATOM     18 H    ILE B   7      51.112  85.298  32.265  1.00 47.54 LIG 0.16  HD
BRANCH 17 19
ATOM     19  CA  ILE B   7      49.370  84.507  32.892  1.00 57.67 LIG 0.19  C 
BRANCH 19 20
ATOM     20  CB  ILE B   7      48.262  84.955  31.860  1.00 59.41 LIG 0.01  C 
ATOM     21  CG2 ILE B   7      47.502  86.189  32.334  1.00 60.58 LIG 0.01  C 
BRANCH 20 22
ATOM     22  CG1 ILE B   7      48.868  85.193  30.447  1.00 65.20 LIG 0.00  C 
ATOM     23  CD1 ILE B   7      48.627  84.112  29.389  1.00 51.92 LIG 0.01  C 
ENDBRANCH 20 22
ENDBRANCH 19 20
BRANCH 19 24
ATOM     24  C   ILE B   7      49.709  83.009  32.852  1.00 61.74 LIG 0.20  C 
ATOM     25 O    ILE B   7      48.906  82.122  33.099  1.00 61.53 LIG-0.65  OA
ATOM     26 OXT  ILE B   7      50.839  82.641  32.531  1.00 68.92 LIG-0.65  OA
ENDBRANCH 19 24
ENDBRANCH 17 19
ENDBRANCH 14 15
BRANCH 14 27
ATOM     27  CB  LYS B   6      51.480  88.521  34.462  1.00 46.87 LIG 0.04  C 
BRANCH 27 28
ATOM     28  CG  LYS B   6      52.634  89.492  34.617  1.00 55.56 LIG 0.00  C 
BRANCH 28 29
ATOM     29  CD  LYS B   6      52.541  90.299  35.905  1.00 60.95 LIG 0.03  C 
BRANCH 29 30
ATOM     30  CE  LYS B   6      53.014  89.485  37.115  1.00 62.93 LIG 0.23  C 
BRANCH 30 31
ATOM     31  NZ  LYS B   6      53.741  90.329  38.113  1.00 65.77 LIG-0.08  N 
ATOM     32 HZ1  LYS B   6      54.353  90.821  37.695  1.00 65.77 LIG 0.27  HD
ATOM     33 HZ2  LYS B   6      53.162  90.864  38.527  1.00 65.77 LIG 0.27  HD
ATOM     34 HZ3  LYS B   6      54.140  89.804  38.711  1.00 65.77 LIG 0.27  HD
ENDBRANCH 30 31
ENDBRANCH 29 30
ENDBRANCH 28 29
ENDBRANCH 27 28
ENDBRANCH 14 27
ENDBRANCH 12 14
ENDBRANCH 6 10
ENDBRANCH 4 6
ENDBRANCH 1 2
BRANCH 1 35
ATOM     35  CB  LEU B   4      57.664  89.568  30.456  1.00 28.63 LIG 0.04  C 
BRANCH 35 36
ATOM     36  CG  LEU B   4      58.317  89.224  31.789  1.00 30.56 LIG-0.02  C 
ATOM     37  CD2 LEU B   4      59.557  90.075  31.958  1.00 33.80 LIG 0.01  C 
ATOM     38  CD1 LEU B   4      58.687  87.731  31.777  1.00 28.87 LIG 0.01  C 
ENDBRANCH 35 36
ENDBRANCH 1 35
BRANCH 1 39
ATOM     39  N   LEU B   4      57.854  88.422  28.334  1.00 28.62 LIG-0.35  N 
ATOM     40 H    LEU B   4      58.423  89.059  28.232  1.00 28.62 LIG 0.16  HD
ATOM     41  C   PRO B   3      57.498  87.583  27.382  1.00 33.12 LIG 0.24  C 
ATOM     42 O    PRO B   3      56.860  86.536  27.591  1.00 32.36 LIG-0.27  OA
BRANCH 41 43
ATOM     43  CA  PRO B   3      57.966  87.949  25.976  1.00 33.48 LIG 0.18  C 
ATOM     44  CB  PRO B   3      57.211  89.200  25.453  1.00 32.62 LIG 0.04  C 
ATOM     45  CG  PRO B   3      56.883  88.894  24.015  1.00 32.85 LIG 0.02  C 
ATOM     46  CD  PRO B   3      56.720  87.378  23.946  1.00 29.95 LIG 0.13  C 
ATOM     47  N   PRO B   3      57.531  86.880  25.095  1.00 33.01 LIG-0.34  N 
ATOM     48  C   LEU B   2      57.955  85.626  25.368  1.00 31.97 LIG 0.24  C 
ATOM     49 O    LEU B   2      58.794  85.353  26.232  1.00 33.64 LIG-0.27  OA
BRANCH 48 50
ATOM     50  CA  LEU B   2      57.397  84.515  24.508  1.00 32.67 LIG 0.18  C 
BRANCH 50 51
ATOM     51  N   LEU B   2      58.517  83.616  24.255  1.00 33.85 LIG-0.35  N 
ATOM     52 H    LEU B   2      58.933  83.377  24.969  1.00 33.85 LIG 0.16  HD
ATOM     53  C   GLU B   1      58.866  83.203  23.041  1.00 36.42 LIG 0.25  C 
ATOM     54 O    GLU B   1      58.113  83.325  22.061  1.00 32.31 LIG-0.27  OA
BRANCH 53 55
ATOM     55  CA  GLU B   1      60.215  82.457  22.934  1.00 35.71 LIG 0.28  C 
BRANCH 55 56
ATOM     56  CB  GLU B   1      59.959  81.063  22.350  1.00 39.23 LIG 0.05  C 
BRANCH 56 57
ATOM     57  CG  GLU B   1      59.231  80.137  23.323  1.00 48.64 LIG 0.12  C 
BRANCH 57 58
ATOM     58  CD  GLU B   1      60.135  79.335  24.270  1.00 56.94 LIG 0.17  C 
ATOM     59 OE1  GLU B   1      60.868  79.989  25.032  1.00 65.53 LIG-0.65  OA
ATOM     60 OE2  GLU B   1      60.147  78.072  24.265  1.00 53.19 LIG-0.65  OA
ENDBRANCH 57 58
ENDBRANCH 56 57
ENDBRANCH 55 56
BRANCH 55 61
ATOM     61  N   GLU B   1      60.891  82.330  24.271  1.00 36.67 LIG-0.07  N 
ATOM     62 H1   GLU B   1      61.154  83.133  24.549  1.00 36.67 LIG 0.28  HD
ATOM     63 H3   GLU B   1      61.599  81.795  24.197  1.00 36.67 LIG 0.28  HD
ATOM     64 H2   GLU B   1      60.320  81.984  24.860  1.00 36.67 LIG 0.28  HD
ENDBRANCH 55 61
ENDBRANCH 53 55
ENDBRANCH 50 51
BRANCH 50 65
ATOM     65  CB  LEU B   2      56.229  83.819  25.254  1.00 34.84 LIG 0.04  C 
BRANCH 65 66
ATOM     66  CG  LEU B   2      55.389  82.821  24.439  1.00 34.30 LIG-0.02  C 
ATOM     67  CD2 LEU B   2      56.108  81.471  24.269  1.00 39.39 LIG 0.01  C 
ATOM     68  CD1 LEU B   2      54.966  83.376  23.078  1.00 34.61 LIG 0.01  C 
ENDBRANCH 65 66
ENDBRANCH 50 65
ENDBRANCH 48 50
ENDBRANCH 41 43
ENDBRANCH 1 39
TORSDOF 28
ENDMDL
MODEL 21
USER: ADFR SOLUTION from run 200
USER: SCORE 23.873471 LL:  -6.232 LR: -19.031 RR:   0.000 FEB: -10.678
USER: RMSD 12.704013
USER: SEED 199
USER: STATUS no improvement in best in 3 clusters for 5 generations
USER: GENES 30
USER: genes 0 Translation |==|  0.49683 0.52522 0.44872
USER: genes 1 Rotation |==|  0.81693 0.75270 0.79148 0.52718
USER: genes 2 Torsion [N]-CA--C-[N] |==|  0.31430
USER: genes 3 Torsion [C]-N--CA-[C] |==|  0.19841
USER: genes 4 Torsion [N]-CA--CB-[CG2] |==|  0.86024
USER: genes 5 Torsion [N]-CA--C-[N] |==|  0.42001
USER: genes 6 Torsion [C]-N--CA-[C] |==|  0.65749
USER: genes 7 Torsion [N]-CA--C-[N] |==|  0.45551
USER: genes 8 Torsion [C]-N--CA-[CB] |==|  0.38964
USER: genes 9 Torsion [N]-CA--CB-[CG1] |==|  0.05085
USER: genes 10 Torsion [CA]-CB--CG1-[CD1] |==|  0.34886
USER: genes 11 Torsion [N]-CA--C-[OXT] |==|  0.78890
USER: genes 12 Torsion [N]-CA--CB-[CG] |==|  0.79775
USER: genes 13 Torsion [CA]-CB--CG-[CD] |==|  0.58771
USER: genes 14 Torsion [CB]-CG--CD-[CE] |==|  0.30466
USER: genes 15 Torsion [CG]-CD--CE-[NZ] |==|  0.40094
USER: genes 16 Torsion [CD]-CE--NZ-[HZ1] |==|  0.45121
USER: genes 17 Torsion [C]-CA--CB-[CG] |==|  0.33759
USER: genes 18 Torsion [CA]-CB--CG-[CD2] |==|  0.63600
USER: genes 19 Torsion [C]-CA--N-[C] |==|  0.65910
USER: genes 20 Torsion [N]-C--CA-[CB] |==|  0.66428
USER: genes 21 Torsion [N]-C--CA-[N] |==|  0.37110
USER: genes 22 Torsion [C]-CA--N-[C] |==|  0.83597
USER: genes 23 Torsion [N]-C--CA-[N] |==|  0.17727
USER: genes 24 Torsion [C]-CA--CB-[CG] |==|  0.39326
USER: genes 25 Torsion [CA]-CB--CG-[CD] |==|  0.21551
USER: genes 26 Torsion [CB]-CG--CD-[OE1] |==|  0.91923
USER: genes 27 Torsion [C]-CA--N-[H1] |==|  0.17588
USER: genes 28 Torsion [C]-CA--CB-[CG] |==|  0.47468
USER: genes 29 Torsion [CA]-CB--CG-[CD2] |==|  0.52492
ROOT
ATOM      1  CA  LEU B   4      55.572  86.893  29.338  1.00 30.07 LIG 0.18  C 
ENDROOT
BRANCH 1 2
ATOM      2  C   LEU B   4      56.130  86.018  28.246  1.00 30.58 LIG 0.24  C 
ATOM      3 O    LEU B   4      57.005  85.187  28.500  1.00 35.83 LIG-0.27  OA
ATOM      4  N   VAL B   5      55.689  86.252  27.012  1.00 32.24 LIG-0.35  N 
ATOM      5 H    VAL B   5      55.096  86.846  26.824  1.00 32.24 LIG 0.16  HD
BRANCH 4 6
ATOM      6  CA  VAL B   5      56.181  85.508  25.849  1.00 32.53 LIG 0.18  C 
BRANCH 6 7
ATOM      7  CB  VAL B   5      57.720  85.470  25.807  1.00 34.70 LIG 0.01  C 
ATOM      8  CG2 VAL B   5      58.253  86.870  25.972  1.00 38.22 LIG 0.01  C 
ATOM      9  CG1 VAL B   5      58.240  84.860  24.511  1.00 39.77 LIG 0.01  C 
ENDBRANCH 6 7
BRANCH 6 10
ATOM     10  C   VAL B   5      55.667  84.095  25.869  1.00 39.16 LIG 0.24  C 
ATOM     11 O    VAL B   5      55.374  83.534  26.932  1.00 33.69 LIG-0.27  OA
ATOM     12  N   LYS B   6      55.524  83.536  24.679  1.00 40.12 LIG-0.35  N 
ATOM     13 H    LYS B   6      55.681  83.940  23.936  1.00 40.12 LIG 0.16  HD
BRANCH 12 14
ATOM     14  CA  LYS B   6      55.086  82.180  24.534  1.00 45.41 LIG 0.18  C 
BRANCH 14 15
ATOM     15  C   LYS B   6      56.204  81.548  23.733  1.00 44.99 LIG 0.24  C 
ATOM     16 O    LYS B   6      57.041  82.246  23.200  1.00 45.85 LIG-0.27  OA
ATOM     17  N   ILE B   7      56.295  80.236  23.681  1.00 47.54 LIG-0.34  N 
ATOM     18 H    ILE B   7      55.749  79.671  24.030  1.00 47.54 LIG 0.16  HD
BRANCH 17 19
ATOM     19  CA  ILE B   7      57.449  79.680  22.951  1.00 57.67 LIG 0.19  C 
BRANCH 19 20
ATOM     20  CB  ILE B   7      58.115  78.412  23.616  1.00 59.41 LIG 0.01  C 
ATOM     21  CG2 ILE B   7      59.454  78.743  24.266  1.00 60.58 LIG 0.01  C 
BRANCH 20 22
ATOM     22  CG1 ILE B   7      57.157  77.742  24.642  1.00 65.20 LIG 0.00  C 
ATOM     23  CD1 ILE B   7      56.860  76.251  24.455  1.00 51.92 LIG 0.01  C 
ENDBRANCH 20 22
ENDBRANCH 19 20
BRANCH 19 24
ATOM     24  C   ILE B   7      57.186  79.544  21.444  1.00 61.74 LIG 0.20  C 
ATOM     25 O    ILE B   7      57.663  80.286  20.599  1.00 61.53 LIG-0.65  OA
ATOM     26 OXT  ILE B   7      56.477  78.630  21.021  1.00 68.92 LIG-0.65  OA
ENDBRANCH 19 24
ENDBRANCH 17 19
ENDBRANCH 14 15
BRANCH 14 27
ATOM     27  CB  LYS B   6      53.741  82.196  23.788  1.00 46.87 LIG 0.04  C 
BRANCH 27 28
ATOM     28  CG  LYS B   6      52.563  82.691  24.603  1.00 55.56 LIG 0.00  C 
BRANCH 28 29
ATOM     29  CD  LYS B   6      51.257  82.023  24.198  1.00 60.95 LIG 0.03  C 
BRANCH 29 30
ATOM     30  CE  LYS B   6      50.756  81.061  25.282  1.00 62.93 LIG 0.23  C 
BRANCH 30 31
ATOM     31  NZ  LYS B   6      49.264  81.057  25.387  1.00 65.77 LIG-0.08  N 
ATOM     32 HZ1  LYS B   6      48.999  80.329  25.825  1.00 65.77 LIG 0.27  HD
ATOM     33 HZ2  LYS B   6      48.995  81.782  25.828  1.00 65.77 LIG 0.27  HD
ATOM     34 HZ3  LYS B   6      48.909  81.058  24.571  1.00 65.77 LIG 0.27  HD
ENDBRANCH 30 31
ENDBRANCH 29 30
ENDBRANCH 28 29
ENDBRANCH 27 28
ENDBRANCH 14 27
ENDBRANCH 12 14
ENDBRANCH 6 10
ENDBRANCH 4 6
ENDBRANCH 1 2
BRANCH 1 35
ATOM     35  CB  LEU B   4      56.754  87.508  30.061  1.00 28.63 LIG 0.04  C 
BRANCH 35 36
ATOM     36  CG  LEU B   4      56.700  89.030  30.018  1.00 30.56 LIG-0.02  C 
ATOM     37  CD2 LEU B   4      58.051  89.552  29.576  1.00 33.80 LIG 0.01  C 
ATOM     38  CD1 LEU B   4      56.359  89.544  31.426  1.00 28.87 LIG 0.01  C 
ENDBRANCH 35 36
ENDBRANCH 1 35
BRANCH 1 39
ATOM     39  N   LEU B   4      54.708  86.250  30.354  1.00 28.62 LIG-0.35  N 
ATOM     40 H    LEU B   4      55.073  85.596  30.776  1.00 28.62 LIG 0.16  HD
ATOM     41  C   PRO B   3      53.478  86.676  30.563  1.00 33.12 LIG 0.24  C 
ATOM     42 O    PRO B   3      53.038  87.752  30.121  1.00 32.36 LIG-0.27  OA
BRANCH 41 43
ATOM     43  CA  PRO B   3      52.612  85.777  31.442  1.00 33.48 LIG 0.18  C 
ATOM     44  CB  PRO B   3      51.346  85.311  30.674  1.00 32.62 LIG 0.04  C 
ATOM     45  CG  PRO B   3      50.219  85.414  31.667  1.00 32.85 LIG 0.02  C 
ATOM     46  CD  PRO B   3      50.602  86.556  32.604  1.00 29.95 LIG 0.13  C 
ATOM     47  N   PRO B   3      52.090  86.609  32.510  1.00 33.01 LIG-0.34  N 
ATOM     48  C   LEU B   2      52.979  87.246  33.305  1.00 31.97 LIG 0.24  C 
ATOM     49 O    LEU B   2      54.199  87.059  33.266  1.00 33.64 LIG-0.27  OA
BRANCH 48 50
ATOM     50  CA  LEU B   2      52.414  88.196  34.336  1.00 32.67 LIG 0.18  C 
BRANCH 50 51
ATOM     51  N   LEU B   2      53.110  87.885  35.579  1.00 33.85 LIG-0.35  N 
ATOM     52 H    LEU B   2      53.541  88.552  35.907  1.00 33.85 LIG 0.16  HD
ATOM     53  C   GLU B   1      53.085  86.686  36.153  1.00 36.42 LIG 0.25  C 
ATOM     54 O    GLU B   1      52.256  85.819  35.833  1.00 32.31 LIG-0.27  OA
BRANCH 53 55
ATOM     55  CA  GLU B   1      54.070  86.468  37.323  1.00 35.71 LIG 0.28  C 
BRANCH 55 56
ATOM     56  CB  GLU B   1      53.984  85.004  37.769  1.00 39.23 LIG 0.05  C 
BRANCH 56 57
ATOM     57  CG  GLU B   1      55.345  84.419  38.145  1.00 48.64 LIG 0.12  C 
BRANCH 57 58
ATOM     58  CD  GLU B   1      55.879  84.827  39.525  1.00 56.94 LIG 0.17  C 
ATOM     59 OE1  GLU B   1      55.523  85.937  39.956  1.00 65.53 LIG-0.65  OA
ATOM     60 OE2  GLU B   1      56.657  84.081  40.183  1.00 53.19 LIG-0.65  OA
ENDBRANCH 57 58
ENDBRANCH 56 57
ENDBRANCH 55 56
BRANCH 55 61
ATOM     61  N   GLU B   1      53.764  87.370  38.486  1.00 36.67 LIG-0.07  N 
ATOM     62 H1   GLU B   1      52.959  87.174  38.811  1.00 36.67 LIG 0.28  HD
ATOM     63 H3   GLU B   1      53.775  88.218  38.216  1.00 36.67 LIG 0.28  HD
ATOM     64 H2   GLU B   1      54.377  87.254  39.121  1.00 36.67 LIG 0.28  HD
ENDBRANCH 55 61
ENDBRANCH 53 55
ENDBRANCH 50 51
BRANCH 50 65
ATOM     65  CB  LEU B   2      52.642  89.659  33.874  1.00 34.84 LIG 0.04  C 
BRANCH 65 66
ATOM     66  CG  LEU B   2      51.943  90.757  34.692  1.00 34.30 LIG-0.02  C 
ATOM     67  CD2 LEU B   2      52.058  92.135  34.018  1.00 39.39 LIG 0.01  C 
ATOM     68  CD1 LEU B   2      52.439  90.825  36.137  1.00 34.61 LIG 0.01  C 
ENDBRANCH 65 66
ENDBRANCH 50 65
ENDBRANCH 48 50
ENDBRANCH 41 43
ENDBRANCH 1 39
TORSDOF 28
ENDMDL
MODEL 22
USER: ADFR SOLUTION from run 73
USER: SCORE 23.575398 LL:  -5.767 LR: -19.000 RR:   0.000 FEB: -10.647
USER: RMSD 6.839018
USER: SEED 72
USER: STATUS no improvement in best in 9 clusters for 5 generations
USER: GENES 30
USER: genes 0 Translation |==|  0.48882 0.46113 0.33107
USER: genes 1 Rotation |==|  0.74769 0.67782 0.16911 0.71804
USER: genes 2 Torsion [N]-CA--C-[N] |==|  0.18937
USER: genes 3 Torsion [C]-N--CA-[C] |==|  0.67394
USER: genes 4 Torsion [N]-CA--CB-[CG2] |==|  0.79443
USER: genes 5 Torsion [N]-CA--C-[N] |==|  0.28967
USER: genes 6 Torsion [C]-N--CA-[C] |==|  0.53342
USER: genes 7 Torsion [N]-CA--C-[N] |==|  0.48646
USER: genes 8 Torsion [C]-N--CA-[CB] |==|  0.33236
USER: genes 9 Torsion [N]-CA--CB-[CG1] |==|  0.78469
USER: genes 10 Torsion [CA]-CB--CG1-[CD1] |==|  0.28949
USER: genes 11 Torsion [N]-CA--C-[OXT] |==|  0.31821
USER: genes 12 Torsion [N]-CA--CB-[CG] |==|  0.36656
USER: genes 13 Torsion [CA]-CB--CG-[CD] |==|  0.73893
USER: genes 14 Torsion [CB]-CG--CD-[CE] |==|  0.73580
USER: genes 15 Torsion [CG]-CD--CE-[NZ] |==|  0.51185
USER: genes 16 Torsion [CD]-CE--NZ-[HZ1] |==|  0.92251
USER: genes 17 Torsion [C]-CA--CB-[CG] |==|  0.36178
USER: genes 18 Torsion [CA]-CB--CG-[CD2] |==|  0.49916
USER: genes 19 Torsion [C]-CA--N-[C] |==|  0.77140
USER: genes 20 Torsion [N]-C--CA-[CB] |==|  0.72341
USER: genes 21 Torsion [N]-C--CA-[N] |==|  0.16516
USER: genes 22 Torsion [C]-CA--N-[C] |==|  0.16122
USER: genes 23 Torsion [N]-C--CA-[N] |==|  0.03307
USER: genes 24 Torsion [C]-CA--CB-[CG] |==|  0.24676
USER: genes 25 Torsion [CA]-CB--CG-[CD] |==|  0.57974
USER: genes 26 Torsion [CB]-CG--CD-[OE1] |==|  0.66367
USER: genes 27 Torsion [C]-CA--N-[H1] |==|  0.55465
USER: genes 28 Torsion [C]-CA--CB-[CG] |==|  0.26769
USER: genes 29 Torsion [CA]-CB--CG-[CD2] |==|  0.21484
ROOT
ATOM      1  CA  LEU B   4      55.404  85.451  26.338  1.00 30.07 LIG 0.18  C 
ENDROOT
BRANCH 1 2
ATOM      2  C   LEU B   4      55.503  85.474  27.842  1.00 30.58 LIG 0.24  C 
ATOM      3 O    LEU B   4      55.922  84.488  28.452  1.00 35.83 LIG-0.27  OA
ATOM      4  N   VAL B   5      55.046  86.564  28.452  1.00 32.24 LIG-0.35  N 
ATOM      5 H    VAL B   5      54.731  87.246  28.034  1.00 32.24 LIG 0.16  HD
BRANCH 4 6
ATOM      6  CA  VAL B   5      55.037  86.700  29.912  1.00 32.53 LIG 0.18  C 
BRANCH 6 7
ATOM      7  CB  VAL B   5      55.847  87.925  30.375  1.00 34.70 LIG 0.01  C 
ATOM      8  CG2 VAL B   5      57.318  87.628  30.228  1.00 38.22 LIG 0.01  C 
ATOM      9  CG1 VAL B   5      55.531  88.307  31.815  1.00 39.77 LIG 0.01  C 
ENDBRANCH 6 7
BRANCH 6 10
ATOM     10  C   VAL B   5      53.629  86.837  30.422  1.00 39.16 LIG 0.24  C 
ATOM     11 O    VAL B   5      52.991  87.886  30.271  1.00 33.69 LIG-0.27  OA
ATOM     12  N   LYS B   6      53.135  85.752  30.996  1.00 40.12 LIG-0.35  N 
ATOM     13 H    LYS B   6      53.559  85.006  31.058  1.00 40.12 LIG 0.16  HD
BRANCH 12 14
ATOM     14  CA  LYS B   6      51.824  85.738  31.570  1.00 45.41 LIG 0.18  C 
BRANCH 14 15
ATOM     15  C   LYS B   6      51.813  84.443  32.354  1.00 44.99 LIG 0.24  C 
ATOM     16 O    LYS B   6      52.784  83.715  32.341  1.00 45.85 LIG-0.27  OA
ATOM     17  N   ILE B   7      50.769  84.152  33.101  1.00 47.54 LIG-0.34  N 
ATOM     18 H    ILE B   7      50.045  84.611  33.168  1.00 47.54 LIG 0.16  HD
BRANCH 17 19
ATOM     19  CA  ILE B   7      50.849  82.917  33.901  1.00 57.67 LIG 0.19  C 
BRANCH 19 20
ATOM     20  CB  ILE B   7      50.732  83.120  35.463  1.00 59.41 LIG 0.01  C 
ATOM     21  CG2 ILE B   7      50.287  81.846  36.174  1.00 60.58 LIG 0.01  C 
BRANCH 20 22
ATOM     22  CG1 ILE B   7      52.066  83.648  36.065  1.00 65.20 LIG 0.00  C 
ATOM     23  CD1 ILE B   7      52.124  85.129  36.450  1.00 51.92 LIG 0.01  C 
ENDBRANCH 20 22
ENDBRANCH 19 20
BRANCH 19 24
ATOM     24  C   ILE B   7      49.970  81.790  33.339  1.00 61.74 LIG 0.20  C 
ATOM     25 O    ILE B   7      48.751  81.844  33.272  1.00 61.53 LIG-0.65  OA
ATOM     26 OXT  ILE B   7      50.490  80.765  32.896  1.00 68.92 LIG-0.65  OA
ENDBRANCH 19 24
ENDBRANCH 17 19
ENDBRANCH 14 15
BRANCH 14 27
ATOM     27  CB  LYS B   6      50.804  85.756  30.418  1.00 46.87 LIG 0.04  C 
BRANCH 27 28
ATOM     28  CG  LYS B   6      49.695  84.728  30.530  1.00 55.56 LIG 0.00  C 
BRANCH 28 29
ATOM     29  CD  LYS B   6      50.018  83.444  29.778  1.00 60.95 LIG 0.03  C 
BRANCH 29 30
ATOM     30  CE  LYS B   6      49.417  83.451  28.368  1.00 62.93 LIG 0.23  C 
BRANCH 30 31
ATOM     31  NZ  LYS B   6      49.639  82.155  27.654  1.00 65.77 LIG-0.08  N 
ATOM     32 HZ1  LYS B   6      50.380  81.770  27.962  1.00 65.77 LIG 0.27  HD
ATOM     33 HZ2  LYS B   6      48.945  81.616  27.795  1.00 65.77 LIG 0.27  HD
ATOM     34 HZ3  LYS B   6      49.724  82.307  26.781  1.00 65.77 LIG 0.27  HD
ENDBRANCH 30 31
ENDBRANCH 29 30
ENDBRANCH 28 29
ENDBRANCH 27 28
ENDBRANCH 14 27
ENDBRANCH 12 14
ENDBRANCH 6 10
ENDBRANCH 4 6
ENDBRANCH 1 2
BRANCH 1 35
ATOM     35  CB  LEU B   4      55.758  84.048  25.891  1.00 28.63 LIG 0.04  C 
BRANCH 35 36
ATOM     36  CG  LEU B   4      54.717  83.494  24.926  1.00 30.56 LIG-0.02  C 
ATOM     37  CD2 LEU B   4      55.130  82.098  24.512  1.00 33.80 LIG 0.01  C 
ATOM     38  CD1 LEU B   4      54.648  84.421  23.701  1.00 28.87 LIG 0.01  C 
ENDBRANCH 35 36
ENDBRANCH 1 35
BRANCH 1 39
ATOM     39  N   LEU B   4      56.261  86.395  25.584  1.00 28.62 LIG-0.35  N 
ATOM     40 H    LEU B   4      56.991  86.055  25.281  1.00 28.62 LIG 0.16  HD
ATOM     41  C   PRO B   3      55.897  87.650  25.412  1.00 33.12 LIG 0.24  C 
ATOM     42 O    PRO B   3      54.752  88.072  25.648  1.00 32.36 LIG-0.27  OA
BRANCH 41 43
ATOM     43  CA  PRO B   3      56.973  88.574  24.847  1.00 33.48 LIG 0.18  C 
ATOM     44  CB  PRO B   3      57.640  89.399  25.979  1.00 32.62 LIG 0.04  C 
ATOM     45  CG  PRO B   3      57.785  90.792  25.423  1.00 32.85 LIG 0.02  C 
ATOM     46  CD  PRO B   3      56.625  90.965  24.446  1.00 29.95 LIG 0.13  C 
ATOM     47  N   PRO B   3      56.291  89.569  24.039  1.00 33.01 LIG-0.34  N 
ATOM     48  C   LEU B   2      55.527  89.133  23.013  1.00 31.97 LIG 0.24  C 
ATOM     49 O    LEU B   2      55.481  87.958  22.636  1.00 33.64 LIG-0.27  OA
BRANCH 48 50
ATOM     50  CA  LEU B   2      54.736  90.178  22.259  1.00 32.67 LIG 0.18  C 
BRANCH 50 51
ATOM     51  N   LEU B   2      55.724  91.112  21.732  1.00 33.85 LIG-0.35  N 
ATOM     52 H    LEU B   2      55.602  91.923  21.992  1.00 33.85 LIG 0.16  HD
ATOM     53  C   GLU B   1      56.718  90.752  20.928  1.00 36.42 LIG 0.25  C 
ATOM     54 O    GLU B   1      57.050  89.564  20.779  1.00 32.31 LIG-0.27  OA
BRANCH 53 55
ATOM     55  CA  GLU B   1      57.519  91.900  20.273  1.00 35.71 LIG 0.28  C 
BRANCH 55 56
ATOM     56  CB  GLU B   1      59.015  91.604  20.427  1.00 39.23 LIG 0.05  C 
BRANCH 56 57
ATOM     57  CG  GLU B   1      59.576  90.774  19.273  1.00 48.64 LIG 0.12  C 
BRANCH 57 58
ATOM     58  CD  GLU B   1      60.773  89.880  19.626  1.00 56.94 LIG 0.17  C 
ATOM     59 OE1  GLU B   1      61.824  90.077  18.992  1.00 65.53 LIG-0.65  OA
ATOM     60 OE2  GLU B   1      60.690  88.977  20.505  1.00 53.19 LIG-0.65  OA
ENDBRANCH 57 58
ENDBRANCH 56 57
ENDBRANCH 55 56
BRANCH 55 61
ATOM     61  N   GLU B   1      57.199  93.230  20.896  1.00 36.67 LIG-0.07  N 
ATOM     62 H1   GLU B   1      57.436  93.883  20.340  1.00 36.67 LIG 0.28  HD
ATOM     63 H3   GLU B   1      57.646  93.316  21.661  1.00 36.67 LIG 0.28  HD
ATOM     64 H2   GLU B   1      56.325  93.280  21.057  1.00 36.67 LIG 0.28  HD
ENDBRANCH 55 61
ENDBRANCH 53 55
ENDBRANCH 50 51
BRANCH 50 65
ATOM     65  CB  LEU B   2      53.906  89.494  21.142  1.00 34.84 LIG 0.04  C 
BRANCH 65 66
ATOM     66  CG  LEU B   2      52.441  89.166  21.475  1.00 34.30 LIG-0.02  C 
ATOM     67  CD2 LEU B   2      51.545  90.415  21.408  1.00 39.39 LIG 0.01  C 
ATOM     68  CD1 LEU B   2      52.283  88.467  22.827  1.00 34.61 LIG 0.01  C 
ENDBRANCH 65 66
ENDBRANCH 50 65
ENDBRANCH 48 50
ENDBRANCH 41 43
ENDBRANCH 1 39
TORSDOF 28
ENDMDL
MODEL 23
USER: ADFR SOLUTION from run 200
USER: SCORE 23.675994 LL:  -6.497 LR: -19.004 RR:   0.000 FEB: -10.652
USER: RMSD 13.035118
USER: SEED 199
USER: STATUS no improvement in best in 3 clusters for 5 generations
USER: GENES 30
USER: genes 0 Translation |==|  0.54343 0.56774 0.46482
USER: genes 1 Rotation |==|  0.15385 0.31702 0.18984 0.52242
USER: genes 2 Torsion [N]-CA--C-[N] |==|  0.21644
USER: genes 3 Torsion [C]-N--CA-[C] |==|  0.15733
USER: genes 4 Torsion [N]-CA--CB-[CG2] |==|  0.92234
USER: genes 5 Torsion [N]-CA--C-[N] |==|  0.54685
USER: genes 6 Torsion [C]-N--CA-[C] |==|  0.65707
USER: genes 7 Torsion [N]-CA--C-[N] |==|  0.65609
USER: genes 8 Torsion [C]-N--CA-[CB] |==|  0.32072
USER: genes 9 Torsion [N]-CA--CB-[CG1] |==|  0.88099
USER: genes 10 Torsion [CA]-CB--CG1-[CD1] |==|  0.23006
USER: genes 11 Torsion [N]-CA--C-[OXT] |==|  0.89583
USER: genes 12 Torsion [N]-CA--CB-[CG] |==|  0.70166
USER: genes 13 Torsion [CA]-CB--CG-[CD] |==|  0.46728
USER: genes 14 Torsion [CB]-CG--CD-[CE] |==|  0.21900
USER: genes 15 Torsion [CG]-CD--CE-[NZ] |==|  0.38185
USER: genes 16 Torsion [CD]-CE--NZ-[HZ1] |==|  0.72697
USER: genes 17 Torsion [C]-CA--CB-[CG] |==|  0.34491
USER: genes 18 Torsion [CA]-CB--CG-[CD2] |==|  0.06702
USER: genes 19 Torsion [C]-CA--N-[C] |==|  0.77158
USER: genes 20 Torsion [N]-C--CA-[CB] |==|  0.63044
USER: genes 21 Torsion [N]-C--CA-[N] |==|  0.35928
USER: genes 22 Torsion [C]-CA--N-[C] |==|  0.84660
USER: genes 23 Torsion [N]-C--CA-[N] |==|  0.12057
USER: genes 24 Torsion [C]-CA--CB-[CG] |==|  0.39160
USER: genes 25 Torsion [CA]-CB--CG-[CD] |==|  0.20078
USER: genes 26 Torsion [CB]-CG--CD-[OE1] |==|  0.96245
USER: genes 27 Torsion [C]-CA--N-[H1] |==|  0.19329
USER: genes 28 Torsion [C]-CA--CB-[CG] |==|  0.50167
USER: genes 29 Torsion [CA]-CB--CG-[CD2] |==|  0.55163
ROOT
ATOM      1  CA  LEU B   4      56.551  87.850  29.749  1.00 30.07 LIG 0.18  C 
ENDROOT
BRANCH 1 2
ATOM      2  C   LEU B   4      56.894  87.339  28.373  1.00 30.58 LIG 0.24  C 
ATOM      3 O    LEU B   4      58.027  86.916  28.131  1.00 35.83 LIG-0.27  OA
ATOM      4  N   VAL B   5      55.947  87.448  27.445  1.00 32.24 LIG-0.35  N 
ATOM      5 H    VAL B   5      55.162  87.763  27.601  1.00 32.24 LIG 0.16  HD
BRANCH 4 6
ATOM      6  CA  VAL B   5      56.161  87.035  26.055  1.00 32.53 LIG 0.18  C 
BRANCH 6 7
ATOM      7  CB  VAL B   5      57.239  87.890  25.366  1.00 34.70 LIG 0.01  C 
ATOM      8  CG2 VAL B   5      57.270  89.254  26.005  1.00 38.22 LIG 0.01  C 
ATOM      9  CG1 VAL B   5      56.995  88.017  23.867  1.00 39.77 LIG 0.01  C 
ENDBRANCH 6 7
BRANCH 6 10
ATOM     10  C   VAL B   5      56.579  85.591  25.991  1.00 39.16 LIG 0.24  C 
ATOM     11 O    VAL B   5      56.382  84.823  26.941  1.00 33.69 LIG-0.27  OA
ATOM     12  N   LYS B   6      57.127  85.219  24.846  1.00 40.12 LIG-0.35  N 
ATOM     13 H    LYS B   6      57.221  85.739  24.167  1.00 40.12 LIG 0.16  HD
BRANCH 12 14
ATOM     14  CA  LYS B   6      57.617  83.889  24.646  1.00 45.41 LIG 0.18  C 
BRANCH 14 15
ATOM     15  C   LYS B   6      59.063  84.116  24.259  1.00 44.99 LIG 0.24  C 
ATOM     16 O    LYS B   6      59.815  84.689  25.021  1.00 45.85 LIG-0.27  OA
ATOM     17  N   ILE B   7      59.509  83.627  23.122  1.00 47.54 LIG-0.34  N 
ATOM     18 H    ILE B   7      59.047  83.209  22.528  1.00 47.54 LIG 0.16  HD
BRANCH 17 19
ATOM     19  CA  ILE B   7      60.943  83.813  22.836  1.00 57.67 LIG 0.19  C 
BRANCH 19 20
ATOM     20  CB  ILE B   7      61.790  82.482  22.756  1.00 59.41 LIG 0.01  C 
ATOM     21  CG2 ILE B   7      63.289  82.757  22.767  1.00 60.58 LIG 0.01  C 
BRANCH 20 22
ATOM     22  CG1 ILE B   7      61.403  81.496  23.896  1.00 65.20 LIG 0.00  C 
ATOM     23  CD1 ILE B   7      60.173  80.613  23.672  1.00 51.92 LIG 0.01  C 
ENDBRANCH 20 22
ENDBRANCH 19 20
BRANCH 19 24
ATOM     24  C   ILE B   7      61.193  84.797  21.683  1.00 61.74 LIG 0.20  C 
ATOM     25 O    ILE B   7      62.132  85.578  21.646  1.00 61.53 LIG-0.65  OA
ATOM     26 OXT  ILE B   7      60.439  84.812  20.710  1.00 68.92 LIG-0.65  OA
ENDBRANCH 19 24
ENDBRANCH 17 19
ENDBRANCH 14 15
BRANCH 14 27
ATOM     27  CB  LYS B   6      56.786  83.243  23.525  1.00 46.87 LIG 0.04  C 
BRANCH 27 28
ATOM     28  CG  LYS B   6      55.806  82.181  23.985  1.00 55.56 LIG 0.00  C 
BRANCH 28 29
ATOM     29  CD  LYS B   6      54.822  81.788  22.893  1.00 60.95 LIG 0.03  C 
BRANCH 29 30
ATOM     30  CE  LYS B   6      55.457  80.824  21.883  1.00 62.93 LIG 0.23  C 
BRANCH 30 31
ATOM     31  NZ  LYS B   6      54.531  79.712  21.506  1.00 65.77 LIG-0.08  N 
ATOM     32 HZ1  LYS B   6      54.728  78.986  21.983  1.00 65.77 LIG 0.27  HD
ATOM     33 HZ2  LYS B   6      53.691  79.956  21.672  1.00 65.77 LIG 0.27  HD
ATOM     34 HZ3  LYS B   6      54.621  79.531  20.640  1.00 65.77 LIG 0.27  HD
ENDBRANCH 30 31
ENDBRANCH 29 30
ENDBRANCH 28 29
ENDBRANCH 27 28
ENDBRANCH 14 27
ENDBRANCH 12 14
ENDBRANCH 6 10
ENDBRANCH 4 6
ENDBRANCH 1 2
BRANCH 1 35
ATOM     35  CB  LEU B   4      57.860  88.071  30.479  1.00 28.63 LIG 0.04  C 
BRANCH 35 36
ATOM     36  CG  LEU B   4      57.975  89.503  30.989  1.00 30.56 LIG-0.02  C 
ATOM     37  CD2 LEU B   4      56.584  90.076  31.150  1.00 33.80 LIG 0.01  C 
ATOM     38  CD1 LEU B   4      58.780  90.320  29.964  1.00 28.87 LIG 0.01  C 
ENDBRANCH 35 36
ENDBRANCH 1 35
BRANCH 1 39
ATOM     39  N   LEU B   4      55.698  86.992  30.603  1.00 28.62 LIG-0.35  N 
ATOM     40 H    LEU B   4      56.126  86.511  31.173  1.00 28.62 LIG 0.16  HD
ATOM     41  C   PRO B   3      54.387  86.993  30.468  1.00 33.12 LIG 0.24  C 
ATOM     42 O    PRO B   3      53.764  87.847  29.812  1.00 32.36 LIG-0.27  OA
BRANCH 41 43
ATOM     43  CA  PRO B   3      53.648  85.889  31.220  1.00 33.48 LIG 0.18  C 
ATOM     44  CB  PRO B   3      52.605  85.201  30.300  1.00 32.62 LIG 0.04  C 
ATOM     45  CG  PRO B   3      51.381  85.013  31.157  1.00 32.85 LIG 0.02  C 
ATOM     46  CD  PRO B   3      51.403  86.165  32.158  1.00 29.95 LIG 0.13  C 
ATOM     47  N   PRO B   3      52.844  86.539  32.239  1.00 33.01 LIG-0.34  N 
ATOM     48  C   LEU B   2      53.481  87.314  33.145  1.00 31.97 LIG 0.24  C 
ATOM     49 O    LEU B   2      54.710  87.394  33.245  1.00 33.64 LIG-0.27  OA
BRANCH 48 50
ATOM     50  CA  LEU B   2      52.614  88.071  34.125  1.00 32.67 LIG 0.18  C 
BRANCH 50 51
ATOM     51  N   LEU B   2      53.161  87.774  35.444  1.00 33.85 LIG-0.35  N 
ATOM     52 H    LEU B   2      53.369  88.475  35.895  1.00 33.85 LIG 0.16  HD
ATOM     53  C   GLU B   1      53.325  86.539  35.908  1.00 36.42 LIG 0.25  C 
ATOM     54 O    GLU B   1      52.781  85.557  35.378  1.00 32.31 LIG-0.27  OA
BRANCH 53 55
ATOM     55  CA  GLU B   1      54.139  86.403  37.214  1.00 35.71 LIG 0.28  C 
BRANCH 55 56
ATOM     56  CB  GLU B   1      53.903  85.005  37.795  1.00 39.23 LIG 0.05  C 
BRANCH 56 57
ATOM     57  CG  GLU B   1      55.167  84.390  38.394  1.00 48.64 LIG 0.12  C 
BRANCH 57 58
ATOM     58  CD  GLU B   1      55.636  85.007  39.718  1.00 56.94 LIG 0.17  C 
ATOM     59 OE1  GLU B   1      55.121  86.089  40.045  1.00 65.53 LIG-0.65  OA
ATOM     60 OE2  GLU B   1      56.517  84.451  40.434  1.00 53.19 LIG-0.65  OA
ENDBRANCH 57 58
ENDBRANCH 56 57
ENDBRANCH 55 56
BRANCH 55 61
ATOM     61  N   GLU B   1      53.750  87.444  38.226  1.00 36.67 LIG-0.07  N 
ATOM     62 H1   GLU B   1      52.931  87.274  38.528  1.00 36.67 LIG 0.28  HD
ATOM     63 H3   GLU B   1      53.764  88.249  37.845  1.00 36.67 LIG 0.28  HD
ATOM     64 H2   GLU B   1      54.326  87.429  38.905  1.00 36.67 LIG 0.28  HD
ENDBRANCH 55 61
ENDBRANCH 53 55
ENDBRANCH 50 51
BRANCH 50 65
ATOM     65  CB  LEU B   2      52.653  89.585  33.790  1.00 34.84 LIG 0.04  C 
BRANCH 65 66
ATOM     66  CG  LEU B   2      51.833  90.514  34.700  1.00 34.30 LIG-0.02  C 
ATOM     67  CD2 LEU B   2      51.566  91.876  34.038  1.00 39.39 LIG 0.01  C 
ATOM     68  CD1 LEU B   2      52.469  90.704  36.079  1.00 34.61 LIG 0.01  C 
ENDBRANCH 65 66
ENDBRANCH 50 65
ENDBRANCH 48 50
ENDBRANCH 41 43
ENDBRANCH 1 39
TORSDOF 28
ENDMDL
MODEL 24
USER: ADFR SOLUTION from run 74
USER: SCORE 23.968375 LL:  -6.413 LR: -18.980 RR:   0.000 FEB: -10.628
USER: RMSD 4.206411
USER: SEED 73
USER: STATUS no improvement in best in 17 clusters for 5 generations
USER: GENES 30
USER: genes 0 Translation |==|  0.53744 0.60150 0.46817
USER: genes 1 Rotation |==|  0.50100 0.50586 0.57511 0.99429
USER: genes 2 Torsion [N]-CA--C-[N] |==|  0.39407
USER: genes 3 Torsion [C]-N--CA-[C] |==|  0.66898
USER: genes 4 Torsion [N]-CA--CB-[CG2] |==|  0.93328
USER: genes 5 Torsion [N]-CA--C-[N] |==|  0.53365
USER: genes 6 Torsion [C]-N--CA-[C] |==|  0.55312
USER: genes 7 Torsion [N]-CA--C-[N] |==|  0.18196
USER: genes 8 Torsion [C]-N--CA-[CB] |==|  0.85905
USER: genes 9 Torsion [N]-CA--CB-[CG1] |==|  0.86040
USER: genes 10 Torsion [CA]-CB--CG1-[CD1] |==|  0.60419
USER: genes 11 Torsion [N]-CA--C-[OXT] |==|  0.42835
USER: genes 12 Torsion [N]-CA--CB-[CG] |==|  0.58668
USER: genes 13 Torsion [CA]-CB--CG-[CD] |==|  0.31222
USER: genes 14 Torsion [CB]-CG--CD-[CE] |==|  0.36120
USER: genes 15 Torsion [CG]-CD--CE-[NZ] |==|  0.44551
USER: genes 16 Torsion [CD]-CE--NZ-[HZ1] |==|  0.13499
USER: genes 17 Torsion [C]-CA--CB-[CG] |==|  0.43010
USER: genes 18 Torsion [CA]-CB--CG-[CD2] |==|  0.23241
USER: genes 19 Torsion [C]-CA--N-[C] |==|  0.80122
USER: genes 20 Torsion [N]-C--CA-[CB] |==|  0.79821
USER: genes 21 Torsion [N]-C--CA-[N] |==|  0.29692
USER: genes 22 Torsion [C]-CA--N-[C] |==|  0.73714
USER: genes 23 Torsion [N]-C--CA-[N] |==|  0.08246
USER: genes 24 Torsion [C]-CA--CB-[CG] |==|  0.51513
USER: genes 25 Torsion [CA]-CB--CG-[CD] |==|  0.92656
USER: genes 26 Torsion [CB]-CG--CD-[OE1] |==|  0.72550
USER: genes 27 Torsion [C]-CA--N-[H1] |==|  0.32712
USER: genes 28 Torsion [C]-CA--CB-[CG] |==|  0.27927
USER: genes 29 Torsion [CA]-CB--CG-[CD2] |==|  0.15912
ROOT
ATOM      1  CA  LEU B   4      56.425  88.610  29.834  1.00 30.07 LIG 0.18  C 
ENDROOT
BRANCH 1 2
ATOM      2  C   LEU B   4      55.022  88.198  30.199  1.00 30.58 LIG 0.24  C 
ATOM      3 O    LEU B   4      54.065  88.916  29.899  1.00 35.83 LIG-0.27  OA
ATOM      4  N   VAL B   5      54.897  87.083  30.915  1.00 32.24 LIG-0.35  N 
ATOM      5 H    VAL B   5      55.561  86.590  31.147  1.00 32.24 LIG 0.16  HD
BRANCH 4 6
ATOM      6  CA  VAL B   5      53.595  86.591  31.378  1.00 32.53 LIG 0.18  C 
BRANCH 6 7
ATOM      7  CB  VAL B   5      53.285  85.189  30.823  1.00 34.70 LIG 0.01  C 
ATOM      8  CG2 VAL B   5      54.070  84.977  29.553  1.00 38.22 LIG 0.01  C 
ATOM      9  CG1 VAL B   5      51.797  84.997  30.558  1.00 39.77 LIG 0.01  C 
ENDBRANCH 6 7
BRANCH 6 10
ATOM     10  C   VAL B   5      53.557  86.531  32.881  1.00 39.16 LIG 0.24  C 
ATOM     11 O    VAL B   5      54.418  87.097  33.567  1.00 33.69 LIG-0.27  OA
ATOM     12  N   LYS B   6      52.530  85.871  33.387  1.00 40.12 LIG-0.35  N 
ATOM     13 H    LYS B   6      51.904  85.518  32.913  1.00 40.12 LIG 0.16  HD
BRANCH 12 14
ATOM     14  CA  LYS B   6      52.377  85.688  34.799  1.00 45.41 LIG 0.18  C 
BRANCH 14 15
ATOM     15  C   LYS B   6      51.413  84.525  34.887  1.00 44.99 LIG 0.24  C 
ATOM     16 O    LYS B   6      50.284  84.699  35.297  1.00 45.85 LIG-0.27  OA
ATOM     17  N   ILE B   7      51.790  83.342  34.449  1.00 47.54 LIG-0.34  N 
ATOM     18 H    ILE B   7      52.566  83.134  34.143  1.00 47.54 LIG 0.16  HD
BRANCH 17 19
ATOM     19  CA  ILE B   7      50.782  82.267  34.488  1.00 57.67 LIG 0.19  C 
BRANCH 19 20
ATOM     20  CB  ILE B   7      50.050  82.083  35.875  1.00 59.41 LIG 0.01  C 
ATOM     21  CG2 ILE B   7      49.119  80.875  35.874  1.00 60.58 LIG 0.01  C 
BRANCH 20 22
ATOM     22  CG1 ILE B   7      51.072  81.987  37.045  1.00 65.20 LIG 0.00  C 
ATOM     23  CD1 ILE B   7      50.749  81.012  38.180  1.00 51.92 LIG 0.01  C 
ENDBRANCH 20 22
ENDBRANCH 19 20
BRANCH 19 24
ATOM     24  C   ILE B   7      49.844  82.292  33.272  1.00 61.74 LIG 0.20  C 
ATOM     25 O    ILE B   7      49.615  83.291  32.608  1.00 61.53 LIG-0.65  OA
ATOM     26 OXT  ILE B   7      49.290  81.257  32.899  1.00 68.92 LIG-0.65  OA
ENDBRANCH 19 24
ENDBRANCH 17 19
ENDBRANCH 14 15
BRANCH 14 27
ATOM     27  CB  LYS B   6      51.808  86.991  35.385  1.00 46.87 LIG 0.04  C 
BRANCH 27 28
ATOM     28  CG  LYS B   6      52.242  87.298  36.805  1.00 55.56 LIG 0.00  C 
BRANCH 28 29
ATOM     29  CD  LYS B   6      53.146  88.519  36.884  1.00 60.95 LIG 0.03  C 
BRANCH 29 30
ATOM     30  CE  LYS B   6      52.665  89.509  37.952  1.00 62.93 LIG 0.23  C 
BRANCH 30 31
ATOM     31  NZ  LYS B   6      53.747  90.451  38.375  1.00 65.77 LIG-0.08  N 
ATOM     32 HZ1  LYS B   6      54.139  90.796  37.655  1.00 65.77 LIG 0.27  HD
ATOM     33 HZ2  LYS B   6      53.395  91.107  38.864  1.00 65.77 LIG 0.27  HD
ATOM     34 HZ3  LYS B   6      54.351  90.011  38.860  1.00 65.77 LIG 0.27  HD
ENDBRANCH 30 31
ENDBRANCH 29 30
ENDBRANCH 28 29
ENDBRANCH 27 28
ENDBRANCH 14 27
ENDBRANCH 12 14
ENDBRANCH 6 10
ENDBRANCH 4 6
ENDBRANCH 1 2
BRANCH 1 35
ATOM     35  CB  LEU B   4      56.864  89.640  30.855  1.00 28.63 LIG 0.04  C 
BRANCH 35 36
ATOM     36  CG  LEU B   4      58.381  89.677  30.988  1.00 30.56 LIG-0.02  C 
ATOM     37  CD2 LEU B   4      58.945  90.562  29.897  1.00 33.80 LIG 0.01  C 
ATOM     38  CD1 LEU B   4      58.917  88.242  30.848  1.00 28.87 LIG 0.01  C 
ENDBRANCH 35 36
ENDBRANCH 1 35
BRANCH 1 39
ATOM     39  N   LEU B   4      56.638  89.189  28.488  1.00 28.62 LIG-0.35  N 
ATOM     40 H    LEU B   4      56.802  90.034  28.481  1.00 28.62 LIG 0.16  HD
ATOM     41  C   PRO B   3      56.573  88.435  27.410  1.00 33.12 LIG 0.24  C 
ATOM     42 O    PRO B   3      56.566  87.192  27.438  1.00 32.36 LIG-0.27  OA
BRANCH 41 43
ATOM     43  CA  PRO B   3      56.556  89.189  26.082  1.00 33.48 LIG 0.18  C 
ATOM     44  CB  PRO B   3      55.187  89.888  25.864  1.00 32.62 LIG 0.04  C 
ATOM     45  CG  PRO B   3      54.850  89.658  24.414  1.00 32.85 LIG 0.02  C 
ATOM     46  CD  PRO B   3      55.494  88.322  24.051  1.00 29.95 LIG 0.13  C 
ATOM     47  N   PRO B   3      56.613  88.190  25.030  1.00 33.01 LIG-0.34  N 
ATOM     48  C   LEU B   2      57.666  87.343  25.021  1.00 31.97 LIG 0.24  C 
ATOM     49 O    LEU B   2      58.646  87.451  25.764  1.00 33.64 LIG-0.27  OA
BRANCH 48 50
ATOM     50  CA  LEU B   2      57.645  86.240  23.987  1.00 32.67 LIG 0.18  C 
BRANCH 50 51
ATOM     51  N   LEU B   2      58.637  86.620  22.988  1.00 33.85 LIG-0.35  N 
ATOM     52 H    LEU B   2      59.437  86.376  23.189  1.00 33.85 LIG 0.16  HD
ATOM     53  C   GLU B   1      58.340  87.281  21.875  1.00 36.42 LIG 0.25  C 
ATOM     54 O    GLU B   1      57.173  87.388  21.462  1.00 32.31 LIG-0.27  OA
BRANCH 53 55
ATOM     55  CA  GLU B   1      59.537  87.813  21.055  1.00 35.71 LIG 0.28  C 
BRANCH 55 56
ATOM     56  CB  GLU B   1      59.135  87.865  19.577  1.00 39.23 LIG 0.05  C 
BRANCH 56 57
ATOM     57  CG  GLU B   1      60.294  88.254  18.661  1.00 48.64 LIG 0.12  C 
BRANCH 57 58
ATOM     58  CD  GLU B   1      61.393  89.104  19.313  1.00 56.94 LIG 0.17  C 
ATOM     59 OE1  GLU B   1      61.344  90.329  19.114  1.00 65.53 LIG-0.65  OA
ATOM     60 OE2  GLU B   1      62.313  88.582  20.003  1.00 53.19 LIG-0.65  OA
ENDBRANCH 57 58
ENDBRANCH 56 57
ENDBRANCH 55 56
BRANCH 55 61
ATOM     61  N   GLU B   1      60.755  86.947  21.219  1.00 36.67 LIG-0.07  N 
ATOM     62 H1   GLU B   1      60.981  86.601  20.431  1.00 36.67 LIG 0.28  HD
ATOM     63 H3   GLU B   1      60.578  86.290  21.792  1.00 36.67 LIG 0.28  HD
ATOM     64 H2   GLU B   1      61.429  87.439  21.531  1.00 36.67 LIG 0.28  HD
ENDBRANCH 55 61
ENDBRANCH 53 55
ENDBRANCH 50 51
BRANCH 50 65
ATOM     65  CB  LEU B   2      57.972  84.885  24.668  1.00 34.84 LIG 0.04  C 
BRANCH 65 66
ATOM     66  CG  LEU B   2      56.779  83.968  24.986  1.00 34.30 LIG-0.02  C 
ATOM     67  CD2 LEU B   2      55.961  83.634  23.727  1.00 39.39 LIG 0.01  C 
ATOM     68  CD1 LEU B   2      55.871  84.537  26.079  1.00 34.61 LIG 0.01  C 
ENDBRANCH 65 66
ENDBRANCH 50 65
ENDBRANCH 48 50
ENDBRANCH 41 43
ENDBRANCH 1 39
TORSDOF 28
ENDMDL
MODEL 25
USER: ADFR SOLUTION from run 190
USER: SCORE 24.646882 LL:  -6.358 LR: -18.951 RR:   0.000 FEB: -10.599
USER: RMSD 5.378704
USER: SEED 189
USER: STATUS no improvement in best in 6 clusters for 5 generations
USER: GENES 30
USER: genes 0 Translation |==|  0.54598 0.58020 0.47696
USER: genes 1 Rotation |==|  0.25885 0.56480 0.58468 0.92483
USER: genes 2 Torsion [N]-CA--C-[N] |==|  0.15893
USER: genes 3 Torsion [C]-N--CA-[C] |==|  0.84411
USER: genes 4 Torsion [N]-CA--CB-[CG2] |==|  0.82235
USER: genes 5 Torsion [N]-CA--C-[N] |==|  0.35209
USER: genes 6 Torsion [C]-N--CA-[C] |==|  0.85131
USER: genes 7 Torsion [N]-CA--C-[N] |==|  0.87423
USER: genes 8 Torsion [C]-N--CA-[CB] |==|  0.83705
USER: genes 9 Torsion [N]-CA--CB-[CG1] |==|  0.67655
USER: genes 10 Torsion [CA]-CB--CG1-[CD1] |==|  0.02116
USER: genes 11 Torsion [N]-CA--C-[OXT] |==|  0.32291
USER: genes 12 Torsion [N]-CA--CB-[CG] |==|  0.82146
USER: genes 13 Torsion [CA]-CB--CG-[CD] |==|  0.20929
USER: genes 14 Torsion [CB]-CG--CD-[CE] |==|  0.37364
USER: genes 15 Torsion [CG]-CD--CE-[NZ] |==|  0.38994
USER: genes 16 Torsion [CD]-CE--NZ-[HZ1] |==|  0.85382
USER: genes 17 Torsion [C]-CA--CB-[CG] |==|  0.30459
USER: genes 18 Torsion [CA]-CB--CG-[CD2] |==|  0.38164
USER: genes 19 Torsion [C]-CA--N-[C] |==|  0.11283
USER: genes 20 Torsion [N]-C--CA-[CB] |==|  0.04047
USER: genes 21 Torsion [N]-C--CA-[N] |==|  0.41667
USER: genes 22 Torsion [C]-CA--N-[C] |==|  0.60223
USER: genes 23 Torsion [N]-C--CA-[N] |==|  0.34642
USER: genes 24 Torsion [C]-CA--CB-[CG] |==|  0.27242
USER: genes 25 Torsion [CA]-CB--CG-[CD] |==|  0.02785
USER: genes 26 Torsion [CB]-CG--CD-[OE1] |==|  0.31697
USER: genes 27 Torsion [C]-CA--N-[H1] |==|  0.10073
USER: genes 28 Torsion [C]-CA--CB-[CG] |==|  0.30043
USER: genes 29 Torsion [CA]-CB--CG-[CD2] |==|  0.54829
ROOT
ATOM      1  CA  LEU B   4      56.605  88.131  30.058  1.00 30.07 LIG 0.18  C 
ENDROOT
BRANCH 1 2
ATOM      2  C   LEU B   4      55.276  88.190  30.768  1.00 30.58 LIG 0.24  C 
ATOM      3 O    LEU B   4      54.740  89.276  30.995  1.00 35.83 LIG-0.27  OA
ATOM      4  N   VAL B   5      54.777  87.031  31.193  1.00 32.24 LIG-0.35  N 
ATOM      5 H    VAL B   5      55.157  86.272  31.059  1.00 32.24 LIG 0.16  HD
BRANCH 4 6
ATOM      6  CA  VAL B   5      53.518  86.947  31.939  1.00 32.53 LIG 0.18  C 
BRANCH 6 7
ATOM      7  CB  VAL B   5      53.206  85.502  32.369  1.00 34.70 LIG 0.01  C 
ATOM      8  CG2 VAL B   5      52.999  84.655  31.140  1.00 38.22 LIG 0.01  C 
ATOM      9  CG1 VAL B   5      51.980  85.427  33.271  1.00 39.77 LIG 0.01  C 
ENDBRANCH 6 7
BRANCH 6 10
ATOM     10  C   VAL B   5      53.572  87.812  33.168  1.00 39.16 LIG 0.24  C 
ATOM     11 O    VAL B   5      54.510  87.727  33.971  1.00 33.69 LIG-0.27  OA
ATOM     12  N   LYS B   6      52.576  88.674  33.289  1.00 40.12 LIG-0.35  N 
ATOM     13 H    LYS B   6      51.949  88.768  32.708  1.00 40.12 LIG 0.16  HD
BRANCH 12 14
ATOM     14  CA  LYS B   6      52.464  89.536  34.427  1.00 45.41 LIG 0.18  C 
BRANCH 14 15
ATOM     15  C   LYS B   6      52.526  88.570  35.590  1.00 44.99 LIG 0.24  C 
ATOM     16 O    LYS B   6      53.177  88.845  36.577  1.00 45.85 LIG-0.27  OA
ATOM     17  N   ILE B   7      51.814  87.464  35.546  1.00 47.54 LIG-0.34  N 
ATOM     18 H    ILE B   7      51.327  87.195  34.891  1.00 47.54 LIG 0.16  HD
BRANCH 17 19
ATOM     19  CA  ILE B   7      51.854  86.600  36.741  1.00 57.67 LIG 0.19  C 
BRANCH 19 20
ATOM     20  CB  ILE B   7      53.290  86.088  37.151  1.00 59.41 LIG 0.01  C 
ATOM     21  CG2 ILE B   7      53.689  86.559  38.545  1.00 60.58 LIG 0.01  C 
BRANCH 20 22
ATOM     22  CG1 ILE B   7      53.389  84.539  37.046  1.00 65.20 LIG 0.00  C 
ATOM     23  CD1 ILE B   7      52.204  83.802  36.415  1.00 51.92 LIG 0.01  C 
ENDBRANCH 20 22
ENDBRANCH 19 20
BRANCH 19 24
ATOM     24  C   ILE B   7      51.021  87.161  37.904  1.00 61.74 LIG 0.20  C 
ATOM     25 O    ILE B   7      51.250  88.227  38.454  1.00 61.53 LIG-0.65  OA
ATOM     26 OXT  ILE B   7      50.042  86.538  38.317  1.00 68.92 LIG-0.65  OA
ENDBRANCH 19 24
ENDBRANCH 17 19
ENDBRANCH 14 15
BRANCH 14 27
ATOM     27  CB  LYS B   6      51.119  90.276  34.327  1.00 46.87 LIG 0.04  C 
BRANCH 27 28
ATOM     28  CG  LYS B   6      50.989  91.209  33.138  1.00 55.56 LIG 0.00  C 
BRANCH 28 29
ATOM     29  CD  LYS B   6      50.763  90.458  31.834  1.00 60.95 LIG 0.03  C 
BRANCH 29 30
ATOM     30  CE  LYS B   6      49.643  91.095  31.004  1.00 62.93 LIG 0.23  C 
BRANCH 30 31
ATOM     31  NZ  LYS B   6      49.961  91.106  29.542  1.00 65.77 LIG-0.08  N 
ATOM     32 HZ1  LYS B   6      50.760  91.478  29.415  1.00 65.77 LIG 0.27  HD
ATOM     33 HZ2  LYS B   6      49.971  90.271  29.234  1.00 65.77 LIG 0.27  HD
ATOM     34 HZ3  LYS B   6      49.342  91.576  29.107  1.00 65.77 LIG 0.27  HD
ENDBRANCH 30 31
ENDBRANCH 29 30
ENDBRANCH 28 29
ENDBRANCH 27 28
ENDBRANCH 14 27
ENDBRANCH 12 14
ENDBRANCH 6 10
ENDBRANCH 4 6
ENDBRANCH 1 2
BRANCH 1 35
ATOM     35  CB  LEU B   4      56.946  89.545  29.638  1.00 28.63 LIG 0.04  C 
BRANCH 35 36
ATOM     36  CG  LEU B   4      58.108  90.101  30.452  1.00 30.56 LIG-0.02  C 
ATOM     37  CD2 LEU B   4      59.045  90.840  29.521  1.00 33.80 LIG 0.01  C 
ATOM     38  CD1 LEU B   4      58.835  88.926  31.126  1.00 28.87 LIG 0.01  C 
ENDBRANCH 35 36
ENDBRANCH 1 35
BRANCH 1 39
ATOM     39  N   LEU B   4      56.699  87.268  28.858  1.00 28.62 LIG-0.35  N 
ATOM     40 H    LEU B   4      57.430  86.819  28.794  1.00 28.62 LIG 0.16  HD
ATOM     41  C   PRO B   3      55.717  87.220  27.981  1.00 33.12 LIG 0.24  C 
ATOM     42 O    PRO B   3      54.583  87.684  28.192  1.00 32.36 LIG-0.27  OA
BRANCH 41 43
ATOM     43  CA  PRO B   3      56.039  86.500  26.674  1.00 33.48 LIG 0.18  C 
ATOM     44  CB  PRO B   3      57.342  85.668  26.811  1.00 32.62 LIG 0.04  C 
ATOM     45  CG  PRO B   3      58.096  85.896  25.527  1.00 32.85 LIG 0.02  C 
ATOM     46  CD  PRO B   3      57.708  87.299  25.068  1.00 29.95 LIG 0.13  C 
ATOM     47  N   PRO B   3      56.376  87.524  25.701  1.00 33.01 LIG-0.34  N 
ATOM     48  C   LEU B   2      55.452  88.476  25.442  1.00 31.97 LIG 0.24  C 
ATOM     49 O    LEU B   2      54.296  88.454  25.875  1.00 33.64 LIG-0.27  OA
BRANCH 48 50
ATOM     50  CA  LEU B   2      55.867  89.595  24.515  1.00 32.67 LIG 0.18  C 
BRANCH 50 51
ATOM     51  N   LEU B   2      54.645  90.019  23.841  1.00 33.85 LIG-0.35  N 
ATOM     52 H    LEU B   2      53.950  89.998  24.346  1.00 33.85 LIG 0.16  HD
ATOM     53  C   GLU B   1      54.604  90.400  22.568  1.00 36.42 LIG 0.25  C 
ATOM     54 O    GLU B   1      55.631  90.687  21.931  1.00 32.31 LIG-0.27  OA
BRANCH 53 55
ATOM     55  CA  GLU B   1      53.198  90.579  21.953  1.00 35.71 LIG 0.28  C 
BRANCH 55 56
ATOM     56  CB  GLU B   1      53.002  89.521  20.861  1.00 39.23 LIG 0.05  C 
BRANCH 56 57
ATOM     57  CG  GLU B   1      52.220  88.302  21.350  1.00 48.64 LIG 0.12  C 
BRANCH 57 58
ATOM     58  CD  GLU B   1      51.571  88.447  22.733  1.00 56.94 LIG 0.17  C 
ATOM     59 OE1  GLU B   1      50.329  88.445  22.771  1.00 65.53 LIG-0.65  OA
ATOM     60 OE2  GLU B   1      52.264  88.580  23.781  1.00 53.19 LIG-0.65  OA
ENDBRANCH 57 58
ENDBRANCH 56 57
ENDBRANCH 55 56
BRANCH 55 61
ATOM     61  N   GLU B   1      53.014  91.951  21.368  1.00 36.67 LIG-0.07  N 
ATOM     62 H1   GLU B   1      53.778  92.222  21.000  1.00 36.67 LIG 0.28  HD
ATOM     63 H3   GLU B   1      52.777  92.519  22.011  1.00 36.67 LIG 0.28  HD
ATOM     64 H2   GLU B   1      52.378  91.926  20.746  1.00 36.67 LIG 0.28  HD
ENDBRANCH 55 61
ENDBRANCH 53 55
ENDBRANCH 50 51
BRANCH 50 65
ATOM     65  CB  LEU B   2      56.521  90.736  25.337  1.00 34.84 LIG 0.04  C 
BRANCH 65 66
ATOM     66  CG  LEU B   2      58.043  90.906  25.190  1.00 34.30 LIG-0.02  C 
ATOM     67  CD2 LEU B   2      58.639  91.745  26.333  1.00 39.39 LIG 0.01  C 
ATOM     68  CD1 LEU B   2      58.444  91.489  23.833  1.00 34.61 LIG 0.01  C 
ENDBRANCH 65 66
ENDBRANCH 50 65
ENDBRANCH 48 50
ENDBRANCH 41 43
ENDBRANCH 1 39
TORSDOF 28
ENDMDL
MODEL 26
USER: ADFR SOLUTION from run 11
USER: SCORE 25.392412 LL:  -7.530 LR: -18.914 RR:   0.000 FEB: -10.561
USER: RMSD 12.298003
USER: SEED 541229
USER: STATUS no improvement in best in 6 clusters for 5 generations
USER: GENES 30
USER: genes 0 Translation |==|  0.52800 0.60510 0.48830
USER: genes 1 Rotation |==|  0.21199 0.27074 0.16562 0.55182
USER: genes 2 Torsion [N]-CA--C-[N] |==|  0.37498
USER: genes 3 Torsion [C]-N--CA-[C] |==|  0.48233
USER: genes 4 Torsion [N]-CA--CB-[CG2] |==|  0.50169
USER: genes 5 Torsion [N]-CA--C-[N] |==|  0.42828
USER: genes 6 Torsion [C]-N--CA-[C] |==|  0.76912
USER: genes 7 Torsion [N]-CA--C-[N] |==|  0.38998
USER: genes 8 Torsion [C]-N--CA-[CB] |==|  0.24318
USER: genes 9 Torsion [N]-CA--CB-[CG1] |==|  0.13640
USER: genes 10 Torsion [CA]-CB--CG1-[CD1] |==|  0.78352
USER: genes 11 Torsion [N]-CA--C-[OXT] |==|  0.50188
USER: genes 12 Torsion [N]-CA--CB-[CG] |==|  0.36408
USER: genes 13 Torsion [CA]-CB--CG-[CD] |==|  0.26423
USER: genes 14 Torsion [CB]-CG--CD-[CE] |==|  0.67007
USER: genes 15 Torsion [CG]-CD--CE-[NZ] |==|  0.32705
USER: genes 16 Torsion [CD]-CE--NZ-[HZ1] |==|  0.00744
USER: genes 17 Torsion [C]-CA--CB-[CG] |==|  0.87683
USER: genes 18 Torsion [CA]-CB--CG-[CD2] |==|  0.80439
USER: genes 19 Torsion [C]-CA--N-[C] |==|  0.76534
USER: genes 20 Torsion [N]-C--CA-[CB] |==|  0.61087
USER: genes 21 Torsion [N]-C--CA-[N] |==|  0.13256
USER: genes 22 Torsion [C]-CA--N-[C] |==|  0.16548
USER: genes 23 Torsion [N]-C--CA-[N] |==|  0.02715
USER: genes 24 Torsion [C]-CA--CB-[CG] |==|  0.80472
USER: genes 25 Torsion [CA]-CB--CG-[CD] |==|  0.71166
USER: genes 26 Torsion [CB]-CG--CD-[OE1] |==|  0.74439
USER: genes 27 Torsion [C]-CA--N-[H1] |==|  0.93485
USER: genes 28 Torsion [C]-CA--CB-[CG] |==|  0.32866
USER: genes 29 Torsion [CA]-CB--CG-[CD2] |==|  0.25906
ROOT
ATOM      1  CA  LEU B   4      56.227  88.691  30.348  1.00 30.07 LIG 0.18  C 
ENDROOT
BRANCH 1 2
ATOM      2  C   LEU B   4      56.931  88.346  29.060  1.00 30.58 LIG 0.24  C 
ATOM      3 O    LEU B   4      57.678  87.367  29.003  1.00 35.83 LIG-0.27  OA
ATOM      4  N   VAL B   5      56.761  89.190  28.046  1.00 32.24 LIG-0.35  N 
ATOM      5 H    VAL B   5      56.259  89.887  28.085  1.00 32.24 LIG 0.16  HD
BRANCH 4 6
ATOM      6  CA  VAL B   5      57.424  89.003  26.751  1.00 32.53 LIG 0.18  C 
BRANCH 6 7
ATOM      7  CB  VAL B   5      57.178  87.593  26.184  1.00 34.70 LIG 0.01  C 
ATOM      8  CG2 VAL B   5      57.896  87.459  24.865  1.00 38.22 LIG 0.01  C 
ATOM      9  CG1 VAL B   5      55.694  87.301  26.005  1.00 39.77 LIG 0.01  C 
ENDBRANCH 6 7
BRANCH 6 10
ATOM     10  C   VAL B   5      56.930  90.014  25.753  1.00 39.16 LIG 0.24  C 
ATOM     11 O    VAL B   5      55.822  90.550  25.878  1.00 33.69 LIG-0.27  OA
ATOM     12  N   LYS B   6      57.779  90.299  24.780  1.00 40.12 LIG-0.35  N 
ATOM     13 H    LYS B   6      58.570  89.964  24.718  1.00 40.12 LIG 0.16  HD
BRANCH 12 14
ATOM     14  CA  LYS B   6      57.438  91.209  23.729  1.00 45.41 LIG 0.18  C 
BRANCH 14 15
ATOM     15  C   LYS B   6      56.666  90.336  22.764  1.00 44.99 LIG 0.24  C 
ATOM     16 O    LYS B   6      56.990  89.178  22.596  1.00 45.85 LIG-0.27  OA
ATOM     17  N   ILE B   7      55.603  90.826  22.163  1.00 47.54 LIG-0.34  N 
ATOM     18 H    ILE B   7      55.304  91.630  22.226  1.00 47.54 LIG 0.16  HD
BRANCH 17 19
ATOM     19  CA  ILE B   7      54.846  89.905  21.295  1.00 57.67 LIG 0.19  C 
BRANCH 19 20
ATOM     20  CB  ILE B   7      53.735  89.054  22.025  1.00 59.41 LIG 0.01  C 
ATOM     21  CG2 ILE B   7      54.332  87.916  22.845  1.00 60.58 LIG 0.01  C 
BRANCH 20 22
ATOM     22  CG1 ILE B   7      52.827  89.953  22.913  1.00 65.20 LIG 0.00  C 
ATOM     23  CD1 ILE B   7      53.389  90.399  24.266  1.00 51.92 LIG 0.01  C 
ENDBRANCH 20 22
ENDBRANCH 19 20
BRANCH 19 24
ATOM     24  C   ILE B   7      54.384  90.569  19.989  1.00 61.74 LIG 0.20  C 
ATOM     25 O    ILE B   7      54.646  91.721  19.680  1.00 61.53 LIG-0.65  OA
ATOM     26 OXT  ILE B   7      53.729  89.925  19.168  1.00 68.92 LIG-0.65  OA
ENDBRANCH 19 24
ENDBRANCH 17 19
ENDBRANCH 14 15
BRANCH 14 27
ATOM     27  CB  LYS B   6      58.748  91.756  23.135  1.00 46.87 LIG 0.04  C 
BRANCH 27 28
ATOM     28  CG  LYS B   6      58.836  91.702  21.622  1.00 55.56 LIG 0.00  C 
BRANCH 28 29
ATOM     29  CD  LYS B   6      58.414  93.013  20.971  1.00 60.95 LIG 0.03  C 
BRANCH 29 30
ATOM     30  CE  LYS B   6      57.199  92.821  20.057  1.00 62.93 LIG 0.23  C 
BRANCH 30 31
ATOM     31  NZ  LYS B   6      56.015  93.609  20.521  1.00 65.77 LIG-0.08  N 
ATOM     32 HZ1  LYS B   6      56.239  94.088  21.237  1.00 65.77 LIG 0.27  HD
ATOM     33 HZ2  LYS B   6      55.747  94.155  19.871  1.00 65.77 LIG 0.27  HD
ATOM     34 HZ3  LYS B   6      55.352  93.052  20.732  1.00 65.77 LIG 0.27  HD
ENDBRANCH 30 31
ENDBRANCH 29 30
ENDBRANCH 28 29
ENDBRANCH 27 28
ENDBRANCH 14 27
ENDBRANCH 12 14
ENDBRANCH 6 10
ENDBRANCH 4 6
ENDBRANCH 1 2
BRANCH 1 35
ATOM     35  CB  LEU B   4      57.276  89.238  31.294  1.00 28.63 LIG 0.04  C 
BRANCH 35 36
ATOM     36  CG  LEU B   4      58.543  88.393  31.267  1.00 30.56 LIG-0.02  C 
ATOM     37  CD2 LEU B   4      58.254  87.061  31.926  1.00 33.80 LIG 0.01  C 
ATOM     38  CD1 LEU B   4      59.645  89.144  32.033  1.00 28.87 LIG 0.01  C 
ENDBRANCH 35 36
ENDBRANCH 1 35
BRANCH 1 39
ATOM     39  N   LEU B   4      55.514  87.598  31.049  1.00 28.62 LIG-0.35  N 
ATOM     40 H    LEU B   4      55.966  87.214  31.671  1.00 28.62 LIG 0.16  HD
ATOM     41  C   PRO B   3      54.282  87.272  30.714  1.00 33.12 LIG 0.24  C 
ATOM     42 O    PRO B   3      53.559  87.971  29.983  1.00 32.36 LIG-0.27  OA
BRANCH 41 43
ATOM     43  CA  PRO B   3      53.756  85.977  31.329  1.00 33.48 LIG 0.18  C 
ATOM     44  CB  PRO B   3      52.921  85.176  30.294  1.00 32.62 LIG 0.04  C 
ATOM     45  CG  PRO B   3      51.726  84.666  31.056  1.00 32.85 LIG 0.02  C 
ATOM     46  CD  PRO B   3      51.462  85.703  32.145  1.00 29.95 LIG 0.13  C 
ATOM     47  N   PRO B   3      52.790  86.355  32.344  1.00 33.01 LIG-0.34  N 
ATOM     48  C   LEU B   2      53.210  87.158  33.347  1.00 31.97 LIG 0.24  C 
ATOM     49 O    LEU B   2      54.389  87.478  33.529  1.00 33.64 LIG-0.27  OA
BRANCH 48 50
ATOM     50  CA  LEU B   2      52.161  87.631  34.327  1.00 32.67 LIG 0.18  C 
BRANCH 50 51
ATOM     51  N   LEU B   2      51.406  86.440  34.700  1.00 33.85 LIG-0.35  N 
ATOM     52 H    LEU B   2      50.569  86.492  34.514  1.00 33.85 LIG 0.16  HD
ATOM     53  C   GLU B   1      51.955  85.374  35.272  1.00 36.42 LIG 0.25  C 
ATOM     54 O    GLU B   1      53.184  85.191  35.287  1.00 32.31 LIG-0.27  OA
BRANCH 53 55
ATOM     55  CA  GLU B   1      50.976  84.311  35.818  1.00 35.71 LIG 0.28  C 
BRANCH 55 56
ATOM     56  CB  GLU B   1      51.417  82.932  35.313  1.00 39.23 LIG 0.05  C 
BRANCH 56 57
ATOM     57  CG  GLU B   1      51.190  82.750  33.813  1.00 48.64 LIG 0.12  C 
BRANCH 57 58
ATOM     58  CD  GLU B   1      49.984  81.881  33.430  1.00 56.94 LIG 0.17  C 
ATOM     59 OE1  GLU B   1      50.198  80.668  33.264  1.00 65.53 LIG-0.65  OA
ATOM     60 OE2  GLU B   1      48.832  82.376  33.273  1.00 53.19 LIG-0.65  OA
ENDBRANCH 57 58
ENDBRANCH 56 57
ENDBRANCH 55 56
BRANCH 55 61
ATOM     61  N   GLU B   1      49.561  84.579  35.385  1.00 36.67 LIG-0.07  N 
ATOM     62 H1   GLU B   1      49.469  85.443  35.192  1.00 36.67 LIG 0.28  HD
ATOM     63 H3   GLU B   1      49.003  84.362  36.044  1.00 36.67 LIG 0.28  HD
ATOM     64 H2   GLU B   1      49.373  84.092  34.665  1.00 36.67 LIG 0.28  HD
ENDBRANCH 55 61
ENDBRANCH 53 55
ENDBRANCH 50 51
BRANCH 50 65
ATOM     65  CB  LEU B   2      52.852  88.304  35.542  1.00 34.84 LIG 0.04  C 
BRANCH 65 66
ATOM     66  CG  LEU B   2      52.530  89.788  35.783  1.00 34.30 LIG-0.02  C 
ATOM     67  CD2 LEU B   2      51.362  89.968  36.768  1.00 39.39 LIG 0.01  C 
ATOM     68  CD1 LEU B   2      52.258  90.553  34.486  1.00 34.61 LIG 0.01  C 
ENDBRANCH 65 66
ENDBRANCH 50 65
ENDBRANCH 48 50
ENDBRANCH 41 43
ENDBRANCH 1 39
TORSDOF 28
ENDMDL
MODEL 27
USER: ADFR SOLUTION from run 137
USER: SCORE 23.115863 LL:  -6.123 LR: -18.904 RR:   0.000 FEB: -10.551
USER: RMSD 12.082677
USER: SEED 136
USER: STATUS no improvement in best in 2 clusters for 5 generations
USER: GENES 30
USER: genes 0 Translation |==|  0.52269 0.60082 0.46371
USER: genes 1 Rotation |==|  0.16359 0.29878 0.19931 0.57695
USER: genes 2 Torsion [N]-CA--C-[N] |==|  0.75000
USER: genes 3 Torsion [C]-N--CA-[C] |==|  0.12992
USER: genes 4 Torsion [N]-CA--CB-[CG2] |==|  0.55631
USER: genes 5 Torsion [N]-CA--C-[N] |==|  0.09285
USER: genes 6 Torsion [C]-N--CA-[C] |==|  0.16828
USER: genes 7 Torsion [N]-CA--C-[N] |==|  0.68138
USER: genes 8 Torsion [C]-N--CA-[CB] |==|  0.44112
USER: genes 9 Torsion [N]-CA--CB-[CG1] |==|  0.95877
USER: genes 10 Torsion [CA]-CB--CG1-[CD1] |==|  0.46020
USER: genes 11 Torsion [N]-CA--C-[OXT] |==|  0.39150
USER: genes 12 Torsion [N]-CA--CB-[CG] |==|  0.49685
USER: genes 13 Torsion [CA]-CB--CG-[CD] |==|  0.52397
USER: genes 14 Torsion [CB]-CG--CD-[CE] |==|  0.43826
USER: genes 15 Torsion [CG]-CD--CE-[NZ] |==|  0.03317
USER: genes 16 Torsion [CD]-CE--NZ-[HZ1] |==|  0.51048
USER: genes 17 Torsion [C]-CA--CB-[CG] |==|  0.78257
USER: genes 18 Torsion [CA]-CB--CG-[CD2] |==|  0.73670
USER: genes 19 Torsion [C]-CA--N-[C] |==|  0.75583
USER: genes 20 Torsion [N]-C--CA-[CB] |==|  0.64310
USER: genes 21 Torsion [N]-C--CA-[N] |==|  0.33924
USER: genes 22 Torsion [C]-CA--N-[C] |==|  0.81624
USER: genes 23 Torsion [N]-C--CA-[N] |==|  0.08966
USER: genes 24 Torsion [C]-CA--CB-[CG] |==|  0.52868
USER: genes 25 Torsion [CA]-CB--CG-[CD] |==|  0.91639
USER: genes 26 Torsion [CB]-CG--CD-[OE1] |==|  0.33034
USER: genes 27 Torsion [C]-CA--N-[H1] |==|  0.57495
USER: genes 28 Torsion [C]-CA--CB-[CG] |==|  0.25648
USER: genes 29 Torsion [CA]-CB--CG-[CD2] |==|  0.87859
ROOT
ATOM      1  CA  LEU B   4      56.115  88.594  29.721  1.00 30.07 LIG 0.18  C 
ENDROOT
BRANCH 1 2
ATOM      2  C   LEU B   4      56.431  88.283  28.280  1.00 30.58 LIG 0.24  C 
ATOM      3 O    LEU B   4      55.562  88.404  27.413  1.00 35.83 LIG-0.27  OA
ATOM      4  N   VAL B   5      57.647  87.805  28.028  1.00 32.24 LIG-0.35  N 
ATOM      5 H    VAL B   5      58.250  87.696  28.631  1.00 32.24 LIG 0.16  HD
BRANCH 4 6
ATOM      6  CA  VAL B   5      58.071  87.415  26.679  1.00 32.53 LIG 0.18  C 
BRANCH 6 7
ATOM      7  CB  VAL B   5      57.432  86.084  26.243  1.00 34.70 LIG 0.01  C 
ATOM      8  CG2 VAL B   5      58.247  85.489  25.123  1.00 38.22 LIG 0.01  C 
ATOM      9  CG1 VAL B   5      55.986  86.264  25.801  1.00 39.77 LIG 0.01  C 
ENDBRANCH 6 7
BRANCH 6 10
ATOM     10  C   VAL B   5      57.698  88.476  25.680  1.00 39.16 LIG 0.24  C 
ATOM     11 O    VAL B   5      57.349  88.180  24.530  1.00 33.69 LIG-0.27  OA
ATOM     12  N   LYS B   6      57.739  89.715  26.140  1.00 40.12 LIG-0.35  N 
ATOM     13 H    LYS B   6      57.934  89.920  26.953  1.00 40.12 LIG 0.16  HD
BRANCH 12 14
ATOM     14  CA  LYS B   6      57.453  90.838  25.299  1.00 45.41 LIG 0.18  C 
BRANCH 14 15
ATOM     15  C   LYS B   6      56.028  90.577  24.860  1.00 44.99 LIG 0.24  C 
ATOM     16 O    LYS B   6      55.121  90.649  25.663  1.00 45.85 LIG-0.27  OA
ATOM     17  N   ILE B   7      55.779  90.341  23.590  1.00 47.54 LIG-0.34  N 
ATOM     18 H    ILE B   7      56.359  90.275  22.958  1.00 47.54 LIG 0.16  HD
BRANCH 17 19
ATOM     19  CA  ILE B   7      54.364  90.173  23.211  1.00 57.67 LIG 0.19  C 
BRANCH 19 20
ATOM     20  CB  ILE B   7      54.045  90.413  21.683  1.00 59.41 LIG 0.01  C 
ATOM     21  CG2 ILE B   7      52.742  91.179  21.484  1.00 60.58 LIG 0.01  C 
BRANCH 20 22
ATOM     22  CG1 ILE B   7      55.223  91.136  20.967  1.00 65.20 LIG 0.00  C 
ATOM     23  CD1 ILE B   7      55.215  91.140  19.435  1.00 51.92 LIG 0.01  C 
ENDBRANCH 20 22
ENDBRANCH 19 20
BRANCH 19 24
ATOM     24  C   ILE B   7      53.743  88.896  23.798  1.00 61.74 LIG 0.20  C 
ATOM     25 O    ILE B   7      54.339  87.836  23.906  1.00 61.53 LIG-0.65  OA
ATOM     26 OXT  ILE B   7      52.585  88.911  24.217  1.00 68.92 LIG-0.65  OA
ENDBRANCH 19 24
ENDBRANCH 17 19
ENDBRANCH 14 15
BRANCH 14 27
ATOM     27  CB  LYS B   6      58.457  90.821  24.133  1.00 46.87 LIG 0.04  C 
BRANCH 27 28
ATOM     28  CG  LYS B   6      58.280  91.936  23.121  1.00 55.56 LIG 0.00  C 
BRANCH 28 29
ATOM     29  CD  LYS B   6      59.159  91.747  21.892  1.00 60.95 LIG 0.03  C 
BRANCH 29 30
ATOM     30  CE  LYS B   6      58.609  92.514  20.683  1.00 62.93 LIG 0.23  C 
BRANCH 30 31
ATOM     31  NZ  LYS B   6      57.530  93.475  21.069  1.00 65.77 LIG-0.08  N 
ATOM     32 HZ1  LYS B   6      57.199  93.860  20.338  1.00 65.77 LIG 0.27  HD
ATOM     33 HZ2  LYS B   6      56.880  93.037  21.493  1.00 65.77 LIG 0.27  HD
ATOM     34 HZ3  LYS B   6      57.866  94.099  21.607  1.00 65.77 LIG 0.27  HD
ENDBRANCH 30 31
ENDBRANCH 29 30
ENDBRANCH 28 29
ENDBRANCH 27 28
ENDBRANCH 14 27
ENDBRANCH 12 14
ENDBRANCH 6 10
ENDBRANCH 4 6
ENDBRANCH 1 2
BRANCH 1 35
ATOM     35  CB  LEU B   4      57.414  89.015  30.378  1.00 28.63 LIG 0.04  C 
BRANCH 35 36
ATOM     36  CG  LEU B   4      58.284  87.809  30.711  1.00 30.56 LIG-0.02  C 
ATOM     37  CD2 LEU B   4      58.025  87.404  32.146  1.00 33.80 LIG 0.01  C 
ATOM     38  CD1 LEU B   4      59.757  88.206  30.520  1.00 28.87 LIG 0.01  C 
ENDBRANCH 35 36
ENDBRANCH 1 35
BRANCH 1 39
ATOM     39  N   LEU B   4      55.526  87.511  30.540  1.00 28.62 LIG-0.35  N 
ATOM     40 H    LEU B   4      56.097  87.031  30.969  1.00 28.62 LIG 0.16  HD
ATOM     41  C   PRO B   3      54.222  87.328  30.581  1.00 33.12 LIG 0.24  C 
ATOM     42 O    PRO B   3      53.397  88.153  30.151  1.00 32.36 LIG-0.27  OA
BRANCH 41 43
ATOM     43  CA  PRO B   3      53.761  86.034  31.249  1.00 33.48 LIG 0.18  C 
ATOM     44  CB  PRO B   3      52.777  85.261  30.330  1.00 32.62 LIG 0.04  C 
ATOM     45  CG  PRO B   3      51.689  84.762  31.244  1.00 32.85 LIG 0.02  C 
ATOM     46  CD  PRO B   3      51.597  85.789  32.369  1.00 29.95 LIG 0.13  C 
ATOM     47  N   PRO B   3      52.951  86.415  32.391  1.00 33.01 LIG-0.34  N 
ATOM     48  C   LEU B   2      53.520  87.197  33.335  1.00 31.97 LIG 0.24  C 
ATOM     49 O    LEU B   2      54.718  87.494  33.357  1.00 33.64 LIG-0.27  OA
BRANCH 48 50
ATOM     50  CA  LEU B   2      52.625  87.675  34.456  1.00 32.67 LIG 0.18  C 
BRANCH 50 51
ATOM     51  N   LEU B   2      53.246  87.197  35.685  1.00 33.85 LIG-0.35  N 
ATOM     52 H    LEU B   2      53.541  87.829  36.189  1.00 33.85 LIG 0.16  HD
ATOM     53  C   GLU B   1      53.351  85.911  36.001  1.00 36.42 LIG 0.25  C 
ATOM     54 O    GLU B   1      52.695  85.032  35.419  1.00 32.31 LIG-0.27  OA
BRANCH 53 55
ATOM     55  CA  GLU B   1      54.249  85.576  37.213  1.00 35.71 LIG 0.28  C 
BRANCH 55 56
ATOM     56  CB  GLU B   1      53.764  84.261  37.834  1.00 39.23 LIG 0.05  C 
BRANCH 56 57
ATOM     57  CG  GLU B   1      54.419  83.965  39.183  1.00 48.64 LIG 0.12  C 
BRANCH 57 58
ATOM     58  CD  GLU B   1      55.841  84.515  39.359  1.00 56.94 LIG 0.17  C 
ATOM     59 OE1  GLU B   1      56.014  85.335  40.276  1.00 65.53 LIG-0.65  OA
ATOM     60 OE2  GLU B   1      56.787  84.164  38.599  1.00 53.19 LIG-0.65  OA
ENDBRANCH 57 58
ENDBRANCH 56 57
ENDBRANCH 55 56
BRANCH 55 61
ATOM     61  N   GLU B   1      54.221  86.666  38.248  1.00 36.67 LIG-0.07  N 
ATOM     62 H1   GLU B   1      54.984  86.660  38.707  1.00 36.67 LIG 0.28  HD
ATOM     63 H3   GLU B   1      53.540  86.530  38.805  1.00 36.67 LIG 0.28  HD
ATOM     64 H2   GLU B   1      54.122  87.454  37.847  1.00 36.67 LIG 0.28  HD
ENDBRANCH 55 61
ENDBRANCH 53 55
ENDBRANCH 50 51
BRANCH 50 65
ATOM     65  CB  LEU B   2      52.512  89.221  34.406  1.00 34.84 LIG 0.04  C 
BRANCH 65 66
ATOM     66  CG  LEU B   2      51.336  89.801  33.601  1.00 34.30 LIG-0.02  C 
ATOM     67  CD2 LEU B   2      51.148  89.076  32.258  1.00 39.39 LIG 0.01  C 
ATOM     68  CD1 LEU B   2      51.455  91.310  33.383  1.00 34.61 LIG 0.01  C 
ENDBRANCH 65 66
ENDBRANCH 50 65
ENDBRANCH 48 50
ENDBRANCH 41 43
ENDBRANCH 1 39
TORSDOF 28
ENDMDL
MODEL 28
USER: ADFR SOLUTION from run 113
USER: SCORE 25.053999 LL:  -6.886 LR: -18.883 RR:   0.000 FEB: -10.530
USER: RMSD 13.477523
USER: SEED 112
USER: STATUS no improvement in best in 3 clusters for 5 generations
USER: GENES 30
USER: genes 0 Translation |==|  0.39620 0.51190 0.53681
USER: genes 1 Rotation |==|  0.74149 0.07848 0.61422 0.53089
USER: genes 2 Torsion [N]-CA--C-[N] |==|  0.34444
USER: genes 3 Torsion [C]-N--CA-[C] |==|  0.80446
USER: genes 4 Torsion [N]-CA--CB-[CG2] |==|  0.91532
USER: genes 5 Torsion [N]-CA--C-[N] |==|  0.44186
USER: genes 6 Torsion [C]-N--CA-[C] |==|  0.80399
USER: genes 7 Torsion [N]-CA--C-[N] |==|  0.43408
USER: genes 8 Torsion [C]-N--CA-[CB] |==|  0.18088
USER: genes 9 Torsion [N]-CA--CB-[CG1] |==|  0.48120
USER: genes 10 Torsion [CA]-CB--CG1-[CD1] |==|  0.15795
USER: genes 11 Torsion [N]-CA--C-[OXT] |==|  0.89883
USER: genes 12 Torsion [N]-CA--CB-[CG] |==|  0.31811
USER: genes 13 Torsion [CA]-CB--CG-[CD] |==|  0.28583
USER: genes 14 Torsion [CB]-CG--CD-[CE] |==|  0.43453
USER: genes 15 Torsion [CG]-CD--CE-[NZ] |==|  0.67418
USER: genes 16 Torsion [CD]-CE--NZ-[HZ1] |==|  0.54117
USER: genes 17 Torsion [C]-CA--CB-[CG] |==|  0.40523
USER: genes 18 Torsion [CA]-CB--CG-[CD2] |==|  0.40306
USER: genes 19 Torsion [C]-CA--N-[C] |==|  0.81764
USER: genes 20 Torsion [N]-C--CA-[CB] |==|  0.72857
USER: genes 21 Torsion [N]-C--CA-[N] |==|  0.19202
USER: genes 22 Torsion [C]-CA--N-[C] |==|  0.58086
USER: genes 23 Torsion [N]-C--CA-[N] |==|  0.42967
USER: genes 24 Torsion [C]-CA--CB-[CG] |==|  0.87651
USER: genes 25 Torsion [CA]-CB--CG-[CD] |==|  0.83023
USER: genes 26 Torsion [CB]-CG--CD-[OE1] |==|  0.90735
USER: genes 27 Torsion [C]-CA--N-[H1] |==|  0.64742
USER: genes 28 Torsion [C]-CA--CB-[CG] |==|  0.44136
USER: genes 29 Torsion [CA]-CB--CG-[CD2] |==|  0.60395
ROOT
ATOM      1  CA  LEU B   4      53.459  86.594  31.585  1.00 30.07 LIG 0.18  C 
ENDROOT
BRANCH 1 2
ATOM      2  C   LEU B   4      54.249  87.613  30.805  1.00 30.58 LIG 0.24  C 
ATOM      3 O    LEU B   4      53.678  88.566  30.269  1.00 35.83 LIG-0.27  OA
ATOM      4  N   VAL B   5      55.552  87.379  30.668  1.00 32.24 LIG-0.35  N 
ATOM      5 H    VAL B   5      55.953  86.705  31.020  1.00 32.24 LIG 0.16  HD
BRANCH 4 6
ATOM      6  CA  VAL B   5      56.430  88.262  29.895  1.00 32.53 LIG 0.18  C 
BRANCH 6 7
ATOM      7  CB  VAL B   5      57.916  87.932  30.127  1.00 34.70 LIG 0.01  C 
ATOM      8  CG2 VAL B   5      58.090  87.391  31.522  1.00 38.22 LIG 0.01  C 
ATOM      9  CG1 VAL B   5      58.810  89.149  29.921  1.00 39.77 LIG 0.01  C 
ENDBRANCH 6 7
BRANCH 6 10
ATOM     10  C   VAL B   5      56.136  88.146  28.425  1.00 39.16 LIG 0.24  C 
ATOM     11 O    VAL B   5      55.531  87.168  27.967  1.00 33.69 LIG-0.27  OA
ATOM     12  N   LYS B   6      56.538  89.170  27.692  1.00 40.12 LIG-0.35  N 
ATOM     13 H    LYS B   6      56.916  89.873  28.014  1.00 40.12 LIG 0.16  HD
BRANCH 12 14
ATOM     14  CA  LYS B   6      56.370  89.188  26.270  1.00 45.41 LIG 0.18  C 
BRANCH 14 15
ATOM     15  C   LYS B   6      57.366  88.150  25.800  1.00 44.99 LIG 0.24  C 
ATOM     16 O    LYS B   6      58.289  87.823  26.516  1.00 45.85 LIG-0.27  OA
ATOM     17  N   ILE B   7      57.180  87.560  24.638  1.00 47.54 LIG-0.34  N 
ATOM     18 H    ILE B   7      56.554  87.730  24.073  1.00 47.54 LIG 0.16  HD
BRANCH 17 19
ATOM     19  CA  ILE B   7      58.138  86.503  24.269  1.00 57.67 LIG 0.19  C 
BRANCH 19 20
ATOM     20  CB  ILE B   7      58.112  85.221  25.190  1.00 59.41 LIG 0.01  C 
ATOM     21  CG2 ILE B   7      56.695  84.699  25.403  1.00 60.58 LIG 0.01  C 
BRANCH 20 22
ATOM     22  CG1 ILE B   7      59.031  84.100  24.624  1.00 65.20 LIG 0.00  C 
ATOM     23  CD1 ILE B   7      60.505  84.448  24.400  1.00 51.92 LIG 0.01  C 
ENDBRANCH 20 22
ENDBRANCH 19 20
BRANCH 19 24
ATOM     24  C   ILE B   7      58.138  86.205  22.762  1.00 61.74 LIG 0.20  C 
ATOM     25 O    ILE B   7      59.136  85.896  22.128  1.00 61.53 LIG-0.65  OA
ATOM     26 OXT  ILE B   7      57.085  86.244  22.126  1.00 68.92 LIG-0.65  OA
ENDBRANCH 19 24
ENDBRANCH 17 19
ENDBRANCH 14 15
BRANCH 14 27
ATOM     27  CB  LYS B   6      56.695  90.607  25.774  1.00 46.87 LIG 0.04  C 
BRANCH 27 28
ATOM     28  CG  LYS B   6      57.920  90.709  24.886  1.00 55.56 LIG 0.00  C 
BRANCH 28 29
ATOM     29  CD  LYS B   6      57.558  90.852  23.415  1.00 60.95 LIG 0.03  C 
BRANCH 29 30
ATOM     30  CE  LYS B   6      58.687  91.517  22.619  1.00 62.93 LIG 0.23  C 
BRANCH 30 31
ATOM     31  NZ  LYS B   6      58.264  92.822  22.024  1.00 65.77 LIG-0.08  N 
ATOM     32 HZ1  LYS B   6      58.853  93.072  21.405  1.00 65.77 LIG 0.27  HD
ATOM     33 HZ2  LYS B   6      57.461  92.732  21.649  1.00 65.77 LIG 0.27  HD
ATOM     34 HZ3  LYS B   6      58.225  93.441  22.663  1.00 65.77 LIG 0.27  HD
ENDBRANCH 30 31
ENDBRANCH 29 30
ENDBRANCH 28 29
ENDBRANCH 27 28
ENDBRANCH 14 27
ENDBRANCH 12 14
ENDBRANCH 6 10
ENDBRANCH 4 6
ENDBRANCH 1 2
BRANCH 1 35
ATOM     35  CB  LEU B   4      52.485  85.953  30.618  1.00 28.63 LIG 0.04  C 
BRANCH 35 36
ATOM     36  CG  LEU B   4      52.257  84.484  30.951  1.00 30.56 LIG-0.02  C 
ATOM     37  CD2 LEU B   4      50.818  84.132  30.642  1.00 33.80 LIG 0.01  C 
ATOM     38  CD1 LEU B   4      52.554  84.274  32.446  1.00 28.87 LIG 0.01  C 
ENDBRANCH 35 36
ENDBRANCH 1 35
BRANCH 1 39
ATOM     39  N   LEU B   4      52.685  87.077  32.751  1.00 28.62 LIG-0.35  N 
ATOM     40 H    LEU B   4      51.832  87.009  32.670  1.00 28.62 LIG 0.16  HD
ATOM     41  C   PRO B   3      53.295  87.567  33.811  1.00 33.12 LIG 0.24  C 
ATOM     42 O    PRO B   3      54.516  87.452  34.017  1.00 32.36 LIG-0.27  OA
BRANCH 41 43
ATOM     43  CA  PRO B   3      52.391  88.260  34.827  1.00 33.48 LIG 0.18  C 
ATOM     44  CB  PRO B   3      52.408  89.798  34.619  1.00 32.62 LIG 0.04  C 
ATOM     45  CG  PRO B   3      52.472  90.386  36.005  1.00 32.85 LIG 0.02  C 
ATOM     46  CD  PRO B   3      53.227  89.362  36.849  1.00 29.95 LIG 0.13  C 
ATOM     47  N   PRO B   3      53.001  88.074  36.131  1.00 33.01 LIG-0.34  N 
ATOM     48  C   LEU B   2      53.216  86.808  36.552  1.00 31.97 LIG 0.24  C 
ATOM     49 O    LEU B   2      52.804  85.804  35.962  1.00 33.64 LIG-0.27  OA
BRANCH 48 50
ATOM     50  CA  LEU B   2      53.957  86.639  37.859  1.00 32.67 LIG 0.18  C 
BRANCH 50 51
ATOM     51  N   LEU B   2      53.043  87.115  38.891  1.00 33.85 LIG-0.35  N 
ATOM     52 H    LEU B   2      52.214  87.016  38.687  1.00 33.85 LIG 0.16  HD
ATOM     53  C   GLU B   1      53.448  87.651  40.038  1.00 36.42 LIG 0.25  C 
ATOM     54 O    GLU B   1      54.618  87.543  40.441  1.00 32.31 LIG-0.27  OA
BRANCH 53 55
ATOM     55  CA  GLU B   1      52.356  88.321  40.902  1.00 35.71 LIG 0.28  C 
BRANCH 55 56
ATOM     56  CB  GLU B   1      52.146  89.755  40.402  1.00 39.23 LIG 0.05  C 
BRANCH 56 57
ATOM     57  CG  GLU B   1      53.460  90.486  40.131  1.00 48.64 LIG 0.12  C 
BRANCH 57 58
ATOM     58  CD  GLU B   1      54.381  90.659  41.346  1.00 56.94 LIG 0.17  C 
ATOM     59 OE1  GLU B   1      53.830  90.812  42.449  1.00 65.53 LIG-0.65  OA
ATOM     60 OE2  GLU B   1      55.639  90.663  41.229  1.00 53.19 LIG-0.65  OA
ENDBRANCH 57 58
ENDBRANCH 56 57
ENDBRANCH 55 56
BRANCH 55 61
ATOM     61  N   GLU B   1      52.730  88.342  42.358  1.00 36.67 LIG-0.07  N 
ATOM     62 H1   GLU B   1      52.073  87.984  42.839  1.00 36.67 LIG 0.28  HD
ATOM     63 H3   GLU B   1      52.864  89.183  42.618  1.00 36.67 LIG 0.28  HD
ATOM     64 H2   GLU B   1      53.477  87.873  42.479  1.00 36.67 LIG 0.28  HD
ENDBRANCH 55 61
ENDBRANCH 53 55
ENDBRANCH 50 51
BRANCH 50 65
ATOM     65  CB  LEU B   2      54.346  85.150  38.046  1.00 34.84 LIG 0.04  C 
BRANCH 65 66
ATOM     66  CG  LEU B   2      55.500  84.856  39.019  1.00 34.30 LIG-0.02  C 
ATOM     67  CD2 LEU B   2      56.389  83.703  38.522  1.00 39.39 LIG 0.01  C 
ATOM     68  CD1 LEU B   2      55.018  84.584  40.445  1.00 34.61 LIG 0.01  C 
ENDBRANCH 65 66
ENDBRANCH 50 65
ENDBRANCH 48 50
ENDBRANCH 41 43
ENDBRANCH 1 39
TORSDOF 28
ENDMDL
MODEL 29
USER: ADFR SOLUTION from run 114
USER: SCORE 25.564854 LL:  -7.188 LR: -18.875 RR:   0.000 FEB: -10.523
USER: RMSD 13.139618
USER: SEED 113
USER: STATUS searching
USER: GENES 30
USER: genes 0 Translation |==|  0.54094 0.57990 0.46493
USER: genes 1 Rotation |==|  0.10500 0.39774 0.21887 0.56694
USER: genes 2 Torsion [N]-CA--C-[N] |==|  0.42219
USER: genes 3 Torsion [C]-N--CA-[C] |==|  0.83867
USER: genes 4 Torsion [N]-CA--CB-[CG2] |==|  0.57402
USER: genes 5 Torsion [N]-CA--C-[N] |==|  0.41667
USER: genes 6 Torsion [C]-N--CA-[C] |==|  0.64459
USER: genes 7 Torsion [N]-CA--C-[N] |==|  0.28833
USER: genes 8 Torsion [C]-N--CA-[CB] |==|  0.24191
USER: genes 9 Torsion [N]-CA--CB-[CG1] |==|  0.05925
USER: genes 10 Torsion [CA]-CB--CG1-[CD1] |==|  0.37845
USER: genes 11 Torsion [N]-CA--C-[OXT] |==|  0.70907
USER: genes 12 Torsion [N]-CA--CB-[CG] |==|  0.70741
USER: genes 13 Torsion [CA]-CB--CG-[CD] |==|  0.71074
USER: genes 14 Torsion [CB]-CG--CD-[CE] |==|  0.20995
USER: genes 15 Torsion [CG]-CD--CE-[NZ] |==|  0.10974
USER: genes 16 Torsion [CD]-CE--NZ-[HZ1] |==|  0.14744
USER: genes 17 Torsion [C]-CA--CB-[CG] |==|  0.48922
USER: genes 18 Torsion [CA]-CB--CG-[CD2] |==|  0.68627
USER: genes 19 Torsion [C]-CA--N-[C] |==|  0.83846
USER: genes 20 Torsion [N]-C--CA-[CB] |==|  0.63566
USER: genes 21 Torsion [N]-C--CA-[N] |==|  0.36241
USER: genes 22 Torsion [C]-CA--N-[C] |==|  0.81973
USER: genes 23 Torsion [N]-C--CA-[N] |==|  0.13859
USER: genes 24 Torsion [C]-CA--CB-[CG] |==|  0.38658
USER: genes 25 Torsion [CA]-CB--CG-[CD] |==|  0.20559
USER: genes 26 Torsion [CB]-CG--CD-[OE1] |==|  0.94239
USER: genes 27 Torsion [C]-CA--N-[H1] |==|  0.18486
USER: genes 28 Torsion [C]-CA--CB-[CG] |==|  0.25919
USER: genes 29 Torsion [CA]-CB--CG-[CD2] |==|  0.82082
ROOT
ATOM      1  CA  LEU B   4      56.499  88.124  29.752  1.00 30.07 LIG 0.18  C 
ENDROOT
BRANCH 1 2
ATOM      2  C   LEU B   4      56.369  87.993  28.256  1.00 30.58 LIG 0.24  C 
ATOM      3 O    LEU B   4      56.175  86.889  27.742  1.00 35.83 LIG-0.27  OA
ATOM      4  N   VAL B   5      56.555  89.102  27.544  1.00 32.24 LIG-0.35  N 
ATOM      5 H    VAL B   5      56.714  89.871  27.894  1.00 32.24 LIG 0.16  HD
BRANCH 4 6
ATOM      6  CA  VAL B   5      56.506  89.110  26.079  1.00 32.53 LIG 0.18  C 
BRANCH 6 7
ATOM      7  CB  VAL B   5      56.775  90.515  25.507  1.00 34.70 LIG 0.01  C 
ATOM      8  CG2 VAL B   5      56.101  90.639  24.165  1.00 38.22 LIG 0.01  C 
ATOM      9  CG1 VAL B   5      58.265  90.800  25.374  1.00 39.77 LIG 0.01  C 
ENDBRANCH 6 7
BRANCH 6 10
ATOM     10  C   VAL B   5      57.522  88.159  25.510  1.00 39.16 LIG 0.24  C 
ATOM     11 O    VAL B   5      58.565  87.893  26.121  1.00 33.69 LIG-0.27  OA
ATOM     12  N   LYS B   6      57.193  87.618  24.349  1.00 40.12 LIG-0.35  N 
ATOM     13 H    LYS B   6      56.447  87.763  23.946  1.00 40.12 LIG 0.16  HD
BRANCH 12 14
ATOM     14  CA  LYS B   6      58.075  86.726  23.659  1.00 45.41 LIG 0.18  C 
BRANCH 14 15
ATOM     15  C   LYS B   6      58.151  87.331  22.274  1.00 44.99 LIG 0.24  C 
ATOM     16 O    LYS B   6      57.204  87.247  21.520  1.00 45.85 LIG-0.27  OA
ATOM     17  N   ILE B   7      59.225  88.005  21.925  1.00 47.54 LIG-0.34  N 
ATOM     18 H    ILE B   7      59.936  88.114  22.396  1.00 47.54 LIG 0.16  HD
BRANCH 17 19
ATOM     19  CA  ILE B   7      59.209  88.637  20.593  1.00 57.67 LIG 0.19  C 
BRANCH 19 20
ATOM     20  CB  ILE B   7      58.576  90.083  20.543  1.00 59.41 LIG 0.01  C 
ATOM     21  CG2 ILE B   7      57.167  90.071  19.962  1.00 60.58 LIG 0.01  C 
BRANCH 20 22
ATOM     22  CG1 ILE B   7      58.586  90.753  21.947  1.00 65.20 LIG 0.00  C 
ATOM     23  CD1 ILE B   7      59.014  92.222  22.021  1.00 51.92 LIG 0.01  C 
ENDBRANCH 20 22
ENDBRANCH 19 20
BRANCH 19 24
ATOM     24  C   ILE B   7      60.552  88.505  19.859  1.00 61.74 LIG 0.20  C 
ATOM     25 O    ILE B   7      60.934  87.479  19.316  1.00 61.53 LIG-0.65  OA
ATOM     26 OXT  ILE B   7      61.305  89.475  19.771  1.00 68.92 LIG-0.65  OA
ENDBRANCH 19 24
ENDBRANCH 17 19
ENDBRANCH 14 15
BRANCH 14 27
ATOM     27  CB  LYS B   6      57.437  85.326  23.674  1.00 46.87 LIG 0.04  C 
BRANCH 27 28
ATOM     28  CG  LYS B   6      58.075  84.343  24.636  1.00 55.56 LIG 0.00  C 
BRANCH 28 29
ATOM     29  CD  LYS B   6      58.954  83.324  23.924  1.00 60.95 LIG 0.03  C 
BRANCH 29 30
ATOM     30  CE  LYS B   6      60.289  83.939  23.487  1.00 62.93 LIG 0.23  C 
BRANCH 30 31
ATOM     31  NZ  LYS B   6      60.842  84.874  24.516  1.00 65.77 LIG-0.08  N 
ATOM     32 HZ1  LYS B   6      60.882  84.459  25.302  1.00 65.77 LIG 0.27  HD
ATOM     33 HZ2  LYS B   6      61.659  85.132  24.274  1.00 65.77 LIG 0.27  HD
ATOM     34 HZ3  LYS B   6      60.314  85.587  24.583  1.00 65.77 LIG 0.27  HD
ENDBRANCH 30 31
ENDBRANCH 29 30
ENDBRANCH 28 29
ENDBRANCH 27 28
ENDBRANCH 14 27
ENDBRANCH 12 14
ENDBRANCH 6 10
ENDBRANCH 4 6
ENDBRANCH 1 2
BRANCH 1 35
ATOM     35  CB  LEU B   4      57.965  87.941  30.088  1.00 28.63 LIG 0.04  C 
BRANCH 35 36
ATOM     36  CG  LEU B   4      58.223  88.150  31.575  1.00 30.56 LIG-0.02  C 
ATOM     37  CD2 LEU B   4      59.058  89.399  31.754  1.00 33.80 LIG 0.01  C 
ATOM     38  CD1 LEU B   4      58.972  86.920  32.115  1.00 28.87 LIG 0.01  C 
ENDBRANCH 35 36
ENDBRANCH 1 35
BRANCH 1 39
ATOM     39  N   LEU B   4      55.724  87.179  30.589  1.00 28.62 LIG-0.35  N 
ATOM     40 H    LEU B   4      56.196  86.701  31.125  1.00 28.62 LIG 0.16  HD
ATOM     41  C   PRO B   3      54.412  87.107  30.488  1.00 33.12 LIG 0.24  C 
ATOM     42 O    PRO B   3      53.720  87.949  29.889  1.00 32.36 LIG-0.27  OA
BRANCH 41 43
ATOM     43  CA  PRO B   3      53.762  85.929  31.210  1.00 33.48 LIG 0.18  C 
ATOM     44  CB  PRO B   3      52.770  85.189  30.272  1.00 32.62 LIG 0.04  C 
ATOM     45  CG  PRO B   3      51.568  84.884  31.127  1.00 32.85 LIG 0.02  C 
ATOM     46  CD  PRO B   3      51.506  86.005  32.161  1.00 29.95 LIG 0.13  C 
ATOM     47  N   PRO B   3      52.915  86.486  32.249  1.00 33.01 LIG-0.34  N 
ATOM     48  C   LEU B   2      53.495  87.280  33.176  1.00 31.97 LIG 0.24  C 
ATOM     49 O    LEU B   2      54.715  87.451  33.275  1.00 33.64 LIG-0.27  OA
BRANCH 48 50
ATOM     50  CA  LEU B   2      52.577  87.941  34.179  1.00 32.67 LIG 0.18  C 
BRANCH 50 51
ATOM     51  N   LEU B   2      53.166  87.671  35.486  1.00 33.85 LIG-0.35  N 
ATOM     52 H    LEU B   2      53.438  88.379  35.892  1.00 33.85 LIG 0.16  HD
ATOM     53  C   GLU B   1      53.275  86.452  36.003  1.00 36.42 LIG 0.25  C 
ATOM     54 O    GLU B   1      52.647  85.483  35.547  1.00 32.31 LIG-0.27  OA
BRANCH 53 55
ATOM     55  CA  GLU B   1      54.140  86.326  37.278  1.00 35.71 LIG 0.28  C 
BRANCH 55 56
ATOM     56  CB  GLU B   1      53.968  84.913  37.848  1.00 39.23 LIG 0.05  C 
BRANCH 56 57
ATOM     57  CG  GLU B   1      55.280  84.314  38.353  1.00 48.64 LIG 0.12  C 
BRANCH 57 58
ATOM     58  CD  GLU B   1      55.801  84.890  39.677  1.00 56.94 LIG 0.17  C 
ATOM     59 OE1  GLU B   1      55.372  86.008  40.008  1.00 65.53 LIG-0.65  OA
ATOM     60 OE2  GLU B   1      56.638  84.265  40.388  1.00 53.19 LIG-0.65  OA
ENDBRANCH 57 58
ENDBRANCH 56 57
ENDBRANCH 55 56
BRANCH 55 61
ATOM     61  N   GLU B   1      53.755  87.341  38.317  1.00 36.67 LIG-0.07  N 
ATOM     62 H1   GLU B   1      52.934  87.167  38.614  1.00 36.67 LIG 0.28  HD
ATOM     63 H3   GLU B   1      53.772  88.156  37.958  1.00 36.67 LIG 0.28  HD
ATOM     64 H2   GLU B   1      54.330  87.305  38.995  1.00 36.67 LIG 0.28  HD
ENDBRANCH 55 61
ENDBRANCH 53 55
ENDBRANCH 50 51
BRANCH 50 65
ATOM     65  CB  LEU B   2      52.477  89.457  33.870  1.00 34.84 LIG 0.04  C 
BRANCH 65 66
ATOM     66  CG  LEU B   2      51.312  89.902  32.971  1.00 34.30 LIG-0.02  C 
ATOM     67  CD2 LEU B   2      51.429  89.322  31.551  1.00 39.39 LIG 0.01  C 
ATOM     68  CD1 LEU B   2      51.154  91.423  32.916  1.00 34.61 LIG 0.01  C 
ENDBRANCH 65 66
ENDBRANCH 50 65
ENDBRANCH 48 50
ENDBRANCH 41 43
ENDBRANCH 1 39
TORSDOF 28
ENDMDL
MODEL 30
USER: ADFR SOLUTION from run 46
USER: SCORE 25.267024 LL:  -7.131 LR: -18.870 RR:   0.000 FEB: -10.517
USER: RMSD 13.263050
USER: SEED 45
USER: STATUS no improvement in best in 4 clusters for 5 generations
USER: GENES 30
USER: genes 0 Translation |==|  0.50924 0.52060 0.43296
USER: genes 1 Rotation |==|  0.14243 0.29587 0.21642 0.50748
USER: genes 2 Torsion [N]-CA--C-[N] |==|  0.43189
USER: genes 3 Torsion [C]-N--CA-[C] |==|  0.82509
USER: genes 4 Torsion [N]-CA--CB-[CG2] |==|  0.13915
USER: genes 5 Torsion [N]-CA--C-[N] |==|  0.40000
USER: genes 6 Torsion [C]-N--CA-[C] |==|  0.69874
USER: genes 7 Torsion [N]-CA--C-[N] |==|  0.19219
USER: genes 8 Torsion [C]-N--CA-[CB] |==|  0.30775
USER: genes 9 Torsion [N]-CA--CB-[CG1] |==|  0.21938
USER: genes 10 Torsion [CA]-CB--CG1-[CD1] |==|  0.64712
USER: genes 11 Torsion [N]-CA--C-[OXT] |==|  0.75155
USER: genes 12 Torsion [N]-CA--CB-[CG] |==|  0.12475
USER: genes 13 Torsion [CA]-CB--CG-[CD] |==|  0.54668
USER: genes 14 Torsion [CB]-CG--CD-[CE] |==|  0.77457
USER: genes 15 Torsion [CG]-CD--CE-[NZ] |==|  0.53700
USER: genes 16 Torsion [CD]-CE--NZ-[HZ1] |==|  0.30031
USER: genes 17 Torsion [C]-CA--CB-[CG] |==|  0.50342
USER: genes 18 Torsion [CA]-CB--CG-[CD2] |==|  0.84281
USER: genes 19 Torsion [C]-CA--N-[C] |==|  0.70026
USER: genes 20 Torsion [N]-C--CA-[CB] |==|  0.67915
USER: genes 21 Torsion [N]-C--CA-[N] |==|  0.35061
USER: genes 22 Torsion [C]-CA--N-[C] |==|  0.84436
USER: genes 23 Torsion [N]-C--CA-[N] |==|  0.11019
USER: genes 24 Torsion [C]-CA--CB-[CG] |==|  0.40546
USER: genes 25 Torsion [CA]-CB--CG-[CD] |==|  0.08545
USER: genes 26 Torsion [CB]-CG--CD-[OE1] |==|  0.14142
USER: genes 27 Torsion [C]-CA--N-[H1] |==|  0.53146
USER: genes 28 Torsion [C]-CA--CB-[CG] |==|  0.31251
USER: genes 29 Torsion [CA]-CB--CG-[CD2] |==|  0.79068
ROOT
ATOM      1  CA  LEU B   4      55.833  86.789  28.936  1.00 30.07 LIG 0.18  C 
ENDROOT
BRANCH 1 2
ATOM      2  C   LEU B   4      56.079  86.099  27.620  1.00 30.58 LIG 0.24  C 
ATOM      3 O    LEU B   4      56.138  84.869  27.564  1.00 35.83 LIG-0.27  OA
ATOM      4  N   VAL B   5      56.302  86.885  26.569  1.00 32.24 LIG-0.35  N 
ATOM      5 H    VAL B   5      56.285  87.743  26.605  1.00 32.24 LIG 0.16  HD
BRANCH 4 6
ATOM      6  CA  VAL B   5      56.602  86.347  25.238  1.00 32.53 LIG 0.18  C 
BRANCH 6 7
ATOM      7  CB  VAL B   5      56.720  87.465  24.186  1.00 34.70 LIG 0.01  C 
ATOM      8  CG2 VAL B   5      57.653  88.530  24.700  1.00 38.22 LIG 0.01  C 
ATOM      9  CG1 VAL B   5      55.365  88.073  23.847  1.00 39.77 LIG 0.01  C 
ENDBRANCH 6 7
BRANCH 6 10
ATOM     10  C   VAL B   5      57.891  85.571  25.259  1.00 39.16 LIG 0.24  C 
ATOM     11 O    VAL B   5      58.831  85.909  25.989  1.00 33.69 LIG-0.27  OA
ATOM     12  N   LYS B   6      57.913  84.504  24.479  1.00 40.12 LIG-0.35  N 
ATOM     13 H    LYS B   6      57.243  84.239  24.007  1.00 40.12 LIG 0.16  HD
BRANCH 12 14
ATOM     14  CA  LYS B   6      59.082  83.688  24.356  1.00 45.41 LIG 0.18  C 
BRANCH 14 15
ATOM     15  C   LYS B   6      59.572  84.007  22.960  1.00 44.99 LIG 0.24  C 
ATOM     16 O    LYS B   6      59.449  83.191  22.070  1.00 45.85 LIG-0.27  OA
ATOM     17  N   ILE B   7      60.067  85.200  22.710  1.00 47.54 LIG-0.34  N 
ATOM     18 H    ILE B   7      60.188  85.834  23.279  1.00 47.54 LIG 0.16  HD
BRANCH 17 19
ATOM     19  CA  ILE B   7      60.455  85.479  21.315  1.00 57.67 LIG 0.19  C 
BRANCH 19 20
ATOM     20  CB  ILE B   7      59.549  86.530  20.563  1.00 59.41 LIG 0.01  C 
ATOM     21  CG2 ILE B   7      58.063  86.269  20.787  1.00 60.58 LIG 0.01  C 
BRANCH 20 22
ATOM     22  CG1 ILE B   7      59.918  87.987  20.967  1.00 65.20 LIG 0.00  C 
ATOM     23  CD1 ILE B   7      58.781  88.887  21.458  1.00 51.92 LIG 0.01  C 
ENDBRANCH 20 22
ENDBRANCH 19 20
BRANCH 19 24
ATOM     24  C   ILE B   7      61.965  85.712  21.156  1.00 61.74 LIG 0.20  C 
ATOM     25 O    ILE B   7      62.767  84.829  20.891  1.00 61.53 LIG-0.65  OA
ATOM     26 OXT  ILE B   7      62.430  86.847  21.272  1.00 68.92 LIG-0.65  OA
ENDBRANCH 19 24
ENDBRANCH 17 19
ENDBRANCH 14 15
BRANCH 14 27
ATOM     27  CB  LYS B   6      58.654  82.220  24.526  1.00 46.87 LIG 0.04  C 
BRANCH 27 28
ATOM     28  CG  LYS B   6      57.404  81.826  23.762  1.00 55.56 LIG 0.00  C 
BRANCH 28 29
ATOM     29  CD  LYS B   6      56.801  80.525  24.271  1.00 60.95 LIG 0.03  C 
BRANCH 29 30
ATOM     30  CE  LYS B   6      57.526  79.304  23.692  1.00 62.93 LIG 0.23  C 
BRANCH 30 31
ATOM     31  NZ  LYS B   6      56.764  78.037  23.918  1.00 65.77 LIG-0.08  N 
ATOM     32 HZ1  LYS B   6      56.421  77.755  23.146  1.00 65.77 LIG 0.27  HD
ATOM     33 HZ2  LYS B   6      57.311  77.415  24.244  1.00 65.77 LIG 0.27  HD
ATOM     34 HZ3  LYS B   6      56.106  78.186  24.498  1.00 65.77 LIG 0.27  HD
ENDBRANCH 30 31
ENDBRANCH 29 30
ENDBRANCH 28 29
ENDBRANCH 27 28
ENDBRANCH 14 27
ENDBRANCH 12 14
ENDBRANCH 6 10
ENDBRANCH 4 6
ENDBRANCH 1 2
BRANCH 1 35
ATOM     35  CB  LEU B   4      57.190  87.113  29.528  1.00 28.63 LIG 0.04  C 
BRANCH 35 36
ATOM     36  CG  LEU B   4      57.055  87.791  30.886  1.00 30.56 LIG-0.02  C 
ATOM     37  CD2 LEU B   4      56.206  89.033  30.727  1.00 33.80 LIG 0.01  C 
ATOM     38  CD1 LEU B   4      58.462  88.162  31.385  1.00 28.87 LIG 0.01  C 
ENDBRANCH 35 36
ENDBRANCH 1 35
BRANCH 1 39
ATOM     39  N   LEU B   4      55.059  86.050  29.960  1.00 28.62 LIG-0.35  N 
ATOM     40 H    LEU B   4      55.480  85.396  30.328  1.00 28.62 LIG 0.16  HD
ATOM     41  C   PRO B   3      53.824  86.399  30.256  1.00 33.12 LIG 0.24  C 
ATOM     42 O    PRO B   3      53.306  87.471  29.896  1.00 32.36 LIG-0.27  OA
BRANCH 41 43
ATOM     43  CA  PRO B   3      53.054  85.412  31.131  1.00 33.48 LIG 0.18  C 
ATOM     44  CB  PRO B   3      51.847  84.817  30.358  1.00 32.62 LIG 0.04  C 
ATOM     45  CG  PRO B   3      50.712  84.798  31.348  1.00 32.85 LIG 0.02  C 
ATOM     46  CD  PRO B   3      50.970  85.973  32.288  1.00 29.95 LIG 0.13  C 
ATOM     47  N   PRO B   3      52.444  86.183  32.199  1.00 33.01 LIG-0.34  N 
ATOM     48  C   LEU B   2      53.257  86.909  32.997  1.00 31.97 LIG 0.24  C 
ATOM     49 O    LEU B   2      54.491  86.852  32.963  1.00 33.64 LIG-0.27  OA
BRANCH 48 50
ATOM     50  CA  LEU B   2      52.592  87.792  34.028  1.00 32.67 LIG 0.18  C 
BRANCH 50 51
ATOM     51  N   LEU B   2      53.191  87.424  35.305  1.00 33.85 LIG-0.35  N 
ATOM     52 H    LEU B   2      53.545  88.088  35.722  1.00 33.85 LIG 0.16  HD
ATOM     53  C   GLU B   1      53.194  86.184  35.784  1.00 36.42 LIG 0.25  C 
ATOM     54 O    GLU B   1      52.457  85.297  35.322  1.00 32.31 LIG-0.27  OA
BRANCH 53 55
ATOM     55  CA  GLU B   1      54.080  85.932  37.024  1.00 35.71 LIG 0.28  C 
BRANCH 55 56
ATOM     56  CB  GLU B   1      53.610  84.644  37.709  1.00 39.23 LIG 0.05  C 
BRANCH 56 57
ATOM     57  CG  GLU B   1      54.756  83.857  38.344  1.00 48.64 LIG 0.12  C 
BRANCH 57 58
ATOM     58  CD  GLU B   1      55.931  84.702  38.855  1.00 56.94 LIG 0.17  C 
ATOM     59 OE1  GLU B   1      55.651  85.657  39.599  1.00 65.53 LIG-0.65  OA
ATOM     60 OE2  GLU B   1      57.123  84.451  38.521  1.00 53.19 LIG-0.65  OA
ENDBRANCH 57 58
ENDBRANCH 56 57
ENDBRANCH 55 56
BRANCH 55 61
ATOM     61  N   GLU B   1      54.017  87.075  37.998  1.00 36.67 LIG-0.07  N 
ATOM     62 H1   GLU B   1      54.654  86.978  38.612  1.00 36.67 LIG 0.28  HD
ATOM     63 H3   GLU B   1      53.221  87.084  38.396  1.00 36.67 LIG 0.28  HD
ATOM     64 H2   GLU B   1      54.138  87.843  37.563  1.00 36.67 LIG 0.28  HD
ENDBRANCH 55 61
ENDBRANCH 53 55
ENDBRANCH 50 51
BRANCH 50 65
ATOM     65  CB  LEU B   2      52.828  89.281  33.664  1.00 34.84 LIG 0.04  C 
BRANCH 65 66
ATOM     66  CG  LEU B   2      51.591  90.091  33.238  1.00 34.30 LIG-0.02  C 
ATOM     67  CD2 LEU B   2      51.145  89.744  31.807  1.00 39.39 LIG 0.01  C 
ATOM     68  CD1 LEU B   2      51.793  91.600  33.384  1.00 34.61 LIG 0.01  C 
ENDBRANCH 65 66
ENDBRANCH 50 65
ENDBRANCH 48 50
ENDBRANCH 41 43
ENDBRANCH 1 39
TORSDOF 28
ENDMDL
MODEL 31
USER: ADFR SOLUTION from run 27
USER: SCORE 25.006076 LL:  -6.885 LR: -18.855 RR:   0.000 FEB: -10.502
USER: RMSD 3.080034
USER: SEED 26
USER: STATUS no improvement in best in 4 clusters for 5 generations
USER: GENES 30
USER: genes 0 Translation |==|  0.54133 0.57047 0.46954
USER: genes 1 Rotation |==|  0.50938 0.52010 0.50963 0.99942
USER: genes 2 Torsion [N]-CA--C-[N] |==|  0.43565
USER: genes 3 Torsion [C]-N--CA-[C] |==|  0.72670
USER: genes 4 Torsion [N]-CA--CB-[CG2] |==|  0.76076
USER: genes 5 Torsion [N]-CA--C-[N] |==|  0.35106
USER: genes 6 Torsion [C]-N--CA-[C] |==|  0.81310
USER: genes 7 Torsion [N]-CA--C-[N] |==|  0.33423
USER: genes 8 Torsion [C]-N--CA-[CB] |==|  0.31221
USER: genes 9 Torsion [N]-CA--CB-[CG1] |==|  0.12876
USER: genes 10 Torsion [CA]-CB--CG1-[CD1] |==|  0.45543
USER: genes 11 Torsion [N]-CA--C-[OXT] |==|  0.30834
USER: genes 12 Torsion [N]-CA--CB-[CG] |==|  0.90029
USER: genes 13 Torsion [CA]-CB--CG-[CD] |==|  0.27862
USER: genes 14 Torsion [CB]-CG--CD-[CE] |==|  0.37018
USER: genes 15 Torsion [CG]-CD--CE-[NZ] |==|  0.25869
USER: genes 16 Torsion [CD]-CE--NZ-[HZ1] |==|  0.96527
USER: genes 17 Torsion [C]-CA--CB-[CG] |==|  0.49540
USER: genes 18 Torsion [CA]-CB--CG-[CD2] |==|  0.63029
USER: genes 19 Torsion [C]-CA--N-[C] |==|  0.81951
USER: genes 20 Torsion [N]-C--CA-[CB] |==|  0.72550
USER: genes 21 Torsion [N]-C--CA-[N] |==|  0.24807
USER: genes 22 Torsion [C]-CA--N-[C] |==|  0.65079
USER: genes 23 Torsion [N]-C--CA-[N] |==|  0.96856
USER: genes 24 Torsion [C]-CA--CB-[CG] |==|  0.87054
USER: genes 25 Torsion [CA]-CB--CG-[CD] |==|  0.75375
USER: genes 26 Torsion [CB]-CG--CD-[OE1] |==|  0.55744
USER: genes 27 Torsion [C]-CA--N-[H1] |==|  0.59168
USER: genes 28 Torsion [C]-CA--CB-[CG] |==|  0.62131
USER: genes 29 Torsion [CA]-CB--CG-[CD2] |==|  0.61537
ROOT
ATOM      1  CA  LEU B   4      56.507  87.912  29.869  1.00 30.07 LIG 0.18  C 
ENDROOT
BRANCH 1 2
ATOM      2  C   LEU B   4      55.069  87.867  30.317  1.00 30.58 LIG 0.24  C 
ATOM      3 O    LEU B   4      54.250  88.670  29.863  1.00 35.83 LIG-0.27  OA
ATOM      4  N   VAL B   5      54.769  86.984  31.266  1.00 32.24 LIG-0.35  N 
ATOM      5 H    VAL B   5      55.339  86.436  31.604  1.00 32.24 LIG 0.16  HD
BRANCH 4 6
ATOM      6  CA  VAL B   5      53.419  86.866  31.828  1.00 32.53 LIG 0.18  C 
BRANCH 6 7
ATOM      7  CB  VAL B   5      53.032  85.396  32.074  1.00 34.70 LIG 0.01  C 
ATOM      8  CG2 VAL B   5      52.453  84.820  30.808  1.00 38.22 LIG 0.01  C 
ATOM      9  CG1 VAL B   5      52.036  85.253  33.218  1.00 39.77 LIG 0.01  C 
ENDBRANCH 6 7
BRANCH 6 10
ATOM     10  C   VAL B   5      53.322  87.612  33.131  1.00 39.16 LIG 0.24  C 
ATOM     11 O    VAL B   5      54.139  87.422  34.041  1.00 33.69 LIG-0.27  OA
ATOM     12  N   LYS B   6      52.336  88.490  33.199  1.00 40.12 LIG-0.35  N 
ATOM     13 H    LYS B   6      51.797  88.659  32.550  1.00 40.12 LIG 0.16  HD
BRANCH 12 14
ATOM     14  CA  LYS B   6      52.086  89.247  34.388  1.00 45.41 LIG 0.18  C 
BRANCH 14 15
ATOM     15  C   LYS B   6      51.626  88.191  35.370  1.00 44.99 LIG 0.24  C 
ATOM     16 O    LYS B   6      50.679  87.481  35.101  1.00 45.85 LIG-0.27  OA
ATOM     17  N   ILE B   7      52.304  88.008  36.482  1.00 47.54 LIG-0.34  N 
ATOM     18 H    ILE B   7      52.984  88.463  36.748  1.00 47.54 LIG 0.16  HD
BRANCH 17 19
ATOM     19  CA  ILE B   7      51.855  86.913  37.362  1.00 57.67 LIG 0.19  C 
BRANCH 19 20
ATOM     20  CB  ILE B   7      52.854  85.696  37.484  1.00 59.41 LIG 0.01  C 
ATOM     21  CG2 ILE B   7      52.785  84.775  36.272  1.00 60.58 LIG 0.01  C 
BRANCH 20 22
ATOM     22  CG1 ILE B   7      54.312  86.184  37.722  1.00 65.20 LIG 0.00  C 
ATOM     23  CD1 ILE B   7      55.322  85.153  38.232  1.00 51.92 LIG 0.01  C 
ENDBRANCH 20 22
ENDBRANCH 19 20
BRANCH 19 24
ATOM     24  C   ILE B   7      51.302  87.421  38.702  1.00 61.74 LIG 0.20  C 
ATOM     25 O    ILE B   7      51.984  87.958  39.561  1.00 61.53 LIG-0.65  OA
ATOM     26 OXT  ILE B   7      50.100  87.320  38.951  1.00 68.92 LIG-0.65  OA
ENDBRANCH 19 24
ENDBRANCH 17 19
ENDBRANCH 14 15
BRANCH 14 27
ATOM     27  CB  LYS B   6      51.000  90.288  34.065  1.00 46.87 LIG 0.04  C 
BRANCH 27 28
ATOM     28  CG  LYS B   6      51.070  90.872  32.668  1.00 55.56 LIG 0.00  C 
BRANCH 28 29
ATOM     29  CD  LYS B   6      50.066  90.230  31.721  1.00 60.95 LIG 0.03  C 
BRANCH 29 30
ATOM     30  CE  LYS B   6      49.302  91.283  30.910  1.00 62.93 LIG 0.23  C 
BRANCH 30 31
ATOM     31  NZ  LYS B   6      49.950  91.558  29.591  1.00 65.77 LIG-0.08  N 
ATOM     32 HZ1  LYS B   6      50.764  91.198  29.579  1.00 65.77 LIG 0.27  HD
ATOM     33 HZ2  LYS B   6      49.459  91.203  28.939  1.00 65.77 LIG 0.27  HD
ATOM     34 HZ3  LYS B   6      50.014  92.438  29.469  1.00 65.77 LIG 0.27  HD
ENDBRANCH 30 31
ENDBRANCH 29 30
ENDBRANCH 28 29
ENDBRANCH 27 28
ENDBRANCH 14 27
ENDBRANCH 12 14
ENDBRANCH 6 10
ENDBRANCH 4 6
ENDBRANCH 1 2
BRANCH 1 35
ATOM     35  CB  LEU B   4      57.258  88.762  30.873  1.00 28.63 LIG 0.04  C 
BRANCH 35 36
ATOM     36  CG  LEU B   4      58.741  88.840  30.534  1.00 30.56 LIG-0.02  C 
ATOM     37  CD2 LEU B   4      59.542  88.588  31.793  1.00 33.80 LIG 0.01  C 
ATOM     38  CD1 LEU B   4      59.040  90.243  29.979  1.00 28.87 LIG 0.01  C 
ENDBRANCH 35 36
ENDBRANCH 1 35
BRANCH 1 39
ATOM     39  N   LEU B   4      56.785  88.455  28.520  1.00 28.62 LIG-0.35  N 
ATOM     40 H    LEU B   4      57.241  89.184  28.512  1.00 28.62 LIG 0.16  HD
ATOM     41  C   PRO B   3      56.349  87.839  27.440  1.00 33.12 LIG 0.24  C 
ATOM     42 O    PRO B   3      55.897  86.680  27.444  1.00 32.36 LIG-0.27  OA
BRANCH 41 43
ATOM     43  CA  PRO B   3      56.478  88.626  26.138  1.00 33.48 LIG 0.18  C 
ATOM     44  CB  PRO B   3      55.129  89.297  25.765  1.00 32.62 LIG 0.04  C 
ATOM     45  CG  PRO B   3      54.982  89.096  24.280  1.00 32.85 LIG 0.02  C 
ATOM     46  CD  PRO B   3      55.704  87.787  23.971  1.00 29.95 LIG 0.13  C 
ATOM     47  N   PRO B   3      56.694  87.656  25.079  1.00 33.01 LIG-0.34  N 
ATOM     48  C   LEU B   2      57.762  86.836  25.184  1.00 31.97 LIG 0.24  C 
ATOM     49 O    LEU B   2      58.639  86.948  26.047  1.00 33.64 LIG-0.27  OA
BRANCH 48 50
ATOM     50  CA  LEU B   2      57.902  85.760  24.131  1.00 32.67 LIG 0.18  C 
BRANCH 50 51
ATOM     51  N   LEU B   2      58.677  86.364  23.053  1.00 33.85 LIG-0.35  N 
ATOM     52 H    LEU B   2      59.424  86.700  23.314  1.00 33.85 LIG 0.16  HD
ATOM     53  C   GLU B   1      58.271  86.396  21.788  1.00 36.42 LIG 0.25  C 
ATOM     54 O    GLU B   1      57.341  85.684  21.375  1.00 32.31 LIG-0.27  OA
BRANCH 53 55
ATOM     55  CA  GLU B   1      59.094  87.285  20.829  1.00 35.71 LIG 0.28  C 
BRANCH 55 56
ATOM     56  CB  GLU B   1      59.868  86.379  19.864  1.00 39.23 LIG 0.05  C 
BRANCH 56 57
ATOM     57  CG  GLU B   1      60.575  85.225  20.574  1.00 48.64 LIG 0.12  C 
BRANCH 57 58
ATOM     58  CD  GLU B   1      61.995  85.528  21.070  1.00 56.94 LIG 0.17  C 
ATOM     59 OE1  GLU B   1      62.734  84.552  21.283  1.00 65.53 LIG-0.65  OA
ATOM     60 OE2  GLU B   1      62.389  86.712  21.271  1.00 53.19 LIG-0.65  OA
ENDBRANCH 57 58
ENDBRANCH 56 57
ENDBRANCH 55 56
BRANCH 55 61
ATOM     61  N   GLU B   1      60.054  88.170  21.573  1.00 36.67 LIG-0.07  N 
ATOM     62 H1   GLU B   1      60.148  88.940  21.136  1.00 36.67 LIG 0.28  HD
ATOM     63 H3   GLU B   1      60.845  87.766  21.633  1.00 36.67 LIG 0.28  HD
ATOM     64 H2   GLU B   1      59.740  88.329  22.390  1.00 36.67 LIG 0.28  HD
ENDBRANCH 55 61
ENDBRANCH 53 55
ENDBRANCH 50 51
BRANCH 50 65
ATOM     65  CB  LEU B   2      58.602  84.520  24.747  1.00 34.84 LIG 0.04  C 
BRANCH 65 66
ATOM     66  CG  LEU B   2      59.696  83.853  23.897  1.00 34.30 LIG-0.02  C 
ATOM     67  CD2 LEU B   2      59.612  82.318  23.955  1.00 39.39 LIG 0.01  C 
ATOM     68  CD1 LEU B   2      61.104  84.327  24.267  1.00 34.61 LIG 0.01  C 
ENDBRANCH 65 66
ENDBRANCH 50 65
ENDBRANCH 48 50
ENDBRANCH 41 43
ENDBRANCH 1 39
TORSDOF 28
ENDMDL
MODEL 32
USER: ADFR SOLUTION from run 11
USER: SCORE 25.818966 LL:  -8.079 LR: -18.830 RR:   0.000 FEB: -10.478
USER: RMSD 13.037010
USER: SEED 541229
USER: STATUS no improvement in best in 6 clusters for 5 generations
USER: GENES 30
USER: genes 0 Translation |==|  0.52364 0.60376 0.48650
USER: genes 1 Rotation |==|  0.21549 0.25851 0.17171 0.55442
USER: genes 2 Torsion [N]-CA--C-[N] |==|  0.38026
USER: genes 3 Torsion [C]-N--CA-[C] |==|  0.49220
USER: genes 4 Torsion [N]-CA--CB-[CG2] |==|  0.51749
USER: genes 5 Torsion [N]-CA--C-[N] |==|  0.42906
USER: genes 6 Torsion [C]-N--CA-[C] |==|  0.76688
USER: genes 7 Torsion [N]-CA--C-[N] |==|  0.39057
USER: genes 8 Torsion [C]-N--CA-[CB] |==|  0.24259
USER: genes 9 Torsion [N]-CA--CB-[CG1] |==|  0.13573
USER: genes 10 Torsion [CA]-CB--CG1-[CD1] |==|  0.78415
USER: genes 11 Torsion [N]-CA--C-[OXT] |==|  0.50167
USER: genes 12 Torsion [N]-CA--CB-[CG] |==|  0.36515
USER: genes 13 Torsion [CA]-CB--CG-[CD] |==|  0.26415
USER: genes 14 Torsion [CB]-CG--CD-[CE] |==|  0.67100
USER: genes 15 Torsion [CG]-CD--CE-[NZ] |==|  0.32650
USER: genes 16 Torsion [CD]-CE--NZ-[HZ1] |==|  0.00767
USER: genes 17 Torsion [C]-CA--CB-[CG] |==|  0.87665
USER: genes 18 Torsion [CA]-CB--CG-[CD2] |==|  0.80423
USER: genes 19 Torsion [C]-CA--N-[C] |==|  0.75406
USER: genes 20 Torsion [N]-C--CA-[CB] |==|  0.61692
USER: genes 21 Torsion [N]-C--CA-[N] |==|  0.46661
USER: genes 22 Torsion [C]-CA--N-[C] |==|  0.53334
USER: genes 23 Torsion [N]-C--CA-[N] |==|  0.27163
USER: genes 24 Torsion [C]-CA--CB-[CG] |==|  0.63084
USER: genes 25 Torsion [CA]-CB--CG-[CD] |==|  0.77428
USER: genes 26 Torsion [CB]-CG--CD-[OE1] |==|  0.24278
USER: genes 27 Torsion [C]-CA--N-[H1] |==|  0.55290
USER: genes 28 Torsion [C]-CA--CB-[CG] |==|  0.90510
USER: genes 29 Torsion [CA]-CB--CG-[CD2] |==|  0.71562
ROOT
ATOM      1  CA  LEU B   4      56.135  88.661  30.302  1.00 30.07 LIG 0.18  C 
ENDROOT
BRANCH 1 2
ATOM      2  C   LEU B   4      56.849  88.300  29.024  1.00 30.58 LIG 0.24  C 
ATOM      3 O    LEU B   4      57.612  87.332  28.989  1.00 35.83 LIG-0.27  OA
ATOM      4  N   VAL B   5      56.670  89.120  27.991  1.00 32.24 LIG-0.35  N 
ATOM      5 H    VAL B   5      56.157  89.810  28.015  1.00 32.24 LIG 0.16  HD
BRANCH 4 6
ATOM      6  CA  VAL B   5      57.340  88.916  26.703  1.00 32.53 LIG 0.18  C 
BRANCH 6 7
ATOM      7  CB  VAL B   5      57.047  87.521  26.123  1.00 34.70 LIG 0.01  C 
ATOM      8  CG2 VAL B   5      57.882  87.316  24.885  1.00 38.22 LIG 0.01  C 
ATOM      9  CG1 VAL B   5      55.570  87.339  25.795  1.00 39.77 LIG 0.01  C 
ENDBRANCH 6 7
BRANCH 6 10
ATOM     10  C   VAL B   5      56.898  89.953  25.707  1.00 39.16 LIG 0.24  C 
ATOM     11 O    VAL B   5      55.811  90.534  25.826  1.00 33.69 LIG-0.27  OA
ATOM     12  N   LYS B   6      57.766  90.208  24.743  1.00 40.12 LIG-0.35  N 
ATOM     13 H    LYS B   6      58.542  89.840  24.686  1.00 40.12 LIG 0.16  HD
BRANCH 12 14
ATOM     14  CA  LYS B   6      57.473  91.137  23.695  1.00 45.41 LIG 0.18  C 
BRANCH 14 15
ATOM     15  C   LYS B   6      56.690  90.298  22.708  1.00 44.99 LIG 0.24  C 
ATOM     16 O    LYS B   6      56.977  89.131  22.538  1.00 45.85 LIG-0.27  OA
ATOM     17  N   ILE B   7      55.656  90.828  22.091  1.00 47.54 LIG-0.34  N 
ATOM     18 H    ILE B   7      55.384  91.641  22.154  1.00 47.54 LIG 0.16  HD
BRANCH 17 19
ATOM     19  CA  ILE B   7      54.886  89.939  21.201  1.00 57.67 LIG 0.19  C 
BRANCH 19 20
ATOM     20  CB  ILE B   7      53.735  89.117  21.905  1.00 59.41 LIG 0.01  C 
ATOM     21  CG2 ILE B   7      54.282  87.950  22.720  1.00 60.58 LIG 0.01  C 
BRANCH 20 22
ATOM     22  CG1 ILE B   7      52.845  90.036  22.790  1.00 65.20 LIG 0.00  C 
ATOM     23  CD1 ILE B   7      53.403  90.451  24.154  1.00 51.92 LIG 0.01  C 
ENDBRANCH 20 22
ENDBRANCH 19 20
BRANCH 19 24
ATOM     24  C   ILE B   7      54.467  90.629  19.894  1.00 61.74 LIG 0.20  C 
ATOM     25 O    ILE B   7      54.770  91.775  19.601  1.00 61.53 LIG-0.65  OA
ATOM     26 OXT  ILE B   7      53.808  90.013  19.056  1.00 68.92 LIG-0.65  OA
ENDBRANCH 19 24
ENDBRANCH 17 19
ENDBRANCH 14 15
BRANCH 14 27
ATOM     27  CB  LYS B   6      58.809  91.647  23.128  1.00 46.87 LIG 0.04  C 
BRANCH 27 28
ATOM     28  CG  LYS B   6      58.918  91.613  21.616  1.00 55.56 LIG 0.00  C 
BRANCH 28 29
ATOM     29  CD  LYS B   6      58.551  92.946  20.979  1.00 60.95 LIG 0.03  C 
BRANCH 29 30
ATOM     30  CE  LYS B   6      57.338  92.810  20.050  1.00 62.93 LIG 0.23  C 
BRANCH 30 31
ATOM     31  NZ  LYS B   6      56.177  93.630  20.516  1.00 65.77 LIG-0.08  N 
ATOM     32 HZ1  LYS B   6      56.411  94.091  21.241  1.00 65.77 LIG 0.27  HD
ATOM     33 HZ2  LYS B   6      55.935  94.195  19.872  1.00 65.77 LIG 0.27  HD
ATOM     34 HZ3  LYS B   6      55.495  93.094  20.712  1.00 65.77 LIG 0.27  HD
ENDBRANCH 30 31
ENDBRANCH 29 30
ENDBRANCH 28 29
ENDBRANCH 27 28
ENDBRANCH 14 27
ENDBRANCH 12 14
ENDBRANCH 6 10
ENDBRANCH 4 6
ENDBRANCH 1 2
BRANCH 1 35
ATOM     35  CB  LEU B   4      57.162  89.288  31.222  1.00 28.63 LIG 0.04  C 
BRANCH 35 36
ATOM     36  CG  LEU B   4      58.465  88.497  31.221  1.00 30.56 LIG-0.02  C 
ATOM     37  CD2 LEU B   4      58.236  87.181  31.931  1.00 33.80 LIG 0.01  C 
ATOM     38  CD1 LEU B   4      59.536  89.325  31.952  1.00 28.87 LIG 0.01  C 
ENDBRANCH 35 36
ENDBRANCH 1 35
BRANCH 1 39
ATOM     39  N   LEU B   4      55.473  87.564  31.046  1.00 28.62 LIG-0.35  N 
ATOM     40 H    LEU B   4      55.964  87.187  31.643  1.00 28.62 LIG 0.16  HD
ATOM     41  C   PRO B   3      54.228  87.225  30.783  1.00 33.12 LIG 0.24  C 
ATOM     42 O    PRO B   3      53.458  87.914  30.091  1.00 32.36 LIG-0.27  OA
BRANCH 41 43
ATOM     43  CA  PRO B   3      53.750  85.927  31.430  1.00 33.48 LIG 0.18  C 
ATOM     44  CB  PRO B   3      52.911  85.089  30.429  1.00 32.62 LIG 0.04  C 
ATOM     45  CG  PRO B   3      51.748  84.562  31.228  1.00 32.85 LIG 0.02  C 
ATOM     46  CD  PRO B   3      51.485  85.610  32.307  1.00 29.95 LIG 0.13  C 
ATOM     47  N   PRO B   3      52.799  86.297  32.463  1.00 33.01 LIG-0.34  N 
ATOM     48  C   LEU B   2      53.223  87.127  33.442  1.00 31.97 LIG 0.24  C 
ATOM     49 O    LEU B   2      54.398  87.479  33.590  1.00 33.64 LIG-0.27  OA
BRANCH 48 50
ATOM     50  CA  LEU B   2      52.187  87.590  34.441  1.00 32.67 LIG 0.18  C 
BRANCH 50 51
ATOM     51  N   LEU B   2      52.938  88.212  35.526  1.00 33.85 LIG-0.35  N 
ATOM     52 H    LEU B   2      53.765  88.349  35.335  1.00 33.85 LIG 0.16  HD
ATOM     53  C   GLU B   1      52.401  88.536  36.697  1.00 36.42 LIG 0.25  C 
ATOM     54 O    GLU B   1      51.172  88.591  36.868  1.00 32.31 LIG-0.27  OA
BRANCH 53 55
ATOM     55  CA  GLU B   1      53.389  88.956  37.809  1.00 35.71 LIG 0.28  C 
BRANCH 55 56
ATOM     56  CB  GLU B   1      52.903  88.375  39.141  1.00 39.23 LIG 0.05  C 
BRANCH 56 57
ATOM     57  CG  GLU B   1      52.910  89.402  40.273  1.00 48.64 LIG 0.12  C 
BRANCH 57 58
ATOM     58  CD  GLU B   1      54.271  89.635  40.942  1.00 56.94 LIG 0.17  C 
ATOM     59 OE1  GLU B   1      55.010  90.490  40.425  1.00 65.53 LIG-0.65  OA
ATOM     60 OE2  GLU B   1      54.632  88.978  41.959  1.00 53.19 LIG-0.65  OA
ENDBRANCH 57 58
ENDBRANCH 56 57
ENDBRANCH 55 56
BRANCH 55 61
ATOM     61  N   GLU B   1      53.503  90.451  37.919  1.00 36.67 LIG-0.07  N 
ATOM     62 H1   GLU B   1      54.253  90.661  38.351  1.00 36.67 LIG 0.28  HD
ATOM     63 H3   GLU B   1      52.804  90.770  38.368  1.00 36.67 LIG 0.28  HD
ATOM     64 H2   GLU B   1      53.520  90.809  37.104  1.00 36.67 LIG 0.28  HD
ENDBRANCH 55 61
ENDBRANCH 53 55
ENDBRANCH 50 51
BRANCH 50 65
ATOM     65  CB  LEU B   2      51.207  88.575  33.752  1.00 34.84 LIG 0.04  C 
BRANCH 65 66
ATOM     66  CG  LEU B   2      51.798  89.491  32.668  1.00 34.30 LIG-0.02  C 
ATOM     67  CD2 LEU B   2      52.030  90.920  33.188  1.00 39.39 LIG 0.01  C 
ATOM     68  CD1 LEU B   2      50.956  89.516  31.390  1.00 34.61 LIG 0.01  C 
ENDBRANCH 65 66
ENDBRANCH 50 65
ENDBRANCH 48 50
ENDBRANCH 41 43
ENDBRANCH 1 39
TORSDOF 28
ENDMDL
MODEL 33
USER: ADFR SOLUTION from run 92
USER: SCORE 25.179853 LL:  -7.267 LR: -18.798 RR:   0.000 FEB: -10.446
USER: RMSD 3.667176
USER: SEED 91
USER: STATUS no improvement in best in 4 clusters for 5 generations
USER: GENES 30
USER: genes 0 Translation |==|  0.54638 0.59682 0.47438
USER: genes 1 Rotation |==|  0.47712 0.46640 0.55873 0.99487
USER: genes 2 Torsion [N]-CA--C-[N] |==|  0.40000
USER: genes 3 Torsion [C]-N--CA-[C] |==|  0.63510
USER: genes 4 Torsion [N]-CA--CB-[CG2] |==|  0.32064
USER: genes 5 Torsion [N]-CA--C-[N] |==|  0.42316
USER: genes 6 Torsion [C]-N--CA-[C] |==|  0.65710
USER: genes 7 Torsion [N]-CA--C-[N] |==|  0.02071
USER: genes 8 Torsion [C]-N--CA-[CB] |==|  0.32351
USER: genes 9 Torsion [N]-CA--CB-[CG1] |==|  0.09235
USER: genes 10 Torsion [CA]-CB--CG1-[CD1] |==|  0.19961
USER: genes 11 Torsion [N]-CA--C-[OXT] |==|  0.94227
USER: genes 12 Torsion [N]-CA--CB-[CG] |==|  0.85660
USER: genes 13 Torsion [CA]-CB--CG-[CD] |==|  0.62251
USER: genes 14 Torsion [CB]-CG--CD-[CE] |==|  0.23286
USER: genes 15 Torsion [CG]-CD--CE-[NZ] |==|  0.46722
USER: genes 16 Torsion [CD]-CE--NZ-[HZ1] |==|  0.11844
USER: genes 17 Torsion [C]-CA--CB-[CG] |==|  0.41598
USER: genes 18 Torsion [CA]-CB--CG-[CD2] |==|  0.21603
USER: genes 19 Torsion [C]-CA--N-[C] |==|  0.85943
USER: genes 20 Torsion [N]-C--CA-[CB] |==|  0.78152
USER: genes 21 Torsion [N]-C--CA-[N] |==|  0.25687
USER: genes 22 Torsion [C]-CA--N-[C] |==|  0.61354
USER: genes 23 Torsion [N]-C--CA-[N] |==|  0.95052
USER: genes 24 Torsion [C]-CA--CB-[CG] |==|  0.86513
USER: genes 25 Torsion [CA]-CB--CG-[CD] |==|  0.80145
USER: genes 26 Torsion [CB]-CG--CD-[OE1] |==|  0.93184
USER: genes 27 Torsion [C]-CA--N-[H1] |==|  0.25866
USER: genes 28 Torsion [C]-CA--CB-[CG] |==|  0.27403
USER: genes 29 Torsion [CA]-CB--CG-[CD2] |==|  0.18106
ROOT
ATOM      1  CA  LEU B   4      56.613  88.504  29.993  1.00 30.07 LIG 0.18  C 
ENDROOT
BRANCH 1 2
ATOM      2  C   LEU B   4      55.143  88.203  30.137  1.00 30.58 LIG 0.24  C 
ATOM      3 O    LEU B   4      54.304  88.928  29.598  1.00 35.83 LIG-0.27  OA
ATOM      4  N   VAL B   5      54.820  87.183  30.927  1.00 32.24 LIG-0.35  N 
ATOM      5 H    VAL B   5      55.399  86.687  31.324  1.00 32.24 LIG 0.16  HD
BRANCH 4 6
ATOM      6  CA  VAL B   5      53.428  86.809  31.195  1.00 32.53 LIG 0.18  C 
BRANCH 6 7
ATOM      7  CB  VAL B   5      53.041  85.503  30.478  1.00 34.70 LIG 0.01  C 
ATOM      8  CG2 VAL B   5      52.732  84.447  31.508  1.00 38.22 LIG 0.01  C 
ATOM      9  CG1 VAL B   5      54.142  85.018  29.544  1.00 39.77 LIG 0.01  C 
ENDBRANCH 6 7
BRANCH 6 10
ATOM     10  C   VAL B   5      53.203  86.630  32.671  1.00 39.16 LIG 0.24  C 
ATOM     11 O    VAL B   5      54.132  86.325  33.430  1.00 33.69 LIG-0.27  OA
ATOM     12  N   LYS B   6      51.966  86.860  33.080  1.00 40.12 LIG-0.35  N 
ATOM     13 H    LYS B   6      51.330  87.120  32.562  1.00 40.12 LIG 0.16  HD
BRANCH 12 14
ATOM     14  CA  LYS B   6      51.584  86.689  34.449  1.00 45.41 LIG 0.18  C 
BRANCH 14 15
ATOM     15  C   LYS B   6      50.441  85.701  34.359  1.00 44.99 LIG 0.24  C 
ATOM     16 O    LYS B   6      49.748  85.481  35.331  1.00 45.85 LIG-0.27  OA
ATOM     17  N   ILE B   7      50.167  85.137  33.202  1.00 47.54 LIG-0.34  N 
ATOM     18 H    ILE B   7      50.604  85.238  32.468  1.00 47.54 LIG 0.16  HD
BRANCH 17 19
ATOM     19  CA  ILE B   7      48.996  84.244  33.159  1.00 57.67 LIG 0.19  C 
BRANCH 19 20
ATOM     20  CB  ILE B   7      47.823  84.719  32.214  1.00 59.41 LIG 0.01  C 
ATOM     21  CG2 ILE B   7      46.801  85.574  32.956  1.00 60.58 LIG 0.01  C 
BRANCH 20 22
ATOM     22  CG1 ILE B   7      48.371  85.474  30.969  1.00 65.20 LIG 0.00  C 
ATOM     23  CD1 ILE B   7      49.083  84.640  29.900  1.00 51.92 LIG 0.01  C 
ENDBRANCH 20 22
ENDBRANCH 19 20
BRANCH 19 24
ATOM     24  C   ILE B   7      49.384  82.766  32.997  1.00 61.74 LIG 0.20  C 
ATOM     25 O    ILE B   7      48.645  81.833  33.271  1.00 61.53 LIG-0.65  OA
ATOM     26 OXT  ILE B   7      50.489  82.465  32.544  1.00 68.92 LIG-0.65  OA
ENDBRANCH 19 24
ENDBRANCH 17 19
ENDBRANCH 14 15
BRANCH 14 27
ATOM     27  CB  LYS B   6      51.155  88.062  34.993  1.00 46.87 LIG 0.04  C 
BRANCH 27 28
ATOM     28  CG  LYS B   6      52.154  89.181  34.767  1.00 55.56 LIG 0.00  C 
BRANCH 28 29
ATOM     29  CD  LYS B   6      52.340  90.049  36.004  1.00 60.95 LIG 0.03  C 
BRANCH 29 30
ATOM     30  CE  LYS B   6      53.356  89.435  36.974  1.00 62.93 LIG 0.23  C 
BRANCH 30 31
ATOM     31  NZ  LYS B   6      53.762  90.396  38.046  1.00 65.77 LIG-0.08  N 
ATOM     32 HZ1  LYS B   6      53.044  90.829  38.345  1.00 65.77 LIG 0.27  HD
ATOM     33 HZ2  LYS B   6      54.140  89.950  38.718  1.00 65.77 LIG 0.27  HD
ATOM     34 HZ3  LYS B   6      54.345  90.982  37.715  1.00 65.77 LIG 0.27  HD
ENDBRANCH 30 31
ENDBRANCH 29 30
ENDBRANCH 28 29
ENDBRANCH 27 28
ENDBRANCH 14 27
ENDBRANCH 12 14
ENDBRANCH 6 10
ENDBRANCH 4 6
ENDBRANCH 1 2
BRANCH 1 35
ATOM     35  CB  LEU B   4      56.946  89.583  31.003  1.00 28.63 LIG 0.04  C 
BRANCH 35 36
ATOM     36  CG  LEU B   4      58.387  89.464  31.486  1.00 30.56 LIG-0.02  C 
ATOM     37  CD2 LEU B   4      59.305  90.028  30.424  1.00 33.80 LIG 0.01  C 
ATOM     38  CD1 LEU B   4      58.696  87.977  31.731  1.00 28.87 LIG 0.01  C 
ENDBRANCH 35 36
ENDBRANCH 1 35
BRANCH 1 39
ATOM     39  N   LEU B   4      57.088  88.966  28.668  1.00 28.62 LIG-0.35  N 
ATOM     40 H    LEU B   4      57.565  89.682  28.685  1.00 28.62 LIG 0.16  HD
ATOM     41  C   PRO B   3      56.783  88.302  27.571  1.00 33.12 LIG 0.24  C 
ATOM     42 O    PRO B   3      56.296  87.157  27.573  1.00 32.36 LIG-0.27  OA
BRANCH 41 43
ATOM     43  CA  PRO B   3      57.112  89.013  26.261  1.00 33.48 LIG 0.18  C 
ATOM     44  CB  PRO B   3      56.041  90.088  25.934  1.00 32.62 LIG 0.04  C 
ATOM     45  CG  PRO B   3      55.782  89.954  24.456  1.00 32.85 LIG 0.02  C 
ATOM     46  CD  PRO B   3      56.027  88.484  24.129  1.00 29.95 LIG 0.13  C 
ATOM     47  N   PRO B   3      56.962  88.032  25.201  1.00 33.01 LIG-0.34  N 
ATOM     48  C   LEU B   2      57.709  86.908  25.271  1.00 31.97 LIG 0.24  C 
ATOM     49 O    LEU B   2      58.606  86.725  26.100  1.00 33.64 LIG-0.27  OA
BRANCH 48 50
ATOM     50  CA  LEU B   2      57.453  85.852  24.221  1.00 32.67 LIG 0.18  C 
BRANCH 50 51
ATOM     51  N   LEU B   2      58.395  86.133  23.143  1.00 33.85 LIG-0.35  N 
ATOM     52 H    LEU B   2      59.177  86.357  23.421  1.00 33.85 LIG 0.16  HD
ATOM     53  C   GLU B   1      58.080  86.053  21.855  1.00 36.42 LIG 0.25  C 
ATOM     54 O    GLU B   1      57.054  85.475  21.460  1.00 32.31 LIG-0.27  OA
BRANCH 53 55
ATOM     55  CA  GLU B   1      59.119  86.619  20.861  1.00 35.71 LIG 0.28  C 
BRANCH 55 56
ATOM     56  CB  GLU B   1      59.868  85.448  20.216  1.00 39.23 LIG 0.05  C 
BRANCH 56 57
ATOM     57  CG  GLU B   1      60.369  84.429  21.239  1.00 48.64 LIG 0.12  C 
BRANCH 57 58
ATOM     58  CD  GLU B   1      61.542  84.895  22.112  1.00 56.94 LIG 0.17  C 
ATOM     59 OE1  GLU B   1      62.267  85.790  21.645  1.00 65.53 LIG-0.65  OA
ATOM     60 OE2  GLU B   1      61.771  84.382  23.244  1.00 53.19 LIG-0.65  OA
ENDBRANCH 57 58
ENDBRANCH 56 57
ENDBRANCH 55 56
BRANCH 55 61
ATOM     61  N   GLU B   1      60.099  87.536  21.539  1.00 36.67 LIG-0.07  N 
ATOM     62 H1   GLU B   1      60.817  87.072  21.788  1.00 36.67 LIG 0.28  HD
ATOM     63 H3   GLU B   1      59.718  87.900  22.257  1.00 36.67 LIG 0.28  HD
ATOM     64 H2   GLU B   1      60.343  88.180  20.975  1.00 36.67 LIG 0.28  HD
ENDBRANCH 55 61
ENDBRANCH 53 55
ENDBRANCH 50 51
BRANCH 50 65
ATOM     65  CB  LEU B   2      57.657  84.444  24.840  1.00 34.84 LIG 0.04  C 
BRANCH 65 66
ATOM     66  CG  LEU B   2      56.389  83.698  25.288  1.00 34.30 LIG-0.02  C 
ATOM     67  CD2 LEU B   2      55.478  83.350  24.098  1.00 39.39 LIG 0.01  C 
ATOM     68  CD1 LEU B   2      55.603  84.458  26.359  1.00 34.61 LIG 0.01  C 
ENDBRANCH 65 66
ENDBRANCH 50 65
ENDBRANCH 48 50
ENDBRANCH 41 43
ENDBRANCH 1 39
TORSDOF 28
ENDMDL
MODEL 34
USER: ADFR SOLUTION from run 156
USER: SCORE 25.455789 LL:  -7.608 LR: -18.803 RR:   0.000 FEB: -10.451
USER: RMSD 11.630426
USER: SEED 155
USER: STATUS no improvement in best in 5 clusters for 5 generations
USER: GENES 30
USER: genes 0 Translation |==|  0.53623 0.59738 0.49193
USER: genes 1 Rotation |==|  0.20455 0.28748 0.15977 0.54228
USER: genes 2 Torsion [N]-CA--C-[N] |==|  0.08738
USER: genes 3 Torsion [C]-N--CA-[C] |==|  0.81804
USER: genes 4 Torsion [N]-CA--CB-[CG2] |==|  0.91436
USER: genes 5 Torsion [N]-CA--C-[N] |==|  0.93719
USER: genes 6 Torsion [C]-N--CA-[C] |==|  0.19926
USER: genes 7 Torsion [N]-CA--C-[N] |==|  0.04092
USER: genes 8 Torsion [C]-N--CA-[CB] |==|  0.33700
USER: genes 9 Torsion [N]-CA--CB-[CG1] |==|  0.17528
USER: genes 10 Torsion [CA]-CB--CG1-[CD1] |==|  0.29751
USER: genes 11 Torsion [N]-CA--C-[OXT] |==|  0.60102
USER: genes 12 Torsion [N]-CA--CB-[CG] |==|  0.29541
USER: genes 13 Torsion [CA]-CB--CG-[CD] |==|  0.32193
USER: genes 14 Torsion [CB]-CG--CD-[CE] |==|  0.58754
USER: genes 15 Torsion [CG]-CD--CE-[NZ] |==|  0.30015
USER: genes 16 Torsion [CD]-CE--NZ-[HZ1] |==|  0.51744
USER: genes 17 Torsion [C]-CA--CB-[CG] |==|  0.87337
USER: genes 18 Torsion [CA]-CB--CG-[CD2] |==|  0.79785
USER: genes 19 Torsion [C]-CA--N-[C] |==|  0.78014
USER: genes 20 Torsion [N]-C--CA-[CB] |==|  0.59206
USER: genes 21 Torsion [N]-C--CA-[N] |==|  0.37655
USER: genes 22 Torsion [C]-CA--N-[C] |==|  0.82778
USER: genes 23 Torsion [N]-C--CA-[N] |==|  0.11391
USER: genes 24 Torsion [C]-CA--CB-[CG] |==|  0.38506
USER: genes 25 Torsion [CA]-CB--CG-[CD] |==|  0.19386
USER: genes 26 Torsion [CB]-CG--CD-[OE1] |==|  0.42815
USER: genes 27 Torsion [C]-CA--N-[H1] |==|  0.84801
USER: genes 28 Torsion [C]-CA--CB-[CG] |==|  0.22952
USER: genes 29 Torsion [CA]-CB--CG-[CD2] |==|  0.12892
ROOT
ATOM      1  CA  LEU B   4      56.400  88.517  30.440  1.00 30.07 LIG 0.18  C 
ENDROOT
BRANCH 1 2
ATOM      2  C   LEU B   4      57.081  88.156  29.145  1.00 30.58 LIG 0.24  C 
ATOM      3 O    LEU B   4      58.115  88.734  28.804  1.00 35.83 LIG-0.27  OA
ATOM      4  N   VAL B   5      56.465  87.258  28.380  1.00 32.24 LIG-0.35  N 
ATOM      5 H    VAL B   5      55.732  86.868  28.601  1.00 32.24 LIG 0.16  HD
BRANCH 4 6
ATOM      6  CA  VAL B   5      56.991  86.850  27.073  1.00 32.53 LIG 0.18  C 
BRANCH 6 7
ATOM      7  CB  VAL B   5      56.180  85.688  26.471  1.00 34.70 LIG 0.01  C 
ATOM      8  CG2 VAL B   5      55.635  84.836  27.588  1.00 38.22 LIG 0.01  C 
ATOM      9  CG1 VAL B   5      57.019  84.838  25.525  1.00 39.77 LIG 0.01  C 
ENDBRANCH 6 7
BRANCH 6 10
ATOM     10  C   VAL B   5      56.964  88.004  26.108  1.00 39.16 LIG 0.24  C 
ATOM     11 O    VAL B   5      57.684  88.015  25.101  1.00 33.69 LIG-0.27  OA
ATOM     12  N   LYS B   6      56.098  88.959  26.404  1.00 40.12 LIG-0.35  N 
ATOM     13 H    LYS B   6      55.562  88.930  27.076  1.00 40.12 LIG 0.16  HD
BRANCH 12 14
ATOM     14  CA  LYS B   6      55.985  90.142  25.606  1.00 45.41 LIG 0.18  C 
BRANCH 14 15
ATOM     15  C   LYS B   6      55.326  89.636  24.342  1.00 44.99 LIG 0.24  C 
ATOM     16 O    LYS B   6      55.374  90.294  23.323  1.00 45.85 LIG-0.27  OA
ATOM     17  N   ILE B   7      54.762  88.447  24.343  1.00 47.54 LIG-0.34  N 
ATOM     18 H    ILE B   7      54.686  87.917  25.016  1.00 47.54 LIG 0.16  HD
BRANCH 17 19
ATOM     19  CA  ILE B   7      54.205  87.975  23.062  1.00 57.67 LIG 0.19  C 
BRANCH 19 20
ATOM     20  CB  ILE B   7      54.810  86.619  22.525  1.00 59.41 LIG 0.01  C 
ATOM     21  CG2 ILE B   7      56.308  86.726  22.258  1.00 60.58 LIG 0.01  C 
BRANCH 20 22
ATOM     22  CG1 ILE B   7      54.508  85.441  23.497  1.00 65.20 LIG 0.00  C 
ATOM     23  CD1 ILE B   7      53.459  84.418  23.053  1.00 51.92 LIG 0.01  C 
ENDBRANCH 20 22
ENDBRANCH 19 20
BRANCH 19 24
ATOM     24  C   ILE B   7      52.671  88.047  23.021  1.00 61.74 LIG 0.20  C 
ATOM     25 O    ILE B   7      52.018  88.950  23.521  1.00 61.53 LIG-0.65  OA
ATOM     26 OXT  ILE B   7      52.028  87.175  22.437  1.00 68.92 LIG-0.65  OA
ENDBRANCH 19 24
ENDBRANCH 17 19
ENDBRANCH 14 15
BRANCH 14 27
ATOM     27  CB  LYS B   6      57.403  90.690  25.371  1.00 46.87 LIG 0.04  C 
BRANCH 27 28
ATOM     28  CG  LYS B   6      57.946  90.481  23.971  1.00 55.56 LIG 0.00  C 
BRANCH 28 29
ATOM     29  CD  LYS B   6      58.188  91.795  23.242  1.00 60.95 LIG 0.03  C 
BRANCH 29 30
ATOM     30  CE  LYS B   6      57.972  91.648  21.730  1.00 62.93 LIG 0.23  C 
BRANCH 30 31
ATOM     31  NZ  LYS B   6      56.720  92.326  21.272  1.00 65.77 LIG-0.08  N 
ATOM     32 HZ1  LYS B   6      56.582  92.143  20.411  1.00 65.77 LIG 0.27  HD
ATOM     33 HZ2  LYS B   6      56.030  92.032  21.752  1.00 65.77 LIG 0.27  HD
ATOM     34 HZ3  LYS B   6      56.803  93.206  21.379  1.00 65.77 LIG 0.27  HD
ENDBRANCH 30 31
ENDBRANCH 29 30
ENDBRANCH 28 29
ENDBRANCH 27 28
ENDBRANCH 14 27
ENDBRANCH 12 14
ENDBRANCH 6 10
ENDBRANCH 4 6
ENDBRANCH 1 2
BRANCH 1 35
ATOM     35  CB  LEU B   4      57.484  88.950  31.406  1.00 28.63 LIG 0.04  C 
BRANCH 35 36
ATOM     36  CG  LEU B   4      58.666  87.989  31.379  1.00 30.56 LIG-0.02  C 
ATOM     37  CD2 LEU B   4      58.264  86.703  32.066  1.00 33.80 LIG 0.01  C 
ATOM     38  CD1 LEU B   4      59.844  88.648  32.117  1.00 28.87 LIG 0.01  C 
ENDBRANCH 35 36
ENDBRANCH 1 35
BRANCH 1 39
ATOM     39  N   LEU B   4      55.597  87.465  31.105  1.00 28.62 LIG-0.35  N 
ATOM     40 H    LEU B   4      55.989  87.076  31.765  1.00 28.62 LIG 0.16  HD
ATOM     41  C   PRO B   3      54.381  87.177  30.688  1.00 33.12 LIG 0.24  C 
ATOM     42 O    PRO B   3      53.739  87.889  29.896  1.00 32.36 LIG-0.27  OA
BRANCH 41 43
ATOM     43  CA  PRO B   3      53.764  85.914  31.284  1.00 33.48 LIG 0.18  C 
ATOM     44  CB  PRO B   3      52.838  85.215  30.253  1.00 32.62 LIG 0.04  C 
ATOM     45  CG  PRO B   3      51.625  84.786  31.036  1.00 32.85 LIG 0.02  C 
ATOM     46  CD  PRO B   3      51.478  85.811  32.158  1.00 29.95 LIG 0.13  C 
ATOM     47  N   PRO B   3      52.860  86.343  32.336  1.00 33.01 LIG-0.34  N 
ATOM     48  C   LEU B   2      53.373  87.079  33.347  1.00 31.97 LIG 0.24  C 
ATOM     49 O    LEU B   2      54.579  87.294  33.503  1.00 33.64 LIG-0.27  OA
BRANCH 48 50
ATOM     50  CA  LEU B   2      52.394  87.611  34.369  1.00 32.67 LIG 0.18  C 
BRANCH 50 51
ATOM     51  N   LEU B   2      53.012  87.366  35.667  1.00 33.85 LIG-0.35  N 
ATOM     52 H    LEU B   2      53.173  88.084  36.111  1.00 33.85 LIG 0.16  HD
ATOM     53  C   GLU B   1      53.300  86.152  36.125  1.00 36.42 LIG 0.25  C 
ATOM     54 O    GLU B   1      52.826  85.124  35.614  1.00 32.31 LIG-0.27  OA
BRANCH 53 55
ATOM     55  CA  GLU B   1      54.169  86.091  37.401  1.00 35.71 LIG 0.28  C 
BRANCH 55 56
ATOM     56  CB  GLU B   1      54.029  84.697  38.023  1.00 39.23 LIG 0.05  C 
BRANCH 56 57
ATOM     57  CG  GLU B   1      55.357  84.140  38.535  1.00 48.64 LIG 0.12  C 
BRANCH 57 58
ATOM     58  CD  GLU B   1      55.932  84.840  39.774  1.00 56.94 LIG 0.17  C 
ATOM     59 OE1  GLU B   1      56.684  84.167  40.498  1.00 65.53 LIG-0.65  OA
ATOM     60 OE2  GLU B   1      55.640  86.037  40.055  1.00 53.19 LIG-0.65  OA
ENDBRANCH 57 58
ENDBRANCH 56 57
ENDBRANCH 55 56
BRANCH 55 61
ATOM     61  N   GLU B   1      53.764  87.136  38.403  1.00 36.67 LIG-0.07  N 
ATOM     62 H1   GLU B   1      53.781  87.939  38.019  1.00 36.67 LIG 0.28  HD
ATOM     63 H3   GLU B   1      54.330  87.125  39.090  1.00 36.67 LIG 0.28  HD
ATOM     64 H2   GLU B   1      52.941  86.964  38.695  1.00 36.67 LIG 0.28  HD
ENDBRANCH 55 61
ENDBRANCH 53 55
ENDBRANCH 50 51
BRANCH 50 65
ATOM     65  CB  LEU B   2      52.135  89.117  34.105  1.00 34.84 LIG 0.04  C 
BRANCH 65 66
ATOM     66  CG  LEU B   2      51.095  89.458  33.026  1.00 34.30 LIG-0.02  C 
ATOM     67  CD2 LEU B   2      49.812  88.624  33.182  1.00 39.39 LIG 0.01  C 
ATOM     68  CD1 LEU B   2      51.649  89.326  31.606  1.00 34.61 LIG 0.01  C 
ENDBRANCH 65 66
ENDBRANCH 50 65
ENDBRANCH 48 50
ENDBRANCH 41 43
ENDBRANCH 1 39
TORSDOF 28
ENDMDL
MODEL 35
USER: ADFR SOLUTION from run 156
USER: SCORE 25.388792 LL:  -7.655 LR: -18.794 RR:   0.000 FEB: -10.441
USER: RMSD 11.513232
USER: SEED 155
USER: STATUS no improvement in best in 5 clusters for 5 generations
USER: GENES 30
USER: genes 0 Translation |==|  0.53653 0.59757 0.49202
USER: genes 1 Rotation |==|  0.20327 0.28819 0.16024 0.54059
USER: genes 2 Torsion [N]-CA--C-[N] |==|  0.08749
USER: genes 3 Torsion [C]-N--CA-[C] |==|  0.81787
USER: genes 4 Torsion [N]-CA--CB-[CG2] |==|  0.91423
USER: genes 5 Torsion [N]-CA--C-[N] |==|  0.93699
USER: genes 6 Torsion [C]-N--CA-[C] |==|  0.19897
USER: genes 7 Torsion [N]-CA--C-[N] |==|  0.04070
USER: genes 8 Torsion [C]-N--CA-[CB] |==|  0.33691
USER: genes 9 Torsion [N]-CA--CB-[CG1] |==|  0.17514
USER: genes 10 Torsion [CA]-CB--CG1-[CD1] |==|  0.29759
USER: genes 11 Torsion [N]-CA--C-[OXT] |==|  0.60112
USER: genes 12 Torsion [N]-CA--CB-[CG] |==|  0.29606
USER: genes 13 Torsion [CA]-CB--CG-[CD] |==|  0.32233
USER: genes 14 Torsion [CB]-CG--CD-[CE] |==|  0.58790
USER: genes 15 Torsion [CG]-CD--CE-[NZ] |==|  0.30068
USER: genes 16 Torsion [CD]-CE--NZ-[HZ1] |==|  0.49174
USER: genes 17 Torsion [C]-CA--CB-[CG] |==|  0.87254
USER: genes 18 Torsion [CA]-CB--CG-[CD2] |==|  0.79480
USER: genes 19 Torsion [C]-CA--N-[C] |==|  0.78231
USER: genes 20 Torsion [N]-C--CA-[CB] |==|  0.60969
USER: genes 21 Torsion [N]-C--CA-[N] |==|  0.86667
USER: genes 22 Torsion [C]-CA--N-[C] |==|  0.83781
USER: genes 23 Torsion [N]-C--CA-[N] |==|  0.52032
USER: genes 24 Torsion [C]-CA--CB-[CG] |==|  0.26239
USER: genes 25 Torsion [CA]-CB--CG-[CD] |==|  0.04765
USER: genes 26 Torsion [CB]-CG--CD-[OE1] |==|  0.69036
USER: genes 27 Torsion [C]-CA--N-[H1] |==|  0.79345
USER: genes 28 Torsion [C]-CA--CB-[CG] |==|  0.22420
USER: genes 29 Torsion [CA]-CB--CG-[CD2] |==|  0.03725
ROOT
ATOM      1  CA  LEU B   4      56.406  88.521  30.442  1.00 30.07 LIG 0.18  C 
ENDROOT
BRANCH 1 2
ATOM      2  C   LEU B   4      57.082  88.151  29.147  1.00 30.58 LIG 0.24  C 
ATOM      3 O    LEU B   4      58.120  88.718  28.802  1.00 35.83 LIG-0.27  OA
ATOM      4  N   VAL B   5      56.456  87.256  28.386  1.00 32.24 LIG-0.35  N 
ATOM      5 H    VAL B   5      55.720  86.873  28.609  1.00 32.24 LIG 0.16  HD
BRANCH 4 6
ATOM      6  CA  VAL B   5      56.976  86.839  27.079  1.00 32.53 LIG 0.18  C 
BRANCH 6 7
ATOM      7  CB  VAL B   5      56.155  85.681  26.483  1.00 34.70 LIG 0.01  C 
ATOM      8  CG2 VAL B   5      55.607  84.837  27.604  1.00 38.22 LIG 0.01  C 
ATOM      9  CG1 VAL B   5      56.985  84.822  25.537  1.00 39.77 LIG 0.01  C 
ENDBRANCH 6 7
BRANCH 6 10
ATOM     10  C   VAL B   5      56.956  87.990  26.111  1.00 39.16 LIG 0.24  C 
ATOM     11 O    VAL B   5      57.675  87.993  25.103  1.00 33.69 LIG-0.27  OA
ATOM     12  N   LYS B   6      56.098  88.952  26.404  1.00 40.12 LIG-0.35  N 
ATOM     13 H    LYS B   6      55.562  88.929  27.077  1.00 40.12 LIG 0.16  HD
BRANCH 12 14
ATOM     14  CA  LYS B   6      55.993  90.134  25.603  1.00 45.41 LIG 0.18  C 
BRANCH 14 15
ATOM     15  C   LYS B   6      55.330  89.627  24.339  1.00 44.99 LIG 0.24  C 
ATOM     16 O    LYS B   6      55.382  90.283  23.319  1.00 45.85 LIG-0.27  OA
ATOM     17  N   ILE B   7      54.761  88.441  24.343  1.00 47.54 LIG-0.34  N 
ATOM     18 H    ILE B   7      54.682  87.913  25.018  1.00 47.54 LIG 0.16  HD
BRANCH 17 19
ATOM     19  CA  ILE B   7      54.201  87.968  23.064  1.00 57.67 LIG 0.19  C 
BRANCH 19 20
ATOM     20  CB  ILE B   7      54.800  86.608  22.530  1.00 59.41 LIG 0.01  C 
ATOM     21  CG2 ILE B   7      56.298  86.708  22.262  1.00 60.58 LIG 0.01  C 
BRANCH 20 22
ATOM     22  CG1 ILE B   7      54.494  85.435  23.505  1.00 65.20 LIG 0.00  C 
ATOM     23  CD1 ILE B   7      53.441  84.414  23.065  1.00 51.92 LIG 0.01  C 
ENDBRANCH 20 22
ENDBRANCH 19 20
BRANCH 19 24
ATOM     24  C   ILE B   7      52.668  88.048  23.024  1.00 61.74 LIG 0.20  C 
ATOM     25 O    ILE B   7      52.019  88.955  23.521  1.00 61.53 LIG-0.65  OA
ATOM     26 OXT  ILE B   7      52.020  87.176  22.443  1.00 68.92 LIG-0.65  OA
ENDBRANCH 19 24
ENDBRANCH 17 19
ENDBRANCH 14 15
BRANCH 14 27
ATOM     27  CB  LYS B   6      57.414  90.672  25.367  1.00 46.87 LIG 0.04  C 
BRANCH 27 28
ATOM     28  CG  LYS B   6      57.954  90.460  23.965  1.00 55.56 LIG 0.00  C 
BRANCH 28 29
ATOM     29  CD  LYS B   6      58.207  91.773  23.238  1.00 60.95 LIG 0.03  C 
BRANCH 29 30
ATOM     30  CE  LYS B   6      57.986  91.631  21.727  1.00 62.93 LIG 0.23  C 
BRANCH 30 31
ATOM     31  NZ  LYS B   6      56.742  92.326  21.272  1.00 65.77 LIG-0.08  N 
ATOM     32 HZ1  LYS B   6      56.671  92.258  20.387  1.00 65.77 LIG 0.27  HD
ATOM     33 HZ2  LYS B   6      56.033  91.948  21.656  1.00 65.77 LIG 0.27  HD
ATOM     34 HZ3  LYS B   6      56.781  93.185  21.502  1.00 65.77 LIG 0.27  HD
ENDBRANCH 30 31
ENDBRANCH 29 30
ENDBRANCH 28 29
ENDBRANCH 27 28
ENDBRANCH 14 27
ENDBRANCH 12 14
ENDBRANCH 6 10
ENDBRANCH 4 6
ENDBRANCH 1 2
BRANCH 1 35
ATOM     35  CB  LEU B   4      57.496  88.949  31.404  1.00 28.63 LIG 0.04  C 
BRANCH 35 36
ATOM     36  CG  LEU B   4      58.667  87.974  31.384  1.00 30.56 LIG-0.02  C 
ATOM     37  CD2 LEU B   4      58.259  86.707  32.104  1.00 33.80 LIG 0.01  C 
ATOM     38  CD1 LEU B   4      59.861  88.635  32.093  1.00 28.87 LIG 0.01  C 
ENDBRANCH 35 36
ENDBRANCH 1 35
BRANCH 1 39
ATOM     39  N   LEU B   4      55.597  87.478  31.113  1.00 28.62 LIG-0.35  N 
ATOM     40 H    LEU B   4      55.982  87.095  31.779  1.00 28.62 LIG 0.16  HD
ATOM     41  C   PRO B   3      54.383  87.189  30.690  1.00 33.12 LIG 0.24  C 
ATOM     42 O    PRO B   3      53.748  87.893  29.885  1.00 32.36 LIG-0.27  OA
BRANCH 41 43
ATOM     43  CA  PRO B   3      53.758  85.933  31.294  1.00 33.48 LIG 0.18  C 
ATOM     44  CB  PRO B   3      52.968  85.140  30.220  1.00 32.62 LIG 0.04  C 
ATOM     45  CG  PRO B   3      51.700  84.700  30.904  1.00 32.85 LIG 0.02  C 
ATOM     46  CD  PRO B   3      51.402  85.776  31.945  1.00 29.95 LIG 0.13  C 
ATOM     47  N   PRO B   3      52.738  86.377  32.227  1.00 33.01 LIG-0.34  N 
ATOM     48  C   LEU B   2      53.119  87.189  33.238  1.00 31.97 LIG 0.24  C 
ATOM     49 O    LEU B   2      54.294  87.465  33.499  1.00 33.64 LIG-0.27  OA
BRANCH 48 50
ATOM     50  CA  LEU B   2      52.023  87.731  34.127  1.00 32.67 LIG 0.18  C 
BRANCH 50 51
ATOM     51  N   LEU B   2      50.998  88.238  33.222  1.00 33.85 LIG-0.35  N 
ATOM     52 H    LEU B   2      50.230  87.869  33.332  1.00 33.85 LIG 0.16  HD
ATOM     53  C   GLU B   1      51.225  89.179  32.311  1.00 36.42 LIG 0.25  C 
ATOM     54 O    GLU B   1      52.242  89.891  32.338  1.00 32.31 LIG-0.27  OA
BRANCH 53 55
ATOM     55  CA  GLU B   1      50.099  89.419  31.281  1.00 35.71 LIG 0.28  C 
BRANCH 55 56
ATOM     56  CB  GLU B   1      49.708  88.073  30.660  1.00 39.23 LIG 0.05  C 
BRANCH 56 57
ATOM     57  CG  GLU B   1      48.521  87.417  31.365  1.00 48.64 LIG 0.12  C 
BRANCH 57 58
ATOM     58  CD  GLU B   1      47.686  88.349  32.254  1.00 56.94 LIG 0.17  C 
ATOM     59 OE1  GLU B   1      47.742  88.152  33.480  1.00 65.53 LIG-0.65  OA
ATOM     60 OE2  GLU B   1      46.963  89.262  31.764  1.00 53.19 LIG-0.65  OA
ENDBRANCH 57 58
ENDBRANCH 56 57
ENDBRANCH 55 56
BRANCH 55 61
ATOM     61  N   GLU B   1      50.525  90.371  30.199  1.00 36.67 LIG-0.07  N 
ATOM     62 H1   GLU B   1      50.542  91.200  30.522  1.00 36.67 LIG 0.28  HD
ATOM     63 H3   GLU B   1      49.948  90.329  29.522  1.00 36.67 LIG 0.28  HD
ATOM     64 H2   GLU B   1      51.337  90.148  29.910  1.00 36.67 LIG 0.28  HD
ENDBRANCH 55 61
ENDBRANCH 53 55
ENDBRANCH 50 51
BRANCH 50 65
ATOM     65  CB  LEU B   2      51.498  86.601  35.051  1.00 34.84 LIG 0.04  C 
BRANCH 65 66
ATOM     66  CG  LEU B   2      52.333  86.292  36.305  1.00 34.30 LIG-0.02  C 
ATOM     67  CD2 LEU B   2      53.372  87.390  36.586  1.00 39.39 LIG 0.01  C 
ATOM     68  CD1 LEU B   2      53.007  84.920  36.243  1.00 34.61 LIG 0.01  C 
ENDBRANCH 65 66
ENDBRANCH 50 65
ENDBRANCH 48 50
ENDBRANCH 41 43
ENDBRANCH 1 39
TORSDOF 28
ENDMDL
MODEL 36
USER: ADFR SOLUTION from run 27
USER: SCORE 26.175330 LL:  -8.068 LR: -18.753 RR:   0.000 FEB: -10.401
USER: RMSD 1.774317
USER: SEED 26
USER: STATUS no improvement in best in 4 clusters for 5 generations
USER: GENES 30
USER: genes 0 Translation |==|  0.53091 0.56122 0.46046
USER: genes 1 Rotation |==|  0.55407 0.54811 0.47625 0.99416
USER: genes 2 Torsion [N]-CA--C-[N] |==|  0.47567
USER: genes 3 Torsion [C]-N--CA-[C] |==|  0.70391
USER: genes 4 Torsion [N]-CA--CB-[CG2] |==|  0.80978
USER: genes 5 Torsion [N]-CA--C-[N] |==|  0.36435
USER: genes 6 Torsion [C]-N--CA-[C] |==|  0.83476
USER: genes 7 Torsion [N]-CA--C-[N] |==|  0.33988
USER: genes 8 Torsion [C]-N--CA-[CB] |==|  0.28396
USER: genes 9 Torsion [N]-CA--CB-[CG1] |==|  0.62624
USER: genes 10 Torsion [CA]-CB--CG1-[CD1] |==|  0.68106
USER: genes 11 Torsion [N]-CA--C-[OXT] |==|  0.47340
USER: genes 12 Torsion [N]-CA--CB-[CG] |==|  0.39318
USER: genes 13 Torsion [CA]-CB--CG-[CD] |==|  0.22737
USER: genes 14 Torsion [CB]-CG--CD-[CE] |==|  0.69067
USER: genes 15 Torsion [CG]-CD--CE-[NZ] |==|  0.30268
USER: genes 16 Torsion [CD]-CE--NZ-[HZ1] |==|  0.65726
USER: genes 17 Torsion [C]-CA--CB-[CG] |==|  0.37099
USER: genes 18 Torsion [CA]-CB--CG-[CD2] |==|  0.67930
USER: genes 19 Torsion [C]-CA--N-[C] |==|  0.55187
USER: genes 20 Torsion [N]-C--CA-[CB] |==|  0.04124
USER: genes 21 Torsion [N]-C--CA-[N] |==|  0.48399
USER: genes 22 Torsion [C]-CA--N-[C] |==|  0.57075
USER: genes 23 Torsion [N]-C--CA-[N] |==|  0.06208
USER: genes 24 Torsion [C]-CA--CB-[CG] |==|  0.70694
USER: genes 25 Torsion [CA]-CB--CG-[CD] |==|  0.76897
USER: genes 26 Torsion [CB]-CG--CD-[OE1] |==|  0.65134
USER: genes 27 Torsion [C]-CA--N-[H1] |==|  0.17284
USER: genes 28 Torsion [C]-CA--CB-[CG] |==|  0.77221
USER: genes 29 Torsion [CA]-CB--CG-[CD2] |==|  0.66230
ROOT
ATOM      1  CA  LEU B   4      56.288  87.703  29.638  1.00 30.07 LIG 0.18  C 
ENDROOT
BRANCH 1 2
ATOM      2  C   LEU B   4      54.914  87.762  30.255  1.00 30.58 LIG 0.24  C 
ATOM      3 O    LEU B   4      54.084  88.579  29.849  1.00 35.83 LIG-0.27  OA
ATOM      4  N   VAL B   5      54.692  86.956  31.290  1.00 32.24 LIG-0.35  N 
ATOM      5 H    VAL B   5      55.274  86.400  31.593  1.00 32.24 LIG 0.16  HD
BRANCH 4 6
ATOM      6  CA  VAL B   5      53.418  86.943  32.014  1.00 32.53 LIG 0.18  C 
BRANCH 6 7
ATOM      7  CB  VAL B   5      52.896  85.510  32.224  1.00 34.70 LIG 0.01  C 
ATOM      8  CG2 VAL B   5      52.492  84.933  30.891  1.00 38.22 LIG 0.01  C 
ATOM      9  CG1 VAL B   5      51.720  85.467  33.192  1.00 39.77 LIG 0.01  C 
ENDBRANCH 6 7
BRANCH 6 10
ATOM     10  C   VAL B   5      53.568  87.600  33.359  1.00 39.16 LIG 0.24  C 
ATOM     11 O    VAL B   5      54.514  87.321  34.107  1.00 33.69 LIG-0.27  OA
ATOM     12  N   LYS B   6      52.646  88.504  33.645  1.00 40.12 LIG-0.35  N 
ATOM     13 H    LYS B   6      52.016  88.735  33.107  1.00 40.12 LIG 0.16  HD
BRANCH 12 14
ATOM     14  CA  LYS B   6      52.628  89.184  34.905  1.00 45.41 LIG 0.18  C 
BRANCH 14 15
ATOM     15  C   LYS B   6      52.486  88.052  35.898  1.00 44.99 LIG 0.24  C 
ATOM     16 O    LYS B   6      51.577  87.255  35.789  1.00 45.85 LIG-0.27  OA
ATOM     17  N   ILE B   7      53.397  87.902  36.837  1.00 47.54 LIG-0.34  N 
ATOM     18 H    ILE B   7      54.070  88.417  36.983  1.00 47.54 LIG 0.16  HD
BRANCH 17 19
ATOM     19  CA  ILE B   7      53.249  86.735  37.726  1.00 57.67 LIG 0.19  C 
BRANCH 19 20
ATOM     20  CB  ILE B   7      54.206  85.521  37.407  1.00 59.41 LIG 0.01  C 
ATOM     21  CG2 ILE B   7      55.403  85.473  38.349  1.00 60.58 LIG 0.01  C 
BRANCH 20 22
ATOM     22  CG1 ILE B   7      53.433  84.171  37.432  1.00 65.20 LIG 0.00  C 
ATOM     23  CD1 ILE B   7      53.816  83.163  38.519  1.00 51.92 LIG 0.01  C 
ENDBRANCH 20 22
ENDBRANCH 19 20
BRANCH 19 24
ATOM     24  C   ILE B   7      53.191  87.127  39.211  1.00 61.74 LIG 0.20  C 
ATOM     25 O    ILE B   7      53.402  88.256  39.626  1.00 61.53 LIG-0.65  OA
ATOM     26 OXT  ILE B   7      52.893  86.286  40.059  1.00 68.92 LIG-0.65  OA
ENDBRANCH 19 24
ENDBRANCH 17 19
ENDBRANCH 14 15
BRANCH 14 27
ATOM     27  CB  LYS B   6      51.425  90.143  34.905  1.00 46.87 LIG 0.04  C 
BRANCH 27 28
ATOM     28  CG  LYS B   6      50.689  90.245  36.227  1.00 55.56 LIG 0.00  C 
BRANCH 28 29
ATOM     29  CD  LYS B   6      51.370  91.201  37.197  1.00 60.95 LIG 0.03  C 
BRANCH 29 30
ATOM     30  CE  LYS B   6      51.978  90.454  38.390  1.00 62.93 LIG 0.23  C 
BRANCH 30 31
ATOM     31  NZ  LYS B   6      53.473  90.435  38.341  1.00 65.77 LIG-0.08  N 
ATOM     32 HZ1  LYS B   6      53.760  89.593  38.360  1.00 65.77 LIG 0.27  HD
ATOM     33 HZ2  LYS B   6      53.751  90.825  37.590  1.00 65.77 LIG 0.27  HD
ATOM     34 HZ3  LYS B   6      53.799  90.876  39.042  1.00 65.77 LIG 0.27  HD
ENDBRANCH 30 31
ENDBRANCH 29 30
ENDBRANCH 28 29
ENDBRANCH 27 28
ENDBRANCH 14 27
ENDBRANCH 12 14
ENDBRANCH 6 10
ENDBRANCH 4 6
ENDBRANCH 1 2
BRANCH 1 35
ATOM     35  CB  LEU B   4      57.258  88.260  30.660  1.00 28.63 LIG 0.04  C 
BRANCH 35 36
ATOM     36  CG  LEU B   4      58.487  87.370  30.800  1.00 30.56 LIG-0.02  C 
ATOM     37  CD2 LEU B   4      58.514  86.795  32.200  1.00 33.80 LIG 0.01  C 
ATOM     38  CD1 LEU B   4      59.739  88.227  30.546  1.00 28.87 LIG 0.01  C 
ENDBRANCH 35 36
ENDBRANCH 1 35
BRANCH 1 39
ATOM     39  N   LEU B   4      56.498  88.439  28.370  1.00 28.62 LIG-0.35  N 
ATOM     40 H    LEU B   4      55.911  89.045  28.203  1.00 28.62 LIG 0.16  HD
ATOM     41  C   PRO B   3      57.519  88.157  27.586  1.00 33.12 LIG 0.24  C 
ATOM     42 O    PRO B   3      58.482  87.451  27.936  1.00 32.36 LIG-0.27  OA
BRANCH 41 43
ATOM     43  CA  PRO B   3      57.482  88.800  26.201  1.00 33.48 LIG 0.18  C 
ATOM     44  CB  PRO B   3      56.431  89.942  26.154  1.00 32.62 LIG 0.04  C 
ATOM     45  CG  PRO B   3      55.731  89.782  24.829  1.00 32.85 LIG 0.02  C 
ATOM     46  CD  PRO B   3      55.775  88.288  24.520  1.00 29.95 LIG 0.13  C 
ATOM     47  N   PRO B   3      56.959  87.801  25.287  1.00 33.01 LIG-0.34  N 
ATOM     48  C   LEU B   2      57.622  86.628  25.189  1.00 31.97 LIG 0.24  C 
ATOM     49 O    LEU B   2      58.713  86.403  25.721  1.00 33.64 LIG-0.27  OA
BRANCH 48 50
ATOM     50  CA  LEU B   2      56.996  85.561  24.319  1.00 32.67 LIG 0.18  C 
BRANCH 50 51
ATOM     51  N   LEU B   2      57.966  84.472  24.276  1.00 33.85 LIG-0.35  N 
ATOM     52 H    LEU B   2      58.488  84.451  24.958  1.00 33.85 LIG 0.16  HD
ATOM     53  C   GLU B   1      58.040  83.596  23.280  1.00 36.42 LIG 0.25  C 
ATOM     54 O    GLU B   1      57.127  83.463  22.448  1.00 32.31 LIG-0.27  OA
BRANCH 53 55
ATOM     55  CA  GLU B   1      59.275  82.667  23.277  1.00 35.71 LIG 0.28  C 
BRANCH 55 56
ATOM     56  CB  GLU B   1      58.846  81.283  22.776  1.00 39.23 LIG 0.05  C 
BRANCH 56 57
ATOM     57  CG  GLU B   1      58.753  80.249  23.897  1.00 48.64 LIG 0.12  C 
BRANCH 57 58
ATOM     58  CD  GLU B   1      60.078  79.581  24.288  1.00 56.94 LIG 0.17  C 
ATOM     59 OE1  GLU B   1      60.107  78.339  24.265  1.00 65.53 LIG-0.65  OA
ATOM     60 OE2  GLU B   1      61.086  80.260  24.634  1.00 53.19 LIG-0.65  OA
ENDBRANCH 57 58
ENDBRANCH 56 57
ENDBRANCH 55 56
BRANCH 55 61
ATOM     61  N   GLU B   1      59.883  82.543  24.646  1.00 36.67 LIG-0.07  N 
ATOM     62 H1   GLU B   1      59.293  82.177  25.202  1.00 36.67 LIG 0.28  HD
ATOM     63 H3   GLU B   1      60.110  83.350  24.945  1.00 36.67 LIG 0.28  HD
ATOM     64 H2   GLU B   1      60.609  82.029  24.603  1.00 36.67 LIG 0.28  HD
ENDBRANCH 55 61
ENDBRANCH 53 55
ENDBRANCH 50 51
BRANCH 50 65
ATOM     65  CB  LEU B   2      55.637  85.127  24.928  1.00 34.84 LIG 0.04  C 
BRANCH 65 66
ATOM     66  CG  LEU B   2      55.691  84.095  26.067  1.00 34.30 LIG-0.02  C 
ATOM     67  CD2 LEU B   2      54.889  82.826  25.729  1.00 39.39 LIG 0.01  C 
ATOM     68  CD1 LEU B   2      55.237  84.673  27.410  1.00 34.61 LIG 0.01  C 
ENDBRANCH 65 66
ENDBRANCH 50 65
ENDBRANCH 48 50
ENDBRANCH 41 43
ENDBRANCH 1 39
TORSDOF 28
ENDMDL
MODEL 37
USER: ADFR SOLUTION from run 2
USER: SCORE 24.828873 LL:  -6.864 LR: -18.743 RR:   0.000 FEB: -10.391
USER: RMSD 12.181145
USER: SEED 332656
USER: STATUS no improvement in best in 4 clusters for 5 generations
USER: GENES 30
USER: genes 0 Translation |==|  0.50710 0.58111 0.48171
USER: genes 1 Rotation |==|  0.12414 0.36102 0.21405 0.58743
USER: genes 2 Torsion [N]-CA--C-[N] |==|  0.90565
USER: genes 3 Torsion [C]-N--CA-[C] |==|  0.55052
USER: genes 4 Torsion [N]-CA--CB-[CG2] |==|  0.08067
USER: genes 5 Torsion [N]-CA--C-[N] |==|  0.43966
USER: genes 6 Torsion [C]-N--CA-[C] |==|  0.73332
USER: genes 7 Torsion [N]-CA--C-[N] |==|  0.36945
USER: genes 8 Torsion [C]-N--CA-[CB] |==|  0.22660
USER: genes 9 Torsion [N]-CA--CB-[CG1] |==|  0.74239
USER: genes 10 Torsion [CA]-CB--CG1-[CD1] |==|  0.34213
USER: genes 11 Torsion [N]-CA--C-[OXT] |==|  0.84234
USER: genes 12 Torsion [N]-CA--CB-[CG] |==|  0.57343
USER: genes 13 Torsion [CA]-CB--CG-[CD] |==|  0.27785
USER: genes 14 Torsion [CB]-CG--CD-[CE] |==|  0.46879
USER: genes 15 Torsion [CG]-CD--CE-[NZ] |==|  0.41298
USER: genes 16 Torsion [CD]-CE--NZ-[HZ1] |==|  0.12165
USER: genes 17 Torsion [C]-CA--CB-[CG] |==|  0.27536
USER: genes 18 Torsion [CA]-CB--CG-[CD2] |==|  0.76285
USER: genes 19 Torsion [C]-CA--N-[C] |==|  0.83598
USER: genes 20 Torsion [N]-C--CA-[CB] |==|  0.62108
USER: genes 21 Torsion [N]-C--CA-[N] |==|  0.15977
USER: genes 22 Torsion [C]-CA--N-[C] |==|  0.64440
USER: genes 23 Torsion [N]-C--CA-[N] |==|  0.56384
USER: genes 24 Torsion [C]-CA--CB-[CG] |==|  0.56651
USER: genes 25 Torsion [CA]-CB--CG-[CD] |==|  0.28049
USER: genes 26 Torsion [CB]-CG--CD-[OE1] |==|  0.80268
USER: genes 27 Torsion [C]-CA--N-[H1] |==|  0.97201
USER: genes 28 Torsion [C]-CA--CB-[CG] |==|  0.65882
USER: genes 29 Torsion [CA]-CB--CG-[CD2] |==|  0.57899
ROOT
ATOM      1  CA  LEU B   4      55.788  88.151  30.180  1.00 30.07 LIG 0.18  C 
ENDROOT
BRANCH 1 2
ATOM      2  C   LEU B   4      55.775  88.003  28.680  1.00 30.58 LIG 0.24  C 
ATOM      3 O    LEU B   4      55.622  88.990  27.958  1.00 35.83 LIG-0.27  OA
ATOM      4  N   VAL B   5      55.856  86.762  28.205  1.00 32.24 LIG-0.35  N 
ATOM      5 H    VAL B   5      55.940  86.066  28.703  1.00 32.24 LIG 0.16  HD
BRANCH 4 6
ATOM      6  CA  VAL B   5      55.807  86.468  26.769  1.00 32.53 LIG 0.18  C 
BRANCH 6 7
ATOM      7  CB  VAL B   5      57.146  86.783  26.077  1.00 34.70 LIG 0.01  C 
ATOM      8  CG2 VAL B   5      58.267  86.608  27.070  1.00 38.22 LIG 0.01  C 
ATOM      9  CG1 VAL B   5      57.172  88.192  25.499  1.00 39.77 LIG 0.01  C 
ENDBRANCH 6 7
BRANCH 6 10
ATOM     10  C   VAL B   5      55.476  85.020  26.536  1.00 39.16 LIG 0.24  C 
ATOM     11 O    VAL B   5      55.639  84.174  27.425  1.00 33.69 LIG-0.27  OA
ATOM     12  N   LYS B   6      54.973  84.746  25.344  1.00 40.12 LIG-0.35  N 
ATOM     13 H    LYS B   6      54.814  85.339  24.742  1.00 40.12 LIG 0.16  HD
BRANCH 12 14
ATOM     14  CA  LYS B   6      54.649  83.406  24.956  1.00 45.41 LIG 0.18  C 
BRANCH 14 15
ATOM     15  C   LYS B   6      55.881  82.967  24.195  1.00 44.99 LIG 0.24  C 
ATOM     16 O    LYS B   6      56.406  83.719  23.400  1.00 45.85 LIG-0.27  OA
ATOM     17  N   ILE B   7      56.415  81.793  24.457  1.00 47.54 LIG-0.34  N 
ATOM     18 H    ILE B   7      56.110  81.203  25.005  1.00 47.54 LIG 0.16  HD
BRANCH 17 19
ATOM     19  CA  ILE B   7      57.658  81.454  23.741  1.00 57.67 LIG 0.19  C 
BRANCH 19 20
ATOM     20  CB  ILE B   7      58.977  82.061  24.361  1.00 59.41 LIG 0.01  C 
ATOM     21  CG2 ILE B   7      60.153  81.095  24.263  1.00 60.58 LIG 0.01  C 
BRANCH 20 22
ATOM     22  CG1 ILE B   7      59.332  83.427  23.706  1.00 65.20 LIG 0.00  C 
ATOM     23  CD1 ILE B   7      59.475  84.635  24.636  1.00 51.92 LIG 0.01  C 
ENDBRANCH 20 22
ENDBRANCH 19 20
BRANCH 19 24
ATOM     24  C   ILE B   7      57.749  79.961  23.389  1.00 61.74 LIG 0.20  C 
ATOM     25 O    ILE B   7      57.923  79.537  22.257  1.00 61.53 LIG-0.65  OA
ATOM     26 OXT  ILE B   7      57.670  79.112  24.278  1.00 68.92 LIG-0.65  OA
ENDBRANCH 19 24
ENDBRANCH 17 19
ENDBRANCH 14 15
BRANCH 14 27
ATOM     27  CB  LYS B   6      53.385  83.462  24.081  1.00 46.87 LIG 0.04  C 
BRANCH 27 28
ATOM     28  CG  LYS B   6      52.544  82.200  24.092  1.00 55.56 LIG 0.00  C 
BRANCH 28 29
ATOM     29  CD  LYS B   6      51.340  82.315  25.017  1.00 60.95 LIG 0.03  C 
BRANCH 29 30
ATOM     30  CE  LYS B   6      50.359  81.155  24.810  1.00 62.93 LIG 0.23  C 
BRANCH 30 31
ATOM     31  NZ  LYS B   6      49.639  80.795  26.070  1.00 65.77 LIG-0.08  N 
ATOM     32 HZ1  LYS B   6      49.376  81.537  26.485  1.00 65.77 LIG 0.27  HD
ATOM     33 HZ2  LYS B   6      48.927  80.297  25.874  1.00 65.77 LIG 0.27  HD
ATOM     34 HZ3  LYS B   6      50.185  80.335  26.602  1.00 65.77 LIG 0.27  HD
ENDBRANCH 30 31
ENDBRANCH 29 30
ENDBRANCH 28 29
ENDBRANCH 27 28
ENDBRANCH 14 27
ENDBRANCH 12 14
ENDBRANCH 6 10
ENDBRANCH 4 6
ENDBRANCH 1 2
BRANCH 1 35
ATOM     35  CB  LEU B   4      57.240  88.227  30.606  1.00 28.63 LIG 0.04  C 
BRANCH 35 36
ATOM     36  CG  LEU B   4      57.675  89.668  30.839  1.00 30.56 LIG-0.02  C 
ATOM     37  CD2 LEU B   4      58.104  90.267  29.517  1.00 33.80 LIG 0.01  C 
ATOM     38  CD1 LEU B   4      58.847  89.667  31.835  1.00 28.87 LIG 0.01  C 
ENDBRANCH 35 36
ENDBRANCH 1 35
BRANCH 1 39
ATOM     39  N   LEU B   4      55.140  87.084  30.976  1.00 28.62 LIG-0.35  N 
ATOM     40 H    LEU B   4      55.658  86.687  31.536  1.00 28.62 LIG 0.16  HD
ATOM     41  C   PRO B   3      53.865  86.796  30.810  1.00 33.12 LIG 0.24  C 
ATOM     42 O    PRO B   3      53.074  87.516  30.175  1.00 32.36 LIG-0.27  OA
BRANCH 41 43
ATOM     43  CA  PRO B   3      53.384  85.520  31.498  1.00 33.48 LIG 0.18  C 
ATOM     44  CB  PRO B   3      52.468  84.698  30.552  1.00 32.62 LIG 0.04  C 
ATOM     45  CG  PRO B   3      51.335  84.214  31.419  1.00 32.85 LIG 0.02  C 
ATOM     46  CD  PRO B   3      51.161  85.281  32.498  1.00 29.95 LIG 0.13  C 
ATOM     47  N   PRO B   3      52.502  85.929  32.575  1.00 33.01 LIG-0.34  N 
ATOM     48  C   LEU B   2      53.003  86.756  33.521  1.00 31.97 LIG 0.24  C 
ATOM     49 O    LEU B   2      54.194  87.074  33.601  1.00 33.64 LIG-0.27  OA
BRANCH 48 50
ATOM     50  CA  LEU B   2      52.036  87.260  34.568  1.00 32.67 LIG 0.18  C 
BRANCH 50 51
ATOM     51  N   LEU B   2      51.481  86.066  35.196  1.00 33.85 LIG-0.35  N 
ATOM     52 H    LEU B   2      52.079  85.514  35.471  1.00 33.85 LIG 0.16  HD
ATOM     53  C   GLU B   1      50.177  85.848  35.330  1.00 36.42 LIG 0.25  C 
ATOM     54 O    GLU B   1      49.337  86.752  35.184  1.00 32.31 LIG-0.27  OA
BRANCH 53 55
ATOM     55  CA  GLU B   1      49.765  84.433  35.793  1.00 35.71 LIG 0.28  C 
BRANCH 55 56
ATOM     56  CB  GLU B   1      50.727  83.415  35.170  1.00 39.23 LIG 0.05  C 
BRANCH 56 57
ATOM     57  CG  GLU B   1      50.119  82.016  35.058  1.00 48.64 LIG 0.12  C 
BRANCH 57 58
ATOM     58  CD  GLU B   1      49.604  81.631  33.665  1.00 56.94 LIG 0.17  C 
ATOM     59 OE1  GLU B   1      48.574  82.204  33.272  1.00 65.53 LIG-0.65  OA
ATOM     60 OE2  GLU B   1      50.188  80.762  32.959  1.00 53.19 LIG-0.65  OA
ENDBRANCH 57 58
ENDBRANCH 56 57
ENDBRANCH 55 56
BRANCH 55 61
ATOM     61  N   GLU B   1      48.353  84.104  35.396  1.00 36.67 LIG-0.07  N 
ATOM     62 H1   GLU B   1      47.951  84.837  35.091  1.00 36.67 LIG 0.28  HD
ATOM     63 H3   GLU B   1      47.909  83.796  36.104  1.00 36.67 LIG 0.28  HD
ATOM     64 H2   GLU B   1      48.360  83.483  34.759  1.00 36.67 LIG 0.28  HD
ENDBRANCH 55 61
ENDBRANCH 53 55
ENDBRANCH 50 51
BRANCH 50 65
ATOM     65  CB  LEU B   2      52.789  88.169  35.574  1.00 34.84 LIG 0.04  C 
BRANCH 65 66
ATOM     66  CG  LEU B   2      52.721  87.761  37.055  1.00 34.30 LIG-0.02  C 
ATOM     67  CD2 LEU B   2      52.845  88.976  37.991  1.00 39.39 LIG 0.01  C 
ATOM     68  CD1 LEU B   2      53.756  86.695  37.423  1.00 34.61 LIG 0.01  C 
ENDBRANCH 65 66
ENDBRANCH 50 65
ENDBRANCH 48 50
ENDBRANCH 41 43
ENDBRANCH 1 39
TORSDOF 28
ENDMDL
MODEL 38
USER: ADFR SOLUTION from run 152
USER: SCORE 25.142641 LL:  -7.405 LR: -18.706 RR:   0.000 FEB: -10.353
USER: RMSD 4.140708
USER: SEED 151
USER: STATUS no improvement in best in 10 clusters for 5 generations
USER: GENES 30
USER: genes 0 Translation |==|  0.53337 0.55571 0.46929
USER: genes 1 Rotation |==|  0.51984 0.48293 0.51249 0.99916
USER: genes 2 Torsion [N]-CA--C-[N] |==|  0.39725
USER: genes 3 Torsion [C]-N--CA-[C] |==|  0.72346
USER: genes 4 Torsion [N]-CA--CB-[CG2] |==|  0.63819
USER: genes 5 Torsion [N]-CA--C-[N] |==|  0.45482
USER: genes 6 Torsion [C]-N--CA-[C] |==|  0.63529
USER: genes 7 Torsion [N]-CA--C-[N] |==|  0.99725
USER: genes 8 Torsion [C]-N--CA-[CB] |==|  0.26237
USER: genes 9 Torsion [N]-CA--CB-[CG1] |==|  0.24601
USER: genes 10 Torsion [CA]-CB--CG1-[CD1] |==|  0.86705
USER: genes 11 Torsion [N]-CA--C-[OXT] |==|  0.48200
USER: genes 12 Torsion [N]-CA--CB-[CG] |==|  0.96482
USER: genes 13 Torsion [CA]-CB--CG-[CD] |==|  0.26602
USER: genes 14 Torsion [CB]-CG--CD-[CE] |==|  0.57767
USER: genes 15 Torsion [CG]-CD--CE-[NZ] |==|  0.68056
USER: genes 16 Torsion [CD]-CE--NZ-[HZ1] |==|  0.97069
USER: genes 17 Torsion [C]-CA--CB-[CG] |==|  0.48784
USER: genes 18 Torsion [CA]-CB--CG-[CD2] |==|  0.66941
USER: genes 19 Torsion [C]-CA--N-[C] |==|  0.84328
USER: genes 20 Torsion [N]-C--CA-[CB] |==|  0.73070
USER: genes 21 Torsion [N]-C--CA-[N] |==|  0.22804
USER: genes 22 Torsion [C]-CA--N-[C] |==|  0.63728
USER: genes 23 Torsion [N]-C--CA-[N] |==|  0.96731
USER: genes 24 Torsion [C]-CA--CB-[CG] |==|  0.87509
USER: genes 25 Torsion [CA]-CB--CG-[CD] |==|  0.74764
USER: genes 26 Torsion [CB]-CG--CD-[OE1] |==|  0.05951
USER: genes 27 Torsion [C]-CA--N-[H1] |==|  0.25427
USER: genes 28 Torsion [C]-CA--CB-[CG] |==|  0.64529
USER: genes 29 Torsion [CA]-CB--CG-[CD2] |==|  0.59873
ROOT
ATOM      1  CA  LEU B   4      56.340  87.579  29.863  1.00 30.07 LIG 0.18  C 
ENDROOT
BRANCH 1 2
ATOM      2  C   LEU B   4      54.852  87.509  30.091  1.00 30.58 LIG 0.24  C 
ATOM      3 O    LEU B   4      54.129  88.457  29.777  1.00 35.83 LIG-0.27  OA
ATOM      4  N   VAL B   5      54.396  86.423  30.710  1.00 32.24 LIG-0.35  N 
ATOM      5 H    VAL B   5      54.897  85.768  30.952  1.00 32.24 LIG 0.16  HD
BRANCH 4 6
ATOM      6  CA  VAL B   5      52.978  86.245  31.038  1.00 32.53 LIG 0.18  C 
BRANCH 6 7
ATOM      7  CB  VAL B   5      52.512  84.800  30.785  1.00 34.70 LIG 0.01  C 
ATOM      8  CG2 VAL B   5      51.246  84.825  29.966  1.00 38.22 LIG 0.01  C 
ATOM      9  CG1 VAL B   5      52.280  84.039  32.085  1.00 39.77 LIG 0.01  C 
ENDBRANCH 6 7
BRANCH 6 10
ATOM     10  C   VAL B   5      52.722  86.586  32.480  1.00 39.16 LIG 0.24  C 
ATOM     11 O    VAL B   5      53.653  86.700  33.287  1.00 33.69 LIG-0.27  OA
ATOM     12  N   LYS B   6      51.452  86.784  32.791  1.00 40.12 LIG-0.35  N 
ATOM     13 H    LYS B   6      50.808  86.753  32.221  1.00 40.12 LIG 0.16  HD
BRANCH 12 14
ATOM     14  CA  LYS B   6      51.043  87.073  34.132  1.00 45.41 LIG 0.18  C 
BRANCH 14 15
ATOM     15  C   LYS B   6      49.899  86.107  34.351  1.00 44.99 LIG 0.24  C 
ATOM     16 O    LYS B   6      49.283  86.119  35.397  1.00 45.85 LIG-0.27  OA
ATOM     17  N   ILE B   7      49.537  85.306  33.372  1.00 47.54 LIG-0.34  N 
ATOM     18 H    ILE B   7      49.916  85.234  32.603  1.00 47.54 LIG 0.16  HD
BRANCH 17 19
ATOM     19  CA  ILE B   7      48.367  84.443  33.618  1.00 57.67 LIG 0.19  C 
BRANCH 19 20
ATOM     20  CB  ILE B   7      46.988  85.023  33.113  1.00 59.41 LIG 0.01  C 
ATOM     21  CG2 ILE B   7      46.906  86.536  33.282  1.00 60.58 LIG 0.01  C 
BRANCH 20 22
ATOM     22  CG1 ILE B   7      46.713  84.620  31.635  1.00 65.20 LIG 0.00  C 
ATOM     23  CD1 ILE B   7      47.850  84.824  30.629  1.00 51.92 LIG 0.01  C 
ENDBRANCH 20 22
ENDBRANCH 19 20
BRANCH 19 24
ATOM     24  C   ILE B   7      48.621  82.978  33.233  1.00 61.74 LIG 0.20  C 
ATOM     25 O    ILE B   7      49.642  82.582  32.692  1.00 61.53 LIG-0.65  OA
ATOM     26 OXT  ILE B   7      47.778  82.118  33.491  1.00 68.92 LIG-0.65  OA
ENDBRANCH 19 24
ENDBRANCH 17 19
ENDBRANCH 14 15
BRANCH 14 27
ATOM     27  CB  LYS B   6      50.610  88.547  34.186  1.00 46.87 LIG 0.04  C 
BRANCH 27 28
ATOM     28  CG  LYS B   6      50.992  89.371  32.971  1.00 55.56 LIG 0.00  C 
BRANCH 28 29
ATOM     29  CD  LYS B   6      49.862  89.464  31.956  1.00 60.95 LIG 0.03  C 
BRANCH 29 30
ATOM     30  CE  LYS B   6      50.398  89.656  30.532  1.00 62.93 LIG 0.23  C 
BRANCH 30 31
ATOM     31  NZ  LYS B   6      50.011  90.981  29.958  1.00 65.77 LIG-0.08  N 
ATOM     32 HZ1  LYS B   6      49.407  91.369  30.485  1.00 65.77 LIG 0.27  HD
ATOM     33 HZ2  LYS B   6      50.731  91.502  29.900  1.00 65.77 LIG 0.27  HD
ATOM     34 HZ3  LYS B   6      49.665  90.864  29.146  1.00 65.77 LIG 0.27  HD
ENDBRANCH 30 31
ENDBRANCH 29 30
ENDBRANCH 28 29
ENDBRANCH 27 28
ENDBRANCH 14 27
ENDBRANCH 12 14
ENDBRANCH 6 10
ENDBRANCH 4 6
ENDBRANCH 1 2
BRANCH 1 35
ATOM     35  CB  LEU B   4      56.926  88.386  31.003  1.00 28.63 LIG 0.04  C 
BRANCH 35 36
ATOM     36  CG  LEU B   4      58.447  88.429  30.928  1.00 30.56 LIG-0.02  C 
ATOM     37  CD2 LEU B   4      59.015  87.796  32.180  1.00 33.80 LIG 0.01  C 
ATOM     38  CD1 LEU B   4      58.887  89.899  30.822  1.00 28.87 LIG 0.01  C 
ENDBRANCH 35 36
ENDBRANCH 1 35
BRANCH 1 39
ATOM     39  N   LEU B   4      56.808  88.185  28.595  1.00 28.62 LIG-0.35  N 
ATOM     40 H    LEU B   4      57.347  88.848  28.690  1.00 28.62 LIG 0.16  HD
ATOM     41  C   PRO B   3      56.405  87.715  27.432  1.00 33.12 LIG 0.24  C 
ATOM     42 O    PRO B   3      55.817  86.627  27.296  1.00 32.36 LIG-0.27  OA
BRANCH 41 43
ATOM     43  CA  PRO B   3      56.750  88.576  26.220  1.00 33.48 LIG 0.18  C 
ATOM     44  CB  PRO B   3      55.549  89.476  25.824  1.00 32.62 LIG 0.04  C 
ATOM     45  CG  PRO B   3      55.491  89.423  24.320  1.00 32.85 LIG 0.02  C 
ATOM     46  CD  PRO B   3      56.032  88.048  23.939  1.00 29.95 LIG 0.13  C 
ATOM     47  N   PRO B   3      56.902  87.675  25.092  1.00 33.01 LIG-0.34  N 
ATOM     48  C   LEU B   2      57.826  86.693  25.189  1.00 31.97 LIG 0.24  C 
ATOM     49 O    LEU B   2      58.639  86.598  26.114  1.00 33.64 LIG-0.27  OA
BRANCH 48 50
ATOM     50  CA  LEU B   2      57.886  85.698  24.052  1.00 32.67 LIG 0.18  C 
BRANCH 50 51
ATOM     51  N   LEU B   2      58.683  86.339  23.013  1.00 33.85 LIG-0.35  N 
ATOM     52 H    LEU B   2      59.424  86.666  23.301  1.00 33.85 LIG 0.16  HD
ATOM     53  C   GLU B   1      58.305  86.414  21.741  1.00 36.42 LIG 0.25  C 
ATOM     54 O    GLU B   1      57.385  85.717  21.283  1.00 32.31 LIG-0.27  OA
BRANCH 53 55
ATOM     55  CA  GLU B   1      59.148  87.335  20.831  1.00 35.71 LIG 0.28  C 
BRANCH 55 56
ATOM     56  CB  GLU B   1      59.952  86.462  19.860  1.00 39.23 LIG 0.05  C 
BRANCH 56 57
ATOM     57  CG  GLU B   1      60.614  85.268  20.547  1.00 48.64 LIG 0.12  C 
BRANCH 57 58
ATOM     58  CD  GLU B   1      62.036  85.514  21.070  1.00 56.94 LIG 0.17  C 
ATOM     59 OE1  GLU B   1      62.362  86.696  21.270  1.00 65.53 LIG-0.65  OA
ATOM     60 OE2  GLU B   1      62.843  84.562  21.271  1.00 53.19 LIG-0.65  OA
ENDBRANCH 57 58
ENDBRANCH 56 57
ENDBRANCH 55 56
BRANCH 55 61
ATOM     61  N   GLU B   1      60.084  88.202  21.626  1.00 36.67 LIG-0.07  N 
ATOM     62 H1   GLU B   1      60.868  87.791  21.713  1.00 36.67 LIG 0.28  HD
ATOM     63 H3   GLU B   1      59.737  88.353  22.432  1.00 36.67 LIG 0.28  HD
ATOM     64 H2   GLU B   1      60.201  88.978  21.204  1.00 36.67 LIG 0.28  HD
ENDBRANCH 55 61
ENDBRANCH 53 55
ENDBRANCH 50 51
BRANCH 50 65
ATOM     65  CB  LEU B   2      58.515  84.373  24.556  1.00 34.84 LIG 0.04  C 
BRANCH 65 66
ATOM     66  CG  LEU B   2      59.697  83.819  23.743  1.00 34.30 LIG-0.02  C 
ATOM     67  CD2 LEU B   2      59.690  82.282  23.696  1.00 39.39 LIG 0.01  C 
ATOM     68  CD1 LEU B   2      61.050  84.333  24.242  1.00 34.61 LIG 0.01  C 
ENDBRANCH 65 66
ENDBRANCH 50 65
ENDBRANCH 48 50
ENDBRANCH 41 43
ENDBRANCH 1 39
TORSDOF 28
ENDMDL
MODEL 39
USER: ADFR SOLUTION from run 1
USER: SCORE 25.281879 LL:  -7.376 LR: -18.625 RR:   0.000 FEB: -10.272
USER: RMSD 13.004873
USER: SEED 302684
USER: STATUS searching
USER: GENES 30
USER: genes 0 Translation |==|  0.53561 0.58559 0.46288
USER: genes 1 Rotation |==|  0.10676 0.38547 0.22235 0.57178
USER: genes 2 Torsion [N]-CA--C-[N] |==|  0.42383
USER: genes 3 Torsion [C]-N--CA-[C] |==|  0.84443
USER: genes 4 Torsion [N]-CA--CB-[CG2] |==|  0.56008
USER: genes 5 Torsion [N]-CA--C-[N] |==|  0.44278
USER: genes 6 Torsion [C]-N--CA-[C] |==|  0.63568
USER: genes 7 Torsion [N]-CA--C-[N] |==|  0.31385
USER: genes 8 Torsion [C]-N--CA-[CB] |==|  0.21202
USER: genes 9 Torsion [N]-CA--CB-[CG1] |==|  0.04822
USER: genes 10 Torsion [CA]-CB--CG1-[CD1] |==|  0.39943
USER: genes 11 Torsion [N]-CA--C-[OXT] |==|  0.10243
USER: genes 12 Torsion [N]-CA--CB-[CG] |==|  0.47795
USER: genes 13 Torsion [CA]-CB--CG-[CD] |==|  0.29367
USER: genes 14 Torsion [CB]-CG--CD-[CE] |==|  0.88874
USER: genes 15 Torsion [CG]-CD--CE-[NZ] |==|  0.84632
USER: genes 16 Torsion [CD]-CE--NZ-[HZ1] |==|  0.67818
USER: genes 17 Torsion [C]-CA--CB-[CG] |==|  0.50689
USER: genes 18 Torsion [CA]-CB--CG-[CD2] |==|  0.65200
USER: genes 19 Torsion [C]-CA--N-[C] |==|  0.83298
USER: genes 20 Torsion [N]-C--CA-[CB] |==|  0.64717
USER: genes 21 Torsion [N]-C--CA-[N] |==|  0.87429
USER: genes 22 Torsion [C]-CA--N-[C] |==|  0.82489
USER: genes 23 Torsion [N]-C--CA-[N] |==|  0.49098
USER: genes 24 Torsion [C]-CA--CB-[CG] |==|  0.28332
USER: genes 25 Torsion [CA]-CB--CG-[CD] |==|  0.04971
USER: genes 26 Torsion [CB]-CG--CD-[OE1] |==|  0.63682
USER: genes 27 Torsion [C]-CA--N-[H1] |==|  0.37246
USER: genes 28 Torsion [C]-CA--CB-[CG] |==|  0.06560
USER: genes 29 Torsion [CA]-CB--CG-[CD2] |==|  0.64299
ROOT
ATOM      1  CA  LEU B   4      56.387  88.252  29.699  1.00 30.07 LIG 0.18  C 
ENDROOT
BRANCH 1 2
ATOM      2  C   LEU B   4      56.258  88.093  28.206  1.00 30.58 LIG 0.24  C 
ATOM      3 O    LEU B   4      56.110  86.974  27.710  1.00 35.83 LIG-0.27  OA
ATOM      4  N   VAL B   5      56.395  89.198  27.477  1.00 32.24 LIG-0.35  N 
ATOM      5 H    VAL B   5      56.521  89.978  27.815  1.00 32.24 LIG 0.16  HD
BRANCH 4 6
ATOM      6  CA  VAL B   5      56.340  89.182  26.012  1.00 32.53 LIG 0.18  C 
BRANCH 6 7
ATOM      7  CB  VAL B   5      56.598  90.578  25.417  1.00 34.70 LIG 0.01  C 
ATOM      8  CG2 VAL B   5      56.025  90.635  24.024  1.00 38.22 LIG 0.01  C 
ATOM      9  CG1 VAL B   5      58.082  90.920  25.387  1.00 39.77 LIG 0.01  C 
ENDBRANCH 6 7
BRANCH 6 10
ATOM     10  C   VAL B   5      57.361  88.228  25.455  1.00 39.16 LIG 0.24  C 
ATOM     11 O    VAL B   5      58.321  87.846  26.137  1.00 33.69 LIG-0.27  OA
ATOM     12  N   LYS B   6      57.126  87.816  24.221  1.00 40.12 LIG-0.35  N 
ATOM     13 H    LYS B   6      56.434  88.042  23.763  1.00 40.12 LIG 0.16  HD
BRANCH 12 14
ATOM     14  CA  LYS B   6      58.029  86.940  23.537  1.00 45.41 LIG 0.18  C 
BRANCH 14 15
ATOM     15  C   LYS B   6      58.212  87.623  22.199  1.00 44.99 LIG 0.24  C 
ATOM     16 O    LYS B   6      57.268  87.758  21.449  1.00 45.85 LIG-0.27  OA
ATOM     17  N   ILE B   7      59.388  88.127  21.890  1.00 47.54 LIG-0.34  N 
ATOM     18 H    ILE B   7      60.106  88.078  22.362  1.00 47.54 LIG 0.16  HD
BRANCH 17 19
ATOM     19  CA  ILE B   7      59.486  88.849  20.608  1.00 57.67 LIG 0.19  C 
BRANCH 19 20
ATOM     20  CB  ILE B   7      58.863  90.300  20.604  1.00 59.41 LIG 0.01  C 
ATOM     21  CG2 ILE B   7      57.555  90.359  19.825  1.00 60.58 LIG 0.01  C 
BRANCH 20 22
ATOM     22  CG1 ILE B   7      58.665  90.833  22.053  1.00 65.20 LIG 0.00  C 
ATOM     23  CD1 ILE B   7      58.904  92.327  22.289  1.00 51.92 LIG 0.01  C 
ENDBRANCH 20 22
ENDBRANCH 19 20
BRANCH 19 24
ATOM     24  C   ILE B   7      60.885  88.755  19.982  1.00 61.74 LIG 0.20  C 
ATOM     25 O    ILE B   7      61.433  89.676  19.396  1.00 61.53 LIG-0.65  OA
ATOM     26 OXT  ILE B   7      61.535  87.713  20.077  1.00 68.92 LIG-0.65  OA
ENDBRANCH 19 24
ENDBRANCH 17 19
ENDBRANCH 14 15
BRANCH 14 27
ATOM     27  CB  LYS B   6      57.356  85.562  23.425  1.00 46.87 LIG 0.04  C 
BRANCH 27 28
ATOM     28  CG  LYS B   6      58.094  84.558  22.561  1.00 55.56 LIG 0.00  C 
BRANCH 28 29
ATOM     29  CD  LYS B   6      58.796  83.489  23.387  1.00 60.95 LIG 0.03  C 
BRANCH 29 30
ATOM     30  CE  LYS B   6      59.443  84.084  24.644  1.00 62.93 LIG 0.23  C 
BRANCH 30 31
ATOM     31  NZ  LYS B   6      60.382  85.201  24.320  1.00 65.77 LIG-0.08  N 
ATOM     32 HZ1  LYS B   6      61.210  84.970  24.553  1.00 65.77 LIG 0.27  HD
ATOM     33 HZ2  LYS B   6      60.357  85.367  23.445  1.00 65.77 LIG 0.27  HD
ATOM     34 HZ3  LYS B   6      60.140  85.932  24.767  1.00 65.77 LIG 0.27  HD
ENDBRANCH 30 31
ENDBRANCH 29 30
ENDBRANCH 28 29
ENDBRANCH 27 28
ENDBRANCH 14 27
ENDBRANCH 12 14
ENDBRANCH 6 10
ENDBRANCH 4 6
ENDBRANCH 1 2
BRANCH 1 35
ATOM     35  CB  LEU B   4      57.862  88.152  30.031  1.00 28.63 LIG 0.04  C 
BRANCH 35 36
ATOM     36  CG  LEU B   4      58.100  88.239  31.533  1.00 30.56 LIG-0.02  C 
ATOM     37  CD2 LEU B   4      59.087  89.353  31.806  1.00 33.80 LIG 0.01  C 
ATOM     38  CD1 LEU B   4      58.662  86.891  32.015  1.00 28.87 LIG 0.01  C 
ENDBRANCH 35 36
ENDBRANCH 1 35
BRANCH 1 39
ATOM     39  N   LEU B   4      55.666  87.279  30.553  1.00 28.62 LIG-0.35  N 
ATOM     40 H    LEU B   4      56.169  86.816  31.075  1.00 28.62 LIG 0.16  HD
ATOM     41  C   PRO B   3      54.355  87.164  30.488  1.00 33.12 LIG 0.24  C 
ATOM     42 O    PRO B   3      53.620  87.984  29.910  1.00 32.36 LIG-0.27  OA
BRANCH 41 43
ATOM     43  CA  PRO B   3      53.764  85.963  31.222  1.00 33.48 LIG 0.18  C 
ATOM     44  CB  PRO B   3      52.854  85.134  30.276  1.00 32.62 LIG 0.04  C 
ATOM     45  CG  PRO B   3      51.649  84.769  31.104  1.00 32.85 LIG 0.02  C 
ATOM     46  CD  PRO B   3      51.480  85.910  32.105  1.00 29.95 LIG 0.13  C 
ATOM     47  N   PRO B   3      52.851  86.487  32.221  1.00 33.01 LIG-0.34  N 
ATOM     48  C   LEU B   2      53.347  87.342  33.142  1.00 31.97 LIG 0.24  C 
ATOM     49 O    LEU B   2      54.549  87.598  33.272  1.00 33.64 LIG-0.27  OA
BRANCH 48 50
ATOM     50  CA  LEU B   2      52.357  87.964  34.100  1.00 32.67 LIG 0.18  C 
BRANCH 50 51
ATOM     51  N   LEU B   2      51.230  88.389  33.277  1.00 33.85 LIG-0.35  N 
ATOM     52 H    LEU B   2      50.495  87.986  33.467  1.00 33.85 LIG 0.16  HD
ATOM     53  C   GLU B   1      51.325  89.311  32.325  1.00 36.42 LIG 0.25  C 
ATOM     54 O    GLU B   1      52.302  90.074  32.239  1.00 32.31 LIG-0.27  OA
BRANCH 53 55
ATOM     55  CA  GLU B   1      50.101  89.460  31.394  1.00 35.71 LIG 0.28  C 
BRANCH 55 56
ATOM     56  CB  GLU B   1      49.890  88.139  30.646  1.00 39.23 LIG 0.05  C 
BRANCH 56 57
ATOM     57  CG  GLU B   1      48.753  87.301  31.231  1.00 48.64 LIG 0.12  C 
BRANCH 57 58
ATOM     58  CD  GLU B   1      47.772  88.061  32.134  1.00 56.94 LIG 0.17  C 
ATOM     59 OE1  GLU B   1      47.515  87.549  33.236  1.00 65.53 LIG-0.65  OA
ATOM     60 OE2  GLU B   1      47.237  89.145  31.767  1.00 53.19 LIG-0.65  OA
ENDBRANCH 57 58
ENDBRANCH 56 57
ENDBRANCH 55 56
BRANCH 55 61
ATOM     61  N   GLU B   1      50.282  90.579  30.406  1.00 36.67 LIG-0.07  N 
ATOM     62 H1   GLU B   1      50.041  90.301  29.596  1.00 36.67 LIG 0.28  HD
ATOM     63 H3   GLU B   1      51.137  90.827  30.392  1.00 36.67 LIG 0.28  HD
ATOM     64 H2   GLU B   1      49.777  91.271  30.646  1.00 36.67 LIG 0.28  HD
ENDBRANCH 55 61
ENDBRANCH 53 55
ENDBRANCH 50 51
BRANCH 50 65
ATOM     65  CB  LEU B   2      51.952  86.923  35.176  1.00 34.84 LIG 0.04  C 
BRANCH 65 66
ATOM     66  CG  LEU B   2      52.946  85.779  35.437  1.00 34.30 LIG-0.02  C 
ATOM     67  CD2 LEU B   2      52.266  84.401  35.363  1.00 39.39 LIG 0.01  C 
ATOM     68  CD1 LEU B   2      53.695  85.936  36.762  1.00 34.61 LIG 0.01  C 
ENDBRANCH 65 66
ENDBRANCH 50 65
ENDBRANCH 48 50
ENDBRANCH 41 43
ENDBRANCH 1 39
TORSDOF 28
ENDMDL
MODEL 40
USER: ADFR SOLUTION from run 41
USER: SCORE 24.781555 LL:  -7.483 LR: -18.608 RR:   0.000 FEB: -10.256
USER: RMSD 11.547348
USER: SEED 40
USER: STATUS no improvement in best in 6 clusters for 5 generations
USER: GENES 30
USER: genes 0 Translation |==|  0.55424 0.59455 0.47298
USER: genes 1 Rotation |==|  0.11119 0.41599 0.21184 0.59346
USER: genes 2 Torsion [N]-CA--C-[N] |==|  0.35009
USER: genes 3 Torsion [C]-N--CA-[C] |==|  0.17275
USER: genes 4 Torsion [N]-CA--CB-[CG2] |==|  0.62233
USER: genes 5 Torsion [N]-CA--C-[N] |==|  0.47595
USER: genes 6 Torsion [C]-N--CA-[C] |==|  0.76908
USER: genes 7 Torsion [N]-CA--C-[N] |==|  0.20631
USER: genes 8 Torsion [C]-N--CA-[CB] |==|  0.40878
USER: genes 9 Torsion [N]-CA--CB-[CG1] |==|  0.03646
USER: genes 10 Torsion [CA]-CB--CG1-[CD1] |==|  0.19332
USER: genes 11 Torsion [N]-CA--C-[OXT] |==|  0.95310
USER: genes 12 Torsion [N]-CA--CB-[CG] |==|  0.07119
USER: genes 13 Torsion [CA]-CB--CG-[CD] |==|  0.30897
USER: genes 14 Torsion [CB]-CG--CD-[CE] |==|  0.36339
USER: genes 15 Torsion [CG]-CD--CE-[NZ] |==|  0.15855
USER: genes 16 Torsion [CD]-CE--NZ-[HZ1] |==|  0.64731
USER: genes 17 Torsion [C]-CA--CB-[CG] |==|  0.49673
USER: genes 18 Torsion [CA]-CB--CG-[CD2] |==|  0.65957
USER: genes 19 Torsion [C]-CA--N-[C] |==|  0.86080
USER: genes 20 Torsion [N]-C--CA-[CB] |==|  0.62898
USER: genes 21 Torsion [N]-C--CA-[N] |==|  0.35750
USER: genes 22 Torsion [C]-CA--N-[C] |==|  0.84533
USER: genes 23 Torsion [N]-C--CA-[N] |==|  0.05069
USER: genes 24 Torsion [C]-CA--CB-[CG] |==|  0.39053
USER: genes 25 Torsion [CA]-CB--CG-[CD] |==|  0.08853
USER: genes 26 Torsion [CB]-CG--CD-[OE1] |==|  0.11632
USER: genes 27 Torsion [C]-CA--N-[H1] |==|  0.21209
USER: genes 28 Torsion [C]-CA--CB-[CG] |==|  0.25885
USER: genes 29 Torsion [CA]-CB--CG-[CD2] |==|  0.83167
ROOT
ATOM      1  CA  LEU B   4      56.778  88.453  29.957  1.00 30.07 LIG 0.18  C 
ENDROOT
BRANCH 1 2
ATOM      2  C   LEU B   4      56.656  88.524  28.456  1.00 30.58 LIG 0.24  C 
ATOM      3 O    LEU B   4      56.942  87.546  27.762  1.00 35.83 LIG-0.27  OA
ATOM      4  N   VAL B   5      56.308  89.701  27.943  1.00 32.24 LIG-0.35  N 
ATOM      5 H    VAL B   5      56.129  90.394  28.419  1.00 32.24 LIG 0.16  HD
BRANCH 4 6
ATOM      6  CA  VAL B   5      56.198  89.924  26.497  1.00 32.53 LIG 0.18  C 
BRANCH 6 7
ATOM      7  CB  VAL B   5      57.527  89.638  25.774  1.00 34.70 LIG 0.01  C 
ATOM      8  CG2 VAL B   5      57.789  90.734  24.773  1.00 38.22 LIG 0.01  C 
ATOM      9  CG1 VAL B   5      57.518  88.283  25.078  1.00 39.77 LIG 0.01  C 
ENDBRANCH 6 7
BRANCH 6 10
ATOM     10  C   VAL B   5      55.132  89.043  25.906  1.00 39.16 LIG 0.24  C 
ATOM     11 O    VAL B   5      54.568  88.175  26.585  1.00 33.69 LIG-0.27  OA
ATOM     12  N   LYS B   6      54.834  89.298  24.644  1.00 40.12 LIG-0.35  N 
ATOM     13 H    LYS B   6      55.190  89.932  24.184  1.00 40.12 LIG 0.16  HD
BRANCH 12 14
ATOM     14  CA  LYS B   6      53.871  88.517  23.927  1.00 45.41 LIG 0.18  C 
BRANCH 14 15
ATOM     15  C   LYS B   6      54.679  87.323  23.468  1.00 44.99 LIG 0.24  C 
ATOM     16 O    LYS B   6      55.064  87.253  22.319  1.00 45.85 LIG-0.27  OA
ATOM     17  N   ILE B   7      55.015  86.399  24.342  1.00 47.54 LIG-0.34  N 
ATOM     18 H    ILE B   7      54.787  86.372  25.171  1.00 47.54 LIG 0.16  HD
BRANCH 17 19
ATOM     19  CA  ILE B   7      55.868  85.300  23.853  1.00 57.67 LIG 0.19  C 
BRANCH 19 20
ATOM     20  CB  ILE B   7      56.882  84.714  24.912  1.00 59.41 LIG 0.01  C 
ATOM     21  CG2 ILE B   7      58.329  85.041  24.561  1.00 60.58 LIG 0.01  C 
BRANCH 20 22
ATOM     22  CG1 ILE B   7      56.542  85.202  26.350  1.00 65.20 LIG 0.00  C 
ATOM     23  CD1 ILE B   7      55.264  84.656  26.992  1.00 51.92 LIG 0.01  C 
ENDBRANCH 20 22
ENDBRANCH 19 20
BRANCH 19 24
ATOM     24  C   ILE B   7      55.076  84.238  23.075  1.00 61.74 LIG 0.20  C 
ATOM     25 O    ILE B   7      55.591  83.396  22.356  1.00 61.53 LIG-0.65  OA
ATOM     26 OXT  ILE B   7      53.850  84.186  23.177  1.00 68.92 LIG-0.65  OA
ENDBRANCH 19 24
ENDBRANCH 17 19
ENDBRANCH 14 15
BRANCH 14 27
ATOM     27  CB  LYS B   6      53.341  89.373  22.764  1.00 46.87 LIG 0.04  C 
BRANCH 27 28
ATOM     28  CG  LYS B   6      54.290  90.451  22.279  1.00 55.56 LIG 0.00  C 
BRANCH 28 29
ATOM     29  CD  LYS B   6      54.831  90.162  20.885  1.00 60.95 LIG 0.03  C 
BRANCH 29 30
ATOM     30  CE  LYS B   6      54.695  91.380  19.965  1.00 62.93 LIG 0.23  C 
BRANCH 30 31
ATOM     31  NZ  LYS B   6      55.384  92.586  20.521  1.00 65.77 LIG-0.08  N 
ATOM     32 HZ1  LYS B   6      54.814  93.269  20.544  1.00 65.77 LIG 0.27  HD
ATOM     33 HZ2  LYS B   6      55.670  92.411  21.346  1.00 65.77 LIG 0.27  HD
ATOM     34 HZ3  LYS B   6      56.078  92.796  20.004  1.00 65.77 LIG 0.27  HD
ENDBRANCH 30 31
ENDBRANCH 29 30
ENDBRANCH 28 29
ENDBRANCH 27 28
ENDBRANCH 14 27
ENDBRANCH 12 14
ENDBRANCH 6 10
ENDBRANCH 4 6
ENDBRANCH 1 2
BRANCH 1 35
ATOM     35  CB  LEU B   4      58.243  88.232  30.273  1.00 28.63 LIG 0.04  C 
BRANCH 35 36
ATOM     36  CG  LEU B   4      58.484  88.174  31.776  1.00 30.56 LIG-0.02  C 
ATOM     37  CD2 LEU B   4      59.490  89.241  32.150  1.00 33.80 LIG 0.01  C 
ATOM     38  CD1 LEU B   4      59.024  86.778  32.128  1.00 28.87 LIG 0.01  C 
ENDBRANCH 35 36
ENDBRANCH 1 35
BRANCH 1 39
ATOM     39  N   LEU B   4      56.003  87.403  30.656  1.00 28.62 LIG-0.35  N 
ATOM     40 H    LEU B   4      56.457  86.928  31.210  1.00 28.62 LIG 0.16  HD
ATOM     41  C   PRO B   3      54.716  87.242  30.420  1.00 33.12 LIG 0.24  C 
ATOM     42 O    PRO B   3      54.022  88.068  29.801  1.00 32.36 LIG-0.27  OA
BRANCH 41 43
ATOM     43  CA  PRO B   3      54.095  85.976  31.004  1.00 33.48 LIG 0.18  C 
ATOM     44  CB  PRO B   3      53.211  85.259  29.947  1.00 32.62 LIG 0.04  C 
ATOM     45  CG  PRO B   3      51.978  84.821  30.693  1.00 32.85 LIG 0.02  C 
ATOM     46  CD  PRO B   3      51.783  85.851  31.802  1.00 29.95 LIG 0.13  C 
ATOM     47  N   PRO B   3      53.152  86.400  32.022  1.00 33.01 LIG-0.34  N 
ATOM     48  C   LEU B   2      53.623  87.149  33.044  1.00 31.97 LIG 0.24  C 
ATOM     49 O    LEU B   2      54.821  87.380  33.239  1.00 33.64 LIG-0.27  OA
BRANCH 48 50
ATOM     50  CA  LEU B   2      52.605  87.676  34.030  1.00 32.67 LIG 0.18  C 
BRANCH 50 51
ATOM     51  N   LEU B   2      53.103  87.299  35.347  1.00 33.85 LIG-0.35  N 
ATOM     52 H    LEU B   2      53.195  87.965  35.883  1.00 33.85 LIG 0.16  HD
ATOM     53  C   GLU B   1      53.391  86.048  35.692  1.00 36.42 LIG 0.25  C 
ATOM     54 O    GLU B   1      53.006  85.074  35.024  1.00 32.31 LIG-0.27  OA
BRANCH 53 55
ATOM     55  CA  GLU B   1      54.134  85.862  37.033  1.00 35.71 LIG 0.28  C 
BRANCH 55 56
ATOM     56  CB  GLU B   1      53.547  84.644  37.755  1.00 39.23 LIG 0.05  C 
BRANCH 56 57
ATOM     57  CG  GLU B   1      54.611  83.799  38.454  1.00 48.64 LIG 0.12  C 
BRANCH 57 58
ATOM     58  CD  GLU B   1      55.822  84.575  38.988  1.00 56.94 LIG 0.17  C 
ATOM     59 OE1  GLU B   1      55.589  85.659  39.549  1.00 65.53 LIG-0.65  OA
ATOM     60 OE2  GLU B   1      57.001  84.142  38.851  1.00 53.19 LIG-0.65  OA
ENDBRANCH 57 58
ENDBRANCH 56 57
ENDBRANCH 55 56
BRANCH 55 61
ATOM     61  N   GLU B   1      54.015  87.077  37.911  1.00 36.67 LIG-0.07  N 
ATOM     62 H1   GLU B   1      53.205  87.099  38.279  1.00 36.67 LIG 0.28  HD
ATOM     63 H3   GLU B   1      54.139  87.810  37.423  1.00 36.67 LIG 0.28  HD
ATOM     64 H2   GLU B   1      54.632  87.041  38.553  1.00 36.67 LIG 0.28  HD
ENDBRANCH 55 61
ENDBRANCH 53 55
ENDBRANCH 50 51
BRANCH 50 65
ATOM     65  CB  LEU B   2      52.465  89.212  33.861  1.00 34.84 LIG 0.04  C 
BRANCH 65 66
ATOM     66  CG  LEU B   2      51.356  89.703  32.917  1.00 34.30 LIG-0.02  C 
ATOM     67  CD2 LEU B   2      51.557  89.190  31.480  1.00 39.39 LIG 0.01  C 
ATOM     68  CD1 LEU B   2      51.203  91.226  32.925  1.00 34.61 LIG 0.01  C 
ENDBRANCH 65 66
ENDBRANCH 50 65
ENDBRANCH 48 50
ENDBRANCH 41 43
ENDBRANCH 1 39
TORSDOF 28
ENDMDL
MODEL 41
USER: ADFR SOLUTION from run 134
USER: SCORE 26.736973 LL:  -8.932 LR: -18.594 RR:   0.000 FEB: -10.242
USER: RMSD 11.386912
USER: SEED 133
USER: STATUS searching
USER: GENES 30
USER: genes 0 Translation |==|  0.41430 0.47113 0.46603
USER: genes 1 Rotation |==|  0.34627 0.06632 0.31159 0.55284
USER: genes 2 Torsion [N]-CA--C-[N] |==|  0.43967
USER: genes 3 Torsion [C]-N--CA-[C] |==|  0.73854
USER: genes 4 Torsion [N]-CA--CB-[CG2] |==|  0.80574
USER: genes 5 Torsion [N]-CA--C-[N] |==|  0.88968
USER: genes 6 Torsion [C]-N--CA-[C] |==|  0.73475
USER: genes 7 Torsion [N]-CA--C-[N] |==|  0.29568
USER: genes 8 Torsion [C]-N--CA-[CB] |==|  0.26708
USER: genes 9 Torsion [N]-CA--CB-[CG1] |==|  0.23683
USER: genes 10 Torsion [CA]-CB--CG1-[CD1] |==|  0.36363
USER: genes 11 Torsion [N]-CA--C-[OXT] |==|  0.12635
USER: genes 12 Torsion [N]-CA--CB-[CG] |==|  0.49609
USER: genes 13 Torsion [CA]-CB--CG-[CD] |==|  0.14879
USER: genes 14 Torsion [CB]-CG--CD-[CE] |==|  0.71917
USER: genes 15 Torsion [CG]-CD--CE-[NZ] |==|  0.97120
USER: genes 16 Torsion [CD]-CE--NZ-[HZ1] |==|  0.74007
USER: genes 17 Torsion [C]-CA--CB-[CG] |==|  0.60394
USER: genes 18 Torsion [CA]-CB--CG-[CD2] |==|  0.70342
USER: genes 19 Torsion [C]-CA--N-[C] |==|  0.60230
USER: genes 20 Torsion [N]-C--CA-[CB] |==|  0.59926
USER: genes 21 Torsion [N]-C--CA-[N] |==|  0.29204
USER: genes 22 Torsion [C]-CA--N-[C] |==|  0.78276
USER: genes 23 Torsion [N]-C--CA-[N] |==|  0.25616
USER: genes 24 Torsion [C]-CA--CB-[CG] |==|  0.47298
USER: genes 25 Torsion [CA]-CB--CG-[CD] |==|  0.22206
USER: genes 26 Torsion [CB]-CG--CD-[OE1] |==|  0.28340
USER: genes 27 Torsion [C]-CA--N-[H1] |==|  0.17441
USER: genes 28 Torsion [C]-CA--CB-[CG] |==|  0.33481
USER: genes 29 Torsion [CA]-CB--CG-[CD2] |==|  0.85979
ROOT
ATOM      1  CA  LEU B   4      53.839  85.676  29.780  1.00 30.07 LIG 0.18  C 
ENDROOT
BRANCH 1 2
ATOM      2  C   LEU B   4      55.031  85.261  28.955  1.00 30.58 LIG 0.24  C 
ATOM      3 O    LEU B   4      56.084  84.932  29.506  1.00 35.83 LIG-0.27  OA
ATOM      4  N   VAL B   5      54.899  85.349  27.634  1.00 32.24 LIG-0.35  N 
ATOM      5 H    VAL B   5      54.175  85.599  27.244  1.00 32.24 LIG 0.16  HD
BRANCH 4 6
ATOM      6  CA  VAL B   5      55.993  85.023  26.714  1.00 32.53 LIG 0.18  C 
BRANCH 6 7
ATOM      7  CB  VAL B   5      55.474  84.369  25.421  1.00 34.70 LIG 0.01  C 
ATOM      8  CG2 VAL B   5      54.964  82.987  25.737  1.00 38.22 LIG 0.01  C 
ATOM      9  CG1 VAL B   5      56.551  84.297  24.346  1.00 39.77 LIG 0.01  C 
ENDBRANCH 6 7
BRANCH 6 10
ATOM     10  C   VAL B   5      56.764  86.262  26.349  1.00 39.16 LIG 0.24  C 
ATOM     11 O    VAL B   5      57.995  86.235  26.216  1.00 33.69 LIG-0.27  OA
ATOM     12  N   LYS B   6      56.027  87.341  26.151  1.00 40.12 LIG-0.35  N 
ATOM     13 H    LYS B   6      55.167  87.350  26.196  1.00 40.12 LIG 0.16  HD
BRANCH 12 14
ATOM     14  CA  LYS B   6      56.617  88.607  25.841  1.00 45.41 LIG 0.18  C 
BRANCH 14 15
ATOM     15  C   LYS B   6      56.706  89.279  27.194  1.00 44.99 LIG 0.24  C 
ATOM     16 O    LYS B   6      55.696  89.648  27.758  1.00 45.85 LIG-0.27  OA
ATOM     17  N   ILE B   7      57.879  89.396  27.779  1.00 47.54 LIG-0.34  N 
ATOM     18 H    ILE B   7      58.639  89.161  27.452  1.00 47.54 LIG 0.16  HD
BRANCH 17 19
ATOM     19  CA  ILE B   7      57.892  89.988  29.129  1.00 57.67 LIG 0.19  C 
BRANCH 19 20
ATOM     20  CB  ILE B   7      57.895  88.949  30.318  1.00 59.41 LIG 0.01  C 
ATOM     21  CG2 ILE B   7      56.992  87.754  30.036  1.00 60.58 LIG 0.01  C 
BRANCH 20 22
ATOM     22  CG1 ILE B   7      59.340  88.479  30.654  1.00 65.20 LIG 0.00  C 
ATOM     23  CD1 ILE B   7      59.765  88.515  32.125  1.00 51.92 LIG 0.01  C 
ENDBRANCH 20 22
ENDBRANCH 19 20
BRANCH 19 24
ATOM     24  C   ILE B   7      58.923  91.119  29.269  1.00 61.74 LIG 0.20  C 
ATOM     25 O    ILE B   7      59.705  91.217  30.202  1.00 61.53 LIG-0.65  OA
ATOM     26 OXT  ILE B   7      59.013  91.982  28.395  1.00 68.92 LIG-0.65  OA
ENDBRANCH 19 24
ENDBRANCH 17 19
ENDBRANCH 14 15
BRANCH 14 27
ATOM     27  CB  LYS B   6      55.681  89.337  24.863  1.00 46.87 LIG 0.04  C 
BRANCH 27 28
ATOM     28  CG  LYS B   6      56.141  90.722  24.451  1.00 55.56 LIG 0.00  C 
BRANCH 28 29
ATOM     29  CD  LYS B   6      57.560  90.721  23.900  1.00 60.95 LIG 0.03  C 
BRANCH 29 30
ATOM     30  CE  LYS B   6      58.570  91.210  24.945  1.00 62.93 LIG 0.23  C 
BRANCH 30 31
ATOM     31  NZ  LYS B   6      57.899  91.796  26.146  1.00 65.77 LIG-0.08  N 
ATOM     32 HZ1  LYS B   6      57.823  92.677  26.043  1.00 65.77 LIG 0.27  HD
ATOM     33 HZ2  LYS B   6      57.089  91.437  26.239  1.00 65.77 LIG 0.27  HD
ATOM     34 HZ3  LYS B   6      58.385  91.623  26.872  1.00 65.77 LIG 0.27  HD
ENDBRANCH 30 31
ENDBRANCH 29 30
ENDBRANCH 28 29
ENDBRANCH 27 28
ENDBRANCH 14 27
ENDBRANCH 12 14
ENDBRANCH 6 10
ENDBRANCH 4 6
ENDBRANCH 1 2
BRANCH 1 35
ATOM     35  CB  LEU B   4      53.863  87.189  29.864  1.00 28.63 LIG 0.04  C 
BRANCH 35 36
ATOM     36  CG  LEU B   4      53.414  87.676  31.236  1.00 30.56 LIG-0.02  C 
ATOM     37  CD2 LEU B   4      52.027  88.268  31.112  1.00 33.80 LIG 0.01  C 
ATOM     38  CD1 LEU B   4      54.411  88.739  31.724  1.00 28.87 LIG 0.01  C 
ENDBRANCH 35 36
ENDBRANCH 1 35
BRANCH 1 39
ATOM     39  N   LEU B   4      53.749  85.150  31.161  1.00 28.62 LIG-0.35  N 
ATOM     40 H    LEU B   4      54.501  85.083  31.572  1.00 28.62 LIG 0.16  HD
ATOM     41  C   PRO B   3      52.585  84.820  31.684  1.00 33.12 LIG 0.24  C 
ATOM     42 O    PRO B   3      51.491  85.130  31.179  1.00 32.36 LIG-0.27  OA
BRANCH 41 43
ATOM     43  CA  PRO B   3      52.650  84.058  33.005  1.00 33.48 LIG 0.18  C 
ATOM     44  CB  PRO B   3      51.515  83.003  33.089  1.00 32.62 LIG 0.04  C 
ATOM     45  CG  PRO B   3      50.990  83.095  34.498  1.00 32.85 LIG 0.02  C 
ATOM     46  CD  PRO B   3      51.203  84.547  34.920  1.00 29.95 LIG 0.13  C 
ATOM     47  N   PRO B   3      52.329  85.007  34.055  1.00 33.01 LIG-0.34  N 
ATOM     48  C   LEU B   2      53.101  86.111  34.166  1.00 31.97 LIG 0.24  C 
ATOM     49 O    LEU B   2      54.139  86.296  33.523  1.00 33.64 LIG-0.27  OA
BRANCH 48 50
ATOM     50  CA  LEU B   2      52.678  87.139  35.190  1.00 32.67 LIG 0.18  C 
BRANCH 50 51
ATOM     51  N   LEU B   2      53.611  86.992  36.301  1.00 33.85 LIG-0.35  N 
ATOM     52 H    LEU B   2      54.226  87.594  36.315  1.00 33.85 LIG 0.16  HD
ATOM     53  C   GLU B   1      53.526  86.024  37.207  1.00 36.42 LIG 0.25  C 
ATOM     54 O    GLU B   1      52.502  85.335  37.343  1.00 32.31 LIG-0.27  OA
BRANCH 53 55
ATOM     55  CA  GLU B   1      54.731  85.875  38.164  1.00 35.71 LIG 0.28  C 
BRANCH 55 56
ATOM     56  CB  GLU B   1      54.903  84.391  38.506  1.00 39.23 LIG 0.05  C 
BRANCH 56 57
ATOM     57  CG  GLU B   1      56.205  84.103  39.254  1.00 48.64 LIG 0.12  C 
BRANCH 57 58
ATOM     58  CD  GLU B   1      56.184  84.414  40.757  1.00 56.94 LIG 0.17  C 
ATOM     59 OE1  GLU B   1      56.054  83.447  41.526  1.00 65.53 LIG-0.65  OA
ATOM     60 OE2  GLU B   1      56.275  85.597  41.191  1.00 53.19 LIG-0.65  OA
ENDBRANCH 57 58
ENDBRANCH 56 57
ENDBRANCH 55 56
BRANCH 55 61
ATOM     61  N   GLU B   1      54.543  86.668  39.427  1.00 36.67 LIG-0.07  N 
ATOM     62 H1   GLU B   1      53.836  86.357  39.871  1.00 36.67 LIG 0.28  HD
ATOM     63 H3   GLU B   1      54.411  87.524  39.224  1.00 36.67 LIG 0.28  HD
ATOM     64 H2   GLU B   1      55.269  86.593  39.935  1.00 36.67 LIG 0.28  HD
ENDBRANCH 55 61
ENDBRANCH 53 55
ENDBRANCH 50 51
BRANCH 50 65
ATOM     65  CB  LEU B   2      52.723  88.553  34.555  1.00 34.84 LIG 0.04  C 
BRANCH 65 66
ATOM     66  CG  LEU B   2      51.403  89.341  34.531  1.00 34.30 LIG-0.02  C 
ATOM     67  CD2 LEU B   2      50.249  88.507  33.948  1.00 39.39 LIG 0.01  C 
ATOM     68  CD1 LEU B   2      51.523  90.676  33.794  1.00 34.61 LIG 0.01  C 
ENDBRANCH 65 66
ENDBRANCH 50 65
ENDBRANCH 48 50
ENDBRANCH 41 43
ENDBRANCH 1 39
TORSDOF 28
ENDMDL
MODEL 42
USER: ADFR SOLUTION from run 98
USER: SCORE 24.529736 LL:  -6.628 LR: -18.584 RR:   0.000 FEB: -10.231
USER: RMSD 11.785343
USER: SEED 97
USER: STATUS searching
USER: GENES 30
USER: genes 0 Translation |==|  0.56736 0.58777 0.48245
USER: genes 1 Rotation |==|  0.12283 0.42187 0.19315 0.58648
USER: genes 2 Torsion [N]-CA--C-[N] |==|  0.95445
USER: genes 3 Torsion [C]-N--CA-[C] |==|  0.86996
USER: genes 4 Torsion [N]-CA--CB-[CG2] |==|  0.88874
USER: genes 5 Torsion [N]-CA--C-[N] |==|  0.33889
USER: genes 6 Torsion [C]-N--CA-[C] |==|  0.80338
USER: genes 7 Torsion [N]-CA--C-[N] |==|  0.41325
USER: genes 8 Torsion [C]-N--CA-[CB] |==|  0.81527
USER: genes 9 Torsion [N]-CA--CB-[CG1] |==|  0.28460
USER: genes 10 Torsion [CA]-CB--CG1-[CD1] |==|  0.67011
USER: genes 11 Torsion [N]-CA--C-[OXT] |==|  0.98254
USER: genes 12 Torsion [N]-CA--CB-[CG] |==|  0.13821
USER: genes 13 Torsion [CA]-CB--CG-[CD] |==|  0.35590
USER: genes 14 Torsion [CB]-CG--CD-[CE] |==|  0.11098
USER: genes 15 Torsion [CG]-CD--CE-[NZ] |==|  0.71513
USER: genes 16 Torsion [CD]-CE--NZ-[HZ1] |==|  0.11871
USER: genes 17 Torsion [C]-CA--CB-[CG] |==|  0.50852
USER: genes 18 Torsion [CA]-CB--CG-[CD2] |==|  0.62285
USER: genes 19 Torsion [C]-CA--N-[C] |==|  0.83883
USER: genes 20 Torsion [N]-C--CA-[CB] |==|  0.66393
USER: genes 21 Torsion [N]-C--CA-[N] |==|  0.15842
USER: genes 22 Torsion [C]-CA--N-[C] |==|  0.15856
USER: genes 23 Torsion [N]-C--CA-[N] |==|  0.03906
USER: genes 24 Torsion [C]-CA--CB-[CG] |==|  0.55928
USER: genes 25 Torsion [CA]-CB--CG-[CD] |==|  0.26760
USER: genes 26 Torsion [CB]-CG--CD-[OE1] |==|  0.77915
USER: genes 27 Torsion [C]-CA--N-[H1] |==|  0.52107
USER: genes 28 Torsion [C]-CA--CB-[CG] |==|  0.35044
USER: genes 29 Torsion [CA]-CB--CG-[CD2] |==|  0.22474
ROOT
ATOM      1  CA  LEU B   4      57.054  88.301  30.198  1.00 30.07 LIG 0.18  C 
ENDROOT
BRANCH 1 2
ATOM      2  C   LEU B   4      57.063  88.393  28.694  1.00 30.58 LIG 0.24  C 
ATOM      3 O    LEU B   4      57.451  89.422  28.136  1.00 35.83 LIG-0.27  OA
ATOM      4  N   VAL B   5      56.563  87.353  28.032  1.00 32.24 LIG-0.35  N 
ATOM      5 H    VAL B   5      56.270  86.641  28.415  1.00 32.24 LIG 0.16  HD
BRANCH 4 6
ATOM      6  CA  VAL B   5      56.467  87.328  26.569  1.00 32.53 LIG 0.18  C 
BRANCH 6 7
ATOM      7  CB  VAL B   5      55.592  86.161  26.075  1.00 34.70 LIG 0.01  C 
ATOM      8  CG2 VAL B   5      55.883  84.940  26.909  1.00 38.22 LIG 0.01  C 
ATOM      9  CG1 VAL B   5      55.826  85.858  24.600  1.00 39.77 LIG 0.01  C 
ENDBRANCH 6 7
BRANCH 6 10
ATOM     10  C   VAL B   5      55.883  88.616  26.055  1.00 39.16 LIG 0.24  C 
ATOM     11 O    VAL B   5      54.782  89.022  26.448  1.00 33.69 LIG-0.27  OA
ATOM     12  N   LYS B   6      56.648  89.275  25.201  1.00 40.12 LIG-0.35  N 
ATOM     13 H    LYS B   6      57.435  89.019  24.964  1.00 40.12 LIG 0.16  HD
BRANCH 12 14
ATOM     14  CA  LYS B   6      56.213  90.494  24.591  1.00 45.41 LIG 0.18  C 
BRANCH 14 15
ATOM     15  C   LYS B   6      55.137  90.028  23.634  1.00 44.99 LIG 0.24  C 
ATOM     16 O    LYS B   6      55.178  88.908  23.170  1.00 45.85 LIG-0.27  OA
ATOM     17  N   ILE B   7      54.125  90.826  23.367  1.00 47.54 LIG-0.34  N 
ATOM     18 H    ILE B   7      54.018  91.630  23.653  1.00 47.54 LIG 0.16  HD
BRANCH 17 19
ATOM     19  CA  ILE B   7      53.069  90.288  22.491  1.00 57.67 LIG 0.19  C 
BRANCH 19 20
ATOM     20  CB  ILE B   7      53.510  90.009  21.000  1.00 59.41 LIG 0.01  C 
ATOM     21  CG2 ILE B   7      54.738  90.822  20.606  1.00 60.58 LIG 0.01  C 
BRANCH 20 22
ATOM     22  CG1 ILE B   7      53.754  88.492  20.757  1.00 65.20 LIG 0.00  C 
ATOM     23  CD1 ILE B   7      55.164  88.067  20.338  1.00 51.92 LIG 0.01  C 
ENDBRANCH 20 22
ENDBRANCH 19 20
BRANCH 19 24
ATOM     24  C   ILE B   7      52.283  89.142  23.146  1.00 61.74 LIG 0.20  C 
ATOM     25 O    ILE B   7      51.310  88.605  22.639  1.00 61.53 LIG-0.65  OA
ATOM     26 OXT  ILE B   7      52.639  88.695  24.237  1.00 68.92 LIG-0.65  OA
ENDBRANCH 19 24
ENDBRANCH 17 19
ENDBRANCH 14 15
BRANCH 14 27
ATOM     27  CB  LYS B   6      57.424  91.124  23.880  1.00 46.87 LIG 0.04  C 
BRANCH 27 28
ATOM     28  CG  LYS B   6      58.194  90.182  22.974  1.00 55.56 LIG 0.00  C 
BRANCH 28 29
ATOM     29  CD  LYS B   6      58.388  90.754  21.576  1.00 60.95 LIG 0.03  C 
BRANCH 29 30
ATOM     30  CE  LYS B   6      58.703  92.254  21.620  1.00 62.93 LIG 0.23  C 
BRANCH 30 31
ATOM     31  NZ  LYS B   6      57.514  93.090  21.267  1.00 65.77 LIG-0.08  N 
ATOM     32 HZ1  LYS B   6      56.790  92.761  21.667  1.00 65.77 LIG 0.27  HD
ATOM     33 HZ2  LYS B   6      57.648  93.927  21.538  1.00 65.77 LIG 0.27  HD
ATOM     34 HZ3  LYS B   6      57.396  93.080  20.384  1.00 65.77 LIG 0.27  HD
ENDBRANCH 30 31
ENDBRANCH 29 30
ENDBRANCH 28 29
ENDBRANCH 27 28
ENDBRANCH 14 27
ENDBRANCH 12 14
ENDBRANCH 6 10
ENDBRANCH 4 6
ENDBRANCH 1 2
BRANCH 1 35
ATOM     35  CB  LEU B   4      58.476  88.016  30.634  1.00 28.63 LIG 0.04  C 
BRANCH 35 36
ATOM     36  CG  LEU B   4      58.567  87.828  32.144  1.00 30.56 LIG-0.02  C 
ATOM     37  CD2 LEU B   4      59.769  88.591  32.658  1.00 33.80 LIG 0.01  C 
ATOM     38  CD1 LEU B   4      58.716  86.326  32.438  1.00 28.87 LIG 0.01  C 
ENDBRANCH 35 36
ENDBRANCH 1 35
BRANCH 1 39
ATOM     39  N   LEU B   4      56.180  87.275  30.814  1.00 28.62 LIG-0.35  N 
ATOM     40 H    LEU B   4      56.588  86.708  31.315  1.00 28.62 LIG 0.16  HD
ATOM     41  C   PRO B   3      54.882  87.267  30.584  1.00 33.12 LIG 0.24  C 
ATOM     42 O    PRO B   3      54.271  88.211  30.053  1.00 32.36 LIG-0.27  OA
BRANCH 41 43
ATOM     43  CA  PRO B   3      54.139  86.023  31.063  1.00 33.48 LIG 0.18  C 
ATOM     44  CB  PRO B   3      53.428  85.317  29.878  1.00 32.62 LIG 0.04  C 
ATOM     45  CG  PRO B   3      52.076  84.916  30.407  1.00 32.85 LIG 0.02  C 
ATOM     46  CD  PRO B   3      51.723  85.962  31.462  1.00 29.95 LIG 0.13  C 
ATOM     47  N   PRO B   3      53.049  86.481  31.906  1.00 33.01 LIG-0.34  N 
ATOM     48  C   LEU B   2      53.360  87.229  32.988  1.00 31.97 LIG 0.24  C 
ATOM     49 O    LEU B   2      54.514  87.432  33.380  1.00 33.64 LIG-0.27  OA
BRANCH 48 50
ATOM     50  CA  LEU B   2      52.205  87.790  33.784  1.00 32.67 LIG 0.18  C 
BRANCH 50 51
ATOM     51  N   LEU B   2      51.405  86.637  34.181  1.00 33.85 LIG-0.35  N 
ATOM     52 H    LEU B   2      50.587  86.682  33.921  1.00 33.85 LIG 0.16  HD
ATOM     53  C   GLU B   1      51.889  85.614  34.877  1.00 36.42 LIG 0.25  C 
ATOM     54 O    GLU B   1      53.109  85.424  35.010  1.00 32.31 LIG-0.27  OA
BRANCH 53 55
ATOM     55  CA  GLU B   1      50.852  84.604  35.417  1.00 35.71 LIG 0.28  C 
BRANCH 55 56
ATOM     56  CB  GLU B   1      51.367  83.184  35.153  1.00 39.23 LIG 0.05  C 
BRANCH 56 57
ATOM     57  CG  GLU B   1      50.252  82.139  35.156  1.00 48.64 LIG 0.12  C 
BRANCH 57 58
ATOM     58  CD  GLU B   1      49.695  81.766  33.775  1.00 56.94 LIG 0.17  C 
ATOM     59 OE1  GLU B   1      48.876  82.553  33.271  1.00 65.53 LIG-0.65  OA
ATOM     60 OE2  GLU B   1      50.037  80.701  33.187  1.00 53.19 LIG-0.65  OA
ENDBRANCH 57 58
ENDBRANCH 56 57
ENDBRANCH 55 56
BRANCH 55 61
ATOM     61  N   GLU B   1      49.507  84.783  34.770  1.00 36.67 LIG-0.07  N 
ATOM     62 H1   GLU B   1      48.909  84.265  35.178  1.00 36.67 LIG 0.28  HD
ATOM     63 H3   GLU B   1      49.558  84.556  33.910  1.00 36.67 LIG 0.28  HD
ATOM     64 H2   GLU B   1      49.256  85.635  34.837  1.00 36.67 LIG 0.28  HD
ENDBRANCH 55 61
ENDBRANCH 53 55
ENDBRANCH 50 51
BRANCH 50 65
ATOM     65  CB  LEU B   2      52.750  88.585  34.999  1.00 34.84 LIG 0.04  C 
BRANCH 65 66
ATOM     66  CG  LEU B   2      52.258  90.034  35.152  1.00 34.30 LIG-0.02  C 
ATOM     67  CD2 LEU B   2      50.866  90.101  35.803  1.00 39.39 LIG 0.01  C 
ATOM     68  CD1 LEU B   2      52.268  90.805  33.830  1.00 34.61 LIG 0.01  C 
ENDBRANCH 65 66
ENDBRANCH 50 65
ENDBRANCH 48 50
ENDBRANCH 41 43
ENDBRANCH 1 39
TORSDOF 28
ENDMDL
MODEL 43
USER: ADFR SOLUTION from run 55
USER: SCORE 24.909120 LL:  -6.908 LR: -18.552 RR:   0.000 FEB: -10.200
USER: RMSD 4.382656
USER: SEED 54
USER: STATUS searching
USER: GENES 30
USER: genes 0 Translation |==|  0.56081 0.55372 0.46557
USER: genes 1 Rotation |==|  0.35217 0.70899 0.58426 0.92115
USER: genes 2 Torsion [N]-CA--C-[N] |==|  0.92325
USER: genes 3 Torsion [C]-N--CA-[C] |==|  0.77811
USER: genes 4 Torsion [N]-CA--CB-[CG2] |==|  0.57457
USER: genes 5 Torsion [N]-CA--C-[N] |==|  0.44008
USER: genes 6 Torsion [C]-N--CA-[C] |==|  0.82761
USER: genes 7 Torsion [N]-CA--C-[N] |==|  0.34548
USER: genes 8 Torsion [C]-N--CA-[CB] |==|  0.20654
USER: genes 9 Torsion [N]-CA--CB-[CG1] |==|  0.45668
USER: genes 10 Torsion [CA]-CB--CG1-[CD1] |==|  0.24832
USER: genes 11 Torsion [N]-CA--C-[OXT] |==|  0.81690
USER: genes 12 Torsion [N]-CA--CB-[CG] |==|  0.93298
USER: genes 13 Torsion [CA]-CB--CG-[CD] |==|  0.34383
USER: genes 14 Torsion [CB]-CG--CD-[CE] |==|  0.61670
USER: genes 15 Torsion [CG]-CD--CE-[NZ] |==|  0.71529
USER: genes 16 Torsion [CD]-CE--NZ-[HZ1] |==|  0.40522
USER: genes 17 Torsion [C]-CA--CB-[CG] |==|  0.16218
USER: genes 18 Torsion [CA]-CB--CG-[CD2] |==|  0.47175
USER: genes 19 Torsion [C]-CA--N-[C] |==|  0.68298
USER: genes 20 Torsion [N]-C--CA-[CB] |==|  0.56405
USER: genes 21 Torsion [N]-C--CA-[N] |==|  0.87837
USER: genes 22 Torsion [C]-CA--N-[C] |==|  0.86111
USER: genes 23 Torsion [N]-C--CA-[N] |==|  0.65646
USER: genes 24 Torsion [C]-CA--CB-[CG] |==|  0.40379
USER: genes 25 Torsion [CA]-CB--CG-[CD] |==|  0.00375
USER: genes 26 Torsion [CB]-CG--CD-[OE1] |==|  0.65907
USER: genes 27 Torsion [C]-CA--N-[H1] |==|  0.68830
USER: genes 28 Torsion [C]-CA--CB-[CG] |==|  0.23470
USER: genes 29 Torsion [CA]-CB--CG-[CD2] |==|  0.01750
ROOT
ATOM      1  CA  LEU B   4      56.916  87.535  29.768  1.00 30.07 LIG 0.18  C 
ENDROOT
BRANCH 1 2
ATOM      2  C   LEU B   4      56.229  87.712  31.098  1.00 30.58 LIG 0.24  C 
ATOM      3 O    LEU B   4      56.850  87.530  32.148  1.00 35.83 LIG-0.27  OA
ATOM      4  N   VAL B   5      54.928  87.990  31.063  1.00 32.24 LIG-0.35  N 
ATOM      5 H    VAL B   5      54.484  88.096  30.334  1.00 32.24 LIG 0.16  HD
BRANCH 4 6
ATOM      6  CA  VAL B   5      54.126  88.141  32.281  1.00 32.53 LIG 0.18  C 
BRANCH 6 7
ATOM      7  CB  VAL B   5      52.838  88.943  32.019  1.00 34.70 LIG 0.01  C 
ATOM      8  CG2 VAL B   5      52.412  89.623  33.294  1.00 38.22 LIG 0.01  C 
ATOM      9  CG1 VAL B   5      51.713  88.059  31.495  1.00 39.77 LIG 0.01  C 
ENDBRANCH 6 7
BRANCH 6 10
ATOM     10  C   VAL B   5      53.749  86.795  32.836  1.00 39.16 LIG 0.24  C 
ATOM     11 O    VAL B   5      53.777  85.779  32.130  1.00 33.69 LIG-0.27  OA
ATOM     12  N   LYS B   6      53.430  86.790  34.120  1.00 40.12 LIG-0.35  N 
ATOM     13 H    LYS B   6      53.457  87.486  34.624  1.00 40.12 LIG 0.16  HD
BRANCH 12 14
ATOM     14  CA  LYS B   6      53.006  85.594  34.783  1.00 45.41 LIG 0.18  C 
BRANCH 14 15
ATOM     15  C   LYS B   6      51.738  85.229  34.042  1.00 44.99 LIG 0.24  C 
ATOM     16 O    LYS B   6      50.857  86.051  33.900  1.00 45.85 LIG-0.27  OA
ATOM     17  N   ILE B   7      51.633  84.035  33.497  1.00 47.54 LIG-0.34  N 
ATOM     18 H    ILE B   7      52.207  83.397  33.547  1.00 47.54 LIG 0.16  HD
BRANCH 17 19
ATOM     19  CA  ILE B   7      50.408  83.765  32.722  1.00 57.67 LIG 0.19  C 
BRANCH 19 20
ATOM     20  CB  ILE B   7      50.340  84.463  31.308  1.00 59.41 LIG 0.01  C 
ATOM     21  CG2 ILE B   7      51.686  84.439  30.592  1.00 60.58 LIG 0.01  C 
BRANCH 20 22
ATOM     22  CG1 ILE B   7      49.232  83.829  30.417  1.00 65.20 LIG 0.00  C 
ATOM     23  CD1 ILE B   7      47.827  84.429  30.512  1.00 51.92 LIG 0.01  C 
ENDBRANCH 20 22
ENDBRANCH 19 20
BRANCH 19 24
ATOM     24  C   ILE B   7      50.029  82.276  32.716  1.00 61.74 LIG 0.20  C 
ATOM     25 O    ILE B   7      49.009  81.831  33.219  1.00 61.53 LIG-0.65  OA
ATOM     26 OXT  ILE B   7      50.760  81.456  32.159  1.00 68.92 LIG-0.65  OA
ENDBRANCH 19 24
ENDBRANCH 17 19
ENDBRANCH 14 15
BRANCH 14 27
ATOM     27  CB  LYS B   6      52.765  85.935  36.263  1.00 46.87 LIG 0.04  C 
BRANCH 27 28
ATOM     28  CG  LYS B   6      53.527  87.143  36.773  1.00 55.56 LIG 0.00  C 
BRANCH 28 29
ATOM     29  CD  LYS B   6      52.607  88.198  37.371  1.00 60.95 LIG 0.03  C 
BRANCH 29 30
ATOM     30  CE  LYS B   6      53.024  89.613  36.950  1.00 62.93 LIG 0.23  C 
BRANCH 30 31
ATOM     31  NZ  LYS B   6      53.753  90.333  38.039  1.00 65.77 LIG-0.08  N 
ATOM     32 HZ1  LYS B   6      54.373  90.863  37.682  1.00 65.77 LIG 0.27  HD
ATOM     33 HZ2  LYS B   6      53.178  90.824  38.508  1.00 65.77 LIG 0.27  HD
ATOM     34 HZ3  LYS B   6      54.144  89.740  38.577  1.00 65.77 LIG 0.27  HD
ENDBRANCH 30 31
ENDBRANCH 29 30
ENDBRANCH 28 29
ENDBRANCH 27 28
ENDBRANCH 14 27
ENDBRANCH 12 14
ENDBRANCH 6 10
ENDBRANCH 4 6
ENDBRANCH 1 2
BRANCH 1 35
ATOM     35  CB  LEU B   4      57.498  88.880  29.386  1.00 28.63 LIG 0.04  C 
BRANCH 35 36
ATOM     36  CG  LEU B   4      58.473  89.383  30.444  1.00 30.56 LIG-0.02  C 
ATOM     37  CD2 LEU B   4      59.203  90.591  29.898  1.00 33.80 LIG 0.01  C 
ATOM     38  CD1 LEU B   4      59.465  88.254  30.767  1.00 28.87 LIG 0.01  C 
ENDBRANCH 35 36
ENDBRANCH 1 35
BRANCH 1 39
ATOM     39  N   LEU B   4      56.092  87.062  28.632  1.00 28.62 LIG-0.35  N 
ATOM     40 H    LEU B   4      55.481  87.611  28.377  1.00 28.62 LIG 0.16  HD
ATOM     41  C   PRO B   3      56.309  85.883  28.084  1.00 33.12 LIG 0.24  C 
ATOM     42 O    PRO B   3      57.326  85.200  28.300  1.00 32.36 LIG-0.27  OA
BRANCH 41 43
ATOM     43  CA  PRO B   3      55.240  85.409  27.102  1.00 33.48 LIG 0.18  C 
ATOM     44  CB  PRO B   3      55.264  83.862  26.969  1.00 32.62 LIG 0.04  C 
ATOM     45  CG  PRO B   3      55.092  83.588  25.498  1.00 32.85 LIG 0.02  C 
ATOM     46  CD  PRO B   3      55.718  84.783  24.783  1.00 29.95 LIG 0.13  C 
ATOM     47  N   PRO B   3      55.634  85.882  25.788  1.00 33.01 LIG-0.34  N 
ATOM     48  C   LEU B   2      55.799  87.213  25.621  1.00 31.97 LIG 0.24  C 
ATOM     49 O    LEU B   2      55.505  88.059  26.472  1.00 33.64 LIG-0.27  OA
BRANCH 48 50
ATOM     50  CA  LEU B   2      56.321  87.673  24.279  1.00 32.67 LIG 0.18  C 
BRANCH 50 51
ATOM     51  N   LEU B   2      57.406  86.758  23.945  1.00 33.85 LIG-0.35  N 
ATOM     52 H    LEU B   2      57.344  86.426  23.154  1.00 33.85 LIG 0.16  HD
ATOM     53  C   GLU B   1      58.397  86.460  24.779  1.00 36.42 LIG 0.25  C 
ATOM     54 O    GLU B   1      58.630  87.136  25.795  1.00 32.31 LIG-0.27  OA
BRANCH 53 55
ATOM     55  CA  GLU B   1      59.318  85.294  24.358  1.00 35.71 LIG 0.28  C 
BRANCH 55 56
ATOM     56  CB  GLU B   1      58.794  84.706  23.043  1.00 39.23 LIG 0.05  C 
BRANCH 56 57
ATOM     57  CG  GLU B   1      59.913  84.216  22.125  1.00 48.64 LIG 0.12  C 
BRANCH 57 58
ATOM     58  CD  GLU B   1      61.335  84.366  22.681  1.00 56.94 LIG 0.17  C 
ATOM     59 OE1  GLU B   1      62.135  85.029  22.001  1.00 65.53 LIG-0.65  OA
ATOM     60 OE2  GLU B   1      61.682  83.825  23.770  1.00 53.19 LIG-0.65  OA
ENDBRANCH 57 58
ENDBRANCH 56 57
ENDBRANCH 55 56
BRANCH 55 61
ATOM     61  N   GLU B   1      59.375  84.219  25.407  1.00 36.67 LIG-0.07  N 
ATOM     62 H1   GLU B   1      60.189  84.196  25.766  1.00 36.67 LIG 0.28  HD
ATOM     63 H3   GLU B   1      59.193  83.431  25.035  1.00 36.67 LIG 0.28  HD
ATOM     64 H2   GLU B   1      58.775  84.392  26.042  1.00 36.67 LIG 0.28  HD
ENDBRANCH 55 61
ENDBRANCH 53 55
ENDBRANCH 50 51
BRANCH 50 65
ATOM     65  CB  LEU B   2      55.172  87.642  23.237  1.00 34.84 LIG 0.04  C 
BRANCH 65 66
ATOM     66  CG  LEU B   2      54.256  88.877  23.185  1.00 34.30 LIG-0.02  C 
ATOM     67  CD2 LEU B   2      54.762  90.005  24.101  1.00 39.39 LIG 0.01  C 
ATOM     68  CD1 LEU B   2      52.796  88.544  23.501  1.00 34.61 LIG 0.01  C 
ENDBRANCH 65 66
ENDBRANCH 50 65
ENDBRANCH 48 50
ENDBRANCH 41 43
ENDBRANCH 1 39
TORSDOF 28
ENDMDL
MODEL 44
USER: ADFR SOLUTION from run 98
USER: SCORE 24.615882 LL:  -6.337 LR: -18.549 RR:   0.000 FEB: -10.196
USER: RMSD 12.260188
USER: SEED 97
USER: STATUS searching
USER: GENES 30
USER: genes 0 Translation |==|  0.57534 0.59200 0.47838
USER: genes 1 Rotation |==|  0.11566 0.42995 0.19459 0.56402
USER: genes 2 Torsion [N]-CA--C-[N] |==|  0.96545
USER: genes 3 Torsion [C]-N--CA-[C] |==|  0.85714
USER: genes 4 Torsion [N]-CA--CB-[CG2] |==|  0.88803
USER: genes 5 Torsion [N]-CA--C-[N] |==|  0.35050
USER: genes 6 Torsion [C]-N--CA-[C] |==|  0.79713
USER: genes 7 Torsion [N]-CA--C-[N] |==|  0.40255
USER: genes 8 Torsion [C]-N--CA-[CB] |==|  0.80906
USER: genes 9 Torsion [N]-CA--CB-[CG1] |==|  0.28077
USER: genes 10 Torsion [CA]-CB--CG1-[CD1] |==|  0.60384
USER: genes 11 Torsion [N]-CA--C-[OXT] |==|  0.98399
USER: genes 12 Torsion [N]-CA--CB-[CG] |==|  0.20032
USER: genes 13 Torsion [CA]-CB--CG-[CD] |==|  0.36948
USER: genes 14 Torsion [CB]-CG--CD-[CE] |==|  0.00319
USER: genes 15 Torsion [CG]-CD--CE-[NZ] |==|  0.70777
USER: genes 16 Torsion [CD]-CE--NZ-[HZ1] |==|  0.15954
USER: genes 17 Torsion [C]-CA--CB-[CG] |==|  0.51156
USER: genes 18 Torsion [CA]-CB--CG-[CD2] |==|  0.62489
USER: genes 19 Torsion [C]-CA--N-[C] |==|  0.83333
USER: genes 20 Torsion [N]-C--CA-[CB] |==|  0.71597
USER: genes 21 Torsion [N]-C--CA-[N] |==|  0.44140
USER: genes 22 Torsion [C]-CA--N-[C] |==|  0.78808
USER: genes 23 Torsion [N]-C--CA-[N] |==|  0.68435
USER: genes 24 Torsion [C]-CA--CB-[CG] |==|  0.17729
USER: genes 25 Torsion [CA]-CB--CG-[CD] |==|  0.54915
USER: genes 26 Torsion [CB]-CG--CD-[OE1] |==|  0.24715
USER: genes 27 Torsion [C]-CA--N-[H1] |==|  0.60176
USER: genes 28 Torsion [C]-CA--CB-[CG] |==|  0.32775
USER: genes 29 Torsion [CA]-CB--CG-[CD2] |==|  0.38454
ROOT
ATOM      1  CA  LEU B   4      57.221  88.396  30.095  1.00 30.07 LIG 0.18  C 
ENDROOT
BRANCH 1 2
ATOM      2  C   LEU B   4      57.214  88.407  28.588  1.00 30.58 LIG 0.24  C 
ATOM      3 O    LEU B   4      57.742  89.335  27.970  1.00 35.83 LIG-0.27  OA
ATOM      4  N   VAL B   5      56.550  87.421  27.989  1.00 32.24 LIG-0.35  N 
ATOM      5 H    VAL B   5      56.161  86.783  28.414  1.00 32.24 LIG 0.16  HD
BRANCH 4 6
ATOM      6  CA  VAL B   5      56.422  87.335  26.531  1.00 32.53 LIG 0.18  C 
BRANCH 6 7
ATOM      7  CB  VAL B   5      55.456  86.213  26.109  1.00 34.70 LIG 0.01  C 
ATOM      8  CG2 VAL B   5      55.681  85.012  26.991  1.00 38.22 LIG 0.01  C 
ATOM      9  CG1 VAL B   5      55.633  85.829  24.645  1.00 39.77 LIG 0.01  C 
ENDBRANCH 6 7
BRANCH 6 10
ATOM     10  C   VAL B   5      55.921  88.636  25.966  1.00 39.16 LIG 0.24  C 
ATOM     11 O    VAL B   5      54.900  89.178  26.410  1.00 33.69 LIG-0.27  OA
ATOM     12  N   LYS B   6      56.669  89.154  25.006  1.00 40.12 LIG-0.35  N 
ATOM     13 H    LYS B   6      57.405  88.804  24.729  1.00 40.12 LIG 0.16  HD
BRANCH 12 14
ATOM     14  CA  LYS B   6      56.301  90.366  24.339  1.00 45.41 LIG 0.18  C 
BRANCH 14 15
ATOM     15  C   LYS B   6      55.145  89.932  23.464  1.00 44.99 LIG 0.24  C 
ATOM     16 O    LYS B   6      55.110  88.805  23.015  1.00 45.85 LIG-0.27  OA
ATOM     17  N   ILE B   7      54.148  90.766  23.256  1.00 47.54 LIG-0.34  N 
ATOM     18 H    ILE B   7      54.093  91.577  23.536  1.00 47.54 LIG 0.16  HD
BRANCH 17 19
ATOM     19  CA  ILE B   7      53.014  90.260  22.461  1.00 57.67 LIG 0.19  C 
BRANCH 19 20
ATOM     20  CB  ILE B   7      53.327  89.999  20.935  1.00 59.41 LIG 0.01  C 
ATOM     21  CG2 ILE B   7      54.512  90.823  20.444  1.00 60.58 LIG 0.01  C 
BRANCH 20 22
ATOM     22  CG1 ILE B   7      53.557  88.485  20.657  1.00 65.20 LIG 0.00  C 
ATOM     23  CD1 ILE B   7      54.635  88.117  19.634  1.00 51.92 LIG 0.01  C 
ENDBRANCH 20 22
ENDBRANCH 19 20
BRANCH 19 24
ATOM     24  C   ILE B   7      52.264  89.118  23.162  1.00 61.74 LIG 0.20  C 
ATOM     25 O    ILE B   7      51.249  88.599  22.723  1.00 61.53 LIG-0.65  OA
ATOM     26 OXT  ILE B   7      52.695  88.653  24.217  1.00 68.92 LIG-0.65  OA
ENDBRANCH 19 24
ENDBRANCH 17 19
ENDBRANCH 14 15
BRANCH 14 27
ATOM     27  CB  LYS B   6      57.520  90.849  23.534  1.00 46.87 LIG 0.04  C 
BRANCH 27 28
ATOM     28  CG  LYS B   6      57.841  90.025  22.302  1.00 55.56 LIG 0.00  C 
BRANCH 28 29
ATOM     29  CD  LYS B   6      58.095  90.891  21.076  1.00 60.95 LIG 0.03  C 
BRANCH 29 30
ATOM     30  CE  LYS B   6      57.988  92.384  21.410  1.00 62.93 LIG 0.23  C 
BRANCH 30 31
ATOM     31  NZ  LYS B   6      56.719  92.987  20.896  1.00 65.77 LIG-0.08  N 
ATOM     32 HZ1  LYS B   6      56.023  92.547  21.234  1.00 65.77 LIG 0.27  HD
ATOM     33 HZ2  LYS B   6      56.676  93.842  21.140  1.00 65.77 LIG 0.27  HD
ATOM     34 HZ3  LYS B   6      56.703  92.931  20.008  1.00 65.77 LIG 0.27  HD
ENDBRANCH 30 31
ENDBRANCH 29 30
ENDBRANCH 28 29
ENDBRANCH 27 28
ENDBRANCH 14 27
ENDBRANCH 12 14
ENDBRANCH 6 10
ENDBRANCH 4 6
ENDBRANCH 1 2
BRANCH 1 35
ATOM     35  CB  LEU B   4      58.622  88.017  30.529  1.00 28.63 LIG 0.04  C 
BRANCH 35 36
ATOM     36  CG  LEU B   4      58.714  87.877  32.044  1.00 30.56 LIG-0.02  C 
ATOM     37  CD2 LEU B   4      59.968  88.577  32.522  1.00 33.80 LIG 0.01  C 
ATOM     38  CD1 LEU B   4      58.768  86.379  32.390  1.00 28.87 LIG 0.01  C 
ENDBRANCH 35 36
ENDBRANCH 1 35
BRANCH 1 39
ATOM     39  N   LEU B   4      56.276  87.481  30.774  1.00 28.62 LIG-0.35  N 
ATOM     40 H    LEU B   4      56.645  86.892  31.281  1.00 28.62 LIG 0.16  HD
ATOM     41  C   PRO B   3      54.976  87.594  30.591  1.00 33.12 LIG 0.24  C 
ATOM     42 O    PRO B   3      54.440  88.577  30.049  1.00 32.36 LIG-0.27  OA
BRANCH 41 43
ATOM     43  CA  PRO B   3      54.133  86.444  31.137  1.00 33.48 LIG 0.18  C 
ATOM     44  CB  PRO B   3      53.691  85.493  29.992  1.00 32.62 LIG 0.04  C 
ATOM     45  CG  PRO B   3      52.252  85.159  30.286  1.00 32.85 LIG 0.02  C 
ATOM     46  CD  PRO B   3      51.688  86.381  31.008  1.00 29.95 LIG 0.13  C 
ATOM     47  N   PRO B   3      52.890  87.022  31.615  1.00 33.01 LIG-0.34  N 
ATOM     48  C   LEU B   2      52.965  87.979  32.566  1.00 31.97 LIG 0.24  C 
ATOM     49 O    LEU B   2      54.007  88.295  33.149  1.00 33.64 LIG-0.27  OA
BRANCH 48 50
ATOM     50  CA  LEU B   2      51.669  88.647  32.965  1.00 32.67 LIG 0.18  C 
BRANCH 50 51
ATOM     51  N   LEU B   2      51.912  89.218  34.285  1.00 33.85 LIG-0.35  N 
ATOM     52 H    LEU B   2      52.031  90.070  34.274  1.00 33.85 LIG 0.16  HD
ATOM     53  C   GLU B   1      51.949  88.496  35.400  1.00 36.42 LIG 0.25  C 
ATOM     54 O    GLU B   1      51.513  87.334  35.449  1.00 32.31 LIG-0.27  OA
BRANCH 53 55
ATOM     55  CA  GLU B   1      52.459  89.221  36.666  1.00 35.71 LIG 0.28  C 
BRANCH 55 56
ATOM     56  CB  GLU B   1      52.631  90.709  36.343  1.00 39.23 LIG 0.05  C 
BRANCH 56 57
ATOM     57  CG  GLU B   1      51.312  91.397  35.994  1.00 48.64 LIG 0.12  C 
BRANCH 57 58
ATOM     58  CD  GLU B   1      51.442  92.740  35.262  1.00 56.94 LIG 0.17  C 
ATOM     59 OE1  GLU B   1      51.492  92.698  34.021  1.00 65.53 LIG-0.65  OA
ATOM     60 OE2  GLU B   1      51.514  93.833  35.890  1.00 53.19 LIG-0.65  OA
ENDBRANCH 57 58
ENDBRANCH 56 57
ENDBRANCH 55 56
BRANCH 55 61
ATOM     61  N   GLU B   1      53.764  88.652  37.148  1.00 36.67 LIG-0.07  N 
ATOM     62 H1   GLU B   1      53.779  88.655  38.038  1.00 36.67 LIG 0.28  HD
ATOM     63 H3   GLU B   1      54.436  89.148  36.839  1.00 36.67 LIG 0.28  HD
ATOM     64 H2   GLU B   1      53.851  87.817  36.852  1.00 36.67 LIG 0.28  HD
ENDBRANCH 55 61
ENDBRANCH 53 55
ENDBRANCH 50 51
BRANCH 50 65
ATOM     65  CB  LEU B   2      51.292  89.720  31.910  1.00 34.84 LIG 0.04  C 
BRANCH 65 66
ATOM     66  CG  LEU B   2      49.971  89.508  31.152  1.00 34.30 LIG-0.02  C 
ATOM     67  CD2 LEU B   2      49.188  90.821  30.986  1.00 39.39 LIG 0.01  C 
ATOM     68  CD1 LEU B   2      49.088  88.435  31.792  1.00 34.61 LIG 0.01  C 
ENDBRANCH 65 66
ENDBRANCH 50 65
ENDBRANCH 48 50
ENDBRANCH 41 43
ENDBRANCH 1 39
TORSDOF 28
ENDMDL
MODEL 45
USER: ADFR SOLUTION from run 169
USER: SCORE 24.644627 LL:  -7.162 LR: -18.554 RR:   0.000 FEB: -10.201
USER: RMSD 4.298416
USER: SEED 168
USER: STATUS no improvement in best in 6 clusters for 5 generations
USER: GENES 30
USER: genes 0 Translation |==|  0.59322 0.59432 0.47409
USER: genes 1 Rotation |==|  0.49963 0.58191 0.42275 0.98716
USER: genes 2 Torsion [N]-CA--C-[N] |==|  0.37593
USER: genes 3 Torsion [C]-N--CA-[C] |==|  0.49071
USER: genes 4 Torsion [N]-CA--CB-[CG2] |==|  0.52662
USER: genes 5 Torsion [N]-CA--C-[N] |==|  0.38739
USER: genes 6 Torsion [C]-N--CA-[C] |==|  0.82076
USER: genes 7 Torsion [N]-CA--C-[N] |==|  0.37550
USER: genes 8 Torsion [C]-N--CA-[CB] |==|  0.23563
USER: genes 9 Torsion [N]-CA--CB-[CG1] |==|  0.07080
USER: genes 10 Torsion [CA]-CB--CG1-[CD1] |==|  0.60643
USER: genes 11 Torsion [N]-CA--C-[OXT] |==|  0.57924
USER: genes 12 Torsion [N]-CA--CB-[CG] |==|  0.58825
USER: genes 13 Torsion [CA]-CB--CG-[CD] |==|  0.23710
USER: genes 14 Torsion [CB]-CG--CD-[CE] |==|  0.63596
USER: genes 15 Torsion [CG]-CD--CE-[NZ] |==|  0.46074
USER: genes 16 Torsion [CD]-CE--NZ-[HZ1] |==|  0.12875
USER: genes 17 Torsion [C]-CA--CB-[CG] |==|  0.28348
USER: genes 18 Torsion [CA]-CB--CG-[CD2] |==|  0.96941
USER: genes 19 Torsion [C]-CA--N-[C] |==|  0.83882
USER: genes 20 Torsion [N]-C--CA-[CB] |==|  0.69513
USER: genes 21 Torsion [N]-C--CA-[N] |==|  0.30556
USER: genes 22 Torsion [C]-CA--N-[C] |==|  0.63970
USER: genes 23 Torsion [N]-C--CA-[N] |==|  0.89951
USER: genes 24 Torsion [C]-CA--CB-[CG] |==|  0.53277
USER: genes 25 Torsion [CA]-CB--CG-[CD] |==|  0.22696
USER: genes 26 Torsion [CB]-CG--CD-[OE1] |==|  0.24607
USER: genes 27 Torsion [C]-CA--N-[H1] |==|  0.93830
USER: genes 28 Torsion [C]-CA--CB-[CG] |==|  0.23976
USER: genes 29 Torsion [CA]-CB--CG-[CD2] |==|  0.70825
ROOT
ATOM      1  CA  LEU B   4      57.597  88.448  29.985  1.00 30.07 LIG 0.18  C 
ENDROOT
BRANCH 1 2
ATOM      2  C   LEU B   4      56.389  88.900  30.766  1.00 30.58 LIG 0.24  C 
ATOM      3 O    LEU B   4      56.026  90.077  30.725  1.00 35.83 LIG-0.27  OA
ATOM      4  N   VAL B   5      55.809  87.988  31.544  1.00 32.24 LIG-0.35  N 
ATOM      5 H    VAL B   5      56.071  87.171  31.595  1.00 32.24 LIG 0.16  HD
BRANCH 4 6
ATOM      6  CA  VAL B   5      54.656  88.303  32.393  1.00 32.53 LIG 0.18  C 
BRANCH 6 7
ATOM      7  CB  VAL B   5      53.494  88.900  31.579  1.00 34.70 LIG 0.01  C 
ATOM      8  CG2 VAL B   5      52.442  89.416  32.526  1.00 38.22 LIG 0.01  C 
ATOM      9  CG1 VAL B   5      52.886  87.882  30.623  1.00 39.77 LIG 0.01  C 
ENDBRANCH 6 7
BRANCH 6 10
ATOM     10  C   VAL B   5      54.164  87.066  33.095  1.00 39.16 LIG 0.24  C 
ATOM     11 O    VAL B   5      54.139  85.970  32.521  1.00 33.69 LIG-0.27  OA
ATOM     12  N   LYS B   6      53.807  87.244  34.356  1.00 40.12 LIG-0.35  N 
ATOM     13 H    LYS B   6      53.870  87.995  34.771  1.00 40.12 LIG 0.16  HD
BRANCH 12 14
ATOM     14  CA  LYS B   6      53.277  86.174  35.144  1.00 45.41 LIG 0.18  C 
BRANCH 14 15
ATOM     15  C   LYS B   6      51.977  85.849  34.441  1.00 44.99 LIG 0.24  C 
ATOM     16 O    LYS B   6      51.266  86.743  34.030  1.00 45.85 LIG-0.27  OA
ATOM     17  N   ILE B   7      51.661  84.590  34.221  1.00 47.54 LIG-0.34  N 
ATOM     18 H    ILE B   7      52.106  83.899  34.476  1.00 47.54 LIG 0.16  HD
BRANCH 17 19
ATOM     19  CA  ILE B   7      50.422  84.339  33.464  1.00 57.67 LIG 0.19  C 
BRANCH 19 20
ATOM     20  CB  ILE B   7      50.575  84.378  31.893  1.00 59.41 LIG 0.01  C 
ATOM     21  CG2 ILE B   7      50.132  85.715  31.308  1.00 60.58 LIG 0.01  C 
BRANCH 20 22
ATOM     22  CG1 ILE B   7      52.031  84.044  31.458  1.00 65.20 LIG 0.00  C 
ATOM     23  CD1 ILE B   7      52.609  84.830  30.278  1.00 51.92 LIG 0.01  C 
ENDBRANCH 20 22
ENDBRANCH 19 20
BRANCH 19 24
ATOM     24  C   ILE B   7      49.638  83.129  33.997  1.00 61.74 LIG 0.20  C 
ATOM     25 O    ILE B   7      49.649  82.771  35.164  1.00 61.53 LIG-0.65  OA
ATOM     26 OXT  ILE B   7      48.926  82.473  33.236  1.00 68.92 LIG-0.65  OA
ENDBRANCH 19 24
ENDBRANCH 17 19
ENDBRANCH 14 15
BRANCH 14 27
ATOM     27  CB  LYS B   6      53.076  86.697  36.576  1.00 46.87 LIG 0.04  C 
BRANCH 27 28
ATOM     28  CG  LYS B   6      53.259  85.660  37.668  1.00 55.56 LIG 0.00  C 
BRANCH 28 29
ATOM     29  CD  LYS B   6      54.716  85.505  38.080  1.00 60.95 LIG 0.03  C 
BRANCH 29 30
ATOM     30  CE  LYS B   6      55.138  84.031  38.111  1.00 62.93 LIG 0.23  C 
BRANCH 30 31
ATOM     31  NZ  LYS B   6      56.624  83.872  38.179  1.00 65.77 LIG-0.08  N 
ATOM     32 HZ1  LYS B   6      56.953  84.422  38.797  1.00 65.77 LIG 0.27  HD
ATOM     33 HZ2  LYS B   6      56.823  83.031  38.393  1.00 65.77 LIG 0.27  HD
ATOM     34 HZ3  LYS B   6      56.980  84.069  37.387  1.00 65.77 LIG 0.27  HD
ENDBRANCH 30 31
ENDBRANCH 29 30
ENDBRANCH 28 29
ENDBRANCH 27 28
ENDBRANCH 14 27
ENDBRANCH 12 14
ENDBRANCH 6 10
ENDBRANCH 4 6
ENDBRANCH 1 2
BRANCH 1 35
ATOM     35  CB  LEU B   4      58.815  89.006  30.691  1.00 28.63 LIG 0.04  C 
BRANCH 35 36
ATOM     36  CG  LEU B   4      59.511  87.937  31.525  1.00 30.56 LIG-0.02  C 
ATOM     37  CD2 LEU B   4      58.615  86.720  31.604  1.00 33.80 LIG 0.01  C 
ATOM     38  CD1 LEU B   4      59.769  88.508  32.930  1.00 28.87 LIG 0.01  C 
ENDBRANCH 35 36
ENDBRANCH 1 35
BRANCH 1 39
ATOM     39  N   LEU B   4      57.677  88.849  28.562  1.00 28.62 LIG-0.35  N 
ATOM     40 H    LEU B   4      58.378  89.302  28.354  1.00 28.62 LIG 0.16  HD
ATOM     41  C   PRO B   3      56.728  88.516  27.711  1.00 33.12 LIG 0.24  C 
ATOM     42 O    PRO B   3      55.845  87.676  27.959  1.00 32.36 LIG-0.27  OA
BRANCH 41 43
ATOM     43  CA  PRO B   3      56.799  89.200  26.348  1.00 33.48 LIG 0.18  C 
ATOM     44  CB  PRO B   3      55.644  90.223  26.185  1.00 32.62 LIG 0.04  C 
ATOM     45  CG  PRO B   3      55.143  90.036  24.776  1.00 32.85 LIG 0.02  C 
ATOM     46  CD  PRO B   3      55.392  88.567  24.445  1.00 29.95 LIG 0.13  C 
ATOM     47  N   PRO B   3      56.513  88.183  25.351  1.00 33.01 LIG-0.34  N 
ATOM     48  C   LEU B   2      57.308  87.091  25.318  1.00 31.97 LIG 0.24  C 
ATOM     49 O    LEU B   2      58.340  86.966  25.986  1.00 33.64 LIG-0.27  OA
BRANCH 48 50
ATOM     50  CA  LEU B   2      56.923  85.995  24.351  1.00 32.67 LIG 0.18  C 
BRANCH 50 51
ATOM     51  N   LEU B   2      57.940  86.018  23.306  1.00 33.85 LIG-0.35  N 
ATOM     52 H    LEU B   2      58.744  86.010  23.610  1.00 33.85 LIG 0.16  HD
ATOM     53  C   GLU B   1      57.656  86.050  22.008  1.00 36.42 LIG 0.25  C 
ATOM     54 O    GLU B   1      56.523  85.789  21.573  1.00 32.31 LIG-0.27  OA
BRANCH 53 55
ATOM     55  CA  GLU B   1      58.844  86.318  21.056  1.00 35.71 LIG 0.28  C 
BRANCH 55 56
ATOM     56  CB  GLU B   1      59.547  84.988  20.764  1.00 39.23 LIG 0.05  C 
BRANCH 56 57
ATOM     57  CG  GLU B   1      60.896  85.170  20.069  1.00 48.64 LIG 0.12  C 
BRANCH 57 58
ATOM     58  CD  GLU B   1      62.073  85.507  20.995  1.00 56.94 LIG 0.17  C 
ATOM     59 OE1  GLU B   1      62.696  84.547  21.479  1.00 65.53 LIG-0.65  OA
ATOM     60 OE2  GLU B   1      62.383  86.701  21.267  1.00 53.19 LIG-0.65  OA
ENDBRANCH 57 58
ENDBRANCH 56 57
ENDBRANCH 55 56
BRANCH 55 61
ATOM     61  N   GLU B   1      59.826  87.291  21.647  1.00 36.67 LIG-0.07  N 
ATOM     62 H1   GLU B   1      59.421  87.780  22.271  1.00 36.67 LIG 0.28  HD
ATOM     63 H3   GLU B   1      60.137  87.825  21.007  1.00 36.67 LIG 0.28  HD
ATOM     64 H2   GLU B   1      60.502  86.843  22.014  1.00 36.67 LIG 0.28  HD
ENDBRANCH 55 61
ENDBRANCH 53 55
ENDBRANCH 50 51
BRANCH 50 65
ATOM     65  CB  LEU B   2      56.867  84.638  25.101  1.00 34.84 LIG 0.04  C 
BRANCH 65 66
ATOM     66  CG  LEU B   2      55.541  84.289  25.796  1.00 34.30 LIG-0.02  C 
ATOM     67  CD2 LEU B   2      55.632  84.456  27.322  1.00 39.39 LIG 0.01  C 
ATOM     68  CD1 LEU B   2      55.037  82.888  25.440  1.00 34.61 LIG 0.01  C 
ENDBRANCH 65 66
ENDBRANCH 50 65
ENDBRANCH 48 50
ENDBRANCH 41 43
ENDBRANCH 1 39
TORSDOF 28
ENDMDL
MODEL 46
USER: ADFR SOLUTION from run 66
USER: SCORE 25.060486 LL:  -6.984 LR: -18.542 RR:   0.000 FEB: -10.189
USER: RMSD 12.334858
USER: SEED 65
USER: STATUS no improvement in best in 3 clusters for 5 generations
USER: GENES 30
USER: genes 0 Translation |==|  0.56827 0.57087 0.50402
USER: genes 1 Rotation |==|  0.15697 0.39711 0.15109 0.50096
USER: genes 2 Torsion [N]-CA--C-[N] |==|  0.03277
USER: genes 3 Torsion [C]-N--CA-[C] |==|  0.82077
USER: genes 4 Torsion [N]-CA--CB-[CG2] |==|  0.90710
USER: genes 5 Torsion [N]-CA--C-[N] |==|  0.92515
USER: genes 6 Torsion [C]-N--CA-[C] |==|  0.18748
USER: genes 7 Torsion [N]-CA--C-[N] |==|  0.07145
USER: genes 8 Torsion [C]-N--CA-[CB] |==|  0.35065
USER: genes 9 Torsion [N]-CA--CB-[CG1] |==|  0.81523
USER: genes 10 Torsion [CA]-CB--CG1-[CD1] |==|  0.93425
USER: genes 11 Torsion [N]-CA--C-[OXT] |==|  0.19539
USER: genes 12 Torsion [N]-CA--CB-[CG] |==|  0.46560
USER: genes 13 Torsion [CA]-CB--CG-[CD] |==|  0.66447
USER: genes 14 Torsion [CB]-CG--CD-[CE] |==|  0.32719
USER: genes 15 Torsion [CG]-CD--CE-[NZ] |==|  0.24198
USER: genes 16 Torsion [CD]-CE--NZ-[HZ1] |==|  0.31831
USER: genes 17 Torsion [C]-CA--CB-[CG] |==|  0.29454
USER: genes 18 Torsion [CA]-CB--CG-[CD2] |==|  0.89299
USER: genes 19 Torsion [C]-CA--N-[C] |==|  0.68015
USER: genes 20 Torsion [N]-C--CA-[CB] |==|  0.76611
USER: genes 21 Torsion [N]-C--CA-[N] |==|  0.47204
USER: genes 22 Torsion [C]-CA--N-[C] |==|  0.68328
USER: genes 23 Torsion [N]-C--CA-[N] |==|  0.04464
USER: genes 24 Torsion [C]-CA--CB-[CG] |==|  0.45062
USER: genes 25 Torsion [CA]-CB--CG-[CD] |==|  0.04117
USER: genes 26 Torsion [CB]-CG--CD-[OE1] |==|  0.71869
USER: genes 27 Torsion [C]-CA--N-[H1] |==|  0.43488
USER: genes 28 Torsion [C]-CA--CB-[CG] |==|  0.37201
USER: genes 29 Torsion [CA]-CB--CG-[CD2] |==|  0.69118
ROOT
ATOM      1  CA  LEU B   4      57.073  87.921  30.749  1.00 30.07 LIG 0.18  C 
ENDROOT
BRANCH 1 2
ATOM      2  C   LEU B   4      57.483  87.582  29.339  1.00 30.58 LIG 0.24  C 
ATOM      3 O    LEU B   4      58.530  88.033  28.870  1.00 35.83 LIG-0.27  OA
ATOM      4  N   VAL B   5      56.625  86.853  28.629  1.00 32.24 LIG-0.35  N 
ATOM      5 H    VAL B   5      55.882  86.554  28.942  1.00 32.24 LIG 0.16  HD
BRANCH 4 6
ATOM      6  CA  VAL B   5      56.875  86.490  27.230  1.00 32.53 LIG 0.18  C 
BRANCH 6 7
ATOM      7  CB  VAL B   5      55.797  85.533  26.689  1.00 34.70 LIG 0.01  C 
ATOM      8  CG2 VAL B   5      55.330  84.634  27.804  1.00 38.22 LIG 0.01  C 
ATOM      9  CG1 VAL B   5      56.310  84.698  25.522  1.00 39.77 LIG 0.01  C 
ENDBRANCH 6 7
BRANCH 6 10
ATOM     10  C   VAL B   5      56.904  87.719  26.363  1.00 39.16 LIG 0.24  C 
ATOM     11 O    VAL B   5      57.527  87.734  25.293  1.00 33.69 LIG-0.27  OA
ATOM     12  N   LYS B   6      56.195  88.739  26.814  1.00 40.12 LIG-0.35  N 
ATOM     13 H    LYS B   6      55.722  88.714  27.533  1.00 40.12 LIG 0.16  HD
BRANCH 12 14
ATOM     14  CA  LYS B   6      56.158  89.992  26.124  1.00 45.41 LIG 0.18  C 
BRANCH 14 15
ATOM     15  C   LYS B   6      55.423  89.653  24.846  1.00 44.99 LIG 0.24  C 
ATOM     16 O    LYS B   6      55.650  90.274  23.828  1.00 45.85 LIG-0.27  OA
ATOM     17  N   ILE B   7      54.589  88.635  24.835  1.00 47.54 LIG-0.34  N 
ATOM     18 H    ILE B   7      54.373  88.143  25.507  1.00 47.54 LIG 0.16  HD
BRANCH 17 19
ATOM     19  CA  ILE B   7      53.961  88.304  23.542  1.00 57.67 LIG 0.19  C 
BRANCH 19 20
ATOM     20  CB  ILE B   7      54.130  86.804  23.078  1.00 59.41 LIG 0.01  C 
ATOM     21  CG2 ILE B   7      53.241  86.470  21.886  1.00 60.58 LIG 0.01  C 
BRANCH 20 22
ATOM     22  CG1 ILE B   7      55.618  86.474  22.763  1.00 65.20 LIG 0.00  C 
ATOM     23  CD1 ILE B   7      56.533  87.646  22.396  1.00 51.92 LIG 0.01  C 
ENDBRANCH 20 22
ENDBRANCH 19 20
BRANCH 19 24
ATOM     24  C   ILE B   7      52.531  88.850  23.423  1.00 61.74 LIG 0.20  C 
ATOM     25 O    ILE B   7      51.530  88.151  23.454  1.00 61.53 LIG-0.65  OA
ATOM     26 OXT  ILE B   7      52.340  90.061  23.311  1.00 68.92 LIG-0.65  OA
ENDBRANCH 19 24
ENDBRANCH 17 19
ENDBRANCH 14 15
BRANCH 14 27
ATOM     27  CB  LYS B   6      57.610  90.442  25.886  1.00 46.87 LIG 0.04  C 
BRANCH 27 28
ATOM     28  CG  LYS B   6      57.771  91.596  24.915  1.00 55.56 LIG 0.00  C 
BRANCH 28 29
ATOM     29  CD  LYS B   6      58.640  91.229  23.719  1.00 60.95 LIG 0.03  C 
BRANCH 29 30
ATOM     30  CE  LYS B   6      57.856  91.322  22.405  1.00 62.93 LIG 0.23  C 
BRANCH 30 31
ATOM     31  NZ  LYS B   6      57.889  92.701  21.826  1.00 65.77 LIG-0.08  N 
ATOM     32 HZ1  LYS B   6      58.331  92.688  21.053  1.00 65.77 LIG 0.27  HD
ATOM     33 HZ2  LYS B   6      57.057  92.985  21.686  1.00 65.77 LIG 0.27  HD
ATOM     34 HZ3  LYS B   6      58.299  93.251  22.393  1.00 65.77 LIG 0.27  HD
ENDBRANCH 30 31
ENDBRANCH 29 30
ENDBRANCH 28 29
ENDBRANCH 27 28
ENDBRANCH 14 27
ENDBRANCH 12 14
ENDBRANCH 6 10
ENDBRANCH 4 6
ENDBRANCH 1 2
BRANCH 1 35
ATOM     35  CB  LEU B   4      58.262  87.627  31.640  1.00 28.63 LIG 0.04  C 
BRANCH 35 36
ATOM     36  CG  LEU B   4      58.939  88.912  32.102  1.00 30.56 LIG-0.02  C 
ATOM     37  CD2 LEU B   4      58.936  89.903  30.958  1.00 33.80 LIG 0.01  C 
ATOM     38  CD1 LEU B   4      60.381  88.577  32.521  1.00 28.87 LIG 0.01  C 
ENDBRANCH 35 36
ENDBRANCH 1 35
BRANCH 1 39
ATOM     39  N   LEU B   4      55.903  87.206  31.309  1.00 28.62 LIG-0.35  N 
ATOM     40 H    LEU B   4      56.011  86.359  31.407  1.00 28.62 LIG 0.16  HD
ATOM     41  C   PRO B   3      54.800  87.856  31.621  1.00 33.12 LIG 0.24  C 
ATOM     42 O    PRO B   3      54.728  89.095  31.694  1.00 32.36 LIG-0.27  OA
BRANCH 41 43
ATOM     43  CA  PRO B   3      53.591  86.981  31.944  1.00 33.48 LIG 0.18  C 
ATOM     44  CB  PRO B   3      52.853  86.561  30.645  1.00 32.62 LIG 0.04  C 
ATOM     45  CG  PRO B   3      51.386  86.695  30.961  1.00 32.85 LIG 0.02  C 
ATOM     46  CD  PRO B   3      51.290  87.819  31.989  1.00 29.95 LIG 0.13  C 
ATOM     47  N   PRO B   3      52.634  87.823  32.637  1.00 33.01 LIG-0.34  N 
ATOM     48  C   LEU B   2      53.035  88.427  33.778  1.00 31.97 LIG 0.24  C 
ATOM     49 O    LEU B   2      54.112  88.201  34.338  1.00 33.64 LIG-0.27  OA
BRANCH 48 50
ATOM     50  CA  LEU B   2      52.062  89.389  34.420  1.00 32.67 LIG 0.18  C 
BRANCH 50 51
ATOM     51  N   LEU B   2      52.625  89.701  35.728  1.00 33.85 LIG-0.35  N 
ATOM     52 H    LEU B   2      53.365  90.136  35.689  1.00 33.85 LIG 0.16  HD
ATOM     53  C   GLU B   1      52.052  89.350  36.875  1.00 36.42 LIG 0.25  C 
ATOM     54 O    GLU B   1      50.870  88.973  36.935  1.00 32.31 LIG-0.27  OA
BRANCH 53 55
ATOM     55  CA  GLU B   1      52.902  89.545  38.151  1.00 35.71 LIG 0.28  C 
BRANCH 55 56
ATOM     56  CB  GLU B   1      52.011  90.137  39.248  1.00 39.23 LIG 0.05  C 
BRANCH 56 57
ATOM     57  CG  GLU B   1      52.604  89.973  40.647  1.00 48.64 LIG 0.12  C 
BRANCH 57 58
ATOM     58  CD  GLU B   1      54.090  89.591  40.692  1.00 56.94 LIG 0.17  C 
ATOM     59 OE1  GLU B   1      54.354  88.398  40.916  1.00 65.53 LIG-0.65  OA
ATOM     60 OE2  GLU B   1      55.001  90.451  40.527  1.00 53.19 LIG-0.65  OA
ENDBRANCH 57 58
ENDBRANCH 56 57
ENDBRANCH 55 56
BRANCH 55 61
ATOM     61  N   GLU B   1      54.077  90.451  37.907  1.00 36.67 LIG-0.07  N 
ATOM     62 H1   GLU B   1      54.338  90.813  38.677  1.00 36.67 LIG 0.28  HD
ATOM     63 H3   GLU B   1      53.841  91.097  37.342  1.00 36.67 LIG 0.28  HD
ATOM     64 H2   GLU B   1      54.747  89.981  37.558  1.00 36.67 LIG 0.28  HD
ENDBRANCH 55 61
ENDBRANCH 53 55
ENDBRANCH 50 51
BRANCH 50 65
ATOM     65  CB  LEU B   2      51.905  90.644  33.522  1.00 34.84 LIG 0.04  C 
BRANCH 65 66
ATOM     66  CG  LEU B   2      50.470  91.136  33.269  1.00 34.30 LIG-0.02  C 
ATOM     67  CD2 LEU B   2      50.041  90.924  31.807  1.00 39.39 LIG 0.01  C 
ATOM     68  CD1 LEU B   2      50.263  92.595  33.682  1.00 34.61 LIG 0.01  C 
ENDBRANCH 65 66
ENDBRANCH 50 65
ENDBRANCH 48 50
ENDBRANCH 41 43
ENDBRANCH 1 39
TORSDOF 28
ENDMDL
MODEL 47
USER: ADFR SOLUTION from run 56
USER: SCORE 24.131354 LL:  -7.274 LR: -18.529 RR:   0.000 FEB: -10.177
USER: RMSD 12.906020
USER: SEED 55
USER: STATUS no improvement in best in 6 clusters for 5 generations
USER: GENES 30
USER: genes 0 Translation |==|  0.48389 0.51163 0.42648
USER: genes 1 Rotation |==|  0.20243 0.17834 0.25924 0.50463
USER: genes 2 Torsion [N]-CA--C-[N] |==|  0.38453
USER: genes 3 Torsion [C]-N--CA-[C] |==|  0.20210
USER: genes 4 Torsion [N]-CA--CB-[CG2] |==|  0.87052
USER: genes 5 Torsion [N]-CA--C-[N] |==|  0.43046
USER: genes 6 Torsion [C]-N--CA-[C] |==|  0.75338
USER: genes 7 Torsion [N]-CA--C-[N] |==|  0.86180
USER: genes 8 Torsion [C]-N--CA-[CB] |==|  0.22915
USER: genes 9 Torsion [N]-CA--CB-[CG1] |==|  0.64590
USER: genes 10 Torsion [CA]-CB--CG1-[CD1] |==|  0.31342
USER: genes 11 Torsion [N]-CA--C-[OXT] |==|  0.91938
USER: genes 12 Torsion [N]-CA--CB-[CG] |==|  0.31534
USER: genes 13 Torsion [CA]-CB--CG-[CD] |==|  0.48219
USER: genes 14 Torsion [CB]-CG--CD-[CE] |==|  0.84049
USER: genes 15 Torsion [CG]-CD--CE-[NZ] |==|  0.80746
USER: genes 16 Torsion [CD]-CE--NZ-[HZ1] |==|  0.42170
USER: genes 17 Torsion [C]-CA--CB-[CG] |==|  0.62912
USER: genes 18 Torsion [CA]-CB--CG-[CD2] |==|  0.66888
USER: genes 19 Torsion [C]-CA--N-[C] |==|  0.61626
USER: genes 20 Torsion [N]-C--CA-[CB] |==|  0.69799
USER: genes 21 Torsion [N]-C--CA-[N] |==|  0.85741
USER: genes 22 Torsion [C]-CA--N-[C] |==|  0.84952
USER: genes 23 Torsion [N]-C--CA-[N] |==|  0.39142
USER: genes 24 Torsion [C]-CA--CB-[CG] |==|  0.29568
USER: genes 25 Torsion [CA]-CB--CG-[CD] |==|  0.07353
USER: genes 26 Torsion [CB]-CG--CD-[OE1] |==|  0.14664
USER: genes 27 Torsion [C]-CA--N-[H1] |==|  0.88013
USER: genes 28 Torsion [C]-CA--CB-[CG] |==|  0.08994
USER: genes 29 Torsion [CA]-CB--CG-[CD2] |==|  0.70015
ROOT
ATOM      1  CA  LEU B   4      55.301  86.588  28.771  1.00 30.07 LIG 0.18  C 
ENDROOT
BRANCH 1 2
ATOM      2  C   LEU B   4      55.935  85.679  27.750  1.00 30.58 LIG 0.24  C 
ATOM      3 O    LEU B   4      56.754  84.826  28.099  1.00 35.83 LIG-0.27  OA
ATOM      4  N   VAL B   5      55.624  85.908  26.476  1.00 32.24 LIG-0.35  N 
ATOM      5 H    VAL B   5      55.071  86.516  26.223  1.00 32.24 LIG 0.16  HD
BRANCH 4 6
ATOM      6  CA  VAL B   5      56.204  85.132  25.376  1.00 32.53 LIG 0.18  C 
BRANCH 6 7
ATOM      7  CB  VAL B   5      57.734  85.019  25.504  1.00 34.70 LIG 0.01  C 
ATOM      8  CG2 VAL B   5      58.305  86.379  25.813  1.00 38.22 LIG 0.01  C 
ATOM      9  CG1 VAL B   5      58.372  84.458  24.239  1.00 39.77 LIG 0.01  C 
ENDBRANCH 6 7
BRANCH 6 10
ATOM     10  C   VAL B   5      55.622  83.745  25.342  1.00 39.16 LIG 0.24  C 
ATOM     11 O    VAL B   5      55.125  83.234  26.354  1.00 33.69 LIG-0.27  OA
ATOM     12  N   LYS B   6      55.655  83.154  24.160  1.00 40.12 LIG-0.35  N 
ATOM     13 H    LYS B   6      55.956  83.526  23.445  1.00 40.12 LIG 0.16  HD
BRANCH 12 14
ATOM     14  CA  LYS B   6      55.179  81.816  23.976  1.00 45.41 LIG 0.18  C 
BRANCH 14 15
ATOM     15  C   LYS B   6      56.408  80.979  24.261  1.00 44.99 LIG 0.24  C 
ATOM     16 O    LYS B   6      56.329  80.006  24.982  1.00 45.85 LIG-0.27  OA
ATOM     17  N   ILE B   7      57.542  81.278  23.664  1.00 47.54 LIG-0.34  N 
ATOM     18 H    ILE B   7      57.684  81.945  23.140  1.00 47.54 LIG 0.16  HD
BRANCH 17 19
ATOM     19  CA  ILE B   7      58.683  80.381  23.919  1.00 57.67 LIG 0.19  C 
BRANCH 19 20
ATOM     20  CB  ILE B   7      58.721  79.073  23.035  1.00 59.41 LIG 0.01  C 
ATOM     21  CG2 ILE B   7      59.822  79.126  21.982  1.00 60.58 LIG 0.01  C 
BRANCH 20 22
ATOM     22  CG1 ILE B   7      58.864  77.799  23.916  1.00 65.20 LIG 0.00  C 
ATOM     23  CD1 ILE B   7      57.674  76.837  23.955  1.00 51.92 LIG 0.01  C 
ENDBRANCH 20 22
ENDBRANCH 19 20
BRANCH 19 24
ATOM     24  C   ILE B   7      60.020  81.133  23.999  1.00 61.74 LIG 0.20  C 
ATOM     25 O    ILE B   7      60.982  80.747  24.646  1.00 61.53 LIG-0.65  OA
ATOM     26 OXT  ILE B   7      60.178  82.179  23.368  1.00 68.92 LIG-0.65  OA
ENDBRANCH 19 24
ENDBRANCH 17 19
ENDBRANCH 14 15
BRANCH 14 27
ATOM     27  CB  LYS B   6      54.682  81.687  22.527  1.00 46.87 LIG 0.04  C 
BRANCH 27 28
ATOM     28  CG  LYS B   6      55.493  80.750  21.653  1.00 55.56 LIG 0.00  C 
BRANCH 28 29
ATOM     29  CD  LYS B   6      54.862  80.546  20.282  1.00 60.95 LIG 0.03  C 
BRANCH 29 30
ATOM     30  CE  LYS B   6      53.432  80.005  20.395  1.00 62.93 LIG 0.23  C 
BRANCH 30 31
ATOM     31  NZ  LYS B   6      53.400  78.596  20.896  1.00 65.77 LIG-0.08  N 
ATOM     32 HZ1  LYS B   6      52.634  78.451  21.327  1.00 65.77 LIG 0.27  HD
ATOM     33 HZ2  LYS B   6      53.464  78.035  20.208  1.00 65.77 LIG 0.27  HD
ATOM     34 HZ3  LYS B   6      54.083  78.463  21.452  1.00 65.77 LIG 0.27  HD
ENDBRANCH 30 31
ENDBRANCH 29 30
ENDBRANCH 28 29
ENDBRANCH 27 28
ENDBRANCH 14 27
ENDBRANCH 12 14
ENDBRANCH 6 10
ENDBRANCH 4 6
ENDBRANCH 1 2
BRANCH 1 35
ATOM     35  CB  LEU B   4      56.341  87.620  29.154  1.00 28.63 LIG 0.04  C 
BRANCH 35 36
ATOM     36  CG  LEU B   4      56.420  87.795  30.665  1.00 30.56 LIG-0.02  C 
ATOM     37  CD2 LEU B   4      56.077  89.228  31.008  1.00 33.80 LIG 0.01  C 
ATOM     38  CD1 LEU B   4      57.851  87.460  31.119  1.00 28.87 LIG 0.01  C 
ENDBRANCH 35 36
ENDBRANCH 1 35
BRANCH 1 39
ATOM     39  N   LEU B   4      54.801  85.967  30.020  1.00 28.62 LIG-0.35  N 
ATOM     40 H    LEU B   4      55.319  85.368  30.356  1.00 28.62 LIG 0.16  HD
ATOM     41  C   PRO B   3      53.648  86.331  30.542  1.00 33.12 LIG 0.24  C 
ATOM     42 O    PRO B   3      53.021  87.345  30.186  1.00 32.36 LIG-0.27  OA
BRANCH 41 43
ATOM     43  CA  PRO B   3      53.130  85.446  31.673  1.00 33.48 LIG 0.18  C 
ATOM     44  CB  PRO B   3      51.905  84.616  31.205  1.00 32.62 LIG 0.04  C 
ATOM     45  CG  PRO B   3      50.930  84.667  32.352  1.00 32.85 LIG 0.02  C 
ATOM     46  CD  PRO B   3      51.176  86.007  33.040  1.00 29.95 LIG 0.13  C 
ATOM     47  N   PRO B   3      52.589  86.333  32.687  1.00 33.01 LIG-0.34  N 
ATOM     48  C   LEU B   2      53.414  87.260  33.221  1.00 31.97 LIG 0.24  C 
ATOM     49 O    LEU B   2      54.629  87.312  33.002  1.00 33.64 LIG-0.27  OA
BRANCH 48 50
ATOM     50  CA  LEU B   2      52.800  88.246  34.188  1.00 32.67 LIG 0.18  C 
BRANCH 50 51
ATOM     51  N   LEU B   2      51.635  88.794  33.503  1.00 33.85 LIG-0.35  N 
ATOM     52 H    LEU B   2      50.906  88.720  33.953  1.00 33.85 LIG 0.16  HD
ATOM     53  C   GLU B   1      51.690  89.354  32.299  1.00 36.42 LIG 0.25  C 
ATOM     54 O    GLU B   1      52.763  89.701  31.780  1.00 32.31 LIG-0.27  OA
BRANCH 53 55
ATOM     55  CA  GLU B   1      50.333  89.656  31.624  1.00 35.71 LIG 0.28  C 
BRANCH 55 56
ATOM     56  CB  GLU B   1      50.008  88.522  30.646  1.00 39.23 LIG 0.05  C 
BRANCH 56 57
ATOM     57  CG  GLU B   1      48.903  87.598  31.156  1.00 48.64 LIG 0.12  C 
BRANCH 57 58
ATOM     58  CD  GLU B   1      47.909  88.237  32.135  1.00 56.94 LIG 0.17  C 
ATOM     59 OE1  GLU B   1      47.365  89.293  31.771  1.00 65.53 LIG-0.65  OA
ATOM     60 OE2  GLU B   1      47.669  87.725  33.265  1.00 53.19 LIG-0.65  OA
ENDBRANCH 57 58
ENDBRANCH 56 57
ENDBRANCH 55 56
BRANCH 55 61
ATOM     61  N   GLU B   1      50.354  90.968  30.890  1.00 36.67 LIG-0.07  N 
ATOM     62 H1   GLU B   1      50.764  91.581  31.388  1.00 36.67 LIG 0.28  HD
ATOM     63 H3   GLU B   1      49.519  91.230  30.726  1.00 36.67 LIG 0.28  HD
ATOM     64 H2   GLU B   1      50.790  90.870  30.120  1.00 36.67 LIG 0.28  HD
ENDBRANCH 55 61
ENDBRANCH 53 55
ENDBRANCH 50 51
BRANCH 50 65
ATOM     65  CB  LEU B   2      52.429  87.516  35.506  1.00 34.84 LIG 0.04  C 
BRANCH 65 66
ATOM     66  CG  LEU B   2      53.335  86.346  35.924  1.00 34.30 LIG-0.02  C 
ATOM     67  CD2 LEU B   2      52.636  84.987  35.741  1.00 39.39 LIG 0.01  C 
ATOM     68  CD1 LEU B   2      53.864  86.487  37.353  1.00 34.61 LIG 0.01  C 
ENDBRANCH 65 66
ENDBRANCH 50 65
ENDBRANCH 48 50
ENDBRANCH 41 43
ENDBRANCH 1 39
TORSDOF 28
ENDMDL
MODEL 48
USER: ADFR SOLUTION from run 173
USER: SCORE 23.807788 LL:  -6.301 LR: -18.522 RR:   0.000 FEB: -10.169
USER: RMSD 5.817255
USER: SEED 172
USER: STATUS no improvement in best in 6 clusters for 5 generations
USER: GENES 30
USER: genes 0 Translation |==|  0.40725 0.56323 0.56203
USER: genes 1 Rotation |==|  0.80287 0.49506 0.10297 0.52475
USER: genes 2 Torsion [N]-CA--C-[N] |==|  0.42606
USER: genes 3 Torsion [C]-N--CA-[C] |==|  0.85866
USER: genes 4 Torsion [N]-CA--CB-[CG2] |==|  0.88858
USER: genes 5 Torsion [N]-CA--C-[N] |==|  0.36132
USER: genes 6 Torsion [C]-N--CA-[C] |==|  0.64810
USER: genes 7 Torsion [N]-CA--C-[N] |==|  0.85610
USER: genes 8 Torsion [C]-N--CA-[CB] |==|  0.21393
USER: genes 9 Torsion [N]-CA--CB-[CG1] |==|  0.12162
USER: genes 10 Torsion [CA]-CB--CG1-[CD1] |==|  0.48461
USER: genes 11 Torsion [N]-CA--C-[OXT] |==|  0.96950
USER: genes 12 Torsion [N]-CA--CB-[CG] |==|  0.31182
USER: genes 13 Torsion [CA]-CB--CG-[CD] |==|  0.36842
USER: genes 14 Torsion [CB]-CG--CD-[CE] |==|  0.95646
USER: genes 15 Torsion [CG]-CD--CE-[NZ] |==|  0.56209
USER: genes 16 Torsion [CD]-CE--NZ-[HZ1] |==|  0.35560
USER: genes 17 Torsion [C]-CA--CB-[CG] |==|  0.75076
USER: genes 18 Torsion [CA]-CB--CG-[CD2] |==|  0.71478
USER: genes 19 Torsion [C]-CA--N-[C] |==|  0.60659
USER: genes 20 Torsion [N]-C--CA-[CB] |==|  0.79846
USER: genes 21 Torsion [N]-C--CA-[N] |==|  0.30000
USER: genes 22 Torsion [C]-CA--N-[C] |==|  0.81762
USER: genes 23 Torsion [N]-C--CA-[N] |==|  0.26628
USER: genes 24 Torsion [C]-CA--CB-[CG] |==|  0.56366
USER: genes 25 Torsion [CA]-CB--CG-[CD] |==|  0.22184
USER: genes 26 Torsion [CB]-CG--CD-[OE1] |==|  0.21625
USER: genes 27 Torsion [C]-CA--N-[H1] |==|  0.20169
USER: genes 28 Torsion [C]-CA--CB-[CG] |==|  0.43251
USER: genes 29 Torsion [CA]-CB--CG-[CD2] |==|  0.37365
ROOT
ATOM      1  CA  LEU B   4      53.691  87.749  32.228  1.00 30.07 LIG 0.18  C 
ENDROOT
BRANCH 1 2
ATOM      2  C   LEU B   4      53.758  87.841  33.730  1.00 30.58 LIG 0.24  C 
ATOM      3 O    LEU B   4      54.488  87.080  34.369  1.00 35.83 LIG-0.27  OA
ATOM      4  N   VAL B   5      52.941  88.718  34.309  1.00 32.24 LIG-0.35  N 
ATOM      5 H    VAL B   5      52.413  89.236  33.872  1.00 32.24 LIG 0.16  HD
BRANCH 4 6
ATOM      6  CA  VAL B   5      52.868  88.878  35.765  1.00 32.53 LIG 0.18  C 
BRANCH 6 7
ATOM      7  CB  VAL B   5      51.711  89.807  36.178  1.00 34.70 LIG 0.01  C 
ATOM      8  CG2 VAL B   5      51.635  90.960  35.211  1.00 38.22 LIG 0.01  C 
ATOM      9  CG1 VAL B   5      51.876  90.325  37.601  1.00 39.77 LIG 0.01  C 
ENDBRANCH 6 7
BRANCH 6 10
ATOM     10  C   VAL B   5      52.676  87.545  36.435  1.00 39.16 LIG 0.24  C 
ATOM     11 O    VAL B   5      51.816  86.747  36.040  1.00 33.69 LIG-0.27  OA
ATOM     12  N   LYS B   6      53.510  87.295  37.430  1.00 40.12 LIG-0.35  N 
ATOM     13 H    LYS B   6      54.140  87.828  37.674  1.00 40.12 LIG 0.16  HD
BRANCH 12 14
ATOM     14  CA  LYS B   6      53.425  86.088  38.195  1.00 45.41 LIG 0.18  C 
BRANCH 14 15
ATOM     15  C   LYS B   6      53.349  86.595  39.619  1.00 44.99 LIG 0.24  C 
ATOM     16 O    LYS B   6      52.502  86.166  40.374  1.00 45.85 LIG-0.27  OA
ATOM     17  N   ILE B   7      54.252  87.453  40.045  1.00 47.54 LIG-0.34  N 
ATOM     18 H    ILE B   7      54.883  87.804  39.579  1.00 47.54 LIG 0.16  HD
BRANCH 17 19
ATOM     19  CA  ILE B   7      54.173  87.850  41.462  1.00 57.67 LIG 0.19  C 
BRANCH 19 20
ATOM     20  CB  ILE B   7      54.722  86.785  42.491  1.00 59.41 LIG 0.01  C 
ATOM     21  CG2 ILE B   7      53.702  85.690  42.781  1.00 60.58 LIG 0.01  C 
BRANCH 20 22
ATOM     22  CG1 ILE B   7      56.065  86.169  42.003  1.00 65.20 LIG 0.00  C 
ATOM     23  CD1 ILE B   7      56.787  85.215  42.959  1.00 51.92 LIG 0.01  C 
ENDBRANCH 20 22
ENDBRANCH 19 20
BRANCH 19 24
ATOM     24  C   ILE B   7      54.672  89.283  41.703  1.00 61.74 LIG 0.20  C 
ATOM     25 O    ILE B   7      54.544  89.881  42.760  1.00 61.53 LIG-0.65  OA
ATOM     26 OXT  ILE B   7      55.262  89.889  40.808  1.00 68.92 LIG-0.65  OA
ENDBRANCH 19 24
ENDBRANCH 17 19
ENDBRANCH 14 15
BRANCH 14 27
ATOM     27  CB  LYS B   6      54.691  85.262  37.914  1.00 46.87 LIG 0.04  C 
BRANCH 27 28
ATOM     28  CG  LYS B   6      55.637  85.120  39.091  1.00 55.56 LIG 0.00  C 
BRANCH 28 29
ATOM     29  CD  LYS B   6      56.092  83.683  39.299  1.00 60.95 LIG 0.03  C 
BRANCH 29 30
ATOM     30  CE  LYS B   6      55.202  82.695  38.535  1.00 62.93 LIG 0.23  C 
BRANCH 30 31
ATOM     31  NZ  LYS B   6      55.264  81.317  39.114  1.00 65.77 LIG-0.08  N 
ATOM     32 HZ1  LYS B   6      54.438  81.023  39.269  1.00 65.77 LIG 0.27  HD
ATOM     33 HZ2  LYS B   6      55.669  80.771  38.539  1.00 65.77 LIG 0.27  HD
ATOM     34 HZ3  LYS B   6      55.721  81.336  39.877  1.00 65.77 LIG 0.27  HD
ENDBRANCH 30 31
ENDBRANCH 29 30
ENDBRANCH 28 29
ENDBRANCH 27 28
ENDBRANCH 14 27
ENDBRANCH 12 14
ENDBRANCH 6 10
ENDBRANCH 4 6
ENDBRANCH 1 2
BRANCH 1 35
ATOM     35  CB  LEU B   4      52.573  86.783  31.892  1.00 28.63 LIG 0.04  C 
BRANCH 35 36
ATOM     36  CG  LEU B   4      53.086  85.351  31.801  1.00 30.56 LIG-0.02  C 
ATOM     37  CD2 LEU B   4      53.215  84.972  30.342  1.00 33.80 LIG 0.01  C 
ATOM     38  CD1 LEU B   4      52.080  84.429  32.511  1.00 28.87 LIG 0.01  C 
ENDBRANCH 35 36
ENDBRANCH 1 35
BRANCH 1 39
ATOM     39  N   LEU B   4      54.909  87.294  31.517  1.00 28.62 LIG-0.35  N 
ATOM     40 H    LEU B   4      55.345  86.669  31.915  1.00 28.62 LIG 0.16  HD
ATOM     41  C   PRO B   3      55.260  87.831  30.367  1.00 33.12 LIG 0.24  C 
ATOM     42 O    PRO B   3      54.514  88.561  29.691  1.00 32.36 LIG-0.27  OA
BRANCH 41 43
ATOM     43  CA  PRO B   3      56.655  87.461  29.868  1.00 33.48 LIG 0.18  C 
ATOM     44  CB  PRO B   3      57.747  88.170  30.713  1.00 32.62 LIG 0.04  C 
ATOM     45  CG  PRO B   3      58.776  88.640  29.718  1.00 32.85 LIG 0.02  C 
ATOM     46  CD  PRO B   3      58.004  88.913  28.429  1.00 29.95 LIG 0.13  C 
ATOM     47  N   PRO B   3      56.798  88.043  28.546  1.00 33.01 LIG-0.34  N 
ATOM     48  C   LEU B   2      55.903  87.685  27.599  1.00 31.97 LIG 0.24  C 
ATOM     49 O    LEU B   2      55.058  86.796  27.747  1.00 33.64 LIG-0.27  OA
BRANCH 48 50
ATOM     50  CA  LEU B   2      56.001  88.390  26.265  1.00 32.67 LIG 0.18  C 
BRANCH 50 51
ATOM     51  N   LEU B   2      56.529  87.397  25.336  1.00 33.85 LIG-0.35  N 
ATOM     52 H    LEU B   2      55.973  87.175  24.719  1.00 33.85 LIG 0.16  HD
ATOM     53  C   GLU B   1      57.751  86.882  25.430  1.00 36.42 LIG 0.25  C 
ATOM     54 O    GLU B   1      58.631  87.395  26.140  1.00 32.31 LIG-0.27  OA
BRANCH 53 55
ATOM     55  CA  GLU B   1      58.054  85.673  24.516  1.00 35.71 LIG 0.28  C 
BRANCH 55 56
ATOM     56  CB  GLU B   1      58.948  84.692  25.283  1.00 39.23 LIG 0.05  C 
BRANCH 56 57
ATOM     57  CG  GLU B   1      59.753  83.778  24.359  1.00 48.64 LIG 0.12  C 
BRANCH 57 58
ATOM     58  CD  GLU B   1      61.015  84.404  23.750  1.00 56.94 LIG 0.17  C 
ATOM     59 OE1  GLU B   1      62.011  84.487  24.488  1.00 65.53 LIG-0.65  OA
ATOM     60 OE2  GLU B   1      61.036  84.831  22.561  1.00 53.19 LIG-0.65  OA
ENDBRANCH 57 58
ENDBRANCH 56 57
ENDBRANCH 55 56
BRANCH 55 61
ATOM     61  N   GLU B   1      58.736  86.092  23.244  1.00 36.67 LIG-0.07  N 
ATOM     62 H1   GLU B   1      59.577  86.326  23.420  1.00 36.67 LIG 0.28  HD
ATOM     63 H3   GLU B   1      58.304  86.785  22.889  1.00 36.67 LIG 0.28  HD
ATOM     64 H2   GLU B   1      58.732  85.414  22.667  1.00 36.67 LIG 0.28  HD
ENDBRANCH 55 61
ENDBRANCH 53 55
ENDBRANCH 50 51
BRANCH 50 65
ATOM     65  CB  LEU B   2      54.602  88.912  25.850  1.00 34.84 LIG 0.04  C 
BRANCH 65 66
ATOM     66  CG  LEU B   2      54.571  90.103  24.877  1.00 34.30 LIG-0.02  C 
ATOM     67  CD2 LEU B   2      53.553  89.891  23.744  1.00 39.39 LIG 0.01  C 
ATOM     68  CD1 LEU B   2      55.951  90.432  24.303  1.00 34.61 LIG 0.01  C 
ENDBRANCH 65 66
ENDBRANCH 50 65
ENDBRANCH 48 50
ENDBRANCH 41 43
ENDBRANCH 1 39
TORSDOF 28
ENDMDL
MODEL 49
USER: ADFR SOLUTION from run 67
USER: SCORE 24.807996 LL:  -7.588 LR: -18.520 RR:   0.000 FEB: -10.168
USER: RMSD 2.809360
USER: SEED 66
USER: STATUS 1 or 2 clusters left
USER: GENES 30
USER: genes 0 Translation |==|  0.51111 0.49833 0.43139
USER: genes 1 Rotation |==|  0.51533 0.58137 0.38998 0.98067
USER: genes 2 Torsion [N]-CA--C-[N] |==|  0.43876
USER: genes 3 Torsion [C]-N--CA-[C] |==|  0.72114
USER: genes 4 Torsion [N]-CA--CB-[CG2] |==|  0.18801
USER: genes 5 Torsion [N]-CA--C-[N] |==|  0.51468
USER: genes 6 Torsion [C]-N--CA-[C] |==|  0.73390
USER: genes 7 Torsion [N]-CA--C-[N] |==|  0.43155
USER: genes 8 Torsion [C]-N--CA-[CB] |==|  0.42449
USER: genes 9 Torsion [N]-CA--CB-[CG1] |==|  0.59120
USER: genes 10 Torsion [CA]-CB--CG1-[CD1] |==|  0.00527
USER: genes 11 Torsion [N]-CA--C-[OXT] |==|  0.32315
USER: genes 12 Torsion [N]-CA--CB-[CG] |==|  0.54942
USER: genes 13 Torsion [CA]-CB--CG-[CD] |==|  0.67440
USER: genes 14 Torsion [CB]-CG--CD-[CE] |==|  0.36773
USER: genes 15 Torsion [CG]-CD--CE-[NZ] |==|  0.78217
USER: genes 16 Torsion [CD]-CE--NZ-[HZ1] |==|  0.43151
USER: genes 17 Torsion [C]-CA--CB-[CG] |==|  0.87046
USER: genes 18 Torsion [CA]-CB--CG-[CD2] |==|  0.74010
USER: genes 19 Torsion [C]-CA--N-[C] |==|  0.50556
USER: genes 20 Torsion [N]-C--CA-[CB] |==|  0.06089
USER: genes 21 Torsion [N]-C--CA-[N] |==|  0.48960
USER: genes 22 Torsion [C]-CA--N-[C] |==|  0.58410
USER: genes 23 Torsion [N]-C--CA-[N] |==|  0.40575
USER: genes 24 Torsion [C]-CA--CB-[CG] |==|  0.31385
USER: genes 25 Torsion [CA]-CB--CG-[CD] |==|  0.19260
USER: genes 26 Torsion [CB]-CG--CD-[OE1] |==|  0.92875
USER: genes 27 Torsion [C]-CA--N-[H1] |==|  0.09467
USER: genes 28 Torsion [C]-CA--CB-[CG] |==|  0.35063
USER: genes 29 Torsion [CA]-CB--CG-[CD2] |==|  0.37252
ROOT
ATOM      1  CA  LEU B   4      55.872  86.288  28.896  1.00 30.07 LIG 0.18  C 
ENDROOT
BRANCH 1 2
ATOM      2  C   LEU B   4      54.733  86.876  29.689  1.00 30.58 LIG 0.24  C 
ATOM      3 O    LEU B   4      54.273  87.981  29.392  1.00 35.83 LIG-0.27  OA
ATOM      4  N   VAL B   5      54.324  86.181  30.747  1.00 32.24 LIG-0.35  N 
ATOM      5 H    VAL B   5      54.655  85.420  30.974  1.00 32.24 LIG 0.16  HD
BRANCH 4 6
ATOM      6  CA  VAL B   5      53.258  86.657  31.634  1.00 32.53 LIG 0.18  C 
BRANCH 6 7
ATOM      7  CB  VAL B   5      52.304  85.519  32.040  1.00 34.70 LIG 0.01  C 
ATOM      8  CG2 VAL B   5      53.043  84.547  32.923  1.00 38.22 LIG 0.01  C 
ATOM      9  CG1 VAL B   5      51.731  84.795  30.828  1.00 39.77 LIG 0.01  C 
ENDBRANCH 6 7
BRANCH 6 10
ATOM     10  C   VAL B   5      53.839  87.264  32.882  1.00 39.16 LIG 0.24  C 
ATOM     11 O    VAL B   5      55.059  87.434  33.004  1.00 33.69 LIG-0.27  OA
ATOM     12  N   LYS B   6      52.951  87.623  33.793  1.00 40.12 LIG-0.35  N 
ATOM     13 H    LYS B   6      52.100  87.551  33.690  1.00 40.12 LIG 0.16  HD
BRANCH 12 14
ATOM     14  CA  LYS B   6      53.350  88.175  35.053  1.00 45.41 LIG 0.18  C 
BRANCH 14 15
ATOM     15  C   LYS B   6      53.346  86.968  35.966  1.00 44.99 LIG 0.24  C 
ATOM     16 O    LYS B   6      52.701  85.983  35.672  1.00 45.85 LIG-0.27  OA
ATOM     17  N   ILE B   7      54.102  86.975  37.043  1.00 47.54 LIG-0.34  N 
ATOM     18 H    ILE B   7      54.589  87.627  37.323  1.00 47.54 LIG 0.16  HD
BRANCH 17 19
ATOM     19  CA  ILE B   7      54.117  85.742  37.852  1.00 57.67 LIG 0.19  C 
BRANCH 19 20
ATOM     20  CB  ILE B   7      55.438  85.499  38.683  1.00 59.41 LIG 0.01  C 
ATOM     21  CG2 ILE B   7      55.377  86.155  40.058  1.00 60.58 LIG 0.01  C 
BRANCH 20 22
ATOM     22  CG1 ILE B   7      55.753  83.981  38.811  1.00 65.20 LIG 0.00  C 
ATOM     23  CD1 ILE B   7      54.806  83.006  38.106  1.00 51.92 LIG 0.01  C 
ENDBRANCH 20 22
ENDBRANCH 19 20
BRANCH 19 24
ATOM     24  C   ILE B   7      52.818  85.542  38.648  1.00 61.74 LIG 0.20  C 
ATOM     25 O    ILE B   7      52.422  86.310  39.510  1.00 61.53 LIG-0.65  OA
ATOM     26 OXT  ILE B   7      52.095  84.573  38.413  1.00 68.92 LIG-0.65  OA
ENDBRANCH 19 24
ENDBRANCH 17 19
ENDBRANCH 14 15
BRANCH 14 27
ATOM     27  CB  LYS B   6      52.313  89.239  35.451  1.00 46.87 LIG 0.04  C 
BRANCH 27 28
ATOM     28  CG  LYS B   6      52.774  90.213  36.518  1.00 55.56 LIG 0.00  C 
BRANCH 28 29
ATOM     29  CD  LYS B   6      51.938  90.120  37.787  1.00 60.95 LIG 0.03  C 
BRANCH 29 30
ATOM     30  CE  LYS B   6      52.821  90.049  39.039  1.00 62.93 LIG 0.23  C 
BRANCH 30 31
ATOM     31  NZ  LYS B   6      53.389  88.682  39.251  1.00 65.77 LIG-0.08  N 
ATOM     32 HZ1  LYS B   6      54.138  88.742  39.729  1.00 65.77 LIG 0.27  HD
ATOM     33 HZ2  LYS B   6      52.799  88.179  39.688  1.00 65.77 LIG 0.27  HD
ATOM     34 HZ3  LYS B   6      53.570  88.310  38.462  1.00 65.77 LIG 0.27  HD
ENDBRANCH 30 31
ENDBRANCH 29 30
ENDBRANCH 28 29
ENDBRANCH 27 28
ENDBRANCH 14 27
ENDBRANCH 12 14
ENDBRANCH 6 10
ENDBRANCH 4 6
ENDBRANCH 1 2
BRANCH 1 35
ATOM     35  CB  LEU B   4      57.150  86.640  29.630  1.00 28.63 LIG 0.04  C 
BRANCH 35 36
ATOM     36  CG  LEU B   4      57.172  88.109  30.035  1.00 30.56 LIG-0.02  C 
ATOM     37  CD2 LEU B   4      57.881  88.900  28.958  1.00 33.80 LIG 0.01  C 
ATOM     38  CD1 LEU B   4      57.918  88.233  31.374  1.00 28.87 LIG 0.01  C 
ENDBRANCH 35 36
ENDBRANCH 1 35
BRANCH 1 39
ATOM     39  N   LEU B   4      56.024  86.728  27.490  1.00 28.62 LIG-0.35  N 
ATOM     40 H    LEU B   4      55.454  87.319  27.234  1.00 28.62 LIG 0.16  HD
ATOM     41  C   PRO B   3      56.973  86.229  26.724  1.00 33.12 LIG 0.24  C 
ATOM     42 O    PRO B   3      57.925  85.558  27.158  1.00 32.36 LIG-0.27  OA
BRANCH 41 43
ATOM     43  CA  PRO B   3      56.864  86.569  25.240  1.00 33.48 LIG 0.18  C 
ATOM     44  CB  PRO B   3      56.005  87.844  25.028  1.00 32.62 LIG 0.04  C 
ATOM     45  CG  PRO B   3      55.132  87.541  23.839  1.00 32.85 LIG 0.02  C 
ATOM     46  CD  PRO B   3      54.906  86.032  23.871  1.00 29.95 LIG 0.13  C 
ATOM     47  N   PRO B   3      56.085  85.512  24.621  1.00 33.01 LIG-0.34  N 
ATOM     48  C   LEU B   2      56.541  84.244  24.732  1.00 31.97 LIG 0.24  C 
ATOM     49 O    LEU B   2      57.642  83.944  25.205  1.00 33.64 LIG-0.27  OA
BRANCH 48 50
ATOM     50  CA  LEU B   2      55.656  83.150  24.182  1.00 32.67 LIG 0.18  C 
BRANCH 50 51
ATOM     51  N   LEU B   2      56.413  81.914  24.345  1.00 33.85 LIG-0.35  N 
ATOM     52 H    LEU B   2      56.943  81.923  25.021  1.00 33.85 LIG 0.16  HD
ATOM     53  C   GLU B   1      56.299  80.871  23.529  1.00 36.42 LIG 0.25  C 
ATOM     54 O    GLU B   1      55.353  80.756  22.732  1.00 32.31 LIG-0.27  OA
BRANCH 53 55
ATOM     55  CA  GLU B   1      57.347  79.749  23.704  1.00 35.71 LIG 0.28  C 
BRANCH 55 56
ATOM     56  CB  GLU B   1      58.515  80.015  22.747  1.00 39.23 LIG 0.05  C 
BRANCH 56 57
ATOM     57  CG  GLU B   1      59.812  80.362  23.476  1.00 48.64 LIG 0.12  C 
BRANCH 57 58
ATOM     58  CD  GLU B   1      60.458  79.208  24.256  1.00 56.94 LIG 0.17  C 
ATOM     59 OE1  GLU B   1      59.701  78.302  24.643  1.00 65.53 LIG-0.65  OA
ATOM     60 OE2  GLU B   1      61.696  79.189  24.508  1.00 53.19 LIG-0.65  OA
ENDBRANCH 57 58
ENDBRANCH 56 57
ENDBRANCH 55 56
BRANCH 55 61
ATOM     61  N   GLU B   1      56.764  78.392  23.426  1.00 36.67 LIG-0.07  N 
ATOM     62 H1   GLU B   1      56.153  78.457  22.782  1.00 36.67 LIG 0.28  HD
ATOM     63 H3   GLU B   1      56.383  78.075  24.165  1.00 36.67 LIG 0.28  HD
ATOM     64 H2   GLU B   1      57.411  77.838  23.166  1.00 36.67 LIG 0.28  HD
ENDBRANCH 55 61
ENDBRANCH 53 55
ENDBRANCH 50 51
BRANCH 50 65
ATOM     65  CB  LEU B   2      54.311  83.132  24.954  1.00 34.84 LIG 0.04  C 
BRANCH 65 66
ATOM     66  CG  LEU B   2      53.030  83.218  24.108  1.00 34.30 LIG-0.02  C 
ATOM     67  CD2 LEU B   2      51.978  82.187  24.554  1.00 39.39 LIG 0.01  C 
ATOM     68  CD1 LEU B   2      53.302  83.091  22.607  1.00 34.61 LIG 0.01  C 
ENDBRANCH 65 66
ENDBRANCH 50 65
ENDBRANCH 48 50
ENDBRANCH 41 43
ENDBRANCH 1 39
TORSDOF 28
ENDMDL
MODEL 50
USER: ADFR SOLUTION from run 73
USER: SCORE 22.766212 LL:  -5.976 LR: -18.507 RR:   0.000 FEB: -10.154
USER: RMSD 6.529711
USER: SEED 72
USER: STATUS no improvement in best in 9 clusters for 5 generations
USER: GENES 30
USER: genes 0 Translation |==|  0.50264 0.46919 0.33381
USER: genes 1 Rotation |==|  0.73498 0.68444 0.15977 0.71214
USER: genes 2 Torsion [N]-CA--C-[N] |==|  0.14693
USER: genes 3 Torsion [C]-N--CA-[C] |==|  0.68472
USER: genes 4 Torsion [N]-CA--CB-[CG2] |==|  0.04381
USER: genes 5 Torsion [N]-CA--C-[N] |==|  0.39734
USER: genes 6 Torsion [C]-N--CA-[C] |==|  0.21091
USER: genes 7 Torsion [N]-CA--C-[N] |==|  0.47080
USER: genes 8 Torsion [C]-N--CA-[CB] |==|  0.36326
USER: genes 9 Torsion [N]-CA--CB-[CG1] |==|  0.74528
USER: genes 10 Torsion [CA]-CB--CG1-[CD1] |==|  0.99041
USER: genes 11 Torsion [N]-CA--C-[OXT] |==|  0.85212
USER: genes 12 Torsion [N]-CA--CB-[CG] |==|  0.40266
USER: genes 13 Torsion [CA]-CB--CG-[CD] |==|  0.75095
USER: genes 14 Torsion [CB]-CG--CD-[CE] |==|  0.56050
USER: genes 15 Torsion [CG]-CD--CE-[NZ] |==|  0.37923
USER: genes 16 Torsion [CD]-CE--NZ-[HZ1] |==|  0.09825
USER: genes 17 Torsion [C]-CA--CB-[CG] |==|  0.36261
USER: genes 18 Torsion [CA]-CB--CG-[CD2] |==|  0.49605
USER: genes 19 Torsion [C]-CA--N-[C] |==|  0.77733
USER: genes 20 Torsion [N]-C--CA-[CB] |==|  0.71066
USER: genes 21 Torsion [N]-C--CA-[N] |==|  0.15555
USER: genes 22 Torsion [C]-CA--N-[C] |==|  0.16074
USER: genes 23 Torsion [N]-C--CA-[N] |==|  0.03776
USER: genes 24 Torsion [C]-CA--CB-[CG] |==|  0.24741
USER: genes 25 Torsion [CA]-CB--CG-[CD] |==|  0.57908
USER: genes 26 Torsion [CB]-CG--CD-[OE1] |==|  0.66707
USER: genes 27 Torsion [C]-CA--N-[H1] |==|  0.55745
USER: genes 28 Torsion [C]-CA--CB-[CG] |==|  0.27002
USER: genes 29 Torsion [CA]-CB--CG-[CD2] |==|  0.21631
ROOT
ATOM      1  CA  LEU B   4      55.694  85.633  26.408  1.00 30.07 LIG 0.18  C 
ENDROOT
BRANCH 1 2
ATOM      2  C   LEU B   4      55.902  85.664  27.901  1.00 30.58 LIG 0.24  C 
ATOM      3 O    LEU B   4      56.090  84.618  28.525  1.00 35.83 LIG-0.27  OA
ATOM      4  N   VAL B   5      55.789  86.851  28.492  1.00 32.24 LIG-0.35  N 
ATOM      5 H    VAL B   5      55.636  87.582  28.066  1.00 32.24 LIG 0.16  HD
BRANCH 4 6
ATOM      6  CA  VAL B   5      55.920  87.020  29.942  1.00 32.53 LIG 0.18  C 
BRANCH 6 7
ATOM      7  CB  VAL B   5      56.987  88.070  30.300  1.00 34.70 LIG 0.01  C 
ATOM      8  CG2 VAL B   5      57.307  88.886  29.074  1.00 38.22 LIG 0.01  C 
ATOM      9  CG1 VAL B   5      58.256  87.429  30.849  1.00 39.77 LIG 0.01  C 
ENDBRANCH 6 7
BRANCH 6 10
ATOM     10  C   VAL B   5      54.609  87.444  30.545  1.00 39.16 LIG 0.24  C 
ATOM     11 O    VAL B   5      53.836  88.195  29.936  1.00 33.69 LIG-0.27  OA
ATOM     12  N   LYS B   6      54.347  86.927  31.734  1.00 40.12 LIG-0.35  N 
ATOM     13 H    LYS B   6      54.860  86.367  32.138  1.00 40.12 LIG 0.16  HD
BRANCH 12 14
ATOM     14  CA  LYS B   6      53.159  87.269  32.456  1.00 45.41 LIG 0.18  C 
BRANCH 14 15
ATOM     15  C   LYS B   6      52.087  86.483  31.734  1.00 44.99 LIG 0.24  C 
ATOM     16 O    LYS B   6      52.352  85.886  30.712  1.00 45.85 LIG-0.27  OA
ATOM     17  N   ILE B   7      50.885  86.398  32.264  1.00 47.54 LIG-0.34  N 
ATOM     18 H    ILE B   7      50.614  86.786  32.983  1.00 47.54 LIG 0.16  HD
BRANCH 17 19
ATOM     19  CA  ILE B   7      49.905  85.554  31.556  1.00 57.67 LIG 0.19  C 
BRANCH 19 20
ATOM     20  CB  ILE B   7      49.134  84.516  32.462  1.00 59.41 LIG 0.01  C 
ATOM     21  CG2 ILE B   7      47.684  84.339  32.024  1.00 60.58 LIG 0.01  C 
BRANCH 20 22
ATOM     22  CG1 ILE B   7      49.867  83.144  32.499  1.00 65.20 LIG 0.00  C 
ATOM     23  CD1 ILE B   7      51.117  82.993  31.627  1.00 51.92 LIG 0.01  C 
ENDBRANCH 20 22
ENDBRANCH 19 20
BRANCH 19 24
ATOM     24  C   ILE B   7      49.006  86.362  30.607  1.00 61.74 LIG 0.20  C 
ATOM     25 O    ILE B   7      48.832  86.082  29.431  1.00 61.53 LIG-0.65  OA
ATOM     26 OXT  ILE B   7      48.389  87.341  31.027  1.00 68.92 LIG-0.65  OA
ENDBRANCH 19 24
ENDBRANCH 17 19
ENDBRANCH 14 15
BRANCH 14 27
ATOM     27  CB  LYS B   6      52.966  88.792  32.352  1.00 46.87 LIG 0.04  C 
BRANCH 27 28
ATOM     28  CG  LYS B   6      51.523  89.250  32.274  1.00 55.56 LIG 0.00  C 
BRANCH 28 29
ATOM     29  CD  LYS B   6      51.016  89.327  30.841  1.00 60.95 LIG 0.03  C 
BRANCH 29 30
ATOM     30  CE  LYS B   6      49.808  90.263  30.719  1.00 62.93 LIG 0.23  C 
BRANCH 30 31
ATOM     31  NZ  LYS B   6      49.903  91.153  29.521  1.00 65.77 LIG-0.08  N 
ATOM     32 HZ1  LYS B   6      50.290  90.711  28.852  1.00 65.77 LIG 0.27  HD
ATOM     33 HZ2  LYS B   6      49.087  91.408  29.275  1.00 65.77 LIG 0.27  HD
ATOM     34 HZ3  LYS B   6      50.390  91.871  29.722  1.00 65.77 LIG 0.27  HD
ENDBRANCH 30 31
ENDBRANCH 29 30
ENDBRANCH 28 29
ENDBRANCH 27 28
ENDBRANCH 14 27
ENDBRANCH 12 14
ENDBRANCH 6 10
ENDBRANCH 4 6
ENDBRANCH 1 2
BRANCH 1 35
ATOM     35  CB  LEU B   4      56.015  84.226  25.945  1.00 28.63 LIG 0.04  C 
BRANCH 35 36
ATOM     36  CG  LEU B   4      54.910  83.670  25.056  1.00 30.56 LIG-0.02  C 
ATOM     37  CD2 LEU B   4      55.304  82.282  24.600  1.00 33.80 LIG 0.01  C 
ATOM     38  CD1 LEU B   4      54.741  84.606  23.847  1.00 28.87 LIG 0.01  C 
ENDBRANCH 35 36
ENDBRANCH 1 35
BRANCH 1 39
ATOM     39  N   LEU B   4      56.495  86.570  25.588  1.00 28.62 LIG-0.35  N 
ATOM     40 H    LEU B   4      57.186  86.221  25.213  1.00 28.62 LIG 0.16  HD
ATOM     41  C   PRO B   3      56.143  87.835  25.469  1.00 33.12 LIG 0.24  C 
ATOM     42 O    PRO B   3      55.035  88.276  25.819  1.00 32.36 LIG-0.27  OA
BRANCH 41 43
ATOM     43  CA  PRO B   3      57.180  88.746  24.816  1.00 33.48 LIG 0.18  C 
ATOM     44  CB  PRO B   3      57.889  89.624  25.881  1.00 32.62 LIG 0.04  C 
ATOM     45  CG  PRO B   3      57.990  90.994  25.263  1.00 32.85 LIG 0.02  C 
ATOM     46  CD  PRO B   3      56.783  91.115  24.336  1.00 29.95 LIG 0.13  C 
ATOM     47  N   PRO B   3      56.448  89.700  24.002  1.00 33.01 LIG-0.34  N 
ATOM     48  C   LEU B   2      55.642  89.214  23.033  1.00 31.97 LIG 0.24  C 
ATOM     49 O    LEU B   2      55.592  88.024  22.706  1.00 33.64 LIG-0.27  OA
BRANCH 48 50
ATOM     50  CA  LEU B   2      54.803  90.219  22.275  1.00 32.67 LIG 0.18  C 
BRANCH 50 51
ATOM     51  N   LEU B   2      55.748  91.189  21.734  1.00 33.85 LIG-0.35  N 
ATOM     52 H    LEU B   2      55.592  91.997  21.986  1.00 33.85 LIG 0.16  HD
ATOM     53  C   GLU B   1      56.753  90.863  20.929  1.00 36.42 LIG 0.25  C 
ATOM     54 O    GLU B   1      57.134  89.689  20.790  1.00 32.31 LIG-0.27  OA
BRANCH 53 55
ATOM     55  CA  GLU B   1      57.500  92.038  20.258  1.00 35.71 LIG 0.28  C 
BRANCH 55 56
ATOM     56  CB  GLU B   1      59.008  91.787  20.370  1.00 39.23 LIG 0.05  C 
BRANCH 56 57
ATOM     57  CG  GLU B   1      59.564  90.983  19.195  1.00 48.64 LIG 0.12  C 
BRANCH 57 58
ATOM     58  CD  GLU B   1      60.800  90.129  19.507  1.00 56.94 LIG 0.17  C 
ATOM     59 OE1  GLU B   1      61.832  90.380  18.862  1.00 65.53 LIG-0.65  OA
ATOM     60 OE2  GLU B   1      60.766  89.202  20.366  1.00 53.19 LIG-0.65  OA
ENDBRANCH 57 58
ENDBRANCH 56 57
ENDBRANCH 55 56
BRANCH 55 61
ATOM     61  N   GLU B   1      57.157  93.355  20.896  1.00 36.67 LIG-0.07  N 
ATOM     62 H1   GLU B   1      57.346  94.017  20.331  1.00 36.67 LIG 0.28  HD
ATOM     63 H3   GLU B   1      57.633  93.458  21.641  1.00 36.67 LIG 0.28  HD
ATOM     64 H2   GLU B   1      56.290  93.372  21.094  1.00 36.67 LIG 0.28  HD
ENDBRANCH 55 61
ENDBRANCH 53 55
ENDBRANCH 50 51
BRANCH 50 65
ATOM     65  CB  LEU B   2      53.995  89.491  21.170  1.00 34.84 LIG 0.04  C 
BRANCH 65 66
ATOM     66  CG  LEU B   2      52.540  89.124  21.508  1.00 34.30 LIG-0.02  C 
ATOM     67  CD2 LEU B   2      51.604  90.340  21.409  1.00 39.39 LIG 0.01  C 
ATOM     68  CD1 LEU B   2      52.403  88.453  22.877  1.00 34.61 LIG 0.01  C 
ENDBRANCH 65 66
ENDBRANCH 50 65
ENDBRANCH 48 50
ENDBRANCH 41 43
ENDBRANCH 1 39
TORSDOF 28
ENDMDL
MODEL 51
USER: ADFR SOLUTION from run 145
USER: SCORE 25.018231 LL:  -6.874 LR: -18.492 RR:   0.000 FEB: -10.140
USER: RMSD 7.089079
USER: SEED 144
USER: STATUS no improvement in best in 4 clusters for 5 generations
USER: GENES 30
USER: genes 0 Translation |==|  0.34802 0.53299 0.54077
USER: genes 1 Rotation |==|  0.69879 0.47084 0.04255 0.51935
USER: genes 2 Torsion [N]-CA--C-[N] |==|  0.46976
USER: genes 3 Torsion [C]-N--CA-[C] |==|  0.79701
USER: genes 4 Torsion [N]-CA--CB-[CG2] |==|  0.89630
USER: genes 5 Torsion [N]-CA--C-[N] |==|  0.44310
USER: genes 6 Torsion [C]-N--CA-[C] |==|  0.65556
USER: genes 7 Torsion [N]-CA--C-[N] |==|  0.99445
USER: genes 8 Torsion [C]-N--CA-[CB] |==|  0.86193
USER: genes 9 Torsion [N]-CA--CB-[CG1] |==|  0.81490
USER: genes 10 Torsion [CA]-CB--CG1-[CD1] |==|  0.21532
USER: genes 11 Torsion [N]-CA--C-[OXT] |==|  0.78646
USER: genes 12 Torsion [N]-CA--CB-[CG] |==|  0.57409
USER: genes 13 Torsion [CA]-CB--CG-[CD] |==|  0.69001
USER: genes 14 Torsion [CB]-CG--CD-[CE] |==|  0.42648
USER: genes 15 Torsion [CG]-CD--CE-[NZ] |==|  0.13312
USER: genes 16 Torsion [CD]-CE--NZ-[HZ1] |==|  0.34718
USER: genes 17 Torsion [C]-CA--CB-[CG] |==|  0.88863
USER: genes 18 Torsion [CA]-CB--CG-[CD2] |==|  0.73510
USER: genes 19 Torsion [C]-CA--N-[C] |==|  0.78439
USER: genes 20 Torsion [N]-C--CA-[CB] |==|  0.88706
USER: genes 21 Torsion [N]-C--CA-[N] |==|  0.40104
USER: genes 22 Torsion [C]-CA--N-[C] |==|  0.79720
USER: genes 23 Torsion [N]-C--CA-[N] |==|  0.49612
USER: genes 24 Torsion [C]-CA--CB-[CG] |==|  0.86591
USER: genes 25 Torsion [CA]-CB--CG-[CD] |==|  0.74754
USER: genes 26 Torsion [CB]-CG--CD-[OE1] |==|  0.65291
USER: genes 27 Torsion [C]-CA--N-[H1] |==|  0.64241
USER: genes 28 Torsion [C]-CA--CB-[CG] |==|  0.15461
USER: genes 29 Torsion [CA]-CB--CG-[CD2] |==|  0.68314
ROOT
ATOM      1  CA  LEU B   4      52.448  87.068  31.686  1.00 30.07 LIG 0.18  C 
ENDROOT
BRANCH 1 2
ATOM      2  C   LEU B   4      53.207  87.240  32.976  1.00 30.58 LIG 0.24  C 
ATOM      3 O    LEU B   4      54.267  86.638  33.159  1.00 35.83 LIG-0.27  OA
ATOM      4  N   VAL B   5      52.632  87.997  33.908  1.00 32.24 LIG-0.35  N 
ATOM      5 H    VAL B   5      51.882  88.402  33.796  1.00 32.24 LIG 0.16  HD
BRANCH 4 6
ATOM      6  CA  VAL B   5      53.237  88.211  35.227  1.00 32.53 LIG 0.18  C 
BRANCH 6 7
ATOM      7  CB  VAL B   5      52.571  89.379  35.976  1.00 34.70 LIG 0.01  C 
ATOM      8  CG2 VAL B   5      52.229  90.466  34.990  1.00 38.22 LIG 0.01  C 
ATOM      9  CG1 VAL B   5      53.465  89.933  37.078  1.00 39.77 LIG 0.01  C 
ENDBRANCH 6 7
BRANCH 6 10
ATOM     10  C   VAL B   5      53.118  86.971  36.070  1.00 39.16 LIG 0.24  C 
ATOM     11 O    VAL B   5      52.298  86.085  35.796  1.00 33.69 LIG-0.27  OA
ATOM     12  N   LYS B   6      53.971  86.897  37.078  1.00 40.12 LIG-0.35  N 
ATOM     13 H    LYS B   6      54.574  87.489  37.241  1.00 40.12 LIG 0.16  HD
BRANCH 12 14
ATOM     14  CA  LYS B   6      53.953  85.800  37.997  1.00 45.41 LIG 0.18  C 
BRANCH 14 15
ATOM     15  C   LYS B   6      53.791  86.484  39.337  1.00 44.99 LIG 0.24  C 
ATOM     16 O    LYS B   6      53.765  85.828  40.358  1.00 45.85 LIG-0.27  OA
ATOM     17  N   ILE B   7      53.749  87.799  39.387  1.00 47.54 LIG-0.34  N 
ATOM     18 H    ILE B   7      53.762  88.337  38.716  1.00 47.54 LIG 0.16  HD
BRANCH 17 19
ATOM     19  CA  ILE B   7      53.669  88.411  40.726  1.00 57.67 LIG 0.19  C 
BRANCH 19 20
ATOM     20  CB  ILE B   7      52.552  87.816  41.671  1.00 59.41 LIG 0.01  C 
ATOM     21  CG2 ILE B   7      52.704  88.297  43.109  1.00 60.58 LIG 0.01  C 
BRANCH 20 22
ATOM     22  CG1 ILE B   7      51.127  88.134  41.132  1.00 65.20 LIG 0.00  C 
ATOM     23  CD1 ILE B   7      50.615  87.289  39.962  1.00 51.92 LIG 0.01  C 
ENDBRANCH 20 22
ENDBRANCH 19 20
BRANCH 19 24
ATOM     24  C   ILE B   7      55.046  88.567  41.388  1.00 61.74 LIG 0.20  C 
ATOM     25 O    ILE B   7      55.639  89.630  41.485  1.00 61.53 LIG-0.65  OA
ATOM     26 OXT  ILE B   7      55.606  87.588  41.884  1.00 68.92 LIG-0.65  OA
ENDBRANCH 19 24
ENDBRANCH 17 19
ENDBRANCH 14 15
BRANCH 14 27
ATOM     27  CB  LYS B   6      55.288  85.048  37.859  1.00 46.87 LIG 0.04  C 
BRANCH 27 28
ATOM     28  CG  LYS B   6      55.236  83.578  38.231  1.00 55.56 LIG 0.00  C 
BRANCH 28 29
ATOM     29  CD  LYS B   6      56.018  83.274  39.501  1.00 60.95 LIG 0.03  C 
BRANCH 29 30
ATOM     30  CE  LYS B   6      55.469  82.035  40.218  1.00 62.93 LIG 0.23  C 
BRANCH 30 31
ATOM     31  NZ  LYS B   6      55.264  80.887  39.282  1.00 65.77 LIG-0.08  N 
ATOM     32 HZ1  LYS B   6      55.706  80.176  39.583  1.00 65.77 LIG 0.27  HD
ATOM     33 HZ2  LYS B   6      54.396  80.697  39.230  1.00 65.77 LIG 0.27  HD
ATOM     34 HZ3  LYS B   6      55.568  81.105  38.474  1.00 65.77 LIG 0.27  HD
ENDBRANCH 30 31
ENDBRANCH 29 30
ENDBRANCH 28 29
ENDBRANCH 27 28
ENDBRANCH 14 27
ENDBRANCH 12 14
ENDBRANCH 6 10
ENDBRANCH 4 6
ENDBRANCH 1 2
BRANCH 1 35
ATOM     35  CB  LEU B   4      51.237  86.212  31.994  1.00 28.63 LIG 0.04  C 
BRANCH 35 36
ATOM     36  CG  LEU B   4      51.584  85.087  32.961  1.00 30.56 LIG-0.02  C 
ATOM     37  CD2 LEU B   4      51.889  83.836  32.166  1.00 33.80 LIG 0.01  C 
ATOM     38  CD1 LEU B   4      50.380  84.855  33.889  1.00 28.87 LIG 0.01  C 
ENDBRANCH 35 36
ENDBRANCH 1 35
BRANCH 1 39
ATOM     39  N   LEU B   4      53.164  86.443  30.550  1.00 28.62 LIG-0.35  N 
ATOM     40 H    LEU B   4      52.967  85.619  30.409  1.00 28.62 LIG 0.16  HD
ATOM     41  C   PRO B   3      54.031  87.133  29.836  1.00 33.12 LIG 0.24  C 
ATOM     42 O    PRO B   3      54.142  88.370  29.895  1.00 32.36 LIG-0.27  OA
BRANCH 41 43
ATOM     43  CA  PRO B   3      54.883  86.315  28.869  1.00 33.48 LIG 0.18  C 
ATOM     44  CB  PRO B   3      55.332  84.981  29.523  1.00 32.62 LIG 0.04  C 
ATOM     45  CG  PRO B   3      56.774  84.808  29.123  1.00 32.85 LIG 0.02  C 
ATOM     46  CD  PRO B   3      57.328  86.222  28.970  1.00 29.95 LIG 0.13  C 
ATOM     47  N   PRO B   3      56.121  87.047  28.675  1.00 33.01 LIG-0.34  N 
ATOM     48  C   LEU B   2      56.040  88.311  28.202  1.00 31.97 LIG 0.24  C 
ATOM     49 O    LEU B   2      54.996  88.831  27.796  1.00 33.64 LIG-0.27  OA
BRANCH 48 50
ATOM     50  CA  LEU B   2      57.331  89.093  28.118  1.00 32.67 LIG 0.18  C 
BRANCH 50 51
ATOM     51  N   LEU B   2      57.213  89.915  26.919  1.00 33.85 LIG-0.35  N 
ATOM     52 H    LEU B   2      57.086  90.749  27.086  1.00 33.85 LIG 0.16  HD
ATOM     53  C   GLU B   1      57.293  89.428  25.685  1.00 36.42 LIG 0.25  C 
ATOM     54 O    GLU B   1      57.742  88.294  25.450  1.00 32.31 LIG-0.27  OA
BRANCH 53 55
ATOM     55  CA  GLU B   1      56.904  90.394  24.543  1.00 35.71 LIG 0.28  C 
BRANCH 55 56
ATOM     56  CB  GLU B   1      55.447  90.826  24.742  1.00 39.23 LIG 0.05  C 
BRANCH 56 57
ATOM     57  CG  GLU B   1      54.510  89.649  25.011  1.00 48.64 LIG 0.12  C 
BRANCH 57 58
ATOM     58  CD  GLU B   1      53.865  89.022  23.768  1.00 56.94 LIG 0.17  C 
ATOM     59 OE1  GLU B   1      52.625  88.949  23.758  1.00 65.53 LIG-0.65  OA
ATOM     60 OE2  GLU B   1      54.561  88.585  22.808  1.00 53.19 LIG-0.65  OA
ENDBRANCH 57 58
ENDBRANCH 56 57
ENDBRANCH 55 56
BRANCH 55 61
ATOM     61  N   GLU B   1      57.062  89.754  23.192  1.00 36.67 LIG-0.07  N 
ATOM     62 H1   GLU B   1      57.546  90.284  22.667  1.00 36.67 LIG 0.28  HD
ATOM     63 H3   GLU B   1      56.260  89.627  22.827  1.00 36.67 LIG 0.28  HD
ATOM     64 H2   GLU B   1      57.473  88.969  23.281  1.00 36.67 LIG 0.28  HD
ENDBRANCH 55 61
ENDBRANCH 53 55
ENDBRANCH 50 51
BRANCH 50 65
ATOM     65  CB  LEU B   2      57.511  89.937  29.406  1.00 34.84 LIG 0.04  C 
BRANCH 65 66
ATOM     66  CG  LEU B   2      57.474  89.174  30.741  1.00 34.30 LIG-0.02  C 
ATOM     67  CD2 LEU B   2      56.253  89.564  31.591  1.00 39.39 LIG 0.01  C 
ATOM     68  CD1 LEU B   2      58.763  89.334  31.549  1.00 34.61 LIG 0.01  C 
ENDBRANCH 65 66
ENDBRANCH 50 65
ENDBRANCH 48 50
ENDBRANCH 41 43
ENDBRANCH 1 39
TORSDOF 28
ENDMDL
MODEL 52
USER: ADFR SOLUTION from run 131
USER: SCORE 25.959112 LL:  -8.416 LR: -18.485 RR:   0.000 FEB: -10.133
USER: RMSD 3.911057
USER: SEED 130
USER: STATUS no improvement in best in 3 clusters for 5 generations
USER: GENES 30
USER: genes 0 Translation |==|  0.48970 0.56161 0.41745
USER: genes 1 Rotation |==|  0.62360 0.64590 0.44480 0.95868
USER: genes 2 Torsion [N]-CA--C-[N] |==|  0.45428
USER: genes 3 Torsion [C]-N--CA-[C] |==|  0.78906
USER: genes 4 Torsion [N]-CA--CB-[CG2] |==|  0.75060
USER: genes 5 Torsion [N]-CA--C-[N] |==|  0.40639
USER: genes 6 Torsion [C]-N--CA-[C] |==|  0.72566
USER: genes 7 Torsion [N]-CA--C-[N] |==|  0.41404
USER: genes 8 Torsion [C]-N--CA-[CB] |==|  0.28437
USER: genes 9 Torsion [N]-CA--CB-[CG1] |==|  0.58344
USER: genes 10 Torsion [CA]-CB--CG1-[CD1] |==|  0.62680
USER: genes 11 Torsion [N]-CA--C-[OXT] |==|  0.00632
USER: genes 12 Torsion [N]-CA--CB-[CG] |==|  0.29078
USER: genes 13 Torsion [CA]-CB--CG-[CD] |==|  0.26288
USER: genes 14 Torsion [CB]-CG--CD-[CE] |==|  0.98125
USER: genes 15 Torsion [CG]-CD--CE-[NZ] |==|  0.57802
USER: genes 16 Torsion [CD]-CE--NZ-[HZ1] |==|  0.15356
USER: genes 17 Torsion [C]-CA--CB-[CG] |==|  0.90241
USER: genes 18 Torsion [CA]-CB--CG-[CD2] |==|  0.75041
USER: genes 19 Torsion [C]-CA--N-[C] |==|  0.69185
USER: genes 20 Torsion [N]-C--CA-[CB] |==|  0.59914
USER: genes 21 Torsion [N]-C--CA-[N] |==|  0.82778
USER: genes 22 Torsion [C]-CA--N-[C] |==|  0.87537
USER: genes 23 Torsion [N]-C--CA-[N] |==|  0.30536
USER: genes 24 Torsion [C]-CA--CB-[CG] |==|  0.73503
USER: genes 25 Torsion [CA]-CB--CG-[CD] |==|  0.17739
USER: genes 26 Torsion [CB]-CG--CD-[OE1] |==|  0.77507
USER: genes 27 Torsion [C]-CA--N-[H1] |==|  0.08640
USER: genes 28 Torsion [C]-CA--CB-[CG] |==|  0.58839
USER: genes 29 Torsion [CA]-CB--CG-[CD2] |==|  0.60714
ROOT
ATOM      1  CA  LEU B   4      55.423  87.712  28.541  1.00 30.07 LIG 0.18  C 
ENDROOT
BRANCH 1 2
ATOM      2  C   LEU B   4      54.407  87.649  29.652  1.00 30.58 LIG 0.24  C 
ATOM      3 O    LEU B   4      53.736  88.642  29.940  1.00 35.83 LIG-0.27  OA
ATOM      4  N   VAL B   5      54.343  86.508  30.335  1.00 32.24 LIG-0.35  N 
ATOM      5 H    VAL B   5      54.824  85.819  30.155  1.00 32.24 LIG 0.16  HD
BRANCH 4 6
ATOM      6  CA  VAL B   5      53.435  86.324  31.471  1.00 32.53 LIG 0.18  C 
BRANCH 6 7
ATOM      7  CB  VAL B   5      53.244  84.836  31.813  1.00 34.70 LIG 0.01  C 
ATOM      8  CG2 VAL B   5      52.080  84.294  31.024  1.00 38.22 LIG 0.01  C 
ATOM      9  CG1 VAL B   5      53.014  84.617  33.303  1.00 39.77 LIG 0.01  C 
ENDBRANCH 6 7
BRANCH 6 10
ATOM     10  C   VAL B   5      53.962  87.032  32.690  1.00 39.16 LIG 0.24  C 
ATOM     11 O    VAL B   5      55.178  87.151  32.887  1.00 33.69 LIG-0.27  OA
ATOM     12  N   LYS B   6      53.035  87.535  33.488  1.00 40.12 LIG-0.35  N 
ATOM     13 H    LYS B   6      52.190  87.496  33.328  1.00 40.12 LIG 0.16  HD
BRANCH 12 14
ATOM     14  CA  LYS B   6      53.377  88.198  34.710  1.00 45.41 LIG 0.18  C 
BRANCH 14 15
ATOM     15  C   LYS B   6      53.163  87.120  35.751  1.00 44.99 LIG 0.24  C 
ATOM     16 O    LYS B   6      52.359  86.233  35.553  1.00 45.85 LIG-0.27  OA
ATOM     17  N   ILE B   7      53.907  87.119  36.837  1.00 47.54 LIG-0.34  N 
ATOM     18 H    ILE B   7      54.497  87.706  37.053  1.00 47.54 LIG 0.16  HD
BRANCH 17 19
ATOM     19  CA  ILE B   7      53.708  86.001  37.776  1.00 57.67 LIG 0.19  C 
BRANCH 19 20
ATOM     20  CB  ILE B   7      54.809  84.871  37.719  1.00 59.41 LIG 0.01  C 
ATOM     21  CG2 ILE B   7      56.014  85.201  38.593  1.00 60.58 LIG 0.01  C 
BRANCH 20 22
ATOM     22  CG1 ILE B   7      54.216  83.484  38.103  1.00 65.20 LIG 0.00  C 
ATOM     23  CD1 ILE B   7      55.021  82.624  39.081  1.00 51.92 LIG 0.01  C 
ENDBRANCH 20 22
ENDBRANCH 19 20
BRANCH 19 24
ATOM     24  C   ILE B   7      53.356  86.476  39.195  1.00 61.74 LIG 0.20  C 
ATOM     25 O    ILE B   7      53.213  85.726  40.148  1.00 61.53 LIG-0.65  OA
ATOM     26 OXT  ILE B   7      53.228  87.678  39.428  1.00 68.92 LIG-0.65  OA
ENDBRANCH 19 24
ENDBRANCH 17 19
ENDBRANCH 14 15
BRANCH 14 27
ATOM     27  CB  LYS B   6      52.427  89.397  34.877  1.00 46.87 LIG 0.04  C 
BRANCH 27 28
ATOM     28  CG  LYS B   6      51.330  89.205  35.906  1.00 55.56 LIG 0.00  C 
BRANCH 28 29
ATOM     29  CD  LYS B   6      51.712  89.764  37.270  1.00 60.95 LIG 0.03  C 
BRANCH 29 30
ATOM     30  CE  LYS B   6      53.173  90.229  37.299  1.00 62.93 LIG 0.23  C 
BRANCH 30 31
ATOM     31  NZ  LYS B   6      53.765  90.140  38.669  1.00 65.77 LIG-0.08  N 
ATOM     32 HZ1  LYS B   6      53.676  89.310  38.978  1.00 65.77 LIG 0.27  HD
ATOM     33 HZ2  LYS B   6      54.629  90.352  38.634  1.00 65.77 LIG 0.27  HD
ATOM     34 HZ3  LYS B   6      53.343  90.706  39.212  1.00 65.77 LIG 0.27  HD
ENDBRANCH 30 31
ENDBRANCH 29 30
ENDBRANCH 28 29
ENDBRANCH 27 28
ENDBRANCH 14 27
ENDBRANCH 12 14
ENDBRANCH 6 10
ENDBRANCH 4 6
ENDBRANCH 1 2
BRANCH 1 35
ATOM     35  CB  LEU B   4      56.782  87.873  29.191  1.00 28.63 LIG 0.04  C 
BRANCH 35 36
ATOM     36  CG  LEU B   4      56.698  88.730  30.447  1.00 30.56 LIG-0.02  C 
ATOM     37  CD2 LEU B   4      56.905  90.179  30.063  1.00 33.80 LIG 0.01  C 
ATOM     38  CD1 LEU B   4      57.795  88.270  31.423  1.00 28.87 LIG 0.01  C 
ENDBRANCH 35 36
ENDBRANCH 1 35
BRANCH 1 39
ATOM     39  N   LEU B   4      55.271  88.793  27.539  1.00 28.62 LIG-0.35  N 
ATOM     40 H    LEU B   4      55.426  89.585  27.837  1.00 28.62 LIG 0.16  HD
ATOM     41  C   PRO B   3      54.924  88.520  26.298  1.00 33.12 LIG 0.24  C 
ATOM     42 O    PRO B   3      54.927  87.372  25.819  1.00 32.36 LIG-0.27  OA
BRANCH 41 43
ATOM     43  CA  PRO B   3      54.555  89.727  25.439  1.00 33.48 LIG 0.18  C 
ATOM     44  CB  PRO B   3      53.406  89.373  24.458  1.00 32.62 LIG 0.04  C 
ATOM     45  CG  PRO B   3      53.789  90.015  23.150  1.00 32.85 LIG 0.02  C 
ATOM     46  CD  PRO B   3      55.315  90.024  23.129  1.00 29.95 LIG 0.13  C 
ATOM     47  N   PRO B   3      55.690  89.991  24.573  1.00 33.01 LIG-0.34  N 
ATOM     48  C   LEU B   2      56.884  90.236  25.156  1.00 31.97 LIG 0.24  C 
ATOM     49 O    LEU B   2      57.043  90.386  26.371  1.00 33.64 LIG-0.27  OA
BRANCH 48 50
ATOM     50  CA  LEU B   2      58.074  90.393  24.235  1.00 32.67 LIG 0.18  C 
BRANCH 50 51
ATOM     51  N   LEU B   2      58.207  89.115  23.546  1.00 33.85 LIG-0.35  N 
ATOM     52 H    LEU B   2      58.344  89.193  22.701  1.00 33.85 LIG 0.16  HD
ATOM     53  C   GLU B   1      58.126  87.939  24.160  1.00 36.42 LIG 0.25  C 
ATOM     54 O    GLU B   1      58.203  87.832  25.395  1.00 32.31 LIG-0.27  OA
BRANCH 53 55
ATOM     55  CA  GLU B   1      58.045  86.695  23.247  1.00 35.71 LIG 0.28  C 
BRANCH 55 56
ATOM     56  CB  GLU B   1      56.853  85.840  23.688  1.00 39.23 LIG 0.05  C 
BRANCH 56 57
ATOM     57  CG  GLU B   1      57.250  84.719  24.648  1.00 48.64 LIG 0.12  C 
BRANCH 57 58
ATOM     58  CD  GLU B   1      57.816  85.177  25.998  1.00 56.94 LIG 0.17  C 
ATOM     59 OE1  GLU B   1      59.014  85.507  26.020  1.00 65.53 LIG-0.65  OA
ATOM     60 OE2  GLU B   1      57.105  85.201  27.042  1.00 53.19 LIG-0.65  OA
ENDBRANCH 57 58
ENDBRANCH 56 57
ENDBRANCH 55 56
BRANCH 55 61
ATOM     61  N   GLU B   1      59.305  85.877  23.305  1.00 36.67 LIG-0.07  N 
ATOM     62 H1   GLU B   1      59.671  85.951  24.113  1.00 36.67 LIG 0.28  HD
ATOM     63 H3   GLU B   1      59.879  86.171  22.692  1.00 36.67 LIG 0.28  HD
ATOM     64 H2   GLU B   1      59.112  85.023  23.143  1.00 36.67 LIG 0.28  HD
ENDBRANCH 55 61
ENDBRANCH 53 55
ENDBRANCH 50 51
BRANCH 50 65
ATOM     65  CB  LEU B   2      57.823  91.574  23.261  1.00 34.84 LIG 0.04  C 
BRANCH 65 66
ATOM     66  CG  LEU B   2      58.448  91.456  21.861  1.00 34.30 LIG-0.02  C 
ATOM     67  CD2 LEU B   2      58.990  92.805  21.360  1.00 39.39 LIG 0.01  C 
ATOM     68  CD1 LEU B   2      57.489  90.850  20.834  1.00 34.61 LIG 0.01  C 
ENDBRANCH 65 66
ENDBRANCH 50 65
ENDBRANCH 48 50
ENDBRANCH 41 43
ENDBRANCH 1 39
TORSDOF 28
ENDMDL
MODEL 53
USER: ADFR SOLUTION from run 139
USER: SCORE 25.182342 LL:  -7.236 LR: -18.478 RR:   0.000 FEB: -10.125
USER: RMSD 13.048179
USER: SEED 138
USER: STATUS searching
USER: GENES 30
USER: genes 0 Translation |==|  0.52217 0.53537 0.44123
USER: genes 1 Rotation |==|  0.12924 0.30905 0.22459 0.51512
USER: genes 2 Torsion [N]-CA--C-[N] |==|  0.40958
USER: genes 3 Torsion [C]-N--CA-[C] |==|  0.85400
USER: genes 4 Torsion [N]-CA--CB-[CG2] |==|  0.10502
USER: genes 5 Torsion [N]-CA--C-[N] |==|  0.37778
USER: genes 6 Torsion [C]-N--CA-[C] |==|  0.72896
USER: genes 7 Torsion [N]-CA--C-[N] |==|  0.24894
USER: genes 8 Torsion [C]-N--CA-[CB] |==|  0.24466
USER: genes 9 Torsion [N]-CA--CB-[CG1] |==|  0.05964
USER: genes 10 Torsion [CA]-CB--CG1-[CD1] |==|  0.41329
USER: genes 11 Torsion [N]-CA--C-[OXT] |==|  0.20798
USER: genes 12 Torsion [N]-CA--CB-[CG] |==|  0.02229
USER: genes 13 Torsion [CA]-CB--CG-[CD] |==|  0.42549
USER: genes 14 Torsion [CB]-CG--CD-[CE] |==|  0.02815
USER: genes 15 Torsion [CG]-CD--CE-[NZ] |==|  0.38265
USER: genes 16 Torsion [CD]-CE--NZ-[HZ1] |==|  0.94215
USER: genes 17 Torsion [C]-CA--CB-[CG] |==|  0.34894
USER: genes 18 Torsion [CA]-CB--CG-[CD2] |==|  0.17897
USER: genes 19 Torsion [C]-CA--N-[C] |==|  0.74120
USER: genes 20 Torsion [N]-C--CA-[CB] |==|  0.67884
USER: genes 21 Torsion [N]-C--CA-[N] |==|  0.87678
USER: genes 22 Torsion [C]-CA--N-[C] |==|  0.84434
USER: genes 23 Torsion [N]-C--CA-[N] |==|  0.48080
USER: genes 24 Torsion [C]-CA--CB-[CG] |==|  0.28513
USER: genes 25 Torsion [CA]-CB--CG-[CD] |==|  0.06767
USER: genes 26 Torsion [CB]-CG--CD-[OE1] |==|  0.64611
USER: genes 27 Torsion [C]-CA--N-[H1] |==|  0.85808
USER: genes 28 Torsion [C]-CA--CB-[CG] |==|  0.07853
USER: genes 29 Torsion [CA]-CB--CG-[CD2] |==|  0.65058
ROOT
ATOM      1  CA  LEU B   4      56.105  87.122  29.147  1.00 30.07 LIG 0.18  C 
ENDROOT
BRANCH 1 2
ATOM      2  C   LEU B   4      56.234  86.474  27.793  1.00 30.58 LIG 0.24  C 
ATOM      3 O    LEU B   4      56.385  85.254  27.698  1.00 35.83 LIG-0.27  OA
ATOM      4  N   VAL B   5      56.255  87.291  26.742  1.00 32.24 LIG-0.35  N 
ATOM      5 H    VAL B   5      56.173  88.145  26.802  1.00 32.24 LIG 0.16  HD
BRANCH 4 6
ATOM      6  CA  VAL B   5      56.423  86.800  25.371  1.00 32.53 LIG 0.18  C 
BRANCH 6 7
ATOM      7  CB  VAL B   5      56.570  87.957  24.366  1.00 34.70 LIG 0.01  C 
ATOM      8  CG2 VAL B   5      57.387  89.057  24.995  1.00 38.22 LIG 0.01  C 
ATOM      9  CG1 VAL B   5      55.218  88.499  23.919  1.00 39.77 LIG 0.01  C 
ENDBRANCH 6 7
BRANCH 6 10
ATOM     10  C   VAL B   5      57.639  85.920  25.270  1.00 39.16 LIG 0.24  C 
ATOM     11 O    VAL B   5      58.698  86.221  25.836  1.00 33.69 LIG-0.27  OA
ATOM     12  N   LYS B   6      57.468  84.809  24.573  1.00 40.12 LIG-0.35  N 
ATOM     13 H    LYS B   6      56.719  84.574  24.220  1.00 40.12 LIG 0.16  HD
BRANCH 12 14
ATOM     14  CA  LYS B   6      58.542  83.890  24.350  1.00 45.41 LIG 0.18  C 
BRANCH 14 15
ATOM     15  C   LYS B   6      59.031  84.272  22.969  1.00 44.99 LIG 0.24  C 
ATOM     16 O    LYS B   6      58.517  83.785  21.984  1.00 45.85 LIG-0.27  OA
ATOM     17  N   ILE B   7      59.970  85.187  22.850  1.00 47.54 LIG-0.34  N 
ATOM     18 H    ILE B   7      60.384  85.582  23.492  1.00 47.54 LIG 0.16  HD
BRANCH 17 19
ATOM     19  CA  ILE B   7      60.350  85.574  21.479  1.00 57.67 LIG 0.19  C 
BRANCH 19 20
ATOM     20  CB  ILE B   7      59.495  86.743  20.849  1.00 59.41 LIG 0.01  C 
ATOM     21  CG2 ILE B   7      58.469  86.226  19.847  1.00 60.58 LIG 0.01  C 
BRANCH 20 22
ATOM     22  CG1 ILE B   7      58.803  87.595  21.953  1.00 65.20 LIG 0.00  C 
ATOM     23  CD1 ILE B   7      58.579  89.080  21.654  1.00 51.92 LIG 0.01  C 
ENDBRANCH 20 22
ENDBRANCH 19 20
BRANCH 19 24
ATOM     24  C   ILE B   7      61.868  85.734  21.309  1.00 61.74 LIG 0.20  C 
ATOM     25 O    ILE B   7      62.438  86.812  21.251  1.00 61.53 LIG-0.65  OA
ATOM     26 OXT  ILE B   7      62.590  84.737  21.248  1.00 68.92 LIG-0.65  OA
ENDBRANCH 19 24
ENDBRANCH 17 19
ENDBRANCH 14 15
BRANCH 14 27
ATOM     27  CB  LYS B   6      57.966  82.466  24.414  1.00 46.87 LIG 0.04  C 
BRANCH 27 28
ATOM     28  CG  LYS B   6      56.454  82.390  24.495  1.00 55.56 LIG 0.00  C 
BRANCH 28 29
ATOM     29  CD  LYS B   6      55.907  81.092  23.918  1.00 60.95 LIG 0.03  C 
BRANCH 29 30
ATOM     30  CE  LYS B   6      57.030  80.086  23.633  1.00 62.93 LIG 0.23  C 
BRANCH 30 31
ATOM     31  NZ  LYS B   6      56.661  78.697  24.047  1.00 65.77 LIG-0.08  N 
ATOM     32 HZ1  LYS B   6      56.003  78.731  24.646  1.00 65.77 LIG 0.27  HD
ATOM     33 HZ2  LYS B   6      56.389  78.237  23.334  1.00 65.77 LIG 0.27  HD
ATOM     34 HZ3  LYS B   6      57.370  78.296  24.406  1.00 65.77 LIG 0.27  HD
ENDBRANCH 30 31
ENDBRANCH 29 30
ENDBRANCH 28 29
ENDBRANCH 27 28
ENDBRANCH 14 27
ENDBRANCH 12 14
ENDBRANCH 6 10
ENDBRANCH 4 6
ENDBRANCH 1 2
BRANCH 1 35
ATOM     35  CB  LEU B   4      57.510  87.367  29.657  1.00 28.63 LIG 0.04  C 
BRANCH 35 36
ATOM     36  CG  LEU B   4      57.714  88.828  30.038  1.00 30.56 LIG-0.02  C 
ATOM     37  CD2 LEU B   4      56.804  89.161  31.201  1.00 33.80 LIG 0.01  C 
ATOM     38  CD1 LEU B   4      57.371  89.701  28.819  1.00 28.87 LIG 0.01  C 
ENDBRANCH 35 36
ENDBRANCH 1 35
BRANCH 1 39
ATOM     39  N   LEU B   4      55.369  86.375  30.194  1.00 28.62 LIG-0.35  N 
ATOM     40 H    LEU B   4      55.848  85.822  30.646  1.00 28.62 LIG 0.16  HD
ATOM     41  C   PRO B   3      54.080  86.571  30.385  1.00 33.12 LIG 0.24  C 
ATOM     42 O    PRO B   3      53.449  87.524  29.894  1.00 32.36 LIG-0.27  OA
BRANCH 41 43
ATOM     43  CA  PRO B   3      53.393  85.568  31.307  1.00 33.48 LIG 0.18  C 
ATOM     44  CB  PRO B   3      52.331  84.744  30.530  1.00 32.62 LIG 0.04  C 
ATOM     45  CG  PRO B   3      51.144  84.655  31.453  1.00 32.85 LIG 0.02  C 
ATOM     46  CD  PRO B   3      51.179  85.932  32.289  1.00 29.95 LIG 0.13  C 
ATOM     47  N   PRO B   3      52.614  86.336  32.261  1.00 33.01 LIG-0.34  N 
ATOM     48  C   LEU B   2      53.268  87.236  33.029  1.00 31.97 LIG 0.24  C 
ATOM     49 O    LEU B   2      54.497  87.349  33.068  1.00 33.64 LIG-0.27  OA
BRANCH 48 50
ATOM     50  CA  LEU B   2      52.422  88.105  33.932  1.00 32.67 LIG 0.18  C 
BRANCH 50 51
ATOM     51  N   LEU B   2      51.296  88.541  33.114  1.00 33.85 LIG-0.35  N 
ATOM     52 H    LEU B   2      50.531  88.344  33.451  1.00 33.85 LIG 0.16  HD
ATOM     53  C   GLU B   1      51.435  89.182  31.958  1.00 36.42 LIG 0.25  C 
ATOM     54 O    GLU B   1      52.510  89.699  31.614  1.00 32.31 LIG-0.27  OA
BRANCH 53 55
ATOM     55  CA  GLU B   1      50.153  89.349  31.111  1.00 35.71 LIG 0.28  C 
BRANCH 55 56
ATOM     56  CB  GLU B   1      49.683  87.963  30.654  1.00 39.23 LIG 0.05  C 
BRANCH 56 57
ATOM     57  CG  GLU B   1      48.499  87.441  31.466  1.00 48.64 LIG 0.12  C 
BRANCH 57 58
ATOM     58  CD  GLU B   1      47.634  88.517  32.137  1.00 56.94 LIG 0.17  C 
ATOM     59 OE1  GLU B   1      47.430  88.392  33.356  1.00 65.53 LIG-0.65  OA
ATOM     60 OE2  GLU B   1      47.139  89.476  31.479  1.00 53.19 LIG-0.65  OA
ENDBRANCH 57 58
ENDBRANCH 56 57
ENDBRANCH 55 56
BRANCH 55 61
ATOM     61  N   GLU B   1      50.385  90.226  29.912  1.00 36.67 LIG-0.07  N 
ATOM     62 H1   GLU B   1      50.771  90.985  30.170  1.00 36.67 LIG 0.28  HD
ATOM     63 H3   GLU B   1      49.606  90.407  29.521  1.00 36.67 LIG 0.28  HD
ATOM     64 H2   GLU B   1      50.916  89.805  29.335  1.00 36.67 LIG 0.28  HD
ENDBRANCH 55 61
ENDBRANCH 53 55
ENDBRANCH 50 51
BRANCH 50 65
ATOM     65  CB  LEU B   2      51.978  87.287  35.172  1.00 34.84 LIG 0.04  C 
BRANCH 65 66
ATOM     66  CG  LEU B   2      52.912  86.149  35.618  1.00 34.30 LIG-0.02  C 
ATOM     67  CD2 LEU B   2      52.169  84.806  35.720  1.00 39.39 LIG 0.01  C 
ATOM     68  CD1 LEU B   2      53.640  86.460  36.927  1.00 34.61 LIG 0.01  C 
ENDBRANCH 65 66
ENDBRANCH 50 65
ENDBRANCH 48 50
ENDBRANCH 41 43
ENDBRANCH 1 39
TORSDOF 28
ENDMDL
MODEL 54
USER: ADFR SOLUTION from run 198
USER: SCORE 23.117476 LL:  -6.415 LR: -18.461 RR:   0.000 FEB: -10.108
USER: RMSD 12.874068
USER: SEED 197
USER: STATUS no improvement in best in 3 clusters for 5 generations
USER: GENES 30
USER: genes 0 Translation |==|  0.42833 0.54230 0.56495
USER: genes 1 Rotation |==|  0.70851 0.05898 0.60956 0.50446
USER: genes 2 Torsion [N]-CA--C-[N] |==|  0.37439
USER: genes 3 Torsion [C]-N--CA-[C] |==|  0.76711
USER: genes 4 Torsion [N]-CA--CB-[CG2] |==|  0.02882
USER: genes 5 Torsion [N]-CA--C-[N] |==|  0.21904
USER: genes 6 Torsion [C]-N--CA-[C] |==|  0.18267
USER: genes 7 Torsion [N]-CA--C-[N] |==|  0.68889
USER: genes 8 Torsion [C]-N--CA-[CB] |==|  0.40123
USER: genes 9 Torsion [N]-CA--CB-[CG1] |==|  0.13224
USER: genes 10 Torsion [CA]-CB--CG1-[CD1] |==|  0.16599
USER: genes 11 Torsion [N]-CA--C-[OXT] |==|  0.46935
USER: genes 12 Torsion [N]-CA--CB-[CG] |==|  0.62593
USER: genes 13 Torsion [CA]-CB--CG-[CD] |==|  0.82314
USER: genes 14 Torsion [CB]-CG--CD-[CE] |==|  0.63732
USER: genes 15 Torsion [CG]-CD--CE-[NZ] |==|  0.63951
USER: genes 16 Torsion [CD]-CE--NZ-[HZ1] |==|  0.64688
USER: genes 17 Torsion [C]-CA--CB-[CG] |==|  0.31523
USER: genes 18 Torsion [CA]-CB--CG-[CD2] |==|  0.71350
USER: genes 19 Torsion [C]-CA--N-[C] |==|  0.55741
USER: genes 20 Torsion [N]-C--CA-[CB] |==|  0.01114
USER: genes 21 Torsion [N]-C--CA-[N] |==|  0.16807
USER: genes 22 Torsion [C]-CA--N-[C] |==|  0.60925
USER: genes 23 Torsion [N]-C--CA-[N] |==|  0.40184
USER: genes 24 Torsion [C]-CA--CB-[CG] |==|  0.63573
USER: genes 25 Torsion [CA]-CB--CG-[CD] |==|  0.24019
USER: genes 26 Torsion [CB]-CG--CD-[OE1] |==|  0.77475
USER: genes 27 Torsion [C]-CA--N-[H1] |==|  0.90157
USER: genes 28 Torsion [C]-CA--CB-[CG] |==|  0.37064
USER: genes 29 Torsion [CA]-CB--CG-[CD2] |==|  0.38850
ROOT
ATOM      1  CA  LEU B   4      54.134  87.278  32.302  1.00 30.07 LIG 0.18  C 
ENDROOT
BRANCH 1 2
ATOM      2  C   LEU B   4      55.128  88.238  31.701  1.00 30.58 LIG 0.24  C 
ATOM      3 O    LEU B   4      54.776  89.371  31.368  1.00 35.83 LIG-0.27  OA
ATOM      4  N   VAL B   5      56.354  87.766  31.486  1.00 32.24 LIG-0.35  N 
ATOM      5 H    VAL B   5      56.601  86.970  31.695  1.00 32.24 LIG 0.16  HD
BRANCH 4 6
ATOM      6  CA  VAL B   5      57.407  88.576  30.864  1.00 32.53 LIG 0.18  C 
BRANCH 6 7
ATOM      7  CB  VAL B   5      58.811  88.089  31.266  1.00 34.70 LIG 0.01  C 
ATOM      8  CG2 VAL B   5      58.690  86.766  31.978  1.00 38.22 LIG 0.01  C 
ATOM      9  CG1 VAL B   5      59.533  89.097  32.152  1.00 39.77 LIG 0.01  C 
ENDBRANCH 6 7
BRANCH 6 10
ATOM     10  C   VAL B   5      57.294  88.529  29.365  1.00 39.16 LIG 0.24  C 
ATOM     11 O    VAL B   5      58.011  87.778  28.691  1.00 33.69 LIG-0.27  OA
ATOM     12  N   LYS B   6      56.360  89.311  28.851  1.00 40.12 LIG-0.35  N 
ATOM     13 H    LYS B   6      55.828  89.797  29.321  1.00 40.12 LIG 0.16  HD
BRANCH 12 14
ATOM     14  CA  LYS B   6      56.159  89.411  27.437  1.00 45.41 LIG 0.18  C 
BRANCH 14 15
ATOM     15  C   LYS B   6      55.682  88.023  27.065  1.00 44.99 LIG 0.24  C 
ATOM     16 O    LYS B   6      54.571  87.654  27.389  1.00 45.85 LIG-0.27  OA
ATOM     17  N   ILE B   7      56.455  87.252  26.332  1.00 47.54 LIG-0.34  N 
ATOM     18 H    ILE B   7      57.250  87.435  26.060  1.00 47.54 LIG 0.16  HD
BRANCH 17 19
ATOM     19  CA  ILE B   7      55.904  85.943  25.936  1.00 57.67 LIG 0.19  C 
BRANCH 19 20
ATOM     20  CB  ILE B   7      56.323  85.444  24.498  1.00 59.41 LIG 0.01  C 
ATOM     21  CG2 ILE B   7      55.545  86.156  23.396  1.00 60.58 LIG 0.01  C 
BRANCH 20 22
ATOM     22  CG1 ILE B   7      57.856  85.593  24.272  1.00 65.20 LIG 0.00  C 
ATOM     23  CD1 ILE B   7      58.782  84.834  25.227  1.00 51.92 LIG 0.01  C 
ENDBRANCH 20 22
ENDBRANCH 19 20
BRANCH 19 24
ATOM     24  C   ILE B   7      56.042  84.885  27.041  1.00 61.74 LIG 0.20  C 
ATOM     25 O    ILE B   7      56.696  85.045  28.060  1.00 61.53 LIG-0.65  OA
ATOM     26 OXT  ILE B   7      55.453  83.808  26.942  1.00 68.92 LIG-0.65  OA
ENDBRANCH 19 24
ENDBRANCH 17 19
ENDBRANCH 14 15
BRANCH 14 27
ATOM     27  CB  LYS B   6      57.508  89.778  26.794  1.00 46.87 LIG 0.04  C 
BRANCH 27 28
ATOM     28  CG  LYS B   6      57.440  90.877  25.750  1.00 55.56 LIG 0.00  C 
BRANCH 28 29
ATOM     29  CD  LYS B   6      56.605  90.477  24.542  1.00 60.95 LIG 0.03  C 
BRANCH 29 30
ATOM     30  CE  LYS B   6      57.346  90.755  23.228  1.00 62.93 LIG 0.23  C 
BRANCH 30 31
ATOM     31  NZ  LYS B   6      56.504  91.520  22.258  1.00 65.77 LIG-0.08  N 
ATOM     32 HZ1  LYS B   6      56.486  91.091  21.478  1.00 65.77 LIG 0.27  HD
ATOM     33 HZ2  LYS B   6      55.676  91.593  22.576  1.00 65.77 LIG 0.27  HD
ATOM     34 HZ3  LYS B   6      56.850  92.333  22.141  1.00 65.77 LIG 0.27  HD
ENDBRANCH 30 31
ENDBRANCH 29 30
ENDBRANCH 28 29
ENDBRANCH 27 28
ENDBRANCH 14 27
ENDBRANCH 12 14
ENDBRANCH 6 10
ENDBRANCH 4 6
ENDBRANCH 1 2
BRANCH 1 35
ATOM     35  CB  LEU B   4      53.211  86.837  31.184  1.00 28.63 LIG 0.04  C 
BRANCH 35 36
ATOM     36  CG  LEU B   4      53.386  85.356  30.872  1.00 30.56 LIG-0.02  C 
ATOM     37  CD2 LEU B   4      54.200  85.219  29.603  1.00 33.80 LIG 0.01  C 
ATOM     38  CD1 LEU B   4      51.993  84.731  30.688  1.00 28.87 LIG 0.01  C 
ENDBRANCH 35 36
ENDBRANCH 1 35
BRANCH 1 39
ATOM     39  N   LEU B   4      53.290  87.776  33.413  1.00 28.62 LIG-0.35  N 
ATOM     40 H    LEU B   4      53.222  88.632  33.458  1.00 28.62 LIG 0.16  HD
ATOM     41  C   PRO B   3      52.706  86.939  34.246  1.00 33.12 LIG 0.24  C 
ATOM     42 O    PRO B   3      52.618  85.715  34.043  1.00 32.36 LIG-0.27  OA
BRANCH 41 43
ATOM     43  CA  PRO B   3      52.082  87.575  35.486  1.00 33.48 LIG 0.18  C 
ATOM     44  CB  PRO B   3      52.198  89.121  35.428  1.00 32.62 LIG 0.04  C 
ATOM     45  CG  PRO B   3      52.581  89.543  36.822  1.00 32.85 LIG 0.02  C 
ATOM     46  CD  PRO B   3      53.389  88.381  37.394  1.00 29.95 LIG 0.13  C 
ATOM     47  N   PRO B   3      52.913  87.201  36.615  1.00 33.01 LIG-0.34  N 
ATOM     48  C   LEU B   2      53.089  85.883  36.860  1.00 31.97 LIG 0.24  C 
ATOM     49 O    LEU B   2      52.481  84.983  36.272  1.00 33.64 LIG-0.27  OA
BRANCH 48 50
ATOM     50  CA  LEU B   2      54.049  85.517  37.969  1.00 32.67 LIG 0.18  C 
BRANCH 50 51
ATOM     51  N   LEU B   2      53.500  86.120  39.178  1.00 33.85 LIG-0.35  N 
ATOM     52 H    LEU B   2      52.643  86.069  39.228  1.00 33.85 LIG 0.16  HD
ATOM     53  C   GLU B   1      54.247  86.694  40.115  1.00 36.42 LIG 0.25  C 
ATOM     54 O    GLU B   1      55.477  86.526  40.174  1.00 32.31 LIG-0.27  OA
BRANCH 53 55
ATOM     55  CA  GLU B   1      53.489  87.492  41.199  1.00 35.71 LIG 0.28  C 
BRANCH 55 56
ATOM     56  CB  GLU B   1      53.438  88.965  40.778  1.00 39.23 LIG 0.05  C 
BRANCH 56 57
ATOM     57  CG  GLU B   1      53.863  89.917  41.896  1.00 48.64 LIG 0.12  C 
BRANCH 57 58
ATOM     58  CD  GLU B   1      55.372  90.182  41.997  1.00 56.94 LIG 0.17  C 
ATOM     59 OE1  GLU B   1      56.052  89.324  42.585  1.00 65.53 LIG-0.65  OA
ATOM     60 OE2  GLU B   1      55.894  91.230  41.523  1.00 53.19 LIG-0.65  OA
ENDBRANCH 57 58
ENDBRANCH 56 57
ENDBRANCH 55 56
BRANCH 55 61
ATOM     61  N   GLU B   1      54.149  87.373  42.545  1.00 36.67 LIG-0.07  N 
ATOM     62 H1   GLU B   1      54.490  86.556  42.637  1.00 36.67 LIG 0.28  HD
ATOM     63 H3   GLU B   1      53.548  87.517  43.185  1.00 36.67 LIG 0.28  HD
ATOM     64 H2   GLU B   1      54.801  87.975  42.610  1.00 36.67 LIG 0.28  HD
ENDBRANCH 55 61
ENDBRANCH 53 55
ENDBRANCH 50 51
BRANCH 50 65
ATOM     65  CB  LEU B   2      54.162  83.974  38.069  1.00 34.84 LIG 0.04  C 
BRANCH 65 66
ATOM     66  CG  LEU B   2      55.581  83.392  38.176  1.00 34.30 LIG-0.02  C 
ATOM     67  CD2 LEU B   2      55.648  82.223  39.174  1.00 39.39 LIG 0.01  C 
ATOM     68  CD1 LEU B   2      56.630  84.451  38.521  1.00 34.61 LIG 0.01  C 
ENDBRANCH 65 66
ENDBRANCH 50 65
ENDBRANCH 48 50
ENDBRANCH 41 43
ENDBRANCH 1 39
TORSDOF 28
ENDMDL
MODEL 55
USER: ADFR SOLUTION from run 74
USER: SCORE 24.636383 LL:  -7.156 LR: -18.440 RR:   0.000 FEB: -10.088
USER: RMSD 3.308703
USER: SEED 73
USER: STATUS no improvement in best in 17 clusters for 5 generations
USER: GENES 30
USER: genes 0 Translation |==|  0.53374 0.58667 0.47658
USER: genes 1 Rotation |==|  0.49621 0.48492 0.56329 0.99573
USER: genes 2 Torsion [N]-CA--C-[N] |==|  0.40000
USER: genes 3 Torsion [C]-N--CA-[C] |==|  0.74342
USER: genes 4 Torsion [N]-CA--CB-[CG2] |==|  0.64513
USER: genes 5 Torsion [N]-CA--C-[N] |==|  0.37847
USER: genes 6 Torsion [C]-N--CA-[C] |==|  0.57798
USER: genes 7 Torsion [N]-CA--C-[N] |==|  0.98063
USER: genes 8 Torsion [C]-N--CA-[CB] |==|  0.81222
USER: genes 9 Torsion [N]-CA--CB-[CG1] |==|  0.88044
USER: genes 10 Torsion [CA]-CB--CG1-[CD1] |==|  0.85231
USER: genes 11 Torsion [N]-CA--C-[OXT] |==|  0.70271
USER: genes 12 Torsion [N]-CA--CB-[CG] |==|  0.21776
USER: genes 13 Torsion [CA]-CB--CG-[CD] |==|  0.82773
USER: genes 14 Torsion [CB]-CG--CD-[CE] |==|  0.43356
USER: genes 15 Torsion [CG]-CD--CE-[NZ] |==|  0.38029
USER: genes 16 Torsion [CD]-CE--NZ-[HZ1] |==|  0.15984
USER: genes 17 Torsion [C]-CA--CB-[CG] |==|  0.42300
USER: genes 18 Torsion [CA]-CB--CG-[CD2] |==|  0.23172
USER: genes 19 Torsion [C]-CA--N-[C] |==|  0.66046
USER: genes 20 Torsion [N]-C--CA-[CB] |==|  0.01828
USER: genes 21 Torsion [N]-C--CA-[N] |==|  0.39124
USER: genes 22 Torsion [C]-CA--N-[C] |==|  0.82535
USER: genes 23 Torsion [N]-C--CA-[N] |==|  0.79422
USER: genes 24 Torsion [C]-CA--CB-[CG] |==|  0.74824
USER: genes 25 Torsion [CA]-CB--CG-[CD] |==|  0.75280
USER: genes 26 Torsion [CB]-CG--CD-[OE1] |==|  0.06412
USER: genes 27 Torsion [C]-CA--N-[H1] |==|  0.49491
USER: genes 28 Torsion [C]-CA--CB-[CG] |==|  0.46030
USER: genes 29 Torsion [CA]-CB--CG-[CD2] |==|  0.26258
ROOT
ATOM      1  CA  LEU B   4      56.348  88.276  30.049  1.00 30.07 LIG 0.18  C 
ENDROOT
BRANCH 1 2
ATOM      2  C   LEU B   4      54.900  87.934  30.293  1.00 30.58 LIG 0.24  C 
ATOM      3 O    LEU B   4      54.007  88.674  29.875  1.00 35.83 LIG-0.27  OA
ATOM      4  N   VAL B   5      54.662  86.858  31.038  1.00 32.24 LIG-0.35  N 
ATOM      5 H    VAL B   5      55.280  86.350  31.352  1.00 32.24 LIG 0.16  HD
BRANCH 4 6
ATOM      6  CA  VAL B   5      53.303  86.436  31.395  1.00 32.53 LIG 0.18  C 
BRANCH 6 7
ATOM      7  CB  VAL B   5      53.188  84.904  31.489  1.00 34.70 LIG 0.01  C 
ATOM      8  CG2 VAL B   5      52.036  84.442  30.635  1.00 38.22 LIG 0.01  C 
ATOM      9  CG1 VAL B   5      52.996  84.434  32.926  1.00 39.77 LIG 0.01  C 
ENDBRANCH 6 7
BRANCH 6 10
ATOM     10  C   VAL B   5      52.894  87.031  32.715  1.00 39.16 LIG 0.24  C 
ATOM     11 O    VAL B   5      53.682  87.078  33.668  1.00 33.69 LIG-0.27  OA
ATOM     12  N   LYS B   6      51.666  87.519  32.751  1.00 40.12 LIG-0.35  N 
ATOM     13 H    LYS B   6      51.133  87.531  32.075  1.00 40.12 LIG 0.16  HD
BRANCH 12 14
ATOM     14  CA  LYS B   6      51.115  88.077  33.949  1.00 45.41 LIG 0.18  C 
BRANCH 14 15
ATOM     15  C   LYS B   6      49.631  87.836  33.783  1.00 44.99 LIG 0.24  C 
ATOM     16 O    LYS B   6      48.861  88.139  34.670  1.00 45.85 LIG-0.27  OA
ATOM     17  N   ILE B   7      49.181  87.358  32.642  1.00 47.54 LIG-0.34  N 
ATOM     18 H    ILE B   7      49.654  87.120  31.964  1.00 47.54 LIG 0.16  HD
BRANCH 17 19
ATOM     19  CA  ILE B   7      47.719  87.217  32.511  1.00 57.67 LIG 0.19  C 
BRANCH 19 20
ATOM     20  CB  ILE B   7      47.064  86.121  33.440  1.00 59.41 LIG 0.01  C 
ATOM     21  CG2 ILE B   7      45.623  85.820  33.042  1.00 60.58 LIG 0.01  C 
BRANCH 20 22
ATOM     22  CG1 ILE B   7      47.912  84.817  33.460  1.00 65.20 LIG 0.00  C 
ATOM     23  CD1 ILE B   7      48.265  84.189  32.108  1.00 51.92 LIG 0.01  C 
ENDBRANCH 20 22
ENDBRANCH 19 20
BRANCH 19 24
ATOM     24  C   ILE B   7      46.992  88.571  32.514  1.00 61.74 LIG 0.20  C 
ATOM     25 O    ILE B   7      46.991  89.345  31.569  1.00 61.53 LIG-0.65  OA
ATOM     26 OXT  ILE B   7      46.340  88.919  33.499  1.00 68.92 LIG-0.65  OA
ENDBRANCH 19 24
ENDBRANCH 17 19
ENDBRANCH 14 15
BRANCH 14 27
ATOM     27  CB  LYS B   6      51.485  89.570  33.986  1.00 46.87 LIG 0.04  C 
BRANCH 27 28
ATOM     28  CG  LYS B   6      50.636  90.461  33.100  1.00 55.56 LIG 0.00  C 
BRANCH 28 29
ATOM     29  CD  LYS B   6      50.762  90.101  31.626  1.00 60.95 LIG 0.03  C 
BRANCH 29 30
ATOM     30  CE  LYS B   6      49.533  90.554  30.828  1.00 62.93 LIG 0.23  C 
BRANCH 30 31
ATOM     31  NZ  LYS B   6      49.908  91.179  29.522  1.00 65.77 LIG-0.08  N 
ATOM     32 HZ1  LYS B   6      50.387  90.601  29.043  1.00 65.77 LIG 0.27  HD
ATOM     33 HZ2  LYS B   6      49.171  91.395  29.073  1.00 65.77 LIG 0.27  HD
ATOM     34 HZ3  LYS B   6      50.391  91.912  29.671  1.00 65.77 LIG 0.27  HD
ENDBRANCH 30 31
ENDBRANCH 29 30
ENDBRANCH 28 29
ENDBRANCH 27 28
ENDBRANCH 14 27
ENDBRANCH 12 14
ENDBRANCH 6 10
ENDBRANCH 4 6
ENDBRANCH 1 2
BRANCH 1 35
ATOM     35  CB  LEU B   4      56.747  89.294  31.098  1.00 28.63 LIG 0.04  C 
BRANCH 35 36
ATOM     36  CG  LEU B   4      58.237  89.217  31.406  1.00 30.56 LIG-0.02  C 
ATOM     37  CD2 LEU B   4      58.990  90.025  30.372  1.00 33.80 LIG 0.01  C 
ATOM     38  CD1 LEU B   4      58.668  87.742  31.356  1.00 28.87 LIG 0.01  C 
ENDBRANCH 35 36
ENDBRANCH 1 35
BRANCH 1 39
ATOM     39  N   LEU B   4      56.702  88.833  28.723  1.00 28.62 LIG-0.35  N 
ATOM     40 H    LEU B   4      56.284  89.554  28.511  1.00 28.62 LIG 0.16  HD
ATOM     41  C   PRO B   3      57.595  88.239  27.957  1.00 33.12 LIG 0.24  C 
ATOM     42 O    PRO B   3      58.356  87.340  28.357  1.00 32.36 LIG-0.27  OA
BRANCH 41 43
ATOM     43  CA  PRO B   3      57.683  88.761  26.525  1.00 33.48 LIG 0.18  C 
ATOM     44  CB  PRO B   3      56.787  90.014  26.341  1.00 32.62 LIG 0.04  C 
ATOM     45  CG  PRO B   3      56.116  89.829  25.005  1.00 32.85 LIG 0.02  C 
ATOM     46  CD  PRO B   3      55.981  88.320  24.820  1.00 29.95 LIG 0.13  C 
ATOM     47  N   PRO B   3      57.069  87.759  25.673  1.00 33.01 LIG-0.34  N 
ATOM     48  C   LEU B   2      57.581  86.509  25.699  1.00 31.97 LIG 0.24  C 
ATOM     49 O    LEU B   2      58.618  86.198  26.294  1.00 33.64 LIG-0.27  OA
BRANCH 48 50
ATOM     50  CA  LEU B   2      56.854  85.456  24.893  1.00 32.67 LIG 0.18  C 
BRANCH 50 51
ATOM     51  N   LEU B   2      57.897  84.630  24.297  1.00 33.85 LIG-0.35  N 
ATOM     52 H    LEU B   2      57.879  83.811  24.560  1.00 33.85 LIG 0.16  HD
ATOM     53  C   GLU B   1      58.793  85.091  23.430  1.00 36.42 LIG 0.25  C 
ATOM     54 O    GLU B   1      58.652  86.182  22.853  1.00 32.31 LIG-0.27  OA
BRANCH 53 55
ATOM     55  CA  GLU B   1      59.967  84.145  23.091  1.00 35.71 LIG 0.28  C 
BRANCH 55 56
ATOM     56  CB  GLU B   1      59.402  82.752  22.792  1.00 39.23 LIG 0.05  C 
BRANCH 56 57
ATOM     57  CG  GLU B   1      59.317  81.867  24.036  1.00 48.64 LIG 0.12  C 
BRANCH 57 58
ATOM     58  CD  GLU B   1      60.571  81.037  24.341  1.00 56.94 LIG 0.17  C 
ATOM     59 OE1  GLU B   1      61.644  81.452  23.871  1.00 65.53 LIG-0.65  OA
ATOM     60 OE2  GLU B   1      60.514  79.974  25.021  1.00 53.19 LIG-0.65  OA
ENDBRANCH 57 58
ENDBRANCH 56 57
ENDBRANCH 55 56
BRANCH 55 61
ATOM     61  N   GLU B   1      60.958  84.059  24.218  1.00 36.67 LIG-0.07  N 
ATOM     62 H1   GLU B   1      61.605  83.487  24.001  1.00 36.67 LIG 0.28  HD
ATOM     63 H3   GLU B   1      60.547  83.775  24.955  1.00 36.67 LIG 0.28  HD
ATOM     64 H2   GLU B   1      61.310  84.863  24.366  1.00 36.67 LIG 0.28  HD
ENDBRANCH 55 61
ENDBRANCH 53 55
ENDBRANCH 50 51
BRANCH 50 65
ATOM     65  CB  LEU B   2      55.911  84.650  25.823  1.00 34.84 LIG 0.04  C 
BRANCH 65 66
ATOM     66  CG  LEU B   2      54.850  83.774  25.136  1.00 34.30 LIG-0.02  C 
ATOM     67  CD2 LEU B   2      55.330  82.323  24.961  1.00 39.39 LIG 0.01  C 
ATOM     68  CD1 LEU B   2      54.384  84.349  23.797  1.00 34.61 LIG 0.01  C 
ENDBRANCH 65 66
ENDBRANCH 50 65
ENDBRANCH 48 50
ENDBRANCH 41 43
ENDBRANCH 1 39
TORSDOF 28
ENDMDL
MODEL 56
USER: ADFR SOLUTION from run 56
USER: SCORE 23.316241 LL:  -6.767 LR: -18.444 RR:   0.000 FEB: -10.092
USER: RMSD 12.975842
USER: SEED 55
USER: STATUS no improvement in best in 6 clusters for 5 generations
USER: GENES 30
USER: genes 0 Translation |==|  0.49771 0.51536 0.42537
USER: genes 1 Rotation |==|  0.81253 0.79162 0.75861 0.52015
USER: genes 2 Torsion [N]-CA--C-[N] |==|  0.35889
USER: genes 3 Torsion [C]-N--CA-[C] |==|  0.20562
USER: genes 4 Torsion [N]-CA--CB-[CG2] |==|  0.85915
USER: genes 5 Torsion [N]-CA--C-[N] |==|  0.41937
USER: genes 6 Torsion [C]-N--CA-[C] |==|  0.76595
USER: genes 7 Torsion [N]-CA--C-[N] |==|  0.86016
USER: genes 8 Torsion [C]-N--CA-[CB] |==|  0.24614
USER: genes 9 Torsion [N]-CA--CB-[CG1] |==|  0.63596
USER: genes 10 Torsion [CA]-CB--CG1-[CD1] |==|  0.21320
USER: genes 11 Torsion [N]-CA--C-[OXT] |==|  0.87453
USER: genes 12 Torsion [N]-CA--CB-[CG] |==|  0.25932
USER: genes 13 Torsion [CA]-CB--CG-[CD] |==|  0.47121
USER: genes 14 Torsion [CB]-CG--CD-[CE] |==|  0.88457
USER: genes 15 Torsion [CG]-CD--CE-[NZ] |==|  0.79932
USER: genes 16 Torsion [CD]-CE--NZ-[HZ1] |==|  0.44230
USER: genes 17 Torsion [C]-CA--CB-[CG] |==|  0.59723
USER: genes 18 Torsion [CA]-CB--CG-[CD2] |==|  0.71730
USER: genes 19 Torsion [C]-CA--N-[C] |==|  0.63130
USER: genes 20 Torsion [N]-C--CA-[CB] |==|  0.71254
USER: genes 21 Torsion [N]-C--CA-[N] |==|  0.37608
USER: genes 22 Torsion [C]-CA--N-[C] |==|  0.53396
USER: genes 23 Torsion [N]-C--CA-[N] |==|  0.35410
USER: genes 24 Torsion [C]-CA--CB-[CG] |==|  0.16777
USER: genes 25 Torsion [CA]-CB--CG-[CD] |==|  0.10706
USER: genes 26 Torsion [CB]-CG--CD-[OE1] |==|  0.63225
USER: genes 27 Torsion [C]-CA--N-[H1] |==|  0.52038
USER: genes 28 Torsion [C]-CA--CB-[CG] |==|  0.26807
USER: genes 29 Torsion [CA]-CB--CG-[CD2] |==|  0.14189
ROOT
ATOM      1  CA  LEU B   4      55.591  86.672  28.743  1.00 30.07 LIG 0.18  C 
ENDROOT
BRANCH 1 2
ATOM      2  C   LEU B   4      56.155  85.713  27.726  1.00 30.58 LIG 0.24  C 
ATOM      3 O    LEU B   4      56.939  84.827  28.073  1.00 35.83 LIG-0.27  OA
ATOM      4  N   VAL B   5      55.825  85.933  26.455  1.00 32.24 LIG-0.35  N 
ATOM      5 H    VAL B   5      55.297  86.563  26.203  1.00 32.24 LIG 0.16  HD
BRANCH 4 6
ATOM      6  CA  VAL B   5      56.340  85.107  25.358  1.00 32.53 LIG 0.18  C 
BRANCH 6 7
ATOM      7  CB  VAL B   5      57.860  84.895  25.470  1.00 34.70 LIG 0.01  C 
ATOM      8  CG2 VAL B   5      58.533  86.231  25.657  1.00 38.22 LIG 0.01  C 
ATOM      9  CG1 VAL B   5      58.429  84.188  24.247  1.00 39.77 LIG 0.01  C 
ENDBRANCH 6 7
BRANCH 6 10
ATOM     10  C   VAL B   5      55.667  83.762  25.348  1.00 39.16 LIG 0.24  C 
ATOM     11 O    VAL B   5      55.213  83.264  26.386  1.00 33.69 LIG-0.27  OA
ATOM     12  N   LYS B   6      55.573  83.194  24.158  1.00 40.12 LIG-0.35  N 
ATOM     13 H    LYS B   6      55.844  83.560  23.427  1.00 40.12 LIG 0.16  HD
BRANCH 12 14
ATOM     14  CA  LYS B   6      54.998  81.893  23.990  1.00 45.41 LIG 0.18  C 
BRANCH 14 15
ATOM     15  C   LYS B   6      56.161  80.970  24.282  1.00 44.99 LIG 0.24  C 
ATOM     16 O    LYS B   6      56.014  80.020  25.023  1.00 45.85 LIG-0.27  OA
ATOM     17  N   ILE B   7      57.310  81.170  23.671  1.00 47.54 LIG-0.34  N 
ATOM     18 H    ILE B   7      57.498  81.814  23.133  1.00 47.54 LIG 0.16  HD
BRANCH 17 19
ATOM     19  CA  ILE B   7      58.381  80.192  23.936  1.00 57.67 LIG 0.19  C 
BRANCH 19 20
ATOM     20  CB  ILE B   7      58.400  78.939  22.976  1.00 59.41 LIG 0.01  C 
ATOM     21  CG2 ILE B   7      59.512  79.030  21.937  1.00 60.58 LIG 0.01  C 
BRANCH 20 22
ATOM     22  CG1 ILE B   7      58.507  77.612  23.781  1.00 65.20 LIG 0.00  C 
ATOM     23  CD1 ILE B   7      57.238  77.108  24.473  1.00 51.92 LIG 0.01  C 
ENDBRANCH 20 22
ENDBRANCH 19 20
BRANCH 19 24
ATOM     24  C   ILE B   7      59.751  80.857  24.141  1.00 61.74 LIG 0.20  C 
ATOM     25 O    ILE B   7      60.537  80.542  25.021  1.00 61.53 LIG-0.65  OA
ATOM     26 OXT  ILE B   7      60.124  81.748  23.376  1.00 68.92 LIG-0.65  OA
ENDBRANCH 19 24
ENDBRANCH 17 19
ENDBRANCH 14 15
BRANCH 14 27
ATOM     27  CB  LYS B   6      54.489  81.786  22.543  1.00 46.87 LIG 0.04  C 
BRANCH 27 28
ATOM     28  CG  LYS B   6      55.473  81.177  21.562  1.00 55.56 LIG 0.00  C 
BRANCH 28 29
ATOM     29  CD  LYS B   6      54.831  80.866  20.217  1.00 60.95 LIG 0.03  C 
BRANCH 29 30
ATOM     30  CE  LYS B   6      53.433  80.260  20.386  1.00 62.93 LIG 0.23  C 
BRANCH 30 31
ATOM     31  NZ  LYS B   6      53.486  78.855  20.896  1.00 65.77 LIG-0.08  N 
ATOM     32 HZ1  LYS B   6      52.703  78.642  21.262  1.00 65.77 LIG 0.27  HD
ATOM     33 HZ2  LYS B   6      53.659  78.300  20.221  1.00 65.77 LIG 0.27  HD
ATOM     34 HZ3  LYS B   6      54.129  78.785  21.509  1.00 65.77 LIG 0.27  HD
ENDBRANCH 30 31
ENDBRANCH 29 30
ENDBRANCH 28 29
ENDBRANCH 27 28
ENDBRANCH 14 27
ENDBRANCH 12 14
ENDBRANCH 6 10
ENDBRANCH 4 6
ENDBRANCH 1 2
BRANCH 1 35
ATOM     35  CB  LEU B   4      56.746  87.510  29.251  1.00 28.63 LIG 0.04  C 
BRANCH 35 36
ATOM     36  CG  LEU B   4      56.579  87.848  30.728  1.00 30.56 LIG-0.02  C 
ATOM     37  CD2 LEU B   4      56.082  89.272  30.848  1.00 33.80 LIG 0.01  C 
ATOM     38  CD1 LEU B   4      57.944  87.694  31.419  1.00 28.87 LIG 0.01  C 
ENDBRANCH 35 36
ENDBRANCH 1 35
BRANCH 1 39
ATOM     39  N   LEU B   4      54.903  86.091  29.919  1.00 28.62 LIG-0.35  N 
ATOM     40 H    LEU B   4      55.329  85.452  30.307  1.00 28.62 LIG 0.16  HD
ATOM     41  C   PRO B   3      53.730  86.547  30.310  1.00 33.12 LIG 0.24  C 
ATOM     42 O    PRO B   3      53.232  87.609  29.896  1.00 32.36 LIG-0.27  OA
BRANCH 41 43
ATOM     43  CA  PRO B   3      53.017  85.706  31.365  1.00 33.48 LIG 0.18  C 
ATOM     44  CB  PRO B   3      51.872  84.876  30.725  1.00 32.62 LIG 0.04  C 
ATOM     45  CG  PRO B   3      50.721  84.976  31.691  1.00 32.85 LIG 0.02  C 
ATOM     46  CD  PRO B   3      50.873  86.334  32.371  1.00 29.95 LIG 0.13  C 
ATOM     47  N   PRO B   3      52.330  86.631  32.248  1.00 33.01 LIG-0.34  N 
ATOM     48  C   LEU B   2      53.073  87.564  32.884  1.00 31.97 LIG 0.24  C 
ATOM     49 O    LEU B   2      54.308  87.594  32.869  1.00 33.64 LIG-0.27  OA
BRANCH 48 50
ATOM     50  CA  LEU B   2      52.324  88.587  33.707  1.00 32.67 LIG 0.18  C 
BRANCH 50 51
ATOM     51  N   LEU B   2      53.060  88.695  34.962  1.00 33.85 LIG-0.35  N 
ATOM     52 H    LEU B   2      53.831  88.316  34.941  1.00 33.85 LIG 0.16  HD
ATOM     53  C   GLU B   1      52.588  89.318  36.037  1.00 36.42 LIG 0.25  C 
ATOM     54 O    GLU B   1      51.614  90.086  35.981  1.00 32.31 LIG-0.27  OA
BRANCH 53 55
ATOM     55  CA  GLU B   1      53.389  89.125  37.345  1.00 35.71 LIG 0.28  C 
BRANCH 55 56
ATOM     56  CB  GLU B   1      52.549  88.287  38.315  1.00 39.23 LIG 0.05  C 
BRANCH 56 57
ATOM     57  CG  GLU B   1      52.212  86.902  37.762  1.00 48.64 LIG 0.12  C 
BRANCH 57 58
ATOM     58  CD  GLU B   1      53.332  86.219  36.967  1.00 56.94 LIG 0.17  C 
ATOM     59 OE1  GLU B   1      53.018  85.721  35.872  1.00 65.53 LIG-0.65  OA
ATOM     60 OE2  GLU B   1      54.513  86.150  37.410  1.00 53.19 LIG-0.65  OA
ENDBRANCH 57 58
ENDBRANCH 56 57
ENDBRANCH 55 56
BRANCH 55 61
ATOM     61  N   GLU B   1      53.739  90.440  37.984  1.00 36.67 LIG-0.07  N 
ATOM     62 H1   GLU B   1      54.287  90.300  38.671  1.00 36.67 LIG 0.28  HD
ATOM     63 H3   GLU B   1      52.997  90.837  38.273  1.00 36.67 LIG 0.28  HD
ATOM     64 H2   GLU B   1      54.141  90.963  37.386  1.00 36.67 LIG 0.28  HD
ENDBRANCH 55 61
ENDBRANCH 53 55
ENDBRANCH 50 51
BRANCH 50 65
ATOM     65  CB  LEU B   2      52.261  89.930  32.934  1.00 34.84 LIG 0.04  C 
BRANCH 65 66
ATOM     66  CG  LEU B   2      50.981  90.201  32.126  1.00 34.30 LIG-0.02  C 
ATOM     67  CD2 LEU B   2      49.714  90.002  32.975  1.00 39.39 LIG 0.01  C 
ATOM     68  CD1 LEU B   2      50.903  89.368  30.845  1.00 34.61 LIG 0.01  C 
ENDBRANCH 65 66
ENDBRANCH 50 65
ENDBRANCH 48 50
ENDBRANCH 41 43
ENDBRANCH 1 39
TORSDOF 28
ENDMDL
MODEL 57
USER: ADFR SOLUTION from run 73
USER: SCORE 24.681965 LL:  -6.962 LR: -18.434 RR:   0.000 FEB: -10.081
USER: RMSD 6.446405
USER: SEED 72
USER: STATUS no improvement in best in 9 clusters for 5 generations
USER: GENES 30
USER: genes 0 Translation |==|  0.49709 0.46624 0.33862
USER: genes 1 Rotation |==|  0.72480 0.68021 0.14968 0.71040
USER: genes 2 Torsion [N]-CA--C-[N] |==|  0.17337
USER: genes 3 Torsion [C]-N--CA-[C] |==|  0.69059
USER: genes 4 Torsion [N]-CA--CB-[CG2] |==|  0.04250
USER: genes 5 Torsion [N]-CA--C-[N] |==|  0.45101
USER: genes 6 Torsion [C]-N--CA-[C] |==|  0.82201
USER: genes 7 Torsion [N]-CA--C-[N] |==|  0.44010
USER: genes 8 Torsion [C]-N--CA-[CB] |==|  0.39783
USER: genes 9 Torsion [N]-CA--CB-[CG1] |==|  0.83671
USER: genes 10 Torsion [CA]-CB--CG1-[CD1] |==|  0.15824
USER: genes 11 Torsion [N]-CA--C-[OXT] |==|  0.97443
USER: genes 12 Torsion [N]-CA--CB-[CG] |==|  0.41274
USER: genes 13 Torsion [CA]-CB--CG-[CD] |==|  0.65610
USER: genes 14 Torsion [CB]-CG--CD-[CE] |==|  0.48507
USER: genes 15 Torsion [CG]-CD--CE-[NZ] |==|  0.67818
USER: genes 16 Torsion [CD]-CE--NZ-[HZ1] |==|  0.12288
USER: genes 17 Torsion [C]-CA--CB-[CG] |==|  0.39650
USER: genes 18 Torsion [CA]-CB--CG-[CD2] |==|  0.50234
USER: genes 19 Torsion [C]-CA--N-[C] |==|  0.78310
USER: genes 20 Torsion [N]-C--CA-[CB] |==|  0.70892
USER: genes 21 Torsion [N]-C--CA-[N] |==|  0.14181
USER: genes 22 Torsion [C]-CA--N-[C] |==|  0.15921
USER: genes 23 Torsion [N]-C--CA-[N] |==|  0.01200
USER: genes 24 Torsion [C]-CA--CB-[CG] |==|  0.26376
USER: genes 25 Torsion [CA]-CB--CG-[CD] |==|  0.63932
USER: genes 26 Torsion [CB]-CG--CD-[OE1] |==|  0.56957
USER: genes 27 Torsion [C]-CA--N-[H1] |==|  0.55816
USER: genes 28 Torsion [C]-CA--CB-[CG] |==|  0.26975
USER: genes 29 Torsion [CA]-CB--CG-[CD2] |==|  0.21613
ROOT
ATOM      1  CA  LEU B   4      55.578  85.566  26.531  1.00 30.07 LIG 0.18  C 
ENDROOT
BRANCH 1 2
ATOM      2  C   LEU B   4      55.849  85.654  28.011  1.00 30.58 LIG 0.24  C 
ATOM      3 O    LEU B   4      56.220  84.658  28.636  1.00 35.83 LIG-0.27  OA
ATOM      4  N   VAL B   5      55.589  86.822  28.594  1.00 32.24 LIG-0.35  N 
ATOM      5 H    VAL B   5      55.308  87.514  28.169  1.00 32.24 LIG 0.16  HD
BRANCH 4 6
ATOM      6  CA  VAL B   5      55.761  87.033  30.035  1.00 32.53 LIG 0.18  C 
BRANCH 6 7
ATOM      7  CB  VAL B   5      56.634  88.267  30.329  1.00 34.70 LIG 0.01  C 
ATOM      8  CG2 VAL B   5      56.742  89.104  29.080  1.00 38.22 LIG 0.01  C 
ATOM      9  CG1 VAL B   5      58.022  87.879  30.823  1.00 39.77 LIG 0.01  C 
ENDBRANCH 6 7
BRANCH 6 10
ATOM     10  C   VAL B   5      54.428  87.218  30.706  1.00 39.16 LIG 0.24  C 
ATOM     11 O    VAL B   5      53.409  87.472  30.049  1.00 33.69 LIG-0.27  OA
ATOM     12  N   LYS B   6      54.434  87.052  32.017  1.00 40.12 LIG-0.35  N 
ATOM     13 H    LYS B   6      55.131  86.828  32.470  1.00 40.12 LIG 0.16  HD
BRANCH 12 14
ATOM     14  CA  LYS B   6      53.252  87.237  32.803  1.00 45.41 LIG 0.18  C 
BRANCH 14 15
ATOM     15  C   LYS B   6      52.949  88.708  32.616  1.00 44.99 LIG 0.24  C 
ATOM     16 O    LYS B   6      53.811  89.461  32.210  1.00 45.85 LIG-0.27  OA
ATOM     17  N   ILE B   7      51.727  89.146  32.832  1.00 47.54 LIG-0.34  N 
ATOM     18 H    ILE B   7      51.061  88.683  33.117  1.00 47.54 LIG 0.16  HD
BRANCH 17 19
ATOM     19  CA  ILE B   7      51.474  90.572  32.558  1.00 57.67 LIG 0.19  C 
BRANCH 19 20
ATOM     20  CB  ILE B   7      50.056  90.897  31.944  1.00 59.41 LIG 0.01  C 
ATOM     21  CG2 ILE B   7      49.840  92.396  31.765  1.00 60.58 LIG 0.01  C 
BRANCH 20 22
ATOM     22  CG1 ILE B   7      49.837  90.145  30.599  1.00 65.20 LIG 0.00  C 
ATOM     23  CD1 ILE B   7      49.964  88.620  30.620  1.00 51.92 LIG 0.01  C 
ENDBRANCH 20 22
ENDBRANCH 19 20
BRANCH 19 24
ATOM     24  C   ILE B   7      51.885  91.481  33.726  1.00 61.74 LIG 0.20  C 
ATOM     25 O    ILE B   7      51.895  92.701  33.670  1.00 61.53 LIG-0.65  OA
ATOM     26 OXT  ILE B   7      52.207  90.987  34.808  1.00 68.92 LIG-0.65  OA
ENDBRANCH 19 24
ENDBRANCH 17 19
ENDBRANCH 14 15
BRANCH 14 27
ATOM     27  CB  LYS B   6      53.590  86.870  34.258  1.00 46.87 LIG 0.04  C 
BRANCH 27 28
ATOM     28  CG  LYS B   6      52.821  87.646  35.310  1.00 55.56 LIG 0.00  C 
BRANCH 28 29
ATOM     29  CD  LYS B   6      53.741  88.365  36.287  1.00 60.95 LIG 0.03  C 
BRANCH 29 30
ATOM     30  CE  LYS B   6      52.949  89.248  37.259  1.00 62.93 LIG 0.23  C 
BRANCH 30 31
ATOM     31  NZ  LYS B   6      53.268  90.700  37.088  1.00 65.77 LIG-0.08  N 
ATOM     32 HZ1  LYS B   6      53.288  90.899  36.221  1.00 65.77 LIG 0.27  HD
ATOM     33 HZ2  LYS B   6      52.644  91.191  37.490  1.00 65.77 LIG 0.27  HD
ATOM     34 HZ3  LYS B   6      54.062  90.874  37.451  1.00 65.77 LIG 0.27  HD
ENDBRANCH 30 31
ENDBRANCH 29 30
ENDBRANCH 28 29
ENDBRANCH 27 28
ENDBRANCH 14 27
ENDBRANCH 12 14
ENDBRANCH 6 10
ENDBRANCH 4 6
ENDBRANCH 1 2
BRANCH 1 35
ATOM     35  CB  LEU B   4      55.859  84.138  26.113  1.00 28.63 LIG 0.04  C 
BRANCH 35 36
ATOM     36  CG  LEU B   4      54.867  83.664  25.057  1.00 30.56 LIG-0.02  C 
ATOM     37  CD2 LEU B   4      55.187  82.229  24.698  1.00 33.80 LIG 0.01  C 
ATOM     38  CD1 LEU B   4      55.003  84.570  23.822  1.00 28.87 LIG 0.01  C 
ENDBRANCH 35 36
ENDBRANCH 1 35
BRANCH 1 39
ATOM     39  N   LEU B   4      56.357  86.458  25.641  1.00 28.62 LIG-0.35  N 
ATOM     40 H    LEU B   4      57.008  86.077  25.229  1.00 28.62 LIG 0.16  HD
ATOM     41  C   PRO B   3      56.042  87.731  25.516  1.00 33.12 LIG 0.24  C 
ATOM     42 O    PRO B   3      54.974  88.220  25.926  1.00 32.36 LIG-0.27  OA
BRANCH 41 43
ATOM     43  CA  PRO B   3      57.065  88.591  24.778  1.00 33.48 LIG 0.18  C 
ATOM     44  CB  PRO B   3      57.861  89.476  25.774  1.00 32.62 LIG 0.04  C 
ATOM     45  CG  PRO B   3      57.967  90.824  25.111  1.00 32.85 LIG 0.02  C 
ATOM     46  CD  PRO B   3      56.712  90.957  24.252  1.00 29.95 LIG 0.13  C 
ATOM     47  N   PRO B   3      56.316  89.545  23.980  1.00 33.01 LIG-0.34  N 
ATOM     48  C   LEU B   2      55.440  89.059  23.073  1.00 31.97 LIG 0.24  C 
ATOM     49 O    LEU B   2      55.336  87.862  22.785  1.00 33.64 LIG-0.27  OA
BRANCH 48 50
ATOM     50  CA  LEU B   2      54.589  90.068  22.337  1.00 32.67 LIG 0.18  C 
BRANCH 50 51
ATOM     51  N   LEU B   2      55.522  91.060  21.814  1.00 33.85 LIG-0.35  N 
ATOM     52 H    LEU B   2      55.352  91.861  22.076  1.00 33.85 LIG 0.16  HD
ATOM     53  C   GLU B   1      56.536  90.760  21.010  1.00 36.42 LIG 0.25  C 
ATOM     54 O    GLU B   1      56.936  89.594  20.858  1.00 32.31 LIG-0.27  OA
BRANCH 53 55
ATOM     55  CA  GLU B   1      57.269  91.955  20.360  1.00 35.71 LIG 0.28  C 
BRANCH 55 56
ATOM     56  CB  GLU B   1      58.764  91.845  20.679  1.00 39.23 LIG 0.05  C 
BRANCH 56 57
ATOM     57  CG  GLU B   1      59.557  91.151  19.572  1.00 48.64 LIG 0.12  C 
BRANCH 57 58
ATOM     58  CD  GLU B   1      60.476  90.012  20.035  1.00 56.94 LIG 0.17  C 
ATOM     59 OE1  GLU B   1      61.453  89.753  19.312  1.00 65.53 LIG-0.65  OA
ATOM     60 OE2  GLU B   1      60.241  89.357  21.090  1.00 53.19 LIG-0.65  OA
ENDBRANCH 57 58
ENDBRANCH 56 57
ENDBRANCH 55 56
BRANCH 55 61
ATOM     61  N   GLU B   1      56.741  93.272  20.857  1.00 36.67 LIG-0.07  N 
ATOM     62 H1   GLU B   1      56.946  93.913  20.275  1.00 36.67 LIG 0.28  HD
ATOM     63 H3   GLU B   1      57.107  93.461  21.646  1.00 36.67 LIG 0.28  HD
ATOM     64 H2   GLU B   1      55.857  93.223  20.946  1.00 36.67 LIG 0.28  HD
ENDBRANCH 55 61
ENDBRANCH 53 55
ENDBRANCH 50 51
BRANCH 50 65
ATOM     65  CB  LEU B   2      53.788  89.353  21.217  1.00 34.84 LIG 0.04  C 
BRANCH 65 66
ATOM     66  CG  LEU B   2      52.340  88.959  21.550  1.00 34.30 LIG-0.02  C 
ATOM     67  CD2 LEU B   2      51.387  90.165  21.478  1.00 39.39 LIG 0.01  C 
ATOM     68  CD1 LEU B   2      52.213  88.257  22.904  1.00 34.61 LIG 0.01  C 
ENDBRANCH 65 66
ENDBRANCH 50 65
ENDBRANCH 48 50
ENDBRANCH 41 43
ENDBRANCH 1 39
TORSDOF 28
ENDMDL
MODEL 58
USER: ADFR SOLUTION from run 63
USER: SCORE 24.342324 LL:  -6.444 LR: -18.402 RR:   0.000 FEB: -10.050
USER: RMSD 4.943408
USER: SEED 62
USER: STATUS no improvement in best in 20 clusters for 5 generations
USER: GENES 30
USER: genes 0 Translation |==|  0.56170 0.57546 0.36847
USER: genes 1 Rotation |==|  0.29847 0.66029 0.75192 0.84674
USER: genes 2 Torsion [N]-CA--C-[N] |==|  0.36372
USER: genes 3 Torsion [C]-N--CA-[C] |==|  0.85976
USER: genes 4 Torsion [N]-CA--CB-[CG2] |==|  0.08574
USER: genes 5 Torsion [N]-CA--C-[N] |==|  0.34842
USER: genes 6 Torsion [C]-N--CA-[C] |==|  0.58991
USER: genes 7 Torsion [N]-CA--C-[N] |==|  0.42192
USER: genes 8 Torsion [C]-N--CA-[CB] |==|  0.39436
USER: genes 9 Torsion [N]-CA--CB-[CG1] |==|  0.98146
USER: genes 10 Torsion [CA]-CB--CG1-[CD1] |==|  0.35804
USER: genes 11 Torsion [N]-CA--C-[OXT] |==|  0.51274
USER: genes 12 Torsion [N]-CA--CB-[CG] |==|  0.50035
USER: genes 13 Torsion [CA]-CB--CG-[CD] |==|  0.47049
USER: genes 14 Torsion [CB]-CG--CD-[CE] |==|  0.60819
USER: genes 15 Torsion [CG]-CD--CE-[NZ] |==|  0.35518
USER: genes 16 Torsion [CD]-CE--NZ-[HZ1] |==|  0.92172
USER: genes 17 Torsion [C]-CA--CB-[CG] |==|  0.52583
USER: genes 18 Torsion [CA]-CB--CG-[CD2] |==|  0.70326
USER: genes 19 Torsion [C]-CA--N-[C] |==|  0.87219
USER: genes 20 Torsion [N]-C--CA-[CB] |==|  0.62241
USER: genes 21 Torsion [N]-C--CA-[N] |==|  0.45044
USER: genes 22 Torsion [C]-CA--N-[C] |==|  0.76667
USER: genes 23 Torsion [N]-C--CA-[N] |==|  0.96948
USER: genes 24 Torsion [C]-CA--CB-[CG] |==|  0.66521
USER: genes 25 Torsion [CA]-CB--CG-[CD] |==|  0.20751
USER: genes 26 Torsion [CB]-CG--CD-[OE1] |==|  0.91411
USER: genes 27 Torsion [C]-CA--N-[H1] |==|  0.49261
USER: genes 28 Torsion [C]-CA--CB-[CG] |==|  0.39936
USER: genes 29 Torsion [CA]-CB--CG-[CD2] |==|  0.23555
ROOT
ATOM      1  CA  LEU B   4      56.935  88.024  27.292  1.00 30.07 LIG 0.18  C 
ENDROOT
BRANCH 1 2
ATOM      2  C   LEU B   4      56.501  87.673  28.692  1.00 30.58 LIG 0.24  C 
ATOM      3 O    LEU B   4      55.315  87.439  28.936  1.00 35.83 LIG-0.27  OA
ATOM      4  N   VAL B   5      57.441  87.712  29.633  1.00 32.24 LIG-0.35  N 
ATOM      5 H    VAL B   5      58.266  87.896  29.474  1.00 32.24 LIG 0.16  HD
BRANCH 4 6
ATOM      6  CA  VAL B   5      57.150  87.439  31.044  1.00 32.53 LIG 0.18  C 
BRANCH 6 7
ATOM      7  CB  VAL B   5      58.357  87.753  31.946  1.00 34.70 LIG 0.01  C 
ATOM      8  CG2 VAL B   5      59.148  88.882  31.337  1.00 38.22 LIG 0.01  C 
ATOM      9  CG1 VAL B   5      59.251  86.535  32.146  1.00 39.77 LIG 0.01  C 
ENDBRANCH 6 7
BRANCH 6 10
ATOM     10  C   VAL B   5      55.978  88.260  31.510  1.00 39.16 LIG 0.24  C 
ATOM     11 O    VAL B   5      55.951  89.487  31.352  1.00 33.69 LIG-0.27  OA
ATOM     12  N   LYS B   6      54.991  87.566  32.052  1.00 40.12 LIG-0.35  N 
ATOM     13 H    LYS B   6      54.986  86.708  32.118  1.00 40.12 LIG 0.16  HD
BRANCH 12 14
ATOM     14  CA  LYS B   6      53.826  88.208  32.583  1.00 45.41 LIG 0.18  C 
BRANCH 14 15
ATOM     15  C   LYS B   6      53.435  87.301  33.729  1.00 44.99 LIG 0.24  C 
ATOM     16 O    LYS B   6      53.765  86.133  33.723  1.00 45.85 LIG-0.27  OA
ATOM     17  N   ILE B   7      52.795  87.808  34.761  1.00 47.54 LIG-0.34  N 
ATOM     18 H    ILE B   7      52.526  88.621  34.847  1.00 47.54 LIG 0.16  HD
BRANCH 17 19
ATOM     19  CA  ILE B   7      52.509  86.894  35.881  1.00 57.67 LIG 0.19  C 
BRANCH 19 20
ATOM     20  CB  ILE B   7      52.645  87.530  37.320  1.00 59.41 LIG 0.01  C 
ATOM     21  CG2 ILE B   7      53.481  86.662  38.253  1.00 60.58 LIG 0.01  C 
BRANCH 20 22
ATOM     22  CG1 ILE B   7      53.222  88.973  37.247  1.00 65.20 LIG 0.00  C 
ATOM     23  CD1 ILE B   7      52.455  90.073  37.986  1.00 51.92 LIG 0.01  C 
ENDBRANCH 20 22
ENDBRANCH 19 20
BRANCH 19 24
ATOM     24  C   ILE B   7      51.226  86.077  35.665  1.00 61.74 LIG 0.20  C 
ATOM     25 O    ILE B   7      50.574  86.092  34.633  1.00 61.53 LIG-0.65  OA
ATOM     26 OXT  ILE B   7      50.813  85.331  36.554  1.00 68.92 LIG-0.65  OA
ENDBRANCH 19 24
ENDBRANCH 17 19
ENDBRANCH 14 15
BRANCH 14 27
ATOM     27  CB  LYS B   6      52.769  88.263  31.467  1.00 46.87 LIG 0.04  C 
BRANCH 27 28
ATOM     28  CG  LYS B   6      51.460  88.920  31.859  1.00 55.56 LIG 0.00  C 
BRANCH 28 29
ATOM     29  CD  LYS B   6      50.559  89.178  30.659  1.00 60.95 LIG 0.03  C 
BRANCH 29 30
ATOM     30  CE  LYS B   6      49.834  90.524  30.778  1.00 62.93 LIG 0.23  C 
BRANCH 30 31
ATOM     31  NZ  LYS B   6      50.014  91.370  29.558  1.00 65.77 LIG-0.08  N 
ATOM     32 HZ1  LYS B   6      50.789  91.169  29.169  1.00 65.77 LIG 0.27  HD
ATOM     33 HZ2  LYS B   6      49.347  91.217  28.989  1.00 65.77 LIG 0.27  HD
ATOM     34 HZ3  LYS B   6      50.013  92.230  29.791  1.00 65.77 LIG 0.27  HD
ENDBRANCH 30 31
ENDBRANCH 29 30
ENDBRANCH 28 29
ENDBRANCH 27 28
ENDBRANCH 14 27
ENDBRANCH 12 14
ENDBRANCH 6 10
ENDBRANCH 4 6
ENDBRANCH 1 2
BRANCH 1 35
ATOM     35  CB  LEU B   4      56.352  89.386  26.975  1.00 28.63 LIG 0.04  C 
BRANCH 35 36
ATOM     36  CG  LEU B   4      56.536  89.740  25.505  1.00 30.56 LIG-0.02  C 
ATOM     37  CD2 LEU B   4      57.610  90.800  25.390  1.00 33.80 LIG 0.01  C 
ATOM     38  CD1 LEU B   4      55.198  90.268  24.961  1.00 28.87 LIG 0.01  C 
ENDBRANCH 35 36
ENDBRANCH 1 35
BRANCH 1 39
ATOM     39  N   LEU B   4      56.540  87.100  26.204  1.00 28.62 LIG-0.35  N 
ATOM     40 H    LEU B   4      56.220  87.484  25.504  1.00 28.62 LIG 0.16  HD
ATOM     41  C   PRO B   3      56.685  85.797  26.337  1.00 33.12 LIG 0.24  C 
ATOM     42 O    PRO B   3      57.353  85.268  27.243  1.00 32.36 LIG-0.27  OA
BRANCH 41 43
ATOM     43  CA  PRO B   3      56.011  84.948  25.262  1.00 33.48 LIG 0.18  C 
ATOM     44  CB  PRO B   3      55.273  83.740  25.898  1.00 32.62 LIG 0.04  C 
ATOM     45  CG  PRO B   3      55.575  82.571  24.997  1.00 32.85 LIG 0.02  C 
ATOM     46  CD  PRO B   3      56.954  82.856  24.406  1.00 29.95 LIG 0.13  C 
ATOM     47  N   PRO B   3      57.072  84.341  24.479  1.00 33.01 LIG-0.34  N 
ATOM     48  C   LEU B   2      57.958  85.162  23.874  1.00 31.97 LIG 0.24  C 
ATOM     49 O    LEU B   2      57.845  86.392  23.832  1.00 33.64 LIG-0.27  OA
BRANCH 48 50
ATOM     50  CA  LEU B   2      59.119  84.507  23.160  1.00 32.67 LIG 0.18  C 
BRANCH 50 51
ATOM     51  N   LEU B   2      59.651  85.525  22.262  1.00 33.85 LIG-0.35  N 
ATOM     52 H    LEU B   2      60.319  85.956  22.589  1.00 33.85 LIG 0.16  HD
ATOM     53  C   GLU B   1      59.156  85.767  21.053  1.00 36.42 LIG 0.25  C 
ATOM     54 O    GLU B   1      58.386  84.976  20.484  1.00 32.31 LIG-0.27  OA
BRANCH 53 55
ATOM     55  CA  GLU B   1      59.680  87.035  20.341  1.00 35.71 LIG 0.28  C 
BRANCH 55 56
ATOM     56  CB  GLU B   1      60.560  86.606  19.161  1.00 39.23 LIG 0.05  C 
BRANCH 56 57
ATOM     57  CG  GLU B   1      61.991  87.132  19.268  1.00 48.64 LIG 0.12  C 
BRANCH 57 58
ATOM     58  CD  GLU B   1      62.880  86.420  20.296  1.00 56.94 LIG 0.17  C 
ATOM     59 OE1  GLU B   1      62.313  85.958  21.301  1.00 65.53 LIG-0.65  OA
ATOM     60 OE2  GLU B   1      64.130  86.322  20.138  1.00 53.19 LIG-0.65  OA
ENDBRANCH 57 58
ENDBRANCH 56 57
ENDBRANCH 55 56
BRANCH 55 61
ATOM     61  N   GLU B   1      60.471  87.911  21.271  1.00 36.67 LIG-0.07  N 
ATOM     62 H1   GLU B   1      60.789  88.611  20.822  1.00 36.67 LIG 0.28  HD
ATOM     63 H3   GLU B   1      61.148  87.446  21.614  1.00 36.67 LIG 0.28  HD
ATOM     64 H2   GLU B   1      59.945  88.197  21.930  1.00 36.67 LIG 0.28  HD
ENDBRANCH 55 61
ENDBRANCH 53 55
ENDBRANCH 50 51
BRANCH 50 65
ATOM     65  CB  LEU B   2      60.162  84.024  24.201  1.00 34.84 LIG 0.04  C 
BRANCH 65 66
ATOM     66  CG  LEU B   2      60.887  82.704  23.889  1.00 34.30 LIG-0.02  C 
ATOM     67  CD2 LEU B   2      62.107  82.922  22.978  1.00 39.39 LIG 0.01  C 
ATOM     68  CD1 LEU B   2      59.956  81.645  23.295  1.00 34.61 LIG 0.01  C 
ENDBRANCH 65 66
ENDBRANCH 50 65
ENDBRANCH 48 50
ENDBRANCH 41 43
ENDBRANCH 1 39
TORSDOF 28
ENDMDL
MODEL 59
USER: ADFR SOLUTION from run 172
USER: SCORE 23.887503 LL:  -6.663 LR: -18.396 RR:   0.000 FEB: -10.043
USER: RMSD 12.287459
USER: SEED 171
USER: STATUS no improvement in best in 8 clusters for 5 generations
USER: GENES 30
USER: genes 0 Translation |==|  0.40699 0.58952 0.53321
USER: genes 1 Rotation |==|  0.42899 0.17840 0.13288 0.58222
USER: genes 2 Torsion [N]-CA--C-[N] |==|  0.15412
USER: genes 3 Torsion [C]-N--CA-[C] |==|  0.65795
USER: genes 4 Torsion [N]-CA--CB-[CG2] |==|  0.14814
USER: genes 5 Torsion [N]-CA--C-[N] |==|  0.42392
USER: genes 6 Torsion [C]-N--CA-[C] |==|  0.79298
USER: genes 7 Torsion [N]-CA--C-[N] |==|  0.42076
USER: genes 8 Torsion [C]-N--CA-[CB] |==|  0.18487
USER: genes 9 Torsion [N]-CA--CB-[CG1] |==|  0.68617
USER: genes 10 Torsion [CA]-CB--CG1-[CD1] |==|  0.86679
USER: genes 11 Torsion [N]-CA--C-[OXT] |==|  0.96677
USER: genes 12 Torsion [N]-CA--CB-[CG] |==|  0.46340
USER: genes 13 Torsion [CA]-CB--CG-[CD] |==|  0.13755
USER: genes 14 Torsion [CB]-CG--CD-[CE] |==|  0.49211
USER: genes 15 Torsion [CG]-CD--CE-[NZ] |==|  0.64781
USER: genes 16 Torsion [CD]-CE--NZ-[HZ1] |==|  0.52667
USER: genes 17 Torsion [C]-CA--CB-[CG] |==|  0.38530
USER: genes 18 Torsion [CA]-CB--CG-[CD2] |==|  0.59099
USER: genes 19 Torsion [C]-CA--N-[C] |==|  0.61504
USER: genes 20 Torsion [N]-C--CA-[CB] |==|  0.56524
USER: genes 21 Torsion [N]-C--CA-[N] |==|  0.13719
USER: genes 22 Torsion [C]-CA--N-[C] |==|  0.58334
USER: genes 23 Torsion [N]-C--CA-[N] |==|  0.29990
USER: genes 24 Torsion [C]-CA--CB-[CG] |==|  0.37950
USER: genes 25 Torsion [CA]-CB--CG-[CD] |==|  0.81779
USER: genes 26 Torsion [CB]-CG--CD-[OE1] |==|  0.78145
USER: genes 27 Torsion [C]-CA--N-[H1] |==|  0.92269
USER: genes 28 Torsion [C]-CA--CB-[CG] |==|  0.25869
USER: genes 29 Torsion [CA]-CB--CG-[CD2] |==|  0.14475
ROOT
ATOM      1  CA  LEU B   4      53.686  88.340  31.493  1.00 30.07 LIG 0.18  C 
ENDROOT
BRANCH 1 2
ATOM      2  C   LEU B   4      55.027  88.752  30.943  1.00 30.58 LIG 0.24  C 
ATOM      3 O    LEU B   4      55.609  89.739  31.396  1.00 35.83 LIG-0.27  OA
ATOM      4  N   VAL B   5      55.488  88.048  29.911  1.00 32.24 LIG-0.35  N 
ATOM      5 H    VAL B   5      55.077  87.372  29.575  1.00 32.24 LIG 0.16  HD
BRANCH 4 6
ATOM      6  CA  VAL B   5      56.756  88.368  29.248  1.00 32.53 LIG 0.18  C 
BRANCH 6 7
ATOM      7  CB  VAL B   5      57.785  87.235  29.409  1.00 34.70 LIG 0.01  C 
ATOM      8  CG2 VAL B   5      57.169  85.939  28.949  1.00 38.22 LIG 0.01  C 
ATOM      9  CG1 VAL B   5      58.268  87.104  30.849  1.00 39.77 LIG 0.01  C 
ENDBRANCH 6 7
BRANCH 6 10
ATOM     10  C   VAL B   5      56.537  88.612  27.780  1.00 39.16 LIG 0.24  C 
ATOM     11 O    VAL B   5      55.579  88.107  27.181  1.00 33.69 LIG-0.27  OA
ATOM     12  N   LYS B   6      57.415  89.421  27.211  1.00 40.12 LIG-0.35  N 
ATOM     13 H    LYS B   6      58.054  89.812  27.636  1.00 40.12 LIG 0.16  HD
BRANCH 12 14
ATOM     14  CA  LYS B   6      57.367  89.716  25.811  1.00 45.41 LIG 0.18  C 
BRANCH 14 15
ATOM     15  C   LYS B   6      57.893  88.445  25.180  1.00 44.99 LIG 0.24  C 
ATOM     16 O    LYS B   6      58.626  87.711  25.809  1.00 45.85 LIG-0.27  OA
ATOM     17  N   ILE B   7      57.491  88.113  23.972  1.00 47.54 LIG-0.34  N 
ATOM     18 H    ILE B   7      56.974  88.573  23.460  1.00 47.54 LIG 0.16  HD
BRANCH 17 19
ATOM     19  CA  ILE B   7      57.975  86.826  23.441  1.00 57.67 LIG 0.19  C 
BRANCH 19 20
ATOM     20  CB  ILE B   7      57.441  85.545  24.194  1.00 59.41 LIG 0.01  C 
ATOM     21  CG2 ILE B   7      56.711  84.592  23.254  1.00 60.58 LIG 0.01  C 
BRANCH 20 22
ATOM     22  CG1 ILE B   7      58.590  84.808  24.940  1.00 65.20 LIG 0.00  C 
ATOM     23  CD1 ILE B   7      59.878  84.543  24.156  1.00 51.92 LIG 0.01  C 
ENDBRANCH 20 22
ENDBRANCH 19 20
BRANCH 19 24
ATOM     24  C   ILE B   7      57.887  86.747  21.909  1.00 61.74 LIG 0.20  C 
ATOM     25 O    ILE B   7      58.397  85.861  21.242  1.00 61.53 LIG-0.65  OA
ATOM     26 OXT  ILE B   7      57.251  87.597  21.284  1.00 68.92 LIG-0.65  OA
ENDBRANCH 19 24
ENDBRANCH 17 19
ENDBRANCH 14 15
BRANCH 14 27
ATOM     27  CB  LYS B   6      58.268  90.936  25.555  1.00 46.87 LIG 0.04  C 
BRANCH 27 28
ATOM     28  CG  LYS B   6      58.587  91.201  24.096  1.00 55.56 LIG 0.00  C 
BRANCH 28 29
ATOM     29  CD  LYS B   6      57.341  91.201  23.222  1.00 60.95 LIG 0.03  C 
BRANCH 29 30
ATOM     30  CE  LYS B   6      57.676  91.539  21.764  1.00 62.93 LIG 0.23  C 
BRANCH 30 31
ATOM     31  NZ  LYS B   6      56.846  92.669  21.243  1.00 65.77 LIG-0.08  N 
ATOM     32 HZ1  LYS B   6      56.966  92.745  20.364  1.00 65.77 LIG 0.27  HD
ATOM     33 HZ2  LYS B   6      55.987  92.509  21.412  1.00 65.77 LIG 0.27  HD
ATOM     34 HZ3  LYS B   6      57.091  93.426  21.643  1.00 65.77 LIG 0.27  HD
ENDBRANCH 30 31
ENDBRANCH 29 30
ENDBRANCH 28 29
ENDBRANCH 27 28
ENDBRANCH 14 27
ENDBRANCH 12 14
ENDBRANCH 6 10
ENDBRANCH 4 6
ENDBRANCH 1 2
BRANCH 1 35
ATOM     35  CB  LEU B   4      53.412  89.218  32.697  1.00 28.63 LIG 0.04  C 
BRANCH 35 36
ATOM     36  CG  LEU B   4      51.959  89.674  32.732  1.00 30.56 LIG-0.02  C 
ATOM     37  CD2 LEU B   4      51.897  91.056  33.346  1.00 33.80 LIG 0.01  C 
ATOM     38  CD1 LEU B   4      51.156  88.672  33.580  1.00 28.87 LIG 0.01  C 
ENDBRANCH 35 36
ENDBRANCH 1 35
BRANCH 1 39
ATOM     39  N   LEU B   4      53.526  86.930  31.917  1.00 28.62 LIG-0.35  N 
ATOM     40 H    LEU B   4      54.198  86.603  32.342  1.00 28.62 LIG 0.16  HD
ATOM     41  C   PRO B   3      52.422  86.263  31.644  1.00 33.12 LIG 0.24  C 
ATOM     42 O    PRO B   3      51.376  86.800  31.240  1.00 32.36 LIG-0.27  OA
BRANCH 41 43
ATOM     43  CA  PRO B   3      52.482  84.760  31.905  1.00 33.48 LIG 0.18  C 
ATOM     44  CB  PRO B   3      51.430  84.010  31.045  1.00 32.62 LIG 0.04  C 
ATOM     45  CG  PRO B   3      50.831  82.977  31.962  1.00 32.85 LIG 0.02  C 
ATOM     46  CD  PRO B   3      50.907  83.579  33.362  1.00 29.95 LIG 0.13  C 
ATOM     47  N   PRO B   3      52.035  84.551  33.270  1.00 33.01 LIG-0.34  N 
ATOM     48  C   LEU B   2      52.711  85.178  34.258  1.00 31.97 LIG 0.24  C 
ATOM     49 O    LEU B   2      53.762  85.804  34.088  1.00 33.64 LIG-0.27  OA
BRANCH 48 50
ATOM     50  CA  LEU B   2      52.158  85.039  35.658  1.00 32.67 LIG 0.18  C 
BRANCH 50 51
ATOM     51  N   LEU B   2      51.927  83.612  35.848  1.00 33.85 LIG-0.35  N 
ATOM     52 H    LEU B   2      52.467  83.114  35.402  1.00 33.85 LIG 0.16  HD
ATOM     53  C   GLU B   1      50.974  83.122  36.634  1.00 36.42 LIG 0.25  C 
ATOM     54 O    GLU B   1      50.386  83.822  37.475  1.00 32.31 LIG-0.27  OA
BRANCH 53 55
ATOM     55  CA  GLU B   1      50.714  81.602  36.528  1.00 35.71 LIG 0.28  C 
BRANCH 55 56
ATOM     56  CB  GLU B   1      49.207  81.373  36.364  1.00 39.23 LIG 0.05  C 
BRANCH 56 57
ATOM     57  CG  GLU B   1      48.879  80.325  35.302  1.00 48.64 LIG 0.12  C 
BRANCH 57 58
ATOM     58  CD  GLU B   1      49.254  80.704  33.863  1.00 56.94 LIG 0.17  C 
ATOM     59 OE1  GLU B   1      48.486  81.481  33.271  1.00 65.53 LIG-0.65  OA
ATOM     60 OE2  GLU B   1      50.285  80.237  33.301  1.00 53.19 LIG-0.65  OA
ENDBRANCH 57 58
ENDBRANCH 56 57
ENDBRANCH 55 56
BRANCH 55 61
ATOM     61  N   GLU B   1      51.210  80.864  37.739  1.00 36.67 LIG-0.07  N 
ATOM     62 H1   GLU B   1      51.889  81.311  38.102  1.00 36.67 LIG 0.28  HD
ATOM     63 H3   GLU B   1      51.484  80.051  37.501  1.00 36.67 LIG 0.28  HD
ATOM     64 H2   GLU B   1      50.551  80.792  38.334  1.00 36.67 LIG 0.28  HD
ENDBRANCH 55 61
ENDBRANCH 53 55
ENDBRANCH 50 51
BRANCH 50 65
ATOM     65  CB  LEU B   2      53.172  85.621  36.677  1.00 34.84 LIG 0.04  C 
BRANCH 65 66
ATOM     66  CG  LEU B   2      52.982  87.095  37.074  1.00 34.30 LIG-0.02  C 
ATOM     67  CD2 LEU B   2      51.545  87.382  37.539  1.00 39.39 LIG 0.01  C 
ATOM     68  CD1 LEU B   2      53.389  88.064  35.962  1.00 34.61 LIG 0.01  C 
ENDBRANCH 65 66
ENDBRANCH 50 65
ENDBRANCH 48 50
ENDBRANCH 41 43
ENDBRANCH 1 39
TORSDOF 28
ENDMDL
MODEL 60
USER: ADFR SOLUTION from run 41
USER: SCORE 24.502890 LL:  -7.519 LR: -18.334 RR:   0.000 FEB:  -9.981
USER: RMSD 11.481762
USER: SEED 40
USER: STATUS no improvement in best in 6 clusters for 5 generations
USER: GENES 30
USER: genes 0 Translation |==|  0.54796 0.59457 0.47351
USER: genes 1 Rotation |==|  0.11205 0.41300 0.21183 0.59425
USER: genes 2 Torsion [N]-CA--C-[N] |==|  0.35610
USER: genes 3 Torsion [C]-N--CA-[C] |==|  0.16718
USER: genes 4 Torsion [N]-CA--CB-[CG2] |==|  0.62660
USER: genes 5 Torsion [N]-CA--C-[N] |==|  0.47007
USER: genes 6 Torsion [C]-N--CA-[C] |==|  0.77209
USER: genes 7 Torsion [N]-CA--C-[N] |==|  0.20694
USER: genes 8 Torsion [C]-N--CA-[CB] |==|  0.40722
USER: genes 9 Torsion [N]-CA--CB-[CG1] |==|  0.03701
USER: genes 10 Torsion [CA]-CB--CG1-[CD1] |==|  0.19711
USER: genes 11 Torsion [N]-CA--C-[OXT] |==|  0.95232
USER: genes 12 Torsion [N]-CA--CB-[CG] |==|  0.07364
USER: genes 13 Torsion [CA]-CB--CG-[CD] |==|  0.30531
USER: genes 14 Torsion [CB]-CG--CD-[CE] |==|  0.36773
USER: genes 15 Torsion [CG]-CD--CE-[NZ] |==|  0.16235
USER: genes 16 Torsion [CD]-CE--NZ-[HZ1] |==|  0.64964
USER: genes 17 Torsion [C]-CA--CB-[CG] |==|  0.50052
USER: genes 18 Torsion [CA]-CB--CG-[CD2] |==|  0.65484
USER: genes 19 Torsion [C]-CA--N-[C] |==|  0.85268
USER: genes 20 Torsion [N]-C--CA-[CB] |==|  0.64532
USER: genes 21 Torsion [N]-C--CA-[N] |==|  0.87317
USER: genes 22 Torsion [C]-CA--N-[C] |==|  0.81671
USER: genes 23 Torsion [N]-C--CA-[N] |==|  0.54463
USER: genes 24 Torsion [C]-CA--CB-[CG] |==|  0.26309
USER: genes 25 Torsion [CA]-CB--CG-[CD] |==|  0.03887
USER: genes 26 Torsion [CB]-CG--CD-[OE1] |==|  0.18369
USER: genes 27 Torsion [C]-CA--N-[H1] |==|  0.47743
USER: genes 28 Torsion [C]-CA--CB-[CG] |==|  0.07738
USER: genes 29 Torsion [CA]-CB--CG-[CD2] |==|  0.64186
ROOT
ATOM      1  CA  LEU B   4      56.646  88.454  29.970  1.00 30.07 LIG 0.18  C 
ENDROOT
BRANCH 1 2
ATOM      2  C   LEU B   4      56.529  88.517  28.469  1.00 30.58 LIG 0.24  C 
ATOM      3 O    LEU B   4      56.791  87.527  27.783  1.00 35.83 LIG-0.27  OA
ATOM      4  N   VAL B   5      56.213  89.699  27.947  1.00 32.24 LIG-0.35  N 
ATOM      5 H    VAL B   5      56.051  90.400  28.418  1.00 32.24 LIG 0.16  HD
BRANCH 4 6
ATOM      6  CA  VAL B   5      56.112  89.915  26.500  1.00 32.53 LIG 0.18  C 
BRANCH 6 7
ATOM      7  CB  VAL B   5      57.448  89.638  25.788  1.00 34.70 LIG 0.01  C 
ATOM      8  CG2 VAL B   5      57.726  90.752  24.811  1.00 38.22 LIG 0.01  C 
ATOM      9  CG1 VAL B   5      57.442  88.296  25.066  1.00 39.77 LIG 0.01  C 
ENDBRANCH 6 7
BRANCH 6 10
ATOM     10  C   VAL B   5      55.057  89.023  25.905  1.00 39.16 LIG 0.24  C 
ATOM     11 O    VAL B   5      54.523  88.128  26.572  1.00 33.69 LIG-0.27  OA
ATOM     12  N   LYS B   6      54.735  89.298  24.652  1.00 40.12 LIG-0.35  N 
ATOM     13 H    LYS B   6      55.069  89.950  24.202  1.00 40.12 LIG 0.16  HD
BRANCH 12 14
ATOM     14  CA  LYS B   6      53.779  88.510  23.933  1.00 45.41 LIG 0.18  C 
BRANCH 14 15
ATOM     15  C   LYS B   6      54.602  87.331  23.459  1.00 44.99 LIG 0.24  C 
ATOM     16 O    LYS B   6      54.987  87.280  22.310  1.00 45.85 LIG-0.27  OA
ATOM     17  N   ILE B   7      54.951  86.402  24.323  1.00 47.54 LIG-0.34  N 
ATOM     18 H    ILE B   7      54.724  86.363  25.152  1.00 47.54 LIG 0.16  HD
BRANCH 17 19
ATOM     19  CA  ILE B   7      55.817  85.320  23.821  1.00 57.67 LIG 0.19  C 
BRANCH 19 20
ATOM     20  CB  ILE B   7      56.848  84.744  24.868  1.00 59.41 LIG 0.01  C 
ATOM     21  CG2 ILE B   7      58.287  85.100  24.510  1.00 60.58 LIG 0.01  C 
BRANCH 20 22
ATOM     22  CG1 ILE B   7      56.510  85.215  26.313  1.00 65.20 LIG 0.00  C 
ATOM     23  CD1 ILE B   7      55.264  84.616  26.971  1.00 51.92 LIG 0.01  C 
ENDBRANCH 20 22
ENDBRANCH 19 20
BRANCH 19 24
ATOM     24  C   ILE B   7      55.035  84.250  23.044  1.00 61.74 LIG 0.20  C 
ATOM     25 O    ILE B   7      55.556  83.423  22.312  1.00 61.53 LIG-0.65  OA
ATOM     26 OXT  ILE B   7      53.811  84.174  23.159  1.00 68.92 LIG-0.65  OA
ENDBRANCH 19 24
ENDBRANCH 17 19
ENDBRANCH 14 15
BRANCH 14 27
ATOM     27  CB  LYS B   6      53.233  89.369  22.780  1.00 46.87 LIG 0.04  C 
BRANCH 27 28
ATOM     28  CG  LYS B   6      54.174  90.451  22.287  1.00 55.56 LIG 0.00  C 
BRANCH 28 29
ATOM     29  CD  LYS B   6      54.722  90.152  20.898  1.00 60.95 LIG 0.03  C 
BRANCH 29 30
ATOM     30  CE  LYS B   6      54.614  91.372  19.975  1.00 62.93 LIG 0.23  C 
BRANCH 30 31
ATOM     31  NZ  LYS B   6      55.344  92.558  20.521  1.00 65.77 LIG-0.08  N 
ATOM     32 HZ1  LYS B   6      54.791  93.255  20.560  1.00 65.77 LIG 0.27  HD
ATOM     33 HZ2  LYS B   6      55.644  92.372  21.338  1.00 65.77 LIG 0.27  HD
ATOM     34 HZ3  LYS B   6      56.031  92.753  19.990  1.00 65.77 LIG 0.27  HD
ENDBRANCH 30 31
ENDBRANCH 29 30
ENDBRANCH 28 29
ENDBRANCH 27 28
ENDBRANCH 14 27
ENDBRANCH 12 14
ENDBRANCH 6 10
ENDBRANCH 4 6
ENDBRANCH 1 2
BRANCH 1 35
ATOM     35  CB  LEU B   4      58.113  88.251  30.293  1.00 28.63 LIG 0.04  C 
BRANCH 35 36
ATOM     36  CG  LEU B   4      58.344  88.168  31.796  1.00 30.56 LIG-0.02  C 
ATOM     37  CD2 LEU B   4      59.361  89.216  32.191  1.00 33.80 LIG 0.01  C 
ATOM     38  CD1 LEU B   4      58.864  86.760  32.131  1.00 28.87 LIG 0.01  C 
ENDBRANCH 35 36
ENDBRANCH 1 35
BRANCH 1 39
ATOM     39  N   LEU B   4      55.880  87.397  30.671  1.00 28.62 LIG-0.35  N 
ATOM     40 H    LEU B   4      56.347  86.904  31.199  1.00 28.62 LIG 0.16  HD
ATOM     41  C   PRO B   3      54.585  87.257  30.473  1.00 33.12 LIG 0.24  C 
ATOM     42 O    PRO B   3      53.881  88.105  29.896  1.00 32.36 LIG-0.27  OA
BRANCH 41 43
ATOM     43  CA  PRO B   3      53.967  85.985  31.048  1.00 33.48 LIG 0.18  C 
ATOM     44  CB  PRO B   3      53.160  85.226  29.961  1.00 32.62 LIG 0.04  C 
ATOM     45  CG  PRO B   3      51.900  84.768  30.650  1.00 32.85 LIG 0.02  C 
ATOM     46  CD  PRO B   3      51.620  85.813  31.727  1.00 29.95 LIG 0.13  C 
ATOM     47  N   PRO B   3      52.961  86.403  32.008  1.00 33.01 LIG-0.34  N 
ATOM     48  C   LEU B   2      53.357  87.183  33.038  1.00 31.97 LIG 0.24  C 
ATOM     49 O    LEU B   2      54.536  87.449  33.290  1.00 33.64 LIG-0.27  OA
BRANCH 48 50
ATOM     50  CA  LEU B   2      52.275  87.700  33.958  1.00 32.67 LIG 0.18  C 
BRANCH 50 51
ATOM     51  N   LEU B   2      51.214  88.184  33.082  1.00 33.85 LIG-0.35  N 
ATOM     52 H    LEU B   2      50.486  87.729  33.141  1.00 33.85 LIG 0.16  HD
ATOM     53  C   GLU B   1      51.352  89.226  32.270  1.00 36.42 LIG 0.25  C 
ATOM     54 O    GLU B   1      52.289  90.033  32.385  1.00 32.31 LIG-0.27  OA
BRANCH 53 55
ATOM     55  CA  GLU B   1      50.220  89.447  31.242  1.00 35.71 LIG 0.28  C 
BRANCH 55 56
ATOM     56  CB  GLU B   1      49.827  88.091  30.646  1.00 39.23 LIG 0.05  C 
BRANCH 56 57
ATOM     57  CG  GLU B   1      48.642  87.448  31.365  1.00 48.64 LIG 0.12  C 
BRANCH 57 58
ATOM     58  CD  GLU B   1      47.854  88.377  32.298  1.00 56.94 LIG 0.17  C 
ATOM     59 OE1  GLU B   1      47.236  89.313  31.764  1.00 65.53 LIG-0.65  OA
ATOM     60 OE2  GLU B   1      47.849  88.210  33.551  1.00 53.19 LIG-0.65  OA
ENDBRANCH 57 58
ENDBRANCH 56 57
ENDBRANCH 55 56
BRANCH 55 61
ATOM     61  N   GLU B   1      50.638  90.382  30.142  1.00 36.67 LIG-0.07  N 
ATOM     62 H1   GLU B   1      50.011  90.396  29.510  1.00 36.67 LIG 0.28  HD
ATOM     63 H3   GLU B   1      51.407  90.103  29.791  1.00 36.67 LIG 0.28  HD
ATOM     64 H2   GLU B   1      50.743  91.202  30.473  1.00 36.67 LIG 0.28  HD
ENDBRANCH 55 61
ENDBRANCH 53 55
ENDBRANCH 50 51
BRANCH 50 65
ATOM     65  CB  LEU B   2      51.801  86.558  34.895  1.00 34.84 LIG 0.04  C 
BRANCH 65 66
ATOM     66  CG  LEU B   2      52.829  85.460  35.217  1.00 34.30 LIG-0.02  C 
ATOM     67  CD2 LEU B   2      52.261  84.053  34.968  1.00 39.39 LIG 0.01  C 
ATOM     68  CD1 LEU B   2      53.385  85.569  36.639  1.00 34.61 LIG 0.01  C 
ENDBRANCH 65 66
ENDBRANCH 50 65
ENDBRANCH 48 50
ENDBRANCH 41 43
ENDBRANCH 1 39
TORSDOF 28
ENDMDL
MODEL 61
USER: ADFR SOLUTION from run 97
USER: SCORE 24.333614 LL:  -7.114 LR: -18.327 RR:   0.000 FEB:  -9.975
USER: RMSD 12.706524
USER: SEED 96
USER: STATUS no improvement in best in 7 clusters for 5 generations
USER: GENES 30
USER: genes 0 Translation |==|  0.40275 0.51230 0.53763
USER: genes 1 Rotation |==|  0.75320 0.08928 0.62863 0.52560
USER: genes 2 Torsion [N]-CA--C-[N] |==|  0.35608
USER: genes 3 Torsion [C]-N--CA-[C] |==|  0.80696
USER: genes 4 Torsion [N]-CA--CB-[CG2] |==|  0.92561
USER: genes 5 Torsion [N]-CA--C-[N] |==|  0.43777
USER: genes 6 Torsion [C]-N--CA-[C] |==|  0.80887
USER: genes 7 Torsion [N]-CA--C-[N] |==|  0.42020
USER: genes 8 Torsion [C]-N--CA-[CB] |==|  0.24891
USER: genes 9 Torsion [N]-CA--CB-[CG1] |==|  0.92177
USER: genes 10 Torsion [CA]-CB--CG1-[CD1] |==|  0.33950
USER: genes 11 Torsion [N]-CA--C-[OXT] |==|  0.04733
USER: genes 12 Torsion [N]-CA--CB-[CG] |==|  0.24125
USER: genes 13 Torsion [CA]-CB--CG-[CD] |==|  0.35401
USER: genes 14 Torsion [CB]-CG--CD-[CE] |==|  0.90398
USER: genes 15 Torsion [CG]-CD--CE-[NZ] |==|  0.42974
USER: genes 16 Torsion [CD]-CE--NZ-[HZ1] |==|  0.29682
USER: genes 17 Torsion [C]-CA--CB-[CG] |==|  0.54924
USER: genes 18 Torsion [CA]-CB--CG-[CD2] |==|  0.84141
USER: genes 19 Torsion [C]-CA--N-[C] |==|  0.79621
USER: genes 20 Torsion [N]-C--CA-[CB] |==|  0.70572
USER: genes 21 Torsion [N]-C--CA-[N] |==|  0.38502
USER: genes 22 Torsion [C]-CA--N-[C] |==|  0.22948
USER: genes 23 Torsion [N]-C--CA-[N] |==|  0.46631
USER: genes 24 Torsion [C]-CA--CB-[CG] |==|  0.77916
USER: genes 25 Torsion [CA]-CB--CG-[CD] |==|  0.76240
USER: genes 26 Torsion [CB]-CG--CD-[OE1] |==|  0.03224
USER: genes 27 Torsion [C]-CA--N-[H1] |==|  0.30000
USER: genes 28 Torsion [C]-CA--CB-[CG] |==|  0.54059
USER: genes 29 Torsion [CA]-CB--CG-[CD2] |==|  0.80671
ROOT
ATOM      1  CA  LEU B   4      53.597  86.603  31.605  1.00 30.07 LIG 0.18  C 
ENDROOT
BRANCH 1 2
ATOM      2  C   LEU B   4      54.341  87.639  30.804  1.00 30.58 LIG 0.24  C 
ATOM      3 O    LEU B   4      53.732  88.569  30.271  1.00 35.83 LIG-0.27  OA
ATOM      4  N   VAL B   5      55.648  87.443  30.646  1.00 32.24 LIG-0.35  N 
ATOM      5 H    VAL B   5      56.076  86.785  30.996  1.00 32.24 LIG 0.16  HD
BRANCH 4 6
ATOM      6  CA  VAL B   5      56.486  88.346  29.851  1.00 32.53 LIG 0.18  C 
BRANCH 6 7
ATOM      7  CB  VAL B   5      57.984  88.049  30.041  1.00 34.70 LIG 0.01  C 
ATOM      8  CG2 VAL B   5      58.195  87.426  31.397  1.00 38.22 LIG 0.01  C 
ATOM      9  CG1 VAL B   5      58.837  89.304  29.902  1.00 39.77 LIG 0.01  C 
ENDBRANCH 6 7
BRANCH 6 10
ATOM     10  C   VAL B   5      56.155  88.224  28.389  1.00 39.16 LIG 0.24  C 
ATOM     11 O    VAL B   5      55.582  87.222  27.942  1.00 33.69 LIG-0.27  OA
ATOM     12  N   LYS B   6      56.486  89.271  27.652  1.00 40.12 LIG-0.35  N 
ATOM     13 H    LYS B   6      56.839  89.989  27.968  1.00 40.12 LIG 0.16  HD
BRANCH 12 14
ATOM     14  CA  LYS B   6      56.275  89.289  26.236  1.00 45.41 LIG 0.18  C 
BRANCH 14 15
ATOM     15  C   LYS B   6      57.274  88.269  25.733  1.00 44.99 LIG 0.24  C 
ATOM     16 O    LYS B   6      58.271  88.022  26.380  1.00 45.85 LIG-0.27  OA
ATOM     17  N   ILE B   7      57.015  87.606  24.626  1.00 47.54 LIG-0.34  N 
ATOM     18 H    ILE B   7      56.335  87.717  24.111  1.00 47.54 LIG 0.16  HD
BRANCH 17 19
ATOM     19  CA  ILE B   7      57.987  86.571  24.229  1.00 57.67 LIG 0.19  C 
BRANCH 19 20
ATOM     20  CB  ILE B   7      57.706  85.129  24.808  1.00 59.41 LIG 0.01  C 
ATOM     21  CG2 ILE B   7      58.985  84.310  24.948  1.00 60.58 LIG 0.01  C 
BRANCH 20 22
ATOM     22  CG1 ILE B   7      56.949  85.202  26.165  1.00 65.20 LIG 0.00  C 
ATOM     23  CD1 ILE B   7      55.602  84.482  26.256  1.00 51.92 LIG 0.01  C 
ENDBRANCH 20 22
ENDBRANCH 19 20
BRANCH 19 24
ATOM     24  C   ILE B   7      58.303  86.603  22.726  1.00 61.74 LIG 0.20  C 
ATOM     25 O    ILE B   7      58.806  85.672  22.115  1.00 61.53 LIG-0.65  OA
ATOM     26 OXT  ILE B   7      58.025  87.599  22.058  1.00 68.92 LIG-0.65  OA
ENDBRANCH 19 24
ENDBRANCH 17 19
ENDBRANCH 14 15
BRANCH 14 27
ATOM     27  CB  LYS B   6      56.562  90.714  25.734  1.00 46.87 LIG 0.04  C 
BRANCH 27 28
ATOM     28  CG  LYS B   6      58.014  90.993  25.396  1.00 55.56 LIG 0.00  C 
BRANCH 28 29
ATOM     29  CD  LYS B   6      58.183  91.568  23.997  1.00 60.95 LIG 0.03  C 
BRANCH 29 30
ATOM     30  CE  LYS B   6      57.157  90.980  23.019  1.00 62.93 LIG 0.23  C 
BRANCH 30 31
ATOM     31  NZ  LYS B   6      56.883  91.898  21.871  1.00 65.77 LIG-0.08  N 
ATOM     32 HZ1  LYS B   6      57.265  91.575  21.135  1.00 65.77 LIG 0.27  HD
ATOM     33 HZ2  LYS B   6      56.004  91.962  21.745  1.00 65.77 LIG 0.27  HD
ATOM     34 HZ3  LYS B   6      57.216  92.704  22.049  1.00 65.77 LIG 0.27  HD
ENDBRANCH 30 31
ENDBRANCH 29 30
ENDBRANCH 28 29
ENDBRANCH 27 28
ENDBRANCH 14 27
ENDBRANCH 12 14
ENDBRANCH 6 10
ENDBRANCH 4 6
ENDBRANCH 1 2
BRANCH 1 35
ATOM     35  CB  LEU B   4      52.701  85.854  30.640  1.00 28.63 LIG 0.04  C 
BRANCH 35 36
ATOM     36  CG  LEU B   4      51.603  85.097  31.376  1.00 30.56 LIG-0.02  C 
ATOM     37  CD2 LEU B   4      52.244  84.154  32.371  1.00 33.80 LIG 0.01  C 
ATOM     38  CD1 LEU B   4      50.780  84.309  30.342  1.00 28.87 LIG 0.01  C 
ENDBRANCH 35 36
ENDBRANCH 1 35
BRANCH 1 39
ATOM     39  N   LEU B   4      52.752  87.082  32.724  1.00 28.62 LIG-0.35  N 
ATOM     40 H    LEU B   4      51.906  87.047  32.577  1.00 28.62 LIG 0.16  HD
ATOM     41  C   PRO B   3      53.296  87.521  33.841  1.00 33.12 LIG 0.24  C 
ATOM     42 O    PRO B   3      54.493  87.357  34.135  1.00 32.36 LIG-0.27  OA
BRANCH 41 43
ATOM     43  CA  PRO B   3      52.341  88.219  34.806  1.00 33.48 LIG 0.18  C 
ATOM     44  CB  PRO B   3      52.571  89.754  34.794  1.00 32.62 LIG 0.04  C 
ATOM     45  CG  PRO B   3      52.500  90.178  36.238  1.00 32.85 LIG 0.02  C 
ATOM     46  CD  PRO B   3      52.995  88.978  37.041  1.00 29.95 LIG 0.13  C 
ATOM     47  N   PRO B   3      52.726  87.815  36.146  1.00 33.01 LIG-0.34  N 
ATOM     48  C   LEU B   2      52.723  86.494  36.432  1.00 31.97 LIG 0.24  C 
ATOM     49 O    LEU B   2      52.286  85.623  35.673  1.00 33.64 LIG-0.27  OA
BRANCH 48 50
ATOM     50  CA  LEU B   2      53.237  86.089  37.794  1.00 32.67 LIG 0.18  C 
BRANCH 50 51
ATOM     51  N   LEU B   2      52.328  85.049  38.263  1.00 33.85 LIG-0.35  N 
ATOM     52 H    LEU B   2      51.716  85.341  38.791  1.00 33.85 LIG 0.16  HD
ATOM     53  C   GLU B   1      52.432  83.772  37.910  1.00 36.42 LIG 0.25  C 
ATOM     54 O    GLU B   1      53.131  83.406  36.951  1.00 32.31 LIG-0.27  OA
BRANCH 53 55
ATOM     55  CA  GLU B   1      51.544  82.775  38.687  1.00 35.71 LIG 0.28  C 
BRANCH 55 56
ATOM     56  CB  GLU B   1      52.087  82.643  40.114  1.00 39.23 LIG 0.05  C 
BRANCH 56 57
ATOM     57  CG  GLU B   1      53.299  81.716  40.203  1.00 48.64 LIG 0.12  C 
BRANCH 57 58
ATOM     58  CD  GLU B   1      52.978  80.223  40.356  1.00 56.94 LIG 0.17  C 
ATOM     59 OE1  GLU B   1      51.797  79.883  40.170  1.00 65.53 LIG-0.65  OA
ATOM     60 OE2  GLU B   1      53.866  79.382  40.672  1.00 53.19 LIG-0.65  OA
ENDBRANCH 57 58
ENDBRANCH 56 57
ENDBRANCH 55 56
BRANCH 55 61
ATOM     61  N   GLU B   1      51.514  81.423  38.029  1.00 36.67 LIG-0.07  N 
ATOM     62 H1   GLU B   1      51.981  80.844  38.518  1.00 36.67 LIG 0.28  HD
ATOM     63 H3   GLU B   1      51.872  81.480  37.216  1.00 36.67 LIG 0.28  HD
ATOM     64 H2   GLU B   1      50.671  81.144  37.963  1.00 36.67 LIG 0.28  HD
ENDBRANCH 55 61
ENDBRANCH 53 55
ENDBRANCH 50 51
BRANCH 50 65
ATOM     65  CB  LEU B   2      54.701  85.592  37.670  1.00 34.84 LIG 0.04  C 
BRANCH 65 66
ATOM     66  CG  LEU B   2      55.271  84.821  38.872  1.00 34.30 LIG-0.02  C 
ATOM     67  CD2 LEU B   2      55.486  85.736  40.090  1.00 39.39 LIG 0.01  C 
ATOM     68  CD1 LEU B   2      56.560  84.068  38.535  1.00 34.61 LIG 0.01  C 
ENDBRANCH 65 66
ENDBRANCH 50 65
ENDBRANCH 48 50
ENDBRANCH 41 43
ENDBRANCH 1 39
TORSDOF 28
ENDMDL
MODEL 62
USER: ADFR SOLUTION from run 197
USER: SCORE 24.807036 LL:  -7.067 LR: -18.315 RR:   0.000 FEB:  -9.963
USER: RMSD 5.255837
USER: SEED 196
USER: STATUS searching
USER: GENES 30
USER: genes 0 Translation |==|  0.41230 0.56866 0.54439
USER: genes 1 Rotation |==|  0.14752 0.49388 0.84834 0.56616
USER: genes 2 Torsion [N]-CA--C-[N] |==|  0.42924
USER: genes 3 Torsion [C]-N--CA-[C] |==|  0.77588
USER: genes 4 Torsion [N]-CA--CB-[CG2] |==|  0.63617
USER: genes 5 Torsion [N]-CA--C-[N] |==|  0.94707
USER: genes 6 Torsion [C]-N--CA-[C] |==|  0.79241
USER: genes 7 Torsion [N]-CA--C-[N] |==|  0.39497
USER: genes 8 Torsion [C]-N--CA-[CB] |==|  0.34031
USER: genes 9 Torsion [N]-CA--CB-[CG1] |==|  0.73742
USER: genes 10 Torsion [CA]-CB--CG1-[CD1] |==|  0.12475
USER: genes 11 Torsion [N]-CA--C-[OXT] |==|  0.93556
USER: genes 12 Torsion [N]-CA--CB-[CG] |==|  0.88899
USER: genes 13 Torsion [CA]-CB--CG-[CD] |==|  0.27870
USER: genes 14 Torsion [CB]-CG--CD-[CE] |==|  0.54088
USER: genes 15 Torsion [CG]-CD--CE-[NZ] |==|  0.59455
USER: genes 16 Torsion [CD]-CE--NZ-[HZ1] |==|  0.59341
USER: genes 17 Torsion [C]-CA--CB-[CG] |==|  0.81789
USER: genes 18 Torsion [CA]-CB--CG-[CD2] |==|  0.77002
USER: genes 19 Torsion [C]-CA--N-[C] |==|  0.57886
USER: genes 20 Torsion [N]-C--CA-[CB] |==|  0.80336
USER: genes 21 Torsion [N]-C--CA-[N] |==|  0.33920
USER: genes 22 Torsion [C]-CA--N-[C] |==|  0.87778
USER: genes 23 Torsion [N]-C--CA-[N] |==|  0.17357
USER: genes 24 Torsion [C]-CA--CB-[CG] |==|  0.61343
USER: genes 25 Torsion [CA]-CB--CG-[CD] |==|  0.21785
USER: genes 26 Torsion [CB]-CG--CD-[OE1] |==|  0.17275
USER: genes 27 Torsion [C]-CA--N-[H1] |==|  0.25008
USER: genes 28 Torsion [C]-CA--CB-[CG] |==|  0.46437
USER: genes 29 Torsion [CA]-CB--CG-[CD2] |==|  0.20839
ROOT
ATOM      1  CA  LEU B   4      53.797  87.871  31.778  1.00 30.07 LIG 0.18  C 
ENDROOT
BRANCH 1 2
ATOM      2  C   LEU B   4      53.424  87.605  33.214  1.00 30.58 LIG 0.24  C 
ATOM      3 O    LEU B   4      53.770  86.557  33.763  1.00 35.83 LIG-0.27  OA
ATOM      4  N   VAL B   5      52.651  88.513  33.805  1.00 32.24 LIG-0.35  N 
ATOM      5 H    VAL B   5      52.387  89.236  33.420  1.00 32.24 LIG 0.16  HD
BRANCH 4 6
ATOM      6  CA  VAL B   5      52.174  88.359  35.182  1.00 32.53 LIG 0.18  C 
BRANCH 6 7
ATOM      7  CB  VAL B   5      51.779  89.711  35.804  1.00 34.70 LIG 0.01  C 
ATOM      8  CG2 VAL B   5      52.426  89.839  37.159  1.00 38.22 LIG 0.01  C 
ATOM      9  CG1 VAL B   5      50.268  89.863  35.926  1.00 39.77 LIG 0.01  C 
ENDBRANCH 6 7
BRANCH 6 10
ATOM     10  C   VAL B   5      50.981  87.444  35.229  1.00 39.16 LIG 0.24  C 
ATOM     11 O    VAL B   5      50.612  86.924  36.291  1.00 33.69 LIG-0.27  OA
ATOM     12  N   LYS B   6      50.357  87.280  34.075  1.00 40.12 LIG-0.35  N 
ATOM     13 H    LYS B   6      50.582  87.678  33.346  1.00 40.12 LIG 0.16  HD
BRANCH 12 14
ATOM     14  CA  LYS B   6      49.231  86.405  33.948  1.00 45.41 LIG 0.18  C 
BRANCH 14 15
ATOM     15  C   LYS B   6      49.866  85.031  33.976  1.00 44.99 LIG 0.24  C 
ATOM     16 O    LYS B   6      50.959  84.855  33.481  1.00 45.85 LIG-0.27  OA
ATOM     17  N   ILE B   7      49.250  84.051  34.603  1.00 47.54 LIG-0.34  N 
ATOM     18 H    ILE B   7      48.478  84.090  34.980  1.00 47.54 LIG 0.16  HD
BRANCH 17 19
ATOM     19  CA  ILE B   7      49.953  82.757  34.664  1.00 57.67 LIG 0.19  C 
BRANCH 19 20
ATOM     20  CB  ILE B   7      50.209  82.199  36.119  1.00 59.41 LIG 0.01  C 
ATOM     21  CG2 ILE B   7      50.015  80.688  36.195  1.00 60.58 LIG 0.01  C 
BRANCH 20 22
ATOM     22  CG1 ILE B   7      51.621  82.598  36.637  1.00 65.20 LIG 0.00  C 
ATOM     23  CD1 ILE B   7      52.065  84.047  36.416  1.00 51.92 LIG 0.01  C 
ENDBRANCH 20 22
ENDBRANCH 19 20
BRANCH 19 24
ATOM     24  C   ILE B   7      49.381  81.726  33.678  1.00 61.74 LIG 0.20  C 
ATOM     25 O    ILE B   7      50.001  80.755  33.272  1.00 61.53 LIG-0.65  OA
ATOM     26 OXT  ILE B   7      48.225  81.838  33.271  1.00 68.92 LIG-0.65  OA
ENDBRANCH 19 24
ENDBRANCH 17 19
ENDBRANCH 14 15
BRANCH 14 27
ATOM     27  CB  LYS B   6      48.535  86.722  32.614  1.00 46.87 LIG 0.04  C 
BRANCH 27 28
ATOM     28  CG  LYS B   6      48.453  88.197  32.270  1.00 55.56 LIG 0.00  C 
BRANCH 28 29
ATOM     29  CD  LYS B   6      49.520  88.617  31.268  1.00 60.95 LIG 0.03  C 
BRANCH 29 30
ATOM     30  CE  LYS B   6      49.663  90.143  31.205  1.00 62.93 LIG 0.23  C 
BRANCH 30 31
ATOM     31  NZ  LYS B   6      50.002  90.620  29.829  1.00 65.77 LIG-0.08  N 
ATOM     32 HZ1  LYS B   6      50.528  91.336  29.884  1.00 65.77 LIG 0.27  HD
ATOM     33 HZ2  LYS B   6      50.426  89.974  29.386  1.00 65.77 LIG 0.27  HD
ATOM     34 HZ3  LYS B   6      49.254  90.834  29.396  1.00 65.77 LIG 0.27  HD
ENDBRANCH 30 31
ENDBRANCH 29 30
ENDBRANCH 28 29
ENDBRANCH 27 28
ENDBRANCH 14 27
ENDBRANCH 12 14
ENDBRANCH 6 10
ENDBRANCH 4 6
ENDBRANCH 1 2
BRANCH 1 35
ATOM     35  CB  LEU B   4      52.659  87.356  30.921  1.00 28.63 LIG 0.04  C 
BRANCH 35 36
ATOM     36  CG  LEU B   4      52.526  85.842  31.026  1.00 30.56 LIG-0.02  C 
ATOM     37  CD2 LEU B   4      53.516  85.200  30.078  1.00 33.80 LIG 0.01  C 
ATOM     38  CD1 LEU B   4      51.087  85.453  30.646  1.00 28.87 LIG 0.01  C 
ENDBRANCH 35 36
ENDBRANCH 1 35
BRANCH 1 39
ATOM     39  N   LEU B   4      55.050  87.262  31.275  1.00 28.62 LIG-0.35  N 
ATOM     40 H    LEU B   4      55.277  86.530  31.664  1.00 28.62 LIG 0.16  HD
ATOM     41  C   PRO B   3      55.736  87.832  30.305  1.00 33.12 LIG 0.24  C 
ATOM     42 O    PRO B   3      55.293  88.753  29.597  1.00 32.36 LIG-0.27  OA
BRANCH 41 43
ATOM     43  CA  PRO B   3      57.126  87.251  30.055  1.00 33.48 LIG 0.18  C 
ATOM     44  CB  PRO B   3      58.091  87.616  31.215  1.00 32.62 LIG 0.04  C 
ATOM     45  CG  PRO B   3      59.390  87.986  30.550  1.00 32.85 LIG 0.02  C 
ATOM     46  CD  PRO B   3      59.004  88.566  29.191  1.00 29.95 LIG 0.13  C 
ATOM     47  N   PRO B   3      57.675  87.950  28.907  1.00 33.01 LIG-0.34  N 
ATOM     48  C   LEU B   2      56.982  87.900  27.748  1.00 31.97 LIG 0.24  C 
ATOM     49 O    LEU B   2      55.989  87.189  27.566  1.00 33.64 LIG-0.27  OA
BRANCH 48 50
ATOM     50  CA  LEU B   2      57.512  88.729  26.600  1.00 32.67 LIG 0.18  C 
BRANCH 50 51
ATOM     51  N   LEU B   2      57.752  87.786  25.514  1.00 33.85 LIG-0.35  N 
ATOM     52 H    LEU B   2      57.477  88.066  24.749  1.00 33.85 LIG 0.16  HD
ATOM     53  C   GLU B   1      58.339  86.606  25.685  1.00 36.42 LIG 0.25  C 
ATOM     54 O    GLU B   1      58.971  86.325  26.717  1.00 32.31 LIG-0.27  OA
BRANCH 53 55
ATOM     55  CA  GLU B   1      58.292  85.639  24.480  1.00 35.71 LIG 0.28  C 
BRANCH 55 56
ATOM     56  CB  GLU B   1      58.932  84.309  24.894  1.00 39.23 LIG 0.05  C 
BRANCH 56 57
ATOM     57  CG  GLU B   1      59.817  83.711  23.801  1.00 48.64 LIG 0.12  C 
BRANCH 57 58
ATOM     58  CD  GLU B   1      61.210  84.339  23.664  1.00 56.94 LIG 0.17  C 
ATOM     59 OE1  GLU B   1      61.966  84.244  24.646  1.00 65.53 LIG-0.65  OA
ATOM     60 OE2  GLU B   1      61.566  84.940  22.611  1.00 53.19 LIG-0.65  OA
ENDBRANCH 57 58
ENDBRANCH 56 57
ENDBRANCH 55 56
BRANCH 55 61
ATOM     61  N   GLU B   1      59.014  86.198  23.286  1.00 36.67 LIG-0.07  N 
ATOM     62 H1   GLU B   1      59.868  85.948  23.311  1.00 36.67 LIG 0.28  HD
ATOM     63 H3   GLU B   1      58.965  87.087  23.298  1.00 36.67 LIG 0.28  HD
ATOM     64 H2   GLU B   1      58.637  85.891  22.540  1.00 36.67 LIG 0.28  HD
ENDBRANCH 55 61
ENDBRANCH 53 55
ENDBRANCH 50 51
BRANCH 50 65
ATOM     65  CB  LEU B   2      56.474  89.819  26.225  1.00 34.84 LIG 0.04  C 
BRANCH 65 66
ATOM     66  CG  LEU B   2      56.960  90.941  25.292  1.00 34.30 LIG-0.02  C 
ATOM     67  CD2 LEU B   2      57.089  90.460  23.837  1.00 39.39 LIG 0.01  C 
ATOM     68  CD1 LEU B   2      58.269  91.578  25.764  1.00 34.61 LIG 0.01  C 
ENDBRANCH 65 66
ENDBRANCH 50 65
ENDBRANCH 48 50
ENDBRANCH 41 43
ENDBRANCH 1 39
TORSDOF 28
ENDMDL
MODEL 63
USER: ADFR SOLUTION from run 195
USER: SCORE 23.675095 LL:  -6.517 LR: -18.296 RR:   0.000 FEB:  -9.944
USER: RMSD 12.148645
USER: SEED 194
USER: STATUS no improvement in best in 4 clusters for 5 generations
USER: GENES 30
USER: genes 0 Translation |==|  0.41142 0.52737 0.59045
USER: genes 1 Rotation |==|  0.77333 0.09456 0.56169 0.58429
USER: genes 2 Torsion [N]-CA--C-[N] |==|  0.36737
USER: genes 3 Torsion [C]-N--CA-[C] |==|  0.74608
USER: genes 4 Torsion [N]-CA--CB-[CG2] |==|  0.57603
USER: genes 5 Torsion [N]-CA--C-[N] |==|  0.51058
USER: genes 6 Torsion [C]-N--CA-[C] |==|  0.82396
USER: genes 7 Torsion [N]-CA--C-[N] |==|  0.35162
USER: genes 8 Torsion [C]-N--CA-[CB] |==|  0.83021
USER: genes 9 Torsion [N]-CA--CB-[CG1] |==|  0.27832
USER: genes 10 Torsion [CA]-CB--CG1-[CD1] |==|  0.39619
USER: genes 11 Torsion [N]-CA--C-[OXT] |==|  0.82448
USER: genes 12 Torsion [N]-CA--CB-[CG] |==|  0.32853
USER: genes 13 Torsion [CA]-CB--CG-[CD] |==|  0.60779
USER: genes 14 Torsion [CB]-CG--CD-[CE] |==|  0.00868
USER: genes 15 Torsion [CG]-CD--CE-[NZ] |==|  0.21255
USER: genes 16 Torsion [CD]-CE--NZ-[HZ1] |==|  0.26910
USER: genes 17 Torsion [C]-CA--CB-[CG] |==|  0.29097
USER: genes 18 Torsion [CA]-CB--CG-[CD2] |==|  0.77006
USER: genes 19 Torsion [C]-CA--N-[C] |==|  0.53569
USER: genes 20 Torsion [N]-C--CA-[CB] |==|  0.66983
USER: genes 21 Torsion [N]-C--CA-[N] |==|  0.84448
USER: genes 22 Torsion [C]-CA--N-[C] |==|  0.81926
USER: genes 23 Torsion [N]-C--CA-[N] |==|  0.87486
USER: genes 24 Torsion [C]-CA--CB-[CG] |==|  0.30172
USER: genes 25 Torsion [CA]-CB--CG-[CD] |==|  0.90392
USER: genes 26 Torsion [CB]-CG--CD-[OE1] |==|  0.76528
USER: genes 27 Torsion [C]-CA--N-[H1] |==|  0.05653
USER: genes 28 Torsion [C]-CA--CB-[CG] |==|  0.55819
USER: genes 29 Torsion [CA]-CB--CG-[CD2] |==|  0.24077
ROOT
ATOM      1  CA  LEU B   4      53.779  86.942  32.952  1.00 30.07 LIG 0.18  C 
ENDROOT
BRANCH 1 2
ATOM      2  C   LEU B   4      54.217  88.066  32.050  1.00 30.58 LIG 0.24  C 
ATOM      3 O    LEU B   4      53.508  89.066  31.912  1.00 35.83 LIG-0.27  OA
ATOM      4  N   VAL B   5      55.345  87.878  31.369  1.00 32.24 LIG-0.35  N 
ATOM      5 H    VAL B   5      55.833  87.174  31.443  1.00 32.24 LIG 0.16  HD
BRANCH 4 6
ATOM      6  CA  VAL B   5      55.862  88.868  30.420  1.00 32.53 LIG 0.18  C 
BRANCH 6 7
ATOM      7  CB  VAL B   5      57.401  88.870  30.381  1.00 34.70 LIG 0.01  C 
ATOM      8  CG2 VAL B   5      57.884  90.239  29.976  1.00 38.22 LIG 0.01  C 
ATOM      9  CG1 VAL B   5      57.948  87.817  29.425  1.00 39.77 LIG 0.01  C 
ENDBRANCH 6 7
BRANCH 6 10
ATOM     10  C   VAL B   5      55.348  88.592  29.034  1.00 39.16 LIG 0.24  C 
ATOM     11 O    VAL B   5      54.514  87.701  28.825  1.00 33.69 LIG-0.27  OA
ATOM     12  N   LYS B   6      55.824  89.388  28.092  1.00 40.12 LIG-0.35  N 
ATOM     13 H    LYS B   6      56.367  90.039  28.242  1.00 40.12 LIG 0.16  HD
BRANCH 12 14
ATOM     14  CA  LYS B   6      55.464  89.223  26.716  1.00 45.41 LIG 0.18  C 
BRANCH 14 15
ATOM     15  C   LYS B   6      56.020  87.855  26.383  1.00 44.99 LIG 0.24  C 
ATOM     16 O    LYS B   6      57.170  87.581  26.659  1.00 45.85 LIG-0.27  OA
ATOM     17  N   ILE B   7      55.225  86.948  25.857  1.00 47.54 LIG-0.34  N 
ATOM     18 H    ILE B   7      54.401  87.057  25.634  1.00 47.54 LIG 0.16  HD
BRANCH 17 19
ATOM     19  CA  ILE B   7      55.802  85.611  25.627  1.00 57.67 LIG 0.19  C 
BRANCH 19 20
ATOM     20  CB  ILE B   7      57.027  85.570  24.631  1.00 59.41 LIG 0.01  C 
ATOM     21  CG2 ILE B   7      57.017  86.749  23.664  1.00 60.58 LIG 0.01  C 
BRANCH 20 22
ATOM     22  CG1 ILE B   7      58.378  85.501  25.399  1.00 65.20 LIG 0.00  C 
ATOM     23  CD1 ILE B   7      59.485  84.633  24.793  1.00 51.92 LIG 0.01  C 
ENDBRANCH 20 22
ENDBRANCH 19 20
BRANCH 19 24
ATOM     24  C   ILE B   7      56.016  84.827  26.931  1.00 61.74 LIG 0.20  C 
ATOM     25 O    ILE B   7      55.466  83.768  27.188  1.00 61.53 LIG-0.65  OA
ATOM     26 OXT  ILE B   7      56.802  85.248  27.782  1.00 68.92 LIG-0.65  OA
ENDBRANCH 19 24
ENDBRANCH 17 19
ENDBRANCH 14 15
BRANCH 14 27
ATOM     27  CB  LYS B   6      56.127  90.356  25.915  1.00 46.87 LIG 0.04  C 
BRANCH 27 28
ATOM     28  CG  LYS B   6      57.118  89.901  24.861  1.00 55.56 LIG 0.00  C 
BRANCH 28 29
ATOM     29  CD  LYS B   6      58.335  90.812  24.779  1.00 60.95 LIG 0.03  C 
BRANCH 29 30
ATOM     30  CE  LYS B   6      58.283  91.918  25.839  1.00 62.93 LIG 0.23  C 
BRANCH 30 31
ATOM     31  NZ  LYS B   6      58.639  91.410  27.201  1.00 65.77 LIG-0.08  N 
ATOM     32 HZ1  LYS B   6      59.498  91.576  27.365  1.00 65.77 LIG 0.27  HD
ATOM     33 HZ2  LYS B   6      58.136  91.818  27.811  1.00 65.77 LIG 0.27  HD
ATOM     34 HZ3  LYS B   6      58.495  90.532  27.237  1.00 65.77 LIG 0.27  HD
ENDBRANCH 30 31
ENDBRANCH 29 30
ENDBRANCH 28 29
ENDBRANCH 27 28
ENDBRANCH 14 27
ENDBRANCH 12 14
ENDBRANCH 6 10
ENDBRANCH 4 6
ENDBRANCH 1 2
BRANCH 1 35
ATOM     35  CB  LEU B   4      52.595  86.273  32.285  1.00 28.63 LIG 0.04  C 
BRANCH 35 36
ATOM     36  CG  LEU B   4      52.989  84.939  31.663  1.00 30.56 LIG-0.02  C 
ATOM     37  CD2 LEU B   4      53.597  85.198  30.302  1.00 33.80 LIG 0.01  C 
ATOM     38  CD1 LEU B   4      51.725  84.072  31.532  1.00 28.87 LIG 0.01  C 
ENDBRANCH 35 36
ENDBRANCH 1 35
BRANCH 1 39
ATOM     39  N   LEU B   4      53.379  87.293  34.335  1.00 28.62 LIG-0.35  N 
ATOM     40 H    LEU B   4      53.260  88.133  34.473  1.00 28.62 LIG 0.16  HD
ATOM     41  C   PRO B   3      53.227  86.359  35.252  1.00 33.12 LIG 0.24  C 
ATOM     42 O    PRO B   3      53.174  85.143  34.995  1.00 32.36 LIG-0.27  OA
BRANCH 41 43
ATOM     43  CA  PRO B   3      53.066  86.865  36.684  1.00 33.48 LIG 0.18  C 
ATOM     44  CB  PRO B   3      54.215  86.339  37.585  1.00 32.62 LIG 0.04  C 
ATOM     45  CG  PRO B   3      53.553  85.942  38.879  1.00 32.85 LIG 0.02  C 
ATOM     46  CD  PRO B   3      52.140  85.508  38.500  1.00 29.95 LIG 0.13  C 
ATOM     47  N   PRO B   3      51.876  86.233  37.223  1.00 33.01 LIG-0.34  N 
ATOM     48  C   LEU B   2      50.708  86.429  36.572  1.00 31.97 LIG 0.24  C 
ATOM     49 O    LEU B   2      50.564  87.217  35.632  1.00 33.64 LIG-0.27  OA
BRANCH 48 50
ATOM     50  CA  LEU B   2      49.506  85.669  37.084  1.00 32.67 LIG 0.18  C 
BRANCH 50 51
ATOM     51  N   LEU B   2      49.891  84.262  37.057  1.00 33.85 LIG-0.35  N 
ATOM     52 H    LEU B   2      49.932  83.903  37.837  1.00 33.85 LIG 0.16  HD
ATOM     53  C   GLU B   1      50.155  83.595  35.939  1.00 36.42 LIG 0.25  C 
ATOM     54 O    GLU B   1      49.834  84.029  34.820  1.00 32.31 LIG-0.27  OA
BRANCH 53 55
ATOM     55  CA  GLU B   1      50.781  82.193  36.110  1.00 35.71 LIG 0.28  C 
BRANCH 55 56
ATOM     56  CB  GLU B   1      49.683  81.216  36.547  1.00 39.23 LIG 0.05  C 
BRANCH 56 57
ATOM     57  CG  GLU B   1      49.296  80.230  35.446  1.00 48.64 LIG 0.12  C 
BRANCH 57 58
ATOM     58  CD  GLU B   1      49.345  80.786  34.016  1.00 56.94 LIG 0.17  C 
ATOM     59 OE1  GLU B   1      48.340  81.400  33.619  1.00 65.53 LIG-0.65  OA
ATOM     60 OE2  GLU B   1      50.351  80.613  33.271  1.00 53.19 LIG-0.65  OA
ENDBRANCH 57 58
ENDBRANCH 56 57
ENDBRANCH 55 56
BRANCH 55 61
ATOM     61  N   GLU B   1      51.889  82.196  37.126  1.00 36.67 LIG-0.07  N 
ATOM     62 H1   GLU B   1      51.804  82.906  37.656  1.00 36.67 LIG 0.28  HD
ATOM     63 H3   GLU B   1      52.675  82.231  36.709  1.00 36.67 LIG 0.28  HD
ATOM     64 H2   GLU B   1      51.846  81.454  37.616  1.00 36.67 LIG 0.28  HD
ENDBRANCH 55 61
ENDBRANCH 53 55
ENDBRANCH 50 51
BRANCH 50 65
ATOM     65  CB  LEU B   2      49.147  86.163  38.509  1.00 34.84 LIG 0.04  C 
BRANCH 65 66
ATOM     66  CG  LEU B   2      48.307  85.212  39.378  1.00 34.30 LIG-0.02  C 
ATOM     67  CD2 LEU B   2      49.186  84.210  40.145  1.00 39.39 LIG 0.01  C 
ATOM     68  CD1 LEU B   2      47.230  84.476  38.577  1.00 34.61 LIG 0.01  C 
ENDBRANCH 65 66
ENDBRANCH 50 65
ENDBRANCH 48 50
ENDBRANCH 41 43
ENDBRANCH 1 39
TORSDOF 28
ENDMDL
MODEL 64
USER: ADFR SOLUTION from run 41
USER: SCORE 26.094818 LL:  -8.376 LR: -18.288 RR:   0.000 FEB:  -9.936
USER: RMSD 12.562627
USER: SEED 40
USER: STATUS no improvement in best in 6 clusters for 5 generations
USER: GENES 30
USER: genes 0 Translation |==|  0.53217 0.57549 0.45852
USER: genes 1 Rotation |==|  0.11481 0.35840 0.22114 0.56176
USER: genes 2 Torsion [N]-CA--C-[N] |==|  0.91261
USER: genes 3 Torsion [C]-N--CA-[C] |==|  0.55007
USER: genes 4 Torsion [N]-CA--CB-[CG2] |==|  0.59026
USER: genes 5 Torsion [N]-CA--C-[N] |==|  0.45772
USER: genes 6 Torsion [C]-N--CA-[C] |==|  0.72795
USER: genes 7 Torsion [N]-CA--C-[N] |==|  0.46854
USER: genes 8 Torsion [C]-N--CA-[CB] |==|  0.37705
USER: genes 9 Torsion [N]-CA--CB-[CG1] |==|  0.58912
USER: genes 10 Torsion [CA]-CB--CG1-[CD1] |==|  0.06472
USER: genes 11 Torsion [N]-CA--C-[OXT] |==|  0.40788
USER: genes 12 Torsion [N]-CA--CB-[CG] |==|  0.27460
USER: genes 13 Torsion [CA]-CB--CG-[CD] |==|  0.37951
USER: genes 14 Torsion [CB]-CG--CD-[CE] |==|  0.59086
USER: genes 15 Torsion [CG]-CD--CE-[NZ] |==|  0.28111
USER: genes 16 Torsion [CD]-CE--NZ-[HZ1] |==|  0.44955
USER: genes 17 Torsion [C]-CA--CB-[CG] |==|  0.52206
USER: genes 18 Torsion [CA]-CB--CG-[CD2] |==|  0.65654
USER: genes 19 Torsion [C]-CA--N-[C] |==|  0.82030
USER: genes 20 Torsion [N]-C--CA-[CB] |==|  0.63251
USER: genes 21 Torsion [N]-C--CA-[N] |==|  0.33387
USER: genes 22 Torsion [C]-CA--N-[C] |==|  0.85326
USER: genes 23 Torsion [N]-C--CA-[N] |==|  0.07261
USER: genes 24 Torsion [C]-CA--CB-[CG] |==|  0.39935
USER: genes 25 Torsion [CA]-CB--CG-[CD] |==|  0.08033
USER: genes 26 Torsion [CB]-CG--CD-[OE1] |==|  0.13584
USER: genes 27 Torsion [C]-CA--N-[H1] |==|  0.19676
USER: genes 28 Torsion [C]-CA--CB-[CG] |==|  0.26918
USER: genes 29 Torsion [CA]-CB--CG-[CD2] |==|  0.83167
ROOT
ATOM      1  CA  LEU B   4      56.315  88.024  29.588  1.00 30.07 LIG 0.18  C 
ENDROOT
BRANCH 1 2
ATOM      2  C   LEU B   4      56.271  87.732  28.110  1.00 30.58 LIG 0.24  C 
ATOM      3 O    LEU B   4      56.208  88.655  27.295  1.00 35.83 LIG-0.27  OA
ATOM      4  N   VAL B   5      56.223  86.449  27.759  1.00 32.24 LIG-0.35  N 
ATOM      5 H    VAL B   5      56.244  85.801  28.323  1.00 32.24 LIG 0.16  HD
BRANCH 4 6
ATOM      6  CA  VAL B   5      56.130  86.023  26.359  1.00 32.53 LIG 0.18  C 
BRANCH 6 7
ATOM      7  CB  VAL B   5      57.485  86.137  25.638  1.00 34.70 LIG 0.01  C 
ATOM      8  CG2 VAL B   5      57.246  86.478  24.190  1.00 38.22 LIG 0.01  C 
ATOM      9  CG1 VAL B   5      58.299  84.853  25.747  1.00 39.77 LIG 0.01  C 
ENDBRANCH 6 7
BRANCH 6 10
ATOM     10  C   VAL B   5      55.659  84.597  26.271  1.00 39.16 LIG 0.24  C 
ATOM     11 O    VAL B   5      55.639  83.865  27.269  1.00 33.69 LIG-0.27  OA
ATOM     12  N   LYS B   6      55.243  84.219  25.074  1.00 40.12 LIG-0.35  N 
ATOM     13 H    LYS B   6      55.210  84.741  24.390  1.00 40.12 LIG 0.16  HD
BRANCH 12 14
ATOM     14  CA  LYS B   6      54.805  82.880  24.820  1.00 45.41 LIG 0.18  C 
BRANCH 14 15
ATOM     15  C   LYS B   6      56.031  82.234  24.211  1.00 44.99 LIG 0.24  C 
ATOM     16 O    LYS B   6      56.999  82.910  23.929  1.00 45.85 LIG-0.27  OA
ATOM     17  N   ILE B   7      56.060  80.928  24.056  1.00 47.54 LIG-0.34  N 
ATOM     18 H    ILE B   7      55.422  80.378  24.230  1.00 47.54 LIG 0.16  HD
BRANCH 17 19
ATOM     19  CA  ILE B   7      57.309  80.348  23.531  1.00 57.67 LIG 0.19  C 
BRANCH 19 20
ATOM     20  CB  ILE B   7      57.809  79.046  24.271  1.00 59.41 LIG 0.01  C 
ATOM     21  CG2 ILE B   7      57.197  77.781  23.680  1.00 60.58 LIG 0.01  C 
BRANCH 20 22
ATOM     22  CG1 ILE B   7      59.363  78.957  24.271  1.00 65.20 LIG 0.00  C 
ATOM     23  CD1 ILE B   7      60.140  80.266  24.106  1.00 51.92 LIG 0.01  C 
ENDBRANCH 20 22
ENDBRANCH 19 20
BRANCH 19 24
ATOM     24  C   ILE B   7      57.318  80.252  21.997  1.00 61.74 LIG 0.20  C 
ATOM     25 O    ILE B   7      56.318  80.066  21.321  1.00 61.53 LIG-0.65  OA
ATOM     26 OXT  ILE B   7      58.372  80.390  21.377  1.00 68.92 LIG-0.65  OA
ENDBRANCH 19 24
ENDBRANCH 17 19
ENDBRANCH 14 15
BRANCH 14 27
ATOM     27  CB  LYS B   6      53.613  82.950  23.850  1.00 46.87 LIG 0.04  C 
BRANCH 27 28
ATOM     28  CG  LYS B   6      53.956  82.689  22.396  1.00 55.56 LIG 0.00  C 
BRANCH 28 29
ATOM     29  CD  LYS B   6      52.942  81.778  21.717  1.00 60.95 LIG 0.03  C 
BRANCH 29 30
ATOM     30  CE  LYS B   6      53.603  80.898  20.649  1.00 62.93 LIG 0.23  C 
BRANCH 30 31
ATOM     31  NZ  LYS B   6      53.842  79.504  21.138  1.00 65.77 LIG-0.08  N 
ATOM     32 HZ1  LYS B   6      53.972  78.964  20.442  1.00 65.77 LIG 0.27  HD
ATOM     33 HZ2  LYS B   6      54.561  79.492  21.661  1.00 65.77 LIG 0.27  HD
ATOM     34 HZ3  LYS B   6      53.134  79.227  21.600  1.00 65.77 LIG 0.27  HD
ENDBRANCH 30 31
ENDBRANCH 29 30
ENDBRANCH 28 29
ENDBRANCH 27 28
ENDBRANCH 14 27
ENDBRANCH 12 14
ENDBRANCH 6 10
ENDBRANCH 4 6
ENDBRANCH 1 2
BRANCH 1 35
ATOM     35  CB  LEU B   4      57.775  88.059  29.991  1.00 28.63 LIG 0.04  C 
BRANCH 35 36
ATOM     36  CG  LEU B   4      57.931  88.155  31.503  1.00 30.56 LIG-0.02  C 
ATOM     37  CD2 LEU B   4      58.763  89.376  31.831  1.00 33.80 LIG 0.01  C 
ATOM     38  CD1 LEU B   4      58.629  86.878  32.001  1.00 28.87 LIG 0.01  C 
ENDBRANCH 35 36
ENDBRANCH 1 35
BRANCH 1 39
ATOM     39  N   LEU B   4      55.620  87.079  30.492  1.00 28.62 LIG-0.35  N 
ATOM     40 H    LEU B   4      56.135  86.652  31.032  1.00 28.62 LIG 0.16  HD
ATOM     41  C   PRO B   3      54.312  86.931  30.439  1.00 33.12 LIG 0.24  C 
ATOM     42 O    PRO B   3      53.555  87.706  29.827  1.00 32.36 LIG-0.27  OA
BRANCH 41 43
ATOM     43  CA  PRO B   3      53.751  85.753  31.233  1.00 33.48 LIG 0.18  C 
ATOM     44  CB  PRO B   3      52.752  84.936  30.373  1.00 32.62 LIG 0.04  C 
ATOM     45  CG  PRO B   3      51.606  84.610  31.295  1.00 32.85 LIG 0.02  C 
ATOM     46  CD  PRO B   3      51.542  85.766  32.290  1.00 29.95 LIG 0.13  C 
ATOM     47  N   PRO B   3      52.930  86.312  32.292  1.00 33.01 LIG-0.34  N 
ATOM     48  C   LEU B   2      53.516  87.166  33.161  1.00 31.97 LIG 0.24  C 
ATOM     49 O    LEU B   2      54.729  87.394  33.194  1.00 33.64 LIG-0.27  OA
BRANCH 48 50
ATOM     50  CA  LEU B   2      52.617  87.823  34.183  1.00 32.67 LIG 0.18  C 
BRANCH 50 51
ATOM     51  N   LEU B   2      53.141  87.420  35.483  1.00 33.85 LIG-0.35  N 
ATOM     52 H    LEU B   2      53.298  88.081  36.010  1.00 33.85 LIG 0.16  HD
ATOM     53  C   GLU B   1      53.358  86.154  35.825  1.00 36.42 LIG 0.25  C 
ATOM     54 O    GLU B   1      52.883  85.205  35.180  1.00 32.31 LIG-0.27  OA
BRANCH 53 55
ATOM     55  CA  GLU B   1      54.140  85.926  37.138  1.00 35.71 LIG 0.28  C 
BRANCH 55 56
ATOM     56  CB  GLU B   1      53.632  84.636  37.793  1.00 39.23 LIG 0.05  C 
BRANCH 56 57
ATOM     57  CG  GLU B   1      54.742  83.845  38.484  1.00 48.64 LIG 0.12  C 
BRANCH 57 58
ATOM     58  CD  GLU B   1      55.912  84.682  39.019  1.00 56.94 LIG 0.17  C 
ATOM     59 OE1  GLU B   1      55.621  85.678  39.702  1.00 65.53 LIG-0.65  OA
ATOM     60 OE2  GLU B   1      57.113  84.383  38.764  1.00 53.19 LIG-0.65  OA
ENDBRANCH 57 58
ENDBRANCH 56 57
ENDBRANCH 55 56
BRANCH 55 61
ATOM     61  N   GLU B   1      53.979  87.076  38.092  1.00 36.67 LIG-0.07  N 
ATOM     62 H1   GLU B   1      53.150  87.080  38.415  1.00 36.67 LIG 0.28  HD
ATOM     63 H3   GLU B   1      54.133  87.841  37.664  1.00 36.67 LIG 0.28  HD
ATOM     64 H2   GLU B   1      54.559  86.990  38.762  1.00 36.67 LIG 0.28  HD
ENDBRANCH 55 61
ENDBRANCH 53 55
ENDBRANCH 50 51
BRANCH 50 65
ATOM     65  CB  LEU B   2      52.639  89.361  33.981  1.00 34.84 LIG 0.04  C 
BRANCH 65 66
ATOM     66  CG  LEU B   2      51.491  89.964  33.155  1.00 34.30 LIG-0.02  C 
ATOM     67  CD2 LEU B   2      51.459  89.403  31.722  1.00 39.39 LIG 0.01  C 
ATOM     68  CD1 LEU B   2      51.519  91.493  33.130  1.00 34.61 LIG 0.01  C 
ENDBRANCH 65 66
ENDBRANCH 50 65
ENDBRANCH 48 50
ENDBRANCH 41 43
ENDBRANCH 1 39
TORSDOF 28
ENDMDL
MODEL 65
USER: ADFR SOLUTION from run 51
USER: SCORE 24.774106 LL:  -6.876 LR: -18.253 RR:   0.000 FEB:  -9.901
USER: RMSD 12.387101
USER: SEED 50
USER: STATUS no improvement in best in 4 clusters for 5 generations
USER: GENES 30
USER: genes 0 Translation |==|  0.52579 0.56796 0.46219
USER: genes 1 Rotation |==|  0.11275 0.37710 0.21658 0.56788
USER: genes 2 Torsion [N]-CA--C-[N] |==|  0.89682
USER: genes 3 Torsion [C]-N--CA-[C] |==|  0.56599
USER: genes 4 Torsion [N]-CA--CB-[CG2] |==|  0.11560
USER: genes 5 Torsion [N]-CA--C-[N] |==|  0.44447
USER: genes 6 Torsion [C]-N--CA-[C] |==|  0.80907
USER: genes 7 Torsion [N]-CA--C-[N] |==|  0.90169
USER: genes 8 Torsion [C]-N--CA-[CB] |==|  0.18132
USER: genes 9 Torsion [N]-CA--CB-[CG1] |==|  0.61129
USER: genes 10 Torsion [CA]-CB--CG1-[CD1] |==|  0.25289
USER: genes 11 Torsion [N]-CA--C-[OXT] |==|  0.98567
USER: genes 12 Torsion [N]-CA--CB-[CG] |==|  0.27355
USER: genes 13 Torsion [CA]-CB--CG-[CD] |==|  0.32527
USER: genes 14 Torsion [CB]-CG--CD-[CE] |==|  0.67001
USER: genes 15 Torsion [CG]-CD--CE-[NZ] |==|  0.42988
USER: genes 16 Torsion [CD]-CE--NZ-[HZ1] |==|  0.24488
USER: genes 17 Torsion [C]-CA--CB-[CG] |==|  0.49474
USER: genes 18 Torsion [CA]-CB--CG-[CD2] |==|  0.68182
USER: genes 19 Torsion [C]-CA--N-[C] |==|  0.82264
USER: genes 20 Torsion [N]-C--CA-[CB] |==|  0.63558
USER: genes 21 Torsion [N]-C--CA-[N] |==|  0.12565
USER: genes 22 Torsion [C]-CA--N-[C] |==|  0.17096
USER: genes 23 Torsion [N]-C--CA-[N] |==|  0.04015
USER: genes 24 Torsion [C]-CA--CB-[CG] |==|  0.83313
USER: genes 25 Torsion [CA]-CB--CG-[CD] |==|  0.68773
USER: genes 26 Torsion [CB]-CG--CD-[OE1] |==|  0.72374
USER: genes 27 Torsion [C]-CA--N-[H1] |==|  0.35932
USER: genes 28 Torsion [C]-CA--CB-[CG] |==|  0.55148
USER: genes 29 Torsion [CA]-CB--CG-[CD2] |==|  0.63815
ROOT
ATOM      1  CA  LEU B   4      56.181  87.855  29.682  1.00 30.07 LIG 0.18  C 
ENDROOT
BRANCH 1 2
ATOM      2  C   LEU B   4      56.115  87.662  28.189  1.00 30.58 LIG 0.24  C 
ATOM      3 O    LEU B   4      55.988  88.633  27.440  1.00 35.83 LIG-0.27  OA
ATOM      4  N   VAL B   5      56.121  86.405  27.751  1.00 32.24 LIG-0.35  N 
ATOM      5 H    VAL B   5      56.187  85.721  28.269  1.00 32.24 LIG 0.16  HD
BRANCH 4 6
ATOM      6  CA  VAL B   5      56.015  86.070  26.327  1.00 32.53 LIG 0.18  C 
BRANCH 6 7
ATOM      7  CB  VAL B   5      57.377  86.164  25.617  1.00 34.70 LIG 0.01  C 
ATOM      8  CG2 VAL B   5      58.440  85.573  26.507  1.00 38.22 LIG 0.01  C 
ATOM      9  CG1 VAL B   5      57.735  87.601  25.257  1.00 39.77 LIG 0.01  C 
ENDBRANCH 6 7
BRANCH 6 10
ATOM     10  C   VAL B   5      55.477  84.676  26.151  1.00 39.16 LIG 0.24  C 
ATOM     11 O    VAL B   5      55.499  83.858  27.079  1.00 33.69 LIG-0.27  OA
ATOM     12  N   LYS B   6      54.960  84.424  24.961  1.00 40.12 LIG-0.35  N 
ATOM     13 H    LYS B   6      54.899  85.006  24.330  1.00 40.12 LIG 0.16  HD
BRANCH 12 14
ATOM     14  CA  LYS B   6      54.448  83.130  24.624  1.00 45.41 LIG 0.18  C 
BRANCH 14 15
ATOM     15  C   LYS B   6      55.696  82.276  24.572  1.00 44.99 LIG 0.24  C 
ATOM     16 O    LYS B   6      55.646  81.104  24.882  1.00 45.85 LIG-0.27  OA
ATOM     17  N   ILE B   7      56.816  82.801  24.122  1.00 47.54 LIG-0.34  N 
ATOM     18 H    ILE B   7      56.937  83.618  23.881  1.00 47.54 LIG 0.16  HD
BRANCH 17 19
ATOM     19  CA  ILE B   7      57.978  81.900  24.020  1.00 57.67 LIG 0.19  C 
BRANCH 19 20
ATOM     20  CB  ILE B   7      57.832  80.731  22.969  1.00 59.41 LIG 0.01  C 
ATOM     21  CG2 ILE B   7      58.458  81.088  21.626  1.00 60.58 LIG 0.01  C 
BRANCH 20 22
ATOM     22  CG1 ILE B   7      58.427  79.401  23.516  1.00 65.20 LIG 0.00  C 
ATOM     23  CD1 ILE B   7      57.478  78.466  24.271  1.00 51.92 LIG 0.01  C 
ENDBRANCH 20 22
ENDBRANCH 19 20
BRANCH 19 24
ATOM     24  C   ILE B   7      59.311  82.660  23.946  1.00 61.74 LIG 0.20  C 
ATOM     25 O    ILE B   7      60.405  82.117  23.924  1.00 61.53 LIG-0.65  OA
ATOM     26 OXT  ILE B   7      59.317  83.889  23.878  1.00 68.92 LIG-0.65  OA
ENDBRANCH 19 24
ENDBRANCH 17 19
ENDBRANCH 14 15
BRANCH 14 27
ATOM     27  CB  LYS B   6      53.735  83.244  23.265  1.00 46.87 LIG 0.04  C 
BRANCH 27 28
ATOM     28  CG  LYS B   6      54.558  82.798  22.072  1.00 55.56 LIG 0.00  C 
BRANCH 28 29
ATOM     29  CD  LYS B   6      53.943  81.602  21.359  1.00 60.95 LIG 0.03  C 
BRANCH 29 30
ATOM     30  CE  LYS B   6      54.883  80.390  21.380  1.00 62.93 LIG 0.23  C 
BRANCH 30 31
ATOM     31  NZ  LYS B   6      54.139  79.098  21.259  1.00 65.77 LIG-0.08  N 
ATOM     32 HZ1  LYS B   6      54.037  78.894  20.399  1.00 65.77 LIG 0.27  HD
ATOM     33 HZ2  LYS B   6      54.598  78.452  21.664  1.00 65.77 LIG 0.27  HD
ATOM     34 HZ3  LYS B   6      53.339  79.179  21.642  1.00 65.77 LIG 0.27  HD
ENDBRANCH 30 31
ENDBRANCH 29 30
ENDBRANCH 28 29
ENDBRANCH 27 28
ENDBRANCH 14 27
ENDBRANCH 12 14
ENDBRANCH 6 10
ENDBRANCH 4 6
ENDBRANCH 1 2
BRANCH 1 35
ATOM     35  CB  LEU B   4      57.643  87.793  30.074  1.00 28.63 LIG 0.04  C 
BRANCH 35 36
ATOM     36  CG  LEU B   4      57.827  88.025  31.568  1.00 30.56 LIG-0.02  C 
ATOM     37  CD2 LEU B   4      58.586  89.318  31.771  1.00 33.80 LIG 0.01  C 
ATOM     38  CD1 LEU B   4      58.617  86.840  32.150  1.00 28.87 LIG 0.01  C 
ENDBRANCH 35 36
ENDBRANCH 1 35
BRANCH 1 39
ATOM     39  N   LEU B   4      55.445  86.887  30.528  1.00 28.62 LIG-0.35  N 
ATOM     40 H    LEU B   4      55.941  86.410  31.044  1.00 28.62 LIG 0.16  HD
ATOM     41  C   PRO B   3      54.132  86.795  30.465  1.00 33.12 LIG 0.24  C 
ATOM     42 O    PRO B   3      53.410  87.633  29.897  1.00 32.36 LIG-0.27  OA
BRANCH 41 43
ATOM     43  CA  PRO B   3      53.522  85.597  31.189  1.00 33.48 LIG 0.18  C 
ATOM     44  CB  PRO B   3      52.515  84.855  30.271  1.00 32.62 LIG 0.04  C 
ATOM     45  CG  PRO B   3      51.344  84.519  31.156  1.00 32.85 LIG 0.02  C 
ATOM     46  CD  PRO B   3      51.295  85.625  32.207  1.00 29.95 LIG 0.13  C 
ATOM     47  N   PRO B   3      52.699  86.127  32.260  1.00 33.01 LIG-0.34  N 
ATOM     48  C   LEU B   2      53.293  86.918  33.181  1.00 31.97 LIG 0.24  C 
ATOM     49 O    LEU B   2      54.512  87.107  33.246  1.00 33.64 LIG-0.27  OA
BRANCH 48 50
ATOM     50  CA  LEU B   2      52.396  87.551  34.219  1.00 32.67 LIG 0.18  C 
BRANCH 50 51
ATOM     51  N   LEU B   2      51.509  86.485  34.672  1.00 33.85 LIG-0.35  N 
ATOM     52 H    LEU B   2      50.678  86.643  34.519  1.00 33.85 LIG 0.16  HD
ATOM     53  C   GLU B   1      51.939  85.377  35.265  1.00 36.42 LIG 0.25  C 
ATOM     54 O    GLU B   1      53.132  85.033  35.238  1.00 32.31 LIG-0.27  OA
BRANCH 53 55
ATOM     55  CA  GLU B   1      50.854  84.474  35.896  1.00 35.71 LIG 0.28  C 
BRANCH 55 56
ATOM     56  CB  GLU B   1      51.154  83.017  35.527  1.00 39.23 LIG 0.05  C 
BRANCH 56 57
ATOM     57  CG  GLU B   1      51.156  82.776  34.018  1.00 48.64 LIG 0.12  C 
BRANCH 57 58
ATOM     58  CD  GLU B   1      50.017  81.894  33.490  1.00 56.94 LIG 0.17  C 
ATOM     59 OE1  GLU B   1      50.288  80.701  33.271  1.00 65.53 LIG-0.65  OA
ATOM     60 OE2  GLU B   1      48.863  82.360  33.271  1.00 53.19 LIG-0.65  OA
ENDBRANCH 57 58
ENDBRANCH 56 57
ENDBRANCH 55 56
BRANCH 55 61
ATOM     61  N   GLU B   1      49.476  84.843  35.422  1.00 36.67 LIG-0.07  N 
ATOM     62 H1   GLU B   1      49.055  84.114  35.135  1.00 36.67 LIG 0.28  HD
ATOM     63 H3   GLU B   1      49.537  85.431  34.756  1.00 36.67 LIG 0.28  HD
ATOM     64 H2   GLU B   1      49.018  85.205  36.094  1.00 36.67 LIG 0.28  HD
ENDBRANCH 55 61
ENDBRANCH 53 55
ENDBRANCH 50 51
BRANCH 50 65
ATOM     65  CB  LEU B   2      53.261  88.136  35.366  1.00 34.84 LIG 0.04  C 
BRANCH 65 66
ATOM     66  CG  LEU B   2      52.542  88.419  36.696  1.00 34.30 LIG-0.02  C 
ATOM     67  CD2 LEU B   2      52.834  89.837  37.215  1.00 39.39 LIG 0.01  C 
ATOM     68  CD1 LEU B   2      52.859  87.379  37.773  1.00 34.61 LIG 0.01  C 
ENDBRANCH 65 66
ENDBRANCH 50 65
ENDBRANCH 48 50
ENDBRANCH 41 43
ENDBRANCH 1 39
TORSDOF 28
ENDMDL
MODEL 66
USER: ADFR SOLUTION from run 11
USER: SCORE 25.284743 LL:  -7.815 LR: -18.220 RR:   0.000 FEB:  -9.868
USER: RMSD 12.771072
USER: SEED 541229
USER: STATUS no improvement in best in 6 clusters for 5 generations
USER: GENES 30
USER: genes 0 Translation |==|  0.52054 0.60781 0.48074
USER: genes 1 Rotation |==|  0.21613 0.25376 0.17490 0.55559
USER: genes 2 Torsion [N]-CA--C-[N] |==|  0.38780
USER: genes 3 Torsion [C]-N--CA-[C] |==|  0.50016
USER: genes 4 Torsion [N]-CA--CB-[CG2] |==|  0.07648
USER: genes 5 Torsion [N]-CA--C-[N] |==|  0.44516
USER: genes 6 Torsion [C]-N--CA-[C] |==|  0.76153
USER: genes 7 Torsion [N]-CA--C-[N] |==|  0.38660
USER: genes 8 Torsion [C]-N--CA-[CB] |==|  0.31455
USER: genes 9 Torsion [N]-CA--CB-[CG1] |==|  0.95175
USER: genes 10 Torsion [CA]-CB--CG1-[CD1] |==|  0.78837
USER: genes 11 Torsion [N]-CA--C-[OXT] |==|  0.00796
USER: genes 12 Torsion [N]-CA--CB-[CG] |==|  0.27743
USER: genes 13 Torsion [CA]-CB--CG-[CD] |==|  0.25822
USER: genes 14 Torsion [CB]-CG--CD-[CE] |==|  0.03098
USER: genes 15 Torsion [CG]-CD--CE-[NZ] |==|  0.72090
USER: genes 16 Torsion [CD]-CE--NZ-[HZ1] |==|  0.87733
USER: genes 17 Torsion [C]-CA--CB-[CG] |==|  0.96136
USER: genes 18 Torsion [CA]-CB--CG-[CD2] |==|  0.62518
USER: genes 19 Torsion [C]-CA--N-[C] |==|  0.76144
USER: genes 20 Torsion [N]-C--CA-[CB] |==|  0.59000
USER: genes 21 Torsion [N]-C--CA-[N] |==|  0.36323
USER: genes 22 Torsion [C]-CA--N-[C] |==|  0.78477
USER: genes 23 Torsion [N]-C--CA-[N] |==|  0.17913
USER: genes 24 Torsion [C]-CA--CB-[CG] |==|  0.62104
USER: genes 25 Torsion [CA]-CB--CG-[CD] |==|  0.81194
USER: genes 26 Torsion [CB]-CG--CD-[OE1] |==|  0.24964
USER: genes 27 Torsion [C]-CA--N-[H1] |==|  0.52345
USER: genes 28 Torsion [C]-CA--CB-[CG] |==|  0.61220
USER: genes 29 Torsion [CA]-CB--CG-[CD2] |==|  0.84298
ROOT
ATOM      1  CA  LEU B   4      56.070  88.752  30.155  1.00 30.07 LIG 0.18  C 
ENDROOT
BRANCH 1 2
ATOM      2  C   LEU B   4      56.783  88.383  28.879  1.00 30.58 LIG 0.24  C 
ATOM      3 O    LEU B   4      57.523  87.398  28.842  1.00 35.83 LIG-0.27  OA
ATOM      4  N   VAL B   5      56.629  89.214  27.851  1.00 32.24 LIG-0.35  N 
ATOM      5 H    VAL B   5      56.132  89.915  27.876  1.00 32.24 LIG 0.16  HD
BRANCH 4 6
ATOM      6  CA  VAL B   5      57.302  89.003  26.565  1.00 32.53 LIG 0.18  C 
BRANCH 6 7
ATOM      7  CB  VAL B   5      56.923  87.648  25.939  1.00 34.70 LIG 0.01  C 
ATOM      8  CG2 VAL B   5      55.549  87.252  26.415  1.00 38.22 LIG 0.01  C 
ATOM      9  CG1 VAL B   5      57.931  86.559  26.284  1.00 39.77 LIG 0.01  C 
ENDBRANCH 6 7
BRANCH 6 10
ATOM     10  C   VAL B   5      56.944  90.096  25.596  1.00 39.16 LIG 0.24  C 
ATOM     11 O    VAL B   5      55.953  90.816  25.777  1.00 33.69 LIG-0.27  OA
ATOM     12  N   LYS B   6      57.780  90.239  24.581  1.00 40.12 LIG-0.35  N 
ATOM     13 H    LYS B   6      58.496  89.772  24.479  1.00 40.12 LIG 0.16  HD
BRANCH 12 14
ATOM     14  CA  LYS B   6      57.552  91.206  23.551  1.00 45.41 LIG 0.18  C 
BRANCH 14 15
ATOM     15  C   LYS B   6      56.648  90.467  22.589  1.00 44.99 LIG 0.24  C 
ATOM     16 O    LYS B   6      56.816  89.284  22.381  1.00 45.85 LIG-0.27  OA
ATOM     17  N   ILE B   7      55.639  91.106  22.035  1.00 47.54 LIG-0.34  N 
ATOM     18 H    ILE B   7      55.448  91.940  22.129  1.00 47.54 LIG 0.16  HD
BRANCH 17 19
ATOM     19  CA  ILE B   7      54.747  90.315  21.168  1.00 57.67 LIG 0.19  C 
BRANCH 19 20
ATOM     20  CB  ILE B   7      53.277  90.124  21.712  1.00 59.41 LIG 0.01  C 
ATOM     21  CG2 ILE B   7      52.734  88.730  21.418  1.00 60.58 LIG 0.01  C 
BRANCH 20 22
ATOM     22  CG1 ILE B   7      53.192  90.437  23.234  1.00 65.20 LIG 0.00  C 
ATOM     23  CD1 ILE B   7      53.738  89.379  24.198  1.00 51.92 LIG 0.01  C 
ENDBRANCH 20 22
ENDBRANCH 19 20
BRANCH 19 24
ATOM     24  C   ILE B   7      54.830  90.736  19.693  1.00 61.74 LIG 0.20  C 
ATOM     25 O    ILE B   7      54.126  90.270  18.811  1.00 61.53 LIG-0.65  OA
ATOM     26 OXT  ILE B   7      55.625  91.610  19.345  1.00 68.92 LIG-0.65  OA
ENDBRANCH 19 24
ENDBRANCH 17 19
ENDBRANCH 14 15
BRANCH 14 27
ATOM     27  CB  LYS B   6      58.915  91.574  22.939  1.00 46.87 LIG 0.04  C 
BRANCH 27 28
ATOM     28  CG  LYS B   6      59.237  90.879  21.631  1.00 55.56 LIG 0.00  C 
BRANCH 28 29
ATOM     29  CD  LYS B   6      58.822  91.702  20.420  1.00 60.95 LIG 0.03  C 
BRANCH 29 30
ATOM     30  CE  LYS B   6      58.437  93.133  20.817  1.00 62.93 LIG 0.23  C 
BRANCH 30 31
ATOM     31  NZ  LYS B   6      56.955  93.316  20.896  1.00 65.77 LIG-0.08  N 
ATOM     32 HZ1  LYS B   6      56.570  92.930  20.192  1.00 65.77 LIG 0.27  HD
ATOM     33 HZ2  LYS B   6      56.648  92.942  21.644  1.00 65.77 LIG 0.27  HD
ATOM     34 HZ3  LYS B   6      56.763  94.185  20.899  1.00 65.77 LIG 0.27  HD
ENDBRANCH 30 31
ENDBRANCH 29 30
ENDBRANCH 28 29
ENDBRANCH 27 28
ENDBRANCH 14 27
ENDBRANCH 12 14
ENDBRANCH 6 10
ENDBRANCH 4 6
ENDBRANCH 1 2
BRANCH 1 35
ATOM     35  CB  LEU B   4      57.092  89.410  31.059  1.00 28.63 LIG 0.04  C 
BRANCH 35 36
ATOM     36  CG  LEU B   4      58.511  89.178  30.555  1.00 30.56 LIG-0.02  C 
ATOM     37  CD2 LEU B   4      59.386  88.789  31.726  1.00 33.80 LIG 0.01  C 
ATOM     38  CD1 LEU B   4      59.018  90.482  29.914  1.00 28.87 LIG 0.01  C 
ENDBRANCH 35 36
ENDBRANCH 1 35
BRANCH 1 39
ATOM     39  N   LEU B   4      55.431  87.657  30.920  1.00 28.62 LIG-0.35  N 
ATOM     40 H    LEU B   4      55.918  87.320  31.544  1.00 28.62 LIG 0.16  HD
ATOM     41  C   PRO B   3      54.208  87.258  30.635  1.00 33.12 LIG 0.24  C 
ATOM     42 O    PRO B   3      53.432  87.890  29.897  1.00 32.36 LIG-0.27  OA
BRANCH 41 43
ATOM     43  CA  PRO B   3      53.763  85.966  31.316  1.00 33.48 LIG 0.18  C 
ATOM     44  CB  PRO B   3      52.787  85.172  30.407  1.00 32.62 LIG 0.04  C 
ATOM     45  CG  PRO B   3      51.706  84.670  31.328  1.00 32.85 LIG 0.02  C 
ATOM     46  CD  PRO B   3      51.603  85.708  32.443  1.00 29.95 LIG 0.13  C 
ATOM     47  N   PRO B   3      52.950  86.349  32.456  1.00 33.01 LIG-0.34  N 
ATOM     48  C   LEU B   2      53.511  87.148  33.391  1.00 31.97 LIG 0.24  C 
ATOM     49 O    LEU B   2      54.707  87.459  33.408  1.00 33.64 LIG-0.27  OA
BRANCH 48 50
ATOM     50  CA  LEU B   2      52.613  87.627  34.508  1.00 32.67 LIG 0.18  C 
BRANCH 50 51
ATOM     51  N   LEU B   2      53.341  87.355  35.742  1.00 33.85 LIG-0.35  N 
ATOM     52 H    LEU B   2      53.708  88.053  36.084  1.00 33.85 LIG 0.16  HD
ATOM     53  C   GLU B   1      53.433  86.147  36.288  1.00 36.42 LIG 0.25  C 
ATOM     54 O    GLU B   1      52.690  85.212  35.950  1.00 32.31 LIG-0.27  OA
BRANCH 53 55
ATOM     55  CA  GLU B   1      54.441  85.998  37.450  1.00 35.71 LIG 0.28  C 
BRANCH 55 56
ATOM     56  CB  GLU B   1      54.510  84.520  37.851  1.00 39.23 LIG 0.05  C 
BRANCH 56 57
ATOM     57  CG  GLU B   1      54.506  84.315  39.365  1.00 48.64 LIG 0.12  C 
BRANCH 57 58
ATOM     58  CD  GLU B   1      55.759  84.811  40.100  1.00 56.94 LIG 0.17  C 
ATOM     59 OE1  GLU B   1      55.744  85.988  40.499  1.00 65.53 LIG-0.65  OA
ATOM     60 OE2  GLU B   1      56.764  84.066  40.276  1.00 53.19 LIG-0.65  OA
ENDBRANCH 57 58
ENDBRANCH 56 57
ENDBRANCH 55 56
BRANCH 55 61
ATOM     61  N   GLU B   1      54.047  86.827  38.641  1.00 36.67 LIG-0.07  N 
ATOM     62 H1   GLU B   1      54.704  86.816  39.241  1.00 36.67 LIG 0.28  HD
ATOM     63 H3   GLU B   1      53.307  86.492  39.005  1.00 36.67 LIG 0.28  HD
ATOM     64 H2   GLU B   1      53.896  87.665  38.382  1.00 36.67 LIG 0.28  HD
ENDBRANCH 55 61
ENDBRANCH 53 55
ENDBRANCH 50 51
BRANCH 50 65
ATOM     65  CB  LEU B   2      52.305  89.135  34.316  1.00 34.84 LIG 0.04  C 
BRANCH 65 66
ATOM     66  CG  LEU B   2      52.298  90.004  35.584  1.00 34.30 LIG-0.02  C 
ATOM     67  CD2 LEU B   2      51.306  89.477  36.635  1.00 39.39 LIG 0.01  C 
ATOM     68  CD1 LEU B   2      52.029  91.481  35.288  1.00 34.61 LIG 0.01  C 
ENDBRANCH 65 66
ENDBRANCH 50 65
ENDBRANCH 48 50
ENDBRANCH 41 43
ENDBRANCH 1 39
TORSDOF 28
ENDMDL
MODEL 67
USER: ADFR SOLUTION from run 116
USER: SCORE 24.135846 LL:  -6.901 LR: -18.213 RR:   0.000 FEB:  -9.861
USER: RMSD 13.103585
USER: SEED 115
USER: STATUS searching
USER: GENES 30
USER: genes 0 Translation |==|  0.52856 0.58197 0.45703
USER: genes 1 Rotation |==|  0.10880 0.38715 0.22601 0.59569
USER: genes 2 Torsion [N]-CA--C-[N] |==|  0.46667
USER: genes 3 Torsion [C]-N--CA-[C] |==|  0.82216
USER: genes 4 Torsion [N]-CA--CB-[CG2] |==|  0.55024
USER: genes 5 Torsion [N]-CA--C-[N] |==|  0.44998
USER: genes 6 Torsion [C]-N--CA-[C] |==|  0.63402
USER: genes 7 Torsion [N]-CA--C-[N] |==|  0.33353
USER: genes 8 Torsion [C]-N--CA-[CB] |==|  0.17760
USER: genes 9 Torsion [N]-CA--CB-[CG1] |==|  0.05236
USER: genes 10 Torsion [CA]-CB--CG1-[CD1] |==|  0.38819
USER: genes 11 Torsion [N]-CA--C-[OXT] |==|  0.06401
USER: genes 12 Torsion [N]-CA--CB-[CG] |==|  0.58246
USER: genes 13 Torsion [CA]-CB--CG-[CD] |==|  0.26124
USER: genes 14 Torsion [CB]-CG--CD-[CE] |==|  0.73845
USER: genes 15 Torsion [CG]-CD--CE-[NZ] |==|  0.05451
USER: genes 16 Torsion [CD]-CE--NZ-[HZ1] |==|  0.54734
USER: genes 17 Torsion [C]-CA--CB-[CG] |==|  0.36297
USER: genes 18 Torsion [CA]-CB--CG-[CD2] |==|  0.02949
USER: genes 19 Torsion [C]-CA--N-[C] |==|  0.82131
USER: genes 20 Torsion [N]-C--CA-[CB] |==|  0.65446
USER: genes 21 Torsion [N]-C--CA-[N] |==|  0.21499
USER: genes 22 Torsion [C]-CA--N-[C] |==|  0.64795
USER: genes 23 Torsion [N]-C--CA-[N] |==|  0.31337
USER: genes 24 Torsion [C]-CA--CB-[CG] |==|  0.23457
USER: genes 25 Torsion [CA]-CB--CG-[CD] |==|  0.49448
USER: genes 26 Torsion [CB]-CG--CD-[OE1] |==|  0.09103
USER: genes 27 Torsion [C]-CA--N-[H1] |==|  0.68989
USER: genes 28 Torsion [C]-CA--CB-[CG] |==|  0.55568
USER: genes 29 Torsion [CA]-CB--CG-[CD2] |==|  0.57185
ROOT
ATOM      1  CA  LEU B   4      56.239  88.170  29.550  1.00 30.07 LIG 0.18  C 
ENDROOT
BRANCH 1 2
ATOM      2  C   LEU B   4      56.071  88.119  28.053  1.00 30.58 LIG 0.24  C 
ATOM      3 O    LEU B   4      55.684  87.084  27.506  1.00 35.83 LIG-0.27  OA
ATOM      4  N   VAL B   5      56.437  89.205  27.377  1.00 32.24 LIG-0.35  N 
ATOM      5 H    VAL B   5      56.729  89.922  27.750  1.00 32.24 LIG 0.16  HD
BRANCH 4 6
ATOM      6  CA  VAL B   5      56.372  89.276  25.913  1.00 32.53 LIG 0.18  C 
BRANCH 6 7
ATOM      7  CB  VAL B   5      56.731  90.680  25.394  1.00 34.70 LIG 0.01  C 
ATOM      8  CG2 VAL B   5      56.230  90.826  23.980  1.00 38.22 LIG 0.01  C 
ATOM      9  CG1 VAL B   5      58.230  90.942  25.449  1.00 39.77 LIG 0.01  C 
ENDBRANCH 6 7
BRANCH 6 10
ATOM     10  C   VAL B   5      57.314  88.280  25.294  1.00 39.16 LIG 0.24  C 
ATOM     11 O    VAL B   5      58.217  87.754  25.956  1.00 33.69 LIG-0.27  OA
ATOM     12  N   LYS B   6      57.073  87.998  24.025  1.00 40.12 LIG-0.35  N 
ATOM     13 H    LYS B   6      56.416  88.325  23.576  1.00 40.12 LIG 0.16  HD
BRANCH 12 14
ATOM     14  CA  LYS B   6      57.908  87.102  23.283  1.00 45.41 LIG 0.18  C 
BRANCH 14 15
ATOM     15  C   LYS B   6      58.174  87.869  22.006  1.00 44.99 LIG 0.24  C 
ATOM     16 O    LYS B   6      57.249  88.257  21.323  1.00 45.85 LIG-0.27  OA
ATOM     17  N   ILE B   7      59.414  88.168  21.682  1.00 47.54 LIG-0.34  N 
ATOM     18 H    ILE B   7      60.125  87.935  22.108  1.00 47.54 LIG 0.16  HD
BRANCH 17 19
ATOM     19  CA  ILE B   7      59.606  88.983  20.468  1.00 57.67 LIG 0.19  C 
BRANCH 19 20
ATOM     20  CB  ILE B   7      58.999  90.439  20.534  1.00 59.41 LIG 0.01  C 
ATOM     21  CG2 ILE B   7      57.727  90.566  19.703  1.00 60.58 LIG 0.01  C 
BRANCH 20 22
ATOM     22  CG1 ILE B   7      58.741  90.878  22.005  1.00 65.20 LIG 0.00  C 
ATOM     23  CD1 ILE B   7      59.074  92.326  22.373  1.00 51.92 LIG 0.01  C 
ENDBRANCH 20 22
ENDBRANCH 19 20
BRANCH 19 24
ATOM     24  C   ILE B   7      61.044  88.917  19.933  1.00 61.74 LIG 0.20  C 
ATOM     25 O    ILE B   7      61.556  89.786  19.245  1.00 61.53 LIG-0.65  OA
ATOM     26 OXT  ILE B   7      61.763  87.957  20.214  1.00 68.92 LIG-0.65  OA
ENDBRANCH 19 24
ENDBRANCH 17 19
ENDBRANCH 14 15
BRANCH 14 27
ATOM     27  CB  LYS B   6      57.119  85.801  23.055  1.00 46.87 LIG 0.04  C 
BRANCH 27 28
ATOM     28  CG  LYS B   6      57.967  84.549  22.949  1.00 55.56 LIG 0.00  C 
BRANCH 28 29
ATOM     29  CD  LYS B   6      58.110  83.832  24.285  1.00 60.95 LIG 0.03  C 
BRANCH 29 30
ATOM     30  CE  LYS B   6      59.386  84.260  25.019  1.00 62.93 LIG 0.23  C 
BRANCH 30 31
ATOM     31  NZ  LYS B   6      59.917  85.564  24.514  1.00 65.77 LIG-0.08  N 
ATOM     32 HZ1  LYS B   6      60.764  85.660  24.773  1.00 65.77 LIG 0.27  HD
ATOM     33 HZ2  LYS B   6      59.876  85.577  23.625  1.00 65.77 LIG 0.27  HD
ATOM     34 HZ3  LYS B   6      59.429  86.231  24.844  1.00 65.77 LIG 0.27  HD
ENDBRANCH 30 31
ENDBRANCH 29 30
ENDBRANCH 28 29
ENDBRANCH 27 28
ENDBRANCH 14 27
ENDBRANCH 12 14
ENDBRANCH 6 10
ENDBRANCH 4 6
ENDBRANCH 1 2
BRANCH 1 35
ATOM     35  CB  LEU B   4      57.727  88.124  29.832  1.00 28.63 LIG 0.04  C 
BRANCH 35 36
ATOM     36  CG  LEU B   4      58.142  89.223  30.802  1.00 30.56 LIG-0.02  C 
ATOM     37  CD2 LEU B   4      56.897  89.855  31.384  1.00 33.80 LIG 0.01  C 
ATOM     38  CD1 LEU B   4      58.965  90.268  30.028  1.00 28.87 LIG 0.01  C 
ENDBRANCH 35 36
ENDBRANCH 1 35
BRANCH 1 39
ATOM     39  N   LEU B   4      55.596  87.099  30.346  1.00 28.62 LIG-0.35  N 
ATOM     40 H    LEU B   4      56.142  86.589  30.771  1.00 28.62 LIG 0.16  HD
ATOM     41  C   PRO B   3      54.285  86.972  30.373  1.00 33.12 LIG 0.24  C 
ATOM     42 O    PRO B   3      53.500  87.839  29.949  1.00 32.36 LIG-0.27  OA
BRANCH 41 43
ATOM     43  CA  PRO B   3      53.763  85.688  31.014  1.00 33.48 LIG 0.18  C 
ATOM     44  CB  PRO B   3      52.836  84.921  30.033  1.00 32.62 LIG 0.04  C 
ATOM     45  CG  PRO B   3      51.681  84.441  30.872  1.00 32.85 LIG 0.02  C 
ATOM     46  CD  PRO B   3      51.523  85.476  31.983  1.00 29.95 LIG 0.13  C 
ATOM     47  N   PRO B   3      52.880  86.086  32.095  1.00 33.01 LIG-0.34  N 
ATOM     48  C   LEU B   2      53.391  86.868  33.072  1.00 31.97 LIG 0.24  C 
ATOM     49 O    LEU B   2      54.589  87.151  33.175  1.00 33.64 LIG-0.27  OA
BRANCH 48 50
ATOM     50  CA  LEU B   2      52.427  87.364  34.124  1.00 32.67 LIG 0.18  C 
BRANCH 50 51
ATOM     51  N   LEU B   2      52.202  86.232  35.015  1.00 33.85 LIG-0.35  N 
ATOM     52 H    LEU B   2      52.928  85.888  35.322  1.00 33.85 LIG 0.16  HD
ATOM     53  C   GLU B   1      50.995  85.772  35.326  1.00 36.42 LIG 0.25  C 
ATOM     54 O    GLU B   1      49.962  86.426  35.107  1.00 32.31 LIG-0.27  OA
BRANCH 53 55
ATOM     55  CA  GLU B   1      50.951  84.424  36.081  1.00 35.71 LIG 0.28  C 
BRANCH 55 56
ATOM     56  CB  GLU B   1      50.039  83.461  35.311  1.00 39.23 LIG 0.05  C 
BRANCH 56 57
ATOM     57  CG  GLU B   1      50.764  82.735  34.179  1.00 48.64 LIG 0.12  C 
BRANCH 57 58
ATOM     58  CD  GLU B   1      49.918  81.720  33.399  1.00 56.94 LIG 0.17  C 
ATOM     59 OE1  GLU B   1      48.710  81.979  33.271  1.00 65.53 LIG-0.65  OA
ATOM     60 OE2  GLU B   1      50.421  80.662  32.925  1.00 53.19 LIG-0.65  OA
ENDBRANCH 57 58
ENDBRANCH 56 57
ENDBRANCH 55 56
BRANCH 55 61
ATOM     61  N   GLU B   1      50.444  84.587  37.486  1.00 36.67 LIG-0.07  N 
ATOM     62 H1   GLU B   1      51.105  84.431  38.061  1.00 36.67 LIG 0.28  HD
ATOM     63 H3   GLU B   1      49.782  84.010  37.633  1.00 36.67 LIG 0.28  HD
ATOM     64 H2   GLU B   1      50.143  85.417  37.599  1.00 36.67 LIG 0.28  HD
ENDBRANCH 55 61
ENDBRANCH 53 55
ENDBRANCH 50 51
BRANCH 50 65
ATOM     65  CB  LEU B   2      53.040  88.587  34.855  1.00 34.84 LIG 0.04  C 
BRANCH 65 66
ATOM     66  CG  LEU B   2      52.454  88.931  36.235  1.00 34.30 LIG-0.02  C 
ATOM     67  CD2 LEU B   2      52.630  90.420  36.578  1.00 39.39 LIG 0.01  C 
ATOM     68  CD1 LEU B   2      53.020  88.053  37.353  1.00 34.61 LIG 0.01  C 
ENDBRANCH 65 66
ENDBRANCH 50 65
ENDBRANCH 48 50
ENDBRANCH 41 43
ENDBRANCH 1 39
TORSDOF 28
ENDMDL
MODEL 68
USER: ADFR SOLUTION from run 77
USER: SCORE 24.341120 LL:  -7.369 LR: -18.185 RR:   0.000 FEB:  -9.833
USER: RMSD 4.059435
USER: SEED 76
USER: STATUS no improvement in best in 21 clusters for 5 generations
USER: GENES 30
USER: genes 0 Translation |==|  0.53447 0.58887 0.46843
USER: genes 1 Rotation |==|  0.47755 0.49587 0.55818 0.99608
USER: genes 2 Torsion [N]-CA--C-[N] |==|  0.36801
USER: genes 3 Torsion [C]-N--CA-[C] |==|  0.81392
USER: genes 4 Torsion [N]-CA--CB-[CG2] |==|  0.64381
USER: genes 5 Torsion [N]-CA--C-[N] |==|  0.37579
USER: genes 6 Torsion [C]-N--CA-[C] |==|  0.58902
USER: genes 7 Torsion [N]-CA--C-[N] |==|  0.91187
USER: genes 8 Torsion [C]-N--CA-[CB] |==|  0.79659
USER: genes 9 Torsion [N]-CA--CB-[CG1] |==|  0.88674
USER: genes 10 Torsion [CA]-CB--CG1-[CD1] |==|  0.82384
USER: genes 11 Torsion [N]-CA--C-[OXT] |==|  0.68871
USER: genes 12 Torsion [N]-CA--CB-[CG] |==|  0.40703
USER: genes 13 Torsion [CA]-CB--CG-[CD] |==|  0.58879
USER: genes 14 Torsion [CB]-CG--CD-[CE] |==|  0.22752
USER: genes 15 Torsion [CG]-CD--CE-[NZ] |==|  0.74373
USER: genes 16 Torsion [CD]-CE--NZ-[HZ1] |==|  0.42127
USER: genes 17 Torsion [C]-CA--CB-[CG] |==|  0.44391
USER: genes 18 Torsion [CA]-CB--CG-[CD2] |==|  0.25860
USER: genes 19 Torsion [C]-CA--N-[C] |==|  0.85232
USER: genes 20 Torsion [N]-C--CA-[CB] |==|  0.72464
USER: genes 21 Torsion [N]-C--CA-[N] |==|  0.23889
USER: genes 22 Torsion [C]-CA--N-[C] |==|  0.65259
USER: genes 23 Torsion [N]-C--CA-[N] |==|  0.98101
USER: genes 24 Torsion [C]-CA--CB-[CG] |==|  0.86671
USER: genes 25 Torsion [CA]-CB--CG-[CD] |==|  0.82022
USER: genes 26 Torsion [CB]-CG--CD-[OE1] |==|  0.41825
USER: genes 27 Torsion [C]-CA--N-[H1] |==|  0.23308
USER: genes 28 Torsion [C]-CA--CB-[CG] |==|  0.43510
USER: genes 29 Torsion [CA]-CB--CG-[CD2] |==|  0.21428
ROOT
ATOM      1  CA  LEU B   4      56.363  88.326  29.841  1.00 30.07 LIG 0.18  C 
ENDROOT
BRANCH 1 2
ATOM      2  C   LEU B   4      54.918  88.039  30.159  1.00 30.58 LIG 0.24  C 
ATOM      3 O    LEU B   4      54.046  88.871  29.898  1.00 35.83 LIG-0.27  OA
ATOM      4  N   VAL B   5      54.664  86.899  30.797  1.00 32.24 LIG-0.35  N 
ATOM      5 H    VAL B   5      55.270  86.324  31.002  1.00 32.24 LIG 0.16  HD
BRANCH 4 6
ATOM      6  CA  VAL B   5      53.310  86.516  31.210  1.00 32.53 LIG 0.18  C 
BRANCH 6 7
ATOM      7  CB  VAL B   5      53.265  85.073  31.744  1.00 34.70 LIG 0.01  C 
ATOM      8  CG2 VAL B   5      52.176  84.316  31.028  1.00 38.22 LIG 0.01  C 
ATOM      9  CG1 VAL B   5      53.031  85.029  33.249  1.00 39.77 LIG 0.01  C 
ENDBRANCH 6 7
BRANCH 6 10
ATOM     10  C   VAL B   5      52.804  87.441  32.282  1.00 39.16 LIG 0.24  C 
ATOM     11 O    VAL B   5      53.531  87.797  33.219  1.00 33.69 LIG-0.27  OA
ATOM     12  N   LYS B   6      51.559  87.858  32.118  1.00 40.12 LIG-0.35  N 
ATOM     13 H    LYS B   6      51.068  87.650  31.443  1.00 40.12 LIG 0.16  HD
BRANCH 12 14
ATOM     14  CA  LYS B   6      50.920  88.707  33.077  1.00 45.41 LIG 0.18  C 
BRANCH 14 15
ATOM     15  C   LYS B   6      49.469  88.283  32.989  1.00 44.99 LIG 0.24  C 
ATOM     16 O    LYS B   6      48.742  88.394  33.954  1.00 45.85 LIG-0.27  OA
ATOM     17  N   ILE B   7      48.992  87.860  31.838  1.00 47.54 LIG-0.34  N 
ATOM     18 H    ILE B   7      49.435  87.753  31.108  1.00 47.54 LIG 0.16  HD
BRANCH 17 19
ATOM     19  CA  ILE B   7      47.555  87.535  31.794  1.00 57.67 LIG 0.19  C 
BRANCH 19 20
ATOM     20  CB  ILE B   7      47.145  86.200  32.530  1.00 59.41 LIG 0.01  C 
ATOM     21  CG2 ILE B   7      45.741  85.743  32.148  1.00 60.58 LIG 0.01  C 
BRANCH 20 22
ATOM     22  CG1 ILE B   7      48.181  85.068  32.267  1.00 65.20 LIG 0.00  C 
ATOM     23  CD1 ILE B   7      48.346  84.591  30.821  1.00 51.92 LIG 0.01  C 
ENDBRANCH 20 22
ENDBRANCH 19 20
BRANCH 19 24
ATOM     24  C   ILE B   7      46.665  88.743  32.125  1.00 61.74 LIG 0.20  C 
ATOM     25 O    ILE B   7      46.537  89.715  31.396  1.00 61.53 LIG-0.65  OA
ATOM     26 OXT  ILE B   7      46.008  88.758  33.166  1.00 68.92 LIG-0.65  OA
ENDBRANCH 19 24
ENDBRANCH 17 19
ENDBRANCH 14 15
BRANCH 14 27
ATOM     27  CB  LYS B   6      51.151  90.165  32.644  1.00 46.87 LIG 0.04  C 
BRANCH 27 28
ATOM     28  CG  LYS B   6      50.015  91.116  32.967  1.00 55.56 LIG 0.00  C 
BRANCH 28 29
ATOM     29  CD  LYS B   6      49.885  92.232  31.940  1.00 60.95 LIG 0.03  C 
BRANCH 29 30
ATOM     30  CE  LYS B   6      49.109  91.770  30.701  1.00 62.93 LIG 0.23  C 
BRANCH 30 31
ATOM     31  NZ  LYS B   6      50.014  91.243  29.633  1.00 65.77 LIG-0.08  N 
ATOM     32 HZ1  LYS B   6      49.579  90.639  29.146  1.00 65.77 LIG 0.27  HD
ATOM     33 HZ2  LYS B   6      50.275  91.913  29.108  1.00 65.77 LIG 0.27  HD
ATOM     34 HZ3  LYS B   6      50.727  90.865  30.008  1.00 65.77 LIG 0.27  HD
ENDBRANCH 30 31
ENDBRANCH 29 30
ENDBRANCH 28 29
ENDBRANCH 27 28
ENDBRANCH 14 27
ENDBRANCH 12 14
ENDBRANCH 6 10
ENDBRANCH 4 6
ENDBRANCH 1 2
BRANCH 1 35
ATOM     35  CB  LEU B   4      56.820  89.412  30.793  1.00 28.63 LIG 0.04  C 
BRANCH 35 36
ATOM     36  CG  LEU B   4      58.338  89.441  30.913  1.00 30.56 LIG-0.02  C 
ATOM     37  CD2 LEU B   4      58.888  90.434  29.912  1.00 33.80 LIG 0.01  C 
ATOM     38  CD1 LEU B   4      58.876  88.030  30.622  1.00 28.87 LIG 0.01  C 
ENDBRANCH 35 36
ENDBRANCH 1 35
BRANCH 1 39
ATOM     39  N   LEU B   4      56.683  88.768  28.464  1.00 28.62 LIG-0.35  N 
ATOM     40 H    LEU B   4      57.134  89.499  28.416  1.00 28.62 LIG 0.16  HD
ATOM     41  C   PRO B   3      56.289  88.067  27.420  1.00 33.12 LIG 0.24  C 
ATOM     42 O    PRO B   3      55.845  86.908  27.497  1.00 32.36 LIG-0.27  OA
BRANCH 41 43
ATOM     43  CA  PRO B   3      56.457  88.754  26.067  1.00 33.48 LIG 0.18  C 
ATOM     44  CB  PRO B   3      55.115  89.376  25.596  1.00 32.62 LIG 0.04  C 
ATOM     45  CG  PRO B   3      55.026  89.060  24.126  1.00 32.85 LIG 0.02  C 
ATOM     46  CD  PRO B   3      55.773  87.741  23.944  1.00 29.95 LIG 0.13  C 
ATOM     47  N   PRO B   3      56.723  87.710  25.095  1.00 33.01 LIG-0.34  N 
ATOM     48  C   LEU B   2      57.796  86.915  25.300  1.00 31.97 LIG 0.24  C 
ATOM     49 O    LEU B   2      58.639  87.105  26.183  1.00 33.64 LIG-0.27  OA
BRANCH 48 50
ATOM     50  CA  LEU B   2      57.987  85.763  24.340  1.00 32.67 LIG 0.18  C 
BRANCH 50 51
ATOM     51  N   LEU B   2      58.725  86.315  23.209  1.00 33.85 LIG-0.35  N 
ATOM     52 H    LEU B   2      59.460  86.701  23.434  1.00 33.85 LIG 0.16  HD
ATOM     53  C   GLU B   1      58.307  86.232  21.950  1.00 36.42 LIG 0.25  C 
ATOM     54 O    GLU B   1      57.406  85.451  21.604  1.00 32.31 LIG-0.27  OA
BRANCH 53 55
ATOM     55  CA  GLU B   1      59.083  87.078  20.916  1.00 35.71 LIG 0.28  C 
BRANCH 55 56
ATOM     56  CB  GLU B   1      59.797  86.131  19.945  1.00 39.23 LIG 0.05  C 
BRANCH 56 57
ATOM     57  CG  GLU B   1      60.561  85.016  20.658  1.00 48.64 LIG 0.12  C 
BRANCH 57 58
ATOM     58  CD  GLU B   1      61.737  85.478  21.530  1.00 56.94 LIG 0.17  C 
ATOM     59 OE1  GLU B   1      62.014  84.772  22.515  1.00 65.53 LIG-0.65  OA
ATOM     60 OE2  GLU B   1      62.381  86.533  21.271  1.00 53.19 LIG-0.65  OA
ENDBRANCH 57 58
ENDBRANCH 56 57
ENDBRANCH 55 56
BRANCH 55 61
ATOM     61  N   GLU B   1      60.089  87.981  21.573  1.00 36.67 LIG-0.07  N 
ATOM     62 H1   GLU B   1      60.840  87.529  21.725  1.00 36.67 LIG 0.28  HD
ATOM     63 H3   GLU B   1      59.761  88.279  22.346  1.00 36.67 LIG 0.28  HD
ATOM     64 H2   GLU B   1      60.261  88.672  21.039  1.00 36.67 LIG 0.28  HD
ENDBRANCH 55 61
ENDBRANCH 53 55
ENDBRANCH 50 51
BRANCH 50 65
ATOM     65  CB  LEU B   2      58.752  84.616  25.050  1.00 34.84 LIG 0.04  C 
BRANCH 65 66
ATOM     66  CG  LEU B   2      58.566  83.203  24.472  1.00 34.30 LIG-0.02  C 
ATOM     67  CD2 LEU B   2      59.390  82.995  23.190  1.00 39.39 LIG 0.01  C 
ATOM     68  CD1 LEU B   2      57.097  82.853  24.227  1.00 34.61 LIG 0.01  C 
ENDBRANCH 65 66
ENDBRANCH 50 65
ENDBRANCH 48 50
ENDBRANCH 41 43
ENDBRANCH 1 39
TORSDOF 28
ENDMDL
MODEL 69
USER: ADFR SOLUTION from run 189
USER: SCORE 25.302304 LL:  -7.834 LR: -18.193 RR:   0.000 FEB:  -9.840
USER: RMSD 12.406303
USER: SEED 188
USER: STATUS searching
USER: GENES 30
USER: genes 0 Translation |==|  0.43809 0.54028 0.54641
USER: genes 1 Rotation |==|  0.33486 0.96459 0.42845 0.54205
USER: genes 2 Torsion [N]-CA--C-[N] |==|  0.37159
USER: genes 3 Torsion [C]-N--CA-[C] |==|  0.72921
USER: genes 4 Torsion [N]-CA--CB-[CG2] |==|  0.01004
USER: genes 5 Torsion [N]-CA--C-[N] |==|  0.89966
USER: genes 6 Torsion [C]-N--CA-[C] |==|  0.83743
USER: genes 7 Torsion [N]-CA--C-[N] |==|  0.34673
USER: genes 8 Torsion [C]-N--CA-[CB] |==|  0.42662
USER: genes 9 Torsion [N]-CA--CB-[CG1] |==|  0.19163
USER: genes 10 Torsion [CA]-CB--CG1-[CD1] |==|  0.25507
USER: genes 11 Torsion [N]-CA--C-[OXT] |==|  0.91092
USER: genes 12 Torsion [N]-CA--CB-[CG] |==|  0.46356
USER: genes 13 Torsion [CA]-CB--CG-[CD] |==|  0.16161
USER: genes 14 Torsion [CB]-CG--CD-[CE] |==|  0.56527
USER: genes 15 Torsion [CG]-CD--CE-[NZ] |==|  0.24203
USER: genes 16 Torsion [CD]-CE--NZ-[HZ1] |==|  0.51688
USER: genes 17 Torsion [C]-CA--CB-[CG] |==|  0.32662
USER: genes 18 Torsion [CA]-CB--CG-[CD2] |==|  0.12497
USER: genes 19 Torsion [C]-CA--N-[C] |==|  0.68873
USER: genes 20 Torsion [N]-C--CA-[CB] |==|  0.85051
USER: genes 21 Torsion [N]-C--CA-[N] |==|  0.49089
USER: genes 22 Torsion [C]-CA--N-[C] |==|  0.76596
USER: genes 23 Torsion [N]-C--CA-[N] |==|  0.22599
USER: genes 24 Torsion [C]-CA--CB-[CG] |==|  0.34515
USER: genes 25 Torsion [CA]-CB--CG-[CD] |==|  0.09537
USER: genes 26 Torsion [CB]-CG--CD-[OE1] |==|  0.11203
USER: genes 27 Torsion [C]-CA--N-[H1] |==|  0.27862
USER: genes 28 Torsion [C]-CA--CB-[CG] |==|  0.49087
USER: genes 29 Torsion [CA]-CB--CG-[CD2] |==|  0.63874
ROOT
ATOM      1  CA  LEU B   4      54.339  87.232  31.829  1.00 30.07 LIG 0.18  C 
ENDROOT
BRANCH 1 2
ATOM      2  C   LEU B   4      55.535  88.120  31.599  1.00 30.58 LIG 0.24  C 
ATOM      3 O    LEU B   4      55.393  89.339  31.487  1.00 35.83 LIG-0.27  OA
ATOM      4  N   VAL B   5      56.708  87.509  31.447  1.00 32.24 LIG-0.35  N 
ATOM      5 H    VAL B   5      56.811  86.657  31.501  1.00 32.24 LIG 0.16  HD
BRANCH 4 6
ATOM      6  CA  VAL B   5      57.945  88.246  31.170  1.00 32.53 LIG 0.18  C 
BRANCH 6 7
ATOM      7  CB  VAL B   5      59.147  87.643  31.920  1.00 34.70 LIG 0.01  C 
ATOM      8  CG2 VAL B   5      58.700  86.406  32.655  1.00 38.22 LIG 0.01  C 
ATOM      9  CG1 VAL B   5      59.767  88.637  32.894  1.00 39.77 LIG 0.01  C 
ENDBRANCH 6 7
BRANCH 6 10
ATOM     10  C   VAL B   5      58.247  88.238  29.696  1.00 39.16 LIG 0.24  C 
ATOM     11 O    VAL B   5      58.783  89.208  29.146  1.00 33.69 LIG-0.27  OA
ATOM     12  N   LYS B   6      57.931  87.118  29.068  1.00 40.12 LIG-0.35  N 
ATOM     13 H    LYS B   6      57.603  86.424  29.457  1.00 40.12 LIG 0.16  HD
BRANCH 12 14
ATOM     14  CA  LYS B   6      58.116  86.972  27.656  1.00 45.41 LIG 0.18  C 
BRANCH 14 15
ATOM     15  C   LYS B   6      57.275  88.094  27.087  1.00 44.99 LIG 0.24  C 
ATOM     16 O    LYS B   6      56.116  88.219  27.427  1.00 45.85 LIG-0.27  OA
ATOM     17  N   ILE B   7      57.832  88.968  26.276  1.00 47.54 LIG-0.34  N 
ATOM     18 H    ILE B   7      58.642  88.954  25.988  1.00 47.54 LIG 0.16  HD
BRANCH 17 19
ATOM     19  CA  ILE B   7      56.983  90.082  25.817  1.00 57.67 LIG 0.19  C 
BRANCH 19 20
ATOM     20  CB  ILE B   7      57.759  91.401  25.426  1.00 59.41 LIG 0.01  C 
ATOM     21  CG2 ILE B   7      58.639  91.906  26.564  1.00 60.58 LIG 0.01  C 
BRANCH 20 22
ATOM     22  CG1 ILE B   7      58.597  91.200  24.130  1.00 65.20 LIG 0.00  C 
ATOM     23  CD1 ILE B   7      57.926  91.554  22.800  1.00 51.92 LIG 0.01  C 
ENDBRANCH 20 22
ENDBRANCH 19 20
BRANCH 19 24
ATOM     24  C   ILE B   7      55.927  89.638  24.793  1.00 61.74 LIG 0.20  C 
ATOM     25 O    ILE B   7      54.832  90.166  24.671  1.00 61.53 LIG-0.65  OA
ATOM     26 OXT  ILE B   7      56.172  88.715  24.016  1.00 68.92 LIG-0.65  OA
ENDBRANCH 19 24
ENDBRANCH 17 19
ENDBRANCH 14 15
BRANCH 14 27
ATOM     27  CB  LYS B   6      57.612  85.575  27.256  1.00 46.87 LIG 0.04  C 
BRANCH 27 28
ATOM     28  CG  LYS B   6      57.441  85.359  25.765  1.00 55.56 LIG 0.00  C 
BRANCH 28 29
ATOM     29  CD  LYS B   6      58.735  85.585  24.995  1.00 60.95 LIG 0.03  C 
BRANCH 29 30
ATOM     30  CE  LYS B   6      58.463  85.936  23.527  1.00 62.93 LIG 0.23  C 
BRANCH 30 31
ATOM     31  NZ  LYS B   6      58.256  87.404  23.329  1.00 65.77 LIG-0.08  N 
ATOM     32 HZ1  LYS B   6      58.015  87.559  22.486  1.00 65.77 LIG 0.27  HD
ATOM     33 HZ2  LYS B   6      57.616  87.691  23.877  1.00 65.77 LIG 0.27  HD
ATOM     34 HZ3  LYS B   6      59.014  87.837  23.505  1.00 65.77 LIG 0.27  HD
ENDBRANCH 30 31
ENDBRANCH 29 30
ENDBRANCH 28 29
ENDBRANCH 27 28
ENDBRANCH 14 27
ENDBRANCH 12 14
ENDBRANCH 6 10
ENDBRANCH 4 6
ENDBRANCH 1 2
BRANCH 1 35
ATOM     35  CB  LEU B   4      53.551  87.206  30.536  1.00 28.63 LIG 0.04  C 
BRANCH 35 36
ATOM     36  CG  LEU B   4      53.486  85.799  29.955  1.00 30.56 LIG-0.02  C 
ATOM     37  CD2 LEU B   4      53.164  84.826  31.068  1.00 33.80 LIG 0.01  C 
ATOM     38  CD1 LEU B   4      54.851  85.469  29.329  1.00 28.87 LIG 0.01  C 
ENDBRANCH 35 36
ENDBRANCH 1 35
BRANCH 1 39
ATOM     39  N   LEU B   4      53.408  87.611  32.917  1.00 28.62 LIG-0.35  N 
ATOM     40 H    LEU B   4      52.964  88.334  32.776  1.00 28.62 LIG 0.16  HD
ATOM     41  C   PRO B   3      53.298  86.871  34.002  1.00 33.12 LIG 0.24  C 
ATOM     42 O    PRO B   3      53.763  85.721  34.100  1.00 32.36 LIG-0.27  OA
BRANCH 41 43
ATOM     43  CA  PRO B   3      52.506  87.497  35.147  1.00 33.48 LIG 0.18  C 
ATOM     44  CB  PRO B   3      53.072  88.896  35.507  1.00 32.62 LIG 0.04  C 
ATOM     45  CG  PRO B   3      53.072  88.950  37.012  1.00 32.85 LIG 0.02  C 
ATOM     46  CD  PRO B   3      53.274  87.509  37.473  1.00 29.95 LIG 0.13  C 
ATOM     47  N   PRO B   3      52.769  86.696  36.328  1.00 33.01 LIG-0.34  N 
ATOM     48  C   LEU B   2      52.468  85.379  36.277  1.00 31.97 LIG 0.24  C 
ATOM     49 O    LEU B   2      51.861  84.844  35.344  1.00 33.64 LIG-0.27  OA
BRANCH 48 50
ATOM     50  CA  LEU B   2      52.856  84.543  37.476  1.00 32.67 LIG 0.18  C 
BRANCH 50 51
ATOM     51  N   LEU B   2      52.353  83.203  37.198  1.00 33.85 LIG-0.35  N 
ATOM     52 H    LEU B   2      52.942  82.680  36.854  1.00 33.85 LIG 0.16  HD
ATOM     53  C   GLU B   1      51.105  82.821  37.449  1.00 36.42 LIG 0.25  C 
ATOM     54 O    GLU B   1      50.350  83.478  38.184  1.00 32.31 LIG-0.27  OA
BRANCH 53 55
ATOM     55  CA  GLU B   1      50.679  81.454  36.870  1.00 35.71 LIG 0.28  C 
BRANCH 55 56
ATOM     56  CB  GLU B   1      49.151  81.427  36.751  1.00 39.23 LIG 0.05  C 
BRANCH 56 57
ATOM     57  CG  GLU B   1      48.673  81.113  35.333  1.00 48.64 LIG 0.12  C 
BRANCH 57 58
ATOM     58  CD  GLU B   1      49.554  80.137  34.542  1.00 56.94 LIG 0.17  C 
ATOM     59 OE1  GLU B   1      50.014  79.167  35.166  1.00 65.53 LIG-0.65  OA
ATOM     60 OE2  GLU B   1      49.814  80.321  33.319  1.00 53.19 LIG-0.65  OA
ENDBRANCH 57 58
ENDBRANCH 56 57
ENDBRANCH 55 56
BRANCH 55 61
ATOM     61  N   GLU B   1      51.139  80.313  37.734  1.00 36.67 LIG-0.07  N 
ATOM     62 H1   GLU B   1      50.462  80.029  38.237  1.00 36.67 LIG 0.28  HD
ATOM     63 H3   GLU B   1      51.803  80.587  38.260  1.00 36.67 LIG 0.28  HD
ATOM     64 H2   GLU B   1      51.426  79.646  37.219  1.00 36.67 LIG 0.28  HD
ENDBRANCH 55 61
ENDBRANCH 53 55
ENDBRANCH 50 51
BRANCH 50 65
ATOM     65  CB  LEU B   2      54.396  84.578  37.656  1.00 34.84 LIG 0.04  C 
BRANCH 65 66
ATOM     66  CG  LEU B   2      54.964  83.840  38.880  1.00 34.30 LIG-0.02  C 
ATOM     67  CD2 LEU B   2      55.936  84.723  39.681  1.00 39.39 LIG 0.01  C 
ATOM     68  CD1 LEU B   2      55.626  82.510  38.515  1.00 34.61 LIG 0.01  C 
ENDBRANCH 65 66
ENDBRANCH 50 65
ENDBRANCH 48 50
ENDBRANCH 41 43
ENDBRANCH 1 39
TORSDOF 28
ENDMDL
MODEL 70
USER: ADFR SOLUTION from run 32
USER: SCORE 24.636266 LL:  -7.040 LR: -18.167 RR:   0.000 FEB:  -9.814
USER: RMSD 13.592418
USER: SEED 31
USER: STATUS no improvement in best in 11 clusters for 5 generations
USER: GENES 30
USER: genes 0 Translation |==|  0.53195 0.55921 0.46097
USER: genes 1 Rotation |==|  0.10442 0.36875 0.22431 0.51676
USER: genes 2 Torsion [N]-CA--C-[N] |==|  0.41782
USER: genes 3 Torsion [C]-N--CA-[C] |==|  0.84371
USER: genes 4 Torsion [N]-CA--CB-[CG2] |==|  0.11715
USER: genes 5 Torsion [N]-CA--C-[N] |==|  0.35105
USER: genes 6 Torsion [C]-N--CA-[C] |==|  0.74193
USER: genes 7 Torsion [N]-CA--C-[N] |==|  0.27044
USER: genes 8 Torsion [C]-N--CA-[CB] |==|  0.26407
USER: genes 9 Torsion [N]-CA--CB-[CG1] |==|  0.92282
USER: genes 10 Torsion [CA]-CB--CG1-[CD1] |==|  0.65703
USER: genes 11 Torsion [N]-CA--C-[OXT] |==|  0.89231
USER: genes 12 Torsion [N]-CA--CB-[CG] |==|  0.46186
USER: genes 13 Torsion [CA]-CB--CG-[CD] |==|  0.51298
USER: genes 14 Torsion [CB]-CG--CD-[CE] |==|  0.54728
USER: genes 15 Torsion [CG]-CD--CE-[NZ] |==|  0.43418
USER: genes 16 Torsion [CD]-CE--NZ-[HZ1] |==|  0.65555
USER: genes 17 Torsion [C]-CA--CB-[CG] |==|  0.46054
USER: genes 18 Torsion [CA]-CB--CG-[CD2] |==|  0.86795
USER: genes 19 Torsion [C]-CA--N-[C] |==|  0.81708
USER: genes 20 Torsion [N]-C--CA-[CB] |==|  0.64854
USER: genes 21 Torsion [N]-C--CA-[N] |==|  0.39748
USER: genes 22 Torsion [C]-CA--N-[C] |==|  0.56111
USER: genes 23 Torsion [N]-C--CA-[N] |==|  0.27233
USER: genes 24 Torsion [C]-CA--CB-[CG] |==|  0.49480
USER: genes 25 Torsion [CA]-CB--CG-[CD] |==|  0.18393
USER: genes 26 Torsion [CB]-CG--CD-[OE1] |==|  0.23279
USER: genes 27 Torsion [C]-CA--N-[H1] |==|  0.58823
USER: genes 28 Torsion [C]-CA--CB-[CG] |==|  0.27069
USER: genes 29 Torsion [CA]-CB--CG-[CD2] |==|  0.09505
ROOT
ATOM      1  CA  LEU B   4      56.310  87.658  29.651  1.00 30.07 LIG 0.18  C 
ENDROOT
BRANCH 1 2
ATOM      2  C   LEU B   4      56.231  87.193  28.219  1.00 30.58 LIG 0.24  C 
ATOM      3 O    LEU B   4      56.059  86.000  27.962  1.00 35.83 LIG-0.27  OA
ATOM      4  N   VAL B   5      56.436  88.115  27.282  1.00 32.24 LIG-0.35  N 
ATOM      5 H    VAL B   5      56.579  88.945  27.455  1.00 32.24 LIG 0.16  HD
BRANCH 4 6
ATOM      6  CA  VAL B   5      56.435  87.793  25.852  1.00 32.53 LIG 0.18  C 
BRANCH 6 7
ATOM      7  CB  VAL B   5      56.761  89.026  24.990  1.00 34.70 LIG 0.01  C 
ATOM      8  CG2 VAL B   5      57.886  89.795  25.634  1.00 38.22 LIG 0.01  C 
ATOM      9  CG1 VAL B   5      55.548  89.929  24.804  1.00 39.77 LIG 0.01  C 
ENDBRANCH 6 7
BRANCH 6 10
ATOM     10  C   VAL B   5      57.443  86.718  25.551  1.00 39.16 LIG 0.24  C 
ATOM     11 O    VAL B   5      58.619  86.819  25.925  1.00 33.69 LIG-0.27  OA
ATOM     12  N   LYS B   6      56.965  85.668  24.905  1.00 40.12 LIG-0.35  N 
ATOM     13 H    LYS B   6      56.138  85.574  24.687  1.00 40.12 LIG 0.16  HD
BRANCH 12 14
ATOM     14  CA  LYS B   6      57.809  84.582  24.508  1.00 45.41 LIG 0.18  C 
BRANCH 14 15
ATOM     15  C   LYS B   6      58.211  84.964  23.100  1.00 44.99 LIG 0.24  C 
ATOM     16 O    LYS B   6      57.445  84.780  22.177  1.00 45.85 LIG-0.27  OA
ATOM     17  N   ILE B   7      59.368  85.558  22.900  1.00 47.54 LIG-0.34  N 
ATOM     18 H    ILE B   7      59.966  85.727  23.495  1.00 47.54 LIG 0.16  HD
BRANCH 17 19
ATOM     19  CA  ILE B   7      59.671  85.976  21.519  1.00 57.67 LIG 0.19  C 
BRANCH 19 20
ATOM     20  CB  ILE B   7      59.314  87.476  21.178  1.00 59.41 LIG 0.01  C 
ATOM     21  CG2 ILE B   7      58.999  87.667  19.698  1.00 60.58 LIG 0.01  C 
BRANCH 20 22
ATOM     22  CG1 ILE B   7      58.140  87.992  22.060  1.00 65.20 LIG 0.00  C 
ATOM     23  CD1 ILE B   7      56.906  88.538  21.336  1.00 51.92 LIG 0.01  C 
ENDBRANCH 20 22
ENDBRANCH 19 20
BRANCH 19 24
ATOM     24  C   ILE B   7      61.068  85.534  21.060  1.00 61.74 LIG 0.20  C 
ATOM     25 O    ILE B   7      61.326  85.155  19.928  1.00 61.53 LIG-0.65  OA
ATOM     26 OXT  ILE B   7      62.016  85.574  21.845  1.00 68.92 LIG-0.65  OA
ENDBRANCH 19 24
ENDBRANCH 17 19
ENDBRANCH 14 15
BRANCH 14 27
ATOM     27  CB  LYS B   6      56.977  83.291  24.571  1.00 46.87 LIG 0.04  C 
BRANCH 27 28
ATOM     28  CG  LYS B   6      57.600  82.093  23.880  1.00 55.56 LIG 0.00  C 
BRANCH 28 29
ATOM     29  CD  LYS B   6      56.680  80.881  23.879  1.00 60.95 LIG 0.03  C 
BRANCH 29 30
ATOM     30  CE  LYS B   6      57.448  79.590  23.571  1.00 62.93 LIG 0.23  C 
BRANCH 30 31
ATOM     31  NZ  LYS B   6      56.750  78.379  24.101  1.00 65.77 LIG-0.08  N 
ATOM     32 HZ1  LYS B   6      57.300  77.929  24.637  1.00 65.77 LIG 0.27  HD
ATOM     33 HZ2  LYS B   6      56.028  78.628  24.559  1.00 65.77 LIG 0.27  HD
ATOM     34 HZ3  LYS B   6      56.504  77.857  23.423  1.00 65.77 LIG 0.27  HD
ENDBRANCH 30 31
ENDBRANCH 29 30
ENDBRANCH 28 29
ENDBRANCH 27 28
ENDBRANCH 14 27
ENDBRANCH 12 14
ENDBRANCH 6 10
ENDBRANCH 4 6
ENDBRANCH 1 2
BRANCH 1 35
ATOM     35  CB  LEU B   4      57.758  87.536  30.078  1.00 28.63 LIG 0.04  C 
BRANCH 35 36
ATOM     36  CG  LEU B   4      58.021  88.295  31.373  1.00 30.56 LIG-0.02  C 
ATOM     37  CD2 LEU B   4      57.414  89.677  31.259  1.00 33.80 LIG 0.01  C 
ATOM     38  CD1 LEU B   4      59.542  88.391  31.580  1.00 28.87 LIG 0.01  C 
ENDBRANCH 35 36
ENDBRANCH 1 35
BRANCH 1 39
ATOM     39  N   LEU B   4      55.484  86.940  30.648  1.00 28.62 LIG-0.35  N 
ATOM     40 H    LEU B   4      55.931  86.503  31.239  1.00 28.62 LIG 0.16  HD
ATOM     41  C   PRO B   3      54.168  86.991  30.599  1.00 33.12 LIG 0.24  C 
ATOM     42 O    PRO B   3      53.537  87.799  29.895  1.00 32.36 LIG-0.27  OA
BRANCH 41 43
ATOM     43  CA  PRO B   3      53.438  86.012  31.516  1.00 33.48 LIG 0.18  C 
ATOM     44  CB  PRO B   3      52.417  85.164  30.712  1.00 32.62 LIG 0.04  C 
ATOM     45  CG  PRO B   3      51.186  85.098  31.578  1.00 32.85 LIG 0.02  C 
ATOM     46  CD  PRO B   3      51.178  86.398  32.377  1.00 29.95 LIG 0.13  C 
ATOM     47  N   PRO B   3      52.613  86.806  32.408  1.00 33.01 LIG-0.34  N 
ATOM     48  C   LEU B   2      53.226  87.730  33.180  1.00 31.97 LIG 0.24  C 
ATOM     49 O    LEU B   2      54.452  87.847  33.276  1.00 33.64 LIG-0.27  OA
BRANCH 48 50
ATOM     50  CA  LEU B   2      52.336  88.622  34.015  1.00 32.67 LIG 0.18  C 
BRANCH 50 51
ATOM     51  N   LEU B   2      53.050  88.823  35.271  1.00 33.85 LIG-0.35  N 
ATOM     52 H    LEU B   2      53.897  88.688  35.210  1.00 33.85 LIG 0.16  HD
ATOM     53  C   GLU B   1      52.454  89.179  36.404  1.00 36.42 LIG 0.25  C 
ATOM     54 O    GLU B   1      51.298  89.632  36.428  1.00 32.31 LIG-0.27  OA
BRANCH 53 55
ATOM     55  CA  GLU B   1      53.318  89.107  37.683  1.00 35.71 LIG 0.28  C 
BRANCH 55 56
ATOM     56  CB  GLU B   1      52.452  88.577  38.831  1.00 39.23 LIG 0.05  C 
BRANCH 56 57
ATOM     57  CG  GLU B   1      53.229  88.425  40.138  1.00 48.64 LIG 0.12  C 
BRANCH 57 58
ATOM     58  CD  GLU B   1      53.722  89.735  40.768  1.00 56.94 LIG 0.17  C 
ATOM     59 OE1  GLU B   1      52.911  90.355  41.477  1.00 65.53 LIG-0.65  OA
ATOM     60 OE2  GLU B   1      54.890  90.171  40.563  1.00 53.19 LIG-0.65  OA
ENDBRANCH 57 58
ENDBRANCH 56 57
ENDBRANCH 55 56
BRANCH 55 61
ATOM     61  N   GLU B   1      53.882  90.451  38.052  1.00 36.67 LIG-0.07  N 
ATOM     62 H1   GLU B   1      54.673  90.344  38.445  1.00 36.67 LIG 0.28  HD
ATOM     63 H3   GLU B   1      53.327  90.862  38.613  1.00 36.67 LIG 0.28  HD
ATOM     64 H2   GLU B   1      53.979  90.944  37.318  1.00 36.67 LIG 0.28  HD
ENDBRANCH 55 61
ENDBRANCH 53 55
ENDBRANCH 50 51
BRANCH 50 65
ATOM     65  CB  LEU B   2      52.075  89.950  33.257  1.00 34.84 LIG 0.04  C 
BRANCH 65 66
ATOM     66  CG  LEU B   2      50.758  90.047  32.471  1.00 34.30 LIG-0.02  C 
ATOM     67  CD2 LEU B   2      49.616  89.288  33.169  1.00 39.39 LIG 0.01  C 
ATOM     68  CD1 LEU B   2      50.900  89.582  31.019  1.00 34.61 LIG 0.01  C 
ENDBRANCH 65 66
ENDBRANCH 50 65
ENDBRANCH 48 50
ENDBRANCH 41 43
ENDBRANCH 1 39
TORSDOF 28
ENDMDL
