MODEL 1
USER: ADFR SOLUTION from run 4
USER: SCORE 16.672100 LL:  -1.962 LR: -15.307 RR:   0.000 FEB: -10.236
USER: RMSD 7.278004
USER: SEED 670167
USER: STATUS no improvement in best in 4 clusters for 5 generations
USER: GENES 19
USER: genes 0 Translation |==|  0.53332 0.42367 0.44864
USER: genes 1 Rotation |==|  0.03629 0.64561 0.61466 0.52502
USER: genes 2 Torsion [N]-CA--C-[N] |==|  0.34519
USER: genes 3 Torsion [C]-N--CA-[C] |==|  0.60008
USER: genes 4 Torsion [N]-CA--C-[OXT] |==|  0.61446
USER: genes 5 Torsion [N]-CA--CB-[CG] |==|  0.14374
USER: genes 6 Torsion [CA]-CB--CG-[CD1] |==|  0.28791
USER: genes 7 Torsion [CE1]-CZ--OH-[HH] |==|  0.61583
USER: genes 8 Torsion [C]-CA--CB-[CG] |==|  0.09607
USER: genes 9 Torsion [CA]-CB--CG-[ND2] |==|  0.14038
USER: genes 10 Torsion [C]-CA--N-[C] |==|  0.60886
USER: genes 11 Torsion [N]-C--CA-[N] |==|  0.33902
USER: genes 12 Torsion [C]-CA--CB-[CG] |==|  0.83974
USER: genes 13 Torsion [CA]-CB--CG-[CD] |==|  0.39484
USER: genes 14 Torsion [CB]-CG--CD-[NE2] |==|  0.31648
USER: genes 15 Torsion [C]-CA--N-[C] |==|  0.87472
USER: genes 16 Torsion [N]-C--CA-[N] |==|  0.28088
USER: genes 17 Torsion [C]-CA--CB-[OG] |==|  0.89332
USER: genes 18 Torsion [CA]-CB--OG-[HG] |==|  0.89595
ROOT
ATOM      1  CA  ASN C   4      21.726   1.933  19.156  1.00 23.87 LIG 0.18  C 
ENDROOT
BRANCH 1 2
ATOM      2  C   ASN C   4      21.891   3.203  19.992  1.00 24.50 LIG 0.24  C 
ATOM      3 O    ASN C   4      21.947   4.312  19.465  1.00 25.26 LIG-0.27  OA
ATOM      4  N   TYR C   5      21.966   3.012  21.306  1.00 25.46 LIG-0.34  N 
ATOM      5 H    TYR C   5      21.935   2.231  21.666  1.00 25.46 LIG 0.16  HD
BRANCH 4 6
ATOM      6  CA  TYR C   5      22.106   4.097  22.284  1.00 27.53 LIG 0.19  C 
BRANCH 6 7
ATOM      7  C   TYR C   5      22.996   3.646  23.431  1.00 27.73 LIG 0.20  C 
ATOM      8 OXT  TYR C   5      22.707   3.942  24.599  1.00 28.08 LIG-0.65  OA
ATOM      9 O    TYR C   5      23.983   2.949  23.178  1.00 30.08 LIG-0.65  OA
ENDBRANCH 6 7
BRANCH 6 10
ATOM     10  CB  TYR C   5      20.731   4.494  22.827  1.00 26.02 LIG 0.07  C 
BRANCH 10 11
ATOM     11  CG  TYR C   5      19.996   3.289  23.316  1.00 28.29 LIG-0.06  A 
ATOM     12  CD1 TYR C   5      19.897   3.041  24.678  1.00 28.93 LIG 0.01  A 
ATOM     13  CE1 TYR C   5      19.182   1.962  25.151  1.00 31.65 LIG 0.04  A 
ATOM     14  CZ  TYR C   5      18.528   1.127  24.264  1.00 33.19 LIG 0.07  A 
ATOM     15  CE2 TYR C   5      18.592   1.365  22.904  1.00 31.83 LIG 0.04  A 
ATOM     16  CD2 TYR C   5      19.323   2.451  22.435  1.00 30.09 LIG 0.01  A 
BRANCH 14 17
ATOM     17 OH   TYR C   5      17.815   0.062  24.763  1.00 32.69 LIG-0.36  OA
ATOM     18 HH   TYR C   5      17.949  -0.614  24.283  1.00 32.69 LIG 0.22  HD
ENDBRANCH 14 17
ENDBRANCH 10 11
ENDBRANCH 6 10
ENDBRANCH 4 6
ENDBRANCH 1 2
BRANCH 1 19
ATOM     19  CB  ASN C   4      22.958   1.643  18.310  1.00 21.84 LIG 0.14  C 
BRANCH 19 20
ATOM     20  CG  ASN C   4      24.224   2.055  19.024  1.00 23.44 LIG 0.22  C 
ATOM     21 OD1  ASN C   4      25.010   2.817  18.479  1.00 24.15 LIG-0.27  OA
ATOM     22  ND2 ASN C   4      24.389   1.622  20.273  1.00 22.78 LIG-0.37  N 
ATOM     23 21HD ASN C   4      25.071   1.879  20.731  1.00 22.78 LIG 0.16  HD
ATOM     24 22HD ASN C   4      23.814   1.086  20.622  1.00 22.78 LIG 0.16  HD
ENDBRANCH 19 20
ENDBRANCH 1 19
BRANCH 1 25
ATOM     25  N   ASN C   4      20.554   1.947  18.278  1.00 22.84 LIG-0.35  N 
ATOM     26 H    ASN C   4      20.403   2.709  17.909  1.00 22.84 LIG 0.16  HD
ATOM     27  C   GLN C   3      19.796   0.872  18.076  1.00 20.90 LIG 0.24  C 
ATOM     28 O    GLN C   3      19.856  -0.137  18.774  1.00 18.13 LIG-0.27  OA
BRANCH 27 29
ATOM     29  CA  GLN C   3      18.768   0.977  16.945  1.00 23.72 LIG 0.18  C 
BRANCH 29 30
ATOM     30  CB  GLN C   3      17.355   0.994  17.544  1.00 25.20 LIG 0.04  C 
BRANCH 30 31
ATOM     31  CG  GLN C   3      17.026  -0.222  18.400  1.00 28.81 LIG 0.10  C 
BRANCH 31 32
ATOM     32  CD  GLN C   3      16.185   0.131  19.625  1.00 35.20 LIG 0.21  C 
ATOM     33  NE2 GLN C   3      14.940  -0.360  19.656  1.00 25.96 LIG-0.37  N 
ATOM     34 21HE GLN C   3      14.656  -0.851  19.011  1.00 25.96 LIG 0.16  HD
ATOM     35 22HE GLN C   3      14.425  -0.183  20.322  1.00 25.96 LIG 0.16  HD
ATOM     36 OE1  GLN C   3      16.652   0.847  20.528  1.00 36.24 LIG-0.27  OA
ENDBRANCH 31 32
ENDBRANCH 30 31
ENDBRANCH 29 30
BRANCH 29 37
ATOM     37  N   GLN C   3      18.931  -0.066  15.901  1.00 22.58 LIG-0.35  N 
ATOM     38 H    GLN C   3      18.202  -0.444  15.649  1.00 22.58 LIG 0.16  HD
ATOM     39  C   SER C   2      20.141  -0.356  15.422  1.00 24.53 LIG 0.26  C 
ATOM     40 O    SER C   2      21.156   0.249  15.777  1.00 22.38 LIG-0.27  OA
BRANCH 39 41
ATOM     41  CA  SER C   2      20.280  -1.483  14.409  1.00 25.92 LIG 0.42  C 
ATOM     42  N   SER C   2      20.401  -0.885  13.040  1.00 33.46 LIG 0.62  N 
BRANCH 41 43
ATOM     43  CB  SER C   2      21.453  -2.396  14.773  1.00 31.59 LIG 0.21  C 
BRANCH 43 44
ATOM     44 OG   SER C   2      22.575  -1.683  15.281  1.00 27.93 LIG-0.40  OA
ATOM     45 HG   SER C   2      22.657  -0.956  14.868  1.00 27.93 LIG 0.21  HD
ENDBRANCH 43 44
ENDBRANCH 41 43
ENDBRANCH 39 41
ENDBRANCH 29 37
ENDBRANCH 27 29
ENDBRANCH 1 25
TORSDOF 17
ENDMDL
MODEL 2
USER: ADFR SOLUTION from run 115
USER: SCORE 16.011593 LL:  -1.572 LR: -14.874 RR:   0.000 FEB:  -9.803
USER: RMSD 4.820354
USER: SEED 114
USER: STATUS no improvement in best in 5 clusters for 5 generations
USER: GENES 19
USER: genes 0 Translation |==|  0.62718 0.38899 0.45952
USER: genes 1 Rotation |==|  0.43879 0.48733 0.55206 0.99334
USER: genes 2 Torsion [N]-CA--C-[N] |==|  0.33049
USER: genes 3 Torsion [C]-N--CA-[C] |==|  0.13261
USER: genes 4 Torsion [N]-CA--C-[OXT] |==|  0.12143
USER: genes 5 Torsion [N]-CA--CB-[CG] |==|  0.64279
USER: genes 6 Torsion [CA]-CB--CG-[CD1] |==|  0.04276
USER: genes 7 Torsion [CE1]-CZ--OH-[HH] |==|  0.03813
USER: genes 8 Torsion [C]-CA--CB-[CG] |==|  0.46027
USER: genes 9 Torsion [CA]-CB--CG-[ND2] |==|  0.32341
USER: genes 10 Torsion [C]-CA--N-[C] |==|  0.63024
USER: genes 11 Torsion [N]-C--CA-[N] |==|  0.28889
USER: genes 12 Torsion [C]-CA--CB-[CG] |==|  0.15388
USER: genes 13 Torsion [CA]-CB--CG-[CD] |==|  0.64089
USER: genes 14 Torsion [CB]-CG--CD-[NE2] |==|  0.25559
USER: genes 15 Torsion [C]-CA--N-[C] |==|  0.72351
USER: genes 16 Torsion [N]-C--CA-[N] |==|  0.71210
USER: genes 17 Torsion [C]-CA--CB-[OG] |==|  0.13227
USER: genes 18 Torsion [CA]-CB--OG-[HG] |==|  0.67793
ROOT
ATOM      1  CA  ASN C   4      23.345   1.360  19.369  1.00 23.87 LIG 0.18  C 
ENDROOT
BRANCH 1 2
ATOM      2  C   ASN C   4      22.709  -0.008  19.114  1.00 24.50 LIG 0.24  C 
ATOM      3 O    ASN C   4      22.650  -0.859  19.999  1.00 25.26 LIG-0.27  OA
ATOM      4  N   TYR C   5      22.235  -0.193  17.886  1.00 25.46 LIG-0.34  N 
ATOM      5 H    TYR C   5      22.290   0.404  17.270  1.00 25.46 LIG 0.16  HD
BRANCH 4 6
ATOM      6  CA  TYR C   5      21.572  -1.425  17.442  1.00 27.53 LIG 0.19  C 
BRANCH 6 7
ATOM      7  C   TYR C   5      20.525  -1.843  18.462  1.00 27.73 LIG 0.20  C 
ATOM      8 OXT  TYR C   5      19.767  -0.999  18.961  1.00 28.08 LIG-0.65  OA
ATOM      9 O    TYR C   5      20.421  -3.039  18.751  1.00 30.08 LIG-0.65  OA
ENDBRANCH 6 7
BRANCH 6 10
ATOM     10  CB  TYR C   5      22.603  -2.545  17.277  1.00 26.02 LIG 0.07  C 
BRANCH 10 11
ATOM     11  CG  TYR C   5      22.472  -3.180  15.932  1.00 28.29 LIG-0.06  A 
ATOM     12  CD1 TYR C   5      21.749  -2.544  14.931  1.00 28.93 LIG 0.01  A 
ATOM     13  CE1 TYR C   5      21.657  -3.089  13.669  1.00 31.65 LIG 0.04  A 
ATOM     14  CZ  TYR C   5      22.315  -4.270  13.379  1.00 33.19 LIG 0.07  A 
ATOM     15  CE2 TYR C   5      23.060  -4.912  14.351  1.00 31.83 LIG 0.04  A 
ATOM     16  CD2 TYR C   5      23.140  -4.359  15.625  1.00 30.09 LIG 0.01  A 
BRANCH 14 17
ATOM     17 OH   TYR C   5      22.212  -4.789  12.109  1.00 32.69 LIG-0.36  OA
ATOM     18 HH   TYR C   5      21.895  -4.207  11.594  1.00 32.69 LIG 0.22  HD
ENDBRANCH 14 17
ENDBRANCH 10 11
ENDBRANCH 6 10
ENDBRANCH 4 6
ENDBRANCH 1 2
BRANCH 1 19
ATOM     19  CB  ASN C   4      24.823   1.245  19.717  1.00 21.84 LIG 0.14  C 
BRANCH 19 20
ATOM     20  CG  ASN C   4      25.516   2.584  19.625  1.00 23.44 LIG 0.22  C 
ATOM     21 OD1  ASN C   4      25.526   3.192  18.564  1.00 24.15 LIG-0.27  OA
ATOM     22  ND2 ASN C   4      26.025   3.086  20.749  1.00 22.78 LIG-0.37  N 
ATOM     23 21HD ASN C   4      26.379   3.870  20.747  1.00 22.78 LIG 0.16  HD
ATOM     24 22HD ASN C   4      25.999   2.627  21.476  1.00 22.78 LIG 0.16  HD
ENDBRANCH 19 20
ENDBRANCH 1 19
BRANCH 1 25
ATOM     25  N   ASN C   4      22.681   2.139  20.416  1.00 22.84 LIG-0.35  N 
ATOM     26 H    ASN C   4      22.516   1.692  21.133  1.00 22.84 LIG 0.16  HD
ATOM     27  C   GLN C   3      22.365   3.423  20.264  1.00 20.90 LIG 0.24  C 
ATOM     28 O    GLN C   3      22.374   3.996  19.178  1.00 18.13 LIG-0.27  OA
BRANCH 27 29
ATOM     29  CA  GLN C   3      21.910   4.157  21.529  1.00 23.72 LIG 0.18  C 
BRANCH 29 30
ATOM     30  CB  GLN C   3      20.591   4.890  21.244  1.00 25.20 LIG 0.04  C 
BRANCH 30 31
ATOM     31  CG  GLN C   3      19.481   3.991  20.714  1.00 28.81 LIG 0.10  C 
BRANCH 31 32
ATOM     32  CD  GLN C   3      18.834   4.542  19.446  1.00 35.20 LIG 0.21  C 
ATOM     33  NE2 GLN C   3      19.354   4.131  18.283  1.00 25.96 LIG-0.37  N 
ATOM     34 21HE GLN C   3      20.014   3.580  18.278  1.00 25.96 LIG 0.16  HD
ATOM     35 22HE GLN C   3      19.028   4.419  17.541  1.00 25.96 LIG 0.16  HD
ATOM     36 OE1  GLN C   3      17.881   5.338  19.516  1.00 36.24 LIG-0.27  OA
ENDBRANCH 31 32
ENDBRANCH 30 31
ENDBRANCH 29 30
BRANCH 29 37
ATOM     37  N   GLN C   3      22.948   5.055  22.095  1.00 22.58 LIG-0.35  N 
ATOM     38 H    GLN C   3      23.018   5.819  21.709  1.00 22.58 LIG 0.16  HD
ATOM     39  C   SER C   2      23.691   4.658  23.129  1.00 24.53 LIG 0.26  C 
ATOM     40 O    SER C   2      23.522   3.570  23.686  1.00 22.38 LIG-0.27  OA
BRANCH 39 41
ATOM     41  CA  SER C   2      24.797   5.572  23.634  1.00 25.92 LIG 0.42  C 
ATOM     42  N   SER C   2      26.115   5.038  23.159  1.00 33.46 LIG 0.62  N 
BRANCH 41 43
ATOM     43  CB  SER C   2      24.543   7.018  23.204  1.00 31.59 LIG 0.21  C 
BRANCH 43 44
ATOM     44 OG   SER C   2      23.209   7.446  23.455  1.00 27.93 LIG-0.40  OA
ATOM     45 HG   SER C   2      22.827   7.616  22.726  1.00 27.93 LIG 0.21  HD
ENDBRANCH 43 44
ENDBRANCH 41 43
ENDBRANCH 39 41
ENDBRANCH 29 37
ENDBRANCH 27 29
ENDBRANCH 1 25
TORSDOF 17
ENDMDL
MODEL 3
USER: ADFR SOLUTION from run 7
USER: SCORE 16.261758 LL:  -2.349 LR: -14.574 RR:   0.000 FEB:  -9.503
USER: RMSD 6.746502
USER: SEED 342464
USER: STATUS no improvement in best in 2 clusters for 5 generations
USER: GENES 19
USER: genes 0 Translation |==|  0.54306 0.53171 0.56776
USER: genes 1 Rotation |==|  0.96070 0.59561 0.62282 0.61634
USER: genes 2 Torsion [N]-CA--C-[N] |==|  0.16815
USER: genes 3 Torsion [C]-N--CA-[C] |==|  0.82901
USER: genes 4 Torsion [N]-CA--C-[OXT] |==|  0.45818
USER: genes 5 Torsion [N]-CA--CB-[CG] |==|  0.78003
USER: genes 6 Torsion [CA]-CB--CG-[CD1] |==|  0.40177
USER: genes 7 Torsion [CE1]-CZ--OH-[HH] |==|  0.42524
USER: genes 8 Torsion [C]-CA--CB-[CG] |==|  0.43031
USER: genes 9 Torsion [CA]-CB--CG-[ND2] |==|  0.44672
USER: genes 10 Torsion [C]-CA--N-[C] |==|  0.11152
USER: genes 11 Torsion [N]-C--CA-[N] |==|  0.41180
USER: genes 12 Torsion [C]-CA--CB-[CG] |==|  0.14244
USER: genes 13 Torsion [CA]-CB--CG-[CD] |==|  0.72898
USER: genes 14 Torsion [CB]-CG--CD-[NE2] |==|  0.52807
USER: genes 15 Torsion [C]-CA--N-[C] |==|  0.56668
USER: genes 16 Torsion [N]-C--CA-[N] |==|  0.07204
USER: genes 17 Torsion [C]-CA--CB-[OG] |==|  0.91505
USER: genes 18 Torsion [CA]-CB--OG-[HG] |==|  0.83895
ROOT
ATOM      1  CA  ASN C   4      21.894   3.715  21.479  1.00 23.87 LIG 0.18  C 
ENDROOT
BRANCH 1 2
ATOM      2  C   ASN C   4      20.608   4.369  20.969  1.00 24.50 LIG 0.24  C 
ATOM      3 O    ASN C   4      20.584   5.549  20.625  1.00 25.26 LIG-0.27  OA
ATOM      4  N   TYR C   5      19.544   3.573  20.928  1.00 25.46 LIG-0.34  N 
ATOM      5 H    TYR C   5      19.568   2.751  21.180  1.00 25.46 LIG 0.16  HD
BRANCH 4 6
ATOM      6  CA  TYR C   5      18.222   3.997  20.453  1.00 27.53 LIG 0.19  C 
BRANCH 6 7
ATOM      7  C   TYR C   5      17.695   5.120  21.332  1.00 27.73 LIG 0.20  C 
ATOM      8 OXT  TYR C   5      16.738   5.811  20.956  1.00 28.08 LIG-0.65  OA
ATOM      9 O    TYR C   5      18.211   5.300  22.440  1.00 30.08 LIG-0.65  OA
ENDBRANCH 6 7
BRANCH 6 10
ATOM     10  CB  TYR C   5      17.248   2.817  20.490  1.00 26.02 LIG 0.07  C 
BRANCH 10 11
ATOM     11  CG  TYR C   5      17.463   1.928  19.309  1.00 28.29 LIG-0.06  A 
ATOM     12  CD1 TYR C   5      17.308   0.554  19.437  1.00 28.93 LIG 0.01  A 
ATOM     13  CE1 TYR C   5      17.452  -0.279  18.349  1.00 31.65 LIG 0.04  A 
ATOM     14  CZ  TYR C   5      17.727   0.256  17.104  1.00 33.19 LIG 0.07  A 
ATOM     15  CE2 TYR C   5      17.864   1.622  16.945  1.00 31.83 LIG 0.04  A 
ATOM     16  CD2 TYR C   5      17.725   2.455  18.051  1.00 30.09 LIG 0.01  A 
BRANCH 14 17
ATOM     17 OH   TYR C   5      17.860  -0.597  16.033  1.00 32.69 LIG-0.36  OA
ATOM     18 HH   TYR C   5      17.658  -0.192  15.325  1.00 32.69 LIG 0.22  HD
ENDBRANCH 14 17
ENDBRANCH 10 11
ENDBRANCH 6 10
ENDBRANCH 4 6
ENDBRANCH 1 2
BRANCH 1 19
ATOM     19  CB  ASN C   4      23.036   4.716  21.589  1.00 21.84 LIG 0.14  C 
BRANCH 19 20
ATOM     20  CG  ASN C   4      24.057   4.275  22.611  1.00 23.44 LIG 0.22  C 
ATOM     21 OD1  ASN C   4      23.776   3.395  23.411  1.00 24.15 LIG-0.27  OA
ATOM     22  ND2 ASN C   4      25.269   4.822  22.538  1.00 22.78 LIG-0.37  N 
ATOM     23 21HD ASN C   4      25.893   4.557  23.068  1.00 22.78 LIG 0.16  HD
ATOM     24 22HD ASN C   4      25.429   5.440  21.960  1.00 22.78 LIG 0.16  HD
ENDBRANCH 19 20
ENDBRANCH 1 19
BRANCH 1 25
ATOM     25  N   ASN C   4      22.347   2.582  20.670  1.00 22.84 LIG-0.35  N 
ATOM     26 H    ASN C   4      22.651   1.923  21.130  1.00 22.84 LIG 0.16  HD
ATOM     27  C   GLN C   3      22.289   2.583  19.340  1.00 20.90 LIG 0.24  C 
ATOM     28 O    GLN C   3      22.088   3.595  18.674  1.00 18.13 LIG-0.27  OA
BRANCH 27 29
ATOM     29  CA  GLN C   3      22.560   1.240  18.655  1.00 23.72 LIG 0.18  C 
BRANCH 29 30
ATOM     30  CB  GLN C   3      24.074   1.059  18.473  1.00 25.20 LIG 0.04  C 
BRANCH 30 31
ATOM     31  CG  GLN C   3      24.885   1.276  19.745  1.00 28.81 LIG 0.10  C 
BRANCH 31 32
ATOM     32  CD  GLN C   3      25.478   2.680  19.831  1.00 35.20 LIG 0.21  C 
ATOM     33  NE2 GLN C   3      26.372   2.893  20.805  1.00 25.96 LIG-0.37  N 
ATOM     34 21HE GLN C   3      26.588   2.252  21.336  1.00 25.96 LIG 0.16  HD
ATOM     35 22HE GLN C   3      26.729   3.670  20.899  1.00 25.96 LIG 0.16  HD
ATOM     36 OE1  GLN C   3      25.126   3.567  19.033  1.00 36.24 LIG-0.27  OA
ENDBRANCH 31 32
ENDBRANCH 30 31
ENDBRANCH 29 30
BRANCH 29 37
ATOM     37  N   GLN C   3      21.810   1.062  17.387  1.00 22.58 LIG-0.35  N 
ATOM     38 H    GLN C   3      21.574   1.792  16.999  1.00 22.58 LIG 0.16  HD
ATOM     39  C   SER C   2      21.547  -0.161  16.925  1.00 24.53 LIG 0.26  C 
ATOM     40 O    SER C   2      21.950  -1.182  17.490  1.00 22.38 LIG-0.27  OA
BRANCH 39 41
ATOM     41  CA  SER C   2      20.710  -0.307  15.663  1.00 25.92 LIG 0.42  C 
ATOM     42  N   SER C   2      20.862   0.937  14.841  1.00 33.46 LIG 0.62  N 
BRANCH 41 43
ATOM     43  CB  SER C   2      21.091  -1.580  14.905  1.00 31.59 LIG 0.21  C 
BRANCH 43 44
ATOM     44 OG   SER C   2      22.457  -1.940  15.075  1.00 27.93 LIG-0.40  OA
ATOM     45 HG   SER C   2      22.948  -1.308  14.819  1.00 27.93 LIG 0.21  HD
ENDBRANCH 43 44
ENDBRANCH 41 43
ENDBRANCH 39 41
ENDBRANCH 29 37
ENDBRANCH 27 29
ENDBRANCH 1 25
TORSDOF 17
ENDMDL
MODEL 4
USER: ADFR SOLUTION from run 143
USER: SCORE 15.055425 LL:  -2.192 LR: -14.477 RR:   0.000 FEB:  -9.406
USER: RMSD 7.094801
USER: SEED 142
USER: STATUS no improvement in best in 7 clusters for 5 generations
USER: GENES 19
USER: genes 0 Translation |==|  0.54045 0.54755 0.59317
USER: genes 1 Rotation |==|  0.96797 0.58265 0.60203 0.61731
USER: genes 2 Torsion [N]-CA--C-[N] |==|  0.33747
USER: genes 3 Torsion [C]-N--CA-[C] |==|  0.66128
USER: genes 4 Torsion [N]-CA--C-[OXT] |==|  0.96295
USER: genes 5 Torsion [N]-CA--CB-[CG] |==|  0.04545
USER: genes 6 Torsion [CA]-CB--CG-[CD1] |==|  0.24617
USER: genes 7 Torsion [CE1]-CZ--OH-[HH] |==|  0.46573
USER: genes 8 Torsion [C]-CA--CB-[CG] |==|  0.42379
USER: genes 9 Torsion [CA]-CB--CG-[ND2] |==|  0.44773
USER: genes 10 Torsion [C]-CA--N-[C] |==|  0.16111
USER: genes 11 Torsion [N]-C--CA-[N] |==|  0.38942
USER: genes 12 Torsion [C]-CA--CB-[CG] |==|  0.09866
USER: genes 13 Torsion [CA]-CB--CG-[CD] |==|  0.74047
USER: genes 14 Torsion [CB]-CG--CD-[NE2] |==|  0.51955
USER: genes 15 Torsion [C]-CA--N-[C] |==|  0.54271
USER: genes 16 Torsion [N]-C--CA-[N] |==|  0.40710
USER: genes 17 Torsion [C]-CA--CB-[OG] |==|  0.13815
USER: genes 18 Torsion [CA]-CB--OG-[HG] |==|  0.16974
ROOT
ATOM      1  CA  ASN C   4      21.849   3.977  21.975  1.00 23.87 LIG 0.18  C 
ENDROOT
BRANCH 1 2
ATOM      2  C   ASN C   4      20.582   4.725  21.555  1.00 24.50 LIG 0.24  C 
ATOM      3 O    ASN C   4      20.463   5.199  20.427  1.00 25.26 LIG-0.27  OA
ATOM      4  N   TYR C   5      19.640   4.814  22.490  1.00 25.46 LIG-0.34  N 
ATOM      5 H    TYR C   5      19.735   4.488  23.280  1.00 25.46 LIG 0.16  HD
BRANCH 4 6
ATOM      6  CA  TYR C   5      18.345   5.473  22.286  1.00 27.53 LIG 0.19  C 
BRANCH 6 7
ATOM      7  C   TYR C   5      18.167   6.589  23.302  1.00 27.73 LIG 0.20  C 
ATOM      8 OXT  TYR C   5      18.922   6.667  24.282  1.00 28.08 LIG-0.65  OA
ATOM      9 O    TYR C   5      17.287   7.433  23.110  1.00 30.08 LIG-0.65  OA
ENDBRANCH 6 7
BRANCH 6 10
ATOM     10  CB  TYR C   5      17.211   4.455  22.437  1.00 26.02 LIG 0.07  C 
BRANCH 10 11
ATOM     11  CG  TYR C   5      17.704   3.223  23.122  1.00 28.29 LIG-0.06  A 
ATOM     12  CD1 TYR C   5      17.674   3.139  24.507  1.00 28.93 LIG 0.01  A 
ATOM     13  CE1 TYR C   5      18.078   1.993  25.156  1.00 31.65 LIG 0.04  A 
ATOM     14  CZ  TYR C   5      18.493   0.897  24.423  1.00 33.19 LIG 0.07  A 
ATOM     15  CE2 TYR C   5      18.512   0.946  23.041  1.00 31.83 LIG 0.04  A 
ATOM     16  CD2 TYR C   5      18.110   2.111  22.395  1.00 30.09 LIG 0.01  A 
BRANCH 14 17
ATOM     17 OH   TYR C   5      18.885  -0.238  25.095  1.00 32.69 LIG-0.36  OA
ATOM     18 HH   TYR C   5      18.950  -0.876  24.553  1.00 32.69 LIG 0.22  HD
ENDBRANCH 14 17
ENDBRANCH 10 11
ENDBRANCH 6 10
ENDBRANCH 4 6
ENDBRANCH 1 2
BRANCH 1 19
ATOM     19  CB  ASN C   4      23.066   4.890  22.001  1.00 21.84 LIG 0.14  C 
BRANCH 19 20
ATOM     20  CG  ASN C   4      24.098   4.404  22.991  1.00 23.44 LIG 0.22  C 
ATOM     21 OD1  ASN C   4      23.791   3.567  23.828  1.00 24.15 LIG-0.27  OA
ATOM     22  ND2 ASN C   4      25.341   4.861  22.851  1.00 22.78 LIG-0.37  N 
ATOM     23 21HD ASN C   4      25.968   4.565  23.361  1.00 22.78 LIG 0.16  HD
ATOM     24 22HD ASN C   4      25.518   5.450  22.250  1.00 22.78 LIG 0.16  HD
ENDBRANCH 19 20
ENDBRANCH 1 19
BRANCH 1 25
ATOM     25  N   ASN C   4      22.159   2.816  21.138  1.00 22.84 LIG-0.35  N 
ATOM     26 H    ASN C   4      22.209   2.075  21.572  1.00 22.84 LIG 0.16  HD
ATOM     27  C   GLN C   3      22.345   2.908  19.823  1.00 20.90 LIG 0.24  C 
ATOM     28 O    GLN C   3      22.514   3.976  19.240  1.00 18.13 LIG-0.27  OA
BRANCH 27 29
ATOM     29  CA  GLN C   3      22.408   1.583  19.058  1.00 23.72 LIG 0.18  C 
BRANCH 29 30
ATOM     30  CB  GLN C   3      23.874   1.140  18.931  1.00 25.20 LIG 0.04  C 
BRANCH 30 31
ATOM     31  CG  GLN C   3      24.734   1.480  20.142  1.00 28.81 LIG 0.10  C 
BRANCH 31 32
ATOM     32  CD  GLN C   3      25.457   2.816  19.993  1.00 35.20 LIG 0.21  C 
ATOM     33  NE2 GLN C   3      26.347   3.123  20.944  1.00 25.96 LIG-0.37  N 
ATOM     34 21HE GLN C   3      26.490   2.576  21.592  1.00 25.96 LIG 0.16  HD
ATOM     35 22HE GLN C   3      26.775   3.869  20.908  1.00 25.96 LIG 0.16  HD
ATOM     36 OE1  GLN C   3      25.208   3.567  19.033  1.00 36.24 LIG-0.27  OA
ENDBRANCH 31 32
ENDBRANCH 30 31
ENDBRANCH 29 30
BRANCH 29 37
ATOM     37  N   GLN C   3      21.711   1.623  17.749  1.00 22.58 LIG-0.35  N 
ATOM     38 H    GLN C   3      21.529   2.411  17.458  1.00 22.58 LIG 0.16  HD
ATOM     39  C   SER C   2      21.412   0.492  17.110  1.00 24.53 LIG 0.26  C 
ATOM     40 O    SER C   2      21.739  -0.617  17.541  1.00 22.38 LIG-0.27  OA
BRANCH 39 41
ATOM     41  CA  SER C   2      20.630   0.567  15.807  1.00 25.92 LIG 0.42  C 
ATOM     42  N   SER C   2      21.088  -0.542  14.908  1.00 33.46 LIG 0.62  N 
BRANCH 41 43
ATOM     43  CB  SER C   2      19.124   0.540  16.078  1.00 31.59 LIG 0.21  C 
BRANCH 43 44
ATOM     44 OG   SER C   2      18.721   1.477  17.070  1.00 27.93 LIG-0.40  OA
ATOM     45 HG   SER C   2      18.907   2.255  16.813  1.00 27.93 LIG 0.21  HD
ENDBRANCH 43 44
ENDBRANCH 41 43
ENDBRANCH 39 41
ENDBRANCH 29 37
ENDBRANCH 27 29
ENDBRANCH 1 25
TORSDOF 17
ENDMDL
MODEL 5
USER: ADFR SOLUTION from run 27
USER: SCORE 15.112139 LL:  -1.167 LR: -14.423 RR:   0.000 FEB:  -9.352
USER: RMSD 3.846280
USER: SEED 26
USER: STATUS no improvement in best in 17 clusters for 5 generations
USER: GENES 19
USER: genes 0 Translation |==|  0.60164 0.38544 0.44840
USER: genes 1 Rotation |==|  0.44268 0.50928 0.52924 0.99576
USER: genes 2 Torsion [N]-CA--C-[N] |==|  0.31605
USER: genes 3 Torsion [C]-N--CA-[C] |==|  0.92088
USER: genes 4 Torsion [N]-CA--C-[OXT] |==|  0.34673
USER: genes 5 Torsion [N]-CA--CB-[CG] |==|  0.56721
USER: genes 6 Torsion [CA]-CB--CG-[CD1] |==|  0.09791
USER: genes 7 Torsion [CE1]-CZ--OH-[HH] |==|  0.32889
USER: genes 8 Torsion [C]-CA--CB-[CG] |==|  0.48935
USER: genes 9 Torsion [CA]-CB--CG-[ND2] |==|  0.34966
USER: genes 10 Torsion [C]-CA--N-[C] |==|  0.63565
USER: genes 11 Torsion [N]-C--CA-[N] |==|  0.27168
USER: genes 12 Torsion [C]-CA--CB-[CG] |==|  0.15526
USER: genes 13 Torsion [CA]-CB--CG-[CD] |==|  0.66558
USER: genes 14 Torsion [CB]-CG--CD-[NE2] |==|  0.24230
USER: genes 15 Torsion [C]-CA--N-[C] |==|  0.73901
USER: genes 16 Torsion [N]-C--CA-[N] |==|  0.01118
USER: genes 17 Torsion [C]-CA--CB-[OG] |==|  0.31672
USER: genes 18 Torsion [CA]-CB--OG-[HG] |==|  0.60042
ROOT
ATOM      1  CA  ASN C   4      22.904   1.302  19.152  1.00 23.87 LIG 0.18  C 
ENDROOT
BRANCH 1 2
ATOM      2  C   ASN C   4      22.115   0.008  18.939  1.00 24.50 LIG 0.24  C 
ATOM      3 O    ASN C   4      22.115  -0.886  19.783  1.00 25.26 LIG-0.27  OA
ATOM      4  N   TYR C   5      21.444  -0.065  17.794  1.00 25.46 LIG-0.34  N 
ATOM      5 H    TYR C   5      21.458   0.561  17.205  1.00 25.46 LIG 0.16  HD
BRANCH 4 6
ATOM      6  CA  TYR C   5      20.611  -1.209  17.406  1.00 27.53 LIG 0.19  C 
BRANCH 6 7
ATOM      7  C   TYR C   5      21.144  -2.478  18.053  1.00 27.73 LIG 0.20  C 
ATOM      8 OXT  TYR C   5      20.401  -3.183  18.750  1.00 28.08 LIG-0.65  OA
ATOM      9 O    TYR C   5      22.314  -2.809  17.836  1.00 30.08 LIG-0.65  OA
ENDBRANCH 6 7
BRANCH 6 10
ATOM     10  CB  TYR C   5      20.617  -1.369  15.883  1.00 26.02 LIG 0.07  C 
BRANCH 10 11
ATOM     11  CG  TYR C   5      19.390  -2.089  15.430  1.00 28.29 LIG-0.06  A 
ATOM     12  CD1 TYR C   5      18.183  -1.886  16.085  1.00 28.93 LIG 0.01  A 
ATOM     13  CE1 TYR C   5      17.029  -2.502  15.652  1.00 31.65 LIG 0.04  A 
ATOM     14  CZ  TYR C   5      17.060  -3.313  14.534  1.00 33.19 LIG 0.07  A 
ATOM     15  CE2 TYR C   5      18.244  -3.516  13.849  1.00 31.83 LIG 0.04  A 
ATOM     16  CD2 TYR C   5      19.406  -2.896  14.299  1.00 30.09 LIG 0.01  A 
BRANCH 14 17
ATOM     17 OH   TYR C   5      15.893  -3.911  14.119  1.00 32.69 LIG-0.36  OA
ATOM     18 HH   TYR C   5      15.701  -3.645  13.346  1.00 32.69 LIG 0.22  HD
ENDBRANCH 14 17
ENDBRANCH 10 11
ENDBRANCH 6 10
ENDBRANCH 4 6
ENDBRANCH 1 2
BRANCH 1 19
ATOM     19  CB  ASN C   4      24.385   1.033  19.384  1.00 21.84 LIG 0.14  C 
BRANCH 19 20
ATOM     20  CG  ASN C   4      25.166   2.321  19.499  1.00 23.44 LIG 0.22  C 
ATOM     21 OD1  ASN C   4      25.033   3.191  18.651  1.00 24.15 LIG-0.27  OA
ATOM     22  ND2 ASN C   4      25.918   2.483  20.586  1.00 22.78 LIG-0.37  N 
ATOM     23 21HD ASN C   4      26.335   3.225  20.714  1.00 22.78 LIG 0.16  HD
ATOM     24 22HD ASN C   4      25.987   1.847  21.161  1.00 22.78 LIG 0.16  HD
ENDBRANCH 19 20
ENDBRANCH 1 19
BRANCH 1 25
ATOM     25  N   ASN C   4      22.405   2.129  20.252  1.00 22.84 LIG-0.35  N 
ATOM     26 H    ASN C   4      22.276   1.696  20.984  1.00 22.84 LIG 0.16  HD
ATOM     27  C   GLN C   3      22.175   3.434  20.122  1.00 20.90 LIG 0.24  C 
ATOM     28 O    GLN C   3      22.124   4.003  19.035  1.00 18.13 LIG-0.27  OA
BRANCH 27 29
ATOM     29  CA  GLN C   3      21.901   4.200  21.419  1.00 23.72 LIG 0.18  C 
BRANCH 29 30
ATOM     30  CB  GLN C   3      20.712   5.149  21.206  1.00 25.20 LIG 0.04  C 
BRANCH 30 31
ATOM     31  CG  GLN C   3      19.443   4.458  20.721  1.00 28.81 LIG 0.10  C 
BRANCH 31 32
ATOM     32  CD  GLN C   3      18.961   4.994  19.375  1.00 35.20 LIG 0.21  C 
ATOM     33  NE2 GLN C   3      19.479   4.420  18.283  1.00 25.96 LIG-0.37  N 
ATOM     34 21HE GLN C   3      20.048   3.780  18.363  1.00 25.96 LIG 0.16  HD
ATOM     35 22HE GLN C   3      19.244   4.691  17.501  1.00 25.96 LIG 0.16  HD
ATOM     36 OE1  GLN C   3      18.135   5.922  19.322  1.00 36.24 LIG-0.27  OA
ENDBRANCH 31 32
ENDBRANCH 30 31
ENDBRANCH 29 30
BRANCH 29 37
ATOM     37  N   GLN C   3      23.096   4.899  21.955  1.00 22.58 LIG-0.35  N 
ATOM     38 H    GLN C   3      23.233   5.684  21.632  1.00 22.58 LIG 0.16  HD
ATOM     39  C   SER C   2      23.868   4.309  22.868  1.00 24.53 LIG 0.26  C 
ATOM     40 O    SER C   2      23.604   3.200  23.340  1.00 22.38 LIG-0.27  OA
BRANCH 39 41
ATOM     41  CA  SER C   2      25.127   5.022  23.339  1.00 25.92 LIG 0.42  C 
ATOM     42  N   SER C   2      25.182   6.373  22.692  1.00 33.46 LIG 0.62  N 
BRANCH 41 43
ATOM     43  CB  SER C   2      25.176   5.083  24.867  1.00 31.59 LIG 0.21  C 
BRANCH 43 44
ATOM     44 OG   SER C   2      26.242   4.319  25.419  1.00 27.93 LIG-0.40  OA
ATOM     45 HG   SER C   2      25.992   3.969  26.140  1.00 27.93 LIG 0.21  HD
ENDBRANCH 43 44
ENDBRANCH 41 43
ENDBRANCH 39 41
ENDBRANCH 29 37
ENDBRANCH 27 29
ENDBRANCH 1 25
TORSDOF 17
ENDMDL
MODEL 6
USER: ADFR SOLUTION from run 181
USER: SCORE 16.310978 LL:  -2.424 LR: -14.337 RR:   0.000 FEB:  -9.266
USER: RMSD 7.161973
USER: SEED 180
USER: STATUS 1 or 2 clusters left
USER: GENES 19
USER: genes 0 Translation |==|  0.56633 0.41030 0.45289
USER: genes 1 Rotation |==|  0.04118 0.66309 0.61252 0.51505
USER: genes 2 Torsion [N]-CA--C-[N] |==|  0.31215
USER: genes 3 Torsion [C]-N--CA-[C] |==|  0.58788
USER: genes 4 Torsion [N]-CA--C-[OXT] |==|  0.21075
USER: genes 5 Torsion [N]-CA--CB-[CG] |==|  0.93394
USER: genes 6 Torsion [CA]-CB--CG-[CD1] |==|  0.75840
USER: genes 7 Torsion [CE1]-CZ--OH-[HH] |==|  0.19336
USER: genes 8 Torsion [C]-CA--CB-[CG] |==|  0.07142
USER: genes 9 Torsion [CA]-CB--CG-[ND2] |==|  0.19979
USER: genes 10 Torsion [C]-CA--N-[C] |==|  0.64696
USER: genes 11 Torsion [N]-C--CA-[N] |==|  0.30014
USER: genes 12 Torsion [C]-CA--CB-[CG] |==|  0.78463
USER: genes 13 Torsion [CA]-CB--CG-[CD] |==|  0.38789
USER: genes 14 Torsion [CB]-CG--CD-[NE2] |==|  0.33613
USER: genes 15 Torsion [C]-CA--N-[C] |==|  0.77200
USER: genes 16 Torsion [N]-C--CA-[N] |==|  0.37720
USER: genes 17 Torsion [C]-CA--CB-[OG] |==|  0.91497
USER: genes 18 Torsion [CA]-CB--OG-[HG] |==|  0.84442
ROOT
ATOM      1  CA  ASN C   4      22.295   1.712  19.239  1.00 23.87 LIG 0.18  C 
ENDROOT
BRANCH 1 2
ATOM      2  C   ASN C   4      22.550   3.013  20.003  1.00 24.50 LIG 0.24  C 
ATOM      3 O    ASN C   4      22.880   4.043  19.418  1.00 25.26 LIG-0.27  OA
ATOM      4  N   TYR C   5      22.386   2.939  21.320  1.00 25.46 LIG-0.34  N 
ATOM      5 H    TYR C   5      22.164   2.212  21.722  1.00 25.46 LIG 0.16  HD
BRANCH 4 6
ATOM      6  CA  TYR C   5      22.561   4.076  22.231  1.00 27.53 LIG 0.19  C 
BRANCH 6 7
ATOM      7  C   TYR C   5      23.069   3.585  23.577  1.00 27.73 LIG 0.20  C 
ATOM      8 OXT  TYR C   5      24.253   3.249  23.713  1.00 28.08 LIG-0.65  OA
ATOM      9 O    TYR C   5      22.290   3.567  24.535  1.00 30.08 LIG-0.65  OA
ENDBRANCH 6 7
BRANCH 6 10
ATOM     10  CB  TYR C   5      21.229   4.806  22.420  1.00 26.02 LIG 0.07  C 
BRANCH 10 11
ATOM     11  CG  TYR C   5      20.327   4.555  21.257  1.00 28.29 LIG-0.06  A 
ATOM     12  CD1 TYR C   5      20.401   5.365  20.133  1.00 28.93 LIG 0.01  A 
ATOM     13  CE1 TYR C   5      19.613   5.120  19.030  1.00 31.65 LIG 0.04  A 
ATOM     14  CZ  TYR C   5      18.754   4.037  19.024  1.00 33.19 LIG 0.07  A 
ATOM     15  CE2 TYR C   5      18.676   3.200  20.123  1.00 31.83 LIG 0.04  A 
ATOM     16  CD2 TYR C   5      19.470   3.461  21.235  1.00 30.09 LIG 0.01  A 
BRANCH 14 17
ATOM     17 OH   TYR C   5      17.983   3.810  17.908  1.00 32.69 LIG-0.36  OA
ATOM     18 HH   TYR C   5      18.474   3.561  17.274  1.00 32.69 LIG 0.22  HD
ENDBRANCH 14 17
ENDBRANCH 10 11
ENDBRANCH 6 10
ENDBRANCH 4 6
ENDBRANCH 1 2
BRANCH 1 19
ATOM     19  CB  ASN C   4      23.496   1.301  18.398  1.00 21.84 LIG 0.14  C 
BRANCH 19 20
ATOM     20  CG  ASN C   4      24.781   1.858  18.965  1.00 23.44 LIG 0.22  C 
ATOM     21 OD1  ASN C   4      25.317   2.817  18.428  1.00 24.15 LIG-0.27  OA
ATOM     22  ND2 ASN C   4      25.235   1.317  20.094  1.00 22.78 LIG-0.37  N 
ATOM     23 21HD ASN C   4      25.934   1.643  20.476  1.00 22.78 LIG 0.16  HD
ATOM     24 22HD ASN C   4      24.830   0.642  20.441  1.00 22.78 LIG 0.16  HD
ENDBRANCH 19 20
ENDBRANCH 1 19
BRANCH 1 25
ATOM     25  N   ASN C   4      21.115   1.752  18.373  1.00 22.84 LIG-0.35  N 
ATOM     26 H    ASN C   4      21.104   2.417  17.828  1.00 22.84 LIG 0.16  HD
ATOM     27  C   GLN C   3      20.150   0.836  18.433  1.00 20.90 LIG 0.24  C 
ATOM     28 O    GLN C   3      20.038   0.035  19.357  1.00 18.13 LIG-0.27  OA
BRANCH 27 29
ATOM     29  CA  GLN C   3      19.119   0.872  17.301  1.00 23.72 LIG 0.18  C 
BRANCH 29 30
ATOM     30  CB  GLN C   3      17.710   0.972  17.902  1.00 25.20 LIG 0.04  C 
BRANCH 30 31
ATOM     31  CG  GLN C   3      17.173  -0.342  18.454  1.00 28.81 LIG 0.10  C 
BRANCH 31 32
ATOM     32  CD  GLN C   3      16.417  -0.162  19.768  1.00 35.20 LIG 0.21  C 
ATOM     33  NE2 GLN C   3      15.139  -0.562  19.781  1.00 25.96 LIG-0.37  N 
ATOM     34 21HE GLN C   3      14.788  -0.904  19.075  1.00 25.96 LIG 0.16  HD
ATOM     35 22HE GLN C   3      14.668  -0.475  20.496  1.00 25.96 LIG 0.16  HD
ATOM     36 OE1  GLN C   3      16.977   0.340  20.758  1.00 36.24 LIG-0.27  OA
ENDBRANCH 31 32
ENDBRANCH 30 31
ENDBRANCH 29 30
BRANCH 29 37
ATOM     37  N   GLN C   3      19.252  -0.257  16.347  1.00 22.58 LIG-0.35  N 
ATOM     38 H    GLN C   3      18.716  -0.915  16.485  1.00 22.58 LIG 0.16  HD
ATOM     39  C   SER C   2      20.151  -0.206  15.364  1.00 24.53 LIG 0.26  C 
ATOM     40 O    SER C   2      20.866   0.781  15.172  1.00 22.38 LIG-0.27  OA
BRANCH 39 41
ATOM     41  CA  SER C   2      20.313  -1.413  14.451  1.00 25.92 LIG 0.42  C 
ATOM     42  N   SER C   2      20.401  -0.933  13.034  1.00 33.46 LIG 0.62  N 
BRANCH 41 43
ATOM     43  CB  SER C   2      21.515  -2.257  14.877  1.00 31.59 LIG 0.21  C 
BRANCH 43 44
ATOM     44 OG   SER C   2      22.553  -1.485  15.471  1.00 27.93 LIG-0.40  OA
ATOM     45 HG   SER C   2      22.789  -0.877  14.941  1.00 27.93 LIG 0.21  HD
ENDBRANCH 43 44
ENDBRANCH 41 43
ENDBRANCH 39 41
ENDBRANCH 29 37
ENDBRANCH 27 29
ENDBRANCH 1 25
TORSDOF 17
ENDMDL
MODEL 7
USER: ADFR SOLUTION from run 41
USER: SCORE 14.919056 LL:  -1.433 LR: -13.933 RR:   0.000 FEB:  -8.862
USER: RMSD 8.021740
USER: SEED 40
USER: STATUS no improvement in best in 5 clusters for 5 generations
USER: GENES 19
USER: genes 0 Translation |==|  0.53423 0.42455 0.45708
USER: genes 1 Rotation |==|  0.03480 0.64692 0.60727 0.52223
USER: genes 2 Torsion [N]-CA--C-[N] |==|  0.30001
USER: genes 3 Torsion [C]-N--CA-[C] |==|  0.19526
USER: genes 4 Torsion [N]-CA--C-[OXT] |==|  0.90983
USER: genes 5 Torsion [N]-CA--CB-[CG] |==|  0.66075
USER: genes 6 Torsion [CA]-CB--CG-[CD1] |==|  0.95967
USER: genes 7 Torsion [CE1]-CZ--OH-[HH] |==|  0.44189
USER: genes 8 Torsion [C]-CA--CB-[CG] |==|  0.09407
USER: genes 9 Torsion [CA]-CB--CG-[ND2] |==|  0.13803
USER: genes 10 Torsion [C]-CA--N-[C] |==|  0.60917
USER: genes 11 Torsion [N]-C--CA-[N] |==|  0.34269
USER: genes 12 Torsion [C]-CA--CB-[CG] |==|  0.82366
USER: genes 13 Torsion [CA]-CB--CG-[CD] |==|  0.39183
USER: genes 14 Torsion [CB]-CG--CD-[NE2] |==|  0.33299
USER: genes 15 Torsion [C]-CA--N-[C] |==|  0.83172
USER: genes 16 Torsion [N]-C--CA-[N] |==|  0.31619
USER: genes 17 Torsion [C]-CA--CB-[OG] |==|  0.89766
USER: genes 18 Torsion [CA]-CB--OG-[HG] |==|  0.84726
ROOT
ATOM      1  CA  ASN C   4      21.742   1.947  19.321  1.00 23.87 LIG 0.18  C 
ENDROOT
BRANCH 1 2
ATOM      2  C   ASN C   4      21.889   3.234  20.135  1.00 24.50 LIG 0.24  C 
ATOM      3 O    ASN C   4      22.253   4.284  19.610  1.00 25.26 LIG-0.27  OA
ATOM      4  N   TYR C   5      21.595   3.125  21.427  1.00 25.46 LIG-0.34  N 
ATOM      5 H    TYR C   5      21.350   2.384  21.788  1.00 25.46 LIG 0.16  HD
BRANCH 4 6
ATOM      6  CA  TYR C   5      21.653   4.243  22.376  1.00 27.53 LIG 0.19  C 
BRANCH 6 7
ATOM      7  C   TYR C   5      20.528   5.224  22.087  1.00 27.73 LIG 0.20  C 
ATOM      8 OXT  TYR C   5      20.131   5.394  20.925  1.00 28.08 LIG-0.65  OA
ATOM      9 O    TYR C   5      19.996   5.813  23.032  1.00 30.08 LIG-0.65  OA
ENDBRANCH 6 7
BRANCH 6 10
ATOM     10  CB  TYR C   5      23.001   4.959  22.260  1.00 26.02 LIG 0.07  C 
BRANCH 10 11
ATOM     11  CG  TYR C   5      23.707   4.957  23.576  1.00 28.29 LIG-0.06  A 
ATOM     12  CD1 TYR C   5      23.015   4.636  24.735  1.00 28.93 LIG 0.01  A 
ATOM     13  CE1 TYR C   5      23.658   4.581  25.952  1.00 31.65 LIG 0.04  A 
ATOM     14  CZ  TYR C   5      25.018   4.819  26.024  1.00 33.19 LIG 0.07  A 
ATOM     15  CE2 TYR C   5      25.736   5.119  24.881  1.00 31.83 LIG 0.04  A 
ATOM     16  CD2 TYR C   5      25.076   5.182  23.658  1.00 30.09 LIG 0.01  A 
BRANCH 14 17
ATOM     17 OH   TYR C   5      25.637   4.751  27.250  1.00 32.69 LIG-0.36  OA
ATOM     18 HH   TYR C   5      26.461   4.627  27.141  1.00 32.69 LIG 0.22  HD
ENDBRANCH 14 17
ENDBRANCH 10 11
ENDBRANCH 6 10
ENDBRANCH 4 6
ENDBRANCH 1 2
BRANCH 1 19
ATOM     19  CB  ASN C   4      22.995   1.638  18.513  1.00 21.84 LIG 0.14  C 
BRANCH 19 20
ATOM     20  CG  ASN C   4      24.242   2.078  19.242  1.00 23.44 LIG 0.22  C 
ATOM     21 OD1  ASN C   4      25.044   2.815  18.686  1.00 24.15 LIG-0.27  OA
ATOM     22  ND2 ASN C   4      24.372   1.699  20.512  1.00 22.78 LIG-0.37  N 
ATOM     23 21HD ASN C   4      25.042   1.975  20.977  1.00 22.78 LIG 0.16  HD
ATOM     24 22HD ASN C   4      23.786   1.179  20.868  1.00 22.78 LIG 0.16  HD
ENDBRANCH 19 20
ENDBRANCH 1 19
BRANCH 1 25
ATOM     25  N   ASN C   4      20.592   1.946  18.413  1.00 22.84 LIG-0.35  N 
ATOM     26 H    ASN C   4      20.454   2.700  18.024  1.00 22.84 LIG 0.16  HD
ATOM     27  C   GLN C   3      19.836   0.868  18.216  1.00 20.90 LIG 0.24  C 
ATOM     28 O    GLN C   3      19.875  -0.125  18.937  1.00 18.13 LIG-0.27  OA
BRANCH 27 29
ATOM     29  CA  GLN C   3      18.838   0.952  17.057  1.00 23.72 LIG 0.18  C 
BRANCH 29 30
ATOM     30  CB  GLN C   3      17.411   1.020  17.621  1.00 25.20 LIG 0.04  C 
BRANCH 30 31
ATOM     31  CG  GLN C   3      16.988  -0.221  18.398  1.00 28.81 LIG 0.10  C 
BRANCH 31 32
ATOM     32  CD  GLN C   3      16.157   0.115  19.634  1.00 35.20 LIG 0.21  C 
ATOM     33  NE2 GLN C   3      14.920  -0.394  19.678  1.00 25.96 LIG-0.37  N 
ATOM     34 21HE GLN C   3      14.635  -0.887  19.034  1.00 25.96 LIG 0.16  HD
ATOM     35 22HE GLN C   3      14.410  -0.228  20.351  1.00 25.96 LIG 0.16  HD
ATOM     36 OE1  GLN C   3      16.624   0.834  20.535  1.00 36.24 LIG-0.27  OA
ENDBRANCH 31 32
ENDBRANCH 30 31
ENDBRANCH 29 30
BRANCH 29 37
ATOM     37  N   GLN C   3      19.003  -0.132  16.057  1.00 22.58 LIG-0.35  N 
ATOM     38 H    GLN C   3      18.317  -0.641  15.955  1.00 22.58 LIG 0.16  HD
ATOM     39  C   SER C   2      20.150  -0.265  15.391  1.00 24.53 LIG 0.26  C 
ATOM     40 O    SER C   2      21.092   0.520  15.532  1.00 22.38 LIG-0.27  OA
BRANCH 39 41
ATOM     41  CA  SER C   2      20.312  -1.433  14.430  1.00 25.92 LIG 0.42  C 
ATOM     42  N   SER C   2      20.417  -0.895  13.035  1.00 33.46 LIG 0.62  N 
BRANCH 41 43
ATOM     43  CB  SER C   2      21.505  -2.304  14.831  1.00 31.59 LIG 0.21  C 
BRANCH 43 44
ATOM     44 OG   SER C   2      22.599  -1.547  15.336  1.00 27.93 LIG-0.40  OA
ATOM     45 HG   SER C   2      22.819  -0.961  14.775  1.00 27.93 LIG 0.21  HD
ENDBRANCH 43 44
ENDBRANCH 41 43
ENDBRANCH 39 41
ENDBRANCH 29 37
ENDBRANCH 27 29
ENDBRANCH 1 25
TORSDOF 17
ENDMDL
MODEL 8
USER: ADFR SOLUTION from run 200
USER: SCORE 15.635213 LL:  -2.138 LR: -13.843 RR:   0.000 FEB:  -8.772
USER: RMSD 6.913808
USER: SEED 199
USER: STATUS no improvement in best in 4 clusters for 5 generations
USER: GENES 19
USER: genes 0 Translation |==|  0.55363 0.52703 0.58629
USER: genes 1 Rotation |==|  0.97567 0.59592 0.57682 0.59295
USER: genes 2 Torsion [N]-CA--C-[N] |==|  0.13220
USER: genes 3 Torsion [C]-N--CA-[C] |==|  0.53149
USER: genes 4 Torsion [N]-CA--C-[OXT] |==|  0.98354
USER: genes 5 Torsion [N]-CA--CB-[CG] |==|  0.58400
USER: genes 6 Torsion [CA]-CB--CG-[CD1] |==|  0.55722
USER: genes 7 Torsion [CE1]-CZ--OH-[HH] |==|  0.19196
USER: genes 8 Torsion [C]-CA--CB-[CG] |==|  0.37771
USER: genes 9 Torsion [CA]-CB--CG-[ND2] |==|  0.45663
USER: genes 10 Torsion [C]-CA--N-[C] |==|  0.14080
USER: genes 11 Torsion [N]-C--CA-[N] |==|  0.40323
USER: genes 12 Torsion [C]-CA--CB-[CG] |==|  0.11665
USER: genes 13 Torsion [CA]-CB--CG-[CD] |==|  0.75294
USER: genes 14 Torsion [CB]-CG--CD-[NE2] |==|  0.49119
USER: genes 15 Torsion [C]-CA--N-[C] |==|  0.56111
USER: genes 16 Torsion [N]-C--CA-[N] |==|  0.28935
USER: genes 17 Torsion [C]-CA--CB-[OG] |==|  0.33591
USER: genes 18 Torsion [CA]-CB--OG-[HG] |==|  0.17664
ROOT
ATOM      1  CA  ASN C   4      22.076   3.638  21.841  1.00 23.87 LIG 0.18  C 
ENDROOT
BRANCH 1 2
ATOM      2  C   ASN C   4      20.739   4.355  21.642  1.00 24.50 LIG 0.24  C 
ATOM      3 O    ASN C   4      20.669   5.582  21.617  1.00 25.26 LIG-0.27  OA
ATOM      4  N   TYR C   5      19.684   3.558  21.500  1.00 25.46 LIG-0.34  N 
ATOM      5 H    TYR C   5      19.741   2.700  21.528  1.00 25.46 LIG 0.16  HD
BRANCH 4 6
ATOM      6  CA  TYR C   5      18.317   4.043  21.280  1.00 27.53 LIG 0.19  C 
BRANCH 6 7
ATOM      7  C   TYR C   5      17.331   2.897  21.441  1.00 27.73 LIG 0.20  C 
ATOM      8 OXT  TYR C   5      17.741   1.740  21.609  1.00 28.08 LIG-0.65  OA
ATOM      9 O    TYR C   5      16.122   3.149  21.441  1.00 30.08 LIG-0.65  OA
ENDBRANCH 6 7
BRANCH 6 10
ATOM     10  CB  TYR C   5      18.191   4.635  19.874  1.00 26.02 LIG 0.07  C 
BRANCH 10 11
ATOM     11  CG  TYR C   5      17.169   5.724  19.856  1.00 28.29 LIG-0.06  A 
ATOM     12  CD1 TYR C   5      16.581   6.106  18.658  1.00 28.93 LIG 0.01  A 
ATOM     13  CE1 TYR C   5      15.601   7.074  18.627  1.00 31.65 LIG 0.04  A 
ATOM     14  CZ  TYR C   5      15.173   7.658  19.805  1.00 33.19 LIG 0.07  A 
ATOM     15  CE2 TYR C   5      15.726   7.280  21.014  1.00 31.83 LIG 0.04  A 
ATOM     16  CD2 TYR C   5      16.721   6.308  21.035  1.00 30.09 LIG 0.01  A 
BRANCH 14 17
ATOM     17 OH   TYR C   5      14.188   8.617  19.746  1.00 32.69 LIG-0.36  OA
ATOM     18 HH   TYR C   5      13.461   8.260  19.526  1.00 32.69 LIG 0.22  HD
ENDBRANCH 14 17
ENDBRANCH 10 11
ENDBRANCH 6 10
ENDBRANCH 4 6
ENDBRANCH 1 2
BRANCH 1 19
ATOM     19  CB  ASN C   4      23.253   4.602  21.778  1.00 21.84 LIG 0.14  C 
BRANCH 19 20
ATOM     20  CG  ASN C   4      24.250   4.325  22.879  1.00 23.44 LIG 0.22  C 
ATOM     21 OD1  ASN C   4      23.954   3.568  23.791  1.00 24.15 LIG-0.27  OA
ATOM     22  ND2 ASN C   4      25.460   4.868  22.757  1.00 22.78 LIG-0.37  N 
ATOM     23 21HD ASN C   4      26.072   4.690  23.335  1.00 22.78 LIG 0.16  HD
ATOM     24 22HD ASN C   4      25.630   5.397  22.100  1.00 22.78 LIG 0.16  HD
ENDBRANCH 19 20
ENDBRANCH 1 19
BRANCH 1 25
ATOM     25  N   ASN C   4      22.316   2.552  20.888  1.00 22.84 LIG-0.35  N 
ATOM     26 H    ASN C   4      22.547   1.809  21.256  1.00 22.84 LIG 0.16  HD
ATOM     27  C   GLN C   3      22.186   2.710  19.573  1.00 20.90 LIG 0.24  C 
ATOM     28 O    GLN C   3      22.097   3.808  19.031  1.00 18.13 LIG-0.27  OA
BRANCH 27 29
ATOM     29  CA  GLN C   3      22.223   1.428  18.736  1.00 23.72 LIG 0.18  C 
BRANCH 29 30
ATOM     30  CB  GLN C   3      23.678   1.105  18.365  1.00 25.20 LIG 0.04  C 
BRANCH 30 31
ATOM     31  CG  GLN C   3      24.671   1.310  19.502  1.00 28.81 LIG 0.10  C 
BRANCH 31 32
ATOM     32  CD  GLN C   3      25.226   2.732  19.548  1.00 35.20 LIG 0.21  C 
ATOM     33  NE2 GLN C   3      26.057   3.016  20.559  1.00 25.96 LIG-0.37  N 
ATOM     34 21HE GLN C   3      26.256   2.410  21.135  1.00 25.96 LIG 0.16  HD
ATOM     35 22HE GLN C   3      26.391   3.806  20.632  1.00 25.96 LIG 0.16  HD
ATOM     36 OE1  GLN C   3      24.901   3.567  18.686  1.00 36.24 LIG-0.27  OA
ENDBRANCH 31 32
ENDBRANCH 30 31
ENDBRANCH 29 30
BRANCH 29 37
ATOM     37  N   GLN C   3      21.331   1.471  17.550  1.00 22.58 LIG-0.35  N 
ATOM     38 H    GLN C   3      21.124   2.261  17.280  1.00 22.58 LIG 0.16  HD
ATOM     39  C   SER C   2      20.910   0.341  16.982  1.00 24.53 LIG 0.26  C 
ATOM     40 O    SER C   2      21.274  -0.771  17.373  1.00 22.38 LIG-0.27  OA
BRANCH 39 41
ATOM     41  CA  SER C   2      19.935   0.422  15.817  1.00 25.92 LIG 0.42  C 
ATOM     42  N   SER C   2      20.683   0.150  14.546  1.00 33.46 LIG 0.62  N 
BRANCH 41 43
ATOM     43  CB  SER C   2      18.752  -0.524  16.033  1.00 31.59 LIG 0.21  C 
BRANCH 43 44
ATOM     44 OG   SER C   2      17.499   0.149  16.050  1.00 27.93 LIG-0.40  OA
ATOM     45 HG   SER C   2      17.358   0.500  15.299  1.00 27.93 LIG 0.21  HD
ENDBRANCH 43 44
ENDBRANCH 41 43
ENDBRANCH 39 41
ENDBRANCH 29 37
ENDBRANCH 27 29
ENDBRANCH 1 25
TORSDOF 17
ENDMDL
MODEL 9
USER: ADFR SOLUTION from run 157
USER: SCORE 14.902017 LL:  -2.939 LR: -13.684 RR:   0.000 FEB:  -8.613
USER: RMSD 7.104643
USER: SEED 156
USER: STATUS no improvement in best in 4 clusters for 5 generations
USER: GENES 19
USER: genes 0 Translation |==|  0.54722 0.55212 0.59994
USER: genes 1 Rotation |==|  0.97370 0.56913 0.58009 0.62004
USER: genes 2 Torsion [N]-CA--C-[N] |==|  0.33712
USER: genes 3 Torsion [C]-N--CA-[C] |==|  0.60756
USER: genes 4 Torsion [N]-CA--C-[OXT] |==|  0.18438
USER: genes 5 Torsion [N]-CA--CB-[CG] |==|  0.81681
USER: genes 6 Torsion [CA]-CB--CG-[CD1] |==|  0.81061
USER: genes 7 Torsion [CE1]-CZ--OH-[HH] |==|  0.17106
USER: genes 8 Torsion [C]-CA--CB-[CG] |==|  0.40403
USER: genes 9 Torsion [CA]-CB--CG-[ND2] |==|  0.47454
USER: genes 10 Torsion [C]-CA--N-[C] |==|  0.15016
USER: genes 11 Torsion [N]-C--CA-[N] |==|  0.39104
USER: genes 12 Torsion [C]-CA--CB-[CG] |==|  0.09118
USER: genes 13 Torsion [CA]-CB--CG-[CD] |==|  0.74131
USER: genes 14 Torsion [CB]-CG--CD-[NE2] |==|  0.44302
USER: genes 15 Torsion [C]-CA--N-[C] |==|  0.52839
USER: genes 16 Torsion [N]-C--CA-[N] |==|  0.27321
USER: genes 17 Torsion [C]-CA--CB-[OG] |==|  0.21253
USER: genes 18 Torsion [CA]-CB--OG-[HG] |==|  0.94457
ROOT
ATOM      1  CA  ASN C   4      21.966   4.052  22.107  1.00 23.87 LIG 0.18  C 
ENDROOT
BRANCH 1 2
ATOM      2  C   ASN C   4      20.733   4.893  21.771  1.00 24.50 LIG 0.24  C 
ATOM      3 O    ASN C   4      20.571   5.371  20.650  1.00 25.26 LIG-0.27  OA
ATOM      4  N   TYR C   5      19.870   5.059  22.769  1.00 25.46 LIG-0.34  N 
ATOM      5 H    TYR C   5      19.996   4.729  23.554  1.00 25.46 LIG 0.16  HD
BRANCH 4 6
ATOM      6  CA  TYR C   5      18.617   5.814  22.651  1.00 27.53 LIG 0.19  C 
BRANCH 6 7
ATOM      7  C   TYR C   5      18.371   6.607  23.924  1.00 27.73 LIG 0.20  C 
ATOM      8 OXT  TYR C   5      19.128   7.538  24.236  1.00 28.08 LIG-0.65  OA
ATOM      9 O    TYR C   5      17.385   6.333  24.614  1.00 30.08 LIG-0.65  OA
ENDBRANCH 6 7
BRANCH 6 10
ATOM     10  CB  TYR C   5      17.448   4.855  22.410  1.00 26.02 LIG 0.07  C 
BRANCH 10 11
ATOM     11  CG  TYR C   5      17.589   4.185  21.083  1.00 28.29 LIG-0.06  A 
ATOM     12  CD1 TYR C   5      17.455   4.922  19.915  1.00 28.93 LIG 0.01  A 
ATOM     13  CE1 TYR C   5      17.630   4.334  18.682  1.00 31.65 LIG 0.04  A 
ATOM     14  CZ  TYR C   5      17.971   2.996  18.599  1.00 33.19 LIG 0.07  A 
ATOM     15  CE2 TYR C   5      18.132   2.244  19.748  1.00 31.83 LIG 0.04  A 
ATOM     16  CD2 TYR C   5      17.945   2.845  20.989  1.00 30.09 LIG 0.01  A 
BRANCH 14 17
ATOM     17 OH   TYR C   5      18.146   2.435  17.356  1.00 32.69 LIG-0.36  OA
ATOM     18 HH   TYR C   5      18.776   2.823  16.959  1.00 32.69 LIG 0.22  HD
ENDBRANCH 14 17
ENDBRANCH 10 11
ENDBRANCH 6 10
ENDBRANCH 4 6
ENDBRANCH 1 2
BRANCH 1 19
ATOM     19  CB  ASN C   4      23.249   4.869  22.035  1.00 21.84 LIG 0.14  C 
BRANCH 19 20
ATOM     20  CG  ASN C   4      24.247   4.419  23.075  1.00 23.44 LIG 0.22  C 
ATOM     21 OD1  ASN C   4      23.930   3.567  23.894  1.00 24.15 LIG-0.27  OA
ATOM     22  ND2 ASN C   4      25.477   4.922  22.999  1.00 22.78 LIG-0.37  N 
ATOM     23 21HD ASN C   4      26.088   4.649  23.540  1.00 22.78 LIG 0.16  HD
ATOM     24 22HD ASN C   4      25.662   5.520  22.409  1.00 22.78 LIG 0.16  HD
ENDBRANCH 19 20
ENDBRANCH 1 19
BRANCH 1 25
ATOM     25  N   ASN C   4      22.124   2.866  21.263  1.00 22.84 LIG-0.35  N 
ATOM     26 H    ASN C   4      22.202   2.131  21.703  1.00 22.84 LIG 0.16  HD
ATOM     27  C   GLN C   3      22.144   2.929  19.933  1.00 20.90 LIG 0.24  C 
ATOM     28 O    GLN C   3      22.276   3.979  19.310  1.00 18.13 LIG-0.27  OA
BRANCH 27 29
ATOM     29  CA  GLN C   3      22.062   1.589  19.196  1.00 23.72 LIG 0.18  C 
BRANCH 29 30
ATOM     30  CB  GLN C   3      23.482   1.081  18.906  1.00 25.20 LIG 0.04  C 
BRANCH 30 31
ATOM     31  CG  GLN C   3      24.507   1.459  19.968  1.00 28.81 LIG 0.10  C 
BRANCH 31 32
ATOM     32  CD  GLN C   3      25.240   2.757  19.641  1.00 35.20 LIG 0.21  C 
ATOM     33  NE2 GLN C   3      25.827   3.387  20.666  1.00 25.96 LIG-0.37  N 
ATOM     34 21HE GLN C   3      25.783   3.052  21.457  1.00 25.96 LIG 0.16  HD
ATOM     35 22HE GLN C   3      26.247   4.126  20.534  1.00 25.96 LIG 0.16  HD
ATOM     36 OE1  GLN C   3      25.269   3.192  18.476  1.00 36.24 LIG-0.27  OA
ENDBRANCH 31 32
ENDBRANCH 30 31
ENDBRANCH 29 30
BRANCH 29 37
ATOM     37  N   GLN C   3      21.216   1.638  17.977  1.00 22.58 LIG-0.35  N 
ATOM     38 H    GLN C   3      20.976   2.426  17.732  1.00 22.58 LIG 0.16  HD
ATOM     39  C   SER C   2      20.882   0.513  17.343  1.00 24.53 LIG 0.26  C 
ATOM     40 O    SER C   2      21.292  -0.594  17.701  1.00 22.38 LIG-0.27  OA
BRANCH 39 41
ATOM     41  CA  SER C   2      19.951   0.594  16.143  1.00 25.92 LIG 0.42  C 
ATOM     42  N   SER C   2      20.778   0.563  14.893  1.00 33.46 LIG 0.62  N 
BRANCH 41 43
ATOM     43  CB  SER C   2      18.900  -0.517  16.197  1.00 31.59 LIG 0.21  C 
BRANCH 43 44
ATOM     44 OG   SER C   2      17.861  -0.253  17.133  1.00 27.93 LIG-0.40  OA
ATOM     45 HG   SER C   2      18.123   0.319  17.689  1.00 27.93 LIG 0.21  HD
ENDBRANCH 43 44
ENDBRANCH 41 43
ENDBRANCH 39 41
ENDBRANCH 29 37
ENDBRANCH 27 29
ENDBRANCH 1 25
TORSDOF 17
ENDMDL
MODEL 10
USER: ADFR SOLUTION from run 62
USER: SCORE 15.088828 LL:  -2.042 LR: -13.649 RR:   0.000 FEB:  -8.577
USER: RMSD 2.295401
USER: SEED 61
USER: STATUS no improvement in best in 11 clusters for 5 generations
USER: GENES 19
USER: genes 0 Translation |==|  0.62175 0.40805 0.44041
USER: genes 1 Rotation |==|  0.48973 0.46178 0.48025 0.99804
USER: genes 2 Torsion [N]-CA--C-[N] |==|  0.86519
USER: genes 3 Torsion [C]-N--CA-[C] |==|  0.18530
USER: genes 4 Torsion [N]-CA--C-[OXT] |==|  0.96266
USER: genes 5 Torsion [N]-CA--CB-[CG] |==|  0.80264
USER: genes 6 Torsion [CA]-CB--CG-[CD1] |==|  0.65328
USER: genes 7 Torsion [CE1]-CZ--OH-[HH] |==|  0.65988
USER: genes 8 Torsion [C]-CA--CB-[CG] |==|  0.44970
USER: genes 9 Torsion [CA]-CB--CG-[ND2] |==|  0.30619
USER: genes 10 Torsion [C]-CA--N-[C] |==|  0.69332
USER: genes 11 Torsion [N]-C--CA-[N] |==|  0.25879
USER: genes 12 Torsion [C]-CA--CB-[CG] |==|  0.16733
USER: genes 13 Torsion [CA]-CB--CG-[CD] |==|  0.66870
USER: genes 14 Torsion [CB]-CG--CD-[NE2] |==|  0.25103
USER: genes 15 Torsion [C]-CA--N-[C] |==|  0.74954
USER: genes 16 Torsion [N]-C--CA-[N] |==|  0.97406
USER: genes 17 Torsion [C]-CA--CB-[OG] |==|  0.18887
USER: genes 18 Torsion [CA]-CB--OG-[HG] |==|  0.31301
ROOT
ATOM      1  CA  ASN C   4      23.251   1.675  18.996  1.00 23.87 LIG 0.18  C 
ENDROOT
BRANCH 1 2
ATOM      2  C   ASN C   4      22.336   0.616  18.378  1.00 24.50 LIG 0.24  C 
ATOM      3 O    ASN C   4      22.149   0.563  17.164  1.00 25.26 LIG-0.27  OA
ATOM      4  N   TYR C   5      21.775  -0.223  19.243  1.00 25.46 LIG-0.34  N 
ATOM      5 H    TYR C   5      21.903  -0.173  20.092  1.00 25.46 LIG 0.16  HD
BRANCH 4 6
ATOM      6  CA  TYR C   5      20.881  -1.321  18.855  1.00 27.53 LIG 0.19  C 
BRANCH 6 7
ATOM      7  C   TYR C   5      21.657  -2.364  18.067  1.00 27.73 LIG 0.20  C 
ATOM      8 OXT  TYR C   5      22.786  -2.103  17.629  1.00 28.08 LIG-0.65  OA
ATOM      9 O    TYR C   5      21.157  -3.482  17.909  1.00 30.08 LIG-0.65  OA
ENDBRANCH 6 7
BRANCH 6 10
ATOM     10  CB  TYR C   5      19.731  -0.782  18.001  1.00 26.02 LIG 0.07  C 
BRANCH 10 11
ATOM     11  CG  TYR C   5      18.790   0.020  18.838  1.00 28.29 LIG-0.06  A 
ATOM     12  CD1 TYR C   5      17.440  -0.300  18.868  1.00 28.93 LIG 0.01  A 
ATOM     13  CE1 TYR C   5      16.564   0.396  19.672  1.00 31.65 LIG 0.04  A 
ATOM     14  CZ  TYR C   5      17.034   1.411  20.485  1.00 33.19 LIG 0.07  A 
ATOM     15  CE2 TYR C   5      18.378   1.736  20.491  1.00 31.83 LIG 0.04  A 
ATOM     16  CD2 TYR C   5      19.254   1.033  19.670  1.00 30.09 LIG 0.01  A 
BRANCH 14 17
ATOM     17 OH   TYR C   5      16.140   2.086  21.283  1.00 32.69 LIG-0.36  OA
ATOM     18 HH   TYR C   5      16.169   2.906  21.105  1.00 32.69 LIG 0.22  HD
ENDBRANCH 14 17
ENDBRANCH 10 11
ENDBRANCH 6 10
ENDBRANCH 4 6
ENDBRANCH 1 2
BRANCH 1 19
ATOM     19  CB  ASN C   4      24.588   1.088  19.429  1.00 21.84 LIG 0.14  C 
BRANCH 19 20
ATOM     20  CG  ASN C   4      25.627   2.168  19.620  1.00 23.44 LIG 0.22  C 
ATOM     21 OD1  ASN C   4      26.013   2.817  18.658  1.00 24.15 LIG-0.27  OA
ATOM     22  ND2 ASN C   4      26.022   2.422  20.866  1.00 22.78 LIG-0.37  N 
ATOM     23 21HD ASN C   4      26.571   3.066  21.020  1.00 22.78 LIG 0.16  HD
ATOM     24 22HD ASN C   4      25.727   1.943  21.517  1.00 22.78 LIG 0.16  HD
ENDBRANCH 19 20
ENDBRANCH 1 19
BRANCH 1 25
ATOM     25  N   ASN C   4      22.662   2.378  20.138  1.00 22.84 LIG-0.35  N 
ATOM     26 H    ASN C   4      22.571   1.889  20.840  1.00 22.84 LIG 0.16  HD
ATOM     27  C   GLN C   3      22.302   3.658  20.083  1.00 20.90 LIG 0.24  C 
ATOM     28 O    GLN C   3      22.202   4.286  19.033  1.00 18.13 LIG-0.27  OA
BRANCH 27 29
ATOM     29  CA  GLN C   3      21.941   4.311  21.421  1.00 23.72 LIG 0.18  C 
BRANCH 29 30
ATOM     30  CB  GLN C   3      20.732   5.238  21.223  1.00 25.20 LIG 0.04  C 
BRANCH 30 31
ATOM     31  CG  GLN C   3      19.480   4.530  20.720  1.00 28.81 LIG 0.10  C 
BRANCH 31 32
ATOM     32  CD  GLN C   3      19.006   5.063  19.371  1.00 35.20 LIG 0.21  C 
ATOM     33  NE2 GLN C   3      19.496   4.457  18.283  1.00 25.96 LIG-0.37  N 
ATOM     34 21HE GLN C   3      20.044   3.800  18.368  1.00 25.96 LIG 0.16  HD
ATOM     35 22HE GLN C   3      19.265   4.725  17.499  1.00 25.96 LIG 0.16  HD
ATOM     36 OE1  GLN C   3      18.211   6.019  19.310  1.00 36.24 LIG-0.27  OA
ENDBRANCH 31 32
ENDBRANCH 30 31
ENDBRANCH 29 30
BRANCH 29 37
ATOM     37  N   GLN C   3      23.085   5.000  22.069  1.00 22.58 LIG-0.35  N 
ATOM     38 H    GLN C   3      23.180   5.827  21.854  1.00 22.58 LIG 0.16  HD
ATOM     39  C   SER C   2      23.876   4.340  22.915  1.00 24.53 LIG 0.26  C 
ATOM     40 O    SER C   2      23.671   3.166  23.233  1.00 22.38 LIG-0.27  OA
BRANCH 39 41
ATOM     41  CA  SER C   2      25.085   5.055  23.501  1.00 25.92 LIG 0.42  C 
ATOM     42  N   SER C   2      25.258   6.364  22.791  1.00 33.46 LIG 0.62  N 
BRANCH 41 43
ATOM     43  CB  SER C   2      24.942   5.207  25.017  1.00 31.59 LIG 0.21  C 
BRANCH 43 44
ATOM     44 OG   SER C   2      25.010   3.964  25.708  1.00 27.93 LIG-0.40  OA
ATOM     45 HG   SER C   2      25.711   3.939  26.171  1.00 27.93 LIG 0.21  HD
ENDBRANCH 43 44
ENDBRANCH 41 43
ENDBRANCH 39 41
ENDBRANCH 29 37
ENDBRANCH 27 29
ENDBRANCH 1 25
TORSDOF 17
ENDMDL
MODEL 11
USER: ADFR SOLUTION from run 16
USER: SCORE 14.503863 LL:  -1.679 LR: -13.621 RR:   0.000 FEB:  -8.550
USER: RMSD 7.881815
USER: SEED 398877
USER: STATUS no improvement in best in 11 clusters for 5 generations
USER: GENES 19
USER: genes 0 Translation |==|  0.61169 0.37335 0.46996
USER: genes 1 Rotation |==|  0.98558 0.42943 0.45111 0.58270
USER: genes 2 Torsion [N]-CA--C-[N] |==|  0.35055
USER: genes 3 Torsion [C]-N--CA-[C] |==|  0.55312
USER: genes 4 Torsion [N]-CA--C-[OXT] |==|  0.50114
USER: genes 5 Torsion [N]-CA--CB-[CG] |==|  0.16947
USER: genes 6 Torsion [CA]-CB--CG-[CD1] |==|  0.69490
USER: genes 7 Torsion [CE1]-CZ--OH-[HH] |==|  0.15032
USER: genes 8 Torsion [C]-CA--CB-[CG] |==|  0.04464
USER: genes 9 Torsion [CA]-CB--CG-[ND2] |==|  0.22627
USER: genes 10 Torsion [C]-CA--N-[C] |==|  0.82223
USER: genes 11 Torsion [N]-C--CA-[N] |==|  0.88534
USER: genes 12 Torsion [C]-CA--CB-[CG] |==|  0.54244
USER: genes 13 Torsion [CA]-CB--CG-[CD] |==|  0.26810
USER: genes 14 Torsion [CB]-CG--CD-[NE2] |==|  0.54685
USER: genes 15 Torsion [C]-CA--N-[C] |==|  0.59040
USER: genes 16 Torsion [N]-C--CA-[N] |==|  0.86001
USER: genes 17 Torsion [C]-CA--CB-[OG] |==|  0.86204
USER: genes 18 Torsion [CA]-CB--OG-[HG] |==|  0.77700
ROOT
ATOM      1  CA  ASN C   4      23.078   1.102  19.572  1.00 23.87 LIG 0.18  C 
ENDROOT
BRANCH 1 2
ATOM      2  C   ASN C   4      22.606   2.540  19.801  1.00 24.50 LIG 0.24  C 
ATOM      3 O    ASN C   4      22.365   3.291  18.857  1.00 25.26 LIG-0.27  OA
ATOM      4  N   TYR C   5      22.479   2.900  21.074  1.00 25.46 LIG-0.34  N 
ATOM      5 H    TYR C   5      22.659   2.371  21.728  1.00 25.46 LIG 0.16  HD
BRANCH 4 6
ATOM      6  CA  TYR C   5      22.023   4.225  21.508  1.00 27.53 LIG 0.19  C 
BRANCH 6 7
ATOM      7  C   TYR C   5      22.432   4.464  22.952  1.00 27.73 LIG 0.20  C 
ATOM      8 OXT  TYR C   5      22.136   5.526  23.517  1.00 28.08 LIG-0.65  OA
ATOM      9 O    TYR C   5      23.026   3.567  23.558  1.00 30.08 LIG-0.65  OA
ENDBRANCH 6 7
BRANCH 6 10
ATOM     10  CB  TYR C   5      20.500   4.321  21.384  1.00 26.02 LIG 0.07  C 
BRANCH 10 11
ATOM     11  CG  TYR C   5      19.841   3.301  22.253  1.00 28.29 LIG-0.06  A 
ATOM     12  CD1 TYR C   5      19.191   2.216  21.681  1.00 28.93 LIG 0.01  A 
ATOM     13  CE1 TYR C   5      18.620   1.238  22.466  1.00 31.65 LIG 0.04  A 
ATOM     14  CZ  TYR C   5      18.715   1.318  23.843  1.00 33.19 LIG 0.07  A 
ATOM     15  CE2 TYR C   5      19.376   2.376  24.438  1.00 31.83 LIG 0.04  A 
ATOM     16  CD2 TYR C   5      19.942   3.364  23.637  1.00 30.09 LIG 0.01  A 
BRANCH 14 17
ATOM     17 OH   TYR C   5      18.142   0.325  24.603  1.00 32.69 LIG-0.36  OA
ATOM     18 HH   TYR C   5      18.431  -0.422  24.353  1.00 32.69 LIG 0.22  HD
ENDBRANCH 14 17
ENDBRANCH 10 11
ENDBRANCH 6 10
ENDBRANCH 4 6
ENDBRANCH 1 2
BRANCH 1 19
ATOM     19  CB  ASN C   4      24.493   1.050  19.012  1.00 21.84 LIG 0.14  C 
BRANCH 19 20
ATOM     20  CG  ASN C   4      25.204   2.371  19.190  1.00 23.44 LIG 0.22  C 
ATOM     21 OD1  ASN C   4      25.197   3.191  18.283  1.00 24.15 LIG-0.27  OA
ATOM     22  ND2 ASN C   4      25.747   2.617  20.380  1.00 22.78 LIG-0.37  N 
ATOM     23 21HD ASN C   4      26.113   3.379  20.537  1.00 22.78 LIG 0.16  HD
ATOM     24 22HD ASN C   4      25.732   2.013  20.993  1.00 22.78 LIG 0.16  HD
ENDBRANCH 19 20
ENDBRANCH 1 19
BRANCH 1 25
ATOM     25  N   ASN C   4      22.203   0.322  18.695  1.00 22.84 LIG-0.35  N 
ATOM     26 H    ASN C   4      22.576   0.075  17.960  1.00 22.84 LIG 0.16  HD
ATOM     27  C   GLN C   3      20.945   0.026  19.014  1.00 20.90 LIG 0.24  C 
ATOM     28 O    GLN C   3      20.337   0.571  19.932  1.00 18.13 LIG-0.27  OA
BRANCH 27 29
ATOM     29  CA  GLN C   3      20.248  -1.001  18.118  1.00 23.72 LIG 0.18  C 
BRANCH 29 30
ATOM     30  CB  GLN C   3      20.586  -2.416  18.610  1.00 25.20 LIG 0.04  C 
BRANCH 30 31
ATOM     31  CG  GLN C   3      20.266  -3.518  17.607  1.00 28.81 LIG 0.10  C 
BRANCH 31 32
ATOM     32  CD  GLN C   3      21.481  -3.933  16.783  1.00 35.20 LIG 0.21  C 
ATOM     33  NE2 GLN C   3      21.236  -4.624  15.663  1.00 25.96 LIG-0.37  N 
ATOM     34 21HE GLN C   3      20.426  -4.805  15.439  1.00 25.96 LIG 0.16  HD
ATOM     35 22HE GLN C   3      21.889  -4.886  15.168  1.00 25.96 LIG 0.16  HD
ATOM     36 OE1  GLN C   3      22.631  -3.642  17.158  1.00 36.24 LIG-0.27  OA
ENDBRANCH 31 32
ENDBRANCH 30 31
ENDBRANCH 29 30
BRANCH 29 37
ATOM     37  N   GLN C   3      20.538  -0.817  16.674  1.00 22.58 LIG-0.35  N 
ATOM     38 H    GLN C   3      21.321  -0.512  16.496  1.00 22.58 LIG 0.16  HD
ATOM     39  C   SER C   2      19.616  -1.119  15.758  1.00 24.53 LIG 0.26  C 
ATOM     40 O    SER C   2      18.522  -1.604  16.056  1.00 22.38 LIG-0.27  OA
BRANCH 39 41
ATOM     41  CA  SER C   2      19.919  -0.846  14.292  1.00 25.92 LIG 0.42  C 
ATOM     42  N   SER C   2      20.401   0.567  14.158  1.00 33.46 LIG 0.62  N 
BRANCH 41 43
ATOM     43  CB  SER C   2      20.909  -1.875  13.742  1.00 31.59 LIG 0.21  C 
BRANCH 43 44
ATOM     44 OG   SER C   2      22.057  -2.037  14.568  1.00 27.93 LIG-0.40  OA
ATOM     45 HG   SER C   2      22.601  -1.414  14.419  1.00 27.93 LIG 0.21  HD
ENDBRANCH 43 44
ENDBRANCH 41 43
ENDBRANCH 39 41
ENDBRANCH 29 37
ENDBRANCH 27 29
ENDBRANCH 1 25
TORSDOF 17
ENDMDL
MODEL 12
USER: ADFR SOLUTION from run 32
USER: SCORE 15.656163 LL:  -2.491 LR: -13.614 RR:   0.000 FEB:  -8.543
USER: RMSD 5.943293
USER: SEED 31
USER: STATUS no improvement in best in 5 clusters for 5 generations
USER: GENES 19
USER: genes 0 Translation |==|  0.60811 0.38810 0.45826
USER: genes 1 Rotation |==|  0.42353 0.43012 0.55767 0.98574
USER: genes 2 Torsion [N]-CA--C-[N] |==|  0.27300
USER: genes 3 Torsion [C]-N--CA-[C] |==|  0.15427
USER: genes 4 Torsion [N]-CA--C-[OXT] |==|  0.63230
USER: genes 5 Torsion [N]-CA--CB-[CG] |==|  0.64354
USER: genes 6 Torsion [CA]-CB--CG-[CD1] |==|  0.55225
USER: genes 7 Torsion [CE1]-CZ--OH-[HH] |==|  0.54334
USER: genes 8 Torsion [C]-CA--CB-[CG] |==|  0.41863
USER: genes 9 Torsion [CA]-CB--CG-[ND2] |==|  0.41834
USER: genes 10 Torsion [C]-CA--N-[C] |==|  0.60452
USER: genes 11 Torsion [N]-C--CA-[N] |==|  0.91489
USER: genes 12 Torsion [C]-CA--CB-[CG] |==|  0.01487
USER: genes 13 Torsion [CA]-CB--CG-[CD] |==|  0.63739
USER: genes 14 Torsion [CB]-CG--CD-[NE2] |==|  0.61564
USER: genes 15 Torsion [C]-CA--N-[C] |==|  0.83319
USER: genes 16 Torsion [N]-C--CA-[N] |==|  0.62597
USER: genes 17 Torsion [C]-CA--CB-[OG] |==|  0.50249
USER: genes 18 Torsion [CA]-CB--OG-[HG] |==|  0.33310
ROOT
ATOM      1  CA  ASN C   4      23.016   1.346  19.344  1.00 23.87 LIG 0.18  C 
ENDROOT
BRANCH 1 2
ATOM      2  C   ASN C   4      22.520  -0.064  19.015  1.00 24.50 LIG 0.24  C 
ATOM      3 O    ASN C   4      22.651  -0.990  19.814  1.00 25.26 LIG-0.27  OA
ATOM      4  N   TYR C   5      21.947  -0.200  17.823  1.00 25.46 LIG-0.34  N 
ATOM      5 H    TYR C   5      21.869   0.451  17.267  1.00 25.46 LIG 0.16  HD
BRANCH 4 6
ATOM      6  CA  TYR C   5      21.389  -1.462  17.323  1.00 27.53 LIG 0.19  C 
BRANCH 6 7
ATOM      7  C   TYR C   5      20.361  -1.997  18.307  1.00 27.73 LIG 0.20  C 
ATOM      8 OXT  TYR C   5      20.392  -3.185  18.658  1.00 28.08 LIG-0.65  OA
ATOM      9 O    TYR C   5      19.527  -1.217  18.777  1.00 30.08 LIG-0.65  OA
ENDBRANCH 6 7
BRANCH 6 10
ATOM     10  CB  TYR C   5      22.507  -2.492  17.138  1.00 26.02 LIG 0.07  C 
BRANCH 10 11
ATOM     11  CG  TYR C   5      22.452  -3.080  15.767  1.00 28.29 LIG-0.06  A 
ATOM     12  CD1 TYR C   5      23.092  -4.282  15.500  1.00 28.93 LIG 0.01  A 
ATOM     13  CE1 TYR C   5      23.012  -4.866  14.255  1.00 31.65 LIG 0.04  A 
ATOM     14  CZ  TYR C   5      22.262  -4.267  13.260  1.00 33.19 LIG 0.07  A 
ATOM     15  CE2 TYR C   5      21.597  -3.080  13.505  1.00 31.83 LIG 0.04  A 
ATOM     16  CD2 TYR C   5      21.690  -2.494  14.763  1.00 30.09 LIG 0.01  A 
BRANCH 14 17
ATOM     17 OH   TYR C   5      22.194  -4.874  12.028  1.00 32.69 LIG-0.36  OA
ATOM     18 HH   TYR C   5      21.901  -4.327  11.462  1.00 32.69 LIG 0.22  HD
ENDBRANCH 14 17
ENDBRANCH 10 11
ENDBRANCH 6 10
ENDBRANCH 4 6
ENDBRANCH 1 2
BRANCH 1 19
ATOM     19  CB  ASN C   4      24.378   1.325  20.025  1.00 21.84 LIG 0.14  C 
BRANCH 19 20
ATOM     20  CG  ASN C   4      25.164   2.578  19.720  1.00 23.44 LIG 0.22  C 
ATOM     21 OD1  ASN C   4      24.935   3.206  18.695  1.00 24.15 LIG-0.27  OA
ATOM     22  ND2 ASN C   4      26.033   2.994  20.640  1.00 22.78 LIG-0.37  N 
ATOM     23 21HD ASN C   4      26.460   3.732  20.526  1.00 22.78 LIG 0.16  HD
ATOM     24 22HD ASN C   4      26.167   2.524  21.348  1.00 22.78 LIG 0.16  HD
ENDBRANCH 19 20
ENDBRANCH 1 19
BRANCH 1 25
ATOM     25  N   ASN C   4      22.094   2.121  20.176  1.00 22.84 LIG-0.35  N 
ATOM     26 H    ASN C   4      21.694   1.658  20.780  1.00 22.84 LIG 0.16  HD
ATOM     27  C   GLN C   3      21.899   3.427  20.005  1.00 20.90 LIG 0.24  C 
ATOM     28 O    GLN C   3      22.272   4.040  19.008  1.00 18.13 LIG-0.27  OA
BRANCH 27 29
ATOM     29  CA  GLN C   3      21.105   4.138  21.105  1.00 23.72 LIG 0.18  C 
BRANCH 29 30
ATOM     30  CB  GLN C   3      22.082   4.775  22.104  1.00 25.20 LIG 0.04  C 
BRANCH 30 31
ATOM     31  CG  GLN C   3      23.547   4.664  21.700  1.00 28.81 LIG 0.10  C 
BRANCH 31 32
ATOM     32  CD  GLN C   3      24.429   4.136  22.829  1.00 35.20 LIG 0.21  C 
ATOM     33  NE2 GLN C   3      25.617   4.733  22.988  1.00 25.96 LIG-0.37  N 
ATOM     34 21HE GLN C   3      25.844   5.381  22.472  1.00 25.96 LIG 0.16  HD
ATOM     35 22HE GLN C   3      26.152   4.467  23.606  1.00 25.96 LIG 0.16  HD
ATOM     36 OE1  GLN C   3      24.046   3.194  23.545  1.00 36.24 LIG-0.27  OA
ENDBRANCH 31 32
ENDBRANCH 30 31
ENDBRANCH 29 30
BRANCH 29 37
ATOM     37  N   GLN C   3      20.104   3.265  21.768  1.00 22.58 LIG-0.35  N 
ATOM     38 H    GLN C   3      20.215   3.161  22.614  1.00 22.58 LIG 0.16  HD
ATOM     39  C   SER C   2      19.122   2.708  21.058  1.00 24.53 LIG 0.26  C 
ATOM     40 O    SER C   2      18.970   2.926  19.854  1.00 22.38 LIG-0.27  OA
BRANCH 39 41
ATOM     41  CA  SER C   2      18.159   1.757  21.755  1.00 25.92 LIG 0.42  C 
ATOM     42  N   SER C   2      17.970   0.548  20.890  1.00 33.46 LIG 0.62  N 
BRANCH 41 43
ATOM     43  CB  SER C   2      18.655   1.419  23.162  1.00 31.59 LIG 0.21  C 
BRANCH 43 44
ATOM     44 OG   SER C   2      17.798   0.515  23.851  1.00 27.93 LIG-0.40  OA
ATOM     45 HG   SER C   2      18.225  -0.182  24.047  1.00 27.93 LIG 0.21  HD
ENDBRANCH 43 44
ENDBRANCH 41 43
ENDBRANCH 39 41
ENDBRANCH 29 37
ENDBRANCH 27 29
ENDBRANCH 1 25
TORSDOF 17
ENDMDL
MODEL 13
USER: ADFR SOLUTION from run 6
USER: SCORE 15.355503 LL:  -1.911 LR: -13.612 RR:   0.000 FEB:  -8.540
USER: RMSD 6.076203
USER: SEED 155453
USER: STATUS no improvement in best in 8 clusters for 5 generations
USER: GENES 19
USER: genes 0 Translation |==|  0.34817 0.36523 0.41295
USER: genes 1 Rotation |==|  0.69681 0.89005 0.69741 0.64197
USER: genes 2 Torsion [N]-CA--C-[N] |==|  0.02960
USER: genes 3 Torsion [C]-N--CA-[C] |==|  0.60733
USER: genes 4 Torsion [N]-CA--C-[OXT] |==|  0.69846
USER: genes 5 Torsion [N]-CA--CB-[CG] |==|  0.65134
USER: genes 6 Torsion [CA]-CB--CG-[CD1] |==|  0.17123
USER: genes 7 Torsion [CE1]-CZ--OH-[HH] |==|  0.18360
USER: genes 8 Torsion [C]-CA--CB-[CG] |==|  0.44857
USER: genes 9 Torsion [CA]-CB--CG-[ND2] |==|  0.28514
USER: genes 10 Torsion [C]-CA--N-[C] |==|  0.70468
USER: genes 11 Torsion [N]-C--CA-[N] |==|  0.40561
USER: genes 12 Torsion [C]-CA--CB-[CG] |==|  0.62874
USER: genes 13 Torsion [CA]-CB--CG-[CD] |==|  0.83052
USER: genes 14 Torsion [CB]-CG--CD-[NE2] |==|  0.42401
USER: genes 15 Torsion [C]-CA--N-[C] |==|  0.71004
USER: genes 16 Torsion [N]-C--CA-[N] |==|  0.69891
USER: genes 17 Torsion [C]-CA--CB-[OG] |==|  0.75623
USER: genes 18 Torsion [CA]-CB--OG-[HG] |==|  0.21384
ROOT
ATOM      1  CA  ASN C   4      18.532   0.968  18.460  1.00 23.87 LIG 0.18  C 
ENDROOT
BRANCH 1 2
ATOM      2  C   ASN C   4      18.191  -0.425  17.927  1.00 24.50 LIG 0.24  C 
ATOM      3 O    ASN C   4      17.026  -0.774  17.749  1.00 25.26 LIG-0.27  OA
ATOM      4  N   TYR C   5      19.237  -1.206  17.674  1.00 25.46 LIG-0.34  N 
ATOM      5 H    TYR C   5      20.049  -0.957  17.810  1.00 25.46 LIG 0.16  HD
BRANCH 4 6
ATOM      6  CA  TYR C   5      19.129  -2.569  17.140  1.00 27.53 LIG 0.19  C 
BRANCH 6 7
ATOM      7  C   TYR C   5      20.163  -3.465  17.801  1.00 27.73 LIG 0.20  C 
ATOM      8 OXT  TYR C   5      21.145  -3.865  17.159  1.00 28.08 LIG-0.65  OA
ATOM      9 O    TYR C   5      20.026  -3.751  18.994  1.00 30.08 LIG-0.65  OA
ENDBRANCH 6 7
BRANCH 6 10
ATOM     10  CB  TYR C   5      19.353  -2.557  15.625  1.00 26.02 LIG 0.07  C 
BRANCH 10 11
ATOM     11  CG  TYR C   5      18.205  -3.206  14.923  1.00 28.29 LIG-0.06  A 
ATOM     12  CD1 TYR C   5      16.930  -2.669  15.035  1.00 28.93 LIG 0.01  A 
ATOM     13  CE1 TYR C   5      15.867  -3.224  14.355  1.00 31.65 LIG 0.04  A 
ATOM     14  CZ  TYR C   5      16.071  -4.312  13.528  1.00 33.19 LIG 0.07  A 
ATOM     15  CE2 TYR C   5      17.335  -4.852  13.382  1.00 31.83 LIG 0.04  A 
ATOM     16  CD2 TYR C   5      18.401  -4.291  14.078  1.00 30.09 LIG 0.01  A 
BRANCH 14 17
ATOM     17 OH   TYR C   5      14.993  -4.842  12.856  1.00 32.69 LIG-0.36  OA
ATOM     18 HH   TYR C   5      14.710  -4.283  12.297  1.00 32.69 LIG 0.22  HD
ENDBRANCH 14 17
ENDBRANCH 10 11
ENDBRANCH 6 10
ENDBRANCH 4 6
ENDBRANCH 1 2
BRANCH 1 19
ATOM     19  CB  ASN C   4      17.736   2.058  17.755  1.00 21.84 LIG 0.14  C 
BRANCH 19 20
ATOM     20  CG  ASN C   4      17.726   3.338  18.557  1.00 23.44 LIG 0.22  C 
ATOM     21 OD1  ASN C   4      17.049   3.414  19.573  1.00 24.15 LIG-0.27  OA
ATOM     22  ND2 ASN C   4      18.534   4.317  18.155  1.00 22.78 LIG-0.37  N 
ATOM     23 21HD ASN C   4      18.597   5.040  18.617  1.00 22.78 LIG 0.16  HD
ATOM     24 22HD ASN C   4      18.995   4.226  17.434  1.00 22.78 LIG 0.16  HD
ENDBRANCH 19 20
ENDBRANCH 1 19
BRANCH 1 25
ATOM     25  N   ASN C   4      19.954   1.306  18.377  1.00 22.84 LIG-0.35  N 
ATOM     26 H    ASN C   4      20.226   1.479  17.579  1.00 22.84 LIG 0.16  HD
ATOM     27  C   GLN C   3      20.748   1.339  19.445  1.00 20.90 LIG 0.24  C 
ATOM     28 O    GLN C   3      20.434   0.864  20.533  1.00 18.13 LIG-0.27  OA
BRANCH 27 29
ATOM     29  CA  GLN C   3      22.136   1.951  19.232  1.00 23.72 LIG 0.18  C 
BRANCH 29 30
ATOM     30  CB  GLN C   3      23.104   0.859  18.754  1.00 25.20 LIG 0.04  C 
BRANCH 30 31
ATOM     31  CG  GLN C   3      24.444   0.853  19.479  1.00 28.81 LIG 0.10  C 
BRANCH 31 32
ATOM     32  CD  GLN C   3      25.216   2.157  19.295  1.00 35.20 LIG 0.21  C 
ATOM     33  NE2 GLN C   3      26.066   2.492  20.273  1.00 25.96 LIG-0.37  N 
ATOM     34 21HE GLN C   3      26.158   1.978  20.957  1.00 25.96 LIG 0.16  HD
ATOM     35 22HE GLN C   3      26.520   3.221  20.219  1.00 25.96 LIG 0.16  HD
ATOM     36 OE1  GLN C   3      25.041   2.860  18.283  1.00 36.24 LIG-0.27  OA
ENDBRANCH 31 32
ENDBRANCH 30 31
ENDBRANCH 29 30
BRANCH 29 37
ATOM     37  N   GLN C   3      22.646   2.683  20.418  1.00 22.58 LIG-0.35  N 
ATOM     38 H    GLN C   3      22.927   2.185  21.060  1.00 22.58 LIG 0.16  HD
ATOM     39  C   SER C   2      22.646   4.017  20.438  1.00 24.53 LIG 0.26  C 
ATOM     40 O    SER C   2      22.278   4.692  19.473  1.00 22.38 LIG-0.27  OA
BRANCH 39 41
ATOM     41  CA  SER C   2      23.103   4.734  21.699  1.00 25.92 LIG 0.42  C 
ATOM     42  N   SER C   2      21.907   5.348  22.361  1.00 33.46 LIG 0.62  N 
BRANCH 41 43
ATOM     43  CB  SER C   2      23.875   3.781  22.614  1.00 31.59 LIG 0.21  C 
BRANCH 43 44
ATOM     44 OG   SER C   2      23.031   3.064  23.508  1.00 27.93 LIG-0.40  OA
ATOM     45 HG   SER C   2      22.647   2.442  23.093  1.00 27.93 LIG 0.21  HD
ENDBRANCH 43 44
ENDBRANCH 41 43
ENDBRANCH 39 41
ENDBRANCH 29 37
ENDBRANCH 27 29
ENDBRANCH 1 25
TORSDOF 17
ENDMDL
MODEL 14
USER: ADFR SOLUTION from run 161
USER: SCORE 15.273948 LL:  -2.450 LR: -13.579 RR:   0.000 FEB:  -8.508
USER: RMSD 6.842298
USER: SEED 160
USER: STATUS no improvement in best in 6 clusters for 5 generations
USER: GENES 19
USER: genes 0 Translation |==|  0.53878 0.54718 0.59917
USER: genes 1 Rotation |==|  0.96831 0.59858 0.58767 0.61527
USER: genes 2 Torsion [N]-CA--C-[N] |==|  0.14801
USER: genes 3 Torsion [C]-N--CA-[C] |==|  0.62028
USER: genes 4 Torsion [N]-CA--C-[OXT] |==|  0.30744
USER: genes 5 Torsion [N]-CA--CB-[CG] |==|  0.79943
USER: genes 6 Torsion [CA]-CB--CG-[CD1] |==|  0.70819
USER: genes 7 Torsion [CE1]-CZ--OH-[HH] |==|  0.39138
USER: genes 8 Torsion [C]-CA--CB-[CG] |==|  0.45134
USER: genes 9 Torsion [CA]-CB--CG-[ND2] |==|  0.46902
USER: genes 10 Torsion [C]-CA--N-[C] |==|  0.17762
USER: genes 11 Torsion [N]-C--CA-[N] |==|  0.38791
USER: genes 12 Torsion [C]-CA--CB-[CG] |==|  0.09579
USER: genes 13 Torsion [CA]-CB--CG-[CD] |==|  0.71086
USER: genes 14 Torsion [CB]-CG--CD-[NE2] |==|  0.48563
USER: genes 15 Torsion [C]-CA--N-[C] |==|  0.54047
USER: genes 16 Torsion [N]-C--CA-[N] |==|  0.41691
USER: genes 17 Torsion [C]-CA--CB-[OG] |==|  0.12683
USER: genes 18 Torsion [CA]-CB--OG-[HG] |==|  0.08619
ROOT
ATOM      1  CA  ASN C   4      21.820   3.971  22.092  1.00 23.87 LIG 0.18  C 
ENDROOT
BRANCH 1 2
ATOM      2  C   ASN C   4      20.492   4.651  21.753  1.00 24.50 LIG 0.24  C 
ATOM      3 O    ASN C   4      20.433   5.857  21.519  1.00 25.26 LIG-0.27  OA
ATOM      4  N   TYR C   5      19.433   3.848  21.731  1.00 25.46 LIG-0.34  N 
ATOM      5 H    TYR C   5      19.481   3.007  21.906  1.00 25.46 LIG 0.16  HD
BRANCH 4 6
ATOM      6  CA  TYR C   5      18.073   4.297  21.411  1.00 27.53 LIG 0.19  C 
BRANCH 6 7
ATOM      7  C   TYR C   5      17.082   3.672  22.379  1.00 27.73 LIG 0.20  C 
ATOM      8 OXT  TYR C   5      16.503   4.373  23.220  1.00 28.08 LIG-0.65  OA
ATOM      9 O    TYR C   5      16.837   2.465  22.282  1.00 30.08 LIG-0.65  OA
ENDBRANCH 6 7
BRANCH 6 10
ATOM     10  CB  TYR C   5      17.713   3.896  19.978  1.00 26.02 LIG 0.07  C 
BRANCH 10 11
ATOM     11  CG  TYR C   5      18.463   4.737  18.997  1.00 28.29 LIG-0.06  A 
ATOM     12  CD1 TYR C   5      17.810   5.748  18.307  1.00 28.93 LIG 0.01  A 
ATOM     13  CE1 TYR C   5      18.494   6.567  17.435  1.00 31.65 LIG 0.04  A 
ATOM     14  CZ  TYR C   5      19.856   6.403  17.261  1.00 33.19 LIG 0.07  A 
ATOM     15  CE2 TYR C   5      20.535   5.418  17.954  1.00 31.83 LIG 0.04  A 
ATOM     16  CD2 TYR C   5      19.834   4.590  18.825  1.00 30.09 LIG 0.01  A 
BRANCH 14 17
ATOM     17 OH   TYR C   5      20.516   7.238  16.390  1.00 32.69 LIG-0.36  OA
ATOM     18 HH   TYR C   5      21.265   7.442  16.711  1.00 32.69 LIG 0.22  HD
ENDBRANCH 14 17
ENDBRANCH 10 11
ENDBRANCH 6 10
ENDBRANCH 4 6
ENDBRANCH 1 2
BRANCH 1 19
ATOM     19  CB  ASN C   4      22.991   4.941  22.020  1.00 21.84 LIG 0.14  C 
BRANCH 19 20
ATOM     20  CG  ASN C   4      24.199   4.400  22.748  1.00 23.44 LIG 0.22  C 
ATOM     21 OD1  ASN C   4      24.104   3.372  23.404  1.00 24.15 LIG-0.27  OA
ATOM     22  ND2 ASN C   4      25.354   5.039  22.572  1.00 22.78 LIG-0.37  N 
ATOM     23 21HD ASN C   4      26.075   4.730  22.926  1.00 22.78 LIG 0.16  HD
ATOM     24 22HD ASN C   4      25.381   5.760  22.103  1.00 22.78 LIG 0.16  HD
ENDBRANCH 19 20
ENDBRANCH 1 19
BRANCH 1 25
ATOM     25  N   ASN C   4      22.126   2.812  21.250  1.00 22.84 LIG-0.35  N 
ATOM     26 H    ASN C   4      22.162   2.068  21.680  1.00 22.84 LIG 0.16  HD
ATOM     27  C   GLN C   3      22.329   2.912  19.938  1.00 20.90 LIG 0.24  C 
ATOM     28 O    GLN C   3      22.517   3.981  19.365  1.00 18.13 LIG-0.27  OA
BRANCH 27 29
ATOM     29  CA  GLN C   3      22.386   1.591  19.165  1.00 23.72 LIG 0.18  C 
BRANCH 29 30
ATOM     30  CB  GLN C   3      23.848   1.139  19.040  1.00 25.20 LIG 0.04  C 
BRANCH 30 31
ATOM     31  CG  GLN C   3      24.713   1.486  20.246  1.00 28.81 LIG 0.10  C 
BRANCH 31 32
ATOM     32  CD  GLN C   3      25.638   2.672  19.983  1.00 35.20 LIG 0.21  C 
ATOM     33  NE2 GLN C   3      26.355   3.112  21.024  1.00 25.96 LIG-0.37  N 
ATOM     34 21HE GLN C   3      26.285   2.725  21.789  1.00 25.96 LIG 0.16  HD
ATOM     35 22HE GLN C   3      26.886   3.782  20.928  1.00 25.96 LIG 0.16  HD
ATOM     36 OE1  GLN C   3      25.697   3.192  18.855  1.00 36.24 LIG-0.27  OA
ENDBRANCH 31 32
ENDBRANCH 30 31
ENDBRANCH 29 30
BRANCH 29 37
ATOM     37  N   GLN C   3      21.694   1.646  17.853  1.00 22.58 LIG-0.35  N 
ATOM     38 H    GLN C   3      21.508   2.436  17.572  1.00 22.58 LIG 0.16  HD
ATOM     39  C   SER C   2      21.404   0.521  17.197  1.00 24.53 LIG 0.26  C 
ATOM     40 O    SER C   2      21.734  -0.592  17.615  1.00 22.38 LIG-0.27  OA
BRANCH 39 41
ATOM     41  CA  SER C   2      20.626   0.610  15.893  1.00 25.92 LIG 0.42  C 
ATOM     42  N   SER C   2      21.031  -0.535  15.015  1.00 33.46 LIG 0.62  N 
BRANCH 41 43
ATOM     43  CB  SER C   2      19.120   0.659  16.162  1.00 31.59 LIG 0.21  C 
BRANCH 43 44
ATOM     44 OG   SER C   2      18.771   1.567  17.202  1.00 27.93 LIG-0.40  OA
ATOM     45 HG   SER C   2      19.318   2.205  17.213  1.00 27.93 LIG 0.21  HD
ENDBRANCH 43 44
ENDBRANCH 41 43
ENDBRANCH 39 41
ENDBRANCH 29 37
ENDBRANCH 27 29
ENDBRANCH 1 25
TORSDOF 17
ENDMDL
MODEL 15
USER: ADFR SOLUTION from run 169
USER: SCORE 15.599171 LL:  -2.349 LR: -13.568 RR:   0.000 FEB:  -8.497
USER: RMSD 7.544655
USER: SEED 168
USER: STATUS no improvement in best in 5 clusters for 5 generations
USER: GENES 19
USER: genes 0 Translation |==|  0.61523 0.38959 0.48077
USER: genes 1 Rotation |==|  0.99012 0.40576 0.49754 0.52987
USER: genes 2 Torsion [N]-CA--C-[N] |==|  0.39493
USER: genes 3 Torsion [C]-N--CA-[C] |==|  0.54223
USER: genes 4 Torsion [N]-CA--C-[OXT] |==|  0.04305
USER: genes 5 Torsion [N]-CA--CB-[CG] |==|  0.15058
USER: genes 6 Torsion [CA]-CB--CG-[CD1] |==|  0.22451
USER: genes 7 Torsion [CE1]-CZ--OH-[HH] |==|  0.72812
USER: genes 8 Torsion [C]-CA--CB-[CG] |==|  0.96094
USER: genes 9 Torsion [CA]-CB--CG-[ND2] |==|  0.25132
USER: genes 10 Torsion [C]-CA--N-[C] |==|  0.58601
USER: genes 11 Torsion [N]-C--CA-[N] |==|  0.87026
USER: genes 12 Torsion [C]-CA--CB-[CG] |==|  0.34610
USER: genes 13 Torsion [CA]-CB--CG-[CD] |==|  0.81066
USER: genes 14 Torsion [CB]-CG--CD-[NE2] |==|  0.70500
USER: genes 15 Torsion [C]-CA--N-[C] |==|  0.84441
USER: genes 16 Torsion [N]-C--CA-[N] |==|  0.27771
USER: genes 17 Torsion [C]-CA--CB-[OG] |==|  0.17232
USER: genes 18 Torsion [CA]-CB--OG-[HG] |==|  0.11494
ROOT
ATOM      1  CA  ASN C   4      23.139   1.370  19.783  1.00 23.87 LIG 0.18  C 
ENDROOT
BRANCH 1 2
ATOM      2  C   ASN C   4      22.712   2.791  20.158  1.00 24.50 LIG 0.24  C 
ATOM      3 O    ASN C   4      22.462   3.631  19.296  1.00 25.26 LIG-0.27  OA
ATOM      4  N   TYR C   5      22.635   3.035  21.462  1.00 25.46 LIG-0.34  N 
ATOM      5 H    TYR C   5      22.822   2.444  22.059  1.00 25.46 LIG 0.16  HD
BRANCH 4 6
ATOM      6  CA  TYR C   5      22.227   4.325  22.031  1.00 27.53 LIG 0.19  C 
BRANCH 6 7
ATOM      7  C   TYR C   5      22.602   4.381  23.503  1.00 27.73 LIG 0.20  C 
ATOM      8 OXT  TYR C   5      23.407   3.566  23.974  1.00 28.08 LIG-0.65  OA
ATOM      9 O    TYR C   5      22.122   5.277  24.204  1.00 30.08 LIG-0.65  OA
ENDBRANCH 6 7
BRANCH 6 10
ATOM     10  CB  TYR C   5      20.715   4.509  21.879  1.00 26.02 LIG 0.07  C 
BRANCH 10 11
ATOM     11  CG  TYR C   5      19.987   3.347  22.469  1.00 28.29 LIG-0.06  A 
ATOM     12  CD1 TYR C   5      19.778   3.281  23.840  1.00 28.93 LIG 0.01  A 
ATOM     13  CE1 TYR C   5      19.065   2.243  24.399  1.00 31.65 LIG 0.04  A 
ATOM     14  CZ  TYR C   5      18.524   1.264  23.587  1.00 33.19 LIG 0.07  A 
ATOM     15  CE2 TYR C   5      18.698   1.317  22.216  1.00 31.83 LIG 0.04  A 
ATOM     16  CD2 TYR C   5      19.426   2.365  21.662  1.00 30.09 LIG 0.01  A 
BRANCH 14 17
ATOM     17 OH   TYR C   5      17.811   0.242  24.170  1.00 32.69 LIG-0.36  OA
ATOM     18 HH   TYR C   5      18.307  -0.430  24.259  1.00 32.69 LIG 0.22  HD
ENDBRANCH 14 17
ENDBRANCH 10 11
ENDBRANCH 6 10
ENDBRANCH 4 6
ENDBRANCH 1 2
BRANCH 1 19
ATOM     19  CB  ASN C   4      24.639   1.271  19.545  1.00 21.84 LIG 0.14  C 
BRANCH 19 20
ATOM     20  CG  ASN C   4      25.266   2.637  19.404  1.00 23.44 LIG 0.22  C 
ATOM     21 OD1  ASN C   4      25.276   3.192  18.314  1.00 24.15 LIG-0.27  OA
ATOM     22  ND2 ASN C   4      25.715   3.221  20.513  1.00 22.78 LIG-0.37  N 
ATOM     23 21HD ASN C   4      26.029   4.022  20.481  1.00 22.78 LIG 0.16  HD
ATOM     24 22HD ASN C   4      25.691   2.798  21.262  1.00 22.78 LIG 0.16  HD
ENDBRANCH 19 20
ENDBRANCH 1 19
BRANCH 1 25
ATOM     25  N   ASN C   4      22.447   0.832  18.610  1.00 22.84 LIG-0.35  N 
ATOM     26 H    ASN C   4      22.224   1.428  18.031  1.00 22.84 LIG 0.16  HD
ATOM     27  C   GLN C   3      22.191  -0.466  18.462  1.00 20.90 LIG 0.24  C 
ATOM     28 O    GLN C   3      22.284  -1.281  19.376  1.00 18.13 LIG-0.27  OA
BRANCH 27 29
ATOM     29  CA  GLN C   3      21.694  -0.899  17.079  1.00 23.72 LIG 0.18  C 
BRANCH 29 30
ATOM     30  CB  GLN C   3      22.890  -1.016  16.124  1.00 25.20 LIG 0.04  C 
BRANCH 30 31
ATOM     31  CG  GLN C   3      23.019  -2.377  15.450  1.00 28.81 LIG 0.10  C 
BRANCH 31 32
ATOM     32  CD  GLN C   3      23.389  -3.485  16.431  1.00 35.20 LIG 0.21  C 
ATOM     33  NE2 GLN C   3      24.646  -3.941  16.373  1.00 25.96 LIG-0.37  N 
ATOM     34 21HE GLN C   3      25.199  -3.604  15.807  1.00 25.96 LIG 0.16  HD
ATOM     35 22HE GLN C   3      24.901  -4.570  16.901  1.00 25.96 LIG 0.16  HD
ATOM     36 OE1  GLN C   3      22.545  -3.934  17.228  1.00 36.24 LIG-0.27  OA
ENDBRANCH 31 32
ENDBRANCH 30 31
ENDBRANCH 29 30
BRANCH 29 37
ATOM     37  N   GLN C   3      20.619  -0.029  16.540  1.00 22.58 LIG-0.35  N 
ATOM     38 H    GLN C   3      20.782   0.316  15.770  1.00 22.58 LIG 0.16  HD
ATOM     39  C   SER C   2      19.500   0.169  17.237  1.00 24.53 LIG 0.26  C 
ATOM     40 O    SER C   2      19.286  -0.388  18.317  1.00 22.38 LIG-0.27  OA
BRANCH 39 41
ATOM     41  CA  SER C   2      18.452   1.128  16.690  1.00 25.92 LIG 0.42  C 
ATOM     42  N   SER C   2      17.368   0.327  16.033  1.00 33.46 LIG 0.62  N 
BRANCH 41 43
ATOM     43  CB  SER C   2      17.934   2.052  17.794  1.00 31.59 LIG 0.21  C 
BRANCH 43 44
ATOM     44 OG   SER C   2      18.951   2.879  18.348  1.00 27.93 LIG-0.40  OA
ATOM     45 HG   SER C   2      19.445   3.167  17.732  1.00 27.93 LIG 0.21  HD
ENDBRANCH 43 44
ENDBRANCH 41 43
ENDBRANCH 39 41
ENDBRANCH 29 37
ENDBRANCH 27 29
ENDBRANCH 1 25
TORSDOF 17
ENDMDL
MODEL 16
USER: ADFR SOLUTION from run 7
USER: SCORE 15.420873 LL:  -2.385 LR: -13.558 RR:   0.000 FEB:  -8.487
USER: RMSD 6.150972
USER: SEED 342464
USER: STATUS no improvement in best in 2 clusters for 5 generations
USER: GENES 19
USER: genes 0 Translation |==|  0.37568 0.37737 0.40274
USER: genes 1 Rotation |==|  0.70403 0.84440 0.78926 0.57803
USER: genes 2 Torsion [N]-CA--C-[N] |==|  0.21599
USER: genes 3 Torsion [C]-N--CA-[C] |==|  0.52361
USER: genes 4 Torsion [N]-CA--C-[OXT] |==|  0.47498
USER: genes 5 Torsion [N]-CA--CB-[CG] |==|  0.27711
USER: genes 6 Torsion [CA]-CB--CG-[CD1] |==|  0.29418
USER: genes 7 Torsion [CE1]-CZ--OH-[HH] |==|  0.50316
USER: genes 8 Torsion [C]-CA--CB-[CG] |==|  0.44714
USER: genes 9 Torsion [CA]-CB--CG-[ND2] |==|  0.83480
USER: genes 10 Torsion [C]-CA--N-[C] |==|  0.78120
USER: genes 11 Torsion [N]-C--CA-[N] |==|  0.23433
USER: genes 12 Torsion [C]-CA--CB-[CG] |==|  0.56976
USER: genes 13 Torsion [CA]-CB--CG-[CD] |==|  0.87611
USER: genes 14 Torsion [CB]-CG--CD-[NE2] |==|  0.40694
USER: genes 15 Torsion [C]-CA--N-[C] |==|  0.74708
USER: genes 16 Torsion [N]-C--CA-[N] |==|  0.60404
USER: genes 17 Torsion [C]-CA--CB-[OG] |==|  0.19337
USER: genes 18 Torsion [CA]-CB--OG-[HG] |==|  0.67833
ROOT
ATOM      1  CA  ASN C   4      19.006   1.169  18.261  1.00 23.87 LIG 0.18  C 
ENDROOT
BRANCH 1 2
ATOM      2  C   ASN C   4      18.792   0.141  17.149  1.00 24.50 LIG 0.24  C 
ATOM      3 O    ASN C   4      18.263   0.453  16.084  1.00 25.26 LIG-0.27  OA
ATOM      4  N   TYR C   5      19.218  -1.089  17.422  1.00 25.46 LIG-0.34  N 
ATOM      5 H    TYR C   5      19.578  -1.301  18.174  1.00 25.46 LIG 0.16  HD
BRANCH 4 6
ATOM      6  CA  TYR C   5      19.124  -2.214  16.485  1.00 27.53 LIG 0.19  C 
BRANCH 6 7
ATOM      7  C   TYR C   5      19.507  -3.505  17.190  1.00 27.73 LIG 0.20  C 
ATOM      8 OXT  TYR C   5      19.337  -4.597  16.630  1.00 28.08 LIG-0.65  OA
ATOM      9 O    TYR C   5      20.026  -3.440  18.309  1.00 30.08 LIG-0.65  OA
ENDBRANCH 6 7
BRANCH 6 10
ATOM     10  CB  TYR C   5      20.058  -1.983  15.294  1.00 26.02 LIG 0.07  C 
BRANCH 10 11
ATOM     11  CG  TYR C   5      21.324  -2.756  15.468  1.00 28.29 LIG-0.06  A 
ATOM     12  CD1 TYR C   5      21.549  -3.900  14.714  1.00 28.93 LIG 0.01  A 
ATOM     13  CE1 TYR C   5      22.731  -4.599  14.822  1.00 31.65 LIG 0.04  A 
ATOM     14  CZ  TYR C   5      23.723  -4.146  15.671  1.00 33.19 LIG 0.07  A 
ATOM     15  CE2 TYR C   5      23.535  -2.998  16.417  1.00 31.83 LIG 0.04  A 
ATOM     16  CD2 TYR C   5      22.334  -2.303  16.307  1.00 30.09 LIG 0.01  A 
BRANCH 14 17
ATOM     17 OH   TYR C   5      24.896  -4.859  15.756  1.00 32.69 LIG-0.36  OA
ATOM     18 HH   TYR C   5      25.408  -4.493  16.313  1.00 32.69 LIG 0.22  HD
ENDBRANCH 14 17
ENDBRANCH 10 11
ENDBRANCH 6 10
ENDBRANCH 4 6
ENDBRANCH 1 2
BRANCH 1 19
ATOM     19  CB  ASN C   4      18.073   2.364  18.120  1.00 21.84 LIG 0.14  C 
BRANCH 19 20
ATOM     20  CG  ASN C   4      17.952   3.124  19.419  1.00 23.44 LIG 0.22  C 
ATOM     21 OD1  ASN C   4      18.203   4.321  19.449  1.00 24.15 LIG-0.27  OA
ATOM     22  ND2 ASN C   4      17.490   2.459  20.475  1.00 22.78 LIG-0.37  N 
ATOM     23 21HD ASN C   4      17.356   2.871  21.219  1.00 22.78 LIG 0.16  HD
ATOM     24 22HD ASN C   4      17.325   1.616  20.415  1.00 22.78 LIG 0.16  HD
ENDBRANCH 19 20
ENDBRANCH 1 19
BRANCH 1 25
ATOM     25  N   ASN C   4      20.381   1.663  18.357  1.00 22.84 LIG-0.35  N 
ATOM     26 H    ASN C   4      20.499   2.439  18.005  1.00 22.84 LIG 0.16  HD
ATOM     27  C   GLN C   3      21.356   0.967  18.939  1.00 20.90 LIG 0.24  C 
ATOM     28 O    GLN C   3      21.256  -0.224  19.223  1.00 18.13 LIG-0.27  OA
BRANCH 27 29
ATOM     29  CA  GLN C   3      22.666   1.720  19.183  1.00 23.72 LIG 0.18  C 
BRANCH 29 30
ATOM     30  CB  GLN C   3      23.841   0.733  19.106  1.00 25.20 LIG 0.04  C 
BRANCH 30 31
ATOM     31  CG  GLN C   3      25.073   1.169  19.888  1.00 28.81 LIG 0.10  C 
BRANCH 31 32
ATOM     32  CD  GLN C   3      25.414   2.641  19.675  1.00 35.20 LIG 0.21  C 
ATOM     33  NE2 GLN C   3      25.946   3.289  20.719  1.00 25.96 LIG-0.37  N 
ATOM     34 21HE GLN C   3      26.085   2.871  21.458  1.00 25.96 LIG 0.16  HD
ATOM     35 22HE GLN C   3      26.149   4.122  20.651  1.00 25.96 LIG 0.16  HD
ATOM     36 OE1  GLN C   3      25.190   3.192  18.582  1.00 36.24 LIG-0.27  OA
ENDBRANCH 31 32
ENDBRANCH 30 31
ENDBRANCH 29 30
BRANCH 29 37
ATOM     37  N   GLN C   3      22.668   2.509  20.440  1.00 22.58 LIG-0.35  N 
ATOM     38 H    GLN C   3      22.938   2.082  21.137  1.00 22.58 LIG 0.16  HD
ATOM     39  C   SER C   2      22.273   3.782  20.437  1.00 24.53 LIG 0.26  C 
ATOM     40 O    SER C   2      21.942   4.369  19.404  1.00 22.38 LIG-0.27  OA
BRANCH 39 41
ATOM     41  CA  SER C   2      22.214   4.537  21.757  1.00 25.92 LIG 0.42  C 
ATOM     42  N   SER C   2      21.019   5.442  21.738  1.00 33.46 LIG 0.62  N 
BRANCH 41 43
ATOM     43  CB  SER C   2      22.215   3.565  22.938  1.00 31.59 LIG 0.21  C 
BRANCH 43 44
ATOM     44 OG   SER C   2      23.462   2.899  23.109  1.00 27.93 LIG-0.40  OA
ATOM     45 HG   SER C   2      23.359   2.075  22.983  1.00 27.93 LIG 0.21  HD
ENDBRANCH 43 44
ENDBRANCH 41 43
ENDBRANCH 39 41
ENDBRANCH 29 37
ENDBRANCH 27 29
ENDBRANCH 1 25
TORSDOF 17
ENDMDL
MODEL 17
USER: ADFR SOLUTION from run 21
USER: SCORE 14.454544 LL:  -1.507 LR: -13.561 RR:   0.000 FEB:  -8.490
USER: RMSD 8.233865
USER: SEED 20
USER: STATUS no improvement in best in 13 clusters for 5 generations
USER: GENES 19
USER: genes 0 Translation |==|  0.29953 0.38042 0.53079
USER: genes 1 Rotation |==|  0.39220 0.85844 0.23988 0.70551
USER: genes 2 Torsion [N]-CA--C-[N] |==|  0.78894
USER: genes 3 Torsion [C]-N--CA-[C] |==|  0.79996
USER: genes 4 Torsion [N]-CA--C-[OXT] |==|  0.96687
USER: genes 5 Torsion [N]-CA--CB-[CG] |==|  0.78016
USER: genes 6 Torsion [CA]-CB--CG-[CD1] |==|  0.33352
USER: genes 7 Torsion [CE1]-CZ--OH-[HH] |==|  0.83976
USER: genes 8 Torsion [C]-CA--CB-[CG] |==|  0.38331
USER: genes 9 Torsion [CA]-CB--CG-[ND2] |==|  0.65116
USER: genes 10 Torsion [C]-CA--N-[C] |==|  0.62422
USER: genes 11 Torsion [N]-C--CA-[N] |==|  0.40065
USER: genes 12 Torsion [C]-CA--CB-[CG] |==|  0.45173
USER: genes 13 Torsion [CA]-CB--CG-[CD] |==|  0.56102
USER: genes 14 Torsion [CB]-CG--CD-[NE2] |==|  0.20389
USER: genes 15 Torsion [C]-CA--N-[C] |==|  0.81470
USER: genes 16 Torsion [N]-C--CA-[N] |==|  0.94527
USER: genes 17 Torsion [C]-CA--CB-[OG] |==|  0.85042
USER: genes 18 Torsion [CA]-CB--OG-[HG] |==|  0.79490
ROOT
ATOM      1  CA  ASN C   4      17.693   1.219  20.758  1.00 23.87 LIG 0.18  C 
ENDROOT
BRANCH 1 2
ATOM      2  C   ASN C   4      17.659   1.786  22.179  1.00 24.50 LIG 0.24  C 
ATOM      3 O    ASN C   4      17.339   2.954  22.393  1.00 25.26 LIG-0.27  OA
ATOM      4  N   TYR C   5      17.994   0.930  23.140  1.00 25.46 LIG-0.34  N 
ATOM      5 H    TYR C   5      18.226   0.118  22.980  1.00 25.46 LIG 0.16  HD
BRANCH 4 6
ATOM      6  CA  TYR C   5      18.007   1.268  24.568  1.00 27.53 LIG 0.19  C 
BRANCH 6 7
ATOM      7  C   TYR C   5      19.178   2.188  24.869  1.00 27.73 LIG 0.20  C 
ATOM      8 OXT  TYR C   5      20.069   2.363  24.026  1.00 28.08 LIG-0.65  OA
ATOM      9 O    TYR C   5      19.202   2.785  25.950  1.00 30.08 LIG-0.65  OA
ENDBRANCH 6 7
BRANCH 6 10
ATOM     10  CB  TYR C   5      18.127  -0.007  25.406  1.00 26.02 LIG 0.07  C 
BRANCH 10 11
ATOM     11  CG  TYR C   5      16.803  -0.691  25.508  1.00 28.29 LIG-0.06  A 
ATOM     12  CD1 TYR C   5      16.651  -1.986  25.033  1.00 28.93 LIG 0.01  A 
ATOM     13  CE1 TYR C   5      15.452  -2.652  25.162  1.00 31.65 LIG 0.04  A 
ATOM     14  CZ  TYR C   5      14.389  -2.039  25.798  1.00 33.19 LIG 0.07  A 
ATOM     15  CE2 TYR C   5      14.520  -0.757  26.301  1.00 31.83 LIG 0.04  A 
ATOM     16  CD2 TYR C   5      15.732  -0.089  26.158  1.00 30.09 LIG 0.01  A 
BRANCH 14 17
ATOM     17 OH   TYR C   5      13.205  -2.728  25.920  1.00 32.69 LIG-0.36  OA
ATOM     18 HH   TYR C   5      12.929  -2.949  25.158  1.00 32.69 LIG 0.22  HD
ENDBRANCH 14 17
ENDBRANCH 10 11
ENDBRANCH 6 10
ENDBRANCH 4 6
ENDBRANCH 1 2
BRANCH 1 19
ATOM     19  CB  ASN C   4      16.984  -0.126  20.666  1.00 21.84 LIG 0.14  C 
BRANCH 19 20
ATOM     20  CG  ASN C   4      16.140  -0.217  19.416  1.00 23.44 LIG 0.22  C 
ATOM     21 OD1  ASN C   4      16.662  -0.082  18.319  1.00 24.15 LIG-0.27  OA
ATOM     22  ND2 ASN C   4      14.854  -0.528  19.570  1.00 22.78 LIG-0.37  N 
ATOM     23 21HD ASN C   4      14.354  -0.643  18.879  1.00 22.78 LIG 0.16  HD
ATOM     24 22HD ASN C   4      14.524  -0.615  20.359  1.00 22.78 LIG 0.16  HD
ENDBRANCH 19 20
ENDBRANCH 1 19
BRANCH 1 25
ATOM     25  N   ASN C   4      19.042   1.070  20.210  1.00 22.84 LIG-0.35  N 
ATOM     26 H    ASN C   4      19.607   0.723  20.759  1.00 22.84 LIG 0.16  HD
ATOM     27  C   GLN C   3      19.358   1.441  18.971  1.00 20.90 LIG 0.24  C 
ATOM     28 O    GLN C   3      18.635   2.149  18.274  1.00 18.13 LIG-0.27  OA
BRANCH 27 29
ATOM     29  CA  GLN C   3      20.732   0.991  18.464  1.00 23.72 LIG 0.18  C 
BRANCH 29 30
ATOM     30  CB  GLN C   3      21.779   2.054  18.827  1.00 25.20 LIG 0.04  C 
BRANCH 30 31
ATOM     31  CG  GLN C   3      23.218   1.558  18.760  1.00 28.81 LIG 0.10  C 
BRANCH 31 32
ATOM     32  CD  GLN C   3      24.170   2.403  19.604  1.00 35.20 LIG 0.21  C 
ATOM     33  NE2 GLN C   3      24.087   2.250  20.931  1.00 25.96 LIG-0.37  N 
ATOM     34 21HE GLN C   3      23.523   1.693  21.265  1.00 25.96 LIG 0.16  HD
ATOM     35 22HE GLN C   3      24.598   2.709  21.450  1.00 25.96 LIG 0.16  HD
ATOM     36 OE1  GLN C   3      24.965   3.192  19.064  1.00 36.24 LIG-0.27  OA
ENDBRANCH 31 32
ENDBRANCH 30 31
ENDBRANCH 29 30
BRANCH 29 37
ATOM     37  N   GLN C   3      20.744   0.650  17.020  1.00 22.58 LIG-0.35  N 
ATOM     38 H    GLN C   3      21.211   1.176  16.526  1.00 22.58 LIG 0.16  HD
ATOM     39  C   SER C   2      20.066  -0.407  16.571  1.00 24.53 LIG 0.26  C 
ATOM     40 O    SER C   2      19.449  -1.165  17.325  1.00 22.38 LIG-0.27  OA
BRANCH 39 41
ATOM     41  CA  SER C   2      20.038  -0.683  15.075  1.00 25.92 LIG 0.42  C 
ATOM     42  N   SER C   2      20.401   0.578  14.349  1.00 33.46 LIG 0.62  N 
BRANCH 41 43
ATOM     43  CB  SER C   2      20.947  -1.862  14.725  1.00 31.59 LIG 0.21  C 
BRANCH 43 44
ATOM     44 OG   SER C   2      22.277  -1.700  15.206  1.00 27.93 LIG-0.40  OA
ATOM     45 HG   SER C   2      22.678  -1.131  14.737  1.00 27.93 LIG 0.21  HD
ENDBRANCH 43 44
ENDBRANCH 41 43
ENDBRANCH 39 41
ENDBRANCH 29 37
ENDBRANCH 27 29
ENDBRANCH 1 25
TORSDOF 17
ENDMDL
MODEL 18
USER: ADFR SOLUTION from run 95
USER: SCORE 15.803430 LL:  -2.500 LR: -13.543 RR:   0.000 FEB:  -8.472
USER: RMSD 7.429395
USER: SEED 94
USER: STATUS no improvement in best in 5 clusters for 5 generations
USER: GENES 19
USER: genes 0 Translation |==|  0.43490 0.52721 0.46153
USER: genes 1 Rotation |==|  0.54373 0.80863 0.11825 0.58425
USER: genes 2 Torsion [N]-CA--C-[N] |==|  0.96740
USER: genes 3 Torsion [C]-N--CA-[C] |==|  0.51681
USER: genes 4 Torsion [N]-CA--C-[OXT] |==|  0.09255
USER: genes 5 Torsion [N]-CA--CB-[CG] |==|  0.15822
USER: genes 6 Torsion [CA]-CB--CG-[CD1] |==|  0.79530
USER: genes 7 Torsion [CE1]-CZ--OH-[HH] |==|  0.22880
USER: genes 8 Torsion [C]-CA--CB-[CG] |==|  0.57398
USER: genes 9 Torsion [CA]-CB--CG-[ND2] |==|  0.78994
USER: genes 10 Torsion [C]-CA--N-[C] |==|  0.78397
USER: genes 11 Torsion [N]-C--CA-[N] |==|  0.23455
USER: genes 12 Torsion [C]-CA--CB-[CG] |==|  0.13045
USER: genes 13 Torsion [CA]-CB--CG-[CD] |==|  0.68706
USER: genes 14 Torsion [CB]-CG--CD-[NE2] |==|  0.47683
USER: genes 15 Torsion [C]-CA--N-[C] |==|  0.76667
USER: genes 16 Torsion [N]-C--CA-[N] |==|  0.85704
USER: genes 17 Torsion [C]-CA--CB-[OG] |==|  0.85240
USER: genes 18 Torsion [CA]-CB--OG-[HG] |==|  0.85580
ROOT
ATOM      1  CA  ASN C   4      20.028   3.641  19.408  1.00 23.87 LIG 0.18  C 
ENDROOT
BRANCH 1 2
ATOM      2  C   ASN C   4      20.435   4.486  20.616  1.00 24.50 LIG 0.24  C 
ATOM      3 O    ASN C   4      20.060   5.650  20.738  1.00 25.26 LIG-0.27  OA
ATOM      4  N   TYR C   5      21.209   3.870  21.505  1.00 25.46 LIG-0.34  N 
ATOM      5 H    TYR C   5      21.475   3.058  21.407  1.00 25.46 LIG 0.16  HD
BRANCH 4 6
ATOM      6  CA  TYR C   5      21.694   4.495  22.741  1.00 27.53 LIG 0.19  C 
BRANCH 6 7
ATOM      7  C   TYR C   5      22.668   3.563  23.442  1.00 27.73 LIG 0.20  C 
ATOM      8 OXT  TYR C   5      23.407   2.820  22.782  1.00 28.08 LIG-0.65  OA
ATOM      9 O    TYR C   5      22.736   3.593  24.675  1.00 30.08 LIG-0.65  OA
ENDBRANCH 6 7
BRANCH 6 10
ATOM     10  CB  TYR C   5      20.516   4.800  23.670  1.00 26.02 LIG 0.07  C 
BRANCH 10 11
ATOM     11  CG  TYR C   5      19.747   3.554  23.962  1.00 28.29 LIG-0.06  A 
ATOM     12  CD1 TYR C   5      18.930   2.997  22.988  1.00 28.93 LIG 0.01  A 
ATOM     13  CE1 TYR C   5      18.251   1.821  23.221  1.00 31.65 LIG 0.04  A 
ATOM     14  CZ  TYR C   5      18.402   1.166  24.429  1.00 33.19 LIG 0.07  A 
ATOM     15  CE2 TYR C   5      19.227   1.687  25.408  1.00 31.83 LIG 0.04  A 
ATOM     16  CD2 TYR C   5      19.902   2.879  25.167  1.00 30.09 LIG 0.01  A 
BRANCH 14 17
ATOM     17 OH   TYR C   5      17.717  -0.010  24.632  1.00 32.69 LIG-0.36  OA
ATOM     18 HH   TYR C   5      18.142  -0.645  24.283  1.00 32.69 LIG 0.22  HD
ENDBRANCH 14 17
ENDBRANCH 10 11
ENDBRANCH 6 10
ENDBRANCH 4 6
ENDBRANCH 1 2
BRANCH 1 19
ATOM     19  CB  ASN C   4      18.539   3.323  19.412  1.00 21.84 LIG 0.14  C 
BRANCH 19 20
ATOM     20  CG  ASN C   4      18.248   2.040  18.670  1.00 23.44 LIG 0.22  C 
ATOM     21 OD1  ASN C   4      17.917   1.040  19.292  1.00 24.15 LIG-0.27  OA
ATOM     22  ND2 ASN C   4      18.288   2.080  17.340  1.00 22.78 LIG-0.37  N 
ATOM     23 21HD ASN C   4      18.076   1.384  16.882  1.00 22.78 LIG 0.16  HD
ATOM     24 22HD ASN C   4      18.526   2.804  16.939  1.00 22.78 LIG 0.16  HD
ENDBRANCH 19 20
ENDBRANCH 1 19
BRANCH 1 25
ATOM     25  N   ASN C   4      20.770   2.384  19.284  1.00 22.84 LIG-0.35  N 
ATOM     26 H    ASN C   4      20.330   1.692  19.544  1.00 22.84 LIG 0.16  HD
ATOM     27  C   GLN C   3      22.012   2.329  18.810  1.00 20.90 LIG 0.24  C 
ATOM     28 O    GLN C   3      22.724   3.319  18.667  1.00 18.13 LIG-0.27  OA
BRANCH 27 29
ATOM     29  CA  GLN C   3      22.554   0.929  18.506  1.00 23.72 LIG 0.18  C 
BRANCH 29 30
ATOM     30  CB  GLN C   3      24.073   0.913  18.727  1.00 25.20 LIG 0.04  C 
BRANCH 30 31
ATOM     31  CG  GLN C   3      24.520   1.557  20.034  1.00 28.81 LIG 0.10  C 
BRANCH 31 32
ATOM     32  CD  GLN C   3      25.308   2.846  19.814  1.00 35.20 LIG 0.21  C 
ATOM     33  NE2 GLN C   3      25.590   3.567  20.906  1.00 25.96 LIG-0.37  N 
ATOM     34 21HE GLN C   3      25.334   3.293  21.680  1.00 25.96 LIG 0.16  HD
ATOM     35 22HE GLN C   3      26.026   4.305  20.834  1.00 25.96 LIG 0.16  HD
ATOM     36 OE1  GLN C   3      25.651   3.192  18.670  1.00 36.24 LIG-0.27  OA
ENDBRANCH 31 32
ENDBRANCH 30 31
ENDBRANCH 29 30
BRANCH 29 37
ATOM     37  N   GLN C   3      22.169   0.426  17.164  1.00 22.58 LIG-0.35  N 
ATOM     38 H    GLN C   3      22.757   0.546  16.548  1.00 22.58 LIG 0.16  HD
ATOM     39  C   SER C   2      20.987  -0.163  16.978  1.00 24.53 LIG 0.26  C 
ATOM     40 O    SER C   2      20.194  -0.360  17.903  1.00 22.38 LIG-0.27  OA
BRANCH 39 41
ATOM     41  CA  SER C   2      20.594  -0.597  15.574  1.00 25.92 LIG 0.42  C 
ATOM     42  N   SER C   2      20.773   0.566  14.645  1.00 33.46 LIG 0.62  N 
BRANCH 41 43
ATOM     43  CB  SER C   2      21.385  -1.835  15.148  1.00 31.59 LIG 0.21  C 
BRANCH 43 44
ATOM     44 OG   SER C   2      22.792  -1.670  15.286  1.00 27.93 LIG-0.40  OA
ATOM     45 HG   SER C   2      23.031  -0.963  14.899  1.00 27.93 LIG 0.21  HD
ENDBRANCH 43 44
ENDBRANCH 41 43
ENDBRANCH 39 41
ENDBRANCH 29 37
ENDBRANCH 27 29
ENDBRANCH 1 25
TORSDOF 17
ENDMDL
MODEL 19
USER: ADFR SOLUTION from run 2
USER: SCORE 14.862724 LL:  -2.738 LR: -13.428 RR:   0.000 FEB:  -8.357
USER: RMSD 7.816579
USER: SEED 205
USER: STATUS no improvement in best in 9 clusters for 5 generations
USER: GENES 19
USER: genes 0 Translation |==|  0.62907 0.42869 0.45789
USER: genes 1 Rotation |==|  0.99729 0.49818 0.44804 0.50196
USER: genes 2 Torsion [N]-CA--C-[N] |==|  0.33216
USER: genes 3 Torsion [C]-N--CA-[C] |==|  0.59846
USER: genes 4 Torsion [N]-CA--C-[OXT] |==|  0.56970
USER: genes 5 Torsion [N]-CA--CB-[CG] |==|  0.87820
USER: genes 6 Torsion [CA]-CB--CG-[CD1] |==|  0.28408
USER: genes 7 Torsion [CE1]-CZ--OH-[HH] |==|  0.63753
USER: genes 8 Torsion [C]-CA--CB-[CG] |==|  0.15749
USER: genes 9 Torsion [CA]-CB--CG-[ND2] |==|  0.78068
USER: genes 10 Torsion [C]-CA--N-[C] |==|  0.66055
USER: genes 11 Torsion [N]-C--CA-[N] |==|  0.36748
USER: genes 12 Torsion [C]-CA--CB-[CG] |==|  0.41389
USER: genes 13 Torsion [CA]-CB--CG-[CD] |==|  0.17924
USER: genes 14 Torsion [CB]-CG--CD-[NE2] |==|  0.60689
USER: genes 15 Torsion [C]-CA--N-[C] |==|  0.20617
USER: genes 16 Torsion [N]-C--CA-[N] |==|  0.74326
USER: genes 17 Torsion [C]-CA--CB-[OG] |==|  0.45725
USER: genes 18 Torsion [CA]-CB--OG-[HG] |==|  0.74065
ROOT
ATOM      1  CA  ASN C   4      23.378   2.015  19.337  1.00 23.87 LIG 0.18  C 
ENDROOT
BRANCH 1 2
ATOM      2  C   ASN C   4      22.595   3.134  20.028  1.00 24.50 LIG 0.24  C 
ATOM      3 O    ASN C   4      22.244   4.141  19.415  1.00 25.26 LIG-0.27  OA
ATOM      4  N   TYR C   5      22.332   2.931  21.315  1.00 25.46 LIG-0.34  N 
ATOM      5 H    TYR C   5      22.590   2.228  21.738  1.00 25.46 LIG 0.16  HD
BRANCH 4 6
ATOM      6  CA  TYR C   5      21.579   3.870  22.153  1.00 27.53 LIG 0.19  C 
BRANCH 6 7
ATOM      7  C   TYR C   5      22.143   3.868  23.565  1.00 27.73 LIG 0.20  C 
ATOM      8 OXT  TYR C   5      21.430   4.195  24.524  1.00 28.08 LIG-0.65  OA
ATOM      9 O    TYR C   5      23.308   3.497  23.738  1.00 30.08 LIG-0.65  OA
ENDBRANCH 6 7
BRANCH 6 10
ATOM     10  CB  TYR C   5      20.101   3.470  22.192  1.00 26.02 LIG 0.07  C 
BRANCH 10 11
ATOM     11  CG  TYR C   5      19.625   3.106  20.824  1.00 28.29 LIG-0.06  A 
ATOM     12  CD1 TYR C   5      19.478   1.771  20.471  1.00 28.93 LIG 0.01  A 
ATOM     13  CE1 TYR C   5      18.993   1.415  19.232  1.00 31.65 LIG 0.04  A 
ATOM     14  CZ  TYR C   5      18.618   2.395  18.332  1.00 33.19 LIG 0.07  A 
ATOM     15  CE2 TYR C   5      18.733   3.732  18.665  1.00 31.83 LIG 0.04  A 
ATOM     16  CD2 TYR C   5      19.232   4.082  19.916  1.00 30.09 LIG 0.01  A 
BRANCH 14 17
ATOM     17 OH   TYR C   5      18.130   2.012  17.104  1.00 32.69 LIG-0.36  OA
ATOM     18 HH   TYR C   5      18.531   2.435  16.499  1.00 32.69 LIG 0.22  HD
ENDBRANCH 14 17
ENDBRANCH 10 11
ENDBRANCH 6 10
ENDBRANCH 4 6
ENDBRANCH 1 2
BRANCH 1 19
ATOM     19  CB  ASN C   4      24.737   2.492  18.843  1.00 21.84 LIG 0.14  C 
BRANCH 19 20
ATOM     20  CG  ASN C   4      25.560   3.071  19.970  1.00 23.44 LIG 0.22  C 
ATOM     21 OD1  ASN C   4      26.491   2.428  20.435  1.00 24.15 LIG-0.27  OA
ATOM     22  ND2 ASN C   4      25.277   4.313  20.357  1.00 22.78 LIG-0.37  N 
ATOM     23 21HD ASN C   4      25.758   4.696  20.958  1.00 22.78 LIG 0.16  HD
ATOM     24 22HD ASN C   4      24.613   4.733  20.006  1.00 22.78 LIG 0.16  HD
ENDBRANCH 19 20
ENDBRANCH 1 19
BRANCH 1 25
ATOM     25  N   ASN C   4      22.667   1.398  18.215  1.00 22.84 LIG-0.35  N 
ATOM     26 H    ASN C   4      22.442   1.952  17.596  1.00 22.84 LIG 0.16  HD
ATOM     27  C   GLN C   3      22.398   0.095  18.165  1.00 20.90 LIG 0.24  C 
ATOM     28 O    GLN C   3      22.496  -0.650  19.136  1.00 18.13 LIG-0.27  OA
BRANCH 27 29
ATOM     29  CA  GLN C   3      21.881  -0.433  16.824  1.00 23.72 LIG 0.18  C 
BRANCH 29 30
ATOM     30  CB  GLN C   3      20.357  -0.609  16.902  1.00 25.20 LIG 0.04  C 
BRANCH 30 31
ATOM     31  CG  GLN C   3      19.637  -0.397  15.577  1.00 28.81 LIG 0.10  C 
BRANCH 31 32
ATOM     32  CD  GLN C   3      20.019  -1.437  14.527  1.00 35.20 LIG 0.21  C 
ATOM     33  NE2 GLN C   3      20.146  -0.998  13.269  1.00 25.96 LIG-0.37  N 
ATOM     34 21HE GLN C   3      20.021  -0.167  13.090  1.00 25.96 LIG 0.16  HD
ATOM     35 22HE GLN C   3      20.354  -1.548  12.640  1.00 25.96 LIG 0.16  HD
ATOM     36 OE1  GLN C   3      20.187  -2.627  14.847  1.00 36.24 LIG-0.27  OA
ENDBRANCH 31 32
ENDBRANCH 30 31
ENDBRANCH 29 30
BRANCH 29 37
ATOM     37  N   GLN C   3      22.573  -1.665  16.369  1.00 22.58 LIG-0.35  N 
ATOM     38 H    GLN C   3      23.129  -1.552  15.724  1.00 22.58 LIG 0.16  HD
ATOM     39  C   SER C   2      22.316  -2.836  16.953  1.00 24.53 LIG 0.26  C 
ATOM     40 O    SER C   2      21.546  -2.943  17.911  1.00 22.38 LIG-0.27  OA
BRANCH 39 41
ATOM     41  CA  SER C   2      22.985  -4.091  16.410  1.00 25.92 LIG 0.42  C 
ATOM     42  N   SER C   2      22.076  -4.719  15.398  1.00 33.46 LIG 0.62  N 
BRANCH 41 43
ATOM     43  CB  SER C   2      24.373  -3.767  15.854  1.00 31.59 LIG 0.21  C 
BRANCH 43 44
ATOM     44 OG   SER C   2      25.177  -4.925  15.658  1.00 27.93 LIG-0.40  OA
ATOM     45 HG   SER C   2      25.649  -5.058  16.340  1.00 27.93 LIG 0.21  HD
ENDBRANCH 43 44
ENDBRANCH 41 43
ENDBRANCH 39 41
ENDBRANCH 29 37
ENDBRANCH 27 29
ENDBRANCH 1 25
TORSDOF 17
ENDMDL
MODEL 20
USER: ADFR SOLUTION from run 169
USER: SCORE 14.888577 LL:  -2.414 LR: -13.350 RR:   0.000 FEB:  -8.279
USER: RMSD 8.019321
USER: SEED 168
USER: STATUS no improvement in best in 5 clusters for 5 generations
USER: GENES 19
USER: genes 0 Translation |==|  0.60328 0.38356 0.46452
USER: genes 1 Rotation |==|  0.98542 0.38180 0.51720 0.50996
USER: genes 2 Torsion [N]-CA--C-[N] |==|  0.42448
USER: genes 3 Torsion [C]-N--CA-[C] |==|  0.52502
USER: genes 4 Torsion [N]-CA--C-[OXT] |==|  0.53156
USER: genes 5 Torsion [N]-CA--CB-[CG] |==|  0.16208
USER: genes 6 Torsion [CA]-CB--CG-[CD1] |==|  0.75078
USER: genes 7 Torsion [CE1]-CZ--OH-[HH] |==|  0.26015
USER: genes 8 Torsion [C]-CA--CB-[CG] |==|  0.95598
USER: genes 9 Torsion [CA]-CB--CG-[ND2] |==|  0.25895
USER: genes 10 Torsion [C]-CA--N-[C] |==|  0.65211
USER: genes 11 Torsion [N]-C--CA-[N] |==|  0.21667
USER: genes 12 Torsion [C]-CA--CB-[CG] |==|  0.42570
USER: genes 13 Torsion [CA]-CB--CG-[CD] |==|  0.16127
USER: genes 14 Torsion [CB]-CG--CD-[NE2] |==|  0.69297
USER: genes 15 Torsion [C]-CA--N-[C] |==|  0.18253
USER: genes 16 Torsion [N]-C--CA-[N] |==|  0.45424
USER: genes 17 Torsion [C]-CA--CB-[OG] |==|  0.19280
USER: genes 18 Torsion [CA]-CB--OG-[HG] |==|  0.01122
ROOT
ATOM      1  CA  ASN C   4      22.933   1.271  19.466  1.00 23.87 LIG 0.18  C 
ENDROOT
BRANCH 1 2
ATOM      2  C   ASN C   4      22.600   2.702  19.892  1.00 24.50 LIG 0.24  C 
ATOM      3 O    ASN C   4      22.324   3.568  19.063  1.00 25.26 LIG-0.27  OA
ATOM      4  N   TYR C   5      22.632   2.926  21.202  1.00 25.46 LIG-0.34  N 
ATOM      5 H    TYR C   5      22.836   2.317  21.774  1.00 25.46 LIG 0.16  HD
BRANCH 4 6
ATOM      6  CA  TYR C   5      22.327   4.223  21.817  1.00 27.53 LIG 0.19  C 
BRANCH 6 7
ATOM      7  C   TYR C   5      22.673   4.186  23.297  1.00 27.73 LIG 0.20  C 
ATOM      8 OXT  TYR C   5      22.302   5.098  24.048  1.00 28.08 LIG-0.65  OA
ATOM      9 O    TYR C   5      23.292   3.212  23.738  1.00 30.08 LIG-0.65  OA
ENDBRANCH 6 7
BRANCH 6 10
ATOM     10  CB  TYR C   5      20.841   4.547  21.646  1.00 26.02 LIG 0.07  C 
BRANCH 10 11
ATOM     11  CG  TYR C   5      20.000   3.477  22.263  1.00 28.29 LIG-0.06  A 
ATOM     12  CD1 TYR C   5      19.604   2.383  21.506  1.00 28.93 LIG 0.01  A 
ATOM     13  CE1 TYR C   5      18.870   1.361  22.069  1.00 31.65 LIG 0.04  A 
ATOM     14  CZ  TYR C   5      18.544   1.406  23.411  1.00 33.19 LIG 0.07  A 
ATOM     15  CE2 TYR C   5      18.944   2.474  24.193  1.00 31.83 LIG 0.04  A 
ATOM     16  CD2 TYR C   5      19.678   3.506  23.614  1.00 30.09 LIG 0.01  A 
BRANCH 14 17
ATOM     17 OH   TYR C   5      17.816   0.371  23.949  1.00 32.69 LIG-0.36  OA
ATOM     18 HH   TYR C   5      18.339  -0.197  24.280  1.00 32.69 LIG 0.22  HD
ENDBRANCH 14 17
ENDBRANCH 10 11
ENDBRANCH 6 10
ENDBRANCH 4 6
ENDBRANCH 1 2
BRANCH 1 19
ATOM     19  CB  ASN C   4      24.435   1.041  19.366  1.00 21.84 LIG 0.14  C 
BRANCH 19 20
ATOM     20  CG  ASN C   4      25.190   2.349  19.330  1.00 23.44 LIG 0.22  C 
ATOM     21 OD1  ASN C   4      25.310   2.954  18.275  1.00 24.15 LIG-0.27  OA
ATOM     22  ND2 ASN C   4      25.630   2.831  20.491  1.00 22.78 LIG-0.37  N 
ATOM     23 21HD ASN C   4      26.016   3.599  20.519  1.00 22.78 LIG 0.16  HD
ATOM     24 22HD ASN C   4      25.526   2.375  21.214  1.00 22.78 LIG 0.16  HD
ENDBRANCH 19 20
ENDBRANCH 1 19
BRANCH 1 25
ATOM     25  N   ASN C   4      22.317   0.869  18.200  1.00 22.84 LIG-0.35  N 
ATOM     26 H    ASN C   4      22.492   1.396  17.543  1.00 22.84 LIG 0.16  HD
ATOM     27  C   GLN C   3      21.555  -0.217  18.085  1.00 20.90 LIG 0.24  C 
ATOM     28 O    GLN C   3      21.107  -0.831  19.050  1.00 18.13 LIG-0.27  OA
BRANCH 27 29
ATOM     29  CA  GLN C   3      21.197  -0.639  16.657  1.00 23.72 LIG 0.18  C 
BRANCH 29 30
ATOM     30  CB  GLN C   3      19.898  -1.457  16.681  1.00 25.20 LIG 0.04  C 
BRANCH 30 31
ATOM     31  CG  GLN C   3      19.098  -1.395  15.385  1.00 28.81 LIG 0.10  C 
BRANCH 31 32
ATOM     32  CD  GLN C   3      19.899  -1.875  14.178  1.00 35.20 LIG 0.21  C 
ATOM     33  NE2 GLN C   3      20.246  -0.943  13.282  1.00 25.96 LIG-0.37  N 
ATOM     34 21HE GLN C   3      20.023  -0.122  13.408  1.00 25.96 LIG 0.16  HD
ATOM     35 22HE GLN C   3      20.692  -1.165  12.581  1.00 25.96 LIG 0.16  HD
ATOM     36 OE1  GLN C   3      20.193  -3.077  14.049  1.00 36.24 LIG-0.27  OA
ENDBRANCH 31 32
ENDBRANCH 30 31
ENDBRANCH 29 30
BRANCH 29 37
ATOM     37  N   GLN C   3      22.300  -1.344  15.956  1.00 22.58 LIG-0.35  N 
ATOM     38 H    GLN C   3      22.627  -0.925  15.281  1.00 22.58 LIG 0.16  HD
ATOM     39  C   SER C   2      22.716  -2.536  16.383  1.00 24.53 LIG 0.26  C 
ATOM     40 O    SER C   2      22.251  -3.078  17.389  1.00 22.38 LIG-0.27  OA
BRANCH 39 41
ATOM     41  CA  SER C   2      23.795  -3.264  15.595  1.00 25.92 LIG 0.42  C 
ATOM     42  N   SER C   2      24.370  -4.347  16.458  1.00 33.46 LIG 0.62  N 
BRANCH 41 43
ATOM     43  CB  SER C   2      23.239  -3.784  14.268  1.00 31.59 LIG 0.21  C 
BRANCH 43 44
ATOM     44 OG   SER C   2      22.938  -2.742  13.346  1.00 27.93 LIG-0.40  OA
ATOM     45 HG   SER C   2      23.171  -2.003  13.671  1.00 27.93 LIG 0.21  HD
ENDBRANCH 43 44
ENDBRANCH 41 43
ENDBRANCH 39 41
ENDBRANCH 29 37
ENDBRANCH 27 29
ENDBRANCH 1 25
TORSDOF 17
ENDMDL
