MODEL 1
USER: ADFR SOLUTION from run 37
USER: SCORE 21.226146 LL:  -2.976 LR: -18.631 RR:   0.000 FEB: -12.665
USER: RMSD 6.310659
USER: SEED 36
USER: STATUS no improvement in best in 6 clusters for 5 generations
USER: GENES 22
USER: genes 0 Translation |==|  0.58331 0.37101 0.38401
USER: genes 1 Rotation |==|  0.44162 0.78561 0.19789 0.77157
USER: genes 2 Torsion [C]-CA--N-[C] |==|  0.81831
USER: genes 3 Torsion [N]-C--CA-[N] |==|  0.21690
USER: genes 4 Torsion [C]-CA--CB-[CG] |==|  0.37907
USER: genes 5 Torsion [CA]-CB--CG-[CD] |==|  0.46071
USER: genes 6 Torsion [CB]-CG--CD-[NE] |==|  0.83299
USER: genes 7 Torsion [CG]-CD--NE-[CZ] |==|  0.33380
USER: genes 8 Torsion [N]-CA--C-[N] |==|  0.89445
USER: genes 9 Torsion [C]-N--CA-[CB] |==|  0.86566
USER: genes 10 Torsion [N]-CA--C-[N] |==|  0.92381
USER: genes 11 Torsion [C]-N--CA-[C] |==|  0.62828
USER: genes 12 Torsion [N]-CA--C-[O] |==|  0.58578
USER: genes 13 Torsion [N]-CA--CB-[CG] |==|  0.86612
USER: genes 14 Torsion [CA]-CB--CG-[CD1] |==|  0.87726
USER: genes 15 Torsion [N]-CA--CB-[CG2] |==|  0.44405
USER: genes 16 Torsion [CA]-CB--CG1-[CD1] |==|  0.36410
USER: genes 17 Torsion [N]-CA--CB-[CG] |==|  0.48796
USER: genes 18 Torsion [CA]-CB--CG-[CD] |==|  0.15717
USER: genes 19 Torsion [CB]-CG--CD-[CE] |==|  0.60907
USER: genes 20 Torsion [CG]-CD--CE-[NZ] |==|  0.59608
USER: genes 21 Torsion [CD]-CE--NZ-[HZ2] |==|  0.05949
ROOT
ATOM      1  CA  LYS C   3      22.410   1.406  18.875  1.00 27.41 LIG 0.18  C 
ENDROOT
BRANCH 1 2
ATOM      2  N   LYS C   3      23.316   1.855  19.946  1.00 28.91 LIG-0.35  N 
ATOM      3  C   ARG C   2      23.498   3.155  20.161  1.00 30.62 LIG 0.26  C 
ATOM      4 O    ARG C   2      22.781   4.000  19.621  1.00 31.16 LIG-0.27  OA
ATOM      5 H    LYS C   3      23.695   1.226  20.393  1.00 28.91 LIG 0.16  HD
BRANCH 3 6
ATOM      6  CA  ARG C   2      24.633   3.627  21.093  1.00 31.50 LIG 0.40  C 
ATOM      7  N   ARG C   2      25.938   3.570  20.394  1.00 33.48 LIG 0.61  N 
BRANCH 6 8
ATOM      8  CB  ARG C   2      24.410   5.011  21.708  1.00 31.91 LIG 0.05  C 
BRANCH 8 9
ATOM      9  CG  ARG C   2      24.748   5.129  23.195  1.00 31.74 LIG 0.02  C 
BRANCH 9 10
ATOM     10  CD  ARG C   2      24.831   6.585  23.634  1.00 33.46 LIG 0.14  C 
BRANCH 10 11
ATOM     11  NE  ARG C   2      25.854   7.374  22.930  1.00 33.35 LIG-0.23  N 
ATOM     12  CZ  ARG C   2      25.630   8.462  22.195  1.00 33.45 LIG 0.67  C 
ATOM     13  NH1 ARG C   2      24.410   8.948  22.060  1.00 31.52 LIG-0.23  N 
ATOM     14  NH2 ARG C   2      26.646   9.083  21.598  1.00 34.66 LIG-0.23  N 
ATOM     15 1HH1 ARG C   2      23.748   8.562  22.449  1.00 31.52 LIG 0.17  HD
ATOM     16 2HH1 ARG C   2      24.278   9.651  21.583  1.00 31.52 LIG 0.17  HD
ATOM     17 1HH2 ARG C   2      27.447   8.780  21.686  1.00 34.66 LIG 0.17  HD
ATOM     18 2HH2 ARG C   2      26.502   9.785  21.123  1.00 34.66 LIG 0.17  HD
ATOM     19 HE   ARG C   2      26.669   7.110  22.999  1.00 33.35 LIG 0.18  HD
ENDBRANCH 10 11
ENDBRANCH 9 10
ENDBRANCH 8 9
ENDBRANCH 6 8
ENDBRANCH 3 6
ENDBRANCH 1 2
BRANCH 1 20
ATOM     20  C   LYS C   3      20.930   1.734  19.041  1.00 25.28 LIG 0.24  C 
ATOM     21 O    LYS C   3      20.282   2.025  18.053  1.00 21.80 LIG-0.27  OA
ATOM     22  N   ILE C   4      20.394   1.665  20.253  1.00 24.70 LIG-0.35  N 
ATOM     23 H    ILE C   4      20.841   1.545  20.978  1.00 24.70 LIG 0.16  HD
BRANCH 22 24
ATOM     24  CA  ILE C   4      18.947   1.795  20.436  1.00 24.27 LIG 0.18  C 
BRANCH 24 25
ATOM     25  C   ILE C   4      18.172   0.530  20.042  1.00 24.50 LIG 0.24  C 
ATOM     26  N   LEU C   5      18.745  -0.237  19.114  1.00 23.50 LIG-0.34  N 
ATOM     27 H    LEU C   5      19.476  -0.025  18.713  1.00 23.50 LIG 0.16  HD
ATOM     28 O    ILE C   4      17.098   0.249  20.581  1.00 23.85 LIG-0.27  OA
BRANCH 26 29
ATOM     29  CA  LEU C   5      18.187  -1.516  18.686  1.00 24.14 LIG 0.18  C 
BRANCH 29 30
ATOM     30  C   LEU C   5      19.298  -2.572  18.637  1.00 24.32 LIG 0.20  C 
ATOM     31 O    LEU C   5      19.226  -3.494  17.811  1.00 24.96 LIG-0.65  OA
ATOM     32 OXT  LEU C   5      20.295  -2.528  19.369  1.00 24.51 LIG-0.65  OA
ENDBRANCH 29 30
BRANCH 29 33
ATOM     33  CB  LEU C   5      17.514  -1.361  17.318  1.00 23.93 LIG 0.04  C 
BRANCH 33 34
ATOM     34  CG  LEU C   5      16.539  -0.184  17.097  1.00 26.81 LIG-0.02  C 
ATOM     35  CD1 LEU C   5      15.590  -0.020  18.289  1.00 29.09 LIG 0.01  C 
ATOM     36  CD2 LEU C   5      17.265   1.121  16.832  1.00 28.70 LIG 0.01  C 
ENDBRANCH 33 34
ENDBRANCH 29 33
ENDBRANCH 26 29
ENDBRANCH 24 25
BRANCH 24 37
ATOM     37  CB  ILE C   4      18.377   3.004  19.684  1.00 24.66 LIG 0.01  C 
ATOM     38  CG2 ILE C   4      16.865   2.844  19.471  1.00 24.52 LIG 0.01  C 
BRANCH 37 39
ATOM     39  CG1 ILE C   4      18.709   4.313  20.410  1.00 25.15 LIG 0.00  C 
ATOM     40  CD1 ILE C   4      19.288   5.393  19.533  1.00 24.74 LIG 0.01  C 
ENDBRANCH 37 39
ENDBRANCH 24 37
ENDBRANCH 22 24
ENDBRANCH 1 20
BRANCH 1 41
ATOM     41  CB  LYS C   3      22.548  -0.076  18.548  1.00 27.76 LIG 0.04  C 
BRANCH 41 42
ATOM     42  CG  LYS C   3      21.555  -0.551  17.533  1.00 29.79 LIG 0.00  C 
BRANCH 42 43
ATOM     43  CD  LYS C   3      21.656   0.250  16.269  1.00 31.63 LIG 0.03  C 
BRANCH 43 44
ATOM     44  CE  LYS C   3      20.278   0.524  15.690  1.00 35.23 LIG 0.23  C 
BRANCH 44 45
ATOM     45  NZ  LYS C   3      20.285   0.534  14.203  1.00 39.07 LIG-0.08  N 
ATOM     46 HZ3  LYS C   3      19.542   0.149  13.899  1.00 39.07 LIG 0.27  HD
ATOM     47 HZ2  LYS C   3      20.994   0.086  13.906  1.00 39.07 LIG 0.27  HD
ATOM     48 HZ1  LYS C   3      20.322   1.375  13.912  1.00 39.07 LIG 0.27  HD
ENDBRANCH 44 45
ENDBRANCH 43 44
ENDBRANCH 42 43
ENDBRANCH 41 42
ENDBRANCH 1 41
TORSDOF 20
ENDMDL
MODEL 2
USER: ADFR SOLUTION from run 194
USER: SCORE 20.191227 LL:  -2.309 LR: -18.421 RR:   0.000 FEB: -12.455
USER: RMSD 7.184644
USER: SEED 193
USER: STATUS no improvement in best in 5 clusters for 5 generations
USER: GENES 22
USER: genes 0 Translation |==|  0.52371 0.39432 0.39702
USER: genes 1 Rotation |==|  0.43910 0.80527 0.23661 0.78936
USER: genes 2 Torsion [C]-CA--N-[C] |==|  0.72285
USER: genes 3 Torsion [N]-C--CA-[N] |==|  0.36543
USER: genes 4 Torsion [C]-CA--CB-[CG] |==|  0.43082
USER: genes 5 Torsion [CA]-CB--CG-[CD] |==|  0.36274
USER: genes 6 Torsion [CB]-CG--CD-[NE] |==|  0.83774
USER: genes 7 Torsion [CG]-CD--NE-[CZ] |==|  0.29496
USER: genes 8 Torsion [N]-CA--C-[N] |==|  0.32487
USER: genes 9 Torsion [C]-N--CA-[CB] |==|  0.75963
USER: genes 10 Torsion [N]-CA--C-[N] |==|  0.14521
USER: genes 11 Torsion [C]-N--CA-[C] |==|  0.61737
USER: genes 12 Torsion [N]-CA--C-[O] |==|  0.18209
USER: genes 13 Torsion [N]-CA--CB-[CG] |==|  0.61518
USER: genes 14 Torsion [CA]-CB--CG-[CD1] |==|  0.24923
USER: genes 15 Torsion [N]-CA--CB-[CG2] |==|  0.84585
USER: genes 16 Torsion [CA]-CB--CG1-[CD1] |==|  0.36545
USER: genes 17 Torsion [N]-CA--CB-[CG] |==|  0.62486
USER: genes 18 Torsion [CA]-CB--CG-[CD] |==|  0.73155
USER: genes 19 Torsion [CB]-CG--CD-[CE] |==|  0.34633
USER: genes 20 Torsion [CG]-CD--CE-[NZ] |==|  0.25442
USER: genes 21 Torsion [CD]-CE--NZ-[HZ2] |==|  0.24061
ROOT
ATOM      1  CA  LYS C   3      21.426   1.790  19.148  1.00 27.41 LIG 0.18  C 
ENDROOT
BRANCH 1 2
ATOM      2  N   LYS C   3      22.308   2.199  20.255  1.00 28.91 LIG-0.35  N 
ATOM      3  C   ARG C   2      22.880   3.400  20.241  1.00 30.62 LIG 0.26  C 
ATOM      4 O    ARG C   2      22.542   4.260  19.427  1.00 31.16 LIG-0.27  OA
ATOM      5 H    LYS C   3      22.410   1.614  20.878  1.00 28.91 LIG 0.16  HD
BRANCH 3 6
ATOM      6  CA  ARG C   2      23.999   3.729  21.251  1.00 31.50 LIG 0.40  C 
ATOM      7  N   ARG C   2      25.160   4.338  20.561  1.00 33.48 LIG 0.61  N 
BRANCH 6 8
ATOM      8  CB  ARG C   2      23.552   4.601  22.427  1.00 31.91 LIG 0.05  C 
BRANCH 8 9
ATOM      9  CG  ARG C   2      24.391   4.466  23.699  1.00 31.74 LIG 0.02  C 
BRANCH 9 10
ATOM     10  CD  ARG C   2      24.804   5.828  24.241  1.00 33.46 LIG 0.14  C 
BRANCH 10 11
ATOM     11  NE  ARG C   2      25.581   6.647  23.298  1.00 33.35 LIG-0.23  N 
ATOM     12  CZ  ARG C   2      25.132   7.713  22.638  1.00 33.45 LIG 0.67  C 
ATOM     13  NH1 ARG C   2      23.897   8.146  22.811  1.00 31.52 LIG-0.23  N 
ATOM     14  NH2 ARG C   2      25.937   8.365  21.800  1.00 34.66 LIG-0.23  N 
ATOM     15 1HH1 ARG C   2      23.372   7.739  23.356  1.00 31.52 LIG 0.17  HD
ATOM     16 2HH1 ARG C   2      23.619   8.835  22.379  1.00 31.52 LIG 0.17  HD
ATOM     17 1HH2 ARG C   2      26.747   8.098  21.686  1.00 34.66 LIG 0.17  HD
ATOM     18 2HH2 ARG C   2      25.647   9.053  21.374  1.00 34.66 LIG 0.17  HD
ATOM     19 HE   ARG C   2      26.398   6.417  23.161  1.00 33.35 LIG 0.18  HD
ENDBRANCH 10 11
ENDBRANCH 9 10
ENDBRANCH 8 9
ENDBRANCH 6 8
ENDBRANCH 3 6
ENDBRANCH 1 2
BRANCH 1 20
ATOM     20  C   LYS C   3      19.924   1.906  19.385  1.00 25.28 LIG 0.24  C 
ATOM     21 O    LYS C   3      19.422   1.250  20.278  1.00 21.80 LIG-0.27  OA
ATOM     22  N   ILE C   4      19.222   2.739  18.628  1.00 24.70 LIG-0.35  N 
ATOM     23 H    ILE C   4      19.531   3.150  17.939  1.00 24.70 LIG 0.16  HD
BRANCH 22 24
ATOM     24  CA  ILE C   4      17.817   3.018  18.933  1.00 24.27 LIG 0.18  C 
BRANCH 24 25
ATOM     25  C   ILE C   4      17.533   3.113  20.438  1.00 24.50 LIG 0.24  C 
ATOM     26  N   LEU C   5      18.313   3.948  21.124  1.00 23.50 LIG-0.34  N 
ATOM     27 H    LEU C   5      18.972   4.374  20.773  1.00 23.50 LIG 0.16  HD
ATOM     28 O    ILE C   4      16.618   2.465  20.954  1.00 23.85 LIG-0.27  OA
BRANCH 26 29
ATOM     29  CA  LEU C   5      18.124   4.223  22.546  1.00 24.14 LIG 0.18  C 
BRANCH 29 30
ATOM     30  C   LEU C   5      18.299   5.724  22.808  1.00 24.32 LIG 0.20  C 
ATOM     31 O    LEU C   5      17.487   6.525  22.324  1.00 24.96 LIG-0.65  OA
ATOM     32 OXT  LEU C   5      19.205   6.177  23.520  1.00 24.51 LIG-0.65  OA
ENDBRANCH 29 30
BRANCH 29 33
ATOM     33  CB  LEU C   5      19.119   3.401  23.373  1.00 23.93 LIG 0.04  C 
BRANCH 33 34
ATOM     34  CG  LEU C   5      18.629   2.733  24.677  1.00 26.81 LIG-0.02  C 
ATOM     35  CD1 LEU C   5      18.088   1.324  24.409  1.00 29.09 LIG 0.01  C 
ATOM     36  CD2 LEU C   5      19.713   2.677  25.735  1.00 28.70 LIG 0.01  C 
ENDBRANCH 33 34
ENDBRANCH 29 33
ENDBRANCH 26 29
ENDBRANCH 24 25
BRANCH 24 37
ATOM     37  CB  ILE C   4      16.873   1.991  18.294  1.00 24.66 LIG 0.01  C 
ATOM     38  CG2 ILE C   4      17.104   1.915  16.778  1.00 24.52 LIG 0.01  C 
BRANCH 37 39
ATOM     39  CG1 ILE C   4      17.022   0.617  18.957  1.00 25.15 LIG 0.00  C 
ATOM     40  CD1 ILE C   4      15.724  -0.039  19.350  1.00 24.74 LIG 0.01  C 
ENDBRANCH 37 39
ENDBRANCH 24 37
ENDBRANCH 22 24
ENDBRANCH 1 20
BRANCH 1 41
ATOM     41  CB  LYS C   3      21.732   0.396  18.615  1.00 27.76 LIG 0.04  C 
BRANCH 41 42
ATOM     42  CG  LYS C   3      21.756   0.330  17.119  1.00 29.79 LIG 0.00  C 
BRANCH 42 43
ATOM     43  CD  LYS C   3      20.440  -0.147  16.582  1.00 31.63 LIG 0.03  C 
BRANCH 43 44
ATOM     44  CE  LYS C   3      19.873   0.845  15.580  1.00 35.23 LIG 0.23  C 
BRANCH 44 45
ATOM     45  NZ  LYS C   3      20.285   0.534  14.186  1.00 39.07 LIG-0.08  N 
ATOM     46 HZ3  LYS C   3      20.285   1.282  13.702  1.00 39.07 LIG 0.27  HD
ATOM     47 HZ2  LYS C   3      19.714  -0.049  13.831  1.00 39.07 LIG 0.27  HD
ATOM     48 HZ1  LYS C   3      21.104   0.184  14.189  1.00 39.07 LIG 0.27  HD
ENDBRANCH 44 45
ENDBRANCH 43 44
ENDBRANCH 42 43
ENDBRANCH 41 42
ENDBRANCH 1 41
TORSDOF 20
ENDMDL
MODEL 3
USER: ADFR SOLUTION from run 27
USER: SCORE 19.822097 LL:  -2.613 LR: -17.849 RR:   0.000 FEB: -11.883
USER: RMSD 6.371784
USER: SEED 26
USER: STATUS no improvement in best in 6 clusters for 5 generations
USER: GENES 22
USER: genes 0 Translation |==|  0.56139 0.38168 0.39897
USER: genes 1 Rotation |==|  0.47758 0.79577 0.18316 0.74826
USER: genes 2 Torsion [C]-CA--N-[C] |==|  0.73823
USER: genes 3 Torsion [N]-C--CA-[N] |==|  0.36429
USER: genes 4 Torsion [C]-CA--CB-[CG] |==|  0.99599
USER: genes 5 Torsion [CA]-CB--CG-[CD] |==|  0.60482
USER: genes 6 Torsion [CB]-CG--CD-[NE] |==|  0.08709
USER: genes 7 Torsion [CG]-CD--NE-[CZ] |==|  0.42193
USER: genes 8 Torsion [N]-CA--C-[N] |==|  0.92109
USER: genes 9 Torsion [C]-N--CA-[CB] |==|  0.74773
USER: genes 10 Torsion [N]-CA--C-[N] |==|  0.13654
USER: genes 11 Torsion [C]-N--CA-[C] |==|  0.83146
USER: genes 12 Torsion [N]-CA--C-[O] |==|  0.97879
USER: genes 13 Torsion [N]-CA--CB-[CG] |==|  0.78581
USER: genes 14 Torsion [CA]-CB--CG-[CD1] |==|  0.35153
USER: genes 15 Torsion [N]-CA--CB-[CG2] |==|  0.83951
USER: genes 16 Torsion [CA]-CB--CG1-[CD1] |==|  0.73305
USER: genes 17 Torsion [N]-CA--CB-[CG] |==|  0.66588
USER: genes 18 Torsion [CA]-CB--CG-[CD] |==|  0.87400
USER: genes 19 Torsion [CB]-CG--CD-[CE] |==|  0.73953
USER: genes 20 Torsion [CG]-CD--CE-[NZ] |==|  0.64235
USER: genes 21 Torsion [CD]-CE--NZ-[HZ2] |==|  0.16679
ROOT
ATOM      1  CA  LYS C   3      22.048   1.582  19.189  1.00 27.41 LIG 0.18  C 
ENDROOT
BRANCH 1 2
ATOM      2  N   LYS C   3      22.993   1.804  20.297  1.00 28.91 LIG-0.35  N 
ATOM      3  C   ARG C   2      23.822   2.844  20.264  1.00 30.62 LIG 0.26  C 
ATOM      4 O    ARG C   2      23.692   3.741  19.429  1.00 31.16 LIG-0.27  OA
ATOM      5 H    LYS C   3      22.956   1.226  20.932  1.00 28.91 LIG 0.16  HD
BRANCH 3 6
ATOM      6  CA  ARG C   2      24.981   2.933  21.279  1.00 31.50 LIG 0.40  C 
ATOM      7  N   ARG C   2      26.255   3.239  20.587  1.00 33.48 LIG 0.61  N 
BRANCH 6 8
ATOM      8  CB  ARG C   2      24.741   3.917  22.426  1.00 31.91 LIG 0.05  C 
BRANCH 8 9
ATOM      9  CG  ARG C   2      23.415   4.679  22.370  1.00 31.74 LIG 0.02  C 
BRANCH 9 10
ATOM     10  CD  ARG C   2      23.579   6.118  22.839  1.00 33.46 LIG 0.14  C 
BRANCH 10 11
ATOM     11  NE  ARG C   2      24.899   6.703  22.557  1.00 33.35 LIG-0.23  N 
ATOM     12  CZ  ARG C   2      25.154   7.995  22.362  1.00 33.45 LIG 0.67  C 
ATOM     13  NH1 ARG C   2      24.190   8.894  22.437  1.00 31.52 LIG-0.23  N 
ATOM     14  NH2 ARG C   2      26.397   8.397  22.103  1.00 34.66 LIG-0.23  N 
ATOM     15 1HH1 ARG C   2      23.385   8.648  22.613  1.00 31.52 LIG 0.17  HD
ATOM     16 2HH1 ARG C   2      24.366   9.726  22.309  1.00 31.52 LIG 0.17  HD
ATOM     17 1HH2 ARG C   2      27.035   7.822  22.061  1.00 34.66 LIG 0.17  HD
ATOM     18 2HH2 ARG C   2      26.562   9.232  21.977  1.00 34.66 LIG 0.17  HD
ATOM     19 HE   ARG C   2      25.566   6.162  22.513  1.00 33.35 LIG 0.18  HD
ENDBRANCH 10 11
ENDBRANCH 9 10
ENDBRANCH 8 9
ENDBRANCH 6 8
ENDBRANCH 3 6
ENDBRANCH 1 2
BRANCH 1 20
ATOM     20  C   LYS C   3      20.644   2.155  19.355  1.00 25.28 LIG 0.24  C 
ATOM     21 O    LYS C   3      20.011   2.445  18.358  1.00 21.80 LIG-0.27  OA
ATOM     22  N   ILE C   4      20.151   2.289  20.580  1.00 24.70 LIG-0.35  N 
ATOM     23 H    ILE C   4      20.602   2.172  21.303  1.00 24.70 LIG 0.16  HD
BRANCH 22 24
ATOM     24  CA  ILE C   4      18.750   2.664  20.782  1.00 24.27 LIG 0.18  C 
BRANCH 24 25
ATOM     25  C   ILE C   4      17.813   2.097  19.706  1.00 24.50 LIG 0.24  C 
ATOM     26  N   LEU C   5      17.943   0.796  19.448  1.00 23.50 LIG-0.34  N 
ATOM     27 H    LEU C   5      18.544   0.301  19.813  1.00 23.50 LIG 0.16  HD
ATOM     28 O    ILE C   4      16.982   2.817  19.145  1.00 23.85 LIG-0.27  OA
BRANCH 26 29
ATOM     29  CA  LEU C   5      17.075   0.080  18.518  1.00 24.14 LIG 0.18  C 
BRANCH 29 30
ATOM     30  C   LEU C   5      15.623   0.159  19.003  1.00 24.32 LIG 0.20  C 
ATOM     31 O    LEU C   5      15.379   0.647  20.115  1.00 24.96 LIG-0.65  OA
ATOM     32 OXT  LEU C   5      14.666  -0.214  18.311  1.00 24.51 LIG-0.65  OA
ENDBRANCH 29 30
BRANCH 29 33
ATOM     33  CB  LEU C   5      17.535  -1.377  18.391  1.00 23.93 LIG 0.04  C 
BRANCH 33 34
ATOM     34  CG  LEU C   5      18.775  -1.694  17.526  1.00 26.81 LIG-0.02  C 
ATOM     35  CD1 LEU C   5      19.809  -2.503  18.318  1.00 29.09 LIG 0.01  C 
ATOM     36  CD2 LEU C   5      18.412  -2.429  16.251  1.00 28.70 LIG 0.01  C 
ENDBRANCH 33 34
ENDBRANCH 29 33
ENDBRANCH 26 29
ENDBRANCH 24 25
BRANCH 24 37
ATOM     37  CB  ILE C   4      18.567   4.183  20.877  1.00 24.66 LIG 0.01  C 
ATOM     38  CG2 ILE C   4      19.415   4.758  22.021  1.00 24.52 LIG 0.01  C 
BRANCH 37 39
ATOM     39  CG1 ILE C   4      18.885   4.863  19.541  1.00 25.15 LIG 0.00  C 
ATOM     40  CD1 ILE C   4      20.286   5.406  19.426  1.00 24.74 LIG 0.01  C 
ENDBRANCH 37 39
ENDBRANCH 24 37
ENDBRANCH 22 24
ENDBRANCH 1 20
BRANCH 1 41
ATOM     41  CB  LYS C   3      21.934   0.119  18.777  1.00 27.76 LIG 0.04  C 
BRANCH 41 42
ATOM     42  CG  LYS C   3      22.309  -0.120  17.347  1.00 29.79 LIG 0.00  C 
BRANCH 42 43
ATOM     43  CD  LYS C   3      21.682   0.905  16.449  1.00 31.63 LIG 0.03  C 
BRANCH 43 44
ATOM     44  CE  LYS C   3      20.361   0.402  15.893  1.00 35.23 LIG 0.23  C 
BRANCH 44 45
ATOM     45  NZ  LYS C   3      20.287   0.533  14.414  1.00 39.07 LIG-0.08  N 
ATOM     46 HZ3  LYS C   3      19.500   0.230  14.127  1.00 39.07 LIG 0.27  HD
ATOM     47 HZ2  LYS C   3      20.941   0.059  14.041  1.00 39.07 LIG 0.27  HD
ATOM     48 HZ1  LYS C   3      20.374   1.390  14.187  1.00 39.07 LIG 0.27  HD
ENDBRANCH 44 45
ENDBRANCH 43 44
ENDBRANCH 42 43
ENDBRANCH 41 42
ENDBRANCH 1 41
TORSDOF 20
ENDMDL
MODEL 4
USER: ADFR SOLUTION from run 173
USER: SCORE 20.103789 LL:  -3.015 LR: -17.837 RR:   0.000 FEB: -11.871
USER: RMSD 6.032087
USER: SEED 172
USER: STATUS 1 or 2 clusters left
USER: GENES 22
USER: genes 0 Translation |==|  0.54898 0.51247 0.55186
USER: genes 1 Rotation |==|  0.76614 0.76927 0.80237 0.62343
USER: genes 2 Torsion [C]-CA--N-[C] |==|  0.17778
USER: genes 3 Torsion [N]-C--CA-[N] |==|  0.77826
USER: genes 4 Torsion [C]-CA--CB-[CG] |==|  0.35323
USER: genes 5 Torsion [CA]-CB--CG-[CD] |==|  0.81890
USER: genes 6 Torsion [CB]-CG--CD-[NE] |==|  0.50625
USER: genes 7 Torsion [CG]-CD--NE-[CZ] |==|  0.42995
USER: genes 8 Torsion [N]-CA--C-[N] |==|  0.09476
USER: genes 9 Torsion [C]-N--CA-[CB] |==|  0.18960
USER: genes 10 Torsion [N]-CA--C-[N] |==|  0.85729
USER: genes 11 Torsion [C]-N--CA-[C] |==|  0.59783
USER: genes 12 Torsion [N]-CA--C-[O] |==|  0.40142
USER: genes 13 Torsion [N]-CA--CB-[CG] |==|  0.40116
USER: genes 14 Torsion [CA]-CB--CG-[CD1] |==|  0.18251
USER: genes 15 Torsion [N]-CA--CB-[CG2] |==|  0.02792
USER: genes 16 Torsion [CA]-CB--CG1-[CD1] |==|  0.21856
USER: genes 17 Torsion [N]-CA--CB-[CG] |==|  0.88697
USER: genes 18 Torsion [CA]-CB--CG-[CD] |==|  0.58281
USER: genes 19 Torsion [CB]-CG--CD-[CE] |==|  0.67527
USER: genes 20 Torsion [CG]-CD--CE-[NZ] |==|  0.98515
USER: genes 21 Torsion [CD]-CE--NZ-[HZ2] |==|  0.25187
ROOT
ATOM      1  CA  LYS C   3      21.843   3.740  22.400  1.00 27.41 LIG 0.18  C 
ENDROOT
BRANCH 1 2
ATOM      2  N   LYS C   3      22.851   3.071  21.560  1.00 28.91 LIG-0.35  N 
ATOM      3  C   ARG C   2      23.094   3.518  20.331  1.00 30.62 LIG 0.26  C 
ATOM      4 O    ARG C   2      22.644   4.596  19.941  1.00 31.16 LIG-0.27  OA
ATOM      5 H    LYS C   3      23.244   2.398  21.924  1.00 28.91 LIG 0.16  HD
BRANCH 3 6
ATOM      6  CA  ARG C   2      23.946   2.672  19.361  1.00 31.50 LIG 0.40  C 
ATOM      7  N   ARG C   2      25.389   2.838  19.658  1.00 33.48 LIG 0.61  N 
BRANCH 6 8
ATOM      8  CB  ARG C   2      23.571   1.189  19.320  1.00 31.91 LIG 0.05  C 
BRANCH 8 9
ATOM      9  CG  ARG C   2      23.292   0.622  17.927  1.00 31.74 LIG 0.02  C 
BRANCH 9 10
ATOM     10  CD  ARG C   2      22.057   1.260  17.304  1.00 33.46 LIG 0.14  C 
BRANCH 10 11
ATOM     11  NE  ARG C   2      21.697   0.724  15.982  1.00 33.35 LIG-0.23  N 
ATOM     12  CZ  ARG C   2      20.481   0.733  15.442  1.00 33.45 LIG 0.67  C 
ATOM     13  NH1 ARG C   2      19.460   1.274  16.081  1.00 31.52 LIG-0.23  N 
ATOM     14  NH2 ARG C   2      20.284   0.204  14.235  1.00 34.66 LIG-0.23  N 
ATOM     15 1HH1 ARG C   2      19.576   1.627  16.856  1.00 31.52 LIG 0.17  HD
ATOM     16 2HH1 ARG C   2      18.679   1.274  15.722  1.00 31.52 LIG 0.17  HD
ATOM     17 1HH2 ARG C   2      20.943  -0.144  13.805  1.00 34.66 LIG 0.17  HD
ATOM     18 2HH2 ARG C   2      19.498   0.209  13.886  1.00 34.66 LIG 0.17  HD
ATOM     19 HE   ARG C   2      22.329   0.374  15.517  1.00 33.35 LIG 0.18  HD
ENDBRANCH 10 11
ENDBRANCH 9 10
ENDBRANCH 8 9
ENDBRANCH 6 8
ENDBRANCH 3 6
ENDBRANCH 1 2
BRANCH 1 20
ATOM     20  C   LYS C   3      20.399   3.696  21.912  1.00 25.28 LIG 0.24  C 
ATOM     21 O    LYS C   3      19.687   4.662  22.109  1.00 21.80 LIG-0.27  OA
ATOM     22  N   ILE C   4      19.978   2.617  21.264  1.00 24.70 LIG-0.35  N 
ATOM     23 H    ILE C   4      20.429   1.890  21.183  1.00 24.70 LIG 0.16  HD
BRANCH 22 24
ATOM     24  CA  ILE C   4      18.662   2.601  20.622  1.00 24.27 LIG 0.18  C 
BRANCH 24 25
ATOM     25  C   ILE C   4      18.214   1.195  20.200  1.00 24.50 LIG 0.24  C 
ATOM     26  N   LEU C   5      19.089   0.500  19.473  1.00 23.50 LIG-0.34  N 
ATOM     27 H    LEU C   5      19.839   0.822  19.204  1.00 23.50 LIG 0.16  HD
ATOM     28 O    ILE C   4      17.116   0.748  20.544  1.00 23.85 LIG-0.27  OA
BRANCH 26 29
ATOM     29  CA  LEU C   5      18.859  -0.882  19.061  1.00 24.14 LIG 0.18  C 
BRANCH 29 30
ATOM     30  C   LEU C   5      20.187  -1.648  19.063  1.00 24.32 LIG 0.20  C 
ATOM     31 O    LEU C   5      20.201  -2.841  19.397  1.00 24.96 LIG-0.65  OA
ATOM     32 OXT  LEU C   5      21.256  -1.135  18.707  1.00 24.51 LIG-0.65  OA
ENDBRANCH 29 30
BRANCH 29 33
ATOM     33  CB  LEU C   5      18.208  -0.912  17.673  1.00 23.93 LIG 0.04  C 
BRANCH 33 34
ATOM     34  CG  LEU C   5      18.590  -2.045  16.696  1.00 26.81 LIG-0.02  C 
ATOM     35  CD1 LEU C   5      18.122  -3.408  17.219  1.00 29.09 LIG 0.01  C 
ATOM     36  CD2 LEU C   5      18.040  -1.811  15.303  1.00 28.70 LIG 0.01  C 
ENDBRANCH 33 34
ENDBRANCH 29 33
ENDBRANCH 26 29
ENDBRANCH 24 25
BRANCH 24 37
ATOM     37  CB  ILE C   4      18.596   3.547  19.417  1.00 24.66 LIG 0.01  C 
ATOM     38  CG2 ILE C   4      19.997   4.065  19.061  1.00 24.52 LIG 0.01  C 
BRANCH 37 39
ATOM     39  CG1 ILE C   4      17.924   2.868  18.218  1.00 25.15 LIG 0.00  C 
ATOM     40  CD1 ILE C   4      16.420   2.813  18.285  1.00 24.74 LIG 0.01  C 
ENDBRANCH 37 39
ENDBRANCH 24 37
ENDBRANCH 22 24
ENDBRANCH 1 20
BRANCH 1 41
ATOM     41  CB  LYS C   3      22.201   5.181  22.741  1.00 27.76 LIG 0.04  C 
BRANCH 41 42
ATOM     42  CG  LYS C   3      23.653   5.367  23.061  1.00 29.79 LIG 0.00  C 
BRANCH 42 43
ATOM     43  CD  LYS C   3      23.847   6.494  24.032  1.00 31.63 LIG 0.03  C 
BRANCH 43 44
ATOM     44  CE  LYS C   3      24.661   7.613  23.406  1.00 35.23 LIG 0.23  C 
BRANCH 44 45
ATOM     45  NZ  LYS C   3      25.160   7.257  22.052  1.00 39.07 LIG-0.08  N 
ATOM     46 HZ3  LYS C   3      25.935   7.669  21.902  1.00 39.07 LIG 0.27  HD
ATOM     47 HZ2  LYS C   3      24.566   7.511  21.440  1.00 39.07 LIG 0.27  HD
ATOM     48 HZ1  LYS C   3      25.279   6.376  22.001  1.00 39.07 LIG 0.27  HD
ENDBRANCH 44 45
ENDBRANCH 43 44
ENDBRANCH 42 43
ENDBRANCH 41 42
ENDBRANCH 1 41
TORSDOF 20
ENDMDL
MODEL 5
USER: ADFR SOLUTION from run 37
USER: SCORE 20.391168 LL:  -3.050 LR: -17.707 RR:   0.000 FEB: -11.741
USER: RMSD 5.718155
USER: SEED 36
USER: STATUS no improvement in best in 6 clusters for 5 generations
USER: GENES 22
USER: genes 0 Translation |==|  0.57322 0.38657 0.40439
USER: genes 1 Rotation |==|  0.44477 0.78160 0.21733 0.79623
USER: genes 2 Torsion [C]-CA--N-[C] |==|  0.76509
USER: genes 3 Torsion [N]-C--CA-[N] |==|  0.48489
USER: genes 4 Torsion [C]-CA--CB-[CG] |==|  0.58798
USER: genes 5 Torsion [CA]-CB--CG-[CD] |==|  0.45624
USER: genes 6 Torsion [CB]-CG--CD-[NE] |==|  0.36632
USER: genes 7 Torsion [CG]-CD--NE-[CZ] |==|  0.45865
USER: genes 8 Torsion [N]-CA--C-[N] |==|  0.89543
USER: genes 9 Torsion [C]-N--CA-[CB] |==|  0.85505
USER: genes 10 Torsion [N]-CA--C-[N] |==|  0.93080
USER: genes 11 Torsion [C]-N--CA-[C] |==|  0.63576
USER: genes 12 Torsion [N]-CA--C-[O] |==|  0.58251
USER: genes 13 Torsion [N]-CA--CB-[CG] |==|  0.85763
USER: genes 14 Torsion [CA]-CB--CG-[CD1] |==|  0.88678
USER: genes 15 Torsion [N]-CA--CB-[CG2] |==|  0.43399
USER: genes 16 Torsion [CA]-CB--CG1-[CD1] |==|  0.36750
USER: genes 17 Torsion [N]-CA--CB-[CG] |==|  0.47783
USER: genes 18 Torsion [CA]-CB--CG-[CD] |==|  0.17220
USER: genes 19 Torsion [CB]-CG--CD-[CE] |==|  0.60304
USER: genes 20 Torsion [CG]-CD--CE-[NZ] |==|  0.60454
USER: genes 21 Torsion [CD]-CE--NZ-[HZ2] |==|  0.10728
ROOT
ATOM      1  CA  LYS C   3      22.243   1.662  19.303  1.00 27.41 LIG 0.18  C 
ENDROOT
BRANCH 1 2
ATOM      2  N   LYS C   3      23.034   2.135  20.452  1.00 28.91 LIG-0.35  N 
ATOM      3  C   ARG C   2      23.393   3.413  20.531  1.00 30.62 LIG 0.26  C 
ATOM      4 O    ARG C   2      22.919   4.260  19.772  1.00 31.16 LIG-0.27  OA
ATOM      5 H    LYS C   3      23.229   1.533  21.035  1.00 28.91 LIG 0.16  HD
BRANCH 3 6
ATOM      6  CA  ARG C   2      24.432   3.854  21.584  1.00 31.50 LIG 0.40  C 
ATOM      7  N   ARG C   2      24.776   5.285  21.407  1.00 33.48 LIG 0.61  N 
BRANCH 6 8
ATOM      8  CB  ARG C   2      24.023   3.573  23.032  1.00 31.91 LIG 0.05  C 
BRANCH 8 9
ATOM      9  CG  ARG C   2      24.545   4.573  24.065  1.00 31.74 LIG 0.02  C 
BRANCH 9 10
ATOM     10  CD  ARG C   2      23.795   4.451  25.385  1.00 33.46 LIG 0.14  C 
BRANCH 10 11
ATOM     11  NE  ARG C   2      24.661   4.385  26.573  1.00 33.35 LIG-0.23  N 
ATOM     12  CZ  ARG C   2      24.271   4.557  27.834  1.00 33.45 LIG 0.67  C 
ATOM     13  NH1 ARG C   2      23.003   4.788  28.124  1.00 31.52 LIG-0.23  N 
ATOM     14  NH2 ARG C   2      25.160   4.482  28.823  1.00 34.66 LIG-0.23  N 
ATOM     15 1HH1 ARG C   2      22.419   4.829  27.495  1.00 31.52 LIG 0.17  HD
ATOM     16 2HH1 ARG C   2      22.763   4.897  28.943  1.00 31.52 LIG 0.17  HD
ATOM     17 1HH2 ARG C   2      25.987   4.323  28.647  1.00 34.66 LIG 0.17  HD
ATOM     18 2HH2 ARG C   2      24.907   4.592  29.637  1.00 34.66 LIG 0.17  HD
ATOM     19 HE   ARG C   2      25.495   4.221  26.440  1.00 33.35 LIG 0.18  HD
ENDBRANCH 10 11
ENDBRANCH 9 10
ENDBRANCH 8 9
ENDBRANCH 6 8
ENDBRANCH 3 6
ENDBRANCH 1 2
BRANCH 1 20
ATOM     20  C   LYS C   3      20.731   1.840  19.388  1.00 25.28 LIG 0.24  C 
ATOM     21 O    LYS C   3      20.118   2.116  18.373  1.00 21.80 LIG-0.27  OA
ATOM     22  N   ILE C   4      20.132   1.659  20.558  1.00 24.70 LIG-0.35  N 
ATOM     23 H    ILE C   4      20.544   1.546  21.304  1.00 24.70 LIG 0.16  HD
BRANCH 22 24
ATOM     24  CA  ILE C   4      18.671   1.641  20.652  1.00 24.27 LIG 0.18  C 
BRANCH 24 25
ATOM     25  C   ILE C   4      18.044   0.368  20.068  1.00 24.50 LIG 0.24  C 
ATOM     26  N   LEU C   5      18.765  -0.262  19.141  1.00 23.50 LIG-0.34  N 
ATOM     27 H    LEU C   5      19.511   0.039  18.839  1.00 23.50 LIG 0.16  HD
ATOM     28 O    ILE C   4      16.948  -0.040  20.464  1.00 23.85 LIG-0.27  OA
BRANCH 26 29
ATOM     29  CA  LEU C   5      18.357  -1.531  18.544  1.00 24.14 LIG 0.18  C 
BRANCH 29 30
ATOM     30  C   LEU C   5      19.530  -2.518  18.579  1.00 24.32 LIG 0.20  C 
ATOM     31 O    LEU C   5      19.622  -3.385  17.699  1.00 24.96 LIG-0.65  OA
ATOM     32 OXT  LEU C   5      20.422  -2.466  19.436  1.00 24.51 LIG-0.65  OA
ENDBRANCH 29 30
BRANCH 29 33
ATOM     33  CB  LEU C   5      17.873  -1.301  17.108  1.00 23.93 LIG 0.04  C 
BRANCH 33 34
ATOM     34  CG  LEU C   5      16.810  -0.212  16.846  1.00 26.81 LIG-0.02  C 
ATOM     35  CD1 LEU C   5      15.732  -0.216  17.936  1.00 29.09 LIG 0.01  C 
ATOM     36  CD2 LEU C   5      17.422   1.170  16.731  1.00 28.70 LIG 0.01  C 
ENDBRANCH 33 34
ENDBRANCH 29 33
ENDBRANCH 26 29
ENDBRANCH 24 25
BRANCH 24 37
ATOM     37  CB  ILE C   4      18.036   2.876  20.000  1.00 24.66 LIG 0.01  C 
ATOM     38  CG2 ILE C   4      16.588   2.581  19.583  1.00 24.52 LIG 0.01  C 
BRANCH 37 39
ATOM     39  CG1 ILE C   4      18.121   4.095  20.925  1.00 25.15 LIG 0.00  C 
ATOM     40  CD1 ILE C   4      18.621   5.354  20.267  1.00 24.74 LIG 0.01  C 
ENDBRANCH 37 39
ENDBRANCH 24 37
ENDBRANCH 22 24
ENDBRANCH 1 20
BRANCH 1 41
ATOM     41  CB  LYS C   3      22.546   0.221  18.913  1.00 27.76 LIG 0.04  C 
BRANCH 41 42
ATOM     42  CG  LYS C   3      21.611  -0.316  17.873  1.00 29.79 LIG 0.00  C 
BRANCH 42 43
ATOM     43  CD  LYS C   3      21.719   0.468  16.599  1.00 31.63 LIG 0.03  C 
BRANCH 43 44
ATOM     44  CE  LYS C   3      20.358   0.621  15.941  1.00 35.23 LIG 0.23  C 
BRANCH 44 45
ATOM     45  NZ  LYS C   3      20.437   0.534  14.459  1.00 39.07 LIG-0.08  N 
ATOM     46 HZ3  LYS C   3      19.638   0.318  14.131  1.00 39.07 LIG 0.27  HD
ATOM     47 HZ2  LYS C   3      21.030  -0.089  14.229  1.00 39.07 LIG 0.27  HD
ATOM     48 HZ1  LYS C   3      20.690   1.321  14.128  1.00 39.07 LIG 0.27  HD
ENDBRANCH 44 45
ENDBRANCH 43 44
ENDBRANCH 42 43
ENDBRANCH 41 42
ENDBRANCH 1 41
TORSDOF 20
ENDMDL
MODEL 6
USER: ADFR SOLUTION from run 85
USER: SCORE 19.654562 LL:  -2.527 LR: -17.619 RR:   0.000 FEB: -11.653
USER: RMSD 6.581659
USER: SEED 84
USER: STATUS no improvement in best in 8 clusters for 5 generations
USER: GENES 22
USER: genes 0 Translation |==|  0.54769 0.41799 0.39243
USER: genes 1 Rotation |==|  0.54144 0.77078 0.14697 0.72434
USER: genes 2 Torsion [C]-CA--N-[C] |==|  0.74751
USER: genes 3 Torsion [N]-C--CA-[N] |==|  0.45303
USER: genes 4 Torsion [C]-CA--CB-[CG] |==|  0.97793
USER: genes 5 Torsion [CA]-CB--CG-[CD] |==|  0.65395
USER: genes 6 Torsion [CB]-CG--CD-[NE] |==|  0.20938
USER: genes 7 Torsion [CG]-CD--NE-[CZ] |==|  0.76850
USER: genes 8 Torsion [N]-CA--C-[N] |==|  0.09697
USER: genes 9 Torsion [C]-N--CA-[CB] |==|  0.83248
USER: genes 10 Torsion [N]-CA--C-[N] |==|  0.93288
USER: genes 11 Torsion [C]-N--CA-[C] |==|  0.76723
USER: genes 12 Torsion [N]-CA--C-[O] |==|  0.35801
USER: genes 13 Torsion [N]-CA--CB-[CG] |==|  0.86060
USER: genes 14 Torsion [CA]-CB--CG-[CD1] |==|  0.39774
USER: genes 15 Torsion [N]-CA--CB-[CG2] |==|  0.46249
USER: genes 16 Torsion [CA]-CB--CG1-[CD1] |==|  0.47597
USER: genes 17 Torsion [N]-CA--CB-[CG] |==|  0.62225
USER: genes 18 Torsion [CA]-CB--CG-[CD] |==|  0.62417
USER: genes 19 Torsion [CB]-CG--CD-[CE] |==|  0.32511
USER: genes 20 Torsion [CG]-CD--CE-[NZ] |==|  0.24177
USER: genes 21 Torsion [CD]-CE--NZ-[HZ2] |==|  0.63113
ROOT
ATOM      1  CA  LYS C   3      21.822   2.181  19.052  1.00 27.41 LIG 0.18  C 
ENDROOT
BRANCH 1 2
ATOM      2  N   LYS C   3      22.608   2.190  20.298  1.00 28.91 LIG-0.35  N 
ATOM      3  C   ARG C   2      23.648   3.010  20.421  1.00 30.62 LIG 0.26  C 
ATOM      4 O    ARG C   2      23.860   3.903  19.600  1.00 31.16 LIG-0.27  OA
ATOM      5 H    LYS C   3      22.340   1.642  20.904  1.00 28.91 LIG 0.16  HD
BRANCH 3 6
ATOM      6  CA  ARG C   2      24.623   2.839  21.605  1.00 31.50 LIG 0.40  C 
ATOM      7  N   ARG C   2      25.892   3.556  21.341  1.00 33.48 LIG 0.61  N 
BRANCH 6 8
ATOM      8  CB  ARG C   2      24.045   3.248  22.963  1.00 31.91 LIG 0.05  C 
BRANCH 8 9
ATOM      9  CG  ARG C   2      22.678   3.933  22.913  1.00 31.74 LIG 0.02  C 
BRANCH 9 10
ATOM     10  CD  ARG C   2      22.709   5.289  23.607  1.00 33.46 LIG 0.14  C 
BRANCH 10 11
ATOM     11  NE  ARG C   2      23.373   6.351  22.835  1.00 33.35 LIG-0.23  N 
ATOM     12  CZ  ARG C   2      24.684   6.579  22.789  1.00 33.45 LIG 0.67  C 
ATOM     13  NH1 ARG C   2      25.528   5.809  23.452  1.00 31.52 LIG-0.23  N 
ATOM     14  NH2 ARG C   2      25.160   7.585  22.057  1.00 34.66 LIG-0.23  N 
ATOM     15 1HH1 ARG C   2      25.233   5.151  23.920  1.00 31.52 LIG 0.17  HD
ATOM     16 2HH1 ARG C   2      26.373   5.966  23.414  1.00 31.52 LIG 0.17  HD
ATOM     17 1HH2 ARG C   2      24.621   8.087  21.614  1.00 34.66 LIG 0.17  HD
ATOM     18 2HH2 ARG C   2      26.007   7.731  22.028  1.00 34.66 LIG 0.17  HD
ATOM     19 HE   ARG C   2      22.869   6.872  22.372  1.00 33.35 LIG 0.18  HD
ENDBRANCH 10 11
ENDBRANCH 9 10
ENDBRANCH 8 9
ENDBRANCH 6 8
ENDBRANCH 3 6
ENDBRANCH 1 2
BRANCH 1 20
ATOM     20  C   LYS C   3      20.624   3.123  18.985  1.00 25.28 LIG 0.24  C 
ATOM     21 O    LYS C   3      19.624   2.754  18.400  1.00 21.80 LIG-0.27  OA
ATOM     22  N   ILE C   4      20.705   4.301  19.591  1.00 24.70 LIG-0.35  N 
ATOM     23 H    ILE C   4      21.423   4.622  19.939  1.00 24.70 LIG 0.16  HD
BRANCH 22 24
ATOM     24  CA  ILE C   4      19.526   5.160  19.708  1.00 24.27 LIG 0.18  C 
BRANCH 24 25
ATOM     25  C   ILE C   4      18.413   4.547  20.569  1.00 24.50 LIG 0.24  C 
ATOM     26  N   LEU C   5      18.419   3.217  20.664  1.00 23.50 LIG-0.34  N 
ATOM     27 H    LEU C   5      18.970   2.716  20.234  1.00 23.50 LIG 0.16  HD
ATOM     28 O    ILE C   4      17.590   5.261  21.148  1.00 23.85 LIG-0.27  OA
BRANCH 26 29
ATOM     29  CA  LEU C   5      17.486   2.477  21.509  1.00 24.14 LIG 0.18  C 
BRANCH 29 30
ATOM     30  C   LEU C   5      18.019   2.432  22.947  1.00 24.32 LIG 0.20  C 
ATOM     31 O    LEU C   5      17.278   2.770  23.881  1.00 24.96 LIG-0.65  OA
ATOM     32 OXT  LEU C   5      19.157   2.034  23.226  1.00 24.51 LIG-0.65  OA
ENDBRANCH 29 30
BRANCH 29 33
ATOM     33  CB  LEU C   5      17.285   1.063  20.952  1.00 23.93 LIG 0.04  C 
BRANCH 33 34
ATOM     34  CG  LEU C   5      16.941   0.895  19.456  1.00 26.81 LIG-0.02  C 
ATOM     35  CD1 LEU C   5      17.621  -0.347  18.868  1.00 29.09 LIG 0.01  C 
ATOM     36  CD2 LEU C   5      15.445   0.826  19.216  1.00 28.70 LIG 0.01  C 
ENDBRANCH 33 34
ENDBRANCH 29 33
ENDBRANCH 26 29
ENDBRANCH 24 25
BRANCH 24 37
ATOM     37  CB  ILE C   4      18.960   5.552  18.337  1.00 24.66 LIG 0.01  C 
ATOM     38  CG2 ILE C   4      17.558   6.159  18.485  1.00 24.52 LIG 0.01  C 
BRANCH 37 39
ATOM     39  CG1 ILE C   4      19.910   6.500  17.597  1.00 25.15 LIG 0.00  C 
ATOM     40  CD1 ILE C   4      19.538   6.777  16.164  1.00 24.74 LIG 0.01  C 
ENDBRANCH 37 39
ENDBRANCH 24 37
ENDBRANCH 22 24
ENDBRANCH 1 20
BRANCH 1 41
ATOM     41  CB  LYS C   3      21.372   0.787  18.632  1.00 27.76 LIG 0.04  C 
BRANCH 41 42
ATOM     42  CG  LYS C   3      21.554   0.526  17.168  1.00 29.79 LIG 0.00  C 
BRANCH 42 43
ATOM     43  CD  LYS C   3      20.342  -0.139  16.587  1.00 31.63 LIG 0.03  C 
BRANCH 43 44
ATOM     44  CE  LYS C   3      19.693   0.743  15.534  1.00 35.23 LIG 0.23  C 
BRANCH 44 45
ATOM     45  NZ  LYS C   3      20.285   0.539  14.186  1.00 39.07 LIG-0.08  N 
ATOM     46 HZ3  LYS C   3      21.039   0.072  14.260  1.00 39.07 LIG 0.27  HD
ATOM     47 HZ2  LYS C   3      20.461   1.330  13.817  1.00 39.07 LIG 0.27  HD
ATOM     48 HZ1  LYS C   3      19.710   0.093  13.673  1.00 39.07 LIG 0.27  HD
ENDBRANCH 44 45
ENDBRANCH 43 44
ENDBRANCH 42 43
ENDBRANCH 41 42
ENDBRANCH 1 41
TORSDOF 20
ENDMDL
MODEL 7
USER: ADFR SOLUTION from run 158
USER: SCORE 19.314469 LL:  -2.506 LR: -17.449 RR:   0.000 FEB: -11.483
USER: RMSD 7.780122
USER: SEED 157
USER: STATUS 1 or 2 clusters left
USER: GENES 22
USER: genes 0 Translation |==|  0.47648 0.38527 0.40018
USER: genes 1 Rotation |==|  0.50262 0.84210 0.13844 0.54728
USER: genes 2 Torsion [C]-CA--N-[C] |==|  0.65078
USER: genes 3 Torsion [N]-C--CA-[N] |==|  0.41890
USER: genes 4 Torsion [C]-CA--CB-[CG] |==|  0.96960
USER: genes 5 Torsion [CA]-CB--CG-[CD] |==|  0.30462
USER: genes 6 Torsion [CB]-CG--CD-[NE] |==|  0.43152
USER: genes 7 Torsion [CG]-CD--NE-[CZ] |==|  0.29930
USER: genes 8 Torsion [N]-CA--C-[N] |==|  0.37093
USER: genes 9 Torsion [C]-N--CA-[CB] |==|  0.53889
USER: genes 10 Torsion [N]-CA--C-[N] |==|  0.34795
USER: genes 11 Torsion [C]-N--CA-[C] |==|  0.65943
USER: genes 12 Torsion [N]-CA--C-[O] |==|  0.80005
USER: genes 13 Torsion [N]-CA--CB-[CG] |==|  0.84780
USER: genes 14 Torsion [CA]-CB--CG-[CD1] |==|  0.50942
USER: genes 15 Torsion [N]-CA--CB-[CG2] |==|  0.86244
USER: genes 16 Torsion [CA]-CB--CG1-[CD1] |==|  0.40405
USER: genes 17 Torsion [N]-CA--CB-[CG] |==|  0.65042
USER: genes 18 Torsion [CA]-CB--CG-[CD] |==|  0.20299
USER: genes 19 Torsion [CB]-CG--CD-[CE] |==|  0.70461
USER: genes 20 Torsion [CG]-CD--CE-[NZ] |==|  0.63718
USER: genes 21 Torsion [CD]-CE--NZ-[HZ2] |==|  0.11371
ROOT
ATOM      1  CA  LYS C   3      20.647   1.641  19.215  1.00 27.41 LIG 0.18  C 
ENDROOT
BRANCH 1 2
ATOM      2  N   LYS C   3      21.893   1.039  19.720  1.00 28.91 LIG-0.35  N 
ATOM      3  C   ARG C   2      22.907   0.816  18.888  1.00 30.62 LIG 0.26  C 
ATOM      4 O    ARG C   2      22.912   1.276  17.745  1.00 31.16 LIG-0.27  OA
ATOM      5 H    LYS C   3      21.898   0.857  20.560  1.00 28.91 LIG 0.16  HD
BRANCH 3 6
ATOM      6  CA  ARG C   2      24.102  -0.046  19.350  1.00 31.50 LIG 0.40  C 
ATOM      7  N   ARG C   2      24.719  -0.738  18.195  1.00 33.48 LIG 0.61  N 
BRANCH 6 8
ATOM      8  CB  ARG C   2      25.160   0.718  20.149  1.00 31.91 LIG 0.05  C 
BRANCH 8 9
ATOM      9  CG  ARG C   2      25.011   2.241  20.145  1.00 31.74 LIG 0.02  C 
BRANCH 9 10
ATOM     10  CD  ARG C   2      24.574   2.762  21.507  1.00 33.46 LIG 0.14  C 
BRANCH 10 11
ATOM     11  NE  ARG C   2      24.945   4.161  21.770  1.00 33.35 LIG-0.23  N 
ATOM     12  CZ  ARG C   2      24.109   5.197  21.801  1.00 33.45 LIG 0.67  C 
ATOM     13  NH1 ARG C   2      22.814   5.028  21.609  1.00 31.52 LIG-0.23  N 
ATOM     14  NH2 ARG C   2      24.575   6.422  22.041  1.00 34.66 LIG-0.23  N 
ATOM     15 1HH1 ARG C   2      22.500   4.241  21.462  1.00 31.52 LIG 0.17  HD
ATOM     16 2HH1 ARG C   2      22.284   5.705  21.631  1.00 31.52 LIG 0.17  HD
ATOM     17 1HH2 ARG C   2      25.416   6.543  22.177  1.00 34.66 LIG 0.17  HD
ATOM     18 2HH2 ARG C   2      24.035   7.091  22.061  1.00 34.66 LIG 0.17  HD
ATOM     19 HE   ARG C   2      25.776   4.324  21.918  1.00 33.35 LIG 0.18  HD
ENDBRANCH 10 11
ENDBRANCH 9 10
ENDBRANCH 8 9
ENDBRANCH 6 8
ENDBRANCH 3 6
ENDBRANCH 1 2
BRANCH 1 20
ATOM     20  C   LYS C   3      20.151   2.897  19.924  1.00 25.28 LIG 0.24  C 
ATOM     21 O    LYS C   3      20.152   2.919  21.141  1.00 21.80 LIG-0.27  OA
ATOM     22  N   ILE C   4      19.762   3.932  19.190  1.00 24.70 LIG-0.35  N 
ATOM     23 H    ILE C   4      19.671   3.917  18.335  1.00 24.70 LIG 0.16  HD
BRANCH 22 24
ATOM     24  CA  ILE C   4      19.450   5.216  19.821  1.00 24.27 LIG 0.18  C 
BRANCH 24 25
ATOM     25  C   ILE C   4      18.660   5.071  21.128  1.00 24.50 LIG 0.24  C 
ATOM     26  N   LEU C   5      19.192   5.662  22.198  1.00 23.50 LIG-0.34  N 
ATOM     27 H    LEU C   5      19.955   6.058  22.186  1.00 23.50 LIG 0.16  HD
ATOM     28 O    ILE C   4      17.588   4.460  21.158  1.00 23.85 LIG-0.27  OA
BRANCH 26 29
ATOM     29  CA  LEU C   5      18.530   5.695  23.499  1.00 24.14 LIG 0.18  C 
BRANCH 29 30
ATOM     30  C   LEU C   5      18.349   7.150  23.948  1.00 24.32 LIG 0.20  C 
ATOM     31 O    LEU C   5      19.338   7.802  24.312  1.00 24.96 LIG-0.65  OA
ATOM     32 OXT  LEU C   5      17.252   7.723  23.932  1.00 24.51 LIG-0.65  OA
ENDBRANCH 29 30
BRANCH 29 33
ATOM     33  CB  LEU C   5      19.350   4.901  24.522  1.00 23.93 LIG 0.04  C 
BRANCH 33 34
ATOM     34  CG  LEU C   5      19.715   3.434  24.207  1.00 26.81 LIG-0.02  C 
ATOM     35  CD1 LEU C   5      20.460   2.784  25.379  1.00 29.09 LIG 0.01  C 
ATOM     36  CD2 LEU C   5      18.498   2.605  23.846  1.00 28.70 LIG 0.01  C 
ENDBRANCH 33 34
ENDBRANCH 29 33
ENDBRANCH 26 29
ENDBRANCH 24 25
BRANCH 24 37
ATOM     37  CB  ILE C   4      18.704   6.159  18.869  1.00 24.66 LIG 0.01  C 
ATOM     38  CG2 ILE C   4      19.426   6.244  17.517  1.00 24.52 LIG 0.01  C 
BRANCH 37 39
ATOM     39  CG1 ILE C   4      17.241   5.731  18.702  1.00 25.15 LIG 0.00  C 
ATOM     40  CD1 ILE C   4      16.266   6.867  18.532  1.00 24.74 LIG 0.01  C 
ENDBRANCH 37 39
ENDBRANCH 24 37
ENDBRANCH 22 24
ENDBRANCH 1 20
BRANCH 1 41
ATOM     41  CB  LYS C   3      19.495   0.649  19.113  1.00 27.76 LIG 0.04  C 
BRANCH 41 42
ATOM     42  CG  LYS C   3      18.874   0.605  17.751  1.00 29.79 LIG 0.00  C 
BRANCH 42 43
ATOM     43  CD  LYS C   3      19.775  -0.090  16.773  1.00 31.63 LIG 0.03  C 
BRANCH 43 44
ATOM     44  CE  LYS C   3      20.418   0.909  15.826  1.00 35.23 LIG 0.23  C 
BRANCH 44 45
ATOM     45  NZ  LYS C   3      20.285   0.500  14.402  1.00 39.07 LIG-0.08  N 
ATOM     46 HZ3  LYS C   3      20.413   1.207  13.876  1.00 39.07 LIG 0.27  HD
ATOM     47 HZ2  LYS C   3      19.470   0.170  14.263  1.00 39.07 LIG 0.27  HD
ATOM     48 HZ1  LYS C   3      20.893  -0.123  14.214  1.00 39.07 LIG 0.27  HD
ENDBRANCH 44 45
ENDBRANCH 43 44
ENDBRANCH 42 43
ENDBRANCH 41 42
ENDBRANCH 1 41
TORSDOF 20
ENDMDL
MODEL 8
USER: ADFR SOLUTION from run 27
USER: SCORE 18.958723 LL:  -2.565 LR: -17.450 RR:   0.000 FEB: -11.484
USER: RMSD 7.416084
USER: SEED 26
USER: STATUS no improvement in best in 6 clusters for 5 generations
USER: GENES 22
USER: genes 0 Translation |==|  0.56367 0.40713 0.40519
USER: genes 1 Rotation |==|  0.47698 0.79536 0.18004 0.74466
USER: genes 2 Torsion [C]-CA--N-[C] |==|  0.65692
USER: genes 3 Torsion [N]-C--CA-[N] |==|  0.42076
USER: genes 4 Torsion [C]-CA--CB-[CG] |==|  0.07216
USER: genes 5 Torsion [CA]-CB--CG-[CD] |==|  0.58918
USER: genes 6 Torsion [CB]-CG--CD-[NE] |==|  0.05018
USER: genes 7 Torsion [CG]-CD--NE-[CZ] |==|  0.44092
USER: genes 8 Torsion [N]-CA--C-[N] |==|  0.82688
USER: genes 9 Torsion [C]-N--CA-[CB] |==|  0.23153
USER: genes 10 Torsion [N]-CA--C-[N] |==|  0.98049
USER: genes 11 Torsion [C]-N--CA-[C] |==|  0.65970
USER: genes 12 Torsion [N]-CA--C-[O] |==|  0.16618
USER: genes 13 Torsion [N]-CA--CB-[CG] |==|  0.53202
USER: genes 14 Torsion [CA]-CB--CG-[CD1] |==|  0.11364
USER: genes 15 Torsion [N]-CA--CB-[CG2] |==|  0.75259
USER: genes 16 Torsion [CA]-CB--CG1-[CD1] |==|  0.52301
USER: genes 17 Torsion [N]-CA--CB-[CG] |==|  0.46931
USER: genes 18 Torsion [CA]-CB--CG-[CD] |==|  0.22734
USER: genes 19 Torsion [CB]-CG--CD-[CE] |==|  0.52945
USER: genes 20 Torsion [CG]-CD--CE-[NZ] |==|  0.54365
USER: genes 21 Torsion [CD]-CE--NZ-[HZ2] |==|  0.75759
ROOT
ATOM      1  CA  LYS C   3      22.085   2.002  19.320  1.00 27.41 LIG 0.18  C 
ENDROOT
BRANCH 1 2
ATOM      2  N   LYS C   3      23.043   2.222  20.417  1.00 28.91 LIG-0.35  N 
ATOM      3  C   ARG C   2      24.212   2.808  20.171  1.00 30.62 LIG 0.26  C 
ATOM      4 O    ARG C   2      24.441   3.351  19.088  1.00 31.16 LIG-0.27  OA
ATOM      5 H    LYS C   3      22.784   1.949  21.190  1.00 28.91 LIG 0.16  HD
BRANCH 3 6
ATOM      6  CA  ARG C   2      25.315   2.804  21.250  1.00 31.50 LIG 0.40  C 
ATOM      7  N   ARG C   2      26.656   2.853  20.623  1.00 33.48 LIG 0.61  N 
BRANCH 6 8
ATOM      8  CB  ARG C   2      25.172   3.905  22.303  1.00 31.91 LIG 0.05  C 
BRANCH 8 9
ATOM      9  CG  ARG C   2      23.747   4.415  22.529  1.00 31.74 LIG 0.02  C 
BRANCH 9 10
ATOM     10  CD  ARG C   2      23.737   5.890  22.909  1.00 33.46 LIG 0.14  C 
BRANCH 10 11
ATOM     11  NE  ARG C   2      24.977   6.611  22.582  1.00 33.35 LIG-0.23  N 
ATOM     12  CZ  ARG C   2      25.097   7.928  22.433  1.00 33.45 LIG 0.67  C 
ATOM     13  NH1 ARG C   2      24.059   8.726  22.601  1.00 31.52 LIG-0.23  N 
ATOM     14  NH2 ARG C   2      26.280   8.458  22.126  1.00 34.66 LIG-0.23  N 
ATOM     15 1HH1 ARG C   2      23.293   8.396  22.809  1.00 31.52 LIG 0.17  HD
ATOM     16 2HH1 ARG C   2      24.149   9.575  22.502  1.00 31.52 LIG 0.17  HD
ATOM     17 1HH2 ARG C   2      26.966   7.950  22.023  1.00 34.66 LIG 0.17  HD
ATOM     18 2HH2 ARG C   2      26.358   9.309  22.030  1.00 34.66 LIG 0.17  HD
ATOM     19 HE   ARG C   2      25.688   6.139  22.478  1.00 33.35 LIG 0.18  HD
ENDBRANCH 10 11
ENDBRANCH 9 10
ENDBRANCH 8 9
ENDBRANCH 6 8
ENDBRANCH 3 6
ENDBRANCH 1 2
BRANCH 1 20
ATOM     20  C   LYS C   3      20.692   2.595  19.492  1.00 25.28 LIG 0.24  C 
ATOM     21 O    LYS C   3      20.306   3.422  18.687  1.00 21.80 LIG-0.27  OA
ATOM     22  N   ILE C   4      19.937   2.170  20.497  1.00 24.70 LIG-0.35  N 
ATOM     23 H    ILE C   4      20.210   1.652  21.127  1.00 24.70 LIG 0.16  HD
BRANCH 22 24
ATOM     24  CA  ILE C   4      18.533   2.575  20.598  1.00 24.27 LIG 0.18  C 
BRANCH 24 25
ATOM     25  C   ILE C   4      18.015   2.602  22.043  1.00 24.50 LIG 0.24  C 
ATOM     26  N   LEU C   5      18.847   2.123  22.967  1.00 23.50 LIG-0.34  N 
ATOM     27 H    LEU C   5      19.607   1.769  22.779  1.00 23.50 LIG 0.16  HD
ATOM     28 O    ILE C   4      16.903   3.066  22.310  1.00 23.85 LIG-0.27  OA
BRANCH 26 29
ATOM     29  CA  LEU C   5      18.548   2.153  24.396  1.00 24.14 LIG 0.18  C 
BRANCH 29 30
ATOM     30  C   LEU C   5      19.654   2.914  25.138  1.00 24.32 LIG 0.20  C 
ATOM     31 O    LEU C   5      19.879   4.097  24.848  1.00 24.96 LIG-0.65  OA
ATOM     32 OXT  LEU C   5      20.318   2.406  26.052  1.00 24.51 LIG-0.65  OA
ENDBRANCH 29 30
BRANCH 29 33
ATOM     33  CB  LEU C   5      18.409   0.724  24.931  1.00 23.93 LIG 0.04  C 
BRANCH 33 34
ATOM     34  CG  LEU C   5      17.832   0.511  26.348  1.00 26.81 LIG-0.02  C 
ATOM     35  CD1 LEU C   5      16.652   1.453  26.612  1.00 29.09 LIG 0.01  C 
ATOM     36  CD2 LEU C   5      17.409  -0.925  26.586  1.00 28.70 LIG 0.01  C 
ENDBRANCH 33 34
ENDBRANCH 29 33
ENDBRANCH 26 29
ENDBRANCH 24 25
BRANCH 24 37
ATOM     37  CB  ILE C   4      17.616   1.697  19.738  1.00 24.66 LIG 0.01  C 
ATOM     38  CG2 ILE C   4      17.491   2.273  18.320  1.00 24.52 LIG 0.01  C 
BRANCH 37 39
ATOM     39  CG1 ILE C   4      18.105   0.244  19.716  1.00 25.15 LIG 0.00  C 
ATOM     40  CD1 ILE C   4      17.383  -0.651  18.742  1.00 24.74 LIG 0.01  C 
ENDBRANCH 37 39
ENDBRANCH 24 37
ENDBRANCH 22 24
ENDBRANCH 1 20
BRANCH 1 41
ATOM     41  CB  LYS C   3      21.948   0.537  18.923  1.00 27.76 LIG 0.04  C 
BRANCH 41 42
ATOM     42  CG  LYS C   3      20.795   0.282  18.002  1.00 29.79 LIG 0.00  C 
BRANCH 42 43
ATOM     43  CD  LYS C   3      21.162   0.602  16.583  1.00 31.63 LIG 0.03  C 
BRANCH 43 44
ATOM     44  CE  LYS C   3      19.933   0.595  15.691  1.00 35.23 LIG 0.23  C 
BRANCH 44 45
ATOM     45  NZ  LYS C   3      20.285   0.535  14.248  1.00 39.07 LIG-0.08  N 
ATOM     46 HZ3  LYS C   3      21.032   0.061  14.143  1.00 39.07 LIG 0.27  HD
ATOM     47 HZ2  LYS C   3      20.412   1.360  13.939  1.00 39.07 LIG 0.27  HD
ATOM     48 HZ1  LYS C   3      19.623   0.147  13.796  1.00 39.07 LIG 0.27  HD
ENDBRANCH 44 45
ENDBRANCH 43 44
ENDBRANCH 42 43
ENDBRANCH 41 42
ENDBRANCH 1 41
TORSDOF 20
ENDMDL
MODEL 9
USER: ADFR SOLUTION from run 85
USER: SCORE 19.109391 LL:  -2.474 LR: -17.399 RR:   0.000 FEB: -11.433
USER: RMSD 7.220231
USER: SEED 84
USER: STATUS no improvement in best in 8 clusters for 5 generations
USER: GENES 22
USER: genes 0 Translation |==|  0.53427 0.42453 0.39191
USER: genes 1 Rotation |==|  0.53930 0.76900 0.13473 0.70657
USER: genes 2 Torsion [C]-CA--N-[C] |==|  0.74973
USER: genes 3 Torsion [N]-C--CA-[N] |==|  0.46009
USER: genes 4 Torsion [C]-CA--CB-[CG] |==|  0.98138
USER: genes 5 Torsion [CA]-CB--CG-[CD] |==|  0.64579
USER: genes 6 Torsion [CB]-CG--CD-[NE] |==|  0.21102
USER: genes 7 Torsion [CG]-CD--NE-[CZ] |==|  0.77174
USER: genes 8 Torsion [N]-CA--C-[N] |==|  0.14177
USER: genes 9 Torsion [C]-N--CA-[CB] |==|  0.79918
USER: genes 10 Torsion [N]-CA--C-[N] |==|  0.28915
USER: genes 11 Torsion [C]-N--CA-[C] |==|  0.63628
USER: genes 12 Torsion [N]-CA--C-[O] |==|  0.26405
USER: genes 13 Torsion [N]-CA--CB-[CG] |==|  0.88563
USER: genes 14 Torsion [CA]-CB--CG-[CD1] |==|  0.48423
USER: genes 15 Torsion [N]-CA--CB-[CG2] |==|  0.44748
USER: genes 16 Torsion [CA]-CB--CG1-[CD1] |==|  0.45626
USER: genes 17 Torsion [N]-CA--CB-[CG] |==|  0.65185
USER: genes 18 Torsion [CA]-CB--CG-[CD] |==|  0.60831
USER: genes 19 Torsion [CB]-CG--CD-[CE] |==|  0.30461
USER: genes 20 Torsion [CG]-CD--CE-[NZ] |==|  0.22898
USER: genes 21 Torsion [CD]-CE--NZ-[HZ2] |==|  0.64618
ROOT
ATOM      1  CA  LYS C   3      21.600   2.289  19.041  1.00 27.41 LIG 0.18  C 
ENDROOT
BRANCH 1 2
ATOM      2  N   LYS C   3      22.442   2.279  20.250  1.00 28.91 LIG-0.35  N 
ATOM      3  C   ARG C   2      23.531   3.040  20.307  1.00 30.62 LIG 0.26  C 
ATOM      4 O    ARG C   2      23.755   3.903  19.457  1.00 31.16 LIG-0.27  OA
ATOM      5 H    LYS C   3      22.172   1.760  20.880  1.00 28.91 LIG 0.16  HD
BRANCH 3 6
ATOM      6  CA  ARG C   2      24.548   2.839  21.451  1.00 31.50 LIG 0.40  C 
ATOM      7  N   ARG C   2      25.822   3.528  21.140  1.00 33.48 LIG 0.61  N 
BRANCH 6 8
ATOM      8  CB  ARG C   2      24.035   3.251  22.832  1.00 31.91 LIG 0.05  C 
BRANCH 8 9
ATOM      9  CG  ARG C   2      22.670   3.941  22.845  1.00 31.74 LIG 0.02  C 
BRANCH 9 10
ATOM     10  CD  ARG C   2      22.721   5.264  23.598  1.00 33.46 LIG 0.14  C 
BRANCH 10 11
ATOM     11  NE  ARG C   2      23.359   6.361  22.855  1.00 33.35 LIG-0.23  N 
ATOM     12  CZ  ARG C   2      24.668   6.582  22.760  1.00 33.45 LIG 0.67  C 
ATOM     13  NH1 ARG C   2      25.535   5.771  23.339  1.00 31.52 LIG-0.23  N 
ATOM     14  NH2 ARG C   2      25.120   7.622  22.061  1.00 34.66 LIG-0.23  N 
ATOM     15 1HH1 ARG C   2      25.256   5.091  23.784  1.00 31.52 LIG 0.17  HD
ATOM     16 2HH1 ARG C   2      26.378   5.923  23.270  1.00 31.52 LIG 0.17  HD
ATOM     17 1HH2 ARG C   2      24.565   8.152  21.672  1.00 34.66 LIG 0.17  HD
ATOM     18 2HH2 ARG C   2      25.966   7.764  22.000  1.00 34.66 LIG 0.17  HD
ATOM     19 HE   ARG C   2      22.839   6.910  22.445  1.00 33.35 LIG 0.18  HD
ENDBRANCH 10 11
ENDBRANCH 9 10
ENDBRANCH 8 9
ENDBRANCH 6 8
ENDBRANCH 3 6
ENDBRANCH 1 2
BRANCH 1 20
ATOM     20  C   LYS C   3      20.467   3.309  18.998  1.00 25.28 LIG 0.24  C 
ATOM     21 O    LYS C   3      19.341   2.920  18.750  1.00 21.80 LIG-0.27  OA
ATOM     22  N   ILE C   4      20.743   4.580  19.260  1.00 24.70 LIG-0.35  N 
ATOM     23 H    ILE C   4      21.537   4.896  19.356  1.00 24.70 LIG 0.16  HD
BRANCH 22 24
ATOM     24  CA  ILE C   4      19.666   5.561  19.408  1.00 24.27 LIG 0.18  C 
BRANCH 24 25
ATOM     25  C   ILE C   4      18.592   5.131  20.416  1.00 24.50 LIG 0.24  C 
ATOM     26  N   LEU C   5      18.632   5.740  21.602  1.00 23.50 LIG-0.34  N 
ATOM     27 H    LEU C   5      19.245   6.300  21.823  1.00 23.50 LIG 0.16  HD
ATOM     28 O    ILE C   4      17.740   4.290  20.118  1.00 23.85 LIG-0.27  OA
BRANCH 26 29
ATOM     29  CA  LEU C   5      17.636   5.513  22.645  1.00 24.14 LIG 0.18  C 
BRANCH 29 30
ATOM     30  C   LEU C   5      17.133   6.860  23.179  1.00 24.32 LIG 0.20  C 
ATOM     31 O    LEU C   5      16.099   7.354  22.709  1.00 24.96 LIG-0.65  OA
ATOM     32 OXT  LEU C   5      17.701   7.470  24.095  1.00 24.51 LIG-0.65  OA
ENDBRANCH 29 30
BRANCH 29 33
ATOM     33  CB  LEU C   5      18.240   4.666  23.770  1.00 23.93 LIG 0.04  C 
BRANCH 33 34
ATOM     34  CG  LEU C   5      19.152   3.476  23.398  1.00 26.81 LIG-0.02  C 
ATOM     35  CD1 LEU C   5      19.770   2.840  24.649  1.00 29.09 LIG 0.01  C 
ATOM     36  CD2 LEU C   5      18.421   2.422  22.591  1.00 28.70 LIG 0.01  C 
ENDBRANCH 33 34
ENDBRANCH 29 33
ENDBRANCH 26 29
ENDBRANCH 24 25
BRANCH 24 37
ATOM     37  CB  ILE C   4      19.007   5.899  18.065  1.00 24.66 LIG 0.01  C 
ATOM     38  CG2 ILE C   4      17.627   6.534  18.286  1.00 24.52 LIG 0.01  C 
BRANCH 37 39
ATOM     39  CG1 ILE C   4      19.913   6.798  17.216  1.00 25.15 LIG 0.00  C 
ATOM     40  CD1 ILE C   4      19.535   6.881  15.759  1.00 24.74 LIG 0.01  C 
ENDBRANCH 37 39
ENDBRANCH 24 37
ENDBRANCH 22 24
ENDBRANCH 1 20
BRANCH 1 41
ATOM     41  CB  LYS C   3      21.039   0.918  18.684  1.00 27.76 LIG 0.04  C 
BRANCH 41 42
ATOM     42  CG  LYS C   3      21.359   0.497  17.283  1.00 29.79 LIG 0.00  C 
BRANCH 42 43
ATOM     43  CD  LYS C   3      20.194  -0.210  16.656  1.00 31.63 LIG 0.03  C 
BRANCH 43 44
ATOM     44  CE  LYS C   3      19.562   0.645  15.571  1.00 35.23 LIG 0.23  C 
BRANCH 44 45
ATOM     45  NZ  LYS C   3      20.285   0.537  14.277  1.00 39.07 LIG-0.08  N 
ATOM     46 HZ3  LYS C   3      21.032   0.066  14.392  1.00 39.07 LIG 0.27  HD
ATOM     47 HZ2  LYS C   3      20.490   1.351  13.982  1.00 39.07 LIG 0.27  HD
ATOM     48 HZ1  LYS C   3      19.766   0.127  13.680  1.00 39.07 LIG 0.27  HD
ENDBRANCH 44 45
ENDBRANCH 43 44
ENDBRANCH 42 43
ENDBRANCH 41 42
ENDBRANCH 1 41
TORSDOF 20
ENDMDL
MODEL 10
USER: ADFR SOLUTION from run 115
USER: SCORE 17.999663 LL:  -2.529 LR: -17.268 RR:   0.000 FEB: -11.302
USER: RMSD 4.997313
USER: SEED 114
USER: STATUS no improvement in best in 2 clusters for 5 generations
USER: GENES 22
USER: genes 0 Translation |==|  0.47916 0.48824 0.47647
USER: genes 1 Rotation |==|  0.45805 0.79473 0.84249 0.70994
USER: genes 2 Torsion [C]-CA--N-[C] |==|  0.17773
USER: genes 3 Torsion [N]-C--CA-[N] |==|  0.41722
USER: genes 4 Torsion [C]-CA--CB-[CG] |==|  0.98730
USER: genes 5 Torsion [CA]-CB--CG-[CD] |==|  0.53141
USER: genes 6 Torsion [CB]-CG--CD-[NE] |==|  0.34640
USER: genes 7 Torsion [CG]-CD--NE-[CZ] |==|  0.71261
USER: genes 8 Torsion [N]-CA--C-[N] |==|  0.09454
USER: genes 9 Torsion [C]-N--CA-[CB] |==|  0.38737
USER: genes 10 Torsion [N]-CA--C-[N] |==|  0.25617
USER: genes 11 Torsion [C]-N--CA-[C] |==|  0.78682
USER: genes 12 Torsion [N]-CA--C-[O] |==|  0.29045
USER: genes 13 Torsion [N]-CA--CB-[CG] |==|  0.86380
USER: genes 14 Torsion [CA]-CB--CG-[CD1] |==|  0.90668
USER: genes 15 Torsion [N]-CA--CB-[CG2] |==|  0.62505
USER: genes 16 Torsion [CA]-CB--CG1-[CD1] |==|  0.52213
USER: genes 17 Torsion [N]-CA--CB-[CG] |==|  0.57946
USER: genes 18 Torsion [CA]-CB--CG-[CD] |==|  0.67813
USER: genes 19 Torsion [CB]-CG--CD-[CE] |==|  0.82397
USER: genes 20 Torsion [CG]-CD--CE-[NZ] |==|  0.21123
USER: genes 21 Torsion [CD]-CE--NZ-[HZ2] |==|  0.75837
ROOT
ATOM      1  CA  LYS C   3      20.691   3.340  20.817  1.00 27.41 LIG 0.18  C 
ENDROOT
BRANCH 1 2
ATOM      2  N   LYS C   3      21.954   3.432  21.570  1.00 28.91 LIG-0.35  N 
ATOM      3  C   ARG C   2      23.070   3.809  20.951  1.00 30.62 LIG 0.26  C 
ATOM      4 O    ARG C   2      23.045   4.273  19.811  1.00 31.16 LIG-0.27  OA
ATOM      5 H    LYS C   3      21.899   3.229  22.403  1.00 28.91 LIG 0.16  HD
BRANCH 3 6
ATOM      6  CA  ARG C   2      24.430   3.655  21.663  1.00 31.50 LIG 0.40  C 
ATOM      7  N   ARG C   2      25.512   3.432  20.675  1.00 33.48 LIG 0.61  N 
BRANCH 6 8
ATOM      8  CB  ARG C   2      24.787   4.811  22.601  1.00 31.91 LIG 0.05  C 
BRANCH 8 9
ATOM      9  CG  ARG C   2      23.801   5.981  22.603  1.00 31.74 LIG 0.02  C 
BRANCH 9 10
ATOM     10  CD  ARG C   2      24.369   7.186  23.341  1.00 33.46 LIG 0.14  C 
BRANCH 10 11
ATOM     11  NE  ARG C   2      24.392   8.427  22.550  1.00 33.35 LIG-0.23  N 
ATOM     12  CZ  ARG C   2      25.466   8.967  21.978  1.00 33.45 LIG 0.67  C 
ATOM     13  NH1 ARG C   2      26.646   8.382  22.066  1.00 31.52 LIG-0.23  N 
ATOM     14  NH2 ARG C   2      25.355  10.105  21.294  1.00 34.66 LIG-0.23  N 
ATOM     15 1HH1 ARG C   2      26.728   7.643  22.496  1.00 31.52 LIG 0.17  HD
ATOM     16 2HH1 ARG C   2      27.333   8.740  21.692  1.00 31.52 LIG 0.17  HD
ATOM     17 1HH2 ARG C   2      24.589  10.491  21.222  1.00 34.66 LIG 0.17  HD
ATOM     18 2HH2 ARG C   2      26.048  10.454  20.924  1.00 34.66 LIG 0.17  HD
ATOM     19 HE   ARG C   2      23.645   8.840  22.448  1.00 33.35 LIG 0.18  HD
ENDBRANCH 10 11
ENDBRANCH 9 10
ENDBRANCH 8 9
ENDBRANCH 6 8
ENDBRANCH 3 6
ENDBRANCH 1 2
BRANCH 1 20
ATOM     20  C   LYS C   3      20.628   2.303  19.700  1.00 25.28 LIG 0.24  C 
ATOM     21 O    LYS C   3      19.996   2.566  18.695  1.00 21.80 LIG-0.27  OA
ATOM     22  N   ILE C   4      21.289   1.162  19.852  1.00 24.70 LIG-0.35  N 
ATOM     23 H    ILE C   4      21.673   0.914  20.580  1.00 24.70 LIG 0.16  HD
BRANCH 22 24
ATOM     24  CA  ILE C   4      21.406   0.216  18.740  1.00 24.27 LIG 0.18  C 
BRANCH 24 25
ATOM     25  C   ILE C   4      20.348  -0.894  18.778  1.00 24.50 LIG 0.24  C 
ATOM     26  N   LEU C   5      19.228  -0.652  18.096  1.00 23.50 LIG-0.34  N 
ATOM     27 H    LEU C   5      19.069   0.093  17.699  1.00 23.50 LIG 0.16  HD
ATOM     28 O    ILE C   4      20.552  -1.947  19.389  1.00 23.85 LIG-0.27  OA
BRANCH 26 29
ATOM     29  CA  LEU C   5      18.156  -1.634  17.956  1.00 24.14 LIG 0.18  C 
BRANCH 29 30
ATOM     30  C   LEU C   5      18.556  -2.690  16.919  1.00 24.32 LIG 0.20  C 
ATOM     31 O    LEU C   5      18.909  -3.815  17.301  1.00 24.96 LIG-0.65  OA
ATOM     32 OXT  LEU C   5      18.509  -2.481  15.699  1.00 24.51 LIG-0.65  OA
ENDBRANCH 29 30
BRANCH 29 33
ATOM     33  CB  LEU C   5      16.854  -0.932  17.553  1.00 23.93 LIG 0.04  C 
BRANCH 33 34
ATOM     34  CG  LEU C   5      16.402   0.312  18.348  1.00 26.81 LIG-0.02  C 
ATOM     35  CD1 LEU C   5      16.797   0.199  19.825  1.00 29.09 LIG 0.01  C 
ATOM     36  CD2 LEU C   5      16.952   1.598  17.764  1.00 28.70 LIG 0.01  C 
ENDBRANCH 33 34
ENDBRANCH 29 33
ENDBRANCH 26 29
ENDBRANCH 24 25
BRANCH 24 37
ATOM     37  CB  ILE C   4      22.805  -0.407  18.659  1.00 24.66 LIG 0.01  C 
ATOM     38  CG2 ILE C   4      23.311  -0.412  17.210  1.00 24.52 LIG 0.01  C 
BRANCH 37 39
ATOM     39  CG1 ILE C   4      23.784   0.309  19.596  1.00 25.15 LIG 0.00  C 
ATOM     40  CD1 ILE C   4      25.224  -0.110  19.447  1.00 24.74 LIG 0.01  C 
ENDBRANCH 37 39
ENDBRANCH 24 37
ENDBRANCH 22 24
ENDBRANCH 1 20
BRANCH 1 41
ATOM     41  CB  LYS C   3      20.216   4.680  20.268  1.00 27.76 LIG 0.04  C 
BRANCH 41 42
ATOM     42  CG  LYS C   3      18.727   4.763  20.127  1.00 29.79 LIG 0.00  C 
BRANCH 42 43
ATOM     43  CD  LYS C   3      18.332   4.912  18.687  1.00 31.63 LIG 0.03  C 
BRANCH 43 44
ATOM     44  CE  LYS C   3      18.862   6.215  18.113  1.00 35.23 LIG 0.23  C 
BRANCH 44 45
ATOM     45  NZ  LYS C   3      20.319   6.150  17.822  1.00 39.07 LIG-0.08  N 
ATOM     46 HZ3  LYS C   3      20.536   5.324  17.571  1.00 39.07 LIG 0.27  HD
ATOM     47 HZ2  LYS C   3      20.778   6.369  18.553  1.00 39.07 LIG 0.27  HD
ATOM     48 HZ1  LYS C   3      20.516   6.719  17.166  1.00 39.07 LIG 0.27  HD
ENDBRANCH 44 45
ENDBRANCH 43 44
ENDBRANCH 42 43
ENDBRANCH 41 42
ENDBRANCH 1 41
TORSDOF 20
ENDMDL
MODEL 11
USER: ADFR SOLUTION from run 58
USER: SCORE 18.598349 LL:  -1.983 LR: -17.226 RR:   0.000 FEB: -11.260
USER: RMSD 7.295867
USER: SEED 57
USER: STATUS searching
USER: GENES 22
USER: genes 0 Translation |==|  0.52392 0.39657 0.39868
USER: genes 1 Rotation |==|  0.48477 0.79947 0.17494 0.73329
USER: genes 2 Torsion [C]-CA--N-[C] |==|  0.74480
USER: genes 3 Torsion [N]-C--CA-[N] |==|  0.41364
USER: genes 4 Torsion [C]-CA--CB-[CG] |==|  0.66184
USER: genes 5 Torsion [CA]-CB--CG-[CD] |==|  0.38067
USER: genes 6 Torsion [CB]-CG--CD-[NE] |==|  0.69277
USER: genes 7 Torsion [CG]-CD--NE-[CZ] |==|  0.82325
USER: genes 8 Torsion [N]-CA--C-[N] |==|  0.43758
USER: genes 9 Torsion [C]-N--CA-[CB] |==|  0.77542
USER: genes 10 Torsion [N]-CA--C-[N] |==|  0.54348
USER: genes 11 Torsion [C]-N--CA-[C] |==|  0.79375
USER: genes 12 Torsion [N]-CA--C-[O] |==|  0.93487
USER: genes 13 Torsion [N]-CA--CB-[CG] |==|  0.79702
USER: genes 14 Torsion [CA]-CB--CG-[CD1] |==|  0.12902
USER: genes 15 Torsion [N]-CA--CB-[CG2] |==|  0.84911
USER: genes 16 Torsion [CA]-CB--CG1-[CD1] |==|  0.68622
USER: genes 17 Torsion [N]-CA--CB-[CG] |==|  0.66197
USER: genes 18 Torsion [CA]-CB--CG-[CD] |==|  0.68801
USER: genes 19 Torsion [CB]-CG--CD-[CE] |==|  0.31339
USER: genes 20 Torsion [CG]-CD--CE-[NZ] |==|  0.28143
USER: genes 21 Torsion [CD]-CE--NZ-[HZ2] |==|  0.87680
ROOT
ATOM      1  CA  LYS C   3      21.430   1.827  19.183  1.00 27.41 LIG 0.18  C 
ENDROOT
BRANCH 1 2
ATOM      2  N   LYS C   3      22.414   1.979  20.269  1.00 28.91 LIG-0.35  N 
ATOM      3  C   ARG C   2      23.284   2.984  20.241  1.00 30.62 LIG 0.26  C 
ATOM      4 O    ARG C   2      23.168   3.910  19.435  1.00 31.16 LIG-0.27  OA
ATOM      5 H    LYS C   3      22.370   1.384  20.888  1.00 28.91 LIG 0.16  HD
BRANCH 3 6
ATOM      6  CA  ARG C   2      24.474   2.997  21.224  1.00 31.50 LIG 0.40  C 
ATOM      7  N   ARG C   2      25.643   3.673  20.616  1.00 33.48 LIG 0.61  N 
BRANCH 6 8
ATOM      8  CB  ARG C   2      24.154   3.600  22.594  1.00 31.91 LIG 0.05  C 
BRANCH 8 9
ATOM      9  CG  ARG C   2      25.016   4.797  23.000  1.00 31.74 LIG 0.02  C 
BRANCH 9 10
ATOM     10  CD  ARG C   2      24.177   5.899  23.633  1.00 33.46 LIG 0.14  C 
BRANCH 10 11
ATOM     11  NE  ARG C   2      24.050   7.114  22.812  1.00 33.35 LIG-0.23  N 
ATOM     12  CZ  ARG C   2      25.047   7.920  22.454  1.00 33.45 LIG 0.67  C 
ATOM     13  NH1 ARG C   2      26.291   7.659  22.811  1.00 31.52 LIG-0.23  N 
ATOM     14  NH2 ARG C   2      24.797   9.000  21.714  1.00 34.66 LIG-0.23  N 
ATOM     15 1HH1 ARG C   2      26.465   6.960  23.280  1.00 31.52 LIG 0.17  HD
ATOM     16 2HH1 ARG C   2      26.926   8.187  22.574  1.00 31.52 LIG 0.17  HD
ATOM     17 1HH2 ARG C   2      23.992   9.176  21.468  1.00 34.66 LIG 0.17  HD
ATOM     18 2HH2 ARG C   2      25.441   9.521  21.483  1.00 34.66 LIG 0.17  HD
ATOM     19 HE   ARG C   2      23.262   7.321  22.539  1.00 33.35 LIG 0.18  HD
ENDBRANCH 10 11
ENDBRANCH 9 10
ENDBRANCH 8 9
ENDBRANCH 6 8
ENDBRANCH 3 6
ENDBRANCH 1 2
BRANCH 1 20
ATOM     20  C   LYS C   3      20.075   2.499  19.382  1.00 25.28 LIG 0.24  C 
ATOM     21 O    LYS C   3      19.721   2.775  20.513  1.00 21.80 LIG-0.27  OA
ATOM     22  N   ILE C   4      19.343   2.786  18.313  1.00 24.70 LIG-0.35  N 
ATOM     23 H    ILE C   4      19.527   2.530  17.513  1.00 24.70 LIG 0.16  HD
BRANCH 22 24
ATOM     24  CA  ILE C   4      18.124   3.588  18.438  1.00 24.27 LIG 0.18  C 
BRANCH 24 25
ATOM     25  C   ILE C   4      18.295   4.807  19.356  1.00 24.50 LIG 0.24  C 
ATOM     26  N   LEU C   5      17.168   5.385  19.769  1.00 23.50 LIG-0.34  N 
ATOM     27 H    LEU C   5      16.387   5.138  19.507  1.00 23.50 LIG 0.16  HD
ATOM     28 O    ILE C   4      19.417   5.194  19.695  1.00 23.85 LIG-0.27  OA
BRANCH 26 29
ATOM     29  CA  LEU C   5      17.147   6.500  20.712  1.00 24.14 LIG 0.18  C 
BRANCH 29 30
ATOM     30  C   LEU C   5      17.459   5.988  22.123  1.00 24.32 LIG 0.20  C 
ATOM     31 O    LEU C   5      17.251   4.798  22.398  1.00 24.96 LIG-0.65  OA
ATOM     32 OXT  LEU C   5      17.949   6.708  23.003  1.00 24.51 LIG-0.65  OA
ENDBRANCH 29 30
BRANCH 29 33
ATOM     33  CB  LEU C   5      15.781   7.196  20.668  1.00 23.93 LIG 0.04  C 
BRANCH 33 34
ATOM     34  CG  LEU C   5      15.430   8.071  19.445  1.00 26.81 LIG-0.02  C 
ATOM     35  CD1 LEU C   5      15.777   7.355  18.134  1.00 29.09 LIG 0.01  C 
ATOM     36  CD2 LEU C   5      13.972   8.486  19.436  1.00 28.70 LIG 0.01  C 
ENDBRANCH 33 34
ENDBRANCH 29 33
ENDBRANCH 26 29
ENDBRANCH 24 25
BRANCH 24 37
ATOM     37  CB  ILE C   4      16.929   2.751  18.911  1.00 24.66 LIG 0.01  C 
ATOM     38  CG2 ILE C   4      16.725   1.536  17.994  1.00 24.52 LIG 0.01  C 
BRANCH 37 39
ATOM     39  CG1 ILE C   4      17.093   2.331  20.376  1.00 25.15 LIG 0.00  C 
ATOM     40  CD1 ILE C   4      17.283   0.852  20.592  1.00 24.74 LIG 0.01  C 
ENDBRANCH 37 39
ENDBRANCH 24 37
ENDBRANCH 22 24
ENDBRANCH 1 20
BRANCH 1 41
ATOM     41  CB  LYS C   3      21.202   0.378  18.772  1.00 27.76 LIG 0.04  C 
BRANCH 41 42
ATOM     42  CG  LYS C   3      21.493   0.123  17.326  1.00 29.79 LIG 0.00  C 
BRANCH 42 43
ATOM     43  CD  LYS C   3      20.237  -0.202  16.574  1.00 31.63 LIG 0.03  C 
BRANCH 43 44
ATOM     44  CE  LYS C   3      19.901   0.897  15.580  1.00 35.23 LIG 0.23  C 
BRANCH 44 45
ATOM     45  NZ  LYS C   3      20.285   0.535  14.190  1.00 39.07 LIG-0.08  N 
ATOM     46 HZ3  LYS C   3      19.700  -0.051  13.863  1.00 39.07 LIG 0.27  HD
ATOM     47 HZ2  LYS C   3      21.098   0.172  14.192  1.00 39.07 LIG 0.27  HD
ATOM     48 HZ1  LYS C   3      20.287   1.266  13.683  1.00 39.07 LIG 0.27  HD
ENDBRANCH 44 45
ENDBRANCH 43 44
ENDBRANCH 42 43
ENDBRANCH 41 42
ENDBRANCH 1 41
TORSDOF 20
ENDMDL
MODEL 12
USER: ADFR SOLUTION from run 97
USER: SCORE 19.492845 LL:  -2.744 LR: -17.191 RR:   0.000 FEB: -11.225
USER: RMSD 6.782670
USER: SEED 96
USER: STATUS 1 or 2 clusters left
USER: GENES 22
USER: genes 0 Translation |==|  0.53279 0.40086 0.40582
USER: genes 1 Rotation |==|  0.43266 0.79626 0.23372 0.79460
USER: genes 2 Torsion [C]-CA--N-[C] |==|  0.71991
USER: genes 3 Torsion [N]-C--CA-[N] |==|  0.52748
USER: genes 4 Torsion [C]-CA--CB-[CG] |==|  0.57316
USER: genes 5 Torsion [CA]-CB--CG-[CD] |==|  0.45223
USER: genes 6 Torsion [CB]-CG--CD-[NE] |==|  0.40335
USER: genes 7 Torsion [CG]-CD--NE-[CZ] |==|  0.37379
USER: genes 8 Torsion [N]-CA--C-[N] |==|  0.33959
USER: genes 9 Torsion [C]-N--CA-[CB] |==|  0.75587
USER: genes 10 Torsion [N]-CA--C-[N] |==|  0.16775
USER: genes 11 Torsion [C]-N--CA-[C] |==|  0.64274
USER: genes 12 Torsion [N]-CA--C-[O] |==|  0.10993
USER: genes 13 Torsion [N]-CA--CB-[CG] |==|  0.67372
USER: genes 14 Torsion [CA]-CB--CG-[CD1] |==|  0.15106
USER: genes 15 Torsion [N]-CA--CB-[CG2] |==|  0.84204
USER: genes 16 Torsion [CA]-CB--CG1-[CD1] |==|  0.64913
USER: genes 17 Torsion [N]-CA--CB-[CG] |==|  0.48448
USER: genes 18 Torsion [CA]-CB--CG-[CD] |==|  0.20243
USER: genes 19 Torsion [CB]-CG--CD-[CE] |==|  0.56139
USER: genes 20 Torsion [CG]-CD--CE-[NZ] |==|  0.58203
USER: genes 21 Torsion [CD]-CE--NZ-[HZ2] |==|  0.10385
ROOT
ATOM      1  CA  LYS C   3      21.576   1.898  19.333  1.00 27.41 LIG 0.18  C 
ENDROOT
BRANCH 1 2
ATOM      2  N   LYS C   3      22.423   2.370  20.442  1.00 28.91 LIG-0.35  N 
ATOM      3  C   ARG C   2      22.983   3.576  20.383  1.00 30.62 LIG 0.26  C 
ATOM      4 O    ARG C   2      22.659   4.391  19.519  1.00 31.16 LIG-0.27  OA
ATOM      5 H    LYS C   3      22.514   1.818  21.095  1.00 28.91 LIG 0.16  HD
BRANCH 3 6
ATOM      6  CA  ARG C   2      24.071   3.966  21.406  1.00 31.50 LIG 0.40  C 
ATOM      7  N   ARG C   2      24.381   5.412  21.308  1.00 33.48 LIG 0.61  N 
BRANCH 6 8
ATOM      8  CB  ARG C   2      23.747   3.581  22.851  1.00 31.91 LIG 0.05  C 
BRANCH 8 9
ATOM      9  CG  ARG C   2      24.412   4.445  23.924  1.00 31.74 LIG 0.02  C 
BRANCH 9 10
ATOM     10  CD  ARG C   2      23.729   4.279  25.275  1.00 33.46 LIG 0.14  C 
BRANCH 10 11
ATOM     11  NE  ARG C   2      24.638   4.352  26.429  1.00 33.35 LIG-0.23  N 
ATOM     12  CZ  ARG C   2      24.426   5.043  27.547  1.00 33.45 LIG 0.67  C 
ATOM     13  NH1 ARG C   2      23.312   5.731  27.716  1.00 31.52 LIG-0.23  N 
ATOM     14  NH2 ARG C   2      25.337   5.035  28.519  1.00 34.66 LIG-0.23  N 
ATOM     15 1HH1 ARG C   2      22.712   5.736  27.100  1.00 31.52 LIG 0.17  HD
ATOM     16 2HH1 ARG C   2      23.186   6.174  28.443  1.00 31.52 LIG 0.17  HD
ATOM     17 1HH2 ARG C   2      26.063   4.583  28.424  1.00 34.66 LIG 0.17  HD
ATOM     18 2HH2 ARG C   2      25.200   5.482  29.241  1.00 34.66 LIG 0.17  HD
ATOM     19 HE   ARG C   2      25.372   3.908  26.377  1.00 33.35 LIG 0.18  HD
ENDBRANCH 10 11
ENDBRANCH 9 10
ENDBRANCH 8 9
ENDBRANCH 6 8
ENDBRANCH 3 6
ENDBRANCH 1 2
BRANCH 1 20
ATOM     20  C   LYS C   3      20.067   1.985  19.533  1.00 25.28 LIG 0.24  C 
ATOM     21 O    LYS C   3      19.573   1.431  20.498  1.00 21.80 LIG-0.27  OA
ATOM     22  N   ILE C   4      19.348   2.686  18.666  1.00 24.70 LIG-0.35  N 
ATOM     23 H    ILE C   4      19.654   3.017  17.933  1.00 24.70 LIG 0.16  HD
BRANCH 22 24
ATOM     24  CA  ILE C   4      17.928   2.947  18.914  1.00 24.27 LIG 0.18  C 
BRANCH 24 25
ATOM     25  C   ILE C   4      17.609   3.193  20.395  1.00 24.50 LIG 0.24  C 
ATOM     26  N   LEU C   5      18.226   4.232  20.957  1.00 23.50 LIG-0.34  N 
ATOM     27 H    LEU C   5      18.808   4.713  20.547  1.00 23.50 LIG 0.16  HD
ATOM     28 O    ILE C   4      16.810   2.473  21.000  1.00 23.85 LIG-0.27  OA
BRANCH 26 29
ATOM     29  CA  LEU C   5      17.971   4.658  22.331  1.00 24.14 LIG 0.18  C 
BRANCH 29 30
ATOM     30  C   LEU C   5      17.659   6.159  22.356  1.00 24.32 LIG 0.20  C 
ATOM     31 O    LEU C   5      16.959   6.650  21.458  1.00 24.96 LIG-0.65  OA
ATOM     32 OXT  LEU C   5      18.048   6.908  23.261  1.00 24.51 LIG-0.65  OA
ENDBRANCH 29 30
BRANCH 29 33
ATOM     33  CB  LEU C   5      19.184   4.333  23.211  1.00 23.93 LIG 0.04  C 
BRANCH 33 34
ATOM     34  CG  LEU C   5      19.010   3.340  24.380  1.00 26.81 LIG-0.02  C 
ATOM     35  CD1 LEU C   5      18.422   2.010  23.894  1.00 29.09 LIG 0.01  C 
ATOM     36  CD2 LEU C   5      20.310   3.089  25.119  1.00 28.70 LIG 0.01  C 
ENDBRANCH 33 34
ENDBRANCH 29 33
ENDBRANCH 26 29
ENDBRANCH 24 25
BRANCH 24 37
ATOM     37  CB  ILE C   4      17.033   1.826  18.372  1.00 24.66 LIG 0.01  C 
ATOM     38  CG2 ILE C   4      17.274   1.621  16.870  1.00 24.52 LIG 0.01  C 
BRANCH 37 39
ATOM     39  CG1 ILE C   4      17.236   0.527  19.159  1.00 25.15 LIG 0.00  C 
ATOM     40  CD1 ILE C   4      17.568  -0.677  18.317  1.00 24.74 LIG 0.01  C 
ENDBRANCH 37 39
ENDBRANCH 24 37
ENDBRANCH 22 24
ENDBRANCH 1 20
BRANCH 1 41
ATOM     41  CB  LYS C   3      21.927   0.493  18.861  1.00 27.76 LIG 0.04  C 
BRANCH 41 42
ATOM     42  CG  LYS C   3      20.981  -0.034  17.826  1.00 29.79 LIG 0.00  C 
BRANCH 42 43
ATOM     43  CD  LYS C   3      21.196   0.645  16.507  1.00 31.63 LIG 0.03  C 
BRANCH 43 44
ATOM     44  CE  LYS C   3      19.955   0.542  15.636  1.00 35.23 LIG 0.23  C 
BRANCH 44 45
ATOM     45  NZ  LYS C   3      20.285   0.534  14.186  1.00 39.07 LIG-0.08  N 
ATOM     46 HZ3  LYS C   3      19.619   0.155  13.732  1.00 39.07 LIG 0.27  HD
ATOM     47 HZ2  LYS C   3      21.034   0.072  14.055  1.00 39.07 LIG 0.27  HD
ATOM     48 HZ1  LYS C   3      20.398   1.370  13.903  1.00 39.07 LIG 0.27  HD
ENDBRANCH 44 45
ENDBRANCH 43 44
ENDBRANCH 42 43
ENDBRANCH 41 42
ENDBRANCH 1 41
TORSDOF 20
ENDMDL
MODEL 13
USER: ADFR SOLUTION from run 118
USER: SCORE 18.836264 LL:  -2.841 LR: -17.092 RR:   0.000 FEB: -11.126
USER: RMSD 7.810504
USER: SEED 117
USER: STATUS no improvement in best in 8 clusters for 5 generations
USER: GENES 22
USER: genes 0 Translation |==|  0.52394 0.36797 0.39154
USER: genes 1 Rotation |==|  0.44184 0.81499 0.13886 0.63029
USER: genes 2 Torsion [C]-CA--N-[C] |==|  0.81771
USER: genes 3 Torsion [N]-C--CA-[N] |==|  0.38806
USER: genes 4 Torsion [C]-CA--CB-[CG] |==|  0.04123
USER: genes 5 Torsion [CA]-CB--CG-[CD] |==|  0.57898
USER: genes 6 Torsion [CB]-CG--CD-[NE] |==|  0.12208
USER: genes 7 Torsion [CG]-CD--NE-[CZ] |==|  0.29102
USER: genes 8 Torsion [N]-CA--C-[N] |==|  0.87386
USER: genes 9 Torsion [C]-N--CA-[CB] |==|  0.22163
USER: genes 10 Torsion [N]-CA--C-[N] |==|  0.38333
USER: genes 11 Torsion [C]-N--CA-[C] |==|  0.49805
USER: genes 12 Torsion [N]-CA--C-[O] |==|  0.67620
USER: genes 13 Torsion [N]-CA--CB-[CG] |==|  0.68161
USER: genes 14 Torsion [CA]-CB--CG-[CD1] |==|  0.02714
USER: genes 15 Torsion [N]-CA--CB-[CG2] |==|  0.43740
USER: genes 16 Torsion [CA]-CB--CG1-[CD1] |==|  0.41469
USER: genes 17 Torsion [N]-CA--CB-[CG] |==|  0.68600
USER: genes 18 Torsion [CA]-CB--CG-[CD] |==|  0.97806
USER: genes 19 Torsion [CB]-CG--CD-[CE] |==|  0.64972
USER: genes 20 Torsion [CG]-CD--CE-[NZ] |==|  0.64679
USER: genes 21 Torsion [CD]-CE--NZ-[HZ2] |==|  0.07442
ROOT
ATOM      1  CA  LYS C   3      21.430   1.355  19.033  1.00 27.41 LIG 0.18  C 
ENDROOT
BRANCH 1 2
ATOM      2  N   LYS C   3      22.767   1.349  19.651  1.00 28.91 LIG-0.35  N 
ATOM      3  C   ARG C   2      23.566   2.404  19.518  1.00 30.62 LIG 0.26  C 
ATOM      4 O    ARG C   2      23.149   3.469  19.058  1.00 31.16 LIG-0.27  OA
ATOM      5 H    LYS C   3      22.967   0.633  20.083  1.00 28.91 LIG 0.16  HD
BRANCH 3 6
ATOM      6  CA  ARG C   2      25.049   2.301  19.932  1.00 31.50 LIG 0.40  C 
ATOM      7  N   ARG C   2      25.911   3.008  18.957  1.00 33.48 LIG 0.61  N 
BRANCH 6 8
ATOM      8  CB  ARG C   2      25.341   2.780  21.357  1.00 31.91 LIG 0.05  C 
BRANCH 8 9
ATOM      9  CG  ARG C   2      24.115   2.944  22.257  1.00 31.74 LIG 0.02  C 
BRANCH 9 10
ATOM     10  CD  ARG C   2      24.343   4.013  23.318  1.00 33.46 LIG 0.14  C 
BRANCH 10 11
ATOM     11  NE  ARG C   2      24.983   5.239  22.818  1.00 33.35 LIG-0.23  N 
ATOM     12  CZ  ARG C   2      24.375   6.403  22.599  1.00 33.45 LIG 0.67  C 
ATOM     13  NH1 ARG C   2      23.087   6.552  22.851  1.00 31.52 LIG-0.23  N 
ATOM     14  NH2 ARG C   2      25.069   7.440  22.133  1.00 34.66 LIG-0.23  N 
ATOM     15 1HH1 ARG C   2      22.631   5.893  23.161  1.00 31.52 LIG 0.17  HD
ATOM     16 2HH1 ARG C   2      22.705   7.308  22.705  1.00 31.52 LIG 0.17  HD
ATOM     17 1HH2 ARG C   2      25.910   7.358  21.973  1.00 34.66 LIG 0.17  HD
ATOM     18 2HH2 ARG C   2      24.676   8.192  21.991  1.00 34.66 LIG 0.17  HD
ATOM     19 HE   ARG C   2      25.826   5.201  22.653  1.00 33.35 LIG 0.18  HD
ENDBRANCH 10 11
ENDBRANCH 9 10
ENDBRANCH 8 9
ENDBRANCH 6 8
ENDBRANCH 3 6
ENDBRANCH 1 2
BRANCH 1 20
ATOM     20  C   LYS C   3      20.424   2.365  19.577  1.00 25.28 LIG 0.24  C 
ATOM     21 O    LYS C   3      19.747   2.996  18.788  1.00 21.80 LIG-0.27  OA
ATOM     22  N   ILE C   4      20.303   2.499  20.892  1.00 24.70 LIG-0.35  N 
ATOM     23 H    ILE C   4      20.822   2.130  21.469  1.00 24.70 LIG 0.16  HD
BRANCH 22 24
ATOM     24  CA  ILE C   4      19.231   3.319  21.461  1.00 24.27 LIG 0.18  C 
BRANCH 24 25
ATOM     25  C   ILE C   4      19.557   3.849  22.864  1.00 24.50 LIG 0.24  C 
ATOM     26  N   LEU C   5      19.220   5.118  23.098  1.00 23.50 LIG-0.34  N 
ATOM     27 H    LEU C   5      18.888   5.636  22.497  1.00 23.50 LIG 0.16  HD
ATOM     28 O    ILE C   4      20.079   3.122  23.713  1.00 23.85 LIG-0.27  OA
BRANCH 26 29
ATOM     29  CA  LEU C   5      19.380   5.754  24.402  1.00 24.14 LIG 0.18  C 
BRANCH 29 30
ATOM     30  C   LEU C   5      18.914   7.213  24.325  1.00 24.32 LIG 0.20  C 
ATOM     31 O    LEU C   5      19.731   8.124  24.518  1.00 24.96 LIG-0.65  OA
ATOM     32 OXT  LEU C   5      17.751   7.529  24.040  1.00 24.51 LIG-0.65  OA
ENDBRANCH 29 30
BRANCH 29 33
ATOM     33  CB  LEU C   5      20.844   5.667  24.850  1.00 23.93 LIG 0.04  C 
BRANCH 33 34
ATOM     34  CG  LEU C   5      21.192   4.823  26.096  1.00 26.81 LIG-0.02  C 
ATOM     35  CD1 LEU C   5      19.988   3.994  26.558  1.00 29.09 LIG 0.01  C 
ATOM     36  CD2 LEU C   5      22.383   3.916  25.859  1.00 28.70 LIG 0.01  C 
ENDBRANCH 33 34
ENDBRANCH 29 33
ENDBRANCH 26 29
ENDBRANCH 24 25
BRANCH 24 37
ATOM     37  CB  ILE C   4      17.890   2.576  21.490  1.00 24.66 LIG 0.01  C 
ATOM     38  CG2 ILE C   4      16.959   3.183  22.548  1.00 24.52 LIG 0.01  C 
BRANCH 37 39
ATOM     39  CG1 ILE C   4      17.236   2.562  20.103  1.00 25.15 LIG 0.00  C 
ATOM     40  CD1 ILE C   4      16.386   1.352  19.817  1.00 24.74 LIG 0.01  C 
ENDBRANCH 37 39
ENDBRANCH 24 37
ENDBRANCH 22 24
ENDBRANCH 1 20
BRANCH 1 41
ATOM     41  CB  LYS C   3      20.774  -0.020  18.998  1.00 27.76 LIG 0.04  C 
BRANCH 41 42
ATOM     42  CG  LYS C   3      20.610  -0.558  17.610  1.00 29.79 LIG 0.00  C 
BRANCH 42 43
ATOM     43  CD  LYS C   3      20.963   0.479  16.587  1.00 31.63 LIG 0.03  C 
BRANCH 43 44
ATOM     44  CE  LYS C   3      19.829   0.670  15.595  1.00 35.23 LIG 0.23  C 
BRANCH 44 45
ATOM     45  NZ  LYS C   3      20.285   0.537  14.186  1.00 39.07 LIG-0.08  N 
ATOM     46 HZ3  LYS C   3      19.634   0.180  13.695  1.00 39.07 LIG 0.27  HD
ATOM     47 HZ2  LYS C   3      21.002   0.011  14.155  1.00 39.07 LIG 0.27  HD
ATOM     48 HZ1  LYS C   3      20.492   1.341  13.864  1.00 39.07 LIG 0.27  HD
ENDBRANCH 44 45
ENDBRANCH 43 44
ENDBRANCH 42 43
ENDBRANCH 41 42
ENDBRANCH 1 41
TORSDOF 20
ENDMDL
MODEL 14
USER: ADFR SOLUTION from run 22
USER: SCORE 19.679221 LL:  -3.070 LR: -17.037 RR:   0.000 FEB: -11.071
USER: RMSD 6.941711
USER: SEED 21
USER: STATUS no improvement in best in 7 clusters for 5 generations
USER: GENES 22
USER: genes 0 Translation |==|  0.56969 0.38917 0.39996
USER: genes 1 Rotation |==|  0.44480 0.81160 0.26175 0.80512
USER: genes 2 Torsion [C]-CA--N-[C] |==|  0.66315
USER: genes 3 Torsion [N]-C--CA-[N] |==|  0.31415
USER: genes 4 Torsion [C]-CA--CB-[CG] |==|  0.31623
USER: genes 5 Torsion [CA]-CB--CG-[CD] |==|  0.70192
USER: genes 6 Torsion [CB]-CG--CD-[NE] |==|  0.99046
USER: genes 7 Torsion [CG]-CD--NE-[CZ] |==|  0.25620
USER: genes 8 Torsion [N]-CA--C-[N] |==|  0.34133
USER: genes 9 Torsion [C]-N--CA-[CB] |==|  0.75697
USER: genes 10 Torsion [N]-CA--C-[N] |==|  0.22933
USER: genes 11 Torsion [C]-N--CA-[C] |==|  0.49290
USER: genes 12 Torsion [N]-CA--C-[O] |==|  0.70968
USER: genes 13 Torsion [N]-CA--CB-[CG] |==|  0.64521
USER: genes 14 Torsion [CA]-CB--CG-[CD1] |==|  0.49678
USER: genes 15 Torsion [N]-CA--CB-[CG2] |==|  0.15268
USER: genes 16 Torsion [CA]-CB--CG1-[CD1] |==|  0.66841
USER: genes 17 Torsion [N]-CA--CB-[CG] |==|  0.45851
USER: genes 18 Torsion [CA]-CB--CG-[CD] |==|  0.20838
USER: genes 19 Torsion [CB]-CG--CD-[CE] |==|  0.57147
USER: genes 20 Torsion [CG]-CD--CE-[NZ] |==|  0.59392
USER: genes 21 Torsion [CD]-CE--NZ-[HZ2] |==|  0.76906
ROOT
ATOM      1  CA  LYS C   3      22.185   1.705  19.210  1.00 27.41 LIG 0.18  C 
ENDROOT
BRANCH 1 2
ATOM      2  N   LYS C   3      23.011   2.069  20.374  1.00 28.91 LIG-0.35  N 
ATOM      3  C   ARG C   2      23.831   3.114  20.307  1.00 30.62 LIG 0.26  C 
ATOM      4 O    ARG C   2      23.779   3.909  19.367  1.00 31.16 LIG-0.27  OA
ATOM      5 H    LYS C   3      22.915   1.564  21.064  1.00 28.91 LIG 0.16  HD
BRANCH 3 6
ATOM      6  CA  ARG C   2      24.880   3.339  21.416  1.00 31.50 LIG 0.40  C 
ATOM      7  N   ARG C   2      26.250   3.159  20.880  1.00 33.48 LIG 0.61  N 
BRANCH 6 8
ATOM      8  CB  ARG C   2      24.756   4.682  22.140  1.00 31.91 LIG 0.05  C 
BRANCH 8 9
ATOM      9  CG  ARG C   2      24.361   4.596  23.615  1.00 31.74 LIG 0.02  C 
BRANCH 9 10
ATOM     10  CD  ARG C   2      22.924   5.052  23.834  1.00 33.46 LIG 0.14  C 
BRANCH 10 11
ATOM     11  NE  ARG C   2      22.252   5.546  22.623  1.00 33.35 LIG-0.23  N 
ATOM     12  CZ  ARG C   2      21.512   4.818  21.789  1.00 33.45 LIG 0.67  C 
ATOM     13  NH1 ARG C   2      21.299   3.535  22.018  1.00 31.52 LIG-0.23  N 
ATOM     14  NH2 ARG C   2      20.963   5.386  20.716  1.00 34.66 LIG-0.23  N 
ATOM     15 1HH1 ARG C   2      21.640   3.160  22.712  1.00 31.52 LIG 0.17  HD
ATOM     16 2HH1 ARG C   2      20.819   3.075  21.473  1.00 31.52 LIG 0.17  HD
ATOM     17 1HH2 ARG C   2      21.087   6.223  20.562  1.00 34.66 LIG 0.17  HD
ATOM     18 2HH2 ARG C   2      20.485   4.915  20.178  1.00 34.66 LIG 0.17  HD
ATOM     19 HE   ARG C   2      22.345   6.380  22.436  1.00 33.35 LIG 0.18  HD
ENDBRANCH 10 11
ENDBRANCH 9 10
ENDBRANCH 8 9
ENDBRANCH 6 8
ENDBRANCH 3 6
ENDBRANCH 1 2
BRANCH 1 20
ATOM     20  C   LYS C   3      20.674   1.687  19.416  1.00 25.28 LIG 0.24  C 
ATOM     21 O    LYS C   3      20.214   0.994  20.304  1.00 21.80 LIG-0.27  OA
ATOM     22  N   ILE C   4      19.916   2.450  18.638  1.00 24.70 LIG-0.35  N 
ATOM     23 H    ILE C   4      20.201   2.883  17.953  1.00 24.70 LIG 0.16  HD
BRANCH 22 24
ATOM     24  CA  ILE C   4      18.486   2.603  18.913  1.00 24.27 LIG 0.18  C 
BRANCH 24 25
ATOM     25  C   ILE C   4      18.161   2.658  20.412  1.00 24.50 LIG 0.24  C 
ATOM     26  N   LEU C   5      18.313   3.847  20.996  1.00 23.50 LIG-0.34  N 
ATOM     27 H    LEU C   5      18.623   4.537  20.588  1.00 23.50 LIG 0.16  HD
ATOM     28 O    ILE C   4      17.763   1.656  21.013  1.00 23.85 LIG-0.27  OA
BRANCH 26 29
ATOM     29  CA  LEU C   5      17.967   4.095  22.393  1.00 24.14 LIG 0.18  C 
BRANCH 29 30
ATOM     30  C   LEU C   5      18.323   5.540  22.763  1.00 24.32 LIG 0.20  C 
ATOM     31 O    LEU C   5      19.328   5.762  23.453  1.00 24.96 LIG-0.65  OA
ATOM     32 OXT  LEU C   5      17.664   6.512  22.370  1.00 24.51 LIG-0.65  OA
ENDBRANCH 29 30
BRANCH 29 33
ATOM     33  CB  LEU C   5      18.701   3.099  23.298  1.00 23.93 LIG 0.04  C 
BRANCH 33 34
ATOM     34  CG  LEU C   5      17.884   2.279  24.320  1.00 26.81 LIG-0.02  C 
ATOM     35  CD1 LEU C   5      18.784   1.322  25.109  1.00 29.09 LIG 0.01  C 
ATOM     36  CD2 LEU C   5      17.109   3.164  25.276  1.00 28.70 LIG 0.01  C 
ENDBRANCH 33 34
ENDBRANCH 29 33
ENDBRANCH 26 29
ENDBRANCH 24 25
BRANCH 24 37
ATOM     37  CB  ILE C   4      17.649   1.506  18.244  1.00 24.66 LIG 0.01  C 
ATOM     38  CG2 ILE C   4      18.153   0.116  18.656  1.00 24.52 LIG 0.01  C 
BRANCH 37 39
ATOM     39  CG1 ILE C   4      16.158   1.681  18.555  1.00 25.15 LIG 0.00  C 
ATOM     40  CD1 ILE C   4      15.525   0.525  19.286  1.00 24.74 LIG 0.01  C 
ENDBRANCH 37 39
ENDBRANCH 24 37
ENDBRANCH 22 24
ENDBRANCH 1 20
BRANCH 1 41
ATOM     41  CB  LYS C   3      22.606   0.395  18.556  1.00 27.76 LIG 0.04  C 
BRANCH 41 42
ATOM     42  CG  LYS C   3      21.575  -0.152  17.617  1.00 29.79 LIG 0.00  C 
BRANCH 42 43
ATOM     43  CD  LYS C   3      21.553   0.624  16.334  1.00 31.63 LIG 0.03  C 
BRANCH 43 44
ATOM     44  CE  LYS C   3      20.189   0.533  15.670  1.00 35.23 LIG 0.23  C 
BRANCH 44 45
ATOM     45  NZ  LYS C   3      20.285   0.534  14.186  1.00 39.07 LIG-0.08  N 
ATOM     46 HZ3  LYS C   3      21.005   0.075  13.934  1.00 39.07 LIG 0.27  HD
ATOM     47 HZ2  LYS C   3      20.350   1.372  13.894  1.00 39.07 LIG 0.27  HD
ATOM     48 HZ1  LYS C   3      19.557   0.155  13.841  1.00 39.07 LIG 0.27  HD
ENDBRANCH 44 45
ENDBRANCH 43 44
ENDBRANCH 42 43
ENDBRANCH 41 42
ENDBRANCH 1 41
TORSDOF 20
ENDMDL
MODEL 15
USER: ADFR SOLUTION from run 90
USER: SCORE 17.575253 LL:  -2.264 LR: -16.940 RR:   0.000 FEB: -10.974
USER: RMSD 7.674688
USER: SEED 89
USER: STATUS no improvement in best in 3 clusters for 5 generations
USER: GENES 22
USER: genes 0 Translation |==|  0.46331 0.43782 0.42905
USER: genes 1 Rotation |==|  0.45119 0.91615 0.31448 0.70004
USER: genes 2 Torsion [C]-CA--N-[C] |==|  0.64267
USER: genes 3 Torsion [N]-C--CA-[N] |==|  0.40717
USER: genes 4 Torsion [C]-CA--CB-[CG] |==|  0.10184
USER: genes 5 Torsion [CA]-CB--CG-[CD] |==|  0.66044
USER: genes 6 Torsion [CB]-CG--CD-[NE] |==|  0.03523
USER: genes 7 Torsion [CG]-CD--NE-[CZ] |==|  0.78519
USER: genes 8 Torsion [N]-CA--C-[N] |==|  0.02432
USER: genes 9 Torsion [C]-N--CA-[CB] |==|  0.43226
USER: genes 10 Torsion [N]-CA--C-[N] |==|  0.85016
USER: genes 11 Torsion [C]-N--CA-[C] |==|  0.47815
USER: genes 12 Torsion [N]-CA--C-[O] |==|  0.01279
USER: genes 13 Torsion [N]-CA--CB-[CG] |==|  0.64547
USER: genes 14 Torsion [CA]-CB--CG-[CD1] |==|  0.63020
USER: genes 15 Torsion [N]-CA--CB-[CG2] |==|  0.15989
USER: genes 16 Torsion [CA]-CB--CG1-[CD1] |==|  0.26849
USER: genes 17 Torsion [N]-CA--CB-[CG] |==|  0.87654
USER: genes 18 Torsion [CA]-CB--CG-[CD] |==|  0.50547
USER: genes 19 Torsion [CB]-CG--CD-[CE] |==|  0.18903
USER: genes 20 Torsion [CG]-CD--CE-[NZ] |==|  0.38079
USER: genes 21 Torsion [CD]-CE--NZ-[HZ2] |==|  0.02964
ROOT
ATOM      1  CA  LYS C   3      20.430   2.508  19.821  1.00 27.41 LIG 0.18  C 
ENDROOT
BRANCH 1 2
ATOM      2  N   LYS C   3      21.769   2.439  20.430  1.00 28.91 LIG-0.35  N 
ATOM      3  C   ARG C   2      22.698   3.330  20.093  1.00 30.62 LIG 0.26  C 
ATOM      4 O    ARG C   2      22.416   4.332  19.434  1.00 31.16 LIG-0.27  OA
ATOM      5 H    LYS C   3      21.883   1.800  20.994  1.00 28.91 LIG 0.16  HD
BRANCH 3 6
ATOM      6  CA  ARG C   2      24.164   3.108  20.522  1.00 31.50 LIG 0.40  C 
ATOM      7  N   ARG C   2      25.091   3.640  19.495  1.00 33.48 LIG 0.61  N 
BRANCH 6 8
ATOM      8  CB  ARG C   2      24.510   3.669  21.903  1.00 31.91 LIG 0.05  C 
BRANCH 8 9
ATOM      9  CG  ARG C   2      23.405   3.547  22.955  1.00 31.74 LIG 0.02  C 
BRANCH 9 10
ATOM     10  CD  ARG C   2      23.022   4.909  23.519  1.00 33.46 LIG 0.14  C 
BRANCH 10 11
ATOM     11  NE  ARG C   2      23.551   6.053  22.760  1.00 33.35 LIG-0.23  N 
ATOM     12  CZ  ARG C   2      24.801   6.506  22.803  1.00 33.45 LIG 0.67  C 
ATOM     13  NH1 ARG C   2      25.711   5.914  23.554  1.00 31.52 LIG-0.23  N 
ATOM     14  NH2 ARG C   2      25.152   7.562  22.071  1.00 34.66 LIG-0.23  N 
ATOM     15 1HH1 ARG C   2      25.499   5.226  24.024  1.00 31.52 LIG 0.17  HD
ATOM     16 2HH1 ARG C   2      26.516   6.216  23.574  1.00 31.52 LIG 0.17  HD
ATOM     17 1HH2 ARG C   2      24.571   7.951  21.570  1.00 34.66 LIG 0.17  HD
ATOM     18 2HH2 ARG C   2      25.960   7.855  22.098  1.00 34.66 LIG 0.17  HD
ATOM     19 HE   ARG C   2      23.002   6.465  22.242  1.00 33.35 LIG 0.18  HD
ENDBRANCH 10 11
ENDBRANCH 9 10
ENDBRANCH 8 9
ENDBRANCH 6 8
ENDBRANCH 3 6
ENDBRANCH 1 2
BRANCH 1 20
ATOM     20  C   LYS C   3      19.238   2.497  20.773  1.00 25.28 LIG 0.24  C 
ATOM     21 O    LYS C   3      18.121   2.364  20.309  1.00 21.80 LIG-0.27  OA
ATOM     22  N   ILE C   4      19.463   2.606  22.076  1.00 24.70 LIG-0.35  N 
ATOM     23 H    ILE C   4      20.228   2.784  22.426  1.00 24.70 LIG 0.16  HD
BRANCH 22 24
ATOM     24  CA  ILE C   4      18.374   2.421  23.038  1.00 24.27 LIG 0.18  C 
BRANCH 24 25
ATOM     25  C   ILE C   4      17.479   3.660  23.182  1.00 24.50 LIG 0.24  C 
ATOM     26  N   LEU C   5      18.107   4.799  23.471  1.00 23.50 LIG-0.34  N 
ATOM     27 H    LEU C   5      18.951   4.847  23.623  1.00 23.50 LIG 0.16  HD
ATOM     28 O    ILE C   4      16.259   3.585  23.012  1.00 23.85 LIG-0.27  OA
BRANCH 26 29
ATOM     29  CA  LEU C   5      17.419   6.085  23.559  1.00 24.14 LIG 0.18  C 
BRANCH 29 30
ATOM     30  C   LEU C   5      18.383   7.149  24.097  1.00 24.32 LIG 0.20  C 
ATOM     31 O    LEU C   5      19.569   6.851  24.295  1.00 24.96 LIG-0.65  OA
ATOM     32 OXT  LEU C   5      18.036   8.318  24.311  1.00 24.51 LIG-0.65  OA
ENDBRANCH 29 30
BRANCH 29 33
ATOM     33  CB  LEU C   5      16.184   5.956  24.457  1.00 23.93 LIG 0.04  C 
BRANCH 33 34
ATOM     34  CG  LEU C   5      14.818   6.432  23.917  1.00 26.81 LIG-0.02  C 
ATOM     35  CD1 LEU C   5      14.085   7.297  24.950  1.00 29.09 LIG 0.01  C 
ATOM     36  CD2 LEU C   5      14.949   7.190  22.611  1.00 28.70 LIG 0.01  C 
ENDBRANCH 33 34
ENDBRANCH 29 33
ENDBRANCH 26 29
ENDBRANCH 24 25
BRANCH 24 37
ATOM     37  CB  ILE C   4      18.889   1.994  24.417  1.00 24.66 LIG 0.01  C 
ATOM     38  CG2 ILE C   4      19.885   3.025  24.965  1.00 24.52 LIG 0.01  C 
BRANCH 37 39
ATOM     39  CG1 ILE C   4      17.729   1.757  25.391  1.00 25.15 LIG 0.00  C 
ATOM     40  CD1 ILE C   4      17.299   0.319  25.524  1.00 24.74 LIG 0.01  C 
ENDBRANCH 37 39
ENDBRANCH 24 37
ENDBRANCH 22 24
ENDBRANCH 1 20
BRANCH 1 41
ATOM     41  CB  LYS C   3      20.202   1.458  18.741  1.00 27.76 LIG 0.04  C 
BRANCH 41 42
ATOM     42  CG  LYS C   3      21.359   1.322  17.799  1.00 29.79 LIG 0.00  C 
BRANCH 42 43
ATOM     43  CD  LYS C   3      21.065   0.312  16.730  1.00 31.63 LIG 0.03  C 
BRANCH 43 44
ATOM     44  CE  LYS C   3      19.975   0.812  15.798  1.00 35.23 LIG 0.23  C 
BRANCH 44 45
ATOM     45  NZ  LYS C   3      20.285   0.536  14.370  1.00 39.07 LIG-0.08  N 
ATOM     46 HZ3  LYS C   3      19.581   0.155  13.981  1.00 39.07 LIG 0.27  HD
ATOM     47 HZ2  LYS C   3      20.985  -0.012  14.319  1.00 39.07 LIG 0.27  HD
ATOM     48 HZ1  LYS C   3      20.475   1.300  13.955  1.00 39.07 LIG 0.27  HD
ENDBRANCH 44 45
ENDBRANCH 43 44
ENDBRANCH 42 43
ENDBRANCH 41 42
ENDBRANCH 1 41
TORSDOF 20
ENDMDL
MODEL 16
USER: ADFR SOLUTION from run 26
USER: SCORE 17.891576 LL:  -2.436 LR: -16.907 RR:   0.000 FEB: -10.941
USER: RMSD 5.113652
USER: SEED 25
USER: STATUS searching
USER: GENES 22
USER: genes 0 Translation |==|  0.56455 0.54445 0.50405
USER: genes 1 Rotation |==|  0.43033 0.77095 0.91203 0.54429
USER: genes 2 Torsion [C]-CA--N-[C] |==|  0.73394
USER: genes 3 Torsion [N]-C--CA-[N] |==|  0.98120
USER: genes 4 Torsion [C]-CA--CB-[CG] |==|  0.37032
USER: genes 5 Torsion [CA]-CB--CG-[CD] |==|  0.07085
USER: genes 6 Torsion [CB]-CG--CD-[NE] |==|  0.27348
USER: genes 7 Torsion [CG]-CD--NE-[CZ] |==|  0.63714
USER: genes 8 Torsion [N]-CA--C-[N] |==|  0.29467
USER: genes 9 Torsion [C]-N--CA-[CB] |==|  0.36000
USER: genes 10 Torsion [N]-CA--C-[N] |==|  0.92664
USER: genes 11 Torsion [C]-N--CA-[C] |==|  0.21862
USER: genes 12 Torsion [N]-CA--C-[O] |==|  0.99251
USER: genes 13 Torsion [N]-CA--CB-[CG] |==|  0.65696
USER: genes 14 Torsion [CA]-CB--CG-[CD1] |==|  0.97851
USER: genes 15 Torsion [N]-CA--CB-[CG2] |==|  0.53871
USER: genes 16 Torsion [CA]-CB--CG1-[CD1] |==|  0.84111
USER: genes 17 Torsion [N]-CA--CB-[CG] |==|  0.51114
USER: genes 18 Torsion [CA]-CB--CG-[CD] |==|  0.70512
USER: genes 19 Torsion [CB]-CG--CD-[CE] |==|  0.91997
USER: genes 20 Torsion [CG]-CD--CE-[NZ] |==|  0.32519
USER: genes 21 Torsion [CD]-CE--NZ-[HZ2] |==|  0.92380
ROOT
ATOM      1  CA  LYS C   3      22.100   4.267  21.396  1.00 27.41 LIG 0.18  C 
ENDROOT
BRANCH 1 2
ATOM      2  N   LYS C   3      23.231   5.105  21.830  1.00 28.91 LIG-0.35  N 
ATOM      3  C   ARG C   2      24.081   4.651  22.747  1.00 30.62 LIG 0.26  C 
ATOM      4 O    ARG C   2      24.067   3.473  23.106  1.00 31.16 LIG-0.27  OA
ATOM      5 H    LYS C   3      23.284   5.875  21.450  1.00 28.91 LIG 0.16  HD
BRANCH 3 6
ATOM      6  CA  ARG C   2      25.101   5.614  23.391  1.00 31.50 LIG 0.40  C 
ATOM      7  N   ARG C   2      25.060   6.936  22.724  1.00 33.48 LIG 0.61  N 
BRANCH 6 8
ATOM      8  CB  ARG C   2      24.953   5.770  24.906  1.00 31.91 LIG 0.05  C 
BRANCH 8 9
ATOM      9  CG  ARG C   2      26.255   5.675  25.705  1.00 31.74 LIG 0.02  C 
BRANCH 9 10
ATOM     10  CD  ARG C   2      27.458   6.062  24.855  1.00 33.46 LIG 0.14  C 
BRANCH 10 11
ATOM     11  NE  ARG C   2      27.918   7.446  25.047  1.00 33.35 LIG-0.23  N 
ATOM     12  CZ  ARG C   2      28.171   8.325  24.080  1.00 33.45 LIG 0.67  C 
ATOM     13  NH1 ARG C   2      27.993   8.005  22.811  1.00 31.52 LIG-0.23  N 
ATOM     14  NH2 ARG C   2      28.594   9.550  24.387  1.00 34.66 LIG-0.23  N 
ATOM     15 1HH1 ARG C   2      27.711   7.221  22.601  1.00 31.52 LIG 0.17  HD
ATOM     16 2HH1 ARG C   2      28.160   8.581  22.195  1.00 31.52 LIG 0.17  HD
ATOM     17 1HH2 ARG C   2      28.705   9.773  25.210  1.00 34.66 LIG 0.17  HD
ATOM     18 2HH2 ARG C   2      28.757  10.118  23.762  1.00 34.66 LIG 0.17  HD
ATOM     19 HE   ARG C   2      28.034   7.711  25.857  1.00 33.35 LIG 0.18  HD
ENDBRANCH 10 11
ENDBRANCH 9 10
ENDBRANCH 8 9
ENDBRANCH 6 8
ENDBRANCH 3 6
ENDBRANCH 1 2
BRANCH 1 20
ATOM     20  C   LYS C   3      22.300   3.440  20.131  1.00 25.28 LIG 0.24  C 
ATOM     21 O    LYS C   3      22.318   4.012  19.056  1.00 21.80 LIG-0.27  OA
ATOM     22  N   ILE C   4      22.477   2.130  20.246  1.00 24.70 LIG-0.35  N 
ATOM     23 H    ILE C   4      22.387   1.689  20.979  1.00 24.70 LIG 0.16  HD
BRANCH 22 24
ATOM     24  CA  ILE C   4      22.850   1.323  19.083  1.00 24.27 LIG 0.18  C 
BRANCH 24 25
ATOM     25  C   ILE C   4      21.692   0.474  18.541  1.00 24.50 LIG 0.24  C 
ATOM     26  N   LEU C   5      20.751   0.142  19.425  1.00 23.50 LIG-0.34  N 
ATOM     27 H    LEU C   5      20.800   0.337  20.260  1.00 23.50 LIG 0.16  HD
ATOM     28 O    ILE C   4      21.645   0.150  17.350  1.00 23.85 LIG-0.27  OA
BRANCH 26 29
ATOM     29  CA  LEU C   5      19.540  -0.588  19.059  1.00 24.14 LIG 0.18  C 
BRANCH 29 30
ATOM     30  C   LEU C   5      19.864  -2.079  18.909  1.00 24.32 LIG 0.20  C 
ATOM     31 O    LEU C   5      21.033  -2.466  19.048  1.00 24.96 LIG-0.65  OA
ATOM     32 OXT  LEU C   5      18.995  -2.933  18.686  1.00 24.51 LIG-0.65  OA
ENDBRANCH 29 30
BRANCH 29 33
ATOM     33  CB  LEU C   5      18.958  -0.017  17.761  1.00 23.93 LIG 0.04  C 
BRANCH 33 34
ATOM     34  CG  LEU C   5      17.499   0.490  17.760  1.00 26.81 LIG-0.02  C 
ATOM     35  CD1 LEU C   5      16.793   0.151  19.078  1.00 29.09 LIG 0.01  C 
ATOM     36  CD2 LEU C   5      17.410   1.980  17.497  1.00 28.70 LIG 0.01  C 
ENDBRANCH 33 34
ENDBRANCH 29 33
ENDBRANCH 26 29
ENDBRANCH 24 25
BRANCH 24 37
ATOM     37  CB  ILE C   4      24.059   0.424  19.369  1.00 24.66 LIG 0.01  C 
ATOM     38  CG2 ILE C   4      24.634  -0.139  18.062  1.00 24.52 LIG 0.01  C 
BRANCH 37 39
ATOM     39  CG1 ILE C   4      25.124   1.172  20.179  1.00 25.15 LIG 0.00  C 
ATOM     40  CD1 ILE C   4      25.630   2.439  19.540  1.00 24.74 LIG 0.01  C 
ENDBRANCH 37 39
ENDBRANCH 24 37
ENDBRANCH 22 24
ENDBRANCH 1 20
BRANCH 1 41
ATOM     41  CB  LYS C   3      20.790   5.036  21.276  1.00 27.76 LIG 0.04  C 
BRANCH 41 42
ATOM     42  CG  LYS C   3      19.624   4.162  20.928  1.00 29.79 LIG 0.00  C 
BRANCH 42 43
ATOM     43  CD  LYS C   3      19.211   4.363  19.500  1.00 31.63 LIG 0.03  C 
BRANCH 43 44
ATOM     44  CE  LYS C   3      19.537   5.772  19.036  1.00 35.23 LIG 0.23  C 
BRANCH 44 45
ATOM     45  NZ  LYS C   3      20.526   5.784  17.925  1.00 39.07 LIG-0.08  N 
ATOM     46 HZ3  LYS C   3      20.097   5.785  17.145  1.00 39.07 LIG 0.27  HD
ATOM     47 HZ2  LYS C   3      21.041   5.060  17.980  1.00 39.07 LIG 0.27  HD
ATOM     48 HZ1  LYS C   3      21.032   6.514  17.986  1.00 39.07 LIG 0.27  HD
ENDBRANCH 44 45
ENDBRANCH 43 44
ENDBRANCH 42 43
ENDBRANCH 41 42
ENDBRANCH 1 41
TORSDOF 20
ENDMDL
MODEL 17
USER: ADFR SOLUTION from run 152
USER: SCORE 19.225486 LL:  -2.387 LR: -16.910 RR:   0.000 FEB: -10.944
USER: RMSD 7.785400
USER: SEED 151
USER: STATUS no improvement in best in 2 clusters for 5 generations
USER: GENES 22
USER: genes 0 Translation |==|  0.45571 0.32366 0.38464
USER: genes 1 Rotation |==|  0.47539 0.86137 0.16237 0.56936
USER: genes 2 Torsion [C]-CA--N-[C] |==|  0.76180
USER: genes 3 Torsion [N]-C--CA-[N] |==|  0.34847
USER: genes 4 Torsion [C]-CA--CB-[CG] |==|  0.89444
USER: genes 5 Torsion [CA]-CB--CG-[CD] |==|  0.37007
USER: genes 6 Torsion [CB]-CG--CD-[NE] |==|  0.43298
USER: genes 7 Torsion [CG]-CD--NE-[CZ] |==|  0.27053
USER: genes 8 Torsion [N]-CA--C-[N] |==|  0.00496
USER: genes 9 Torsion [C]-N--CA-[CB] |==|  0.85215
USER: genes 10 Torsion [N]-CA--C-[N] |==|  0.35559
USER: genes 11 Torsion [C]-N--CA-[C] |==|  0.52651
USER: genes 12 Torsion [N]-CA--C-[O] |==|  0.44750
USER: genes 13 Torsion [N]-CA--CB-[CG] |==|  0.45381
USER: genes 14 Torsion [CA]-CB--CG-[CD1] |==|  0.32893
USER: genes 15 Torsion [N]-CA--CB-[CG2] |==|  0.45496
USER: genes 16 Torsion [CA]-CB--CG1-[CD1] |==|  0.25710
USER: genes 17 Torsion [N]-CA--CB-[CG] |==|  0.73243
USER: genes 18 Torsion [CA]-CB--CG-[CD] |==|  0.87268
USER: genes 19 Torsion [CB]-CG--CD-[CE] |==|  0.28070
USER: genes 20 Torsion [CG]-CD--CE-[NZ] |==|  0.34447
USER: genes 21 Torsion [CD]-CE--NZ-[HZ2] |==|  0.63173
ROOT
ATOM      1  CA  LYS C   3      20.304   0.624  18.888  1.00 27.41 LIG 0.18  C 
ENDROOT
BRANCH 1 2
ATOM      2  N   LYS C   3      21.641   0.163  19.302  1.00 28.91 LIG-0.35  N 
ATOM      3  C   ARG C   2      22.725   0.818  18.894  1.00 30.62 LIG 0.26  C 
ATOM      4 O    ARG C   2      22.640   1.916  18.342  1.00 31.16 LIG-0.27  OA
ATOM      5 H    LYS C   3      21.648  -0.534  19.805  1.00 28.91 LIG 0.16  HD
BRANCH 3 6
ATOM      6  CA  ARG C   2      24.121   0.195  19.103  1.00 31.50 LIG 0.40  C 
ATOM      7  N   ARG C   2      24.855   0.124  17.818  1.00 33.48 LIG 0.61  N 
BRANCH 6 8
ATOM      8  CB  ARG C   2      24.970   0.889  20.171  1.00 31.91 LIG 0.05  C 
BRANCH 8 9
ATOM      9  CG  ARG C   2      24.845   2.413  20.218  1.00 31.74 LIG 0.02  C 
BRANCH 9 10
ATOM     10  CD  ARG C   2      24.654   2.913  21.644  1.00 33.46 LIG 0.14  C 
BRANCH 10 11
ATOM     11  NE  ARG C   2      25.074   4.306  21.862  1.00 33.35 LIG-0.23  N 
ATOM     12  CZ  ARG C   2      24.274   5.370  21.861  1.00 33.45 LIG 0.67  C 
ATOM     13  NH1 ARG C   2      22.973   5.240  21.678  1.00 31.52 LIG-0.23  N 
ATOM     14  NH2 ARG C   2      24.783   6.585  22.061  1.00 34.66 LIG-0.23  N 
ATOM     15 1HH1 ARG C   2      22.632   4.460  21.558  1.00 31.52 LIG 0.17  HD
ATOM     16 2HH1 ARG C   2      22.467   5.934  21.680  1.00 31.52 LIG 0.17  HD
ATOM     17 1HH2 ARG C   2      25.628   6.682  22.191  1.00 34.66 LIG 0.17  HD
ATOM     18 2HH2 ARG C   2      24.266   7.273  22.061  1.00 34.66 LIG 0.17  HD
ATOM     19 HE   ARG C   2      25.910   4.445  22.002  1.00 33.35 LIG 0.18  HD
ENDBRANCH 10 11
ENDBRANCH 9 10
ENDBRANCH 8 9
ENDBRANCH 6 8
ENDBRANCH 3 6
ENDBRANCH 1 2
BRANCH 1 20
ATOM     20  C   LYS C   3      19.654   1.708  19.742  1.00 25.28 LIG 0.24  C 
ATOM     21 O    LYS C   3      18.527   2.071  19.465  1.00 21.80 LIG-0.27  OA
ATOM     22  N   ILE C   4      20.330   2.198  20.774  1.00 24.70 LIG-0.35  N 
ATOM     23 H    ILE C   4      21.155   2.023  20.944  1.00 24.70 LIG 0.16  HD
BRANCH 22 24
ATOM     24  CA  ILE C   4      19.684   3.105  21.724  1.00 24.27 LIG 0.18  C 
BRANCH 24 25
ATOM     25  C   ILE C   4      18.658   2.404  22.626  1.00 24.50 LIG 0.24  C 
ATOM     26  N   LEU C   5      18.805   2.601  23.936  1.00 23.50 LIG-0.34  N 
ATOM     27 H    LEU C   5      19.458   3.046  24.275  1.00 23.50 LIG 0.16  HD
ATOM     28 O    ILE C   4      17.748   1.724  22.143  1.00 23.85 LIG-0.27  OA
BRANCH 26 29
ATOM     29  CA  LEU C   5      17.869   2.080  24.928  1.00 24.14 LIG 0.18  C 
BRANCH 29 30
ATOM     30  C   LEU C   5      18.189   2.678  26.303  1.00 24.32 LIG 0.20  C 
ATOM     31 O    LEU C   5      17.327   2.652  27.193  1.00 24.96 LIG-0.65  OA
ATOM     32 OXT  LEU C   5      19.294   3.160  26.582  1.00 24.51 LIG-0.65  OA
ENDBRANCH 29 30
BRANCH 29 33
ATOM     33  CB  LEU C   5      17.943   0.549  24.962  1.00 23.93 LIG 0.04  C 
BRANCH 33 34
ATOM     34  CG  LEU C   5      17.348  -0.198  26.175  1.00 26.81 LIG-0.02  C 
ATOM     35  CD1 LEU C   5      16.206  -1.127  25.748  1.00 29.09 LIG 0.01  C 
ATOM     36  CD2 LEU C   5      18.397  -0.986  26.935  1.00 28.70 LIG 0.01  C 
ENDBRANCH 33 34
ENDBRANCH 29 33
ENDBRANCH 26 29
ENDBRANCH 24 25
BRANCH 24 37
ATOM     37  CB  ILE C   4      19.024   4.300  21.025  1.00 24.66 LIG 0.01  C 
ATOM     38  CG2 ILE C   4      18.034   4.998  21.967  1.00 24.52 LIG 0.01  C 
BRANCH 37 39
ATOM     39  CG1 ILE C   4      20.077   5.275  20.488  1.00 25.15 LIG 0.00  C 
ATOM     40  CD1 ILE C   4      20.494   5.034  19.060  1.00 24.74 LIG 0.01  C 
ENDBRANCH 37 39
ENDBRANCH 24 37
ENDBRANCH 22 24
ENDBRANCH 1 20
BRANCH 1 41
ATOM     41  CB  LYS C   3      19.306  -0.511  18.696  1.00 27.76 LIG 0.04  C 
BRANCH 41 42
ATOM     42  CG  LYS C   3      19.184  -0.952  17.270  1.00 29.79 LIG 0.00  C 
BRANCH 42 43
ATOM     43  CD  LYS C   3      19.067   0.228  16.352  1.00 31.63 LIG 0.03  C 
BRANCH 43 44
ATOM     44  CE  LYS C   3      20.396   0.523  15.677  1.00 35.23 LIG 0.23  C 
BRANCH 44 45
ATOM     45  NZ  LYS C   3      20.285   0.527  14.194  1.00 39.07 LIG-0.08  N 
ATOM     46 HZ3  LYS C   3      19.502   0.178  13.953  1.00 39.07 LIG 0.27  HD
ATOM     47 HZ2  LYS C   3      20.945   0.042  13.846  1.00 39.07 LIG 0.27  HD
ATOM     48 HZ1  LYS C   3      20.341   1.363  13.894  1.00 39.07 LIG 0.27  HD
ENDBRANCH 44 45
ENDBRANCH 43 44
ENDBRANCH 42 43
ENDBRANCH 41 42
ENDBRANCH 1 41
TORSDOF 20
ENDMDL
MODEL 18
USER: ADFR SOLUTION from run 38
USER: SCORE 19.683755 LL:  -3.696 LR: -16.880 RR:   0.000 FEB: -10.914
USER: RMSD 7.686060
USER: SEED 37
USER: STATUS 1 or 2 clusters left
USER: GENES 22
USER: genes 0 Translation |==|  0.49089 0.36117 0.39225
USER: genes 1 Rotation |==|  0.48225 0.80729 0.11267 0.57236
USER: genes 2 Torsion [C]-CA--N-[C] |==|  0.63101
USER: genes 3 Torsion [N]-C--CA-[N] |==|  0.48550
USER: genes 4 Torsion [C]-CA--CB-[CG] |==|  0.92741
USER: genes 5 Torsion [CA]-CB--CG-[CD] |==|  0.34968
USER: genes 6 Torsion [CB]-CG--CD-[NE] |==|  0.40693
USER: genes 7 Torsion [CG]-CD--NE-[CZ] |==|  0.34642
USER: genes 8 Torsion [N]-CA--C-[N] |==|  0.83832
USER: genes 9 Torsion [C]-N--CA-[CB] |==|  0.20941
USER: genes 10 Torsion [N]-CA--C-[N] |==|  0.02238
USER: genes 11 Torsion [C]-N--CA-[C] |==|  0.62349
USER: genes 12 Torsion [N]-CA--C-[O] |==|  0.51386
USER: genes 13 Torsion [N]-CA--CB-[CG] |==|  0.95197
USER: genes 14 Torsion [CA]-CB--CG-[CD1] |==|  0.44152
USER: genes 15 Torsion [N]-CA--CB-[CG2] |==|  0.74234
USER: genes 16 Torsion [CA]-CB--CG1-[CD1] |==|  0.65242
USER: genes 17 Torsion [N]-CA--CB-[CG] |==|  0.69998
USER: genes 18 Torsion [CA]-CB--CG-[CD] |==|  0.89287
USER: genes 19 Torsion [CB]-CG--CD-[CE] |==|  0.33509
USER: genes 20 Torsion [CG]-CD--CE-[NZ] |==|  0.41362
USER: genes 21 Torsion [CD]-CE--NZ-[HZ2] |==|  0.24013
ROOT
ATOM      1  CA  LYS C   3      20.885   1.243  19.048  1.00 27.41 LIG 0.18  C 
ENDROOT
BRANCH 1 2
ATOM      2  N   LYS C   3      22.175   0.893  19.667  1.00 28.91 LIG-0.35  N 
ATOM      3  C   ARG C   2      23.195   0.511  18.905  1.00 30.62 LIG 0.26  C 
ATOM      4 O    ARG C   2      23.158   0.627  17.679  1.00 31.16 LIG-0.27  OA
ATOM      5 H    LYS C   3      22.199   0.958  20.524  1.00 28.91 LIG 0.16  HD
BRANCH 3 6
ATOM      6  CA  ARG C   2      24.452  -0.103  19.557  1.00 31.50 LIG 0.40  C 
ATOM      7  N   ARG C   2      25.402  -0.568  18.519  1.00 33.48 LIG 0.61  N 
BRANCH 6 8
ATOM      8  CB  ARG C   2      25.156   0.815  20.560  1.00 31.91 LIG 0.05  C 
BRANCH 8 9
ATOM      9  CG  ARG C   2      24.950   2.313  20.333  1.00 31.74 LIG 0.02  C 
BRANCH 9 10
ATOM     10  CD  ARG C   2      24.422   2.999  21.586  1.00 33.46 LIG 0.14  C 
BRANCH 10 11
ATOM     11  NE  ARG C   2      24.895   4.380  21.768  1.00 33.35 LIG-0.23  N 
ATOM     12  CZ  ARG C   2      24.125   5.454  21.927  1.00 33.45 LIG 0.67  C 
ATOM     13  NH1 ARG C   2      22.809   5.345  21.957  1.00 31.52 LIG-0.23  N 
ATOM     14  NH2 ARG C   2      24.679   6.657  22.072  1.00 34.66 LIG-0.23  N 
ATOM     15 1HH1 ARG C   2      22.440   4.573  21.873  1.00 31.52 LIG 0.17  HD
ATOM     16 2HH1 ARG C   2      22.321   6.046  22.060  1.00 31.52 LIG 0.17  HD
ATOM     17 1HH2 ARG C   2      25.535   6.739  22.063  1.00 34.66 LIG 0.17  HD
ATOM     18 2HH2 ARG C   2      24.181   7.350  22.175  1.00 34.66 LIG 0.17  HD
ATOM     19 HE   ARG C   2      25.745   4.505  21.772  1.00 33.35 LIG 0.18  HD
ENDBRANCH 10 11
ENDBRANCH 9 10
ENDBRANCH 8 9
ENDBRANCH 6 8
ENDBRANCH 3 6
ENDBRANCH 1 2
BRANCH 1 20
ATOM     20  C   LYS C   3      20.225   2.537  19.514  1.00 25.28 LIG 0.24  C 
ATOM     21 O    LYS C   3      19.956   3.386  18.686  1.00 21.80 LIG-0.27  OA
ATOM     22  N   ILE C   4      19.940   2.679  20.803  1.00 24.70 LIG-0.35  N 
ATOM     23 H    ILE C   4      20.192   2.136  21.420  1.00 24.70 LIG 0.16  HD
BRANCH 22 24
ATOM     24  CA  ILE C   4      19.149   3.819  21.269  1.00 24.27 LIG 0.18  C 
BRANCH 24 25
ATOM     25  C   ILE C   4      19.321   4.101  22.768  1.00 24.50 LIG 0.24  C 
ATOM     26  N   LEU C   5      20.270   3.398  23.386  1.00 23.50 LIG-0.34  N 
ATOM     27 H    LEU C   5      20.730   2.784  22.998  1.00 23.50 LIG 0.16  HD
ATOM     28 O    ILE C   4      18.628   4.947  23.339  1.00 23.85 LIG-0.27  OA
BRANCH 26 29
ATOM     29  CA  LEU C   5      20.624   3.602  24.788  1.00 24.14 LIG 0.18  C 
BRANCH 29 30
ATOM     30  C   LEU C   5      22.150   3.621  24.938  1.00 24.32 LIG 0.20  C 
ATOM     31 O    LEU C   5      22.650   3.691  26.069  1.00 24.96 LIG-0.65  OA
ATOM     32 OXT  LEU C   5      22.917   3.534  23.970  1.00 24.51 LIG-0.65  OA
ENDBRANCH 29 30
BRANCH 29 33
ATOM     33  CB  LEU C   5      20.000   2.498  25.650  1.00 23.93 LIG 0.04  C 
BRANCH 33 34
ATOM     34  CG  LEU C   5      18.845   1.658  25.063  1.00 26.81 LIG-0.02  C 
ATOM     35  CD1 LEU C   5      18.701   0.322  25.801  1.00 29.09 LIG 0.01  C 
ATOM     36  CD2 LEU C   5      17.526   2.403  25.083  1.00 28.70 LIG 0.01  C 
ENDBRANCH 33 34
ENDBRANCH 29 33
ENDBRANCH 26 29
ENDBRANCH 24 25
BRANCH 24 37
ATOM     37  CB  ILE C   4      17.659   3.659  20.942  1.00 24.66 LIG 0.01  C 
ATOM     38  CG2 ILE C   4      17.327   4.322  19.598  1.00 24.52 LIG 0.01  C 
BRANCH 37 39
ATOM     39  CG1 ILE C   4      17.245   2.183  20.962  1.00 25.15 LIG 0.00  C 
ATOM     40  CD1 ILE C   4      16.584   1.695  19.699  1.00 24.74 LIG 0.01  C 
ENDBRANCH 37 39
ENDBRANCH 24 37
ENDBRANCH 22 24
ENDBRANCH 1 20
BRANCH 1 41
ATOM     41  CB  LYS C   3      19.858   0.119  19.113  1.00 27.76 LIG 0.04  C 
BRANCH 41 42
ATOM     42  CG  LYS C   3      19.608  -0.527  17.785  1.00 29.79 LIG 0.00  C 
BRANCH 42 43
ATOM     43  CD  LYS C   3      19.603   0.493  16.685  1.00 31.63 LIG 0.03  C 
BRANCH 43 44
ATOM     44  CE  LYS C   3      20.674   0.182  15.654  1.00 35.23 LIG 0.23  C 
BRANCH 44 45
ATOM     45  NZ  LYS C   3      20.285   0.621  14.288  1.00 39.07 LIG-0.08  N 
ATOM     46 HZ3  LYS C   3      20.703   0.119  13.684  1.00 39.07 LIG 0.27  HD
ATOM     47 HZ2  LYS C   3      20.514   1.474  14.175  1.00 39.07 LIG 0.27  HD
ATOM     48 HZ1  LYS C   3      19.405   0.534  14.188  1.00 39.07 LIG 0.27  HD
ENDBRANCH 44 45
ENDBRANCH 43 44
ENDBRANCH 42 43
ENDBRANCH 41 42
ENDBRANCH 1 41
TORSDOF 20
ENDMDL
MODEL 19
USER: ADFR SOLUTION from run 129
USER: SCORE 19.080895 LL:  -2.671 LR: -16.858 RR:   0.000 FEB: -10.892
USER: RMSD 7.572400
USER: SEED 128
USER: STATUS no improvement in best in 6 clusters for 5 generations
USER: GENES 22
USER: genes 0 Translation |==|  0.51442 0.39355 0.39993
USER: genes 1 Rotation |==|  0.39999 0.77356 0.21147 0.78621
USER: genes 2 Torsion [C]-CA--N-[C] |==|  0.73379
USER: genes 3 Torsion [N]-C--CA-[N] |==|  0.75295
USER: genes 4 Torsion [C]-CA--CB-[CG] |==|  0.16385
USER: genes 5 Torsion [CA]-CB--CG-[CD] |==|  0.66984
USER: genes 6 Torsion [CB]-CG--CD-[NE] |==|  0.32941
USER: genes 7 Torsion [CG]-CD--NE-[CZ] |==|  0.13390
USER: genes 8 Torsion [N]-CA--C-[N] |==|  0.31301
USER: genes 9 Torsion [C]-N--CA-[CB] |==|  0.75625
USER: genes 10 Torsion [N]-CA--C-[N] |==|  0.16667
USER: genes 11 Torsion [C]-N--CA-[C] |==|  0.63377
USER: genes 12 Torsion [N]-CA--C-[O] |==|  0.07470
USER: genes 13 Torsion [N]-CA--CB-[CG] |==|  0.68503
USER: genes 14 Torsion [CA]-CB--CG-[CD1] |==|  0.17124
USER: genes 15 Torsion [N]-CA--CB-[CG2] |==|  0.84109
USER: genes 16 Torsion [CA]-CB--CG1-[CD1] |==|  0.67351
USER: genes 17 Torsion [N]-CA--CB-[CG] |==|  0.53251
USER: genes 18 Torsion [CA]-CB--CG-[CD] |==|  0.14916
USER: genes 19 Torsion [CB]-CG--CD-[CE] |==|  0.60417
USER: genes 20 Torsion [CG]-CD--CE-[NZ] |==|  0.60069
USER: genes 21 Torsion [CD]-CE--NZ-[HZ2] |==|  0.41776
ROOT
ATOM      1  CA  LYS C   3      21.273   1.778  19.210  1.00 27.41 LIG 0.18  C 
ENDROOT
BRANCH 1 2
ATOM      2  N   LYS C   3      22.134   2.458  20.192  1.00 28.91 LIG-0.35  N 
ATOM      3  C   ARG C   2      22.586   3.684  19.943  1.00 30.62 LIG 0.26  C 
ATOM      4 O    ARG C   2      22.148   4.349  19.002  1.00 31.16 LIG-0.27  OA
ATOM      5 H    LYS C   3      22.305   2.007  20.903  1.00 28.91 LIG 0.16  HD
BRANCH 3 6
ATOM      6  CA  ARG C   2      23.689   4.291  20.835  1.00 31.50 LIG 0.40  C 
ATOM      7  N   ARG C   2      23.091   5.002  21.989  1.00 33.48 LIG 0.61  N 
BRANCH 6 8
ATOM      8  CB  ARG C   2      24.743   3.287  21.308  1.00 31.91 LIG 0.05  C 
BRANCH 8 9
ATOM      9  CG  ARG C   2      25.509   2.568  20.196  1.00 31.74 LIG 0.02  C 
BRANCH 9 10
ATOM     10  CD  ARG C   2      25.292   1.062  20.253  1.00 33.46 LIG 0.14  C 
BRANCH 10 11
ATOM     11  NE  ARG C   2      24.654   0.494  19.055  1.00 33.35 LIG-0.23  N 
ATOM     12  CZ  ARG C   2      25.012   0.730  17.795  1.00 33.45 LIG 0.67  C 
ATOM     13  NH1 ARG C   2      26.035   1.517  17.518  1.00 31.52 LIG-0.23  N 
ATOM     14  NH2 ARG C   2      24.343   0.159  16.794  1.00 34.66 LIG-0.23  N 
ATOM     15 1HH1 ARG C   2      26.480   1.884  18.156  1.00 31.52 LIG 0.17  HD
ATOM     16 2HH1 ARG C   2      26.257   1.663  16.700  1.00 31.52 LIG 0.17  HD
ATOM     17 1HH2 ARG C   2      23.681  -0.363  16.962  1.00 34.66 LIG 0.17  HD
ATOM     18 2HH2 ARG C   2      24.575   0.312  15.980  1.00 34.66 LIG 0.17  HD
ATOM     19 HE   ARG C   2      23.992  -0.039  19.180  1.00 33.35 LIG 0.18  HD
ENDBRANCH 10 11
ENDBRANCH 9 10
ENDBRANCH 8 9
ENDBRANCH 6 8
ENDBRANCH 3 6
ENDBRANCH 1 2
BRANCH 1 20
ATOM     20  C   LYS C   3      19.767   1.874  19.429  1.00 25.28 LIG 0.24  C 
ATOM     21 O    LYS C   3      19.285   1.339  20.410  1.00 21.80 LIG-0.27  OA
ATOM     22  N   ILE C   4      19.038   2.562  18.559  1.00 24.70 LIG-0.35  N 
ATOM     23 H    ILE C   4      19.336   2.878  17.817  1.00 24.70 LIG 0.16  HD
BRANCH 22 24
ATOM     24  CA  ILE C   4      17.624   2.833  18.822  1.00 24.27 LIG 0.18  C 
BRANCH 24 25
ATOM     25  C   ILE C   4      17.327   3.109  20.303  1.00 24.50 LIG 0.24  C 
ATOM     26  N   LEU C   5      17.961   4.153  20.838  1.00 23.50 LIG-0.34  N 
ATOM     27 H    LEU C   5      18.542   4.620  20.411  1.00 23.50 LIG 0.16  HD
ATOM     28 O    ILE C   4      16.529   2.408  20.932  1.00 23.85 LIG-0.27  OA
BRANCH 26 29
ATOM     29  CA  LEU C   5      17.729   4.607  22.206  1.00 24.14 LIG 0.18  C 
BRANCH 29 30
ATOM     30  C   LEU C   5      17.511   6.124  22.216  1.00 24.32 LIG 0.20  C 
ATOM     31 O    LEU C   5      17.058   6.681  21.206  1.00 24.96 LIG-0.65  OA
ATOM     32 OXT  LEU C   5      17.736   6.826  23.211  1.00 24.51 LIG-0.65  OA
ENDBRANCH 29 30
BRANCH 29 33
ATOM     33  CB  LEU C   5      18.916   4.215  23.094  1.00 23.93 LIG 0.04  C 
BRANCH 33 34
ATOM     34  CG  LEU C   5      18.697   3.172  24.212  1.00 26.81 LIG-0.02  C 
ATOM     35  CD1 LEU C   5      18.261   1.822  23.632  1.00 29.09 LIG 0.01  C 
ATOM     36  CD2 LEU C   5      19.929   2.990  25.076  1.00 28.70 LIG 0.01  C 
ENDBRANCH 33 34
ENDBRANCH 29 33
ENDBRANCH 26 29
ENDBRANCH 24 25
BRANCH 24 37
ATOM     37  CB  ILE C   4      16.716   1.705  18.316  1.00 24.66 LIG 0.01  C 
ATOM     38  CG2 ILE C   4      16.929   1.474  16.814  1.00 24.52 LIG 0.01  C 
BRANCH 37 39
ATOM     39  CG1 ILE C   4      16.933   0.418  19.121  1.00 25.15 LIG 0.00  C 
ATOM     40  CD1 ILE C   4      17.449  -0.749  18.321  1.00 24.74 LIG 0.01  C 
ENDBRANCH 37 39
ENDBRANCH 24 37
ENDBRANCH 22 24
ENDBRANCH 1 20
BRANCH 1 41
ATOM     41  CB  LYS C   3      21.643   0.316  18.991  1.00 27.76 LIG 0.04  C 
BRANCH 41 42
ATOM     42  CG  LYS C   3      20.961  -0.294  17.806  1.00 29.79 LIG 0.00  C 
BRANCH 42 43
ATOM     43  CD  LYS C   3      21.196   0.525  16.572  1.00 31.63 LIG 0.03  C 
BRANCH 43 44
ATOM     44  CE  LYS C   3      19.954   0.556  15.698  1.00 35.23 LIG 0.23  C 
BRANCH 44 45
ATOM     45  NZ  LYS C   3      20.285   0.543  14.248  1.00 39.07 LIG-0.08  N 
ATOM     46 HZ3  LYS C   3      20.380   1.379  13.957  1.00 39.07 LIG 0.27  HD
ATOM     47 HZ2  LYS C   3      19.629   0.144  13.798  1.00 39.07 LIG 0.27  HD
ATOM     48 HZ1  LYS C   3      21.045   0.097  14.121  1.00 39.07 LIG 0.27  HD
ENDBRANCH 44 45
ENDBRANCH 43 44
ENDBRANCH 42 43
ENDBRANCH 41 42
ENDBRANCH 1 41
TORSDOF 20
ENDMDL
MODEL 20
USER: ADFR SOLUTION from run 141
USER: SCORE 19.327565 LL:  -2.691 LR: -16.852 RR:   0.000 FEB: -10.886
USER: RMSD 7.956228
USER: SEED 140
USER: STATUS no improvement in best in 4 clusters for 5 generations
USER: GENES 22
USER: genes 0 Translation |==|  0.46838 0.31912 0.37046
USER: genes 1 Rotation |==|  0.48739 0.83710 0.13732 0.56831
USER: genes 2 Torsion [C]-CA--N-[C] |==|  0.75576
USER: genes 3 Torsion [N]-C--CA-[N] |==|  0.44198
USER: genes 4 Torsion [C]-CA--CB-[CG] |==|  0.90254
USER: genes 5 Torsion [CA]-CB--CG-[CD] |==|  0.81848
USER: genes 6 Torsion [CB]-CG--CD-[NE] |==|  0.55018
USER: genes 7 Torsion [CG]-CD--NE-[CZ] |==|  0.78030
USER: genes 8 Torsion [N]-CA--C-[N] |==|  0.20883
USER: genes 9 Torsion [C]-N--CA-[CB] |==|  0.81753
USER: genes 10 Torsion [N]-CA--C-[N] |==|  0.40556
USER: genes 11 Torsion [C]-N--CA-[C] |==|  0.64358
USER: genes 12 Torsion [N]-CA--C-[O] |==|  0.17602
USER: genes 13 Torsion [N]-CA--CB-[CG] |==|  0.69357
USER: genes 14 Torsion [CA]-CB--CG-[CD1] |==|  0.48096
USER: genes 15 Torsion [N]-CA--CB-[CG2] |==|  0.34568
USER: genes 16 Torsion [CA]-CB--CG1-[CD1] |==|  0.06586
USER: genes 17 Torsion [N]-CA--CB-[CG] |==|  0.57590
USER: genes 18 Torsion [CA]-CB--CG-[CD] |==|  0.20427
USER: genes 19 Torsion [CB]-CG--CD-[CE] |==|  0.77082
USER: genes 20 Torsion [CG]-CD--CE-[NZ] |==|  0.51722
USER: genes 21 Torsion [CD]-CE--NZ-[HZ2] |==|  0.76309
ROOT
ATOM      1  CA  LYS C   3      20.513   0.550  18.591  1.00 27.41 LIG 0.18  C 
ENDROOT
BRANCH 1 2
ATOM      2  N   LYS C   3      21.806   0.090  19.128  1.00 28.91 LIG-0.35  N 
ATOM      3  C   ARG C   2      22.940   0.607  18.663  1.00 30.62 LIG 0.26  C 
ATOM      4 O    ARG C   2      22.940   1.601  17.935  1.00 31.16 LIG-0.27  OA
ATOM      5 H    LYS C   3      21.755  -0.514  19.738  1.00 28.91 LIG 0.16  HD
BRANCH 3 6
ATOM      6  CA  ARG C   2      24.288  -0.050  19.027  1.00 31.50 LIG 0.40  C 
ATOM      7  N   ARG C   2      25.334   0.337  18.052  1.00 33.48 LIG 0.61  N 
BRANCH 6 8
ATOM      8  CB  ARG C   2      24.757   0.222  20.458  1.00 31.91 LIG 0.05  C 
BRANCH 8 9
ATOM      9  CG  ARG C   2      24.414   1.608  21.008  1.00 31.74 LIG 0.02  C 
BRANCH 9 10
ATOM     10  CD  ARG C   2      25.142   2.706  20.244  1.00 33.46 LIG 0.14  C 
BRANCH 10 11
ATOM     11  NE  ARG C   2      25.205   3.997  20.947  1.00 33.35 LIG-0.23  N 
ATOM     12  CZ  ARG C   2      24.222   4.891  21.024  1.00 33.45 LIG 0.67  C 
ATOM     13  NH1 ARG C   2      23.049   4.659  20.463  1.00 31.52 LIG-0.23  N 
ATOM     14  NH2 ARG C   2      24.410   6.032  21.686  1.00 34.66 LIG-0.23  N 
ATOM     15 1HH1 ARG C   2      22.913   3.922  20.042  1.00 31.52 LIG 0.17  HD
ATOM     16 2HH1 ARG C   2      22.422   5.244  20.520  1.00 31.52 LIG 0.17  HD
ATOM     17 1HH2 ARG C   2      25.166   6.191  22.063  1.00 34.66 LIG 0.17  HD
ATOM     18 2HH2 ARG C   2      23.775   6.610  21.736  1.00 34.66 LIG 0.17  HD
ATOM     19 HE   ARG C   2      25.942   4.191  21.344  1.00 33.35 LIG 0.18  HD
ENDBRANCH 10 11
ENDBRANCH 9 10
ENDBRANCH 8 9
ENDBRANCH 6 8
ENDBRANCH 3 6
ENDBRANCH 1 2
BRANCH 1 20
ATOM     20  C   LYS C   3      19.881   1.764  19.262  1.00 25.28 LIG 0.24  C 
ATOM     21 O    LYS C   3      18.949   1.590  20.025  1.00 21.80 LIG-0.27  OA
ATOM     22  N   ILE C   4      20.386   2.965  19.013  1.00 24.70 LIG-0.35  N 
ATOM     23 H    ILE C   4      20.986   3.128  18.418  1.00 24.70 LIG 0.16  HD
BRANCH 22 24
ATOM     24  CA  ILE C   4      19.932   4.136  19.767  1.00 24.27 LIG 0.18  C 
BRANCH 24 25
ATOM     25  C   ILE C   4      20.155   4.003  21.280  1.00 24.50 LIG 0.24  C 
ATOM     26  N   LEU C   5      20.450   5.131  21.925  1.00 23.50 LIG-0.34  N 
ATOM     27 H    LEU C   5      20.564   5.885  21.528  1.00 23.50 LIG 0.16  HD
ATOM     28 O    ILE C   4      20.041   2.912  21.845  1.00 23.85 LIG-0.27  OA
BRANCH 26 29
ATOM     29  CA  LEU C   5      20.609   5.199  23.375  1.00 24.14 LIG 0.18  C 
BRANCH 29 30
ATOM     30  C   LEU C   5      19.732   6.324  23.937  1.00 24.32 LIG 0.20  C 
ATOM     31 O    LEU C   5      18.501   6.252  23.823  1.00 24.96 LIG-0.65  OA
ATOM     32 OXT  LEU C   5      20.201   7.299  24.541  1.00 24.51 LIG-0.65  OA
ENDBRANCH 29 30
BRANCH 29 33
ATOM     33  CB  LEU C   5      22.084   5.420  23.729  1.00 23.93 LIG 0.04  C 
BRANCH 33 34
ATOM     34  CG  LEU C   5      22.870   4.271  24.397  1.00 26.81 LIG-0.02  C 
ATOM     35  CD1 LEU C   5      24.359   4.616  24.519  1.00 29.09 LIG 0.01  C 
ATOM     36  CD2 LEU C   5      22.311   3.909  25.758  1.00 28.70 LIG 0.01  C 
ENDBRANCH 33 34
ENDBRANCH 29 33
ENDBRANCH 26 29
ENDBRANCH 24 25
BRANCH 24 37
ATOM     37  CB  ILE C   4      18.460   4.465  19.490  1.00 24.66 LIG 0.01  C 
ATOM     38  CG2 ILE C   4      17.660   4.507  20.800  1.00 24.52 LIG 0.01  C 
BRANCH 37 39
ATOM     39  CG1 ILE C   4      18.325   5.774  18.704  1.00 25.15 LIG 0.00  C 
ATOM     40  CD1 ILE C   4      19.541   6.158  17.902  1.00 24.74 LIG 0.01  C 
ENDBRANCH 37 39
ENDBRANCH 24 37
ENDBRANCH 22 24
ENDBRANCH 1 20
BRANCH 1 41
ATOM     41  CB  LYS C   3      19.470  -0.557  18.497  1.00 27.76 LIG 0.04  C 
BRANCH 41 42
ATOM     42  CG  LYS C   3      18.455  -0.320  17.422  1.00 29.79 LIG 0.00  C 
BRANCH 42 43
ATOM     43  CD  LYS C   3      19.048  -0.552  16.064  1.00 31.63 LIG 0.03  C 
BRANCH 43 44
ATOM     44  CE  LYS C   3      19.808   0.675  15.588  1.00 35.23 LIG 0.23  C 
BRANCH 44 45
ATOM     45  NZ  LYS C   3      20.283   0.533  14.187  1.00 39.07 LIG-0.08  N 
ATOM     46 HZ3  LYS C   3      19.687   0.069  13.716  1.00 39.07 LIG 0.27  HD
ATOM     47 HZ2  LYS C   3      21.064   0.106  14.180  1.00 39.07 LIG 0.27  HD
ATOM     48 HZ1  LYS C   3      20.383   1.340  13.824  1.00 39.07 LIG 0.27  HD
ENDBRANCH 44 45
ENDBRANCH 43 44
ENDBRANCH 42 43
ENDBRANCH 41 42
ENDBRANCH 1 41
TORSDOF 20
ENDMDL
MODEL 21
USER: ADFR SOLUTION from run 26
USER: SCORE 18.249519 LL:  -2.865 LR: -16.851 RR:   0.000 FEB: -10.885
USER: RMSD 4.195058
USER: SEED 25
USER: STATUS searching
USER: GENES 22
USER: genes 0 Translation |==|  0.56049 0.54517 0.50417
USER: genes 1 Rotation |==|  0.42796 0.76825 0.90988 0.56966
USER: genes 2 Torsion [C]-CA--N-[C] |==|  0.75187
USER: genes 3 Torsion [N]-C--CA-[N] |==|  0.97003
USER: genes 4 Torsion [C]-CA--CB-[CG] |==|  0.91653
USER: genes 5 Torsion [CA]-CB--CG-[CD] |==|  0.37060
USER: genes 6 Torsion [CB]-CG--CD-[NE] |==|  0.08993
USER: genes 7 Torsion [CG]-CD--NE-[CZ] |==|  0.33372
USER: genes 8 Torsion [N]-CA--C-[N] |==|  0.28070
USER: genes 9 Torsion [C]-N--CA-[CB] |==|  0.35624
USER: genes 10 Torsion [N]-CA--C-[N] |==|  0.92775
USER: genes 11 Torsion [C]-N--CA-[C] |==|  0.21896
USER: genes 12 Torsion [N]-CA--C-[O] |==|  0.99192
USER: genes 13 Torsion [N]-CA--CB-[CG] |==|  0.66120
USER: genes 14 Torsion [CA]-CB--CG-[CD1] |==|  0.97919
USER: genes 15 Torsion [N]-CA--CB-[CG2] |==|  0.51783
USER: genes 16 Torsion [CA]-CB--CG1-[CD1] |==|  0.86810
USER: genes 17 Torsion [N]-CA--CB-[CG] |==|  0.52817
USER: genes 18 Torsion [CA]-CB--CG-[CD] |==|  0.70869
USER: genes 19 Torsion [CB]-CG--CD-[CE] |==|  0.90470
USER: genes 20 Torsion [CG]-CD--CE-[NZ] |==|  0.32291
USER: genes 21 Torsion [CD]-CE--NZ-[HZ2] |==|  0.93682
ROOT
ATOM      1  CA  LYS C   3      22.033   4.279  21.399  1.00 27.41 LIG 0.18  C 
ENDROOT
BRANCH 1 2
ATOM      2  N   LYS C   3      23.195   5.020  21.921  1.00 28.91 LIG-0.35  N 
ATOM      3  C   ARG C   2      24.019   4.437  22.788  1.00 30.62 LIG 0.26  C 
ATOM      4 O    ARG C   2      23.954   3.229  23.020  1.00 31.16 LIG-0.27  OA
ATOM      5 H    LYS C   3      23.281   5.822  21.625  1.00 28.91 LIG 0.16  HD
BRANCH 3 6
ATOM      6  CA  ARG C   2      25.073   5.284  23.531  1.00 31.50 LIG 0.40  C 
ATOM      7  N   ARG C   2      25.158   6.641  22.943  1.00 33.48 LIG 0.61  N 
BRANCH 6 8
ATOM      8  CB  ARG C   2      24.864   5.365  25.046  1.00 31.91 LIG 0.05  C 
BRANCH 8 9
ATOM      9  CG  ARG C   2      23.411   5.271  25.512  1.00 31.74 LIG 0.02  C 
BRANCH 9 10
ATOM     10  CD  ARG C   2      23.260   4.298  26.675  1.00 33.46 LIG 0.14  C 
BRANCH 10 11
ATOM     11  NE  ARG C   2      24.426   4.237  27.570  1.00 33.35 LIG-0.23  N 
ATOM     12  CZ  ARG C   2      24.425   4.515  28.872  1.00 33.45 LIG 0.67  C 
ATOM     13  NH1 ARG C   2      23.311   4.864  29.489  1.00 31.52 LIG-0.23  N 
ATOM     14  NH2 ARG C   2      25.555   4.431  29.572  1.00 34.66 LIG-0.23  N 
ATOM     15 1HH1 ARG C   2      22.574   4.912  29.050  1.00 31.52 LIG 0.17  HD
ATOM     16 2HH1 ARG C   2      23.322   5.041  30.330  1.00 31.52 LIG 0.17  HD
ATOM     17 1HH2 ARG C   2      26.286   4.196  29.183  1.00 34.66 LIG 0.17  HD
ATOM     18 2HH2 ARG C   2      25.555   4.611  30.413  1.00 34.66 LIG 0.17  HD
ATOM     19 HE   ARG C   2      25.175   3.999  27.222  1.00 33.35 LIG 0.18  HD
ENDBRANCH 10 11
ENDBRANCH 9 10
ENDBRANCH 8 9
ENDBRANCH 6 8
ENDBRANCH 3 6
ENDBRANCH 1 2
BRANCH 1 20
ATOM     20  C   LYS C   3      22.251   3.458  20.132  1.00 25.28 LIG 0.24  C 
ATOM     21 O    LYS C   3      22.291   4.035  19.062  1.00 21.80 LIG-0.27  OA
ATOM     22  N   ILE C   4      22.419   2.147  20.244  1.00 24.70 LIG-0.35  N 
ATOM     23 H    ILE C   4      22.314   1.702  20.973  1.00 24.70 LIG 0.16  HD
BRANCH 22 24
ATOM     24  CA  ILE C   4      22.809   1.344  19.083  1.00 24.27 LIG 0.18  C 
BRANCH 24 25
ATOM     25  C   ILE C   4      21.666   0.478  18.536  1.00 24.50 LIG 0.24  C 
ATOM     26  N   LEU C   5      20.721   0.141  19.414  1.00 23.50 LIG-0.34  N 
ATOM     27 H    LEU C   5      20.760   0.342  20.249  1.00 23.50 LIG 0.16  HD
ATOM     28 O    ILE C   4      21.632   0.147  17.347  1.00 23.85 LIG-0.27  OA
BRANCH 26 29
ATOM     29  CA  LEU C   5      19.522  -0.605  19.043  1.00 24.14 LIG 0.18  C 
BRANCH 29 30
ATOM     30  C   LEU C   5      19.863  -2.094  18.906  1.00 24.32 LIG 0.20  C 
ATOM     31 O    LEU C   5      21.035  -2.466  19.056  1.00 24.96 LIG-0.65  OA
ATOM     32 OXT  LEU C   5      19.005  -2.959  18.686  1.00 24.51 LIG-0.65  OA
ENDBRANCH 29 30
BRANCH 29 33
ATOM     33  CB  LEU C   5      18.945  -0.050  17.735  1.00 23.93 LIG 0.04  C 
BRANCH 33 34
ATOM     34  CG  LEU C   5      17.493   0.474  17.725  1.00 26.81 LIG-0.02  C 
ATOM     35  CD1 LEU C   5      16.786   0.172  19.051  1.00 29.09 LIG 0.01  C 
ATOM     36  CD2 LEU C   5      17.421   1.959  17.429  1.00 28.70 LIG 0.01  C 
ENDBRANCH 33 34
ENDBRANCH 29 33
ENDBRANCH 26 29
ENDBRANCH 24 25
BRANCH 24 37
ATOM     37  CB  ILE C   4      24.029   0.462  19.375  1.00 24.66 LIG 0.01  C 
ATOM     38  CG2 ILE C   4      24.505  -0.242  18.097  1.00 24.52 LIG 0.01  C 
BRANCH 37 39
ATOM     39  CG1 ILE C   4      25.155   1.274  20.025  1.00 25.15 LIG 0.00  C 
ATOM     40  CD1 ILE C   4      25.466   2.582  19.343  1.00 24.74 LIG 0.01  C 
ENDBRANCH 37 39
ENDBRANCH 24 37
ENDBRANCH 22 24
ENDBRANCH 1 20
BRANCH 1 41
ATOM     41  CB  LYS C   3      20.797   5.150  21.211  1.00 27.76 LIG 0.04  C 
BRANCH 41 42
ATOM     42  CG  LYS C   3      19.560   4.359  20.913  1.00 29.79 LIG 0.00  C 
BRANCH 42 43
ATOM     43  CD  LYS C   3      19.189   4.467  19.464  1.00 31.63 LIG 0.03  C 
BRANCH 43 44
ATOM     44  CE  LYS C   3      19.532   5.843  18.919  1.00 35.23 LIG 0.23  C 
BRANCH 44 45
ATOM     45  NZ  LYS C   3      20.568   5.784  17.854  1.00 39.07 LIG-0.08  N 
ATOM     46 HZ3  LYS C   3      20.174   5.799  17.055  1.00 39.07 LIG 0.27  HD
ATOM     47 HZ2  LYS C   3      21.038   5.033  17.939  1.00 39.07 LIG 0.27  HD
ATOM     48 HZ1  LYS C   3      21.111   6.485  17.928  1.00 39.07 LIG 0.27  HD
ENDBRANCH 44 45
ENDBRANCH 43 44
ENDBRANCH 42 43
ENDBRANCH 41 42
ENDBRANCH 1 41
TORSDOF 20
ENDMDL
MODEL 22
USER: ADFR SOLUTION from run 36
USER: SCORE 20.067667 LL:  -3.523 LR: -16.836 RR:   0.000 FEB: -10.870
USER: RMSD 5.729769
USER: SEED 35
USER: STATUS no improvement in best in 5 clusters for 5 generations
USER: GENES 22
USER: genes 0 Translation |==|  0.56935 0.39089 0.38377
USER: genes 1 Rotation |==|  0.43302 0.80118 0.22931 0.78554
USER: genes 2 Torsion [C]-CA--N-[C] |==|  0.77658
USER: genes 3 Torsion [N]-C--CA-[N] |==|  0.50091
USER: genes 4 Torsion [C]-CA--CB-[CG] |==|  0.71361
USER: genes 5 Torsion [CA]-CB--CG-[CD] |==|  0.18086
USER: genes 6 Torsion [CB]-CG--CD-[NE] |==|  0.14700
USER: genes 7 Torsion [CG]-CD--NE-[CZ] |==|  0.35750
USER: genes 8 Torsion [N]-CA--C-[N] |==|  0.90403
USER: genes 9 Torsion [C]-N--CA-[CB] |==|  0.84965
USER: genes 10 Torsion [N]-CA--C-[N] |==|  0.94433
USER: genes 11 Torsion [C]-N--CA-[C] |==|  0.64013
USER: genes 12 Torsion [N]-CA--C-[O] |==|  0.06904
USER: genes 13 Torsion [N]-CA--CB-[CG] |==|  0.85918
USER: genes 14 Torsion [CA]-CB--CG-[CD1] |==|  0.88341
USER: genes 15 Torsion [N]-CA--CB-[CG2] |==|  0.39670
USER: genes 16 Torsion [CA]-CB--CG1-[CD1] |==|  0.33826
USER: genes 17 Torsion [N]-CA--CB-[CG] |==|  0.61430
USER: genes 18 Torsion [CA]-CB--CG-[CD] |==|  0.75034
USER: genes 19 Torsion [CB]-CG--CD-[CE] |==|  0.32007
USER: genes 20 Torsion [CG]-CD--CE-[NZ] |==|  0.29963
USER: genes 21 Torsion [CD]-CE--NZ-[HZ2] |==|  0.56980
ROOT
ATOM      1  CA  LYS C   3      22.179   1.734  18.870  1.00 27.41 LIG 0.18  C 
ENDROOT
BRANCH 1 2
ATOM      2  N   LYS C   3      23.075   2.181  19.951  1.00 28.91 LIG-0.35  N 
ATOM      3  C   ARG C   2      23.348   3.475  20.094  1.00 30.62 LIG 0.26  C 
ATOM      4 O    ARG C   2      22.722   4.335  19.472  1.00 31.16 LIG-0.27  OA
ATOM      5 H    LYS C   3      23.385   1.555  20.452  1.00 28.91 LIG 0.16  HD
BRANCH 3 6
ATOM      6  CA  ARG C   2      24.479   3.919  21.046  1.00 31.50 LIG 0.40  C 
ATOM      7  N   ARG C   2      24.601   5.396  21.053  1.00 33.48 LIG 0.61  N 
BRANCH 6 8
ATOM      8  CB  ARG C   2      24.350   3.382  22.473  1.00 31.91 LIG 0.05  C 
BRANCH 8 9
ATOM      9  CG  ARG C   2      23.842   4.386  23.508  1.00 31.74 LIG 0.02  C 
BRANCH 9 10
ATOM     10  CD  ARG C   2      22.409   4.810  23.216  1.00 33.46 LIG 0.14  C 
BRANCH 10 11
ATOM     11  NE  ARG C   2      21.465   3.693  23.056  1.00 33.35 LIG-0.23  N 
ATOM     12  CZ  ARG C   2      20.302   3.557  23.688  1.00 33.45 LIG 0.67  C 
ATOM     13  NH1 ARG C   2      19.879   4.480  24.533  1.00 31.52 LIG-0.23  N 
ATOM     14  NH2 ARG C   2      19.540   2.488  23.461  1.00 34.66 LIG-0.23  N 
ATOM     15 1HH1 ARG C   2      20.357   5.179  24.680  1.00 31.52 LIG 0.17  HD
ATOM     16 2HH1 ARG C   2      19.126   4.382  24.935  1.00 31.52 LIG 0.17  HD
ATOM     17 1HH2 ARG C   2      19.801   1.885  22.906  1.00 34.66 LIG 0.17  HD
ATOM     18 2HH2 ARG C   2      18.789   2.401  23.869  1.00 34.66 LIG 0.17  HD
ATOM     19 HE   ARG C   2      21.685   3.071  22.504  1.00 33.35 LIG 0.18  HD
ENDBRANCH 10 11
ENDBRANCH 9 10
ENDBRANCH 8 9
ENDBRANCH 6 8
ENDBRANCH 3 6
ENDBRANCH 1 2
BRANCH 1 20
ATOM     20  C   LYS C   3      20.680   1.871  19.115  1.00 25.28 LIG 0.24  C 
ATOM     21 O    LYS C   3      19.955   2.115  18.169  1.00 21.80 LIG-0.27  OA
ATOM     22  N   ILE C   4      20.216   1.694  20.346  1.00 24.70 LIG-0.35  N 
ATOM     23 H    ILE C   4      20.710   1.604  21.044  1.00 24.70 LIG 0.16  HD
BRANCH 22 24
ATOM     24  CA  ILE C   4      18.775   1.638  20.597  1.00 24.27 LIG 0.18  C 
BRANCH 24 25
ATOM     25  C   ILE C   4      18.117   0.360  20.059  1.00 24.50 LIG 0.24  C 
ATOM     26  N   LEU C   5      18.798  -0.291  19.116  1.00 23.50 LIG-0.34  N 
ATOM     27 H    LEU C   5      19.534  -0.000  18.781  1.00 23.50 LIG 0.16  HD
ATOM     28 O    ILE C   4      17.035  -0.033  20.503  1.00 23.85 LIG-0.27  OA
BRANCH 26 29
ATOM     29  CA  LEU C   5      18.359  -1.566  18.556  1.00 24.14 LIG 0.18  C 
BRANCH 29 30
ATOM     30  C   LEU C   5      19.514  -2.573  18.599  1.00 24.32 LIG 0.20  C 
ATOM     31 O    LEU C   5      20.417  -2.429  19.436  1.00 24.96 LIG-0.65  OA
ATOM     32 OXT  LEU C   5      19.572  -3.557  17.850  1.00 24.51 LIG-0.65  OA
ENDBRANCH 29 30
BRANCH 29 33
ATOM     33  CB  LEU C   5      17.858  -1.363  17.122  1.00 23.93 LIG 0.04  C 
BRANCH 33 34
ATOM     34  CG  LEU C   5      16.821  -0.252  16.845  1.00 26.81 LIG-0.02  C 
ATOM     35  CD1 LEU C   5      15.744  -0.217  17.936  1.00 29.09 LIG 0.01  C 
ATOM     36  CD2 LEU C   5      17.465   1.113  16.712  1.00 28.70 LIG 0.01  C 
ENDBRANCH 33 34
ENDBRANCH 29 33
ENDBRANCH 26 29
ENDBRANCH 24 25
BRANCH 24 37
ATOM     37  CB  ILE C   4      18.045   2.867  20.043  1.00 24.66 LIG 0.01  C 
ATOM     38  CG2 ILE C   4      16.676   2.470  19.471  1.00 24.52 LIG 0.01  C 
BRANCH 37 39
ATOM     39  CG1 ILE C   4      17.915   3.961  21.109  1.00 25.15 LIG 0.00  C 
ATOM     40  CD1 ILE C   4      18.535   5.283  20.737  1.00 24.74 LIG 0.01  C 
ENDBRANCH 37 39
ENDBRANCH 24 37
ENDBRANCH 22 24
ENDBRANCH 1 20
BRANCH 1 41
ATOM     41  CB  LYS C   3      22.469   0.315  18.394  1.00 27.76 LIG 0.04  C 
BRANCH 41 42
ATOM     42  CG  LYS C   3      22.390   0.167  16.906  1.00 29.79 LIG 0.00  C 
BRANCH 42 43
ATOM     43  CD  LYS C   3      20.999  -0.197  16.477  1.00 31.63 LIG 0.03  C 
BRANCH 43 44
ATOM     44  CE  LYS C   3      20.386   0.909  15.635  1.00 35.23 LIG 0.23  C 
BRANCH 44 45
ATOM     45  NZ  LYS C   3      20.285   0.534  14.200  1.00 39.07 LIG-0.08  N 
ATOM     46 HZ3  LYS C   3      20.983   0.029  13.975  1.00 39.07 LIG 0.27  HD
ATOM     47 HZ2  LYS C   3      20.279   1.271  13.701  1.00 39.07 LIG 0.27  HD
ATOM     48 HZ1  LYS C   3      19.533   0.077  14.064  1.00 39.07 LIG 0.27  HD
ENDBRANCH 44 45
ENDBRANCH 43 44
ENDBRANCH 42 43
ENDBRANCH 41 42
ENDBRANCH 1 41
TORSDOF 20
ENDMDL
MODEL 23
USER: ADFR SOLUTION from run 132
USER: SCORE 18.520430 LL:  -2.860 LR: -16.726 RR:   0.000 FEB: -10.760
USER: RMSD 8.306170
USER: SEED 131
USER: STATUS 1 or 2 clusters left
USER: GENES 22
USER: genes 0 Translation |==|  0.44596 0.41338 0.39205
USER: genes 1 Rotation |==|  0.48781 0.90981 0.21726 0.54434
USER: genes 2 Torsion [C]-CA--N-[C] |==|  0.77001
USER: genes 3 Torsion [N]-C--CA-[N] |==|  0.18561
USER: genes 4 Torsion [C]-CA--CB-[CG] |==|  0.27821
USER: genes 5 Torsion [CA]-CB--CG-[CD] |==|  0.83965
USER: genes 6 Torsion [CB]-CG--CD-[NE] |==|  0.70494
USER: genes 7 Torsion [CG]-CD--NE-[CZ] |==|  0.33532
USER: genes 8 Torsion [N]-CA--C-[N] |==|  0.97271
USER: genes 9 Torsion [C]-N--CA-[CB] |==|  0.23142
USER: genes 10 Torsion [N]-CA--C-[N] |==|  0.37076
USER: genes 11 Torsion [C]-N--CA-[C] |==|  0.49267
USER: genes 12 Torsion [N]-CA--C-[O] |==|  0.97844
USER: genes 13 Torsion [N]-CA--CB-[CG] |==|  0.69939
USER: genes 14 Torsion [CA]-CB--CG-[CD1] |==|  0.62516
USER: genes 15 Torsion [N]-CA--CB-[CG2] |==|  0.35522
USER: genes 16 Torsion [CA]-CB--CG1-[CD1] |==|  0.92535
USER: genes 17 Torsion [N]-CA--CB-[CG] |==|  0.70338
USER: genes 18 Torsion [CA]-CB--CG-[CD] |==|  0.29884
USER: genes 19 Torsion [CB]-CG--CD-[CE] |==|  0.73496
USER: genes 20 Torsion [CG]-CD--CE-[NZ] |==|  0.67232
USER: genes 21 Torsion [CD]-CE--NZ-[HZ2] |==|  0.29980
ROOT
ATOM      1  CA  LYS C   3      20.143   2.105  19.044  1.00 27.41 LIG 0.18  C 
ENDROOT
BRANCH 1 2
ATOM      2  N   LYS C   3      21.455   1.451  19.190  1.00 28.91 LIG-0.35  N 
ATOM      3  C   ARG C   2      22.570   2.136  18.950  1.00 30.62 LIG 0.26  C 
ATOM      4 O    ARG C   2      22.550   3.358  18.798  1.00 31.16 LIG-0.27  OA
ATOM      5 H    LYS C   3      21.428   0.626  19.433  1.00 28.91 LIG 0.16  HD
BRANCH 3 6
ATOM      6  CA  ARG C   2      23.919   1.394  18.845  1.00 31.50 LIG 0.40  C 
ATOM      7  N   ARG C   2      23.940   0.520  17.649  1.00 33.48 LIG 0.61  N 
BRANCH 6 8
ATOM      8  CB  ARG C   2      25.146   2.308  18.867  1.00 31.91 LIG 0.05  C 
BRANCH 8 9
ATOM      9  CG  ARG C   2      25.866   2.405  20.213  1.00 31.74 LIG 0.02  C 
BRANCH 9 10
ATOM     10  CD  ARG C   2      24.930   2.890  21.312  1.00 33.46 LIG 0.14  C 
BRANCH 10 11
ATOM     11  NE  ARG C   2      25.160   4.279  21.738  1.00 33.35 LIG-0.23  N 
ATOM     12  CZ  ARG C   2      24.270   5.268  21.686  1.00 33.45 LIG 0.67  C 
ATOM     13  NH1 ARG C   2      23.043   5.052  21.247  1.00 31.52 LIG-0.23  N 
ATOM     14  NH2 ARG C   2      24.607   6.490  22.095  1.00 34.66 LIG-0.23  N 
ATOM     15 1HH1 ARG C   2      22.811   4.266  20.990  1.00 31.52 LIG 0.17  HD
ATOM     16 2HH1 ARG C   2      22.477   5.699  21.218  1.00 31.52 LIG 0.17  HD
ATOM     17 1HH2 ARG C   2      25.401   6.641  22.391  1.00 34.66 LIG 0.17  HD
ATOM     18 2HH2 ARG C   2      24.032   7.129  22.061  1.00 34.66 LIG 0.17  HD
ATOM     19 HE   ARG C   2      25.939   4.470  22.048  1.00 33.35 LIG 0.18  HD
ENDBRANCH 10 11
ENDBRANCH 9 10
ENDBRANCH 8 9
ENDBRANCH 6 8
ENDBRANCH 3 6
ENDBRANCH 1 2
BRANCH 1 20
ATOM     20  C   LYS C   3      19.652   2.936  20.224  1.00 25.28 LIG 0.24  C 
ATOM     21 O    LYS C   3      18.652   3.615  20.084  1.00 21.80 LIG-0.27  OA
ATOM     22  N   ILE C   4      20.316   2.869  21.371  1.00 24.70 LIG-0.35  N 
ATOM     23 H    ILE C   4      21.069   2.467  21.476  1.00 24.70 LIG 0.16  HD
BRANCH 22 24
ATOM     24  CA  ILE C   4      19.784   3.505  22.578  1.00 24.27 LIG 0.18  C 
BRANCH 24 25
ATOM     25  C   ILE C   4      20.876   3.933  23.568  1.00 24.50 LIG 0.24  C 
ATOM     26  N   LEU C   5      20.760   5.164  24.066  1.00 23.50 LIG-0.34  N 
ATOM     27 H    LEU C   5      20.148   5.715  23.820  1.00 23.50 LIG 0.16  HD
ATOM     28 O    ILE C   4      21.784   3.159  23.885  1.00 23.85 LIG-0.27  OA
BRANCH 26 29
ATOM     29  CA  LEU C   5      21.662   5.698  25.082  1.00 24.14 LIG 0.18  C 
BRANCH 29 30
ATOM     30  C   LEU C   5      21.292   7.155  25.385  1.00 24.32 LIG 0.20  C 
ATOM     31 O    LEU C   5      20.443   7.725  24.686  1.00 24.96 LIG-0.65  OA
ATOM     32 OXT  LEU C   5      21.783   7.786  26.330  1.00 24.51 LIG-0.65  OA
ENDBRANCH 29 30
BRANCH 29 33
ATOM     33  CB  LEU C   5      23.113   5.587  24.602  1.00 23.93 LIG 0.04  C 
BRANCH 33 34
ATOM     34  CG  LEU C   5      24.039   4.543  25.265  1.00 26.81 LIG-0.02  C 
ATOM     35  CD1 LEU C   5      25.410   5.147  25.592  1.00 29.09 LIG 0.01  C 
ATOM     36  CD2 LEU C   5      23.427   3.946  26.516  1.00 28.70 LIG 0.01  C 
ENDBRANCH 33 34
ENDBRANCH 29 33
ENDBRANCH 26 29
ENDBRANCH 24 25
BRANCH 24 37
ATOM     37  CB  ILE C   4      18.759   2.616  23.294  1.00 24.66 LIG 0.01  C 
ATOM     38  CG2 ILE C   4      19.124   2.458  24.777  1.00 24.52 LIG 0.01  C 
BRANCH 37 39
ATOM     39  CG1 ILE C   4      17.337   3.161  23.118  1.00 25.15 LIG 0.00  C 
ATOM     40  CD1 ILE C   4      17.253   4.648  22.894  1.00 24.74 LIG 0.01  C 
ENDBRANCH 37 39
ENDBRANCH 24 37
ENDBRANCH 22 24
ENDBRANCH 1 20
BRANCH 1 41
ATOM     41  CB  LYS C   3      19.034   1.148  18.624  1.00 27.76 LIG 0.04  C 
BRANCH 41 42
ATOM     42  CG  LYS C   3      18.610   1.327  17.199  1.00 29.79 LIG 0.00  C 
BRANCH 42 43
ATOM     43  CD  LYS C   3      19.091   0.188  16.350  1.00 31.63 LIG 0.03  C 
BRANCH 43 44
ATOM     44  CE  LYS C   3      20.403   0.536  15.668  1.00 35.23 LIG 0.23  C 
BRANCH 44 45
ATOM     45  NZ  LYS C   3      20.285   0.534  14.186  1.00 39.07 LIG-0.08  N 
ATOM     46 HZ3  LYS C   3      20.959   0.069  13.835  1.00 39.07 LIG 0.27  HD
ATOM     47 HZ2  LYS C   3      20.313   1.371  13.885  1.00 39.07 LIG 0.27  HD
ATOM     48 HZ1  LYS C   3      19.513   0.159  13.950  1.00 39.07 LIG 0.27  HD
ENDBRANCH 44 45
ENDBRANCH 43 44
ENDBRANCH 42 43
ENDBRANCH 41 42
ENDBRANCH 1 41
TORSDOF 20
ENDMDL
MODEL 24
USER: ADFR SOLUTION from run 93
USER: SCORE 18.120806 LL:  -2.781 LR: -16.683 RR:   0.000 FEB: -10.717
USER: RMSD 7.068748
USER: SEED 92
USER: STATUS no improvement in best in 2 clusters for 5 generations
USER: GENES 22
USER: genes 0 Translation |==|  0.50441 0.35216 0.39949
USER: genes 1 Rotation |==|  0.41835 0.80920 0.16800 0.69366
USER: genes 2 Torsion [C]-CA--N-[C] |==|  0.76015
USER: genes 3 Torsion [N]-C--CA-[N] |==|  0.28856
USER: genes 4 Torsion [C]-CA--CB-[CG] |==|  0.09154
USER: genes 5 Torsion [CA]-CB--CG-[CD] |==|  0.37666
USER: genes 6 Torsion [CB]-CG--CD-[NE] |==|  0.12946
USER: genes 7 Torsion [CG]-CD--NE-[CZ] |==|  0.28089
USER: genes 8 Torsion [N]-CA--C-[N] |==|  0.92236
USER: genes 9 Torsion [C]-N--CA-[CB] |==|  0.50291
USER: genes 10 Torsion [N]-CA--C-[N] |==|  0.77676
USER: genes 11 Torsion [C]-N--CA-[C] |==|  0.22199
USER: genes 12 Torsion [N]-CA--C-[O] |==|  0.06513
USER: genes 13 Torsion [N]-CA--CB-[CG] |==|  0.81777
USER: genes 14 Torsion [CA]-CB--CG-[CD1] |==|  0.66699
USER: genes 15 Torsion [N]-CA--CB-[CG2] |==|  0.73581
USER: genes 16 Torsion [CA]-CB--CG1-[CD1] |==|  0.49530
USER: genes 17 Torsion [N]-CA--CB-[CG] |==|  0.61482
USER: genes 18 Torsion [CA]-CB--CG-[CD] |==|  0.09296
USER: genes 19 Torsion [CB]-CG--CD-[CE] |==|  0.62908
USER: genes 20 Torsion [CG]-CD--CE-[NZ] |==|  0.62518
USER: genes 21 Torsion [CD]-CE--NZ-[HZ2] |==|  0.01614
ROOT
ATOM      1  CA  LYS C   3      21.108   1.095  19.200  1.00 27.41 LIG 0.18  C 
ENDROOT
BRANCH 1 2
ATOM      2  N   LYS C   3      22.345   1.404  19.937  1.00 28.91 LIG-0.35  N 
ATOM      3  C   ARG C   2      23.055   2.483  19.620  1.00 30.62 LIG 0.26  C 
ATOM      4 O    ARG C   2      22.609   3.343  18.858  1.00 31.16 LIG-0.27  OA
ATOM      5 H    LYS C   3      22.550   0.847  20.559  1.00 28.91 LIG 0.16  HD
BRANCH 3 6
ATOM      6  CA  ARG C   2      24.472   2.668  20.202  1.00 31.50 LIG 0.40  C 
ATOM      7  N   ARG C   2      25.498   2.365  19.178  1.00 33.48 LIG 0.61  N 
BRANCH 6 8
ATOM      8  CB  ARG C   2      24.724   4.042  20.829  1.00 31.91 LIG 0.05  C 
BRANCH 8 9
ATOM      9  CG  ARG C   2      23.509   4.690  21.495  1.00 31.74 LIG 0.02  C 
BRANCH 9 10
ATOM     10  CD  ARG C   2      23.871   5.293  22.846  1.00 33.46 LIG 0.14  C 
BRANCH 10 11
ATOM     11  NE  ARG C   2      25.099   6.103  22.841  1.00 33.35 LIG-0.23  N 
ATOM     12  CZ  ARG C   2      25.156   7.433  22.808  1.00 33.45 LIG 0.67  C 
ATOM     13  NH1 ARG C   2      24.053   8.158  22.802  1.00 31.52 LIG-0.23  N 
ATOM     14  NH2 ARG C   2      26.338   8.049  22.797  1.00 34.66 LIG-0.23  N 
ATOM     15 1HH1 ARG C   2      23.285   7.772  22.819  1.00 31.52 LIG 0.17  HD
ATOM     16 2HH1 ARG C   2      24.102   9.016  22.781  1.00 31.52 LIG 0.17  HD
ATOM     17 1HH2 ARG C   2      27.063   7.587  22.810  1.00 34.66 LIG 0.17  HD
ATOM     18 2HH2 ARG C   2      26.374   8.908  22.776  1.00 34.66 LIG 0.17  HD
ATOM     19 HE   ARG C   2      25.847   5.680  22.860  1.00 33.35 LIG 0.18  HD
ENDBRANCH 10 11
ENDBRANCH 9 10
ENDBRANCH 8 9
ENDBRANCH 6 8
ENDBRANCH 3 6
ENDBRANCH 1 2
BRANCH 1 20
ATOM     20  C   LYS C   3      19.826   1.753  19.698  1.00 25.28 LIG 0.24  C 
ATOM     21 O    LYS C   3      18.921   1.943  18.907  1.00 21.80 LIG-0.27  OA
ATOM     22  N   ILE C   4      19.729   2.070  20.983  1.00 24.70 LIG-0.35  N 
ATOM     23 H    ILE C   4      20.378   2.025  21.546  1.00 24.70 LIG 0.16  HD
BRANCH 22 24
ATOM     24  CA  ILE C   4      18.459   2.536  21.542  1.00 24.27 LIG 0.18  C 
BRANCH 24 25
ATOM     25  C   ILE C   4      17.871   3.736  20.788  1.00 24.50 LIG 0.24  C 
ATOM     26  N   LEU C   5      18.390   4.925  21.092  1.00 23.50 LIG-0.34  N 
ATOM     27 H    LEU C   5      18.980   5.038  21.707  1.00 23.50 LIG 0.16  HD
ATOM     28 O    ILE C   4      16.988   3.582  19.938  1.00 23.85 LIG-0.27  OA
BRANCH 26 29
ATOM     29  CA  LEU C   5      18.008   6.158  20.409  1.00 24.14 LIG 0.18  C 
BRANCH 29 30
ATOM     30  C   LEU C   5      16.678   6.670  20.975  1.00 24.32 LIG 0.20  C 
ATOM     31 O    LEU C   5      16.333   6.333  22.117  1.00 24.96 LIG-0.65  OA
ATOM     32 OXT  LEU C   5      15.939   7.443  20.352  1.00 24.51 LIG-0.65  OA
ENDBRANCH 29 30
BRANCH 29 33
ATOM     33  CB  LEU C   5      17.903   5.907  18.900  1.00 23.93 LIG 0.04  C 
BRANCH 33 34
ATOM     34  CG  LEU C   5      19.183   5.547  18.115  1.00 26.81 LIG-0.02  C 
ATOM     35  CD1 LEU C   5      19.469   6.580  17.018  1.00 29.09 LIG 0.01  C 
ATOM     36  CD2 LEU C   5      20.391   5.408  19.020  1.00 28.70 LIG 0.01  C 
ENDBRANCH 33 34
ENDBRANCH 29 33
ENDBRANCH 26 29
ENDBRANCH 24 25
BRANCH 24 37
ATOM     37  CB  ILE C   4      18.574   2.871  23.034  1.00 24.66 LIG 0.01  C 
ATOM     38  CG2 ILE C   4      18.141   1.674  23.892  1.00 24.52 LIG 0.01  C 
BRANCH 37 39
ATOM     39  CG1 ILE C   4      19.991   3.336  23.388  1.00 25.15 LIG 0.00  C 
ATOM     40  CD1 ILE C   4      20.187   3.727  24.830  1.00 24.74 LIG 0.01  C 
ENDBRANCH 37 39
ENDBRANCH 24 37
ENDBRANCH 22 24
ENDBRANCH 1 20
BRANCH 1 41
ATOM     41  CB  LYS C   3      20.860  -0.400  19.037  1.00 27.76 LIG 0.04  C 
BRANCH 41 42
ATOM     42  CG  LYS C   3      20.354  -0.768  17.676  1.00 29.79 LIG 0.00  C 
BRANCH 42 43
ATOM     43  CD  LYS C   3      20.939   0.130  16.626  1.00 31.63 LIG 0.03  C 
BRANCH 43 44
ATOM     44  CE  LYS C   3      19.862   0.624  15.675  1.00 35.23 LIG 0.23  C 
BRANCH 44 45
ATOM     45  NZ  LYS C   3      20.285   0.537  14.253  1.00 39.07 LIG-0.08  N 
ATOM     46 HZ3  LYS C   3      19.681   0.074  13.790  1.00 39.07 LIG 0.27  HD
ATOM     47 HZ2  LYS C   3      21.074   0.129  14.202  1.00 39.07 LIG 0.27  HD
ATOM     48 HZ1  LYS C   3      20.353   1.357  13.912  1.00 39.07 LIG 0.27  HD
ENDBRANCH 44 45
ENDBRANCH 43 44
ENDBRANCH 42 43
ENDBRANCH 41 42
ENDBRANCH 1 41
TORSDOF 20
ENDMDL
MODEL 25
USER: ADFR SOLUTION from run 111
USER: SCORE 19.743301 LL:  -3.991 LR: -16.674 RR:   0.000 FEB: -10.708
USER: RMSD 6.017319
USER: SEED 110
USER: STATUS no improvement in best in 3 clusters for 5 generations
USER: GENES 22
USER: genes 0 Translation |==|  0.65076 0.48991 0.54106
USER: genes 1 Rotation |==|  0.85206 0.71346 0.74838 0.63710
USER: genes 2 Torsion [C]-CA--N-[C] |==|  0.15740
USER: genes 3 Torsion [N]-C--CA-[N] |==|  0.76597
USER: genes 4 Torsion [C]-CA--CB-[CG] |==|  0.43098
USER: genes 5 Torsion [CA]-CB--CG-[CD] |==|  0.81644
USER: genes 6 Torsion [CB]-CG--CD-[NE] |==|  0.69965
USER: genes 7 Torsion [CG]-CD--NE-[CZ] |==|  0.58250
USER: genes 8 Torsion [N]-CA--C-[N] |==|  0.09537
USER: genes 9 Torsion [C]-N--CA-[CB] |==|  0.17094
USER: genes 10 Torsion [N]-CA--C-[N] |==|  0.90059
USER: genes 11 Torsion [C]-N--CA-[C] |==|  0.57556
USER: genes 12 Torsion [N]-CA--C-[O] |==|  0.98371
USER: genes 13 Torsion [N]-CA--CB-[CG] |==|  0.72499
USER: genes 14 Torsion [CA]-CB--CG-[CD1] |==|  0.93676
USER: genes 15 Torsion [N]-CA--CB-[CG2] |==|  0.11812
USER: genes 16 Torsion [CA]-CB--CG1-[CD1] |==|  0.54314
USER: genes 17 Torsion [N]-CA--CB-[CG] |==|  0.62580
USER: genes 18 Torsion [CA]-CB--CG-[CD] |==|  0.51736
USER: genes 19 Torsion [CB]-CG--CD-[CE] |==|  0.15614
USER: genes 20 Torsion [CG]-CD--CE-[NZ] |==|  0.77212
USER: genes 21 Torsion [CD]-CE--NZ-[HZ2] |==|  0.76224
ROOT
ATOM      1  CA  LYS C   3      23.523   3.367  22.173  1.00 27.41 LIG 0.18  C 
ENDROOT
BRANCH 1 2
ATOM      2  N   LYS C   3      23.982   2.477  21.093  1.00 28.91 LIG-0.35  N 
ATOM      3  C   ARG C   2      23.968   2.901  19.832  1.00 30.62 LIG 0.26  C 
ATOM      4 O    ARG C   2      23.767   4.084  19.556  1.00 31.16 LIG-0.27  OA
ATOM      5 H    LYS C   3      24.246   1.699  21.347  1.00 28.91 LIG 0.16  HD
BRANCH 3 6
ATOM      6  CA  ARG C   2      24.196   1.896  18.684  1.00 31.50 LIG 0.40  C 
ATOM      7  N   ARG C   2      25.645   1.689  18.453  1.00 33.48 LIG 0.61  N 
BRANCH 6 8
ATOM      8  CB  ARG C   2      23.483   0.554  18.868  1.00 31.91 LIG 0.05  C 
BRANCH 8 9
ATOM      9  CG  ARG C   2      23.179  -0.209  17.577  1.00 31.74 LIG 0.02  C 
BRANCH 9 10
ATOM     10  CD  ARG C   2      22.164   0.532  16.717  1.00 33.46 LIG 0.14  C 
BRANCH 10 11
ATOM     11  NE  ARG C   2      20.832  -0.091  16.676  1.00 33.35 LIG-0.23  N 
ATOM     12  CZ  ARG C   2      19.974  -0.029  15.660  1.00 33.45 LIG 0.67  C 
ATOM     13  NH1 ARG C   2      20.285   0.612  14.548  1.00 31.52 LIG-0.23  N 
ATOM     14  NH2 ARG C   2      18.789  -0.631  15.752  1.00 34.66 LIG-0.23  N 
ATOM     15 1HH1 ARG C   2      21.050   0.996  14.474  1.00 31.52 LIG 0.17  HD
ATOM     16 2HH1 ARG C   2      19.722   0.645  13.899  1.00 31.52 LIG 0.17  HD
ATOM     17 1HH2 ARG C   2      18.578  -1.059  16.467  1.00 34.66 LIG 0.17  HD
ATOM     18 2HH2 ARG C   2      18.234  -0.591  15.096  1.00 34.66 LIG 0.17  HD
ATOM     19 HE   ARG C   2      20.586  -0.535  17.369  1.00 33.35 LIG 0.18  HD
ENDBRANCH 10 11
ENDBRANCH 9 10
ENDBRANCH 8 9
ENDBRANCH 6 8
ENDBRANCH 3 6
ENDBRANCH 1 2
BRANCH 1 20
ATOM     20  C   LYS C   3      22.106   3.921  22.055  1.00 25.28 LIG 0.24  C 
ATOM     21 O    LYS C   3      21.888   5.053  22.443  1.00 21.80 LIG-0.27  OA
ATOM     22  N   ILE C   4      21.168   3.159  21.507  1.00 24.70 LIG-0.35  N 
ATOM     23 H    ILE C   4      21.271   2.330  21.301  1.00 24.70 LIG 0.16  HD
BRANCH 22 24
ATOM     24  CA  ILE C   4      19.844   3.707  21.209  1.00 24.27 LIG 0.18  C 
BRANCH 24 25
ATOM     25  C   ILE C   4      18.847   2.647  20.720  1.00 24.50 LIG 0.24  C 
ATOM     26  N   LEU C   5      19.355   1.680  19.956  1.00 23.50 LIG-0.34  N 
ATOM     27 H    LEU C   5      20.176   1.664  19.700  1.00 23.50 LIG 0.16  HD
ATOM     28 O    ILE C   4      17.658   2.694  21.047  1.00 23.85 LIG-0.27  OA
BRANCH 26 29
ATOM     29  CA  LEU C   5      18.566   0.548  19.478  1.00 24.14 LIG 0.18  C 
BRANCH 29 30
ATOM     30  C   LEU C   5      19.484  -0.658  19.246  1.00 24.32 LIG 0.20  C 
ATOM     31 O    LEU C   5      20.710  -0.522  19.364  1.00 24.96 LIG-0.65  OA
ATOM     32 OXT  LEU C   5      19.050  -1.786  18.976  1.00 24.51 LIG-0.65  OA
ENDBRANCH 29 30
BRANCH 29 33
ATOM     33  CB  LEU C   5      17.827   0.933  18.192  1.00 23.93 LIG 0.04  C 
BRANCH 33 34
ATOM     34  CG  LEU C   5      16.341   1.346  18.283  1.00 26.81 LIG-0.02  C 
ATOM     35  CD1 LEU C   5      15.686   0.783  19.549  1.00 29.09 LIG 0.01  C 
ATOM     36  CD2 LEU C   5      16.160   2.850  18.234  1.00 28.70 LIG 0.01  C 
ENDBRANCH 33 34
ENDBRANCH 29 33
ENDBRANCH 26 29
ENDBRANCH 24 25
BRANCH 24 37
ATOM     37  CB  ILE C   4      19.910   4.857  20.196  1.00 24.66 LIG 0.01  C 
ATOM     38  CG2 ILE C   4      20.888   4.521  19.061  1.00 24.52 LIG 0.01  C 
BRANCH 37 39
ATOM     39  CG1 ILE C   4      18.517   5.201  19.658  1.00 25.15 LIG 0.00  C 
ATOM     40  CD1 ILE C   4      18.512   6.046  18.411  1.00 24.74 LIG 0.01  C 
ENDBRANCH 37 39
ENDBRANCH 24 37
ENDBRANCH 22 24
ENDBRANCH 1 20
BRANCH 1 41
ATOM     41  CB  LYS C   3      24.477   4.522  22.452  1.00 27.76 LIG 0.04  C 
BRANCH 41 42
ATOM     42  CG  LYS C   3      24.729   4.738  23.913  1.00 29.79 LIG 0.00  C 
BRANCH 42 43
ATOM     43  CD  LYS C   3      25.549   5.973  24.139  1.00 31.63 LIG 0.03  C 
BRANCH 43 44
ATOM     44  CE  LYS C   3      24.883   7.188  23.517  1.00 35.23 LIG 0.23  C 
BRANCH 44 45
ATOM     45  NZ  LYS C   3      25.160   7.297  22.060  1.00 39.07 LIG-0.08  N 
ATOM     46 HZ3  LYS C   3      25.210   6.482  21.705  1.00 39.07 LIG 0.27  HD
ATOM     47 HZ2  LYS C   3      25.932   7.723  21.937  1.00 39.07 LIG 0.27  HD
ATOM     48 HZ1  LYS C   3      24.503   7.751  21.666  1.00 39.07 LIG 0.27  HD
ENDBRANCH 44 45
ENDBRANCH 43 44
ENDBRANCH 42 43
ENDBRANCH 41 42
ENDBRANCH 1 41
TORSDOF 20
ENDMDL
