MODEL 1
USER: ADFR SOLUTION from run 72
USER: SCORE 25.292195 LL:  -5.270 LR: -22.137 RR:   0.000 FEB: -13.487
USER: RMSD 14.610311
USER: SEED 71
USER: STATUS searching
USER: GENES 31
USER: genes 0 Translation |==|  0.56508 0.53668 0.39029
USER: genes 1 Rotation |==|  0.72083 0.42392 0.06519 0.57989
USER: genes 2 Torsion [C]-N--CA-[CB] |==|  0.86617
USER: genes 3 Torsion [N]-CA--CB-[CG] |==|  0.37467
USER: genes 4 Torsion [CA]-CB--CG-[CD1] |==|  0.70330
USER: genes 5 Torsion [N]-CA--C-[N] |==|  0.38333
USER: genes 6 Torsion [C]-N--CA-[C] |==|  0.61573
USER: genes 7 Torsion [N]-CA--CB-[CG] |==|  0.31867
USER: genes 8 Torsion [CA]-CB--CG-[CD] |==|  0.73377
USER: genes 9 Torsion [CB]-CG--CD-[OE1] |==|  0.72276
USER: genes 10 Torsion [N]-CA--C-[N] |==|  0.44369
USER: genes 11 Torsion [C]-N--CA-[CB] |==|  0.21073
USER: genes 12 Torsion [N]-CA--C-[N] |==|  0.54322
USER: genes 13 Torsion [C]-N--CA-[CB] |==|  0.85005
USER: genes 14 Torsion [N]-CA--C-[OXT] |==|  0.13149
USER: genes 15 Torsion [N]-CA--CB-[CG] |==|  0.80094
USER: genes 16 Torsion [CA]-CB--CG-[SD] |==|  0.22971
USER: genes 17 Torsion [CB]-CG--SD-[CE] |==|  0.57241
USER: genes 18 Torsion [N]-C--CA-[N] |==|  0.68182
USER: genes 19 Torsion [C]-CA--N-[C] |==|  0.17398
USER: genes 20 Torsion [N]-C--CA-[N] |==|  0.92724
USER: genes 21 Torsion [C]-CA--N-[C] |==|  0.63334
USER: genes 22 Torsion [N]-C--CA-[N] |==|  0.46097
USER: genes 23 Torsion [C]-CA--N-[H1] |==|  0.45677
USER: genes 24 Torsion [C]-CA--CB-[CG] |==|  0.81141
USER: genes 25 Torsion [CA]-CB--CG-[CD] |==|  0.69728
USER: genes 26 Torsion [CB]-CG--CD-[NE] |==|  0.22649
USER: genes 27 Torsion [CG]-CD--NE-[CZ] |==|  0.45699
USER: genes 28 Torsion [C]-CA--CB-[CG2] |==|  0.50891
USER: genes 29 Torsion [C]-CA--CB-[CG] |==|  0.26141
USER: genes 30 Torsion [CA]-CB--CG-[CD2] |==|  0.08774
ROOT
ATOM      1  C   LEU D   3     -13.078   9.076  -8.577  1.00 15.92 LIG 0.24  C 
ATOM      2 O    LEU D   3     -13.938   9.945  -8.447  1.00 19.39 LIG-0.27  OA
ATOM      3  N   PHE D   4     -13.160   8.132  -9.505  1.00 13.65 LIG-0.35  N 
ATOM      4 H    PHE D   4     -12.495   7.661  -9.779  1.00 13.65 LIG 0.16  HD
ENDROOT
BRANCH 3 5
ATOM      5  CA  PHE D   4     -14.422   7.828 -10.137  1.00 13.25 LIG 0.18  C 
BRANCH 5 6
ATOM      6  CB  PHE D   4     -15.499   7.666  -9.053  1.00 13.20 LIG 0.07  C 
BRANCH 6 7
ATOM      7  CG  PHE D   4     -16.773   8.365  -9.363  1.00 13.63 LIG-0.06  A 
ATOM      8  CD1 PHE D   4     -17.125   9.527  -8.686  1.00 13.10 LIG 0.01  A 
ATOM      9  CE1 PHE D   4     -18.303  10.192  -8.995  1.00 15.10 LIG 0.00  A 
ATOM     10  CZ  PHE D   4     -19.132   9.706 -10.004  1.00 15.27 LIG 0.00  A 
ATOM     11  CE2 PHE D   4     -18.765   8.560 -10.702  1.00 13.31 LIG 0.00  A 
ATOM     12  CD2 PHE D   4     -17.604   7.894 -10.366  1.00 12.44 LIG 0.01  A 
ENDBRANCH 6 7
ENDBRANCH 5 6
BRANCH 5 13
ATOM     13  C   PHE D   4     -14.752   8.984 -11.081  1.00 14.19 LIG 0.24  C 
ATOM     14 O    PHE D   4     -14.458  10.136 -10.779  1.00 15.09 LIG-0.27  OA
ATOM     15  N   GLU D   5     -15.245   8.675 -12.273  1.00 15.42 LIG-0.35  N 
ATOM     16 H    GLU D   5     -15.333   7.872 -12.570  1.00 15.42 LIG 0.16  HD
BRANCH 15 17
ATOM     17  CA  GLU D   5     -15.684   9.716 -13.185  1.00 15.66 LIG 0.18  C 
BRANCH 17 18
ATOM     18  CB  GLU D   5     -14.605  10.012 -14.237  1.00 15.74 LIG 0.04  C 
BRANCH 18 19
ATOM     19  CG  GLU D   5     -14.993   9.668 -15.659  1.00 13.49 LIG 0.12  C 
BRANCH 19 20
ATOM     20  CD  GLU D   5     -14.496   8.296 -16.080  1.00 17.86 LIG 0.17  C 
ATOM     21 OE1  GLU D   5     -13.457   8.233 -16.774  1.00 19.55 LIG-0.65  OA
ATOM     22 OE2  GLU D   5     -15.101   7.275 -15.669  1.00 19.96 LIG-0.65  OA
ENDBRANCH 19 20
ENDBRANCH 18 19
ENDBRANCH 17 18
BRANCH 17 23
ATOM     23  C   GLU D   5     -16.982   9.276 -13.838  1.00 17.50 LIG 0.24  C 
ATOM     24 O    GLU D   5     -17.313   8.089 -13.837  1.00 17.10 LIG-0.27  OA
ATOM     25  N   ALA D   6     -17.732  10.238 -14.363  1.00 19.03 LIG-0.35  N 
ATOM     26 H    ALA D   6     -17.516  11.070 -14.365  1.00 19.03 LIG 0.16  HD
BRANCH 25 27
ATOM     27  CA  ALA D   6     -19.011   9.944 -14.992  1.00 21.37 LIG 0.17  C 
ATOM     28  CB  ALA D   6     -20.062   9.670 -13.940  1.00 21.30 LIG 0.04  C 
BRANCH 27 29
ATOM     29  C   ALA D   6     -19.427  11.120 -15.862  1.00 24.24 LIG 0.24  C 
ATOM     30 O    ALA D   6     -18.613  11.983 -16.191  1.00 22.56 LIG-0.27  OA
ATOM     31  N   MET D   7     -20.699  11.141 -16.240  1.00 27.55 LIG-0.34  N 
ATOM     32 H    MET D   7     -21.297  10.597 -15.946  1.00 27.55 LIG 0.16  HD
BRANCH 31 33
ATOM     33  CA  MET D   7     -21.194  12.113 -17.207  1.00 30.72 LIG 0.19  C 
BRANCH 33 34
ATOM     34  C   MET D   7     -20.603  11.810 -18.575  1.00 33.25 LIG 0.20  C 
ATOM     35 O    MET D   7     -20.190  12.733 -19.289  1.00 35.29 LIG-0.65  OA
ATOM     36 OXT  MET D   7     -20.604  10.657 -19.031  1.00 35.43 LIG-0.65  OA
ENDBRANCH 33 34
BRANCH 33 37
ATOM     37  CB  MET D   7     -20.840  13.533 -16.749  1.00 30.73 LIG 0.05  C 
BRANCH 37 38
ATOM     38  CG  MET D   7     -21.620  14.053 -15.557  1.00 32.79 LIG 0.08  C 
BRANCH 38 39
ATOM     39 SD   MET D   7     -20.918  13.482 -14.007  1.00 33.89 LIG-0.17  SA
ATOM     40  CE  MET D   7     -22.343  13.523 -12.922  1.00 31.39 LIG 0.09  C 
ENDBRANCH 38 39
ENDBRANCH 37 38
ENDBRANCH 33 37
ENDBRANCH 31 33
ENDBRANCH 27 29
ENDBRANCH 25 27
ENDBRANCH 17 23
ENDBRANCH 15 17
ENDBRANCH 5 13
ENDBRANCH 3 5
BRANCH 1 41
ATOM     41  CA  LEU D   3     -11.881   9.001  -7.632  1.00 16.32 LIG 0.18  C 
BRANCH 41 42
ATOM     42  N   LEU D   3     -12.264   8.732  -6.251  1.00 16.05 LIG-0.35  N 
ATOM     43  C   VAL D   2     -12.876   7.599  -5.913  1.00 15.61 LIG 0.24  C 
ATOM     44 O    VAL D   2     -13.232   6.761  -6.743  1.00 16.79 LIG-0.27  OA
ATOM     45 H    LEU D   3     -12.064   9.357  -5.695  1.00 16.05 LIG 0.16  HD
BRANCH 43 46
ATOM     46  CA  VAL D   2     -13.284   7.458  -4.455  1.00 14.78 LIG 0.18  C 
BRANCH 46 47
ATOM     47  N   VAL D   2     -12.388   8.289  -3.664  1.00 14.77 LIG-0.35  N 
ATOM     48  C   ARG D   1     -11.797   7.821  -2.572  1.00 16.50 LIG 0.25  C 
ATOM     49 O    ARG D   1     -11.924   6.658  -2.179  1.00 16.49 LIG-0.27  OA
ATOM     50 H    VAL D   2     -12.282   9.088  -3.964  1.00 14.77 LIG 0.16  HD
BRANCH 48 51
ATOM     51  CA  ARG D   1     -10.842   8.764  -1.882  1.00 17.64 LIG 0.27  C 
BRANCH 51 52
ATOM     52  N   ARG D   1     -10.540   8.233  -0.528  1.00 17.90 LIG-0.07  N 
ATOM     53 H3   ARG D   1     -10.384   7.358  -0.580  1.00 17.90 LIG 0.28  HD
ATOM     54 H2   ARG D   1     -11.235   8.378   0.010  1.00 17.90 LIG 0.28  HD
ATOM     55 H1   ARG D   1      -9.821   8.643  -0.202  1.00 17.90 LIG 0.28  HD
ENDBRANCH 51 52
BRANCH 51 56
ATOM     56  CB  ARG D   1      -9.574   8.861  -2.743  1.00 19.06 LIG 0.04  C 
BRANCH 56 57
ATOM     57  CG  ARG D   1      -8.729   7.620  -2.827  1.00 22.89 LIG 0.02  C 
BRANCH 57 58
ATOM     58  CD  ARG D   1      -7.442   7.845  -2.045  1.00 26.83 LIG 0.14  C 
BRANCH 58 59
ATOM     59  NE  ARG D   1      -7.625   7.637  -0.614  1.00 30.01 LIG-0.23  N 
ATOM     60  CZ  ARG D   1      -6.621   7.478   0.244  1.00 33.71 LIG 0.67  C 
ATOM     61  NH1 ARG D   1      -5.370   7.500  -0.196  1.00 32.13 LIG-0.23  N 
ATOM     62  NH2 ARG D   1      -6.866   7.299   1.538  1.00 33.53 LIG-0.23  N 
ATOM     63 1HH1 ARG D   1      -5.211   7.616  -1.033  1.00 32.13 LIG 0.17  HD
ATOM     64 2HH1 ARG D   1      -4.719   7.399   0.356  1.00 32.13 LIG 0.17  HD
ATOM     65 1HH2 ARG D   1      -7.676   7.284   1.825  1.00 33.53 LIG 0.17  HD
ATOM     66 2HH2 ARG D   1      -6.213   7.197   2.089  1.00 33.53 LIG 0.17  HD
ATOM     67 HE   ARG D   1      -8.428   7.615  -0.307  1.00 30.01 LIG 0.18  HD
ENDBRANCH 58 59
ENDBRANCH 57 58
ENDBRANCH 56 57
ENDBRANCH 51 56
ENDBRANCH 48 51
ENDBRANCH 46 47
BRANCH 46 68
ATOM     68  CB  VAL D   2     -14.744   7.920  -4.263  1.00 15.28 LIG 0.01  C 
ATOM     69  CG2 VAL D   2     -15.122   7.853  -2.796  1.00 14.68 LIG 0.01  C 
ATOM     70  CG1 VAL D   2     -15.711   7.113  -5.131  1.00 13.75 LIG 0.01  C 
ENDBRANCH 46 68
ENDBRANCH 43 46
ENDBRANCH 41 42
BRANCH 41 71
ATOM     71  CB  LEU D   3     -10.865   7.968  -8.130  1.00 15.85 LIG 0.04  C 
BRANCH 71 72
ATOM     72  CG  LEU D   3      -9.720   8.495  -9.000  1.00 19.10 LIG-0.02  C 
ATOM     73  CD2 LEU D   3      -9.329   9.915  -8.621  1.00 16.59 LIG 0.01  C 
ATOM     74  CD1 LEU D   3     -10.130   8.414 -10.470  1.00 21.08 LIG 0.01  C 
ENDBRANCH 71 72
ENDBRANCH 41 71
ENDBRANCH 1 41
TORSDOF 29
ENDMDL
MODEL 2
USER: ADFR SOLUTION from run 160
USER: SCORE 25.275856 LL:  -5.695 LR: -22.004 RR:   0.000 FEB: -13.354
USER: RMSD 13.938668
USER: SEED 159
USER: STATUS 1 or 2 clusters left
USER: GENES 31
USER: genes 0 Translation |==|  0.58763 0.43684 0.39317
USER: genes 1 Rotation |==|  0.35152 0.96751 0.56818 0.56884
USER: genes 2 Torsion [C]-N--CA-[CB] |==|  0.48712
USER: genes 3 Torsion [N]-CA--CB-[CG] |==|  0.21132
USER: genes 4 Torsion [CA]-CB--CG-[CD1] |==|  0.38761
USER: genes 5 Torsion [N]-CA--C-[N] |==|  0.45218
USER: genes 6 Torsion [C]-N--CA-[C] |==|  0.68334
USER: genes 7 Torsion [N]-CA--CB-[CG] |==|  0.48114
USER: genes 8 Torsion [CA]-CB--CG-[CD] |==|  0.49054
USER: genes 9 Torsion [CB]-CG--CD-[OE1] |==|  0.98221
USER: genes 10 Torsion [N]-CA--C-[N] |==|  0.00187
USER: genes 11 Torsion [C]-N--CA-[CB] |==|  0.48548
USER: genes 12 Torsion [N]-CA--C-[N] |==|  0.41325
USER: genes 13 Torsion [C]-N--CA-[CB] |==|  0.29687
USER: genes 14 Torsion [N]-CA--C-[OXT] |==|  0.75711
USER: genes 15 Torsion [N]-CA--CB-[CG] |==|  0.81173
USER: genes 16 Torsion [CA]-CB--CG-[SD] |==|  0.42419
USER: genes 17 Torsion [CB]-CG--SD-[CE] |==|  0.67994
USER: genes 18 Torsion [N]-C--CA-[N] |==|  0.08530
USER: genes 19 Torsion [C]-CA--N-[C] |==|  0.11897
USER: genes 20 Torsion [N]-C--CA-[N] |==|  0.83608
USER: genes 21 Torsion [C]-CA--N-[C] |==|  0.68373
USER: genes 22 Torsion [N]-C--CA-[N] |==|  0.39510
USER: genes 23 Torsion [C]-CA--N-[H1] |==|  0.44384
USER: genes 24 Torsion [C]-CA--CB-[CG] |==|  0.40841
USER: genes 25 Torsion [CA]-CB--CG-[CD] |==|  0.22286
USER: genes 26 Torsion [CB]-CG--CD-[NE] |==|  0.07113
USER: genes 27 Torsion [CG]-CD--NE-[CZ] |==|  0.22126
USER: genes 28 Torsion [C]-CA--CB-[CG2] |==|  0.52402
USER: genes 29 Torsion [C]-CA--CB-[CG] |==|  0.26440
USER: genes 30 Torsion [CA]-CB--CG-[CD2] |==|  0.73064
ROOT
ATOM      1  C   LEU D   3     -12.436   7.803  -8.495  1.00 15.92 LIG 0.24  C 
ATOM      2 O    LEU D   3     -11.795   7.412  -9.469  1.00 19.39 LIG-0.27  OA
ATOM      3  N   PHE D   4     -13.678   7.403  -8.258  1.00 13.65 LIG-0.35  N 
ATOM      4 H    PHE D   4     -14.070   7.460  -7.494  1.00 13.65 LIG 0.16  HD
ENDROOT
BRANCH 3 5
ATOM      5  CA  PHE D   4     -14.478   6.824  -9.310  1.00 13.25 LIG 0.18  C 
BRANCH 5 6
ATOM      6  CB  PHE D   4     -15.817   6.353  -8.720  1.00 13.20 LIG 0.07  C 
BRANCH 6 7
ATOM      7  CG  PHE D   4     -16.773   7.457  -8.444  1.00 13.63 LIG-0.06  A 
ATOM      8  CD1 PHE D   4     -18.127   7.304  -8.723  1.00 13.10 LIG 0.01  A 
ATOM      9  CE1 PHE D   4     -19.022   8.327  -8.441  1.00 15.10 LIG 0.00  A 
ATOM     10  CZ  PHE D   4     -18.567   9.508  -7.858  1.00 15.27 LIG 0.00  A 
ATOM     11  CE2 PHE D   4     -17.217   9.649  -7.552  1.00 13.31 LIG 0.00  A 
ATOM     12  CD2 PHE D   4     -16.335   8.634  -7.862  1.00 12.44 LIG 0.01  A 
ENDBRANCH 6 7
ENDBRANCH 5 6
BRANCH 5 13
ATOM     13  C   PHE D   4     -14.687   7.902 -10.373  1.00 14.19 LIG 0.24  C 
ATOM     14 O    PHE D   4     -14.383   9.068 -10.144  1.00 15.09 LIG-0.27  OA
ATOM     15  N   GLU D   5     -15.087   7.504 -11.573  1.00 15.42 LIG-0.35  N 
ATOM     16 H    GLU D   5     -15.175   6.682 -11.809  1.00 15.42 LIG 0.16  HD
BRANCH 15 17
ATOM     17  CA  GLU D   5     -15.411   8.475 -12.604  1.00 15.66 LIG 0.18  C 
BRANCH 17 18
ATOM     18  CB  GLU D   5     -14.567   8.234 -13.866  1.00 15.74 LIG 0.04  C 
BRANCH 18 19
ATOM     19  CG  GLU D   5     -14.945   9.092 -15.055  1.00 13.49 LIG 0.12  C 
BRANCH 19 20
ATOM     20  CD  GLU D   5     -14.027   8.872 -16.245  1.00 17.86 LIG 0.17  C 
ATOM     21 OE1  GLU D   5     -13.027   8.137 -16.089  1.00 19.55 LIG-0.65  OA
ATOM     22 OE2  GLU D   5     -14.335   9.376 -17.353  1.00 19.96 LIG-0.65  OA
ENDBRANCH 19 20
ENDBRANCH 18 19
ENDBRANCH 17 18
BRANCH 17 23
ATOM     23  C   GLU D   5     -16.896   8.382 -12.910  1.00 17.50 LIG 0.24  C 
ATOM     24 O    GLU D   5     -17.399   9.083 -13.790  1.00 17.10 LIG-0.27  OA
ATOM     25  N   ALA D   6     -17.586   7.491 -12.207  1.00 19.03 LIG-0.35  N 
ATOM     26 H    ALA D   6     -17.245   6.992 -11.595  1.00 19.03 LIG 0.16  HD
BRANCH 25 27
ATOM     27  CA  ALA D   6     -19.010   7.290 -12.428  1.00 21.37 LIG 0.17  C 
ATOM     28  CB  ALA D   6     -19.513   6.136 -11.589  1.00 21.30 LIG 0.04  C 
BRANCH 27 29
ATOM     29  C   ALA D   6     -19.760   8.565 -12.080  1.00 24.24 LIG 0.24  C 
ATOM     30 O    ALA D   6     -19.343   9.326 -11.206  1.00 22.56 LIG-0.27  OA
ATOM     31  N   MET D   7     -20.865   8.797 -12.778  1.00 27.55 LIG-0.34  N 
ATOM     32 H    MET D   7     -21.215   8.234 -13.325  1.00 27.55 LIG 0.16  HD
BRANCH 31 33
ATOM     33  CA  MET D   7     -21.589  10.058 -12.666  1.00 30.72 LIG 0.19  C 
BRANCH 33 34
ATOM     34  C   MET D   7     -23.066   9.773 -12.436  1.00 33.25 LIG 0.20  C 
ATOM     35 O    MET D   7     -23.495   9.617 -11.285  1.00 35.29 LIG-0.65  OA
ATOM     36 OXT  MET D   7     -23.840   9.606 -13.390  1.00 35.43 LIG-0.65  OA
ENDBRANCH 33 34
BRANCH 33 37
ATOM     37  CB  MET D   7     -21.373  10.900 -13.928  1.00 30.73 LIG 0.05  C 
BRANCH 37 38
ATOM     38  CG  MET D   7     -19.966  11.425 -14.135  1.00 32.79 LIG 0.08  C 
BRANCH 38 39
ATOM     39 SD   MET D   7     -19.604  11.679 -15.875  1.00 33.89 LIG-0.17  SA
ATOM     40  CE  MET D   7     -18.304  10.479 -16.158  1.00 31.39 LIG 0.09  C 
ENDBRANCH 38 39
ENDBRANCH 37 38
ENDBRANCH 33 37
ENDBRANCH 31 33
ENDBRANCH 27 29
ENDBRANCH 25 27
ENDBRANCH 17 23
ENDBRANCH 15 17
ENDBRANCH 5 13
ENDBRANCH 3 5
BRANCH 1 41
ATOM     41  CA  LEU D   3     -11.850   8.822  -7.520  1.00 16.32 LIG 0.18  C 
BRANCH 41 42
ATOM     42  N   LEU D   3     -12.381   8.684  -6.169  1.00 16.05 LIG-0.35  N 
ATOM     43  C   VAL D   2     -12.539   7.487  -5.609  1.00 15.61 LIG 0.24  C 
ATOM     44 O    VAL D   2     -12.336   6.434  -6.217  1.00 16.79 LIG-0.27  OA
ATOM     45 H    LEU D   3     -12.577   9.428  -5.783  1.00 16.05 LIG 0.16  HD
BRANCH 43 46
ATOM     46  CA  VAL D   2     -13.161   7.465  -4.221  1.00 14.78 LIG 0.18  C 
BRANCH 46 47
ATOM     47  N   VAL D   2     -12.309   8.256  -3.344  1.00 14.77 LIG-0.35  N 
ATOM     48  C   ARG D   1     -11.639   7.697  -2.345  1.00 16.50 LIG 0.25  C 
ATOM     49 O    ARG D   1     -11.651   6.484  -2.117  1.00 16.49 LIG-0.27  OA
ATOM     50 H    VAL D   2     -12.284   9.095  -3.531  1.00 14.77 LIG 0.16  HD
BRANCH 48 51
ATOM     51  CA  ARG D   1     -10.743   8.618  -1.554  1.00 17.64 LIG 0.27  C 
BRANCH 51 52
ATOM     52  N   ARG D   1     -10.808   8.233  -0.120  1.00 17.90 LIG-0.07  N 
ATOM     53 H3   ARG D   1     -10.824   7.346  -0.051  1.00 17.90 LIG 0.28  HD
ATOM     54 H2   ARG D   1     -11.546   8.572   0.246  1.00 17.90 LIG 0.28  HD
ATOM     55 H1   ARG D   1     -10.094   8.550   0.305  1.00 17.90 LIG 0.28  HD
ENDBRANCH 51 52
BRANCH 51 56
ATOM     56  CB  ARG D   1      -9.318   8.478  -2.109  1.00 19.06 LIG 0.04  C 
BRANCH 56 57
ATOM     57  CG  ARG D   1      -8.465   9.715  -2.074  1.00 22.89 LIG 0.02  C 
BRANCH 57 58
ATOM     58  CD  ARG D   1      -7.902   9.886  -0.669  1.00 26.83 LIG 0.14  C 
BRANCH 58 59
ATOM     59  NE  ARG D   1      -7.808   8.618   0.043  1.00 30.01 LIG-0.23  N 
ATOM     60  CZ  ARG D   1      -6.828   7.738  -0.141  1.00 33.71 LIG 0.67  C 
ATOM     61  NH1 ARG D   1      -5.869   7.996  -1.020  1.00 32.13 LIG-0.23  N 
ATOM     62  NH2 ARG D   1      -6.806   6.603   0.550  1.00 33.53 LIG-0.23  N 
ATOM     63 1HH1 ARG D   1      -5.882   8.729  -1.468  1.00 32.13 LIG 0.17  HD
ATOM     64 2HH1 ARG D   1      -5.233   7.429  -1.142  1.00 32.13 LIG 0.17  HD
ATOM     65 1HH2 ARG D   1      -7.427   6.434   1.120  1.00 33.53 LIG 0.17  HD
ATOM     66 2HH2 ARG D   1      -6.169   6.037   0.428  1.00 33.53 LIG 0.17  HD
ATOM     67 HE   ARG D   1      -8.421   8.428   0.614  1.00 30.01 LIG 0.18  HD
ENDBRANCH 58 59
ENDBRANCH 57 58
ENDBRANCH 56 57
ENDBRANCH 51 56
ENDBRANCH 48 51
ENDBRANCH 46 47
BRANCH 46 68
ATOM     68  CB  VAL D   2     -14.582   8.065  -4.264  1.00 15.28 LIG 0.01  C 
ATOM     69  CG2 VAL D   2     -15.116   8.238  -2.856  1.00 14.68 LIG 0.01  C 
ATOM     70  CG1 VAL D   2     -15.525   7.222  -5.124  1.00 13.75 LIG 0.01  C 
ENDBRANCH 46 68
ENDBRANCH 43 46
ENDBRANCH 41 42
BRANCH 41 71
ATOM     71  CB  LEU D   3     -10.320   8.749  -7.518  1.00 15.85 LIG 0.04  C 
BRANCH 71 72
ATOM     72  CG  LEU D   3      -9.583   9.734  -8.431  1.00 19.10 LIG-0.02  C 
ATOM     73  CD2 LEU D   3      -9.205   9.100  -9.760  1.00 16.59 LIG 0.01  C 
ATOM     74  CD1 LEU D   3      -8.348  10.261  -7.703  1.00 21.08 LIG 0.01  C 
ENDBRANCH 71 72
ENDBRANCH 41 71
ENDBRANCH 1 41
TORSDOF 29
ENDMDL
MODEL 3
USER: ADFR SOLUTION from run 126
USER: SCORE 24.681292 LL:  -5.599 LR: -21.827 RR:   0.000 FEB: -13.176
USER: RMSD 14.776325
USER: SEED 125
USER: STATUS no improvement in best in 8 clusters for 5 generations
USER: GENES 31
USER: genes 0 Translation |==|  0.59290 0.41989 0.37366
USER: genes 1 Rotation |==|  0.37843 0.96017 0.65304 0.50661
USER: genes 2 Torsion [C]-N--CA-[CB] |==|  0.52819
USER: genes 3 Torsion [N]-CA--CB-[CG] |==|  0.28343
USER: genes 4 Torsion [CA]-CB--CG-[CD1] |==|  0.76192
USER: genes 5 Torsion [N]-CA--C-[N] |==|  0.42233
USER: genes 6 Torsion [C]-N--CA-[C] |==|  0.60575
USER: genes 7 Torsion [N]-CA--CB-[CG] |==|  0.40899
USER: genes 8 Torsion [CA]-CB--CG-[CD] |==|  0.69155
USER: genes 9 Torsion [CB]-CG--CD-[OE1] |==|  0.64661
USER: genes 10 Torsion [N]-CA--C-[N] |==|  0.41285
USER: genes 11 Torsion [C]-N--CA-[CB] |==|  0.41089
USER: genes 12 Torsion [N]-CA--C-[N] |==|  0.70402
USER: genes 13 Torsion [C]-N--CA-[CB] |==|  0.18269
USER: genes 14 Torsion [N]-CA--C-[OXT] |==|  0.03451
USER: genes 15 Torsion [N]-CA--CB-[CG] |==|  0.21913
USER: genes 16 Torsion [CA]-CB--CG-[SD] |==|  0.77336
USER: genes 17 Torsion [CB]-CG--SD-[CE] |==|  0.28914
USER: genes 18 Torsion [N]-C--CA-[N] |==|  0.09619
USER: genes 19 Torsion [C]-CA--N-[C] |==|  0.66289
USER: genes 20 Torsion [N]-C--CA-[N] |==|  0.30558
USER: genes 21 Torsion [C]-CA--N-[C] |==|  0.65651
USER: genes 22 Torsion [N]-C--CA-[N] |==|  0.90511
USER: genes 23 Torsion [C]-CA--N-[H1] |==|  0.93241
USER: genes 24 Torsion [C]-CA--CB-[CG] |==|  0.54798
USER: genes 25 Torsion [CA]-CB--CG-[CD] |==|  0.74128
USER: genes 26 Torsion [CB]-CG--CD-[NE] |==|  0.87256
USER: genes 27 Torsion [CG]-CD--NE-[CZ] |==|  0.37231
USER: genes 28 Torsion [C]-CA--CB-[CG2] |==|  0.48144
USER: genes 29 Torsion [C]-CA--CB-[CG] |==|  0.32958
USER: genes 30 Torsion [CA]-CB--CG-[CD2] |==|  0.61032
ROOT
ATOM      1  C   LEU D   3     -12.285   7.587  -9.051  1.00 15.92 LIG 0.24  C 
ATOM      2 O    LEU D   3     -12.031   7.483 -10.250  1.00 19.39 LIG-0.27  OA
ATOM      3  N   PHE D   4     -13.397   7.097  -8.518  1.00 13.65 LIG-0.35  N 
ATOM      4 H    PHE D   4     -13.507   6.942  -7.679  1.00 13.65 LIG 0.16  HD
ENDROOT
BRANCH 3 5
ATOM      5  CA  PHE D   4     -14.535   6.782  -9.349  1.00 13.25 LIG 0.18  C 
BRANCH 5 6
ATOM      6  CB  PHE D   4     -15.744   6.481  -8.450  1.00 13.20 LIG 0.07  C 
BRANCH 6 7
ATOM      7  CG  PHE D   4     -16.714   7.604  -8.353  1.00 13.63 LIG-0.06  A 
ATOM      8  CD1 PHE D   4     -16.530   8.617  -7.419  1.00 13.10 LIG 0.01  A 
ATOM      9  CE1 PHE D   4     -17.423   9.677  -7.348  1.00 15.10 LIG 0.00  A 
ATOM     10  CZ  PHE D   4     -18.501   9.739  -8.228  1.00 15.27 LIG 0.00  A 
ATOM     11  CE2 PHE D   4     -18.668   8.740  -9.182  1.00 13.31 LIG 0.00  A 
ATOM     12  CD2 PHE D   4     -17.788   7.678  -9.224  1.00 12.44 LIG 0.01  A 
ENDBRANCH 6 7
ENDBRANCH 5 6
BRANCH 5 13
ATOM     13  C   PHE D   4     -14.796   7.991 -10.247  1.00 14.19 LIG 0.24  C 
ATOM     14 O    PHE D   4     -14.384   9.102  -9.928  1.00 15.09 LIG-0.27  OA
ATOM     15  N   GLU D   5     -15.365   7.765 -11.422  1.00 15.42 LIG-0.35  N 
ATOM     16 H    GLU D   5     -15.540   6.984 -11.737  1.00 15.42 LIG 0.16  HD
BRANCH 15 17
ATOM     17  CA  GLU D   5     -15.744   8.870 -12.286  1.00 15.66 LIG 0.18  C 
BRANCH 17 18
ATOM     18  CB  GLU D   5     -14.646   9.155 -13.322  1.00 15.74 LIG 0.04  C 
BRANCH 18 19
ATOM     19  CG  GLU D   5     -15.149   9.654 -14.659  1.00 13.49 LIG 0.12  C 
BRANCH 19 20
ATOM     20  CD  GLU D   5     -14.952   8.637 -15.770  1.00 17.86 LIG 0.17  C 
ATOM     21 OE1  GLU D   5     -14.360   9.007 -16.809  1.00 19.55 LIG-0.65  OA
ATOM     22 OE2  GLU D   5     -15.328   7.454 -15.587  1.00 19.96 LIG-0.65  OA
ENDBRANCH 19 20
ENDBRANCH 18 19
ENDBRANCH 17 18
BRANCH 17 23
ATOM     23  C   GLU D   5     -17.062   8.531 -12.961  1.00 17.50 LIG 0.24  C 
ATOM     24 O    GLU D   5     -17.362   7.360 -13.197  1.00 17.10 LIG-0.27  OA
ATOM     25  N   ALA D   6     -17.861   9.555 -13.237  1.00 19.03 LIG-0.35  N 
ATOM     26 H    ALA D   6     -17.666  10.376 -13.072  1.00 19.03 LIG 0.16  HD
BRANCH 25 27
ATOM     27  CA  ALA D   6     -19.162   9.355 -13.857  1.00 21.37 LIG 0.17  C 
ATOM     28  CB  ALA D   6     -20.138  10.407 -13.380  1.00 21.30 LIG 0.04  C 
BRANCH 27 29
ATOM     29  C   ALA D   6     -19.015   9.416 -15.369  1.00 24.24 LIG 0.24  C 
ATOM     30 O    ALA D   6     -18.501   8.487 -15.993  1.00 22.56 LIG-0.27  OA
ATOM     31  N   MET D   7     -19.479  10.514 -15.953  1.00 27.55 LIG-0.34  N 
ATOM     32 H    MET D   7     -19.757  11.206 -15.525  1.00 27.55 LIG 0.16  HD
BRANCH 31 33
ATOM     33  CA  MET D   7     -19.554  10.635 -17.404  1.00 30.72 LIG 0.19  C 
BRANCH 33 34
ATOM     34  C   MET D   7     -19.926  12.063 -17.774  1.00 33.25 LIG 0.20  C 
ATOM     35 O    MET D   7     -20.183  12.351 -18.950  1.00 35.29 LIG-0.65  OA
ATOM     36 OXT  MET D   7     -19.893  12.971 -16.930  1.00 35.43 LIG-0.65  OA
ENDBRANCH 33 34
BRANCH 33 37
ATOM     37  CB  MET D   7     -20.571   9.632 -17.961  1.00 30.73 LIG 0.05  C 
BRANCH 37 38
ATOM     38  CG  MET D   7     -22.027  10.030 -17.830  1.00 32.79 LIG 0.08  C 
BRANCH 38 39
ATOM     39 SD   MET D   7     -22.668   9.668 -16.193  1.00 33.89 LIG-0.17  SA
ATOM     40  CE  MET D   7     -22.710  11.296 -15.446  1.00 31.39 LIG 0.09  C 
ENDBRANCH 38 39
ENDBRANCH 37 38
ENDBRANCH 33 37
ENDBRANCH 31 33
ENDBRANCH 27 29
ENDBRANCH 25 27
ENDBRANCH 17 23
ENDBRANCH 15 17
ENDBRANCH 5 13
ENDBRANCH 3 5
BRANCH 1 41
ATOM     41  CA  LEU D   3     -11.351   8.339  -8.106  1.00 16.32 LIG 0.18  C 
BRANCH 41 42
ATOM     42  N   LEU D   3     -11.339   7.782  -6.759  1.00 16.05 LIG-0.35  N 
ATOM     43  C   VAL D   2     -11.672   8.522  -5.703  1.00 15.61 LIG 0.24  C 
ATOM     44 O    VAL D   2     -11.918   9.727  -5.785  1.00 16.79 LIG-0.27  OA
ATOM     45 H    LEU D   3     -11.103   6.956  -6.714  1.00 16.05 LIG 0.16  HD
BRANCH 43 46
ATOM     46  CA  VAL D   2     -11.561   7.851  -4.343  1.00 14.78 LIG 0.18  C 
BRANCH 46 47
ATOM     47  N   VAL D   2     -10.445   8.465  -3.637  1.00 14.77 LIG-0.35  N 
ATOM     48  C   ARG D   1      -9.437   7.738  -3.175  1.00 16.50 LIG 0.25  C 
ATOM     49 O    ARG D   1      -9.348   6.519  -3.345  1.00 16.49 LIG-0.27  OA
ATOM     50 H    VAL D   2     -10.502   9.320  -3.553  1.00 14.77 LIG 0.16  HD
BRANCH 48 51
ATOM     51  CA  ARG D   1      -8.314   8.505  -2.522  1.00 17.64 LIG 0.27  C 
BRANCH 51 52
ATOM     52  N   ARG D   1      -8.156   9.808  -3.219  1.00 17.90 LIG-0.07  N 
ATOM     53 H3   ARG D   1      -7.294  10.027  -3.248  1.00 17.90 LIG 0.28  HD
ATOM     54 H2   ARG D   1      -8.607  10.437  -2.780  1.00 17.90 LIG 0.28  HD
ATOM     55 H1   ARG D   1      -8.472   9.741  -4.048  1.00 17.90 LIG 0.28  HD
ENDBRANCH 51 52
BRANCH 51 56
ATOM     56  CB  ARG D   1      -8.676   8.700  -1.043  1.00 19.06 LIG 0.04  C 
BRANCH 56 57
ATOM     57  CG  ARG D   1      -7.912   9.764  -0.305  1.00 22.89 LIG 0.02  C 
BRANCH 57 58
ATOM     58  CD  ARG D   1      -6.708   9.124   0.375  1.00 26.83 LIG 0.14  C 
BRANCH 58 59
ATOM     59  NE  ARG D   1      -7.058   7.891   1.066  1.00 30.01 LIG-0.23  N 
ATOM     60  CZ  ARG D   1      -6.352   6.768   0.977  1.00 33.71 LIG 0.67  C 
ATOM     61  NH1 ARG D   1      -5.264   6.733   0.219  1.00 32.13 LIG-0.23  N 
ATOM     62  NH2 ARG D   1      -6.730   5.681   1.643  1.00 33.53 LIG-0.23  N 
ATOM     63 1HH1 ARG D   1      -5.018   7.435  -0.212  1.00 32.13 LIG 0.17  HD
ATOM     64 2HH1 ARG D   1      -4.804   6.008   0.159  1.00 32.13 LIG 0.17  HD
ATOM     65 1HH2 ARG D   1      -7.435   5.702   2.135  1.00 33.53 LIG 0.17  HD
ATOM     66 2HH2 ARG D   1      -6.269   4.958   1.583  1.00 33.53 LIG 0.17  HD
ATOM     67 HE   ARG D   1      -7.762   7.889   1.560  1.00 30.01 LIG 0.18  HD
ENDBRANCH 58 59
ENDBRANCH 57 58
ENDBRANCH 56 57
ENDBRANCH 51 56
ENDBRANCH 48 51
ENDBRANCH 46 47
BRANCH 46 68
ATOM     68  CB  VAL D   2     -12.867   8.048  -3.544  1.00 15.28 LIG 0.01  C 
ATOM     69  CG2 VAL D   2     -12.817   7.243  -2.260  1.00 14.68 LIG 0.01  C 
ATOM     70  CG1 VAL D   2     -14.099   7.699  -4.380  1.00 13.75 LIG 0.01  C 
ENDBRANCH 46 68
ENDBRANCH 43 46
ENDBRANCH 41 42
BRANCH 41 71
ATOM     71  CB  LEU D   3      -9.935   8.404  -8.686  1.00 15.85 LIG 0.04  C 
BRANCH 71 72
ATOM     72  CG  LEU D   3      -9.372   9.800  -8.971  1.00 19.10 LIG-0.02  C 
ATOM     73  CD2 LEU D   3      -8.582   9.837 -10.270  1.00 16.59 LIG 0.01  C 
ATOM     74  CD1 LEU D   3      -8.508  10.240  -7.790  1.00 21.08 LIG 0.01  C 
ENDBRANCH 71 72
ENDBRANCH 41 71
ENDBRANCH 1 41
TORSDOF 29
ENDMDL
MODEL 4
USER: ADFR SOLUTION from run 123
USER: SCORE 25.643572 LL:  -6.220 LR: -21.805 RR:   0.000 FEB: -13.154
USER: RMSD 13.765749
USER: SEED 122
USER: STATUS no improvement in best in 3 clusters for 5 generations
USER: GENES 31
USER: genes 0 Translation |==|  0.59710 0.57228 0.40286
USER: genes 1 Rotation |==|  0.62687 0.27822 0.07319 0.55047
USER: genes 2 Torsion [C]-N--CA-[CB] |==|  0.87611
USER: genes 3 Torsion [N]-CA--CB-[CG] |==|  0.55420
USER: genes 4 Torsion [CA]-CB--CG-[CD1] |==|  0.77155
USER: genes 5 Torsion [N]-CA--C-[N] |==|  0.35804
USER: genes 6 Torsion [C]-N--CA-[C] |==|  0.62692
USER: genes 7 Torsion [N]-CA--CB-[CG] |==|  0.49683
USER: genes 8 Torsion [CA]-CB--CG-[CD] |==|  0.40516
USER: genes 9 Torsion [CB]-CG--CD-[OE1] |==|  0.03029
USER: genes 10 Torsion [N]-CA--C-[N] |==|  0.93280
USER: genes 11 Torsion [C]-N--CA-[CB] |==|  0.51677
USER: genes 12 Torsion [N]-CA--C-[N] |==|  0.39558
USER: genes 13 Torsion [C]-N--CA-[CB] |==|  0.31154
USER: genes 14 Torsion [N]-CA--C-[OXT] |==|  0.71216
USER: genes 15 Torsion [N]-CA--CB-[CG] |==|  0.84936
USER: genes 16 Torsion [CA]-CB--CG-[SD] |==|  0.30238
USER: genes 17 Torsion [CB]-CG--SD-[CE] |==|  0.50641
USER: genes 18 Torsion [N]-C--CA-[N] |==|  0.78373
USER: genes 19 Torsion [C]-CA--N-[C] |==|  0.19920
USER: genes 20 Torsion [N]-C--CA-[N] |==|  0.88898
USER: genes 21 Torsion [C]-CA--N-[C] |==|  0.65556
USER: genes 22 Torsion [N]-C--CA-[N] |==|  0.49212
USER: genes 23 Torsion [C]-CA--N-[H1] |==|  0.85713
USER: genes 24 Torsion [C]-CA--CB-[CG] |==|  0.69890
USER: genes 25 Torsion [CA]-CB--CG-[CD] |==|  0.34937
USER: genes 26 Torsion [CB]-CG--CD-[NE] |==|  0.73435
USER: genes 27 Torsion [CG]-CD--NE-[CZ] |==|  0.28405
USER: genes 28 Torsion [C]-CA--CB-[CG2] |==|  0.69141
USER: genes 29 Torsion [C]-CA--CB-[CG] |==|  0.20418
USER: genes 30 Torsion [CA]-CB--CG-[CD2] |==|  0.09448
ROOT
ATOM      1  C   LEU D   3     -12.166   9.530  -8.218  1.00 15.92 LIG 0.24  C 
ATOM      2 O    LEU D   3     -12.607  10.643  -8.499  1.00 19.39 LIG-0.27  OA
ATOM      3  N   PHE D   4     -12.829   8.415  -8.497  1.00 13.65 LIG-0.35  N 
ATOM      4 H    PHE D   4     -12.472   7.633  -8.533  1.00 13.65 LIG 0.16  HD
ENDROOT
BRANCH 3 5
ATOM      5  CA  PHE D   4     -14.247   8.450  -8.766  1.00 13.25 LIG 0.18  C 
BRANCH 5 6
ATOM      6  CB  PHE D   4     -14.932   9.353  -7.728  1.00 13.20 LIG 0.07  C 
BRANCH 6 7
ATOM      7  CG  PHE D   4     -16.394   9.120  -7.602  1.00 13.63 LIG-0.06  A 
ATOM      8  CD1 PHE D   4     -17.282   9.707  -8.496  1.00 13.10 LIG 0.01  A 
ATOM      9  CE1 PHE D   4     -18.646   9.468  -8.392  1.00 15.10 LIG 0.00  A 
ATOM     10  CZ  PHE D   4     -19.129   8.620  -7.397  1.00 15.27 LIG 0.00  A 
ATOM     11  CE2 PHE D   4     -18.237   8.009  -6.521  1.00 13.31 LIG 0.00  A 
ATOM     12  CD2 PHE D   4     -16.887   8.277  -6.620  1.00 12.44 LIG 0.01  A 
ENDBRANCH 6 7
ENDBRANCH 5 6
BRANCH 5 13
ATOM     13  C   PHE D   4     -14.431   8.991 -10.183  1.00 14.19 LIG 0.24  C 
ATOM     14 O    PHE D   4     -13.798   9.973 -10.561  1.00 15.09 LIG-0.27  OA
ATOM     15  N   GLU D   5     -15.196   8.290 -11.008  1.00 15.42 LIG-0.35  N 
ATOM     16 H    GLU D   5     -15.542   7.525 -10.820  1.00 15.42 LIG 0.16  HD
BRANCH 15 17
ATOM     17  CA  GLU D   5     -15.508   8.792 -12.335  1.00 15.66 LIG 0.18  C 
BRANCH 17 18
ATOM     18  CB  GLU D   5     -14.668   8.073 -13.402  1.00 15.74 LIG 0.04  C 
BRANCH 18 19
ATOM     19  CG  GLU D   5     -14.942   8.510 -14.826  1.00 13.49 LIG 0.12  C 
BRANCH 19 20
ATOM     20  CD  GLU D   5     -13.696   8.480 -15.693  1.00 17.86 LIG 0.17  C 
ATOM     21 OE1  GLU D   5     -12.673   7.923 -15.236  1.00 19.55 LIG-0.65  OA
ATOM     22 OE2  GLU D   5     -13.750   8.951 -16.855  1.00 19.96 LIG-0.65  OA
ENDBRANCH 19 20
ENDBRANCH 18 19
ENDBRANCH 17 18
BRANCH 17 23
ATOM     23  C   GLU D   5     -16.994   8.607 -12.589  1.00 17.50 LIG 0.24  C 
ATOM     24 O    GLU D   5     -17.577   9.295 -13.428  1.00 17.10 LIG-0.27  OA
ATOM     25  N   ALA D   6     -17.595   7.652 -11.888  1.00 19.03 LIG-0.35  N 
ATOM     26 H    ALA D   6     -17.198   7.161 -11.305  1.00 19.03 LIG 0.16  HD
BRANCH 25 27
ATOM     27  CA  ALA D   6     -19.010   7.360 -12.063  1.00 21.37 LIG 0.17  C 
ATOM     28  CB  ALA D   6     -19.464   6.339 -11.044  1.00 21.30 LIG 0.04  C 
BRANCH 27 29
ATOM     29  C   ALA D   6     -19.811   8.644 -11.920  1.00 24.24 LIG 0.24  C 
ATOM     30 O    ALA D   6     -19.488   9.503 -11.099  1.00 22.56 LIG-0.27  OA
ATOM     31  N   MET D   7     -20.853   8.771 -12.733  1.00 27.55 LIG-0.34  N 
ATOM     32 H    MET D   7     -21.142   8.144 -13.246  1.00 27.55 LIG 0.16  HD
BRANCH 31 33
ATOM     33  CA  MET D   7     -21.606  10.016 -12.820  1.00 30.72 LIG 0.19  C 
BRANCH 33 34
ATOM     34  C   MET D   7     -23.079   9.734 -12.563  1.00 33.25 LIG 0.20  C 
ATOM     35 O    MET D   7     -23.463   9.448 -11.421  1.00 35.29 LIG-0.65  OA
ATOM     36 OXT  MET D   7     -23.896   9.698 -13.494  1.00 35.43 LIG-0.65  OA
ENDBRANCH 33 34
BRANCH 33 37
ATOM     37  CB  MET D   7     -21.394  10.661 -14.195  1.00 30.73 LIG 0.05  C 
BRANCH 37 38
ATOM     38  CG  MET D   7     -19.951  10.891 -14.598  1.00 32.79 LIG 0.08  C 
BRANCH 38 39
ATOM     39 SD   MET D   7     -19.443   9.773 -15.907  1.00 33.89 LIG-0.17  SA
ATOM     40  CE  MET D   7     -17.721  10.217 -16.121  1.00 31.39 LIG 0.09  C 
ENDBRANCH 38 39
ENDBRANCH 37 38
ENDBRANCH 33 37
ENDBRANCH 31 33
ENDBRANCH 27 29
ENDBRANCH 25 27
ENDBRANCH 17 23
ENDBRANCH 15 17
ENDBRANCH 5 13
ENDBRANCH 3 5
BRANCH 1 41
ATOM     41  CA  LEU D   3     -10.839   9.367  -7.479  1.00 16.32 LIG 0.18  C 
BRANCH 41 42
ATOM     42  N   LEU D   3     -11.012   9.114  -6.054  1.00 16.05 LIG-0.35  N 
ATOM     43  C   VAL D   2     -11.473   7.945  -5.612  1.00 15.61 LIG 0.24  C 
ATOM     44 O    VAL D   2     -11.861   7.053  -6.368  1.00 16.79 LIG-0.27  OA
ATOM     45 H    LEU D   3     -10.796   9.772  -5.544  1.00 16.05 LIG 0.16  HD
BRANCH 43 46
ATOM     46  CA  VAL D   2     -11.671   7.820  -4.109  1.00 14.78 LIG 0.18  C 
BRANCH 46 47
ATOM     47  N   VAL D   2     -10.551   8.485  -3.459  1.00 14.77 LIG-0.35  N 
ATOM     48  C   ARG D   1      -9.780   7.847  -2.588  1.00 16.50 LIG 0.25  C 
ATOM     49 O    ARG D   1      -9.924   6.655  -2.304  1.00 16.49 LIG-0.27  OA
ATOM     50 H    VAL D   2     -10.441   9.307  -3.689  1.00 14.77 LIG 0.16  HD
BRANCH 48 51
ATOM     51  CA  ARG D   1      -8.615   8.632  -2.038  1.00 17.64 LIG 0.27  C 
BRANCH 51 52
ATOM     52  N   ARG D   1      -7.907   7.796  -1.035  1.00 17.90 LIG-0.07  N 
ATOM     53 H3   ARG D   1      -7.296   8.289  -0.615  1.00 17.90 LIG 0.28  HD
ATOM     54 H2   ARG D   1      -7.506   7.114  -1.445  1.00 17.90 LIG 0.28  HD
ATOM     55 H1   ARG D   1      -8.492   7.482  -0.443  1.00 17.90 LIG 0.28  HD
ENDBRANCH 51 52
BRANCH 51 56
ATOM     56  CB  ARG D   1      -7.697   8.997  -3.214  1.00 19.06 LIG 0.04  C 
BRANCH 56 57
ATOM     57  CG  ARG D   1      -6.385   8.268  -3.286  1.00 22.89 LIG 0.02  C 
BRANCH 57 58
ATOM     58  CD  ARG D   1      -6.256   7.618  -4.658  1.00 26.83 LIG 0.14  C 
BRANCH 58 59
ATOM     59  NE  ARG D   1      -6.682   6.225  -4.649  1.00 30.01 LIG-0.23  N 
ATOM     60  CZ  ARG D   1      -7.856   5.809  -5.113  1.00 33.71 LIG 0.67  C 
ATOM     61  NH1 ARG D   1      -8.714   6.687  -5.614  1.00 32.13 LIG-0.23  N 
ATOM     62  NH2 ARG D   1      -8.174   4.518  -5.077  1.00 33.53 LIG-0.23  N 
ATOM     63 1HH1 ARG D   1      -8.511   7.521  -5.638  1.00 32.13 LIG 0.17  HD
ATOM     64 2HH1 ARG D   1      -9.475   6.421  -5.915  1.00 32.13 LIG 0.17  HD
ATOM     65 1HH2 ARG D   1      -7.618   3.947  -4.752  1.00 33.53 LIG 0.17  HD
ATOM     66 2HH2 ARG D   1      -8.934   4.254  -5.378  1.00 33.53 LIG 0.17  HD
ATOM     67 HE   ARG D   1      -6.143   5.639  -4.325  1.00 30.01 LIG 0.18  HD
ENDBRANCH 58 59
ENDBRANCH 57 58
ENDBRANCH 56 57
ENDBRANCH 51 56
ENDBRANCH 48 51
ENDBRANCH 46 47
BRANCH 46 68
ATOM     68  CB  VAL D   2     -12.999   8.484  -3.689  1.00 15.28 LIG 0.01  C 
ATOM     69  CG2 VAL D   2     -12.722   9.735  -2.879  1.00 14.68 LIG 0.01  C 
ATOM     70  CG1 VAL D   2     -13.902   7.511  -2.930  1.00 13.75 LIG 0.01  C 
ENDBRANCH 46 68
ENDBRANCH 43 46
ENDBRANCH 41 42
BRANCH 41 71
ATOM     71  CB  LEU D   3      -9.989   8.273  -8.132  1.00 15.85 LIG 0.04  C 
BRANCH 71 72
ATOM     72  CG  LEU D   3      -9.338   8.618  -9.475  1.00 19.10 LIG-0.02  C 
ATOM     73  CD2 LEU D   3      -8.937  10.083  -9.550  1.00 16.59 LIG 0.01  C 
ATOM     74  CD1 LEU D   3     -10.301   8.254 -10.604  1.00 21.08 LIG 0.01  C 
ENDBRANCH 71 72
ENDBRANCH 41 71
ENDBRANCH 1 41
TORSDOF 29
ENDMDL
MODEL 5
USER: ADFR SOLUTION from run 126
USER: SCORE 25.062780 LL:  -6.265 LR: -21.729 RR:   0.000 FEB: -13.078
USER: RMSD 14.366647
USER: SEED 125
USER: STATUS no improvement in best in 8 clusters for 5 generations
USER: GENES 31
USER: genes 0 Translation |==|  0.58335 0.40408 0.39398
USER: genes 1 Rotation |==|  0.39894 0.97366 0.62291 0.51794
USER: genes 2 Torsion [C]-N--CA-[CB] |==|  0.53538
USER: genes 3 Torsion [N]-CA--CB-[CG] |==|  0.32852
USER: genes 4 Torsion [CA]-CB--CG-[CD1] |==|  0.76351
USER: genes 5 Torsion [N]-CA--C-[N] |==|  0.40015
USER: genes 6 Torsion [C]-N--CA-[C] |==|  0.63857
USER: genes 7 Torsion [N]-CA--CB-[CG] |==|  0.46327
USER: genes 8 Torsion [CA]-CB--CG-[CD] |==|  0.67566
USER: genes 9 Torsion [CB]-CG--CD-[OE1] |==|  0.62490
USER: genes 10 Torsion [N]-CA--C-[N] |==|  0.38722
USER: genes 11 Torsion [C]-N--CA-[CB] |==|  0.39981
USER: genes 12 Torsion [N]-CA--C-[N] |==|  0.68667
USER: genes 13 Torsion [C]-N--CA-[CB] |==|  0.18096
USER: genes 14 Torsion [N]-CA--C-[OXT] |==|  0.03420
USER: genes 15 Torsion [N]-CA--CB-[CG] |==|  0.21734
USER: genes 16 Torsion [CA]-CB--CG-[SD] |==|  0.76799
USER: genes 17 Torsion [CB]-CG--SD-[CE] |==|  0.28965
USER: genes 18 Torsion [N]-C--CA-[N] |==|  0.12778
USER: genes 19 Torsion [C]-CA--N-[C] |==|  0.64638
USER: genes 20 Torsion [N]-C--CA-[N] |==|  0.32886
USER: genes 21 Torsion [C]-CA--N-[C] |==|  0.61901
USER: genes 22 Torsion [N]-C--CA-[N] |==|  0.42288
USER: genes 23 Torsion [C]-CA--N-[H1] |==|  0.90959
USER: genes 24 Torsion [C]-CA--CB-[CG] |==|  0.03946
USER: genes 25 Torsion [CA]-CB--CG-[CD] |==|  0.61840
USER: genes 26 Torsion [CB]-CG--CD-[NE] |==|  0.26669
USER: genes 27 Torsion [CG]-CD--NE-[CZ] |==|  0.23730
USER: genes 28 Torsion [C]-CA--CB-[CG2] |==|  0.46904
USER: genes 29 Torsion [C]-CA--CB-[CG] |==|  0.35552
USER: genes 30 Torsion [CA]-CB--CG-[CD2] |==|  0.61299
ROOT
ATOM      1  C   LEU D   3     -12.558   7.385  -8.472  1.00 15.92 LIG 0.24  C 
ATOM      2 O    LEU D   3     -12.269   7.116  -9.637  1.00 19.39 LIG-0.27  OA
ATOM      3  N   PHE D   4     -13.735   7.076  -7.945  1.00 13.65 LIG-0.35  N 
ATOM      4 H    PHE D   4     -13.894   7.033  -7.101  1.00 13.65 LIG 0.16  HD
ENDROOT
BRANCH 3 5
ATOM      5  CA  PHE D   4     -14.866   6.783  -8.792  1.00 13.25 LIG 0.18  C 
BRANCH 5 6
ATOM      6  CB  PHE D   4     -16.144   6.778  -7.938  1.00 13.20 LIG 0.07  C 
BRANCH 6 7
ATOM      7  CG  PHE D   4     -17.138   7.808  -8.338  1.00 13.63 LIG-0.06  A 
ATOM      8  CD1 PHE D   4     -17.046   9.105  -7.848  1.00 13.10 LIG 0.01  A 
ATOM      9  CE1 PHE D   4     -17.960  10.072  -8.243  1.00 15.10 LIG 0.00  A 
ATOM     10  CZ  PHE D   4     -18.966   9.749  -9.151  1.00 15.27 LIG 0.00  A 
ATOM     11  CE2 PHE D   4     -19.040   8.458  -9.664  1.00 13.31 LIG 0.00  A 
ATOM     12  CD2 PHE D   4     -18.140   7.500  -9.242  1.00 12.44 LIG 0.01  A 
ENDBRANCH 6 7
ENDBRANCH 5 6
BRANCH 5 13
ATOM     13  C   PHE D   4     -14.923   7.862  -9.872  1.00 14.19 LIG 0.24  C 
ATOM     14 O    PHE D   4     -14.511   8.995  -9.641  1.00 15.09 LIG-0.27  OA
ATOM     15  N   GLU D   5     -15.313   7.492 -11.084  1.00 15.42 LIG-0.35  N 
ATOM     16 H    GLU D   5     -15.476   6.680 -11.316  1.00 15.42 LIG 0.16  HD
BRANCH 15 17
ATOM     17  CA  GLU D   5     -15.497   8.477 -12.135  1.00 15.66 LIG 0.18  C 
BRANCH 17 18
ATOM     18  CB  GLU D   5     -14.371   8.381 -13.176  1.00 15.74 LIG 0.04  C 
BRANCH 18 19
ATOM     19  CG  GLU D   5     -14.630   9.137 -14.462  1.00 13.49 LIG 0.12  C 
BRANCH 19 20
ATOM     20  CD  GLU D   5     -14.709   8.219 -15.670  1.00 17.86 LIG 0.17  C 
ATOM     21 OE1  GLU D   5     -14.099   8.557 -16.708  1.00 19.55 LIG-0.65  OA
ATOM     22 OE2  GLU D   5     -15.325   7.129 -15.568  1.00 19.96 LIG-0.65  OA
ENDBRANCH 19 20
ENDBRANCH 18 19
ENDBRANCH 17 18
BRANCH 17 23
ATOM     23  C   GLU D   5     -16.857   8.259 -12.775  1.00 17.50 LIG 0.24  C 
ATOM     24 O    GLU D   5     -17.285   7.119 -12.964  1.00 17.10 LIG-0.27  OA
ATOM     25  N   ALA D   6     -17.548   9.353 -13.072  1.00 19.03 LIG-0.35  N 
ATOM     26 H    ALA D   6     -17.264  10.154 -12.939  1.00 19.03 LIG 0.16  HD
BRANCH 25 27
ATOM     27  CA  ALA D   6     -18.876   9.274 -13.662  1.00 21.37 LIG 0.17  C 
ATOM     28  CB  ALA D   6     -19.754  10.384 -13.129  1.00 21.30 LIG 0.04  C 
BRANCH 27 29
ATOM     29  C   ALA D   6     -18.762   9.368 -15.175  1.00 24.24 LIG 0.24  C 
ATOM     30 O    ALA D   6     -18.234   8.467 -15.827  1.00 22.56 LIG-0.27  OA
ATOM     31  N   MET D   7     -19.272  10.463 -15.728  1.00 27.55 LIG-0.34  N 
ATOM     32 H    MET D   7     -19.561  11.137 -15.281  1.00 27.55 LIG 0.16  HD
BRANCH 31 33
ATOM     33  CA  MET D   7     -19.381  10.608 -17.174  1.00 30.72 LIG 0.19  C 
BRANCH 33 34
ATOM     34  C   MET D   7     -19.818  12.027 -17.507  1.00 33.25 LIG 0.20  C 
ATOM     35 O    MET D   7     -20.108  12.327 -18.673  1.00 35.29 LIG-0.65  OA
ATOM     36 OXT  MET D   7     -19.808  12.918 -16.646  1.00 35.43 LIG-0.65  OA
ENDBRANCH 33 34
BRANCH 33 37
ATOM     37  CB  MET D   7     -20.367   9.575 -17.732  1.00 30.73 LIG 0.05  C 
BRANCH 37 38
ATOM     38  CG  MET D   7     -21.835   9.903 -17.551  1.00 32.79 LIG 0.08  C 
BRANCH 38 39
ATOM     39 SD   MET D   7     -22.428   9.418 -15.928  1.00 33.89 LIG-0.17  SA
ATOM     40  CE  MET D   7     -22.526  10.996 -15.086  1.00 31.39 LIG 0.09  C 
ENDBRANCH 38 39
ENDBRANCH 37 38
ENDBRANCH 33 37
ENDBRANCH 31 33
ENDBRANCH 27 29
ENDBRANCH 25 27
ENDBRANCH 17 23
ENDBRANCH 15 17
ENDBRANCH 5 13
ENDBRANCH 3 5
BRANCH 1 41
ATOM     41  CA  LEU D   3     -11.586   8.145  -7.571  1.00 16.32 LIG 0.18  C 
BRANCH 41 42
ATOM     42  N   LEU D   3     -11.493   7.577  -6.231  1.00 16.05 LIG-0.35  N 
ATOM     43  C   VAL D   2     -11.667   8.333  -5.149  1.00 15.61 LIG 0.24  C 
ATOM     44 O    VAL D   2     -11.822   9.554  -5.206  1.00 16.79 LIG-0.27  OA
ATOM     45 H    LEU D   3     -11.321   6.735  -6.210  1.00 16.05 LIG 0.16  HD
BRANCH 43 46
ATOM     46  CA  VAL D   2     -11.485   7.644  -3.806  1.00 14.78 LIG 0.18  C 
BRANCH 46 47
ATOM     47  N   VAL D   2     -10.381   8.301  -3.119  1.00 14.77 LIG-0.35  N 
ATOM     48  C   ARG D   1      -9.459   7.602  -2.469  1.00 16.50 LIG 0.25  C 
ATOM     49 O    ARG D   1      -9.443   6.369  -2.437  1.00 16.49 LIG-0.27  OA
ATOM     50 H    VAL D   2     -10.385   9.159  -3.174  1.00 14.77 LIG 0.16  HD
BRANCH 48 51
ATOM     51  CA  ARG D   1      -8.335   8.401  -1.858  1.00 17.64 LIG 0.27  C 
BRANCH 51 52
ATOM     52  N   ARG D   1      -7.813   7.665  -0.678  1.00 17.90 LIG-0.07  N 
ATOM     53 H3   ARG D   1      -7.465   8.243  -0.097  1.00 17.90 LIG 0.28  HD
ATOM     54 H2   ARG D   1      -7.183   7.093  -0.939  1.00 17.90 LIG 0.28  HD
ATOM     55 H1   ARG D   1      -8.476   7.218  -0.289  1.00 17.90 LIG 0.28  HD
ENDBRANCH 51 52
BRANCH 51 56
ATOM     56  CB  ARG D   1      -7.251   8.584  -2.931  1.00 19.06 LIG 0.04  C 
BRANCH 56 57
ATOM     57  CG  ARG D   1      -7.654   8.267  -4.344  1.00 22.89 LIG 0.02  C 
BRANCH 57 58
ATOM     58  CD  ARG D   1      -6.528   7.488  -5.014  1.00 26.83 LIG 0.14  C 
BRANCH 58 59
ATOM     59  NE  ARG D   1      -6.749   6.049  -4.960  1.00 30.01 LIG-0.23  N 
ATOM     60  CZ  ARG D   1      -7.475   5.379  -5.849  1.00 33.71 LIG 0.67  C 
ATOM     61  NH1 ARG D   1      -8.052   6.028  -6.851  1.00 32.13 LIG-0.23  N 
ATOM     62  NH2 ARG D   1      -7.627   4.063  -5.738  1.00 33.53 LIG-0.23  N 
ATOM     63 1HH1 ARG D   1      -7.955   6.879  -6.924  1.00 32.13 LIG 0.17  HD
ATOM     64 2HH1 ARG D   1      -8.522   5.598  -7.428  1.00 32.13 LIG 0.17  HD
ATOM     65 1HH2 ARG D   1      -7.254   3.640  -5.088  1.00 33.53 LIG 0.17  HD
ATOM     66 2HH2 ARG D   1      -8.097   3.633  -6.316  1.00 33.53 LIG 0.17  HD
ATOM     67 HE   ARG D   1      -6.387   5.608  -4.316  1.00 30.01 LIG 0.18  HD
ENDBRANCH 58 59
ENDBRANCH 57 58
ENDBRANCH 56 57
ENDBRANCH 51 56
ENDBRANCH 48 51
ENDBRANCH 46 47
BRANCH 46 68
ATOM     68  CB  VAL D   2     -12.776   7.760  -2.967  1.00 15.28 LIG 0.01  C 
ATOM     69  CG2 VAL D   2     -12.694   6.850  -1.758  1.00 14.68 LIG 0.01  C 
ATOM     70  CG1 VAL D   2     -14.021   7.471  -3.806  1.00 13.75 LIG 0.01  C 
ENDBRANCH 46 68
ENDBRANCH 43 46
ENDBRANCH 41 42
BRANCH 41 71
ATOM     71  CB  LEU D   3     -10.204   8.237  -8.225  1.00 15.85 LIG 0.04  C 
BRANCH 71 72
ATOM     72  CG  LEU D   3      -9.583   9.633  -8.326  1.00 19.10 LIG-0.02  C 
ATOM     73  CD2 LEU D   3      -8.887   9.848  -9.661  1.00 16.59 LIG 0.01  C 
ATOM     74  CD1 LEU D   3      -8.612   9.833  -7.164  1.00 21.08 LIG 0.01  C 
ENDBRANCH 71 72
ENDBRANCH 41 71
ENDBRANCH 1 41
TORSDOF 29
ENDMDL
MODEL 6
USER: ADFR SOLUTION from run 178
USER: SCORE 25.005896 LL:  -5.226 LR: -21.645 RR:   0.000 FEB: -12.995
USER: RMSD 13.466631
USER: SEED 177
USER: STATUS 1 or 2 clusters left
USER: GENES 31
USER: genes 0 Translation |==|  0.59832 0.55479 0.37145
USER: genes 1 Rotation |==|  0.66942 0.19728 0.14027 0.51594
USER: genes 2 Torsion [C]-N--CA-[CB] |==|  0.27982
USER: genes 3 Torsion [N]-CA--CB-[CG] |==|  0.61813
USER: genes 4 Torsion [CA]-CB--CG-[CD1] |==|  0.75687
USER: genes 5 Torsion [N]-CA--C-[N] |==|  0.39191
USER: genes 6 Torsion [C]-N--CA-[C] |==|  0.64459
USER: genes 7 Torsion [N]-CA--CB-[CG] |==|  0.17568
USER: genes 8 Torsion [CA]-CB--CG-[CD] |==|  0.84362
USER: genes 9 Torsion [CB]-CG--CD-[OE1] |==|  0.37242
USER: genes 10 Torsion [N]-CA--C-[N] |==|  0.04143
USER: genes 11 Torsion [C]-N--CA-[CB] |==|  0.87525
USER: genes 12 Torsion [N]-CA--C-[N] |==|  0.39244
USER: genes 13 Torsion [C]-N--CA-[CB] |==|  0.31365
USER: genes 14 Torsion [N]-CA--C-[OXT] |==|  0.28095
USER: genes 15 Torsion [N]-CA--CB-[CG] |==|  0.62755
USER: genes 16 Torsion [CA]-CB--CG-[SD] |==|  0.67007
USER: genes 17 Torsion [CB]-CG--SD-[CE] |==|  0.87749
USER: genes 18 Torsion [N]-C--CA-[N] |==|  0.92730
USER: genes 19 Torsion [C]-CA--N-[C] |==|  0.75583
USER: genes 20 Torsion [N]-C--CA-[N] |==|  0.29480
USER: genes 21 Torsion [C]-CA--N-[C] |==|  0.71884
USER: genes 22 Torsion [N]-C--CA-[N] |==|  0.30244
USER: genes 23 Torsion [C]-CA--N-[H1] |==|  0.13361
USER: genes 24 Torsion [C]-CA--CB-[CG] |==|  0.40814
USER: genes 25 Torsion [CA]-CB--CG-[CD] |==|  0.37090
USER: genes 26 Torsion [CB]-CG--CD-[NE] |==|  0.89384
USER: genes 27 Torsion [CG]-CD--NE-[CZ] |==|  0.82887
USER: genes 28 Torsion [C]-CA--CB-[CG2] |==|  0.52521
USER: genes 29 Torsion [C]-CA--CB-[CG] |==|  0.96782
USER: genes 30 Torsion [CA]-CB--CG-[CD2] |==|  0.68340
ROOT
ATOM      1  C   LEU D   3     -12.131   9.307  -9.114  1.00 15.92 LIG 0.24  C 
ATOM      2 O    LEU D   3     -12.306  10.270  -9.858  1.00 19.39 LIG-0.27  OA
ATOM      3  N   PHE D   4     -12.846   8.194  -9.217  1.00 13.65 LIG-0.35  N 
ATOM      4 H    PHE D   4     -12.613   7.434  -8.888  1.00 13.65 LIG 0.16  HD
ENDROOT
BRANCH 3 5
ATOM      5  CA  PHE D   4     -14.109   8.192  -9.916  1.00 13.25 LIG 0.18  C 
BRANCH 5 6
ATOM      6  CB  PHE D   4     -13.903   7.608 -11.322  1.00 13.20 LIG 0.07  C 
BRANCH 6 7
ATOM      7  CG  PHE D   4     -14.618   8.351 -12.392  1.00 13.63 LIG-0.06  A 
ATOM      8  CD1 PHE D   4     -15.933   8.035 -12.713  1.00 13.10 LIG 0.01  A 
ATOM      9  CE1 PHE D   4     -16.608   8.747 -13.695  1.00 15.10 LIG 0.00  A 
ATOM     10  CZ  PHE D   4     -15.972   9.799 -14.352  1.00 15.27 LIG 0.00  A 
ATOM     11  CE2 PHE D   4     -14.666  10.135 -14.009  1.00 13.31 LIG 0.00  A 
ATOM     12  CD2 PHE D   4     -13.999   9.401 -13.050  1.00 12.44 LIG 0.01  A 
ENDBRANCH 6 7
ENDBRANCH 5 6
BRANCH 5 13
ATOM     13  C   PHE D   4     -15.083   7.345  -9.099  1.00 14.19 LIG 0.24  C 
ATOM     14 O    PHE D   4     -14.681   6.380  -8.456  1.00 15.09 LIG-0.27  OA
ATOM     15  N   GLU D   5     -16.337   7.768  -9.016  1.00 15.42 LIG-0.35  N 
ATOM     16 H    GLU D   5     -16.622   8.513  -9.338  1.00 15.42 LIG 0.16  HD
BRANCH 15 17
ATOM     17  CA  GLU D   5     -17.347   6.964  -8.350  1.00 15.66 LIG 0.18  C 
BRANCH 17 18
ATOM     18  CB  GLU D   5     -17.773   7.612  -7.024  1.00 15.74 LIG 0.04  C 
BRANCH 18 19
ATOM     19  CG  GLU D   5     -18.435   8.966  -7.162  1.00 13.49 LIG 0.12  C 
BRANCH 19 20
ATOM     20  CD  GLU D   5     -17.565   9.965  -7.907  1.00 17.86 LIG 0.17  C 
ATOM     21 OE1  GLU D   5     -18.099  10.657  -8.802  1.00 19.55 LIG-0.65  OA
ATOM     22 OE2  GLU D   5     -16.367  10.108  -7.560  1.00 19.96 LIG-0.65  OA
ENDBRANCH 19 20
ENDBRANCH 18 19
ENDBRANCH 17 18
BRANCH 17 23
ATOM     23  C   GLU D   5     -18.532   6.798  -9.286  1.00 17.50 LIG 0.24  C 
ATOM     24 O    GLU D   5     -19.624   6.426  -8.854  1.00 17.10 LIG-0.27  OA
ATOM     25  N   ALA D   6     -18.322   7.108 -10.560  1.00 19.03 LIG-0.35  N 
ATOM     26 H    ALA D   6     -17.567   7.375 -10.872  1.00 19.03 LIG 0.16  HD
BRANCH 25 27
ATOM     27  CA  ALA D   6     -19.387   7.018 -11.547  1.00 21.37 LIG 0.17  C 
ATOM     28  CB  ALA D   6     -20.149   5.722 -11.379  1.00 21.30 LIG 0.04  C 
BRANCH 27 29
ATOM     29  C   ALA D   6     -20.322   8.206 -11.391  1.00 24.24 LIG 0.24  C 
ATOM     30 O    ALA D   6     -20.610   8.643 -10.277  1.00 22.56 LIG-0.27  OA
ATOM     31  N   MET D   7     -20.785   8.732 -12.519  1.00 27.55 LIG-0.34  N 
ATOM     32 H    MET D   7     -20.665   8.384 -13.296  1.00 27.55 LIG 0.16  HD
BRANCH 31 33
ATOM     33  CA  MET D   7     -21.553   9.971 -12.526  1.00 30.72 LIG 0.19  C 
BRANCH 33 34
ATOM     34  C   MET D   7     -22.888   9.733 -13.215  1.00 33.25 LIG 0.20  C 
ATOM     35 O    MET D   7     -22.966   9.787 -14.450  1.00 35.29 LIG-0.65  OA
ATOM     36 OXT  MET D   7     -23.927   9.570 -12.559  1.00 35.43 LIG-0.65  OA
ENDBRANCH 33 34
BRANCH 33 37
ATOM     37  CB  MET D   7     -20.755  11.078 -13.223  1.00 30.73 LIG 0.05  C 
BRANCH 37 38
ATOM     38  CG  MET D   7     -20.725  12.416 -12.511  1.00 32.79 LIG 0.08  C 
BRANCH 38 39
ATOM     39 SD   MET D   7     -21.458  13.714 -13.509  1.00 33.89 LIG-0.17  SA
ATOM     40  CE  MET D   7     -20.747  13.384 -15.120  1.00 31.39 LIG 0.09  C 
ENDBRANCH 38 39
ENDBRANCH 37 38
ENDBRANCH 33 37
ENDBRANCH 31 33
ENDBRANCH 27 29
ENDBRANCH 25 27
ENDBRANCH 17 23
ENDBRANCH 15 17
ENDBRANCH 5 13
ENDBRANCH 3 5
BRANCH 1 41
ATOM     41  CA  LEU D   3     -11.106   9.356  -7.983  1.00 16.32 LIG 0.18  C 
BRANCH 41 42
ATOM     42  N   LEU D   3     -11.458   8.494  -6.861  1.00 16.05 LIG-0.35  N 
ATOM     43  C   VAL D   2     -12.231   8.932  -5.870  1.00 15.61 LIG 0.24  C 
ATOM     44 O    VAL D   2     -12.616  10.100  -5.792  1.00 16.79 LIG-0.27  OA
ATOM     45 H    LEU D   3     -11.127   7.700  -6.901  1.00 16.05 LIG 0.16  HD
BRANCH 43 46
ATOM     46  CA  VAL D   2     -12.478   7.963  -4.724  1.00 14.78 LIG 0.18  C 
BRANCH 46 47
ATOM     47  N   VAL D   2     -11.693   8.418  -3.585  1.00 14.77 LIG-0.35  N 
ATOM     48  C   ARG D   1     -10.541   7.842  -3.267  1.00 16.50 LIG 0.25  C 
ATOM     49 O    ARG D   1     -10.037   6.927  -3.926  1.00 16.49 LIG-0.27  OA
ATOM     50 H    VAL D   2     -12.038   9.076  -3.152  1.00 14.77 LIG 0.16  HD
BRANCH 48 51
ATOM     51  CA  ARG D   1      -9.796   8.451  -2.105  1.00 17.64 LIG 0.27  C 
BRANCH 51 52
ATOM     52  N   ARG D   1      -9.868   7.520  -0.950  1.00 17.90 LIG-0.07  N 
ATOM     53 H3   ARG D   1     -10.694   7.522  -0.618  1.00 17.90 LIG 0.28  HD
ATOM     54 H2   ARG D   1      -9.295   7.782  -0.321  1.00 17.90 LIG 0.28  HD
ATOM     55 H1   ARG D   1      -9.659   6.698  -1.217  1.00 17.90 LIG 0.28  HD
ENDBRANCH 51 52
BRANCH 51 56
ATOM     56  CB  ARG D   1      -8.344   8.685  -2.549  1.00 19.06 LIG 0.04  C 
BRANCH 56 57
ATOM     57  CG  ARG D   1      -7.653   9.883  -1.960  1.00 22.89 LIG 0.02  C 
BRANCH 57 58
ATOM     58  CD  ARG D   1      -6.267   9.466  -1.483  1.00 26.83 LIG 0.14  C 
BRANCH 58 59
ATOM     59  NE  ARG D   1      -6.269   8.137  -0.885  1.00 30.01 LIG-0.23  N 
ATOM     60  CZ  ARG D   1      -6.968   7.815   0.198  1.00 33.71 LIG 0.67  C 
ATOM     61  NH1 ARG D   1      -7.713   8.734   0.798  1.00 32.13 LIG-0.23  N 
ATOM     62  NH2 ARG D   1      -6.925   6.578   0.683  1.00 33.53 LIG-0.23  N 
ATOM     63 1HH1 ARG D   1      -7.742   9.534   0.486  1.00 32.13 LIG 0.17  HD
ATOM     64 2HH1 ARG D   1      -8.167   8.529   1.499  1.00 32.13 LIG 0.17  HD
ATOM     65 1HH2 ARG D   1      -6.442   5.981   0.295  1.00 33.53 LIG 0.17  HD
ATOM     66 2HH2 ARG D   1      -7.379   6.374   1.384  1.00 33.53 LIG 0.17  HD
ATOM     67 HE   ARG D   1      -5.790   7.526  -1.255  1.00 30.01 LIG 0.18  HD
ENDBRANCH 58 59
ENDBRANCH 57 58
ENDBRANCH 56 57
ENDBRANCH 51 56
ENDBRANCH 48 51
ENDBRANCH 46 47
BRANCH 46 68
ATOM     68  CB  VAL D   2     -13.978   7.940  -4.359  1.00 15.28 LIG 0.01  C 
ATOM     69  CG2 VAL D   2     -14.190   7.152  -3.082  1.00 14.68 LIG 0.01  C 
ATOM     70  CG1 VAL D   2     -14.829   7.395  -5.507  1.00 13.75 LIG 0.01  C 
ENDBRANCH 46 68
ENDBRANCH 43 46
ENDBRANCH 41 42
BRANCH 41 71
ATOM     71  CB  LEU D   3      -9.705   9.029  -8.510  1.00 15.85 LIG 0.04  C 
BRANCH 71 72
ATOM     72  CG  LEU D   3      -9.621   8.460  -9.930  1.00 19.10 LIG-0.02  C 
ATOM     73  CD2 LEU D   3      -9.121   7.024  -9.936  1.00 16.59 LIG 0.01  C 
ATOM     74  CD1 LEU D   3      -8.719   9.359 -10.774  1.00 21.08 LIG 0.01  C 
ENDBRANCH 71 72
ENDBRANCH 41 71
ENDBRANCH 1 41
TORSDOF 29
ENDMDL
MODEL 7
USER: ADFR SOLUTION from run 191
USER: SCORE 24.340530 LL:  -6.483 LR: -21.603 RR:   0.000 FEB: -12.952
USER: RMSD 13.735500
USER: SEED 190
USER: STATUS 1 or 2 clusters left
USER: GENES 31
USER: genes 0 Translation |==|  0.50587 0.49484 0.41246
USER: genes 1 Rotation |==|  0.16224 0.58102 0.81620 0.67138
USER: genes 2 Torsion [C]-N--CA-[CB] |==|  0.30000
USER: genes 3 Torsion [N]-CA--CB-[CG] |==|  0.97113
USER: genes 4 Torsion [CA]-CB--CG-[CD1] |==|  0.79030
USER: genes 5 Torsion [N]-CA--C-[N] |==|  0.27239
USER: genes 6 Torsion [C]-N--CA-[C] |==|  0.77327
USER: genes 7 Torsion [N]-CA--CB-[CG] |==|  0.19773
USER: genes 8 Torsion [CA]-CB--CG-[CD] |==|  0.55752
USER: genes 9 Torsion [CB]-CG--CD-[OE1] |==|  0.83614
USER: genes 10 Torsion [N]-CA--C-[N] |==|  0.94548
USER: genes 11 Torsion [C]-N--CA-[CB] |==|  0.84809
USER: genes 12 Torsion [N]-CA--C-[N] |==|  0.69071
USER: genes 13 Torsion [C]-N--CA-[CB] |==|  0.83694
USER: genes 14 Torsion [N]-CA--C-[OXT] |==|  0.86436
USER: genes 15 Torsion [N]-CA--CB-[CG] |==|  0.55533
USER: genes 16 Torsion [CA]-CB--CG-[SD] |==|  0.27095
USER: genes 17 Torsion [CB]-CG--SD-[CE] |==|  0.83828
USER: genes 18 Torsion [N]-C--CA-[N] |==|  0.33815
USER: genes 19 Torsion [C]-CA--N-[C] |==|  0.79193
USER: genes 20 Torsion [N]-C--CA-[N] |==|  0.52891
USER: genes 21 Torsion [C]-CA--N-[C] |==|  0.55106
USER: genes 22 Torsion [N]-C--CA-[N] |==|  0.78995
USER: genes 23 Torsion [C]-CA--N-[H1] |==|  0.65787
USER: genes 24 Torsion [C]-CA--CB-[CG] |==|  0.21003
USER: genes 25 Torsion [CA]-CB--CG-[CD] |==|  0.05197
USER: genes 26 Torsion [CB]-CG--CD-[NE] |==|  0.72752
USER: genes 27 Torsion [CG]-CD--NE-[CZ] |==|  0.41550
USER: genes 28 Torsion [C]-CA--CB-[CG2] |==|  0.24340
USER: genes 29 Torsion [C]-CA--CB-[CG] |==|  0.11266
USER: genes 30 Torsion [CA]-CB--CG-[CD2] |==|  0.59861
ROOT
ATOM      1  C   LEU D   3     -14.766   8.542  -7.945  1.00 15.92 LIG 0.24  C 
ATOM      2 O    LEU D   3     -14.859   9.748  -7.721  1.00 19.39 LIG-0.27  OA
ATOM      3  N   PHE D   4     -14.479   8.066  -9.149  1.00 13.65 LIG-0.35  N 
ATOM      4 H    PHE D   4     -14.182   7.273  -9.301  1.00 13.65 LIG 0.16  HD
ENDROOT
BRANCH 3 5
ATOM      5  CA  PHE D   4     -14.656   8.884 -10.326  1.00 13.25 LIG 0.18  C 
BRANCH 5 6
ATOM      6  CB  PHE D   4     -13.276   9.292 -10.865  1.00 13.20 LIG 0.07  C 
BRANCH 6 7
ATOM      7  CG  PHE D   4     -12.154   8.973  -9.945  1.00 13.63 LIG-0.06  A 
ATOM      8  CD1 PHE D   4     -11.928   9.748  -8.813  1.00 13.10 LIG 0.01  A 
ATOM      9  CE1 PHE D   4     -10.895   9.434  -7.941  1.00 15.10 LIG 0.00  A 
ATOM     10  CZ  PHE D   4     -10.088   8.325  -8.189  1.00 15.27 LIG 0.00  A 
ATOM     11  CE2 PHE D   4     -10.333   7.533  -9.306  1.00 13.31 LIG 0.00  A 
ATOM     12  CD2 PHE D   4     -11.347   7.872 -10.178  1.00 12.44 LIG 0.01  A 
ENDBRANCH 6 7
ENDBRANCH 5 6
BRANCH 5 13
ATOM     13  C   PHE D   4     -15.430   8.053 -11.348  1.00 14.19 LIG 0.24  C 
ATOM     14 O    PHE D   4     -14.869   7.162 -11.978  1.00 15.09 LIG-0.27  OA
ATOM     15  N   GLU D   5     -16.739   8.252 -11.430  1.00 15.42 LIG-0.35  N 
ATOM     16 H    GLU D   5     -17.186   8.769 -10.907  1.00 15.42 LIG 0.16  HD
BRANCH 15 17
ATOM     17  CA  GLU D   5     -17.527   7.582 -12.449  1.00 15.66 LIG 0.18  C 
BRANCH 17 18
ATOM     18  CB  GLU D   5     -18.997   7.467 -12.015  1.00 15.74 LIG 0.04  C 
BRANCH 18 19
ATOM     19  CG  GLU D   5     -19.762   8.773 -12.013  1.00 13.49 LIG 0.12  C 
BRANCH 19 20
ATOM     20  CD  GLU D   5     -20.999   8.721 -11.133  1.00 17.86 LIG 0.17  C 
ATOM     21 OE1  GLU D   5     -21.871   7.863 -11.393  1.00 19.55 LIG-0.65  OA
ATOM     22 OE2  GLU D   5     -21.075   9.490 -10.143  1.00 19.96 LIG-0.65  OA
ENDBRANCH 19 20
ENDBRANCH 18 19
ENDBRANCH 17 18
BRANCH 17 23
ATOM     23  C   GLU D   5     -17.397   8.353 -13.751  1.00 17.50 LIG 0.24  C 
ATOM     24 O    GLU D   5     -17.693   7.826 -14.824  1.00 17.10 LIG-0.27  OA
ATOM     25  N   ALA D   6     -16.989   9.613 -13.649  1.00 19.03 LIG-0.35  N 
ATOM     26 H    ALA D   6     -16.786   9.995 -12.906  1.00 19.03 LIG 0.16  HD
BRANCH 25 27
ATOM     27  CA  ALA D   6     -16.853  10.463 -14.822  1.00 21.37 LIG 0.17  C 
ATOM     28  CB  ALA D   6     -15.954   9.805 -15.845  1.00 21.30 LIG 0.04  C 
BRANCH 27 29
ATOM     29  C   ALA D   6     -18.227  10.727 -15.416  1.00 24.24 LIG 0.24  C 
ATOM     30 O    ALA D   6     -19.048  11.428 -14.823  1.00 22.56 LIG-0.27  OA
ATOM     31  N   MET D   7     -18.467  10.168 -16.596  1.00 27.55 LIG-0.34  N 
ATOM     32 H    MET D   7     -17.940   9.606 -16.978  1.00 27.55 LIG 0.16  HD
BRANCH 31 33
ATOM     33  CA  MET D   7     -19.674  10.472 -17.354  1.00 30.72 LIG 0.19  C 
BRANCH 33 34
ATOM     34  C   MET D   7     -19.669  11.942 -17.744  1.00 33.25 LIG 0.20  C 
ATOM     35 O    MET D   7     -19.815  12.269 -18.929  1.00 35.29 LIG-0.65  OA
ATOM     36 OXT  MET D   7     -19.433  12.825 -16.907  1.00 35.43 LIG-0.65  OA
ENDBRANCH 33 34
BRANCH 33 37
ATOM     37  CB  MET D   7     -20.915  10.119 -16.527  1.00 30.73 LIG 0.05  C 
BRANCH 37 38
ATOM     38  CG  MET D   7     -22.198   9.929 -17.312  1.00 32.79 LIG 0.08  C 
BRANCH 38 39
ATOM     39 SD   MET D   7     -22.523   8.196 -17.642  1.00 33.89 LIG-0.17  SA
ATOM     40  CE  MET D   7     -21.049   7.709 -18.536  1.00 31.39 LIG 0.09  C 
ENDBRANCH 38 39
ENDBRANCH 37 38
ENDBRANCH 33 37
ENDBRANCH 31 33
ENDBRANCH 27 29
ENDBRANCH 25 27
ENDBRANCH 17 23
ENDBRANCH 15 17
ENDBRANCH 5 13
ENDBRANCH 3 5
BRANCH 1 41
ATOM     41  CA  LEU D   3     -15.028   7.512  -6.849  1.00 16.32 LIG 0.18  C 
BRANCH 41 42
ATOM     42  N   LEU D   3     -14.124   7.649  -5.713  1.00 16.05 LIG-0.35  N 
ATOM     43  C   VAL D   2     -12.856   7.252  -5.790  1.00 15.61 LIG 0.24  C 
ATOM     44 O    VAL D   2     -12.398   6.671  -6.775  1.00 16.79 LIG-0.27  OA
ATOM     45 H    LEU D   3     -14.479   7.999  -5.013  1.00 16.05 LIG 0.16  HD
BRANCH 43 46
ATOM     46  CA  VAL D   2     -12.026   7.388  -4.523  1.00 14.78 LIG 0.18  C 
BRANCH 46 47
ATOM     47  N   VAL D   2     -10.635   7.143  -4.878  1.00 14.77 LIG-0.35  N 
ATOM     48  C   ARG D   1      -9.731   6.837  -3.957  1.00 16.50 LIG 0.25  C 
ATOM     49 O    ARG D   1     -10.005   6.695  -2.761  1.00 16.49 LIG-0.27  OA
ATOM     50 H    VAL D   2     -10.463   7.214  -5.718  1.00 14.77 LIG 0.16  HD
BRANCH 48 51
ATOM     51  CA  ARG D   1      -8.342   6.544  -4.466  1.00 17.64 LIG 0.27  C 
BRANCH 51 52
ATOM     52  N   ARG D   1      -8.333   5.189  -5.076  1.00 17.90 LIG-0.07  N 
ATOM     53 H3   ARG D   1      -8.144   5.255  -5.943  1.00 17.90 LIG 0.28  HD
ATOM     54 H2   ARG D   1      -9.133   4.812  -4.975  1.00 17.90 LIG 0.28  HD
ATOM     55 H1   ARG D   1      -7.717   4.687  -4.676  1.00 17.90 LIG 0.28  HD
ENDBRANCH 51 52
BRANCH 51 56
ATOM     56  CB  ARG D   1      -7.980   7.625  -5.495  1.00 19.06 LIG 0.04  C 
BRANCH 56 57
ATOM     57  CG  ARG D   1      -7.617   8.975  -4.941  1.00 22.89 LIG 0.02  C 
BRANCH 57 58
ATOM     58  CD  ARG D   1      -7.250   8.823  -3.471  1.00 26.83 LIG 0.14  C 
BRANCH 58 59
ATOM     59  NE  ARG D   1      -8.361   9.159  -2.590  1.00 30.01 LIG-0.23  N 
ATOM     60  CZ  ARG D   1      -8.552   8.604  -1.397  1.00 33.71 LIG 0.67  C 
ATOM     61  NH1 ARG D   1      -7.704   7.684  -0.956  1.00 32.13 LIG-0.23  N 
ATOM     62  NH2 ARG D   1      -9.586   8.966  -0.645  1.00 33.53 LIG-0.23  N 
ATOM     63 1HH1 ARG D   1      -7.034   7.449  -1.441  1.00 32.13 LIG 0.17  HD
ATOM     64 2HH1 ARG D   1      -7.824   7.323  -0.184  1.00 32.13 LIG 0.17  HD
ATOM     65 1HH2 ARG D   1     -10.137   9.562  -0.929  1.00 33.53 LIG 0.17  HD
ATOM     66 2HH2 ARG D   1      -9.705   8.605   0.127  1.00 33.53 LIG 0.17  HD
ATOM     67 HE   ARG D   1      -8.926   9.750  -2.857  1.00 30.01 LIG 0.18  HD
ENDBRANCH 58 59
ENDBRANCH 57 58
ENDBRANCH 56 57
ENDBRANCH 51 56
ENDBRANCH 48 51
ENDBRANCH 46 47
BRANCH 46 68
ATOM     68  CB  VAL D   2     -12.182   8.805  -3.932  1.00 15.28 LIG 0.01  C 
ATOM     69  CG2 VAL D   2     -13.379   8.854  -3.004  1.00 14.68 LIG 0.01  C 
ATOM     70  CG1 VAL D   2     -12.276   9.867  -5.029  1.00 13.75 LIG 0.01  C 
ENDBRANCH 46 68
ENDBRANCH 43 46
ENDBRANCH 41 42
BRANCH 41 71
ATOM     71  CB  LEU D   3     -16.491   7.566  -6.397  1.00 15.85 LIG 0.04  C 
BRANCH 71 72
ATOM     72  CG  LEU D   3     -17.543   7.752  -7.494  1.00 19.10 LIG-0.02  C 
ATOM     73  CD2 LEU D   3     -18.707   8.610  -7.024  1.00 16.59 LIG 0.01  C 
ATOM     74  CD1 LEU D   3     -18.027   6.379  -7.960  1.00 21.08 LIG 0.01  C 
ENDBRANCH 71 72
ENDBRANCH 41 71
ENDBRANCH 1 41
TORSDOF 29
ENDMDL
MODEL 8
USER: ADFR SOLUTION from run 67
USER: SCORE 24.280859 LL:  -6.046 LR: -21.455 RR:   0.000 FEB: -12.804
USER: RMSD 13.090512
USER: SEED 66
USER: STATUS no improvement in best in 10 clusters for 5 generations
USER: GENES 31
USER: genes 0 Translation |==|  0.62901 0.45063 0.44962
USER: genes 1 Rotation |==|  0.75145 0.82473 0.42618 0.77545
USER: genes 2 Torsion [C]-N--CA-[CB] |==|  0.80556
USER: genes 3 Torsion [N]-CA--CB-[CG] |==|  0.81878
USER: genes 4 Torsion [CA]-CB--CG-[CD1] |==|  0.05687
USER: genes 5 Torsion [N]-CA--C-[N] |==|  0.13334
USER: genes 6 Torsion [C]-N--CA-[C] |==|  0.75279
USER: genes 7 Torsion [N]-CA--CB-[CG] |==|  0.99591
USER: genes 8 Torsion [CA]-CB--CG-[CD] |==|  0.20167
USER: genes 9 Torsion [CB]-CG--CD-[OE1] |==|  0.74807
USER: genes 10 Torsion [N]-CA--C-[N] |==|  0.49181
USER: genes 11 Torsion [C]-N--CA-[CB] |==|  0.27714
USER: genes 12 Torsion [N]-CA--C-[N] |==|  0.34768
USER: genes 13 Torsion [C]-N--CA-[CB] |==|  0.18775
USER: genes 14 Torsion [N]-CA--C-[OXT] |==|  0.11285
USER: genes 15 Torsion [N]-CA--CB-[CG] |==|  0.15754
USER: genes 16 Torsion [CA]-CB--CG-[SD] |==|  0.72516
USER: genes 17 Torsion [CB]-CG--SD-[CE] |==|  0.70395
USER: genes 18 Torsion [N]-C--CA-[N] |==|  0.84017
USER: genes 19 Torsion [C]-CA--N-[C] |==|  0.68279
USER: genes 20 Torsion [N]-C--CA-[N] |==|  0.34110
USER: genes 21 Torsion [C]-CA--N-[C] |==|  0.69322
USER: genes 22 Torsion [N]-C--CA-[N] |==|  0.07852
USER: genes 23 Torsion [C]-CA--N-[H1] |==|  0.65006
USER: genes 24 Torsion [C]-CA--CB-[CG] |==|  0.39605
USER: genes 25 Torsion [CA]-CB--CG-[CD] |==|  0.23227
USER: genes 26 Torsion [CB]-CG--CD-[NE] |==|  0.71578
USER: genes 27 Torsion [CG]-CD--NE-[CZ] |==|  0.68620
USER: genes 28 Torsion [C]-CA--CB-[CG2] |==|  0.42356
USER: genes 29 Torsion [C]-CA--CB-[CG] |==|  0.46983
USER: genes 30 Torsion [CA]-CB--CG-[CD2] |==|  0.59509
ROOT
ATOM      1  C   LEU D   3     -11.256   7.979  -6.886  1.00 15.92 LIG 0.24  C 
ATOM      2 O    LEU D   3     -11.451   6.948  -7.530  1.00 19.39 LIG-0.27  OA
ATOM      3  N   PHE D   4     -11.079   9.156  -7.471  1.00 13.65 LIG-0.35  N 
ATOM      4 H    PHE D   4     -11.171   9.914  -7.076  1.00 13.65 LIG 0.16  HD
ENDROOT
BRANCH 3 5
ATOM      5  CA  PHE D   4     -10.706   9.237  -8.863  1.00 13.25 LIG 0.18  C 
BRANCH 5 6
ATOM      6  CB  PHE D   4      -9.258   8.746  -9.023  1.00 13.20 LIG 0.07  C 
BRANCH 6 7
ATOM      7  CG  PHE D   4      -8.253   9.608  -8.348  1.00 13.63 LIG-0.06  A 
ATOM      8  CD1 PHE D   4      -8.635  10.469  -7.325  1.00 13.10 LIG 0.01  A 
ATOM      9  CE1 PHE D   4      -7.691  11.254  -6.679  1.00 15.10 LIG 0.00  A 
ATOM     10  CZ  PHE D   4      -6.348  11.169  -7.042  1.00 15.27 LIG 0.00  A 
ATOM     11  CE2 PHE D   4      -5.962  10.286  -8.046  1.00 13.31 LIG 0.00  A 
ATOM     12  CD2 PHE D   4      -6.916   9.530  -8.698  1.00 12.44 LIG 0.01  A 
ENDBRANCH 6 7
ENDBRANCH 5 6
BRANCH 5 13
ATOM     13  C   PHE D   4     -11.680   8.363  -9.651  1.00 14.19 LIG 0.24  C 
ATOM     14 O    PHE D   4     -11.263   7.483 -10.397  1.00 15.09 LIG-0.27  OA
ATOM     15  N   GLU D   5     -12.973   8.513  -9.399  1.00 15.42 LIG-0.35  N 
ATOM     16 H    GLU D   5     -13.294   9.021  -8.782  1.00 15.42 LIG 0.16  HD
BRANCH 15 17
ATOM     17  CA  GLU D   5     -13.968   7.799 -10.180  1.00 15.66 LIG 0.18  C 
BRANCH 17 18
ATOM     18  CB  GLU D   5     -15.204   7.476  -9.327  1.00 15.74 LIG 0.04  C 
BRANCH 18 19
ATOM     19  CG  GLU D   5     -15.115   7.925  -7.884  1.00 13.49 LIG 0.12  C 
BRANCH 19 20
ATOM     20  CD  GLU D   5     -15.235   9.432  -7.736  1.00 17.86 LIG 0.17  C 
ATOM     21 OE1  GLU D   5     -14.186  10.112  -7.763  1.00 19.55 LIG-0.65  OA
ATOM     22 OE2  GLU D   5     -16.377   9.947  -7.657  1.00 19.96 LIG-0.65  OA
ENDBRANCH 19 20
ENDBRANCH 18 19
ENDBRANCH 17 18
BRANCH 17 23
ATOM     23  C   GLU D   5     -14.338   8.644 -11.387  1.00 17.50 LIG 0.24  C 
ATOM     24 O    GLU D   5     -13.828   9.752 -11.556  1.00 17.10 LIG-0.27  OA
ATOM     25  N   ALA D   6     -15.198   8.102 -12.242  1.00 19.03 LIG-0.35  N 
ATOM     26 H    ALA D   6     -15.556   7.327 -12.139  1.00 19.03 LIG 0.16  HD
BRANCH 25 27
ATOM     27  CA  ALA D   6     -15.607   8.802 -13.450  1.00 21.37 LIG 0.17  C 
ATOM     28  CB  ALA D   6     -14.835   8.284 -14.643  1.00 21.30 LIG 0.04  C 
BRANCH 27 29
ATOM     29  C   ALA D   6     -17.101   8.610 -13.662  1.00 24.24 LIG 0.24  C 
ATOM     30 O    ALA D   6     -17.595   7.483 -13.700  1.00 22.56 LIG-0.27  OA
ATOM     31  N   MET D   7     -17.816   9.721 -13.789  1.00 27.55 LIG-0.34  N 
ATOM     32 H    MET D   7     -17.475  10.508 -13.854  1.00 27.55 LIG 0.16  HD
BRANCH 31 33
ATOM     33  CA  MET D   7     -19.273   9.692 -13.830  1.00 30.72 LIG 0.19  C 
BRANCH 33 34
ATOM     34  C   MET D   7     -19.794  11.064 -14.230  1.00 33.25 LIG 0.20  C 
ATOM     35 O    MET D   7     -20.842  11.497 -13.733  1.00 35.29 LIG-0.65  OA
ATOM     36 OXT  MET D   7     -19.234  11.728 -15.115  1.00 35.43 LIG-0.65  OA
ENDBRANCH 33 34
BRANCH 33 37
ATOM     37  CB  MET D   7     -19.826   9.261 -12.467  1.00 30.73 LIG 0.05  C 
BRANCH 37 38
ATOM     38  CG  MET D   7     -19.397  10.107 -11.285  1.00 32.79 LIG 0.08  C 
BRANCH 38 39
ATOM     39 SD   MET D   7     -18.040   9.350 -10.387  1.00 33.89 LIG-0.17  SA
ATOM     40  CE  MET D   7     -18.859   8.769  -8.904  1.00 31.39 LIG 0.09  C 
ENDBRANCH 38 39
ENDBRANCH 37 38
ENDBRANCH 33 37
ENDBRANCH 31 33
ENDBRANCH 27 29
ENDBRANCH 25 27
ENDBRANCH 17 23
ENDBRANCH 15 17
ENDBRANCH 5 13
ENDBRANCH 3 5
BRANCH 1 41
ATOM     41  CA  LEU D   3     -11.154   7.952  -5.362  1.00 16.32 LIG 0.18  C 
BRANCH 41 42
ATOM     42  N   LEU D   3      -9.873   8.445  -4.871  1.00 16.05 LIG-0.35  N 
ATOM     43  C   VAL D   2      -9.019   7.640  -4.243  1.00 15.61 LIG 0.24  C 
ATOM     44 O    VAL D   2      -9.291   6.471  -3.959  1.00 16.79 LIG-0.27  OA
ATOM     45 H    LEU D   3      -9.728   9.279  -5.022  1.00 16.05 LIG 0.16  HD
BRANCH 43 46
ATOM     46  CA  VAL D   2      -7.743   8.280  -3.721  1.00 14.78 LIG 0.18  C 
BRANCH 46 47
ATOM     47  N   VAL D   2      -7.678   8.031  -2.287  1.00 14.77 LIG-0.35  N 
ATOM     48  C   ARG D   1      -7.832   9.012  -1.408  1.00 16.50 LIG 0.25  C 
ATOM     49 O    ARG D   1      -8.081  10.177  -1.731  1.00 16.49 LIG-0.27  OA
ATOM     50 H    VAL D   2      -7.535   7.210  -2.074  1.00 14.77 LIG 0.16  HD
BRANCH 48 51
ATOM     51  CA  ARG D   1      -7.808   8.606   0.045  1.00 17.64 LIG 0.27  C 
BRANCH 51 52
ATOM     52  N   ARG D   1      -6.972   7.387   0.187  1.00 17.90 LIG-0.07  N 
ATOM     53 H3   ARG D   1      -6.245   7.579   0.664  1.00 17.90 LIG 0.28  HD
ATOM     54 H2   ARG D   1      -6.728   7.097  -0.619  1.00 17.90 LIG 0.28  HD
ATOM     55 H1   ARG D   1      -7.439   6.753   0.602  1.00 17.90 LIG 0.28  HD
ENDBRANCH 51 52
BRANCH 51 56
ATOM     56  CB  ARG D   1      -7.232   9.780   0.850  1.00 19.06 LIG 0.04  C 
BRANCH 56 57
ATOM     57  CG  ARG D   1      -7.848  10.028   2.199  1.00 22.89 LIG 0.02  C 
BRANCH 57 58
ATOM     58  CD  ARG D   1      -7.192   9.105   3.218  1.00 26.83 LIG 0.14  C 
BRANCH 58 59
ATOM     59  NE  ARG D   1      -8.035   7.961   3.545  1.00 30.01 LIG-0.23  N 
ATOM     60  CZ  ARG D   1      -8.587   7.768   4.739  1.00 33.71 LIG 0.67  C 
ATOM     61  NH1 ARG D   1      -8.373   8.644   5.712  1.00 32.13 LIG-0.23  N 
ATOM     62  NH2 ARG D   1      -9.350   6.703   4.962  1.00 33.53 LIG-0.23  N 
ATOM     63 1HH1 ARG D   1      -7.880   9.333   5.569  1.00 32.13 LIG 0.17  HD
ATOM     64 2HH1 ARG D   1      -8.729   8.522   6.486  1.00 32.13 LIG 0.17  HD
ATOM     65 1HH2 ARG D   1      -9.489   6.134   4.332  1.00 33.53 LIG 0.17  HD
ATOM     66 2HH2 ARG D   1      -9.705   6.583   5.736  1.00 33.53 LIG 0.17  HD
ATOM     67 HE   ARG D   1      -8.183   7.379   2.931  1.00 30.01 LIG 0.18  HD
ENDBRANCH 58 59
ENDBRANCH 57 58
ENDBRANCH 56 57
ENDBRANCH 51 56
ENDBRANCH 48 51
ENDBRANCH 46 47
BRANCH 46 68
ATOM     68  CB  VAL D   2      -6.513   7.667  -4.423  1.00 15.28 LIG 0.01  C 
ATOM     69  CG2 VAL D   2      -5.378   8.671  -4.455  1.00 14.68 LIG 0.01  C 
ATOM     70  CG1 VAL D   2      -6.856   7.160  -5.824  1.00 13.75 LIG 0.01  C 
ENDBRANCH 46 68
ENDBRANCH 43 46
ENDBRANCH 41 42
BRANCH 41 71
ATOM     71  CB  LEU D   3     -12.318   8.723  -4.731  1.00 15.85 LIG 0.04  C 
BRANCH 71 72
ATOM     72  CG  LEU D   3     -12.500   8.573  -3.217  1.00 19.10 LIG-0.02  C 
ATOM     73  CD2 LEU D   3     -13.967   8.608  -2.818  1.00 16.59 LIG 0.01  C 
ATOM     74  CD1 LEU D   3     -11.712   9.672  -2.508  1.00 21.08 LIG 0.01  C 
ENDBRANCH 71 72
ENDBRANCH 41 71
ENDBRANCH 1 41
TORSDOF 29
ENDMDL
MODEL 9
USER: ADFR SOLUTION from run 189
USER: SCORE 25.830206 LL:  -6.166 LR: -21.417 RR:   0.000 FEB: -12.766
USER: RMSD 13.786436
USER: SEED 188
USER: STATUS no improvement in best in 3 clusters for 5 generations
USER: GENES 31
USER: genes 0 Translation |==|  0.56471 0.39992 0.39304
USER: genes 1 Rotation |==|  0.50125 0.99507 0.56510 0.52584
USER: genes 2 Torsion [C]-N--CA-[CB] |==|  0.52881
USER: genes 3 Torsion [N]-CA--CB-[CG] |==|  0.50061
USER: genes 4 Torsion [CA]-CB--CG-[CD1] |==|  0.18341
USER: genes 5 Torsion [N]-CA--C-[N] |==|  0.36667
USER: genes 6 Torsion [C]-N--CA-[C] |==|  0.62504
USER: genes 7 Torsion [N]-CA--CB-[CG] |==|  0.50975
USER: genes 8 Torsion [CA]-CB--CG-[CD] |==|  0.72168
USER: genes 9 Torsion [CB]-CG--CD-[OE1] |==|  0.56859
USER: genes 10 Torsion [N]-CA--C-[N] |==|  0.36969
USER: genes 11 Torsion [C]-N--CA-[CB] |==|  0.85397
USER: genes 12 Torsion [N]-CA--C-[N] |==|  0.40911
USER: genes 13 Torsion [C]-N--CA-[CB] |==|  0.22487
USER: genes 14 Torsion [N]-CA--C-[OXT] |==|  0.37656
USER: genes 15 Torsion [N]-CA--CB-[CG] |==|  0.07683
USER: genes 16 Torsion [CA]-CB--CG-[SD] |==|  0.57785
USER: genes 17 Torsion [CB]-CG--SD-[CE] |==|  0.62821
USER: genes 18 Torsion [N]-C--CA-[N] |==|  0.14546
USER: genes 19 Torsion [C]-CA--N-[C] |==|  0.72231
USER: genes 20 Torsion [N]-C--CA-[N] |==|  0.26447
USER: genes 21 Torsion [C]-CA--N-[C] |==|  0.58371
USER: genes 22 Torsion [N]-C--CA-[N] |==|  0.46684
USER: genes 23 Torsion [C]-CA--N-[H1] |==|  0.01304
USER: genes 24 Torsion [C]-CA--CB-[CG] |==|  0.22836
USER: genes 25 Torsion [CA]-CB--CG-[CD] |==|  0.67997
USER: genes 26 Torsion [CB]-CG--CD-[NE] |==|  0.98613
USER: genes 27 Torsion [CG]-CD--NE-[CZ] |==|  0.77909
USER: genes 28 Torsion [C]-CA--CB-[CG2] |==|  0.53899
USER: genes 29 Torsion [C]-CA--CB-[CG] |==|  0.34576
USER: genes 30 Torsion [CA]-CB--CG-[CD2] |==|  0.01888
ROOT
ATOM      1  C   LEU D   3     -13.089   7.332  -8.498  1.00 15.92 LIG 0.24  C 
ATOM      2 O    LEU D   3     -13.019   6.733  -9.570  1.00 19.39 LIG-0.27  OA
ATOM      3  N   PHE D   4     -14.249   7.652  -7.940  1.00 13.65 LIG-0.35  N 
ATOM      4 H    PHE D   4     -14.350   7.854  -7.110  1.00 13.65 LIG 0.16  HD
ENDROOT
BRANCH 3 5
ATOM      5  CA  PHE D   4     -15.460   7.682  -8.725  1.00 13.25 LIG 0.18  C 
BRANCH 5 6
ATOM      6  CB  PHE D   4     -16.580   8.328  -7.894  1.00 13.20 LIG 0.07  C 
BRANCH 6 7
ATOM      7  CG  PHE D   4     -17.884   8.409  -8.603  1.00 13.63 LIG-0.06  A 
ATOM      8  CD1 PHE D   4     -18.579   7.252  -8.936  1.00 13.10 LIG 0.01  A 
ATOM      9  CE1 PHE D   4     -19.808   7.330  -9.575  1.00 15.10 LIG 0.00  A 
ATOM     10  CZ  PHE D   4     -20.361   8.575  -9.869  1.00 15.27 LIG 0.00  A 
ATOM     11  CE2 PHE D   4     -19.679   9.733  -9.509  1.00 13.31 LIG 0.00  A 
ATOM     12  CD2 PHE D   4     -18.445   9.639  -8.897  1.00 12.44 LIG 0.01  A 
ENDBRANCH 6 7
ENDBRANCH 5 6
BRANCH 5 13
ATOM     13  C   PHE D   4     -15.168   8.491  -9.988  1.00 14.19 LIG 0.24  C 
ATOM     14 O    PHE D   4     -14.509   9.525  -9.926  1.00 15.09 LIG-0.27  OA
ATOM     15  N   GLU D   5     -15.543   7.968 -11.147  1.00 15.42 LIG-0.35  N 
ATOM     16 H    GLU D   5     -15.882   7.183 -11.240  1.00 15.42 LIG 0.16  HD
BRANCH 15 17
ATOM     17  CA  GLU D   5     -15.399   8.722 -12.381  1.00 15.66 LIG 0.18  C 
BRANCH 17 18
ATOM     18  CB  GLU D   5     -14.181   8.233 -13.180  1.00 15.74 LIG 0.04  C 
BRANCH 18 19
ATOM     19  CG  GLU D   5     -13.897   9.015 -14.445  1.00 13.49 LIG 0.12  C 
BRANCH 19 20
ATOM     20  CD  GLU D   5     -14.405   8.309 -15.690  1.00 17.86 LIG 0.17  C 
ATOM     21 OE1  GLU D   5     -13.855   8.572 -16.782  1.00 19.55 LIG-0.65  OA
ATOM     22 OE2  GLU D   5     -15.308   7.444 -15.575  1.00 19.96 LIG-0.65  OA
ENDBRANCH 19 20
ENDBRANCH 18 19
ENDBRANCH 17 18
BRANCH 17 23
ATOM     23  C   GLU D   5     -16.678   8.583 -13.188  1.00 17.50 LIG 0.24  C 
ATOM     24 O    GLU D   5     -17.216   7.483 -13.325  1.00 17.10 LIG-0.27  OA
ATOM     25  N   ALA D   6     -17.180   9.705 -13.691  1.00 19.03 LIG-0.35  N 
ATOM     26 H    ALA D   6     -16.818  10.479 -13.597  1.00 19.03 LIG 0.16  HD
BRANCH 25 27
ATOM     27  CA  ALA D   6     -18.416   9.705 -14.459  1.00 21.37 LIG 0.17  C 
ATOM     28  CB  ALA D   6     -18.339   8.690 -15.578  1.00 21.30 LIG 0.04  C 
BRANCH 27 29
ATOM     29  C   ALA D   6     -19.582   9.389 -13.536  1.00 24.24 LIG 0.24  C 
ATOM     30 O    ALA D   6     -19.439   8.642 -12.568  1.00 22.56 LIG-0.27  OA
ATOM     31  N   MET D   7     -20.736   9.971 -13.839  1.00 27.55 LIG-0.34  N 
ATOM     32 H    MET D   7     -20.873  10.421 -14.559  1.00 27.55 LIG 0.16  HD
BRANCH 31 33
ATOM     33  CA  MET D   7     -21.890   9.891 -12.951  1.00 30.72 LIG 0.19  C 
BRANCH 33 34
ATOM     34  C   MET D   7     -23.162  10.108 -13.756  1.00 33.25 LIG 0.20  C 
ATOM     35 O    MET D   7     -23.248  11.071 -14.529  1.00 35.29 LIG-0.65  OA
ATOM     36 OXT  MET D   7     -24.155   9.386 -13.590  1.00 35.43 LIG-0.65  OA
ENDBRANCH 33 34
BRANCH 33 37
ATOM     37  CB  MET D   7     -21.758  10.923 -11.826  1.00 30.73 LIG 0.05  C 
BRANCH 37 38
ATOM     38  CG  MET D   7     -20.949  12.161 -12.161  1.00 32.79 LIG 0.08  C 
BRANCH 38 39
ATOM     39 SD   MET D   7     -20.183  12.867 -10.700  1.00 33.89 LIG-0.17  SA
ATOM     40  CE  MET D   7     -20.558  14.608 -10.893  1.00 31.39 LIG 0.09  C 
ENDBRANCH 38 39
ENDBRANCH 37 38
ENDBRANCH 33 37
ENDBRANCH 31 33
ENDBRANCH 27 29
ENDBRANCH 25 27
ENDBRANCH 17 23
ENDBRANCH 15 17
ENDBRANCH 5 13
ENDBRANCH 3 5
BRANCH 1 41
ATOM     41  CA  LEU D   3     -11.830   7.792  -7.766  1.00 16.32 LIG 0.18  C 
BRANCH 41 42
ATOM     42  N   LEU D   3     -11.814   7.397  -6.363  1.00 16.05 LIG-0.35  N 
ATOM     43  C   VAL D   2     -12.143   8.257  -5.401  1.00 15.61 LIG 0.24  C 
ATOM     44 O    VAL D   2     -12.387   9.444  -5.623  1.00 16.79 LIG-0.27  OA
ATOM     45 H    LEU D   3     -11.579   6.582  -6.222  1.00 16.05 LIG 0.16  HD
BRANCH 43 46
ATOM     46  CA  VAL D   2     -12.029   7.750  -3.972  1.00 14.78 LIG 0.18  C 
BRANCH 46 47
ATOM     47  N   VAL D   2     -10.727   8.156  -3.462  1.00 14.77 LIG-0.35  N 
ATOM     48  C   ARG D   1     -10.085   7.434  -2.553  1.00 16.50 LIG 0.25  C 
ATOM     49 O    ARG D   1     -10.514   6.362  -2.115  1.00 16.49 LIG-0.27  OA
ATOM     50 H    VAL D   2     -10.424   8.888  -3.797  1.00 14.77 LIG 0.16  HD
BRANCH 48 51
ATOM     51  CA  ARG D   1      -8.716   7.931  -2.160  1.00 17.64 LIG 0.27  C 
BRANCH 51 52
ATOM     52  N   ARG D   1      -8.269   7.194  -0.950  1.00 17.90 LIG-0.07  N 
ATOM     53 H3   ARG D   1      -8.192   7.760  -0.268  1.00 17.90 LIG 0.28  HD
ATOM     54 H2   ARG D   1      -7.481   6.812  -1.109  1.00 17.90 LIG 0.28  HD
ATOM     55 H1   ARG D   1      -8.867   6.566  -0.747  1.00 17.90 LIG 0.28  HD
ENDBRANCH 51 52
BRANCH 51 56
ATOM     56  CB  ARG D   1      -7.770   7.691  -3.346  1.00 19.06 LIG 0.04  C 
BRANCH 56 57
ATOM     57  CG  ARG D   1      -7.798   8.722  -4.439  1.00 22.89 LIG 0.02  C 
BRANCH 57 58
ATOM     58  CD  ARG D   1      -8.316   8.073  -5.716  1.00 26.83 LIG 0.14  C 
BRANCH 58 59
ATOM     59  NE  ARG D   1      -8.523   6.639  -5.558  1.00 30.01 LIG-0.23  N 
ATOM     60  CZ  ARG D   1      -7.543   5.742  -5.609  1.00 33.71 LIG 0.67  C 
ATOM     61  NH1 ARG D   1      -6.296   6.140  -5.820  1.00 32.13 LIG-0.23  N 
ATOM     62  NH2 ARG D   1      -7.808   4.449  -5.450  1.00 33.53 LIG-0.23  N 
ATOM     63 1HH1 ARG D   1      -6.124   6.976  -5.924  1.00 32.13 LIG 0.17  HD
ATOM     64 2HH1 ARG D   1      -5.660   5.562  -5.854  1.00 32.13 LIG 0.17  HD
ATOM     65 1HH2 ARG D   1      -8.616   4.189  -5.313  1.00 33.53 LIG 0.17  HD
ATOM     66 2HH2 ARG D   1      -7.171   3.872  -5.483  1.00 33.53 LIG 0.17  HD
ATOM     67 HE   ARG D   1      -9.324   6.358  -5.425  1.00 30.01 LIG 0.18  HD
ENDBRANCH 58 59
ENDBRANCH 57 58
ENDBRANCH 56 57
ENDBRANCH 51 56
ENDBRANCH 48 51
ENDBRANCH 46 47
BRANCH 46 68
ATOM     68  CB  VAL D   2     -13.152   8.353  -3.101  1.00 15.28 LIG 0.01  C 
ATOM     69  CG2 VAL D   2     -12.845   8.134  -1.632  1.00 14.68 LIG 0.01  C 
ATOM     70  CG1 VAL D   2     -14.523   7.793  -3.479  1.00 13.75 LIG 0.01  C 
ENDBRANCH 46 68
ENDBRANCH 43 46
ENDBRANCH 41 42
BRANCH 41 71
ATOM     71  CB  LEU D   3     -10.574   7.298  -8.490  1.00 15.85 LIG 0.04  C 
BRANCH 71 72
ATOM     72  CG  LEU D   3      -9.552   8.364  -8.899  1.00 19.10 LIG-0.02  C 
ATOM     73  CD2 LEU D   3      -9.915   9.735  -8.350  1.00 16.59 LIG 0.01  C 
ATOM     74  CD1 LEU D   3      -9.445   8.394 -10.423  1.00 21.08 LIG 0.01  C 
ENDBRANCH 71 72
ENDBRANCH 41 71
ENDBRANCH 1 41
TORSDOF 29
ENDMDL
MODEL 10
USER: ADFR SOLUTION from run 13
USER: SCORE 25.723136 LL:  -6.568 LR: -21.410 RR:   0.000 FEB: -12.760
USER: RMSD 12.978318
USER: SEED 748096
USER: STATUS no improvement in best in 4 clusters for 5 generations
USER: GENES 31
USER: genes 0 Translation |==|  0.61296 0.56188 0.41793
USER: genes 1 Rotation |==|  0.44363 0.79828 0.89676 0.52077
USER: genes 2 Torsion [C]-N--CA-[CB] |==|  0.12839
USER: genes 3 Torsion [N]-CA--CB-[CG] |==|  0.19045
USER: genes 4 Torsion [CA]-CB--CG-[CD1] |==|  0.78577
USER: genes 5 Torsion [N]-CA--C-[N] |==|  0.51986
USER: genes 6 Torsion [C]-N--CA-[C] |==|  0.56264
USER: genes 7 Torsion [N]-CA--CB-[CG] |==|  0.04494
USER: genes 8 Torsion [CA]-CB--CG-[CD] |==|  0.17977
USER: genes 9 Torsion [CB]-CG--CD-[OE1] |==|  0.24096
USER: genes 10 Torsion [N]-CA--C-[N] |==|  0.35011
USER: genes 11 Torsion [C]-N--CA-[CB] |==|  0.84943
USER: genes 12 Torsion [N]-CA--C-[N] |==|  0.36935
USER: genes 13 Torsion [C]-N--CA-[CB] |==|  0.35871
USER: genes 14 Torsion [N]-CA--C-[OXT] |==|  0.96348
USER: genes 15 Torsion [N]-CA--CB-[CG] |==|  0.71688
USER: genes 16 Torsion [CA]-CB--CG-[SD] |==|  0.36635
USER: genes 17 Torsion [CB]-CG--SD-[CE] |==|  0.40227
USER: genes 18 Torsion [N]-C--CA-[N] |==|  0.83333
USER: genes 19 Torsion [C]-CA--N-[C] |==|  0.21831
USER: genes 20 Torsion [N]-C--CA-[N] |==|  0.89653
USER: genes 21 Torsion [C]-CA--N-[C] |==|  0.79747
USER: genes 22 Torsion [N]-C--CA-[N] |==|  0.30642
USER: genes 23 Torsion [C]-CA--N-[H1] |==|  0.59579
USER: genes 24 Torsion [C]-CA--CB-[CG] |==|  0.10903
USER: genes 25 Torsion [CA]-CB--CG-[CD] |==|  0.60821
USER: genes 26 Torsion [CB]-CG--CD-[NE] |==|  0.16832
USER: genes 27 Torsion [CG]-CD--NE-[CZ] |==|  0.29598
USER: genes 28 Torsion [C]-CA--CB-[CG2] |==|  0.13276
USER: genes 29 Torsion [C]-CA--CB-[CG] |==|  0.23104
USER: genes 30 Torsion [CA]-CB--CG-[CD2] |==|  0.97409
ROOT
ATOM      1  C   LEU D   3     -11.714   9.397  -7.789  1.00 15.92 LIG 0.24  C 
ATOM      2 O    LEU D   3     -11.684  10.483  -8.366  1.00 19.39 LIG-0.27  OA
ATOM      3  N   PHE D   4     -12.804   8.642  -7.758  1.00 13.65 LIG-0.35  N 
ATOM      4 H    PHE D   4     -12.807   7.801  -7.576  1.00 13.65 LIG 0.16  HD
ENDROOT
BRANCH 3 5
ATOM      5  CA  PHE D   4     -14.101   9.209  -8.037  1.00 13.25 LIG 0.18  C 
BRANCH 5 6
ATOM      6  CB  PHE D   4     -14.004  10.086  -9.295  1.00 13.20 LIG 0.07  C 
BRANCH 6 7
ATOM      7  CG  PHE D   4     -13.766   9.319 -10.545  1.00 13.63 LIG-0.06  A 
ATOM      8  CD1 PHE D   4     -12.501   8.827 -10.841  1.00 13.10 LIG 0.01  A 
ATOM      9  CE1 PHE D   4     -12.286   8.088 -11.997  1.00 15.10 LIG 0.00  A 
ATOM     10  CZ  PHE D   4     -13.348   7.821 -12.858  1.00 15.27 LIG 0.00  A 
ATOM     11  CE2 PHE D   4     -14.620   8.288 -12.547  1.00 13.31 LIG 0.00  A 
ATOM     12  CD2 PHE D   4     -14.814   9.044 -11.408  1.00 12.44 LIG 0.01  A 
ENDBRANCH 6 7
ENDBRANCH 5 6
BRANCH 5 13
ATOM     13  C   PHE D   4     -15.074   8.049  -8.241  1.00 14.19 LIG 0.24  C 
ATOM     14 O    PHE D   4     -14.757   6.907  -7.921  1.00 15.09 LIG-0.27  OA
ATOM     15  N   GLU D   5     -16.299   8.346  -8.653  1.00 15.42 LIG-0.35  N 
ATOM     16 H    GLU D   5     -16.598   9.146  -8.753  1.00 15.42 LIG 0.16  HD
BRANCH 15 17
ATOM     17  CA  GLU D   5     -17.248   7.294  -8.974  1.00 15.66 LIG 0.18  C 
BRANCH 17 18
ATOM     18  CB  GLU D   5     -17.886   6.726  -7.697  1.00 15.74 LIG 0.04  C 
BRANCH 18 19
ATOM     19  CG  GLU D   5     -17.715   7.589  -6.465  1.00 13.49 LIG 0.12  C 
BRANCH 19 20
ATOM     20  CD  GLU D   5     -18.427   8.925  -6.587  1.00 17.86 LIG 0.17  C 
ATOM     21 OE1  GLU D   5     -19.632   8.983  -6.255  1.00 19.55 LIG-0.65  OA
ATOM     22 OE2  GLU D   5     -17.773   9.933  -6.951  1.00 19.96 LIG-0.65  OA
ENDBRANCH 19 20
ENDBRANCH 18 19
ENDBRANCH 17 18
BRANCH 17 23
ATOM     23  C   GLU D   5     -18.302   7.859  -9.911  1.00 17.50 LIG 0.24  C 
ATOM     24 O    GLU D   5     -18.909   8.891  -9.622  1.00 17.10 LIG-0.27  OA
ATOM     25  N   ALA D   6     -18.490   7.199 -11.048  1.00 19.03 LIG-0.35  N 
ATOM     26 H    ALA D   6     -18.069   6.481 -11.264  1.00 19.03 LIG 0.16  HD
BRANCH 25 27
ATOM     27  CA  ALA D   6     -19.452   7.657 -12.039  1.00 21.37 LIG 0.17  C 
ATOM     28  CB  ALA D   6     -20.815   7.832 -11.407  1.00 21.30 LIG 0.04  C 
BRANCH 27 29
ATOM     29  C   ALA D   6     -18.973   8.970 -12.638  1.00 24.24 LIG 0.24  C 
ATOM     30 O    ALA D   6     -18.561   9.880 -11.918  1.00 22.56 LIG-0.27  OA
ATOM     31  N   MET D   7     -19.020   9.055 -13.962  1.00 27.55 LIG-0.34  N 
ATOM     32 H    MET D   7     -19.387   8.465 -14.469  1.00 27.55 LIG 0.16  HD
BRANCH 31 33
ATOM     33  CA  MET D   7     -18.439  10.186 -14.676  1.00 30.72 LIG 0.19  C 
BRANCH 33 34
ATOM     34  C   MET D   7     -19.555  11.060 -15.229  1.00 33.25 LIG 0.20  C 
ATOM     35 O    MET D   7     -19.315  12.224 -15.575  1.00 35.29 LIG-0.65  OA
ATOM     36 OXT  MET D   7     -20.726  10.657 -15.262  1.00 35.43 LIG-0.65  OA
ENDBRANCH 33 34
BRANCH 33 37
ATOM     37  CB  MET D   7     -17.518   9.683 -15.793  1.00 30.73 LIG 0.05  C 
BRANCH 37 38
ATOM     38  CG  MET D   7     -16.033   9.739 -15.496  1.00 32.79 LIG 0.08  C 
BRANCH 38 39
ATOM     39 SD   MET D   7     -15.218   8.191 -15.898  1.00 33.89 LIG-0.17  SA
ATOM     40  CE  MET D   7     -13.624   8.758 -16.487  1.00 31.39 LIG 0.09  C 
ENDBRANCH 38 39
ENDBRANCH 37 38
ENDBRANCH 33 37
ENDBRANCH 31 33
ENDBRANCH 27 29
ENDBRANCH 25 27
ENDBRANCH 17 23
ENDBRANCH 15 17
ENDBRANCH 5 13
ENDBRANCH 3 5
BRANCH 1 41
ATOM     41  CA  LEU D   3     -10.500   8.875  -7.023  1.00 16.32 LIG 0.18  C 
BRANCH 41 42
ATOM     42  N   LEU D   3     -10.761   8.699  -5.600  1.00 16.05 LIG-0.35  N 
ATOM     43  C   VAL D   2     -11.427   7.639  -5.146  1.00 15.61 LIG 0.24  C 
ATOM     44 O    VAL D   2     -11.935   6.802  -5.894  1.00 16.79 LIG-0.27  OA
ATOM     45 H    LEU D   3     -10.453   9.327  -5.098  1.00 16.05 LIG 0.16  HD
BRANCH 43 46
ATOM     46  CA  VAL D   2     -11.693   7.595  -3.650  1.00 14.78 LIG 0.18  C 
BRANCH 46 47
ATOM     47  N   VAL D   2     -10.523   8.143  -2.977  1.00 14.77 LIG-0.35  N 
ATOM     48  C   ARG D   1      -9.387   7.463  -2.905  1.00 16.50 LIG 0.25  C 
ATOM     49 O    ARG D   1      -9.226   6.358  -3.430  1.00 16.49 LIG-0.27  OA
ATOM     50 H    VAL D   2     -10.638   8.928  -2.642  1.00 14.77 LIG 0.16  HD
BRANCH 48 51
ATOM     51  CA  ARG D   1      -8.234   8.172  -2.239  1.00 17.64 LIG 0.27  C 
BRANCH 51 52
ATOM     52  N   ARG D   1      -7.955   7.513  -0.937  1.00 17.90 LIG-0.07  N 
ATOM     53 H3   ARG D   1      -7.314   6.906  -1.043  1.00 17.90 LIG 0.28  HD
ATOM     54 H2   ARG D   1      -8.695   7.115  -0.641  1.00 17.90 LIG 0.28  HD
ATOM     55 H1   ARG D   1      -7.690   8.123  -0.346  1.00 17.90 LIG 0.28  HD
ENDBRANCH 51 52
BRANCH 51 56
ATOM     56  CB  ARG D   1      -7.024   8.090  -3.181  1.00 19.06 LIG 0.04  C 
BRANCH 56 57
ATOM     57  CG  ARG D   1      -7.311   8.252  -4.648  1.00 22.89 LIG 0.02  C 
BRANCH 57 58
ATOM     58  CD  ARG D   1      -6.434   7.283  -5.431  1.00 26.83 LIG 0.14  C 
BRANCH 58 59
ATOM     59  NE  ARG D   1      -6.695   5.894  -5.073  1.00 30.01 LIG-0.23  N 
ATOM     60  CZ  ARG D   1      -7.348   5.040  -5.855  1.00 33.71 LIG 0.67  C 
ATOM     61  NH1 ARG D   1      -7.807   5.444  -7.032  1.00 32.13 LIG-0.23  N 
ATOM     62  NH2 ARG D   1      -7.543   3.785  -5.464  1.00 33.53 LIG-0.23  N 
ATOM     63 1HH1 ARG D   1      -7.682   6.255  -7.287  1.00 32.13 LIG 0.17  HD
ATOM     64 2HH1 ARG D   1      -8.230   4.894  -7.541  1.00 32.13 LIG 0.17  HD
ATOM     65 1HH2 ARG D   1      -7.246   3.521  -4.701  1.00 33.53 LIG 0.17  HD
ATOM     66 2HH2 ARG D   1      -7.965   3.236  -5.973  1.00 33.53 LIG 0.17  HD
ATOM     67 HE   ARG D   1      -6.410   5.612  -4.313  1.00 30.01 LIG 0.18  HD
ENDBRANCH 58 59
ENDBRANCH 57 58
ENDBRANCH 56 57
ENDBRANCH 51 56
ENDBRANCH 48 51
ENDBRANCH 46 47
BRANCH 46 68
ATOM     68  CB  VAL D   2     -12.944   8.432  -3.306  1.00 15.28 LIG 0.01  C 
ATOM     69  CG2 VAL D   2     -14.079   8.082  -4.247  1.00 14.68 LIG 0.01  C 
ATOM     70  CG1 VAL D   2     -12.642   9.931  -3.321  1.00 13.75 LIG 0.01  C 
ENDBRANCH 46 68
ENDBRANCH 43 46
ENDBRANCH 41 42
BRANCH 41 71
ATOM     71  CB  LEU D   3      -9.983   7.577  -7.652  1.00 15.85 LIG 0.04  C 
BRANCH 71 72
ATOM     72  CG  LEU D   3      -9.049   7.721  -8.857  1.00 19.10 LIG-0.02  C 
ATOM     73  CD2 LEU D   3      -8.983   9.157  -9.353  1.00 16.59 LIG 0.01  C 
ATOM     74  CD1 LEU D   3      -9.514   6.778  -9.965  1.00 21.08 LIG 0.01  C 
ENDBRANCH 71 72
ENDBRANCH 41 71
ENDBRANCH 1 41
TORSDOF 29
ENDMDL
MODEL 11
USER: ADFR SOLUTION from run 50
USER: SCORE 24.071036 LL:  -5.354 LR: -21.315 RR:   0.000 FEB: -12.665
USER: RMSD 13.622227
USER: SEED 49
USER: STATUS no improvement in best in 6 clusters for 5 generations
USER: GENES 31
USER: genes 0 Translation |==|  0.57490 0.50310 0.36360
USER: genes 1 Rotation |==|  0.64461 0.92192 0.36108 0.67824
USER: genes 2 Torsion [C]-N--CA-[CB] |==|  0.84993
USER: genes 3 Torsion [N]-CA--CB-[CG] |==|  0.51569
USER: genes 4 Torsion [CA]-CB--CG-[CD1] |==|  0.06522
USER: genes 5 Torsion [N]-CA--C-[N] |==|  0.18000
USER: genes 6 Torsion [C]-N--CA-[C] |==|  0.65895
USER: genes 7 Torsion [N]-CA--CB-[CG] |==|  0.96610
USER: genes 8 Torsion [CA]-CB--CG-[CD] |==|  0.20608
USER: genes 9 Torsion [CB]-CG--CD-[OE1] |==|  0.15618
USER: genes 10 Torsion [N]-CA--C-[N] |==|  0.23584
USER: genes 11 Torsion [C]-N--CA-[CB] |==|  0.50107
USER: genes 12 Torsion [N]-CA--C-[N] |==|  0.44331
USER: genes 13 Torsion [C]-N--CA-[CB] |==|  0.39560
USER: genes 14 Torsion [N]-CA--C-[OXT] |==|  0.95809
USER: genes 15 Torsion [N]-CA--CB-[CG] |==|  0.99714
USER: genes 16 Torsion [CA]-CB--CG-[SD] |==|  0.81704
USER: genes 17 Torsion [CB]-CG--SD-[CE] |==|  0.47695
USER: genes 18 Torsion [N]-C--CA-[N] |==|  0.36386
USER: genes 19 Torsion [C]-CA--N-[C] |==|  0.66706
USER: genes 20 Torsion [N]-C--CA-[N] |==|  0.36426
USER: genes 21 Torsion [C]-CA--N-[C] |==|  0.58267
USER: genes 22 Torsion [N]-C--CA-[N] |==|  0.34975
USER: genes 23 Torsion [C]-CA--N-[H1] |==|  0.82237
USER: genes 24 Torsion [C]-CA--CB-[CG] |==|  0.34450
USER: genes 25 Torsion [CA]-CB--CG-[CD] |==|  0.30879
USER: genes 26 Torsion [CB]-CG--CD-[NE] |==|  0.14647
USER: genes 27 Torsion [CG]-CD--NE-[CZ] |==|  0.67895
USER: genes 28 Torsion [C]-CA--CB-[CG2] |==|  0.55004
USER: genes 29 Torsion [C]-CA--CB-[CG] |==|  0.97798
USER: genes 30 Torsion [CA]-CB--CG-[CD2] |==|  0.69936
ROOT
ATOM      1  C   LEU D   3     -12.798   8.648  -9.337  1.00 15.92 LIG 0.24  C 
ATOM      2 O    LEU D   3     -13.013   7.479  -9.657  1.00 19.39 LIG-0.27  OA
ATOM      3  N   PHE D   4     -13.371   9.668  -9.961  1.00 13.65 LIG-0.35  N 
ATOM      4 H    PHE D   4     -13.435  10.463  -9.637  1.00 13.65 LIG 0.16  HD
ENDROOT
BRANCH 3 5
ATOM      5  CA  PHE D   4     -13.946   9.500 -11.274  1.00 13.25 LIG 0.18  C 
BRANCH 5 6
ATOM      6  CB  PHE D   4     -12.886   8.901 -12.212  1.00 13.20 LIG 0.07  C 
BRANCH 6 7
ATOM      7  CG  PHE D   4     -13.323   8.806 -13.629  1.00 13.63 LIG-0.06  A 
ATOM      8  CD1 PHE D   4     -14.328   9.634 -14.115  1.00 13.10 LIG 0.01  A 
ATOM      9  CE1 PHE D   4     -14.717   9.561 -15.446  1.00 15.10 LIG 0.00  A 
ATOM     10  CZ  PHE D   4     -14.086   8.666 -16.307  1.00 15.27 LIG 0.00  A 
ATOM     11  CE2 PHE D   4     -13.059   7.858 -15.827  1.00 13.31 LIG 0.00  A 
ATOM     12  CD2 PHE D   4     -12.701   7.923 -14.496  1.00 12.44 LIG 0.01  A 
ENDBRANCH 6 7
ENDBRANCH 5 6
BRANCH 5 13
ATOM     13  C   PHE D   4     -15.151   8.572 -11.132  1.00 14.19 LIG 0.24  C 
ATOM     14 O    PHE D   4     -15.110   7.427 -11.572  1.00 15.09 LIG-0.27  OA
ATOM     15  N   GLU D   5     -16.177   9.011 -10.415  1.00 15.42 LIG-0.35  N 
ATOM     16 H    GLU D   5     -16.183   9.751  -9.977  1.00 15.42 LIG 0.16  HD
BRANCH 15 17
ATOM     17  CA  GLU D   5     -17.401   8.235 -10.322  1.00 15.66 LIG 0.18  C 
BRANCH 17 18
ATOM     18  CB  GLU D   5     -17.631   7.748  -8.883  1.00 15.74 LIG 0.04  C 
BRANCH 18 19
ATOM     19  CG  GLU D   5     -16.442   7.910  -7.961  1.00 13.49 LIG 0.12  C 
BRANCH 19 20
ATOM     20  CD  GLU D   5     -16.220   9.354  -7.547  1.00 17.86 LIG 0.17  C 
ATOM     21 OE1  GLU D   5     -17.165   9.960  -6.995  1.00 19.55 LIG-0.65  OA
ATOM     22 OE2  GLU D   5     -15.086   9.867  -7.710  1.00 19.96 LIG-0.65  OA
ENDBRANCH 19 20
ENDBRANCH 18 19
ENDBRANCH 17 18
BRANCH 17 23
ATOM     23  C   GLU D   5     -18.558   9.092 -10.804  1.00 17.50 LIG 0.24  C 
ATOM     24 O    GLU D   5     -19.224   9.752 -10.004  1.00 17.10 LIG-0.27  OA
ATOM     25  N   ALA D   6     -18.772   9.107 -12.114  1.00 19.03 LIG-0.35  N 
ATOM     26 H    ALA D   6     -18.311   8.657 -12.683  1.00 19.03 LIG 0.16  HD
BRANCH 25 27
ATOM     27  CA  ALA D   6     -19.833   9.913 -12.700  1.00 21.37 LIG 0.17  C 
ATOM     28  CB  ALA D   6     -19.858   9.736 -14.201  1.00 21.30 LIG 0.04  C 
BRANCH 27 29
ATOM     29  C   ALA D   6     -21.168   9.505 -12.096  1.00 24.24 LIG 0.24  C 
ATOM     30 O    ALA D   6     -21.304   8.414 -11.542  1.00 22.56 LIG-0.27  OA
ATOM     31  N   MET D   7     -22.147  10.395 -12.198  1.00 27.55 LIG-0.34  N 
ATOM     32 H    MET D   7     -22.092  11.120 -12.658  1.00 27.55 LIG 0.16  HD
BRANCH 31 33
ATOM     33  CA  MET D   7     -23.425  10.207 -11.521  1.00 30.72 LIG 0.19  C 
BRANCH 33 34
ATOM     34  C   MET D   7     -24.414   9.562 -12.481  1.00 33.25 LIG 0.20  C 
ATOM     35 O    MET D   7     -25.415   8.983 -12.040  1.00 35.29 LIG-0.65  OA
ATOM     36 OXT  MET D   7     -24.193   9.529 -13.700  1.00 35.43 LIG-0.65  OA
ENDBRANCH 33 34
BRANCH 33 37
ATOM     37  CB  MET D   7     -23.946  11.552 -11.003  1.00 30.73 LIG 0.05  C 
BRANCH 37 38
ATOM     38  CG  MET D   7     -23.054  12.749 -11.266  1.00 32.79 LIG 0.08  C 
BRANCH 38 39
ATOM     39 SD   MET D   7     -21.505  12.630 -10.367  1.00 33.89 LIG-0.17  SA
ATOM     40  CE  MET D   7     -20.579  14.005 -11.049  1.00 31.39 LIG 0.09  C 
ENDBRANCH 38 39
ENDBRANCH 37 38
ENDBRANCH 33 37
ENDBRANCH 31 33
ENDBRANCH 27 29
ENDBRANCH 25 27
ENDBRANCH 17 23
ENDBRANCH 15 17
ENDBRANCH 5 13
ENDBRANCH 3 5
BRANCH 1 41
ATOM     41  CA  LEU D   3     -11.809   8.995  -8.227  1.00 16.32 LIG 0.18  C 
BRANCH 41 42
ATOM     42  N   LEU D   3     -12.057   8.255  -6.995  1.00 16.05 LIG-0.35  N 
ATOM     43  C   VAL D   2     -12.336   8.886  -5.857  1.00 15.61 LIG 0.24  C 
ATOM     44 O    VAL D   2     -12.313  10.113  -5.751  1.00 16.79 LIG-0.27  OA
ATOM     45 H    LEU D   3     -12.006   7.400  -7.074  1.00 16.05 LIG 0.16  HD
BRANCH 43 46
ATOM     46  CA  VAL D   2     -12.514   8.012  -4.624  1.00 14.78 LIG 0.18  C 
BRANCH 46 47
ATOM     47  N   VAL D   2     -11.705   8.585  -3.557  1.00 14.77 LIG-0.35  N 
ATOM     48  C   ARG D   1     -11.179   7.824  -2.606  1.00 16.50 LIG 0.25  C 
ATOM     49 O    ARG D   1     -11.296   6.596  -2.580  1.00 16.49 LIG-0.27  OA
ATOM     50 H    VAL D   2     -11.604   9.438  -3.604  1.00 14.77 LIG 0.16  HD
BRANCH 48 51
ATOM     51  CA  ARG D   1     -10.308   8.533  -1.599  1.00 17.64 LIG 0.27  C 
BRANCH 51 52
ATOM     52  N   ARG D   1     -10.813   8.233  -0.235  1.00 17.90 LIG-0.07  N 
ATOM     53 H3   ARG D   1     -10.272   8.600   0.369  1.00 17.90 LIG 0.28  HD
ATOM     54 H2   ARG D   1     -10.837   7.351  -0.114  1.00 17.90 LIG 0.28  HD
ATOM     55 H1   ARG D   1     -11.632   8.567  -0.141  1.00 17.90 LIG 0.28  HD
ENDBRANCH 51 52
BRANCH 51 56
ATOM     56  CB  ARG D   1      -8.868   8.033  -1.789  1.00 19.06 LIG 0.04  C 
BRANCH 56 57
ATOM     57  CG  ARG D   1      -7.827   9.085  -2.051  1.00 22.89 LIG 0.02  C 
BRANCH 57 58
ATOM     58  CD  ARG D   1      -6.905   9.177  -0.841  1.00 26.83 LIG 0.14  C 
BRANCH 58 59
ATOM     59  NE  ARG D   1      -6.359   7.879  -0.466  1.00 30.01 LIG-0.23  N 
ATOM     60  CZ  ARG D   1      -6.621   7.273   0.687  1.00 33.71 LIG 0.67  C 
ATOM     61  NH1 ARG D   1      -7.416   7.859   1.573  1.00 32.13 LIG-0.23  N 
ATOM     62  NH2 ARG D   1      -6.092   6.084   0.957  1.00 33.53 LIG-0.23  N 
ATOM     63 1HH1 ARG D   1      -7.759   8.627   1.400  1.00 32.13 LIG 0.17  HD
ATOM     64 2HH1 ARG D   1      -7.588   7.469   2.320  1.00 32.13 LIG 0.17  HD
ATOM     65 1HH2 ARG D   1      -5.576   5.702   0.385  1.00 33.53 LIG 0.17  HD
ATOM     66 2HH2 ARG D   1      -6.265   5.695   1.705  1.00 33.53 LIG 0.17  HD
ATOM     67 HE   ARG D   1      -5.838   7.482  -1.024  1.00 30.01 LIG 0.18  HD
ENDBRANCH 58 59
ENDBRANCH 57 58
ENDBRANCH 56 57
ENDBRANCH 51 56
ENDBRANCH 48 51
ENDBRANCH 46 47
BRANCH 46 68
ATOM     68  CB  VAL D   2     -13.999   7.978  -4.204  1.00 15.28 LIG 0.01  C 
ATOM     69  CG2 VAL D   2     -14.123   7.500  -2.771  1.00 14.68 LIG 0.01  C 
ATOM     70  CG1 VAL D   2     -14.836   7.124  -5.158  1.00 13.75 LIG 0.01  C 
ENDBRANCH 46 68
ENDBRANCH 43 46
ENDBRANCH 41 42
BRANCH 41 71
ATOM     71  CB  LEU D   3     -10.368   8.796  -8.707  1.00 15.85 LIG 0.04  C 
BRANCH 71 72
ATOM     72  CG  LEU D   3     -10.185   8.132 -10.075  1.00 19.10 LIG-0.02  C 
ATOM     73  CD2 LEU D   3      -9.650   6.714  -9.949  1.00 16.59 LIG 0.01  C 
ATOM     74  CD1 LEU D   3      -9.257   8.994 -10.929  1.00 21.08 LIG 0.01  C 
ENDBRANCH 71 72
ENDBRANCH 41 71
ENDBRANCH 1 41
TORSDOF 29
ENDMDL
MODEL 12
USER: ADFR SOLUTION from run 136
USER: SCORE 24.586263 LL:  -5.059 LR: -21.311 RR:   0.000 FEB: -12.660
USER: RMSD 13.530736
USER: SEED 135
USER: STATUS searching
USER: GENES 31
USER: genes 0 Translation |==|  0.58476 0.42257 0.47726
USER: genes 1 Rotation |==|  0.70534 0.88897 0.41707 0.72285
USER: genes 2 Torsion [C]-N--CA-[CB] |==|  0.87778
USER: genes 3 Torsion [N]-CA--CB-[CG] |==|  0.77515
USER: genes 4 Torsion [CA]-CB--CG-[CD1] |==|  0.14959
USER: genes 5 Torsion [N]-CA--C-[N] |==|  0.34558
USER: genes 6 Torsion [C]-N--CA-[C] |==|  0.70415
USER: genes 7 Torsion [N]-CA--CB-[CG] |==|  0.64899
USER: genes 8 Torsion [CA]-CB--CG-[CD] |==|  0.23909
USER: genes 9 Torsion [CB]-CG--CD-[OE1] |==|  0.95126
USER: genes 10 Torsion [N]-CA--C-[N] |==|  0.83915
USER: genes 11 Torsion [C]-N--CA-[CB] |==|  0.81895
USER: genes 12 Torsion [N]-CA--C-[N] |==|  0.23147
USER: genes 13 Torsion [C]-N--CA-[CB] |==|  0.23915
USER: genes 14 Torsion [N]-CA--C-[OXT] |==|  0.98723
USER: genes 15 Torsion [N]-CA--CB-[CG] |==|  0.08798
USER: genes 16 Torsion [CA]-CB--CG-[SD] |==|  0.21505
USER: genes 17 Torsion [CB]-CG--SD-[CE] |==|  0.50516
USER: genes 18 Torsion [N]-C--CA-[N] |==|  0.81769
USER: genes 19 Torsion [C]-CA--N-[C] |==|  0.65855
USER: genes 20 Torsion [N]-C--CA-[N] |==|  0.36225
USER: genes 21 Torsion [C]-CA--N-[C] |==|  0.71629
USER: genes 22 Torsion [N]-C--CA-[N] |==|  0.90694
USER: genes 23 Torsion [C]-CA--N-[H1] |==|  0.90688
USER: genes 24 Torsion [C]-CA--CB-[CG] |==|  0.69244
USER: genes 25 Torsion [CA]-CB--CG-[CD] |==|  0.71015
USER: genes 26 Torsion [CB]-CG--CD-[NE] |==|  0.20284
USER: genes 27 Torsion [CG]-CD--NE-[CZ] |==|  0.17371
USER: genes 28 Torsion [C]-CA--CB-[CG2] |==|  0.86490
USER: genes 29 Torsion [C]-CA--CB-[CG] |==|  0.46737
USER: genes 30 Torsion [CA]-CB--CG-[CD2] |==|  0.19828
ROOT
ATOM      1  C   LEU D   3     -12.517   7.621  -6.098  1.00 15.92 LIG 0.24  C 
ATOM      2 O    LEU D   3     -12.707   6.564  -6.698  1.00 19.39 LIG-0.27  OA
ATOM      3  N   PHE D   4     -12.765   8.801  -6.649  1.00 13.65 LIG-0.35  N 
ATOM      4 H    PHE D   4     -12.869   9.532  -6.208  1.00 13.65 LIG 0.16  HD
ENDROOT
BRANCH 3 5
ATOM      5  CA  PHE D   4     -12.880   8.936  -8.082  1.00 13.25 LIG 0.18  C 
BRANCH 5 6
ATOM      6  CB  PHE D   4     -11.750   8.137  -8.752  1.00 13.20 LIG 0.07  C 
BRANCH 6 7
ATOM      7  CG  PHE D   4     -10.447   8.851  -8.783  1.00 13.63 LIG-0.06  A 
ATOM      8  CD1 PHE D   4      -9.889   9.353  -7.612  1.00 13.10 LIG 0.01  A 
ATOM      9  CE1 PHE D   4      -8.660   9.996  -7.639  1.00 15.10 LIG 0.00  A 
ATOM     10  CZ  PHE D   4      -7.968  10.126  -8.842  1.00 15.27 LIG 0.00  A 
ATOM     11  CE2 PHE D   4      -8.513   9.598 -10.008  1.00 13.31 LIG 0.00  A 
ATOM     12  CD2 PHE D   4      -9.748   8.983  -9.971  1.00 12.44 LIG 0.01  A 
ENDBRANCH 6 7
ENDBRANCH 5 6
BRANCH 5 13
ATOM     13  C   PHE D   4     -14.253   8.401  -8.484  1.00 14.19 LIG 0.24  C 
ATOM     14 O    PHE D   4     -14.636   7.306  -8.084  1.00 15.09 LIG-0.27  OA
ATOM     15  N   GLU D   5     -15.047   9.214  -9.168  1.00 15.42 LIG-0.35  N 
ATOM     16 H    GLU D   5     -14.866  10.036  -9.346  1.00 15.42 LIG 0.16  HD
BRANCH 15 17
ATOM     17  CA  GLU D   5     -16.323   8.745  -9.680  1.00 15.66 LIG 0.18  C 
BRANCH 17 18
ATOM     18  CB  GLU D   5     -17.450   9.724  -9.319  1.00 15.74 LIG 0.04  C 
BRANCH 18 19
ATOM     19  CG  GLU D   5     -18.630   9.099  -8.606  1.00 13.49 LIG 0.12  C 
BRANCH 19 20
ATOM     20  CD  GLU D   5     -18.427   9.023  -7.103  1.00 17.86 LIG 0.17  C 
ATOM     21 OE1  GLU D   5     -17.264   9.142  -6.659  1.00 19.55 LIG-0.65  OA
ATOM     22 OE2  GLU D   5     -19.431   8.911  -6.358  1.00 19.96 LIG-0.65  OA
ENDBRANCH 19 20
ENDBRANCH 18 19
ENDBRANCH 17 18
BRANCH 17 23
ATOM     23  C   GLU D   5     -16.209   8.569 -11.185  1.00 17.50 LIG 0.24  C 
ATOM     24 O    GLU D   5     -16.465   7.484 -11.710  1.00 17.10 LIG-0.27  OA
ATOM     25  N   ALA D   6     -15.859   9.646 -11.877  1.00 19.03 LIG-0.35  N 
ATOM     26 H    ALA D   6     -15.684  10.410 -11.524  1.00 19.03 LIG 0.16  HD
BRANCH 25 27
ATOM     27  CA  ALA D   6     -15.744   9.611 -13.328  1.00 21.37 LIG 0.17  C 
ATOM     28  CB  ALA D   6     -14.619   8.689 -13.742  1.00 21.30 LIG 0.04  C 
BRANCH 27 29
ATOM     29  C   ALA D   6     -17.060   9.143 -13.926  1.00 24.24 LIG 0.24  C 
ATOM     30 O    ALA D   6     -17.233   7.962 -14.229  1.00 22.56 LIG-0.27  OA
ATOM     31  N   MET D   7     -17.990  10.077 -14.085  1.00 27.55 LIG-0.34  N 
ATOM     32 H    MET D   7     -17.854  10.917 -13.962  1.00 27.55 LIG 0.16  HD
BRANCH 31 33
ATOM     33  CA  MET D   7     -19.350   9.741 -14.490  1.00 30.72 LIG 0.19  C 
BRANCH 33 34
ATOM     34  C   MET D   7     -19.953  10.912 -15.252  1.00 33.25 LIG 0.20  C 
ATOM     35 O    MET D   7     -21.036  10.777 -15.836  1.00 35.29 LIG-0.65  OA
ATOM     36 OXT  MET D   7     -19.337  11.981 -15.374  1.00 35.43 LIG-0.65  OA
ENDBRANCH 33 34
BRANCH 33 37
ATOM     37  CB  MET D   7     -20.190   9.385 -13.259  1.00 30.73 LIG 0.05  C 
BRANCH 37 38
ATOM     38  CG  MET D   7     -19.820  10.106 -11.978  1.00 32.79 LIG 0.08  C 
BRANCH 38 39
ATOM     39 SD   MET D   7     -20.440  11.790 -11.963  1.00 33.89 LIG-0.17  SA
ATOM     40  CE  MET D   7     -19.817  12.397 -10.397  1.00 31.39 LIG 0.09  C 
ENDBRANCH 38 39
ENDBRANCH 37 38
ENDBRANCH 33 37
ENDBRANCH 31 33
ENDBRANCH 27 29
ENDBRANCH 25 27
ENDBRANCH 17 23
ENDBRANCH 15 17
ENDBRANCH 5 13
ENDBRANCH 3 5
BRANCH 1 41
ATOM     41  CA  LEU D   3     -11.931   7.636  -4.688  1.00 16.32 LIG 0.18  C 
BRANCH 41 42
ATOM     42  N   LEU D   3     -10.593   8.213  -4.637  1.00 16.05 LIG-0.35  N 
ATOM     43  C   VAL D   2      -9.563   7.525  -4.150  1.00 15.61 LIG 0.24  C 
ATOM     44 O    VAL D   2      -9.688   6.411  -3.637  1.00 16.79 LIG-0.27  OA
ATOM     45 H    LEU D   3     -10.537   9.016  -4.942  1.00 16.05 LIG 0.16  HD
BRANCH 43 46
ATOM     46  CA  VAL D   2      -8.229   8.253  -4.090  1.00 14.78 LIG 0.18  C 
BRANCH 46 47
ATOM     47  N   VAL D   2      -7.688   8.072  -2.750  1.00 14.77 LIG-0.35  N 
ATOM     48  C   ARG D   1      -7.758   9.036  -1.842  1.00 16.50 LIG 0.25  C 
ATOM     49 O    ARG D   1      -8.316  10.119  -2.046  1.00 16.49 LIG-0.27  OA
ATOM     50 H    VAL D   2      -7.330   7.303  -2.610  1.00 14.77 LIG 0.16  HD
BRANCH 48 51
ATOM     51  CA  ARG D   1      -7.219   8.696  -0.475  1.00 17.64 LIG 0.27  C 
BRANCH 51 52
ATOM     52  N   ARG D   1      -7.478   7.259  -0.203  1.00 17.90 LIG-0.07  N 
ATOM     53 H3   ARG D   1      -7.532   7.127   0.675  1.00 17.90 LIG 0.28  HD
ATOM     54 H2   ARG D   1      -6.813   6.769  -0.535  1.00 17.90 LIG 0.28  HD
ATOM     55 H1   ARG D   1      -8.244   7.017  -0.586  1.00 17.90 LIG 0.28  HD
ENDBRANCH 51 52
BRANCH 51 56
ATOM     56  CB  ARG D   1      -5.715   9.007  -0.472  1.00 19.06 LIG 0.04  C 
BRANCH 56 57
ATOM     57  CG  ARG D   1      -4.791   7.823  -0.405  1.00 22.89 LIG 0.02  C 
BRANCH 57 58
ATOM     58  CD  ARG D   1      -4.222   7.721   1.005  1.00 26.83 LIG 0.14  C 
BRANCH 58 59
ATOM     59  NE  ARG D   1      -5.213   7.249   1.963  1.00 30.01 LIG-0.23  N 
ATOM     60  CZ  ARG D   1      -5.792   6.054   1.900  1.00 33.71 LIG 0.67  C 
ATOM     61  NH1 ARG D   1      -5.476   5.221   0.917  1.00 32.13 LIG-0.23  N 
ATOM     62  NH2 ARG D   1      -6.684   5.690   2.816  1.00 33.53 LIG-0.23  N 
ATOM     63 1HH1 ARG D   1      -4.899   5.455   0.325  1.00 32.13 LIG 0.17  HD
ATOM     64 2HH1 ARG D   1      -5.848   4.447   0.874  1.00 32.13 LIG 0.17  HD
ATOM     65 1HH2 ARG D   1      -6.890   6.228   3.454  1.00 33.53 LIG 0.17  HD
ATOM     66 2HH2 ARG D   1      -7.055   4.915   2.771  1.00 33.53 LIG 0.17  HD
ATOM     67 HE   ARG D   1      -5.436   7.774   2.607  1.00 30.01 LIG 0.18  HD
ENDBRANCH 58 59
ENDBRANCH 57 58
ENDBRANCH 56 57
ENDBRANCH 51 56
ENDBRANCH 48 51
ENDBRANCH 46 47
BRANCH 46 68
ATOM     68  CB  VAL D   2      -7.256   7.671  -5.138  1.00 15.28 LIG 0.01  C 
ATOM     69  CG2 VAL D   2      -7.236   6.158  -5.047  1.00 14.68 LIG 0.01  C 
ATOM     70  CG1 VAL D   2      -5.853   8.263  -4.996  1.00 13.75 LIG 0.01  C 
ENDBRANCH 46 68
ENDBRANCH 43 46
ENDBRANCH 41 42
BRANCH 41 71
ATOM     71  CB  LEU D   3     -12.876   8.353  -3.719  1.00 15.85 LIG 0.04  C 
BRANCH 71 72
ATOM     72  CG  LEU D   3     -12.566   8.211  -2.226  1.00 19.10 LIG-0.02  C 
ATOM     73  CD2 LEU D   3     -11.323   8.993  -1.829  1.00 16.59 LIG 0.01  C 
ATOM     74  CD1 LEU D   3     -12.412   6.729  -1.886  1.00 21.08 LIG 0.01  C 
ENDBRANCH 71 72
ENDBRANCH 41 71
ENDBRANCH 1 41
TORSDOF 29
ENDMDL
MODEL 13
USER: ADFR SOLUTION from run 122
USER: SCORE 23.180706 LL:  -6.130 LR: -21.302 RR:   0.000 FEB: -12.651
USER: RMSD 13.805449
USER: SEED 121
USER: STATUS 1 or 2 clusters left
USER: GENES 31
USER: genes 0 Translation |==|  0.56648 0.36873 0.42594
USER: genes 1 Rotation |==|  0.46969 0.99862 0.50432 0.52092
USER: genes 2 Torsion [C]-N--CA-[CB] |==|  0.51449
USER: genes 3 Torsion [N]-CA--CB-[CG] |==|  0.45220
USER: genes 4 Torsion [CA]-CB--CG-[CD1] |==|  0.65218
USER: genes 5 Torsion [N]-CA--C-[N] |==|  0.75687
USER: genes 6 Torsion [C]-N--CA-[C] |==|  0.17991
USER: genes 7 Torsion [N]-CA--CB-[CG] |==|  0.91214
USER: genes 8 Torsion [CA]-CB--CG-[CD] |==|  0.88242
USER: genes 9 Torsion [CB]-CG--CD-[OE1] |==|  0.81151
USER: genes 10 Torsion [N]-CA--C-[N] |==|  0.21202
USER: genes 11 Torsion [C]-N--CA-[CB] |==|  0.50987
USER: genes 12 Torsion [N]-CA--C-[N] |==|  0.86733
USER: genes 13 Torsion [C]-N--CA-[CB] |==|  0.86145
USER: genes 14 Torsion [N]-CA--C-[OXT] |==|  0.41192
USER: genes 15 Torsion [N]-CA--CB-[CG] |==|  0.88043
USER: genes 16 Torsion [CA]-CB--CG-[SD] |==|  0.54067
USER: genes 17 Torsion [CB]-CG--SD-[CE] |==|  0.10462
USER: genes 18 Torsion [N]-C--CA-[N] |==|  0.20518
USER: genes 19 Torsion [C]-CA--N-[C] |==|  0.76212
USER: genes 20 Torsion [N]-C--CA-[N] |==|  0.21827
USER: genes 21 Torsion [C]-CA--N-[C] |==|  0.72781
USER: genes 22 Torsion [N]-C--CA-[N] |==|  0.83617
USER: genes 23 Torsion [C]-CA--N-[H1] |==|  0.64959
USER: genes 24 Torsion [C]-CA--CB-[CG] |==|  0.48614
USER: genes 25 Torsion [CA]-CB--CG-[CD] |==|  0.61917
USER: genes 26 Torsion [CB]-CG--CD-[NE] |==|  0.13742
USER: genes 27 Torsion [CG]-CD--NE-[CZ] |==|  0.61280
USER: genes 28 Torsion [C]-CA--CB-[CG2] |==|  0.57592
USER: genes 29 Torsion [C]-CA--CB-[CG] |==|  0.50351
USER: genes 30 Torsion [CA]-CB--CG-[CD2] |==|  0.74176
ROOT
ATOM      1  C   LEU D   3     -13.038   6.934  -7.561  1.00 15.92 LIG 0.24  C 
ATOM      2 O    LEU D   3     -12.890   6.101  -8.453  1.00 19.39 LIG-0.27  OA
ATOM      3  N   PHE D   4     -14.233   7.248  -7.077  1.00 13.65 LIG-0.35  N 
ATOM      4 H    PHE D   4     -14.365   7.636  -6.321  1.00 13.65 LIG 0.16  HD
ENDROOT
BRANCH 3 5
ATOM      5  CA  PHE D   4     -15.431   6.946  -7.823  1.00 13.25 LIG 0.18  C 
BRANCH 5 6
ATOM      6  CB  PHE D   4     -16.643   7.538  -7.084  1.00 13.20 LIG 0.07  C 
BRANCH 6 7
ATOM      7  CG  PHE D   4     -17.862   7.652  -7.926  1.00 13.63 LIG-0.06  A 
ATOM      8  CD1 PHE D   4     -18.514   8.872  -8.064  1.00 13.10 LIG 0.01  A 
ATOM      9  CE1 PHE D   4     -19.637   8.982  -8.871  1.00 15.10 LIG 0.00  A 
ATOM     10  CZ  PHE D   4     -20.107   7.869  -9.564  1.00 15.27 LIG 0.00  A 
ATOM     11  CE2 PHE D   4     -19.438   6.654  -9.450  1.00 13.31 LIG 0.00  A 
ATOM     12  CD2 PHE D   4     -18.337   6.554  -8.623  1.00 12.44 LIG 0.01  A 
ENDBRANCH 6 7
ENDBRANCH 5 6
BRANCH 5 13
ATOM     13  C   PHE D   4     -15.274   7.560  -9.213  1.00 14.19 LIG 0.24  C 
ATOM     14 O    PHE D   4     -14.916   6.868 -10.161  1.00 15.09 LIG-0.27  OA
ATOM     15  N   GLU D   5     -15.655   8.820  -9.370  1.00 15.42 LIG-0.35  N 
ATOM     16 H    GLU D   5     -16.040   9.292  -8.762  1.00 15.42 LIG 0.16  HD
BRANCH 15 17
ATOM     17  CA  GLU D   5     -15.438   9.509 -10.630  1.00 15.66 LIG 0.18  C 
BRANCH 17 18
ATOM     18  CB  GLU D   5     -13.947   9.514 -11.000  1.00 15.74 LIG 0.04  C 
BRANCH 18 19
ATOM     19  CG  GLU D   5     -13.000   9.546  -9.819  1.00 13.49 LIG 0.12  C 
BRANCH 19 20
ATOM     20  CD  GLU D   5     -13.455  10.509  -8.736  1.00 17.86 LIG 0.17  C 
ATOM     21 OE1  GLU D   5     -13.433  11.734  -8.991  1.00 19.55 LIG-0.65  OA
ATOM     22 OE2  GLU D   5     -13.894  10.048  -7.655  1.00 19.96 LIG-0.65  OA
ENDBRANCH 19 20
ENDBRANCH 18 19
ENDBRANCH 17 18
BRANCH 17 23
ATOM     23  C   GLU D   5     -16.268   8.829 -11.705  1.00 17.50 LIG 0.24  C 
ATOM     24 O    GLU D   5     -15.743   8.056 -12.508  1.00 17.10 LIG-0.27  OA
ATOM     25  N   ALA D   6     -17.570   9.092 -11.695  1.00 19.03 LIG-0.35  N 
ATOM     26 H    ALA D   6     -17.950   9.625 -11.137  1.00 19.03 LIG 0.16  HD
BRANCH 25 27
ATOM     27  CA  ALA D   6     -18.475   8.480 -12.657  1.00 21.37 LIG 0.17  C 
ATOM     28  CB  ALA D   6     -19.876   9.018 -12.476  1.00 21.30 LIG 0.04  C 
BRANCH 27 29
ATOM     29  C   ALA D   6     -17.977   8.759 -14.066  1.00 24.24 LIG 0.24  C 
ATOM     30 O    ALA D   6     -17.903   7.858 -14.902  1.00 22.56 LIG-0.27  OA
ATOM     31  N   MET D   7     -17.646  10.019 -14.325  1.00 27.55 LIG-0.34  N 
ATOM     32 H    MET D   7     -17.607  10.638 -13.729  1.00 27.55 LIG 0.16  HD
BRANCH 31 33
ATOM     33  CA  MET D   7     -17.313  10.460 -15.674  1.00 30.72 LIG 0.19  C 
BRANCH 33 34
ATOM     34  C   MET D   7     -18.581  10.516 -16.513  1.00 33.25 LIG 0.20  C 
ATOM     35 O    MET D   7     -19.468   9.668 -16.352  1.00 35.29 LIG-0.65  OA
ATOM     36 OXT  MET D   7     -18.709  11.348 -17.423  1.00 35.43 LIG-0.65  OA
ENDBRANCH 33 34
BRANCH 33 37
ATOM     37  CB  MET D   7     -16.276   9.516 -16.293  1.00 30.73 LIG 0.05  C 
BRANCH 37 38
ATOM     38  CG  MET D   7     -15.141   9.096 -15.380  1.00 32.79 LIG 0.08  C 
BRANCH 38 39
ATOM     39 SD   MET D   7     -13.790   8.357 -16.300  1.00 33.89 LIG-0.17  SA
ATOM     40  CE  MET D   7     -13.766   9.358 -17.786  1.00 31.39 LIG 0.09  C 
ENDBRANCH 38 39
ENDBRANCH 37 38
ENDBRANCH 33 37
ENDBRANCH 31 33
ENDBRANCH 27 29
ENDBRANCH 25 27
ENDBRANCH 17 23
ENDBRANCH 15 17
ENDBRANCH 5 13
ENDBRANCH 3 5
BRANCH 1 41
ATOM     41  CA  LEU D   3     -11.848   7.701  -6.988  1.00 16.32 LIG 0.18  C 
BRANCH 41 42
ATOM     42  N   LEU D   3     -11.501   7.281  -5.636  1.00 16.05 LIG-0.35  N 
ATOM     43  C   VAL D   2     -12.109   7.806  -4.574  1.00 15.61 LIG 0.24  C 
ATOM     44 O    VAL D   2     -12.921   8.729  -4.659  1.00 16.79 LIG-0.27  OA
ATOM     45 H    LEU D   3     -10.886   6.682  -5.593  1.00 16.05 LIG 0.16  HD
BRANCH 43 46
ATOM     46  CA  VAL D   2     -11.620   7.337  -3.213  1.00 14.78 LIG 0.18  C 
BRANCH 46 47
ATOM     47  N   VAL D   2     -10.383   8.047  -2.919  1.00 14.77 LIG-0.35  N 
ATOM     48  C   ARG D   1      -9.199   7.490  -3.135  1.00 16.50 LIG 0.25  C 
ATOM     49 O    ARG D   1      -9.059   6.370  -3.633  1.00 16.49 LIG-0.27  OA
ATOM     50 H    VAL D   2     -10.493   8.839  -2.601  1.00 14.77 LIG 0.16  HD
BRANCH 48 51
ATOM     51  CA  ARG D   1      -7.999   8.359  -2.850  1.00 17.64 LIG 0.27  C 
BRANCH 51 52
ATOM     52  N   ARG D   1      -8.077   9.575  -3.699  1.00 17.90 LIG-0.07  N 
ATOM     53 H3   ARG D   1      -8.193  10.291  -3.182  1.00 17.90 LIG 0.28  HD
ATOM     54 H2   ARG D   1      -8.763   9.502  -4.261  1.00 17.90 LIG 0.28  HD
ATOM     55 H1   ARG D   1      -7.322   9.664  -4.162  1.00 17.90 LIG 0.28  HD
ENDBRANCH 51 52
BRANCH 51 56
ATOM     56  CB  ARG D   1      -8.019   8.713  -1.356  1.00 19.06 LIG 0.04  C 
BRANCH 56 57
ATOM     57  CG  ARG D   1      -6.837   9.484  -0.838  1.00 22.89 LIG 0.02  C 
BRANCH 57 58
ATOM     58  CD  ARG D   1      -6.417   8.898   0.505  1.00 26.83 LIG 0.14  C 
BRANCH 58 59
ATOM     59  NE  ARG D   1      -6.279   7.449   0.452  1.00 30.01 LIG-0.23  N 
ATOM     60  CZ  ARG D   1      -6.683   6.633   1.421  1.00 33.71 LIG 0.67  C 
ATOM     61  NH1 ARG D   1      -7.242   7.135   2.514  1.00 32.13 LIG-0.23  N 
ATOM     62  NH2 ARG D   1      -6.529   5.318   1.300  1.00 33.53 LIG-0.23  N 
ATOM     63 1HH1 ARG D   1      -7.342   7.985   2.594  1.00 32.13 LIG 0.17  HD
ATOM     64 2HH1 ARG D   1      -7.505   6.610   3.143  1.00 32.13 LIG 0.17  HD
ATOM     65 1HH2 ARG D   1      -6.167   4.990   0.592  1.00 33.53 LIG 0.17  HD
ATOM     66 2HH2 ARG D   1      -6.793   4.794   1.929  1.00 33.53 LIG 0.17  HD
ATOM     67 HE   ARG D   1      -5.915   7.101  -0.245  1.00 30.01 LIG 0.18  HD
ENDBRANCH 58 59
ENDBRANCH 57 58
ENDBRANCH 56 57
ENDBRANCH 51 56
ENDBRANCH 48 51
ENDBRANCH 46 47
BRANCH 46 68
ATOM     68  CB  VAL D   2     -12.678   7.643  -2.131  1.00 15.28 LIG 0.01  C 
ATOM     69  CG2 VAL D   2     -12.007   7.822  -0.783  1.00 14.68 LIG 0.01  C 
ATOM     70  CG1 VAL D   2     -13.763   6.566  -2.082  1.00 13.75 LIG 0.01  C 
ENDBRANCH 46 68
ENDBRANCH 43 46
ENDBRANCH 41 42
BRANCH 41 71
ATOM     71  CB  LEU D   3     -10.639   7.596  -7.923  1.00 15.85 LIG 0.04  C 
BRANCH 71 72
ATOM     72  CG  LEU D   3      -9.354   8.293  -7.466  1.00 19.10 LIG-0.02  C 
ATOM     73  CD2 LEU D   3      -9.251   9.707  -8.015  1.00 16.59 LIG 0.01  C 
ATOM     74  CD1 LEU D   3      -8.151   7.452  -7.889  1.00 21.08 LIG 0.01  C 
ENDBRANCH 71 72
ENDBRANCH 41 71
ENDBRANCH 1 41
TORSDOF 29
ENDMDL
MODEL 14
USER: ADFR SOLUTION from run 61
USER: SCORE 24.767199 LL:  -5.578 LR: -21.296 RR:   0.000 FEB: -12.645
USER: RMSD 13.028996
USER: SEED 60
USER: STATUS no improvement in best in 4 clusters for 5 generations
USER: GENES 31
USER: genes 0 Translation |==|  0.59127 0.49162 0.50165
USER: genes 1 Rotation |==|  0.19222 0.30352 0.84142 0.50982
USER: genes 2 Torsion [C]-N--CA-[CB] |==|  0.52778
USER: genes 3 Torsion [N]-CA--CB-[CG] |==|  0.08780
USER: genes 4 Torsion [CA]-CB--CG-[CD1] |==|  0.65885
USER: genes 5 Torsion [N]-CA--C-[N] |==|  0.40600
USER: genes 6 Torsion [C]-N--CA-[C] |==|  0.58390
USER: genes 7 Torsion [N]-CA--CB-[CG] |==|  0.10595
USER: genes 8 Torsion [CA]-CB--CG-[CD] |==|  0.17675
USER: genes 9 Torsion [CB]-CG--CD-[OE1] |==|  0.23973
USER: genes 10 Torsion [N]-CA--C-[N] |==|  0.47695
USER: genes 11 Torsion [C]-N--CA-[CB] |==|  0.82778
USER: genes 12 Torsion [N]-CA--C-[N] |==|  0.11003
USER: genes 13 Torsion [C]-N--CA-[CB] |==|  0.39369
USER: genes 14 Torsion [N]-CA--C-[OXT] |==|  0.65977
USER: genes 15 Torsion [N]-CA--CB-[CG] |==|  0.85137
USER: genes 16 Torsion [CA]-CB--CG-[SD] |==|  0.50290
USER: genes 17 Torsion [CB]-CG--SD-[CE] |==|  0.06388
USER: genes 18 Torsion [N]-C--CA-[N] |==|  0.12733
USER: genes 19 Torsion [C]-CA--N-[C] |==|  0.57812
USER: genes 20 Torsion [N]-C--CA-[N] |==|  0.29771
USER: genes 21 Torsion [C]-CA--N-[C] |==|  0.71180
USER: genes 22 Torsion [N]-C--CA-[N] |==|  0.86950
USER: genes 23 Torsion [C]-CA--N-[H1] |==|  0.57056
USER: genes 24 Torsion [C]-CA--CB-[CG] |==|  0.46805
USER: genes 25 Torsion [CA]-CB--CG-[CD] |==|  0.25135
USER: genes 26 Torsion [CB]-CG--CD-[NE] |==|  0.66002
USER: genes 27 Torsion [CG]-CD--NE-[CZ] |==|  0.32079
USER: genes 28 Torsion [C]-CA--CB-[CG2] |==|  0.46571
USER: genes 29 Torsion [C]-CA--CB-[CG] |==|  0.77033
USER: genes 30 Torsion [CA]-CB--CG-[CD2] |==|  0.08856
ROOT
ATOM      1  C   LEU D   3     -12.332   8.501  -5.403  1.00 15.92 LIG 0.24  C 
ATOM      2 O    LEU D   3     -13.486   8.654  -5.006  1.00 19.39 LIG-0.27  OA
ATOM      3  N   PHE D   4     -11.896   9.038  -6.535  1.00 13.65 LIG-0.35  N 
ATOM      4 H    PHE D   4     -11.066   9.153  -6.731  1.00 13.65 LIG 0.16  HD
ENDROOT
BRANCH 3 5
ATOM      5  CA  PHE D   4     -12.826   9.481  -7.546  1.00 13.25 LIG 0.18  C 
BRANCH 5 6
ATOM      6  CB  PHE D   4     -12.048   9.819  -8.828  1.00 13.20 LIG 0.07  C 
BRANCH 6 7
ATOM      7  CG  PHE D   4     -10.830   8.992  -9.027  1.00 13.63 LIG-0.06  A 
ATOM      8  CD1 PHE D   4      -9.584   9.592  -9.167  1.00 13.10 LIG 0.01  A 
ATOM      9  CE1 PHE D   4      -8.444   8.817  -9.327  1.00 15.10 LIG 0.00  A 
ATOM     10  CZ  PHE D   4      -8.543   7.427  -9.331  1.00 15.27 LIG 0.00  A 
ATOM     11  CE2 PHE D   4      -9.786   6.826  -9.161  1.00 13.31 LIG 0.00  A 
ATOM     12  CD2 PHE D   4     -10.914   7.610  -9.029  1.00 12.44 LIG 0.01  A 
ENDBRANCH 6 7
ENDBRANCH 5 6
BRANCH 5 13
ATOM     13  C   PHE D   4     -13.821   8.345  -7.782  1.00 14.19 LIG 0.24  C 
ATOM     14 O    PHE D   4     -13.491   7.179  -7.586  1.00 15.09 LIG-0.27  OA
ATOM     15  N   GLU D   5     -15.068   8.680  -8.081  1.00 15.42 LIG-0.35  N 
ATOM     16 H    GLU D   5     -15.367   9.487  -8.090  1.00 15.42 LIG 0.16  HD
BRANCH 15 17
ATOM     17  CA  GLU D   5     -16.046   7.662  -8.425  1.00 15.66 LIG 0.18  C 
BRANCH 17 18
ATOM     18  CB  GLU D   5     -16.736   7.120  -7.164  1.00 15.74 LIG 0.04  C 
BRANCH 18 19
ATOM     19  CG  GLU D   5     -17.026   8.159  -6.102  1.00 13.49 LIG 0.12  C 
BRANCH 19 20
ATOM     20  CD  GLU D   5     -18.007   9.217  -6.576  1.00 17.86 LIG 0.17  C 
ATOM     21 OE1  GLU D   5     -19.230   8.984  -6.454  1.00 19.55 LIG-0.65  OA
ATOM     22 OE2  GLU D   5     -17.563  10.308  -7.011  1.00 19.96 LIG-0.65  OA
ENDBRANCH 19 20
ENDBRANCH 18 19
ENDBRANCH 17 18
BRANCH 17 23
ATOM     23  C   GLU D   5     -17.054   8.262  -9.389  1.00 17.50 LIG 0.24  C 
ATOM     24 O    GLU D   5     -17.027   9.465  -9.656  1.00 17.10 LIG-0.27  OA
ATOM     25  N   ALA D   6     -17.919   7.416  -9.936  1.00 19.03 LIG-0.35  N 
ATOM     26 H    ALA D   6     -17.945   6.575  -9.763  1.00 19.03 LIG 0.16  HD
BRANCH 25 27
ATOM     27  CA  ALA D   6     -18.916   7.866 -10.896  1.00 21.37 LIG 0.17  C 
ATOM     28  CB  ALA D   6     -19.849   8.868 -10.254  1.00 21.30 LIG 0.04  C 
BRANCH 27 29
ATOM     29  C   ALA D   6     -18.216   8.486 -12.095  1.00 24.24 LIG 0.24  C 
ATOM     30 O    ALA D   6     -18.660   9.501 -12.632  1.00 22.56 LIG-0.27  OA
ATOM     31  N   MET D   7     -17.113   7.872 -12.504  1.00 27.55 LIG-0.34  N 
ATOM     32 H    MET D   7     -16.841   7.116 -12.198  1.00 27.55 LIG 0.16  HD
BRANCH 31 33
ATOM     33  CA  MET D   7     -16.254   8.448 -13.532  1.00 30.72 LIG 0.19  C 
BRANCH 33 34
ATOM     34  C   MET D   7     -16.619   7.857 -14.885  1.00 33.25 LIG 0.20  C 
ATOM     35 O    MET D   7     -17.794   7.884 -15.275  1.00 35.29 LIG-0.65  OA
ATOM     36 OXT  MET D   7     -15.775   7.267 -15.574  1.00 35.43 LIG-0.65  OA
ENDBRANCH 33 34
BRANCH 33 37
ATOM     37  CB  MET D   7     -14.782   8.189 -13.189  1.00 30.73 LIG 0.05  C 
BRANCH 37 38
ATOM     38  CG  MET D   7     -14.340   8.631 -11.808  1.00 32.79 LIG 0.08  C 
BRANCH 38 39
ATOM     39 SD   MET D   7     -12.597   8.305 -11.534  1.00 33.89 LIG-0.17  SA
ATOM     40  CE  MET D   7     -11.969   8.235 -13.211  1.00 31.39 LIG 0.09  C 
ENDBRANCH 38 39
ENDBRANCH 37 38
ENDBRANCH 33 37
ENDBRANCH 31 33
ENDBRANCH 27 29
ENDBRANCH 25 27
ENDBRANCH 17 23
ENDBRANCH 15 17
ENDBRANCH 5 13
ENDBRANCH 3 5
BRANCH 1 41
ATOM     41  CA  LEU D   3     -11.339   7.631  -4.634  1.00 16.32 LIG 0.18  C 
BRANCH 41 42
ATOM     42  N   LEU D   3     -10.020   8.242  -4.522  1.00 16.05 LIG-0.35  N 
ATOM     43  C   VAL D   2      -8.922   7.496  -4.411  1.00 15.61 LIG 0.24  C 
ATOM     44 O    VAL D   2      -8.958   6.268  -4.307  1.00 16.79 LIG-0.27  OA
ATOM     45 H    LEU D   3     -10.020   9.101  -4.532  1.00 16.05 LIG 0.16  HD
BRANCH 43 46
ATOM     46  CA  VAL D   2      -7.610   8.244  -4.237  1.00 14.78 LIG 0.18  C 
BRANCH 46 47
ATOM     47  N   VAL D   2      -7.183   8.070  -2.856  1.00 14.77 LIG-0.35  N 
ATOM     48  C   ARG D   1      -7.316   9.044  -1.965  1.00 16.50 LIG 0.25  C 
ATOM     49 O    ARG D   1      -7.842  10.130  -2.223  1.00 16.49 LIG-0.27  OA
ATOM     50 H    VAL D   2      -6.847   7.298  -2.679  1.00 14.77 LIG 0.16  HD
BRANCH 48 51
ATOM     51  CA  ARG D   1      -6.896   8.711  -0.554  1.00 17.64 LIG 0.27  C 
BRANCH 51 52
ATOM     52  N   ARG D   1      -7.479   7.397  -0.179  1.00 17.90 LIG-0.07  N 
ATOM     53 H3   ARG D   1      -6.944   6.743  -0.459  1.00 17.90 LIG 0.28  HD
ATOM     54 H2   ARG D   1      -8.280   7.308  -0.560  1.00 17.90 LIG 0.28  HD
ATOM     55 H1   ARG D   1      -7.565   7.352   0.705  1.00 17.90 LIG 0.28  HD
ENDBRANCH 51 52
BRANCH 51 56
ATOM     56  CB  ARG D   1      -5.361   8.675  -0.518  1.00 19.06 LIG 0.04  C 
BRANCH 56 57
ATOM     57  CG  ARG D   1      -4.728   8.625   0.845  1.00 22.89 LIG 0.02  C 
BRANCH 57 58
ATOM     58  CD  ARG D   1      -4.542   7.168   1.249  1.00 26.83 LIG 0.14  C 
BRANCH 58 59
ATOM     59  NE  ARG D   1      -5.218   6.855   2.502  1.00 30.01 LIG-0.23  N 
ATOM     60  CZ  ARG D   1      -6.232   6.002   2.601  1.00 33.71 LIG 0.67  C 
ATOM     61  NH1 ARG D   1      -6.684   5.388   1.516  1.00 32.13 LIG-0.23  N 
ATOM     62  NH2 ARG D   1      -6.795   5.762   3.781  1.00 33.53 LIG-0.23  N 
ATOM     63 1HH1 ARG D   1      -6.321   5.542   0.752  1.00 32.13 LIG 0.17  HD
ATOM     64 2HH1 ARG D   1      -7.340   4.835   1.576  1.00 32.13 LIG 0.17  HD
ATOM     65 1HH2 ARG D   1      -6.504   6.159   4.486  1.00 33.53 LIG 0.17  HD
ATOM     66 2HH2 ARG D   1      -7.451   5.208   3.840  1.00 33.53 LIG 0.17  HD
ATOM     67 HE   ARG D   1      -4.944   7.245   3.218  1.00 30.01 LIG 0.18  HD
ENDBRANCH 58 59
ENDBRANCH 57 58
ENDBRANCH 56 57
ENDBRANCH 51 56
ENDBRANCH 48 51
ENDBRANCH 46 47
BRANCH 46 68
ATOM     68  CB  VAL D   2      -6.542   7.678  -5.197  1.00 15.28 LIG 0.01  C 
ATOM     69  CG2 VAL D   2      -5.343   8.604  -5.246  1.00 14.68 LIG 0.01  C 
ATOM     70  CG1 VAL D   2      -7.115   7.425  -6.593  1.00 13.75 LIG 0.01  C 
ENDBRANCH 46 68
ENDBRANCH 43 46
ENDBRANCH 41 42
BRANCH 41 71
ATOM     71  CB  LEU D   3     -11.896   7.268  -3.254  1.00 15.85 LIG 0.04  C 
BRANCH 71 72
ATOM     72  CG  LEU D   3     -11.720   8.311  -2.146  1.00 19.10 LIG-0.02  C 
ATOM     73  CD2 LEU D   3     -11.752   9.729  -2.694  1.00 16.59 LIG 0.01  C 
ATOM     74  CD1 LEU D   3     -10.410   8.038  -1.407  1.00 21.08 LIG 0.01  C 
ENDBRANCH 71 72
ENDBRANCH 41 71
ENDBRANCH 1 41
TORSDOF 29
ENDMDL
MODEL 15
USER: ADFR SOLUTION from run 168
USER: SCORE 24.829445 LL:  -6.002 LR: -21.219 RR:   0.000 FEB: -12.568
USER: RMSD 2.122106
USER: SEED 167
USER: STATUS no improvement in best in 2 clusters for 5 generations
USER: GENES 31
USER: genes 0 Translation |==|  0.50923 0.56771 0.38308
USER: genes 1 Rotation |==|  0.06100 0.62718 0.32263 0.59821
USER: genes 2 Torsion [C]-N--CA-[CB] |==|  0.87214
USER: genes 3 Torsion [N]-CA--CB-[CG] |==|  0.37989
USER: genes 4 Torsion [CA]-CB--CG-[CD1] |==|  0.21907
USER: genes 5 Torsion [N]-CA--C-[N] |==|  0.36111
USER: genes 6 Torsion [C]-N--CA-[C] |==|  0.61821
USER: genes 7 Torsion [N]-CA--CB-[CG] |==|  0.30801
USER: genes 8 Torsion [CA]-CB--CG-[CD] |==|  0.78311
USER: genes 9 Torsion [CB]-CG--CD-[OE1] |==|  0.33723
USER: genes 10 Torsion [N]-CA--C-[N] |==|  0.44012
USER: genes 11 Torsion [C]-N--CA-[CB] |==|  0.24805
USER: genes 12 Torsion [N]-CA--C-[N] |==|  0.41925
USER: genes 13 Torsion [C]-N--CA-[CB] |==|  0.38637
USER: genes 14 Torsion [N]-CA--C-[OXT] |==|  0.32378
USER: genes 15 Torsion [N]-CA--CB-[CG] |==|  0.60569
USER: genes 16 Torsion [CA]-CB--CG-[SD] |==|  0.07198
USER: genes 17 Torsion [CB]-CG--SD-[CE] |==|  0.44515
USER: genes 18 Torsion [N]-C--CA-[N] |==|  0.69403
USER: genes 19 Torsion [C]-CA--N-[C] |==|  0.16475
USER: genes 20 Torsion [N]-C--CA-[N] |==|  0.90471
USER: genes 21 Torsion [C]-CA--N-[C] |==|  0.68891
USER: genes 22 Torsion [N]-C--CA-[N] |==|  0.48237
USER: genes 23 Torsion [C]-CA--N-[H1] |==|  0.65471
USER: genes 24 Torsion [C]-CA--CB-[CG] |==|  0.74156
USER: genes 25 Torsion [CA]-CB--CG-[CD] |==|  0.27633
USER: genes 26 Torsion [CB]-CG--CD-[NE] |==|  0.65415
USER: genes 27 Torsion [CG]-CD--NE-[CZ] |==|  0.45617
USER: genes 28 Torsion [C]-CA--CB-[CG2] |==|  0.04205
USER: genes 29 Torsion [C]-CA--CB-[CG] |==|  0.25490
USER: genes 30 Torsion [CA]-CB--CG-[CD2] |==|  0.70652
ROOT
ATOM      1  C   LEU D   3     -14.670   9.471  -8.782  1.00 15.92 LIG 0.24  C 
ATOM      2 O    LEU D   3     -13.751  10.279  -8.910  1.00 19.39 LIG-0.27  OA
ATOM      3  N   PHE D   4     -14.544   8.363  -8.064  1.00 13.65 LIG-0.35  N 
ATOM      4 H    PHE D   4     -15.204   7.902  -7.762  1.00 13.65 LIG 0.16  HD
ENDROOT
BRANCH 3 5
ATOM      5  CA  PHE D   4     -13.238   7.844  -7.734  1.00 13.25 LIG 0.18  C 
BRANCH 5 6
ATOM      6  CB  PHE D   4     -12.359   7.860  -8.995  1.00 13.20 LIG 0.07  C 
BRANCH 6 7
ATOM      7  CG  PHE D   4     -10.975   8.346  -8.756  1.00 13.63 LIG-0.06  A 
ATOM      8  CD1 PHE D   4     -10.021   7.508  -8.191  1.00 13.10 LIG 0.01  A 
ATOM      9  CE1 PHE D   4      -8.722   7.955  -7.992  1.00 15.10 LIG 0.00  A 
ATOM     10  CZ  PHE D   4      -8.364   9.246  -8.378  1.00 15.27 LIG 0.00  A 
ATOM     11  CE2 PHE D   4      -9.312  10.074  -8.971  1.00 13.31 LIG 0.00  A 
ATOM     12  CD2 PHE D   4     -10.606   9.624  -9.138  1.00 12.44 LIG 0.01  A 
ENDBRANCH 6 7
ENDBRANCH 5 6
BRANCH 5 13
ATOM     13  C   PHE D   4     -12.654   8.735  -6.638  1.00 14.19 LIG 0.24  C 
ATOM     14 O    PHE D   4     -12.748   9.957  -6.714  1.00 15.09 LIG-0.27  OA
ATOM     15  N   GLU D   5     -12.165   8.135  -5.562  1.00 15.42 LIG-0.35  N 
ATOM     16 H    GLU D   5     -12.209   7.289  -5.413  1.00 15.42 LIG 0.16  HD
BRANCH 15 17
ATOM     17  CA  GLU D   5     -11.496   8.903  -4.526  1.00 15.66 LIG 0.18  C 
BRANCH 17 18
ATOM     18  CB  GLU D   5     -12.441   9.164  -3.343  1.00 15.74 LIG 0.04  C 
BRANCH 18 19
ATOM     19  CG  GLU D   5     -12.082   8.427  -2.070  1.00 13.49 LIG 0.12  C 
BRANCH 19 20
ATOM     20  CD  GLU D   5     -12.498   6.967  -2.106  1.00 17.86 LIG 0.17  C 
ATOM     21 OE1  GLU D   5     -11.610   6.098  -1.960  1.00 19.55 LIG-0.65  OA
ATOM     22 OE2  GLU D   5     -13.716   6.682  -2.216  1.00 19.96 LIG-0.65  OA
ENDBRANCH 19 20
ENDBRANCH 18 19
ENDBRANCH 17 18
BRANCH 17 23
ATOM     23  C   GLU D   5     -10.256   8.147  -4.083  1.00 17.50 LIG 0.24  C 
ATOM     24 O    GLU D   5     -10.147   6.940  -4.302  1.00 17.10 LIG-0.27  OA
ATOM     25  N   ALA D   6      -9.309   8.867  -3.492  1.00 19.03 LIG-0.35  N 
ATOM     26 H    ALA D   6      -9.370   9.710  -3.339  1.00 19.03 LIG 0.16  HD
BRANCH 25 27
ATOM     27  CA  ALA D   6      -8.062   8.261  -3.049  1.00 21.37 LIG 0.17  C 
ATOM     28  CB  ALA D   6      -7.036   8.299  -4.159  1.00 21.30 LIG 0.04  C 
BRANCH 27 29
ATOM     29  C   ALA D   6      -7.548   9.003  -1.826  1.00 24.24 LIG 0.24  C 
ATOM     30 O    ALA D   6      -7.806  10.195  -1.654  1.00 22.56 LIG-0.27  OA
ATOM     31  N   MET D   7      -6.825   8.287  -0.974  1.00 27.55 LIG-0.34  N 
ATOM     32 H    MET D   7      -6.562   7.482  -1.124  1.00 27.55 LIG 0.16  HD
BRANCH 31 33
ATOM     33  CA  MET D   7      -6.411   8.824   0.317  1.00 30.72 LIG 0.19  C 
BRANCH 33 34
ATOM     34  C   MET D   7      -4.979   9.329   0.216  1.00 33.25 LIG 0.20  C 
ATOM     35 O    MET D   7      -4.049   8.527   0.059  1.00 35.29 LIG-0.65  OA
ATOM     36 OXT  MET D   7      -4.711  10.529   0.377  1.00 35.43 LIG-0.65  OA
ENDBRANCH 33 34
BRANCH 33 37
ATOM     37  CB  MET D   7      -6.548   7.749   1.400  1.00 30.73 LIG 0.05  C 
BRANCH 37 38
ATOM     38  CG  MET D   7      -7.036   8.234   2.751  1.00 32.79 LIG 0.08  C 
BRANCH 38 39
ATOM     39 SD   MET D   7      -8.021   9.726   2.602  1.00 33.89 LIG-0.17  SA
ATOM     40  CE  MET D   7      -8.924   9.727   4.149  1.00 31.39 LIG 0.09  C 
ENDBRANCH 38 39
ENDBRANCH 37 38
ENDBRANCH 33 37
ENDBRANCH 31 33
ENDBRANCH 27 29
ENDBRANCH 25 27
ENDBRANCH 17 23
ENDBRANCH 15 17
ENDBRANCH 5 13
ENDBRANCH 3 5
BRANCH 1 41
ATOM     41  CA  LEU D   3     -16.006   9.675  -9.494  1.00 16.32 LIG 0.18  C 
BRANCH 41 42
ATOM     42  N   LEU D   3     -15.902   9.546 -10.942  1.00 16.05 LIG-0.35  N 
ATOM     43  C   VAL D   2     -15.467   8.420 -11.505  1.00 15.61 LIG 0.24  C 
ATOM     44 O    VAL D   2     -15.047   7.466 -10.848  1.00 16.79 LIG-0.27  OA
ATOM     45 H    LEU D   3     -16.140  10.245 -11.383  1.00 16.05 LIG 0.16  HD
BRANCH 43 46
ATOM     46  CA  VAL D   2     -15.342   8.425 -13.020  1.00 14.78 LIG 0.18  C 
BRANCH 46 47
ATOM     47  N   VAL D   2     -16.413   9.257 -13.550  1.00 14.77 LIG-0.35  N 
ATOM     48  C   ARG D   1     -17.411   8.735 -14.250  1.00 16.50 LIG 0.25  C 
ATOM     49 O    ARG D   1     -17.528   7.524 -14.462  1.00 16.49 LIG-0.27  OA
ATOM     50 H    VAL D   2     -16.338  10.095 -13.369  1.00 14.77 LIG 0.16  HD
BRANCH 48 51
ATOM     51  CA  ARG D   1     -18.489   9.697 -14.682  1.00 17.64 LIG 0.27  C 
BRANCH 51 52
ATOM     52  N   ARG D   1     -19.437   8.983 -15.577  1.00 17.90 LIG-0.07  N 
ATOM     53 H3   ARG D   1     -20.238   8.947 -15.192  1.00 17.90 LIG 0.28  HD
ATOM     54 H2   ARG D   1     -19.141   8.156 -15.723  1.00 17.90 LIG 0.28  HD
ATOM     55 H1   ARG D   1     -19.499   9.417 -16.351  1.00 17.90 LIG 0.28  HD
ENDBRANCH 51 52
BRANCH 51 56
ATOM     56  CB  ARG D   1     -19.191  10.215 -13.419  1.00 19.06 LIG 0.04  C 
BRANCH 56 57
ATOM     57  CG  ARG D   1     -20.418   9.463 -12.983  1.00 22.89 LIG 0.02  C 
BRANCH 57 58
ATOM     58  CD  ARG D   1     -20.037   8.510 -11.857  1.00 26.83 LIG 0.14  C 
BRANCH 58 59
ATOM     59  NE  ARG D   1     -20.403   7.132 -12.157  1.00 30.01 LIG-0.23  N 
ATOM     60  CZ  ARG D   1     -19.925   6.080 -11.498  1.00 33.71 LIG 0.67  C 
ATOM     61  NH1 ARG D   1     -19.058   6.261 -10.511  1.00 32.13 LIG-0.23  N 
ATOM     62  NH2 ARG D   1     -20.310   4.851 -11.825  1.00 33.53 LIG-0.23  N 
ATOM     63 1HH1 ARG D   1     -18.808   7.055 -10.299  1.00 32.13 LIG 0.17  HD
ATOM     64 2HH1 ARG D   1     -18.746   5.583 -10.083  1.00 32.13 LIG 0.17  HD
ATOM     65 1HH2 ARG D   1     -20.872   4.732 -12.465  1.00 33.53 LIG 0.17  HD
ATOM     66 2HH2 ARG D   1     -19.998   4.174 -11.396  1.00 33.53 LIG 0.17  HD
ATOM     67 HE   ARG D   1     -20.961   6.991 -12.796  1.00 30.01 LIG 0.18  HD
ENDBRANCH 58 59
ENDBRANCH 57 58
ENDBRANCH 56 57
ENDBRANCH 51 56
ENDBRANCH 48 51
ENDBRANCH 46 47
BRANCH 46 68
ATOM     68  CB  VAL D   2     -13.970   8.995 -13.440  1.00 15.28 LIG 0.01  C 
ATOM     69  CG2 VAL D   2     -13.034   9.028 -12.249  1.00 14.68 LIG 0.01  C 
ATOM     70  CG1 VAL D   2     -14.106  10.374 -14.087  1.00 13.75 LIG 0.01  C 
ENDBRANCH 46 68
ENDBRANCH 43 46
ENDBRANCH 41 42
BRANCH 41 71
ATOM     71  CB  LEU D   3     -17.066   8.722  -8.932  1.00 15.85 LIG 0.04  C 
BRANCH 71 72
ATOM     72  CG  LEU D   3     -17.922   9.250  -7.777  1.00 19.10 LIG-0.02  C 
ATOM     73  CD2 LEU D   3     -17.521   8.632  -6.447  1.00 16.59 LIG 0.01  C 
ATOM     74  CD1 LEU D   3     -19.395   8.983  -8.084  1.00 21.08 LIG 0.01  C 
ENDBRANCH 71 72
ENDBRANCH 41 71
ENDBRANCH 1 41
TORSDOF 29
ENDMDL
MODEL 16
USER: ADFR SOLUTION from run 126
USER: SCORE 25.341004 LL:  -5.606 LR: -21.195 RR:   0.000 FEB: -12.544
USER: RMSD 14.114648
USER: SEED 125
USER: STATUS no improvement in best in 8 clusters for 5 generations
USER: GENES 31
USER: genes 0 Translation |==|  0.58529 0.41706 0.37561
USER: genes 1 Rotation |==|  0.61818 0.04332 0.33445 0.50835
USER: genes 2 Torsion [C]-N--CA-[CB] |==|  0.53333
USER: genes 3 Torsion [N]-CA--CB-[CG] |==|  0.31059
USER: genes 4 Torsion [CA]-CB--CG-[CD1] |==|  0.25168
USER: genes 5 Torsion [N]-CA--C-[N] |==|  0.40255
USER: genes 6 Torsion [C]-N--CA-[C] |==|  0.62482
USER: genes 7 Torsion [N]-CA--CB-[CG] |==|  0.39395
USER: genes 8 Torsion [CA]-CB--CG-[CD] |==|  0.66323
USER: genes 9 Torsion [CB]-CG--CD-[OE1] |==|  0.68975
USER: genes 10 Torsion [N]-CA--C-[N] |==|  0.34286
USER: genes 11 Torsion [C]-N--CA-[CB] |==|  0.19471
USER: genes 12 Torsion [N]-CA--C-[N] |==|  0.10642
USER: genes 13 Torsion [C]-N--CA-[CB] |==|  0.82786
USER: genes 14 Torsion [N]-CA--C-[OXT] |==|  0.08439
USER: genes 15 Torsion [N]-CA--CB-[CG] |==|  0.89443
USER: genes 16 Torsion [CA]-CB--CG-[SD] |==|  0.85360
USER: genes 17 Torsion [CB]-CG--SD-[CE] |==|  0.33773
USER: genes 18 Torsion [N]-C--CA-[N] |==|  0.08286
USER: genes 19 Torsion [C]-CA--N-[C] |==|  0.66493
USER: genes 20 Torsion [N]-C--CA-[N] |==|  0.30822
USER: genes 21 Torsion [C]-CA--N-[C] |==|  0.65606
USER: genes 22 Torsion [N]-C--CA-[N] |==|  0.90480
USER: genes 23 Torsion [C]-CA--N-[H1] |==|  0.93248
USER: genes 24 Torsion [C]-CA--CB-[CG] |==|  0.54833
USER: genes 25 Torsion [CA]-CB--CG-[CD] |==|  0.74090
USER: genes 26 Torsion [CB]-CG--CD-[NE] |==|  0.87233
USER: genes 27 Torsion [CG]-CD--NE-[CZ] |==|  0.37274
USER: genes 28 Torsion [C]-CA--CB-[CG2] |==|  0.48146
USER: genes 29 Torsion [C]-CA--CB-[CG] |==|  0.32958
USER: genes 30 Torsion [CA]-CB--CG-[CD2] |==|  0.60984
ROOT
ATOM      1  C   LEU D   3     -12.502   7.551  -8.995  1.00 15.92 LIG 0.24  C 
ATOM      2 O    LEU D   3     -12.333   7.492 -10.212  1.00 19.39 LIG-0.27  OA
ATOM      3  N   PHE D   4     -13.569   7.030  -8.403  1.00 13.65 LIG-0.35  N 
ATOM      4 H    PHE D   4     -13.618   6.844  -7.565  1.00 13.65 LIG 0.16  HD
ENDROOT
BRANCH 3 5
ATOM      5  CA  PHE D   4     -14.760   6.732  -9.162  1.00 13.25 LIG 0.18  C 
BRANCH 5 6
ATOM      6  CB  PHE D   4     -15.912   6.432  -8.190  1.00 13.20 LIG 0.07  C 
BRANCH 6 7
ATOM      7  CG  PHE D   4     -16.984   7.461  -8.192  1.00 13.63 LIG-0.06  A 
ATOM      8  CD1 PHE D   4     -18.073   7.345  -9.048  1.00 13.10 LIG 0.01  A 
ATOM      9  CE1 PHE D   4     -19.085   8.294  -9.031  1.00 15.10 LIG 0.00  A 
ATOM     10  CZ  PHE D   4     -19.023   9.362  -8.138  1.00 15.27 LIG 0.00  A 
ATOM     11  CE2 PHE D   4     -17.948   9.462  -7.261  1.00 13.31 LIG 0.00  A 
ATOM     12  CD2 PHE D   4     -16.935   8.525  -7.307  1.00 12.44 LIG 0.01  A 
ENDBRANCH 6 7
ENDBRANCH 5 6
BRANCH 5 13
ATOM     13  C   PHE D   4     -15.068   7.952 -10.029  1.00 14.19 LIG 0.24  C 
ATOM     14 O    PHE D   4     -14.740   9.076  -9.661  1.00 15.09 LIG-0.27  OA
ATOM     15  N   GLU D   5     -15.583   7.731 -11.231  1.00 15.42 LIG-0.35  N 
ATOM     16 H    GLU D   5     -15.696   6.951 -11.576  1.00 15.42 LIG 0.16  HD
BRANCH 15 17
ATOM     17  CA  GLU D   5     -16.003   8.838 -12.072  1.00 15.66 LIG 0.18  C 
BRANCH 17 18
ATOM     18  CB  GLU D   5     -14.964   9.116 -13.169  1.00 15.74 LIG 0.04  C 
BRANCH 18 19
ATOM     19  CG  GLU D   5     -15.546   9.495 -14.514  1.00 13.49 LIG 0.12  C 
BRANCH 19 20
ATOM     20  CD  GLU D   5     -15.121   8.544 -15.619  1.00 17.86 LIG 0.17  C 
ATOM     21 OE1  GLU D   5     -14.354   8.978 -16.507  1.00 19.55 LIG-0.65  OA
ATOM     22 OE2  GLU D   5     -15.497   7.347 -15.571  1.00 19.96 LIG-0.65  OA
ENDBRANCH 19 20
ENDBRANCH 18 19
ENDBRANCH 17 18
BRANCH 17 23
ATOM     23  C   GLU D   5     -17.359   8.508 -12.671  1.00 17.50 LIG 0.24  C 
ATOM     24 O    GLU D   5     -17.526   7.466 -13.307  1.00 17.10 LIG-0.27  OA
ATOM     25  N   ALA D   6     -18.333   9.379 -12.436  1.00 19.03 LIG-0.35  N 
ATOM     26 H    ALA D   6     -18.231  10.106 -11.988  1.00 19.03 LIG 0.16  HD
BRANCH 25 27
ATOM     27  CA  ALA D   6     -19.683   9.159 -12.932  1.00 21.37 LIG 0.17  C 
ATOM     28  CB  ALA D   6     -20.336   8.016 -12.188  1.00 21.30 LIG 0.04  C 
BRANCH 27 29
ATOM     29  C   ALA D   6     -20.495  10.433 -12.765  1.00 24.24 LIG 0.24  C 
ATOM     30 O    ALA D   6     -21.677  10.390 -12.424  1.00 22.56 LIG-0.27  OA
ATOM     31  N   MET D   7     -19.849  11.569 -13.000  1.00 27.55 LIG-0.34  N 
ATOM     32 H    MET D   7     -19.053  11.611 -13.325  1.00 27.55 LIG 0.16  HD
BRANCH 31 33
ATOM     33  CA  MET D   7     -20.453  12.865 -12.719  1.00 30.72 LIG 0.19  C 
BRANCH 33 34
ATOM     34  C   MET D   7     -20.772  12.961 -11.235  1.00 33.25 LIG 0.20  C 
ATOM     35 O    MET D   7     -21.677  13.711 -10.844  1.00 35.29 LIG-0.65  OA
ATOM     36 OXT  MET D   7     -20.085  12.366 -10.392  1.00 35.43 LIG-0.65  OA
ENDBRANCH 33 34
BRANCH 33 37
ATOM     37  CB  MET D   7     -21.712  13.052 -13.574  1.00 30.73 LIG 0.05  C 
BRANCH 37 38
ATOM     38  CG  MET D   7     -21.634  12.511 -14.987  1.00 32.79 LIG 0.08  C 
BRANCH 38 39
ATOM     39 SD   MET D   7     -20.192  13.134 -15.856  1.00 33.89 LIG-0.17  SA
ATOM     40  CE  MET D   7     -19.341  11.618 -16.289  1.00 31.39 LIG 0.09  C 
ENDBRANCH 38 39
ENDBRANCH 37 38
ENDBRANCH 33 37
ENDBRANCH 31 33
ENDBRANCH 27 29
ENDBRANCH 25 27
ENDBRANCH 17 23
ENDBRANCH 15 17
ENDBRANCH 5 13
ENDBRANCH 3 5
BRANCH 1 41
ATOM     41  CA  LEU D   3     -11.509   8.279  -8.092  1.00 16.32 LIG 0.18  C 
BRANCH 41 42
ATOM     42  N   LEU D   3     -11.478   7.744  -6.737  1.00 16.05 LIG-0.35  N 
ATOM     43  C   VAL D   2     -11.762   8.511  -5.686  1.00 15.61 LIG 0.24  C 
ATOM     44 O    VAL D   2     -11.975   9.721  -5.782  1.00 16.79 LIG-0.27  OA
ATOM     45 H    LEU D   3     -11.265   6.913  -6.684  1.00 16.05 LIG 0.16  HD
BRANCH 43 46
ATOM     46  CA  VAL D   2     -11.635   7.860  -4.318  1.00 14.78 LIG 0.18  C 
BRANCH 46 47
ATOM     47  N   VAL D   2     -10.498   8.468  -3.642  1.00 14.77 LIG-0.35  N 
ATOM     48  C   ARG D   1      -9.493   7.734  -3.185  1.00 16.50 LIG 0.25  C 
ATOM     49 O    ARG D   1      -9.426   6.510  -3.335  1.00 16.49 LIG-0.27  OA
ATOM     50 H    VAL D   2     -10.540   9.325  -3.572  1.00 14.77 LIG 0.16  HD
BRANCH 48 51
ATOM     51  CA  ARG D   1      -8.347   8.495  -2.565  1.00 17.64 LIG 0.27  C 
BRANCH 51 52
ATOM     52  N   ARG D   1      -8.180   9.781  -3.290  1.00 17.90 LIG-0.07  N 
ATOM     53 H3   ARG D   1      -7.315   9.986  -3.337  1.00 17.90 LIG 0.28  HD
ATOM     54 H2   ARG D   1      -8.614  10.426  -2.855  1.00 17.90 LIG 0.28  HD
ATOM     55 H1   ARG D   1      -8.511   9.704  -4.112  1.00 17.90 LIG 0.28  HD
ENDBRANCH 51 52
BRANCH 51 56
ATOM     56  CB  ARG D   1      -8.682   8.723  -1.084  1.00 19.06 LIG 0.04  C 
BRANCH 56 57
ATOM     57  CG  ARG D   1      -7.891   9.790  -0.380  1.00 22.89 LIG 0.02  C 
BRANCH 57 58
ATOM     58  CD  ARG D   1      -6.686   9.147   0.295  1.00 26.83 LIG 0.14  C 
BRANCH 58 59
ATOM     59  NE  ARG D   1      -7.045   7.934   1.019  1.00 30.01 LIG-0.23  N 
ATOM     60  CZ  ARG D   1      -6.356   6.799   0.946  1.00 33.71 LIG 0.67  C 
ATOM     61  NH1 ARG D   1      -5.279   6.731   0.175  1.00 32.13 LIG-0.23  N 
ATOM     62  NH2 ARG D   1      -6.741   5.734   1.642  1.00 33.53 LIG-0.23  N 
ATOM     63 1HH1 ARG D   1      -5.029   7.419  -0.275  1.00 32.13 LIG 0.17  HD
ATOM     64 2HH1 ARG D   1      -4.831   5.999   0.126  1.00 32.13 LIG 0.17  HD
ATOM     65 1HH2 ARG D   1      -7.439   5.776   2.143  1.00 33.53 LIG 0.17  HD
ATOM     66 2HH2 ARG D   1      -6.292   5.002   1.592  1.00 33.53 LIG 0.17  HD
ATOM     67 HE   ARG D   1      -7.742   7.954   1.522  1.00 30.01 LIG 0.18  HD
ENDBRANCH 58 59
ENDBRANCH 57 58
ENDBRANCH 56 57
ENDBRANCH 51 56
ENDBRANCH 48 51
ENDBRANCH 46 47
BRANCH 46 68
ATOM     68  CB  VAL D   2     -12.923   8.087  -3.497  1.00 15.28 LIG 0.01  C 
ATOM     69  CG2 VAL D   2     -12.861   7.301  -2.203  1.00 14.68 LIG 0.01  C 
ATOM     70  CG1 VAL D   2     -14.175   7.742  -4.305  1.00 13.75 LIG 0.01  C 
ENDBRANCH 46 68
ENDBRANCH 43 46
ENDBRANCH 41 42
BRANCH 41 71
ATOM     71  CB  LEU D   3     -10.110   8.276  -8.717  1.00 15.85 LIG 0.04  C 
BRANCH 71 72
ATOM     72  CG  LEU D   3      -9.501   9.643  -9.042  1.00 19.10 LIG-0.02  C 
ATOM     73  CD2 LEU D   3      -8.747   9.626 -10.363  1.00 16.59 LIG 0.01  C 
ATOM     74  CD1 LEU D   3      -8.586  10.069  -7.894  1.00 21.08 LIG 0.01  C 
ENDBRANCH 71 72
ENDBRANCH 41 71
ENDBRANCH 1 41
TORSDOF 29
ENDMDL
MODEL 17
USER: ADFR SOLUTION from run 76
USER: SCORE 24.119973 LL:  -6.435 LR: -21.174 RR:   0.000 FEB: -12.524
USER: RMSD 13.869554
USER: SEED 75
USER: STATUS 1 or 2 clusters left
USER: GENES 31
USER: genes 0 Translation |==|  0.57520 0.38584 0.41773
USER: genes 1 Rotation |==|  0.57847 0.88921 0.24314 0.66242
USER: genes 2 Torsion [C]-N--CA-[CB] |==|  0.19105
USER: genes 3 Torsion [N]-CA--CB-[CG] |==|  0.16694
USER: genes 4 Torsion [CA]-CB--CG-[CD1] |==|  0.73965
USER: genes 5 Torsion [N]-CA--C-[N] |==|  0.46667
USER: genes 6 Torsion [C]-N--CA-[C] |==|  0.63893
USER: genes 7 Torsion [N]-CA--CB-[CG] |==|  0.77388
USER: genes 8 Torsion [CA]-CB--CG-[CD] |==|  0.25850
USER: genes 9 Torsion [CB]-CG--CD-[OE1] |==|  0.97050
USER: genes 10 Torsion [N]-CA--C-[N] |==|  0.08579
USER: genes 11 Torsion [C]-N--CA-[CB] |==|  0.35244
USER: genes 12 Torsion [N]-CA--C-[N] |==|  0.28560
USER: genes 13 Torsion [C]-N--CA-[CB] |==|  0.31879
USER: genes 14 Torsion [N]-CA--C-[OXT] |==|  0.31264
USER: genes 15 Torsion [N]-CA--CB-[CG] |==|  0.90674
USER: genes 16 Torsion [CA]-CB--CG-[SD] |==|  0.26011
USER: genes 17 Torsion [CB]-CG--SD-[CE] |==|  0.07470
USER: genes 18 Torsion [N]-C--CA-[N] |==|  0.41502
USER: genes 19 Torsion [C]-CA--N-[C] |==|  0.76477
USER: genes 20 Torsion [N]-C--CA-[N] |==|  0.22416
USER: genes 21 Torsion [C]-CA--N-[C] |==|  0.67027
USER: genes 22 Torsion [N]-C--CA-[N] |==|  0.84259
USER: genes 23 Torsion [C]-CA--N-[H1] |==|  0.68487
USER: genes 24 Torsion [C]-CA--CB-[CG] |==|  0.44756
USER: genes 25 Torsion [CA]-CB--CG-[CD] |==|  0.76953
USER: genes 26 Torsion [CB]-CG--CD-[NE] |==|  0.84690
USER: genes 27 Torsion [CG]-CD--NE-[CZ] |==|  0.80964
USER: genes 28 Torsion [C]-CA--CB-[CG2] |==|  0.55290
USER: genes 29 Torsion [C]-CA--CB-[CG] |==|  0.22545
USER: genes 30 Torsion [CA]-CB--CG-[CD2] |==|  0.68252
ROOT
ATOM      1  C   LEU D   3     -12.790   7.152  -7.795  1.00 15.92 LIG 0.24  C 
ATOM      2 O    LEU D   3     -13.002   5.992  -7.447  1.00 19.39 LIG-0.27  OA
ATOM      3  N   PHE D   4     -13.536   7.766  -8.704  1.00 13.65 LIG-0.35  N 
ATOM      4 H    PHE D   4     -13.574   8.620  -8.806  1.00 13.65 LIG 0.16  HD
ENDROOT
BRANCH 3 5
ATOM      5  CA  PHE D   4     -14.361   7.008  -9.613  1.00 13.25 LIG 0.18  C 
BRANCH 5 6
ATOM      6  CB  PHE D   4     -15.508   6.357  -8.825  1.00 13.20 LIG 0.07  C 
BRANCH 6 7
ATOM      7  CG  PHE D   4     -16.390   7.333  -8.132  1.00 13.63 LIG-0.06  A 
ATOM      8  CD1 PHE D   4     -16.154   7.680  -6.807  1.00 13.10 LIG 0.01  A 
ATOM      9  CE1 PHE D   4     -16.963   8.611  -6.170  1.00 15.10 LIG 0.00  A 
ATOM     10  CZ  PHE D   4     -18.008   9.216  -6.865  1.00 15.27 LIG 0.00  A 
ATOM     11  CE2 PHE D   4     -18.225   8.890  -8.200  1.00 13.31 LIG 0.00  A 
ATOM     12  CD2 PHE D   4     -17.429   7.944  -8.813  1.00 12.44 LIG 0.01  A 
ENDBRANCH 6 7
ENDBRANCH 5 6
BRANCH 5 13
ATOM     13  C   PHE D   4     -14.891   7.978 -10.668  1.00 14.19 LIG 0.24  C 
ATOM     14 O    PHE D   4     -14.677   9.183 -10.569  1.00 15.09 LIG-0.27  OA
ATOM     15  N   GLU D   5     -15.471   7.455 -11.740  1.00 15.42 LIG-0.35  N 
ATOM     16 H    GLU D   5     -15.513   6.613 -11.908  1.00 15.42 LIG 0.16  HD
BRANCH 15 17
ATOM     17  CA  GLU D   5     -16.096   8.310 -12.735  1.00 15.66 LIG 0.18  C 
BRANCH 17 18
ATOM     18  CB  GLU D   5     -15.254   8.359 -14.019  1.00 15.74 LIG 0.04  C 
BRANCH 18 19
ATOM     19  CG  GLU D   5     -14.085   9.321 -13.975  1.00 13.49 LIG 0.12  C 
BRANCH 19 20
ATOM     20  CD  GLU D   5     -12.797   8.651 -13.529  1.00 17.86 LIG 0.17  C 
ATOM     21 OE1  GLU D   5     -12.867   7.491 -13.064  1.00 19.55 LIG-0.65  OA
ATOM     22 OE2  GLU D   5     -11.708   9.251 -13.700  1.00 19.96 LIG-0.65  OA
ENDBRANCH 19 20
ENDBRANCH 18 19
ENDBRANCH 17 18
BRANCH 17 23
ATOM     23  C   GLU D   5     -17.495   7.790 -13.014  1.00 17.50 LIG 0.24  C 
ATOM     24 O    GLU D   5     -17.992   7.900 -14.136  1.00 17.10 LIG-0.27  OA
ATOM     25  N   ALA D   6     -18.112   7.191 -12.002  1.00 19.03 LIG-0.35  N 
ATOM     26 H    ALA D   6     -17.773   7.102 -11.217  1.00 19.03 LIG 0.16  HD
BRANCH 25 27
ATOM     27  CA  ALA D   6     -19.444   6.626 -12.154  1.00 21.37 LIG 0.17  C 
ATOM     28  CB  ALA D   6     -19.456   5.182 -11.703  1.00 21.30 LIG 0.04  C 
BRANCH 27 29
ATOM     29  C   ALA D   6     -20.434   7.444 -11.340  1.00 24.24 LIG 0.24  C 
ATOM     30 O    ALA D   6     -20.501   7.322 -10.117  1.00 22.56 LIG-0.27  OA
ATOM     31  N   MET D   7     -21.196   8.285 -12.029  1.00 27.55 LIG-0.34  N 
ATOM     32 H    MET D   7     -21.223   8.316 -12.888  1.00 27.55 LIG 0.16  HD
BRANCH 31 33
ATOM     33  CA  MET D   7     -22.067   9.247 -11.364  1.00 30.72 LIG 0.19  C 
BRANCH 33 34
ATOM     34  C   MET D   7     -23.501   9.030 -11.825  1.00 33.25 LIG 0.20  C 
ATOM     35 O    MET D   7     -23.839   9.358 -12.970  1.00 35.29 LIG-0.65  OA
ATOM     36 OXT  MET D   7     -24.367   8.610 -11.044  1.00 35.43 LIG-0.65  OA
ENDBRANCH 33 34
BRANCH 33 37
ATOM     37  CB  MET D   7     -21.595  10.674 -11.661  1.00 30.73 LIG 0.05  C 
BRANCH 37 38
ATOM     38  CG  MET D   7     -20.098  10.854 -11.811  1.00 32.79 LIG 0.08  C 
BRANCH 38 39
ATOM     39 SD   MET D   7     -19.584  10.739 -13.526  1.00 33.89 LIG-0.17  SA
ATOM     40  CE  MET D   7     -21.066  11.257 -14.389  1.00 31.39 LIG 0.09  C 
ENDBRANCH 38 39
ENDBRANCH 37 38
ENDBRANCH 33 37
ENDBRANCH 31 33
ENDBRANCH 27 29
ENDBRANCH 25 27
ENDBRANCH 17 23
ENDBRANCH 15 17
ENDBRANCH 5 13
ENDBRANCH 3 5
BRANCH 1 41
ATOM     41  CA  LEU D   3     -11.612   7.944  -7.232  1.00 16.32 LIG 0.18  C 
BRANCH 41 42
ATOM     42  N   LEU D   3     -11.295   7.586  -5.854  1.00 16.05 LIG-0.35  N 
ATOM     43  C   VAL D   2     -11.939   8.145  -4.831  1.00 15.61 LIG 0.24  C 
ATOM     44 O    VAL D   2     -12.762   9.050  -4.976  1.00 16.79 LIG-0.27  OA
ATOM     45 H    LEU D   3     -10.673   6.999  -5.770  1.00 16.05 LIG 0.16  HD
BRANCH 43 46
ATOM     46  CA  VAL D   2     -11.480   7.740  -3.439  1.00 14.78 LIG 0.18  C 
BRANCH 46 47
ATOM     47  N   VAL D   2     -10.291   8.518  -3.122  1.00 14.77 LIG-0.35  N 
ATOM     48  C   ARG D   1      -9.125   7.932  -2.882  1.00 16.50 LIG 0.25  C 
ATOM     49 O    ARG D   1      -8.955   6.712  -2.953  1.00 16.49 LIG-0.27  OA
ATOM     50 H    VAL D   2     -10.414   9.370  -3.107  1.00 14.77 LIG 0.16  HD
BRANCH 48 51
ATOM     51  CA  ARG D   1      -7.960   8.857  -2.632  1.00 17.64 LIG 0.27  C 
BRANCH 51 52
ATOM     52  N   ARG D   1      -7.814   9.768  -3.797  1.00 17.90 LIG-0.07  N 
ATOM     53 H3   ARG D   1      -7.808  10.612  -3.515  1.00 17.90 LIG 0.28  HD
ATOM     54 H2   ARG D   1      -8.497   9.647  -4.356  1.00 17.90 LIG 0.28  HD
ATOM     55 H1   ARG D   1      -7.051   9.591  -4.219  1.00 17.90 LIG 0.28  HD
ENDBRANCH 51 52
BRANCH 51 56
ATOM     56  CB  ARG D   1      -8.247   9.636  -1.341  1.00 19.06 LIG 0.04  C 
BRANCH 56 57
ATOM     57  CG  ARG D   1      -7.062  10.275  -0.671  1.00 22.89 LIG 0.02  C 
BRANCH 57 58
ATOM     58  CD  ARG D   1      -6.359   9.232   0.187  1.00 26.83 LIG 0.14  C 
BRANCH 58 59
ATOM     59  NE  ARG D   1      -7.264   8.607   1.143  1.00 30.01 LIG-0.23  N 
ATOM     60  CZ  ARG D   1      -7.795   9.243   2.182  1.00 33.71 LIG 0.67  C 
ATOM     61  NH1 ARG D   1      -7.501  10.519   2.393  1.00 32.13 LIG-0.23  N 
ATOM     62  NH2 ARG D   1      -8.619   8.608   3.010  1.00 33.53 LIG-0.23  N 
ATOM     63 1HH1 ARG D   1      -6.969  10.931   1.858  1.00 32.13 LIG 0.17  HD
ATOM     64 2HH1 ARG D   1      -7.844  10.934   3.063  1.00 32.13 LIG 0.17  HD
ATOM     65 1HH2 ARG D   1      -8.811   7.781   2.875  1.00 33.53 LIG 0.17  HD
ATOM     66 2HH2 ARG D   1      -8.961   9.024   3.680  1.00 33.53 LIG 0.17  HD
ATOM     67 HE   ARG D   1      -7.465   7.779   1.028  1.00 30.01 LIG 0.18  HD
ENDBRANCH 58 59
ENDBRANCH 57 58
ENDBRANCH 56 57
ENDBRANCH 51 56
ENDBRANCH 48 51
ENDBRANCH 46 47
BRANCH 46 68
ATOM     68  CB  VAL D   2     -12.591   8.025  -2.407  1.00 15.28 LIG 0.01  C 
ATOM     69  CG2 VAL D   2     -12.004   8.074  -1.010  1.00 14.68 LIG 0.01  C 
ATOM     70  CG1 VAL D   2     -13.728   7.006  -2.505  1.00 13.75 LIG 0.01  C 
ENDBRANCH 46 68
ENDBRANCH 43 46
ENDBRANCH 41 42
BRANCH 41 71
ATOM     71  CB  LEU D   3     -10.382   7.796  -8.134  1.00 15.85 LIG 0.04  C 
BRANCH 71 72
ATOM     72  CG  LEU D   3     -10.331   8.691  -9.376  1.00 19.10 LIG-0.02  C 
ATOM     73  CD2 LEU D   3     -10.408   7.879 -10.660  1.00 16.59 LIG 0.01  C 
ATOM     74  CD1 LEU D   3      -9.056   9.531  -9.334  1.00 21.08 LIG 0.01  C 
ENDBRANCH 71 72
ENDBRANCH 41 71
ENDBRANCH 1 41
TORSDOF 29
ENDMDL
MODEL 18
USER: ADFR SOLUTION from run 108
USER: SCORE 24.742782 LL:  -5.997 LR: -21.074 RR:   0.000 FEB: -12.423
USER: RMSD 14.343171
USER: SEED 107
USER: STATUS 1 or 2 clusters left
USER: GENES 31
USER: genes 0 Translation |==|  0.46734 0.48213 0.37658
USER: genes 1 Rotation |==|  0.28830 0.73736 0.86836 0.61470
USER: genes 2 Torsion [C]-N--CA-[CB] |==|  0.88360
USER: genes 3 Torsion [N]-CA--CB-[CG] |==|  0.51704
USER: genes 4 Torsion [CA]-CB--CG-[CD1] |==|  0.06284
USER: genes 5 Torsion [N]-CA--C-[N] |==|  0.75838
USER: genes 6 Torsion [C]-N--CA-[C] |==|  0.12485
USER: genes 7 Torsion [N]-CA--CB-[CG] |==|  0.10466
USER: genes 8 Torsion [CA]-CB--CG-[CD] |==|  0.63776
USER: genes 9 Torsion [CB]-CG--CD-[OE1] |==|  0.90395
USER: genes 10 Torsion [N]-CA--C-[N] |==|  0.13889
USER: genes 11 Torsion [C]-N--CA-[CB] |==|  0.20515
USER: genes 12 Torsion [N]-CA--C-[N] |==|  0.55394
USER: genes 13 Torsion [C]-N--CA-[CB] |==|  0.89192
USER: genes 14 Torsion [N]-CA--C-[OXT] |==|  0.42589
USER: genes 15 Torsion [N]-CA--CB-[CG] |==|  0.50918
USER: genes 16 Torsion [CA]-CB--CG-[SD] |==|  0.68287
USER: genes 17 Torsion [CB]-CG--SD-[CE] |==|  0.96744
USER: genes 18 Torsion [N]-C--CA-[N] |==|  0.43320
USER: genes 19 Torsion [C]-CA--N-[C] |==|  0.66662
USER: genes 20 Torsion [N]-C--CA-[N] |==|  0.44481
USER: genes 21 Torsion [C]-CA--N-[C] |==|  0.58189
USER: genes 22 Torsion [N]-C--CA-[N] |==|  0.10955
USER: genes 23 Torsion [C]-CA--N-[H1] |==|  0.02356
USER: genes 24 Torsion [C]-CA--CB-[CG] |==|  0.25113
USER: genes 25 Torsion [CA]-CB--CG-[CD] |==|  0.53946
USER: genes 26 Torsion [CB]-CG--CD-[NE] |==|  0.57444
USER: genes 27 Torsion [CG]-CD--NE-[CZ] |==|  0.28187
USER: genes 28 Torsion [C]-CA--CB-[CG2] |==|  0.12332
USER: genes 29 Torsion [C]-CA--CB-[CG] |==|  0.07417
USER: genes 30 Torsion [CA]-CB--CG-[CD2] |==|  0.55348
ROOT
ATOM      1  C   LEU D   3     -15.864   8.380  -8.968  1.00 15.92 LIG 0.24  C 
ATOM      2 O    LEU D   3     -15.604   9.547  -9.256  1.00 19.39 LIG-0.27  OA
ATOM      3  N   PHE D   4     -16.565   7.592  -9.771  1.00 13.65 LIG-0.35  N 
ATOM      4 H    PHE D   4     -16.572   6.733  -9.725  1.00 13.65 LIG 0.16  HD
ENDROOT
BRANCH 3 5
ATOM      5  CA  PHE D   4     -17.392   8.151 -10.814  1.00 13.25 LIG 0.18  C 
BRANCH 5 6
ATOM      6  CB  PHE D   4     -18.131   9.381 -10.261  1.00 13.20 LIG 0.07  C 
BRANCH 6 7
ATOM      7  CG  PHE D   4     -19.125   9.957 -11.204  1.00 13.63 LIG-0.06  A 
ATOM      8  CD1 PHE D   4     -19.668   9.179 -12.220  1.00 13.10 LIG 0.01  A 
ATOM      9  CE1 PHE D   4     -20.616   9.712 -13.083  1.00 15.10 LIG 0.00  A 
ATOM     10  CZ  PHE D   4     -21.041  11.029 -12.922  1.00 15.27 LIG 0.00  A 
ATOM     11  CE2 PHE D   4     -20.519  11.798 -11.887  1.00 13.31 LIG 0.00  A 
ATOM     12  CD2 PHE D   4     -19.559  11.263 -11.052  1.00 12.44 LIG 0.01  A 
ENDBRANCH 6 7
ENDBRANCH 5 6
BRANCH 5 13
ATOM     13  C   PHE D   4     -16.473   8.530 -11.974  1.00 14.19 LIG 0.24  C 
ATOM     14 O    PHE D   4     -16.359   7.786 -12.944  1.00 15.09 LIG-0.27  OA
ATOM     15  N   GLU D   5     -15.915   9.732 -11.943  1.00 15.42 LIG-0.35  N 
ATOM     16 H    GLU D   5     -16.084  10.331 -11.349  1.00 15.42 LIG 0.16  HD
BRANCH 15 17
ATOM     17  CA  GLU D   5     -14.947  10.126 -12.951  1.00 15.66 LIG 0.18  C 
BRANCH 17 18
ATOM     18  CB  GLU D   5     -13.575   9.496 -12.666  1.00 15.74 LIG 0.04  C 
BRANCH 18 19
ATOM     19  CG  GLU D   5     -13.625   8.082 -12.127  1.00 13.49 LIG 0.12  C 
BRANCH 19 20
ATOM     20  CD  GLU D   5     -12.768   7.902 -10.886  1.00 17.86 LIG 0.17  C 
ATOM     21 OE1  GLU D   5     -11.702   8.552 -10.808  1.00 19.55 LIG-0.65  OA
ATOM     22 OE2  GLU D   5     -13.185   7.165  -9.959  1.00 19.96 LIG-0.65  OA
ENDBRANCH 19 20
ENDBRANCH 18 19
ENDBRANCH 17 18
BRANCH 17 23
ATOM     23  C   GLU D   5     -15.469   9.711 -14.316  1.00 17.50 LIG 0.24  C 
ATOM     24 O    GLU D   5     -14.766   9.052 -15.083  1.00 17.10 LIG-0.27  OA
ATOM     25  N   ALA D   6     -16.716  10.069 -14.600  1.00 19.03 LIG-0.35  N 
ATOM     26 H    ALA D   6     -17.219  10.523 -14.072  1.00 19.03 LIG 0.16  HD
BRANCH 25 27
ATOM     27  CA  ALA D   6     -17.339   9.706 -15.865  1.00 21.37 LIG 0.17  C 
ATOM     28  CB  ALA D   6     -17.691   8.235 -15.873  1.00 21.30 LIG 0.04  C 
BRANCH 27 29
ATOM     29  C   ALA D   6     -18.585  10.551 -16.073  1.00 24.24 LIG 0.24  C 
ATOM     30 O    ALA D   6     -18.743  11.608 -15.462  1.00 22.56 LIG-0.27  OA
ATOM     31  N   MET D   7     -19.465  10.080 -16.950  1.00 27.55 LIG-0.34  N 
ATOM     32 H    MET D   7     -19.411   9.304 -17.315  1.00 27.55 LIG 0.16  HD
BRANCH 31 33
ATOM     33  CA  MET D   7     -20.620  10.865 -17.370  1.00 30.72 LIG 0.19  C 
BRANCH 33 34
ATOM     34  C   MET D   7     -20.207  11.811 -18.488  1.00 33.25 LIG 0.20  C 
ATOM     35 O    MET D   7     -19.056  12.265 -18.521  1.00 35.29 LIG-0.65  OA
ATOM     36 OXT  MET D   7     -21.030  12.209 -19.325  1.00 35.43 LIG-0.65  OA
ENDBRANCH 33 34
BRANCH 33 37
ATOM     37  CB  MET D   7     -21.195  11.631 -16.174  1.00 30.73 LIG 0.05  C 
BRANCH 37 38
ATOM     38  CG  MET D   7     -22.452  12.432 -16.449  1.00 32.79 LIG 0.08  C 
BRANCH 38 39
ATOM     39 SD   MET D   7     -22.163  14.196 -16.284  1.00 33.89 LIG-0.17  SA
ATOM     40  CE  MET D   7     -20.549  14.233 -15.507  1.00 31.39 LIG 0.09  C 
ENDBRANCH 38 39
ENDBRANCH 37 38
ENDBRANCH 33 37
ENDBRANCH 31 33
ENDBRANCH 27 29
ENDBRANCH 25 27
ENDBRANCH 17 23
ENDBRANCH 15 17
ENDBRANCH 5 13
ENDBRANCH 3 5
BRANCH 1 41
ATOM     41  CA  LEU D   3     -15.433   7.781  -7.630  1.00 16.32 LIG 0.18  C 
BRANCH 41 42
ATOM     42  N   LEU D   3     -14.257   8.435  -7.069  1.00 16.05 LIG-0.35  N 
ATOM     43  C   VAL D   2     -13.138   7.755  -6.828  1.00 15.61 LIG 0.24  C 
ATOM     44 O    VAL D   2     -13.056   6.534  -6.976  1.00 16.79 LIG-0.27  OA
ATOM     45 H    LEU D   3     -14.354   9.275  -6.913  1.00 16.05 LIG 0.16  HD
BRANCH 43 46
ATOM     46  CA  VAL D   2     -12.000   8.529  -6.184  1.00 14.78 LIG 0.18  C 
BRANCH 46 47
ATOM     47  N   VAL D   2     -11.093   7.562  -5.582  1.00 14.77 LIG-0.35  N 
ATOM     48  C   ARG D   1     -10.372   7.865  -4.511  1.00 16.50 LIG 0.25  C 
ATOM     49 O    ARG D   1     -10.447   8.952  -3.931  1.00 16.49 LIG-0.27  OA
ATOM     50 H    VAL D   2     -11.072   6.797  -5.976  1.00 14.77 LIG 0.16  HD
BRANCH 48 51
ATOM     51  CA  ARG D   1      -9.524   6.752  -3.948  1.00 17.64 LIG 0.27  C 
BRANCH 51 52
ATOM     52  N   ARG D   1      -8.938   5.981  -5.075  1.00 17.90 LIG-0.07  N 
ATOM     53 H3   ARG D   1      -9.300   5.169  -5.099  1.00 17.90 LIG 0.28  HD
ATOM     54 H2   ARG D   1      -8.057   5.909  -4.960  1.00 17.90 LIG 0.28  HD
ATOM     55 H1   ARG D   1      -9.103   6.402  -5.841  1.00 17.90 LIG 0.28  HD
ENDBRANCH 51 52
BRANCH 51 56
ATOM     56  CB  ARG D   1      -8.432   7.388  -3.075  1.00 19.06 LIG 0.04  C 
BRANCH 56 57
ATOM     57  CG  ARG D   1      -8.769   7.578  -1.622  1.00 22.89 LIG 0.02  C 
BRANCH 57 58
ATOM     58  CD  ARG D   1      -7.747   8.520  -0.998  1.00 26.83 LIG 0.14  C 
BRANCH 58 59
ATOM     59  NE  ARG D   1      -7.589   8.289   0.432  1.00 30.01 LIG-0.23  N 
ATOM     60  CZ  ARG D   1      -6.574   7.616   0.964  1.00 33.71 LIG 0.67  C 
ATOM     61  NH1 ARG D   1      -5.637   7.105   0.175  1.00 32.13 LIG-0.23  N 
ATOM     62  NH2 ARG D   1      -6.493   7.451   2.280  1.00 33.53 LIG-0.23  N 
ATOM     63 1HH1 ARG D   1      -5.688   7.211  -0.676  1.00 32.13 LIG 0.17  HD
ATOM     64 2HH1 ARG D   1      -4.979   6.669   0.516  1.00 32.13 LIG 0.17  HD
ATOM     65 1HH2 ARG D   1      -7.099   7.781   2.793  1.00 33.53 LIG 0.17  HD
ATOM     66 2HH2 ARG D   1      -5.834   7.015   2.620  1.00 33.53 LIG 0.17  HD
ATOM     67 HE   ARG D   1      -8.186   8.608   0.962  1.00 30.01 LIG 0.18  HD
ENDBRANCH 58 59
ENDBRANCH 57 58
ENDBRANCH 56 57
ENDBRANCH 51 56
ENDBRANCH 48 51
ENDBRANCH 46 47
BRANCH 46 68
ATOM     68  CB  VAL D   2     -11.254   9.365  -7.247  1.00 15.28 LIG 0.01  C 
ATOM     69  CG2 VAL D   2     -12.250  10.061  -8.153  1.00 14.68 LIG 0.01  C 
ATOM     70  CG1 VAL D   2     -10.267   8.512  -8.045  1.00 13.75 LIG 0.01  C 
ENDBRANCH 46 68
ENDBRANCH 43 46
ENDBRANCH 41 42
BRANCH 41 71
ATOM     71  CB  LEU D   3     -16.597   7.794  -6.634  1.00 15.85 LIG 0.04  C 
BRANCH 71 72
ATOM     72  CG  LEU D   3     -18.009   7.758  -7.227  1.00 19.10 LIG-0.02  C 
ATOM     73  CD2 LEU D   3     -19.053   8.238  -6.230  1.00 16.59 LIG 0.01  C 
ATOM     74  CD1 LEU D   3     -18.316   6.339  -7.701  1.00 21.08 LIG 0.01  C 
ENDBRANCH 71 72
ENDBRANCH 41 71
ENDBRANCH 1 41
TORSDOF 29
ENDMDL
MODEL 19
USER: ADFR SOLUTION from run 78
USER: SCORE 23.745795 LL:  -5.004 LR: -21.049 RR:   0.000 FEB: -12.398
USER: RMSD 13.952650
USER: SEED 77
USER: STATUS 1 or 2 clusters left
USER: GENES 31
USER: genes 0 Translation |==|  0.51751 0.42958 0.36822
USER: genes 1 Rotation |==|  0.74010 0.88096 0.45276 0.71210
USER: genes 2 Torsion [C]-N--CA-[CB] |==|  0.80556
USER: genes 3 Torsion [N]-CA--CB-[CG] |==|  0.42745
USER: genes 4 Torsion [CA]-CB--CG-[CD1] |==|  0.67451
USER: genes 5 Torsion [N]-CA--C-[N] |==|  0.22530
USER: genes 6 Torsion [C]-N--CA-[C] |==|  0.78812
USER: genes 7 Torsion [N]-CA--CB-[CG] |==|  0.62618
USER: genes 8 Torsion [CA]-CB--CG-[CD] |==|  0.51086
USER: genes 9 Torsion [CB]-CG--CD-[OE1] |==|  0.60057
USER: genes 10 Torsion [N]-CA--C-[N] |==|  0.93798
USER: genes 11 Torsion [C]-N--CA-[CB] |==|  0.86497
USER: genes 12 Torsion [N]-CA--C-[N] |==|  0.73302
USER: genes 13 Torsion [C]-N--CA-[CB] |==|  0.85883
USER: genes 14 Torsion [N]-CA--C-[OXT] |==|  0.40873
USER: genes 15 Torsion [N]-CA--CB-[CG] |==|  0.34813
USER: genes 16 Torsion [CA]-CB--CG-[SD] |==|  0.66462
USER: genes 17 Torsion [CB]-CG--SD-[CE] |==|  0.31141
USER: genes 18 Torsion [N]-C--CA-[N] |==|  0.84491
USER: genes 19 Torsion [C]-CA--N-[C] |==|  0.84900
USER: genes 20 Torsion [N]-C--CA-[N] |==|  0.18323
USER: genes 21 Torsion [C]-CA--N-[C] |==|  0.76790
USER: genes 22 Torsion [N]-C--CA-[N] |==|  0.94537
USER: genes 23 Torsion [C]-CA--N-[H1] |==|  0.64628
USER: genes 24 Torsion [C]-CA--CB-[CG] |==|  0.31836
USER: genes 25 Torsion [CA]-CB--CG-[CD] |==|  0.42997
USER: genes 26 Torsion [CB]-CG--CD-[NE] |==|  0.61811
USER: genes 27 Torsion [CG]-CD--NE-[CZ] |==|  0.65742
USER: genes 28 Torsion [C]-CA--CB-[CG2] |==|  0.15861
USER: genes 29 Torsion [C]-CA--CB-[CG] |==|  0.04649
USER: genes 30 Torsion [CA]-CB--CG-[CD2] |==|  0.53731
ROOT
ATOM      1  C   LEU D   3     -14.434   7.710  -9.206  1.00 15.92 LIG 0.24  C 
ATOM      2 O    LEU D   3     -14.643   6.796 -10.002  1.00 19.39 LIG-0.27  OA
ATOM      3  N   PHE D   4     -14.574   8.986  -9.540  1.00 13.65 LIG-0.35  N 
ATOM      4 H    PHE D   4     -14.665   9.629  -8.977  1.00 13.65 LIG 0.16  HD
ENDROOT
BRANCH 3 5
ATOM      5  CA  PHE D   4     -14.582   9.387 -10.927  1.00 13.25 LIG 0.18  C 
BRANCH 5 6
ATOM      6  CB  PHE D   4     -13.170   9.211 -11.508  1.00 13.20 LIG 0.07  C 
BRANCH 6 7
ATOM      7  CG  PHE D   4     -13.149   8.989 -12.977  1.00 13.63 LIG-0.06  A 
ATOM      8  CD1 PHE D   4     -12.659   7.800 -13.505  1.00 13.10 LIG 0.01  A 
ATOM      9  CE1 PHE D   4     -12.664   7.584 -14.876  1.00 15.10 LIG 0.00  A 
ATOM     10  CZ  PHE D   4     -13.179   8.557 -15.731  1.00 15.27 LIG 0.00  A 
ATOM     11  CE2 PHE D   4     -13.697   9.734 -15.201  1.00 13.31 LIG 0.00  A 
ATOM     12  CD2 PHE D   4     -13.661   9.946 -13.837  1.00 12.44 LIG 0.01  A 
ENDBRANCH 6 7
ENDBRANCH 5 6
BRANCH 5 13
ATOM     13  C   PHE D   4     -15.597   8.505 -11.653  1.00 14.19 LIG 0.24  C 
ATOM     14 O    PHE D   4     -15.239   7.467 -12.201  1.00 15.09 LIG-0.27  OA
ATOM     15  N   GLU D   5     -16.875   8.842 -11.557  1.00 15.42 LIG-0.35  N 
ATOM     16 H    GLU D   5     -17.175   9.482 -11.067  1.00 15.42 LIG 0.16  HD
BRANCH 15 17
ATOM     17  CA  GLU D   5     -17.889   8.119 -12.305  1.00 15.66 LIG 0.18  C 
BRANCH 17 18
ATOM     18  CB  GLU D   5     -19.283   8.355 -11.705  1.00 15.74 LIG 0.04  C 
BRANCH 18 19
ATOM     19  CG  GLU D   5     -20.126   7.108 -11.546  1.00 13.49 LIG 0.12  C 
BRANCH 19 20
ATOM     20  CD  GLU D   5     -21.524   7.411 -11.038  1.00 17.86 LIG 0.17  C 
ATOM     21 OE1  GLU D   5     -22.054   6.597 -10.249  1.00 19.55 LIG-0.65  OA
ATOM     22 OE2  GLU D   5     -22.073   8.490 -11.370  1.00 19.96 LIG-0.65  OA
ENDBRANCH 19 20
ENDBRANCH 18 19
ENDBRANCH 17 18
BRANCH 17 23
ATOM     23  C   GLU D   5     -17.834   8.564 -13.756  1.00 17.50 LIG 0.24  C 
ATOM     24 O    GLU D   5     -18.308   7.858 -14.647  1.00 17.10 LIG-0.27  OA
ATOM     25  N   ALA D   6     -17.285   9.752 -13.985  1.00 19.03 LIG-0.35  N 
ATOM     26 H    ALA D   6     -16.957  10.257 -13.372  1.00 19.03 LIG 0.16  HD
BRANCH 25 27
ATOM     27  CA  ALA D   6     -17.200  10.300 -15.331  1.00 21.37 LIG 0.17  C 
ATOM     28  CB  ALA D   6     -16.639   9.268 -16.283  1.00 21.30 LIG 0.04  C 
BRANCH 27 29
ATOM     29  C   ALA D   6     -18.582  10.744 -15.783  1.00 24.24 LIG 0.24  C 
ATOM     30 O    ALA D   6     -19.021  11.854 -15.480  1.00 22.56 LIG-0.27  OA
ATOM     31  N   MET D   7     -19.259   9.871 -16.520  1.00 27.55 LIG-0.34  N 
ATOM     32 H    MET D   7     -19.003   9.063 -16.663  1.00 27.55 LIG 0.16  HD
BRANCH 31 33
ATOM     33  CA  MET D   7     -20.520  10.226 -17.158  1.00 30.72 LIG 0.19  C 
BRANCH 33 34
ATOM     34  C   MET D   7     -20.251  11.175 -18.316  1.00 33.25 LIG 0.20  C 
ATOM     35 O    MET D   7     -19.369  12.039 -18.216  1.00 35.29 LIG-0.65  OA
ATOM     36 OXT  MET D   7     -20.958  11.159 -19.334  1.00 35.43 LIG-0.65  OA
ENDBRANCH 33 34
BRANCH 33 37
ATOM     37  CB  MET D   7     -21.468  10.856 -16.130  1.00 30.73 LIG 0.05  C 
BRANCH 37 38
ATOM     38  CG  MET D   7     -22.018  12.221 -16.492  1.00 32.79 LIG 0.08  C 
BRANCH 38 39
ATOM     39 SD   MET D   7     -21.577  13.458 -15.269  1.00 33.89 LIG-0.17  SA
ATOM     40  CE  MET D   7     -20.448  14.500 -16.191  1.00 31.39 LIG 0.09  C 
ENDBRANCH 38 39
ENDBRANCH 37 38
ENDBRANCH 33 37
ENDBRANCH 31 33
ENDBRANCH 27 29
ENDBRANCH 25 27
ENDBRANCH 17 23
ENDBRANCH 15 17
ENDBRANCH 5 13
ENDBRANCH 3 5
BRANCH 1 41
ATOM     41  CA  LEU D   3     -13.945   7.427  -7.787  1.00 16.32 LIG 0.18  C 
BRANCH 41 42
ATOM     42  N   LEU D   3     -12.680   8.084  -7.482  1.00 16.05 LIG-0.35  N 
ATOM     43  C   VAL D   2     -11.610   7.913  -8.255  1.00 15.61 LIG 0.24  C 
ATOM     44 O    VAL D   2     -11.593   7.130  -9.207  1.00 16.79 LIG-0.27  OA
ATOM     45 H    LEU D   3     -12.693   8.577  -6.777  1.00 16.05 LIG 0.16  HD
BRANCH 43 46
ATOM     46  CA  VAL D   2     -10.330   8.598  -7.802  1.00 14.78 LIG 0.18  C 
BRANCH 46 47
ATOM     47  N   VAL D   2      -9.913   7.975  -6.554  1.00 14.77 LIG-0.35  N 
ATOM     48  C   ARG D   1     -10.423   8.354  -5.389  1.00 16.50 LIG 0.25  C 
ATOM     49 O    ARG D   1     -11.304   9.213  -5.284  1.00 16.49 LIG-0.27  OA
ATOM     50 H    VAL D   2      -9.322   7.356  -6.643  1.00 14.77 LIG 0.16  HD
BRANCH 48 51
ATOM     51  CA  ARG D   1      -9.955   7.582  -4.180  1.00 17.64 LIG 0.27  C 
BRANCH 51 52
ATOM     52  N   ARG D   1      -9.396   6.282  -4.631  1.00 17.90 LIG-0.07  N 
ATOM     53 H3   ARG D   1      -8.519   6.267  -4.479  1.00 17.90 LIG 0.28  HD
ATOM     54 H2   ARG D   1      -9.548   6.179  -5.502  1.00 17.90 LIG 0.28  HD
ATOM     55 H1   ARG D   1      -9.786   5.620  -4.182  1.00 17.90 LIG 0.28  HD
ENDBRANCH 51 52
BRANCH 51 56
ATOM     56  CB  ARG D   1      -8.895   8.431  -3.463  1.00 19.06 LIG 0.04  C 
BRANCH 56 57
ATOM     57  CG  ARG D   1      -9.254   8.923  -2.089  1.00 22.89 LIG 0.02  C 
BRANCH 57 58
ATOM     58  CD  ARG D   1      -7.972   9.170  -1.303  1.00 26.83 LIG 0.14  C 
BRANCH 58 59
ATOM     59  NE  ARG D   1      -8.068   8.687   0.069  1.00 30.01 LIG-0.23  N 
ATOM     60  CZ  ARG D   1      -7.871   9.454   1.137  1.00 33.71 LIG 0.67  C 
ATOM     61  NH1 ARG D   1      -7.562  10.734   0.980  1.00 32.13 LIG-0.23  N 
ATOM     62  NH2 ARG D   1      -7.982   8.944   2.360  1.00 33.53 LIG-0.23  N 
ATOM     63 1HH1 ARG D   1      -7.489  11.065   0.190  1.00 32.13 LIG 0.17  HD
ATOM     64 2HH1 ARG D   1      -7.433  11.233   1.669  1.00 32.13 LIG 0.17  HD
ATOM     65 1HH2 ARG D   1      -8.183   8.114   2.463  1.00 33.53 LIG 0.17  HD
ATOM     66 2HH2 ARG D   1      -7.854   9.444   3.047  1.00 33.53 LIG 0.17  HD
ATOM     67 HE   ARG D   1      -8.264   7.859   0.194  1.00 30.01 LIG 0.18  HD
ENDBRANCH 58 59
ENDBRANCH 57 58
ENDBRANCH 56 57
ENDBRANCH 51 56
ENDBRANCH 48 51
ENDBRANCH 46 47
BRANCH 46 68
ATOM     68  CB  VAL D   2      -9.229   8.433  -8.871  1.00 15.28 LIG 0.01  C 
ATOM     69  CG2 VAL D   2      -9.706   8.988 -10.199  1.00 14.68 LIG 0.01  C 
ATOM     70  CG1 VAL D   2      -8.780   6.977  -8.998  1.00 13.75 LIG 0.01  C 
ENDBRANCH 46 68
ENDBRANCH 43 46
ENDBRANCH 41 42
BRANCH 41 71
ATOM     71  CB  LEU D   3     -15.020   7.801  -6.761  1.00 15.85 LIG 0.04  C 
BRANCH 71 72
ATOM     72  CG  LEU D   3     -16.444   7.984  -7.295  1.00 19.10 LIG-0.02  C 
ATOM     73  CD2 LEU D   3     -17.347   8.662  -6.276  1.00 16.59 LIG 0.01  C 
ATOM     74  CD1 LEU D   3     -17.004   6.622  -7.702  1.00 21.08 LIG 0.01  C 
ENDBRANCH 71 72
ENDBRANCH 41 71
ENDBRANCH 1 41
TORSDOF 29
ENDMDL
MODEL 20
USER: ADFR SOLUTION from run 198
USER: SCORE 23.480469 LL:  -5.177 LR: -21.033 RR:   0.000 FEB: -12.382
USER: RMSD 4.549544
USER: SEED 197
USER: STATUS no improvement in best in 3 clusters for 5 generations
USER: GENES 31
USER: genes 0 Translation |==|  0.61757 0.40231 0.46756
USER: genes 1 Rotation |==|  0.41523 0.36700 0.39101 0.96178
USER: genes 2 Torsion [C]-N--CA-[CB] |==|  0.52225
USER: genes 3 Torsion [N]-CA--CB-[CG] |==|  0.22283
USER: genes 4 Torsion [CA]-CB--CG-[CD1] |==|  0.34903
USER: genes 5 Torsion [N]-CA--C-[N] |==|  0.48382
USER: genes 6 Torsion [C]-N--CA-[C] |==|  0.66312
USER: genes 7 Torsion [N]-CA--CB-[CG] |==|  0.78814
USER: genes 8 Torsion [CA]-CB--CG-[CD] |==|  0.21450
USER: genes 9 Torsion [CB]-CG--CD-[OE1] |==|  0.59435
USER: genes 10 Torsion [N]-CA--C-[N] |==|  0.69972
USER: genes 11 Torsion [C]-N--CA-[CB] |==|  0.14587
USER: genes 12 Torsion [N]-CA--C-[N] |==|  0.83832
USER: genes 13 Torsion [C]-N--CA-[CB] |==|  0.84111
USER: genes 14 Torsion [N]-CA--C-[OXT] |==|  0.71566
USER: genes 15 Torsion [N]-CA--CB-[CG] |==|  0.47399
USER: genes 16 Torsion [CA]-CB--CG-[SD] |==|  0.37169
USER: genes 17 Torsion [CB]-CG--SD-[CE] |==|  0.97519
USER: genes 18 Torsion [N]-C--CA-[N] |==|  0.52209
USER: genes 19 Torsion [C]-CA--N-[C] |==|  0.73390
USER: genes 20 Torsion [N]-C--CA-[N] |==|  0.37972
USER: genes 21 Torsion [C]-CA--N-[C] |==|  0.64522
USER: genes 22 Torsion [N]-C--CA-[N] |==|  0.92496
USER: genes 23 Torsion [C]-CA--N-[H1] |==|  0.99445
USER: genes 24 Torsion [C]-CA--CB-[CG] |==|  0.28147
USER: genes 25 Torsion [CA]-CB--CG-[CD] |==|  0.09386
USER: genes 26 Torsion [CB]-CG--CD-[NE] |==|  0.19980
USER: genes 27 Torsion [CG]-CD--NE-[CZ] |==|  0.58475
USER: genes 28 Torsion [C]-CA--CB-[CG2] |==|  0.50993
USER: genes 29 Torsion [C]-CA--CB-[CG] |==|  0.35833
USER: genes 30 Torsion [CA]-CB--CG-[CD2] |==|  0.96572
ROOT
ATOM      1  C   LEU D   3     -11.582   7.362  -6.375  1.00 15.92 LIG 0.24  C 
ATOM      2 O    LEU D   3     -12.351   7.007  -5.482  1.00 19.39 LIG-0.27  OA
ATOM      3  N   PHE D   4     -10.273   7.164  -6.301  1.00 13.65 LIG-0.35  N 
ATOM      4 H    PHE D   4      -9.740   7.181  -6.977  1.00 13.65 LIG 0.16  HD
ENDROOT
BRANCH 3 5
ATOM      5  CA  PHE D   4      -9.638   6.898  -5.033  1.00 13.25 LIG 0.18  C 
BRANCH 5 6
ATOM      6  CB  PHE D   4      -8.113   6.912  -5.223  1.00 13.20 LIG 0.07  C 
BRANCH 6 7
ATOM      7  CG  PHE D   4      -7.524   8.276  -5.257  1.00 13.63 LIG-0.06  A 
ATOM      8  CD1 PHE D   4      -6.489   8.620  -4.395  1.00 13.10 LIG 0.01  A 
ATOM      9  CE1 PHE D   4      -5.924   9.886  -4.446  1.00 15.10 LIG 0.00  A 
ATOM     10  CZ  PHE D   4      -6.381  10.816  -5.377  1.00 15.27 LIG 0.00  A 
ATOM     11  CE2 PHE D   4      -7.397  10.461  -6.260  1.00 13.31 LIG 0.00  A 
ATOM     12  CD2 PHE D   4      -7.968   9.207  -6.180  1.00 12.44 LIG 0.01  A 
ENDBRANCH 6 7
ENDBRANCH 5 6
BRANCH 5 13
ATOM     13  C   PHE D   4     -10.087   7.986  -4.058  1.00 14.19 LIG 0.24  C 
ATOM     14 O    PHE D   4     -10.860   8.867  -4.423  1.00 15.09 LIG-0.27  OA
ATOM     15  N   GLU D   5      -9.711   7.863  -2.793  1.00 15.42 LIG-0.35  N 
ATOM     16 H    GLU D   5      -9.287   7.186  -2.474  1.00 15.42 LIG 0.16  HD
BRANCH 15 17
ATOM     17  CA  GLU D   5     -10.005   8.909  -1.828  1.00 15.66 LIG 0.18  C 
BRANCH 17 18
ATOM     18  CB  GLU D   5     -10.951   8.392  -0.734  1.00 15.74 LIG 0.04  C 
BRANCH 18 19
ATOM     19  CG  GLU D   5     -12.399   8.264  -1.156  1.00 13.49 LIG 0.12  C 
BRANCH 19 20
ATOM     20  CD  GLU D   5     -12.650   7.032  -2.007  1.00 17.86 LIG 0.17  C 
ATOM     21 OE1  GLU D   5     -13.513   7.105  -2.910  1.00 19.55 LIG-0.65  OA
ATOM     22 OE2  GLU D   5     -11.944   6.010  -1.824  1.00 19.96 LIG-0.65  OA
ENDBRANCH 19 20
ENDBRANCH 18 19
ENDBRANCH 17 18
BRANCH 17 23
ATOM     23  C   GLU D   5      -8.698   9.406  -1.236  1.00 17.50 LIG 0.24  C 
ATOM     24 O    GLU D   5      -7.939  10.116  -1.898  1.00 17.10 LIG-0.27  OA
ATOM     25  N   ALA D   6      -8.456   9.061   0.024  1.00 19.03 LIG-0.35  N 
ATOM     26 H    ALA D   6      -8.980   8.572   0.498  1.00 19.03 LIG 0.16  HD
BRANCH 25 27
ATOM     27  CA  ALA D   6      -7.251   9.500   0.711  1.00 21.37 LIG 0.17  C 
ATOM     28  CB  ALA D   6      -7.103  11.002   0.605  1.00 21.30 LIG 0.04  C 
BRANCH 27 29
ATOM     29  C   ALA D   6      -7.319   9.076   2.170  1.00 24.24 LIG 0.24  C 
ATOM     30 O    ALA D   6      -6.445   8.363   2.663  1.00 22.56 LIG-0.27  OA
ATOM     31  N   MET D   7      -8.361   9.529   2.857  1.00 27.55 LIG-0.34  N 
ATOM     32 H    MET D   7      -9.023   9.951   2.505  1.00 27.55 LIG 0.16  HD
BRANCH 31 33
ATOM     33  CA  MET D   7      -8.466   9.339   4.299  1.00 30.72 LIG 0.19  C 
BRANCH 33 34
ATOM     34  C   MET D   7      -7.358  10.118   4.992  1.00 33.25 LIG 0.20  C 
ATOM     35 O    MET D   7      -7.417  11.353   5.057  1.00 35.29 LIG-0.65  OA
ATOM     36 OXT  MET D   7      -6.346   9.545   5.422  1.00 35.43 LIG-0.65  OA
ENDBRANCH 33 34
BRANCH 33 37
ATOM     37  CB  MET D   7      -8.395   7.846   4.637  1.00 30.73 LIG 0.05  C 
BRANCH 37 38
ATOM     38  CG  MET D   7      -8.269   7.511   6.110  1.00 32.79 LIG 0.08  C 
BRANCH 38 39
ATOM     39 SD   MET D   7      -9.400   6.203   6.590  1.00 33.89 LIG-0.17  SA
ATOM     40  CE  MET D   7     -10.409   6.032   5.120  1.00 31.39 LIG 0.09  C 
ENDBRANCH 38 39
ENDBRANCH 37 38
ENDBRANCH 33 37
ENDBRANCH 31 33
ENDBRANCH 27 29
ENDBRANCH 25 27
ENDBRANCH 17 23
ENDBRANCH 15 17
ENDBRANCH 5 13
ENDBRANCH 3 5
BRANCH 1 41
ATOM     41  CA  LEU D   3     -12.092   8.107  -7.607  1.00 16.32 LIG 0.18  C 
BRANCH 41 42
ATOM     42  N   LEU D   3     -13.508   8.443  -7.521  1.00 16.05 LIG-0.35  N 
ATOM     43  C   VAL D   2     -14.436   7.664  -8.071  1.00 15.61 LIG 0.24  C 
ATOM     44 O    VAL D   2     -14.158   6.677  -8.755  1.00 16.79 LIG-0.27  OA
ATOM     45 H    LEU D   3     -13.678   9.170  -7.094  1.00 16.05 LIG 0.16  HD
BRANCH 43 46
ATOM     46  CA  VAL D   2     -15.874   8.149  -7.971  1.00 14.78 LIG 0.18  C 
BRANCH 46 47
ATOM     47  N   VAL D   2     -16.504   7.933  -9.266  1.00 14.77 LIG-0.35  N 
ATOM     48  C   ARG D   1     -17.137   8.913  -9.897  1.00 16.50 LIG 0.25  C 
ATOM     49 O    ARG D   1     -17.199  10.067  -9.464  1.00 16.49 LIG-0.27  OA
ATOM     50 H    VAL D   2     -16.427   7.133  -9.573  1.00 14.77 LIG 0.16  HD
BRANCH 48 51
ATOM     51  CA  ARG D   1     -17.687   8.574 -11.261  1.00 17.64 LIG 0.27  C 
BRANCH 51 52
ATOM     52  N   ARG D   1     -16.868   7.483 -11.849  1.00 17.90 LIG-0.07  N 
ATOM     53 H3   ARG D   1     -16.527   7.753 -12.625  1.00 17.90 LIG 0.28  HD
ATOM     54 H2   ARG D   1     -17.379   6.767 -11.983  1.00 17.90 LIG 0.28  HD
ATOM     55 H1   ARG D   1     -16.206   7.274 -11.291  1.00 17.90 LIG 0.28  HD
ENDBRANCH 51 52
BRANCH 51 56
ATOM     56  CB  ARG D   1     -19.150   8.145 -11.083  1.00 19.06 LIG 0.04  C 
BRANCH 56 57
ATOM     57  CG  ARG D   1     -20.192   9.174 -11.423  1.00 22.89 LIG 0.02  C 
BRANCH 57 58
ATOM     58  CD  ARG D   1     -19.685  10.026 -12.580  1.00 26.83 LIG 0.14  C 
BRANCH 58 59
ATOM     59  NE  ARG D   1     -19.681   9.294 -13.840  1.00 30.01 LIG-0.23  N 
ATOM     60  CZ  ARG D   1     -18.813   9.520 -14.822  1.00 33.71 LIG 0.67  C 
ATOM     61  NH1 ARG D   1     -17.890  10.461 -14.681  1.00 32.13 LIG-0.23  N 
ATOM     62  NH2 ARG D   1     -18.867   8.807 -15.943  1.00 33.53 LIG-0.23  N 
ATOM     63 1HH1 ARG D   1     -17.854  10.923 -13.957  1.00 32.13 LIG 0.17  HD
ATOM     64 2HH1 ARG D   1     -17.327  10.609 -15.314  1.00 32.13 LIG 0.17  HD
ATOM     65 1HH2 ARG D   1     -19.465   8.196 -16.036  1.00 33.53 LIG 0.17  HD
ATOM     66 2HH2 ARG D   1     -18.303   8.956 -16.575  1.00 33.53 LIG 0.17  HD
ATOM     67 HE   ARG D   1     -20.273   8.682 -13.955  1.00 30.01 LIG 0.18  HD
ENDBRANCH 58 59
ENDBRANCH 57 58
ENDBRANCH 56 57
ENDBRANCH 51 56
ENDBRANCH 48 51
ENDBRANCH 46 47
BRANCH 46 68
ATOM     68  CB  VAL D   2     -16.627   7.362  -6.877  1.00 15.28 LIG 0.01  C 
ATOM     69  CG2 VAL D   2     -18.082   7.786  -6.840  1.00 14.68 LIG 0.01  C 
ATOM     70  CG1 VAL D   2     -15.961   7.517  -5.510  1.00 13.75 LIG 0.01  C 
ENDBRANCH 46 68
ENDBRANCH 43 46
ENDBRANCH 41 42
BRANCH 41 71
ATOM     71  CB  LEU D   3     -11.245   9.357  -7.870  1.00 15.85 LIG 0.04  C 
BRANCH 71 72
ATOM     72  CG  LEU D   3     -10.699   9.530  -9.290  1.00 19.10 LIG-0.02  C 
ATOM     73  CD2 LEU D   3     -10.853   8.261 -10.114  1.00 16.59 LIG 0.01  C 
ATOM     74  CD1 LEU D   3      -9.234   9.958  -9.213  1.00 21.08 LIG 0.01  C 
ENDBRANCH 71 72
ENDBRANCH 41 71
ENDBRANCH 1 41
TORSDOF 29
ENDMDL
MODEL 21
USER: ADFR SOLUTION from run 81
USER: SCORE 25.138670 LL:  -7.247 LR: -20.931 RR:   0.000 FEB: -12.280
USER: RMSD 4.231075
USER: SEED 80
USER: STATUS 1 or 2 clusters left
USER: GENES 31
USER: genes 0 Translation |==|  0.48843 0.51285 0.42885
USER: genes 1 Rotation |==|  0.06791 0.49985 0.25309 0.54830
USER: genes 2 Torsion [C]-N--CA-[CB] |==|  0.50850
USER: genes 3 Torsion [N]-CA--CB-[CG] |==|  0.54056
USER: genes 4 Torsion [CA]-CB--CG-[CD1] |==|  0.01351
USER: genes 5 Torsion [N]-CA--C-[N] |==|  0.35603
USER: genes 6 Torsion [C]-N--CA-[C] |==|  0.69006
USER: genes 7 Torsion [N]-CA--CB-[CG] |==|  0.71828
USER: genes 8 Torsion [CA]-CB--CG-[CD] |==|  0.97695
USER: genes 9 Torsion [CB]-CG--CD-[OE1] |==|  0.28341
USER: genes 10 Torsion [N]-CA--C-[N] |==|  0.30639
USER: genes 11 Torsion [C]-N--CA-[CB] |==|  0.82222
USER: genes 12 Torsion [N]-CA--C-[N] |==|  0.70345
USER: genes 13 Torsion [C]-N--CA-[CB] |==|  0.21352
USER: genes 14 Torsion [N]-CA--C-[OXT] |==|  0.98566
USER: genes 15 Torsion [N]-CA--CB-[CG] |==|  0.37985
USER: genes 16 Torsion [CA]-CB--CG-[SD] |==|  0.34906
USER: genes 17 Torsion [CB]-CG--SD-[CE] |==|  0.48535
USER: genes 18 Torsion [N]-C--CA-[N] |==|  0.63792
USER: genes 19 Torsion [C]-CA--N-[C] |==|  0.70768
USER: genes 20 Torsion [N]-C--CA-[N] |==|  0.45016
USER: genes 21 Torsion [C]-CA--N-[C] |==|  0.68386
USER: genes 22 Torsion [N]-C--CA-[N] |==|  0.49377
USER: genes 23 Torsion [C]-CA--N-[H1] |==|  0.88847
USER: genes 24 Torsion [C]-CA--CB-[CG] |==|  0.74371
USER: genes 25 Torsion [CA]-CB--CG-[CD] |==|  0.29311
USER: genes 26 Torsion [CB]-CG--CD-[NE] |==|  0.67628
USER: genes 27 Torsion [CG]-CD--NE-[CZ] |==|  0.31828
USER: genes 28 Torsion [C]-CA--CB-[CG2] |==|  0.95920
USER: genes 29 Torsion [C]-CA--CB-[CG] |==|  0.34669
USER: genes 30 Torsion [CA]-CB--CG-[CD2] |==|  0.33331
ROOT
ATOM      1  C   LEU D   3     -15.263   8.772  -7.478  1.00 15.92 LIG 0.24  C 
ATOM      2 O    LEU D   3     -14.576   9.757  -7.746  1.00 19.39 LIG-0.27  OA
ATOM      3  N   PHE D   4     -15.142   8.117  -6.331  1.00 13.65 LIG-0.35  N 
ATOM      4 H    PHE D   4     -15.738   7.586  -6.009  1.00 13.65 LIG 0.16  HD
ENDROOT
BRANCH 3 5
ATOM      5  CA  PHE D   4     -13.956   8.262  -5.521  1.00 13.25 LIG 0.18  C 
BRANCH 5 6
ATOM      6  CB  PHE D   4     -14.066   7.333  -4.301  1.00 13.20 LIG 0.07  C 
BRANCH 6 7
ATOM      7  CG  PHE D   4     -13.084   7.635  -3.227  1.00 13.63 LIG-0.06  A 
ATOM      8  CD1 PHE D   4     -12.243   8.737  -3.328  1.00 13.10 LIG 0.01  A 
ATOM      9  CE1 PHE D   4     -11.345   9.032  -2.312  1.00 15.10 LIG 0.00  A 
ATOM     10  CZ  PHE D   4     -11.296   8.231  -1.173  1.00 15.27 LIG 0.00  A 
ATOM     11  CE2 PHE D   4     -12.158   7.145  -1.059  1.00 13.31 LIG 0.00  A 
ATOM     12  CD2 PHE D   4     -13.028   6.849  -2.089  1.00 12.44 LIG 0.01  A 
ENDBRANCH 6 7
ENDBRANCH 5 6
BRANCH 5 13
ATOM     13  C   PHE D   4     -12.757   7.893  -6.395  1.00 14.19 LIG 0.24  C 
ATOM     14 O    PHE D   4     -12.786   6.888  -7.098  1.00 15.09 LIG-0.27  OA
ATOM     15  N   GLU D   5     -11.757   8.761  -6.452  1.00 15.42 LIG-0.35  N 
ATOM     16 H    GLU D   5     -11.764   9.538  -6.084  1.00 15.42 LIG 0.16  HD
BRANCH 15 17
ATOM     17  CA  GLU D   5     -10.537   8.438  -7.173  1.00 15.66 LIG 0.18  C 
BRANCH 17 18
ATOM     18  CB  GLU D   5     -10.211   9.524  -8.209  1.00 15.74 LIG 0.04  C 
BRANCH 18 19
ATOM     19  CG  GLU D   5     -10.575   9.171  -9.635  1.00 13.49 LIG 0.12  C 
BRANCH 19 20
ATOM     20  CD  GLU D   5     -11.011   7.724  -9.783  1.00 17.86 LIG 0.17  C 
ATOM     21 OE1  GLU D   5     -12.235   7.484  -9.875  1.00 19.55 LIG-0.65  OA
ATOM     22 OE2  GLU D   5     -10.134   6.829  -9.872  1.00 19.96 LIG-0.65  OA
ENDBRANCH 19 20
ENDBRANCH 18 19
ENDBRANCH 17 18
BRANCH 17 23
ATOM     23  C   GLU D   5      -9.408   8.277  -6.170  1.00 17.50 LIG 0.24  C 
ATOM     24 O    GLU D   5      -8.987   9.247  -5.539  1.00 17.10 LIG-0.27  OA
ATOM     25  N   ALA D   6      -8.944   7.044  -6.001  1.00 19.03 LIG-0.35  N 
ATOM     26 H    ALA D   6      -9.233   6.358  -6.431  1.00 19.03 LIG 0.16  HD
BRANCH 25 27
ATOM     27  CA  ALA D   6      -7.883   6.757  -5.048  1.00 21.37 LIG 0.17  C 
ATOM     28  CB  ALA D   6      -6.607   7.459  -5.457  1.00 21.30 LIG 0.04  C 
BRANCH 27 29
ATOM     29  C   ALA D   6      -8.314   7.209  -3.662  1.00 24.24 LIG 0.24  C 
ATOM     30 O    ALA D   6      -9.154   6.575  -3.023  1.00 22.56 LIG-0.27  OA
ATOM     31  N   MET D   7      -7.725   8.305  -3.199  1.00 27.55 LIG-0.34  N 
ATOM     32 H    MET D   7      -7.206   8.806  -3.667  1.00 27.55 LIG 0.16  HD
BRANCH 31 33
ATOM     33  CA  MET D   7      -7.919   8.755  -1.826  1.00 30.72 LIG 0.19  C 
BRANCH 33 34
ATOM     34  C   MET D   7      -7.546  10.226  -1.720  1.00 33.25 LIG 0.20  C 
ATOM     35 O    MET D   7      -7.808  10.858  -0.688  1.00 35.29 LIG-0.65  OA
ATOM     36 OXT  MET D   7      -7.058  10.834  -2.684  1.00 35.43 LIG-0.65  OA
ENDBRANCH 33 34
BRANCH 33 37
ATOM     37  CB  MET D   7      -7.083   7.897  -0.871  1.00 30.73 LIG 0.05  C 
BRANCH 37 38
ATOM     38  CG  MET D   7      -6.345   8.652   0.217  1.00 32.79 LIG 0.08  C 
BRANCH 38 39
ATOM     39 SD   MET D   7      -6.733   8.012   1.848  1.00 33.89 LIG-0.17  SA
ATOM     40  CE  MET D   7      -5.625   8.960   2.888  1.00 31.39 LIG 0.09  C 
ENDBRANCH 38 39
ENDBRANCH 37 38
ENDBRANCH 33 37
ENDBRANCH 31 33
ENDBRANCH 27 29
ENDBRANCH 25 27
ENDBRANCH 17 23
ENDBRANCH 15 17
ENDBRANCH 5 13
ENDBRANCH 3 5
BRANCH 1 41
ATOM     41  CA  LEU D   3     -16.266   8.209  -8.482  1.00 16.32 LIG 0.18  C 
BRANCH 41 42
ATOM     42  N   LEU D   3     -15.706   8.058  -9.819  1.00 16.05 LIG-0.35  N 
ATOM     43  C   VAL D   2     -16.024   8.901 -10.800  1.00 15.61 LIG 0.24  C 
ATOM     44 O    VAL D   2     -16.867   9.790 -10.667  1.00 16.79 LIG-0.27  OA
ATOM     45 H    LEU D   3     -15.168   7.394  -9.910  1.00 16.05 LIG 0.16  HD
BRANCH 43 46
ATOM     46  CA  VAL D   2     -15.427   8.607 -12.167  1.00 14.78 LIG 0.18  C 
BRANCH 46 47
ATOM     47  N   VAL D   2     -16.204   9.341 -13.156  1.00 14.77 LIG-0.35  N 
ATOM     48  C   ARG D   1     -16.942   8.711 -14.060  1.00 16.50 LIG 0.25  C 
ATOM     49 O    ARG D   1     -17.059   7.483 -14.101  1.00 16.49 LIG-0.27  OA
ATOM     50 H    VAL D   2     -16.140  10.197 -13.097  1.00 14.77 LIG 0.16  HD
BRANCH 48 51
ATOM     51  CA  ARG D   1     -17.749   9.590 -14.982  1.00 17.64 LIG 0.27  C 
BRANCH 51 52
ATOM     52  N   ARG D   1     -18.467   8.729 -15.957  1.00 17.90 LIG-0.07  N 
ATOM     53 H3   ARG D   1     -18.705   9.214 -16.664  1.00 17.90 LIG 0.28  HD
ATOM     54 H2   ARG D   1     -19.194   8.388 -15.574  1.00 17.90 LIG 0.28  HD
ATOM     55 H1   ARG D   1     -17.932   8.068 -16.219  1.00 17.90 LIG 0.28  HD
ENDBRANCH 51 52
BRANCH 51 56
ATOM     56  CB  ARG D   1     -18.729  10.400 -14.121  1.00 19.06 LIG 0.04  C 
BRANCH 56 57
ATOM     57  CG  ARG D   1     -20.092   9.799 -13.918  1.00 22.89 LIG 0.02  C 
BRANCH 57 58
ATOM     58  CD  ARG D   1     -20.182   9.250 -12.499  1.00 26.83 LIG 0.14  C 
BRANCH 58 59
ATOM     59  NE  ARG D   1     -20.367   7.805 -12.480  1.00 30.01 LIG-0.23  N 
ATOM     60  CZ  ARG D   1     -19.469   6.952 -11.996  1.00 33.71 LIG 0.67  C 
ATOM     61  NH1 ARG D   1     -18.327   7.410 -11.501  1.00 32.13 LIG-0.23  N 
ATOM     62  NH2 ARG D   1     -19.710   5.645 -12.006  1.00 33.53 LIG-0.23  N 
ATOM     63 1HH1 ARG D   1     -18.169   8.255 -11.494  1.00 32.13 LIG 0.17  HD
ATOM     64 2HH1 ARG D   1     -17.744   6.861 -11.187  1.00 32.13 LIG 0.17  HD
ATOM     65 1HH2 ARG D   1     -20.450   5.346 -12.327  1.00 33.53 LIG 0.17  HD
ATOM     66 2HH2 ARG D   1     -19.126   5.097 -11.692  1.00 33.53 LIG 0.17  HD
ATOM     67 HE   ARG D   1     -21.098   7.485 -12.800  1.00 30.01 LIG 0.18  HD
ENDBRANCH 58 59
ENDBRANCH 57 58
ENDBRANCH 56 57
ENDBRANCH 51 56
ENDBRANCH 48 51
ENDBRANCH 46 47
BRANCH 46 68
ATOM     68  CB  VAL D   2     -13.951   9.056 -12.212  1.00 15.28 LIG 0.01  C 
ATOM     69  CG2 VAL D   2     -13.648   9.965 -11.038  1.00 14.68 LIG 0.01  C 
ATOM     70  CG1 VAL D   2     -13.603   9.722 -13.544  1.00 13.75 LIG 0.01  C 
ENDBRANCH 46 68
ENDBRANCH 43 46
ENDBRANCH 41 42
BRANCH 41 71
ATOM     71  CB  LEU D   3     -16.849   6.885  -7.978  1.00 15.85 LIG 0.04  C 
BRANCH 71 72
ATOM     72  CG  LEU D   3     -18.376   6.798  -7.884  1.00 19.10 LIG-0.02  C 
ATOM     73  CD2 LEU D   3     -18.934   5.687  -8.760  1.00 16.59 LIG 0.01  C 
ATOM     74  CD1 LEU D   3     -18.977   8.150  -8.263  1.00 21.08 LIG 0.01  C 
ENDBRANCH 71 72
ENDBRANCH 41 71
ENDBRANCH 1 41
TORSDOF 29
ENDMDL
MODEL 22
USER: ADFR SOLUTION from run 13
USER: SCORE 24.624963 LL:  -6.009 LR: -20.891 RR:   0.000 FEB: -12.240
USER: RMSD 13.455402
USER: SEED 748096
USER: STATUS no improvement in best in 4 clusters for 5 generations
USER: GENES 31
USER: genes 0 Translation |==|  0.60590 0.56570 0.41140
USER: genes 1 Rotation |==|  0.44687 0.78037 0.91043 0.51104
USER: genes 2 Torsion [C]-N--CA-[CB] |==|  0.14168
USER: genes 3 Torsion [N]-CA--CB-[CG] |==|  0.18657
USER: genes 4 Torsion [CA]-CB--CG-[CD1] |==|  0.78475
USER: genes 5 Torsion [N]-CA--C-[N] |==|  0.53219
USER: genes 6 Torsion [C]-N--CA-[C] |==|  0.56759
USER: genes 7 Torsion [N]-CA--CB-[CG] |==|  0.03635
USER: genes 8 Torsion [CA]-CB--CG-[CD] |==|  0.18747
USER: genes 9 Torsion [CB]-CG--CD-[OE1] |==|  0.22838
USER: genes 10 Torsion [N]-CA--C-[N] |==|  0.32115
USER: genes 11 Torsion [C]-N--CA-[CB] |==|  0.86338
USER: genes 12 Torsion [N]-CA--C-[N] |==|  0.37442
USER: genes 13 Torsion [C]-N--CA-[CB] |==|  0.36452
USER: genes 14 Torsion [N]-CA--C-[OXT] |==|  0.95915
USER: genes 15 Torsion [N]-CA--CB-[CG] |==|  0.71868
USER: genes 16 Torsion [CA]-CB--CG-[SD] |==|  0.35488
USER: genes 17 Torsion [CB]-CG--SD-[CE] |==|  0.41291
USER: genes 18 Torsion [N]-C--CA-[N] |==|  0.81774
USER: genes 19 Torsion [C]-CA--N-[C] |==|  0.20665
USER: genes 20 Torsion [N]-C--CA-[N] |==|  0.91688
USER: genes 21 Torsion [C]-CA--N-[C] |==|  0.78510
USER: genes 22 Torsion [N]-C--CA-[N] |==|  0.88341
USER: genes 23 Torsion [C]-CA--N-[H1] |==|  0.59272
USER: genes 24 Torsion [C]-CA--CB-[CG] |==|  0.53740
USER: genes 25 Torsion [CA]-CB--CG-[CD] |==|  0.61887
USER: genes 26 Torsion [CB]-CG--CD-[NE] |==|  0.13498
USER: genes 27 Torsion [CG]-CD--NE-[CZ] |==|  0.60745
USER: genes 28 Torsion [C]-CA--CB-[CG2] |==|  0.51841
USER: genes 29 Torsion [C]-CA--CB-[CG] |==|  0.14666
USER: genes 30 Torsion [CA]-CB--CG-[CD2] |==|  0.46992
ROOT
ATOM      1  C   LEU D   3     -11.915   9.446  -7.975  1.00 15.92 LIG 0.24  C 
ATOM      2 O    LEU D   3     -11.942  10.577  -8.457  1.00 19.39 LIG-0.27  OA
ATOM      3  N   PHE D   4     -12.978   8.653  -7.970  1.00 13.65 LIG-0.35  N 
ATOM      4 H    PHE D   4     -12.948   7.800  -7.862  1.00 13.65 LIG 0.16  HD
ENDROOT
BRANCH 3 5
ATOM      5  CA  PHE D   4     -14.303   9.196  -8.154  1.00 13.25 LIG 0.18  C 
BRANCH 5 6
ATOM      6  CB  PHE D   4     -14.310  10.086  -9.406  1.00 13.20 LIG 0.07  C 
BRANCH 6 7
ATOM      7  CG  PHE D   4     -14.111   9.339 -10.676  1.00 13.63 LIG-0.06  A 
ATOM      8  CD1 PHE D   4     -12.844   8.907 -11.049  1.00 13.10 LIG 0.01  A 
ATOM      9  CE1 PHE D   4     -12.663   8.187 -12.222  1.00 15.10 LIG 0.00  A 
ATOM     10  CZ  PHE D   4     -13.760   7.878 -13.023  1.00 15.27 LIG 0.00  A 
ATOM     11  CE2 PHE D   4     -15.033   8.284 -12.634  1.00 13.31 LIG 0.00  A 
ATOM     12  CD2 PHE D   4     -15.193   9.022 -11.479  1.00 12.44 LIG 0.01  A 
ENDBRANCH 6 7
ENDBRANCH 5 6
BRANCH 5 13
ATOM     13  C   PHE D   4     -15.265   8.018  -8.303  1.00 14.19 LIG 0.24  C 
ATOM     14 O    PHE D   4     -14.931   6.893  -7.941  1.00 15.09 LIG-0.27  OA
ATOM     15  N   GLU D   5     -16.496   8.285  -8.714  1.00 15.42 LIG-0.35  N 
ATOM     16 H    GLU D   5     -16.805   9.078  -8.843  1.00 15.42 LIG 0.16  HD
BRANCH 15 17
ATOM     17  CA  GLU D   5     -17.436   7.211  -8.984  1.00 15.66 LIG 0.18  C 
BRANCH 17 18
ATOM     18  CB  GLU D   5     -18.089   6.717  -7.684  1.00 15.74 LIG 0.04  C 
BRANCH 18 19
ATOM     19  CG  GLU D   5     -17.876   7.616  -6.485  1.00 13.49 LIG 0.12  C 
BRANCH 19 20
ATOM     20  CD  GLU D   5     -18.589   8.949  -6.625  1.00 17.86 LIG 0.17  C 
ATOM     21 OE1  GLU D   5     -19.806   8.999  -6.336  1.00 19.55 LIG-0.65  OA
ATOM     22 OE2  GLU D   5     -17.928   9.963  -6.959  1.00 19.96 LIG-0.65  OA
ENDBRANCH 19 20
ENDBRANCH 18 19
ENDBRANCH 17 18
BRANCH 17 23
ATOM     23  C   GLU D   5     -18.480   7.713  -9.967  1.00 17.50 LIG 0.24  C 
ATOM     24 O    GLU D   5     -19.228   8.645  -9.665  1.00 17.10 LIG-0.27  OA
ATOM     25  N   ALA D   6     -18.504   7.118 -11.153  1.00 19.03 LIG-0.35  N 
ATOM     26 H    ALA D   6     -17.983   6.472 -11.378  1.00 19.03 LIG 0.16  HD
BRANCH 25 27
ATOM     27  CA  ALA D   6     -19.439   7.529 -12.189  1.00 21.37 LIG 0.17  C 
ATOM     28  CB  ALA D   6     -20.840   7.618 -11.626  1.00 21.30 LIG 0.04  C 
BRANCH 27 29
ATOM     29  C   ALA D   6     -19.009   8.874 -12.753  1.00 24.24 LIG 0.24  C 
ATOM     30 O    ALA D   6     -18.657   9.789 -12.007  1.00 22.56 LIG-0.27  OA
ATOM     31  N   MET D   7     -19.030   8.983 -14.076  1.00 27.55 LIG-0.34  N 
ATOM     32 H    MET D   7     -19.357   8.386 -14.602  1.00 27.55 LIG 0.16  HD
BRANCH 31 33
ATOM     33  CA  MET D   7     -18.487  10.152 -14.755  1.00 30.72 LIG 0.19  C 
BRANCH 33 34
ATOM     34  C   MET D   7     -19.630  11.011 -15.274  1.00 33.25 LIG 0.20  C 
ATOM     35 O    MET D   7     -19.433  12.200 -15.556  1.00 35.29 LIG-0.65  OA
ATOM     36 OXT  MET D   7     -20.785  10.565 -15.341  1.00 35.43 LIG-0.65  OA
ENDBRANCH 33 34
BRANCH 33 37
ATOM     37  CB  MET D   7     -17.558   9.713 -15.893  1.00 30.73 LIG 0.05  C 
BRANCH 37 38
ATOM     38  CG  MET D   7     -16.074   9.788 -15.597  1.00 32.79 LIG 0.08  C 
BRANCH 38 39
ATOM     39 SD   MET D   7     -15.248   8.235 -15.950  1.00 33.89 LIG-0.17  SA
ATOM     40  CE  MET D   7     -13.618   8.789 -16.446  1.00 31.39 LIG 0.09  C 
ENDBRANCH 38 39
ENDBRANCH 37 38
ENDBRANCH 33 37
ENDBRANCH 31 33
ENDBRANCH 27 29
ENDBRANCH 25 27
ENDBRANCH 17 23
ENDBRANCH 15 17
ENDBRANCH 5 13
ENDBRANCH 3 5
BRANCH 1 41
ATOM     41  CA  LEU D   3     -10.657   8.903  -7.300  1.00 16.32 LIG 0.18  C 
BRANCH 41 42
ATOM     42  N   LEU D   3     -10.818   8.721  -5.863  1.00 16.05 LIG-0.35  N 
ATOM     43  C   VAL D   2     -11.534   7.712  -5.372  1.00 15.61 LIG 0.24  C 
ATOM     44 O    VAL D   2     -12.170   6.935  -6.088  1.00 16.79 LIG-0.27  OA
ATOM     45 H    LEU D   3     -10.420   9.311  -5.380  1.00 16.05 LIG 0.16  HD
BRANCH 43 46
ATOM     46  CA  VAL D   2     -11.684   7.660  -3.860  1.00 14.78 LIG 0.18  C 
BRANCH 46 47
ATOM     47  N   VAL D   2     -10.491   8.258  -3.277  1.00 14.77 LIG-0.35  N 
ATOM     48  C   ARG D   1      -9.346   7.592  -3.213  1.00 16.50 LIG 0.25  C 
ATOM     49 O    ARG D   1      -9.198   6.457  -3.674  1.00 16.49 LIG-0.27  OA
ATOM     50 H    VAL D   2     -10.599   9.061  -2.988  1.00 14.77 LIG 0.16  HD
BRANCH 48 51
ATOM     51  CA  ARG D   1      -8.171   8.350  -2.647  1.00 17.64 LIG 0.27  C 
BRANCH 51 52
ATOM     52  N   ARG D   1      -8.184   9.731  -3.195  1.00 17.90 LIG-0.07  N 
ATOM     53 H3   ARG D   1      -8.619  10.269  -2.635  1.00 17.90 LIG 0.28  HD
ATOM     54 H2   ARG D   1      -8.594   9.733  -3.986  1.00 17.90 LIG 0.28  HD
ATOM     55 H1   ARG D   1      -7.348  10.019  -3.294  1.00 17.90 LIG 0.28  HD
ENDBRANCH 51 52
BRANCH 51 56
ATOM     56  CB  ARG D   1      -8.307   8.352  -1.117  1.00 19.06 LIG 0.04  C 
BRANCH 56 57
ATOM     57  CG  ARG D   1      -7.422   9.311  -0.371  1.00 22.89 LIG 0.02  C 
BRANCH 57 58
ATOM     58  CD  ARG D   1      -6.850   8.605   0.852  1.00 26.83 LIG 0.14  C 
BRANCH 58 59
ATOM     59  NE  ARG D   1      -6.291   7.300   0.521  1.00 30.01 LIG-0.23  N 
ATOM     60  CZ  ARG D   1      -6.408   6.228   1.299  1.00 33.71 LIG 0.67  C 
ATOM     61  NH1 ARG D   1      -7.058   6.319   2.452  1.00 32.13 LIG-0.23  N 
ATOM     62  NH2 ARG D   1      -5.876   5.068   0.928  1.00 33.53 LIG-0.23  N 
ATOM     63 1HH1 ARG D   1      -7.402   7.069   2.693  1.00 32.13 LIG 0.17  HD
ATOM     64 2HH1 ARG D   1      -7.135   5.628   2.957  1.00 32.13 LIG 0.17  HD
ATOM     65 1HH2 ARG D   1      -5.454   5.007   0.181  1.00 33.53 LIG 0.17  HD
ATOM     66 2HH2 ARG D   1      -5.955   4.377   1.435  1.00 33.53 LIG 0.17  HD
ATOM     67 HE   ARG D   1      -5.862   7.219  -0.219  1.00 30.01 LIG 0.18  HD
ENDBRANCH 58 59
ENDBRANCH 57 58
ENDBRANCH 56 57
ENDBRANCH 51 56
ENDBRANCH 48 51
ENDBRANCH 46 47
BRANCH 46 68
ATOM     68  CB  VAL D   2     -12.940   8.445  -3.421  1.00 15.28 LIG 0.01  C 
ATOM     69  CG2 VAL D   2     -12.998   8.530  -1.909  1.00 14.68 LIG 0.01  C 
ATOM     70  CG1 VAL D   2     -14.217   7.835  -4.000  1.00 13.75 LIG 0.01  C 
ENDBRANCH 46 68
ENDBRANCH 43 46
ENDBRANCH 41 42
BRANCH 41 71
ATOM     71  CB  LEU D   3     -10.203   7.603  -7.971  1.00 15.85 LIG 0.04  C 
BRANCH 71 72
ATOM     72  CG  LEU D   3     -10.018   7.642  -9.491  1.00 19.10 LIG-0.02  C 
ATOM     73  CD2 LEU D   3      -9.321   6.394 -10.009  1.00 16.59 LIG 0.01  C 
ATOM     74  CD1 LEU D   3      -9.238   8.901  -9.867  1.00 21.08 LIG 0.01  C 
ENDBRANCH 71 72
ENDBRANCH 41 71
ENDBRANCH 1 41
TORSDOF 29
ENDMDL
MODEL 23
USER: ADFR SOLUTION from run 179
USER: SCORE 22.703737 LL:  -5.671 LR: -20.870 RR:   0.000 FEB: -12.220
USER: RMSD 5.733385
USER: SEED 178
USER: STATUS no improvement in best in 2 clusters for 5 generations
USER: GENES 31
USER: genes 0 Translation |==|  0.64599 0.45078 0.53670
USER: genes 1 Rotation |==|  0.72952 0.34007 0.53997 0.91249
USER: genes 2 Torsion [C]-N--CA-[CB] |==|  0.18271
USER: genes 3 Torsion [N]-CA--CB-[CG] |==|  0.09766
USER: genes 4 Torsion [CA]-CB--CG-[CD1] |==|  0.65579
USER: genes 5 Torsion [N]-CA--C-[N] |==|  0.52680
USER: genes 6 Torsion [C]-N--CA-[C] |==|  0.18966
USER: genes 7 Torsion [N]-CA--CB-[CG] |==|  0.82898
USER: genes 8 Torsion [CA]-CB--CG-[CD] |==|  0.76881
USER: genes 9 Torsion [CB]-CG--CD-[OE1] |==|  0.49608
USER: genes 10 Torsion [N]-CA--C-[N] |==|  0.21105
USER: genes 11 Torsion [C]-N--CA-[CB] |==|  0.42962
USER: genes 12 Torsion [N]-CA--C-[N] |==|  0.17979
USER: genes 13 Torsion [C]-N--CA-[CB] |==|  0.37568
USER: genes 14 Torsion [N]-CA--C-[OXT] |==|  0.19190
USER: genes 15 Torsion [N]-CA--CB-[CG] |==|  0.01911
USER: genes 16 Torsion [CA]-CB--CG-[SD] |==|  0.22780
USER: genes 17 Torsion [CB]-CG--SD-[CE] |==|  0.32233
USER: genes 18 Torsion [N]-C--CA-[N] |==|  0.46988
USER: genes 19 Torsion [C]-CA--N-[C] |==|  0.59021
USER: genes 20 Torsion [N]-C--CA-[N] |==|  0.31128
USER: genes 21 Torsion [C]-CA--N-[C] |==|  0.65383
USER: genes 22 Torsion [N]-C--CA-[N] |==|  0.76087
USER: genes 23 Torsion [C]-CA--N-[H1] |==|  0.14236
USER: genes 24 Torsion [C]-CA--CB-[CG] |==|  0.28657
USER: genes 25 Torsion [CA]-CB--CG-[CD] |==|  0.98434
USER: genes 26 Torsion [CB]-CG--CD-[NE] |==|  0.70152
USER: genes 27 Torsion [CG]-CD--NE-[CZ] |==|  0.74523
USER: genes 28 Torsion [C]-CA--CB-[CG2] |==|  0.78457
USER: genes 29 Torsion [C]-CA--CB-[CG] |==|  0.85700
USER: genes 30 Torsion [CA]-CB--CG-[CD2] |==|  0.22323
ROOT
ATOM      1  C   LEU D   3     -10.772   7.980  -4.404  1.00 15.92 LIG 0.24  C 
ATOM      2 O    LEU D   3     -10.786   6.777  -4.661  1.00 19.39 LIG-0.27  OA
ATOM      3  N   PHE D   4      -9.846   8.527  -3.628  1.00 13.65 LIG-0.35  N 
ATOM      4 H    PHE D   4      -9.661   9.367  -3.610  1.00 13.65 LIG 0.16  HD
ENDROOT
BRANCH 3 5
ATOM      5  CA  PHE D   4      -9.060   7.712  -2.733  1.00 13.25 LIG 0.18  C 
BRANCH 5 6
ATOM      6  CB  PHE D   4      -8.176   6.766  -3.561  1.00 13.20 LIG 0.07  C 
BRANCH 6 7
ATOM      7  CG  PHE D   4      -7.682   7.363  -4.830  1.00 13.63 LIG-0.06  A 
ATOM      8  CD1 PHE D   4      -7.931   6.740  -6.047  1.00 13.10 LIG 0.01  A 
ATOM      9  CE1 PHE D   4      -7.491   7.313  -7.232  1.00 15.10 LIG 0.00  A 
ATOM     10  CZ  PHE D   4      -6.811   8.529  -7.207  1.00 15.27 LIG 0.00  A 
ATOM     11  CE2 PHE D   4      -6.588   9.167  -5.991  1.00 13.31 LIG 0.00  A 
ATOM     12  CD2 PHE D   4      -7.008   8.573  -4.818  1.00 12.44 LIG 0.01  A 
ENDBRANCH 6 7
ENDBRANCH 5 6
BRANCH 5 13
ATOM     13  C   PHE D   4      -8.216   8.655  -1.876  1.00 14.19 LIG 0.24  C 
ATOM     14 O    PHE D   4      -8.487   9.850  -1.815  1.00 15.09 LIG-0.27  OA
ATOM     15  N   GLU D   5      -7.274   8.110  -1.119  1.00 15.42 LIG-0.35  N 
ATOM     16 H    GLU D   5      -7.149   7.264  -1.031  1.00 15.42 LIG 0.16  HD
BRANCH 15 17
ATOM     17  CA  GLU D   5      -6.360   8.946  -0.359  1.00 15.66 LIG 0.18  C 
BRANCH 17 18
ATOM     18  CB  GLU D   5      -5.660   9.962  -1.275  1.00 15.74 LIG 0.04  C 
BRANCH 18 19
ATOM     19  CG  GLU D   5      -4.808   9.351  -2.367  1.00 13.49 LIG 0.12  C 
BRANCH 19 20
ATOM     20  CD  GLU D   5      -3.420   8.976  -1.879  1.00 17.86 LIG 0.17  C 
ATOM     21 OE1  GLU D   5      -2.636   8.436  -2.692  1.00 19.55 LIG-0.65  OA
ATOM     22 OE2  GLU D   5      -3.084   9.275  -0.707  1.00 19.96 LIG-0.65  OA
ENDBRANCH 19 20
ENDBRANCH 18 19
ENDBRANCH 17 18
BRANCH 17 23
ATOM     23  C   GLU D   5      -7.139   9.643   0.742  1.00 17.50 LIG 0.24  C 
ATOM     24 O    GLU D   5      -7.465  10.826   0.627  1.00 17.10 LIG-0.27  OA
ATOM     25  N   ALA D   6      -7.465   8.899   1.792  1.00 19.03 LIG-0.35  N 
ATOM     26 H    ALA D   6      -7.250   8.072   1.882  1.00 19.03 LIG 0.16  HD
BRANCH 25 27
ATOM     27  CA  ALA D   6      -8.236   9.446   2.899  1.00 21.37 LIG 0.17  C 
ATOM     28  CB  ALA D   6      -8.984   8.343   3.614  1.00 21.30 LIG 0.04  C 
BRANCH 27 29
ATOM     29  C   ALA D   6      -7.300  10.160   3.860  1.00 24.24 LIG 0.24  C 
ATOM     30 O    ALA D   6      -7.133   9.745   5.007  1.00 22.56 LIG-0.27  OA
ATOM     31  N   MET D   7      -6.683  11.233   3.379  1.00 27.55 LIG-0.34  N 
ATOM     32 H    MET D   7      -6.857  11.586   2.615  1.00 27.55 LIG 0.16  HD
BRANCH 31 33
ATOM     33  CA  MET D   7      -5.637  11.915   4.132  1.00 30.72 LIG 0.19  C 
BRANCH 33 34
ATOM     34  C   MET D   7      -6.209  13.174   4.765  1.00 33.25 LIG 0.20  C 
ATOM     35 O    MET D   7      -5.789  14.286   4.420  1.00 35.29 LIG-0.65  OA
ATOM     36 OXT  MET D   7      -7.033  13.108   5.689  1.00 35.43 LIG-0.65  OA
ENDBRANCH 33 34
BRANCH 33 37
ATOM     37  CB  MET D   7      -4.457  12.241   3.210  1.00 30.73 LIG 0.05  C 
BRANCH 37 38
ATOM     38  CG  MET D   7      -4.674  11.956   1.737  1.00 32.79 LIG 0.08  C 
BRANCH 38 39
ATOM     39 SD   MET D   7      -5.570  13.285   0.930  1.00 33.89 LIG-0.17  SA
ATOM     40  CE  MET D   7      -4.356  13.888  -0.241  1.00 31.39 LIG 0.09  C 
ENDBRANCH 38 39
ENDBRANCH 37 38
ENDBRANCH 33 37
ENDBRANCH 31 33
ENDBRANCH 27 29
ENDBRANCH 25 27
ENDBRANCH 17 23
ENDBRANCH 15 17
ENDBRANCH 5 13
ENDBRANCH 3 5
BRANCH 1 41
ATOM     41  CA  LEU D   3     -11.862   8.914  -4.927  1.00 16.32 LIG 0.18  C 
BRANCH 41 42
ATOM     42  N   LEU D   3     -12.686   8.300  -5.961  1.00 16.05 LIG-0.35  N 
ATOM     43  C   VAL D   2     -13.207   9.026  -6.949  1.00 15.61 LIG 0.24  C 
ATOM     44 O    VAL D   2     -13.105  10.253  -6.999  1.00 16.79 LIG-0.27  OA
ATOM     45 H    LEU D   3     -12.798   7.452  -5.874  1.00 16.05 LIG 0.16  HD
BRANCH 43 46
ATOM     46  CA  VAL D   2     -14.100   8.287  -7.933  1.00 14.78 LIG 0.18  C 
BRANCH 46 47
ATOM     47  N   VAL D   2     -15.459   8.777  -7.750  1.00 14.77 LIG-0.35  N 
ATOM     48  C   ARG D   1     -16.462   7.949  -7.490  1.00 16.50 LIG 0.25  C 
ATOM     49 O    ARG D   1     -16.314   6.733  -7.342  1.00 16.49 LIG-0.27  OA
ATOM     50 H    VAL D   2     -15.544   9.630  -7.825  1.00 14.77 LIG 0.16  HD
BRANCH 48 51
ATOM     51  CA  ARG D   1     -17.806   8.593  -7.257  1.00 17.64 LIG 0.27  C 
BRANCH 51 52
ATOM     52  N   ARG D   1     -17.912   8.974  -5.825  1.00 17.90 LIG-0.07  N 
ATOM     53 H3   ARG D   1     -17.961   8.239  -5.325  1.00 17.90 LIG 0.28  HD
ATOM     54 H2   ARG D   1     -18.644   9.465  -5.701  1.00 17.90 LIG 0.28  HD
ATOM     55 H1   ARG D   1     -17.195   9.445  -5.589  1.00 17.90 LIG 0.28  HD
ENDBRANCH 51 52
BRANCH 51 56
ATOM     56  CB  ARG D   1     -17.904   9.821  -8.174  1.00 19.06 LIG 0.04  C 
BRANCH 56 57
ATOM     57  CG  ARG D   1     -18.749   9.665  -9.407  1.00 22.89 LIG 0.02  C 
BRANCH 57 58
ATOM     58  CD  ARG D   1     -19.209   8.217  -9.510  1.00 26.83 LIG 0.14  C 
BRANCH 58 59
ATOM     59  NE  ARG D   1     -18.521   7.496 -10.574  1.00 30.01 LIG-0.23  N 
ATOM     60  CZ  ARG D   1     -18.978   7.405 -11.819  1.00 33.71 LIG 0.67  C 
ATOM     61  NH1 ARG D   1     -20.125   7.986 -12.144  1.00 32.13 LIG-0.23  N 
ATOM     62  NH2 ARG D   1     -18.290   6.735 -12.739  1.00 33.53 LIG-0.23  N 
ATOM     63 1HH1 ARG D   1     -20.570   8.419 -11.550  1.00 32.13 LIG 0.17  HD
ATOM     64 2HH1 ARG D   1     -20.423   7.929 -12.949  1.00 32.13 LIG 0.17  HD
ATOM     65 1HH2 ARG D   1     -17.546   6.358 -12.531  1.00 33.53 LIG 0.17  HD
ATOM     66 2HH2 ARG D   1     -18.590   6.679 -13.544  1.00 33.53 LIG 0.17  HD
ATOM     67 HE   ARG D   1     -17.777   7.109 -10.385  1.00 30.01 LIG 0.18  HD
ENDBRANCH 58 59
ENDBRANCH 57 58
ENDBRANCH 56 57
ENDBRANCH 51 56
ENDBRANCH 48 51
ENDBRANCH 46 47
BRANCH 46 68
ATOM     68  CB  VAL D   2     -13.631   8.552  -9.380  1.00 15.28 LIG 0.01  C 
ATOM     69  CG2 VAL D   2     -14.085   9.926  -9.832  1.00 14.68 LIG 0.01  C 
ATOM     70  CG1 VAL D   2     -14.108   7.458 -10.337  1.00 13.75 LIG 0.01  C 
ENDBRANCH 46 68
ENDBRANCH 43 46
ENDBRANCH 41 42
BRANCH 41 71
ATOM     71  CB  LEU D   3     -12.726   9.433  -3.773  1.00 15.85 LIG 0.04  C 
BRANCH 71 72
ATOM     72  CG  LEU D   3     -13.304   8.382  -2.820  1.00 19.10 LIG-0.02  C 
ATOM     73  CD2 LEU D   3     -12.280   7.927  -1.792  1.00 16.59 LIG 0.01  C 
ATOM     74  CD1 LEU D   3     -13.824   7.200  -3.637  1.00 21.08 LIG 0.01  C 
ENDBRANCH 71 72
ENDBRANCH 41 71
ENDBRANCH 1 41
TORSDOF 29
ENDMDL
MODEL 24
USER: ADFR SOLUTION from run 105
USER: SCORE 24.273421 LL:  -5.500 LR: -20.853 RR:   0.000 FEB: -12.202
USER: RMSD 13.096464
USER: SEED 104
USER: STATUS 1 or 2 clusters left
USER: GENES 31
USER: genes 0 Translation |==|  0.59313 0.40083 0.46116
USER: genes 1 Rotation |==|  0.74065 0.85324 0.35620 0.71594
USER: genes 2 Torsion [C]-N--CA-[CB] |==|  0.81040
USER: genes 3 Torsion [N]-CA--CB-[CG] |==|  0.84453
USER: genes 4 Torsion [CA]-CB--CG-[CD1] |==|  0.40737
USER: genes 5 Torsion [N]-CA--C-[N] |==|  0.11620
USER: genes 6 Torsion [C]-N--CA-[C] |==|  0.77988
USER: genes 7 Torsion [N]-CA--CB-[CG] |==|  0.16243
USER: genes 8 Torsion [CA]-CB--CG-[CD] |==|  0.22919
USER: genes 9 Torsion [CB]-CG--CD-[OE1] |==|  0.19340
USER: genes 10 Torsion [N]-CA--C-[N] |==|  0.44865
USER: genes 11 Torsion [C]-N--CA-[CB] |==|  0.87039
USER: genes 12 Torsion [N]-CA--C-[N] |==|  0.82222
USER: genes 13 Torsion [C]-N--CA-[CB] |==|  0.23298
USER: genes 14 Torsion [N]-CA--C-[OXT] |==|  0.56791
USER: genes 15 Torsion [N]-CA--CB-[CG] |==|  0.76418
USER: genes 16 Torsion [CA]-CB--CG-[SD] |==|  0.28659
USER: genes 17 Torsion [CB]-CG--SD-[CE] |==|  0.50340
USER: genes 18 Torsion [N]-C--CA-[N] |==|  0.86012
USER: genes 19 Torsion [C]-CA--N-[C] |==|  0.60070
USER: genes 20 Torsion [N]-C--CA-[N] |==|  0.41518
USER: genes 21 Torsion [C]-CA--N-[C] |==|  0.74420
USER: genes 22 Torsion [N]-C--CA-[N] |==|  0.82624
USER: genes 23 Torsion [C]-CA--N-[H1] |==|  0.57374
USER: genes 24 Torsion [C]-CA--CB-[CG] |==|  0.43228
USER: genes 25 Torsion [CA]-CB--CG-[CD] |==|  0.29374
USER: genes 26 Torsion [CB]-CG--CD-[NE] |==|  0.86661
USER: genes 27 Torsion [CG]-CD--NE-[CZ] |==|  0.71464
USER: genes 28 Torsion [C]-CA--CB-[CG2] |==|  0.87155
USER: genes 29 Torsion [C]-CA--CB-[CG] |==|  0.60033
USER: genes 30 Torsion [CA]-CB--CG-[CD2] |==|  0.69527
ROOT
ATOM      1  C   LEU D   3     -12.279   7.344  -6.557  1.00 15.92 LIG 0.24  C 
ATOM      2 O    LEU D   3     -12.784   6.312  -6.998  1.00 19.39 LIG-0.27  OA
ATOM      3  N   PHE D   4     -12.221   8.463  -7.267  1.00 13.65 LIG-0.35  N 
ATOM      4 H    PHE D   4     -12.095   9.245  -6.932  1.00 13.65 LIG 0.16  HD
ENDROOT
BRANCH 3 5
ATOM      5  CA  PHE D   4     -12.370   8.433  -8.702  1.00 13.25 LIG 0.18  C 
BRANCH 5 6
ATOM      6  CB  PHE D   4     -11.148   7.733  -9.319  1.00 13.20 LIG 0.07  C 
BRANCH 6 7
ATOM      7  CG  PHE D   4      -9.849   8.347  -8.940  1.00 13.63 LIG-0.06  A 
ATOM      8  CD1 PHE D   4      -8.714   7.560  -8.788  1.00 13.10 LIG 0.01  A 
ATOM      9  CE1 PHE D   4      -7.496   8.139  -8.460  1.00 15.10 LIG 0.00  A 
ATOM     10  CZ  PHE D   4      -7.403   9.520  -8.298  1.00 15.27 LIG 0.00  A 
ATOM     11  CE2 PHE D   4      -8.534  10.311  -8.479  1.00 13.31 LIG 0.00  A 
ATOM     12  CD2 PHE D   4      -9.744   9.719  -8.780  1.00 12.44 LIG 0.01  A 
ENDBRANCH 6 7
ENDBRANCH 5 6
BRANCH 5 13
ATOM     13  C   PHE D   4     -13.661   7.677  -9.013  1.00 14.19 LIG 0.24  C 
ATOM     14 O    PHE D   4     -13.673   6.790  -9.861  1.00 15.09 LIG-0.27  OA
ATOM     15  N   GLU D   5     -14.715   7.932  -8.250  1.00 15.42 LIG-0.35  N 
ATOM     16 H    GLU D   5     -14.704   8.444  -7.560  1.00 15.42 LIG 0.16  HD
BRANCH 15 17
ATOM     17  CA  GLU D   5     -16.006   7.336  -8.548  1.00 15.66 LIG 0.18  C 
BRANCH 17 18
ATOM     18  CB  GLU D   5     -16.900   7.317  -7.300  1.00 15.74 LIG 0.04  C 
BRANCH 18 19
ATOM     19  CG  GLU D   5     -17.167   8.677  -6.689  1.00 13.49 LIG 0.12  C 
BRANCH 19 20
ATOM     20  CD  GLU D   5     -18.293   9.417  -7.389  1.00 17.86 LIG 0.17  C 
ATOM     21 OE1  GLU D   5     -19.458   8.983  -7.252  1.00 19.55 LIG-0.65  OA
ATOM     22 OE2  GLU D   5     -18.030  10.469  -8.022  1.00 19.96 LIG-0.65  OA
ENDBRANCH 19 20
ENDBRANCH 18 19
ENDBRANCH 17 18
BRANCH 17 23
ATOM     23  C   GLU D   5     -16.654   8.118  -9.677  1.00 17.50 LIG 0.24  C 
ATOM     24 O    GLU D   5     -16.248   9.243  -9.974  1.00 17.10 LIG-0.27  OA
ATOM     25  N   ALA D   6     -17.638   7.506 -10.327  1.00 19.03 LIG-0.35  N 
ATOM     26 H    ALA D   6     -17.926   6.720 -10.133  1.00 19.03 LIG 0.16  HD
BRANCH 25 27
ATOM     27  CA  ALA D   6     -18.318   8.142 -11.445  1.00 21.37 LIG 0.17  C 
ATOM     28  CB  ALA D   6     -18.682   9.568 -11.096  1.00 21.30 LIG 0.04  C 
BRANCH 27 29
ATOM     29  C   ALA D   6     -17.415   8.109 -12.668  1.00 24.24 LIG 0.24  C 
ATOM     30 O    ALA D   6     -17.740   7.483 -13.678  1.00 22.56 LIG-0.27  OA
ATOM     31  N   MET D   7     -16.284   8.798 -12.573  1.00 27.55 LIG-0.34  N 
ATOM     32 H    MET D   7     -16.004   9.164 -11.847  1.00 27.55 LIG 0.16  HD
BRANCH 31 33
ATOM     33  CA  MET D   7     -15.407   8.990 -13.721  1.00 30.72 LIG 0.19  C 
BRANCH 33 34
ATOM     34  C   MET D   7     -13.980   9.199 -13.238  1.00 33.25 LIG 0.20  C 
ATOM     35 O    MET D   7     -13.653   8.834 -12.101  1.00 35.29 LIG-0.65  OA
ATOM     36 OXT  MET D   7     -13.153   9.808 -13.930  1.00 35.43 LIG-0.65  OA
ENDBRANCH 33 34
BRANCH 33 37
ATOM     37  CB  MET D   7     -15.893  10.180 -14.557  1.00 30.73 LIG 0.05  C 
BRANCH 37 38
ATOM     38  CG  MET D   7     -16.974   9.873 -15.574  1.00 32.79 LIG 0.08  C 
BRANCH 38 39
ATOM     39 SD   MET D   7     -18.587  10.421 -15.011  1.00 33.89 LIG-0.17  SA
ATOM     40  CE  MET D   7     -19.643   9.905 -16.364  1.00 31.39 LIG 0.09  C 
ENDBRANCH 38 39
ENDBRANCH 37 38
ENDBRANCH 33 37
ENDBRANCH 31 33
ENDBRANCH 27 29
ENDBRANCH 25 27
ENDBRANCH 17 23
ENDBRANCH 15 17
ENDBRANCH 5 13
ENDBRANCH 3 5
BRANCH 1 41
ATOM     41  CA  LEU D   3     -11.636   7.380  -5.172  1.00 16.32 LIG 0.18  C 
BRANCH 41 42
ATOM     42  N   LEU D   3     -10.277   7.906  -5.192  1.00 16.05 LIG-0.35  N 
ATOM     43  C   VAL D   2      -9.336   7.416  -4.387  1.00 15.61 LIG 0.24  C 
ATOM     44 O    VAL D   2      -9.572   6.567  -3.525  1.00 16.79 LIG-0.27  OA
ATOM     45 H    LEU D   3     -10.146   8.542  -5.755  1.00 16.05 LIG 0.16  HD
BRANCH 43 46
ATOM     46  CA  VAL D   2      -7.972   8.085  -4.452  1.00 14.78 LIG 0.18  C 
BRANCH 46 47
ATOM     47  N   VAL D   2      -7.364   7.978  -3.133  1.00 14.77 LIG-0.35  N 
ATOM     48  C   ARG D   1      -7.512   8.933  -2.225  1.00 16.50 LIG 0.25  C 
ATOM     49 O    ARG D   1      -8.200   9.942  -2.410  1.00 16.49 LIG-0.27  OA
ATOM     50 H    VAL D   2      -6.914   7.256  -3.005  1.00 14.77 LIG 0.16  HD
BRANCH 48 51
ATOM     51  CA  ARG D   1      -6.887   8.667  -0.878  1.00 17.64 LIG 0.27  C 
BRANCH 51 52
ATOM     52  N   ARG D   1      -7.537   7.475  -0.276  1.00 17.90 LIG-0.07  N 
ATOM     53 H3   ARG D   1      -7.127   6.738  -0.559  1.00 17.90 LIG 0.28  HD
ATOM     54 H2   ARG D   1      -8.394   7.449  -0.520  1.00 17.90 LIG 0.28  HD
ATOM     55 H1   ARG D   1      -7.483   7.523   0.610  1.00 17.90 LIG 0.28  HD
ENDBRANCH 51 52
BRANCH 51 56
ATOM     56  CB  ARG D   1      -5.384   8.437  -1.096  1.00 19.06 LIG 0.04  C 
BRANCH 56 57
ATOM     57  CG  ARG D   1      -4.491   8.714   0.081  1.00 22.89 LIG 0.02  C 
BRANCH 57 58
ATOM     58  CD  ARG D   1      -4.027   7.388   0.671  1.00 26.83 LIG 0.14  C 
BRANCH 58 59
ATOM     59  NE  ARG D   1      -5.131   6.456   0.863  1.00 30.01 LIG-0.23  N 
ATOM     60  CZ  ARG D   1      -5.689   6.206   2.043  1.00 33.71 LIG 0.67  C 
ATOM     61  NH1 ARG D   1      -5.235   6.818   3.129  1.00 32.13 LIG-0.23  N 
ATOM     62  NH2 ARG D   1      -6.698   5.347   2.141  1.00 33.53 LIG-0.23  N 
ATOM     63 1HH1 ARG D   1      -4.582   7.374   3.068  1.00 32.13 LIG 0.17  HD
ATOM     64 2HH1 ARG D   1      -5.594   6.659   3.894  1.00 32.13 LIG 0.17  HD
ATOM     65 1HH2 ARG D   1      -6.994   4.949   1.438  1.00 33.53 LIG 0.17  HD
ATOM     66 2HH2 ARG D   1      -7.057   5.189   2.906  1.00 33.53 LIG 0.17  HD
ATOM     67 HE   ARG D   1      -5.438   6.045   0.174  1.00 30.01 LIG 0.18  HD
ENDBRANCH 58 59
ENDBRANCH 57 58
ENDBRANCH 56 57
ENDBRANCH 51 56
ENDBRANCH 48 51
ENDBRANCH 46 47
BRANCH 46 68
ATOM     68  CB  VAL D   2      -7.085   7.386  -5.504  1.00 15.28 LIG 0.01  C 
ATOM     69  CG2 VAL D   2      -7.169   5.882  -5.339  1.00 14.68 LIG 0.01  C 
ATOM     70  CG1 VAL D   2      -5.639   7.881  -5.442  1.00 13.75 LIG 0.01  C 
ENDBRANCH 46 68
ENDBRANCH 43 46
ENDBRANCH 41 42
BRANCH 41 71
ATOM     71  CB  LEU D   3     -12.514   8.164  -4.191  1.00 15.85 LIG 0.04  C 
BRANCH 71 72
ATOM     72  CG  LEU D   3     -11.785   9.011  -3.143  1.00 19.10 LIG-0.02  C 
ATOM     73  CD2 LEU D   3     -11.928   8.429  -1.746  1.00 16.59 LIG 0.01  C 
ATOM     74  CD1 LEU D   3     -12.319  10.442  -3.198  1.00 21.08 LIG 0.01  C 
ENDBRANCH 71 72
ENDBRANCH 41 71
ENDBRANCH 1 41
TORSDOF 29
ENDMDL
MODEL 25
USER: ADFR SOLUTION from run 126
USER: SCORE 25.744605 LL:  -6.330 LR: -20.842 RR:   0.000 FEB: -12.191
USER: RMSD 13.328632
USER: SEED 125
USER: STATUS no improvement in best in 8 clusters for 5 generations
USER: GENES 31
USER: genes 0 Translation |==|  0.59541 0.42079 0.37514
USER: genes 1 Rotation |==|  0.38956 0.96310 0.65132 0.52098
USER: genes 2 Torsion [C]-N--CA-[CB] |==|  0.52558
USER: genes 3 Torsion [N]-CA--CB-[CG] |==|  0.28017
USER: genes 4 Torsion [CA]-CB--CG-[CD1] |==|  0.76194
USER: genes 5 Torsion [N]-CA--C-[N] |==|  0.42586
USER: genes 6 Torsion [C]-N--CA-[C] |==|  0.57249
USER: genes 7 Torsion [N]-CA--CB-[CG] |==|  0.33120
USER: genes 8 Torsion [CA]-CB--CG-[CD] |==|  0.77145
USER: genes 9 Torsion [CB]-CG--CD-[OE1] |==|  0.80847
USER: genes 10 Torsion [N]-CA--C-[N] |==|  0.47430
USER: genes 11 Torsion [C]-N--CA-[CB] |==|  0.88796
USER: genes 12 Torsion [N]-CA--C-[N] |==|  0.88450
USER: genes 13 Torsion [C]-N--CA-[CB] |==|  0.42680
USER: genes 14 Torsion [N]-CA--C-[OXT] |==|  0.95467
USER: genes 15 Torsion [N]-CA--CB-[CG] |==|  0.93142
USER: genes 16 Torsion [CA]-CB--CG-[SD] |==|  0.54318
USER: genes 17 Torsion [CB]-CG--SD-[CE] |==|  0.40170
USER: genes 18 Torsion [N]-C--CA-[N] |==|  0.09653
USER: genes 19 Torsion [C]-CA--N-[C] |==|  0.65556
USER: genes 20 Torsion [N]-C--CA-[N] |==|  0.31595
USER: genes 21 Torsion [C]-CA--N-[C] |==|  0.61743
USER: genes 22 Torsion [N]-C--CA-[N] |==|  0.43199
USER: genes 23 Torsion [C]-CA--N-[H1] |==|  0.98228
USER: genes 24 Torsion [C]-CA--CB-[CG] |==|  0.03948
USER: genes 25 Torsion [CA]-CB--CG-[CD] |==|  0.60494
USER: genes 26 Torsion [CB]-CG--CD-[NE] |==|  0.24351
USER: genes 27 Torsion [CG]-CD--NE-[CZ] |==|  0.26071
USER: genes 28 Torsion [C]-CA--CB-[CG2] |==|  0.47713
USER: genes 29 Torsion [C]-CA--CB-[CG] |==|  0.33767
USER: genes 30 Torsion [CA]-CB--CG-[CD2] |==|  0.63078
ROOT
ATOM      1  C   LEU D   3     -12.214   7.598  -9.009  1.00 15.92 LIG 0.24  C 
ATOM      2 O    LEU D   3     -11.917   7.483 -10.197  1.00 19.39 LIG-0.27  OA
ATOM      3  N   PHE D   4     -13.374   7.176  -8.525  1.00 13.65 LIG-0.35  N 
ATOM      4 H    PHE D   4     -13.528   7.025  -7.692  1.00 13.65 LIG 0.16  HD
ENDROOT
BRANCH 3 5
ATOM      5  CA  PHE D   4     -14.494   6.935  -9.403  1.00 13.25 LIG 0.18  C 
BRANCH 5 6
ATOM      6  CB  PHE D   4     -15.751   6.683  -8.555  1.00 13.20 LIG 0.07  C 
BRANCH 6 7
ATOM      7  CG  PHE D   4     -16.651   7.861  -8.451  1.00 13.63 LIG-0.06  A 
ATOM      8  CD1 PHE D   4     -16.436   8.829  -7.477  1.00 13.10 LIG 0.01  A 
ATOM      9  CE1 PHE D   4     -17.263   9.942  -7.398  1.00 15.10 LIG 0.00  A 
ATOM     10  CZ  PHE D   4     -18.304  10.101  -8.310  1.00 15.27 LIG 0.00  A 
ATOM     11  CE2 PHE D   4     -18.500   9.147  -9.303  1.00 13.31 LIG 0.00  A 
ATOM     12  CD2 PHE D   4     -17.687   8.033  -9.353  1.00 12.44 LIG 0.01  A 
ENDBRANCH 6 7
ENDBRANCH 5 6
BRANCH 5 13
ATOM     13  C   PHE D   4     -14.658   8.170 -10.287  1.00 14.19 LIG 0.24  C 
ATOM     14 O    PHE D   4     -14.182   9.248  -9.944  1.00 15.09 LIG-0.27  OA
ATOM     15  N   GLU D   5     -15.217   7.998 -11.477  1.00 15.42 LIG-0.35  N 
ATOM     16 H    GLU D   5     -15.435   7.234 -11.806  1.00 15.42 LIG 0.16  HD
BRANCH 15 17
ATOM     17  CA  GLU D   5     -15.506   9.137 -12.331  1.00 15.66 LIG 0.18  C 
BRANCH 17 18
ATOM     18  CB  GLU D   5     -14.262   9.549 -13.132  1.00 15.74 LIG 0.04  C 
BRANCH 18 19
ATOM     19  CG  GLU D   5     -14.419   9.469 -14.635  1.00 13.49 LIG 0.12  C 
BRANCH 19 20
ATOM     20  CD  GLU D   5     -14.207   8.063 -15.168  1.00 17.86 LIG 0.17  C 
ATOM     21 OE1  GLU D   5     -13.052   7.584 -15.122  1.00 19.55 LIG-0.65  OA
ATOM     22 OE2  GLU D   5     -15.199   7.409 -15.574  1.00 19.96 LIG-0.65  OA
ENDBRANCH 19 20
ENDBRANCH 18 19
ENDBRANCH 17 18
BRANCH 17 23
ATOM     23  C   GLU D   5     -16.658   8.774 -13.253  1.00 17.50 LIG 0.24  C 
ATOM     24 O    GLU D   5     -17.092   7.622 -13.290  1.00 17.10 LIG-0.27  OA
ATOM     25  N   ALA D   6     -17.173   9.768 -13.967  1.00 19.03 LIG-0.35  N 
ATOM     26 H    ALA D   6     -16.883  10.577 -13.946  1.00 19.03 LIG 0.16  HD
BRANCH 25 27
ATOM     27  CA  ALA D   6     -18.298   9.552 -14.865  1.00 21.37 LIG 0.17  C 
ATOM     28  CB  ALA D   6     -18.139   8.239 -15.598  1.00 21.30 LIG 0.04  C 
BRANCH 27 29
ATOM     29  C   ALA D   6     -19.590   9.560 -14.065  1.00 24.24 LIG 0.24  C 
ATOM     30 O    ALA D   6     -20.597  10.123 -14.495  1.00 22.56 LIG-0.27  OA
ATOM     31  N   MET D   7     -19.555   8.924 -12.900  1.00 27.55 LIG-0.34  N 
ATOM     32 H    MET D   7     -18.839   8.605 -12.548  1.00 27.55 LIG 0.16  HD
BRANCH 31 33
ATOM     33  CA  MET D   7     -20.762   8.710 -12.110  1.00 30.72 LIG 0.19  C 
BRANCH 33 34
ATOM     34  C   MET D   7     -21.042   9.949 -11.273  1.00 33.25 LIG 0.20  C 
ATOM     35 O    MET D   7     -22.183  10.156 -10.837  1.00 35.29 LIG-0.65  OA
ATOM     36 OXT  MET D   7     -20.168  10.808 -11.088  1.00 35.43 LIG-0.65  OA
ENDBRANCH 33 34
BRANCH 33 37
ATOM     37  CB  MET D   7     -20.597   7.467 -11.228  1.00 30.73 LIG 0.05  C 
BRANCH 37 38
ATOM     38  CG  MET D   7     -19.601   6.437 -11.723  1.00 32.79 LIG 0.08  C 
BRANCH 38 39
ATOM     39 SD   MET D   7     -19.808   4.862 -10.889  1.00 33.89 LIG-0.17  SA
ATOM     40  CE  MET D   7     -19.433   3.700 -12.200  1.00 31.39 LIG 0.09  C 
ENDBRANCH 38 39
ENDBRANCH 37 38
ENDBRANCH 33 37
ENDBRANCH 31 33
ENDBRANCH 27 29
ENDBRANCH 25 27
ENDBRANCH 17 23
ENDBRANCH 15 17
ENDBRANCH 5 13
ENDBRANCH 3 5
BRANCH 1 41
ATOM     41  CA  LEU D   3     -11.274   8.288  -8.022  1.00 16.32 LIG 0.18  C 
BRANCH 41 42
ATOM     42  N   LEU D   3     -11.349   7.725  -6.679  1.00 16.05 LIG-0.35  N 
ATOM     43  C   VAL D   2     -11.628   8.490  -5.626  1.00 15.61 LIG 0.24  C 
ATOM     44 O    VAL D   2     -11.747   9.714  -5.703  1.00 16.79 LIG-0.27  OA
ATOM     45 H    LEU D   3     -11.200   6.879  -6.636  1.00 16.05 LIG 0.16  HD
BRANCH 43 46
ATOM     46  CA  VAL D   2     -11.617   7.803  -4.269  1.00 14.78 LIG 0.18  C 
BRANCH 46 47
ATOM     47  N   VAL D   2     -10.513   8.361  -3.501  1.00 14.77 LIG-0.35  N 
ATOM     48  C   ARG D   1      -9.722   7.588  -2.769  1.00 16.50 LIG 0.25  C 
ATOM     49 O    ARG D   1      -9.832   6.359  -2.721  1.00 16.49 LIG-0.27  OA
ATOM     50 H    VAL D   2     -10.426   9.214  -3.567  1.00 14.77 LIG 0.16  HD
BRANCH 48 51
ATOM     51  CA  ARG D   1      -8.576   8.283  -2.076  1.00 17.64 LIG 0.27  C 
BRANCH 51 52
ATOM     52  N   ARG D   1      -8.176   7.480  -0.891  1.00 17.90 LIG-0.07  N 
ATOM     53 H3   ARG D   1      -8.182   7.997  -0.167  1.00 17.90 LIG 0.28  HD
ATOM     54 H2   ARG D   1      -7.357   7.154  -1.016  1.00 17.90 LIG 0.28  HD
ATOM     55 H1   ARG D   1      -8.749   6.808  -0.780  1.00 17.90 LIG 0.28  HD
ENDBRANCH 51 52
BRANCH 51 56
ATOM     56  CB  ARG D   1      -7.425   8.410  -3.084  1.00 19.06 LIG 0.04  C 
BRANCH 56 57
ATOM     57  CG  ARG D   1      -7.771   8.160  -4.525  1.00 22.89 LIG 0.02  C 
BRANCH 57 58
ATOM     58  CD  ARG D   1      -6.617   7.419  -5.188  1.00 26.83 LIG 0.14  C 
BRANCH 58 59
ATOM     59  NE  ARG D   1      -6.735   5.974  -5.041  1.00 30.01 LIG-0.23  N 
ATOM     60  CZ  ARG D   1      -7.304   5.183  -5.945  1.00 33.71 LIG 0.67  C 
ATOM     61  NH1 ARG D   1      -7.809   5.707  -7.053  1.00 32.13 LIG-0.23  N 
ATOM     62  NH2 ARG D   1      -7.369   3.870  -5.744  1.00 33.53 LIG-0.23  N 
ATOM     63 1HH1 ARG D   1      -7.768   6.556  -7.185  1.00 32.13 LIG 0.17  HD
ATOM     64 2HH1 ARG D   1      -8.178   5.199  -7.641  1.00 32.13 LIG 0.17  HD
ATOM     65 1HH2 ARG D   1      -7.042   3.529  -5.025  1.00 33.53 LIG 0.17  HD
ATOM     66 2HH2 ARG D   1      -7.738   3.363  -6.332  1.00 33.53 LIG 0.17  HD
ATOM     67 HE   ARG D   1      -6.418   5.612  -4.328  1.00 30.01 LIG 0.18  HD
ENDBRANCH 58 59
ENDBRANCH 57 58
ENDBRANCH 56 57
ENDBRANCH 51 56
ENDBRANCH 48 51
ENDBRANCH 46 47
BRANCH 46 68
ATOM     68  CB  VAL D   2     -12.953   8.051  -3.535  1.00 15.28 LIG 0.01  C 
ATOM     69  CG2 VAL D   2     -13.021   7.205  -2.279  1.00 14.68 LIG 0.01  C 
ATOM     70  CG1 VAL D   2     -14.154   7.801  -4.448  1.00 13.75 LIG 0.01  C 
ENDBRANCH 46 68
ENDBRANCH 43 46
ENDBRANCH 41 42
BRANCH 41 71
ATOM     71  CB  LEU D   3      -9.835   8.270  -8.546  1.00 15.85 LIG 0.04  C 
BRANCH 71 72
ATOM     72  CG  LEU D   3      -9.155   9.630  -8.732  1.00 19.10 LIG-0.02  C 
ATOM     73  CD2 LEU D   3      -8.459   9.735 -10.081  1.00 16.59 LIG 0.01  C 
ATOM     74  CD1 LEU D   3      -8.168   9.856  -7.588  1.00 21.08 LIG 0.01  C 
ENDBRANCH 71 72
ENDBRANCH 41 71
ENDBRANCH 1 41
TORSDOF 29
ENDMDL
MODEL 26
USER: ADFR SOLUTION from run 29
USER: SCORE 25.436163 LL:  -6.152 LR: -20.839 RR:   0.000 FEB: -12.188
USER: RMSD 2.914024
USER: SEED 28
USER: STATUS no improvement in best in 9 clusters for 5 generations
USER: GENES 31
USER: genes 0 Translation |==|  0.52956 0.40030 0.38775
USER: genes 1 Rotation |==|  0.38388 0.51850 0.44461 0.98281
USER: genes 2 Torsion [C]-N--CA-[CB] |==|  0.55845
USER: genes 3 Torsion [N]-CA--CB-[CG] |==|  0.38461
USER: genes 4 Torsion [CA]-CB--CG-[CD1] |==|  0.74134
USER: genes 5 Torsion [N]-CA--C-[N] |==|  0.34467
USER: genes 6 Torsion [C]-N--CA-[C] |==|  0.66239
USER: genes 7 Torsion [N]-CA--CB-[CG] |==|  0.75788
USER: genes 8 Torsion [CA]-CB--CG-[CD] |==|  0.34442
USER: genes 9 Torsion [CB]-CG--CD-[OE1] |==|  0.47873
USER: genes 10 Torsion [N]-CA--C-[N] |==|  0.97664
USER: genes 11 Torsion [C]-N--CA-[CB] |==|  0.53073
USER: genes 12 Torsion [N]-CA--C-[N] |==|  0.42076
USER: genes 13 Torsion [C]-N--CA-[CB] |==|  0.36726
USER: genes 14 Torsion [N]-CA--C-[OXT] |==|  0.22800
USER: genes 15 Torsion [N]-CA--CB-[CG] |==|  0.89907
USER: genes 16 Torsion [CA]-CB--CG-[SD] |==|  0.81024
USER: genes 17 Torsion [CB]-CG--SD-[CE] |==|  0.43007
USER: genes 18 Torsion [N]-C--CA-[N] |==|  0.06975
USER: genes 19 Torsion [C]-CA--N-[C] |==|  0.72222
USER: genes 20 Torsion [N]-C--CA-[N] |==|  0.27381
USER: genes 21 Torsion [C]-CA--N-[C] |==|  0.58567
USER: genes 22 Torsion [N]-C--CA-[N] |==|  0.54278
USER: genes 23 Torsion [C]-CA--N-[H1] |==|  0.41379
USER: genes 24 Torsion [C]-CA--CB-[CG] |==|  0.58366
USER: genes 25 Torsion [CA]-CB--CG-[CD] |==|  0.39737
USER: genes 26 Torsion [CB]-CG--CD-[NE] |==|  0.97779
USER: genes 27 Torsion [CG]-CD--NE-[CZ] |==|  0.71149
USER: genes 28 Torsion [C]-CA--CB-[CG2] |==|  0.47597
USER: genes 29 Torsion [C]-CA--CB-[CG] |==|  0.36237
USER: genes 30 Torsion [CA]-CB--CG-[CD2] |==|  0.01442
ROOT
ATOM      1  C   LEU D   3     -14.091   7.337  -8.649  1.00 15.92 LIG 0.24  C 
ATOM      2 O    LEU D   3     -14.122   6.976  -7.473  1.00 19.39 LIG-0.27  OA
ATOM      3  N   PHE D   4     -12.997   7.231  -9.392  1.00 13.65 LIG-0.35  N 
ATOM      4 H    PHE D   4     -12.990   7.250 -10.252  1.00 13.65 LIG 0.16  HD
ENDROOT
BRANCH 3 5
ATOM      5  CA  PHE D   4     -11.701   7.073  -8.777  1.00 13.25 LIG 0.18  C 
BRANCH 5 6
ATOM      6  CB  PHE D   4     -10.615   7.500  -9.778  1.00 13.20 LIG 0.07  C 
BRANCH 6 7
ATOM      7  CG  PHE D   4      -9.517   8.296  -9.171  1.00 13.63 LIG-0.06  A 
ATOM      8  CD1 PHE D   4      -9.571   9.685  -9.167  1.00 13.10 LIG 0.01  A 
ATOM      9  CE1 PHE D   4      -8.557  10.426  -8.577  1.00 15.10 LIG 0.00  A 
ATOM     10  CZ  PHE D   4      -7.486   9.777  -7.966  1.00 15.27 LIG 0.00  A 
ATOM     11  CE2 PHE D   4      -7.447   8.386  -7.944  1.00 13.31 LIG 0.00  A 
ATOM     12  CD2 PHE D   4      -8.449   7.663  -8.558  1.00 12.44 LIG 0.01  A 
ENDBRANCH 6 7
ENDBRANCH 5 6
BRANCH 5 13
ATOM     13  C   PHE D   4     -11.678   7.950  -7.525  1.00 14.19 LIG 0.24  C 
ATOM     14 O    PHE D   4     -12.025   9.125  -7.583  1.00 15.09 LIG-0.27  OA
ATOM     15  N   GLU D   5     -11.392   7.359  -6.373  1.00 15.42 LIG-0.35  N 
ATOM     16 H    GLU D   5     -11.281   6.511  -6.275  1.00 15.42 LIG 0.16  HD
BRANCH 15 17
ATOM     17  CA  GLU D   5     -11.245   8.139  -5.157  1.00 15.66 LIG 0.18  C 
BRANCH 17 18
ATOM     18  CB  GLU D   5     -12.331   7.769  -4.135  1.00 15.74 LIG 0.04  C 
BRANCH 18 19
ATOM     19  CG  GLU D   5     -13.626   8.540  -4.279  1.00 13.49 LIG 0.12  C 
BRANCH 19 20
ATOM     20  CD  GLU D   5     -14.828   7.628  -4.450  1.00 17.86 LIG 0.17  C 
ATOM     21 OE1  GLU D   5     -15.967   8.145  -4.432  1.00 19.55 LIG-0.65  OA
ATOM     22 OE2  GLU D   5     -14.640   6.405  -4.667  1.00 19.96 LIG-0.65  OA
ENDBRANCH 19 20
ENDBRANCH 18 19
ENDBRANCH 17 18
BRANCH 17 23
ATOM     23  C   GLU D   5      -9.855   7.903  -4.592  1.00 17.50 LIG 0.24  C 
ATOM     24 O    GLU D   5      -9.452   8.553  -3.627  1.00 17.10 LIG-0.27  OA
ATOM     25  N   ALA D   6      -9.140   6.947  -5.174  1.00 19.03 LIG-0.35  N 
ATOM     26 H    ALA D   6      -9.412   6.482  -5.844  1.00 19.03 LIG 0.16  HD
BRANCH 25 27
ATOM     27  CA  ALA D   6      -7.805   6.607  -4.704  1.00 21.37 LIG 0.17  C 
ATOM     28  CB  ALA D   6      -7.118   5.692  -5.693  1.00 21.30 LIG 0.04  C 
BRANCH 27 29
ATOM     29  C   ALA D   6      -6.998   7.882  -4.513  1.00 24.24 LIG 0.24  C 
ATOM     30 O    ALA D   6      -7.238   8.888  -5.180  1.00 22.56 LIG-0.27  OA
ATOM     31  N   MET D   7      -6.047   7.833  -3.588  1.00 27.55 LIG-0.34  N 
ATOM     32 H    MET D   7      -5.810   7.114  -3.179  1.00 27.55 LIG 0.16  HD
BRANCH 31 33
ATOM     33  CA  MET D   7      -5.312   9.025  -3.184  1.00 30.72 LIG 0.19  C 
BRANCH 33 34
ATOM     34  C   MET D   7      -3.914   8.983  -3.783  1.00 33.25 LIG 0.20  C 
ATOM     35 O    MET D   7      -2.947   8.669  -3.076  1.00 35.29 LIG-0.65  OA
ATOM     36 OXT  MET D   7      -3.708   9.342  -4.951  1.00 35.43 LIG-0.65  OA
ENDBRANCH 33 34
BRANCH 33 37
ATOM     37  CB  MET D   7      -5.261   9.116  -1.655  1.00 30.73 LIG 0.05  C 
BRANCH 37 38
ATOM     38  CG  MET D   7      -6.504   8.647  -0.926  1.00 32.79 LIG 0.08  C 
BRANCH 38 39
ATOM     39 SD   MET D   7      -7.895   9.745  -1.213  1.00 33.89 LIG-0.17  SA
ATOM     40  CE  MET D   7      -9.288   8.651  -0.945  1.00 31.39 LIG 0.09  C 
ENDBRANCH 38 39
ENDBRANCH 37 38
ENDBRANCH 33 37
ENDBRANCH 31 33
ENDBRANCH 27 29
ENDBRANCH 25 27
ENDBRANCH 17 23
ENDBRANCH 15 17
ENDBRANCH 5 13
ENDBRANCH 3 5
BRANCH 1 41
ATOM     41  CA  LEU D   3     -15.306   7.982  -9.312  1.00 16.32 LIG 0.18  C 
BRANCH 41 42
ATOM     42  N   LEU D   3     -15.292   7.857 -10.764  1.00 16.05 LIG-0.35  N 
ATOM     43  C   VAL D   2     -14.899   8.866 -11.539  1.00 15.61 LIG 0.24  C 
ATOM     44 O    VAL D   2     -14.616   9.979 -11.092  1.00 16.79 LIG-0.27  OA
ATOM     45 H    LEU D   3     -15.553   7.093 -11.062  1.00 16.05 LIG 0.16  HD
BRANCH 43 46
ATOM     46  CA  VAL D   2     -14.987   8.641 -13.041  1.00 14.78 LIG 0.18  C 
BRANCH 46 47
ATOM     47  N   VAL D   2     -16.217   9.263 -13.509  1.00 14.77 LIG-0.35  N 
ATOM     48  C   ARG D   1     -16.883   8.778 -14.548  1.00 16.50 LIG 0.25  C 
ATOM     49 O    ARG D   1     -16.542   7.758 -15.154  1.00 16.49 LIG-0.27  OA
ATOM     50 H    VAL D   2     -16.462   9.955 -13.060  1.00 14.77 LIG 0.16  HD
BRANCH 48 51
ATOM     51  CA  ARG D   1     -18.176   9.476 -14.889  1.00 17.64 LIG 0.27  C 
BRANCH 51 52
ATOM     52  N   ARG D   1     -18.963   8.608 -15.802  1.00 17.90 LIG-0.07  N 
ATOM     53 H3   ARG D   1     -18.766   7.755 -15.643  1.00 17.90 LIG 0.28  HD
ATOM     54 H2   ARG D   1     -18.762   8.805 -16.647  1.00 17.90 LIG 0.28  HD
ATOM     55 H1   ARG D   1     -19.832   8.742 -15.665  1.00 17.90 LIG 0.28  HD
ENDBRANCH 51 52
BRANCH 51 56
ATOM     56  CB  ARG D   1     -18.929   9.738 -13.576  1.00 19.06 LIG 0.04  C 
BRANCH 56 57
ATOM     57  CG  ARG D   1     -20.429   9.756 -13.660  1.00 22.89 LIG 0.02  C 
BRANCH 57 58
ATOM     58  CD  ARG D   1     -21.002   9.122 -12.399  1.00 26.83 LIG 0.14  C 
BRANCH 58 59
ATOM     59  NE  ARG D   1     -19.967   8.519 -11.569  1.00 30.01 LIG-0.23  N 
ATOM     60  CZ  ARG D   1     -19.749   7.209 -11.496  1.00 33.71 LIG 0.67  C 
ATOM     61  NH1 ARG D   1     -20.503   6.376 -12.200  1.00 32.13 LIG-0.23  N 
ATOM     62  NH2 ARG D   1     -18.780   6.732 -10.720  1.00 33.53 LIG-0.23  N 
ATOM     63 1HH1 ARG D   1     -21.130   6.683 -12.701  1.00 32.13 LIG 0.17  HD
ATOM     64 2HH1 ARG D   1     -20.365   5.528 -12.155  1.00 32.13 LIG 0.17  HD
ATOM     65 1HH2 ARG D   1     -18.290   7.270 -10.263  1.00 33.53 LIG 0.17  HD
ATOM     66 2HH2 ARG D   1     -18.643   5.884 -10.677  1.00 33.53 LIG 0.17  HD
ATOM     67 HE   ARG D   1     -19.468   9.039 -11.101  1.00 30.01 LIG 0.18  HD
ENDBRANCH 58 59
ENDBRANCH 57 58
ENDBRANCH 56 57
ENDBRANCH 51 56
ENDBRANCH 48 51
ENDBRANCH 46 47
BRANCH 46 68
ATOM     68  CB  VAL D   2     -13.769   9.275 -13.747  1.00 15.28 LIG 0.01  C 
ATOM     69  CG2 VAL D   2     -13.746   8.870 -15.207  1.00 14.68 LIG 0.01  C 
ATOM     70  CG1 VAL D   2     -12.459   8.918 -13.043  1.00 13.75 LIG 0.01  C 
ENDBRANCH 46 68
ENDBRANCH 43 46
ENDBRANCH 41 42
BRANCH 41 71
ATOM     71  CB  LEU D   3     -16.603   7.417  -8.725  1.00 15.85 LIG 0.04  C 
BRANCH 71 72
ATOM     72  CG  LEU D   3     -17.655   8.436  -8.277  1.00 19.10 LIG-0.02  C 
ATOM     73  CD2 LEU D   3     -17.248   9.859  -8.625  1.00 16.59 LIG 0.01  C 
ATOM     74  CD1 LEU D   3     -17.890   8.285  -6.775  1.00 21.08 LIG 0.01  C 
ENDBRANCH 71 72
ENDBRANCH 41 71
ENDBRANCH 1 41
TORSDOF 29
ENDMDL
MODEL 27
USER: ADFR SOLUTION from run 126
USER: SCORE 25.254831 LL:  -5.880 LR: -20.789 RR:   0.000 FEB: -12.138
USER: RMSD 13.715632
USER: SEED 125
USER: STATUS no improvement in best in 8 clusters for 5 generations
USER: GENES 31
USER: genes 0 Translation |==|  0.59868 0.42359 0.37048
USER: genes 1 Rotation |==|  0.38466 0.96364 0.64621 0.51878
USER: genes 2 Torsion [C]-N--CA-[CB] |==|  0.51497
USER: genes 3 Torsion [N]-CA--CB-[CG] |==|  0.26979
USER: genes 4 Torsion [CA]-CB--CG-[CD1] |==|  0.78297
USER: genes 5 Torsion [N]-CA--C-[N] |==|  0.44075
USER: genes 6 Torsion [C]-N--CA-[C] |==|  0.56023
USER: genes 7 Torsion [N]-CA--CB-[CG] |==|  0.32458
USER: genes 8 Torsion [CA]-CB--CG-[CD] |==|  0.77373
USER: genes 9 Torsion [CB]-CG--CD-[OE1] |==|  0.81211
USER: genes 10 Torsion [N]-CA--C-[N] |==|  0.47222
USER: genes 11 Torsion [C]-N--CA-[CB] |==|  0.88168
USER: genes 12 Torsion [N]-CA--C-[N] |==|  0.88652
USER: genes 13 Torsion [C]-N--CA-[CB] |==|  0.42556
USER: genes 14 Torsion [N]-CA--C-[OXT] |==|  0.95233
USER: genes 15 Torsion [N]-CA--CB-[CG] |==|  0.93398
USER: genes 16 Torsion [CA]-CB--CG-[SD] |==|  0.54606
USER: genes 17 Torsion [CB]-CG--SD-[CE] |==|  0.39900
USER: genes 18 Torsion [N]-C--CA-[N] |==|  0.10220
USER: genes 19 Torsion [C]-CA--N-[C] |==|  0.66465
USER: genes 20 Torsion [N]-C--CA-[N] |==|  0.30474
USER: genes 21 Torsion [C]-CA--N-[C] |==|  0.65985
USER: genes 22 Torsion [N]-C--CA-[N] |==|  0.90277
USER: genes 23 Torsion [C]-CA--N-[H1] |==|  0.93136
USER: genes 24 Torsion [C]-CA--CB-[CG] |==|  0.55187
USER: genes 25 Torsion [CA]-CB--CG-[CD] |==|  0.74690
USER: genes 26 Torsion [CB]-CG--CD-[NE] |==|  0.86797
USER: genes 27 Torsion [CG]-CD--NE-[CZ] |==|  0.37118
USER: genes 28 Torsion [C]-CA--CB-[CG2] |==|  0.47749
USER: genes 29 Torsion [C]-CA--CB-[CG] |==|  0.33766
USER: genes 30 Torsion [CA]-CB--CG-[CD2] |==|  0.63077
ROOT
ATOM      1  C   LEU D   3     -12.121   7.634  -9.141  1.00 15.92 LIG 0.24  C 
ATOM      2 O    LEU D   3     -11.819   7.498 -10.326  1.00 19.39 LIG-0.27  OA
ATOM      3  N   PHE D   4     -13.274   7.200  -8.650  1.00 13.65 LIG-0.35  N 
ATOM      4 H    PHE D   4     -13.427   7.065  -7.815  1.00 13.65 LIG 0.16  HD
ENDROOT
BRANCH 3 5
ATOM      5  CA  PHE D   4     -14.387   6.917  -9.525  1.00 13.25 LIG 0.18  C 
BRANCH 5 6
ATOM      6  CB  PHE D   4     -15.617   6.566  -8.673  1.00 13.20 LIG 0.07  C 
BRANCH 6 7
ATOM      7  CG  PHE D   4     -16.541   7.709  -8.453  1.00 13.63 LIG-0.06  A 
ATOM      8  CD1 PHE D   4     -16.243   8.686  -7.511  1.00 13.10 LIG 0.01  A 
ATOM      9  CE1 PHE D   4     -17.095   9.767  -7.325  1.00 15.10 LIG 0.00  A 
ATOM     10  CZ  PHE D   4     -18.247   9.885  -8.099  1.00 15.27 LIG 0.00  A 
ATOM     11  CE2 PHE D   4     -18.530   8.922  -9.063  1.00 13.31 LIG 0.00  A 
ATOM     12  CD2 PHE D   4     -17.688   7.840  -9.218  1.00 12.44 LIG 0.01  A 
ENDBRANCH 6 7
ENDBRANCH 5 6
BRANCH 5 13
ATOM     13  C   PHE D   4     -14.634   8.166 -10.371  1.00 14.19 LIG 0.24  C 
ATOM     14 O    PHE D   4     -14.137   9.241 -10.052  1.00 15.09 LIG-0.27  OA
ATOM     15  N   GLU D   5     -15.292   8.009 -11.511  1.00 15.42 LIG-0.35  N 
ATOM     16 H    GLU D   5     -15.533   7.248 -11.833  1.00 15.42 LIG 0.16  HD
BRANCH 15 17
ATOM     17  CA  GLU D   5     -15.661   9.159 -12.318  1.00 15.66 LIG 0.18  C 
BRANCH 17 18
ATOM     18  CB  GLU D   5     -14.460   9.661 -13.134  1.00 15.74 LIG 0.04  C 
BRANCH 18 19
ATOM     19  CG  GLU D   5     -14.630   9.571 -14.635  1.00 13.49 LIG 0.12  C 
BRANCH 19 20
ATOM     20  CD  GLU D   5     -14.343   8.180 -15.171  1.00 17.86 LIG 0.17  C 
ATOM     21 OE1  GLU D   5     -13.166   7.759 -15.115  1.00 19.55 LIG-0.65  OA
ATOM     22 OE2  GLU D   5     -15.297   7.477 -15.587  1.00 19.96 LIG-0.65  OA
ENDBRANCH 19 20
ENDBRANCH 18 19
ENDBRANCH 17 18
BRANCH 17 23
ATOM     23  C   GLU D   5     -16.816   8.769 -13.223  1.00 17.50 LIG 0.24  C 
ATOM     24 O    GLU D   5     -17.183   7.596 -13.300  1.00 17.10 LIG-0.27  OA
ATOM     25  N   ALA D   6     -17.409   9.760 -13.878  1.00 19.03 LIG-0.35  N 
ATOM     26 H    ALA D   6     -17.167  10.584 -13.828  1.00 19.03 LIG 0.16  HD
BRANCH 25 27
ATOM     27  CA  ALA D   6     -18.546   9.517 -14.754  1.00 21.37 LIG 0.17  C 
ATOM     28  CB  ALA D   6     -18.309   8.278 -15.589  1.00 21.30 LIG 0.04  C 
BRANCH 27 29
ATOM     29  C   ALA D   6     -19.803   9.358 -13.915  1.00 24.24 LIG 0.24  C 
ATOM     30 O    ALA D   6     -20.872   9.852 -14.276  1.00 22.56 LIG-0.27  OA
ATOM     31  N   MET D   7     -19.670   8.655 -12.796  1.00 27.55 LIG-0.34  N 
ATOM     32 H    MET D   7     -18.915   8.382 -12.488  1.00 27.55 LIG 0.16  HD
BRANCH 31 33
ATOM     33  CA  MET D   7     -20.822   8.284 -11.984  1.00 30.72 LIG 0.19  C 
BRANCH 33 34
ATOM     34  C   MET D   7     -21.173   9.434 -11.052  1.00 33.25 LIG 0.20  C 
ATOM     35 O    MET D   7     -22.314   9.520 -10.578  1.00 35.29 LIG-0.65  OA
ATOM     36 OXT  MET D   7     -20.362  10.342 -10.822  1.00 35.43 LIG-0.65  OA
ENDBRANCH 33 34
BRANCH 33 37
ATOM     37  CB  MET D   7     -20.520   7.003 -11.200  1.00 30.73 LIG 0.05  C 
BRANCH 37 38
ATOM     38  CG  MET D   7     -19.445   6.110 -11.788  1.00 32.79 LIG 0.08  C 
BRANCH 38 39
ATOM     39 SD   MET D   7     -19.502   4.457 -11.090  1.00 33.89 LIG-0.17  SA
ATOM     40  CE  MET D   7     -19.075   3.446 -12.506  1.00 31.39 LIG 0.09  C 
ENDBRANCH 38 39
ENDBRANCH 37 38
ENDBRANCH 33 37
ENDBRANCH 31 33
ENDBRANCH 27 29
ENDBRANCH 25 27
ENDBRANCH 17 23
ENDBRANCH 15 17
ENDBRANCH 5 13
ENDBRANCH 3 5
BRANCH 1 41
ATOM     41  CA  LEU D   3     -11.197   8.364  -8.169  1.00 16.32 LIG 0.18  C 
BRANCH 41 42
ATOM     42  N   LEU D   3     -11.229   7.799  -6.825  1.00 16.05 LIG-0.35  N 
ATOM     43  C   VAL D   2     -11.588   8.537  -5.775  1.00 15.61 LIG 0.24  C 
ATOM     44 O    VAL D   2     -11.822   9.744  -5.858  1.00 16.79 LIG-0.27  OA
ATOM     45 H    LEU D   3     -11.001   6.972  -6.778  1.00 16.05 LIG 0.16  HD
BRANCH 43 46
ATOM     46  CA  VAL D   2     -11.522   7.857  -4.416  1.00 14.78 LIG 0.18  C 
BRANCH 46 47
ATOM     47  N   VAL D   2     -10.419   8.454  -3.677  1.00 14.77 LIG-0.35  N 
ATOM     48  C   ARG D   1      -9.420   7.715  -3.212  1.00 16.50 LIG 0.25  C 
ATOM     49 O    ARG D   1      -9.331   6.499  -3.406  1.00 16.49 LIG-0.27  OA
ATOM     50 H    VAL D   2     -10.476   9.306  -3.575  1.00 14.77 LIG 0.16  HD
BRANCH 48 51
ATOM     51  CA  ARG D   1      -8.308   8.465  -2.522  1.00 17.64 LIG 0.27  C 
BRANCH 51 52
ATOM     52  N   ARG D   1      -8.122   9.773  -3.201  1.00 17.90 LIG-0.07  N 
ATOM     53 H3   ARG D   1      -7.258   9.988  -3.200  1.00 17.90 LIG 0.28  HD
ATOM     54 H2   ARG D   1      -8.583  10.401  -2.770  1.00 17.90 LIG 0.28  HD
ATOM     55 H1   ARG D   1      -8.412   9.717  -4.041  1.00 17.90 LIG 0.28  HD
ENDBRANCH 51 52
BRANCH 51 56
ATOM     56  CB  ARG D   1      -8.707   8.648  -1.051  1.00 19.06 LIG 0.04  C 
BRANCH 56 57
ATOM     57  CG  ARG D   1      -7.976   9.719  -0.291  1.00 22.89 LIG 0.02  C 
BRANCH 57 58
ATOM     58  CD  ARG D   1      -6.750   9.105   0.372  1.00 26.83 LIG 0.14  C 
BRANCH 58 59
ATOM     59  NE  ARG D   1      -7.066   7.865   1.070  1.00 30.01 LIG-0.23  N 
ATOM     60  CZ  ARG D   1      -6.344   6.754   0.966  1.00 33.71 LIG 0.67  C 
ATOM     61  NH1 ARG D   1      -5.271   6.737   0.186  1.00 32.13 LIG-0.23  N 
ATOM     62  NH2 ARG D   1      -6.691   5.661   1.639  1.00 33.53 LIG-0.23  N 
ATOM     63 1HH1 ARG D   1      -5.045   7.443  -0.250  1.00 32.13 LIG 0.17  HD
ATOM     64 2HH1 ARG D   1      -4.801   6.020   0.117  1.00 32.13 LIG 0.17  HD
ATOM     65 1HH2 ARG D   1      -7.386   5.670   2.145  1.00 33.53 LIG 0.17  HD
ATOM     66 2HH2 ARG D   1      -6.220   4.945   1.569  1.00 33.53 LIG 0.17  HD
ATOM     67 HE   ARG D   1      -7.760   7.852   1.578  1.00 30.01 LIG 0.18  HD
ENDBRANCH 58 59
ENDBRANCH 57 58
ENDBRANCH 56 57
ENDBRANCH 51 56
ENDBRANCH 48 51
ENDBRANCH 46 47
BRANCH 46 68
ATOM     68  CB  VAL D   2     -12.847   8.066  -3.652  1.00 15.28 LIG 0.01  C 
ATOM     69  CG2 VAL D   2     -12.857   7.226  -2.390  1.00 14.68 LIG 0.01  C 
ATOM     70  CG1 VAL D   2     -14.061   7.770  -4.534  1.00 13.75 LIG 0.01  C 
ENDBRANCH 46 68
ENDBRANCH 43 46
ENDBRANCH 41 42
BRANCH 41 71
ATOM     71  CB  LEU D   3      -9.766   8.407  -8.713  1.00 15.85 LIG 0.04  C 
BRANCH 71 72
ATOM     72  CG  LEU D   3      -9.147   9.794  -8.910  1.00 19.10 LIG-0.02  C 
ATOM     73  CD2 LEU D   3      -8.476   9.926 -10.268  1.00 16.59 LIG 0.01  C 
ATOM     74  CD1 LEU D   3      -8.154  10.063  -7.779  1.00 21.08 LIG 0.01  C 
ENDBRANCH 71 72
ENDBRANCH 41 71
ENDBRANCH 1 41
TORSDOF 29
ENDMDL
MODEL 28
USER: ADFR SOLUTION from run 133
USER: SCORE 24.487794 LL:  -5.573 LR: -20.775 RR:   0.000 FEB: -12.124
USER: RMSD 14.379788
USER: SEED 132
USER: STATUS no improvement in best in 3 clusters for 5 generations
USER: GENES 31
USER: genes 0 Translation |==|  0.59589 0.59233 0.38549
USER: genes 1 Rotation |==|  0.62885 0.27321 0.07880 0.56749
USER: genes 2 Torsion [C]-N--CA-[CB] |==|  0.87216
USER: genes 3 Torsion [N]-CA--CB-[CG] |==|  0.55069
USER: genes 4 Torsion [CA]-CB--CG-[CD1] |==|  0.30673
USER: genes 5 Torsion [N]-CA--C-[N] |==|  0.36365
USER: genes 6 Torsion [C]-N--CA-[C] |==|  0.59945
USER: genes 7 Torsion [N]-CA--CB-[CG] |==|  0.75702
USER: genes 8 Torsion [CA]-CB--CG-[CD] |==|  0.28895
USER: genes 9 Torsion [CB]-CG--CD-[OE1] |==|  0.96313
USER: genes 10 Torsion [N]-CA--C-[N] |==|  0.30562
USER: genes 11 Torsion [C]-N--CA-[CB] |==|  0.20552
USER: genes 12 Torsion [N]-CA--C-[N] |==|  0.50603
USER: genes 13 Torsion [C]-N--CA-[CB] |==|  0.20216
USER: genes 14 Torsion [N]-CA--C-[OXT] |==|  0.93058
USER: genes 15 Torsion [N]-CA--CB-[CG] |==|  0.72960
USER: genes 16 Torsion [CA]-CB--CG-[SD] |==|  0.38846
USER: genes 17 Torsion [CB]-CG--SD-[CE] |==|  0.79756
USER: genes 18 Torsion [N]-C--CA-[N] |==|  0.89084
USER: genes 19 Torsion [C]-CA--N-[C] |==|  0.79556
USER: genes 20 Torsion [N]-C--CA-[N] |==|  0.30152
USER: genes 21 Torsion [C]-CA--N-[C] |==|  0.60000
USER: genes 22 Torsion [N]-C--CA-[N] |==|  0.43018
USER: genes 23 Torsion [C]-CA--N-[H1] |==|  0.57817
USER: genes 24 Torsion [C]-CA--CB-[CG] |==|  0.65058
USER: genes 25 Torsion [CA]-CB--CG-[CD] |==|  0.74566
USER: genes 26 Torsion [CB]-CG--CD-[NE] |==|  0.21061
USER: genes 27 Torsion [CG]-CD--NE-[CZ] |==|  0.61374
USER: genes 28 Torsion [C]-CA--CB-[CG2] |==|  0.10858
USER: genes 29 Torsion [C]-CA--CB-[CG] |==|  0.90841
USER: genes 30 Torsion [CA]-CB--CG-[CD2] |==|  0.77500
ROOT
ATOM      1  C   LEU D   3     -12.200   9.785  -8.714  1.00 15.92 LIG 0.24  C 
ATOM      2 O    LEU D   3     -12.710  10.858  -9.034  1.00 19.39 LIG-0.27  OA
ATOM      3  N   PHE D   4     -12.801   8.623  -8.933  1.00 13.65 LIG-0.35  N 
ATOM      4 H    PHE D   4     -12.399   7.862  -8.941  1.00 13.65 LIG 0.16  HD
ENDROOT
BRANCH 3 5
ATOM      5  CA  PHE D   4     -14.222   8.563  -9.179  1.00 13.25 LIG 0.18  C 
BRANCH 5 6
ATOM      6  CB  PHE D   4     -14.947   9.441  -8.147  1.00 13.20 LIG 0.07  C 
BRANCH 6 7
ATOM      7  CG  PHE D   4     -16.396   9.139  -8.013  1.00 13.63 LIG-0.06  A 
ATOM      8  CD1 PHE D   4     -16.889   8.543  -6.859  1.00 13.10 LIG 0.01  A 
ATOM      9  CE1 PHE D   4     -18.246   8.285  -6.726  1.00 15.10 LIG 0.00  A 
ATOM     10  CZ  PHE D   4     -19.125   8.641  -7.746  1.00 15.27 LIG 0.00  A 
ATOM     11  CE2 PHE D   4     -18.635   9.265  -8.889  1.00 13.31 LIG 0.00  A 
ATOM     12  CD2 PHE D   4     -17.280   9.491  -9.019  1.00 12.44 LIG 0.01  A 
ENDBRANCH 6 7
ENDBRANCH 5 6
BRANCH 5 13
ATOM     13  C   PHE D   4     -14.462   9.063 -10.602  1.00 14.19 LIG 0.24  C 
ATOM     14 O    PHE D   4     -13.870  10.054 -11.021  1.00 15.09 LIG-0.27  OA
ATOM     15  N   GLU D   5     -15.227   8.319 -11.389  1.00 15.42 LIG-0.35  N 
ATOM     16 H    GLU D   5     -15.544   7.549 -11.173  1.00 15.42 LIG 0.16  HD
BRANCH 15 17
ATOM     17  CA  GLU D   5     -15.591   8.779 -12.718  1.00 15.66 LIG 0.18  C 
BRANCH 17 18
ATOM     18  CB  GLU D   5     -14.602   8.250 -13.768  1.00 15.74 LIG 0.04  C 
BRANCH 18 19
ATOM     19  CG  GLU D   5     -13.382   9.120 -13.986  1.00 13.49 LIG 0.12  C 
BRANCH 19 20
ATOM     20  CD  GLU D   5     -12.136   8.548 -13.333  1.00 17.86 LIG 0.17  C 
ATOM     21 OE1  GLU D   5     -12.277   7.618 -12.509  1.00 19.55 LIG-0.65  OA
ATOM     22 OE2  GLU D   5     -11.011   8.978 -13.687  1.00 19.96 LIG-0.65  OA
ENDBRANCH 19 20
ENDBRANCH 18 19
ENDBRANCH 17 18
BRANCH 17 23
ATOM     23  C   GLU D   5     -17.008   8.324 -13.019  1.00 17.50 LIG 0.24  C 
ATOM     24 O    GLU D   5     -17.263   7.129 -13.175  1.00 17.10 LIG-0.27  OA
ATOM     25  N   ALA D   6     -17.933   9.276 -13.065  1.00 19.03 LIG-0.35  N 
ATOM     26 H    ALA D   6     -17.769  10.113 -12.952  1.00 19.03 LIG 0.16  HD
BRANCH 25 27
ATOM     27  CA  ALA D   6     -19.331   8.963 -13.317  1.00 21.37 LIG 0.17  C 
ATOM     28  CB  ALA D   6     -19.956   8.330 -12.093  1.00 21.30 LIG 0.04  C 
BRANCH 27 29
ATOM     29  C   ALA D   6     -20.073  10.235 -13.693  1.00 24.24 LIG 0.24  C 
ATOM     30 O    ALA D   6     -19.478  11.308 -13.794  1.00 22.56 LIG-0.27  OA
ATOM     31  N   MET D   7     -21.377  10.105 -13.908  1.00 27.55 LIG-0.34  N 
ATOM     32 H    MET D   7     -21.820   9.384 -13.754  1.00 27.55 LIG 0.16  HD
BRANCH 31 33
ATOM     33  CA  MET D   7     -22.178  11.203 -14.435  1.00 30.72 LIG 0.19  C 
BRANCH 33 34
ATOM     34  C   MET D   7     -23.653  10.900 -14.219  1.00 33.25 LIG 0.20  C 
ATOM     35 O    MET D   7     -24.459  11.827 -14.060  1.00 35.29 LIG-0.65  OA
ATOM     36 OXT  MET D   7     -24.058   9.733 -14.111  1.00 35.43 LIG-0.65  OA
ENDBRANCH 33 34
BRANCH 33 37
ATOM     37  CB  MET D   7     -21.864  11.415 -15.920  1.00 30.73 LIG 0.05  C 
BRANCH 37 38
ATOM     38  CG  MET D   7     -20.865  12.511 -16.231  1.00 32.79 LIG 0.08  C 
BRANCH 38 39
ATOM     39 SD   MET D   7     -19.740  12.030 -17.543  1.00 33.89 LIG-0.17  SA
ATOM     40  CE  MET D   7     -18.694  10.836 -16.712  1.00 31.39 LIG 0.09  C 
ENDBRANCH 38 39
ENDBRANCH 37 38
ENDBRANCH 33 37
ENDBRANCH 31 33
ENDBRANCH 27 29
ENDBRANCH 25 27
ENDBRANCH 17 23
ENDBRANCH 15 17
ENDBRANCH 5 13
ENDBRANCH 3 5
BRANCH 1 41
ATOM     41  CA  LEU D   3     -10.856   9.733  -7.991  1.00 16.32 LIG 0.18  C 
BRANCH 41 42
ATOM     42  N   LEU D   3     -10.826   8.743  -6.920  1.00 16.05 LIG-0.35  N 
ATOM     43  C   VAL D   2     -11.468   8.950  -5.772  1.00 15.61 LIG 0.24  C 
ATOM     44 O    VAL D   2     -12.041  10.009  -5.510  1.00 16.79 LIG-0.27  OA
ATOM     45 H    LEU D   3     -10.369   8.037  -7.097  1.00 16.05 LIG 0.16  HD
BRANCH 43 46
ATOM     46  CA  VAL D   2     -11.314   7.876  -4.707  1.00 14.78 LIG 0.18  C 
BRANCH 46 47
ATOM     47  N   VAL D   2     -10.474   8.421  -3.649  1.00 14.77 LIG-0.35  N 
ATOM     48  C   ARG D   1      -9.605   7.660  -2.997  1.00 16.50 LIG 0.25  C 
ATOM     49 O    ARG D   1      -9.415   6.470  -3.263  1.00 16.49 LIG-0.27  OA
ATOM     50 H    VAL D   2     -10.593   9.259  -3.494  1.00 14.77 LIG 0.16  HD
BRANCH 48 51
ATOM     51  CA  ARG D   1      -8.751   8.363  -1.971  1.00 17.64 LIG 0.27  C 
BRANCH 51 52
ATOM     52  N   ARG D   1      -8.315   7.373  -0.953  1.00 17.90 LIG-0.07  N 
ATOM     53 H3   ARG D   1      -7.557   6.989  -1.218  1.00 17.90 LIG 0.28  HD
ATOM     54 H2   ARG D   1      -8.944   6.751  -0.855  1.00 17.90 LIG 0.28  HD
ATOM     55 H1   ARG D   1      -8.182   7.786  -0.176  1.00 17.90 LIG 0.28  HD
ENDBRANCH 51 52
BRANCH 51 56
ATOM     56  CB  ARG D   1      -7.551   8.982  -2.704  1.00 19.06 LIG 0.04  C 
BRANCH 56 57
ATOM     57  CG  ARG D   1      -6.190   8.614  -2.181  1.00 22.89 LIG 0.02  C 
BRANCH 57 58
ATOM     58  CD  ARG D   1      -5.765   9.646  -1.144  1.00 26.83 LIG 0.14  C 
BRANCH 58 59
ATOM     59  NE  ARG D   1      -6.452   9.462   0.127  1.00 30.01 LIG-0.23  N 
ATOM     60  CZ  ARG D   1      -6.918  10.464   0.867  1.00 33.71 LIG 0.67  C 
ATOM     61  NH1 ARG D   1      -6.760  11.715   0.455  1.00 32.13 LIG-0.23  N 
ATOM     62  NH2 ARG D   1      -7.541  10.218   2.015  1.00 33.53 LIG-0.23  N 
ATOM     63 1HH1 ARG D   1      -6.357  11.875  -0.287  1.00 32.13 LIG 0.17  HD
ATOM     64 2HH1 ARG D   1      -7.060  12.365   0.931  1.00 32.13 LIG 0.17  HD
ATOM     65 1HH2 ARG D   1      -7.645   9.408   2.284  1.00 33.53 LIG 0.17  HD
ATOM     66 2HH2 ARG D   1      -7.842  10.870   2.490  1.00 33.53 LIG 0.17  HD
ATOM     67 HE   ARG D   1      -6.563   8.660   0.416  1.00 30.01 LIG 0.18  HD
ENDBRANCH 58 59
ENDBRANCH 57 58
ENDBRANCH 56 57
ENDBRANCH 51 56
ENDBRANCH 48 51
ENDBRANCH 46 47
BRANCH 46 68
ATOM     68  CB  VAL D   2     -12.695   7.484  -4.140  1.00 15.28 LIG 0.01  C 
ATOM     69  CG2 VAL D   2     -13.723   7.446  -5.253  1.00 14.68 LIG 0.01  C 
ATOM     70  CG1 VAL D   2     -13.126   8.418  -3.008  1.00 13.75 LIG 0.01  C 
ENDBRANCH 46 68
ENDBRANCH 43 46
ENDBRANCH 41 42
BRANCH 41 71
ATOM     71  CB  LEU D   3      -9.716   9.499  -8.987  1.00 15.85 LIG 0.04  C 
BRANCH 71 72
ATOM     72  CG  LEU D   3     -10.039   8.633 -10.209  1.00 19.10 LIG-0.02  C 
ATOM     73  CD2 LEU D   3      -9.983   7.149  -9.882  1.00 16.59 LIG 0.01  C 
ATOM     74  CD1 LEU D   3      -9.072   8.983 -11.339  1.00 21.08 LIG 0.01  C 
ENDBRANCH 71 72
ENDBRANCH 41 71
ENDBRANCH 1 41
TORSDOF 29
ENDMDL
MODEL 29
USER: ADFR SOLUTION from run 126
USER: SCORE 25.447722 LL:  -6.113 LR: -20.785 RR:   0.000 FEB: -12.134
USER: RMSD 13.749068
USER: SEED 125
USER: STATUS no improvement in best in 8 clusters for 5 generations
USER: GENES 31
USER: genes 0 Translation |==|  0.58516 0.41668 0.37554
USER: genes 1 Rotation |==|  0.61818 0.04383 0.33302 0.50794
USER: genes 2 Torsion [C]-N--CA-[CB] |==|  0.53334
USER: genes 3 Torsion [N]-CA--CB-[CG] |==|  0.31075
USER: genes 4 Torsion [CA]-CB--CG-[CD1] |==|  0.25157
USER: genes 5 Torsion [N]-CA--C-[N] |==|  0.40237
USER: genes 6 Torsion [C]-N--CA-[C] |==|  0.62444
USER: genes 7 Torsion [N]-CA--CB-[CG] |==|  0.39391
USER: genes 8 Torsion [CA]-CB--CG-[CD] |==|  0.66333
USER: genes 9 Torsion [CB]-CG--CD-[OE1] |==|  0.68975
USER: genes 10 Torsion [N]-CA--C-[N] |==|  0.34287
USER: genes 11 Torsion [C]-N--CA-[CB] |==|  0.19444
USER: genes 12 Torsion [N]-CA--C-[N] |==|  0.10683
USER: genes 13 Torsion [C]-N--CA-[CB] |==|  0.82811
USER: genes 14 Torsion [N]-CA--C-[OXT] |==|  0.08437
USER: genes 15 Torsion [N]-CA--CB-[CG] |==|  0.89438
USER: genes 16 Torsion [CA]-CB--CG-[SD] |==|  0.85347
USER: genes 17 Torsion [CB]-CG--SD-[CE] |==|  0.33776
USER: genes 18 Torsion [N]-C--CA-[N] |==|  0.08277
USER: genes 19 Torsion [C]-CA--N-[C] |==|  0.65508
USER: genes 20 Torsion [N]-C--CA-[N] |==|  0.32783
USER: genes 21 Torsion [C]-CA--N-[C] |==|  0.61301
USER: genes 22 Torsion [N]-C--CA-[N] |==|  0.41983
USER: genes 23 Torsion [C]-CA--N-[H1] |==|  0.90431
USER: genes 24 Torsion [C]-CA--CB-[CG] |==|  0.03095
USER: genes 25 Torsion [CA]-CB--CG-[CD] |==|  0.61572
USER: genes 26 Torsion [CB]-CG--CD-[NE] |==|  0.26681
USER: genes 27 Torsion [CG]-CD--NE-[CZ] |==|  0.24259
USER: genes 28 Torsion [C]-CA--CB-[CG2] |==|  0.47965
USER: genes 29 Torsion [C]-CA--CB-[CG] |==|  0.35700
USER: genes 30 Torsion [CA]-CB--CG-[CD2] |==|  0.59963
ROOT
ATOM      1  C   LEU D   3     -12.506   7.546  -8.997  1.00 15.92 LIG 0.24  C 
ATOM      2 O    LEU D   3     -12.337   7.495 -10.214  1.00 19.39 LIG-0.27  OA
ATOM      3  N   PHE D   4     -13.573   7.021  -8.409  1.00 13.65 LIG-0.35  N 
ATOM      4 H    PHE D   4     -13.622   6.830  -7.571  1.00 13.65 LIG 0.16  HD
ENDROOT
BRANCH 3 5
ATOM      5  CA  PHE D   4     -14.764   6.729  -9.170  1.00 13.25 LIG 0.18  C 
BRANCH 5 6
ATOM      6  CB  PHE D   4     -15.916   6.422  -8.199  1.00 13.20 LIG 0.07  C 
BRANCH 6 7
ATOM      7  CG  PHE D   4     -16.988   7.451  -8.196  1.00 13.63 LIG-0.06  A 
ATOM      8  CD1 PHE D   4     -18.076   7.340  -9.054  1.00 13.10 LIG 0.01  A 
ATOM      9  CE1 PHE D   4     -19.089   8.288  -9.032  1.00 15.10 LIG 0.00  A 
ATOM     10  CZ  PHE D   4     -19.028   9.350  -8.132  1.00 15.27 LIG 0.00  A 
ATOM     11  CE2 PHE D   4     -17.953   9.446  -7.253  1.00 13.31 LIG 0.00  A 
ATOM     12  CD2 PHE D   4     -16.940   8.510  -7.305  1.00 12.44 LIG 0.01  A 
ENDBRANCH 6 7
ENDBRANCH 5 6
BRANCH 5 13
ATOM     13  C   PHE D   4     -15.072   7.954 -10.029  1.00 14.19 LIG 0.24  C 
ATOM     14 O    PHE D   4     -14.744   9.075  -9.653  1.00 15.09 LIG-0.27  OA
ATOM     15  N   GLU D   5     -15.585   7.740 -11.233  1.00 15.42 LIG-0.35  N 
ATOM     16 H    GLU D   5     -15.697   6.963 -11.583  1.00 15.42 LIG 0.16  HD
BRANCH 15 17
ATOM     17  CA  GLU D   5     -16.005   8.853 -12.067  1.00 15.66 LIG 0.18  C 
BRANCH 17 18
ATOM     18  CB  GLU D   5     -14.963   9.141 -13.158  1.00 15.74 LIG 0.04  C 
BRANCH 18 19
ATOM     19  CG  GLU D   5     -15.542   9.528 -14.502  1.00 13.49 LIG 0.12  C 
BRANCH 19 20
ATOM     20  CD  GLU D   5     -15.113   8.585 -15.613  1.00 17.86 LIG 0.17  C 
ATOM     21 OE1  GLU D   5     -14.344   9.027 -16.496  1.00 19.55 LIG-0.65  OA
ATOM     22 OE2  GLU D   5     -15.487   7.387 -15.575  1.00 19.96 LIG-0.65  OA
ENDBRANCH 19 20
ENDBRANCH 18 19
ENDBRANCH 17 18
BRANCH 17 23
ATOM     23  C   GLU D   5     -17.358   8.524 -12.672  1.00 17.50 LIG 0.24  C 
ATOM     24 O    GLU D   5     -17.522   7.487 -13.316  1.00 17.10 LIG-0.27  OA
ATOM     25  N   ALA D   6     -18.335   9.392 -12.433  1.00 19.03 LIG-0.35  N 
ATOM     26 H    ALA D   6     -18.235  10.116 -11.980  1.00 19.03 LIG 0.16  HD
BRANCH 25 27
ATOM     27  CA  ALA D   6     -19.683   9.173 -12.935  1.00 21.37 LIG 0.17  C 
ATOM     28  CB  ALA D   6     -20.335   8.022 -12.203  1.00 21.30 LIG 0.04  C 
BRANCH 27 29
ATOM     29  C   ALA D   6     -20.499  10.444 -12.759  1.00 24.24 LIG 0.24  C 
ATOM     30 O    ALA D   6     -21.681  10.395 -12.418  1.00 22.56 LIG-0.27  OA
ATOM     31  N   MET D   7     -19.855  11.583 -12.986  1.00 27.55 LIG-0.34  N 
ATOM     32 H    MET D   7     -19.060  11.629 -13.309  1.00 27.55 LIG 0.16  HD
BRANCH 31 33
ATOM     33  CA  MET D   7     -20.463  12.875 -12.695  1.00 30.72 LIG 0.19  C 
BRANCH 33 34
ATOM     34  C   MET D   7     -20.781  12.961 -11.210  1.00 33.25 LIG 0.20  C 
ATOM     35 O    MET D   7     -21.687  13.705 -10.813  1.00 35.29 LIG-0.65  OA
ATOM     36 OXT  MET D   7     -20.091  12.362 -10.372  1.00 35.43 LIG-0.65  OA
ENDBRANCH 33 34
BRANCH 33 37
ATOM     37  CB  MET D   7     -21.723  13.064 -13.547  1.00 30.73 LIG 0.05  C 
BRANCH 37 38
ATOM     38  CG  MET D   7     -21.645  12.533 -14.965  1.00 32.79 LIG 0.08  C 
BRANCH 38 39
ATOM     39 SD   MET D   7     -20.207  13.168 -15.831  1.00 33.89 LIG-0.17  SA
ATOM     40  CE  MET D   7     -19.351  11.658 -16.276  1.00 31.39 LIG 0.09  C 
ENDBRANCH 38 39
ENDBRANCH 37 38
ENDBRANCH 33 37
ENDBRANCH 31 33
ENDBRANCH 27 29
ENDBRANCH 25 27
ENDBRANCH 17 23
ENDBRANCH 15 17
ENDBRANCH 5 13
ENDBRANCH 3 5
BRANCH 1 41
ATOM     41  CA  LEU D   3     -11.513   8.269  -8.090  1.00 16.32 LIG 0.18  C 
BRANCH 41 42
ATOM     42  N   LEU D   3     -11.482   7.725  -6.737  1.00 16.05 LIG-0.35  N 
ATOM     43  C   VAL D   2     -11.698   8.502  -5.677  1.00 15.61 LIG 0.24  C 
ATOM     44 O    VAL D   2     -11.843   9.723  -5.764  1.00 16.79 LIG-0.27  OA
ATOM     45 H    LEU D   3     -11.317   6.883  -6.692  1.00 16.05 LIG 0.16  HD
BRANCH 43 46
ATOM     46  CA  VAL D   2     -11.579   7.837  -4.315  1.00 14.78 LIG 0.18  C 
BRANCH 46 47
ATOM     47  N   VAL D   2     -10.496   8.494  -3.596  1.00 14.77 LIG-0.35  N 
ATOM     48  C   ARG D   1      -9.635   7.802  -2.862  1.00 16.50 LIG 0.25  C 
ATOM     49 O    ARG D   1      -9.659   6.571  -2.772  1.00 16.49 LIG-0.27  OA
ATOM     50 H    VAL D   2     -10.470   9.349  -3.692  1.00 14.77 LIG 0.16  HD
BRANCH 48 51
ATOM     51  CA  ARG D   1      -8.522   8.597  -2.224  1.00 17.64 LIG 0.27  C 
BRANCH 51 52
ATOM     52  N   ARG D   1      -8.110   7.918  -0.968  1.00 17.90 LIG-0.07  N 
ATOM     53 H3   ARG D   1      -7.753   8.514  -0.412  1.00 17.90 LIG 0.28  HD
ATOM     54 H2   ARG D   1      -7.507   7.289  -1.154  1.00 17.90 LIG 0.28  HD
ATOM     55 H1   ARG D   1      -8.820   7.544  -0.586  1.00 17.90 LIG 0.28  HD
ENDBRANCH 51 52
BRANCH 51 56
ATOM     56  CB  ARG D   1      -7.364   8.673  -3.229  1.00 19.06 LIG 0.04  C 
BRANCH 56 57
ATOM     57  CG  ARG D   1      -7.665   8.215  -4.628  1.00 22.89 LIG 0.02  C 
BRANCH 57 58
ATOM     58  CD  ARG D   1      -6.488   7.396  -5.143  1.00 26.83 LIG 0.14  C 
BRANCH 58 59
ATOM     59  NE  ARG D   1      -6.696   5.964  -4.965  1.00 30.01 LIG-0.23  N 
ATOM     60  CZ  ARG D   1      -7.321   5.193  -5.850  1.00 33.71 LIG 0.67  C 
ATOM     61  NH1 ARG D   1      -7.800   5.727  -6.965  1.00 32.13 LIG-0.23  N 
ATOM     62  NH2 ARG D   1      -7.468   3.892  -5.621  1.00 33.53 LIG-0.23  N 
ATOM     63 1HH1 ARG D   1      -7.706   6.568  -7.114  1.00 32.13 LIG 0.17  HD
ATOM     64 2HH1 ARG D   1      -8.205   5.231  -7.540  1.00 32.13 LIG 0.17  HD
ATOM     65 1HH2 ARG D   1      -7.158   3.544  -4.898  1.00 33.53 LIG 0.17  HD
ATOM     66 2HH2 ARG D   1      -7.872   3.397  -6.197  1.00 33.53 LIG 0.17  HD
ATOM     67 HE   ARG D   1      -6.397   5.597  -4.247  1.00 30.01 LIG 0.18  HD
ENDBRANCH 58 59
ENDBRANCH 57 58
ENDBRANCH 56 57
ENDBRANCH 51 56
ENDBRANCH 48 51
ENDBRANCH 46 47
BRANCH 46 68
ATOM     68  CB  VAL D   2     -12.901   7.984  -3.532  1.00 15.28 LIG 0.01  C 
ATOM     69  CG2 VAL D   2     -12.843   7.169  -2.255  1.00 14.68 LIG 0.01  C 
ATOM     70  CG1 VAL D   2     -14.109   7.602  -4.388  1.00 13.75 LIG 0.01  C 
ENDBRANCH 46 68
ENDBRANCH 43 46
ENDBRANCH 41 42
BRANCH 41 71
ATOM     71  CB  LEU D   3     -10.114   8.269  -8.713  1.00 15.85 LIG 0.04  C 
BRANCH 71 72
ATOM     72  CG  LEU D   3      -9.407   9.624  -8.816  1.00 19.10 LIG-0.02  C 
ATOM     73  CD2 LEU D   3      -8.575   9.734 -10.084  1.00 16.59 LIG 0.01  C 
ATOM     74  CD1 LEU D   3      -8.543   9.832  -7.573  1.00 21.08 LIG 0.01  C 
ENDBRANCH 71 72
ENDBRANCH 41 71
ENDBRANCH 1 41
TORSDOF 29
ENDMDL
MODEL 30
USER: ADFR SOLUTION from run 101
USER: SCORE 24.463329 LL:  -6.301 LR: -20.735 RR:   0.000 FEB: -12.084
USER: RMSD 3.549957
USER: SEED 100
USER: STATUS no improvement in best in 3 clusters for 5 generations
USER: GENES 31
USER: genes 0 Translation |==|  0.54502 0.38484 0.37116
USER: genes 1 Rotation |==|  0.48131 0.45892 0.48108 0.99760
USER: genes 2 Torsion [C]-N--CA-[CB] |==|  0.50564
USER: genes 3 Torsion [N]-CA--CB-[CG] |==|  0.39024
USER: genes 4 Torsion [CA]-CB--CG-[CD1] |==|  0.75009
USER: genes 5 Torsion [N]-CA--C-[N] |==|  0.39826
USER: genes 6 Torsion [C]-N--CA-[C] |==|  0.59815
USER: genes 7 Torsion [N]-CA--CB-[CG] |==|  0.48024
USER: genes 8 Torsion [CA]-CB--CG-[CD] |==|  0.72984
USER: genes 9 Torsion [CB]-CG--CD-[OE1] |==|  0.55642
USER: genes 10 Torsion [N]-CA--C-[N] |==|  0.39444
USER: genes 11 Torsion [C]-N--CA-[CB] |==|  0.85497
USER: genes 12 Torsion [N]-CA--C-[N] |==|  0.33902
USER: genes 13 Torsion [C]-N--CA-[CB] |==|  0.33953
USER: genes 14 Torsion [N]-CA--C-[OXT] |==|  0.44756
USER: genes 15 Torsion [N]-CA--CB-[CG] |==|  0.99409
USER: genes 16 Torsion [CA]-CB--CG-[SD] |==|  0.59022
USER: genes 17 Torsion [CB]-CG--SD-[CE] |==|  0.91910
USER: genes 18 Torsion [N]-C--CA-[N] |==|  0.17199
USER: genes 19 Torsion [C]-CA--N-[C] |==|  0.65018
USER: genes 20 Torsion [N]-C--CA-[N] |==|  0.28969
USER: genes 21 Torsion [C]-CA--N-[C] |==|  0.21504
USER: genes 22 Torsion [N]-C--CA-[N] |==|  0.85377
USER: genes 23 Torsion [C]-CA--N-[H1] |==|  0.27029
USER: genes 24 Torsion [C]-CA--CB-[CG] |==|  0.06205
USER: genes 25 Torsion [CA]-CB--CG-[CD] |==|  0.70151
USER: genes 26 Torsion [CB]-CG--CD-[NE] |==|  0.90810
USER: genes 27 Torsion [CG]-CD--NE-[CZ] |==|  0.57378
USER: genes 28 Torsion [C]-CA--CB-[CG2] |==|  0.44185
USER: genes 29 Torsion [C]-CA--CB-[CG] |==|  0.28032
USER: genes 30 Torsion [CA]-CB--CG-[CD2] |==|  0.99114
ROOT
ATOM      1  C   LEU D   3     -13.650   7.140  -9.122  1.00 15.92 LIG 0.24  C 
ATOM      2 O    LEU D   3     -13.833   6.358  -8.190  1.00 19.39 LIG-0.27  OA
ATOM      3  N   PHE D   4     -12.435   7.478  -9.534  1.00 13.65 LIG-0.35  N 
ATOM      4 H    PHE D   4     -12.261   7.823 -10.302  1.00 13.65 LIG 0.16  HD
ENDROOT
BRANCH 3 5
ATOM      5  CA  PHE D   4     -11.287   7.278  -8.682  1.00 13.25 LIG 0.18  C 
BRANCH 5 6
ATOM      6  CB  PHE D   4     -10.034   7.805  -9.399  1.00 13.20 LIG 0.07  C 
BRANCH 6 7
ATOM      7  CG  PHE D   4      -9.082   8.513  -8.503  1.00 13.63 LIG-0.06  A 
ATOM      8  CD1 PHE D   4      -9.193   9.883  -8.298  1.00 13.10 LIG 0.01  A 
ATOM      9  CE1 PHE D   4      -8.319  10.539  -7.441  1.00 15.10 LIG 0.00  A 
ATOM     10  CZ  PHE D   4      -7.336   9.818  -6.766  1.00 15.27 LIG 0.00  A 
ATOM     11  CE2 PHE D   4      -7.245   8.442  -6.948  1.00 13.31 LIG 0.00  A 
ATOM     12  CD2 PHE D   4      -8.103   7.808  -7.823  1.00 12.44 LIG 0.01  A 
ENDBRANCH 6 7
ENDBRANCH 5 6
BRANCH 5 13
ATOM     13  C   PHE D   4     -11.544   8.037  -7.381  1.00 14.19 LIG 0.24  C 
ATOM     14 O    PHE D   4     -12.226   9.057  -7.380  1.00 15.09 LIG-0.27  OA
ATOM     15  N   GLU D   5     -11.110   7.482  -6.257  1.00 15.42 LIG-0.35  N 
ATOM     16 H    GLU D   5     -10.753   6.702  -6.205  1.00 15.42 LIG 0.16  HD
BRANCH 15 17
ATOM     17  CA  GLU D   5     -11.220   8.190  -4.993  1.00 15.66 LIG 0.18  C 
BRANCH 17 18
ATOM     18  CB  GLU D   5     -12.525   7.821  -4.271  1.00 15.74 LIG 0.04  C 
BRANCH 18 19
ATOM     19  CG  GLU D   5     -12.653   8.375  -2.869  1.00 13.49 LIG 0.12  C 
BRANCH 19 20
ATOM     20  CD  GLU D   5     -12.257   7.365  -1.806  1.00 17.86 LIG 0.17  C 
ATOM     21 OE1  GLU D   5     -12.672   7.544  -0.639  1.00 19.55 LIG-0.65  OA
ATOM     22 OE2  GLU D   5     -11.587   6.358  -2.142  1.00 19.96 LIG-0.65  OA
ENDBRANCH 19 20
ENDBRANCH 18 19
ENDBRANCH 17 18
BRANCH 17 23
ATOM     23  C   GLU D   5     -10.007   7.855  -4.141  1.00 17.50 LIG 0.24  C 
ATOM     24 O    GLU D   5      -9.516   6.725  -4.167  1.00 17.10 LIG-0.27  OA
ATOM     25  N   ALA D   6      -9.507   8.848  -3.416  1.00 19.03 LIG-0.35  N 
ATOM     26 H    ALA D   6      -9.836   9.642  -3.394  1.00 19.03 LIG 0.16  HD
BRANCH 25 27
ATOM     27  CA  ALA D   6      -8.329   8.658  -2.581  1.00 21.37 LIG 0.17  C 
ATOM     28  CB  ALA D   6      -8.516   7.463  -1.674  1.00 21.30 LIG 0.04  C 
BRANCH 27 29
ATOM     29  C   ALA D   6      -7.109   8.465  -3.468  1.00 24.24 LIG 0.24  C 
ATOM     30 O    ALA D   6      -7.069   7.559  -4.300  1.00 22.56 LIG-0.27  OA
ATOM     31  N   MET D   7      -6.120   9.332  -3.289  1.00 27.55 LIG-0.34  N 
ATOM     32 H    MET D   7      -6.097   9.912  -2.654  1.00 27.55 LIG 0.16  HD
BRANCH 31 33
ATOM     33  CA  MET D   7      -4.966   9.368  -4.179  1.00 30.72 LIG 0.19  C 
BRANCH 33 34
ATOM     34  C   MET D   7      -3.716   8.984  -3.400  1.00 33.25 LIG 0.20  C 
ATOM     35 O    MET D   7      -3.685   9.127  -2.171  1.00 35.29 LIG-0.65  OA
ATOM     36 OXT  MET D   7      -2.689   8.608  -3.984  1.00 35.43 LIG-0.65  OA
ENDBRANCH 33 34
BRANCH 33 37
ATOM     37  CB  MET D   7      -4.828  10.762  -4.802  1.00 30.73 LIG 0.05  C 
BRANCH 37 38
ATOM     38  CG  MET D   7      -5.903  11.761  -4.423  1.00 32.79 LIG 0.08  C 
BRANCH 38 39
ATOM     39 SD   MET D   7      -6.244  12.907  -5.762  1.00 33.89 LIG-0.17  SA
ATOM     40  CE  MET D   7      -4.662  12.973  -6.600  1.00 31.39 LIG 0.09  C 
ENDBRANCH 38 39
ENDBRANCH 37 38
ENDBRANCH 33 37
ENDBRANCH 31 33
ENDBRANCH 27 29
ENDBRANCH 25 27
ENDBRANCH 17 23
ENDBRANCH 15 17
ENDBRANCH 5 13
ENDBRANCH 3 5
BRANCH 1 41
ATOM     41  CA  LEU D   3     -14.822   7.814  -9.831  1.00 16.32 LIG 0.18  C 
BRANCH 41 42
ATOM     42  N   LEU D   3     -14.877   7.504 -11.255  1.00 16.05 LIG-0.35  N 
ATOM     43  C   VAL D   2     -14.919   8.470 -12.170  1.00 15.61 LIG 0.24  C 
ATOM     44 O    VAL D   2     -15.006   9.664 -11.875  1.00 16.79 LIG-0.27  OA
ATOM     45 H    LEU D   3     -14.880   6.664 -11.439  1.00 16.05 LIG 0.16  HD
BRANCH 43 46
ATOM     46  CA  VAL D   2     -15.038   8.026 -13.619  1.00 14.78 LIG 0.18  C 
BRANCH 46 47
ATOM     47  N   VAL D   2     -16.412   8.260 -14.042  1.00 14.77 LIG-0.35  N 
ATOM     48  C   ARG D   1     -16.841   9.476 -14.352  1.00 16.50 LIG 0.25  C 
ATOM     49 O    ARG D   1     -16.112  10.472 -14.349  1.00 16.49 LIG-0.27  OA
ATOM     50 H    VAL D   2     -16.902   7.554 -14.070  1.00 14.77 LIG 0.16  HD
BRANCH 48 51
ATOM     51  CA  ARG D   1     -18.266   9.569 -14.837  1.00 17.64 LIG 0.27  C 
BRANCH 51 52
ATOM     52  N   ARG D   1     -18.454   8.609 -15.955  1.00 17.90 LIG-0.07  N 
ATOM     53 H3   ARG D   1     -17.666   8.426 -16.325  1.00 17.90 LIG 0.28  HD
ATOM     54 H2   ARG D   1     -18.992   8.967 -16.568  1.00 17.90 LIG 0.28  HD
ATOM     55 H1   ARG D   1     -18.818   7.859 -15.644  1.00 17.90 LIG 0.28  HD
ENDBRANCH 51 52
BRANCH 51 56
ATOM     56  CB  ARG D   1     -19.188   9.241 -13.654  1.00 19.06 LIG 0.04  C 
BRANCH 56 57
ATOM     57  CG  ARG D   1     -18.603   9.428 -12.282  1.00 22.89 LIG 0.02  C 
BRANCH 57 58
ATOM     58  CD  ARG D   1     -18.337   8.059 -11.668  1.00 26.83 LIG 0.14  C 
BRANCH 58 59
ATOM     59  NE  ARG D   1     -19.318   7.068 -12.093  1.00 30.01 LIG-0.23  N 
ATOM     60  CZ  ARG D   1     -19.644   5.998 -11.375  1.00 33.71 LIG 0.67  C 
ATOM     61  NH1 ARG D   1     -19.058   5.787 -10.204  1.00 32.13 LIG-0.23  N 
ATOM     62  NH2 ARG D   1     -20.554   5.139 -11.825  1.00 33.53 LIG-0.23  N 
ATOM     63 1HH1 ARG D   1     -18.470   6.341  -9.912  1.00 32.13 LIG 0.17  HD
ATOM     64 2HH1 ARG D   1     -19.267   5.095  -9.737  1.00 32.13 LIG 0.17  HD
ATOM     65 1HH2 ARG D   1     -20.935   5.274 -12.584  1.00 33.53 LIG 0.17  HD
ATOM     66 2HH2 ARG D   1     -20.762   4.448 -11.357  1.00 33.53 LIG 0.17  HD
ATOM     67 HE   ARG D   1     -19.707   7.182 -12.850  1.00 30.01 LIG 0.18  HD
ENDBRANCH 58 59
ENDBRANCH 57 58
ENDBRANCH 56 57
ENDBRANCH 51 56
ENDBRANCH 48 51
ENDBRANCH 46 47
BRANCH 46 68
ATOM     68  CB  VAL D   2     -14.066   8.833 -14.506  1.00 15.28 LIG 0.01  C 
ATOM     69  CG2 VAL D   2     -13.796   8.086 -15.796  1.00 14.68 LIG 0.01  C 
ATOM     70  CG1 VAL D   2     -12.769   9.165 -13.765  1.00 13.75 LIG 0.01  C 
ENDBRANCH 46 68
ENDBRANCH 43 46
ENDBRANCH 41 42
BRANCH 41 71
ATOM     71  CB  LEU D   3     -16.144   7.462  -9.141  1.00 15.85 LIG 0.04  C 
BRANCH 71 72
ATOM     72  CG  LEU D   3     -16.733   8.521  -8.204  1.00 19.10 LIG-0.02  C 
ATOM     73  CD2 LEU D   3     -15.822   9.732  -8.076  1.00 16.59 LIG 0.01  C 
ATOM     74  CD1 LEU D   3     -17.000   7.888  -6.840  1.00 21.08 LIG 0.01  C 
ENDBRANCH 71 72
ENDBRANCH 41 71
ENDBRANCH 1 41
TORSDOF 29
ENDMDL
MODEL 31
USER: ADFR SOLUTION from run 50
USER: SCORE 24.656546 LL:  -5.925 LR: -20.729 RR:   0.000 FEB: -12.078
USER: RMSD 13.512161
USER: SEED 49
USER: STATUS no improvement in best in 6 clusters for 5 generations
USER: GENES 31
USER: genes 0 Translation |==|  0.59779 0.49780 0.37679
USER: genes 1 Rotation |==|  0.63902 0.92017 0.33136 0.66027
USER: genes 2 Torsion [C]-N--CA-[CB] |==|  0.83029
USER: genes 3 Torsion [N]-CA--CB-[CG] |==|  0.53781
USER: genes 4 Torsion [CA]-CB--CG-[CD1] |==|  0.07424
USER: genes 5 Torsion [N]-CA--C-[N] |==|  0.18552
USER: genes 6 Torsion [C]-N--CA-[C] |==|  0.76563
USER: genes 7 Torsion [N]-CA--CB-[CG] |==|  0.79804
USER: genes 8 Torsion [CA]-CB--CG-[CD] |==|  0.12084
USER: genes 9 Torsion [CB]-CG--CD-[OE1] |==|  0.16235
USER: genes 10 Torsion [N]-CA--C-[N] |==|  0.44601
USER: genes 11 Torsion [C]-N--CA-[CB] |==|  0.51198
USER: genes 12 Torsion [N]-CA--C-[N] |==|  0.41226
USER: genes 13 Torsion [C]-N--CA-[CB] |==|  0.32919
USER: genes 14 Torsion [N]-CA--C-[OXT] |==|  0.12897
USER: genes 15 Torsion [N]-CA--CB-[CG] |==|  0.08767
USER: genes 16 Torsion [CA]-CB--CG-[SD] |==|  0.69514
USER: genes 17 Torsion [CB]-CG--SD-[CE] |==|  0.35402
USER: genes 18 Torsion [N]-C--CA-[N] |==|  0.37783
USER: genes 19 Torsion [C]-CA--N-[C] |==|  0.71848
USER: genes 20 Torsion [N]-C--CA-[N] |==|  0.27801
USER: genes 21 Torsion [C]-CA--N-[C] |==|  0.59549
USER: genes 22 Torsion [N]-C--CA-[N] |==|  0.44673
USER: genes 23 Torsion [C]-CA--N-[H1] |==|  0.98208
USER: genes 24 Torsion [C]-CA--CB-[CG] |==|  0.36205
USER: genes 25 Torsion [CA]-CB--CG-[CD] |==|  0.04574
USER: genes 26 Torsion [CB]-CG--CD-[NE] |==|  0.44400
USER: genes 27 Torsion [CG]-CD--NE-[CZ] |==|  0.54964
USER: genes 28 Torsion [C]-CA--CB-[CG2] |==|  0.59279
USER: genes 29 Torsion [C]-CA--CB-[CG] |==|  0.98125
USER: genes 30 Torsion [CA]-CB--CG-[CD2] |==|  0.68615
ROOT
ATOM      1  C   LEU D   3     -12.146   8.580  -8.961  1.00 15.92 LIG 0.24  C 
ATOM      2 O    LEU D   3     -12.440   7.400  -9.151  1.00 19.39 LIG-0.27  OA
ATOM      3  N   PHE D   4     -12.737   9.570  -9.618  1.00 13.65 LIG-0.35  N 
ATOM      4 H    PHE D   4     -12.735  10.392  -9.363  1.00 13.65 LIG 0.16  HD
ENDROOT
BRANCH 3 5
ATOM      5  CA  PHE D   4     -13.447   9.317 -10.849  1.00 13.25 LIG 0.18  C 
BRANCH 5 6
ATOM      6  CB  PHE D   4     -12.465   8.749 -11.886  1.00 13.20 LIG 0.07  C 
BRANCH 6 7
ATOM      7  CG  PHE D   4     -12.993   8.747 -13.275  1.00 13.63 LIG-0.06  A 
ATOM      8  CD1 PHE D   4     -13.956   9.671 -13.665  1.00 13.10 LIG 0.01  A 
ATOM      9  CE1 PHE D   4     -14.429   9.685 -14.970  1.00 15.10 LIG 0.00  A 
ATOM     10  CZ  PHE D   4     -13.925   8.780 -15.902  1.00 15.27 LIG 0.00  A 
ATOM     11  CE2 PHE D   4     -12.941   7.875 -15.519  1.00 13.31 LIG 0.00  A 
ATOM     12  CD2 PHE D   4     -12.498   7.856 -14.212  1.00 12.44 LIG 0.01  A 
ENDBRANCH 6 7
ENDBRANCH 5 6
BRANCH 5 13
ATOM     13  C   PHE D   4     -14.564   8.323 -10.537  1.00 14.19 LIG 0.24  C 
ATOM     14 O    PHE D   4     -14.482   7.157 -10.912  1.00 15.09 LIG-0.27  OA
ATOM     15  N   GLU D   5     -15.547   8.739  -9.751  1.00 15.42 LIG-0.35  N 
ATOM     16 H    GLU D   5     -15.566   9.503  -9.357  1.00 15.42 LIG 0.16  HD
BRANCH 15 17
ATOM     17  CA  GLU D   5     -16.700   7.891  -9.495  1.00 15.66 LIG 0.18  C 
BRANCH 17 18
ATOM     18  CB  GLU D   5     -17.332   8.225  -8.135  1.00 15.74 LIG 0.04  C 
BRANCH 18 19
ATOM     19  CG  GLU D   5     -16.532   7.768  -6.934  1.00 13.49 LIG 0.12  C 
BRANCH 19 20
ATOM     20  CD  GLU D   5     -15.047   8.052  -7.082  1.00 17.86 LIG 0.17  C 
ATOM     21 OE1  GLU D   5     -14.689   9.238  -7.257  1.00 19.55 LIG-0.65  OA
ATOM     22 OE2  GLU D   5     -14.231   7.106  -6.959  1.00 19.96 LIG-0.65  OA
ENDBRANCH 19 20
ENDBRANCH 18 19
ENDBRANCH 17 18
BRANCH 17 23
ATOM     23  C   GLU D   5     -17.698   8.073 -10.625  1.00 17.50 LIG 0.24  C 
ATOM     24 O    GLU D   5     -17.629   9.052 -11.371  1.00 17.10 LIG-0.27  OA
ATOM     25  N   ALA D   6     -18.602   7.111 -10.770  1.00 19.03 LIG-0.35  N 
ATOM     26 H    ALA D   6     -18.656   6.421 -10.261  1.00 19.03 LIG 0.16  HD
BRANCH 25 27
ATOM     27  CA  ALA D   6     -19.594   7.158 -11.834  1.00 21.37 LIG 0.17  C 
ATOM     28  CB  ALA D   6     -20.557   6.000 -11.704  1.00 21.30 LIG 0.04  C 
BRANCH 27 29
ATOM     29  C   ALA D   6     -20.341   8.480 -11.769  1.00 24.24 LIG 0.24  C 
ATOM     30 O    ALA D   6     -20.524   9.050 -10.693  1.00 22.56 LIG-0.27  OA
ATOM     31  N   MET D   7     -20.763   8.966 -12.930  1.00 27.55 LIG-0.34  N 
ATOM     32 H    MET D   7     -20.722   8.537 -13.674  1.00 27.55 LIG 0.16  HD
BRANCH 31 33
ATOM     33  CA  MET D   7     -21.345  10.298 -13.035  1.00 30.72 LIG 0.19  C 
BRANCH 33 34
ATOM     34  C   MET D   7     -22.776  10.186 -13.540  1.00 33.25 LIG 0.20  C 
ATOM     35 O    MET D   7     -23.198  10.987 -14.385  1.00 35.29 LIG-0.65  OA
ATOM     36 OXT  MET D   7     -23.561   9.358 -13.057  1.00 35.43 LIG-0.65  OA
ENDBRANCH 33 34
BRANCH 33 37
ATOM     37  CB  MET D   7     -20.492  11.170 -13.963  1.00 30.73 LIG 0.05  C 
BRANCH 37 38
ATOM     38  CG  MET D   7     -19.787  10.439 -15.088  1.00 32.79 LIG 0.08  C 
BRANCH 38 39
ATOM     39 SD   MET D   7     -18.012  10.378 -14.828  1.00 33.89 LIG-0.17  SA
ATOM     40  CE  MET D   7     -17.676   8.627 -14.997  1.00 31.39 LIG 0.09  C 
ENDBRANCH 38 39
ENDBRANCH 37 38
ENDBRANCH 33 37
ENDBRANCH 31 33
ENDBRANCH 27 29
ENDBRANCH 25 27
ENDBRANCH 17 23
ENDBRANCH 15 17
ENDBRANCH 5 13
ENDBRANCH 3 5
BRANCH 1 41
ATOM     41  CA  LEU D   3     -11.037   8.973  -7.988  1.00 16.32 LIG 0.18  C 
BRANCH 41 42
ATOM     42  N   LEU D   3     -11.123   8.267  -6.716  1.00 16.05 LIG-0.35  N 
ATOM     43  C   VAL D   2     -11.628   8.856  -5.633  1.00 15.61 LIG 0.24  C 
ATOM     44 O    VAL D   2     -11.963  10.042  -5.615  1.00 16.79 LIG-0.27  OA
ATOM     45 H    LEU D   3     -10.826   7.460  -6.732  1.00 16.05 LIG 0.16  HD
BRANCH 43 46
ATOM     46  CA  VAL D   2     -11.609   8.043  -4.348  1.00 14.78 LIG 0.18  C 
BRANCH 46 47
ATOM     47  N   VAL D   2     -10.475   8.496  -3.556  1.00 14.77 LIG-0.35  N 
ATOM     48  C   ARG D   1      -9.785   7.656  -2.796  1.00 16.50 LIG 0.25  C 
ATOM     49 O    ARG D   1     -10.020   6.446  -2.739  1.00 16.49 LIG-0.27  OA
ATOM     50 H    VAL D   2     -10.301   9.336  -3.628  1.00 14.77 LIG 0.16  HD
BRANCH 48 51
ATOM     51  CA  ARG D   1      -8.593   8.241  -2.079  1.00 17.64 LIG 0.27  C 
BRANCH 51 52
ATOM     52  N   ARG D   1      -8.227   7.346  -0.951  1.00 17.90 LIG-0.07  N 
ATOM     53 H3   ARG D   1      -8.194   7.816  -0.197  1.00 17.90 LIG 0.28  HD
ATOM     54 H2   ARG D   1      -7.430   6.981  -1.108  1.00 17.90 LIG 0.28  HD
ATOM     55 H1   ARG D   1      -8.837   6.703  -0.872  1.00 17.90 LIG 0.28  HD
ENDBRANCH 51 52
BRANCH 51 56
ATOM     56  CB  ARG D   1      -7.448   8.364  -3.094  1.00 19.06 LIG 0.04  C 
BRANCH 56 57
ATOM     57  CG  ARG D   1      -6.754   9.696  -3.157  1.00 22.89 LIG 0.02  C 
BRANCH 57 58
ATOM     58  CD  ARG D   1      -7.095  10.490  -1.903  1.00 26.83 LIG 0.14  C 
BRANCH 58 59
ATOM     59  NE  ARG D   1      -6.134  11.555  -1.649  1.00 30.01 LIG-0.23  N 
ATOM     60  CZ  ARG D   1      -5.997  12.161  -0.473  1.00 33.71 LIG 0.67  C 
ATOM     61  NH1 ARG D   1      -6.768  11.804   0.545  1.00 32.13 LIG-0.23  N 
ATOM     62  NH2 ARG D   1      -5.092  13.121  -0.314  1.00 33.53 LIG-0.23  N 
ATOM     63 1HH1 ARG D   1      -7.354  11.183   0.443  1.00 32.13 LIG 0.17  HD
ATOM     64 2HH1 ARG D   1      -6.682  12.194   1.307  1.00 32.13 LIG 0.17  HD
ATOM     65 1HH2 ARG D   1      -4.591  13.354  -0.973  1.00 33.53 LIG 0.17  HD
ATOM     66 2HH2 ARG D   1      -5.007  13.510   0.449  1.00 33.53 LIG 0.17  HD
ATOM     67 HE   ARG D   1      -5.626  11.805  -2.295  1.00 30.01 LIG 0.18  HD
ENDBRANCH 58 59
ENDBRANCH 57 58
ENDBRANCH 56 57
ENDBRANCH 51 56
ENDBRANCH 48 51
ENDBRANCH 46 47
BRANCH 46 68
ATOM     68  CB  VAL D   2     -12.922   8.254  -3.564  1.00 15.28 LIG 0.01  C 
ATOM     69  CG2 VAL D   2     -12.653   8.193  -2.074  1.00 14.68 LIG 0.01  C 
ATOM     70  CG1 VAL D   2     -13.998   7.251  -3.984  1.00 13.75 LIG 0.01  C 
ENDBRANCH 46 68
ENDBRANCH 43 46
ENDBRANCH 41 42
BRANCH 41 71
ATOM     71  CB  LEU D   3      -9.660   8.778  -8.632  1.00 15.85 LIG 0.04  C 
BRANCH 71 72
ATOM     72  CG  LEU D   3      -9.634   8.100 -10.006  1.00 19.10 LIG-0.02  C 
ATOM     73  CD2 LEU D   3      -8.971   6.733  -9.950  1.00 16.59 LIG 0.01  C 
ATOM     74  CD1 LEU D   3      -8.921   9.015 -11.001  1.00 21.08 LIG 0.01  C 
ENDBRANCH 71 72
ENDBRANCH 41 71
ENDBRANCH 1 41
TORSDOF 29
ENDMDL
MODEL 32
USER: ADFR SOLUTION from run 79
USER: SCORE 23.711879 LL:  -5.321 LR: -20.719 RR:   0.000 FEB: -12.068
USER: RMSD 5.373568
USER: SEED 78
USER: STATUS no improvement in best in 1 clusters for 5 generations
USER: GENES 31
USER: genes 0 Translation |==|  0.61456 0.46094 0.44342
USER: genes 1 Rotation |==|  0.11479 0.30872 0.29387 0.65013
USER: genes 2 Torsion [C]-N--CA-[CB] |==|  0.25183
USER: genes 3 Torsion [N]-CA--CB-[CG] |==|  0.13245
USER: genes 4 Torsion [CA]-CB--CG-[CD1] |==|  0.23496
USER: genes 5 Torsion [N]-CA--C-[N] |==|  0.42082
USER: genes 6 Torsion [C]-N--CA-[C] |==|  0.61058
USER: genes 7 Torsion [N]-CA--CB-[CG] |==|  0.23395
USER: genes 8 Torsion [CA]-CB--CG-[CD] |==|  0.41623
USER: genes 9 Torsion [CB]-CG--CD-[OE1] |==|  0.27383
USER: genes 10 Torsion [N]-CA--C-[N] |==|  0.46664
USER: genes 11 Torsion [C]-N--CA-[CB] |==|  0.87366
USER: genes 12 Torsion [N]-CA--C-[N] |==|  0.40237
USER: genes 13 Torsion [C]-N--CA-[CB] |==|  0.21702
USER: genes 14 Torsion [N]-CA--C-[OXT] |==|  0.37163
USER: genes 15 Torsion [N]-CA--CB-[CG] |==|  0.59886
USER: genes 16 Torsion [CA]-CB--CG-[SD] |==|  0.68681
USER: genes 17 Torsion [CB]-CG--SD-[CE] |==|  0.87272
USER: genes 18 Torsion [N]-C--CA-[N] |==|  0.42514
USER: genes 19 Torsion [C]-CA--N-[C] |==|  0.82379
USER: genes 20 Torsion [N]-C--CA-[N] |==|  0.49677
USER: genes 21 Torsion [C]-CA--N-[C] |==|  0.16789
USER: genes 22 Torsion [N]-C--CA-[N] |==|  0.45181
USER: genes 23 Torsion [C]-CA--N-[H1] |==|  0.19653
USER: genes 24 Torsion [C]-CA--CB-[CG] |==|  0.10880
USER: genes 25 Torsion [CA]-CB--CG-[CD] |==|  0.53166
USER: genes 26 Torsion [CB]-CG--CD-[NE] |==|  0.35717
USER: genes 27 Torsion [CG]-CD--NE-[CZ] |==|  0.33650
USER: genes 28 Torsion [C]-CA--CB-[CG2] |==|  0.29762
USER: genes 29 Torsion [C]-CA--CB-[CG] |==|  0.94777
USER: genes 30 Torsion [CA]-CB--CG-[CD2] |==|  0.70273
ROOT
ATOM      1  C   LEU D   3     -11.668   8.110  -7.063  1.00 15.92 LIG 0.24  C 
ATOM      2 O    LEU D   3     -12.016   9.258  -7.335  1.00 19.39 LIG-0.27  OA
ATOM      3  N   PHE D   4     -11.108   7.797  -5.902  1.00 13.65 LIG-0.35  N 
ATOM      4 H    PHE D   4     -11.064   7.000  -5.582  1.00 13.65 LIG 0.16  HD
ENDROOT
BRANCH 3 5
ATOM      5  CA  PHE D   4     -10.514   8.818  -5.072  1.00 13.25 LIG 0.18  C 
BRANCH 5 6
ATOM      6  CB  PHE D   4     -11.578   9.359  -4.104  1.00 13.20 LIG 0.07  C 
BRANCH 6 7
ATOM      7  CG  PHE D   4     -12.352   8.298  -3.409  1.00 13.63 LIG-0.06  A 
ATOM      8  CD1 PHE D   4     -11.860   7.709  -2.250  1.00 13.10 LIG 0.01  A 
ATOM      9  CE1 PHE D   4     -12.596   6.736  -1.588  1.00 15.10 LIG 0.00  A 
ATOM     10  CZ  PHE D   4     -13.845   6.358  -2.075  1.00 15.27 LIG 0.00  A 
ATOM     11  CE2 PHE D   4     -14.351   6.969  -3.218  1.00 13.31 LIG 0.00  A 
ATOM     12  CD2 PHE D   4     -13.596   7.916  -3.881  1.00 12.44 LIG 0.01  A 
ENDBRANCH 6 7
ENDBRANCH 5 6
BRANCH 5 13
ATOM     13  C   PHE D   4      -9.350   8.176  -4.318  1.00 14.19 LIG 0.24  C 
ATOM     14 O    PHE D   4      -9.314   6.961  -4.148  1.00 15.09 LIG-0.27  OA
ATOM     15  N   GLU D   5      -8.340   8.962  -3.973  1.00 15.42 LIG-0.35  N 
ATOM     16 H    GLU D   5      -8.268   9.789  -4.198  1.00 15.42 LIG 0.16  HD
BRANCH 15 17
ATOM     17  CA  GLU D   5      -7.248   8.452  -3.161  1.00 15.66 LIG 0.18  C 
BRANCH 17 18
ATOM     18  CB  GLU D   5      -6.058   8.042  -4.042  1.00 15.74 LIG 0.04  C 
BRANCH 18 19
ATOM     19  CG  GLU D   5      -5.124   9.174  -4.414  1.00 13.49 LIG 0.12  C 
BRANCH 19 20
ATOM     20  CD  GLU D   5      -3.692   8.707  -4.608  1.00 17.86 LIG 0.17  C 
ATOM     21 OE1  GLU D   5      -3.293   8.499  -5.775  1.00 19.55 LIG-0.65  OA
ATOM     22 OE2  GLU D   5      -2.943   8.608  -3.605  1.00 19.96 LIG-0.65  OA
ENDBRANCH 19 20
ENDBRANCH 18 19
ENDBRANCH 17 18
BRANCH 17 23
ATOM     23  C   GLU D   5      -6.848   9.520  -2.158  1.00 17.50 LIG 0.24  C 
ATOM     24 O    GLU D   5      -7.293  10.665  -2.250  1.00 17.10 LIG-0.27  OA
ATOM     25  N   ALA D   6      -6.036   9.132  -1.181  1.00 19.03 LIG-0.35  N 
ATOM     26 H    ALA D   6      -5.724   8.335  -1.102  1.00 19.03 LIG 0.16  HD
BRANCH 25 27
ATOM     27  CA  ALA D   6      -5.605  10.056  -0.143  1.00 21.37 LIG 0.17  C 
ATOM     28  CB  ALA D   6      -5.181  11.372  -0.755  1.00 21.30 LIG 0.04  C 
BRANCH 27 29
ATOM     29  C   ALA D   6      -6.741  10.272   0.844  1.00 24.24 LIG 0.24  C 
ATOM     30 O    ALA D   6      -7.913  10.282   0.468  1.00 22.56 LIG-0.27  OA
ATOM     31  N   MET D   7      -6.384  10.434   2.113  1.00 27.55 LIG-0.34  N 
ATOM     32 H    MET D   7      -5.570  10.518   2.377  1.00 27.55 LIG 0.16  HD
BRANCH 31 33
ATOM     33  CA  MET D   7      -7.372  10.483   3.184  1.00 30.72 LIG 0.19  C 
BRANCH 33 34
ATOM     34  C   MET D   7      -6.765  11.167   4.399  1.00 33.25 LIG 0.20  C 
ATOM     35 O    MET D   7      -5.670  10.792   4.838  1.00 35.29 LIG-0.65  OA
ATOM     36 OXT  MET D   7      -7.387  12.043   5.017  1.00 35.43 LIG-0.65  OA
ENDBRANCH 33 34
BRANCH 33 37
ATOM     37  CB  MET D   7      -7.849   9.066   3.522  1.00 30.73 LIG 0.05  C 
BRANCH 37 38
ATOM     38  CG  MET D   7      -9.309   8.938   3.908  1.00 32.79 LIG 0.08  C 
BRANCH 38 39
ATOM     39 SD   MET D   7      -9.501   8.474   5.631  1.00 33.89 LIG-0.17  SA
ATOM     40  CE  MET D   7      -8.304   7.150   5.790  1.00 31.39 LIG 0.09  C 
ENDBRANCH 38 39
ENDBRANCH 37 38
ENDBRANCH 33 37
ENDBRANCH 31 33
ENDBRANCH 27 29
ENDBRANCH 25 27
ENDBRANCH 17 23
ENDBRANCH 15 17
ENDBRANCH 5 13
ENDBRANCH 3 5
BRANCH 1 41
ATOM     41  CA  LEU D   3     -11.815   6.977  -8.076  1.00 16.32 LIG 0.18  C 
BRANCH 41 42
ATOM     42  N   LEU D   3     -12.926   7.182  -8.998  1.00 16.05 LIG-0.35  N 
ATOM     43  C   VAL D   2     -14.184   7.228  -8.563  1.00 15.61 LIG 0.24  C 
ATOM     44 O    VAL D   2     -14.491   7.013  -7.389  1.00 16.79 LIG-0.27  OA
ATOM     45 H    LEU D   3     -12.697   7.268  -9.822  1.00 16.05 LIG 0.16  HD
BRANCH 43 46
ATOM     46  CA  VAL D   2     -15.262   7.384  -9.623  1.00 14.78 LIG 0.18  C 
BRANCH 46 47
ATOM     47  N   VAL D   2     -16.551   7.384  -8.946  1.00 14.77 LIG-0.35  N 
ATOM     48  C   ARG D   1     -16.854   8.304  -8.039  1.00 16.50 LIG 0.25  C 
ATOM     49 O    ARG D   1     -16.100   9.234  -7.741  1.00 16.49 LIG-0.27  OA
ATOM     50 H    VAL D   2     -17.081   6.749  -9.184  1.00 14.77 LIG 0.16  HD
BRANCH 48 51
ATOM     51  CA  ARG D   1     -18.246   8.229  -7.462  1.00 17.64 LIG 0.27  C 
BRANCH 51 52
ATOM     52  N   ARG D   1     -18.285   9.019  -6.205  1.00 17.90 LIG-0.07  N 
ATOM     53 H3   ARG D   1     -17.600   8.788  -5.686  1.00 17.90 LIG 0.28  HD
ATOM     54 H2   ARG D   1     -19.048   8.857  -5.775  1.00 17.90 LIG 0.28  HD
ATOM     55 H1   ARG D   1     -18.232   9.886  -6.397  1.00 17.90 LIG 0.28  HD
ENDBRANCH 51 52
BRANCH 51 56
ATOM     56  CB  ARG D   1     -19.219   8.789  -8.509  1.00 19.06 LIG 0.04  C 
BRANCH 56 57
ATOM     57  CG  ARG D   1     -18.936   8.430  -9.941  1.00 22.89 LIG 0.02  C 
BRANCH 57 58
ATOM     58  CD  ARG D   1     -19.812   9.287 -10.846  1.00 26.83 LIG 0.14  C 
BRANCH 58 59
ATOM     59  NE  ARG D   1     -19.038   9.957 -11.884  1.00 30.01 LIG-0.23  N 
ATOM     60  CZ  ARG D   1     -19.255   9.797 -13.186  1.00 33.71 LIG 0.67  C 
ATOM     61  NH1 ARG D   1     -20.217   8.983 -13.598  1.00 32.13 LIG-0.23  N 
ATOM     62  NH2 ARG D   1     -18.511  10.447 -14.076  1.00 33.53 LIG-0.23  N 
ATOM     63 1HH1 ARG D   1     -20.699   8.562 -13.024  1.00 32.13 LIG 0.17  HD
ATOM     64 2HH1 ARG D   1     -20.360   8.877 -14.439  1.00 32.13 LIG 0.17  HD
ATOM     65 1HH2 ARG D   1     -17.886  10.975 -13.810  1.00 33.53 LIG 0.17  HD
ATOM     66 2HH2 ARG D   1     -18.655  10.341 -14.917  1.00 33.53 LIG 0.17  HD
ATOM     67 HE   ARG D   1     -18.406  10.486 -11.640  1.00 30.01 LIG 0.18  HD
ENDBRANCH 58 59
ENDBRANCH 57 58
ENDBRANCH 56 57
ENDBRANCH 51 56
ENDBRANCH 48 51
ENDBRANCH 46 47
BRANCH 46 68
ATOM     68  CB  VAL D   2     -15.067   8.708 -10.392  1.00 15.28 LIG 0.01  C 
ATOM     69  CG2 VAL D   2     -14.544   8.428 -11.787  1.00 14.68 LIG 0.01  C 
ATOM     70  CG1 VAL D   2     -14.155   9.673  -9.633  1.00 13.75 LIG 0.01  C 
ENDBRANCH 46 68
ENDBRANCH 43 46
ENDBRANCH 41 42
BRANCH 41 71
ATOM     71  CB  LEU D   3     -10.503   6.760  -8.836  1.00 15.85 LIG 0.04  C 
BRANCH 71 72
ATOM     72  CG  LEU D   3      -9.493   7.911  -8.807  1.00 19.10 LIG-0.02  C 
ATOM     73  CD2 LEU D   3      -9.421   8.634 -10.142  1.00 16.59 LIG 0.01  C 
ATOM     74  CD1 LEU D   3      -8.125   7.365  -8.404  1.00 21.08 LIG 0.01  C 
ENDBRANCH 71 72
ENDBRANCH 41 71
ENDBRANCH 1 41
TORSDOF 29
ENDMDL
MODEL 33
USER: ADFR SOLUTION from run 136
USER: SCORE 24.833673 LL:  -5.874 LR: -20.678 RR:   0.000 FEB: -12.027
USER: RMSD 13.486893
USER: SEED 135
USER: STATUS searching
USER: GENES 31
USER: genes 0 Translation |==|  0.58489 0.41659 0.47494
USER: genes 1 Rotation |==|  0.70792 0.88929 0.41824 0.72031
USER: genes 2 Torsion [C]-N--CA-[CB] |==|  0.87778
USER: genes 3 Torsion [N]-CA--CB-[CG] |==|  0.76572
USER: genes 4 Torsion [CA]-CB--CG-[CD1] |==|  0.14466
USER: genes 5 Torsion [N]-CA--C-[N] |==|  0.34447
USER: genes 6 Torsion [C]-N--CA-[C] |==|  0.70753
USER: genes 7 Torsion [N]-CA--CB-[CG] |==|  0.65044
USER: genes 8 Torsion [CA]-CB--CG-[CD] |==|  0.23944
USER: genes 9 Torsion [CB]-CG--CD-[OE1] |==|  0.94959
USER: genes 10 Torsion [N]-CA--C-[N] |==|  0.83983
USER: genes 11 Torsion [C]-N--CA-[CB] |==|  0.81660
USER: genes 12 Torsion [N]-CA--C-[N] |==|  0.22893
USER: genes 13 Torsion [C]-N--CA-[CB] |==|  0.23926
USER: genes 14 Torsion [N]-CA--C-[OXT] |==|  0.98736
USER: genes 15 Torsion [N]-CA--CB-[CG] |==|  0.08796
USER: genes 16 Torsion [CA]-CB--CG-[SD] |==|  0.21486
USER: genes 17 Torsion [CB]-CG--SD-[CE] |==|  0.50474
USER: genes 18 Torsion [N]-C--CA-[N] |==|  0.82822
USER: genes 19 Torsion [C]-CA--N-[C] |==|  0.66209
USER: genes 20 Torsion [N]-C--CA-[N] |==|  0.36085
USER: genes 21 Torsion [C]-CA--N-[C] |==|  0.71053
USER: genes 22 Torsion [N]-C--CA-[N] |==|  0.89630
USER: genes 23 Torsion [C]-CA--N-[H1] |==|  0.92202
USER: genes 24 Torsion [C]-CA--CB-[CG] |==|  0.30055
USER: genes 25 Torsion [CA]-CB--CG-[CD] |==|  0.85495
USER: genes 26 Torsion [CB]-CG--CD-[NE] |==|  0.40446
USER: genes 27 Torsion [CG]-CD--NE-[CZ] |==|  0.25062
USER: genes 28 Torsion [C]-CA--CB-[CG2] |==|  0.85904
USER: genes 29 Torsion [C]-CA--CB-[CG] |==|  0.50096
USER: genes 30 Torsion [CA]-CB--CG-[CD2] |==|  0.21036
ROOT
ATOM      1  C   LEU D   3     -12.514   7.545  -6.164  1.00 15.92 LIG 0.24  C 
ATOM      2 O    LEU D   3     -12.713   6.496  -6.777  1.00 19.39 LIG-0.27  OA
ATOM      3  N   PHE D   4     -12.756   8.734  -6.699  1.00 13.65 LIG-0.35  N 
ATOM      4 H    PHE D   4     -12.852   9.460  -6.248  1.00 13.65 LIG 0.16  HD
ENDROOT
BRANCH 3 5
ATOM      5  CA  PHE D   4     -12.876   8.887  -8.130  1.00 13.25 LIG 0.18  C 
BRANCH 5 6
ATOM      6  CB  PHE D   4     -11.755   8.089  -8.815  1.00 13.20 LIG 0.07  C 
BRANCH 6 7
ATOM      7  CG  PHE D   4     -10.468   8.826  -8.914  1.00 13.63 LIG-0.06  A 
ATOM      8  CD1 PHE D   4      -9.898   9.405  -7.787  1.00 13.10 LIG 0.01  A 
ATOM      9  CE1 PHE D   4      -8.683  10.070  -7.876  1.00 15.10 LIG 0.00  A 
ATOM     10  CZ  PHE D   4      -8.019  10.144  -9.099  1.00 15.27 LIG 0.00  A 
ATOM     11  CE2 PHE D   4      -8.575   9.538 -10.221  1.00 13.31 LIG 0.00  A 
ATOM     12  CD2 PHE D   4      -9.796   8.903 -10.123  1.00 12.44 LIG 0.01  A 
ENDBRANCH 6 7
ENDBRANCH 5 6
BRANCH 5 13
ATOM     13  C   PHE D   4     -14.255   8.367  -8.532  1.00 14.19 LIG 0.24  C 
ATOM     14 O    PHE D   4     -14.641   7.267  -8.149  1.00 15.09 LIG-0.27  OA
ATOM     15  N   GLU D   5     -15.049   9.197  -9.195  1.00 15.42 LIG-0.35  N 
ATOM     16 H    GLU D   5     -14.865  10.021  -9.358  1.00 15.42 LIG 0.16  HD
BRANCH 15 17
ATOM     17  CA  GLU D   5     -16.332   8.744  -9.706  1.00 15.66 LIG 0.18  C 
BRANCH 17 18
ATOM     18  CB  GLU D   5     -17.446   9.738  -9.344  1.00 15.74 LIG 0.04  C 
BRANCH 18 19
ATOM     19  CG  GLU D   5     -18.628   9.130  -8.620  1.00 13.49 LIG 0.12  C 
BRANCH 19 20
ATOM     20  CD  GLU D   5     -18.418   9.064  -7.117  1.00 17.86 LIG 0.17  C 
ATOM     21 OE1  GLU D   5     -17.249   9.164  -6.681  1.00 19.55 LIG-0.65  OA
ATOM     22 OE2  GLU D   5     -19.419   8.979  -6.365  1.00 19.96 LIG-0.65  OA
ENDBRANCH 19 20
ENDBRANCH 18 19
ENDBRANCH 17 18
BRANCH 17 23
ATOM     23  C   GLU D   5     -16.220   8.567 -11.210  1.00 17.50 LIG 0.24  C 
ATOM     24 O    GLU D   5     -16.495   7.487 -11.736  1.00 17.10 LIG-0.27  OA
ATOM     25  N   ALA D   6     -15.852   9.639 -11.902  1.00 19.03 LIG-0.35  N 
ATOM     26 H    ALA D   6     -15.664  10.399 -11.549  1.00 19.03 LIG 0.16  HD
BRANCH 25 27
ATOM     27  CA  ALA D   6     -15.738   9.602 -13.353  1.00 21.37 LIG 0.17  C 
ATOM     28  CB  ALA D   6     -14.615   8.678 -13.767  1.00 21.30 LIG 0.04  C 
BRANCH 27 29
ATOM     29  C   ALA D   6     -17.056   9.136 -13.951  1.00 24.24 LIG 0.24  C 
ATOM     30 O    ALA D   6     -17.226   7.959 -14.269  1.00 22.56 LIG-0.27  OA
ATOM     31  N   MET D   7     -17.990  10.069 -14.092  1.00 27.55 LIG-0.34  N 
ATOM     32 H    MET D   7     -17.856  10.908 -13.959  1.00 27.55 LIG 0.16  HD
BRANCH 31 33
ATOM     33  CA  MET D   7     -19.350   9.733 -14.495  1.00 30.72 LIG 0.19  C 
BRANCH 33 34
ATOM     34  C   MET D   7     -19.962  10.910 -15.239  1.00 33.25 LIG 0.20  C 
ATOM     35 O    MET D   7     -21.048  10.779 -15.819  1.00 35.29 LIG-0.65  OA
ATOM     36 OXT  MET D   7     -19.351  11.983 -15.351  1.00 35.43 LIG-0.65  OA
ENDBRANCH 33 34
BRANCH 33 37
ATOM     37  CB  MET D   7     -20.183   9.358 -13.264  1.00 30.73 LIG 0.05  C 
BRANCH 37 38
ATOM     38  CG  MET D   7     -19.809  10.064 -11.976  1.00 32.79 LIG 0.08  C 
BRANCH 38 39
ATOM     39 SD   MET D   7     -20.434  11.746 -11.938  1.00 33.89 LIG-0.17  SA
ATOM     40  CE  MET D   7     -19.809  12.334 -10.365  1.00 31.39 LIG 0.09  C 
ENDBRANCH 38 39
ENDBRANCH 37 38
ENDBRANCH 33 37
ENDBRANCH 31 33
ENDBRANCH 27 29
ENDBRANCH 25 27
ENDBRANCH 17 23
ENDBRANCH 15 17
ENDBRANCH 5 13
ENDBRANCH 3 5
BRANCH 1 41
ATOM     41  CA  LEU D   3     -11.920   7.538  -4.757  1.00 16.32 LIG 0.18  C 
BRANCH 41 42
ATOM     42  N   LEU D   3     -10.615   8.184  -4.689  1.00 16.05 LIG-0.35  N 
ATOM     43  C   VAL D   2      -9.542   7.526  -4.257  1.00 15.61 LIG 0.24  C 
ATOM     44 O    VAL D   2      -9.598   6.380  -3.808  1.00 16.79 LIG-0.27  OA
ATOM     45 H    LEU D   3     -10.608   9.005  -4.947  1.00 16.05 LIG 0.16  HD
BRANCH 43 46
ATOM     46  CA  VAL D   2      -8.249   8.322  -4.171  1.00 14.78 LIG 0.18  C 
BRANCH 46 47
ATOM     47  N   VAL D   2      -7.683   8.104  -2.847  1.00 14.77 LIG-0.35  N 
ATOM     48  C   ARG D   1      -7.760   9.033  -1.903  1.00 16.50 LIG 0.25  C 
ATOM     49 O    ARG D   1      -8.343  10.109  -2.058  1.00 16.49 LIG-0.27  OA
ATOM     50 H    VAL D   2      -7.307   7.338  -2.740  1.00 14.77 LIG 0.16  HD
BRANCH 48 51
ATOM     51  CA  ARG D   1      -7.193   8.654  -0.557  1.00 17.64 LIG 0.27  C 
BRANCH 51 52
ATOM     52  N   ARG D   1      -7.499   7.224  -0.294  1.00 17.90 LIG-0.07  N 
ATOM     53 H3   ARG D   1      -7.609   7.100   0.580  1.00 17.90 LIG 0.28  HD
ATOM     54 H2   ARG D   1      -6.826   6.718  -0.583  1.00 17.90 LIG 0.28  HD
ATOM     55 H1   ARG D   1      -8.245   6.997  -0.722  1.00 17.90 LIG 0.28  HD
ENDBRANCH 51 52
BRANCH 51 56
ATOM     56  CB  ARG D   1      -5.679   8.907  -0.597  1.00 19.06 LIG 0.04  C 
BRANCH 56 57
ATOM     57  CG  ARG D   1      -5.178  10.079   0.199  1.00 22.89 LIG 0.02  C 
BRANCH 57 58
ATOM     58  CD  ARG D   1      -5.976  11.317  -0.190  1.00 26.83 LIG 0.14  C 
BRANCH 58 59
ATOM     59  NE  ARG D   1      -6.179  12.217   0.938  1.00 30.01 LIG-0.23  N 
ATOM     60  CZ  ARG D   1      -5.345  13.202   1.256  1.00 33.71 LIG 0.67  C 
ATOM     61  NH1 ARG D   1      -4.254  13.401   0.530  1.00 32.13 LIG-0.23  N 
ATOM     62  NH2 ARG D   1      -5.600  13.988   2.298  1.00 33.53 LIG-0.23  N 
ATOM     63 1HH1 ARG D   1      -4.087  12.893  -0.144  1.00 32.13 LIG 0.17  HD
ATOM     64 2HH1 ARG D   1      -3.712  14.037   0.733  1.00 32.13 LIG 0.17  HD
ATOM     65 1HH2 ARG D   1      -6.308  13.860   2.770  1.00 33.53 LIG 0.17  HD
ATOM     66 2HH2 ARG D   1      -5.058  14.624   2.499  1.00 33.53 LIG 0.17  HD
ATOM     67 HE   ARG D   1      -6.878  12.104   1.425  1.00 30.01 LIG 0.18  HD
ENDBRANCH 58 59
ENDBRANCH 57 58
ENDBRANCH 56 57
ENDBRANCH 51 56
ENDBRANCH 48 51
ENDBRANCH 46 47
BRANCH 46 68
ATOM     68  CB  VAL D   2      -7.258   7.849  -5.256  1.00 15.28 LIG 0.01  C 
ATOM     69  CG2 VAL D   2      -7.115   6.340  -5.207  1.00 14.68 LIG 0.01  C 
ATOM     70  CG1 VAL D   2      -5.903   8.546  -5.127  1.00 13.75 LIG 0.01  C 
ENDBRANCH 46 68
ENDBRANCH 43 46
ENDBRANCH 41 42
BRANCH 41 71
ATOM     71  CB  LEU D   3     -12.897   8.165  -3.757  1.00 15.85 LIG 0.04  C 
BRANCH 71 72
ATOM     72  CG  LEU D   3     -12.435   8.237  -2.298  1.00 19.10 LIG-0.02  C 
ATOM     73  CD2 LEU D   3     -11.413   9.342  -2.082  1.00 16.59 LIG 0.01  C 
ATOM     74  CD1 LEU D   3     -11.869   6.879  -1.887  1.00 21.08 LIG 0.01  C 
ENDBRANCH 71 72
ENDBRANCH 41 71
ENDBRANCH 1 41
TORSDOF 29
ENDMDL
MODEL 34
USER: ADFR SOLUTION from run 50
USER: SCORE 25.395098 LL:  -6.628 LR: -20.664 RR:   0.000 FEB: -12.014
USER: RMSD 13.161618
USER: SEED 49
USER: STATUS no improvement in best in 6 clusters for 5 generations
USER: GENES 31
USER: genes 0 Translation |==|  0.59736 0.49708 0.37776
USER: genes 1 Rotation |==|  0.63917 0.92010 0.33347 0.66253
USER: genes 2 Torsion [C]-N--CA-[CB] |==|  0.83108
USER: genes 3 Torsion [N]-CA--CB-[CG] |==|  0.53784
USER: genes 4 Torsion [CA]-CB--CG-[CD1] |==|  0.07406
USER: genes 5 Torsion [N]-CA--C-[N] |==|  0.18438
USER: genes 6 Torsion [C]-N--CA-[C] |==|  0.76544
USER: genes 7 Torsion [N]-CA--CB-[CG] |==|  0.79914
USER: genes 8 Torsion [CA]-CB--CG-[CD] |==|  0.12235
USER: genes 9 Torsion [CB]-CG--CD-[OE1] |==|  0.16267
USER: genes 10 Torsion [N]-CA--C-[N] |==|  0.44659
USER: genes 11 Torsion [C]-N--CA-[CB] |==|  0.51111
USER: genes 12 Torsion [N]-CA--C-[N] |==|  0.41250
USER: genes 13 Torsion [C]-N--CA-[CB] |==|  0.32912
USER: genes 14 Torsion [N]-CA--C-[OXT] |==|  0.12910
USER: genes 15 Torsion [N]-CA--CB-[CG] |==|  0.08790
USER: genes 16 Torsion [CA]-CB--CG-[SD] |==|  0.69489
USER: genes 17 Torsion [CB]-CG--SD-[CE] |==|  0.35395
USER: genes 18 Torsion [N]-C--CA-[N] |==|  0.37678
USER: genes 19 Torsion [C]-CA--N-[C] |==|  0.71130
USER: genes 20 Torsion [N]-C--CA-[N] |==|  0.29281
USER: genes 21 Torsion [C]-CA--N-[C] |==|  0.63186
USER: genes 22 Torsion [N]-C--CA-[N] |==|  0.41369
USER: genes 23 Torsion [C]-CA--N-[H1] |==|  0.97519
USER: genes 24 Torsion [C]-CA--CB-[CG] |==|  0.13375
USER: genes 25 Torsion [CA]-CB--CG-[CD] |==|  0.58605
USER: genes 26 Torsion [CB]-CG--CD-[NE] |==|  0.27069
USER: genes 27 Torsion [CG]-CD--NE-[CZ] |==|  0.75850
USER: genes 28 Torsion [C]-CA--CB-[CG2] |==|  0.60136
USER: genes 29 Torsion [C]-CA--CB-[CG] |==|  0.98642
USER: genes 30 Torsion [CA]-CB--CG-[CD2] |==|  0.68362
ROOT
ATOM      1  C   LEU D   3     -12.158   8.571  -8.934  1.00 15.92 LIG 0.24  C 
ATOM      2 O    LEU D   3     -12.444   7.391  -9.131  1.00 19.39 LIG-0.27  OA
ATOM      3  N   PHE D   4     -12.747   9.561  -9.591  1.00 13.65 LIG-0.35  N 
ATOM      4 H    PHE D   4     -12.752  10.381  -9.333  1.00 13.65 LIG 0.16  HD
ENDROOT
BRANCH 3 5
ATOM      5  CA  PHE D   4     -13.443   9.310 -10.831  1.00 13.25 LIG 0.18  C 
BRANCH 5 6
ATOM      6  CB  PHE D   4     -12.450   8.745 -11.858  1.00 13.20 LIG 0.07  C 
BRANCH 6 7
ATOM      7  CG  PHE D   4     -12.962   8.746 -13.253  1.00 13.63 LIG-0.06  A 
ATOM      8  CD1 PHE D   4     -13.922   9.669 -13.651  1.00 13.10 LIG 0.01  A 
ATOM      9  CE1 PHE D   4     -14.381   9.686 -14.961  1.00 15.10 LIG 0.00  A 
ATOM     10  CZ  PHE D   4     -13.865   8.784 -15.890  1.00 15.27 LIG 0.00  A 
ATOM     11  CE2 PHE D   4     -12.883   7.880 -15.499  1.00 13.31 LIG 0.00  A 
ATOM     12  CD2 PHE D   4     -12.455   7.858 -14.187  1.00 12.44 LIG 0.01  A 
ENDBRANCH 6 7
ENDBRANCH 5 6
BRANCH 5 13
ATOM     13  C   PHE D   4     -14.564   8.314 -10.534  1.00 14.19 LIG 0.24  C 
ATOM     14 O    PHE D   4     -14.479   7.151 -10.917  1.00 15.09 LIG-0.27  OA
ATOM     15  N   GLU D   5     -15.551   8.724  -9.751  1.00 15.42 LIG-0.35  N 
ATOM     16 H    GLU D   5     -15.572   9.486  -9.352  1.00 15.42 LIG 0.16  HD
BRANCH 15 17
ATOM     17  CA  GLU D   5     -16.706   7.876  -9.509  1.00 15.66 LIG 0.18  C 
BRANCH 17 18
ATOM     18  CB  GLU D   5     -17.345   8.199  -8.150  1.00 15.74 LIG 0.04  C 
BRANCH 18 19
ATOM     19  CG  GLU D   5     -16.548   7.739  -6.948  1.00 13.49 LIG 0.12  C 
BRANCH 19 20
ATOM     20  CD  GLU D   5     -15.067   8.044  -7.082  1.00 17.86 LIG 0.17  C 
ATOM     21 OE1  GLU D   5     -14.722   9.236  -7.240  1.00 19.55 LIG-0.65  OA
ATOM     22 OE2  GLU D   5     -14.239   7.107  -6.965  1.00 19.96 LIG-0.65  OA
ENDBRANCH 19 20
ENDBRANCH 18 19
ENDBRANCH 17 18
BRANCH 17 23
ATOM     23  C   GLU D   5     -17.697   8.068 -10.643  1.00 17.50 LIG 0.24  C 
ATOM     24 O    GLU D   5     -17.621   9.050 -11.382  1.00 17.10 LIG-0.27  OA
ATOM     25  N   ALA D   6     -18.603   7.110 -10.799  1.00 19.03 LIG-0.35  N 
ATOM     26 H    ALA D   6     -18.663   6.417 -10.294  1.00 19.03 LIG 0.16  HD
BRANCH 25 27
ATOM     27  CA  ALA D   6     -19.590   7.166 -11.868  1.00 21.37 LIG 0.17  C 
ATOM     28  CB  ALA D   6     -20.553   6.006 -11.754  1.00 21.30 LIG 0.04  C 
BRANCH 27 29
ATOM     29  C   ALA D   6     -20.339   8.487 -11.794  1.00 24.24 LIG 0.24  C 
ATOM     30 O    ALA D   6     -20.526   9.048 -10.714  1.00 22.56 LIG-0.27  OA
ATOM     31  N   MET D   7     -20.756   8.983 -12.952  1.00 27.55 LIG-0.34  N 
ATOM     32 H    MET D   7     -20.712   8.561 -13.700  1.00 27.55 LIG 0.16  HD
BRANCH 31 33
ATOM     33  CA  MET D   7     -21.338  10.316 -13.047  1.00 30.72 LIG 0.19  C 
BRANCH 33 34
ATOM     34  C   MET D   7     -22.766  10.208 -13.560  1.00 33.25 LIG 0.20  C 
ATOM     35 O    MET D   7     -23.185  11.015 -14.400  1.00 35.29 LIG-0.65  OA
ATOM     36 OXT  MET D   7     -23.554   9.375 -13.088  1.00 35.43 LIG-0.65  OA
ENDBRANCH 33 34
BRANCH 33 37
ATOM     37  CB  MET D   7     -20.482  11.197 -13.963  1.00 30.73 LIG 0.05  C 
BRANCH 37 38
ATOM     38  CG  MET D   7     -19.772  10.478 -15.093  1.00 32.79 LIG 0.08  C 
BRANCH 38 39
ATOM     39 SD   MET D   7     -17.999  10.416 -14.828  1.00 33.89 LIG-0.17  SA
ATOM     40  CE  MET D   7     -17.660   8.666 -15.012  1.00 31.39 LIG 0.09  C 
ENDBRANCH 38 39
ENDBRANCH 37 38
ENDBRANCH 33 37
ENDBRANCH 31 33
ENDBRANCH 27 29
ENDBRANCH 25 27
ENDBRANCH 17 23
ENDBRANCH 15 17
ENDBRANCH 5 13
ENDBRANCH 3 5
BRANCH 1 41
ATOM     41  CA  LEU D   3     -11.061   8.965  -7.948  1.00 16.32 LIG 0.18  C 
BRANCH 41 42
ATOM     42  N   LEU D   3     -11.162   8.259  -6.676  1.00 16.05 LIG-0.35  N 
ATOM     43  C   VAL D   2     -11.633   8.864  -5.587  1.00 15.61 LIG 0.24  C 
ATOM     44 O    VAL D   2     -11.922  10.062  -5.562  1.00 16.79 LIG-0.27  OA
ATOM     45 H    LEU D   3     -10.896   7.442  -6.697  1.00 16.05 LIG 0.16  HD
BRANCH 43 46
ATOM     46  CA  VAL D   2     -11.633   8.047  -4.305  1.00 14.78 LIG 0.18  C 
BRANCH 46 47
ATOM     47  N   VAL D   2     -10.550   8.541  -3.466  1.00 14.77 LIG-0.35  N 
ATOM     48  C   ARG D   1      -9.696   7.712  -2.882  1.00 16.50 LIG 0.25  C 
ATOM     49 O    ARG D   1      -9.727   6.488  -3.038  1.00 16.49 LIG-0.27  OA
ATOM     50 H    VAL D   2     -10.519   9.398  -3.390  1.00 14.77 LIG 0.16  HD
BRANCH 48 51
ATOM     51  CA  ARG D   1      -8.582   8.358  -2.095  1.00 17.64 LIG 0.27  C 
BRANCH 51 52
ATOM     52  N   ARG D   1      -8.215   7.465  -0.966  1.00 17.90 LIG-0.07  N 
ATOM     53 H3   ARG D   1      -8.215   7.930  -0.207  1.00 17.90 LIG 0.28  HD
ATOM     54 H2   ARG D   1      -7.403   7.126  -1.106  1.00 17.90 LIG 0.28  HD
ATOM     55 H1   ARG D   1      -8.806   6.802  -0.907  1.00 17.90 LIG 0.28  HD
ENDBRANCH 51 52
BRANCH 51 56
ATOM     56  CB  ARG D   1      -7.398   8.574  -3.048  1.00 19.06 LIG 0.04  C 
BRANCH 56 57
ATOM     57  CG  ARG D   1      -7.716   9.212  -4.372  1.00 22.89 LIG 0.02  C 
BRANCH 57 58
ATOM     58  CD  ARG D   1      -6.744   8.685  -5.420  1.00 26.83 LIG 0.14  C 
BRANCH 58 59
ATOM     59  NE  ARG D   1      -7.314   7.593  -6.199  1.00 30.01 LIG-0.23  N 
ATOM     60  CZ  ARG D   1      -7.259   6.317  -5.831  1.00 33.71 LIG 0.67  C 
ATOM     61  NH1 ARG D   1      -6.652   5.983  -4.700  1.00 32.13 LIG-0.23  N 
ATOM     62  NH2 ARG D   1      -7.808   5.375  -6.591  1.00 33.53 LIG-0.23  N 
ATOM     63 1HH1 ARG D   1      -6.297   6.591  -4.208  1.00 32.13 LIG 0.17  HD
ATOM     64 2HH1 ARG D   1      -6.615   5.158  -4.459  1.00 32.13 LIG 0.17  HD
ATOM     65 1HH2 ARG D   1      -8.202   5.589  -7.325  1.00 33.53 LIG 0.17  HD
ATOM     66 2HH2 ARG D   1      -7.770   4.550  -6.349  1.00 33.53 LIG 0.17  HD
ATOM     67 HE   ARG D   1      -7.708   7.786  -6.938  1.00 30.01 LIG 0.18  HD
ENDBRANCH 58 59
ENDBRANCH 57 58
ENDBRANCH 56 57
ENDBRANCH 51 56
ENDBRANCH 48 51
ENDBRANCH 46 47
BRANCH 46 68
ATOM     68  CB  VAL D   2     -12.984   8.202  -3.573  1.00 15.28 LIG 0.01  C 
ATOM     69  CG2 VAL D   2     -12.764   8.222  -2.074  1.00 14.68 LIG 0.01  C 
ATOM     70  CG1 VAL D   2     -13.976   7.112  -3.982  1.00 13.75 LIG 0.01  C 
ENDBRANCH 46 68
ENDBRANCH 43 46
ENDBRANCH 41 42
BRANCH 41 71
ATOM     71  CB  LEU D   3      -9.677   8.771  -8.575  1.00 15.85 LIG 0.04  C 
BRANCH 71 72
ATOM     72  CG  LEU D   3      -9.637   8.133  -9.967  1.00 19.10 LIG-0.02  C 
ATOM     73  CD2 LEU D   3      -8.972   6.766  -9.944  1.00 16.59 LIG 0.01  C 
ATOM     74  CD1 LEU D   3      -8.917   9.078 -10.928  1.00 21.08 LIG 0.01  C 
ENDBRANCH 71 72
ENDBRANCH 41 71
ENDBRANCH 1 41
TORSDOF 29
ENDMDL
MODEL 35
USER: ADFR SOLUTION from run 45
USER: SCORE 24.234194 LL:  -5.831 LR: -20.609 RR:   0.000 FEB: -11.959
USER: RMSD 13.420042
USER: SEED 44
USER: STATUS searching
USER: GENES 31
USER: genes 0 Translation |==|  0.62029 0.51750 0.46070
USER: genes 1 Rotation |==|  0.87967 0.69678 0.24411 0.54061
USER: genes 2 Torsion [C]-N--CA-[CB] |==|  0.54019
USER: genes 3 Torsion [N]-CA--CB-[CG] |==|  0.96403
USER: genes 4 Torsion [CA]-CB--CG-[CD1] |==|  0.79225
USER: genes 5 Torsion [N]-CA--C-[N] |==|  0.34843
USER: genes 6 Torsion [C]-N--CA-[C] |==|  0.70969
USER: genes 7 Torsion [N]-CA--CB-[CG] |==|  0.88939
USER: genes 8 Torsion [CA]-CB--CG-[CD] |==|  0.25465
USER: genes 9 Torsion [CB]-CG--CD-[OE1] |==|  0.82437
USER: genes 10 Torsion [N]-CA--C-[N] |==|  0.91693
USER: genes 11 Torsion [C]-N--CA-[CB] |==|  0.82428
USER: genes 12 Torsion [N]-CA--C-[N] |==|  0.11572
USER: genes 13 Torsion [C]-N--CA-[CB] |==|  0.82235
USER: genes 14 Torsion [N]-CA--C-[OXT] |==|  0.28845
USER: genes 15 Torsion [N]-CA--CB-[CG] |==|  0.58150
USER: genes 16 Torsion [CA]-CB--CG-[SD] |==|  0.35730
USER: genes 17 Torsion [CB]-CG--SD-[CE] |==|  0.27518
USER: genes 18 Torsion [N]-C--CA-[N] |==|  0.08079
USER: genes 19 Torsion [C]-CA--N-[C] |==|  0.57819
USER: genes 20 Torsion [N]-C--CA-[N] |==|  0.31265
USER: genes 21 Torsion [C]-CA--N-[C] |==|  0.73503
USER: genes 22 Torsion [N]-C--CA-[N] |==|  0.00276
USER: genes 23 Torsion [C]-CA--N-[H1] |==|  0.13210
USER: genes 24 Torsion [C]-CA--CB-[CG] |==|  0.91218
USER: genes 25 Torsion [CA]-CB--CG-[CD] |==|  0.34609
USER: genes 26 Torsion [CB]-CG--CD-[NE] |==|  0.12773
USER: genes 27 Torsion [CG]-CD--NE-[CZ] |==|  0.36057
USER: genes 28 Torsion [C]-CA--CB-[CG2] |==|  0.39985
USER: genes 29 Torsion [C]-CA--CB-[CG] |==|  0.71088
USER: genes 30 Torsion [CA]-CB--CG-[CD2] |==|  0.59831
ROOT
ATOM      1  C   LEU D   3     -11.505   8.831  -6.570  1.00 15.92 LIG 0.24  C 
ATOM      2 O    LEU D   3     -12.712   8.961  -6.764  1.00 19.39 LIG-0.27  OA
ATOM      3  N   PHE D   4     -10.597   9.387  -7.362  1.00 13.65 LIG-0.35  N 
ATOM      4 H    PHE D   4      -9.775   9.517  -7.143  1.00 13.65 LIG 0.16  HD
ENDROOT
BRANCH 3 5
ATOM      5  CA  PHE D   4     -10.949   9.823  -8.692  1.00 13.25 LIG 0.18  C 
BRANCH 5 6
ATOM      6  CB  PHE D   4      -9.662  10.080  -9.492  1.00 13.20 LIG 0.07  C 
BRANCH 6 7
ATOM      7  CG  PHE D   4      -8.434  10.123  -8.656  1.00 13.63 LIG-0.06  A 
ATOM      8  CD1 PHE D   4      -8.161  11.228  -7.858  1.00 13.10 LIG 0.01  A 
ATOM      9  CE1 PHE D   4      -7.027  11.255  -7.058  1.00 15.10 LIG 0.00  A 
ATOM     10  CZ  PHE D   4      -6.163  10.161  -7.038  1.00 15.27 LIG 0.00  A 
ATOM     11  CE2 PHE D   4      -6.452   9.043  -7.815  1.00 13.31 LIG 0.00  A 
ATOM     12  CD2 PHE D   4      -7.570   9.041  -8.625  1.00 12.44 LIG 0.01  A 
ENDBRANCH 6 7
ENDBRANCH 5 6
BRANCH 5 13
ATOM     13  C   PHE D   4     -11.789   8.718  -9.330  1.00 14.19 LIG 0.24  C 
ATOM     14 O    PHE D   4     -11.415   7.549  -9.288  1.00 15.09 LIG-0.27  OA
ATOM     15  N   GLU D   5     -12.978   9.056  -9.810  1.00 15.42 LIG-0.35  N 
ATOM     16 H    GLU D   5     -13.330   9.837  -9.731  1.00 15.42 LIG 0.16  HD
BRANCH 15 17
ATOM     17  CA  GLU D   5     -13.790   8.088 -10.527  1.00 15.66 LIG 0.18  C 
BRANCH 17 18
ATOM     18  CB  GLU D   5     -15.239   8.107 -10.018  1.00 15.74 LIG 0.04  C 
BRANCH 18 19
ATOM     19  CG  GLU D   5     -15.383   8.260  -8.519  1.00 13.49 LIG 0.12  C 
BRANCH 19 20
ATOM     20  CD  GLU D   5     -15.512   9.712  -8.093  1.00 17.86 LIG 0.17  C 
ATOM     21 OE1  GLU D   5     -14.549  10.479  -8.314  1.00 19.55 LIG-0.65  OA
ATOM     22 OE2  GLU D   5     -16.595  10.108  -7.596  1.00 19.96 LIG-0.65  OA
ENDBRANCH 19 20
ENDBRANCH 18 19
ENDBRANCH 17 18
BRANCH 17 23
ATOM     23  C   GLU D   5     -13.724   8.401 -12.011  1.00 17.50 LIG 0.24  C 
ATOM     24 O    GLU D   5     -13.864   7.507 -12.847  1.00 17.10 LIG-0.27  OA
ATOM     25  N   ALA D   6     -13.546   9.677 -12.335  1.00 19.03 LIG-0.35  N 
ATOM     26 H    ALA D   6     -13.453  10.311 -11.761  1.00 19.03 LIG 0.16  HD
BRANCH 25 27
ATOM     27  CA  ALA D   6     -13.495  10.107 -13.724  1.00 21.37 LIG 0.17  C 
ATOM     28  CB  ALA D   6     -12.308   9.481 -14.423  1.00 21.30 LIG 0.04  C 
BRANCH 27 29
ATOM     29  C   ALA D   6     -14.787   9.714 -14.421  1.00 24.24 LIG 0.24  C 
ATOM     30 O    ALA D   6     -14.775   9.245 -15.559  1.00 22.56 LIG-0.27  OA
ATOM     31  N   MET D   7     -15.902   9.902 -13.724  1.00 27.55 LIG-0.34  N 
ATOM     32 H    MET D   7     -15.933  10.309 -12.968  1.00 27.55 LIG 0.16  HD
BRANCH 31 33
ATOM     33  CA  MET D   7     -17.192   9.418 -14.202  1.00 30.72 LIG 0.19  C 
BRANCH 33 34
ATOM     34  C   MET D   7     -17.124   7.911 -14.398  1.00 33.25 LIG 0.20  C 
ATOM     35 O    MET D   7     -16.619   7.443 -15.427  1.00 35.29 LIG-0.65  OA
ATOM     36 OXT  MET D   7     -17.645   7.136 -13.583  1.00 35.43 LIG-0.65  OA
ENDBRANCH 33 34
BRANCH 33 37
ATOM     37  CB  MET D   7     -17.570  10.133 -15.503  1.00 30.73 LIG 0.05  C 
BRANCH 37 38
ATOM     38  CG  MET D   7     -19.056  10.295 -15.756  1.00 32.79 LIG 0.08  C 
BRANCH 38 39
ATOM     39 SD   MET D   7     -19.481  11.996 -16.141  1.00 33.89 LIG-0.17  SA
ATOM     40  CE  MET D   7     -19.581  11.954 -17.929  1.00 31.39 LIG 0.09  C 
ENDBRANCH 38 39
ENDBRANCH 37 38
ENDBRANCH 33 37
ENDBRANCH 31 33
ENDBRANCH 27 29
ENDBRANCH 25 27
ENDBRANCH 17 23
ENDBRANCH 15 17
ENDBRANCH 5 13
ENDBRANCH 3 5
BRANCH 1 41
ATOM     41  CA  LEU D   3     -10.975   7.971  -5.425  1.00 16.32 LIG 0.18  C 
BRANCH 41 42
ATOM     42  N   LEU D   3      -9.662   8.396  -4.957  1.00 16.05 LIG-0.35  N 
ATOM     43  C   VAL D   2      -8.811   7.531  -4.409  1.00 15.61 LIG 0.24  C 
ATOM     44 O    VAL D   2      -9.108   6.356  -4.183  1.00 16.79 LIG-0.27  OA
ATOM     45 H    LEU D   3      -9.496   9.233  -5.065  1.00 16.05 LIG 0.16  HD
BRANCH 43 46
ATOM     46  CA  VAL D   2      -7.496   8.102  -3.901  1.00 14.78 LIG 0.18  C 
BRANCH 46 47
ATOM     47  N   VAL D   2      -7.496   7.985  -2.450  1.00 14.77 LIG-0.35  N 
ATOM     48  C   ARG D   1      -7.874   8.994  -1.676  1.00 16.50 LIG 0.25  C 
ATOM     49 O    ARG D   1      -8.289  10.069  -2.120  1.00 16.49 LIG-0.27  OA
ATOM     50 H    VAL D   2      -7.235   7.221  -2.152  1.00 14.77 LIG 0.16  HD
BRANCH 48 51
ATOM     51  CA  ARG D   1      -7.890   8.719  -0.193  1.00 17.64 LIG 0.27  C 
BRANCH 51 52
ATOM     52  N   ARG D   1      -7.433   7.325   0.040  1.00 17.90 LIG-0.07  N 
ATOM     53 H3   ARG D   1      -8.068   6.757  -0.218  1.00 17.90 LIG 0.28  HD
ATOM     54 H2   ARG D   1      -7.266   7.207   0.907  1.00 17.90 LIG 0.28  HD
ATOM     55 H1   ARG D   1      -6.692   7.173  -0.428  1.00 17.90 LIG 0.28  HD
ENDBRANCH 51 52
BRANCH 51 56
ATOM     56  CB  ARG D   1      -6.958   9.736   0.483  1.00 19.06 LIG 0.04  C 
BRANCH 56 57
ATOM     57  CG  ARG D   1      -5.776  10.195  -0.323  1.00 22.89 LIG 0.02  C 
BRANCH 57 58
ATOM     58  CD  ARG D   1      -5.800  11.715  -0.414  1.00 26.83 LIG 0.14  C 
BRANCH 58 59
ATOM     59  NE  ARG D   1      -6.063  12.338   0.878  1.00 30.01 LIG-0.23  N 
ATOM     60  CZ  ARG D   1      -5.323  13.316   1.390  1.00 33.71 LIG 0.67  C 
ATOM     61  NH1 ARG D   1      -4.274  13.770   0.717  1.00 32.13 LIG-0.23  N 
ATOM     62  NH2 ARG D   1      -5.628  13.840   2.573  1.00 33.53 LIG-0.23  N 
ATOM     63 1HH1 ARG D   1      -4.076  13.432  -0.048  1.00 32.13 LIG 0.17  HD
ATOM     64 2HH1 ARG D   1      -3.793  14.402   1.046  1.00 32.13 LIG 0.17  HD
ATOM     65 1HH2 ARG D   1      -6.308  13.547   3.011  1.00 33.53 LIG 0.17  HD
ATOM     66 2HH2 ARG D   1      -5.147  14.473   2.901  1.00 33.53 LIG 0.17  HD
ATOM     67 HE   ARG D   1      -6.736  12.057   1.333  1.00 30.01 LIG 0.18  HD
ENDBRANCH 58 59
ENDBRANCH 57 58
ENDBRANCH 56 57
ENDBRANCH 51 56
ENDBRANCH 48 51
ENDBRANCH 46 47
BRANCH 46 68
ATOM     68  CB  VAL D   2      -6.308   7.317  -4.497  1.00 15.28 LIG 0.01  C 
ATOM     69  CG2 VAL D   2      -5.151   8.257  -4.775  1.00 14.68 LIG 0.01  C 
ATOM     70  CG1 VAL D   2      -6.716   6.540  -5.749  1.00 13.75 LIG 0.01  C 
ENDBRANCH 46 68
ENDBRANCH 43 46
ENDBRANCH 41 42
BRANCH 41 71
ATOM     71  CB  LEU D   3     -11.982   7.929  -4.271  1.00 15.85 LIG 0.04  C 
BRANCH 71 72
ATOM     72  CG  LEU D   3     -11.655   8.783  -3.042  1.00 19.10 LIG-0.02  C 
ATOM     73  CD2 LEU D   3     -12.100   8.111  -1.752  1.00 16.59 LIG 0.01  C 
ATOM     74  CD1 LEU D   3     -12.308  10.155  -3.200  1.00 21.08 LIG 0.01  C 
ENDBRANCH 71 72
ENDBRANCH 41 71
ENDBRANCH 1 41
TORSDOF 29
ENDMDL
MODEL 36
USER: ADFR SOLUTION from run 10
USER: SCORE 22.044245 LL:  -6.282 LR: -20.588 RR:   0.000 FEB: -11.938
USER: RMSD 13.385102
USER: SEED 950173
USER: STATUS 1 or 2 clusters left
USER: GENES 31
USER: genes 0 Translation |==|  0.60328 0.52100 0.44727
USER: genes 1 Rotation |==|  0.66050 0.27941 0.09257 0.59787
USER: genes 2 Torsion [C]-N--CA-[CB] |==|  0.88746
USER: genes 3 Torsion [N]-CA--CB-[CG] |==|  0.45824
USER: genes 4 Torsion [CA]-CB--CG-[CD1] |==|  0.65309
USER: genes 5 Torsion [N]-CA--C-[N] |==|  0.75624
USER: genes 6 Torsion [C]-N--CA-[C] |==|  0.20262
USER: genes 7 Torsion [N]-CA--CB-[CG] |==|  0.44458
USER: genes 8 Torsion [CA]-CB--CG-[CD] |==|  0.38278
USER: genes 9 Torsion [CB]-CG--CD-[OE1] |==|  0.18817
USER: genes 10 Torsion [N]-CA--C-[N] |==|  0.25303
USER: genes 11 Torsion [C]-N--CA-[CB] |==|  0.50985
USER: genes 12 Torsion [N]-CA--C-[N] |==|  0.84539
USER: genes 13 Torsion [C]-N--CA-[CB] |==|  0.40272
USER: genes 14 Torsion [N]-CA--C-[OXT] |==|  0.19917
USER: genes 15 Torsion [N]-CA--CB-[CG] |==|  0.74409
USER: genes 16 Torsion [CA]-CB--CG-[SD] |==|  0.27127
USER: genes 17 Torsion [CB]-CG--SD-[CE] |==|  0.71244
USER: genes 18 Torsion [N]-C--CA-[N] |==|  0.78889
USER: genes 19 Torsion [C]-CA--N-[C] |==|  0.17538
USER: genes 20 Torsion [N]-C--CA-[N] |==|  0.86690
USER: genes 21 Torsion [C]-CA--N-[C] |==|  0.82203
USER: genes 22 Torsion [N]-C--CA-[N] |==|  0.34143
USER: genes 23 Torsion [C]-CA--N-[H1] |==|  0.46437
USER: genes 24 Torsion [C]-CA--CB-[CG] |==|  0.09178
USER: genes 25 Torsion [CA]-CB--CG-[CD] |==|  0.48726
USER: genes 26 Torsion [CB]-CG--CD-[NE] |==|  0.61489
USER: genes 27 Torsion [CG]-CD--NE-[CZ] |==|  0.32531
USER: genes 28 Torsion [C]-CA--CB-[CG2] |==|  0.19331
USER: genes 29 Torsion [C]-CA--CB-[CG] |==|  0.18446
USER: genes 30 Torsion [CA]-CB--CG-[CD2] |==|  0.07437
ROOT
ATOM      1  C   LEU D   3     -11.990   8.876  -6.953  1.00 15.92 LIG 0.24  C 
ATOM      2 O    LEU D   3     -12.655   9.839  -7.329  1.00 19.39 LIG-0.27  OA
ATOM      3  N   PHE D   4     -12.365   7.624  -7.180  1.00 13.65 LIG-0.35  N 
ATOM      4 H    PHE D   4     -11.839   6.945  -7.147  1.00 13.65 LIG 0.16  HD
ENDROOT
BRANCH 3 5
ATOM      5  CA  PHE D   4     -13.736   7.315  -7.510  1.00 13.25 LIG 0.18  C 
BRANCH 5 6
ATOM      6  CB  PHE D   4     -14.667   8.172  -6.638  1.00 13.20 LIG 0.07  C 
BRANCH 6 7
ATOM      7  CG  PHE D   4     -16.073   8.210  -7.118  1.00 13.63 LIG-0.06  A 
ATOM      8  CD1 PHE D   4     -16.700   9.425  -7.373  1.00 13.10 LIG 0.01  A 
ATOM      9  CE1 PHE D   4     -18.004   9.457  -7.845  1.00 15.10 LIG 0.00  A 
ATOM     10  CZ  PHE D   4     -18.687   8.266  -8.084  1.00 15.27 LIG 0.00  A 
ATOM     11  CE2 PHE D   4     -18.050   7.051  -7.857  1.00 13.31 LIG 0.00  A 
ATOM     12  CD2 PHE D   4     -16.762   7.034  -7.362  1.00 12.44 LIG 0.01  A 
ENDBRANCH 6 7
ENDBRANCH 5 6
BRANCH 5 13
ATOM     13  C   PHE D   4     -13.930   7.619  -8.995  1.00 14.19 LIG 0.24  C 
ATOM     14 O    PHE D   4     -13.877   6.718  -9.826  1.00 15.09 LIG-0.27  OA
ATOM     15  N   GLU D   5     -14.275   8.857  -9.324  1.00 15.42 LIG-0.35  N 
ATOM     16 H    GLU D   5     -14.457   9.478  -8.757  1.00 15.42 LIG 0.16  HD
BRANCH 15 17
ATOM     17  CA  GLU D   5     -14.373   9.252 -10.718  1.00 15.66 LIG 0.18  C 
BRANCH 17 18
ATOM     18  CB  GLU D   5     -13.112   8.839 -11.493  1.00 15.74 LIG 0.04  C 
BRANCH 18 19
ATOM     19  CG  GLU D   5     -13.286   8.765 -12.995  1.00 13.49 LIG 0.12  C 
BRANCH 19 20
ATOM     20  CD  GLU D   5     -12.106   9.357 -13.746  1.00 17.86 LIG 0.17  C 
ATOM     21 OE1  GLU D   5     -11.008   8.761 -13.682  1.00 19.55 LIG-0.65  OA
ATOM     22 OE2  GLU D   5     -12.285  10.378 -14.454  1.00 19.96 LIG-0.65  OA
ENDBRANCH 19 20
ENDBRANCH 18 19
ENDBRANCH 17 18
BRANCH 17 23
ATOM     23  C   GLU D   5     -15.618   8.622 -11.317  1.00 17.50 LIG 0.24  C 
ATOM     24 O    GLU D   5     -15.577   7.489 -11.799  1.00 17.10 LIG-0.27  OA
ATOM     25  N   ALA D   6     -16.730   9.345 -11.253  1.00 19.03 LIG-0.35  N 
ATOM     26 H    ALA D   6     -16.774  10.133 -10.913  1.00 19.03 LIG 0.16  HD
BRANCH 25 27
ATOM     27  CA  ALA D   6     -17.994   8.837 -11.767  1.00 21.37 LIG 0.17  C 
ATOM     28  CB  ALA D   6     -19.071   9.892 -11.645  1.00 21.30 LIG 0.04  C 
BRANCH 27 29
ATOM     29  C   ALA D   6     -17.818   8.425 -13.219  1.00 24.24 LIG 0.24  C 
ATOM     30 O    ALA D   6     -18.106   7.288 -13.593  1.00 22.56 LIG-0.27  OA
ATOM     31  N   MET D   7     -17.351   9.361 -14.036  1.00 27.55 LIG-0.34  N 
ATOM     32 H    MET D   7     -17.062  10.128 -13.774  1.00 27.55 LIG 0.16  HD
BRANCH 31 33
ATOM     33  CA  MET D   7     -17.290   9.157 -15.478  1.00 30.72 LIG 0.19  C 
BRANCH 33 34
ATOM     34  C   MET D   7     -15.925   8.600 -15.852  1.00 33.25 LIG 0.20  C 
ATOM     35 O    MET D   7     -15.141   9.283 -16.523  1.00 35.29 LIG-0.65  OA
ATOM     36 OXT  MET D   7     -15.610   7.434 -15.570  1.00 35.43 LIG-0.65  OA
ENDBRANCH 33 34
BRANCH 33 37
ATOM     37  CB  MET D   7     -17.573  10.475 -16.207  1.00 30.73 LIG 0.05  C 
BRANCH 37 38
ATOM     38  CG  MET D   7     -19.021  10.724 -16.578  1.00 32.79 LIG 0.08  C 
BRANCH 38 39
ATOM     39 SD   MET D   7     -19.841  11.778 -15.379  1.00 33.89 LIG-0.17  SA
ATOM     40  CE  MET D   7     -20.822  10.593 -14.459  1.00 31.39 LIG 0.09  C 
ENDBRANCH 38 39
ENDBRANCH 37 38
ENDBRANCH 33 37
ENDBRANCH 31 33
ENDBRANCH 27 29
ENDBRANCH 25 27
ENDBRANCH 17 23
ENDBRANCH 15 17
ENDBRANCH 5 13
ENDBRANCH 3 5
BRANCH 1 41
ATOM     41  CA  LEU D   3     -10.705   9.067  -6.149  1.00 16.32 LIG 0.18  C 
BRANCH 41 42
ATOM     42  N   LEU D   3     -10.888   8.823  -4.723  1.00 16.05 LIG-0.35  N 
ATOM     43  C   VAL D   2     -11.239   7.621  -4.269  1.00 15.61 LIG 0.24  C 
ATOM     44 O    VAL D   2     -11.517   6.681  -5.015  1.00 16.79 LIG-0.27  OA
ATOM     45 H    LEU D   3     -10.752   9.508  -4.221  1.00 16.05 LIG 0.16  HD
BRANCH 43 46
ATOM     46  CA  VAL D   2     -11.461   7.503  -2.769  1.00 14.78 LIG 0.18  C 
BRANCH 46 47
ATOM     47  N   VAL D   2     -10.327   8.127  -2.104  1.00 14.77 LIG-0.35  N 
ATOM     48  C   ARG D   1      -9.100   7.639  -2.227  1.00 16.50 LIG 0.25  C 
ATOM     49 O    ARG D   1      -8.827   6.666  -2.936  1.00 16.49 LIG-0.27  OA
ATOM     50 H    VAL D   2     -10.524   8.823  -1.638  1.00 14.77 LIG 0.16  HD
BRANCH 48 51
ATOM     51  CA  ARG D   1      -8.006   8.419  -1.541  1.00 17.64 LIG 0.27  C 
BRANCH 51 52
ATOM     52  N   ARG D   1      -7.300   7.520  -0.593  1.00 17.90 LIG-0.07  N 
ATOM     53 H3   ARG D   1      -7.110   6.751  -0.999  1.00 17.90 LIG 0.28  HD
ATOM     54 H2   ARG D   1      -7.821   7.362   0.112  1.00 17.90 LIG 0.28  HD
ATOM     55 H1   ARG D   1      -6.545   7.906  -0.322  1.00 17.90 LIG 0.28  HD
ENDBRANCH 51 52
BRANCH 51 56
ATOM     56  CB  ARG D   1      -7.057   8.950  -2.625  1.00 19.06 LIG 0.04  C 
BRANCH 56 57
ATOM     57  CG  ARG D   1      -7.684   9.304  -3.945  1.00 22.89 LIG 0.02  C 
BRANCH 57 58
ATOM     58  CD  ARG D   1      -6.621   9.914  -4.849  1.00 26.83 LIG 0.14  C 
BRANCH 58 59
ATOM     59  NE  ARG D   1      -7.126  11.058  -5.596  1.00 30.01 LIG-0.23  N 
ATOM     60  CZ  ARG D   1      -6.655  12.295  -5.463  1.00 33.71 LIG 0.67  C 
ATOM     61  NH1 ARG D   1      -5.673  12.535  -4.604  1.00 32.13 LIG-0.23  N 
ATOM     62  NH2 ARG D   1      -7.163  13.289  -6.184  1.00 33.53 LIG-0.23  N 
ATOM     63 1HH1 ARG D   1      -5.344  11.893  -4.137  1.00 32.13 LIG 0.17  HD
ATOM     64 2HH1 ARG D   1      -5.366  13.334  -4.515  1.00 32.13 LIG 0.17  HD
ATOM     65 1HH2 ARG D   1      -7.799  13.134  -6.741  1.00 33.53 LIG 0.17  HD
ATOM     66 2HH2 ARG D   1      -6.854  14.086  -6.095  1.00 33.53 LIG 0.17  HD
ATOM     67 HE   ARG D   1      -7.765  10.926  -6.155  1.00 30.01 LIG 0.18  HD
ENDBRANCH 58 59
ENDBRANCH 57 58
ENDBRANCH 56 57
ENDBRANCH 51 56
ENDBRANCH 48 51
ENDBRANCH 46 47
BRANCH 46 68
ATOM     68  CB  VAL D   2     -12.771   8.214  -2.366  1.00 15.28 LIG 0.01  C 
ATOM     69  CG2 VAL D   2     -13.965   7.444  -2.894  1.00 14.68 LIG 0.01  C 
ATOM     70  CG1 VAL D   2     -12.789   9.671  -2.832  1.00 13.75 LIG 0.01  C 
ENDBRANCH 46 68
ENDBRANCH 43 46
ENDBRANCH 41 42
BRANCH 41 71
ATOM     71  CB  LEU D   3      -9.580   8.196  -6.715  1.00 15.85 LIG 0.04  C 
BRANCH 71 72
ATOM     72  CG  LEU D   3      -9.077   8.550  -8.118  1.00 19.10 LIG-0.02  C 
ATOM     73  CD2 LEU D   3      -9.288  10.022  -8.440  1.00 16.59 LIG 0.01  C 
ATOM     74  CD1 LEU D   3      -9.779   7.659  -9.141  1.00 21.08 LIG 0.01  C 
ENDBRANCH 71 72
ENDBRANCH 41 71
ENDBRANCH 1 41
TORSDOF 29
ENDMDL
MODEL 37
USER: ADFR SOLUTION from run 152
USER: SCORE 25.032305 LL:  -6.423 LR: -20.562 RR:   0.000 FEB: -11.911
USER: RMSD 4.769167
USER: SEED 151
USER: STATUS 1 or 2 clusters left
USER: GENES 31
USER: genes 0 Translation |==|  0.48904 0.53585 0.39814
USER: genes 1 Rotation |==|  0.19970 0.48616 0.38235 0.88182
USER: genes 2 Torsion [C]-N--CA-[CB] |==|  0.26816
USER: genes 3 Torsion [N]-CA--CB-[CG] |==|  0.69874
USER: genes 4 Torsion [CA]-CB--CG-[CD1] |==|  0.83206
USER: genes 5 Torsion [N]-CA--C-[N] |==|  0.35325
USER: genes 6 Torsion [C]-N--CA-[C] |==|  0.81177
USER: genes 7 Torsion [N]-CA--CB-[CG] |==|  0.13872
USER: genes 8 Torsion [CA]-CB--CG-[CD] |==|  0.27859
USER: genes 9 Torsion [CB]-CG--CD-[OE1] |==|  0.55880
USER: genes 10 Torsion [N]-CA--C-[N] |==|  0.87506
USER: genes 11 Torsion [C]-N--CA-[CB] |==|  0.18087
USER: genes 12 Torsion [N]-CA--C-[N] |==|  0.01236
USER: genes 13 Torsion [C]-N--CA-[CB] |==|  0.86877
USER: genes 14 Torsion [N]-CA--C-[OXT] |==|  0.43313
USER: genes 15 Torsion [N]-CA--CB-[CG] |==|  0.76883
USER: genes 16 Torsion [CA]-CB--CG-[SD] |==|  0.74697
USER: genes 17 Torsion [CB]-CG--SD-[CE] |==|  0.49638
USER: genes 18 Torsion [N]-C--CA-[N] |==|  0.96856
USER: genes 19 Torsion [C]-CA--N-[C] |==|  0.75127
USER: genes 20 Torsion [N]-C--CA-[N] |==|  0.31111
USER: genes 21 Torsion [C]-CA--N-[C] |==|  0.71562
USER: genes 22 Torsion [N]-C--CA-[N] |==|  0.48136
USER: genes 23 Torsion [C]-CA--N-[H1] |==|  0.50359
USER: genes 24 Torsion [C]-CA--CB-[CG] |==|  0.75090
USER: genes 25 Torsion [CA]-CB--CG-[CD] |==|  0.22442
USER: genes 26 Torsion [CB]-CG--CD-[NE] |==|  0.67458
USER: genes 27 Torsion [CG]-CD--NE-[CZ] |==|  0.38191
USER: genes 28 Torsion [C]-CA--CB-[CG2] |==|  0.53962
USER: genes 29 Torsion [C]-CA--CB-[CG] |==|  0.94375
USER: genes 30 Torsion [CA]-CB--CG-[CD2] |==|  0.64832
ROOT
ATOM      1  C   LEU D   3     -15.245   9.065  -8.353  1.00 15.92 LIG 0.24  C 
ATOM      2 O    LEU D   3     -15.344   9.733  -7.325  1.00 19.39 LIG-0.27  OA
ATOM      3  N   PHE D   4     -14.222   8.250  -8.572  1.00 13.65 LIG-0.35  N 
ATOM      4 H    PHE D   4     -14.225   7.609  -9.146  1.00 13.65 LIG 0.16  HD
ENDROOT
BRANCH 3 5
ATOM      5  CA  PHE D   4     -12.992   8.396  -7.831  1.00 13.25 LIG 0.18  C 
BRANCH 5 6
ATOM      6  CB  PHE D   4     -13.002   7.418  -6.646  1.00 13.20 LIG 0.07  C 
BRANCH 6 7
ATOM      7  CG  PHE D   4     -13.170   8.077  -5.324  1.00 13.63 LIG-0.06  A 
ATOM      8  CD1 PHE D   4     -12.241   9.009  -4.877  1.00 13.10 LIG 0.01  A 
ATOM      9  CE1 PHE D   4     -12.413   9.642  -3.654  1.00 15.10 LIG 0.00  A 
ATOM     10  CZ  PHE D   4     -13.532   9.358  -2.875  1.00 15.27 LIG 0.00  A 
ATOM     11  CE2 PHE D   4     -14.477   8.447  -3.336  1.00 13.31 LIG 0.00  A 
ATOM     12  CD2 PHE D   4     -14.280   7.805  -4.542  1.00 12.44 LIG 0.01  A 
ENDBRANCH 6 7
ENDBRANCH 5 6
BRANCH 5 13
ATOM     13  C   PHE D   4     -11.841   8.097  -8.790  1.00 14.19 LIG 0.24  C 
ATOM     14 O    PHE D   4     -11.878   7.109  -9.517  1.00 15.09 LIG-0.27  OA
ATOM     15  N   GLU D   5     -10.879   9.004  -8.887  1.00 15.42 LIG-0.35  N 
ATOM     16 H    GLU D   5     -10.890   9.770  -8.497  1.00 15.42 LIG 0.16  HD
BRANCH 15 17
ATOM     17  CA  GLU D   5      -9.698   8.746  -9.694  1.00 15.66 LIG 0.18  C 
BRANCH 17 18
ATOM     18  CB  GLU D   5      -8.859  10.023  -9.858  1.00 15.74 LIG 0.04  C 
BRANCH 18 19
ATOM     19  CG  GLU D   5      -8.558  10.754  -8.567  1.00 13.49 LIG 0.12  C 
BRANCH 19 20
ATOM     20  CD  GLU D   5      -7.159  10.469  -8.050  1.00 17.86 LIG 0.17  C 
ATOM     21 OE1  GLU D   5      -6.927  10.667  -6.837  1.00 19.55 LIG-0.65  OA
ATOM     22 OE2  GLU D   5      -6.306   9.986  -8.835  1.00 19.96 LIG-0.65  OA
ENDBRANCH 19 20
ENDBRANCH 18 19
ENDBRANCH 17 18
BRANCH 17 23
ATOM     23  C   GLU D   5      -8.892   7.640  -9.037  1.00 17.50 LIG 0.24  C 
ATOM     24 O    GLU D   5      -8.404   6.733  -9.714  1.00 17.10 LIG-0.27  OA
ATOM     25  N   ALA D   6      -8.724   7.736  -7.723  1.00 19.03 LIG-0.35  N 
ATOM     26 H    ALA D   6      -9.054   8.366  -7.240  1.00 19.03 LIG 0.16  HD
BRANCH 25 27
ATOM     27  CA  ALA D   6      -7.947   6.752  -6.984  1.00 21.37 LIG 0.17  C 
ATOM     28  CB  ALA D   6      -6.497   6.801  -7.412  1.00 21.30 LIG 0.04  C 
BRANCH 27 29
ATOM     29  C   ALA D   6      -8.070   7.029  -5.494  1.00 24.24 LIG 0.24  C 
ATOM     30 O    ALA D   6      -7.422   6.377  -4.674  1.00 22.56 LIG-0.27  OA
ATOM     31  N   MET D   7      -8.898   8.008  -5.152  1.00 27.55 LIG-0.34  N 
ATOM     32 H    MET D   7      -9.422   8.409  -5.704  1.00 27.55 LIG 0.16  HD
BRANCH 31 33
ATOM     33  CA  MET D   7      -8.987   8.489  -3.779  1.00 30.72 LIG 0.19  C 
BRANCH 33 34
ATOM     34  C   MET D   7      -7.771   9.348  -3.466  1.00 33.25 LIG 0.20  C 
ATOM     35 O    MET D   7      -6.698   9.135  -4.045  1.00 35.29 LIG-0.65  OA
ATOM     36 OXT  MET D   7      -7.808  10.207  -2.573  1.00 35.43 LIG-0.65  OA
ENDBRANCH 33 34
BRANCH 33 37
ATOM     37  CB  MET D   7      -9.096   7.303  -2.814  1.00 30.73 LIG 0.05  C 
BRANCH 37 38
ATOM     38  CG  MET D   7     -10.488   6.733  -2.627  1.00 32.79 LIG 0.08  C 
BRANCH 38 39
ATOM     39 SD   MET D   7     -11.346   7.516  -1.259  1.00 33.89 LIG-0.17  SA
ATOM     40  CE  MET D   7     -12.936   6.691  -1.302  1.00 31.39 LIG 0.09  C 
ENDBRANCH 38 39
ENDBRANCH 37 38
ENDBRANCH 33 37
ENDBRANCH 31 33
ENDBRANCH 27 29
ENDBRANCH 25 27
ENDBRANCH 17 23
ENDBRANCH 15 17
ENDBRANCH 5 13
ENDBRANCH 3 5
BRANCH 1 41
ATOM     41  CA  LEU D   3     -16.280   9.176  -9.471  1.00 16.32 LIG 0.18  C 
BRANCH 41 42
ATOM     42  N   LEU D   3     -15.838   8.560 -10.716  1.00 16.05 LIG-0.35  N 
ATOM     43  C   VAL D   2     -15.161   9.256 -11.627  1.00 15.61 LIG 0.24  C 
ATOM     44 O    VAL D   2     -14.950  10.465 -11.521  1.00 16.79 LIG-0.27  OA
ATOM     45 H    LEU D   3     -16.050   7.731 -10.801  1.00 16.05 LIG 0.16  HD
BRANCH 43 46
ATOM     46  CA  VAL D   2     -14.808   8.524 -12.913  1.00 14.78 LIG 0.18  C 
BRANCH 46 47
ATOM     47  N   VAL D   2     -15.578   9.128 -13.991  1.00 14.77 LIG-0.35  N 
ATOM     48  C   ARG D   1     -16.664   8.540 -14.476  1.00 16.50 LIG 0.25  C 
ATOM     49 O    ARG D   1     -17.118   7.483 -14.029  1.00 16.49 LIG-0.27  OA
ATOM     50 H    VAL D   2     -15.270   9.880 -14.273  1.00 14.77 LIG 0.16  HD
BRANCH 48 51
ATOM     51  CA  ARG D   1     -17.407   9.304 -15.545  1.00 17.64 LIG 0.27  C 
BRANCH 51 52
ATOM     52  N   ARG D   1     -18.487   8.440 -16.086  1.00 17.90 LIG-0.07  N 
ATOM     53 H3   ARG D   1     -19.057   8.233 -15.434  1.00 17.90 LIG 0.28  HD
ATOM     54 H2   ARG D   1     -18.133   7.693 -16.417  1.00 17.90 LIG 0.28  HD
ATOM     55 H1   ARG D   1     -18.920   8.874 -16.730  1.00 17.90 LIG 0.28  HD
ENDBRANCH 51 52
BRANCH 51 56
ATOM     56  CB  ARG D   1     -17.974  10.578 -14.903  1.00 19.06 LIG 0.04  C 
BRANCH 56 57
ATOM     57  CG  ARG D   1     -19.349  10.467 -14.304  1.00 22.89 LIG 0.02  C 
BRANCH 57 58
ATOM     58  CD  ARG D   1     -19.235   9.836 -12.923  1.00 26.83 LIG 0.14  C 
BRANCH 58 59
ATOM     59  NE  ARG D   1     -19.929   8.557 -12.844  1.00 30.01 LIG-0.23  N 
ATOM     60  CZ  ARG D   1     -19.434   7.483 -12.236  1.00 33.71 LIG 0.67  C 
ATOM     61  NH1 ARG D   1     -18.239   7.544 -11.664  1.00 32.13 LIG-0.23  N 
ATOM     62  NH2 ARG D   1     -20.129   6.351 -12.200  1.00 33.53 LIG-0.23  N 
ATOM     63 1HH1 ARG D   1     -17.788   8.276 -11.687  1.00 32.13 LIG 0.17  HD
ATOM     64 2HH1 ARG D   1     -17.915   6.852 -11.270  1.00 32.13 LIG 0.17  HD
ATOM     65 1HH2 ARG D   1     -20.904   6.310 -12.571  1.00 33.53 LIG 0.17  HD
ATOM     66 2HH2 ARG D   1     -19.805   5.660 -11.805  1.00 33.53 LIG 0.17  HD
ATOM     67 HE   ARG D   1     -20.704   8.494 -13.212  1.00 30.01 LIG 0.18  HD
ENDBRANCH 58 59
ENDBRANCH 57 58
ENDBRANCH 56 57
ENDBRANCH 51 56
ENDBRANCH 48 51
ENDBRANCH 46 47
BRANCH 46 68
ATOM     68  CB  VAL D   2     -13.297   8.655 -13.203  1.00 15.28 LIG 0.01  C 
ATOM     69  CG2 VAL D   2     -13.004   8.242 -14.631  1.00 14.68 LIG 0.01  C 
ATOM     70  CG1 VAL D   2     -12.459   7.858 -12.202  1.00 13.75 LIG 0.01  C 
ENDBRANCH 46 68
ENDBRANCH 43 46
ENDBRANCH 41 42
BRANCH 41 71
ATOM     71  CB  LEU D   3     -17.626   8.599  -9.020  1.00 15.85 LIG 0.04  C 
BRANCH 71 72
ATOM     72  CG  LEU D   3     -17.594   7.631  -7.832  1.00 19.10 LIG-0.02  C 
ATOM     73  CD2 LEU D   3     -18.283   6.315  -8.157  1.00 16.59 LIG 0.01  C 
ATOM     74  CD1 LEU D   3     -18.240   8.304  -6.622  1.00 21.08 LIG 0.01  C 
ENDBRANCH 71 72
ENDBRANCH 41 71
ENDBRANCH 1 41
TORSDOF 29
ENDMDL
MODEL 38
USER: ADFR SOLUTION from run 98
USER: SCORE 22.612276 LL:  -5.147 LR: -20.553 RR:   0.000 FEB: -11.902
USER: RMSD 4.872829
USER: SEED 97
USER: STATUS no improvement in best in 2 clusters for 5 generations
USER: GENES 31
USER: genes 0 Translation |==|  0.56434 0.55079 0.43156
USER: genes 1 Rotation |==|  0.13014 0.36752 0.28245 0.71983
USER: genes 2 Torsion [C]-N--CA-[CB] |==|  0.23176
USER: genes 3 Torsion [N]-CA--CB-[CG] |==|  0.29461
USER: genes 4 Torsion [CA]-CB--CG-[CD1] |==|  0.25500
USER: genes 5 Torsion [N]-CA--C-[N] |==|  0.45013
USER: genes 6 Torsion [C]-N--CA-[C] |==|  0.53889
USER: genes 7 Torsion [N]-CA--CB-[CG] |==|  0.30048
USER: genes 8 Torsion [CA]-CB--CG-[CD] |==|  0.52974
USER: genes 9 Torsion [CB]-CG--CD-[OE1] |==|  0.37619
USER: genes 10 Torsion [N]-CA--C-[N] |==|  0.43141
USER: genes 11 Torsion [C]-N--CA-[CB] |==|  0.86292
USER: genes 12 Torsion [N]-CA--C-[N] |==|  0.44418
USER: genes 13 Torsion [C]-N--CA-[CB] |==|  0.19150
USER: genes 14 Torsion [N]-CA--C-[OXT] |==|  0.49410
USER: genes 15 Torsion [N]-CA--CB-[CG] |==|  0.23746
USER: genes 16 Torsion [CA]-CB--CG-[SD] |==|  0.29497
USER: genes 17 Torsion [CB]-CG--SD-[CE] |==|  0.02973
USER: genes 18 Torsion [N]-C--CA-[N] |==|  0.28280
USER: genes 19 Torsion [C]-CA--N-[C] |==|  0.14126
USER: genes 20 Torsion [N]-C--CA-[N] |==|  0.83893
USER: genes 21 Torsion [C]-CA--N-[C] |==|  0.76562
USER: genes 22 Torsion [N]-C--CA-[N] |==|  0.14847
USER: genes 23 Torsion [C]-CA--N-[H1] |==|  0.03996
USER: genes 24 Torsion [C]-CA--CB-[CG] |==|  0.84379
USER: genes 25 Torsion [CA]-CB--CG-[CD] |==|  0.54406
USER: genes 26 Torsion [CB]-CG--CD-[NE] |==|  0.91365
USER: genes 27 Torsion [CG]-CD--NE-[CZ] |==|  0.28289
USER: genes 28 Torsion [C]-CA--CB-[CG2] |==|  0.07618
USER: genes 29 Torsion [C]-CA--CB-[CG] |==|  0.53046
USER: genes 30 Torsion [CA]-CB--CG-[CD2] |==|  0.27228
ROOT
ATOM      1  C   LEU D   3     -13.099   9.256  -7.401  1.00 15.92 LIG 0.24  C 
ATOM      2 O    LEU D   3     -13.386  10.439  -7.223  1.00 19.39 LIG-0.27  OA
ATOM      3  N   PHE D   4     -12.445   8.542  -6.494  1.00 13.65 LIG-0.35  N 
ATOM      4 H    PHE D   4     -12.429   7.682  -6.471  1.00 13.65 LIG 0.16  HD
ENDROOT
BRANCH 3 5
ATOM      5  CA  PHE D   4     -11.692   9.192  -5.448  1.00 13.25 LIG 0.18  C 
BRANCH 5 6
ATOM      6  CB  PHE D   4     -12.645   9.567  -4.302  1.00 13.20 LIG 0.07  C 
BRANCH 6 7
ATOM      7  CG  PHE D   4     -12.509   8.702  -3.101  1.00 13.63 LIG-0.06  A 
ATOM      8  CD1 PHE D   4     -11.646   9.056  -2.070  1.00 13.10 LIG 0.01  A 
ATOM      9  CE1 PHE D   4     -11.539   8.260  -0.938  1.00 15.10 LIG 0.00  A 
ATOM     10  CZ  PHE D   4     -12.314   7.108  -0.823  1.00 15.27 LIG 0.00  A 
ATOM     11  CE2 PHE D   4     -13.199   6.769  -1.841  1.00 13.31 LIG 0.00  A 
ATOM     12  CD2 PHE D   4     -13.276   7.556  -2.972  1.00 12.44 LIG 0.01  A 
ENDBRANCH 6 7
ENDBRANCH 5 6
BRANCH 5 13
ATOM     13  C   PHE D   4     -10.617   8.212  -4.980  1.00 14.19 LIG 0.24  C 
ATOM     14 O    PHE D   4     -10.654   7.036  -5.328  1.00 15.09 LIG-0.27  OA
ATOM     15  N   GLU D   5      -9.594   8.710  -4.299  1.00 15.42 LIG-0.35  N 
ATOM     16 H    GLU D   5      -9.465   9.548  -4.158  1.00 15.42 LIG 0.16  HD
BRANCH 15 17
ATOM     17  CA  GLU D   5      -8.588   7.832  -3.727  1.00 15.66 LIG 0.18  C 
BRANCH 17 18
ATOM     18  CB  GLU D   5      -7.706   7.222  -4.828  1.00 15.74 LIG 0.04  C 
BRANCH 18 19
ATOM     19  CG  GLU D   5      -6.295   7.766  -4.885  1.00 13.49 LIG 0.12  C 
BRANCH 19 20
ATOM     20  CD  GLU D   5      -5.553   7.329  -6.136  1.00 17.86 LIG 0.17  C 
ATOM     21 OE1  GLU D   5      -4.889   8.188  -6.757  1.00 19.55 LIG-0.65  OA
ATOM     22 OE2  GLU D   5      -5.577   6.118  -6.467  1.00 19.96 LIG-0.65  OA
ENDBRANCH 19 20
ENDBRANCH 18 19
ENDBRANCH 17 18
BRANCH 17 23
ATOM     23  C   GLU D   5      -7.757   8.625  -2.734  1.00 17.50 LIG 0.24  C 
ATOM     24 O    GLU D   5      -7.685   9.852  -2.816  1.00 17.10 LIG-0.27  OA
ATOM     25  N   ALA D   6      -7.161   7.924  -1.776  1.00 19.03 LIG-0.35  N 
ATOM     26 H    ALA D   6      -7.208   7.069  -1.704  1.00 19.03 LIG 0.16  HD
BRANCH 25 27
ATOM     27  CA  ALA D   6      -6.361   8.574  -0.748  1.00 21.37 LIG 0.17  C 
ATOM     28  CB  ALA D   6      -5.373   9.531  -1.379  1.00 21.30 LIG 0.04  C 
BRANCH 27 29
ATOM     29  C   ALA D   6      -7.278   9.315   0.211  1.00 24.24 LIG 0.24  C 
ATOM     30 O    ALA D   6      -8.427   9.614  -0.115  1.00 22.56 LIG-0.27  OA
ATOM     31  N   MET D   7      -6.764   9.600   1.401  1.00 27.55 LIG-0.34  N 
ATOM     32 H    MET D   7      -5.939   9.479   1.610  1.00 27.55 LIG 0.16  HD
BRANCH 31 33
ATOM     33  CA  MET D   7      -7.580  10.157   2.473  1.00 30.72 LIG 0.19  C 
BRANCH 33 34
ATOM     34  C   MET D   7      -6.677  10.638   3.598  1.00 33.25 LIG 0.20  C 
ATOM     35 O    MET D   7      -5.461  10.406   3.558  1.00 35.29 LIG-0.65  OA
ATOM     36 OXT  MET D   7      -7.146  11.188   4.605  1.00 35.43 LIG-0.65  OA
ENDBRANCH 33 34
BRANCH 33 37
ATOM     37  CB  MET D   7      -8.579   9.106   2.971  1.00 30.73 LIG 0.05  C 
BRANCH 37 38
ATOM     38  CG  MET D   7      -8.059   8.154   4.029  1.00 32.79 LIG 0.08  C 
BRANCH 38 39
ATOM     39 SD   MET D   7      -8.734   8.532   5.649  1.00 33.89 LIG-0.17  SA
ATOM     40  CE  MET D   7     -10.016   9.717   5.245  1.00 31.39 LIG 0.09  C 
ENDBRANCH 38 39
ENDBRANCH 37 38
ENDBRANCH 33 37
ENDBRANCH 31 33
ENDBRANCH 27 29
ENDBRANCH 25 27
ENDBRANCH 17 23
ENDBRANCH 15 17
ENDBRANCH 5 13
ENDBRANCH 3 5
BRANCH 1 41
ATOM     41  CA  LEU D   3     -13.437   8.548  -8.711  1.00 16.32 LIG 0.18  C 
BRANCH 41 42
ATOM     42  N   LEU D   3     -14.828   8.115  -8.778  1.00 16.05 LIG-0.35  N 
ATOM     43  C   VAL D   2     -15.826   8.957  -8.516  1.00 15.61 LIG 0.24  C 
ATOM     44 O    VAL D   2     -15.639  10.108  -8.117  1.00 16.79 LIG-0.27  OA
ATOM     45 H    LEU D   3     -14.937   7.290  -8.997  1.00 16.05 LIG 0.16  HD
BRANCH 43 46
ATOM     46  CA  VAL D   2     -17.231   8.376  -8.557  1.00 14.78 LIG 0.18  C 
BRANCH 46 47
ATOM     47  N   VAL D   2     -17.438   7.815  -9.884  1.00 14.77 LIG-0.35  N 
ATOM     48  C   ARG D   1     -17.833   8.571 -10.899  1.00 16.50 LIG 0.25  C 
ATOM     49 O    ARG D   1     -18.006   9.790 -10.808  1.00 16.49 LIG-0.27  OA
ATOM     50 H    VAL D   2     -17.283   6.970  -9.943  1.00 14.77 LIG 0.16  HD
BRANCH 48 51
ATOM     51  CA  ARG D   1     -17.945   7.878 -12.235  1.00 17.64 LIG 0.27  C 
BRANCH 51 52
ATOM     52  N   ARG D   1     -18.810   6.680 -12.080  1.00 17.90 LIG-0.07  N 
ATOM     53 H3   ARG D   1     -18.306   5.946 -12.091  1.00 17.90 LIG 0.28  HD
ATOM     54 H2   ARG D   1     -19.395   6.647 -12.750  1.00 17.90 LIG 0.28  HD
ATOM     55 H1   ARG D   1     -19.247   6.727 -11.307  1.00 17.90 LIG 0.28  HD
ENDBRANCH 51 52
BRANCH 51 56
ATOM     56  CB  ARG D   1     -18.544   8.878 -13.234  1.00 19.06 LIG 0.04  C 
BRANCH 56 57
ATOM     57  CG  ARG D   1     -19.869   9.481 -12.860  1.00 22.89 LIG 0.02  C 
BRANCH 57 58
ATOM     58  CD  ARG D   1     -20.489  10.117 -14.098  1.00 26.83 LIG 0.14  C 
BRANCH 58 59
ATOM     59  NE  ARG D   1     -19.479  10.623 -15.019  1.00 30.01 LIG-0.23  N 
ATOM     60  CZ  ARG D   1     -19.109   9.992 -16.129  1.00 33.71 LIG 0.67  C 
ATOM     61  NH1 ARG D   1     -19.666   8.830 -16.443  1.00 32.13 LIG-0.23  N 
ATOM     62  NH2 ARG D   1     -18.184  10.519 -16.925  1.00 33.53 LIG-0.23  N 
ATOM     63 1HH1 ARG D   1     -20.264   8.488 -15.929  1.00 32.13 LIG 0.17  HD
ATOM     64 2HH1 ARG D   1     -19.430   8.419 -17.160  1.00 32.13 LIG 0.17  HD
ATOM     65 1HH2 ARG D   1     -17.822  11.273 -16.724  1.00 33.53 LIG 0.17  HD
ATOM     66 2HH2 ARG D   1     -17.949  10.108 -17.643  1.00 33.53 LIG 0.17  HD
ATOM     67 HE   ARG D   1     -19.101  11.373 -14.834  1.00 30.01 LIG 0.18  HD
ENDBRANCH 58 59
ENDBRANCH 57 58
ENDBRANCH 56 57
ENDBRANCH 51 56
ENDBRANCH 48 51
ENDBRANCH 46 47
BRANCH 46 68
ATOM     68  CB  VAL D   2     -17.385   7.276  -7.485  1.00 15.28 LIG 0.01  C 
ATOM     69  CG2 VAL D   2     -16.437   7.538  -6.331  1.00 14.68 LIG 0.01  C 
ATOM     70  CG1 VAL D   2     -17.181   5.880  -8.075  1.00 13.75 LIG 0.01  C 
ENDBRANCH 46 68
ENDBRANCH 43 46
ENDBRANCH 41 42
BRANCH 41 71
ATOM     71  CB  LEU D   3     -13.078   9.431  -9.910  1.00 15.85 LIG 0.04  C 
BRANCH 71 72
ATOM     72  CG  LEU D   3     -13.592   8.974 -11.278  1.00 19.10 LIG-0.02  C 
ATOM     73  CD2 LEU D   3     -14.868   9.701 -11.674  1.00 16.59 LIG 0.01  C 
ATOM     74  CD1 LEU D   3     -13.808   7.462 -11.252  1.00 21.08 LIG 0.01  C 
ENDBRANCH 71 72
ENDBRANCH 41 71
ENDBRANCH 1 41
TORSDOF 29
ENDMDL
MODEL 39
USER: ADFR SOLUTION from run 189
USER: SCORE 24.153753 LL:  -5.354 LR: -20.539 RR:   0.000 FEB: -11.888
USER: RMSD 14.087817
USER: SEED 188
USER: STATUS no improvement in best in 3 clusters for 5 generations
USER: GENES 31
USER: genes 0 Translation |==|  0.56472 0.40126 0.39431
USER: genes 1 Rotation |==|  0.49541 0.99476 0.56613 0.52865
USER: genes 2 Torsion [C]-N--CA-[CB] |==|  0.52865
USER: genes 3 Torsion [N]-CA--CB-[CG] |==|  0.50135
USER: genes 4 Torsion [CA]-CB--CG-[CD1] |==|  0.18341
USER: genes 5 Torsion [N]-CA--C-[N] |==|  0.36832
USER: genes 6 Torsion [C]-N--CA-[C] |==|  0.62692
USER: genes 7 Torsion [N]-CA--CB-[CG] |==|  0.50880
USER: genes 8 Torsion [CA]-CB--CG-[CD] |==|  0.71938
USER: genes 9 Torsion [CB]-CG--CD-[OE1] |==|  0.56799
USER: genes 10 Torsion [N]-CA--C-[N] |==|  0.37088
USER: genes 11 Torsion [C]-N--CA-[CB] |==|  0.85435
USER: genes 12 Torsion [N]-CA--C-[N] |==|  0.40841
USER: genes 13 Torsion [C]-N--CA-[CB] |==|  0.22473
USER: genes 14 Torsion [N]-CA--C-[OXT] |==|  0.37674
USER: genes 15 Torsion [N]-CA--CB-[CG] |==|  0.07740
USER: genes 16 Torsion [CA]-CB--CG-[SD] |==|  0.57564
USER: genes 17 Torsion [CB]-CG--SD-[CE] |==|  0.62920
USER: genes 18 Torsion [N]-C--CA-[N] |==|  0.14293
USER: genes 19 Torsion [C]-CA--N-[C] |==|  0.72272
USER: genes 20 Torsion [N]-C--CA-[N] |==|  0.26787
USER: genes 21 Torsion [C]-CA--N-[C] |==|  0.58974
USER: genes 22 Torsion [N]-C--CA-[N] |==|  0.48422
USER: genes 23 Torsion [C]-CA--N-[H1] |==|  0.01830
USER: genes 24 Torsion [C]-CA--CB-[CG] |==|  0.56706
USER: genes 25 Torsion [CA]-CB--CG-[CD] |==|  0.81422
USER: genes 26 Torsion [CB]-CG--CD-[NE] |==|  0.21404
USER: genes 27 Torsion [CG]-CD--NE-[CZ] |==|  0.61092
USER: genes 28 Torsion [C]-CA--CB-[CG2] |==|  0.54248
USER: genes 29 Torsion [C]-CA--CB-[CG] |==|  0.35016
USER: genes 30 Torsion [CA]-CB--CG-[CD2] |==|  0.05784
ROOT
ATOM      1  C   LEU D   3     -13.089   7.349  -8.462  1.00 15.92 LIG 0.24  C 
ATOM      2 O    LEU D   3     -12.991   6.755  -9.535  1.00 19.39 LIG-0.27  OA
ATOM      3  N   PHE D   4     -14.263   7.642  -7.920  1.00 13.65 LIG-0.35  N 
ATOM      4 H    PHE D   4     -14.381   7.839  -7.091  1.00 13.65 LIG 0.16  HD
ENDROOT
BRANCH 3 5
ATOM      5  CA  PHE D   4     -15.463   7.648  -8.722  1.00 13.25 LIG 0.18  C 
BRANCH 5 6
ATOM      6  CB  PHE D   4     -16.609   8.265  -7.904  1.00 13.20 LIG 0.07  C 
BRANCH 6 7
ATOM      7  CG  PHE D   4     -17.906   8.314  -8.629  1.00 13.63 LIG-0.06  A 
ATOM      8  CD1 PHE D   4     -18.567   7.140  -8.971  1.00 13.10 LIG 0.01  A 
ATOM      9  CE1 PHE D   4     -19.791   7.188  -9.626  1.00 15.10 LIG 0.00  A 
ATOM     10  CZ  PHE D   4     -20.371   8.419  -9.926  1.00 15.27 LIG 0.00  A 
ATOM     11  CE2 PHE D   4     -19.722   9.593  -9.557  1.00 13.31 LIG 0.00  A 
ATOM     12  CD2 PHE D   4     -18.494   9.530  -8.931  1.00 12.44 LIG 0.01  A 
ENDBRANCH 6 7
ENDBRANCH 5 6
BRANCH 5 13
ATOM     13  C   PHE D   4     -15.171   8.469  -9.978  1.00 14.19 LIG 0.24  C 
ATOM     14 O    PHE D   4     -14.527   9.511  -9.904  1.00 15.09 LIG-0.27  OA
ATOM     15  N   GLU D   5     -15.530   7.947 -11.143  1.00 15.42 LIG-0.35  N 
ATOM     16 H    GLU D   5     -15.857   7.158 -11.243  1.00 15.42 LIG 0.16  HD
BRANCH 15 17
ATOM     17  CA  GLU D   5     -15.385   8.710 -12.371  1.00 15.66 LIG 0.18  C 
BRANCH 17 18
ATOM     18  CB  GLU D   5     -14.164   8.232 -13.170  1.00 15.74 LIG 0.04  C 
BRANCH 18 19
ATOM     19  CG  GLU D   5     -13.884   9.018 -14.433  1.00 13.49 LIG 0.12  C 
BRANCH 19 20
ATOM     20  CD  GLU D   5     -14.369   8.302 -15.682  1.00 17.86 LIG 0.17  C 
ATOM     21 OE1  GLU D   5     -13.817   8.579 -16.771  1.00 19.55 LIG-0.65  OA
ATOM     22 OE2  GLU D   5     -15.253   7.417 -15.574  1.00 19.96 LIG-0.65  OA
ENDBRANCH 19 20
ENDBRANCH 18 19
ENDBRANCH 17 18
BRANCH 17 23
ATOM     23  C   GLU D   5     -16.662   8.572 -13.182  1.00 17.50 LIG 0.24  C 
ATOM     24 O    GLU D   5     -17.200   7.472 -13.322  1.00 17.10 LIG-0.27  OA
ATOM     25  N   ALA D   6     -17.162   9.694 -13.686  1.00 19.03 LIG-0.35  N 
ATOM     26 H    ALA D   6     -16.799  10.468 -13.591  1.00 19.03 LIG 0.16  HD
BRANCH 25 27
ATOM     27  CA  ALA D   6     -18.395   9.695 -14.458  1.00 21.37 LIG 0.17  C 
ATOM     28  CB  ALA D   6     -18.316   8.679 -15.575  1.00 21.30 LIG 0.04  C 
BRANCH 27 29
ATOM     29  C   ALA D   6     -19.565   9.382 -13.539  1.00 24.24 LIG 0.24  C 
ATOM     30 O    ALA D   6     -19.427   8.633 -12.571  1.00 22.56 LIG-0.27  OA
ATOM     31  N   MET D   7     -20.716   9.970 -13.843  1.00 27.55 LIG-0.34  N 
ATOM     32 H    MET D   7     -20.850  10.421 -14.563  1.00 27.55 LIG 0.16  HD
BRANCH 31 33
ATOM     33  CA  MET D   7     -21.872   9.892 -12.958  1.00 30.72 LIG 0.19  C 
BRANCH 33 34
ATOM     34  C   MET D   7     -23.141  10.117 -13.765  1.00 33.25 LIG 0.20  C 
ATOM     35 O    MET D   7     -23.221  11.082 -14.536  1.00 35.29 LIG-0.65  OA
ATOM     36 OXT  MET D   7     -24.139   9.400 -13.602  1.00 35.43 LIG-0.65  OA
ENDBRANCH 33 34
BRANCH 33 37
ATOM     37  CB  MET D   7     -21.737  10.921 -11.830  1.00 30.73 LIG 0.05  C 
BRANCH 37 38
ATOM     38  CG  MET D   7     -20.927  12.158 -12.161  1.00 32.79 LIG 0.08  C 
BRANCH 38 39
ATOM     39 SD   MET D   7     -20.177  12.871 -10.694  1.00 33.89 LIG-0.17  SA
ATOM     40  CE  MET D   7     -20.561  14.609 -10.894  1.00 31.39 LIG 0.09  C 
ENDBRANCH 38 39
ENDBRANCH 37 38
ENDBRANCH 33 37
ENDBRANCH 31 33
ENDBRANCH 27 29
ENDBRANCH 25 27
ENDBRANCH 17 23
ENDBRANCH 15 17
ENDBRANCH 5 13
ENDBRANCH 3 5
BRANCH 1 41
ATOM     41  CA  LEU D   3     -11.851   7.834  -7.711  1.00 16.32 LIG 0.18  C 
BRANCH 41 42
ATOM     42  N   LEU D   3     -11.856   7.453  -6.304  1.00 16.05 LIG-0.35  N 
ATOM     43  C   VAL D   2     -12.218   8.317  -5.357  1.00 15.61 LIG 0.24  C 
ATOM     44 O    VAL D   2     -12.478   9.498  -5.596  1.00 16.79 LIG-0.27  OA
ATOM     45 H    LEU D   3     -11.611   6.644  -6.150  1.00 16.05 LIG 0.16  HD
BRANCH 43 46
ATOM     46  CA  VAL D   2     -12.124   7.826  -3.921  1.00 14.78 LIG 0.18  C 
BRANCH 46 47
ATOM     47  N   VAL D   2     -10.852   8.284  -3.380  1.00 14.77 LIG-0.35  N 
ATOM     48  C   ARG D   1     -10.188   7.571  -2.480  1.00 16.50 LIG 0.25  C 
ATOM     49 O    ARG D   1     -10.569   6.469  -2.075  1.00 16.49 LIG-0.27  OA
ATOM     50 H    VAL D   2     -10.581   9.039  -3.693  1.00 14.77 LIG 0.16  HD
BRANCH 48 51
ATOM     51  CA  ARG D   1      -8.852   8.127  -2.052  1.00 17.64 LIG 0.27  C 
BRANCH 51 52
ATOM     52  N   ARG D   1      -8.316   7.287  -0.950  1.00 17.90 LIG-0.07  N 
ATOM     53 H3   ARG D   1      -8.290   7.763  -0.199  1.00 17.90 LIG 0.28  HD
ATOM     54 H2   ARG D   1      -7.494   7.015  -1.157  1.00 17.90 LIG 0.28  HD
ATOM     55 H1   ARG D   1      -8.842   6.578  -0.834  1.00 17.90 LIG 0.28  HD
ENDBRANCH 51 52
BRANCH 51 56
ATOM     56  CB  ARG D   1      -7.924   8.110  -3.275  1.00 19.06 LIG 0.04  C 
BRANCH 56 57
ATOM     57  CG  ARG D   1      -6.448   8.075  -2.990  1.00 22.89 LIG 0.02  C 
BRANCH 57 58
ATOM     58  CD  ARG D   1      -6.041   9.389  -2.335  1.00 26.83 LIG 0.14  C 
BRANCH 58 59
ATOM     59  NE  ARG D   1      -6.422   9.444  -0.930  1.00 30.01 LIG-0.23  N 
ATOM     60  CZ  ARG D   1      -6.905  10.532  -0.337  1.00 33.71 LIG 0.67  C 
ATOM     61  NH1 ARG D   1      -7.056  11.649  -1.035  1.00 32.13 LIG-0.23  N 
ATOM     62  NH2 ARG D   1      -7.237  10.504   0.950  1.00 33.53 LIG-0.23  N 
ATOM     63 1HH1 ARG D   1      -6.842  11.668  -1.867  1.00 32.13 LIG 0.17  HD
ATOM     64 2HH1 ARG D   1      -7.369  12.354  -0.655  1.00 32.13 LIG 0.17  HD
ATOM     65 1HH2 ARG D   1      -7.140   9.780   1.404  1.00 33.53 LIG 0.17  HD
ATOM     66 2HH2 ARG D   1      -7.550  11.210   1.329  1.00 33.53 LIG 0.17  HD
ATOM     67 HE   ARG D   1      -6.328   8.732  -0.457  1.00 30.01 LIG 0.18  HD
ENDBRANCH 58 59
ENDBRANCH 57 58
ENDBRANCH 56 57
ENDBRANCH 51 56
ENDBRANCH 48 51
ENDBRANCH 46 47
BRANCH 46 68
ATOM     68  CB  VAL D   2     -13.291   8.394  -3.086  1.00 15.28 LIG 0.01  C 
ATOM     69  CG2 VAL D   2     -13.003   8.226  -1.607  1.00 14.68 LIG 0.01  C 
ATOM     70  CG1 VAL D   2     -14.627   7.758  -3.475  1.00 13.75 LIG 0.01  C 
ENDBRANCH 46 68
ENDBRANCH 43 46
ENDBRANCH 41 42
BRANCH 41 71
ATOM     71  CB  LEU D   3     -10.574   7.351  -8.406  1.00 15.85 LIG 0.04  C 
BRANCH 71 72
ATOM     72  CG  LEU D   3      -9.543   8.423  -8.773  1.00 19.10 LIG-0.02  C 
ATOM     73  CD2 LEU D   3      -9.727   9.689  -7.950  1.00 16.59 LIG 0.01  C 
ATOM     74  CD1 LEU D   3      -9.643   8.722 -10.268  1.00 21.08 LIG 0.01  C 
ENDBRANCH 71 72
ENDBRANCH 41 71
ENDBRANCH 1 41
TORSDOF 29
ENDMDL
MODEL 40
USER: ADFR SOLUTION from run 67
USER: SCORE 23.763783 LL:  -5.705 LR: -20.444 RR:   0.000 FEB: -11.793
USER: RMSD 13.558144
USER: SEED 66
USER: STATUS no improvement in best in 10 clusters for 5 generations
USER: GENES 31
USER: genes 0 Translation |==|  0.59622 0.41590 0.47890
USER: genes 1 Rotation |==|  0.61689 0.94288 0.59419 0.67698
USER: genes 2 Torsion [C]-N--CA-[CB] |==|  0.88273
USER: genes 3 Torsion [N]-CA--CB-[CG] |==|  0.38437
USER: genes 4 Torsion [CA]-CB--CG-[CD1] |==|  0.68194
USER: genes 5 Torsion [N]-CA--C-[N] |==|  0.37646
USER: genes 6 Torsion [C]-N--CA-[C] |==|  0.64795
USER: genes 7 Torsion [N]-CA--CB-[CG] |==|  0.95264
USER: genes 8 Torsion [CA]-CB--CG-[CD] |==|  0.27057
USER: genes 9 Torsion [CB]-CG--CD-[OE1] |==|  0.81008
USER: genes 10 Torsion [N]-CA--C-[N] |==|  0.31812
USER: genes 11 Torsion [C]-N--CA-[CB] |==|  0.47496
USER: genes 12 Torsion [N]-CA--C-[N] |==|  0.32794
USER: genes 13 Torsion [C]-N--CA-[CB] |==|  0.25231
USER: genes 14 Torsion [N]-CA--C-[OXT] |==|  0.48533
USER: genes 15 Torsion [N]-CA--CB-[CG] |==|  0.12913
USER: genes 16 Torsion [CA]-CB--CG-[SD] |==|  0.26296
USER: genes 17 Torsion [CB]-CG--SD-[CE] |==|  0.46042
USER: genes 18 Torsion [N]-C--CA-[N] |==|  0.73907
USER: genes 19 Torsion [C]-CA--N-[C] |==|  0.63434
USER: genes 20 Torsion [N]-C--CA-[N] |==|  0.35965
USER: genes 21 Torsion [C]-CA--N-[C] |==|  0.71876
USER: genes 22 Torsion [N]-C--CA-[N] |==|  0.08018
USER: genes 23 Torsion [C]-CA--N-[H1] |==|  0.65100
USER: genes 24 Torsion [C]-CA--CB-[CG] |==|  0.30680
USER: genes 25 Torsion [CA]-CB--CG-[CD] |==|  0.23269
USER: genes 26 Torsion [CB]-CG--CD-[NE] |==|  0.68765
USER: genes 27 Torsion [CG]-CD--NE-[CZ] |==|  0.68860
USER: genes 28 Torsion [C]-CA--CB-[CG2] |==|  0.54588
USER: genes 29 Torsion [C]-CA--CB-[CG] |==|  0.54159
USER: genes 30 Torsion [CA]-CB--CG-[CD2] |==|  0.60977
ROOT
ATOM      1  C   LEU D   3     -12.191   7.536  -6.051  1.00 15.92 LIG 0.24  C 
ATOM      2 O    LEU D   3     -11.818   6.998  -7.093  1.00 19.39 LIG-0.27  OA
ATOM      3  N   PHE D   4     -13.177   8.423  -6.026  1.00 13.65 LIG-0.35  N 
ATOM      4 H    PHE D   4     -13.615   8.643  -5.319  1.00 13.65 LIG 0.16  HD
ENDROOT
BRANCH 3 5
ATOM      5  CA  PHE D   4     -13.589   9.100  -7.232  1.00 13.25 LIG 0.18  C 
BRANCH 5 6
ATOM      6  CB  PHE D   4     -12.341   9.509  -8.030  1.00 13.20 LIG 0.07  C 
BRANCH 6 7
ATOM      7  CG  PHE D   4     -12.465   9.289  -9.494  1.00 13.63 LIG-0.06  A 
ATOM      8  CD1 PHE D   4     -11.661   8.357 -10.139  1.00 13.10 LIG 0.01  A 
ATOM      9  CE1 PHE D   4     -11.797   8.135 -11.503  1.00 15.10 LIG 0.00  A 
ATOM     10  CZ  PHE D   4     -12.757   8.836 -12.229  1.00 15.27 LIG 0.00  A 
ATOM     11  CE2 PHE D   4     -13.581   9.748 -11.578  1.00 13.31 LIG 0.00  A 
ATOM     12  CD2 PHE D   4     -13.417   9.978 -10.227  1.00 12.44 LIG 0.01  A 
ENDBRANCH 6 7
ENDBRANCH 5 6
BRANCH 5 13
ATOM     13  C   PHE D   4     -14.464   8.130  -8.026  1.00 14.19 LIG 0.24  C 
ATOM     14 O    PHE D   4     -14.187   6.935  -8.067  1.00 15.09 LIG-0.27  OA
ATOM     15  N   GLU D   5     -15.582   8.609  -8.552  1.00 15.42 LIG-0.35  N 
ATOM     16 H    GLU D   5     -15.877   9.407  -8.425  1.00 15.42 LIG 0.16  HD
BRANCH 15 17
ATOM     17  CA  GLU D   5     -16.412   7.780  -9.409  1.00 15.66 LIG 0.18  C 
BRANCH 17 18
ATOM     18  CB  GLU D   5     -17.737   7.430  -8.715  1.00 15.74 LIG 0.04  C 
BRANCH 18 19
ATOM     19  CG  GLU D   5     -17.743   7.644  -7.216  1.00 13.49 LIG 0.12  C 
BRANCH 19 20
ATOM     20  CD  GLU D   5     -18.360   8.974  -6.821  1.00 17.86 LIG 0.17  C 
ATOM     21 OE1  GLU D   5     -17.744  10.021  -7.119  1.00 19.55 LIG-0.65  OA
ATOM     22 OE2  GLU D   5     -19.489   8.983  -6.272  1.00 19.96 LIG-0.65  OA
ENDBRANCH 19 20
ENDBRANCH 18 19
ENDBRANCH 17 18
BRANCH 17 23
ATOM     23  C   GLU D   5     -16.653   8.518 -10.714  1.00 17.50 LIG 0.24  C 
ATOM     24 O    GLU D   5     -17.276   9.581 -10.727  1.00 17.10 LIG-0.27  OA
ATOM     25  N   ALA D   6     -16.129   7.971 -11.805  1.00 19.03 LIG-0.35  N 
ATOM     26 H    ALA D   6     -15.687   7.233 -11.808  1.00 19.03 LIG 0.16  HD
BRANCH 25 27
ATOM     27  CA  ALA D   6     -16.267   8.599 -13.110  1.00 21.37 LIG 0.17  C 
ATOM     28  CB  ALA D   6     -15.399   7.892 -14.127  1.00 21.30 LIG 0.04  C 
BRANCH 27 29
ATOM     29  C   ALA D   6     -17.726   8.556 -13.537  1.00 24.24 LIG 0.24  C 
ATOM     30 O    ALA D   6     -18.308   7.483 -13.695  1.00 22.56 LIG-0.27  OA
ATOM     31  N   MET D   7     -18.313   9.734 -13.714  1.00 27.55 LIG-0.34  N 
ATOM     32 H    MET D   7     -17.897  10.486 -13.695  1.00 27.55 LIG 0.16  HD
BRANCH 31 33
ATOM     33  CA  MET D   7     -19.745   9.844 -13.960  1.00 30.72 LIG 0.19  C 
BRANCH 33 34
ATOM     34  C   MET D   7     -20.009  11.023 -14.885  1.00 33.25 LIG 0.20  C 
ATOM     35 O    MET D   7     -19.098  11.818 -15.150  1.00 35.29 LIG-0.65  OA
ATOM     36 OXT  MET D   7     -21.148  11.256 -15.314  1.00 35.43 LIG-0.65  OA
ENDBRANCH 33 34
BRANCH 33 37
ATOM     37  CB  MET D   7     -20.495   9.999 -12.632  1.00 30.73 LIG 0.05  C 
BRANCH 37 38
ATOM     38  CG  MET D   7     -19.913  11.009 -11.662  1.00 32.79 LIG 0.08  C 
BRANCH 38 39
ATOM     39 SD   MET D   7     -20.703  12.612 -11.822  1.00 33.89 LIG-0.17  SA
ATOM     40  CE  MET D   7     -20.159  13.440 -10.329  1.00 31.39 LIG 0.09  C 
ENDBRANCH 38 39
ENDBRANCH 37 38
ENDBRANCH 33 37
ENDBRANCH 31 33
ENDBRANCH 27 29
ENDBRANCH 25 27
ENDBRANCH 17 23
ENDBRANCH 15 17
ENDBRANCH 5 13
ENDBRANCH 3 5
BRANCH 1 41
ATOM     41  CA  LEU D   3     -11.498   7.248  -4.721  1.00 16.32 LIG 0.18  C 
BRANCH 41 42
ATOM     42  N   LEU D   3     -10.307   8.064  -4.515  1.00 16.05 LIG-0.35  N 
ATOM     43  C   VAL D   2      -9.157   7.519  -4.124  1.00 15.61 LIG 0.24  C 
ATOM     44 O    VAL D   2      -9.050   6.327  -3.828  1.00 16.79 LIG-0.27  OA
ATOM     45 H    LEU D   3     -10.417   8.904  -4.665  1.00 16.05 LIG 0.16  HD
BRANCH 43 46
ATOM     46  CA  VAL D   2      -8.001   8.477  -3.881  1.00 14.78 LIG 0.18  C 
BRANCH 46 47
ATOM     47  N   VAL D   2      -7.448   8.177  -2.568  1.00 14.77 LIG-0.35  N 
ATOM     48  C   ARG D   1      -7.736   8.924  -1.511  1.00 16.50 LIG 0.25  C 
ATOM     49 O    ARG D   1      -8.515   9.881  -1.551  1.00 16.49 LIG-0.27  OA
ATOM     50 H    VAL D   2      -6.931   7.489  -2.546  1.00 14.77 LIG 0.16  HD
BRANCH 48 51
ATOM     51  CA  ARG D   1      -7.150   8.465  -0.198  1.00 17.64 LIG 0.27  C 
BRANCH 51 52
ATOM     52  N   ARG D   1      -5.881   7.743  -0.468  1.00 17.90 LIG-0.07  N 
ATOM     53 H3   ARG D   1      -5.199   8.202  -0.126  1.00 17.90 LIG 0.28  HD
ATOM     54 H2   ARG D   1      -5.768   7.658  -1.347  1.00 17.90 LIG 0.28  HD
ATOM     55 H1   ARG D   1      -5.912   6.936  -0.094  1.00 17.90 LIG 0.28  HD
ENDBRANCH 51 52
BRANCH 51 56
ATOM     56  CB  ARG D   1      -6.916   9.709   0.671  1.00 19.06 LIG 0.04  C 
BRANCH 56 57
ATOM     57  CG  ARG D   1      -7.808   9.860   1.872  1.00 22.89 LIG 0.02  C 
BRANCH 57 58
ATOM     58  CD  ARG D   1      -7.230   9.043   3.021  1.00 26.83 LIG 0.14  C 
BRANCH 58 59
ATOM     59  NE  ARG D   1      -8.076   7.909   3.368  1.00 30.01 LIG-0.23  N 
ATOM     60  CZ  ARG D   1      -8.745   7.809   4.513  1.00 33.71 LIG 0.67  C 
ATOM     61  NH1 ARG D   1      -8.654   8.777   5.415  1.00 32.13 LIG-0.23  N 
ATOM     62  NH2 ARG D   1      -9.503   6.745   4.758  1.00 33.53 LIG-0.23  N 
ATOM     63 1HH1 ARG D   1      -8.164   9.465   5.259  1.00 32.13 LIG 0.17  HD
ATOM     64 2HH1 ARG D   1      -9.085   8.716   6.157  1.00 32.13 LIG 0.17  HD
ATOM     65 1HH2 ARG D   1      -9.564   6.116   4.174  1.00 33.53 LIG 0.17  HD
ATOM     66 2HH2 ARG D   1      -9.935   6.685   5.499  1.00 33.53 LIG 0.17  HD
ATOM     67 HE   ARG D   1      -8.147   7.267   2.800  1.00 30.01 LIG 0.18  HD
ENDBRANCH 58 59
ENDBRANCH 57 58
ENDBRANCH 56 57
ENDBRANCH 51 56
ENDBRANCH 48 51
ENDBRANCH 46 47
BRANCH 46 68
ATOM     68  CB  VAL D   2      -6.919   8.294  -4.968  1.00 15.28 LIG 0.01  C 
ATOM     69  CG2 VAL D   2      -5.619   8.930  -4.518  1.00 14.68 LIG 0.01  C 
ATOM     70  CG1 VAL D   2      -7.378   8.844  -6.319  1.00 13.75 LIG 0.01  C 
ENDBRANCH 46 68
ENDBRANCH 43 46
ENDBRANCH 41 42
BRANCH 41 71
ATOM     71  CB  LEU D   3     -12.480   7.406  -3.556  1.00 15.85 LIG 0.04  C 
BRANCH 71 72
ATOM     72  CG  LEU D   3     -11.872   7.501  -2.153  1.00 19.10 LIG-0.02  C 
ATOM     73  CD2 LEU D   3     -12.692   6.734  -1.128  1.00 16.59 LIG 0.01  C 
ATOM     74  CD1 LEU D   3     -11.744   8.972  -1.763  1.00 21.08 LIG 0.01  C 
ENDBRANCH 71 72
ENDBRANCH 41 71
ENDBRANCH 1 41
TORSDOF 29
ENDMDL
MODEL 41
USER: ADFR SOLUTION from run 74
USER: SCORE 24.177090 LL:  -6.661 LR: -20.434 RR:   0.000 FEB: -11.784
USER: RMSD 4.364358
USER: SEED 73
USER: STATUS no improvement in best in 3 clusters for 5 generations
USER: GENES 31
USER: genes 0 Translation |==|  0.55840 0.47686 0.36282
USER: genes 1 Rotation |==|  0.79953 0.28613 0.57494 0.83003
USER: genes 2 Torsion [C]-N--CA-[CB] |==|  0.18983
USER: genes 3 Torsion [N]-CA--CB-[CG] |==|  0.09898
USER: genes 4 Torsion [CA]-CB--CG-[CD1] |==|  0.15862
USER: genes 5 Torsion [N]-CA--C-[N] |==|  0.46667
USER: genes 6 Torsion [C]-N--CA-[C] |==|  0.71760
USER: genes 7 Torsion [N]-CA--CB-[CG] |==|  0.77196
USER: genes 8 Torsion [CA]-CB--CG-[CD] |==|  0.00907
USER: genes 9 Torsion [CB]-CG--CD-[OE1] |==|  0.29665
USER: genes 10 Torsion [N]-CA--C-[N] |==|  0.28344
USER: genes 11 Torsion [C]-N--CA-[CB] |==|  0.86004
USER: genes 12 Torsion [N]-CA--C-[N] |==|  0.43175
USER: genes 13 Torsion [C]-N--CA-[CB] |==|  0.29498
USER: genes 14 Torsion [N]-CA--C-[OXT] |==|  0.45208
USER: genes 15 Torsion [N]-CA--CB-[CG] |==|  0.93144
USER: genes 16 Torsion [CA]-CB--CG-[SD] |==|  0.30851
USER: genes 17 Torsion [CB]-CG--SD-[CE] |==|  0.59696
USER: genes 18 Torsion [N]-C--CA-[N] |==|  0.41774
USER: genes 19 Torsion [C]-CA--N-[C] |==|  0.18898
USER: genes 20 Torsion [N]-C--CA-[N] |==|  0.79069
USER: genes 21 Torsion [C]-CA--N-[C] |==|  0.62291
USER: genes 22 Torsion [N]-C--CA-[N] |==|  0.40355
USER: genes 23 Torsion [C]-CA--N-[H1] |==|  0.63037
USER: genes 24 Torsion [C]-CA--CB-[CG] |==|  0.33897
USER: genes 25 Torsion [CA]-CB--CG-[CD] |==|  0.65218
USER: genes 26 Torsion [CB]-CG--CD-[NE] |==|  0.91614
USER: genes 27 Torsion [CG]-CD--NE-[CZ] |==|  0.32722
USER: genes 28 Torsion [C]-CA--CB-[CG2] |==|  0.47614
USER: genes 29 Torsion [C]-CA--CB-[CG] |==|  0.18721
USER: genes 30 Torsion [CA]-CB--CG-[CD2] |==|  0.73567
ROOT
ATOM      1  C   LEU D   3     -13.269   8.313  -9.360  1.00 15.92 LIG 0.24  C 
ATOM      2 O    LEU D   3     -12.984   7.289  -9.979  1.00 19.39 LIG-0.27  OA
ATOM      3  N   PHE D   4     -12.727   8.602  -8.184  1.00 13.65 LIG-0.35  N 
ATOM      4 H    PHE D   4     -12.715   9.388  -7.834  1.00 13.65 LIG 0.16  HD
ENDROOT
BRANCH 3 5
ATOM      5  CA  PHE D   4     -12.100   7.574  -7.389  1.00 13.25 LIG 0.18  C 
BRANCH 5 6
ATOM      6  CB  PHE D   4     -10.818   7.106  -8.096  1.00 13.20 LIG 0.07  C 
BRANCH 6 7
ATOM      7  CG  PHE D   4     -10.092   8.192  -8.805  1.00 13.63 LIG-0.06  A 
ATOM      8  CD1 PHE D   4      -9.671   9.325  -8.117  1.00 13.10 LIG 0.01  A 
ATOM      9  CE1 PHE D   4      -8.971  10.327  -8.775  1.00 15.10 LIG 0.00  A 
ATOM     10  CZ  PHE D   4      -8.671  10.191 -10.129  1.00 15.27 LIG 0.00  A 
ATOM     11  CE2 PHE D   4      -9.066   9.044 -10.810  1.00 13.31 LIG 0.00  A 
ATOM     12  CD2 PHE D   4      -9.784   8.068 -10.149  1.00 12.44 LIG 0.01  A 
ENDBRANCH 6 7
ENDBRANCH 5 6
BRANCH 5 13
ATOM     13  C   PHE D   4     -11.791   8.178  -6.020  1.00 14.19 LIG 0.24  C 
ATOM     14 O    PHE D   4     -11.981   9.372  -5.809  1.00 15.09 LIG-0.27  OA
ATOM     15  N   GLU D   5     -11.436   7.343  -5.052  1.00 15.42 LIG-0.35  N 
ATOM     16 H    GLU D   5     -11.428   6.487  -5.127  1.00 15.42 LIG 0.16  HD
BRANCH 15 17
ATOM     17  CA  GLU D   5     -11.022   7.848  -3.754  1.00 15.66 LIG 0.18  C 
BRANCH 17 18
ATOM     18  CB  GLU D   5     -11.669   7.036  -2.621  1.00 15.74 LIG 0.04  C 
BRANCH 18 19
ATOM     19  CG  GLU D   5     -13.084   7.446  -2.275  1.00 13.49 LIG 0.12  C 
BRANCH 19 20
ATOM     20  CD  GLU D   5     -13.612   8.541  -3.185  1.00 17.86 LIG 0.17  C 
ATOM     21 OE1  GLU D   5     -14.468   8.232  -4.044  1.00 19.55 LIG-0.65  OA
ATOM     22 OE2  GLU D   5     -13.225   9.722  -3.005  1.00 19.96 LIG-0.65  OA
ENDBRANCH 19 20
ENDBRANCH 18 19
ENDBRANCH 17 18
BRANCH 17 23
ATOM     23  C   GLU D   5      -9.507   7.796  -3.672  1.00 17.50 LIG 0.24  C 
ATOM     24 O    GLU D   5      -8.925   6.727  -3.484  1.00 17.10 LIG-0.27  OA
ATOM     25  N   ALA D   6      -8.870   8.948  -3.849  1.00 19.03 LIG-0.35  N 
ATOM     26 H    ALA D   6      -9.263   9.700  -3.987  1.00 19.03 LIG 0.16  HD
BRANCH 25 27
ATOM     27  CA  ALA D   6      -7.416   9.022  -3.821  1.00 21.37 LIG 0.17  C 
ATOM     28  CB  ALA D   6      -6.880   8.340  -2.583  1.00 21.30 LIG 0.04  C 
BRANCH 27 29
ATOM     29  C   ALA D   6      -6.854   8.368  -5.073  1.00 24.24 LIG 0.24  C 
ATOM     30 O    ALA D   6      -7.500   7.518  -5.687  1.00 22.56 LIG-0.27  OA
ATOM     31  N   MET D   7      -5.649   8.777  -5.451  1.00 27.55 LIG-0.34  N 
ATOM     32 H    MET D   7      -5.151   9.301  -4.984  1.00 27.55 LIG 0.16  HD
BRANCH 31 33
ATOM     33  CA  MET D   7      -5.063   8.359  -6.718  1.00 30.72 LIG 0.19  C 
BRANCH 33 34
ATOM     34  C   MET D   7      -3.642   7.870  -6.479  1.00 33.25 LIG 0.20  C 
ATOM     35 O    MET D   7      -3.024   8.233  -5.470  1.00 35.29 LIG-0.65  OA
ATOM     36 OXT  MET D   7      -3.053   7.178  -7.323  1.00 35.43 LIG-0.65  OA
ENDBRANCH 33 34
BRANCH 33 37
ATOM     37  CB  MET D   7      -5.091   9.521  -7.717  1.00 30.73 LIG 0.05  C 
BRANCH 37 38
ATOM     38  CG  MET D   7      -6.157  10.571  -7.474  1.00 32.79 LIG 0.08  C 
BRANCH 38 39
ATOM     39 SD   MET D   7      -5.442  12.132  -6.950  1.00 33.89 LIG-0.17  SA
ATOM     40  CE  MET D   7      -6.680  12.736  -5.804  1.00 31.39 LIG 0.09  C 
ENDBRANCH 38 39
ENDBRANCH 37 38
ENDBRANCH 33 37
ENDBRANCH 31 33
ENDBRANCH 27 29
ENDBRANCH 25 27
ENDBRANCH 17 23
ENDBRANCH 15 17
ENDBRANCH 5 13
ENDBRANCH 3 5
BRANCH 1 41
ATOM     41  CA  LEU D   3     -14.312   9.294  -9.890  1.00 16.32 LIG 0.18  C 
BRANCH 41 42
ATOM     42  N   LEU D   3     -14.356   9.343 -11.346  1.00 16.05 LIG-0.35  N 
ATOM     43  C   VAL D   2     -14.788   8.304 -12.059  1.00 15.61 LIG 0.24  C 
ATOM     44 O    VAL D   2     -15.086   7.223 -11.547  1.00 16.79 LIG-0.27  OA
ATOM     45 H    LEU D   3     -14.084  10.083 -11.689  1.00 16.05 LIG 0.16  HD
BRANCH 43 46
ATOM     46  CA  VAL D   2     -14.728   8.448 -13.571  1.00 14.78 LIG 0.18  C 
BRANCH 46 47
ATOM     47  N   VAL D   2     -15.816   9.327 -13.974  1.00 14.77 LIG-0.35  N 
ATOM     48  C   ARG D   1     -16.582   9.043 -15.019  1.00 16.50 LIG 0.25  C 
ATOM     49 O    ARG D   1     -16.462   8.011 -15.686  1.00 16.49 LIG-0.27  OA
ATOM     50 H    VAL D   2     -15.911  10.027 -13.483  1.00 14.77 LIG 0.16  HD
BRANCH 48 51
ATOM     51  CA  ARG D   1     -17.715  10.002 -15.288  1.00 17.64 LIG 0.27  C 
BRANCH 51 52
ATOM     52  N   ARG D   1     -17.914  10.108 -16.756  1.00 17.90 LIG-0.07  N 
ATOM     53 H3   ARG D   1     -18.658   9.678 -16.987  1.00 17.90 LIG 0.28  HD
ATOM     54 H2   ARG D   1     -17.219   9.743 -17.177  1.00 17.90 LIG 0.28  HD
ATOM     55 H1   ARG D   1     -17.983  10.965 -16.986  1.00 17.90 LIG 0.28  HD
ENDBRANCH 51 52
BRANCH 51 56
ATOM     56  CB  ARG D   1     -18.969   9.456 -14.589  1.00 19.06 LIG 0.04  C 
BRANCH 56 57
ATOM     57  CG  ARG D   1     -19.618  10.363 -13.581  1.00 22.89 LIG 0.02  C 
BRANCH 57 58
ATOM     58  CD  ARG D   1     -19.737   9.622 -12.256  1.00 26.83 LIG 0.14  C 
BRANCH 58 59
ATOM     59  NE  ARG D   1     -19.889   8.185 -12.442  1.00 30.01 LIG-0.23  N 
ATOM     60  CZ  ARG D   1     -19.016   7.286 -11.998  1.00 33.71 LIG 0.67  C 
ATOM     61  NH1 ARG D   1     -17.931   7.687 -11.350  1.00 32.13 LIG-0.23  N 
ATOM     62  NH2 ARG D   1     -19.226   5.989 -12.200  1.00 33.53 LIG-0.23  N 
ATOM     63 1HH1 ARG D   1     -17.794   8.525 -11.218  1.00 32.13 LIG 0.17  HD
ATOM     64 2HH1 ARG D   1     -17.364   7.108 -11.061  1.00 32.13 LIG 0.17  HD
ATOM     65 1HH2 ARG D   1     -19.929   5.727 -12.620  1.00 33.53 LIG 0.17  HD
ATOM     66 2HH2 ARG D   1     -18.658   5.411 -11.910  1.00 33.53 LIG 0.17  HD
ATOM     67 HE   ARG D   1     -20.583   7.902 -12.863  1.00 30.01 LIG 0.18  HD
ENDBRANCH 58 59
ENDBRANCH 57 58
ENDBRANCH 56 57
ENDBRANCH 51 56
ENDBRANCH 48 51
ENDBRANCH 46 47
BRANCH 46 68
ATOM     68  CB  VAL D   2     -13.373   9.052 -13.997  1.00 15.28 LIG 0.01  C 
ATOM     69  CG2 VAL D   2     -13.230   8.999 -15.505  1.00 14.68 LIG 0.01  C 
ATOM     70  CG1 VAL D   2     -12.202   8.361 -13.296  1.00 13.75 LIG 0.01  C 
ENDBRANCH 46 68
ENDBRANCH 43 46
ENDBRANCH 41 42
BRANCH 41 71
ATOM     71  CB  LEU D   3     -15.694   8.976  -9.309  1.00 15.85 LIG 0.04  C 
BRANCH 71 72
ATOM     72  CG  LEU D   3     -15.877   9.204  -7.806  1.00 19.10 LIG-0.02  C 
ATOM     73  CD2 LEU D   3     -15.656   7.928  -7.009  1.00 16.59 LIG 0.01  C 
ATOM     74  CD1 LEU D   3     -17.272   9.774  -7.553  1.00 21.08 LIG 0.01  C 
ENDBRANCH 71 72
ENDBRANCH 41 71
ENDBRANCH 1 41
TORSDOF 29
ENDMDL
MODEL 42
USER: ADFR SOLUTION from run 187
USER: SCORE 23.021777 LL:  -5.515 LR: -20.372 RR:   0.000 FEB: -11.722
USER: RMSD 5.160218
USER: SEED 186
USER: STATUS no improvement in best in 4 clusters for 5 generations
USER: GENES 31
USER: genes 0 Translation |==|  0.56399 0.58026 0.41944
USER: genes 1 Rotation |==|  0.09627 0.41164 0.27917 0.67443
USER: genes 2 Torsion [C]-N--CA-[CB] |==|  0.24850
USER: genes 3 Torsion [N]-CA--CB-[CG] |==|  0.27698
USER: genes 4 Torsion [CA]-CB--CG-[CD1] |==|  0.79339
USER: genes 5 Torsion [N]-CA--C-[N] |==|  0.44773
USER: genes 6 Torsion [C]-N--CA-[C] |==|  0.70972
USER: genes 7 Torsion [N]-CA--CB-[CG] |==|  0.69022
USER: genes 8 Torsion [CA]-CB--CG-[CD] |==|  0.49288
USER: genes 9 Torsion [CB]-CG--CD-[OE1] |==|  0.06921
USER: genes 10 Torsion [N]-CA--C-[N] |==|  0.80039
USER: genes 11 Torsion [C]-N--CA-[CB] |==|  0.16739
USER: genes 12 Torsion [N]-CA--C-[N] |==|  0.59973
USER: genes 13 Torsion [C]-N--CA-[CB] |==|  0.38500
USER: genes 14 Torsion [N]-CA--C-[OXT] |==|  0.56374
USER: genes 15 Torsion [N]-CA--CB-[CG] |==|  0.95593
USER: genes 16 Torsion [CA]-CB--CG-[SD] |==|  0.60096
USER: genes 17 Torsion [CB]-CG--SD-[CE] |==|  0.39860
USER: genes 18 Torsion [N]-C--CA-[N] |==|  0.31686
USER: genes 19 Torsion [C]-CA--N-[C] |==|  0.73193
USER: genes 20 Torsion [N]-C--CA-[N] |==|  0.25945
USER: genes 21 Torsion [C]-CA--N-[C] |==|  0.65136
USER: genes 22 Torsion [N]-C--CA-[N] |==|  0.37527
USER: genes 23 Torsion [C]-CA--N-[H1] |==|  0.64498
USER: genes 24 Torsion [C]-CA--CB-[CG] |==|  0.10232
USER: genes 25 Torsion [CA]-CB--CG-[CD] |==|  0.60235
USER: genes 26 Torsion [CB]-CG--CD-[NE] |==|  0.02707
USER: genes 27 Torsion [CG]-CD--NE-[CZ] |==|  0.73904
USER: genes 28 Torsion [C]-CA--CB-[CG2] |==|  0.11250
USER: genes 29 Torsion [C]-CA--CB-[CG] |==|  0.21521
USER: genes 30 Torsion [CA]-CB--CG-[CD2] |==|  0.37357
ROOT
ATOM      1  C   LEU D   3     -13.109   9.631  -7.746  1.00 15.92 LIG 0.24  C 
ATOM      2 O    LEU D   3     -13.081  10.860  -7.697  1.00 19.39 LIG-0.27  OA
ATOM      3  N   PHE D   4     -12.569   8.873  -6.802  1.00 13.65 LIG-0.35  N 
ATOM      4 H    PHE D   4     -12.760   8.044  -6.675  1.00 13.65 LIG 0.16  HD
ENDROOT
BRANCH 3 5
ATOM      5  CA  PHE D   4     -11.586   9.415  -5.894  1.00 13.25 LIG 0.18  C 
BRANCH 5 6
ATOM      6  CB  PHE D   4     -12.306  10.001  -4.668  1.00 13.20 LIG 0.07  C 
BRANCH 6 7
ATOM      7  CG  PHE D   4     -12.300   9.104  -3.483  1.00 13.63 LIG-0.06  A 
ATOM      8  CD1 PHE D   4     -13.121   7.983  -3.442  1.00 13.10 LIG 0.01  A 
ATOM      9  CE1 PHE D   4     -13.096   7.133  -2.345  1.00 15.10 LIG 0.00  A 
ATOM     10  CZ  PHE D   4     -12.229   7.391  -1.285  1.00 15.27 LIG 0.00  A 
ATOM     11  CE2 PHE D   4     -11.386   8.496  -1.340  1.00 13.31 LIG 0.00  A 
ATOM     12  CD2 PHE D   4     -11.441   9.347  -2.425  1.00 12.44 LIG 0.01  A 
ENDBRANCH 6 7
ENDBRANCH 5 6
BRANCH 5 13
ATOM     13  C   PHE D   4     -10.650   8.274  -5.497  1.00 14.19 LIG 0.24  C 
ATOM     14 O    PHE D   4     -10.945   7.110  -5.752  1.00 15.09 LIG-0.27  OA
ATOM     15  N   GLU D   5      -9.471   8.603  -4.989  1.00 15.42 LIG-0.35  N 
ATOM     16 H    GLU D   5      -9.175   9.408  -4.926  1.00 15.42 LIG 0.16  HD
BRANCH 15 17
ATOM     17  CA  GLU D   5      -8.569   7.580  -4.488  1.00 15.66 LIG 0.18  C 
BRANCH 17 18
ATOM     18  CB  GLU D   5      -7.144   7.801  -5.016  1.00 15.74 LIG 0.04  C 
BRANCH 18 19
ATOM     19  CG  GLU D   5      -6.661   6.756  -5.999  1.00 13.49 LIG 0.12  C 
BRANCH 19 20
ATOM     20  CD  GLU D   5      -5.273   7.058  -6.534  1.00 17.86 LIG 0.17  C 
ATOM     21 OE1  GLU D   5      -4.513   7.764  -5.835  1.00 19.55 LIG-0.65  OA
ATOM     22 OE2  GLU D   5      -4.913   6.541  -7.620  1.00 19.96 LIG-0.65  OA
ENDBRANCH 19 20
ENDBRANCH 18 19
ENDBRANCH 17 18
BRANCH 17 23
ATOM     23  C   GLU D   5      -8.603   7.603  -2.970  1.00 17.50 LIG 0.24  C 
ATOM     24 O    GLU D   5      -9.124   6.681  -2.340  1.00 17.10 LIG-0.27  OA
ATOM     25  N   ALA D   6      -8.014   8.640  -2.385  1.00 19.03 LIG-0.35  N 
ATOM     26 H    ALA D   6      -7.641   9.286  -2.812  1.00 19.03 LIG 0.16  HD
BRANCH 25 27
ATOM     27  CA  ALA D   6      -7.955   8.760  -0.936  1.00 21.37 LIG 0.17  C 
ATOM     28  CB  ALA D   6      -7.213   7.584  -0.341  1.00 21.30 LIG 0.04  C 
BRANCH 27 29
ATOM     29  C   ALA D   6      -7.266  10.064  -0.566  1.00 24.24 LIG 0.24  C 
ATOM     30 O    ALA D   6      -7.434  11.081  -1.238  1.00 22.56 LIG-0.27  OA
ATOM     31  N   MET D   7      -6.497  10.026   0.516  1.00 27.55 LIG-0.34  N 
ATOM     32 H    MET D   7      -6.300   9.306   0.942  1.00 27.55 LIG 0.16  HD
BRANCH 31 33
ATOM     33  CA  MET D   7      -5.911  11.237   1.079  1.00 30.72 LIG 0.19  C 
BRANCH 33 34
ATOM     34  C   MET D   7      -4.469  11.364   0.613  1.00 33.25 LIG 0.20  C 
ATOM     35 O    MET D   7      -4.078  10.723  -0.371  1.00 35.29 LIG-0.65  OA
ATOM     36 OXT  MET D   7      -3.646  12.034   1.254  1.00 35.43 LIG-0.65  OA
ENDBRANCH 33 34
BRANCH 33 37
ATOM     37  CB  MET D   7      -6.002  11.200   2.609  1.00 30.73 LIG 0.05  C 
BRANCH 37 38
ATOM     38  CG  MET D   7      -6.963  10.180   3.186  1.00 32.79 LIG 0.08  C 
BRANCH 38 39
ATOM     39 SD   MET D   7      -7.788  10.803   4.654  1.00 33.89 LIG-0.17  SA
ATOM     40  CE  MET D   7      -9.427  10.101   4.480  1.00 31.39 LIG 0.09  C 
ENDBRANCH 38 39
ENDBRANCH 37 38
ENDBRANCH 33 37
ENDBRANCH 31 33
ENDBRANCH 27 29
ENDBRANCH 25 27
ENDBRANCH 17 23
ENDBRANCH 15 17
ENDBRANCH 5 13
ENDBRANCH 3 5
BRANCH 1 41
ATOM     41  CA  LEU D   3     -13.729   8.902  -8.935  1.00 16.32 LIG 0.18  C 
BRANCH 41 42
ATOM     42  N   LEU D   3     -15.175   9.073  -9.014  1.00 16.05 LIG-0.35  N 
ATOM     43  C   VAL D   2     -16.006   8.159  -8.517  1.00 15.61 LIG 0.24  C 
ATOM     44 O    VAL D   2     -15.616   7.087  -8.050  1.00 16.79 LIG-0.27  OA
ATOM     45 H    LEU D   3     -15.430   9.798  -9.401  1.00 16.05 LIG 0.16  HD
BRANCH 43 46
ATOM     46  CA  VAL D   2     -17.492   8.416  -8.713  1.00 14.78 LIG 0.18  C 
BRANCH 46 47
ATOM     47  N   VAL D   2     -17.901   7.731  -9.931  1.00 14.77 LIG-0.35  N 
ATOM     48  C   ARG D   1     -18.515   8.377 -10.913  1.00 16.50 LIG 0.25  C 
ATOM     49 O    ARG D   1     -18.740   9.591 -10.888  1.00 16.49 LIG-0.27  OA
ATOM     50 H    VAL D   2     -17.711   6.892  -9.951  1.00 14.77 LIG 0.16  HD
BRANCH 48 51
ATOM     51  CA  ARG D   1     -18.825   7.565 -12.147  1.00 17.64 LIG 0.27  C 
BRANCH 51 52
ATOM     52  N   ARG D   1     -20.217   7.859 -12.575  1.00 17.90 LIG-0.07  N 
ATOM     53 H3   ARG D   1     -20.203   8.296 -13.350  1.00 17.90 LIG 0.28  HD
ATOM     54 H2   ARG D   1     -20.618   8.362 -11.959  1.00 17.90 LIG 0.28  HD
ATOM     55 H1   ARG D   1     -20.665   7.097 -12.673  1.00 17.90 LIG 0.28  HD
ENDBRANCH 51 52
BRANCH 51 56
ATOM     56  CB  ARG D   1     -17.809   7.953 -13.231  1.00 19.06 LIG 0.04  C 
BRANCH 56 57
ATOM     57  CG  ARG D   1     -16.410   8.236 -12.762  1.00 22.89 LIG 0.02  C 
BRANCH 57 58
ATOM     58  CD  ARG D   1     -15.834   9.379 -13.589  1.00 26.83 LIG 0.14  C 
BRANCH 58 59
ATOM     59  NE  ARG D   1     -16.846  10.018 -14.421  1.00 30.01 LIG-0.23  N 
ATOM     60  CZ  ARG D   1     -17.079   9.685 -15.687  1.00 33.71 LIG 0.67  C 
ATOM     61  NH1 ARG D   1     -16.364   8.724 -16.257  1.00 32.13 LIG-0.23  N 
ATOM     62  NH2 ARG D   1     -18.024  10.309 -16.382  1.00 33.53 LIG-0.23  N 
ATOM     63 1HH1 ARG D   1     -15.752   8.320 -15.808  1.00 32.13 LIG 0.17  HD
ATOM     64 2HH1 ARG D   1     -16.512   8.506 -17.075  1.00 32.13 LIG 0.17  HD
ATOM     65 1HH2 ARG D   1     -18.489  10.932 -16.014  1.00 33.53 LIG 0.17  HD
ATOM     66 2HH2 ARG D   1     -18.172  10.090 -17.201  1.00 33.53 LIG 0.17  HD
ATOM     67 HE   ARG D   1     -17.319  10.646 -14.073  1.00 30.01 LIG 0.18  HD
ENDBRANCH 58 59
ENDBRANCH 57 58
ENDBRANCH 56 57
ENDBRANCH 51 56
ENDBRANCH 48 51
ENDBRANCH 46 47
BRANCH 46 68
ATOM     68  CB  VAL D   2     -18.290   7.876  -7.507  1.00 15.28 LIG 0.01  C 
ATOM     69  CG2 VAL D   2     -17.553   8.178  -6.218  1.00 14.68 LIG 0.01  C 
ATOM     70  CG1 VAL D   2     -18.588   6.383  -7.650  1.00 13.75 LIG 0.01  C 
ENDBRANCH 46 68
ENDBRANCH 43 46
ENDBRANCH 41 42
BRANCH 41 71
ATOM     71  CB  LEU D   3     -13.054   9.329 -10.242  1.00 15.85 LIG 0.04  C 
BRANCH 71 72
ATOM     72  CG  LEU D   3     -11.680   8.718 -10.537  1.00 19.10 LIG-0.02  C 
ATOM     73  CD2 LEU D   3     -11.574   8.233 -11.975  1.00 16.59 LIG 0.01  C 
ATOM     74  CD1 LEU D   3     -11.419   7.579  -9.553  1.00 21.08 LIG 0.01  C 
ENDBRANCH 71 72
ENDBRANCH 41 71
ENDBRANCH 1 41
TORSDOF 29
ENDMDL
MODEL 43
USER: ADFR SOLUTION from run 83
USER: SCORE 24.203901 LL:  -5.827 LR: -20.374 RR:   0.000 FEB: -11.723
USER: RMSD 13.916408
USER: SEED 82
USER: STATUS 1 or 2 clusters left
USER: GENES 31
USER: genes 0 Translation |==|  0.58721 0.53860 0.43225
USER: genes 1 Rotation |==|  0.66204 0.46025 0.04676 0.62937
USER: genes 2 Torsion [C]-N--CA-[CB] |==|  0.86890
USER: genes 3 Torsion [N]-CA--CB-[CG] |==|  0.39238
USER: genes 4 Torsion [CA]-CB--CG-[CD1] |==|  0.73685
USER: genes 5 Torsion [N]-CA--C-[N] |==|  0.40403
USER: genes 6 Torsion [C]-N--CA-[C] |==|  0.64370
USER: genes 7 Torsion [N]-CA--CB-[CG] |==|  0.10981
USER: genes 8 Torsion [CA]-CB--CG-[CD] |==|  0.35794
USER: genes 9 Torsion [CB]-CG--CD-[OE1] |==|  0.86215
USER: genes 10 Torsion [N]-CA--C-[N] |==|  0.80384
USER: genes 11 Torsion [C]-N--CA-[CB] |==|  0.75774
USER: genes 12 Torsion [N]-CA--C-[N] |==|  0.20946
USER: genes 13 Torsion [C]-N--CA-[CB] |==|  0.30428
USER: genes 14 Torsion [N]-CA--C-[OXT] |==|  0.27104
USER: genes 15 Torsion [N]-CA--CB-[CG] |==|  0.73073
USER: genes 16 Torsion [CA]-CB--CG-[SD] |==|  0.71749
USER: genes 17 Torsion [CB]-CG--SD-[CE] |==|  0.92001
USER: genes 18 Torsion [N]-C--CA-[N] |==|  0.68633
USER: genes 19 Torsion [C]-CA--N-[C] |==|  0.14557
USER: genes 20 Torsion [N]-C--CA-[N] |==|  0.87222
USER: genes 21 Torsion [C]-CA--N-[C] |==|  0.79813
USER: genes 22 Torsion [N]-C--CA-[N] |==|  0.59359
USER: genes 23 Torsion [C]-CA--N-[H1] |==|  0.08982
USER: genes 24 Torsion [C]-CA--CB-[CG] |==|  0.23434
USER: genes 25 Torsion [CA]-CB--CG-[CD] |==|  0.19874
USER: genes 26 Torsion [CB]-CG--CD-[NE] |==|  0.72633
USER: genes 27 Torsion [CG]-CD--NE-[CZ] |==|  0.32038
USER: genes 28 Torsion [C]-CA--CB-[CG2] |==|  0.50486
USER: genes 29 Torsion [C]-CA--CB-[CG] |==|  0.35666
USER: genes 30 Torsion [CA]-CB--CG-[CD2] |==|  0.15477
ROOT
ATOM      1  C   LEU D   3     -12.447   9.100  -7.381  1.00 15.92 LIG 0.24  C 
ATOM      2 O    LEU D   3     -13.379   9.795  -6.977  1.00 19.39 LIG-0.27  OA
ATOM      3  N   PHE D   4     -12.618   8.144  -8.285  1.00 13.65 LIG-0.35  N 
ATOM      4 H    PHE D   4     -11.984   7.802  -8.755  1.00 13.65 LIG 0.16  HD
ENDROOT
BRANCH 3 5
ATOM      5  CA  PHE D   4     -13.929   7.599  -8.542  1.00 13.25 LIG 0.18  C 
BRANCH 5 6
ATOM      6  CB  PHE D   4     -14.610   7.277  -7.203  1.00 13.20 LIG 0.07  C 
BRANCH 6 7
ATOM      7  CG  PHE D   4     -16.063   7.589  -7.178  1.00 13.63 LIG-0.06  A 
ATOM      8  CD1 PHE D   4     -16.516   8.807  -6.684  1.00 13.10 LIG 0.01  A 
ATOM      9  CE1 PHE D   4     -17.871   9.106  -6.685  1.00 15.10 LIG 0.00  A 
ATOM     10  CZ  PHE D   4     -18.785   8.190  -7.201  1.00 15.27 LIG 0.00  A 
ATOM     11  CE2 PHE D   4     -18.329   6.983  -7.722  1.00 13.31 LIG 0.00  A 
ATOM     12  CD2 PHE D   4     -16.981   6.688  -7.690  1.00 12.44 LIG 0.01  A 
ENDBRANCH 6 7
ENDBRANCH 5 6
BRANCH 5 13
ATOM     13  C   PHE D   4     -14.715   8.648  -9.328  1.00 14.19 LIG 0.24  C 
ATOM     14 O    PHE D   4     -14.466   9.842  -9.192  1.00 15.09 LIG-0.27  OA
ATOM     15  N   GLU D   5     -15.573   8.210 -10.239  1.00 15.42 LIG-0.35  N 
ATOM     16 H    GLU D   5     -15.672   7.385 -10.458  1.00 15.42 LIG 0.16  HD
BRANCH 15 17
ATOM     17  CA  GLU D   5     -16.435   9.138 -10.950  1.00 15.66 LIG 0.18  C 
BRANCH 17 18
ATOM     18  CB  GLU D   5     -16.002   9.269 -12.419  1.00 15.74 LIG 0.04  C 
BRANCH 18 19
ATOM     19  CG  GLU D   5     -15.570   7.973 -13.071  1.00 13.49 LIG 0.12  C 
BRANCH 19 20
ATOM     20  CD  GLU D   5     -16.275   7.723 -14.392  1.00 17.86 LIG 0.17  C 
ATOM     21 OE1  GLU D   5     -17.521   7.832 -14.424  1.00 19.55 LIG-0.65  OA
ATOM     22 OE2  GLU D   5     -15.587   7.483 -15.414  1.00 19.96 LIG-0.65  OA
ENDBRANCH 19 20
ENDBRANCH 18 19
ENDBRANCH 17 18
BRANCH 17 23
ATOM     23  C   GLU D   5     -17.870   8.652 -10.841  1.00 17.50 LIG 0.24  C 
ATOM     24 O    GLU D   5     -18.695   9.278 -10.174  1.00 17.10 LIG-0.27  OA
ATOM     25  N   ALA D   6     -18.171   7.555 -11.526  1.00 19.03 LIG-0.35  N 
ATOM     26 H    ALA D   6     -17.607   7.112 -12.000  1.00 19.03 LIG 0.16  HD
BRANCH 25 27
ATOM     27  CA  ALA D   6     -19.520   7.007 -11.524  1.00 21.37 LIG 0.17  C 
ATOM     28  CB  ALA D   6     -19.702   6.067 -10.354  1.00 21.30 LIG 0.04  C 
BRANCH 27 29
ATOM     29  C   ALA D   6     -20.526   8.144 -11.453  1.00 24.24 LIG 0.24  C 
ATOM     30 O    ALA D   6     -21.117   8.401 -10.404  1.00 22.56 LIG-0.27  OA
ATOM     31  N   MET D   7     -20.707   8.830 -12.575  1.00 27.55 LIG-0.34  N 
ATOM     32 H    MET D   7     -20.371   8.607 -13.334  1.00 27.55 LIG 0.16  HD
BRANCH 31 33
ATOM     33  CA  MET D   7     -21.513  10.044 -12.607  1.00 30.72 LIG 0.19  C 
BRANCH 33 34
ATOM     34  C   MET D   7     -22.555   9.929 -13.710  1.00 33.25 LIG 0.20  C 
ATOM     35 O    MET D   7     -22.273  10.272 -14.865  1.00 35.29 LIG-0.65  OA
ATOM     36 OXT  MET D   7     -23.717   9.578 -13.458  1.00 35.43 LIG-0.65  OA
ENDBRANCH 33 34
BRANCH 33 37
ATOM     37  CB  MET D   7     -20.611  11.266 -12.817  1.00 30.73 LIG 0.05  C 
BRANCH 37 38
ATOM     38  CG  MET D   7     -20.218  12.016 -11.560  1.00 32.79 LIG 0.08  C 
BRANCH 38 39
ATOM     39 SD   MET D   7     -21.188  13.511 -11.350  1.00 33.89 LIG-0.17  SA
ATOM     40  CE  MET D   7     -21.570  13.942 -13.047  1.00 31.39 LIG 0.09  C 
ENDBRANCH 38 39
ENDBRANCH 37 38
ENDBRANCH 33 37
ENDBRANCH 31 33
ENDBRANCH 27 29
ENDBRANCH 25 27
ENDBRANCH 17 23
ENDBRANCH 15 17
ENDBRANCH 5 13
ENDBRANCH 3 5
BRANCH 1 41
ATOM     41  CA  LEU D   3     -11.037   9.265  -6.820  1.00 16.32 LIG 0.18  C 
BRANCH 41 42
ATOM     42  N   LEU D   3     -10.944   8.914  -5.408  1.00 16.05 LIG-0.35  N 
ATOM     43  C   VAL D   2     -11.388   7.743  -4.958  1.00 15.61 LIG 0.24  C 
ATOM     44 O    VAL D   2     -11.979   6.934  -5.676  1.00 16.79 LIG-0.27  OA
ATOM     45 H    LEU D   3     -10.586   9.518  -4.911  1.00 16.05 LIG 0.16  HD
BRANCH 43 46
ATOM     46  CA  VAL D   2     -11.296   7.514  -3.457  1.00 14.78 LIG 0.18  C 
BRANCH 46 47
ATOM     47  N   VAL D   2      -9.969   7.932  -3.028  1.00 14.77 LIG-0.35  N 
ATOM     48  C   ARG D   1      -8.892   7.215  -3.318  1.00 16.50 LIG 0.25  C 
ATOM     49 O    ARG D   1      -8.928   6.185  -3.997  1.00 16.49 LIG-0.27  OA
ATOM     50 H    VAL D   2      -9.952   8.668  -2.583  1.00 14.77 LIG 0.16  HD
BRANCH 48 51
ATOM     51  CA  ARG D   1      -7.572   7.794  -2.872  1.00 17.64 LIG 0.27  C 
BRANCH 51 52
ATOM     52  N   ARG D   1      -6.529   7.428  -3.865  1.00 17.90 LIG-0.07  N 
ATOM     53 H3   ARG D   1      -6.181   6.637  -3.653  1.00 17.90 LIG 0.28  HD
ATOM     54 H2   ARG D   1      -5.887   8.045  -3.862  1.00 17.90 LIG 0.28  HD
ATOM     55 H1   ARG D   1      -6.894   7.384  -4.675  1.00 17.90 LIG 0.28  HD
ENDBRANCH 51 52
BRANCH 51 56
ATOM     56  CB  ARG D   1      -7.739   9.317  -2.767  1.00 19.06 LIG 0.04  C 
BRANCH 56 57
ATOM     57  CG  ARG D   1      -8.314   9.837  -1.479  1.00 22.89 LIG 0.02  C 
BRANCH 57 58
ATOM     58  CD  ARG D   1      -7.274   9.683  -0.377  1.00 26.83 LIG 0.14  C 
BRANCH 58 59
ATOM     59  NE  ARG D   1      -7.501   8.491   0.431  1.00 30.01 LIG-0.23  N 
ATOM     60  CZ  ARG D   1      -6.660   7.463   0.483  1.00 33.71 LIG 0.67  C 
ATOM     61  NH1 ARG D   1      -5.544   7.489  -0.233  1.00 32.13 LIG-0.23  N 
ATOM     62  NH2 ARG D   1      -6.932   6.411   1.249  1.00 33.53 LIG-0.23  N 
ATOM     63 1HH1 ARG D   1      -5.367   8.168  -0.728  1.00 32.13 LIG 0.17  HD
ATOM     64 2HH1 ARG D   1      -4.997   6.825  -0.201  1.00 32.13 LIG 0.17  HD
ATOM     65 1HH2 ARG D   1      -7.655   6.393   1.714  1.00 33.53 LIG 0.17  HD
ATOM     66 2HH2 ARG D   1      -6.385   5.749   1.280  1.00 33.53 LIG 0.17  HD
ATOM     67 HE   ARG D   1      -8.220   8.451   0.900  1.00 30.01 LIG 0.18  HD
ENDBRANCH 58 59
ENDBRANCH 57 58
ENDBRANCH 56 57
ENDBRANCH 51 56
ENDBRANCH 48 51
ENDBRANCH 46 47
BRANCH 46 68
ATOM     68  CB  VAL D   2     -12.375   8.339  -2.724  1.00 15.28 LIG 0.01  C 
ATOM     69  CG2 VAL D   2     -12.252   8.142  -1.226  1.00 14.68 LIG 0.01  C 
ATOM     70  CG1 VAL D   2     -13.781   8.001  -3.223  1.00 13.75 LIG 0.01  C 
ENDBRANCH 46 68
ENDBRANCH 43 46
ENDBRANCH 41 42
BRANCH 41 71
ATOM     71  CB  LEU D   3     -10.029   8.466  -7.652  1.00 15.85 LIG 0.04  C 
BRANCH 71 72
ATOM     72  CG  LEU D   3      -8.796   9.225  -8.152  1.00 19.10 LIG-0.02  C 
ATOM     73  CD2 LEU D   3      -8.031   9.877  -7.010  1.00 16.59 LIG 0.01  C 
ATOM     74  CD1 LEU D   3      -9.233  10.265  -9.183  1.00 21.08 LIG 0.01  C 
ENDBRANCH 71 72
ENDBRANCH 41 71
ENDBRANCH 1 41
TORSDOF 29
ENDMDL
MODEL 44
USER: ADFR SOLUTION from run 11
USER: SCORE 24.087807 LL:  -6.525 LR: -20.363 RR:   0.000 FEB: -11.713
USER: RMSD 13.392730
USER: SEED 685891
USER: STATUS 1 or 2 clusters left
USER: GENES 31
USER: genes 0 Translation |==|  0.60204 0.54639 0.41666
USER: genes 1 Rotation |==|  0.63333 0.23783 0.09990 0.55834
USER: genes 2 Torsion [C]-N--CA-[CB] |==|  0.89975
USER: genes 3 Torsion [N]-CA--CB-[CG] |==|  0.55331
USER: genes 4 Torsion [CA]-CB--CG-[CD1] |==|  0.20735
USER: genes 5 Torsion [N]-CA--C-[N] |==|  0.81775
USER: genes 6 Torsion [C]-N--CA-[C] |==|  0.21345
USER: genes 7 Torsion [N]-CA--CB-[CG] |==|  0.63172
USER: genes 8 Torsion [CA]-CB--CG-[CD] |==|  0.77479
USER: genes 9 Torsion [CB]-CG--CD-[OE1] |==|  0.23906
USER: genes 10 Torsion [N]-CA--C-[N] |==|  0.52859
USER: genes 11 Torsion [C]-N--CA-[CB] |==|  0.52222
USER: genes 12 Torsion [N]-CA--C-[N] |==|  0.28361
USER: genes 13 Torsion [C]-N--CA-[CB] |==|  0.16761
USER: genes 14 Torsion [N]-CA--C-[OXT] |==|  0.49833
USER: genes 15 Torsion [N]-CA--CB-[CG] |==|  0.51423
USER: genes 16 Torsion [CA]-CB--CG-[SD] |==|  0.15929
USER: genes 17 Torsion [CB]-CG--SD-[CE] |==|  0.18278
USER: genes 18 Torsion [N]-C--CA-[N] |==|  0.89529
USER: genes 19 Torsion [C]-CA--N-[C] |==|  0.79689
USER: genes 20 Torsion [N]-C--CA-[N] |==|  0.27333
USER: genes 21 Torsion [C]-CA--N-[C] |==|  0.70112
USER: genes 22 Torsion [N]-C--CA-[N] |==|  0.37711
USER: genes 23 Torsion [C]-CA--N-[H1] |==|  0.57152
USER: genes 24 Torsion [C]-CA--CB-[CG] |==|  0.38619
USER: genes 25 Torsion [CA]-CB--CG-[CD] |==|  0.14699
USER: genes 26 Torsion [CB]-CG--CD-[NE] |==|  0.56915
USER: genes 27 Torsion [CG]-CD--NE-[CZ] |==|  0.80753
USER: genes 28 Torsion [C]-CA--CB-[CG2] |==|  0.49895
USER: genes 29 Torsion [C]-CA--CB-[CG] |==|  0.03286
USER: genes 30 Torsion [CA]-CB--CG-[CD2] |==|  0.68377
ROOT
ATOM      1  C   LEU D   3     -12.025   9.199  -7.825  1.00 15.92 LIG 0.24  C 
ATOM      2 O    LEU D   3     -12.454  10.234  -8.334  1.00 19.39 LIG-0.27  OA
ATOM      3  N   PHE D   4     -12.669   8.044  -7.920  1.00 13.65 LIG-0.35  N 
ATOM      4 H    PHE D   4     -12.309   7.274  -7.789  1.00 13.65 LIG 0.16  HD
ENDROOT
BRANCH 3 5
ATOM      5  CA  PHE D   4     -14.071   8.009  -8.262  1.00 13.25 LIG 0.18  C 
BRANCH 5 6
ATOM      6  CB  PHE D   4     -14.775   9.214  -7.618  1.00 13.20 LIG 0.07  C 
BRANCH 6 7
ATOM      7  CG  PHE D   4     -16.249   9.060  -7.508  1.00 13.63 LIG-0.06  A 
ATOM      8  CD1 PHE D   4     -16.802   8.219  -6.550  1.00 13.10 LIG 0.01  A 
ATOM      9  CE1 PHE D   4     -18.179   8.097  -6.432  1.00 15.10 LIG 0.00  A 
ATOM     10  CZ  PHE D   4     -19.017   8.834  -7.266  1.00 15.27 LIG 0.00  A 
ATOM     11  CE2 PHE D   4     -18.464   9.699  -8.206  1.00 13.31 LIG 0.00  A 
ATOM     12  CD2 PHE D   4     -17.092   9.790  -8.329  1.00 12.44 LIG 0.01  A 
ENDBRANCH 6 7
ENDBRANCH 5 6
BRANCH 5 13
ATOM     13  C   PHE D   4     -14.172   8.054  -9.786  1.00 14.19 LIG 0.24  C 
ATOM     14 O    PHE D   4     -14.719   7.143 -10.401  1.00 15.09 LIG-0.27  OA
ATOM     15  N   GLU D   5     -13.763   9.161 -10.391  1.00 15.42 LIG-0.35  N 
ATOM     16 H    GLU D   5     -13.505   9.872  -9.982  1.00 15.42 LIG 0.16  HD
BRANCH 15 17
ATOM     17  CA  GLU D   5     -13.726   9.242 -11.841  1.00 15.66 LIG 0.18  C 
BRANCH 17 18
ATOM     18  CB  GLU D   5     -13.092   7.978 -12.442  1.00 15.74 LIG 0.04  C 
BRANCH 18 19
ATOM     19  CG  GLU D   5     -12.039   8.238 -13.498  1.00 13.49 LIG 0.12  C 
BRANCH 19 20
ATOM     20  CD  GLU D   5     -12.641   8.529 -14.861  1.00 17.86 LIG 0.17  C 
ATOM     21 OE1  GLU D   5     -12.968   9.708 -15.121  1.00 19.55 LIG-0.65  OA
ATOM     22 OE2  GLU D   5     -12.729   7.598 -15.700  1.00 19.96 LIG-0.65  OA
ENDBRANCH 19 20
ENDBRANCH 18 19
ENDBRANCH 17 18
BRANCH 17 23
ATOM     23  C   GLU D   5     -15.141   9.444 -12.353  1.00 17.50 LIG 0.24  C 
ATOM     24 O    GLU D   5     -16.054   9.733 -11.577  1.00 17.10 LIG-0.27  OA
ATOM     25  N   ALA D   6     -15.313   9.328 -13.665  1.00 19.03 LIG-0.35  N 
ATOM     26 H    ALA D   6     -14.684   9.133 -14.218  1.00 19.03 LIG 0.16  HD
BRANCH 25 27
ATOM     27  CA  ALA D   6     -16.617   9.528 -14.279  1.00 21.37 LIG 0.17  C 
ATOM     28  CB  ALA D   6     -16.572   9.146 -15.742  1.00 21.30 LIG 0.04  C 
BRANCH 27 29
ATOM     29  C   ALA D   6     -17.653   8.692 -13.545  1.00 24.24 LIG 0.24  C 
ATOM     30 O    ALA D   6     -17.741   7.480 -13.738  1.00 22.56 LIG-0.27  OA
ATOM     31  N   MET D   7     -18.432   9.351 -12.694  1.00 27.55 LIG-0.34  N 
ATOM     32 H    MET D   7     -18.443  10.207 -12.616  1.00 27.55 LIG 0.16  HD
BRANCH 31 33
ATOM     33  CA  MET D   7     -19.352   8.653 -11.804  1.00 30.72 LIG 0.19  C 
BRANCH 33 34
ATOM     34  C   MET D   7     -20.152   9.672 -11.007  1.00 33.25 LIG 0.20  C 
ATOM     35 O    MET D   7     -19.891  10.878 -11.105  1.00 35.29 LIG-0.65  OA
ATOM     36 OXT  MET D   7     -21.010   9.312 -10.188  1.00 35.43 LIG-0.65  OA
ENDBRANCH 33 34
BRANCH 33 37
ATOM     37  CB  MET D   7     -18.573   7.709 -10.881  1.00 30.73 LIG 0.05  C 
BRANCH 37 38
ATOM     38  CG  MET D   7     -19.415   6.827  -9.981  1.00 32.79 LIG 0.08  C 
BRANCH 38 39
ATOM     39 SD   MET D   7     -20.554   5.812 -10.926  1.00 33.89 LIG-0.17  SA
ATOM     40  CE  MET D   7     -19.434   4.742 -11.825  1.00 31.39 LIG 0.09  C 
ENDBRANCH 38 39
ENDBRANCH 37 38
ENDBRANCH 33 37
ENDBRANCH 31 33
ENDBRANCH 27 29
ENDBRANCH 25 27
ENDBRANCH 17 23
ENDBRANCH 15 17
ENDBRANCH 5 13
ENDBRANCH 3 5
BRANCH 1 41
ATOM     41  CA  LEU D   3     -10.738   9.197  -7.003  1.00 16.32 LIG 0.18  C 
BRANCH 41 42
ATOM     42  N   LEU D   3     -10.822   8.346  -5.822  1.00 16.05 LIG-0.35  N 
ATOM     43  C   VAL D   2     -11.543   8.706  -4.762  1.00 15.61 LIG 0.24  C 
ATOM     44 O    VAL D   2     -12.100   9.802  -4.676  1.00 16.79 LIG-0.27  OA
ATOM     45 H    LEU D   3     -10.375   7.613  -5.876  1.00 16.05 LIG 0.16  HD
BRANCH 43 46
ATOM     46  CA  VAL D   2     -11.505   7.767  -3.566  1.00 14.78 LIG 0.18  C 
BRANCH 46 47
ATOM     47  N   VAL D   2     -10.539   8.301  -2.616  1.00 14.77 LIG-0.35  N 
ATOM     48  C   ARG D   1      -9.362   7.721  -2.429  1.00 16.50 LIG 0.25  C 
ATOM     49 O    ARG D   1      -8.986   6.732  -3.065  1.00 16.49 LIG-0.27  OA
ATOM     50 H    VAL D   2     -10.800   9.009  -2.202  1.00 14.77 LIG 0.16  HD
BRANCH 48 51
ATOM     51  CA  ARG D   1      -8.430   8.414  -1.465  1.00 17.64 LIG 0.27  C 
BRANCH 51 52
ATOM     52  N   ARG D   1      -7.818   7.394  -0.575  1.00 17.90 LIG-0.07  N 
ATOM     53 H3   ARG D   1      -7.097   7.050  -0.968  1.00 17.90 LIG 0.28  HD
ATOM     54 H2   ARG D   1      -8.407   6.745  -0.418  1.00 17.90 LIG 0.28  HD
ATOM     55 H1   ARG D   1      -7.583   7.774   0.194  1.00 17.90 LIG 0.28  HD
ENDBRANCH 51 52
BRANCH 51 56
ATOM     56  CB  ARG D   1      -7.364   9.150  -2.291  1.00 19.06 LIG 0.04  C 
BRANCH 56 57
ATOM     57  CG  ARG D   1      -6.982  10.523  -1.811  1.00 22.89 LIG 0.02  C 
BRANCH 57 58
ATOM     58  CD  ARG D   1      -6.594  10.441  -0.340  1.00 26.83 LIG 0.14  C 
BRANCH 58 59
ATOM     59  NE  ARG D   1      -6.772  11.714   0.347  1.00 30.01 LIG-0.23  N 
ATOM     60  CZ  ARG D   1      -6.019  12.786   0.121  1.00 33.71 LIG 0.67  C 
ATOM     61  NH1 ARG D   1      -5.037  12.725  -0.769  1.00 32.13 LIG-0.23  N 
ATOM     62  NH2 ARG D   1      -6.244  13.917   0.783  1.00 33.53 LIG-0.23  N 
ATOM     63 1HH1 ARG D   1      -4.890  11.995  -1.197  1.00 32.13 LIG 0.17  HD
ATOM     64 2HH1 ARG D   1      -4.548  13.417  -0.917  1.00 32.13 LIG 0.17  HD
ATOM     65 1HH2 ARG D   1      -6.881  13.958   1.360  1.00 33.53 LIG 0.17  HD
ATOM     66 2HH2 ARG D   1      -5.755  14.608   0.633  1.00 33.53 LIG 0.17  HD
ATOM     67 HE   ARG D   1      -7.400  11.775   0.931  1.00 30.01 LIG 0.18  HD
ENDBRANCH 58 59
ENDBRANCH 57 58
ENDBRANCH 56 57
ENDBRANCH 51 56
ENDBRANCH 48 51
ENDBRANCH 46 47
BRANCH 46 68
ATOM     68  CB  VAL D   2     -12.900   7.679  -2.912  1.00 15.28 LIG 0.01  C 
ATOM     69  CG2 VAL D   2     -12.860   6.735  -1.727  1.00 14.68 LIG 0.01  C 
ATOM     70  CG1 VAL D   2     -13.973   7.269  -3.923  1.00 13.75 LIG 0.01  C 
ENDBRANCH 46 68
ENDBRANCH 43 46
ENDBRANCH 41 42
BRANCH 41 71
ATOM     71  CB  LEU D   3      -9.540   8.809  -7.876  1.00 15.85 LIG 0.04  C 
BRANCH 71 72
ATOM     72  CG  LEU D   3      -9.774   8.780  -9.389  1.00 19.10 LIG-0.02  C 
ATOM     73  CD2 LEU D   3      -9.664   7.372  -9.952  1.00 16.59 LIG 0.01  C 
ATOM     74  CD1 LEU D   3      -8.779   9.721 -10.067  1.00 21.08 LIG 0.01  C 
ENDBRANCH 71 72
ENDBRANCH 41 71
ENDBRANCH 1 41
TORSDOF 29
ENDMDL
MODEL 45
USER: ADFR SOLUTION from run 157
USER: SCORE 24.051824 LL:  -6.062 LR: -20.357 RR:   0.000 FEB: -11.706
USER: RMSD 13.542517
USER: SEED 156
USER: STATUS no improvement in best in 3 clusters for 5 generations
USER: GENES 31
USER: genes 0 Translation |==|  0.57898 0.39167 0.42326
USER: genes 1 Rotation |==|  0.59519 0.83094 0.19122 0.68993
USER: genes 2 Torsion [C]-N--CA-[CB] |==|  0.18261
USER: genes 3 Torsion [N]-CA--CB-[CG] |==|  0.11847
USER: genes 4 Torsion [CA]-CB--CG-[CD1] |==|  0.13025
USER: genes 5 Torsion [N]-CA--C-[N] |==|  0.06250
USER: genes 6 Torsion [C]-N--CA-[C] |==|  0.14510
USER: genes 7 Torsion [N]-CA--CB-[CG] |==|  0.54990
USER: genes 8 Torsion [CA]-CB--CG-[CD] |==|  0.65806
USER: genes 9 Torsion [CB]-CG--CD-[OE1] |==|  0.03304
USER: genes 10 Torsion [N]-CA--C-[N] |==|  0.63417
USER: genes 11 Torsion [C]-N--CA-[CB] |==|  0.46984
USER: genes 12 Torsion [N]-CA--C-[N] |==|  0.32224
USER: genes 13 Torsion [C]-N--CA-[CB] |==|  0.40138
USER: genes 14 Torsion [N]-CA--C-[OXT] |==|  0.44229
USER: genes 15 Torsion [N]-CA--CB-[CG] |==|  0.05742
USER: genes 16 Torsion [CA]-CB--CG-[SD] |==|  0.20424
USER: genes 17 Torsion [CB]-CG--SD-[CE] |==|  0.42346
USER: genes 18 Torsion [N]-C--CA-[N] |==|  0.47138
USER: genes 19 Torsion [C]-CA--N-[C] |==|  0.79127
USER: genes 20 Torsion [N]-C--CA-[N] |==|  0.18996
USER: genes 21 Torsion [C]-CA--N-[C] |==|  0.69213
USER: genes 22 Torsion [N]-C--CA-[N] |==|  0.84186
USER: genes 23 Torsion [C]-CA--N-[H1] |==|  0.34549
USER: genes 24 Torsion [C]-CA--CB-[CG] |==|  0.36131
USER: genes 25 Torsion [CA]-CB--CG-[CD] |==|  0.70702
USER: genes 26 Torsion [CB]-CG--CD-[NE] |==|  0.29301
USER: genes 27 Torsion [CG]-CD--NE-[CZ] |==|  0.50031
USER: genes 28 Torsion [C]-CA--CB-[CG2] |==|  0.51680
USER: genes 29 Torsion [C]-CA--CB-[CG] |==|  0.24436
USER: genes 30 Torsion [CA]-CB--CG-[CD2] |==|  0.67705
ROOT
ATOM      1  C   LEU D   3     -12.682   7.227  -7.637  1.00 15.92 LIG 0.24  C 
ATOM      2 O    LEU D   3     -13.082   6.230  -7.037  1.00 19.39 LIG-0.27  OA
ATOM      3  N   PHE D   4     -13.206   7.615  -8.792  1.00 13.65 LIG-0.35  N 
ATOM      4 H    PHE D   4     -13.126   8.405  -9.121  1.00 13.65 LIG 0.16  HD
ENDROOT
BRANCH 3 5
ATOM      5  CA  PHE D   4     -13.974   6.696  -9.598  1.00 13.25 LIG 0.18  C 
BRANCH 5 6
ATOM      6  CB  PHE D   4     -15.260   6.322  -8.844  1.00 13.20 LIG 0.07  C 
BRANCH 6 7
ATOM      7  CG  PHE D   4     -15.925   7.475  -8.182  1.00 13.63 LIG-0.06  A 
ATOM      8  CD1 PHE D   4     -16.121   8.667  -8.871  1.00 13.10 LIG 0.01  A 
ATOM      9  CE1 PHE D   4     -16.765   9.734  -8.259  1.00 15.10 LIG 0.00  A 
ATOM     10  CZ  PHE D   4     -17.236   9.607  -6.954  1.00 15.27 LIG 0.00  A 
ATOM     11  CE2 PHE D   4     -17.066   8.404  -6.276  1.00 13.31 LIG 0.00  A 
ATOM     12  CD2 PHE D   4     -16.400   7.361  -6.887  1.00 12.44 LIG 0.01  A 
ENDBRANCH 6 7
ENDBRANCH 5 6
BRANCH 5 13
ATOM     13  C   PHE D   4     -14.288   7.397 -10.919  1.00 14.19 LIG 0.24  C 
ATOM     14 O    PHE D   4     -15.302   7.112 -11.549  1.00 15.09 LIG-0.27  OA
ATOM     15  N   GLU D   5     -13.495   8.396 -11.282  1.00 15.42 LIG-0.35  N 
ATOM     16 H    GLU D   5     -12.859   8.713 -10.797  1.00 15.42 LIG 0.16  HD
BRANCH 15 17
ATOM     17  CA  GLU D   5     -13.660   9.042 -12.572  1.00 15.66 LIG 0.18  C 
BRANCH 17 18
ATOM     18  CB  GLU D   5     -13.231   8.104 -13.711  1.00 15.74 LIG 0.04  C 
BRANCH 18 19
ATOM     19  CG  GLU D   5     -12.957   8.793 -15.031  1.00 13.49 LIG 0.12  C 
BRANCH 19 20
ATOM     20  CD  GLU D   5     -13.805   8.239 -16.163  1.00 17.86 LIG 0.17  C 
ATOM     21 OE1  GLU D   5     -14.757   7.483 -15.869  1.00 19.55 LIG-0.65  OA
ATOM     22 OE2  GLU D   5     -13.566   8.607 -17.339  1.00 19.96 LIG-0.65  OA
ENDBRANCH 19 20
ENDBRANCH 18 19
ENDBRANCH 17 18
BRANCH 17 23
ATOM     23  C   GLU D   5     -15.112   9.462 -12.724  1.00 17.50 LIG 0.24  C 
ATOM     24 O    GLU D   5     -15.677  10.098 -11.833  1.00 17.10 LIG-0.27  OA
ATOM     25  N   ALA D   6     -15.701   9.135 -13.868  1.00 19.03 LIG-0.35  N 
ATOM     26 H    ALA D   6     -15.317   8.697 -14.500  1.00 19.03 LIG 0.16  HD
BRANCH 25 27
ATOM     27  CA  ALA D   6     -17.081   9.507 -14.144  1.00 21.37 LIG 0.17  C 
ATOM     28  CB  ALA D   6     -17.414   9.251 -15.597  1.00 21.30 LIG 0.04  C 
BRANCH 27 29
ATOM     29  C   ALA D   6     -18.008   8.709 -13.240  1.00 24.24 LIG 0.24  C 
ATOM     30 O    ALA D   6     -18.074   7.483 -13.325  1.00 22.56 LIG-0.27  OA
ATOM     31  N   MET D   7     -18.716   9.416 -12.366  1.00 27.55 LIG-0.34  N 
ATOM     32 H    MET D   7     -18.747  10.275 -12.356  1.00 27.55 LIG 0.16  HD
BRANCH 31 33
ATOM     33  CA  MET D   7     -19.515   8.772 -11.332  1.00 30.72 LIG 0.19  C 
BRANCH 33 34
ATOM     34  C   MET D   7     -20.938   8.585 -11.836  1.00 33.25 LIG 0.20  C 
ATOM     35 O    MET D   7     -21.387   9.335 -12.713  1.00 35.29 LIG-0.65  OA
ATOM     36 OXT  MET D   7     -21.694   7.747 -11.324  1.00 35.43 LIG-0.65  OA
ENDBRANCH 33 34
BRANCH 33 37
ATOM     37  CB  MET D   7     -19.484   9.609 -10.048  1.00 30.73 LIG 0.05  C 
BRANCH 37 38
ATOM     38  CG  MET D   7     -19.104  11.066 -10.223  1.00 32.79 LIG 0.08  C 
BRANCH 38 39
ATOM     39 SD   MET D   7     -20.432  12.012 -10.973  1.00 33.89 LIG-0.17  SA
ATOM     40  CE  MET D   7     -20.125  13.654 -10.325  1.00 31.39 LIG 0.09  C 
ENDBRANCH 38 39
ENDBRANCH 37 38
ENDBRANCH 33 37
ENDBRANCH 31 33
ENDBRANCH 27 29
ENDBRANCH 25 27
ENDBRANCH 17 23
ENDBRANCH 15 17
ENDBRANCH 5 13
ENDBRANCH 3 5
BRANCH 1 41
ATOM     41  CA  LEU D   3     -11.512   8.053  -7.107  1.00 16.32 LIG 0.18  C 
BRANCH 41 42
ATOM     42  N   LEU D   3     -11.154   7.713  -5.735  1.00 16.05 LIG-0.35  N 
ATOM     43  C   VAL D   2     -11.902   8.110  -4.708  1.00 15.61 LIG 0.24  C 
ATOM     44 O    VAL D   2     -12.875   8.854  -4.841  1.00 16.79 LIG-0.27  OA
ATOM     45 H    LEU D   3     -10.436   7.246  -5.658  1.00 16.05 LIG 0.16  HD
BRANCH 43 46
ATOM     46  CA  VAL D   2     -11.395   7.749  -3.321  1.00 14.78 LIG 0.18  C 
BRANCH 46 47
ATOM     47  N   VAL D   2     -10.185   8.523  -3.078  1.00 14.77 LIG-0.35  N 
ATOM     48  C   ARG D   1      -8.995   7.941  -3.014  1.00 16.50 LIG 0.25  C 
ATOM     49 O    ARG D   1      -8.822   6.733  -3.198  1.00 16.49 LIG-0.27  OA
ATOM     50 H    VAL D   2     -10.315   9.368  -2.983  1.00 14.77 LIG 0.16  HD
BRANCH 48 51
ATOM     51  CA  ARG D   1      -7.818   8.865  -2.823  1.00 17.64 LIG 0.27  C 
BRANCH 51 52
ATOM     52  N   ARG D   1      -7.808   9.861  -3.926  1.00 17.90 LIG-0.07  N 
ATOM     53 H3   ARG D   1      -8.530   9.749  -4.434  1.00 17.90 LIG 0.28  HD
ATOM     54 H2   ARG D   1      -7.077   9.748  -4.422  1.00 17.90 LIG 0.28  HD
ATOM     55 H1   ARG D   1      -7.811  10.682  -3.584  1.00 17.90 LIG 0.28  HD
ENDBRANCH 51 52
BRANCH 51 56
ATOM     56  CB  ARG D   1      -7.970   9.544  -1.454  1.00 19.06 LIG 0.04  C 
BRANCH 56 57
ATOM     57  CG  ARG D   1      -6.767   9.505  -0.554  1.00 22.89 LIG 0.02  C 
BRANCH 57 58
ATOM     58  CD  ARG D   1      -7.012   8.489   0.554  1.00 26.83 LIG 0.14  C 
BRANCH 58 59
ATOM     59  NE  ARG D   1      -6.252   7.262   0.352  1.00 30.01 LIG-0.23  N 
ATOM     60  CZ  ARG D   1      -6.295   6.222   1.179  1.00 33.71 LIG 0.67  C 
ATOM     61  NH1 ARG D   1      -7.058   6.274   2.262  1.00 32.13 LIG-0.23  N 
ATOM     62  NH2 ARG D   1      -5.577   5.132   0.925  1.00 33.53 LIG-0.23  N 
ATOM     63 1HH1 ARG D   1      -7.522   6.978   2.427  1.00 32.13 LIG 0.17  HD
ATOM     64 2HH1 ARG D   1      -7.088   5.603   2.799  1.00 32.13 LIG 0.17  HD
ATOM     65 1HH2 ARG D   1      -5.081   5.097   0.223  1.00 33.53 LIG 0.17  HD
ATOM     66 2HH2 ARG D   1      -5.609   4.462   1.463  1.00 33.53 LIG 0.17  HD
ATOM     67 HE   ARG D   1      -5.747   7.208  -0.342  1.00 30.01 LIG 0.18  HD
ENDBRANCH 58 59
ENDBRANCH 57 58
ENDBRANCH 56 57
ENDBRANCH 51 56
ENDBRANCH 48 51
ENDBRANCH 46 47
BRANCH 46 68
ATOM     68  CB  VAL D   2     -12.463   8.086  -2.258  1.00 15.28 LIG 0.01  C 
ATOM     69  CG2 VAL D   2     -11.901   7.864  -0.868  1.00 14.68 LIG 0.01  C 
ATOM     70  CG1 VAL D   2     -13.749   7.289  -2.479  1.00 13.75 LIG 0.01  C 
ENDBRANCH 46 68
ENDBRANCH 43 46
ENDBRANCH 41 42
BRANCH 41 71
ATOM     71  CB  LEU D   3     -10.301   7.933  -8.037  1.00 15.85 LIG 0.04  C 
BRANCH 71 72
ATOM     72  CG  LEU D   3     -10.224   8.931  -9.197  1.00 19.10 LIG-0.02  C 
ATOM     73  CD2 LEU D   3     -10.304   8.235 -10.547  1.00 16.59 LIG 0.01  C 
ATOM     74  CD1 LEU D   3      -8.936   9.742  -9.073  1.00 21.08 LIG 0.01  C 
ENDBRANCH 71 72
ENDBRANCH 41 71
ENDBRANCH 1 41
TORSDOF 29
ENDMDL
MODEL 46
USER: ADFR SOLUTION from run 81
USER: SCORE 23.663683 LL:  -6.320 LR: -20.336 RR:   0.000 FEB: -11.686
USER: RMSD 4.581221
USER: SEED 80
USER: STATUS 1 or 2 clusters left
USER: GENES 31
USER: genes 0 Translation |==|  0.48844 0.51287 0.42882
USER: genes 1 Rotation |==|  0.06793 0.49986 0.25305 0.54826
USER: genes 2 Torsion [C]-N--CA-[CB] |==|  0.50849
USER: genes 3 Torsion [N]-CA--CB-[CG] |==|  0.54058
USER: genes 4 Torsion [CA]-CB--CG-[CD1] |==|  0.01352
USER: genes 5 Torsion [N]-CA--C-[N] |==|  0.35603
USER: genes 6 Torsion [C]-N--CA-[C] |==|  0.69007
USER: genes 7 Torsion [N]-CA--CB-[CG] |==|  0.71829
USER: genes 8 Torsion [CA]-CB--CG-[CD] |==|  0.97696
USER: genes 9 Torsion [CB]-CG--CD-[OE1] |==|  0.28341
USER: genes 10 Torsion [N]-CA--C-[N] |==|  0.30638
USER: genes 11 Torsion [C]-N--CA-[CB] |==|  0.82220
USER: genes 12 Torsion [N]-CA--C-[N] |==|  0.70345
USER: genes 13 Torsion [C]-N--CA-[CB] |==|  0.21352
USER: genes 14 Torsion [N]-CA--C-[OXT] |==|  0.98563
USER: genes 15 Torsion [N]-CA--CB-[CG] |==|  0.37974
USER: genes 16 Torsion [CA]-CB--CG-[SD] |==|  0.34934
USER: genes 17 Torsion [CB]-CG--SD-[CE] |==|  0.48521
USER: genes 18 Torsion [N]-C--CA-[N] |==|  0.63063
USER: genes 19 Torsion [C]-CA--N-[C] |==|  0.67426
USER: genes 20 Torsion [N]-C--CA-[N] |==|  0.48021
USER: genes 21 Torsion [C]-CA--N-[C] |==|  0.64981
USER: genes 22 Torsion [N]-C--CA-[N] |==|  0.53416
USER: genes 23 Torsion [C]-CA--N-[H1] |==|  0.84829
USER: genes 24 Torsion [C]-CA--CB-[CG] |==|  0.66879
USER: genes 25 Torsion [CA]-CB--CG-[CD] |==|  0.78080
USER: genes 26 Torsion [CB]-CG--CD-[NE] |==|  0.82399
USER: genes 27 Torsion [CG]-CD--NE-[CZ] |==|  0.36465
USER: genes 28 Torsion [C]-CA--CB-[CG2] |==|  0.95899
USER: genes 29 Torsion [C]-CA--CB-[CG] |==|  0.34663
USER: genes 30 Torsion [CA]-CB--CG-[CD2] |==|  0.33331
ROOT
ATOM      1  C   LEU D   3     -15.263   8.772  -7.479  1.00 15.92 LIG 0.24  C 
ATOM      2 O    LEU D   3     -14.576   9.757  -7.747  1.00 19.39 LIG-0.27  OA
ATOM      3  N   PHE D   4     -15.142   8.117  -6.331  1.00 13.65 LIG-0.35  N 
ATOM      4 H    PHE D   4     -15.738   7.587  -6.009  1.00 13.65 LIG 0.16  HD
ENDROOT
BRANCH 3 5
ATOM      5  CA  PHE D   4     -13.956   8.262  -5.522  1.00 13.25 LIG 0.18  C 
BRANCH 5 6
ATOM      6  CB  PHE D   4     -14.066   7.334  -4.301  1.00 13.20 LIG 0.07  C 
BRANCH 6 7
ATOM      7  CG  PHE D   4     -13.085   7.636  -3.227  1.00 13.63 LIG-0.06  A 
ATOM      8  CD1 PHE D   4     -12.244   8.738  -3.329  1.00 13.10 LIG 0.01  A 
ATOM      9  CE1 PHE D   4     -11.346   9.033  -2.312  1.00 15.10 LIG 0.00  A 
ATOM     10  CZ  PHE D   4     -11.297   8.232  -1.173  1.00 15.27 LIG 0.00  A 
ATOM     11  CE2 PHE D   4     -12.159   7.146  -1.059  1.00 13.31 LIG 0.00  A 
ATOM     12  CD2 PHE D   4     -13.029   6.849  -2.089  1.00 12.44 LIG 0.01  A 
ENDBRANCH 6 7
ENDBRANCH 5 6
BRANCH 5 13
ATOM     13  C   PHE D   4     -12.758   7.893  -6.395  1.00 14.19 LIG 0.24  C 
ATOM     14 O    PHE D   4     -12.786   6.888  -7.098  1.00 15.09 LIG-0.27  OA
ATOM     15  N   GLU D   5     -11.757   8.761  -6.453  1.00 15.42 LIG-0.35  N 
ATOM     16 H    GLU D   5     -11.764   9.538  -6.084  1.00 15.42 LIG 0.16  HD
BRANCH 15 17
ATOM     17  CA  GLU D   5     -10.537   8.437  -7.173  1.00 15.66 LIG 0.18  C 
BRANCH 17 18
ATOM     18  CB  GLU D   5     -10.210   9.524  -8.209  1.00 15.74 LIG 0.04  C 
BRANCH 18 19
ATOM     19  CG  GLU D   5     -10.574   9.170  -9.635  1.00 13.49 LIG 0.12  C 
BRANCH 19 20
ATOM     20  CD  GLU D   5     -11.010   7.723  -9.782  1.00 17.86 LIG 0.17  C 
ATOM     21 OE1  GLU D   5     -12.235   7.484  -9.875  1.00 19.55 LIG-0.65  OA
ATOM     22 OE2  GLU D   5     -10.134   6.828  -9.871  1.00 19.96 LIG-0.65  OA
ENDBRANCH 19 20
ENDBRANCH 18 19
ENDBRANCH 17 18
BRANCH 17 23
ATOM     23  C   GLU D   5      -9.408   8.276  -6.170  1.00 17.50 LIG 0.24  C 
ATOM     24 O    GLU D   5      -8.987   9.247  -5.538  1.00 17.10 LIG-0.27  OA
ATOM     25  N   ALA D   6      -8.945   7.043  -6.001  1.00 19.03 LIG-0.35  N 
ATOM     26 H    ALA D   6      -9.234   6.357  -6.430  1.00 19.03 LIG 0.16  HD
BRANCH 25 27
ATOM     27  CA  ALA D   6      -7.883   6.757  -5.047  1.00 21.37 LIG 0.17  C 
ATOM     28  CB  ALA D   6      -6.607   7.457  -5.456  1.00 21.30 LIG 0.04  C 
BRANCH 27 29
ATOM     29  C   ALA D   6      -8.315   7.209  -3.661  1.00 24.24 LIG 0.24  C 
ATOM     30 O    ALA D   6      -9.155   6.575  -3.022  1.00 22.56 LIG-0.27  OA
ATOM     31  N   MET D   7      -7.726   8.305  -3.199  1.00 27.55 LIG-0.34  N 
ATOM     32 H    MET D   7      -7.206   8.805  -3.667  1.00 27.55 LIG 0.16  HD
BRANCH 31 33
ATOM     33  CA  MET D   7      -7.920   8.755  -1.826  1.00 30.72 LIG 0.19  C 
BRANCH 33 34
ATOM     34  C   MET D   7      -7.546  10.226  -1.720  1.00 33.25 LIG 0.20  C 
ATOM     35 O    MET D   7      -7.808  10.858  -0.689  1.00 35.29 LIG-0.65  OA
ATOM     36 OXT  MET D   7      -7.058  10.833  -2.684  1.00 35.43 LIG-0.65  OA
ENDBRANCH 33 34
BRANCH 33 37
ATOM     37  CB  MET D   7      -7.083   7.897  -0.870  1.00 30.73 LIG 0.05  C 
BRANCH 37 38
ATOM     38  CG  MET D   7      -6.345   8.652   0.217  1.00 32.79 LIG 0.08  C 
BRANCH 38 39
ATOM     39 SD   MET D   7      -6.731   8.011   1.848  1.00 33.89 LIG-0.17  SA
ATOM     40  CE  MET D   7      -5.621   8.959   2.887  1.00 31.39 LIG 0.09  C 
ENDBRANCH 38 39
ENDBRANCH 37 38
ENDBRANCH 33 37
ENDBRANCH 31 33
ENDBRANCH 27 29
ENDBRANCH 25 27
ENDBRANCH 17 23
ENDBRANCH 15 17
ENDBRANCH 5 13
ENDBRANCH 3 5
BRANCH 1 41
ATOM     41  CA  LEU D   3     -16.266   8.210  -8.483  1.00 16.32 LIG 0.18  C 
BRANCH 41 42
ATOM     42  N   LEU D   3     -15.724   8.116  -9.833  1.00 16.05 LIG-0.35  N 
ATOM     43  C   VAL D   2     -16.250   8.814 -10.837  1.00 15.61 LIG 0.24  C 
ATOM     44 O    VAL D   2     -17.266   9.501 -10.712  1.00 16.79 LIG-0.27  OA
ATOM     45 H    LEU D   3     -15.055   7.582  -9.915  1.00 16.05 LIG 0.16  HD
BRANCH 43 46
ATOM     46  CA  VAL D   2     -15.641   8.587 -12.212  1.00 14.78 LIG 0.18  C 
BRANCH 46 47
ATOM     47  N   VAL D   2     -16.459   9.304 -13.181  1.00 14.77 LIG-0.35  N 
ATOM     48  C   ARG D   1     -16.970   8.691 -14.240  1.00 16.50 LIG 0.25  C 
ATOM     49 O    ARG D   1     -16.832   7.483 -14.455  1.00 16.49 LIG-0.27  OA
ATOM     50 H    VAL D   2     -16.575  10.138 -13.004  1.00 14.77 LIG 0.16  HD
BRANCH 48 51
ATOM     51  CA  ARG D   1     -17.853   9.532 -15.128  1.00 17.64 LIG 0.27  C 
BRANCH 51 52
ATOM     52  N   ARG D   1     -18.569   8.639 -16.075  1.00 17.90 LIG-0.07  N 
ATOM     53 H3   ARG D   1     -19.033   9.130 -16.654  1.00 17.90 LIG 0.28  HD
ATOM     54 H2   ARG D   1     -19.126   8.112 -15.622  1.00 17.90 LIG 0.28  HD
ATOM     55 H1   ARG D   1     -17.980   8.139 -16.516  1.00 17.90 LIG 0.28  HD
ENDBRANCH 51 52
BRANCH 51 56
ATOM     56  CB  ARG D   1     -18.833  10.298 -14.227  1.00 19.06 LIG 0.04  C 
BRANCH 56 57
ATOM     57  CG  ARG D   1     -20.294  10.022 -14.447  1.00 22.89 LIG 0.02  C 
BRANCH 57 58
ATOM     58  CD  ARG D   1     -20.764  10.800 -15.670  1.00 26.83 LIG 0.14  C 
BRANCH 58 59
ATOM     59  NE  ARG D   1     -20.659  12.241 -15.478  1.00 30.01 LIG-0.23  N 
ATOM     60  CZ  ARG D   1     -20.097  13.064 -16.359  1.00 33.71 LIG 0.67  C 
ATOM     61  NH1 ARG D   1     -19.589  12.577 -17.483  1.00 32.13 LIG-0.23  N 
ATOM     62  NH2 ARG D   1     -20.043  14.370 -16.118  1.00 33.53 LIG-0.23  N 
ATOM     63 1HH1 ARG D   1     -19.624  11.733 -17.640  1.00 32.13 LIG 0.17  HD
ATOM     64 2HH1 ARG D   1     -19.226  13.107 -18.055  1.00 32.13 LIG 0.17  HD
ATOM     65 1HH2 ARG D   1     -20.372  14.687 -15.389  1.00 33.53 LIG 0.17  HD
ATOM     66 2HH2 ARG D   1     -19.680  14.898 -16.691  1.00 33.53 LIG 0.17  HD
ATOM     67 HE   ARG D   1     -20.978  12.577 -14.755  1.00 30.01 LIG 0.18  HD
ENDBRANCH 58 59
ENDBRANCH 57 58
ENDBRANCH 56 57
ENDBRANCH 51 56
ENDBRANCH 48 51
ENDBRANCH 46 47
BRANCH 46 68
ATOM     68  CB  VAL D   2     -14.191   9.115 -12.248  1.00 15.28 LIG 0.01  C 
ATOM     69  CG2 VAL D   2     -13.935  10.011 -11.052  1.00 14.68 LIG 0.01  C 
ATOM     70  CG1 VAL D   2     -13.883   9.831 -13.564  1.00 13.75 LIG 0.01  C 
ENDBRANCH 46 68
ENDBRANCH 43 46
ENDBRANCH 41 42
BRANCH 41 71
ATOM     71  CB  LEU D   3     -16.801   6.854  -8.010  1.00 15.85 LIG 0.04  C 
BRANCH 71 72
ATOM     72  CG  LEU D   3     -18.322   6.718  -7.893  1.00 19.10 LIG-0.02  C 
ATOM     73  CD2 LEU D   3     -18.862   5.618  -8.793  1.00 16.59 LIG 0.01  C 
ATOM     74  CD1 LEU D   3     -18.970   8.063  -8.221  1.00 21.08 LIG 0.01  C 
ENDBRANCH 71 72
ENDBRANCH 41 71
ENDBRANCH 1 41
TORSDOF 29
ENDMDL
MODEL 47
USER: ADFR SOLUTION from run 142
USER: SCORE 23.060512 LL:  -6.079 LR: -20.277 RR:   0.000 FEB: -11.627
USER: RMSD 13.653290
USER: SEED 141
USER: STATUS 1 or 2 clusters left
USER: GENES 31
USER: genes 0 Translation |==|  0.52986 0.41231 0.37128
USER: genes 1 Rotation |==|  0.69920 0.91162 0.49193 0.70204
USER: genes 2 Torsion [C]-N--CA-[CB] |==|  0.86111
USER: genes 3 Torsion [N]-CA--CB-[CG] |==|  0.45570
USER: genes 4 Torsion [CA]-CB--CG-[CD1] |==|  0.61077
USER: genes 5 Torsion [N]-CA--C-[N] |==|  0.20619
USER: genes 6 Torsion [C]-N--CA-[C] |==|  0.64108
USER: genes 7 Torsion [N]-CA--CB-[CG] |==|  0.17967
USER: genes 8 Torsion [CA]-CB--CG-[CD] |==|  0.77045
USER: genes 9 Torsion [CB]-CG--CD-[OE1] |==|  0.95498
USER: genes 10 Torsion [N]-CA--C-[N] |==|  0.45020
USER: genes 11 Torsion [C]-N--CA-[CB] |==|  0.86933
USER: genes 12 Torsion [N]-CA--C-[N] |==|  0.29954
USER: genes 13 Torsion [C]-N--CA-[CB] |==|  0.23939
USER: genes 14 Torsion [N]-CA--C-[OXT] |==|  0.05576
USER: genes 15 Torsion [N]-CA--CB-[CG] |==|  0.82635
USER: genes 16 Torsion [CA]-CB--CG-[SD] |==|  0.25441
USER: genes 17 Torsion [CB]-CG--SD-[CE] |==|  0.27395
USER: genes 18 Torsion [N]-C--CA-[N] |==|  0.72764
USER: genes 19 Torsion [C]-CA--N-[C] |==|  0.17180
USER: genes 20 Torsion [N]-C--CA-[N] |==|  0.89273
USER: genes 21 Torsion [C]-CA--N-[C] |==|  0.68664
USER: genes 22 Torsion [N]-C--CA-[N] |==|  0.09535
USER: genes 23 Torsion [C]-CA--N-[H1] |==|  0.68447
USER: genes 24 Torsion [C]-CA--CB-[CG] |==|  0.18838
USER: genes 25 Torsion [CA]-CB--CG-[CD] |==|  0.45807
USER: genes 26 Torsion [CB]-CG--CD-[NE] |==|  0.83367
USER: genes 27 Torsion [CG]-CD--NE-[CZ] |==|  0.79084
USER: genes 28 Torsion [C]-CA--CB-[CG2] |==|  0.15141
USER: genes 29 Torsion [C]-CA--CB-[CG] |==|  0.36737
USER: genes 30 Torsion [CA]-CB--CG-[CD2] |==|  0.65853
ROOT
ATOM      1  C   LEU D   3     -14.082   7.490  -9.119  1.00 15.92 LIG 0.24  C 
ATOM      2 O    LEU D   3     -14.089   6.617  -9.985  1.00 19.39 LIG-0.27  OA
ATOM      3  N   PHE D   4     -14.539   8.715  -9.344  1.00 13.65 LIG-0.35  N 
ATOM      4 H    PHE D   4     -14.765   9.271  -8.728  1.00 13.65 LIG 0.16  HD
ENDROOT
BRANCH 3 5
ATOM      5  CA  PHE D   4     -14.690   9.208 -10.693  1.00 13.25 LIG 0.18  C 
BRANCH 5 6
ATOM      6  CB  PHE D   4     -13.385   8.959 -11.466  1.00 13.20 LIG 0.07  C 
BRANCH 6 7
ATOM      7  CG  PHE D   4     -13.530   9.073 -12.941  1.00 13.63 LIG-0.06  A 
ATOM      8  CD1 PHE D   4     -12.874   8.185 -13.785  1.00 13.10 LIG 0.01  A 
ATOM      9  CE1 PHE D   4     -13.032   8.277 -15.161  1.00 15.10 LIG 0.00  A 
ATOM     10  CZ  PHE D   4     -13.866   9.253 -15.702  1.00 15.27 LIG 0.00  A 
ATOM     11  CE2 PHE D   4     -14.546  10.122 -14.855  1.00 13.31 LIG 0.00  A 
ATOM     12  CD2 PHE D   4     -14.360  10.036 -13.490  1.00 12.44 LIG 0.01  A 
ENDBRANCH 6 7
ENDBRANCH 5 6
BRANCH 5 13
ATOM     13  C   PHE D   4     -15.863   8.460 -11.325  1.00 14.19 LIG 0.24  C 
ATOM     14 O    PHE D   4     -15.663   7.510 -12.076  1.00 15.09 LIG-0.27  OA
ATOM     15  N   GLU D   5     -17.083   8.799 -10.933  1.00 15.42 LIG-0.35  N 
ATOM     16 H    GLU D   5     -17.254   9.364 -10.307  1.00 15.42 LIG 0.16  HD
BRANCH 15 17
ATOM     17  CA  GLU D   5     -18.253   8.213 -11.564  1.00 15.66 LIG 0.18  C 
BRANCH 17 18
ATOM     18  CB  GLU D   5     -18.947   7.223 -10.616  1.00 15.74 LIG 0.04  C 
BRANCH 18 19
ATOM     19  CG  GLU D   5     -19.531   7.845  -9.366  1.00 13.49 LIG 0.12  C 
BRANCH 19 20
ATOM     20  CD  GLU D   5     -18.494   8.039  -8.274  1.00 17.86 LIG 0.17  C 
ATOM     21 OE1  GLU D   5     -17.412   7.419  -8.372  1.00 19.55 LIG-0.65  OA
ATOM     22 OE2  GLU D   5     -18.726   8.859  -7.351  1.00 19.96 LIG-0.65  OA
ENDBRANCH 19 20
ENDBRANCH 18 19
ENDBRANCH 17 18
BRANCH 17 23
ATOM     23  C   GLU D   5     -19.195   9.331 -11.977  1.00 17.50 LIG 0.24  C 
ATOM     24 O    GLU D   5     -19.065  10.464 -11.511  1.00 17.10 LIG-0.27  OA
ATOM     25  N   ALA D   6     -20.118   9.017 -12.879  1.00 19.03 LIG-0.35  N 
ATOM     26 H    ALA D   6     -20.215   8.232 -13.216  1.00 19.03 LIG 0.16  HD
BRANCH 25 27
ATOM     27  CA  ALA D   6     -21.061  10.009 -13.375  1.00 21.37 LIG 0.17  C 
ATOM     28  CB  ALA D   6     -21.655  10.790 -12.224  1.00 21.30 LIG 0.04  C 
BRANCH 27 29
ATOM     29  C   ALA D   6     -20.347  10.944 -14.338  1.00 24.24 LIG 0.24  C 
ATOM     30 O    ALA D   6     -19.532  11.772 -13.929  1.00 22.56 LIG-0.27  OA
ATOM     31  N   MET D   7     -20.654  10.799 -15.622  1.00 27.55 LIG-0.34  N 
ATOM     32 H    MET D   7     -21.283  10.291 -15.911  1.00 27.55 LIG 0.16  HD
BRANCH 31 33
ATOM     33  CA  MET D   7     -19.927  11.511 -16.666  1.00 30.72 LIG 0.19  C 
BRANCH 33 34
ATOM     34  C   MET D   7     -20.848  11.743 -17.854  1.00 33.25 LIG 0.20  C 
ATOM     35 O    MET D   7     -20.375  12.069 -18.950  1.00 35.29 LIG-0.65  OA
ATOM     36 OXT  MET D   7     -22.080  11.695 -17.726  1.00 35.43 LIG-0.65  OA
ENDBRANCH 33 34
BRANCH 33 37
ATOM     37  CB  MET D   7     -18.682  10.715 -17.073  1.00 30.73 LIG 0.05  C 
BRANCH 37 38
ATOM     38  CG  MET D   7     -17.649  10.507 -15.983  1.00 32.79 LIG 0.08  C 
BRANCH 38 39
ATOM     39 SD   MET D   7     -17.929   8.977 -15.088  1.00 33.89 LIG-0.17  SA
ATOM     40  CE  MET D   7     -16.762   7.871 -15.878  1.00 31.39 LIG 0.09  C 
ENDBRANCH 38 39
ENDBRANCH 37 38
ENDBRANCH 33 37
ENDBRANCH 31 33
ENDBRANCH 27 29
ENDBRANCH 25 27
ENDBRANCH 17 23
ENDBRANCH 15 17
ENDBRANCH 5 13
ENDBRANCH 3 5
BRANCH 1 41
ATOM     41  CA  LEU D   3     -13.493   7.226  -7.735  1.00 16.32 LIG 0.18  C 
BRANCH 41 42
ATOM     42  N   LEU D   3     -12.038   7.317  -7.712  1.00 16.05 LIG-0.35  N 
ATOM     43  C   VAL D   2     -11.413   8.454  -8.012  1.00 15.61 LIG 0.24  C 
ATOM     44 O    VAL D   2     -12.008   9.457  -8.409  1.00 16.79 LIG-0.27  OA
ATOM     45 H    LEU D   3     -11.636   6.588  -7.493  1.00 16.05 LIG 0.16  HD
BRANCH 43 46
ATOM     46  CA  VAL D   2      -9.893   8.411  -8.015  1.00 14.78 LIG 0.18  C 
BRANCH 46 47
ATOM     47  N   VAL D   2      -9.473   7.566  -6.906  1.00 14.77 LIG-0.35  N 
ATOM     48  C   ARG D   1      -8.828   8.068  -5.861  1.00 16.50 LIG 0.25  C 
ATOM     49 O    ARG D   1      -8.582   9.271  -5.733  1.00 16.49 LIG-0.27  OA
ATOM     50 H    VAL D   2      -9.678   6.735  -6.992  1.00 14.77 LIG 0.16  HD
BRANCH 48 51
ATOM     51  CA  ARG D   1      -8.509   7.097  -4.752  1.00 17.64 LIG 0.27  C 
BRANCH 51 52
ATOM     52  N   ARG D   1      -8.223   5.767  -5.349  1.00 17.90 LIG-0.07  N 
ATOM     53 H3   ARG D   1      -7.433   5.475  -5.060  1.00 17.90 LIG 0.28  HD
ATOM     54 H2   ARG D   1      -8.206   5.837  -6.236  1.00 17.90 LIG 0.28  HD
ATOM     55 H1   ARG D   1      -8.857   5.191  -5.109  1.00 17.90 LIG 0.28  HD
ENDBRANCH 51 52
BRANCH 51 56
ATOM     56  CB  ARG D   1      -7.295   7.642  -3.985  1.00 19.06 LIG 0.04  C 
BRANCH 56 57
ATOM     57  CG  ARG D   1      -7.516   8.904  -3.198  1.00 22.89 LIG 0.02  C 
BRANCH 57 58
ATOM     58  CD  ARG D   1      -6.358   9.087  -2.226  1.00 26.83 LIG 0.14  C 
BRANCH 58 59
ATOM     59  NE  ARG D   1      -6.243   7.974  -1.292  1.00 30.01 LIG-0.23  N 
ATOM     60  CZ  ARG D   1      -7.059   7.789  -0.259  1.00 33.71 LIG 0.67  C 
ATOM     61  NH1 ARG D   1      -8.039   8.653  -0.031  1.00 32.13 LIG-0.23  N 
ATOM     62  NH2 ARG D   1      -6.896   6.745   0.548  1.00 33.53 LIG-0.23  N 
ATOM     63 1HH1 ARG D   1      -8.145   9.329  -0.552  1.00 32.13 LIG 0.17  HD
ATOM     64 2HH1 ARG D   1      -8.568   8.537   0.636  1.00 32.13 LIG 0.17  HD
ATOM     65 1HH2 ARG D   1      -6.261   6.184   0.402  1.00 33.53 LIG 0.17  HD
ATOM     66 2HH2 ARG D   1      -7.426   6.630   1.215  1.00 33.53 LIG 0.17  HD
ATOM     67 HE   ARG D   1      -5.612   7.403  -1.418  1.00 30.01 LIG 0.18  HD
ENDBRANCH 58 59
ENDBRANCH 57 58
ENDBRANCH 56 57
ENDBRANCH 51 56
ENDBRANCH 48 51
ENDBRANCH 46 47
BRANCH 46 68
ATOM     68  CB  VAL D   2      -9.379   7.829  -9.349  1.00 15.28 LIG 0.01  C 
ATOM     69  CG2 VAL D   2      -9.955   8.610 -10.514  1.00 14.68 LIG 0.01  C 
ATOM     70  CG1 VAL D   2      -9.681   6.335  -9.468  1.00 13.75 LIG 0.01  C 
ENDBRANCH 46 68
ENDBRANCH 43 46
ENDBRANCH 41 42
BRANCH 41 71
ATOM     71  CB  LEU D   3     -14.118   8.162  -6.695  1.00 15.85 LIG 0.04  C 
BRANCH 71 72
ATOM     72  CG  LEU D   3     -14.604   7.516  -5.394  1.00 19.10 LIG-0.02  C 
ATOM     73  CD2 LEU D   3     -16.078   7.790  -5.143  1.00 16.59 LIG 0.01  C 
ATOM     74  CD1 LEU D   3     -13.747   8.022  -4.234  1.00 21.08 LIG 0.01  C 
ENDBRANCH 71 72
ENDBRANCH 41 71
ENDBRANCH 1 41
TORSDOF 29
ENDMDL
MODEL 48
USER: ADFR SOLUTION from run 183
USER: SCORE 25.254680 LL:  -7.282 LR: -20.275 RR:   0.000 FEB: -11.624
USER: RMSD 5.083666
USER: SEED 182
USER: STATUS 1 or 2 clusters left
USER: GENES 31
USER: genes 0 Translation |==|  0.50171 0.53968 0.42949
USER: genes 1 Rotation |==|  0.06146 0.51473 0.26707 0.55667
USER: genes 2 Torsion [C]-N--CA-[CB] |==|  0.50556
USER: genes 3 Torsion [N]-CA--CB-[CG] |==|  0.56372
USER: genes 4 Torsion [CA]-CB--CG-[CD1] |==|  0.98403
USER: genes 5 Torsion [N]-CA--C-[N] |==|  0.36831
USER: genes 6 Torsion [C]-N--CA-[C] |==|  0.72411
USER: genes 7 Torsion [N]-CA--CB-[CG] |==|  0.72774
USER: genes 8 Torsion [CA]-CB--CG-[CD] |==|  0.79078
USER: genes 9 Torsion [CB]-CG--CD-[OE1] |==|  0.19427
USER: genes 10 Torsion [N]-CA--C-[N] |==|  0.02086
USER: genes 11 Torsion [C]-N--CA-[CB] |==|  0.83839
USER: genes 12 Torsion [N]-CA--C-[N] |==|  0.11316
USER: genes 13 Torsion [C]-N--CA-[CB] |==|  0.34974
USER: genes 14 Torsion [N]-CA--C-[OXT] |==|  0.49657
USER: genes 15 Torsion [N]-CA--CB-[CG] |==|  0.68866
USER: genes 16 Torsion [CA]-CB--CG-[SD] |==|  0.31261
USER: genes 17 Torsion [CB]-CG--SD-[CE] |==|  0.67166
USER: genes 18 Torsion [N]-C--CA-[N] |==|  0.65102
USER: genes 19 Torsion [C]-CA--N-[C] |==|  0.66655
USER: genes 20 Torsion [N]-C--CA-[N] |==|  0.46845
USER: genes 21 Torsion [C]-CA--N-[C] |==|  0.67542
USER: genes 22 Torsion [N]-C--CA-[N] |==|  0.38869
USER: genes 23 Torsion [C]-CA--N-[H1] |==|  0.82938
USER: genes 24 Torsion [C]-CA--CB-[CG] |==|  0.22068
USER: genes 25 Torsion [CA]-CB--CG-[CD] |==|  0.64141
USER: genes 26 Torsion [CB]-CG--CD-[NE] |==|  0.01185
USER: genes 27 Torsion [CG]-CD--NE-[CZ] |==|  0.28571
USER: genes 28 Torsion [C]-CA--CB-[CG2] |==|  0.55970
USER: genes 29 Torsion [C]-CA--CB-[CG] |==|  0.36899
USER: genes 30 Torsion [CA]-CB--CG-[CD2] |==|  0.80009
ROOT
ATOM      1  C   LEU D   3     -14.884   9.114  -7.459  1.00 15.92 LIG 0.24  C 
ATOM      2 O    LEU D   3     -14.187  10.093  -7.719  1.00 19.39 LIG-0.27  OA
ATOM      3  N   PHE D   4     -14.709   8.392  -6.361  1.00 13.65 LIG-0.35  N 
ATOM      4 H    PHE D   4     -15.299   7.860  -6.029  1.00 13.65 LIG 0.16  HD
ENDROOT
BRANCH 3 5
ATOM      5  CA  PHE D   4     -13.468   8.458  -5.626  1.00 13.25 LIG 0.18  C 
BRANCH 5 6
ATOM      6  CB  PHE D   4     -13.536   7.484  -4.439  1.00 13.20 LIG 0.07  C 
BRANCH 6 7
ATOM      7  CG  PHE D   4     -12.605   7.822  -3.331  1.00 13.63 LIG-0.06  A 
ATOM      8  CD1 PHE D   4     -11.691   8.860  -3.469  1.00 13.10 LIG 0.01  A 
ATOM      9  CE1 PHE D   4     -10.840   9.191  -2.424  1.00 15.10 LIG 0.00  A 
ATOM     10  CZ  PHE D   4     -10.912   8.493  -1.220  1.00 15.27 LIG 0.00  A 
ATOM     11  CE2 PHE D   4     -11.848   7.474  -1.072  1.00 13.31 LIG 0.00  A 
ATOM     12  CD2 PHE D   4     -12.670   7.139  -2.129  1.00 12.44 LIG 0.01  A 
ENDBRANCH 6 7
ENDBRANCH 5 6
BRANCH 5 13
ATOM     13  C   PHE D   4     -12.344   8.081  -6.591  1.00 14.19 LIG 0.24  C 
ATOM     14 O    PHE D   4     -12.491   7.157  -7.386  1.00 15.09 LIG-0.27  OA
ATOM     15  N   GLU D   5     -11.275   8.864  -6.615  1.00 15.42 LIG-0.35  N 
ATOM     16 H    GLU D   5     -11.198   9.597  -6.173  1.00 15.42 LIG 0.16  HD
BRANCH 15 17
ATOM     17  CA  GLU D   5     -10.120   8.514  -7.424  1.00 15.66 LIG 0.18  C 
BRANCH 17 18
ATOM     18  CB  GLU D   5      -9.557   9.753  -8.137  1.00 15.74 LIG 0.04  C 
BRANCH 18 19
ATOM     19  CG  GLU D   5     -10.005   9.917  -9.574  1.00 13.49 LIG 0.12  C 
BRANCH 19 20
ATOM     20  CD  GLU D   5      -9.300   8.957 -10.516  1.00 17.86 LIG 0.17  C 
ATOM     21 OE1  GLU D   5      -9.581   7.740 -10.436  1.00 19.55 LIG-0.65  OA
ATOM     22 OE2  GLU D   5      -8.514   9.418 -11.380  1.00 19.96 LIG-0.65  OA
ENDBRANCH 19 20
ENDBRANCH 18 19
ENDBRANCH 17 18
BRANCH 17 23
ATOM     23  C   GLU D   5      -9.074   7.873  -6.529  1.00 17.50 LIG 0.24  C 
ATOM     24 O    GLU D   5      -7.940   7.645  -6.953  1.00 17.10 LIG-0.27  OA
ATOM     25  N   ALA D   6      -9.448   7.616  -5.281  1.00 19.03 LIG-0.35  N 
ATOM     26 H    ALA D   6     -10.234   7.775  -4.971  1.00 19.03 LIG 0.16  HD
BRANCH 25 27
ATOM     27  CA  ALA D   6      -8.527   7.028  -4.319  1.00 21.37 LIG 0.17  C 
ATOM     28  CB  ALA D   6      -8.014   5.700  -4.828  1.00 21.30 LIG 0.04  C 
BRANCH 27 29
ATOM     29  C   ALA D   6      -7.370   7.986  -4.080  1.00 24.24 LIG 0.24  C 
ATOM     30 O    ALA D   6      -6.214   7.572  -3.988  1.00 22.56 LIG-0.27  OA
ATOM     31  N   MET D   7      -7.691   9.271  -3.989  1.00 27.55 LIG-0.34  N 
ATOM     32 H    MET D   7      -8.498   9.564  -3.961  1.00 27.55 LIG 0.16  HD
BRANCH 31 33
ATOM     33  CA  MET D   7      -6.670  10.310  -3.927  1.00 30.72 LIG 0.19  C 
BRANCH 33 34
ATOM     34  C   MET D   7      -6.681  10.946  -2.545  1.00 33.25 LIG 0.20  C 
ATOM     35 O    MET D   7      -7.554  10.631  -1.725  1.00 35.29 LIG-0.65  OA
ATOM     36 OXT  MET D   7      -5.880  11.844  -2.248  1.00 35.43 LIG-0.65  OA
ENDBRANCH 33 34
BRANCH 33 37
ATOM     37  CB  MET D   7      -6.917  11.353  -5.023  1.00 30.73 LIG 0.05  C 
BRANCH 37 38
ATOM     38  CG  MET D   7      -5.886  11.399  -6.132  1.00 32.79 LIG 0.08  C 
BRANCH 38 39
ATOM     39 SD   MET D   7      -6.574  10.858  -7.699  1.00 33.89 LIG-0.17  SA
ATOM     40  CE  MET D   7      -5.572   9.418  -8.063  1.00 31.39 LIG 0.09  C 
ENDBRANCH 38 39
ENDBRANCH 37 38
ENDBRANCH 33 37
ENDBRANCH 31 33
ENDBRANCH 27 29
ENDBRANCH 25 27
ENDBRANCH 17 23
ENDBRANCH 15 17
ENDBRANCH 5 13
ENDBRANCH 3 5
BRANCH 1 41
ATOM     41  CA  LEU D   3     -15.969   8.637  -8.423  1.00 16.32 LIG 0.18  C 
BRANCH 41 42
ATOM     42  N   LEU D   3     -15.475   8.442  -9.781  1.00 16.05 LIG-0.35  N 
ATOM     43  C   VAL D   2     -15.983   9.125 -10.804  1.00 15.61 LIG 0.24  C 
ATOM     44 O    VAL D   2     -16.947   9.884 -10.686  1.00 16.79 LIG-0.27  OA
ATOM     45 H    LEU D   3     -14.845   7.861  -9.853  1.00 16.05 LIG 0.16  HD
BRANCH 43 46
ATOM     46  CA  VAL D   2     -15.432   8.792 -12.182  1.00 14.78 LIG 0.18  C 
BRANCH 46 47
ATOM     47  N   VAL D   2     -16.291   9.433 -13.168  1.00 14.77 LIG-0.35  N 
ATOM     48  C   ARG D   1     -16.987   8.721 -14.043  1.00 16.50 LIG 0.25  C 
ATOM     49 O    ARG D   1     -16.995   7.487 -14.058  1.00 16.49 LIG-0.27  OA
ATOM     50 H    VAL D   2     -16.302  10.292 -13.128  1.00 14.77 LIG 0.16  HD
BRANCH 48 51
ATOM     51  CA  ARG D   1     -17.888   9.505 -14.965  1.00 17.64 LIG 0.27  C 
BRANCH 51 52
ATOM     52  N   ARG D   1     -17.813   8.911 -16.325  1.00 17.90 LIG-0.07  N 
ATOM     53 H3   ARG D   1     -18.357   9.354 -16.873  1.00 17.90 LIG 0.28  HD
ATOM     54 H2   ARG D   1     -18.060   8.056 -16.290  1.00 17.90 LIG 0.28  HD
ATOM     55 H1   ARG D   1     -16.978   8.967 -16.628  1.00 17.90 LIG 0.28  HD
ENDBRANCH 51 52
BRANCH 51 56
ATOM     56  CB  ARG D   1     -19.314   9.436 -14.400  1.00 19.06 LIG 0.04  C 
BRANCH 56 57
ATOM     57  CG  ARG D   1     -19.623  10.364 -13.258  1.00 22.89 LIG 0.02  C 
BRANCH 57 58
ATOM     58  CD  ARG D   1     -20.247   9.560 -12.125  1.00 26.83 LIG 0.14  C 
BRANCH 58 59
ATOM     59  NE  ARG D   1     -20.278   8.133 -12.416  1.00 30.01 LIG-0.23  N 
ATOM     60  CZ  ARG D   1     -19.429   7.254 -11.891  1.00 33.71 LIG 0.67  C 
ATOM     61  NH1 ARG D   1     -18.485   7.668 -11.057  1.00 32.13 LIG-0.23  N 
ATOM     62  NH2 ARG D   1     -19.522   5.964 -12.199  1.00 33.53 LIG-0.23  N 
ATOM     63 1HH1 ARG D   1     -18.424   8.501 -10.857  1.00 32.13 LIG 0.17  HD
ATOM     64 2HH1 ARG D   1     -17.935   7.102 -10.715  1.00 32.13 LIG 0.17  HD
ATOM     65 1HH2 ARG D   1     -20.133   5.694 -12.741  1.00 33.53 LIG 0.17  HD
ATOM     66 2HH2 ARG D   1     -18.971   5.399 -11.857  1.00 33.53 LIG 0.17  HD
ATOM     67 HE   ARG D   1     -20.879   7.842 -12.958  1.00 30.01 LIG 0.18  HD
ENDBRANCH 58 59
ENDBRANCH 57 58
ENDBRANCH 56 57
ENDBRANCH 51 56
ENDBRANCH 48 51
ENDBRANCH 46 47
BRANCH 46 68
ATOM     68  CB  VAL D   2     -13.986   9.314 -12.318  1.00 15.28 LIG 0.01  C 
ATOM     69  CG2 VAL D   2     -13.625   9.469 -13.782  1.00 14.68 LIG 0.01  C 
ATOM     70  CG1 VAL D   2     -12.989   8.414 -11.585  1.00 13.75 LIG 0.01  C 
ENDBRANCH 46 68
ENDBRANCH 43 46
ENDBRANCH 41 42
BRANCH 41 71
ATOM     71  CB  LEU D   3     -16.639   7.365  -7.894  1.00 15.85 LIG 0.04  C 
BRANCH 71 72
ATOM     72  CG  LEU D   3     -18.170   7.334  -7.919  1.00 19.10 LIG-0.02  C 
ATOM     73  CD2 LEU D   3     -18.772   8.253  -6.867  1.00 16.59 LIG 0.01  C 
ATOM     74  CD1 LEU D   3     -18.644   5.895  -7.724  1.00 21.08 LIG 0.01  C 
ENDBRANCH 71 72
ENDBRANCH 41 71
ENDBRANCH 1 41
TORSDOF 29
ENDMDL
MODEL 49
USER: ADFR SOLUTION from run 67
USER: SCORE 23.756730 LL:  -6.695 LR: -20.255 RR:   0.000 FEB: -11.604
USER: RMSD 12.852666
USER: SEED 66
USER: STATUS no improvement in best in 10 clusters for 5 generations
USER: GENES 31
USER: genes 0 Translation |==|  0.63073 0.44912 0.44705
USER: genes 1 Rotation |==|  0.75021 0.83228 0.42517 0.76718
USER: genes 2 Torsion [C]-N--CA-[CB] |==|  0.80406
USER: genes 3 Torsion [N]-CA--CB-[CG] |==|  0.83126
USER: genes 4 Torsion [CA]-CB--CG-[CD1] |==|  0.05046
USER: genes 5 Torsion [N]-CA--C-[N] |==|  0.13910
USER: genes 6 Torsion [C]-N--CA-[C] |==|  0.75117
USER: genes 7 Torsion [N]-CA--CB-[CG] |==|  0.99862
USER: genes 8 Torsion [CA]-CB--CG-[CD] |==|  0.19754
USER: genes 9 Torsion [CB]-CG--CD-[OE1] |==|  0.73856
USER: genes 10 Torsion [N]-CA--C-[N] |==|  0.49324
USER: genes 11 Torsion [C]-N--CA-[CB] |==|  0.27920
USER: genes 12 Torsion [N]-CA--C-[N] |==|  0.34331
USER: genes 13 Torsion [C]-N--CA-[CB] |==|  0.18467
USER: genes 14 Torsion [N]-CA--C-[OXT] |==|  0.11147
USER: genes 15 Torsion [N]-CA--CB-[CG] |==|  0.15652
USER: genes 16 Torsion [CA]-CB--CG-[SD] |==|  0.72454
USER: genes 17 Torsion [CB]-CG--SD-[CE] |==|  0.70460
USER: genes 18 Torsion [N]-C--CA-[N] |==|  0.84073
USER: genes 19 Torsion [C]-CA--N-[C] |==|  0.69742
USER: genes 20 Torsion [N]-C--CA-[N] |==|  0.31734
USER: genes 21 Torsion [C]-CA--N-[C] |==|  0.71322
USER: genes 22 Torsion [N]-C--CA-[N] |==|  0.98613
USER: genes 23 Torsion [C]-CA--N-[H1] |==|  0.16396
USER: genes 24 Torsion [C]-CA--CB-[CG] |==|  0.21438
USER: genes 25 Torsion [CA]-CB--CG-[CD] |==|  0.68116
USER: genes 26 Torsion [CB]-CG--CD-[NE] |==|  0.21575
USER: genes 27 Torsion [CG]-CD--NE-[CZ] |==|  0.61708
USER: genes 28 Torsion [C]-CA--CB-[CG2] |==|  0.42300
USER: genes 29 Torsion [C]-CA--CB-[CG] |==|  0.45685
USER: genes 30 Torsion [CA]-CB--CG-[CD2] |==|  0.59091
ROOT
ATOM      1  C   LEU D   3     -11.207   7.959  -6.959  1.00 15.92 LIG 0.24  C 
ATOM      2 O    LEU D   3     -11.416   6.937  -7.611  1.00 19.39 LIG-0.27  OA
ATOM      3  N   PHE D   4     -11.067   9.147  -7.532  1.00 13.65 LIG-0.35  N 
ATOM      4 H    PHE D   4     -11.151   9.898  -7.121  1.00 13.65 LIG 0.16  HD
ENDROOT
BRANCH 3 5
ATOM      5  CA  PHE D   4     -10.752   9.255  -8.937  1.00 13.25 LIG 0.18  C 
BRANCH 5 6
ATOM      6  CB  PHE D   4      -9.302   8.796  -9.162  1.00 13.20 LIG 0.07  C 
BRANCH 6 7
ATOM      7  CG  PHE D   4      -8.295   9.607  -8.430  1.00 13.63 LIG-0.06  A 
ATOM      8  CD1 PHE D   4      -8.677  10.408  -7.359  1.00 13.10 LIG 0.01  A 
ATOM      9  CE1 PHE D   4      -7.730  11.144  -6.660  1.00 15.10 LIG 0.00  A 
ATOM     10  CZ  PHE D   4      -6.386  11.069  -7.020  1.00 15.27 LIG 0.00  A 
ATOM     11  CE2 PHE D   4      -6.001  10.245  -8.072  1.00 13.31 LIG 0.00  A 
ATOM     12  CD2 PHE D   4      -6.956   9.538  -8.775  1.00 12.44 LIG 0.01  A 
ENDBRANCH 6 7
ENDBRANCH 5 6
BRANCH 5 13
ATOM     13  C   PHE D   4     -11.740   8.371  -9.697  1.00 14.19 LIG 0.24  C 
ATOM     14 O    PHE D   4     -11.335   7.485 -10.443  1.00 15.09 LIG-0.27  OA
ATOM     15  N   GLU D   5     -13.028   8.521  -9.421  1.00 15.42 LIG-0.35  N 
ATOM     16 H    GLU D   5     -13.337   9.034  -8.804  1.00 15.42 LIG 0.16  HD
BRANCH 15 17
ATOM     17  CA  GLU D   5     -14.036   7.797 -10.176  1.00 15.66 LIG 0.18  C 
BRANCH 17 18
ATOM     18  CB  GLU D   5     -15.249   7.468  -9.292  1.00 15.74 LIG 0.04  C 
BRANCH 18 19
ATOM     19  CG  GLU D   5     -15.137   7.942  -7.859  1.00 13.49 LIG 0.12  C 
BRANCH 19 20
ATOM     20  CD  GLU D   5     -15.244   9.452  -7.736  1.00 17.86 LIG 0.17  C 
ATOM     21 OE1  GLU D   5     -14.186  10.119  -7.724  1.00 19.55 LIG-0.65  OA
ATOM     22 OE2  GLU D   5     -16.382   9.983  -7.718  1.00 19.96 LIG-0.65  OA
ENDBRANCH 19 20
ENDBRANCH 18 19
ENDBRANCH 17 18
BRANCH 17 23
ATOM     23  C   GLU D   5     -14.441   8.636 -11.375  1.00 17.50 LIG 0.24  C 
ATOM     24 O    GLU D   5     -13.937   9.744 -11.565  1.00 17.10 LIG-0.27  OA
ATOM     25  N   ALA D   6     -15.326   8.090 -12.202  1.00 19.03 LIG-0.35  N 
ATOM     26 H    ALA D   6     -15.681   7.315 -12.085  1.00 19.03 LIG 0.16  HD
BRANCH 25 27
ATOM     27  CA  ALA D   6     -15.772   8.783 -13.401  1.00 21.37 LIG 0.17  C 
ATOM     28  CB  ALA D   6     -15.048   8.247 -14.616  1.00 21.30 LIG 0.04  C 
BRANCH 27 29
ATOM     29  C   ALA D   6     -17.273   8.605 -13.558  1.00 24.24 LIG 0.24  C 
ATOM     30 O    ALA D   6     -17.777   7.483 -13.597  1.00 22.56 LIG-0.27  OA
ATOM     31  N   MET D   7     -17.985   9.724 -13.637  1.00 27.55 LIG-0.34  N 
ATOM     32 H    MET D   7     -17.640  10.509 -13.701  1.00 27.55 LIG 0.16  HD
BRANCH 31 33
ATOM     33  CA  MET D   7     -19.442   9.705 -13.621  1.00 30.72 LIG 0.19  C 
BRANCH 33 34
ATOM     34  C   MET D   7     -19.968  11.094 -13.949  1.00 33.25 LIG 0.20  C 
ATOM     35 O    MET D   7     -20.998  11.511 -13.402  1.00 35.29 LIG-0.65  OA
ATOM     36 OXT  MET D   7     -19.433  11.791 -14.823  1.00 35.43 LIG-0.65  OA
ENDBRANCH 33 34
BRANCH 33 37
ATOM     37  CB  MET D   7     -19.945   9.226 -12.255  1.00 30.73 LIG 0.05  C 
BRANCH 37 38
ATOM     38  CG  MET D   7     -19.456  10.019 -11.059  1.00 32.79 LIG 0.08  C 
BRANCH 38 39
ATOM     39 SD   MET D   7     -18.078   9.208 -10.245  1.00 33.89 LIG-0.17  SA
ATOM     40  CE  MET D   7     -18.851   8.576  -8.757  1.00 31.39 LIG 0.09  C 
ENDBRANCH 38 39
ENDBRANCH 37 38
ENDBRANCH 33 37
ENDBRANCH 31 33
ENDBRANCH 27 29
ENDBRANCH 25 27
ENDBRANCH 17 23
ENDBRANCH 15 17
ENDBRANCH 5 13
ENDBRANCH 3 5
BRANCH 1 41
ATOM     41  CA  LEU D   3     -11.043   7.910  -5.442  1.00 16.32 LIG 0.18  C 
BRANCH 41 42
ATOM     42  N   LEU D   3      -9.750   8.415  -4.995  1.00 16.05 LIG-0.35  N 
ATOM     43  C   VAL D   2      -8.820   7.595  -4.510  1.00 15.61 LIG 0.24  C 
ATOM     44 O    VAL D   2      -9.021   6.393  -4.325  1.00 16.79 LIG-0.27  OA
ATOM     45 H    LEU D   3      -9.650   9.266  -5.073  1.00 16.05 LIG 0.16  HD
BRANCH 43 46
ATOM     46  CA  VAL D   2      -7.535   8.243  -4.018  1.00 14.78 LIG 0.18  C 
BRANCH 46 47
ATOM     47  N   VAL D   2      -7.458   8.034  -2.579  1.00 14.77 LIG-0.35  N 
ATOM     48  C   ARG D   1      -7.738   9.009  -1.724  1.00 16.50 LIG 0.25  C 
ATOM     49 O    ARG D   1      -8.119  10.129  -2.076  1.00 16.49 LIG-0.27  OA
ATOM     50 H    VAL D   2      -7.222   7.240  -2.345  1.00 14.77 LIG 0.16  HD
BRANCH 48 51
ATOM     51  CA  ARG D   1      -7.684   8.641  -0.262  1.00 17.64 LIG 0.27  C 
BRANCH 51 52
ATOM     52  N   ARG D   1      -7.433   7.181  -0.145  1.00 17.90 LIG-0.07  N 
ATOM     53 H3   ARG D   1      -8.098   6.733  -0.533  1.00 17.90 LIG 0.28  HD
ATOM     54 H2   ARG D   1      -7.386   6.955   0.715  1.00 17.90 LIG 0.28  HD
ATOM     55 H1   ARG D   1      -6.666   6.978  -0.548  1.00 17.90 LIG 0.28  HD
ENDBRANCH 51 52
BRANCH 51 56
ATOM     56  CB  ARG D   1      -6.557   9.458   0.387  1.00 19.06 LIG 0.04  C 
BRANCH 56 57
ATOM     57  CG  ARG D   1      -6.864  10.901   0.678  1.00 22.89 LIG 0.02  C 
BRANCH 57 58
ATOM     58  CD  ARG D   1      -5.968  11.779  -0.186  1.00 26.83 LIG 0.14  C 
BRANCH 58 59
ATOM     59  NE  ARG D   1      -6.438  11.857  -1.563  1.00 30.01 LIG-0.23  N 
ATOM     60  CZ  ARG D   1      -5.636  11.797  -2.622  1.00 33.71 LIG 0.67  C 
ATOM     61  NH1 ARG D   1      -4.328  11.665  -2.450  1.00 32.13 LIG-0.23  N 
ATOM     62  NH2 ARG D   1      -6.139  11.870  -3.850  1.00 33.53 LIG-0.23  N 
ATOM     63 1HH1 ARG D   1      -4.001  11.619  -1.656  1.00 32.13 LIG 0.17  HD
ATOM     64 2HH1 ARG D   1      -3.806  11.626  -3.133  1.00 32.13 LIG 0.17  HD
ATOM     65 1HH2 ARG D   1      -6.987  11.955  -3.963  1.00 33.53 LIG 0.17  HD
ATOM     66 2HH2 ARG D   1      -5.617  11.830  -4.532  1.00 33.53 LIG 0.17  HD
ATOM     67 HE   ARG D   1      -7.282  11.947  -1.698  1.00 30.01 LIG 0.18  HD
ENDBRANCH 58 59
ENDBRANCH 57 58
ENDBRANCH 56 57
ENDBRANCH 51 56
ENDBRANCH 48 51
ENDBRANCH 46 47
BRANCH 46 68
ATOM     68  CB  VAL D   2      -6.314   7.603  -4.713  1.00 15.28 LIG 0.01  C 
ATOM     69  CG2 VAL D   2      -5.176   8.601  -4.788  1.00 14.68 LIG 0.01  C 
ATOM     70  CG1 VAL D   2      -6.675   7.054  -6.094  1.00 13.75 LIG 0.01  C 
ENDBRANCH 46 68
ENDBRANCH 43 46
ENDBRANCH 41 42
BRANCH 41 71
ATOM     71  CB  LEU D   3     -12.191   8.653  -4.751  1.00 15.85 LIG 0.04  C 
BRANCH 71 72
ATOM     72  CG  LEU D   3     -12.376   8.390  -3.253  1.00 19.10 LIG-0.02  C 
ATOM     73  CD2 LEU D   3     -13.839   8.461  -2.844  1.00 16.59 LIG 0.01  C 
ATOM     74  CD1 LEU D   3     -11.537   9.392  -2.462  1.00 21.08 LIG 0.01  C 
ENDBRANCH 71 72
ENDBRANCH 41 71
ENDBRANCH 1 41
TORSDOF 29
ENDMDL
MODEL 50
USER: ADFR SOLUTION from run 44
USER: SCORE 22.677477 LL:  -5.206 LR: -20.176 RR:   0.000 FEB: -11.525
USER: RMSD 13.433391
USER: SEED 43
USER: STATUS 1 or 2 clusters left
USER: GENES 31
USER: genes 0 Translation |==|  0.65411 0.43176 0.49743
USER: genes 1 Rotation |==|  0.46712 0.84849 0.14496 0.53764
USER: genes 2 Torsion [C]-N--CA-[CB] |==|  0.27704
USER: genes 3 Torsion [N]-CA--CB-[CG] |==|  0.85822
USER: genes 4 Torsion [CA]-CB--CG-[CD1] |==|  0.22609
USER: genes 5 Torsion [N]-CA--C-[N] |==|  0.74540
USER: genes 6 Torsion [C]-N--CA-[C] |==|  0.78002
USER: genes 7 Torsion [N]-CA--CB-[CG] |==|  0.82421
USER: genes 8 Torsion [CA]-CB--CG-[CD] |==|  0.51265
USER: genes 9 Torsion [CB]-CG--CD-[OE1] |==|  0.65792
USER: genes 10 Torsion [N]-CA--C-[N] |==|  0.43260
USER: genes 11 Torsion [C]-N--CA-[CB] |==|  0.22891
USER: genes 12 Torsion [N]-CA--C-[N] |==|  0.95073
USER: genes 13 Torsion [C]-N--CA-[CB] |==|  0.83016
USER: genes 14 Torsion [N]-CA--C-[OXT] |==|  0.20864
USER: genes 15 Torsion [N]-CA--CB-[CG] |==|  0.57576
USER: genes 16 Torsion [CA]-CB--CG-[SD] |==|  0.48604
USER: genes 17 Torsion [CB]-CG--SD-[CE] |==|  0.35209
USER: genes 18 Torsion [N]-C--CA-[N] |==|  0.43692
USER: genes 19 Torsion [C]-CA--N-[C] |==|  0.58674
USER: genes 20 Torsion [N]-C--CA-[N] |==|  0.91140
USER: genes 21 Torsion [C]-CA--N-[C] |==|  0.80415
USER: genes 22 Torsion [N]-C--CA-[N] |==|  0.12300
USER: genes 23 Torsion [C]-CA--N-[H1] |==|  0.91966
USER: genes 24 Torsion [C]-CA--CB-[CG] |==|  0.82995
USER: genes 25 Torsion [CA]-CB--CG-[CD] |==|  0.69824
USER: genes 26 Torsion [CB]-CG--CD-[NE] |==|  0.03995
USER: genes 27 Torsion [CG]-CD--NE-[CZ] |==|  0.39393
USER: genes 28 Torsion [C]-CA--CB-[CG2] |==|  0.28005
USER: genes 29 Torsion [C]-CA--CB-[CG] |==|  0.20444
USER: genes 30 Torsion [CA]-CB--CG-[CD2] |==|  0.56356
ROOT
ATOM      1  C   LEU D   3     -10.541   7.738  -5.523  1.00 15.92 LIG 0.24  C 
ATOM      2 O    LEU D   3     -10.407   6.882  -4.650  1.00 19.39 LIG-0.27  OA
ATOM      3  N   PHE D   4     -11.728   8.073  -6.010  1.00 13.65 LIG-0.35  N 
ATOM      4 H    PHE D   4     -11.892   8.802  -6.435  1.00 13.65 LIG 0.16  HD
ENDROOT
BRANCH 3 5
ATOM      5  CA  PHE D   4     -12.864   7.196  -5.849  1.00 13.25 LIG 0.18  C 
BRANCH 5 6
ATOM      6  CB  PHE D   4     -13.724   7.699  -4.679  1.00 13.20 LIG 0.07  C 
BRANCH 6 7
ATOM      7  CG  PHE D   4     -12.955   7.941  -3.430  1.00 13.63 LIG-0.06  A 
ATOM      8  CD1 PHE D   4     -12.244   9.123  -3.256  1.00 13.10 LIG 0.01  A 
ATOM      9  CE1 PHE D   4     -11.548   9.358  -2.079  1.00 15.10 LIG 0.00  A 
ATOM     10  CZ  PHE D   4     -11.575   8.413  -1.055  1.00 15.27 LIG 0.00  A 
ATOM     11  CE2 PHE D   4     -12.311   7.244  -1.217  1.00 13.31 LIG 0.00  A 
ATOM     12  CD2 PHE D   4     -12.977   7.012  -2.403  1.00 12.44 LIG 0.01  A 
ENDBRANCH 6 7
ENDBRANCH 5 6
BRANCH 5 13
ATOM     13  C   PHE D   4     -13.646   7.214  -7.162  1.00 14.19 LIG 0.24  C 
ATOM     14 O    PHE D   4     -13.443   6.358  -8.018  1.00 15.09 LIG-0.27  OA
ATOM     15  N   GLU D   5     -14.622   8.103  -7.277  1.00 15.42 LIG-0.35  N 
ATOM     16 H    GLU D   5     -14.883   8.624  -6.645  1.00 15.42 LIG 0.16  HD
BRANCH 15 17
ATOM     17  CA  GLU D   5     -15.340   8.256  -8.531  1.00 15.66 LIG 0.18  C 
BRANCH 17 18
ATOM     18  CB  GLU D   5     -16.713   8.905  -8.299  1.00 15.74 LIG 0.04  C 
BRANCH 18 19
ATOM     19  CG  GLU D   5     -17.663   8.091  -7.446  1.00 13.49 LIG 0.12  C 
BRANCH 19 20
ATOM     20  CD  GLU D   5     -19.039   8.726  -7.341  1.00 17.86 LIG 0.17  C 
ATOM     21 OE1  GLU D   5     -19.483   8.983  -6.200  1.00 19.55 LIG-0.65  OA
ATOM     22 OE2  GLU D   5     -19.652   9.029  -8.394  1.00 19.96 LIG-0.65  OA
ENDBRANCH 19 20
ENDBRANCH 18 19
ENDBRANCH 17 18
BRANCH 17 23
ATOM     23  C   GLU D   5     -14.493   9.087  -9.479  1.00 17.50 LIG 0.24  C 
ATOM     24 O    GLU D   5     -13.622   9.841  -9.043  1.00 17.10 LIG-0.27  OA
ATOM     25  N   ALA D   6     -14.727   8.920 -10.775  1.00 19.03 LIG-0.35  N 
ATOM     26 H    ALA D   6     -15.327   8.392 -11.092  1.00 19.03 LIG 0.16  HD
BRANCH 25 27
ATOM     27  CA  ALA D   6     -13.961   9.638 -11.783  1.00 21.37 LIG 0.17  C 
ATOM     28  CB  ALA D   6     -12.648   8.934 -12.045  1.00 21.30 LIG 0.04  C 
BRANCH 27 29
ATOM     29  C   ALA D   6     -14.776   9.734 -13.062  1.00 24.24 LIG 0.24  C 
ATOM     30 O    ALA D   6     -14.485  10.550 -13.938  1.00 22.56 LIG-0.27  OA
ATOM     31  N   MET D   7     -15.792   8.886 -13.168  1.00 27.55 LIG-0.34  N 
ATOM     32 H    MET D   7     -16.060   8.376 -12.530  1.00 27.55 LIG 0.16  HD
BRANCH 31 33
ATOM     33  CA  MET D   7     -16.552   8.754 -14.405  1.00 30.72 LIG 0.19  C 
BRANCH 33 34
ATOM     34  C   MET D   7     -15.627   8.285 -15.518  1.00 33.25 LIG 0.20  C 
ATOM     35 O    MET D   7     -15.317   9.059 -16.433  1.00 35.29 LIG-0.65  OA
ATOM     36 OXT  MET D   7     -15.242   7.108 -15.575  1.00 35.43 LIG-0.65  OA
ENDBRANCH 33 34
BRANCH 33 37
ATOM     37  CB  MET D   7     -17.215  10.091 -14.757  1.00 30.73 LIG 0.05  C 
BRANCH 37 38
ATOM     38  CG  MET D   7     -18.488   9.998 -15.575  1.00 32.79 LIG 0.08  C 
BRANCH 38 39
ATOM     39 SD   MET D   7     -19.248  11.608 -15.801  1.00 33.89 LIG-0.17  SA
ATOM     40  CE  MET D   7     -19.433  11.679 -17.582  1.00 31.39 LIG 0.09  C 
ENDBRANCH 38 39
ENDBRANCH 37 38
ENDBRANCH 33 37
ENDBRANCH 31 33
ENDBRANCH 27 29
ENDBRANCH 25 27
ENDBRANCH 17 23
ENDBRANCH 15 17
ENDBRANCH 5 13
ENDBRANCH 3 5
BRANCH 1 41
ATOM     41  CA  LEU D   3      -9.330   8.435  -6.140  1.00 16.32 LIG 0.18  C 
BRANCH 41 42
ATOM     42  N   LEU D   3      -8.169   8.440  -5.257  1.00 16.05 LIG-0.35  N 
ATOM     43  C   VAL D   2      -7.287   9.437  -5.284  1.00 15.61 LIG 0.24  C 
ATOM     44 O    VAL D   2      -7.344  10.355  -6.104  1.00 16.79 LIG-0.27  OA
ATOM     45 H    LEU D   3      -8.112   7.759  -4.736  1.00 16.05 LIG 0.16  HD
BRANCH 43 46
ATOM     46  CA  VAL D   2      -6.084   9.302  -4.364  1.00 14.78 LIG 0.18  C 
BRANCH 46 47
ATOM     47  N   VAL D   2      -6.513   8.568  -3.182  1.00 14.77 LIG-0.35  N 
ATOM     48  C   ARG D   1      -7.327   9.113  -2.288  1.00 16.50 LIG 0.25  C 
ATOM     49 O    ARG D   1      -7.808  10.243  -2.412  1.00 16.49 LIG-0.27  OA
ATOM     50 H    VAL D   2      -6.197   7.770  -3.122  1.00 14.77 LIG 0.16  HD
BRANCH 48 51
ATOM     51  CA  ARG D   1      -7.746   8.222  -1.145  1.00 17.64 LIG 0.27  C 
BRANCH 51 52
ATOM     52  N   ARG D   1      -6.553   7.492  -0.646  1.00 17.90 LIG-0.07  N 
ATOM     53 H3   ARG D   1      -6.800   6.697  -0.333  1.00 17.90 LIG 0.28  HD
ATOM     54 H2   ARG D   1      -6.169   7.961   0.007  1.00 17.90 LIG 0.28  HD
ATOM     55 H1   ARG D   1      -5.972   7.381  -1.311  1.00 17.90 LIG 0.28  HD
ENDBRANCH 51 52
BRANCH 51 56
ATOM     56  CB  ARG D   1      -8.358   9.113  -0.054  1.00 19.06 LIG 0.04  C 
BRANCH 56 57
ATOM     57  CG  ARG D   1      -7.450  10.152   0.543  1.00 22.89 LIG 0.02  C 
BRANCH 57 58
ATOM     58  CD  ARG D   1      -7.097   9.740   1.966  1.00 26.83 LIG 0.14  C 
BRANCH 58 59
ATOM     59  NE  ARG D   1      -7.434   8.347   2.233  1.00 30.01 LIG-0.23  N 
ATOM     60  CZ  ARG D   1      -6.683   7.534   2.971  1.00 33.71 LIG 0.67  C 
ATOM     61  NH1 ARG D   1      -5.554   7.984   3.503  1.00 32.13 LIG-0.23  N 
ATOM     62  NH2 ARG D   1      -7.058   6.276   3.177  1.00 33.53 LIG-0.23  N 
ATOM     63 1HH1 ARG D   1      -5.311   8.797   3.371  1.00 32.13 LIG 0.17  HD
ATOM     64 2HH1 ARG D   1      -5.066   7.461   3.981  1.00 32.13 LIG 0.17  HD
ATOM     65 1HH2 ARG D   1      -7.790   5.983   2.833  1.00 33.53 LIG 0.17  HD
ATOM     66 2HH2 ARG D   1      -6.569   5.754   3.656  1.00 33.53 LIG 0.17  HD
ATOM     67 HE   ARG D   1      -8.159   8.033   1.895  1.00 30.01 LIG 0.18  HD
ENDBRANCH 58 59
ENDBRANCH 57 58
ENDBRANCH 56 57
ENDBRANCH 51 56
ENDBRANCH 48 51
ENDBRANCH 46 47
BRANCH 46 68
ATOM     68  CB  VAL D   2      -4.948   8.541  -5.079  1.00 15.28 LIG 0.01  C 
ATOM     69  CG2 VAL D   2      -3.906   9.517  -5.586  1.00 14.68 LIG 0.01  C 
ATOM     70  CG1 VAL D   2      -5.483   7.653  -6.203  1.00 13.75 LIG 0.01  C 
ENDBRANCH 46 68
ENDBRANCH 43 46
ENDBRANCH 41 42
BRANCH 41 71
ATOM     71  CB  LEU D   3      -8.985   7.816  -7.498  1.00 15.85 LIG 0.04  C 
BRANCH 71 72
ATOM     72  CG  LEU D   3      -9.922   8.149  -8.663  1.00 19.10 LIG-0.02  C 
ATOM     73  CD2 LEU D   3      -9.848   7.104  -9.765  1.00 16.59 LIG 0.01  C 
ATOM     74  CD1 LEU D   3      -9.576   9.538  -9.200  1.00 21.08 LIG 0.01  C 
ENDBRANCH 71 72
ENDBRANCH 41 71
ENDBRANCH 1 41
TORSDOF 29
ENDMDL
MODEL 51
USER: ADFR SOLUTION from run 13
USER: SCORE 24.150660 LL:  -6.266 LR: -20.166 RR:   0.000 FEB: -11.515
USER: RMSD 13.272223
USER: SEED 748096
USER: STATUS no improvement in best in 4 clusters for 5 generations
USER: GENES 31
USER: genes 0 Translation |==|  0.61669 0.56350 0.42020
USER: genes 1 Rotation |==|  0.44317 0.80425 0.89250 0.51207
USER: genes 2 Torsion [C]-N--CA-[CB] |==|  0.13403
USER: genes 3 Torsion [N]-CA--CB-[CG] |==|  0.17829
USER: genes 4 Torsion [CA]-CB--CG-[CD1] |==|  0.78744
USER: genes 5 Torsion [N]-CA--C-[N] |==|  0.53235
USER: genes 6 Torsion [C]-N--CA-[C] |==|  0.58170
USER: genes 7 Torsion [N]-CA--CB-[CG] |==|  0.03856
USER: genes 8 Torsion [CA]-CB--CG-[CD] |==|  0.19885
USER: genes 9 Torsion [CB]-CG--CD-[OE1] |==|  0.72946
USER: genes 10 Torsion [N]-CA--C-[N] |==|  0.47196
USER: genes 11 Torsion [C]-N--CA-[CB] |==|  0.50560
USER: genes 12 Torsion [N]-CA--C-[N] |==|  0.43918
USER: genes 13 Torsion [C]-N--CA-[CB] |==|  0.32349
USER: genes 14 Torsion [N]-CA--C-[OXT] |==|  0.75017
USER: genes 15 Torsion [N]-CA--CB-[CG] |==|  0.10684
USER: genes 16 Torsion [CA]-CB--CG-[SD] |==|  0.39093
USER: genes 17 Torsion [CB]-CG--SD-[CE] |==|  0.40307
USER: genes 18 Torsion [N]-C--CA-[N] |==|  0.84304
USER: genes 19 Torsion [C]-CA--N-[C] |==|  0.20994
USER: genes 20 Torsion [N]-C--CA-[N] |==|  0.89925
USER: genes 21 Torsion [C]-CA--N-[C] |==|  0.79179
USER: genes 22 Torsion [N]-C--CA-[N] |==|  0.30729
USER: genes 23 Torsion [C]-CA--N-[H1] |==|  0.59597
USER: genes 24 Torsion [C]-CA--CB-[CG] |==|  0.11249
USER: genes 25 Torsion [CA]-CB--CG-[CD] |==|  0.61680
USER: genes 26 Torsion [CB]-CG--CD-[NE] |==|  0.17082
USER: genes 27 Torsion [CG]-CD--NE-[CZ] |==|  0.29575
USER: genes 28 Torsion [C]-CA--CB-[CG2] |==|  0.13438
USER: genes 29 Torsion [C]-CA--CB-[CG] |==|  0.22788
USER: genes 30 Torsion [CA]-CB--CG-[CD2] |==|  0.97458
ROOT
ATOM      1  C   LEU D   3     -11.607   9.418  -7.724  1.00 15.92 LIG 0.24  C 
ATOM      2 O    LEU D   3     -11.616  10.484  -8.337  1.00 19.39 LIG-0.27  OA
ATOM      3  N   PHE D   4     -12.677   8.637  -7.648  1.00 13.65 LIG-0.35  N 
ATOM      4 H    PHE D   4     -12.656   7.802  -7.439  1.00 13.65 LIG 0.16  HD
ENDROOT
BRANCH 3 5
ATOM      5  CA  PHE D   4     -13.993   9.162  -7.921  1.00 13.25 LIG 0.18  C 
BRANCH 5 6
ATOM      6  CB  PHE D   4     -13.953   9.957  -9.236  1.00 13.20 LIG 0.07  C 
BRANCH 6 7
ATOM      7  CG  PHE D   4     -13.637   9.128 -10.428  1.00 13.63 LIG-0.06  A 
ATOM      8  CD1 PHE D   4     -12.333   8.713 -10.674  1.00 13.10 LIG 0.01  A 
ATOM      9  CE1 PHE D   4     -12.045   7.918 -11.775  1.00 15.10 LIG 0.00  A 
ATOM     10  CZ  PHE D   4     -13.068   7.516 -12.630  1.00 15.27 LIG 0.00  A 
ATOM     11  CE2 PHE D   4     -14.377   7.907 -12.368  1.00 13.31 LIG 0.00  A 
ATOM     12  CD2 PHE D   4     -14.646   8.720 -11.284  1.00 12.44 LIG 0.01  A 
ENDBRANCH 6 7
ENDBRANCH 5 6
BRANCH 5 13
ATOM     13  C   PHE D   4     -14.950   7.974  -8.018  1.00 14.19 LIG 0.24  C 
ATOM     14 O    PHE D   4     -14.631   6.880  -7.560  1.00 15.09 LIG-0.27  OA
ATOM     15  N   GLU D   5     -16.164   8.207  -8.495  1.00 15.42 LIG-0.35  N 
ATOM     16 H    GLU D   5     -16.468   8.987  -8.695  1.00 15.42 LIG 0.16  HD
BRANCH 15 17
ATOM     17  CA  GLU D   5     -17.094   7.114  -8.720  1.00 15.66 LIG 0.18  C 
BRANCH 17 18
ATOM     18  CB  GLU D   5     -17.887   6.801  -7.442  1.00 15.74 LIG 0.04  C 
BRANCH 18 19
ATOM     19  CG  GLU D   5     -17.796   7.858  -6.363  1.00 13.49 LIG 0.12  C 
BRANCH 19 20
ATOM     20  CD  GLU D   5     -18.561   9.121  -6.719  1.00 17.86 LIG 0.17  C 
ATOM     21 OE1  GLU D   5     -17.922  10.077  -7.211  1.00 19.55 LIG-0.65  OA
ATOM     22 OE2  GLU D   5     -19.807   9.140  -6.572  1.00 19.96 LIG-0.65  OA
ENDBRANCH 19 20
ENDBRANCH 18 19
ENDBRANCH 17 18
BRANCH 17 23
ATOM     23  C   GLU D   5     -18.020   7.489  -9.864  1.00 17.50 LIG 0.24  C 
ATOM     24 O    GLU D   5     -18.008   8.629 -10.332  1.00 17.10 LIG-0.27  OA
ATOM     25  N   ALA D   6     -18.795   6.519 -10.334  1.00 19.03 LIG-0.35  N 
ATOM     26 H    ALA D   6     -18.808   5.718 -10.021  1.00 19.03 LIG 0.16  HD
BRANCH 25 27
ATOM     27  CA  ALA D   6     -19.704   6.747 -11.448  1.00 21.37 LIG 0.17  C 
ATOM     28  CB  ALA D   6     -20.496   5.494 -11.744  1.00 21.30 LIG 0.04  C 
BRANCH 27 29
ATOM     29  C   ALA D   6     -20.638   7.898 -11.108  1.00 24.24 LIG 0.24  C 
ATOM     30 O    ALA D   6     -20.839   8.225  -9.938  1.00 22.56 LIG-0.27  OA
ATOM     31  N   MET D   7     -21.199   8.514 -12.141  1.00 27.55 LIG-0.34  N 
ATOM     32 H    MET D   7     -21.138   8.242 -12.954  1.00 27.55 LIG 0.16  HD
BRANCH 31 33
ATOM     33  CA  MET D   7     -21.981   9.733 -11.971  1.00 30.72 LIG 0.19  C 
BRANCH 33 34
ATOM     34  C   MET D   7     -23.392   9.503 -12.491  1.00 33.25 LIG 0.20  C 
ATOM     35 O    MET D   7     -24.248   8.997 -11.753  1.00 35.29 LIG-0.65  OA
ATOM     36 OXT  MET D   7     -23.684   9.733 -13.673  1.00 35.43 LIG-0.65  OA
ENDBRANCH 33 34
BRANCH 33 37
ATOM     37  CB  MET D   7     -21.301  10.897 -12.700  1.00 30.73 LIG 0.05  C 
BRANCH 37 38
ATOM     38  CG  MET D   7     -20.666  10.558 -14.034  1.00 32.79 LIG 0.08  C 
BRANCH 38 39
ATOM     39 SD   MET D   7     -20.921  11.861 -15.240  1.00 33.89 LIG-0.17  SA
ATOM     40  CE  MET D   7     -19.391  11.806 -16.170  1.00 31.39 LIG 0.09  C 
ENDBRANCH 38 39
ENDBRANCH 37 38
ENDBRANCH 33 37
ENDBRANCH 31 33
ENDBRANCH 27 29
ENDBRANCH 25 27
ENDBRANCH 17 23
ENDBRANCH 15 17
ENDBRANCH 5 13
ENDBRANCH 3 5
BRANCH 1 41
ATOM     41  CA  LEU D   3     -10.367   8.952  -6.965  1.00 16.32 LIG 0.18  C 
BRANCH 41 42
ATOM     42  N   LEU D   3     -10.619   8.739  -5.545  1.00 16.05 LIG-0.35  N 
ATOM     43  C   VAL D   2     -11.278   7.665  -5.114  1.00 15.61 LIG 0.24  C 
ATOM     44 O    VAL D   2     -11.787   6.844  -5.880  1.00 16.79 LIG-0.27  OA
ATOM     45 H    LEU D   3     -10.311   9.355  -5.029  1.00 16.05 LIG 0.16  HD
BRANCH 43 46
ATOM     46  CA  VAL D   2     -11.535   7.582  -3.618  1.00 14.78 LIG 0.18  C 
BRANCH 46 47
ATOM     47  N   VAL D   2     -10.374   8.140  -2.939  1.00 14.77 LIG-0.35  N 
ATOM     48  C   ARG D   1      -9.236   7.466  -2.852  1.00 16.50 LIG 0.25  C 
ATOM     49 O    ARG D   1      -9.064   6.358  -3.369  1.00 16.49 LIG-0.27  OA
ATOM     50 H    VAL D   2     -10.496   8.926  -2.610  1.00 14.77 LIG 0.16  HD
BRANCH 48 51
ATOM     51  CA  ARG D   1      -8.091   8.185  -2.181  1.00 17.64 LIG 0.27  C 
BRANCH 51 52
ATOM     52  N   ARG D   1      -7.816   7.531  -0.876  1.00 17.90 LIG-0.07  N 
ATOM     53 H3   ARG D   1      -7.169   6.928  -0.976  1.00 17.90 LIG 0.28  HD
ATOM     54 H2   ARG D   1      -8.554   7.127  -0.584  1.00 17.90 LIG 0.28  HD
ATOM     55 H1   ARG D   1      -7.560   8.144  -0.284  1.00 17.90 LIG 0.28  HD
ENDBRANCH 51 52
BRANCH 51 56
ATOM     56  CB  ARG D   1      -6.876   8.109  -3.116  1.00 19.06 LIG 0.04  C 
BRANCH 56 57
ATOM     57  CG  ARG D   1      -7.150   8.294  -4.582  1.00 22.89 LIG 0.02  C 
BRANCH 57 58
ATOM     58  CD  ARG D   1      -6.332   7.279  -5.369  1.00 26.83 LIG 0.14  C 
BRANCH 58 59
ATOM     59  NE  ARG D   1      -6.689   5.907  -5.034  1.00 30.01 LIG-0.23  N 
ATOM     60  CZ  ARG D   1      -7.389   5.109  -5.834  1.00 33.71 LIG 0.67  C 
ATOM     61  NH1 ARG D   1      -7.808   5.559  -7.009  1.00 32.13 LIG-0.23  N 
ATOM     62  NH2 ARG D   1      -7.672   3.865  -5.462  1.00 33.53 LIG-0.23  N 
ATOM     63 1HH1 ARG D   1      -7.626   6.363  -7.251  1.00 32.13 LIG 0.17  HD
ATOM     64 2HH1 ARG D   1      -8.261   5.046  -7.529  1.00 32.13 LIG 0.17  HD
ATOM     65 1HH2 ARG D   1      -7.401   3.571  -4.700  1.00 33.53 LIG 0.17  HD
ATOM     66 2HH2 ARG D   1      -8.125   3.352  -5.983  1.00 33.53 LIG 0.17  HD
ATOM     67 HE   ARG D   1      -6.431   5.595  -4.275  1.00 30.01 LIG 0.18  HD
ENDBRANCH 58 59
ENDBRANCH 57 58
ENDBRANCH 56 57
ENDBRANCH 51 56
ENDBRANCH 48 51
ENDBRANCH 46 47
BRANCH 46 68
ATOM     68  CB  VAL D   2     -12.802   8.384  -3.250  1.00 15.28 LIG 0.01  C 
ATOM     69  CG2 VAL D   2     -13.938   8.020  -4.185  1.00 14.68 LIG 0.01  C 
ATOM     70  CG1 VAL D   2     -12.536   9.890  -3.246  1.00 13.75 LIG 0.01  C 
ENDBRANCH 46 68
ENDBRANCH 43 46
ENDBRANCH 41 42
BRANCH 41 71
ATOM     71  CB  LEU D   3      -9.778   7.695  -7.613  1.00 15.85 LIG 0.04  C 
BRANCH 71 72
ATOM     72  CG  LEU D   3      -8.874   7.908  -8.830  1.00 19.10 LIG-0.02  C 
ATOM     73  CD2 LEU D   3      -8.904   9.351  -9.311  1.00 16.59 LIG 0.01  C 
ATOM     74  CD1 LEU D   3      -9.298   6.950  -9.942  1.00 21.08 LIG 0.01  C 
ENDBRANCH 71 72
ENDBRANCH 41 71
ENDBRANCH 1 41
TORSDOF 29
ENDMDL
MODEL 52
USER: ADFR SOLUTION from run 47
USER: SCORE 23.639059 LL:  -5.308 LR: -20.165 RR:   0.000 FEB: -11.514
USER: RMSD 13.780466
USER: SEED 46
USER: STATUS no improvement in best in 2 clusters for 5 generations
USER: GENES 31
USER: genes 0 Translation |==|  0.58364 0.58669 0.37114
USER: genes 1 Rotation |==|  0.65535 0.29261 0.07306 0.52409
USER: genes 2 Torsion [C]-N--CA-[CB] |==|  0.88255
USER: genes 3 Torsion [N]-CA--CB-[CG] |==|  0.67685
USER: genes 4 Torsion [CA]-CB--CG-[CD1] |==|  0.05838
USER: genes 5 Torsion [N]-CA--C-[N] |==|  0.35223
USER: genes 6 Torsion [C]-N--CA-[C] |==|  0.63172
USER: genes 7 Torsion [N]-CA--CB-[CG] |==|  0.76757
USER: genes 8 Torsion [CA]-CB--CG-[CD] |==|  0.23718
USER: genes 9 Torsion [CB]-CG--CD-[OE1] |==|  0.52534
USER: genes 10 Torsion [N]-CA--C-[N] |==|  0.12003
USER: genes 11 Torsion [C]-N--CA-[CB] |==|  0.45556
USER: genes 12 Torsion [N]-CA--C-[N] |==|  0.41371
USER: genes 13 Torsion [C]-N--CA-[CB] |==|  0.85233
USER: genes 14 Torsion [N]-CA--C-[OXT] |==|  0.94151
USER: genes 15 Torsion [N]-CA--CB-[CG] |==|  0.88039
USER: genes 16 Torsion [CA]-CB--CG-[SD] |==|  0.38588
USER: genes 17 Torsion [CB]-CG--SD-[CE] |==|  0.67668
USER: genes 18 Torsion [N]-C--CA-[N] |==|  0.87466
USER: genes 19 Torsion [C]-CA--N-[C] |==|  0.78378
USER: genes 20 Torsion [N]-C--CA-[N] |==|  0.10099
USER: genes 21 Torsion [C]-CA--N-[C] |==|  0.16838
USER: genes 22 Torsion [N]-C--CA-[N] |==|  0.23246
USER: genes 23 Torsion [C]-CA--N-[H1] |==|  0.96887
USER: genes 24 Torsion [C]-CA--CB-[CG] |==|  0.82048
USER: genes 25 Torsion [CA]-CB--CG-[CD] |==|  0.35546
USER: genes 26 Torsion [CB]-CG--CD-[NE] |==|  0.87593
USER: genes 27 Torsion [CG]-CD--NE-[CZ] |==|  0.27072
USER: genes 28 Torsion [C]-CA--CB-[CG2] |==|  0.57783
USER: genes 29 Torsion [C]-CA--CB-[CG] |==|  0.25509
USER: genes 30 Torsion [CA]-CB--CG-[CD2] |==|  0.59231
ROOT
ATOM      1  C   LEU D   3     -12.549   9.713  -9.122  1.00 15.92 LIG 0.24  C 
ATOM      2 O    LEU D   3     -12.926  10.860  -9.360  1.00 19.39 LIG-0.27  OA
ATOM      3  N   PHE D   4     -13.188   8.648  -9.587  1.00 13.65 LIG-0.35  N 
ATOM      4 H    PHE D   4     -12.845   7.861  -9.644  1.00 13.65 LIG 0.16  HD
ENDROOT
BRANCH 3 5
ATOM      5  CA  PHE D   4     -14.554   8.749 -10.043  1.00 13.25 LIG 0.18  C 
BRANCH 5 6
ATOM      6  CB  PHE D   4     -15.346   9.630  -9.063  1.00 13.20 LIG 0.07  C 
BRANCH 6 7
ATOM      7  CG  PHE D   4     -16.443   8.912  -8.362  1.00 13.63 LIG-0.06  A 
ATOM      8  CD1 PHE D   4     -16.427   7.525  -8.261  1.00 13.10 LIG 0.01  A 
ATOM      9  CE1 PHE D   4     -17.439   6.858  -7.584  1.00 15.10 LIG 0.00  A 
ATOM     10  CZ  PHE D   4     -18.468   7.581  -6.985  1.00 15.27 LIG 0.00  A 
ATOM     11  CE2 PHE D   4     -18.468   8.970  -7.061  1.00 13.31 LIG 0.00  A 
ATOM     12  CD2 PHE D   4     -17.470   9.618  -7.760  1.00 12.44 LIG 0.01  A 
ENDBRANCH 6 7
ENDBRANCH 5 6
BRANCH 5 13
ATOM     13  C   PHE D   4     -14.526   9.362 -11.442  1.00 14.19 LIG 0.24  C 
ATOM     14 O    PHE D   4     -13.846  10.358 -11.672  1.00 15.09 LIG-0.27  OA
ATOM     15  N   GLU D   5     -15.157   8.707 -12.407  1.00 15.42 LIG-0.35  N 
ATOM     16 H    GLU D   5     -15.525   7.935 -12.311  1.00 15.42 LIG 0.16  HD
BRANCH 15 17
ATOM     17  CA  GLU D   5     -15.268   9.276 -13.739  1.00 15.66 LIG 0.18  C 
BRANCH 17 18
ATOM     18  CB  GLU D   5     -14.307   8.578 -14.713  1.00 15.74 LIG 0.04  C 
BRANCH 18 19
ATOM     19  CG  GLU D   5     -12.889   9.110 -14.696  1.00 13.49 LIG 0.12  C 
BRANCH 19 20
ATOM     20  CD  GLU D   5     -12.039   8.463 -13.616  1.00 17.86 LIG 0.17  C 
ATOM     21 OE1  GLU D   5     -10.906   8.944 -13.392  1.00 19.55 LIG-0.65  OA
ATOM     22 OE2  GLU D   5     -12.521   7.518 -12.945  1.00 19.96 LIG-0.65  OA
ENDBRANCH 19 20
ENDBRANCH 18 19
ENDBRANCH 17 18
BRANCH 17 23
ATOM     23  C   GLU D   5     -16.708   9.150 -14.203  1.00 17.50 LIG 0.24  C 
ATOM     24 O    GLU D   5     -16.968   8.761 -15.343  1.00 17.10 LIG-0.27  OA
ATOM     25  N   ALA D   6     -17.642   9.447 -13.307  1.00 19.03 LIG-0.35  N 
ATOM     26 H    ALA D   6     -17.475   9.714 -12.507  1.00 19.03 LIG 0.16  HD
BRANCH 25 27
ATOM     27  CA  ALA D   6     -19.059   9.338 -13.624  1.00 21.37 LIG 0.17  C 
ATOM     28  CB  ALA D   6     -19.882   9.346 -12.355  1.00 21.30 LIG 0.04  C 
BRANCH 27 29
ATOM     29  C   ALA D   6     -19.464  10.492 -14.527  1.00 24.24 LIG 0.24  C 
ATOM     30 O    ALA D   6     -18.899  11.583 -14.450  1.00 22.56 LIG-0.27  OA
ATOM     31  N   MET D   7     -20.441  10.238 -15.389  1.00 27.55 LIG-0.34  N 
ATOM     32 H    MET D   7     -20.903   9.513 -15.393  1.00 27.55 LIG 0.16  HD
BRANCH 31 33
ATOM     33  CA  MET D   7     -20.815  11.196 -16.423  1.00 30.72 LIG 0.19  C 
BRANCH 33 34
ATOM     34  C   MET D   7     -19.701  11.285 -17.455  1.00 33.25 LIG 0.20  C 
ATOM     35 O    MET D   7     -19.960  11.630 -18.616  1.00 35.29 LIG-0.65  OA
ATOM     36 OXT  MET D   7     -18.545  10.933 -17.181  1.00 35.43 LIG-0.65  OA
ENDBRANCH 33 34
BRANCH 33 37
ATOM     37  CB  MET D   7     -21.100  12.563 -15.791  1.00 30.73 LIG 0.05  C 
BRANCH 37 38
ATOM     38  CG  MET D   7     -21.914  12.540 -14.513  1.00 32.79 LIG 0.08  C 
BRANCH 38 39
ATOM     39 SD   MET D   7     -21.281  13.706 -13.304  1.00 33.89 LIG-0.17  SA
ATOM     40  CE  MET D   7     -20.767  12.618 -11.977  1.00 31.39 LIG 0.09  C 
ENDBRANCH 38 39
ENDBRANCH 37 38
ENDBRANCH 33 37
ENDBRANCH 31 33
ENDBRANCH 27 29
ENDBRANCH 25 27
ENDBRANCH 17 23
ENDBRANCH 15 17
ENDBRANCH 5 13
ENDBRANCH 3 5
BRANCH 1 41
ATOM     41  CA  LEU D   3     -11.342   9.447  -8.226  1.00 16.32 LIG 0.18  C 
BRANCH 41 42
ATOM     42  N   LEU D   3     -11.596   8.421  -7.222  1.00 16.05 LIG-0.35  N 
ATOM     43  C   VAL D   2     -12.294   8.692  -6.121  1.00 15.61 LIG 0.24  C 
ATOM     44 O    VAL D   2     -12.684   9.827  -5.841  1.00 16.79 LIG-0.27  OA
ATOM     45 H    LEU D   3     -11.262   7.650  -7.405  1.00 16.05 LIG 0.16  HD
BRANCH 43 46
ATOM     46  CA  VAL D   2     -12.442   7.560  -5.117  1.00 14.78 LIG 0.18  C 
BRANCH 46 47
ATOM     47  N   VAL D   2     -11.195   6.807  -5.114  1.00 14.77 LIG-0.35  N 
ATOM     48  C   ARG D   1     -10.045   7.380  -4.784  1.00 16.50 LIG 0.25  C 
ATOM     49 O    ARG D   1      -9.954   8.555  -4.421  1.00 16.49 LIG-0.27  OA
ATOM     50 H    VAL D   2     -11.276   5.981  -5.338  1.00 14.77 LIG 0.16  HD
BRANCH 48 51
ATOM     51  CA  ARG D   1      -8.840   6.472  -4.757  1.00 17.64 LIG 0.27  C 
BRANCH 51 52
ATOM     52  N   ARG D   1      -8.303   6.349  -6.137  1.00 17.90 LIG-0.07  N 
ATOM     53 H3   ARG D   1      -8.171   5.490  -6.329  1.00 17.90 LIG 0.28  HD
ATOM     54 H2   ARG D   1      -7.530   6.788  -6.196  1.00 17.90 LIG 0.28  HD
ATOM     55 H1   ARG D   1      -8.885   6.695  -6.714  1.00 17.90 LIG 0.28  HD
ENDBRANCH 51 52
BRANCH 51 56
ATOM     56  CB  ARG D   1      -7.806   7.092  -3.805  1.00 19.06 LIG 0.04  C 
BRANCH 56 57
ATOM     57  CG  ARG D   1      -7.232   8.419  -4.219  1.00 22.89 LIG 0.02  C 
BRANCH 57 58
ATOM     58  CD  ARG D   1      -7.379   9.401  -3.064  1.00 26.83 LIG 0.14  C 
BRANCH 58 59
ATOM     59  NE  ARG D   1      -8.701   9.336  -2.453  1.00 30.01 LIG-0.23  N 
ATOM     60  CZ  ARG D   1      -8.972   8.640  -1.353  1.00 33.71 LIG 0.67  C 
ATOM     61  NH1 ARG D   1      -8.009   7.950  -0.757  1.00 32.13 LIG-0.23  N 
ATOM     62  NH2 ARG D   1     -10.202   8.633  -0.849  1.00 33.53 LIG-0.23  N 
ATOM     63 1HH1 ARG D   1      -7.213   7.954  -1.081  1.00 32.13 LIG 0.17  HD
ATOM     64 2HH1 ARG D   1      -8.181   7.499  -0.045  1.00 32.13 LIG 0.17  HD
ATOM     65 1HH2 ARG D   1     -10.827   9.080  -1.234  1.00 33.53 LIG 0.17  HD
ATOM     66 2HH2 ARG D   1     -10.372   8.182  -0.136  1.00 33.53 LIG 0.17  HD
ATOM     67 HE   ARG D   1      -9.341   9.772  -2.825  1.00 30.01 LIG 0.18  HD
ENDBRANCH 58 59
ENDBRANCH 57 58
ENDBRANCH 56 57
ENDBRANCH 51 56
ENDBRANCH 48 51
ENDBRANCH 46 47
BRANCH 46 68
ATOM     68  CB  VAL D   2     -12.723   8.128  -3.710  1.00 15.28 LIG 0.01  C 
ATOM     69  CG2 VAL D   2     -12.206   7.175  -2.651  1.00 14.68 LIG 0.01  C 
ATOM     70  CG1 VAL D   2     -14.207   8.439  -3.512  1.00 13.75 LIG 0.01  C 
ENDBRANCH 46 68
ENDBRANCH 43 46
ENDBRANCH 41 42
BRANCH 41 71
ATOM     71  CB  LEU D   3     -10.111   9.097  -9.069  1.00 15.85 LIG 0.04  C 
BRANCH 71 72
ATOM     72  CG  LEU D   3      -9.200  10.261  -9.470  1.00 19.10 LIG-0.02  C 
ATOM     73  CD2 LEU D   3      -8.568  10.040 -10.836  1.00 16.59 LIG 0.01  C 
ATOM     74  CD1 LEU D   3      -8.130  10.451  -8.396  1.00 21.08 LIG 0.01  C 
ENDBRANCH 71 72
ENDBRANCH 41 71
ENDBRANCH 1 41
TORSDOF 29
ENDMDL
MODEL 53
USER: ADFR SOLUTION from run 21
USER: SCORE 23.723325 LL:  -6.002 LR: -20.164 RR:   0.000 FEB: -11.514
USER: RMSD 13.910368
USER: SEED 20
USER: STATUS no improvement in best in 3 clusters for 5 generations
USER: GENES 31
USER: genes 0 Translation |==|  0.52722 0.38267 0.48110
USER: genes 1 Rotation |==|  0.46598 0.97139 0.60812 0.62223
USER: genes 2 Torsion [C]-N--CA-[CB] |==|  0.52901
USER: genes 3 Torsion [N]-CA--CB-[CG] |==|  0.52325
USER: genes 4 Torsion [CA]-CB--CG-[CD1] |==|  0.67011
USER: genes 5 Torsion [N]-CA--C-[N] |==|  0.35374
USER: genes 6 Torsion [C]-N--CA-[C] |==|  0.65573
USER: genes 7 Torsion [N]-CA--CB-[CG] |==|  0.80076
USER: genes 8 Torsion [CA]-CB--CG-[CD] |==|  0.90081
USER: genes 9 Torsion [CB]-CG--CD-[OE1] |==|  0.41267
USER: genes 10 Torsion [N]-CA--C-[N] |==|  0.97566
USER: genes 11 Torsion [C]-N--CA-[CB] |==|  0.45556
USER: genes 12 Torsion [N]-CA--C-[N] |==|  0.49989
USER: genes 13 Torsion [C]-N--CA-[CB] |==|  0.26466
USER: genes 14 Torsion [N]-CA--C-[OXT] |==|  0.22934
USER: genes 15 Torsion [N]-CA--CB-[CG] |==|  0.08670
USER: genes 16 Torsion [CA]-CB--CG-[SD] |==|  0.40043
USER: genes 17 Torsion [CB]-CG--SD-[CE] |==|  0.04114
USER: genes 18 Torsion [N]-C--CA-[N] |==|  0.60998
USER: genes 19 Torsion [C]-CA--N-[C] |==|  0.65713
USER: genes 20 Torsion [N]-C--CA-[N] |==|  0.41327
USER: genes 21 Torsion [C]-CA--N-[C] |==|  0.80716
USER: genes 22 Torsion [N]-C--CA-[N] |==|  0.74033
USER: genes 23 Torsion [C]-CA--N-[H1] |==|  0.99453
USER: genes 24 Torsion [C]-CA--CB-[CG] |==|  0.44189
USER: genes 25 Torsion [CA]-CB--CG-[CD] |==|  0.04681
USER: genes 26 Torsion [CB]-CG--CD-[NE] |==|  0.22936
USER: genes 27 Torsion [CG]-CD--NE-[CZ] |==|  0.57006
USER: genes 28 Torsion [C]-CA--CB-[CG2] |==|  0.45901
USER: genes 29 Torsion [C]-CA--CB-[CG] |==|  0.53774
USER: genes 30 Torsion [CA]-CB--CG-[CD2] |==|  0.19320
ROOT
ATOM      1  C   LEU D   3     -14.157   7.112  -5.989  1.00 15.92 LIG 0.24  C 
ATOM      2 O    LEU D   3     -13.601   6.733  -7.018  1.00 19.39 LIG-0.27  OA
ATOM      3  N   PHE D   4     -15.474   7.250  -5.905  1.00 13.65 LIG-0.35  N 
ATOM      4 H    PHE D   4     -15.914   7.284  -5.167  1.00 13.65 LIG 0.16  HD
ENDROOT
BRANCH 3 5
ATOM      5  CA  PHE D   4     -16.280   7.355  -7.098  1.00 13.25 LIG 0.18  C 
BRANCH 5 6
ATOM      6  CB  PHE D   4     -17.708   7.765  -6.703  1.00 13.20 LIG 0.07  C 
BRANCH 6 7
ATOM      7  CG  PHE D   4     -18.680   7.714  -7.826  1.00 13.63 LIG-0.06  A 
ATOM      8  CD1 PHE D   4     -19.339   8.866  -8.241  1.00 13.10 LIG 0.01  A 
ATOM      9  CE1 PHE D   4     -20.227   8.822  -9.307  1.00 15.10 LIG 0.00  A 
ATOM     10  CZ  PHE D   4     -20.447   7.621  -9.980  1.00 15.27 LIG 0.00  A 
ATOM     11  CE2 PHE D   4     -19.765   6.476  -9.583  1.00 13.31 LIG 0.00  A 
ATOM     12  CD2 PHE D   4     -18.905   6.529  -8.505  1.00 12.44 LIG 0.01  A 
ENDBRANCH 6 7
ENDBRANCH 5 6
BRANCH 5 13
ATOM     13  C   PHE D   4     -15.630   8.404  -7.999  1.00 14.19 LIG 0.24  C 
ATOM     14 O    PHE D   4     -15.264   9.481  -7.537  1.00 15.09 LIG-0.27  OA
ATOM     15  N   GLU D   5     -15.371   8.055  -9.252  1.00 15.42 LIG-0.35  N 
ATOM     16 H    GLU D   5     -15.487   7.264  -9.570  1.00 15.42 LIG 0.16  HD
BRANCH 15 17
ATOM     17  CA  GLU D   5     -14.855   9.027 -10.200  1.00 15.66 LIG 0.18  C 
BRANCH 17 18
ATOM     18  CB  GLU D   5     -13.421   8.670 -10.621  1.00 15.74 LIG 0.04  C 
BRANCH 18 19
ATOM     19  CG  GLU D   5     -12.372   8.891  -9.551  1.00 13.49 LIG 0.12  C 
BRANCH 19 20
ATOM     20  CD  GLU D   5     -12.664  10.109  -8.693  1.00 17.86 LIG 0.17  C 
ATOM     21 OE1  GLU D   5     -12.298  10.089  -7.497  1.00 19.55 LIG-0.65  OA
ATOM     22 OE2  GLU D   5     -13.200  11.114  -9.223  1.00 19.96 LIG-0.65  OA
ENDBRANCH 19 20
ENDBRANCH 18 19
ENDBRANCH 17 18
BRANCH 17 23
ATOM     23  C   GLU D   5     -15.783   9.077 -11.400  1.00 17.50 LIG 0.24  C 
ATOM     24 O    GLU D   5     -15.623   9.922 -12.282  1.00 17.10 LIG-0.27  OA
ATOM     25  N   ALA D   6     -16.731   8.148 -11.449  1.00 19.03 LIG-0.35  N 
ATOM     26 H    ALA D   6     -16.850   7.549 -10.844  1.00 19.03 LIG 0.16  HD
BRANCH 25 27
ATOM     27  CA  ALA D   6     -17.665   8.074 -12.563  1.00 21.37 LIG 0.17  C 
ATOM     28  CB  ALA D   6     -18.363   6.733 -12.575  1.00 21.30 LIG 0.04  C 
BRANCH 27 29
ATOM     29  C   ALA D   6     -18.680   9.199 -12.444  1.00 24.24 LIG 0.24  C 
ATOM     30 O    ALA D   6     -18.628  10.004 -11.514  1.00 22.56 LIG-0.27  OA
ATOM     31  N   MET D   7     -19.599   9.255 -13.402  1.00 27.55 LIG-0.34  N 
ATOM     32 H    MET D   7     -19.702   8.651 -14.005  1.00 27.55 LIG 0.16  HD
BRANCH 31 33
ATOM     33  CA  MET D   7     -20.528  10.374 -13.505  1.00 30.72 LIG 0.19  C 
BRANCH 33 34
ATOM     34  C   MET D   7     -21.894   9.857 -13.930  1.00 33.25 LIG 0.20  C 
ATOM     35 O    MET D   7     -22.267   9.985 -15.103  1.00 35.29 LIG-0.65  OA
ATOM     36 OXT  MET D   7     -22.685   9.384 -13.100  1.00 35.43 LIG-0.65  OA
ENDBRANCH 33 34
BRANCH 33 37
ATOM     37  CB  MET D   7     -19.990  11.410 -14.498  1.00 30.73 LIG 0.05  C 
BRANCH 37 38
ATOM     38  CG  MET D   7     -19.157  10.860 -15.638  1.00 32.79 LIG 0.08  C 
BRANCH 38 39
ATOM     39 SD   MET D   7     -19.432  11.770 -17.160  1.00 33.89 LIG-0.17  SA
ATOM     40  CE  MET D   7     -20.261  13.242 -16.562  1.00 31.39 LIG 0.09  C 
ENDBRANCH 38 39
ENDBRANCH 37 38
ENDBRANCH 33 37
ENDBRANCH 31 33
ENDBRANCH 27 29
ENDBRANCH 25 27
ENDBRANCH 17 23
ENDBRANCH 15 17
ENDBRANCH 5 13
ENDBRANCH 3 5
BRANCH 1 41
ATOM     41  CA  LEU D   3     -13.351   7.500  -4.751  1.00 16.32 LIG 0.18  C 
BRANCH 41 42
ATOM     42  N   LEU D   3     -12.111   8.194  -5.077  1.00 16.05 LIG-0.35  N 
ATOM     43  C   VAL D   2     -10.934   7.736  -4.657  1.00 15.61 LIG 0.24  C 
ATOM     44 O    VAL D   2     -10.826   6.768  -3.903  1.00 16.79 LIG-0.27  OA
ATOM     45 H    LEU D   3     -12.212   8.904  -5.552  1.00 16.05 LIG 0.16  HD
BRANCH 43 46
ATOM     46  CA  VAL D   2      -9.716   8.578  -5.005  1.00 14.78 LIG 0.18  C 
BRANCH 46 47
ATOM     47  N   VAL D   2      -8.740   8.406  -3.938  1.00 14.77 LIG-0.35  N 
ATOM     48  C   ARG D   1      -8.949   8.903  -2.726  1.00 16.50 LIG 0.25  C 
ATOM     49 O    ARG D   1      -9.983   9.495  -2.406  1.00 16.49 LIG-0.27  OA
ATOM     50 H    VAL D   2      -8.037   7.964  -4.164  1.00 14.77 LIG 0.16  HD
BRANCH 48 51
ATOM     51  CA  ARG D   1      -7.890   8.596  -1.696  1.00 17.64 LIG 0.27  C 
BRANCH 51 52
ATOM     52  N   ARG D   1      -8.288   7.374  -0.951  1.00 17.90 LIG-0.07  N 
ATOM     53 H3   ARG D   1      -8.343   7.561  -0.082  1.00 17.90 LIG 0.28  HD
ATOM     54 H2   ARG D   1      -7.679   6.737  -1.078  1.00 17.90 LIG 0.28  HD
ATOM     55 H1   ARG D   1      -9.079   7.091  -1.244  1.00 17.90 LIG 0.28  HD
ENDBRANCH 51 52
BRANCH 51 56
ATOM     56  CB  ARG D   1      -6.559   8.396  -2.435  1.00 19.06 LIG 0.04  C 
BRANCH 56 57
ATOM     57  CG  ARG D   1      -5.310   8.563  -1.616  1.00 22.89 LIG 0.02  C 
BRANCH 57 58
ATOM     58  CD  ARG D   1      -5.676   8.488  -0.139  1.00 26.83 LIG 0.14  C 
BRANCH 58 59
ATOM     59  NE  ARG D   1      -5.785   7.113   0.331  1.00 30.01 LIG-0.23  N 
ATOM     60  CZ  ARG D   1      -6.526   6.744   1.372  1.00 33.71 LIG 0.67  C 
ATOM     61  NH1 ARG D   1      -7.213   7.657   2.046  1.00 32.13 LIG-0.23  N 
ATOM     62  NH2 ARG D   1      -6.581   5.468   1.738  1.00 33.53 LIG-0.23  N 
ATOM     63 1HH1 ARG D   1      -7.178   8.482   1.810  1.00 32.13 LIG 0.17  HD
ATOM     64 2HH1 ARG D   1      -7.694   7.422   2.719  1.00 32.13 LIG 0.17  HD
ATOM     65 1HH2 ARG D   1      -6.136   4.875   1.302  1.00 33.53 LIG 0.17  HD
ATOM     66 2HH2 ARG D   1      -7.063   5.234   2.412  1.00 33.53 LIG 0.17  HD
ATOM     67 HE   ARG D   1      -5.345   6.506  -0.089  1.00 30.01 LIG 0.18  HD
ENDBRANCH 58 59
ENDBRANCH 57 58
ENDBRANCH 56 57
ENDBRANCH 51 56
ENDBRANCH 48 51
ENDBRANCH 46 47
BRANCH 46 68
ATOM     68  CB  VAL D   2      -9.117   8.117  -6.351  1.00 15.28 LIG 0.01  C 
ATOM     69  CG2 VAL D   2      -8.150   9.161  -6.875  1.00 14.68 LIG 0.01  C 
ATOM     70  CG1 VAL D   2     -10.207   7.797  -7.375  1.00 13.75 LIG 0.01  C 
ENDBRANCH 46 68
ENDBRANCH 43 46
ENDBRANCH 41 42
BRANCH 41 71
ATOM     71  CB  LEU D   3     -14.207   8.328  -3.788  1.00 15.85 LIG 0.04  C 
BRANCH 71 72
ATOM     72  CG  LEU D   3     -13.465   9.060  -2.665  1.00 19.10 LIG-0.02  C 
ATOM     73  CD2 LEU D   3     -12.621  10.207  -3.199  1.00 16.59 LIG 0.01  C 
ATOM     74  CD1 LEU D   3     -12.605   8.057  -1.898  1.00 21.08 LIG 0.01  C 
ENDBRANCH 71 72
ENDBRANCH 41 71
ENDBRANCH 1 41
TORSDOF 29
ENDMDL
MODEL 54
USER: ADFR SOLUTION from run 22
USER: SCORE 20.785474 LL:  -5.518 LR: -20.162 RR:   0.000 FEB: -11.512
USER: RMSD 13.291756
USER: SEED 21
USER: STATUS no improvement in best in 4 clusters for 5 generations
USER: GENES 31
USER: genes 0 Translation |==|  0.58906 0.53503 0.45354
USER: genes 1 Rotation |==|  0.49074 0.24942 0.12718 0.71937
USER: genes 2 Torsion [C]-N--CA-[CB] |==|  0.83567
USER: genes 3 Torsion [N]-CA--CB-[CG] |==|  0.80500
USER: genes 4 Torsion [CA]-CB--CG-[CD1] |==|  0.79237
USER: genes 5 Torsion [N]-CA--C-[N] |==|  0.13602
USER: genes 6 Torsion [C]-N--CA-[C] |==|  0.24037
USER: genes 7 Torsion [N]-CA--CB-[CG] |==|  0.38046
USER: genes 8 Torsion [CA]-CB--CG-[CD] |==|  0.71319
USER: genes 9 Torsion [CB]-CG--CD-[OE1] |==|  0.74419
USER: genes 10 Torsion [N]-CA--C-[N] |==|  0.38814
USER: genes 11 Torsion [C]-N--CA-[CB] |==|  0.14806
USER: genes 12 Torsion [N]-CA--C-[N] |==|  0.52222
USER: genes 13 Torsion [C]-N--CA-[CB] |==|  0.40532
USER: genes 14 Torsion [N]-CA--C-[OXT] |==|  0.71970
USER: genes 15 Torsion [N]-CA--CB-[CG] |==|  0.68349
USER: genes 16 Torsion [CA]-CB--CG-[SD] |==|  0.38320
USER: genes 17 Torsion [CB]-CG--SD-[CE] |==|  0.30526
USER: genes 18 Torsion [N]-C--CA-[N] |==|  0.93428
USER: genes 19 Torsion [C]-CA--N-[C] |==|  0.57132
USER: genes 20 Torsion [N]-C--CA-[N] |==|  0.76232
USER: genes 21 Torsion [C]-CA--N-[C] |==|  0.52976
USER: genes 22 Torsion [N]-C--CA-[N] |==|  0.35155
USER: genes 23 Torsion [C]-CA--N-[H1] |==|  0.88316
USER: genes 24 Torsion [C]-CA--CB-[CG] |==|  0.40741
USER: genes 25 Torsion [CA]-CB--CG-[CD] |==|  0.10546
USER: genes 26 Torsion [CB]-CG--CD-[NE] |==|  0.37472
USER: genes 27 Torsion [CG]-CD--NE-[CZ] |==|  0.60113
USER: genes 28 Torsion [C]-CA--CB-[CG2] |==|  0.73516
USER: genes 29 Torsion [C]-CA--CB-[CG] |==|  0.87193
USER: genes 30 Torsion [CA]-CB--CG-[CD2] |==|  0.67995
ROOT
ATOM      1  C   LEU D   3     -12.395   9.055  -6.774  1.00 15.92 LIG 0.24  C 
ATOM      2 O    LEU D   3     -13.353   9.807  -6.947  1.00 19.39 LIG-0.27  OA
ATOM      3  N   PHE D   4     -12.525   7.864  -6.205  1.00 13.65 LIG-0.35  N 
ATOM      4 H    PHE D   4     -11.950   7.227  -6.271  1.00 13.65 LIG 0.16  HD
ENDROOT
BRANCH 3 5
ATOM      5  CA  PHE D   4     -13.686   7.552  -5.407  1.00 13.25 LIG 0.18  C 
BRANCH 5 6
ATOM      6  CB  PHE D   4     -13.775   8.548  -4.240  1.00 13.20 LIG 0.07  C 
BRANCH 6 7
ATOM      7  CG  PHE D   4     -12.720   8.362  -3.210  1.00 13.63 LIG-0.06  A 
ATOM      8  CD1 PHE D   4     -12.787   7.301  -2.314  1.00 13.10 LIG 0.01  A 
ATOM      9  CE1 PHE D   4     -11.788   7.114  -1.369  1.00 15.10 LIG 0.00  A 
ATOM     10  CZ  PHE D   4     -10.698   7.982  -1.328  1.00 15.27 LIG 0.00  A 
ATOM     11  CE2 PHE D   4     -10.616   9.026  -2.244  1.00 13.31 LIG 0.00  A 
ATOM     12  CD2 PHE D   4     -11.631   9.215  -3.161  1.00 12.44 LIG 0.01  A 
ENDBRANCH 6 7
ENDBRANCH 5 6
BRANCH 5 13
ATOM     13  C   PHE D   4     -14.909   7.652  -6.318  1.00 14.19 LIG 0.24  C 
ATOM     14 O    PHE D   4     -15.849   8.382  -6.019  1.00 15.09 LIG-0.27  OA
ATOM     15  N   GLU D   5     -14.852   7.024  -7.484  1.00 15.42 LIG-0.35  N 
ATOM     16 H    GLU D   5     -14.155   6.620  -7.786  1.00 15.42 LIG 0.16  HD
BRANCH 15 17
ATOM     17  CA  GLU D   5     -16.011   6.981  -8.359  1.00 15.66 LIG 0.18  C 
BRANCH 17 18
ATOM     18  CB  GLU D   5     -17.308   6.870  -7.543  1.00 15.74 LIG 0.04  C 
BRANCH 18 19
ATOM     19  CG  GLU D   5     -18.438   7.756  -8.023  1.00 13.49 LIG 0.12  C 
BRANCH 19 20
ATOM     20  CD  GLU D   5     -18.627   8.983  -7.149  1.00 17.86 LIG 0.17  C 
ATOM     21 OE1  GLU D   5     -19.439   8.910  -6.200  1.00 19.55 LIG-0.65  OA
ATOM     22 OE2  GLU D   5     -17.921   9.999  -7.364  1.00 19.96 LIG-0.65  OA
ENDBRANCH 19 20
ENDBRANCH 18 19
ENDBRANCH 17 18
BRANCH 17 23
ATOM     23  C   GLU D   5     -16.012   8.228  -9.227  1.00 17.50 LIG 0.24  C 
ATOM     24 O    GLU D   5     -15.671   9.316  -8.761  1.00 17.10 LIG-0.27  OA
ATOM     25  N   ALA D   6     -16.363   8.059 -10.497  1.00 19.03 LIG-0.35  N 
ATOM     26 H    ALA D   6     -16.597   7.304 -10.836  1.00 19.03 LIG 0.16  HD
BRANCH 25 27
ATOM     27  CA  ALA D   6     -16.375   9.172 -11.434  1.00 21.37 LIG 0.17  C 
ATOM     28  CB  ALA D   6     -15.039   9.880 -11.426  1.00 21.30 LIG 0.04  C 
BRANCH 27 29
ATOM     29  C   ALA D   6     -16.692   8.654 -12.828  1.00 24.24 LIG 0.24  C 
ATOM     30 O    ALA D   6     -17.043   7.487 -13.005  1.00 22.56 LIG-0.27  OA
ATOM     31  N   MET D   7     -16.575   9.535 -13.814  1.00 27.55 LIG-0.34  N 
ATOM     32 H    MET D   7     -16.246  10.324 -13.718  1.00 27.55 LIG 0.16  HD
BRANCH 31 33
ATOM     33  CA  MET D   7     -17.005   9.223 -15.172  1.00 30.72 LIG 0.19  C 
BRANCH 33 34
ATOM     34  C   MET D   7     -15.835   8.642 -15.951  1.00 33.25 LIG 0.20  C 
ATOM     35 O    MET D   7     -15.460   7.483 -15.732  1.00 35.29 LIG-0.65  OA
ATOM     36 OXT  MET D   7     -15.188   9.338 -16.747  1.00 35.43 LIG-0.65  OA
ENDBRANCH 33 34
BRANCH 33 37
ATOM     37  CB  MET D   7     -17.556  10.483 -15.849  1.00 30.73 LIG 0.05  C 
BRANCH 37 38
ATOM     38  CG  MET D   7     -19.036  10.462 -16.176  1.00 32.79 LIG 0.08  C 
BRANCH 38 39
ATOM     39 SD   MET D   7     -19.821  12.030 -15.795  1.00 33.89 LIG-0.17  SA
ATOM     40  CE  MET D   7     -20.176  12.669 -17.431  1.00 31.39 LIG 0.09  C 
ENDBRANCH 38 39
ENDBRANCH 37 38
ENDBRANCH 33 37
ENDBRANCH 31 33
ENDBRANCH 27 29
ENDBRANCH 25 27
ENDBRANCH 17 23
ENDBRANCH 15 17
ENDBRANCH 5 13
ENDBRANCH 3 5
BRANCH 1 41
ATOM     41  CA  LEU D   3     -10.978   9.475  -7.161  1.00 16.32 LIG 0.18  C 
BRANCH 41 42
ATOM     42  N   LEU D   3      -9.952   8.790  -6.384  1.00 16.05 LIG-0.35  N 
ATOM     43  C   VAL D   2      -8.753   9.336  -6.192  1.00 15.61 LIG 0.24  C 
ATOM     44 O    VAL D   2      -8.409  10.392  -6.725  1.00 16.79 LIG-0.27  OA
ATOM     45 H    LEU D   3     -10.189   8.024  -6.073  1.00 16.05 LIG 0.16  HD
BRANCH 43 46
ATOM     46  CA  VAL D   2      -7.744   8.501  -5.419  1.00 14.78 LIG 0.18  C 
BRANCH 46 47
ATOM     47  N   VAL D   2      -7.968   8.740  -4.000  1.00 14.77 LIG-0.35  N 
ATOM     48  C   ARG D   1      -7.109   8.314  -3.084  1.00 16.50 LIG 0.25  C 
ATOM     49 O    ARG D   1      -6.054   7.736  -3.363  1.00 16.49 LIG-0.27  OA
ATOM     50 H    VAL D   2      -8.691   9.172  -3.820  1.00 14.77 LIG 0.16  HD
BRANCH 48 51
ATOM     51  CA  ARG D   1      -7.426   8.686  -1.657  1.00 17.64 LIG 0.27  C 
BRANCH 51 52
ATOM     52  N   ARG D   1      -7.432   7.450  -0.832  1.00 17.90 LIG-0.07  N 
ATOM     53 H3   ARG D   1      -7.861   7.605  -0.068  1.00 17.90 LIG 0.28  HD
ATOM     54 H2   ARG D   1      -6.594   7.206  -0.656  1.00 17.90 LIG 0.28  HD
ATOM     55 H1   ARG D   1      -7.844   6.798  -1.276  1.00 17.90 LIG 0.28  HD
ENDBRANCH 51 52
BRANCH 51 56
ATOM     56  CB  ARG D   1      -6.353   9.675  -1.179  1.00 19.06 LIG 0.04  C 
BRANCH 56 57
ATOM     57  CG  ARG D   1      -6.804  10.727  -0.205  1.00 22.89 LIG 0.02  C 
BRANCH 57 58
ATOM     58  CD  ARG D   1      -7.808  10.108   0.759  1.00 26.83 LIG 0.14  C 
BRANCH 58 59
ATOM     59  NE  ARG D   1      -7.543  10.483   2.143  1.00 30.01 LIG-0.23  N 
ATOM     60  CZ  ARG D   1      -7.720   9.665   3.176  1.00 33.71 LIG 0.67  C 
ATOM     61  NH1 ARG D   1      -8.167   8.433   2.971  1.00 32.13 LIG-0.23  N 
ATOM     62  NH2 ARG D   1      -7.451  10.075   4.411  1.00 33.53 LIG-0.23  N 
ATOM     63 1HH1 ARG D   1      -8.341   8.167   2.173  1.00 32.13 LIG 0.17  HD
ATOM     64 2HH1 ARG D   1      -8.282   7.901   3.637  1.00 32.13 LIG 0.17  HD
ATOM     65 1HH2 ARG D   1      -7.161  10.874   4.546  1.00 33.53 LIG 0.17  HD
ATOM     66 2HH2 ARG D   1      -7.566   9.542   5.076  1.00 33.53 LIG 0.17  HD
ATOM     67 HE   ARG D   1      -7.257  11.278   2.299  1.00 30.01 LIG 0.18  HD
ENDBRANCH 58 59
ENDBRANCH 57 58
ENDBRANCH 56 57
ENDBRANCH 51 56
ENDBRANCH 48 51
ENDBRANCH 46 47
BRANCH 46 68
ATOM     68  CB  VAL D   2      -7.933   7.003  -5.741  1.00 15.28 LIG 0.01  C 
ATOM     69  CG2 VAL D   2      -8.815   6.353  -4.694  1.00 14.68 LIG 0.01  C 
ATOM     70  CG1 VAL D   2      -6.591   6.281  -5.875  1.00 13.75 LIG 0.01  C 
ENDBRANCH 46 68
ENDBRANCH 43 46
ENDBRANCH 41 42
BRANCH 41 71
ATOM     71  CB  LEU D   3     -10.750   9.282  -8.663  1.00 15.85 LIG 0.04  C 
BRANCH 71 72
ATOM     72  CG  LEU D   3     -11.217   7.953  -9.264  1.00 19.10 LIG-0.02  C 
ATOM     73  CD2 LEU D   3     -10.051   7.128  -9.788  1.00 16.59 LIG 0.01  C 
ATOM     74  CD1 LEU D   3     -12.231   8.234 -10.372  1.00 21.08 LIG 0.01  C 
ENDBRANCH 71 72
ENDBRANCH 41 71
ENDBRANCH 1 41
TORSDOF 29
ENDMDL
