MODEL 1
USER: ADFR SOLUTION from run 21
USER: SCORE 18.504735 LL:  -3.563 LR: -16.364 RR:   0.000 FEB: -10.100
USER: RMSD 2.985731
USER: SEED 20
USER: STATUS no improvement in best in 12 clusters for 5 generations
USER: GENES 23
USER: genes 0 Translation |==|  0.58497 0.51078 0.36962
USER: genes 1 Rotation |==|  0.36531 0.61249 0.62041 0.95245
USER: genes 2 Torsion [N]-CA--C-[N] |==|  0.31114
USER: genes 3 Torsion [N]-CA--C-[O] |==|  0.97679
USER: genes 4 Torsion [C]-N--CA-[CB] |==|  0.45556
USER: genes 5 Torsion [N]-CA--CB-[CG] |==|  0.38292
USER: genes 6 Torsion [CA]-CB--CG-[CD1] |==|  0.41802
USER: genes 7 Torsion [N]-CA--C-[N] |==|  0.89219
USER: genes 8 Torsion [C]-N--CA-[CB] |==|  0.16221
USER: genes 9 Torsion [N]-CA--CB-[CG1] |==|  0.38202
USER: genes 10 Torsion [N]-CA--C-[O] |==|  0.96591
USER: genes 11 Torsion [C]-CA--CB-[CG] |==|  0.14693
USER: genes 12 Torsion [CA]-CB--CG-[CD] |==|  0.13644
USER: genes 13 Torsion [CB]-CG--CD-[CE] |==|  0.19770
USER: genes 14 Torsion [CG]-CD--CE-[NZ] |==|  0.55339
USER: genes 15 Torsion [CD]-CE--NZ-[HZ2] |==|  0.47939
USER: genes 16 Torsion [C]-CA--N-[C] |==|  0.76209
USER: genes 17 Torsion [N]-C--CA-[N] |==|  0.92803
USER: genes 18 Torsion [N]-C--CA-[N] |==|  0.88814
USER: genes 19 Torsion [C]-CA--CB-[CG] |==|  0.78604
USER: genes 20 Torsion [CA]-CB--CG-[CD] |==|  0.35558
USER: genes 21 Torsion [CB]-CG--CD-[NE] |==|  0.96921
USER: genes 22 Torsion [CG]-CD--NE-[HE] |==|  0.77901
ROOT
ATOM      1  CA  LYS B  51      24.599 -22.589  -6.578  1.00 67.60 LIG 0.18  C 
ENDROOT
BRANCH 1 2
ATOM      2  C   LYS B  51      23.374 -22.348  -5.637  1.00 65.68 LIG 0.24  C 
ATOM      3  N   PRO B  52      22.267 -21.745  -6.151  1.00 68.58 LIG-0.34  N 
ATOM      4  CD  PRO B  52      22.070 -20.883  -7.341  1.00 71.17 LIG 0.13  C 
ATOM      5  CA  PRO B  52      21.086 -21.721  -5.249  1.00 62.52 LIG 0.18  C 
ATOM      6  CG  PRO B  52      20.883 -20.026  -6.951  1.00 68.49 LIG 0.02  C 
ATOM      7  CB  PRO B  52      20.067 -20.879  -6.026  1.00 62.23 LIG 0.04  C 
ATOM      8 O    LYS B  51      23.455 -22.629  -4.427  1.00 49.94 LIG-0.27  OA
BRANCH 5 9
ATOM      9  C   PRO B  52      20.539 -23.145  -4.938  1.00 62.23 LIG 0.24  C 
ATOM     10 O    PRO B  52      20.996 -24.125  -5.559  1.00 52.82 LIG-0.27  OA
ATOM     11  N   LEU B  53      19.636 -23.247  -3.942  1.00 59.38 LIG-0.35  N 
ATOM     12 H    LEU B  53      19.435 -22.589  -3.427  1.00 59.38 LIG 0.16  HD
BRANCH 11 13
ATOM     13  CA  LEU B  53      18.897 -24.487  -3.622  1.00 58.77 LIG 0.18  C 
BRANCH 13 14
ATOM     14  CB  LEU B  53      18.240 -24.436  -2.213  1.00 52.29 LIG 0.04  C 
BRANCH 14 15
ATOM     15  CG  LEU B  53      16.790 -24.987  -2.049  1.00 62.01 LIG-0.02  C 
ATOM     16  CD2 LEU B  53      15.718 -23.963  -2.447  1.00 53.58 LIG 0.01  C 
ATOM     17  CD1 LEU B  53      16.496 -25.558  -0.641  1.00 50.45 LIG 0.01  C 
ENDBRANCH 14 15
ENDBRANCH 13 14
BRANCH 13 18
ATOM     18  C   LEU B  53      17.846 -24.708  -4.734  1.00 60.22 LIG 0.24  C 
ATOM     19  N   VAL B  54      17.211 -23.625  -5.214  1.00 61.95 LIG-0.35  N 
ATOM     20 H    VAL B  54      17.396 -22.818  -4.985  1.00 61.95 LIG 0.16  HD
ATOM     21 O    LEU B  53      17.594 -25.854  -5.121  1.00 54.25 LIG-0.27  OA
BRANCH 19 22
ATOM     22  CA  VAL B  54      16.106 -23.750  -6.211  1.00 71.55 LIG 0.17  C 
BRANCH 22 23
ATOM     23  CB  VAL B  54      14.894 -24.628  -5.715  1.00 67.56 LIG 0.01  C 
ATOM     24  CG1 VAL B  54      13.545 -24.000  -6.081  1.00 60.73 LIG 0.01  C 
ATOM     25  CG2 VAL B  54      14.960 -26.054  -6.255  1.00 61.59 LIG 0.01  C 
ENDBRANCH 22 23
BRANCH 22 26
ATOM     26  C   VAL B  54      15.637 -22.379  -6.713  1.00 64.78 LIG 0.22  C 
ATOM     27 O    VAL B  54      15.993 -21.360  -6.142  1.00 73.26 LIG-0.29  OA
ENDBRANCH 22 26
ENDBRANCH 19 22
ENDBRANCH 13 18
ENDBRANCH 11 13
ENDBRANCH 5 9
ENDBRANCH 1 2
BRANCH 1 28
ATOM     28  CB  LYS B  51      25.109 -24.048  -6.699  1.00 70.72 LIG 0.04  C 
BRANCH 28 29
ATOM     29  CG  LYS B  51      24.127 -25.164  -7.065  1.00 73.15 LIG 0.00  C 
BRANCH 29 30
ATOM     30  CD  LYS B  51      23.298 -24.761  -8.290  1.00 70.67 LIG 0.03  C 
BRANCH 30 31
ATOM     31  CE  LYS B  51      24.145 -24.764  -9.556  1.00 67.82 LIG 0.23  C 
BRANCH 31 32
ATOM     32  NZ  LYS B  51      23.494 -23.956 -10.612  1.00 73.20 LIG-0.08  N 
ATOM     33 HZ2  LYS B  51      24.045 -23.876 -11.307  1.00 73.20 LIG 0.27  HD
ATOM     34 HZ3  LYS B  51      22.745 -24.358 -10.873  1.00 73.20 LIG 0.27  HD
ATOM     35 HZ1  LYS B  51      23.302 -23.149 -10.291  1.00 73.20 LIG 0.27  HD
ENDBRANCH 31 32
ENDBRANCH 30 31
ENDBRANCH 29 30
ENDBRANCH 28 29
ENDBRANCH 1 28
BRANCH 1 36
ATOM     36  N   LYS B  51      25.722 -21.739  -6.162  1.00 65.69 LIG-0.35  N 
ATOM     37 H    LYS B  51      26.282 -22.119  -5.630  1.00 65.69 LIG 0.16  HD
ATOM     38  C   PRO B  50      25.833 -20.484  -6.593  1.00 68.91 LIG 0.24  C 
ATOM     39 O    PRO B  50      24.947 -19.936  -7.288  1.00 63.49 LIG-0.27  OA
BRANCH 38 40
ATOM     40  CA  PRO B  50      27.141 -19.723  -6.224  1.00 65.85 LIG 0.18  C 
ATOM     41  N   PRO B  50      27.758 -20.260  -4.988  1.00 60.71 LIG-0.34  N 
ATOM     42  CD  PRO B  50      28.888 -21.160  -5.311  1.00 60.54 LIG 0.13  C 
ATOM     43  C   ARG B  49      27.056 -20.088  -3.820  1.00 60.43 LIG 0.26  C 
ATOM     44  CG  PRO B  50      28.940 -21.169  -6.841  1.00 54.86 LIG 0.02  C 
ATOM     45  CB  PRO B  50      28.236 -19.934  -7.288  1.00 61.52 LIG 0.04  C 
ATOM     46 O    ARG B  49      25.935 -19.524  -3.783  1.00 53.87 LIG-0.27  OA
BRANCH 43 47
ATOM     47  CA  ARG B  49      27.670 -20.635  -2.497  1.00 56.75 LIG 0.40  C 
ATOM     48  N   ARG B  49      28.335 -21.993  -2.674  1.00 50.64 LIG 0.61  N 
BRANCH 47 49
ATOM     49  CB  ARG B  49      28.680 -19.609  -1.906  1.00 51.37 LIG 0.05  C 
BRANCH 49 50
ATOM     50  CG  ARG B  49      30.048 -19.563  -2.598  1.00 44.94 LIG 0.02  C 
BRANCH 50 51
ATOM     51  CD  ARG B  49      30.435 -18.113  -3.010  1.00 41.72 LIG 0.14  C 
BRANCH 51 52
ATOM     52  NE  ARG B  49      29.317 -17.175  -2.884  1.00 39.59 LIG-0.23  N 
ATOM     53 HE   ARG B  49      28.735 -17.177  -3.518  1.00 39.59 LIG 0.18  HD
ATOM     54  CZ  ARG B  49      29.115 -16.318  -1.881  1.00 39.90 LIG 0.67  C 
ATOM     55  NH1 ARG B  49      30.006 -16.210  -0.888  1.00 39.18 LIG-0.23  N 
ATOM     56  NH2 ARG B  49      28.036 -15.512  -1.901  1.00 31.35 LIG-0.23  N 
ATOM     57 2HH1 ARG B  49      29.869 -15.655  -0.245  1.00 39.18 LIG 0.17  HD
ATOM     58 1HH1 ARG B  49      30.717 -16.695  -0.892  1.00 39.18 LIG 0.17  HD
ATOM     59 1HH2 ARG B  49      27.481 -15.552  -2.557  1.00 31.35 LIG 0.17  HD
ATOM     60 2HH2 ARG B  49      27.901 -14.957  -1.257  1.00 31.35 LIG 0.17  HD
ENDBRANCH 51 52
ENDBRANCH 50 51
ENDBRANCH 49 50
ENDBRANCH 47 49
ENDBRANCH 43 47
ENDBRANCH 38 40
ENDBRANCH 1 36
TORSDOF 21
ENDMDL
MODEL 2
USER: ADFR SOLUTION from run 113
USER: SCORE 18.489098 LL:  -3.961 LR: -16.009 RR:   0.000 FEB:  -9.745
USER: RMSD 4.002970
USER: SEED 112
USER: STATUS no improvement in best in 4 clusters for 5 generations
USER: GENES 23
USER: genes 0 Translation |==|  0.53006 0.48498 0.42881
USER: genes 1 Rotation |==|  0.74013 0.70366 0.66468 0.85177
USER: genes 2 Torsion [N]-CA--C-[N] |==|  0.20263
USER: genes 3 Torsion [N]-CA--C-[O] |==|  0.48825
USER: genes 4 Torsion [C]-N--CA-[CB] |==|  0.22221
USER: genes 5 Torsion [N]-CA--CB-[CG] |==|  0.53564
USER: genes 6 Torsion [CA]-CB--CG-[CD1] |==|  0.38695
USER: genes 7 Torsion [N]-CA--C-[N] |==|  0.46943
USER: genes 8 Torsion [C]-N--CA-[CB] |==|  0.38020
USER: genes 9 Torsion [N]-CA--CB-[CG1] |==|  0.06702
USER: genes 10 Torsion [N]-CA--C-[O] |==|  0.27979
USER: genes 11 Torsion [C]-CA--CB-[CG] |==|  0.46667
USER: genes 12 Torsion [CA]-CB--CG-[CD] |==|  0.86653
USER: genes 13 Torsion [CB]-CG--CD-[CE] |==|  0.82606
USER: genes 14 Torsion [CG]-CD--CE-[NZ] |==|  0.52001
USER: genes 15 Torsion [CD]-CE--NZ-[HZ2] |==|  0.40782
USER: genes 16 Torsion [C]-CA--N-[C] |==|  0.68512
USER: genes 17 Torsion [N]-C--CA-[N] |==|  0.62160
USER: genes 18 Torsion [N]-C--CA-[N] |==|  0.84041
USER: genes 19 Torsion [C]-CA--CB-[CG] |==|  0.37445
USER: genes 20 Torsion [CA]-CB--CG-[CD] |==|  0.17800
USER: genes 21 Torsion [CB]-CG--CD-[NE] |==|  0.54569
USER: genes 22 Torsion [CG]-CD--NE-[HE] |==|  0.13713
ROOT
ATOM      1  CA  LYS B  51      23.158 -23.170  -5.646  1.00 67.60 LIG 0.18  C 
ENDROOT
BRANCH 1 2
ATOM      2  C   LYS B  51      22.951 -24.404  -4.708  1.00 65.68 LIG 0.24  C 
ATOM      3  N   PRO B  52      23.172 -24.251  -3.373  1.00 68.58 LIG-0.34  N 
ATOM      4  CD  PRO B  52      23.958 -23.255  -2.605  1.00 71.17 LIG 0.13  C 
ATOM      5  CA  PRO B  52      22.776 -25.411  -2.532  1.00 62.52 LIG 0.18  C 
ATOM      6  CG  PRO B  52      24.363 -24.023  -1.363  1.00 68.49 LIG 0.02  C 
ATOM      7  CB  PRO B  52      23.259 -25.011  -1.132  1.00 62.23 LIG 0.04  C 
ATOM      8 O    LYS B  51      22.675 -25.515  -5.194  1.00 49.94 LIG-0.27  OA
BRANCH 5 9
ATOM      9  C   PRO B  52      21.242 -25.676  -2.558  1.00 62.23 LIG 0.24  C 
ATOM     10 O    PRO B  52      20.782 -26.668  -1.959  1.00 52.82 LIG-0.27  OA
ATOM     11  N   LEU B  53      20.475 -24.755  -3.178  1.00 59.38 LIG-0.35  N 
ATOM     12 H    LEU B  53      20.786 -24.006  -3.462  1.00 59.38 LIG 0.16  HD
BRANCH 11 13
ATOM     13  CA  LEU B  53      19.030 -24.925  -3.437  1.00 58.77 LIG 0.18  C 
BRANCH 13 14
ATOM     14  CB  LEU B  53      18.166 -24.621  -2.180  1.00 52.29 LIG 0.04  C 
BRANCH 14 15
ATOM     15  CG  LEU B  53      16.663 -25.042  -2.191  1.00 62.01 LIG-0.02  C 
ATOM     16  CD2 LEU B  53      15.734 -23.908  -2.648  1.00 53.58 LIG 0.01  C 
ATOM     17  CD1 LEU B  53      16.171 -25.636  -0.850  1.00 50.45 LIG 0.01  C 
ENDBRANCH 14 15
ENDBRANCH 13 14
BRANCH 13 18
ATOM     18  C   LEU B  53      18.654 -24.008  -4.623  1.00 60.22 LIG 0.24  C 
ATOM     19  N   VAL B  54      17.439 -24.170  -5.175  1.00 61.95 LIG-0.35  N 
ATOM     20 H    VAL B  54      16.840 -24.707  -4.872  1.00 61.95 LIG 0.16  HD
ATOM     21 O    LEU B  53      19.475 -23.188  -5.050  1.00 54.25 LIG-0.27  OA
BRANCH 19 22
ATOM     22  CA  VAL B  54      17.028 -23.405  -6.389  1.00 71.55 LIG 0.17  C 
BRANCH 22 23
ATOM     23  CB  VAL B  54      16.270 -24.274  -7.466  1.00 67.56 LIG 0.01  C 
ATOM     24  CG1 VAL B  54      15.603 -25.503  -6.842  1.00 60.73 LIG 0.01  C 
ATOM     25  CG2 VAL B  54      15.231 -23.458  -8.232  1.00 61.59 LIG 0.01  C 
ENDBRANCH 22 23
BRANCH 22 26
ATOM     26  C   VAL B  54      16.232 -22.145  -6.025  1.00 64.78 LIG 0.22  C 
ATOM     27 O    VAL B  54      16.777 -21.053  -6.025  1.00 73.26 LIG-0.29  OA
ENDBRANCH 22 26
ENDBRANCH 19 22
ENDBRANCH 13 18
ENDBRANCH 11 13
ENDBRANCH 5 9
ENDBRANCH 1 2
BRANCH 1 28
ATOM     28  CB  LYS B  51      22.527 -23.255  -7.059  1.00 70.72 LIG 0.04  C 
BRANCH 28 29
ATOM     29  CG  LYS B  51      22.446 -21.998  -7.928  1.00 73.15 LIG 0.00  C 
BRANCH 29 30
ATOM     30  CD  LYS B  51      21.879 -20.828  -7.117  1.00 70.67 LIG 0.03  C 
BRANCH 30 31
ATOM     31  CE  LYS B  51      20.456 -21.113  -6.655  1.00 67.82 LIG 0.23  C 
BRANCH 31 32
ATOM     32  NZ  LYS B  51      19.868 -19.909  -6.025  1.00 73.20 LIG-0.08  N 
ATOM     33 HZ2  LYS B  51      18.994 -19.883  -6.191  1.00 73.20 LIG 0.27  HD
ATOM     34 HZ3  LYS B  51      20.002 -19.939  -5.146  1.00 73.20 LIG 0.27  HD
ATOM     35 HZ1  LYS B  51      20.255 -19.180  -6.359  1.00 73.20 LIG 0.27  HD
ENDBRANCH 31 32
ENDBRANCH 30 31
ENDBRANCH 29 30
ENDBRANCH 28 29
ENDBRANCH 1 28
BRANCH 1 36
ATOM     36  N   LYS B  51      24.593 -22.892  -5.795  1.00 65.69 LIG-0.35  N 
ATOM     37 H    LYS B  51      25.034 -23.500  -6.214  1.00 65.69 LIG 0.16  HD
ATOM     38  C   PRO B  50      25.133 -21.777  -5.308  1.00 68.91 LIG 0.24  C 
ATOM     39 O    PRO B  50      24.476 -20.962  -4.620  1.00 63.49 LIG-0.27  OA
BRANCH 38 40
ATOM     40  CA  PRO B  50      26.625 -21.502  -5.660  1.00 65.85 LIG 0.18  C 
ATOM     41  N   PRO B  50      27.390 -21.033  -4.479  1.00 60.71 LIG-0.34  N 
ATOM     42  CD  PRO B  50      28.183 -22.137  -3.893  1.00 60.54 LIG 0.13  C 
ATOM     43  C   ARG B  49      27.047 -19.806  -3.966  1.00 60.43 LIG 0.26  C 
ATOM     44  CG  PRO B  50      27.860 -23.346  -4.774  1.00 54.86 LIG 0.02  C 
ATOM     45  CB  PRO B  50      27.357 -22.797  -6.065  1.00 61.52 LIG 0.04  C 
ATOM     46 O    ARG B  49      26.119 -19.109  -4.446  1.00 53.87 LIG-0.27  OA
BRANCH 43 47
ATOM     47  CA  ARG B  49      27.827 -19.274  -2.728  1.00 56.75 LIG 0.40  C 
ATOM     48  N   ARG B  49      27.756 -20.220  -1.537  1.00 50.64 LIG 0.61  N 
BRANCH 47 49
ATOM     49  CB  ARG B  49      29.309 -18.987  -3.106  1.00 51.37 LIG 0.05  C 
BRANCH 49 50
ATOM     50  CG  ARG B  49      29.870 -17.655  -2.594  1.00 44.94 LIG 0.02  C 
BRANCH 50 51
ATOM     51  CD  ARG B  49      29.917 -17.611  -1.039  1.00 41.72 LIG 0.14  C 
BRANCH 51 52
ATOM     52  NE  ARG B  49      30.075 -16.251  -0.519  1.00 39.59 LIG-0.23  N 
ATOM     53 HE   ARG B  49      29.545 -15.651  -0.833  1.00 39.59 LIG 0.18  HD
ATOM     54  CZ  ARG B  49      30.965 -15.855   0.395  1.00 39.90 LIG 0.67  C 
ATOM     55  NH1 ARG B  49      31.865 -16.715   0.887  1.00 39.18 LIG-0.23  N 
ATOM     56  NH2 ARG B  49      30.994 -14.564   0.779  1.00 31.35 LIG-0.23  N 
ATOM     57 2HH1 ARG B  49      32.435 -16.452   1.475  1.00 39.18 LIG 0.17  HD
ATOM     58 1HH1 ARG B  49      31.874 -17.531   0.614  1.00 39.18 LIG 0.17  HD
ATOM     59 1HH2 ARG B  49      30.442 -14.000   0.437  1.00 31.35 LIG 0.17  HD
ATOM     60 2HH2 ARG B  49      31.565 -14.303   1.367  1.00 31.35 LIG 0.17  HD
ENDBRANCH 51 52
ENDBRANCH 50 51
ENDBRANCH 49 50
ENDBRANCH 47 49
ENDBRANCH 43 47
ENDBRANCH 38 40
ENDBRANCH 1 36
TORSDOF 21
ENDMDL
MODEL 3
USER: ADFR SOLUTION from run 180
USER: SCORE 18.527420 LL:  -3.108 LR: -15.992 RR:   0.000 FEB:  -9.728
USER: RMSD 5.041837
USER: SEED 179
USER: STATUS no improvement in best in 4 clusters for 5 generations
USER: GENES 23
USER: genes 0 Translation |==|  0.41394 0.46193 0.46729
USER: genes 1 Rotation |==|  0.78535 0.45332 0.63393 0.88530
USER: genes 2 Torsion [N]-CA--C-[N] |==|  0.26259
USER: genes 3 Torsion [N]-CA--C-[O] |==|  0.85736
USER: genes 4 Torsion [C]-N--CA-[CB] |==|  0.86664
USER: genes 5 Torsion [N]-CA--CB-[CG] |==|  0.82860
USER: genes 6 Torsion [CA]-CB--CG-[CD1] |==|  0.52730
USER: genes 7 Torsion [N]-CA--C-[N] |==|  0.36008
USER: genes 8 Torsion [C]-N--CA-[CB] |==|  0.28261
USER: genes 9 Torsion [N]-CA--CB-[CG1] |==|  0.52698
USER: genes 10 Torsion [N]-CA--C-[O] |==|  0.97288
USER: genes 11 Torsion [C]-CA--CB-[CG] |==|  0.53600
USER: genes 12 Torsion [CA]-CB--CG-[CD] |==|  0.72925
USER: genes 13 Torsion [CB]-CG--CD-[CE] |==|  0.91067
USER: genes 14 Torsion [CG]-CD--CE-[NZ] |==|  0.32709
USER: genes 15 Torsion [CD]-CE--NZ-[HZ2] |==|  0.51748
USER: genes 16 Torsion [C]-CA--N-[C] |==|  0.58889
USER: genes 17 Torsion [N]-C--CA-[N] |==|  0.45076
USER: genes 18 Torsion [N]-C--CA-[N] |==|  0.45912
USER: genes 19 Torsion [C]-CA--CB-[CG] |==|  0.65711
USER: genes 20 Torsion [CA]-CB--CG-[CD] |==|  0.73353
USER: genes 21 Torsion [CB]-CG--CD-[NE] |==|  0.56348
USER: genes 22 Torsion [CG]-CD--NE-[HE] |==|  0.92788
ROOT
ATOM      1  CA  LYS B  51      20.110 -23.688  -5.040  1.00 67.60 LIG 0.18  C 
ENDROOT
BRANCH 1 2
ATOM      2  C   LYS B  51      18.766 -24.487  -5.077  1.00 65.68 LIG 0.24  C 
ATOM      3  N   PRO B  52      17.857 -24.278  -4.085  1.00 68.58 LIG-0.34  N 
ATOM      4  CD  PRO B  52      17.994 -23.732  -2.713  1.00 71.17 LIG 0.13  C 
ATOM      5  CA  PRO B  52      16.538 -24.931  -4.291  1.00 62.52 LIG 0.18  C 
ATOM      6  CG  PRO B  52      16.866 -24.408  -1.961  1.00 68.49 LIG 0.02  C 
ATOM      7  CB  PRO B  52      15.793 -24.640  -2.982  1.00 62.23 LIG 0.04  C 
ATOM      8 O    LYS B  51      18.582 -25.354  -5.951  1.00 49.94 LIG-0.27  OA
BRANCH 5 9
ATOM      9  C   PRO B  52      15.775 -24.367  -5.526  1.00 62.23 LIG 0.24  C 
ATOM     10 O    PRO B  52      15.623 -23.135  -5.640  1.00 52.82 LIG-0.27  OA
ATOM     11  N   LEU B  53      15.381 -25.259  -6.458  1.00 59.38 LIG-0.35  N 
ATOM     12 H    LEU B  53      15.615 -26.086  -6.439  1.00 59.38 LIG 0.16  HD
BRANCH 11 13
ATOM     13  CA  LEU B  53      14.511 -24.922  -7.605  1.00 58.77 LIG 0.18  C 
BRANCH 13 14
ATOM     14  CB  LEU B  53      13.259 -24.105  -7.176  1.00 52.29 LIG 0.04  C 
BRANCH 14 15
ATOM     15  CG  LEU B  53      12.246 -24.762  -6.188  1.00 62.01 LIG-0.02  C 
ATOM     16  CD2 LEU B  53      11.943 -26.226  -6.536  1.00 53.58 LIG 0.01  C 
ATOM     17  CD1 LEU B  53      10.931 -23.964  -6.021  1.00 50.45 LIG 0.01  C 
ENDBRANCH 14 15
ENDBRANCH 13 14
BRANCH 13 18
ATOM     18  C   LEU B  53      15.369 -24.152  -8.635  1.00 60.22 LIG 0.24  C 
ATOM     19  N   VAL B  54      15.337 -24.573  -9.911  1.00 61.95 LIG-0.35  N 
ATOM     20 H    VAL B  54      14.826 -25.202 -10.198  1.00 61.95 LIG 0.16  HD
ATOM     21 O    LEU B  53      16.076 -23.209  -8.263  1.00 54.25 LIG-0.27  OA
BRANCH 19 22
ATOM     22  CA  VAL B  54      16.212 -23.960 -10.955  1.00 71.55 LIG 0.17  C 
BRANCH 22 23
ATOM     23  CB  VAL B  54      17.479 -24.827 -11.315  1.00 67.56 LIG 0.01  C 
ATOM     24  CG1 VAL B  54      18.463 -24.060 -12.204  1.00 60.73 LIG 0.01  C 
ATOM     25  CG2 VAL B  54      18.201 -25.332 -10.067  1.00 61.59 LIG 0.01  C 
ENDBRANCH 22 23
BRANCH 22 26
ATOM     26  C   VAL B  54      15.417 -23.580 -12.210  1.00 64.78 LIG 0.22  C 
ATOM     27 O    VAL B  54      14.260 -23.947 -12.339  1.00 73.26 LIG-0.29  OA
ENDBRANCH 22 26
ENDBRANCH 19 22
ENDBRANCH 13 18
ENDBRANCH 11 13
ENDBRANCH 5 9
ENDBRANCH 1 2
BRANCH 1 28
ATOM     28  CB  LYS B  51      20.665 -23.196  -6.401  1.00 70.72 LIG 0.04  C 
BRANCH 28 29
ATOM     29  CG  LYS B  51      22.102 -22.676  -6.487  1.00 73.15 LIG 0.00  C 
BRANCH 29 30
ATOM     30  CD  LYS B  51      22.119 -21.145  -6.410  1.00 70.67 LIG 0.03  C 
BRANCH 30 31
ATOM     31  CE  LYS B  51      20.868 -20.546  -7.039  1.00 67.82 LIG 0.23  C 
BRANCH 31 32
ATOM     32  NZ  LYS B  51      20.089 -19.799  -6.026  1.00 73.20 LIG-0.08  N 
ATOM     33 HZ2  LYS B  51      19.318 -19.532  -6.381  1.00 73.20 LIG 0.27  HD
ATOM     34 HZ3  LYS B  51      19.927 -20.327  -5.328  1.00 73.20 LIG 0.27  HD
ATOM     35 HZ1  LYS B  51      20.555 -19.089  -5.758  1.00 73.20 LIG 0.27  HD
ENDBRANCH 31 32
ENDBRANCH 30 31
ENDBRANCH 29 30
ENDBRANCH 28 29
ENDBRANCH 1 28
BRANCH 1 36
ATOM     36  N   LYS B  51      21.148 -24.490  -4.379  1.00 65.69 LIG-0.35  N 
ATOM     37 H    LYS B  51      21.072 -25.339  -4.491  1.00 65.69 LIG 0.16  HD
ATOM     38  C   PRO B  50      22.116 -23.913  -3.669  1.00 68.91 LIG 0.24  C 
ATOM     39 O    PRO B  50      22.138 -22.681  -3.447  1.00 63.49 LIG-0.27  OA
BRANCH 38 40
ATOM     40  CA  PRO B  50      23.255 -24.837  -3.146  1.00 65.85 LIG 0.18  C 
ATOM     41  N   PRO B  50      24.455 -24.060  -2.753  1.00 60.71 LIG-0.34  N 
ATOM     42  CD  PRO B  50      24.513 -23.887  -1.284  1.00 60.54 LIG 0.13  C 
ATOM     43  C   ARG B  49      25.131 -23.412  -3.758  1.00 60.43 LIG 0.26  C 
ATOM     44  CG  PRO B  50      23.259 -24.597  -0.768  1.00 54.86 LIG 0.02  C 
ATOM     45  CB  PRO B  50      22.850 -25.549  -1.839  1.00 61.52 LIG 0.04  C 
ATOM     46 O    ARG B  49      24.754 -23.447  -4.956  1.00 53.87 LIG-0.27  OA
BRANCH 43 47
ATOM     47  CA  ARG B  49      26.399 -22.587  -3.390  1.00 56.75 LIG 0.40  C 
ATOM     48  N   ARG B  49      27.241 -22.226  -4.607  1.00 50.64 LIG 0.61  N 
BRANCH 47 49
ATOM     49  CB  ARG B  49      25.998 -21.303  -2.607  1.00 51.37 LIG 0.05  C 
BRANCH 49 50
ATOM     50  CG  ARG B  49      26.477 -19.983  -3.224  1.00 44.94 LIG 0.02  C 
BRANCH 50 51
ATOM     51  CD  ARG B  49      27.808 -19.498  -2.580  1.00 41.72 LIG 0.14  C 
BRANCH 51 52
ATOM     52  NE  ARG B  49      28.012 -18.055  -2.730  1.00 39.59 LIG-0.23  N 
ATOM     53 HE   ARG B  49      27.628 -17.676  -3.398  1.00 39.59 LIG 0.18  HD
ATOM     54  CZ  ARG B  49      28.739 -17.274  -1.927  1.00 39.90 LIG 0.67  C 
ATOM     55  NH1 ARG B  49      29.419 -17.799  -0.899  1.00 39.18 LIG-0.23  N 
ATOM     56  NH2 ARG B  49      28.838 -15.957  -2.190  1.00 31.35 LIG-0.23  N 
ATOM     57 2HH1 ARG B  49      29.885 -17.289  -0.387  1.00 39.18 LIG 0.17  HD
ATOM     58 1HH1 ARG B  49      29.390 -18.646  -0.752  1.00 39.18 LIG 0.17  HD
ATOM     59 1HH2 ARG B  49      28.433 -15.623  -2.872  1.00 31.35 LIG 0.17  HD
ATOM     60 2HH2 ARG B  49      29.305 -15.449  -1.677  1.00 31.35 LIG 0.17  HD
ENDBRANCH 51 52
ENDBRANCH 50 51
ENDBRANCH 49 50
ENDBRANCH 47 49
ENDBRANCH 43 47
ENDBRANCH 38 40
ENDBRANCH 1 36
TORSDOF 21
ENDMDL
MODEL 4
USER: ADFR SOLUTION from run 192
USER: SCORE 18.355258 LL:  -3.959 LR: -15.620 RR:   0.000 FEB:  -9.356
USER: RMSD 6.035947
USER: SEED 191
USER: STATUS no improvement in best in 4 clusters for 5 generations
USER: GENES 23
USER: genes 0 Translation |==|  0.65375 0.65267 0.35235
USER: genes 1 Rotation |==|  0.76569 0.32267 0.66898 0.84556
USER: genes 2 Torsion [N]-CA--C-[N] |==|  0.90799
USER: genes 3 Torsion [N]-CA--C-[O] |==|  0.03201
USER: genes 4 Torsion [C]-N--CA-[CB] |==|  0.55556
USER: genes 5 Torsion [N]-CA--CB-[CG] |==|  0.99804
USER: genes 6 Torsion [CA]-CB--CG-[CD1] |==|  0.21336
USER: genes 7 Torsion [N]-CA--C-[N] |==|  0.82841
USER: genes 8 Torsion [C]-N--CA-[CB] |==|  0.82105
USER: genes 9 Torsion [N]-CA--CB-[CG1] |==|  0.53757
USER: genes 10 Torsion [N]-CA--C-[O] |==|  0.11925
USER: genes 11 Torsion [C]-CA--CB-[CG] |==|  0.02605
USER: genes 12 Torsion [CA]-CB--CG-[CD] |==|  0.28575
USER: genes 13 Torsion [CB]-CG--CD-[CE] |==|  0.71904
USER: genes 14 Torsion [CG]-CD--CE-[NZ] |==|  0.50176
USER: genes 15 Torsion [CD]-CE--NZ-[HZ2] |==|  0.28715
USER: genes 16 Torsion [C]-CA--N-[C] |==|  0.69861
USER: genes 17 Torsion [N]-C--CA-[N] |==|  0.28324
USER: genes 18 Torsion [N]-C--CA-[N] |==|  0.49763
USER: genes 19 Torsion [C]-CA--CB-[CG] |==|  0.89501
USER: genes 20 Torsion [CA]-CB--CG-[CD] |==|  0.41013
USER: genes 21 Torsion [CB]-CG--CD-[NE] |==|  0.20421
USER: genes 22 Torsion [CG]-CD--NE-[HE] |==|  0.25486
ROOT
ATOM      1  CA  LYS B  51      26.405 -19.397  -6.850  1.00 67.60 LIG 0.18  C 
ENDROOT
BRANCH 1 2
ATOM      2  C   LYS B  51      25.190 -19.918  -7.687  1.00 65.68 LIG 0.24  C 
ATOM      3  N   PRO B  52      25.149 -21.236  -8.023  1.00 68.58 LIG-0.34  N 
ATOM      4  CD  PRO B  52      26.208 -22.269  -8.117  1.00 71.17 LIG 0.13  C 
ATOM      5  CA  PRO B  52      23.880 -21.686  -8.653  1.00 62.52 LIG 0.18  C 
ATOM      6  CG  PRO B  52      25.667 -23.221  -9.164  1.00 68.49 LIG 0.02  C 
ATOM      7  CB  PRO B  52      24.175 -23.141  -9.037  1.00 62.23 LIG 0.04  C 
ATOM      8 O    LYS B  51      24.332 -19.117  -8.101  1.00 49.94 LIG-0.27  OA
BRANCH 5 9
ATOM      9  C   PRO B  52      22.662 -21.581  -7.689  1.00 62.23 LIG 0.24  C 
ATOM     10 O    PRO B  52      22.783 -20.957  -6.616  1.00 52.82 LIG-0.27  OA
ATOM     11  N   LEU B  53      21.500 -22.117  -8.115  1.00 59.38 LIG-0.35  N 
ATOM     12 H    LEU B  53      21.391 -22.417  -8.913  1.00 59.38 LIG 0.16  HD
BRANCH 11 13
ATOM     13  CA  LEU B  53      20.294 -22.250  -7.269  1.00 58.77 LIG 0.18  C 
BRANCH 13 14
ATOM     14  CB  LEU B  53      19.302 -23.314  -7.819  1.00 52.29 LIG 0.04  C 
BRANCH 14 15
ATOM     15  CG  LEU B  53      19.671 -24.062  -9.138  1.00 62.01 LIG-0.02  C 
ATOM     16  CD2 LEU B  53      18.440 -24.619  -9.867  1.00 53.58 LIG 0.01  C 
ATOM     17  CD1 LEU B  53      20.735 -25.170  -8.949  1.00 50.45 LIG 0.01  C 
ENDBRANCH 14 15
ENDBRANCH 13 14
BRANCH 13 18
ATOM     18  C   LEU B  53      20.760 -22.592  -5.836  1.00 60.22 LIG 0.24  C 
ATOM     19  N   VAL B  54      21.437 -23.740  -5.658  1.00 61.95 LIG-0.35  N 
ATOM     20 H    VAL B  54      21.676 -24.261  -6.298  1.00 61.95 LIG 0.16  HD
ATOM     21 O    LEU B  53      20.475 -21.836  -4.900  1.00 54.25 LIG-0.27  OA
BRANCH 19 22
ATOM     22  CA  VAL B  54      21.834 -24.206  -4.296  1.00 71.55 LIG 0.17  C 
BRANCH 22 23
ATOM     23  CB  VAL B  54      22.862 -23.255  -3.570  1.00 67.56 LIG 0.01  C 
ATOM     24  CG1 VAL B  54      23.489 -23.923  -2.343  1.00 60.73 LIG 0.01  C 
ATOM     25  CG2 VAL B  54      23.963 -22.775  -4.513  1.00 61.59 LIG 0.01  C 
ENDBRANCH 22 23
BRANCH 22 26
ATOM     26  C   VAL B  54      20.612 -24.488  -3.414  1.00 64.78 LIG 0.22  C 
ATOM     27 O    VAL B  54      19.646 -25.079  -3.871  1.00 73.26 LIG-0.29  OA
ENDBRANCH 22 26
ENDBRANCH 19 22
ENDBRANCH 13 18
ENDBRANCH 11 13
ENDBRANCH 5 9
ENDBRANCH 1 2
BRANCH 1 28
ATOM     28  CB  LYS B  51      27.626 -18.871  -7.648  1.00 70.72 LIG 0.04  C 
BRANCH 28 29
ATOM     29  CG  LYS B  51      27.514 -18.680  -9.162  1.00 73.15 LIG 0.00  C 
BRANCH 29 30
ATOM     30  CD  LYS B  51      27.341 -17.195  -9.499  1.00 70.67 LIG 0.03  C 
BRANCH 30 31
ATOM     31  CE  LYS B  51      25.885 -16.863  -9.804  1.00 67.82 LIG 0.23  C 
BRANCH 31 32
ATOM     32  NZ  LYS B  51      25.744 -15.429 -10.140  1.00 73.20 LIG-0.08  N 
ATOM     33 HZ2  LYS B  51      25.650 -15.337 -11.020  1.00 73.20 LIG 0.27  HD
ATOM     34 HZ3  LYS B  51      25.027 -15.097  -9.730  1.00 73.20 LIG 0.27  HD
ATOM     35 HZ1  LYS B  51      26.469 -14.988  -9.872  1.00 73.20 LIG 0.27  HD
ENDBRANCH 31 32
ENDBRANCH 30 31
ENDBRANCH 29 30
ENDBRANCH 28 29
ENDBRANCH 1 28
BRANCH 1 36
ATOM     36  N   LYS B  51      26.867 -20.448  -5.935  1.00 65.69 LIG-0.35  N 
ATOM     37 H    LYS B  51      27.268 -21.106  -6.318  1.00 65.69 LIG 0.16  HD
ATOM     38  C   PRO B  50      26.664 -20.357  -4.622  1.00 68.91 LIG 0.24  C 
ATOM     39 O    PRO B  50      25.990 -19.433  -4.113  1.00 63.49 LIG-0.27  OA
BRANCH 38 40
ATOM     40  CA  PRO B  50      27.334 -21.442  -3.727  1.00 65.85 LIG 0.18  C 
ATOM     41  N   PRO B  50      28.555 -20.927  -3.062  1.00 60.71 LIG-0.34  N 
ATOM     42  CD  PRO B  50      28.275 -20.560  -1.656  1.00 60.54 LIG 0.13  C 
ATOM     43  C   ARG B  49      29.617 -20.614  -3.875  1.00 60.43 LIG 0.26  C 
ATOM     44  CG  PRO B  50      26.786 -20.865  -1.473  1.00 54.86 LIG 0.02  C 
ATOM     45  CB  PRO B  50      26.427 -21.837  -2.544  1.00 61.52 LIG 0.04  C 
ATOM     46 O    ARG B  49      29.569 -20.731  -5.124  1.00 53.87 LIG-0.27  OA
BRANCH 43 47
ATOM     47  CA  ARG B  49      30.921 -20.072  -3.218  1.00 56.75 LIG 0.40  C 
ATOM     48  N   ARG B  49      32.019 -19.788  -4.235  1.00 50.64 LIG 0.61  N 
BRANCH 47 49
ATOM     49  CB  ARG B  49      30.614 -18.797  -2.381  1.00 51.37 LIG 0.05  C 
BRANCH 49 50
ATOM     50  CG  ARG B  49      29.570 -17.851  -2.987  1.00 44.94 LIG 0.02  C 
BRANCH 50 51
ATOM     51  CD  ARG B  49      28.744 -17.125  -1.886  1.00 41.72 LIG 0.14  C 
BRANCH 51 52
ATOM     52  NE  ARG B  49      29.512 -16.082  -1.202  1.00 39.59 LIG-0.23  N 
ATOM     53 HE   ARG B  49      29.459 -15.286  -1.524  1.00 39.59 LIG 0.18  HD
ATOM     54  CZ  ARG B  49      30.285 -16.249  -0.126  1.00 39.90 LIG 0.67  C 
ATOM     55  NH1 ARG B  49      30.469 -17.466   0.398  1.00 39.18 LIG-0.23  N 
ATOM     56  NH2 ARG B  49      30.934 -15.190   0.397  1.00 31.35 LIG-0.23  N 
ATOM     57 2HH1 ARG B  49      30.969 -17.565   1.092  1.00 39.18 LIG 0.17  HD
ATOM     58 1HH1 ARG B  49      30.087 -18.150   0.043  1.00 39.18 LIG 0.17  HD
ATOM     59 1HH2 ARG B  49      30.849 -14.413   0.039  1.00 31.35 LIG 0.17  HD
ATOM     60 2HH2 ARG B  49      31.434 -15.292   1.089  1.00 31.35 LIG 0.17  HD
ENDBRANCH 51 52
ENDBRANCH 50 51
ENDBRANCH 49 50
ENDBRANCH 47 49
ENDBRANCH 43 47
ENDBRANCH 38 40
ENDBRANCH 1 36
TORSDOF 21
ENDMDL
MODEL 5
USER: ADFR SOLUTION from run 72
USER: SCORE 18.287997 LL:  -3.796 LR: -15.472 RR:   0.000 FEB:  -9.208
USER: RMSD 6.033841
USER: SEED 71
USER: STATUS no improvement in best in 1 clusters for 5 generations
USER: GENES 23
USER: genes 0 Translation |==|  0.63558 0.62152 0.35653
USER: genes 1 Rotation |==|  0.78305 0.33124 0.76068 0.77101
USER: genes 2 Torsion [N]-CA--C-[N] |==|  0.87631
USER: genes 3 Torsion [N]-CA--C-[O] |==|  0.91923
USER: genes 4 Torsion [C]-N--CA-[CB] |==|  0.88583
USER: genes 5 Torsion [N]-CA--CB-[CG] |==|  0.50854
USER: genes 6 Torsion [CA]-CB--CG-[CD1] |==|  0.74486
USER: genes 7 Torsion [N]-CA--C-[N] |==|  0.91667
USER: genes 8 Torsion [C]-N--CA-[CB] |==|  0.24409
USER: genes 9 Torsion [N]-CA--CB-[CG1] |==|  0.79010
USER: genes 10 Torsion [N]-CA--C-[O] |==|  0.01461
USER: genes 11 Torsion [C]-CA--CB-[CG] |==|  0.03683
USER: genes 12 Torsion [CA]-CB--CG-[CD] |==|  0.22729
USER: genes 13 Torsion [CB]-CG--CD-[CE] |==|  0.41418
USER: genes 14 Torsion [CG]-CD--CE-[NZ] |==|  0.54989
USER: genes 15 Torsion [CD]-CE--NZ-[HZ2] |==|  0.95693
USER: genes 16 Torsion [C]-CA--N-[C] |==|  0.68905
USER: genes 17 Torsion [N]-C--CA-[N] |==|  0.26611
USER: genes 18 Torsion [N]-C--CA-[N] |==|  0.48454
USER: genes 19 Torsion [C]-CA--CB-[CG] |==|  0.70322
USER: genes 20 Torsion [CA]-CB--CG-[CD] |==|  0.66715
USER: genes 21 Torsion [CB]-CG--CD-[NE] |==|  0.12334
USER: genes 22 Torsion [CG]-CD--NE-[HE] |==|  0.06415
ROOT
ATOM      1  CA  LYS B  51      25.928 -20.098  -6.785  1.00 67.60 LIG 0.18  C 
ENDROOT
BRANCH 1 2
ATOM      2  C   LYS B  51      25.248 -20.940  -7.913  1.00 65.68 LIG 0.24  C 
ATOM      3  N   PRO B  52      25.925 -22.002  -8.430  1.00 68.58 LIG-0.34  N 
ATOM      4  CD  PRO B  52      27.367 -22.346  -8.449  1.00 71.17 LIG 0.13  C 
ATOM      5  CA  PRO B  52      25.141 -22.857  -9.360  1.00 62.52 LIG 0.18  C 
ATOM      6  CG  PRO B  52      27.505 -23.181  -9.705  1.00 68.49 LIG 0.02  C 
ATOM      7  CB  PRO B  52      26.180 -23.862  -9.873  1.00 62.23 LIG 0.04  C 
ATOM      8 O    LYS B  51      24.150 -20.585  -8.378  1.00 49.94 LIG-0.27  OA
BRANCH 5 9
ATOM      9  C   PRO B  52      23.948 -23.570  -8.658  1.00 62.23 LIG 0.24  C 
ATOM     10 O    PRO B  52      24.030 -23.849  -7.446  1.00 52.82 LIG-0.27  OA
ATOM     11  N   LEU B  53      22.842 -23.780  -9.401  1.00 59.38 LIG-0.35  N 
ATOM     12 H    LEU B  53      22.744 -23.456 -10.191  1.00 59.38 LIG 0.16  HD
BRANCH 11 13
ATOM     13  CA  LEU B  53      21.684 -24.580  -8.948  1.00 58.77 LIG 0.18  C 
BRANCH 13 14
ATOM     14  CB  LEU B  53      22.118 -25.868  -8.192  1.00 52.29 LIG 0.04  C 
BRANCH 14 15
ATOM     15  CG  LEU B  53      21.010 -26.858  -7.714  1.00 62.01 LIG-0.02  C 
ATOM     16  CD2 LEU B  53      19.824 -26.934  -8.686  1.00 53.58 LIG 0.01  C 
ATOM     17  CD1 LEU B  53      20.512 -26.587  -6.274  1.00 50.45 LIG 0.01  C 
ENDBRANCH 14 15
ENDBRANCH 13 14
BRANCH 13 18
ATOM     18  C   LEU B  53      20.800 -23.670  -8.064  1.00 60.22 LIG 0.24  C 
ATOM     19  N   VAL B  54      21.410 -22.694  -7.369  1.00 61.95 LIG-0.35  N 
ATOM     20 H    VAL B  54      22.247 -22.509  -7.433  1.00 61.95 LIG 0.16  HD
ATOM     21 O    LEU B  53      19.584 -23.880  -7.990  1.00 54.25 LIG-0.27  OA
BRANCH 19 22
ATOM     22  CA  VAL B  54      20.656 -21.836  -6.408  1.00 71.55 LIG 0.17  C 
BRANCH 22 23
ATOM     23  CB  VAL B  54      20.576 -22.428  -4.949  1.00 67.56 LIG 0.01  C 
ATOM     24  CG1 VAL B  54      19.569 -23.579  -4.853  1.00 60.73 LIG 0.01  C 
ATOM     25  CG2 VAL B  54      21.940 -22.895  -4.444  1.00 61.59 LIG 0.01  C 
ENDBRANCH 22 23
BRANCH 22 26
ATOM     26  C   VAL B  54      21.182 -20.395  -6.400  1.00 64.78 LIG 0.22  C 
ATOM     27 O    VAL B  54      22.045 -20.052  -7.192  1.00 73.26 LIG-0.29  OA
ENDBRANCH 22 26
ENDBRANCH 19 22
ENDBRANCH 13 18
ENDBRANCH 11 13
ENDBRANCH 5 9
ENDBRANCH 1 2
BRANCH 1 28
ATOM     28  CB  LYS B  51      26.992 -19.063  -7.232  1.00 70.72 LIG 0.04  C 
BRANCH 28 29
ATOM     29  CG  LYS B  51      27.111 -18.692  -8.712  1.00 73.15 LIG 0.00  C 
BRANCH 29 30
ATOM     30  CD  LYS B  51      26.057 -17.643  -9.082  1.00 70.67 LIG 0.03  C 
BRANCH 30 31
ATOM     31  CE  LYS B  51      26.556 -16.726 -10.193  1.00 67.82 LIG 0.23  C 
BRANCH 31 32
ATOM     32  NZ  LYS B  51      25.744 -15.489 -10.242  1.00 73.20 LIG-0.08  N 
ATOM     33 HZ2  LYS B  51      24.994 -15.607  -9.778  1.00 73.20 LIG 0.27  HD
ATOM     34 HZ3  LYS B  51      26.207 -14.816  -9.890  1.00 73.20 LIG 0.27  HD
ATOM     35 HZ1  LYS B  51      25.543 -15.300 -11.088  1.00 73.20 LIG 0.27  HD
ENDBRANCH 31 32
ENDBRANCH 30 31
ENDBRANCH 29 30
ENDBRANCH 28 29
ENDBRANCH 1 28
BRANCH 1 36
ATOM     36  N   LYS B  51      26.540 -20.993  -5.794  1.00 65.69 LIG-0.35  N 
ATOM     37 H    LYS B  51      27.217 -21.438  -6.083  1.00 65.69 LIG 0.16  HD
ATOM     38  C   PRO B  50      26.057 -21.084  -4.556  1.00 68.91 LIG 0.24  C 
ATOM     39 O    PRO B  50      25.010 -20.494  -4.203  1.00 63.49 LIG-0.27  OA
BRANCH 38 40
ATOM     40  CA  PRO B  50      26.873 -21.937  -3.540  1.00 65.85 LIG 0.18  C 
ATOM     41  N   PRO B  50      27.781 -21.096  -2.723  1.00 60.71 LIG-0.34  N 
ATOM     42  CD  PRO B  50      27.203 -20.844  -1.384  1.00 60.54 LIG 0.13  C 
ATOM     43  C   ARG B  49      28.814 -20.477  -3.383  1.00 60.43 LIG 0.26  C 
ATOM     44  CG  PRO B  50      25.856 -21.573  -1.409  1.00 54.86 LIG 0.02  C 
ATOM     45  CB  PRO B  50      25.957 -22.594  -2.489  1.00 61.52 LIG 0.04  C 
ATOM     46 O    ARG B  49      28.986 -20.587  -4.623  1.00 53.87 LIG-0.27  OA
BRANCH 43 47
ATOM     47  CA  ARG B  49      29.793 -19.586  -2.562  1.00 56.75 LIG 0.40  C 
ATOM     48  N   ARG B  49      30.962 -19.074  -3.394  1.00 50.64 LIG 0.61  N 
BRANCH 47 49
ATOM     49  CB  ARG B  49      29.026 -18.397  -1.915  1.00 51.37 LIG 0.05  C 
BRANCH 49 50
ATOM     50  CG  ARG B  49      29.278 -17.027  -2.556  1.00 44.94 LIG 0.02  C 
BRANCH 50 51
ATOM     51  CD  ARG B  49      29.884 -16.019  -1.538  1.00 41.72 LIG 0.14  C 
BRANCH 51 52
ATOM     52  NE  ARG B  49      30.952 -16.609  -0.729  1.00 39.59 LIG-0.23  N 
ATOM     53 HE   ARG B  49      31.355 -17.294  -1.057  1.00 39.59 LIG 0.18  HD
ATOM     54  CZ  ARG B  49      31.360 -16.186   0.470  1.00 39.90 LIG 0.67  C 
ATOM     55  NH1 ARG B  49      30.744 -15.164   1.078  1.00 39.18 LIG-0.23  N 
ATOM     56  NH2 ARG B  49      32.361 -16.832   1.100  1.00 31.35 LIG-0.23  N 
ATOM     57 2HH1 ARG B  49      31.013 -14.897   1.850  1.00 39.18 LIG 0.17  HD
ATOM     58 1HH1 ARG B  49      30.079 -14.774   0.696  1.00 39.18 LIG 0.17  HD
ATOM     59 1HH2 ARG B  49      32.734 -17.513   0.729  1.00 31.35 LIG 0.17  HD
ATOM     60 2HH2 ARG B  49      32.627 -16.564   1.872  1.00 31.35 LIG 0.17  HD
ENDBRANCH 51 52
ENDBRANCH 50 51
ENDBRANCH 49 50
ENDBRANCH 47 49
ENDBRANCH 43 47
ENDBRANCH 38 40
ENDBRANCH 1 36
TORSDOF 21
ENDMDL
MODEL 6
USER: ADFR SOLUTION from run 24
USER: SCORE 18.244612 LL:  -3.749 LR: -15.432 RR:   0.000 FEB:  -9.168
USER: RMSD 5.092684
USER: SEED 23
USER: STATUS no improvement in best in 8 clusters for 5 generations
USER: GENES 23
USER: genes 0 Translation |==|  0.60905 0.51804 0.21984
USER: genes 1 Rotation |==|  0.43928 0.61540 0.77701 0.89530
USER: genes 2 Torsion [N]-CA--C-[N] |==|  0.88678
USER: genes 3 Torsion [N]-CA--C-[O] |==|  0.84443
USER: genes 4 Torsion [C]-N--CA-[CB] |==|  0.18624
USER: genes 5 Torsion [N]-CA--CB-[CG] |==|  0.04546
USER: genes 6 Torsion [CA]-CB--CG-[CD1] |==|  0.20707
USER: genes 7 Torsion [N]-CA--C-[N] |==|  0.51527
USER: genes 8 Torsion [C]-N--CA-[CB] |==|  0.24635
USER: genes 9 Torsion [N]-CA--CB-[CG1] |==|  0.96520
USER: genes 10 Torsion [N]-CA--C-[O] |==|  0.95140
USER: genes 11 Torsion [C]-CA--CB-[CG] |==|  0.92801
USER: genes 12 Torsion [CA]-CB--CG-[CD] |==|  0.64706
USER: genes 13 Torsion [CB]-CG--CD-[CE] |==|  0.76829
USER: genes 14 Torsion [CG]-CD--CE-[NZ] |==|  0.50265
USER: genes 15 Torsion [CD]-CE--NZ-[HZ2] |==|  0.67770
USER: genes 16 Torsion [C]-CA--N-[C] |==|  0.82870
USER: genes 17 Torsion [N]-C--CA-[N] |==|  0.86703
USER: genes 18 Torsion [N]-C--CA-[N] |==|  0.09556
USER: genes 19 Torsion [C]-CA--CB-[CG] |==|  0.51387
USER: genes 20 Torsion [CA]-CB--CG-[CD] |==|  0.22827
USER: genes 21 Torsion [CB]-CG--CD-[NE] |==|  0.05239
USER: genes 22 Torsion [CG]-CD--NE-[HE] |==|  0.89797
ROOT
ATOM      1  CA  LYS B  51      25.232 -22.426  -8.938  1.00 67.60 LIG 0.18  C 
ENDROOT
BRANCH 1 2
ATOM      2  C   LYS B  51      24.492 -23.156  -7.768  1.00 65.68 LIG 0.24  C 
ATOM      3  N   PRO B  52      25.108 -23.235  -6.557  1.00 68.58 LIG-0.34  N 
ATOM      4  CD  PRO B  52      26.532 -23.123  -6.159  1.00 71.17 LIG 0.13  C 
ATOM      5  CA  PRO B  52      24.267 -23.775  -5.457  1.00 62.52 LIG 0.18  C 
ATOM      6  CG  PRO B  52      26.606 -23.973  -4.907  1.00 68.49 LIG 0.02  C 
ATOM      7  CB  PRO B  52      25.247 -23.873  -4.281  1.00 62.23 LIG 0.04  C 
ATOM      8 O    LYS B  51      23.403 -23.720  -7.979  1.00 49.94 LIG-0.27  OA
BRANCH 5 9
ATOM      9  C   PRO B  52      23.055 -22.858  -5.122  1.00 62.23 LIG 0.24  C 
ATOM     10 O    PRO B  52      23.256 -21.664  -4.821  1.00 52.82 LIG-0.27  OA
ATOM     11  N   LEU B  53      21.827 -23.399  -5.252  1.00 59.38 LIG-0.35  N 
ATOM     12 H    LEU B  53      21.695 -24.176  -5.596  1.00 59.38 LIG 0.16  HD
BRANCH 11 13
ATOM     13  CA  LEU B  53      20.580 -22.729  -4.824  1.00 58.77 LIG 0.18  C 
BRANCH 13 14
ATOM     14  CB  LEU B  53      20.265 -21.468  -5.678  1.00 52.29 LIG 0.04  C 
BRANCH 14 15
ATOM     15  CG  LEU B  53      21.003 -21.291  -7.042  1.00 62.01 LIG-0.02  C 
ATOM     16  CD2 LEU B  53      21.018 -19.832  -7.521  1.00 53.58 LIG 0.01  C 
ATOM     17  CD1 LEU B  53      20.478 -22.222  -8.160  1.00 50.45 LIG 0.01  C 
ENDBRANCH 14 15
ENDBRANCH 13 14
BRANCH 13 18
ATOM     18  C   LEU B  53      19.438 -23.768  -4.899  1.00 60.22 LIG 0.24  C 
ATOM     19  N   VAL B  54      18.188 -23.338  -4.658  1.00 61.95 LIG-0.35  N 
ATOM     20 H    VAL B  54      17.979 -22.514  -4.525  1.00 61.95 LIG 0.16  HD
ATOM     21 O    LEU B  53      19.700 -24.952  -5.138  1.00 54.25 LIG-0.27  OA
BRANCH 19 22
ATOM     22  CA  VAL B  54      17.036 -24.286  -4.603  1.00 71.55 LIG 0.17  C 
BRANCH 22 23
ATOM     23  CB  VAL B  54      16.775 -24.892  -3.170  1.00 67.56 LIG 0.01  C 
ATOM     24  CG1 VAL B  54      17.939 -24.618  -2.213  1.00 60.73 LIG 0.01  C 
ATOM     25  CG2 VAL B  54      15.475 -24.375  -2.558  1.00 61.59 LIG 0.01  C 
ENDBRANCH 22 23
BRANCH 22 26
ATOM     26  C   VAL B  54      15.762 -23.666  -5.189  1.00 64.78 LIG 0.22  C 
ATOM     27 O    VAL B  54      15.675 -22.456  -5.331  1.00 73.26 LIG-0.29  OA
ENDBRANCH 22 26
ENDBRANCH 19 22
ENDBRANCH 13 18
ENDBRANCH 11 13
ENDBRANCH 5 9
ENDBRANCH 1 2
BRANCH 1 28
ATOM     28  CB  LYS B  51      26.271 -23.258  -9.732  1.00 70.72 LIG 0.04  C 
BRANCH 28 29
ATOM     29  CG  LYS B  51      26.965 -24.444  -9.056  1.00 73.15 LIG 0.00  C 
BRANCH 29 30
ATOM     30  CD  LYS B  51      28.486 -24.312  -9.185  1.00 70.67 LIG 0.03  C 
BRANCH 30 31
ATOM     31  CE  LYS B  51      28.975 -24.840 -10.528  1.00 67.82 LIG 0.23  C 
BRANCH 31 32
ATOM     32  NZ  LYS B  51      30.448 -24.724 -10.621  1.00 73.20 LIG-0.08  N 
ATOM     33 HZ2  LYS B  51      30.661 -24.159 -11.275  1.00 73.20 LIG 0.27  HD
ATOM     34 HZ3  LYS B  51      30.771 -24.420  -9.850  1.00 73.20 LIG 0.27  HD
ATOM     35 HZ1  LYS B  51      30.799 -25.523 -10.795  1.00 73.20 LIG 0.27  HD
ENDBRANCH 31 32
ENDBRANCH 30 31
ENDBRANCH 29 30
ENDBRANCH 28 29
ENDBRANCH 1 28
BRANCH 1 36
ATOM     36  N   LYS B  51      25.895 -21.218  -8.430  1.00 65.69 LIG-0.35  N 
ATOM     37 H    LYS B  51      26.751 -21.215  -8.517  1.00 65.69 LIG 0.16  HD
ATOM     38  C   PRO B  50      25.194 -20.224  -7.886  1.00 68.91 LIG 0.24  C 
ATOM     39 O    PRO B  50      23.961 -20.306  -7.689  1.00 63.49 LIG-0.27  OA
BRANCH 38 40
ATOM     40  CA  PRO B  50      25.974 -18.924  -7.529  1.00 65.85 LIG 0.18  C 
ATOM     41  N   PRO B  50      27.224 -19.219  -6.788  1.00 60.71 LIG-0.34  N 
ATOM     42  CD  PRO B  50      28.397 -19.156  -7.689  1.00 60.54 LIG 0.13  C 
ATOM     43  C   ARG B  49      27.088 -19.755  -5.531  1.00 60.43 LIG 0.26  C 
ATOM     44  CG  PRO B  50      27.806 -18.813  -9.059  1.00 54.86 LIG 0.02  C 
ATOM     45  CB  PRO B  50      26.474 -18.200  -8.795  1.00 61.52 LIG 0.04  C 
ATOM     46 O    ARG B  49      25.967 -20.011  -5.024  1.00 53.87 LIG-0.27  OA
BRANCH 43 47
ATOM     47  CA  ARG B  49      28.376 -20.078  -4.717  1.00 56.75 LIG 0.40  C 
ATOM     48  N   ARG B  49      29.501 -19.085  -4.978  1.00 50.64 LIG 0.61  N 
BRANCH 47 49
ATOM     49  CB  ARG B  49      28.051 -20.144  -3.197  1.00 51.37 LIG 0.05  C 
BRANCH 49 50
ATOM     50  CG  ARG B  49      29.261 -20.337  -2.276  1.00 44.94 LIG 0.02  C 
BRANCH 50 51
ATOM     51  CD  ARG B  49      29.988 -18.991  -1.993  1.00 41.72 LIG 0.14  C 
BRANCH 51 52
ATOM     52  NE  ARG B  49      29.147 -17.826  -2.277  1.00 39.59 LIG-0.23  N 
ATOM     53 HE   ARG B  49      28.620 -17.883  -2.954  1.00 39.59 LIG 0.18  HD
ATOM     54  CZ  ARG B  49      29.119 -16.685  -1.584  1.00 39.90 LIG 0.67  C 
ATOM     55  NH1 ARG B  49      29.951 -16.494  -0.552  1.00 39.18 LIG-0.23  N 
ATOM     56  NH2 ARG B  49      28.289 -15.694  -1.964  1.00 31.35 LIG-0.23  N 
ATOM     57 2HH1 ARG B  49      29.927 -15.756  -0.111  1.00 39.18 LIG 0.17  HD
ATOM     58 1HH1 ARG B  49      30.510 -17.109  -0.331  1.00 39.18 LIG 0.17  HD
ATOM     59 1HH2 ARG B  49      27.780 -15.799  -2.650  1.00 31.35 LIG 0.17  HD
ATOM     60 2HH2 ARG B  49      28.267 -14.957  -1.522  1.00 31.35 LIG 0.17  HD
ENDBRANCH 51 52
ENDBRANCH 50 51
ENDBRANCH 49 50
ENDBRANCH 47 49
ENDBRANCH 43 47
ENDBRANCH 38 40
ENDBRANCH 1 36
TORSDOF 21
ENDMDL
MODEL 7
USER: ADFR SOLUTION from run 46
USER: SCORE 17.437806 LL:  -3.385 LR: -15.388 RR:   0.000 FEB:  -9.124
USER: RMSD 5.277758
USER: SEED 45
USER: STATUS no improvement in best in 1 clusters for 5 generations
USER: GENES 23
USER: genes 0 Translation |==|  0.40314 0.42698 0.45583
USER: genes 1 Rotation |==|  0.75502 0.49263 0.63709 0.90758
USER: genes 2 Torsion [N]-CA--C-[N] |==|  0.28698
USER: genes 3 Torsion [N]-CA--C-[O] |==|  0.37595
USER: genes 4 Torsion [C]-N--CA-[CB] |==|  0.82222
USER: genes 5 Torsion [N]-CA--CB-[CG] |==|  0.57770
USER: genes 6 Torsion [CA]-CB--CG-[CD1] |==|  0.51074
USER: genes 7 Torsion [N]-CA--C-[N] |==|  0.11724
USER: genes 8 Torsion [C]-N--CA-[CB] |==|  0.28296
USER: genes 9 Torsion [N]-CA--CB-[CG1] |==|  0.79199
USER: genes 10 Torsion [N]-CA--C-[O] |==|  0.04443
USER: genes 11 Torsion [C]-CA--CB-[CG] |==|  0.23572
USER: genes 12 Torsion [CA]-CB--CG-[CD] |==|  0.26296
USER: genes 13 Torsion [CB]-CG--CD-[CE] |==|  0.80271
USER: genes 14 Torsion [CG]-CD--CE-[NZ] |==|  0.66987
USER: genes 15 Torsion [CD]-CE--NZ-[HZ2] |==|  0.79445
USER: genes 16 Torsion [C]-CA--N-[C] |==|  0.58269
USER: genes 17 Torsion [N]-C--CA-[N] |==|  0.54179
USER: genes 18 Torsion [N]-C--CA-[N] |==|  0.14391
USER: genes 19 Torsion [C]-CA--CB-[CG] |==|  0.37212
USER: genes 20 Torsion [CA]-CB--CG-[CD] |==|  0.29090
USER: genes 21 Torsion [CB]-CG--CD-[NE] |==|  0.44067
USER: genes 22 Torsion [CG]-CD--NE-[HE] |==|  0.93842
ROOT
ATOM      1  CA  LYS B  51      19.826 -24.475  -5.221  1.00 67.60 LIG 0.18  C 
ENDROOT
BRANCH 1 2
ATOM      2  C   LYS B  51      18.545 -25.340  -4.982  1.00 65.68 LIG 0.24  C 
ATOM      3  N   PRO B  52      17.619 -24.898  -4.087  1.00 68.58 LIG-0.34  N 
ATOM      4  CD  PRO B  52      17.709 -23.943  -2.956  1.00 71.17 LIG 0.13  C 
ATOM      5  CA  PRO B  52      16.353 -25.675  -4.055  1.00 62.52 LIG 0.18  C 
ATOM      6  CG  PRO B  52      16.630 -24.430  -2.010  1.00 68.49 LIG 0.02  C 
ATOM      7  CB  PRO B  52      15.582 -25.045  -2.888  1.00 62.23 LIG 0.04  C 
ATOM      8 O    LYS B  51      18.429 -26.446  -5.539  1.00 49.94 LIG-0.27  OA
BRANCH 5 9
ATOM      9  C   PRO B  52      15.556 -25.580  -5.389  1.00 62.23 LIG 0.24  C 
ATOM     10 O    PRO B  52      15.065 -26.614  -5.883  1.00 52.82 LIG-0.27  OA
ATOM     11  N   LEU B  53      15.376 -24.347  -5.905  1.00 59.38 LIG-0.35  N 
ATOM     12 H    LEU B  53      15.595 -23.630  -5.485  1.00 59.38 LIG 0.16  HD
BRANCH 11 13
ATOM     13  CA  LEU B  53      14.790 -24.088  -7.237  1.00 58.77 LIG 0.18  C 
BRANCH 13 14
ATOM     14  CB  LEU B  53      15.668 -24.655  -8.389  1.00 52.29 LIG 0.04  C 
BRANCH 14 15
ATOM     15  CG  LEU B  53      15.606 -23.957  -9.783  1.00 62.01 LIG-0.02  C 
ATOM     16  CD2 LEU B  53      14.168 -23.740 -10.274  1.00 53.58 LIG 0.01  C 
ATOM     17  CD1 LEU B  53      16.448 -24.664 -10.872  1.00 50.45 LIG 0.01  C 
ENDBRANCH 14 15
ENDBRANCH 13 14
BRANCH 13 18
ATOM     18  C   LEU B  53      13.368 -24.697  -7.252  1.00 60.22 LIG 0.24  C 
ATOM     19  N   VAL B  54      12.605 -24.523  -6.160  1.00 61.95 LIG-0.35  N 
ATOM     20 H    VAL B  54      12.835 -24.047  -5.482  1.00 61.95 LIG 0.16  HD
ATOM     21 O    LEU B  53      12.989 -25.346  -8.233  1.00 54.25 LIG-0.27  OA
BRANCH 19 22
ATOM     22  CA  VAL B  54      11.262 -25.164  -6.039  1.00 71.55 LIG 0.17  C 
BRANCH 22 23
ATOM     23  CB  VAL B  54      11.246 -26.449  -5.124  1.00 67.56 LIG 0.01  C 
ATOM     24  CG1 VAL B  54      11.878 -27.656  -5.823  1.00 60.73 LIG 0.01  C 
ATOM     25  CG2 VAL B  54      11.942 -26.207  -3.786  1.00 61.59 LIG 0.01  C 
ENDBRANCH 22 23
BRANCH 22 26
ATOM     26  C   VAL B  54      10.189 -24.157  -5.608  1.00 64.78 LIG 0.22  C 
ATOM     27 O    VAL B  54      10.403 -22.958  -5.689  1.00 73.26 LIG-0.29  OA
ENDBRANCH 22 26
ENDBRANCH 19 22
ENDBRANCH 13 18
ENDBRANCH 11 13
ENDBRANCH 5 9
ENDBRANCH 1 2
BRANCH 1 28
ATOM     28  CB  LYS B  51      20.229 -24.219  -6.695  1.00 70.72 LIG 0.04  C 
BRANCH 28 29
ATOM     29  CG  LYS B  51      19.589 -23.060  -7.463  1.00 73.15 LIG 0.00  C 
BRANCH 29 30
ATOM     30  CD  LYS B  51      20.480 -21.815  -7.386  1.00 70.67 LIG 0.03  C 
BRANCH 30 31
ATOM     31  CE  LYS B  51      20.468 -21.213  -5.986  1.00 67.82 LIG 0.23  C 
BRANCH 31 32
ATOM     32  NZ  LYS B  51      19.937 -19.832  -6.025  1.00 73.20 LIG-0.08  N 
ATOM     33 HZ2  LYS B  51      20.547 -19.288  -6.377  1.00 73.20 LIG 0.27  HD
ATOM     34 HZ3  LYS B  51      19.199 -19.812  -6.523  1.00 73.20 LIG 0.27  HD
ATOM     35 HZ1  LYS B  51      19.744 -19.565  -5.198  1.00 73.20 LIG 0.27  HD
ENDBRANCH 31 32
ENDBRANCH 30 31
ENDBRANCH 29 30
ENDBRANCH 28 29
ENDBRANCH 1 28
BRANCH 1 36
ATOM     36  N   LYS B  51      20.971 -25.078  -4.525  1.00 65.69 LIG-0.35  N 
ATOM     37 H    LYS B  51      20.932 -25.933  -4.446  1.00 65.69 LIG 0.16  HD
ATOM     38  C   PRO B  50      21.972 -24.328  -4.067  1.00 68.91 LIG 0.24  C 
ATOM     39 O    PRO B  50      21.946 -23.077  -4.116  1.00 63.49 LIG-0.27  OA
BRANCH 38 40
ATOM     40  CA  PRO B  50      23.210 -25.077  -3.492  1.00 65.85 LIG 0.18  C 
ATOM     41  N   PRO B  50      24.080 -24.173  -2.701  1.00 60.71 LIG-0.34  N 
ATOM     42  CD  PRO B  50      23.843 -24.349  -1.251  1.00 60.54 LIG 0.13  C 
ATOM     43  C   ARG B  49      24.719 -23.171  -3.389  1.00 60.43 LIG 0.26  C 
ATOM     44  CG  PRO B  50      22.751 -25.420  -1.172  1.00 54.86 LIG 0.02  C 
ATOM     45  CB  PRO B  50      22.794 -26.152  -2.469  1.00 61.52 LIG 0.04  C 
ATOM     46 O    ARG B  49      24.571 -22.998  -4.624  1.00 53.87 LIG-0.27  OA
BRANCH 43 47
ATOM     47  CA  ARG B  49      25.645 -22.200  -2.597  1.00 56.75 LIG 0.40  C 
ATOM     48  N   ARG B  49      26.673 -22.931  -1.744  1.00 50.64 LIG 0.61  N 
BRANCH 47 49
ATOM     49  CB  ARG B  49      26.352 -21.214  -3.572  1.00 51.37 LIG 0.05  C 
BRANCH 49 50
ATOM     50  CG  ARG B  49      26.340 -19.743  -3.139  1.00 44.94 LIG 0.02  C 
BRANCH 50 51
ATOM     51  CD  ARG B  49      27.728 -19.292  -2.599  1.00 41.72 LIG 0.14  C 
BRANCH 51 52
ATOM     52  NE  ARG B  49      27.906 -17.839  -2.650  1.00 39.59 LIG-0.23  N 
ATOM     53 HE   ARG B  49      27.414 -17.406  -3.207  1.00 39.59 LIG 0.18  HD
ATOM     54  CZ  ARG B  49      28.760 -17.123  -1.914  1.00 39.90 LIG 0.67  C 
ATOM     55  NH1 ARG B  49      29.603 -17.728  -1.068  1.00 39.18 LIG-0.23  N 
ATOM     56  NH2 ARG B  49      28.814 -15.786  -2.069  1.00 31.35 LIG-0.23  N 
ATOM     57 2HH1 ARG B  49      30.150 -17.259  -0.597  1.00 39.18 LIG 0.17  HD
ATOM     58 1HH1 ARG B  49      29.598 -18.585  -0.995  1.00 39.18 LIG 0.17  HD
ATOM     59 1HH2 ARG B  49      28.300 -15.398  -2.640  1.00 31.35 LIG 0.17  HD
ATOM     60 2HH2 ARG B  49      29.362 -15.320  -1.598  1.00 31.35 LIG 0.17  HD
ENDBRANCH 51 52
ENDBRANCH 50 51
ENDBRANCH 49 50
ENDBRANCH 47 49
ENDBRANCH 43 47
ENDBRANCH 38 40
ENDBRANCH 1 36
TORSDOF 21
ENDMDL
MODEL 8
USER: ADFR SOLUTION from run 28
USER: SCORE 17.769246 LL:  -3.274 LR: -15.319 RR:   0.000 FEB:  -9.055
USER: RMSD 6.494899
USER: SEED 27
USER: STATUS no improvement in best in 9 clusters for 5 generations
USER: GENES 23
USER: genes 0 Translation |==|  0.65306 0.53444 0.51615
USER: genes 1 Rotation |==|  0.96629 0.64019 0.38739 0.51545
USER: genes 2 Torsion [N]-CA--C-[N] |==|  0.57789
USER: genes 3 Torsion [N]-CA--C-[O] |==|  0.32287
USER: genes 4 Torsion [C]-N--CA-[CB] |==|  0.85080
USER: genes 5 Torsion [N]-CA--CB-[CG] |==|  0.60634
USER: genes 6 Torsion [CA]-CB--CG-[CD1] |==|  0.01340
USER: genes 7 Torsion [N]-CA--C-[N] |==|  0.37438
USER: genes 8 Torsion [C]-N--CA-[CB] |==|  0.22236
USER: genes 9 Torsion [N]-CA--CB-[CG1] |==|  0.68335
USER: genes 10 Torsion [N]-CA--C-[O] |==|  0.91621
USER: genes 11 Torsion [C]-CA--CB-[CG] |==|  0.35756
USER: genes 12 Torsion [CA]-CB--CG-[CD] |==|  0.28436
USER: genes 13 Torsion [CB]-CG--CD-[CE] |==|  0.48884
USER: genes 14 Torsion [CG]-CD--CE-[NZ] |==|  0.56267
USER: genes 15 Torsion [CD]-CE--NZ-[HZ2] |==|  0.19257
USER: genes 16 Torsion [C]-CA--N-[C] |==|  0.17092
USER: genes 17 Torsion [N]-C--CA-[N] |==|  0.93966
USER: genes 18 Torsion [N]-C--CA-[N] |==|  0.08378
USER: genes 19 Torsion [C]-CA--CB-[CG] |==|  0.76204
USER: genes 20 Torsion [CA]-CB--CG-[CD] |==|  0.19723
USER: genes 21 Torsion [CB]-CG--CD-[NE] |==|  0.37851
USER: genes 22 Torsion [CG]-CD--NE-[HE] |==|  0.90369
ROOT
ATOM      1  CA  LYS B  51      26.387 -22.057  -4.271  1.00 67.60 LIG 0.18  C 
ENDROOT
BRANCH 1 2
ATOM      2  C   LYS B  51      25.421 -23.282  -4.158  1.00 65.68 LIG 0.24  C 
ATOM      3  N   PRO B  52      24.706 -23.444  -3.010  1.00 68.58 LIG-0.34  N 
ATOM      4  CD  PRO B  52      24.908 -22.929  -1.635  1.00 71.17 LIG 0.13  C 
ATOM      5  CA  PRO B  52      23.680 -24.519  -3.054  1.00 62.52 LIG 0.18  C 
ATOM      6  CG  PRO B  52      24.251 -23.988  -0.773  1.00 68.49 LIG 0.02  C 
ATOM      7  CB  PRO B  52      23.149 -24.555  -1.616  1.00 62.23 LIG 0.04  C 
ATOM      8 O    LYS B  51      25.382 -24.129  -5.069  1.00 49.94 LIG-0.27  OA
BRANCH 5 9
ATOM      9  C   PRO B  52      22.547 -24.225  -4.080  1.00 62.23 LIG 0.24  C 
ATOM     10 O    PRO B  52      22.397 -24.982  -5.059  1.00 52.82 LIG-0.27  OA
ATOM     11  N   LEU B  53      21.727 -23.190  -3.804  1.00 59.38 LIG-0.35  N 
ATOM     12 H    LEU B  53      21.750 -22.765  -3.057  1.00 59.38 LIG 0.16  HD
BRANCH 11 13
ATOM     13  CA  LEU B  53      20.707 -22.673  -4.740  1.00 58.77 LIG 0.18  C 
BRANCH 13 14
ATOM     14  CB  LEU B  53      21.308 -22.318  -6.130  1.00 52.29 LIG 0.04  C 
BRANCH 14 15
ATOM     15  CG  LEU B  53      20.776 -21.051  -6.868  1.00 62.01 LIG-0.02  C 
ATOM     16  CD2 LEU B  53      21.906 -20.151  -7.390  1.00 53.58 LIG 0.01  C 
ATOM     17  CD1 LEU B  53      19.767 -20.223  -6.038  1.00 50.45 LIG 0.01  C 
ENDBRANCH 14 15
ENDBRANCH 13 14
BRANCH 13 18
ATOM     18  C   LEU B  53      19.592 -23.738  -4.856  1.00 60.22 LIG 0.24  C 
ATOM     19  N   VAL B  54      18.318 -23.315  -4.795  1.00 61.95 LIG-0.35  N 
ATOM     20 H    VAL B  54      18.087 -22.488  -4.756  1.00 61.95 LIG 0.16  HD
ATOM     21 O    LEU B  53      19.893 -24.932  -4.965  1.00 54.25 LIG-0.27  OA
BRANCH 19 22
ATOM     22  CA  VAL B  54      17.178 -24.279  -4.791  1.00 71.55 LIG 0.17  C 
BRANCH 22 23
ATOM     23  CB  VAL B  54      16.901 -24.935  -3.384  1.00 67.56 LIG 0.01  C 
ATOM     24  CG1 VAL B  54      17.179 -26.441  -3.391  1.00 60.73 LIG 0.01  C 
ATOM     25  CG2 VAL B  54      17.708 -24.269  -2.272  1.00 61.59 LIG 0.01  C 
ENDBRANCH 22 23
BRANCH 22 26
ATOM     26  C   VAL B  54      15.906 -23.656  -5.380  1.00 64.78 LIG 0.22  C 
ATOM     27 O    VAL B  54      15.703 -22.457  -5.275  1.00 73.26 LIG-0.29  OA
ENDBRANCH 22 26
ENDBRANCH 19 22
ENDBRANCH 13 18
ENDBRANCH 11 13
ENDBRANCH 5 9
ENDBRANCH 1 2
BRANCH 1 28
ATOM     28  CB  LYS B  51      26.014 -20.797  -3.448  1.00 70.72 LIG 0.04  C 
BRANCH 28 29
ATOM     29  CG  LYS B  51      27.060 -20.154  -2.534  1.00 73.15 LIG 0.00  C 
BRANCH 29 30
ATOM     30  CD  LYS B  51      27.642 -18.899  -3.194  1.00 70.67 LIG 0.03  C 
BRANCH 30 31
ATOM     31  CE  LYS B  51      28.614 -18.185  -2.264  1.00 67.82 LIG 0.23  C 
BRANCH 31 32
ATOM     32  NZ  LYS B  51      28.744 -16.762  -2.650  1.00 73.20 LIG-0.08  N 
ATOM     33 HZ2  LYS B  51      27.985 -16.334  -2.470  1.00 73.20 LIG 0.27  HD
ATOM     34 HZ3  LYS B  51      29.409 -16.389  -2.191  1.00 73.20 LIG 0.27  HD
ATOM     35 HZ1  LYS B  51      28.917 -16.705  -3.521  1.00 73.20 LIG 0.27  HD
ENDBRANCH 31 32
ENDBRANCH 30 31
ENDBRANCH 29 30
ENDBRANCH 28 29
ENDBRANCH 1 28
BRANCH 1 36
ATOM     36  N   LYS B  51      26.532 -21.665  -5.679  1.00 65.69 LIG-0.35  N 
ATOM     37 H    LYS B  51      27.333 -21.722  -5.986  1.00 65.69 LIG 0.16  HD
ATOM     38  C   PRO B  50      25.484 -21.258  -6.392  1.00 68.91 LIG 0.24  C 
ATOM     39 O    PRO B  50      24.351 -21.096  -5.883  1.00 63.49 LIG-0.27  OA
BRANCH 38 40
ATOM     40  CA  PRO B  50      25.714 -21.022  -7.915  1.00 65.85 LIG 0.18  C 
ATOM     41  N   PRO B  50      27.146 -20.793  -8.223  1.00 60.71 LIG-0.34  N 
ATOM     42  CD  PRO B  50      27.772 -22.021  -8.762  1.00 60.54 LIG 0.13  C 
ATOM     43  C   ARG B  49      27.711 -19.644  -7.726  1.00 60.43 LIG 0.26  C 
ATOM     44  CG  PRO B  50      26.642 -23.054  -8.763  1.00 54.86 LIG 0.02  C 
ATOM     45  CB  PRO B  50      25.370 -22.278  -8.739  1.00 61.52 LIG 0.04  C 
ATOM     46 O    ARG B  49      27.069 -18.825  -7.023  1.00 53.87 LIG-0.27  OA
BRANCH 43 47
ATOM     47  CA  ARG B  49      29.213 -19.362  -8.029  1.00 56.75 LIG 0.40  C 
ATOM     48  N   ARG B  49      29.664 -19.948  -9.361  1.00 50.64 LIG 0.61  N 
BRANCH 47 49
ATOM     49  CB  ARG B  49      29.494 -17.833  -7.986  1.00 51.37 LIG 0.05  C 
BRANCH 49 50
ATOM     50  CG  ARG B  49      29.223 -17.079  -9.294  1.00 44.94 LIG 0.02  C 
BRANCH 50 51
ATOM     51  CD  ARG B  49      27.699 -16.974  -9.590  1.00 41.72 LIG 0.14  C 
BRANCH 51 52
ATOM     52  NE  ARG B  49      27.305 -15.639 -10.047  1.00 39.59 LIG-0.23  N 
ATOM     53 HE   ARG B  49      27.728 -14.971  -9.708  1.00 39.59 LIG 0.18  HD
ATOM     54  CZ  ARG B  49      26.354 -15.360 -10.942  1.00 39.90 LIG 0.67  C 
ATOM     55  NH1 ARG B  49      25.609 -16.339 -11.472  1.00 39.18 LIG-0.23  N 
ATOM     56  NH2 ARG B  49      26.101 -14.077 -11.267  1.00 31.35 LIG-0.23  N 
ATOM     57 2HH1 ARG B  49      24.998 -16.151 -12.047  1.00 39.18 LIG 0.17  HD
ATOM     58 1HH1 ARG B  49      25.742 -17.156 -11.236  1.00 39.18 LIG 0.17  HD
ATOM     59 1HH2 ARG B  49      26.552 -13.444 -10.900  1.00 31.35 LIG 0.17  HD
ATOM     60 2HH2 ARG B  49      25.489 -13.892 -11.842  1.00 31.35 LIG 0.17  HD
ENDBRANCH 51 52
ENDBRANCH 50 51
ENDBRANCH 49 50
ENDBRANCH 47 49
ENDBRANCH 43 47
ENDBRANCH 38 40
ENDBRANCH 1 36
TORSDOF 21
ENDMDL
MODEL 9
USER: ADFR SOLUTION from run 21
USER: SCORE 17.413892 LL:  -3.568 LR: -15.316 RR:   0.000 FEB:  -9.052
USER: RMSD 4.020284
USER: SEED 20
USER: STATUS no improvement in best in 12 clusters for 5 generations
USER: GENES 23
USER: genes 0 Translation |==|  0.58592 0.50915 0.36518
USER: genes 1 Rotation |==|  0.34700 0.62042 0.62690 0.94270
USER: genes 2 Torsion [N]-CA--C-[N] |==|  0.30002
USER: genes 3 Torsion [N]-CA--C-[O] |==|  0.98206
USER: genes 4 Torsion [C]-N--CA-[CB] |==|  0.45505
USER: genes 5 Torsion [N]-CA--CB-[CG] |==|  0.38758
USER: genes 6 Torsion [CA]-CB--CG-[CD1] |==|  0.41711
USER: genes 7 Torsion [N]-CA--C-[N] |==|  0.88987
USER: genes 8 Torsion [C]-N--CA-[CB] |==|  0.16063
USER: genes 9 Torsion [N]-CA--CB-[CG1] |==|  0.38055
USER: genes 10 Torsion [N]-CA--C-[O] |==|  0.96546
USER: genes 11 Torsion [C]-CA--CB-[CG] |==|  0.44664
USER: genes 12 Torsion [CA]-CB--CG-[CD] |==|  0.88833
USER: genes 13 Torsion [CB]-CG--CD-[CE] |==|  0.81599
USER: genes 14 Torsion [CG]-CD--CE-[NZ] |==|  0.48003
USER: genes 15 Torsion [CD]-CE--NZ-[HZ2] |==|  0.47812
USER: genes 16 Torsion [C]-CA--N-[C] |==|  0.77636
USER: genes 17 Torsion [N]-C--CA-[N] |==|  0.93396
USER: genes 18 Torsion [N]-C--CA-[N] |==|  0.23209
USER: genes 19 Torsion [C]-CA--CB-[CG] |==|  0.31876
USER: genes 20 Torsion [CA]-CB--CG-[CD] |==|  0.12633
USER: genes 21 Torsion [CB]-CG--CD-[NE] |==|  0.28501
USER: genes 22 Torsion [CG]-CD--NE-[HE] |==|  0.67260
ROOT
ATOM      1  CA  LYS B  51      24.624 -22.626  -6.648  1.00 67.60 LIG 0.18  C 
ENDROOT
BRANCH 1 2
ATOM      2  C   LYS B  51      23.414 -22.360  -5.694  1.00 65.68 LIG 0.24  C 
ATOM      3  N   PRO B  52      22.300 -21.767  -6.206  1.00 68.58 LIG-0.34  N 
ATOM      4  CD  PRO B  52      22.085 -20.934  -7.413  1.00 71.17 LIG 0.13  C 
ATOM      5  CA  PRO B  52      21.133 -21.720  -5.286  1.00 62.52 LIG 0.18  C 
ATOM      6  CG  PRO B  52      20.906 -20.066  -7.025  1.00 68.49 LIG 0.02  C 
ATOM      7  CB  PRO B  52      20.103 -20.895  -6.068  1.00 62.23 LIG 0.04  C 
ATOM      8 O    LYS B  51      23.513 -22.612  -4.480  1.00 49.94 LIG-0.27  OA
BRANCH 5 9
ATOM      9  C   PRO B  52      20.589 -23.135  -4.933  1.00 62.23 LIG 0.24  C 
ATOM     10 O    PRO B  52      21.061 -24.134  -5.511  1.00 52.82 LIG-0.27  OA
ATOM     11  N   LEU B  53      19.673 -23.207  -3.946  1.00 59.38 LIG-0.35  N 
ATOM     12 H    LEU B  53      19.460 -22.532  -3.458  1.00 59.38 LIG 0.16  HD
BRANCH 11 13
ATOM     13  CA  LEU B  53      18.936 -24.439  -3.593  1.00 58.77 LIG 0.18  C 
BRANCH 13 14
ATOM     14  CB  LEU B  53      18.261 -24.343  -2.195  1.00 52.29 LIG 0.04  C 
BRANCH 14 15
ATOM     15  CG  LEU B  53      16.827 -24.931  -2.019  1.00 62.01 LIG-0.02  C 
ATOM     16  CD2 LEU B  53      15.728 -23.958  -2.468  1.00 53.58 LIG 0.01  C 
ATOM     17  CD1 LEU B  53      16.537 -25.452  -0.591  1.00 50.45 LIG 0.01  C 
ENDBRANCH 14 15
ENDBRANCH 13 14
BRANCH 13 18
ATOM     18  C   LEU B  53      17.899 -24.703  -4.709  1.00 60.22 LIG 0.24  C 
ATOM     19  N   VAL B  54      17.252 -23.642  -5.222  1.00 61.95 LIG-0.35  N 
ATOM     20 H    VAL B  54      17.422 -22.826  -5.011  1.00 61.95 LIG 0.16  HD
ATOM     21 O    LEU B  53      17.668 -25.862  -5.071  1.00 54.25 LIG-0.27  OA
BRANCH 19 22
ATOM     22  CA  VAL B  54      16.159 -23.808  -6.226  1.00 71.55 LIG 0.17  C 
BRANCH 22 23
ATOM     23  CB  VAL B  54      14.962 -24.704  -5.725  1.00 67.56 LIG 0.01  C 
ATOM     24  CG1 VAL B  54      13.603 -24.106  -6.102  1.00 60.73 LIG 0.01  C 
ATOM     25  CG2 VAL B  54      15.058 -26.134  -6.251  1.00 61.59 LIG 0.01  C 
ENDBRANCH 22 23
BRANCH 22 26
ATOM     26  C   VAL B  54      15.664 -22.456  -6.755  1.00 64.78 LIG 0.22  C 
ATOM     27 O    VAL B  54      15.991 -21.420  -6.197  1.00 73.26 LIG-0.29  OA
ENDBRANCH 22 26
ENDBRANCH 19 22
ENDBRANCH 13 18
ENDBRANCH 11 13
ENDBRANCH 5 9
ENDBRANCH 1 2
BRANCH 1 28
ATOM     28  CB  LYS B  51      25.191 -24.068  -6.670  1.00 70.72 LIG 0.04  C 
BRANCH 28 29
ATOM     29  CG  LYS B  51      26.049 -24.526  -7.852  1.00 73.15 LIG 0.00  C 
BRANCH 29 30
ATOM     30  CD  LYS B  51      25.470 -23.990  -9.166  1.00 70.67 LIG 0.03  C 
BRANCH 30 31
ATOM     31  CE  LYS B  51      24.110 -24.609  -9.465  1.00 67.82 LIG 0.23  C 
BRANCH 31 32
ATOM     32  NZ  LYS B  51      23.494 -23.954 -10.641  1.00 73.20 LIG-0.08  N 
ATOM     33 HZ2  LYS B  51      22.758 -24.395 -10.876  1.00 73.20 LIG 0.27  HD
ATOM     34 HZ3  LYS B  51      23.283 -23.114 -10.436  1.00 73.20 LIG 0.27  HD
ATOM     35 HZ1  LYS B  51      24.071 -23.957 -11.319  1.00 73.20 LIG 0.27  HD
ENDBRANCH 31 32
ENDBRANCH 30 31
ENDBRANCH 29 30
ENDBRANCH 28 29
ENDBRANCH 1 28
BRANCH 1 36
ATOM     36  N   LYS B  51      25.721 -21.701  -6.332  1.00 65.69 LIG-0.35  N 
ATOM     37 H    LYS B  51      26.344 -22.038  -5.844  1.00 65.69 LIG 0.16  HD
ATOM     38  C   PRO B  50      25.716 -20.448  -6.781  1.00 68.91 LIG 0.24  C 
ATOM     39 O    PRO B  50      24.744 -19.965  -7.405  1.00 63.49 LIG-0.27  OA
BRANCH 38 40
ATOM     40  CA  PRO B  50      26.999 -19.601  -6.525  1.00 65.85 LIG 0.18  C 
ATOM     41  N   PRO B  50      27.773 -20.114  -5.369  1.00 60.71 LIG-0.34  N 
ATOM     42  CD  PRO B  50      28.924 -20.924  -5.825  1.00 60.54 LIG 0.13  C 
ATOM     43  C   ARG B  49      27.182 -20.011  -4.133  1.00 60.43 LIG 0.26  C 
ATOM     44  CG  PRO B  50      28.823 -20.905  -7.352  1.00 54.86 LIG 0.02  C 
ATOM     45  CB  PRO B  50      27.993 -19.716  -7.697  1.00 61.52 LIG 0.04  C 
ATOM     46 O    ARG B  49      26.034 -19.530  -3.972  1.00 53.87 LIG-0.27  OA
BRANCH 43 47
ATOM     47  CA  ARG B  49      27.963 -20.535  -2.891  1.00 56.75 LIG 0.40  C 
ATOM     48  N   ARG B  49      28.953 -19.515  -2.345  1.00 50.64 LIG 0.61  N 
BRANCH 47 49
ATOM     49  CB  ARG B  49      26.970 -20.978  -1.778  1.00 51.37 LIG 0.05  C 
BRANCH 49 50
ATOM     50  CG  ARG B  49      26.980 -22.476  -1.449  1.00 44.94 LIG 0.02  C 
BRANCH 50 51
ATOM     51  CD  ARG B  49      28.430 -23.024  -1.312  1.00 41.72 LIG 0.14  C 
BRANCH 51 52
ATOM     52  NE  ARG B  49      28.832 -23.207   0.085  1.00 39.59 LIG-0.23  N 
ATOM     53 HE   ARG B  49      29.498 -22.739   0.362  1.00 39.59 LIG 0.18  HD
ATOM     54  CZ  ARG B  49      28.264 -24.031   0.968  1.00 39.90 LIG 0.67  C 
ATOM     55  NH1 ARG B  49      27.261 -24.838   0.599  1.00 39.18 LIG-0.23  N 
ATOM     56  NH2 ARG B  49      28.744 -24.094   2.225  1.00 31.35 LIG-0.23  N 
ATOM     57 2HH1 ARG B  49      26.900 -25.366   1.174  1.00 39.18 LIG 0.17  HD
ATOM     58 1HH1 ARG B  49      26.978 -24.829  -0.213  1.00 39.18 LIG 0.17  HD
ATOM     59 1HH2 ARG B  49      29.413 -23.605   2.455  1.00 31.35 LIG 0.17  HD
ATOM     60 2HH2 ARG B  49      28.382 -24.624   2.798  1.00 31.35 LIG 0.17  HD
ENDBRANCH 51 52
ENDBRANCH 50 51
ENDBRANCH 49 50
ENDBRANCH 47 49
ENDBRANCH 43 47
ENDBRANCH 38 40
ENDBRANCH 1 36
TORSDOF 21
ENDMDL
MODEL 10
USER: ADFR SOLUTION from run 28
USER: SCORE 17.698816 LL:  -3.388 LR: -15.294 RR:   0.000 FEB:  -9.030
USER: RMSD 6.460172
USER: SEED 27
USER: STATUS no improvement in best in 9 clusters for 5 generations
USER: GENES 23
USER: genes 0 Translation |==|  0.69084 0.55426 0.55752
USER: genes 1 Rotation |==|  0.03473 0.34456 0.58955 0.53663
USER: genes 2 Torsion [N]-CA--C-[N] |==|  0.60027
USER: genes 3 Torsion [N]-CA--C-[O] |==|  0.29971
USER: genes 4 Torsion [C]-N--CA-[CB] |==|  0.88333
USER: genes 5 Torsion [N]-CA--CB-[CG] |==|  0.48862
USER: genes 6 Torsion [CA]-CB--CG-[CD1] |==|  0.76891
USER: genes 7 Torsion [N]-CA--C-[N] |==|  0.35964
USER: genes 8 Torsion [C]-N--CA-[CB] |==|  0.25195
USER: genes 9 Torsion [N]-CA--CB-[CG1] |==|  0.01957
USER: genes 10 Torsion [N]-CA--C-[O] |==|  0.85599
USER: genes 11 Torsion [C]-CA--CB-[CG] |==|  0.43565
USER: genes 12 Torsion [CA]-CB--CG-[CD] |==|  0.25851
USER: genes 13 Torsion [CB]-CG--CD-[CE] |==|  0.45998
USER: genes 14 Torsion [CG]-CD--CE-[NZ] |==|  0.56898
USER: genes 15 Torsion [CD]-CE--NZ-[HZ2] |==|  0.14426
USER: genes 16 Torsion [C]-CA--N-[C] |==|  0.15923
USER: genes 17 Torsion [N]-C--CA-[N] |==|  0.21215
USER: genes 18 Torsion [N]-C--CA-[N] |==|  0.04601
USER: genes 19 Torsion [C]-CA--CB-[CG] |==|  0.79814
USER: genes 20 Torsion [CA]-CB--CG-[CD] |==|  0.24024
USER: genes 21 Torsion [CB]-CG--CD-[NE] |==|  0.71531
USER: genes 22 Torsion [CG]-CD--NE-[HE] |==|  0.88858
ROOT
ATOM      1  CA  LYS B  51      27.379 -21.611  -3.619  1.00 67.60 LIG 0.18  C 
ENDROOT
BRANCH 1 2
ATOM      2  C   LYS B  51      26.431 -22.839  -3.819  1.00 65.68 LIG 0.24  C 
ATOM      3  N   PRO B  52      25.572 -23.169  -2.816  1.00 68.58 LIG-0.34  N 
ATOM      4  CD  PRO B  52      25.577 -22.863  -1.365  1.00 71.17 LIG 0.13  C 
ATOM      5  CA  PRO B  52      24.583 -24.225  -3.154  1.00 62.52 LIG 0.18  C 
ATOM      6  CG  PRO B  52      24.831 -24.037  -0.764  1.00 68.49 LIG 0.02  C 
ATOM      7  CB  PRO B  52      23.863 -24.473  -1.823  1.00 62.23 LIG 0.04  C 
ATOM      8 O    LYS B  51      26.532 -23.542  -4.841  1.00 49.94 LIG-0.27  OA
BRANCH 5 9
ATOM      9  C   PRO B  52      23.592 -23.784  -4.271  1.00 62.23 LIG 0.24  C 
ATOM     10 O    PRO B  52      23.694 -24.279  -5.411  1.00 52.82 LIG-0.27  OA
ATOM     11  N   LEU B  53      22.612 -22.929  -3.913  1.00 59.38 LIG-0.35  N 
ATOM     12 H    LEU B  53      22.465 -22.705  -3.096  1.00 59.38 LIG 0.16  HD
BRANCH 11 13
ATOM     13  CA  LEU B  53      21.689 -22.284  -4.871  1.00 58.77 LIG 0.18  C 
BRANCH 13 14
ATOM     14  CB  LEU B  53      22.420 -21.791  -6.153  1.00 52.29 LIG 0.04  C 
BRANCH 14 15
ATOM     15  CG  LEU B  53      21.566 -21.175  -7.305  1.00 62.01 LIG-0.02  C 
ATOM     16  CD2 LEU B  53      20.491 -20.207  -6.792  1.00 53.58 LIG 0.01  C 
ATOM     17  CD1 LEU B  53      20.939 -22.229  -8.248  1.00 50.45 LIG 0.01  C 
ENDBRANCH 14 15
ENDBRANCH 13 14
BRANCH 13 18
ATOM     18  C   LEU B  53      20.573 -23.300  -5.206  1.00 60.22 LIG 0.24  C 
ATOM     19  N   VAL B  54      19.300 -22.883  -5.104  1.00 61.95 LIG-0.35  N 
ATOM     20 H    VAL B  54      19.071 -22.074  -4.923  1.00 61.95 LIG 0.16  HD
ATOM     21 O    LEU B  53      20.871 -24.458  -5.519  1.00 54.25 LIG-0.27  OA
BRANCH 19 22
ATOM     22  CA  VAL B  54      18.155 -23.821  -5.303  1.00 71.55 LIG 0.17  C 
BRANCH 22 23
ATOM     23  CB  VAL B  54      17.665 -24.521  -3.977  1.00 67.56 LIG 0.01  C 
ATOM     24  CG1 VAL B  54      18.363 -23.953  -2.738  1.00 60.73 LIG 0.01  C 
ATOM     25  CG2 VAL B  54      16.151 -24.423  -3.804  1.00 61.59 LIG 0.01  C 
ENDBRANCH 22 23
BRANCH 22 26
ATOM     26  C   VAL B  54      16.993 -23.150  -6.045  1.00 64.78 LIG 0.22  C 
ATOM     27 O    VAL B  54      16.545 -22.085  -5.650  1.00 73.26 LIG-0.29  OA
ENDBRANCH 22 26
ENDBRANCH 19 22
ENDBRANCH 13 18
ENDBRANCH 11 13
ENDBRANCH 5 9
ENDBRANCH 1 2
BRANCH 1 28
ATOM     28  CB  LYS B  51      26.966 -20.581  -2.537  1.00 70.72 LIG 0.04  C 
BRANCH 28 29
ATOM     29  CG  LYS B  51      28.030 -19.680  -1.906  1.00 73.15 LIG 0.00  C 
BRANCH 29 30
ATOM     30  CD  LYS B  51      28.119 -18.352  -2.665  1.00 70.67 LIG 0.03  C 
BRANCH 30 31
ATOM     31  CE  LYS B  51      28.896 -17.311  -1.869  1.00 67.82 LIG 0.23  C 
BRANCH 31 32
ATOM     32  NZ  LYS B  51      28.492 -15.946  -2.275  1.00 73.20 LIG-0.08  N 
ATOM     33 HZ2  LYS B  51      27.606 -15.874  -2.234  1.00 73.20 LIG 0.27  HD
ATOM     34 HZ3  LYS B  51      28.863 -15.351  -1.727  1.00 73.20 LIG 0.27  HD
ATOM     35 HZ1  LYS B  51      28.764 -15.791  -3.108  1.00 73.20 LIG 0.27  HD
ENDBRANCH 31 32
ENDBRANCH 30 31
ENDBRANCH 29 30
ENDBRANCH 28 29
ENDBRANCH 1 28
BRANCH 1 36
ATOM     36  N   LYS B  51      27.549 -20.901  -4.894  1.00 65.69 LIG-0.35  N 
ATOM     37 H    LYS B  51      28.365 -20.827  -5.156  1.00 65.69 LIG 0.16  HD
ATOM     38  C   PRO B  50      26.501 -20.424  -5.562  1.00 68.91 LIG 0.24  C 
ATOM     39 O    PRO B  50      25.338 -20.466  -5.100  1.00 63.49 LIG-0.27  OA
BRANCH 38 40
ATOM     40  CA  PRO B  50      26.776 -19.832  -6.977  1.00 65.85 LIG 0.18  C 
ATOM     41  N   PRO B  50      26.985 -20.899  -7.986  1.00 60.71 LIG-0.34  N 
ATOM     42  CD  PRO B  50      25.760 -21.112  -8.789  1.00 60.54 LIG 0.13  C 
ATOM     43  C   ARG B  49      28.108 -21.676  -7.842  1.00 60.43 LIG 0.26  C 
ATOM     44  CG  PRO B  50      24.750 -20.116  -8.212  1.00 54.86 LIG 0.02  C 
ATOM     45  CB  PRO B  50      25.550 -19.069  -7.517  1.00 61.52 LIG 0.04  C 
ATOM     46 O    ARG B  49      28.919 -21.522  -6.896  1.00 53.87 LIG-0.27  OA
BRANCH 43 47
ATOM     47  CA  ARG B  49      28.368 -22.806  -8.882  1.00 56.75 LIG 0.40  C 
ATOM     48  N   ARG B  49      27.542 -22.640 -10.151  1.00 50.64 LIG 0.61  N 
BRANCH 47 49
ATOM     49  CB  ARG B  49      29.883 -22.884  -9.227  1.00 51.37 LIG 0.05  C 
BRANCH 49 50
ATOM     50  CG  ARG B  49      30.417 -21.740 -10.097  1.00 44.94 LIG 0.02  C 
BRANCH 50 51
ATOM     51  CD  ARG B  49      30.845 -20.516  -9.237  1.00 41.72 LIG 0.14  C 
BRANCH 51 52
ATOM     52  NE  ARG B  49      29.857 -19.434  -9.266  1.00 39.59 LIG-0.23  N 
ATOM     53 HE   ARG B  49      29.482 -19.271 -10.022  1.00 39.59 LIG 0.18  HD
ATOM     54  CZ  ARG B  49      29.484 -18.679  -8.230  1.00 39.90 LIG 0.67  C 
ATOM     55  NH1 ARG B  49      30.064 -18.830  -7.033  1.00 39.18 LIG-0.23  N 
ATOM     56  NH2 ARG B  49      28.558 -17.716  -8.407  1.00 31.35 LIG-0.23  N 
ATOM     57 2HH1 ARG B  49      29.817 -18.340  -6.370  1.00 39.18 LIG 0.17  HD
ATOM     58 1HH1 ARG B  49      30.683 -19.418  -6.926  1.00 39.18 LIG 0.17  HD
ATOM     59 1HH2 ARG B  49      28.211 -17.591  -9.184  1.00 31.35 LIG 0.17  HD
ATOM     60 2HH2 ARG B  49      28.314 -17.227  -7.743  1.00 31.35 LIG 0.17  HD
ENDBRANCH 51 52
ENDBRANCH 50 51
ENDBRANCH 49 50
ENDBRANCH 47 49
ENDBRANCH 43 47
ENDBRANCH 38 40
ENDBRANCH 1 36
TORSDOF 21
ENDMDL
MODEL 11
USER: ADFR SOLUTION from run 192
USER: SCORE 18.419349 LL:  -3.639 LR: -15.284 RR:   0.000 FEB:  -9.019
USER: RMSD 5.490121
USER: SEED 191
USER: STATUS no improvement in best in 4 clusters for 5 generations
USER: GENES 23
USER: genes 0 Translation |==|  0.61753 0.60990 0.37022
USER: genes 1 Rotation |==|  0.79126 0.30736 0.67016 0.81481
USER: genes 2 Torsion [N]-CA--C-[N] |==|  0.91356
USER: genes 3 Torsion [N]-CA--C-[O] |==|  0.01987
USER: genes 4 Torsion [C]-N--CA-[CB] |==|  0.55642
USER: genes 5 Torsion [N]-CA--CB-[CG] |==|  0.95184
USER: genes 6 Torsion [CA]-CB--CG-[CD1] |==|  0.25026
USER: genes 7 Torsion [N]-CA--C-[N] |==|  0.33292
USER: genes 8 Torsion [C]-N--CA-[CB] |==|  0.79794
USER: genes 9 Torsion [N]-CA--CB-[CG1] |==|  0.39582
USER: genes 10 Torsion [N]-CA--C-[O] |==|  0.27150
USER: genes 11 Torsion [C]-CA--CB-[CG] |==|  0.01792
USER: genes 12 Torsion [CA]-CB--CG-[CD] |==|  0.28730
USER: genes 13 Torsion [CB]-CG--CD-[CE] |==|  0.76330
USER: genes 14 Torsion [CG]-CD--CE-[NZ] |==|  0.54345
USER: genes 15 Torsion [CD]-CE--NZ-[HZ2] |==|  0.16402
USER: genes 16 Torsion [C]-CA--N-[C] |==|  0.79205
USER: genes 17 Torsion [N]-C--CA-[N] |==|  0.23847
USER: genes 18 Torsion [N]-C--CA-[N] |==|  0.39667
USER: genes 19 Torsion [C]-CA--CB-[CG] |==|  0.84452
USER: genes 20 Torsion [CA]-CB--CG-[CD] |==|  0.75437
USER: genes 21 Torsion [CB]-CG--CD-[NE] |==|  0.84725
USER: genes 22 Torsion [CG]-CD--NE-[HE] |==|  0.29243
ROOT
ATOM      1  CA  LYS B  51      25.454 -20.359  -6.569  1.00 67.60 LIG 0.18  C 
ENDROOT
BRANCH 1 2
ATOM      2  C   LYS B  51      24.312 -20.797  -7.544  1.00 65.68 LIG 0.24  C 
ATOM      3  N   PRO B  52      24.334 -22.061  -8.048  1.00 68.58 LIG-0.34  N 
ATOM      4  CD  PRO B  52      25.430 -23.048  -8.201  1.00 71.17 LIG 0.13  C 
ATOM      5  CA  PRO B  52      23.123 -22.457  -8.812  1.00 62.52 LIG 0.18  C 
ATOM      6  CG  PRO B  52      24.987 -23.869  -9.395  1.00 68.49 LIG 0.02  C 
ATOM      7  CB  PRO B  52      23.488 -23.842  -9.358  1.00 62.23 LIG 0.04  C 
ATOM      8 O    LYS B  51      23.456 -19.970  -7.908  1.00 49.94 LIG-0.27  OA
BRANCH 5 9
ATOM      9  C   PRO B  52      21.844 -22.506  -7.926  1.00 62.23 LIG 0.24  C 
ATOM     10 O    PRO B  52      21.899 -22.098  -6.749  1.00 52.82 LIG-0.27  OA
ATOM     11  N   LEU B  53      20.707 -22.925  -8.519  1.00 59.38 LIG-0.35  N 
ATOM     12 H    LEU B  53      20.649 -23.067  -9.365  1.00 59.38 LIG 0.16  HD
BRANCH 11 13
ATOM     13  CA  LEU B  53      19.446 -23.186  -7.793  1.00 58.77 LIG 0.18  C 
BRANCH 13 14
ATOM     14  CB  LEU B  53      18.485 -24.111  -8.593  1.00 52.29 LIG 0.04  C 
BRANCH 14 15
ATOM     15  CG  LEU B  53      18.733 -24.294 -10.123  1.00 62.01 LIG-0.02  C 
ATOM     16  CD2 LEU B  53      17.428 -24.395 -10.926  1.00 53.58 LIG 0.01  C 
ATOM     17  CD1 LEU B  53      19.671 -25.475 -10.466  1.00 50.45 LIG 0.01  C 
ENDBRANCH 14 15
ENDBRANCH 13 14
BRANCH 13 18
ATOM     18  C   LEU B  53      19.811 -23.796  -6.420  1.00 60.22 LIG 0.24  C 
ATOM     19  N   VAL B  54      19.423 -23.130  -5.319  1.00 61.95 LIG-0.35  N 
ATOM     20 H    VAL B  54      18.936 -22.422  -5.332  1.00 61.95 LIG 0.16  HD
ATOM     21 O    LEU B  53      20.469 -24.841  -6.367  1.00 54.25 LIG-0.27  OA
BRANCH 19 22
ATOM     22  CA  VAL B  54      19.821 -23.584  -3.953  1.00 71.55 LIG 0.17  C 
BRANCH 22 23
ATOM     23  CB  VAL B  54      19.072 -24.885  -3.469  1.00 67.56 LIG 0.01  C 
ATOM     24  CG1 VAL B  54      19.992 -25.808  -2.664  1.00 60.73 LIG 0.01  C 
ATOM     25  CG2 VAL B  54      17.827 -24.557  -2.648  1.00 61.59 LIG 0.01  C 
ENDBRANCH 22 23
BRANCH 22 26
ATOM     26  C   VAL B  54      21.342 -23.732  -3.825  1.00 64.78 LIG 0.22  C 
ATOM     27 O    VAL B  54      22.007 -22.837  -3.328  1.00 73.26 LIG-0.29  OA
ENDBRANCH 22 26
ENDBRANCH 19 22
ENDBRANCH 13 18
ENDBRANCH 11 13
ENDBRANCH 5 9
ENDBRANCH 1 2
BRANCH 1 28
ATOM     28  CB  LYS B  51      26.684 -19.662  -7.205  1.00 70.72 LIG 0.04  C 
BRANCH 28 29
ATOM     29  CG  LYS B  51      26.664 -19.303  -8.693  1.00 73.15 LIG 0.00  C 
BRANCH 29 30
ATOM     30  CD  LYS B  51      26.415 -17.802  -8.874  1.00 70.67 LIG 0.03  C 
BRANCH 30 31
ATOM     31  CE  LYS B  51      24.926 -17.482  -8.859  1.00 67.82 LIG 0.23  C 
BRANCH 31 32
ATOM     32  NZ  LYS B  51      24.685 -16.125  -9.400  1.00 73.20 LIG-0.08  N 
ATOM     33 HZ2  LYS B  51      24.996 -16.078 -10.232  1.00 73.20 LIG 0.27  HD
ATOM     34 HZ3  LYS B  51      23.812 -15.956  -9.399  1.00 73.20 LIG 0.27  HD
ATOM     35 HZ1  LYS B  51      25.104 -15.526  -8.893  1.00 73.20 LIG 0.27  HD
ENDBRANCH 31 32
ENDBRANCH 30 31
ENDBRANCH 29 30
ENDBRANCH 28 29
ENDBRANCH 1 28
BRANCH 1 36
ATOM     36  N   LYS B  51      25.925 -21.519  -5.801  1.00 65.69 LIG-0.35  N 
ATOM     37 H    LYS B  51      26.687 -21.830  -6.051  1.00 65.69 LIG 0.16  HD
ATOM     38  C   PRO B  50      25.203 -22.023  -4.802  1.00 68.91 LIG 0.24  C 
ATOM     39 O    PRO B  50      24.054 -21.604  -4.530  1.00 63.49 LIG-0.27  OA
BRANCH 38 40
ATOM     40  CA  PRO B  50      25.863 -23.147  -3.949  1.00 65.85 LIG 0.18  C 
ATOM     41  N   PRO B  50      26.693 -22.589  -2.854  1.00 60.71 LIG-0.34  N 
ATOM     42  CD  PRO B  50      25.967 -22.637  -1.566  1.00 60.54 LIG 0.13  C 
ATOM     43  C   ARG B  49      27.818 -21.891  -3.223  1.00 60.43 LIG 0.26  C 
ATOM     44  CG  PRO B  50      24.610 -23.254  -1.917  1.00 54.86 LIG 0.02  C 
ATOM     45  CB  PRO B  50      24.806 -23.983  -3.201  1.00 61.52 LIG 0.04  C 
ATOM     46 O    ARG B  49      28.133 -21.705  -4.424  1.00 53.87 LIG-0.27  OA
BRANCH 43 47
ATOM     47  CA  ARG B  49      28.719 -21.290  -2.104  1.00 56.75 LIG 0.40  C 
ATOM     48  N   ARG B  49      30.203 -21.369  -2.438  1.00 50.64 LIG 0.61  N 
BRANCH 47 49
ATOM     49  CB  ARG B  49      28.306 -19.818  -1.811  1.00 51.37 LIG 0.05  C 
BRANCH 49 50
ATOM     50  CG  ARG B  49      28.321 -18.880  -3.024  1.00 44.94 LIG 0.02  C 
BRANCH 50 51
ATOM     51  CD  ARG B  49      29.718 -18.226  -3.227  1.00 41.72 LIG 0.14  C 
BRANCH 51 52
ATOM     52  NE  ARG B  49      30.191 -17.526  -2.031  1.00 39.59 LIG-0.23  N 
ATOM     53 HE   ARG B  49      30.812 -17.910  -1.576  1.00 39.59 LIG 0.18  HD
ATOM     54  CZ  ARG B  49      29.752 -16.348  -1.580  1.00 39.90 LIG 0.67  C 
ATOM     55  NH1 ARG B  49      28.746 -15.715  -2.197  1.00 39.18 LIG-0.23  N 
ATOM     56  NH2 ARG B  49      30.284 -15.824  -0.459  1.00 31.35 LIG-0.23  N 
ATOM     57 2HH1 ARG B  49      28.469 -14.957  -1.900  1.00 39.18 LIG 0.17  HD
ATOM     58 1HH1 ARG B  49      28.377 -16.066  -2.890  1.00 39.18 LIG 0.17  HD
ATOM     59 1HH2 ARG B  49      30.904 -16.247  -0.039  1.00 31.35 LIG 0.17  HD
ATOM     60 2HH2 ARG B  49      30.004 -15.066  -0.164  1.00 31.35 LIG 0.17  HD
ENDBRANCH 51 52
ENDBRANCH 50 51
ENDBRANCH 49 50
ENDBRANCH 47 49
ENDBRANCH 43 47
ENDBRANCH 38 40
ENDBRANCH 1 36
TORSDOF 21
ENDMDL
MODEL 12
USER: ADFR SOLUTION from run 172
USER: SCORE 18.146597 LL:  -3.656 LR: -15.247 RR:   0.000 FEB:  -8.983
USER: RMSD 5.052387
USER: SEED 171
USER: STATUS no improvement in best in 2 clusters for 5 generations
USER: GENES 23
USER: genes 0 Translation |==|  0.44606 0.45655 0.52889
USER: genes 1 Rotation |==|  0.88506 0.51813 0.64190 0.78508
USER: genes 2 Torsion [N]-CA--C-[N] |==|  0.40717
USER: genes 3 Torsion [N]-CA--C-[O] |==|  0.29301
USER: genes 4 Torsion [C]-N--CA-[CB] |==|  0.50594
USER: genes 5 Torsion [N]-CA--CB-[CG] |==|  0.61744
USER: genes 6 Torsion [CA]-CB--CG-[CD1] |==|  0.85471
USER: genes 7 Torsion [N]-CA--C-[N] |==|  0.38284
USER: genes 8 Torsion [C]-N--CA-[CB] |==|  0.18561
USER: genes 9 Torsion [N]-CA--CB-[CG1] |==|  0.73855
USER: genes 10 Torsion [N]-CA--C-[O] |==|  0.96376
USER: genes 11 Torsion [C]-CA--CB-[CG] |==|  0.61510
USER: genes 12 Torsion [CA]-CB--CG-[CD] |==|  0.45358
USER: genes 13 Torsion [CB]-CG--CD-[CE] |==|  0.04475
USER: genes 14 Torsion [CG]-CD--CE-[NZ] |==|  0.19968
USER: genes 15 Torsion [CD]-CE--NZ-[HZ2] |==|  0.26397
USER: genes 16 Torsion [C]-CA--N-[C] |==|  0.62646
USER: genes 17 Torsion [N]-C--CA-[N] |==|  0.48948
USER: genes 18 Torsion [N]-C--CA-[N] |==|  0.14791
USER: genes 19 Torsion [C]-CA--CB-[CG] |==|  0.73365
USER: genes 20 Torsion [CA]-CB--CG-[CD] |==|  0.50545
USER: genes 21 Torsion [CB]-CG--CD-[NE] |==|  0.24512
USER: genes 22 Torsion [CG]-CD--NE-[HE] |==|  0.04583
ROOT
ATOM      1  CA  LYS B  51      20.953 -23.810  -4.070  1.00 67.60 LIG 0.18  C 
ENDROOT
BRANCH 1 2
ATOM      2  C   LYS B  51      19.902 -24.952  -4.264  1.00 65.68 LIG 0.24  C 
ATOM      3  N   PRO B  52      18.690 -24.831  -3.655  1.00 68.58 LIG-0.34  N 
ATOM      4  CD  PRO B  52      18.238 -24.024  -2.497  1.00 71.17 LIG 0.13  C 
ATOM      5  CA  PRO B  52      17.688 -25.860  -4.037  1.00 62.52 LIG 0.18  C 
ATOM      6  CG  PRO B  52      17.093 -24.842  -1.935  1.00 68.49 LIG 0.02  C 
ATOM      7  CB  PRO B  52      16.502 -25.556  -3.114  1.00 62.23 LIG 0.04  C 
ATOM      8 O    LYS B  51      20.211 -25.981  -4.891  1.00 49.94 LIG-0.27  OA
BRANCH 5 9
ATOM      9  C   PRO B  52      17.284 -25.776  -5.539  1.00 62.23 LIG 0.24  C 
ATOM     10 O    PRO B  52      17.719 -26.630  -6.338  1.00 52.82 LIG-0.27  OA
ATOM     11  N   LEU B  53      16.410 -24.809  -5.882  1.00 59.38 LIG-0.35  N 
ATOM     12 H    LEU B  53      16.008 -24.318  -5.302  1.00 59.38 LIG 0.16  HD
BRANCH 11 13
ATOM     13  CA  LEU B  53      16.045 -24.484  -7.278  1.00 58.77 LIG 0.18  C 
BRANCH 13 14
ATOM     14  CB  LEU B  53      15.054 -23.288  -7.365  1.00 52.29 LIG 0.04  C 
BRANCH 14 15
ATOM     15  CG  LEU B  53      13.864 -23.381  -8.369  1.00 62.01 LIG-0.02  C 
ATOM     16  CD2 LEU B  53      12.757 -24.331  -7.889  1.00 53.58 LIG 0.01  C 
ATOM     17  CD1 LEU B  53      14.292 -23.736  -9.813  1.00 50.45 LIG 0.01  C 
ENDBRANCH 14 15
ENDBRANCH 13 14
BRANCH 13 18
ATOM     18  C   LEU B  53      17.353 -24.199  -8.052  1.00 60.22 LIG 0.24  C 
ATOM     19  N   VAL B  54      17.466 -24.706  -9.291  1.00 61.95 LIG-0.35  N 
ATOM     20 H    VAL B  54      16.837 -25.126  -9.699  1.00 61.95 LIG 0.16  HD
ATOM     21 O    LEU B  53      18.258 -23.555  -7.510  1.00 54.25 LIG-0.27  OA
BRANCH 19 22
ATOM     22  CA  VAL B  54      18.732 -24.574 -10.073  1.00 71.55 LIG 0.17  C 
BRANCH 22 23
ATOM     23  CB  VAL B  54      19.944 -25.381  -9.467  1.00 67.56 LIG 0.01  C 
ATOM     24  CG1 VAL B  54      20.806 -24.512  -8.546  1.00 60.73 LIG 0.01  C 
ATOM     25  CG2 VAL B  54      19.484 -26.628  -8.715  1.00 61.59 LIG 0.01  C 
ENDBRANCH 22 23
BRANCH 22 26
ATOM     26  C   VAL B  54      18.521 -24.908 -11.554  1.00 64.78 LIG 0.22  C 
ATOM     27 O    VAL B  54      17.494 -25.457 -11.921  1.00 73.26 LIG-0.29  OA
ENDBRANCH 22 26
ENDBRANCH 19 22
ENDBRANCH 13 18
ENDBRANCH 11 13
ENDBRANCH 5 9
ENDBRANCH 1 2
BRANCH 1 28
ATOM     28  CB  LYS B  51      20.918 -22.648  -5.096  1.00 70.72 LIG 0.04  C 
BRANCH 28 29
ATOM     29  CG  LYS B  51      22.231 -22.079  -5.639  1.00 73.15 LIG 0.00  C 
BRANCH 29 30
ATOM     30  CD  LYS B  51      21.970 -21.260  -6.908  1.00 70.67 LIG 0.03  C 
BRANCH 30 31
ATOM     31  CE  LYS B  51      20.493 -20.913  -7.048  1.00 67.82 LIG 0.23  C 
BRANCH 31 32
ATOM     32  NZ  LYS B  51      20.108 -19.891  -6.049  1.00 73.20 LIG-0.08  N 
ATOM     33 HZ2  LYS B  51      20.155 -19.082  -6.417  1.00 73.20 LIG 0.27  HD
ATOM     34 HZ3  LYS B  51      19.275 -20.043  -5.775  1.00 73.20 LIG 0.27  HD
ATOM     35 HZ1  LYS B  51      20.661 -19.932  -5.353  1.00 73.20 LIG 0.27  HD
ENDBRANCH 31 32
ENDBRANCH 30 31
ENDBRANCH 29 30
ENDBRANCH 28 29
ENDBRANCH 1 28
BRANCH 1 36
ATOM     36  N   LYS B  51      22.308 -24.376  -4.058  1.00 65.69 LIG-0.35  N 
ATOM     37 H    LYS B  51      22.462 -24.952  -4.678  1.00 65.69 LIG 0.16  HD
ATOM     38  C   PRO B  50      23.202 -24.005  -3.143  1.00 68.91 LIG 0.24  C 
ATOM     39 O    PRO B  50      22.911 -23.238  -2.197  1.00 63.49 LIG-0.27  OA
BRANCH 38 40
ATOM     40  CA  PRO B  50      24.654 -24.542  -3.315  1.00 65.85 LIG 0.18  C 
ATOM     41  N   PRO B  50      25.569 -23.987  -2.289  1.00 60.71 LIG-0.34  N 
ATOM     42  CD  PRO B  50      25.800 -24.967  -1.204  1.00 60.54 LIG 0.13  C 
ATOM     43  C   ARG B  49      25.817 -22.637  -2.345  1.00 60.43 LIG 0.26  C 
ATOM     44  CG  PRO B  50      24.957 -26.181  -1.603  1.00 54.86 LIG 0.02  C 
ATOM     45  CB  PRO B  50      24.727 -26.062  -3.071  1.00 61.52 LIG 0.04  C 
ATOM     46 O    ARG B  49      25.286 -21.888  -3.202  1.00 53.87 LIG-0.27  OA
BRANCH 43 47
ATOM     47  CA  ARG B  49      26.775 -22.013  -1.287  1.00 56.75 LIG 0.40  C 
ATOM     48  N   ARG B  49      28.121 -22.723  -1.221  1.00 50.64 LIG 0.61  N 
BRANCH 47 49
ATOM     49  CB  ARG B  49      26.976 -20.496  -1.569  1.00 51.37 LIG 0.05  C 
BRANCH 49 50
ATOM     50  CG  ARG B  49      28.226 -20.140  -2.382  1.00 44.94 LIG 0.02  C 
BRANCH 50 51
ATOM     51  CD  ARG B  49      28.369 -18.602  -2.572  1.00 41.72 LIG 0.14  C 
BRANCH 51 52
ATOM     52  NE  ARG B  49      29.106 -17.966  -1.478  1.00 39.59 LIG-0.23  N 
ATOM     53 HE   ARG B  49      29.569 -18.481  -0.969  1.00 39.59 LIG 0.18  HD
ATOM     54  CZ  ARG B  49      29.127 -16.661  -1.195  1.00 39.90 LIG 0.67  C 
ATOM     55  NH1 ARG B  49      28.384 -15.799  -1.901  1.00 39.18 LIG-0.23  N 
ATOM     56  NH2 ARG B  49      29.854 -16.217  -0.151  1.00 31.35 LIG-0.23  N 
ATOM     57 2HH1 ARG B  49      28.403 -14.959  -1.712  1.00 39.18 LIG 0.17  HD
ATOM     58 1HH1 ARG B  49      27.888 -16.084  -2.543  1.00 39.18 LIG 0.17  HD
ATOM     59 1HH2 ARG B  49      30.302 -16.774   0.328  1.00 31.35 LIG 0.17  HD
ATOM     60 2HH2 ARG B  49      29.871 -15.378   0.036  1.00 31.35 LIG 0.17  HD
ENDBRANCH 51 52
ENDBRANCH 50 51
ENDBRANCH 49 50
ENDBRANCH 47 49
ENDBRANCH 43 47
ENDBRANCH 38 40
ENDBRANCH 1 36
TORSDOF 21
ENDMDL
MODEL 13
USER: ADFR SOLUTION from run 115
USER: SCORE 17.171850 LL:  -3.343 LR: -15.208 RR:   0.000 FEB:  -8.944
USER: RMSD 4.607094
USER: SEED 114
USER: STATUS no improvement in best in 3 clusters for 5 generations
USER: GENES 23
USER: genes 0 Translation |==|  0.44542 0.43549 0.57146
USER: genes 1 Rotation |==|  0.90134 0.53990 0.61891 0.77055
USER: genes 2 Torsion [N]-CA--C-[N] |==|  0.19462
USER: genes 3 Torsion [N]-CA--C-[O] |==|  0.78132
USER: genes 4 Torsion [C]-N--CA-[CB] |==|  0.19321
USER: genes 5 Torsion [N]-CA--CB-[CG] |==|  0.11809
USER: genes 6 Torsion [CA]-CB--CG-[CD1] |==|  0.79696
USER: genes 7 Torsion [N]-CA--C-[N] |==|  0.54304
USER: genes 8 Torsion [C]-N--CA-[CB] |==|  0.27542
USER: genes 9 Torsion [N]-CA--CB-[CG1] |==|  0.68022
USER: genes 10 Torsion [N]-CA--C-[O] |==|  0.71952
USER: genes 11 Torsion [C]-CA--CB-[CG] |==|  0.84190
USER: genes 12 Torsion [CA]-CB--CG-[CD] |==|  0.41932
USER: genes 13 Torsion [CB]-CG--CD-[CE] |==|  0.23976
USER: genes 14 Torsion [CG]-CD--CE-[NZ] |==|  0.68187
USER: genes 15 Torsion [CD]-CE--NZ-[HZ2] |==|  0.48325
USER: genes 16 Torsion [C]-CA--N-[C] |==|  0.62914
USER: genes 17 Torsion [N]-C--CA-[N] |==|  0.47314
USER: genes 18 Torsion [N]-C--CA-[N] |==|  0.15486
USER: genes 19 Torsion [C]-CA--CB-[CG] |==|  0.64624
USER: genes 20 Torsion [CA]-CB--CG-[CD] |==|  0.50983
USER: genes 21 Torsion [CB]-CG--CD-[NE] |==|  0.33635
USER: genes 22 Torsion [CG]-CD--NE-[HE] |==|  0.03470
ROOT
ATOM      1  CA  LYS B  51      20.936 -24.283  -3.399  1.00 67.60 LIG 0.18  C 
ENDROOT
BRANCH 1 2
ATOM      2  C   LYS B  51      19.897 -25.447  -3.507  1.00 65.68 LIG 0.24  C 
ATOM      3  N   PRO B  52      19.864 -26.385  -2.520  1.00 68.58 LIG-0.34  N 
ATOM      4  CD  PRO B  52      20.870 -26.800  -1.513  1.00 71.17 LIG 0.13  C 
ATOM      5  CA  PRO B  52      18.733 -27.345  -2.601  1.00 62.52 LIG 0.18  C 
ATOM      6  CG  PRO B  52      20.513 -28.248  -1.249  1.00 68.49 LIG 0.02  C 
ATOM      7  CB  PRO B  52      19.032 -28.336  -1.469  1.00 62.23 LIG 0.04  C 
ATOM      8 O    LYS B  51      19.182 -25.550  -4.520  1.00 49.94 LIG-0.27  OA
BRANCH 5 9
ATOM      9  C   PRO B  52      17.348 -26.658  -2.414  1.00 62.23 LIG 0.24  C 
ATOM     10 O    PRO B  52      16.962 -26.362  -1.266  1.00 52.82 LIG-0.27  OA
ATOM     11  N   LEU B  53      16.665 -26.350  -3.535  1.00 59.38 LIG-0.35  N 
ATOM     12 H    LEU B  53      17.002 -26.429  -4.322  1.00 59.38 LIG 0.16  HD
BRANCH 11 13
ATOM     13  CA  LEU B  53      15.275 -25.847  -3.541  1.00 58.77 LIG 0.18  C 
BRANCH 13 14
ATOM     14  CB  LEU B  53      15.168 -24.403  -2.973  1.00 52.29 LIG 0.04  C 
BRANCH 14 15
ATOM     15  CG  LEU B  53      16.244 -23.356  -3.396  1.00 62.01 LIG-0.02  C 
ATOM     16  CD2 LEU B  53      16.388 -23.237  -4.919  1.00 53.58 LIG 0.01  C 
ATOM     17  CD1 LEU B  53      17.626 -23.582  -2.738  1.00 50.45 LIG 0.01  C 
ENDBRANCH 14 15
ENDBRANCH 13 14
BRANCH 13 18
ATOM     18  C   LEU B  53      14.752 -25.927  -4.994  1.00 60.22 LIG 0.24  C 
ATOM     19  N   VAL B  54      13.640 -25.236  -5.295  1.00 61.95 LIG-0.35  N 
ATOM     20 H    VAL B  54      13.238 -24.708  -4.748  1.00 61.95 LIG 0.16  HD
ATOM     21 O    LEU B  53      15.337 -26.639  -5.819  1.00 54.25 LIG-0.27  OA
BRANCH 19 22
ATOM     22  CA  VAL B  54      13.001 -25.337  -6.641  1.00 71.55 LIG 0.17  C 
BRANCH 22 23
ATOM     23  CB  VAL B  54      11.767 -26.318  -6.691  1.00 67.56 LIG 0.01  C 
ATOM     24  CG1 VAL B  54      12.031 -27.526  -7.594  1.00 60.73 LIG 0.01  C 
ATOM     25  CG2 VAL B  54      11.360 -26.797  -5.299  1.00 61.59 LIG 0.01  C 
ENDBRANCH 22 23
BRANCH 22 26
ATOM     26  C   VAL B  54      12.643 -23.957  -7.205  1.00 64.78 LIG 0.22  C 
ATOM     27 O    VAL B  54      11.494 -23.549  -7.150  1.00 73.26 LIG-0.29  OA
ENDBRANCH 22 26
ENDBRANCH 19 22
ENDBRANCH 13 18
ENDBRANCH 11 13
ENDBRANCH 5 9
ENDBRANCH 1 2
BRANCH 1 28
ATOM     28  CB  LYS B  51      20.727 -23.073  -4.344  1.00 70.72 LIG 0.04  C 
BRANCH 28 29
ATOM     29  CG  LYS B  51      20.669 -23.296  -5.858  1.00 73.15 LIG 0.00  C 
BRANCH 29 30
ATOM     30  CD  LYS B  51      19.790 -22.228  -6.518  1.00 70.67 LIG 0.03  C 
BRANCH 30 31
ATOM     31  CE  LYS B  51      20.592 -20.974  -6.841  1.00 67.82 LIG 0.23  C 
BRANCH 31 32
ATOM     32  NZ  LYS B  51      20.109 -19.832  -6.032  1.00 73.20 LIG-0.08  N 
ATOM     33 HZ2  LYS B  51      20.638 -19.129  -6.163  1.00 73.20 LIG 0.27  HD
ATOM     34 HZ3  LYS B  51      19.278 -19.626  -6.275  1.00 73.20 LIG 0.27  HD
ATOM     35 HZ1  LYS B  51      20.119 -20.054  -5.170  1.00 73.20 LIG 0.27  HD
ENDBRANCH 31 32
ENDBRANCH 30 31
ENDBRANCH 29 30
ENDBRANCH 28 29
ENDBRANCH 1 28
BRANCH 1 36
ATOM     36  N   LYS B  51      22.293 -24.806  -3.608  1.00 65.69 LIG-0.35  N 
ATOM     37 H    LYS B  51      22.374 -25.333  -4.283  1.00 65.69 LIG 0.16  HD
ATOM     38  C   PRO B  50      23.294 -24.468  -2.797  1.00 68.91 LIG 0.24  C 
ATOM     39 O    PRO B  50      23.116 -23.776  -1.769  1.00 63.49 LIG-0.27  OA
BRANCH 38 40
ATOM     40  CA  PRO B  50      24.721 -24.945  -3.199  1.00 65.85 LIG 0.18  C 
ATOM     41  N   PRO B  50      25.767 -24.320  -2.354  1.00 60.71 LIG-0.34  N 
ATOM     42  CD  PRO B  50      26.223 -25.256  -1.302  1.00 60.54 LIG 0.13  C 
ATOM     43  C   ARG B  49      25.936 -22.963  -2.480  1.00 60.43 LIG 0.26  C 
ATOM     44  CG  PRO B  50      25.385 -26.518  -1.527  1.00 54.86 LIG 0.02  C 
ATOM     45  CB  PRO B  50      24.907 -26.453  -2.937  1.00 61.52 LIG 0.04  C 
ATOM     46 O    ARG B  49      25.234 -22.264  -3.251  1.00 53.87 LIG-0.27  OA
BRANCH 43 47
ATOM     47  CA  ARG B  49      27.026 -22.266  -1.612  1.00 56.75 LIG 0.40  C 
ATOM     48  N   ARG B  49      28.409 -22.875  -1.804  1.00 50.64 LIG 0.61  N 
BRANCH 47 49
ATOM     49  CB  ARG B  49      27.059 -20.740  -1.911  1.00 51.37 LIG 0.05  C 
BRANCH 49 50
ATOM     50  CG  ARG B  49      28.436 -20.172  -2.273  1.00 44.94 LIG 0.02  C 
BRANCH 50 51
ATOM     51  CD  ARG B  49      28.389 -18.629  -2.468  1.00 41.72 LIG 0.14  C 
BRANCH 51 52
ATOM     52  NE  ARG B  49      29.289 -17.918  -1.557  1.00 39.59 LIG-0.23  N 
ATOM     53 HE   ARG B  49      29.866 -18.393  -1.132  1.00 39.59 LIG 0.18  HD
ATOM     54  CZ  ARG B  49      29.299 -16.603  -1.324  1.00 39.90 LIG 0.67  C 
ATOM     55  NH1 ARG B  49      28.393 -15.803  -1.900  1.00 39.18 LIG-0.23  N 
ATOM     56  NH2 ARG B  49      30.190 -16.088  -0.455  1.00 31.35 LIG-0.23  N 
ATOM     57 2HH1 ARG B  49      28.406 -14.957  -1.745  1.00 39.18 LIG 0.17  HD
ATOM     58 1HH1 ARG B  49      27.798 -16.135  -2.425  1.00 39.18 LIG 0.17  HD
ATOM     59 1HH2 ARG B  49      30.748 -16.605  -0.054  1.00 31.35 LIG 0.17  HD
ATOM     60 2HH2 ARG B  49      30.200 -15.242  -0.301  1.00 31.35 LIG 0.17  HD
ENDBRANCH 51 52
ENDBRANCH 50 51
ENDBRANCH 49 50
ENDBRANCH 47 49
ENDBRANCH 43 47
ENDBRANCH 38 40
ENDBRANCH 1 36
TORSDOF 21
ENDMDL
MODEL 14
USER: ADFR SOLUTION from run 180
USER: SCORE 17.780933 LL:  -3.629 LR: -15.167 RR:   0.000 FEB:  -8.902
USER: RMSD 5.639947
USER: SEED 179
USER: STATUS no improvement in best in 4 clusters for 5 generations
USER: GENES 23
USER: genes 0 Translation |==|  0.38394 0.46911 0.43970
USER: genes 1 Rotation |==|  0.79634 0.46985 0.62747 0.88082
USER: genes 2 Torsion [N]-CA--C-[N] |==|  0.26776
USER: genes 3 Torsion [N]-CA--C-[O] |==|  0.92332
USER: genes 4 Torsion [C]-N--CA-[CB] |==|  0.80555
USER: genes 5 Torsion [N]-CA--CB-[CG] |==|  0.83144
USER: genes 6 Torsion [CA]-CB--CG-[CD1] |==|  0.55818
USER: genes 7 Torsion [N]-CA--C-[N] |==|  0.17208
USER: genes 8 Torsion [C]-N--CA-[CB] |==|  0.45209
USER: genes 9 Torsion [N]-CA--CB-[CG1] |==|  0.45846
USER: genes 10 Torsion [N]-CA--C-[O] |==|  0.77162
USER: genes 11 Torsion [C]-CA--CB-[CG] |==|  0.58862
USER: genes 12 Torsion [CA]-CB--CG-[CD] |==|  0.73730
USER: genes 13 Torsion [CB]-CG--CD-[CE] |==|  0.92704
USER: genes 14 Torsion [CG]-CD--CE-[NZ] |==|  0.25729
USER: genes 15 Torsion [CD]-CE--NZ-[HZ2] |==|  0.69418
USER: genes 16 Torsion [C]-CA--N-[C] |==|  0.60939
USER: genes 17 Torsion [N]-C--CA-[N] |==|  0.34461
USER: genes 18 Torsion [N]-C--CA-[N] |==|  0.32769
USER: genes 19 Torsion [C]-CA--CB-[CG] |==|  0.37539
USER: genes 20 Torsion [CA]-CB--CG-[CD] |==|  0.24420
USER: genes 21 Torsion [CB]-CG--CD-[NE] |==|  0.45508
USER: genes 22 Torsion [CG]-CD--NE-[HE] |==|  0.14064
ROOT
ATOM      1  CA  LYS B  51      19.323 -23.527  -5.475  1.00 67.60 LIG 0.18  C 
ENDROOT
BRANCH 1 2
ATOM      2  C   LYS B  51      18.000 -24.362  -5.434  1.00 65.68 LIG 0.24  C 
ATOM      3  N   PRO B  52      17.146 -24.177  -4.390  1.00 68.58 LIG-0.34  N 
ATOM      4  CD  PRO B  52      17.349 -23.628  -3.028  1.00 71.17 LIG 0.13  C 
ATOM      5  CA  PRO B  52      15.835 -24.866  -4.519  1.00 62.52 LIG 0.18  C 
ATOM      6  CG  PRO B  52      16.286 -24.334  -2.211  1.00 68.49 LIG 0.02  C 
ATOM      7  CB  PRO B  52      15.161 -24.595  -3.168  1.00 62.23 LIG 0.04  C 
ATOM      8 O    LYS B  51      17.788 -25.232  -6.297  1.00 49.94 LIG-0.27  OA
BRANCH 5 9
ATOM      9  C   PRO B  52      14.987 -24.322  -5.706  1.00 62.23 LIG 0.24  C 
ATOM     10 O    PRO B  52      15.145 -23.144  -6.082  1.00 52.82 LIG-0.27  OA
ATOM     11  N   LEU B  53      14.165 -25.198  -6.319  1.00 59.38 LIG-0.35  N 
ATOM     12 H    LEU B  53      14.169 -26.040  -6.145  1.00 59.38 LIG 0.16  HD
BRANCH 11 13
ATOM     13  CA  LEU B  53      13.176 -24.818  -7.350  1.00 58.77 LIG 0.18  C 
BRANCH 13 14
ATOM     14  CB  LEU B  53      11.992 -24.000  -6.759  1.00 52.29 LIG 0.04  C 
BRANCH 14 15
ATOM     15  CG  LEU B  53      11.103 -24.666  -5.663  1.00 62.01 LIG-0.02  C 
ATOM     16  CD2 LEU B  53      10.974 -26.185  -5.848  1.00 53.58 LIG 0.01  C 
ATOM     17  CD1 LEU B  53       9.705 -24.019  -5.516  1.00 50.45 LIG 0.01  C 
ENDBRANCH 14 15
ENDBRANCH 13 14
BRANCH 13 18
ATOM     18  C   LEU B  53      13.922 -24.027  -8.449  1.00 60.22 LIG 0.24  C 
ATOM     19  N   VAL B  54      14.894 -24.664  -9.124  1.00 61.95 LIG-0.35  N 
ATOM     20 H    VAL B  54      15.085 -25.496  -9.023  1.00 61.95 LIG 0.16  HD
ATOM     21 O    LEU B  53      13.637 -22.841  -8.653  1.00 54.25 LIG-0.27  OA
BRANCH 19 22
ATOM     22  CA  VAL B  54      15.740 -23.952 -10.127  1.00 71.55 LIG 0.17  C 
BRANCH 22 23
ATOM     23  CB  VAL B  54      17.073 -24.712 -10.494  1.00 67.56 LIG 0.01  C 
ATOM     24  CG1 VAL B  54      17.718 -24.153 -11.766  1.00 60.73 LIG 0.01  C 
ATOM     25  CG2 VAL B  54      18.083 -24.682  -9.349  1.00 61.59 LIG 0.01  C 
ENDBRANCH 22 23
BRANCH 22 26
ATOM     26  C   VAL B  54      14.942 -23.582 -11.383  1.00 64.78 LIG 0.22  C 
ATOM     27 O    VAL B  54      14.762 -24.410 -12.263  1.00 73.26 LIG-0.29  OA
ENDBRANCH 22 26
ENDBRANCH 19 22
ENDBRANCH 13 18
ENDBRANCH 11 13
ENDBRANCH 5 9
ENDBRANCH 1 2
BRANCH 1 28
ATOM     28  CB  LYS B  51      19.760 -22.981  -6.858  1.00 70.72 LIG 0.04  C 
BRANCH 28 29
ATOM     29  CG  LYS B  51      21.250 -22.829  -7.174  1.00 73.15 LIG 0.00  C 
BRANCH 29 30
ATOM     30  CD  LYS B  51      21.713 -21.400  -6.869  1.00 70.67 LIG 0.03  C 
BRANCH 30 31
ATOM     31  CE  LYS B  51      20.559 -20.410  -6.973  1.00 67.82 LIG 0.23  C 
BRANCH 31 32
ATOM     32  NZ  LYS B  51      19.922 -20.222  -5.650  1.00 73.20 LIG-0.08  N 
ATOM     33 HZ2  LYS B  51      19.113 -20.591  -5.655  1.00 73.20 LIG 0.27  HD
ATOM     34 HZ3  LYS B  51      20.421 -20.610  -5.023  1.00 73.20 LIG 0.27  HD
ATOM     35 HZ1  LYS B  51      19.850 -19.352  -5.476  1.00 73.20 LIG 0.27  HD
ENDBRANCH 31 32
ENDBRANCH 30 31
ENDBRANCH 29 30
ENDBRANCH 28 29
ENDBRANCH 1 28
BRANCH 1 36
ATOM     36  N   LYS B  51      20.428 -24.317  -4.918  1.00 65.69 LIG-0.35  N 
ATOM     37 H    LYS B  51      20.418 -25.150  -5.133  1.00 65.69 LIG 0.16  HD
ATOM     38  C   PRO B  50      21.355 -23.756  -4.143  1.00 68.91 LIG 0.24  C 
ATOM     39 O    PRO B  50      21.281 -22.562  -3.772  1.00 63.49 LIG-0.27  OA
BRANCH 38 40
ATOM     40  CA  PRO B  50      22.570 -24.643  -3.738  1.00 65.85 LIG 0.18  C 
ATOM     41  N   PRO B  50      23.858 -24.017  -4.123  1.00 60.71 LIG-0.34  N 
ATOM     42  CD  PRO B  50      24.497 -23.369  -2.956  1.00 60.54 LIG 0.13  C 
ATOM     43  C   ARG B  49      24.107 -23.888  -5.467  1.00 60.43 LIG 0.26  C 
ATOM     44  CG  PRO B  50      23.520 -23.613  -1.803  1.00 54.86 LIG 0.02  C 
ATOM     45  CB  PRO B  50      22.684 -24.778  -2.207  1.00 61.52 LIG 0.04  C 
ATOM     46 O    ARG B  49      23.287 -24.256  -6.344  1.00 53.87 LIG-0.27  OA
BRANCH 43 47
ATOM     47  CA  ARG B  49      25.450 -23.239  -5.915  1.00 56.75 LIG 0.40  C 
ATOM     48  N   ARG B  49      26.324 -24.190  -6.723  1.00 50.64 LIG 0.61  N 
BRANCH 47 49
ATOM     49  CB  ARG B  49      25.177 -21.936  -6.722  1.00 51.37 LIG 0.05  C 
BRANCH 49 50
ATOM     50  CG  ARG B  49      26.054 -20.736  -6.346  1.00 44.94 LIG 0.02  C 
BRANCH 50 51
ATOM     51  CD  ARG B  49      27.384 -20.721  -7.154  1.00 41.72 LIG 0.14  C 
BRANCH 51 52
ATOM     52  NE  ARG B  49      28.058 -19.421  -7.105  1.00 39.59 LIG-0.23  N 
ATOM     53 HE   ARG B  49      28.175 -19.074  -6.327  1.00 39.59 LIG 0.18  HD
ATOM     54  CZ  ARG B  49      28.506 -18.725  -8.152  1.00 39.90 LIG 0.67  C 
ATOM     55  NH1 ARG B  49      28.307 -19.168  -9.400  1.00 39.18 LIG-0.23  N 
ATOM     56  NH2 ARG B  49      29.110 -17.537  -7.953  1.00 31.35 LIG-0.23  N 
ATOM     57 2HH1 ARG B  49      28.599 -18.714 -10.070  1.00 39.18 LIG 0.17  HD
ATOM     58 1HH1 ARG B  49      27.887 -19.907  -9.533  1.00 39.18 LIG 0.17  HD
ATOM     59 1HH2 ARG B  49      29.205 -17.232  -7.155  1.00 31.35 LIG 0.17  HD
ATOM     60 2HH2 ARG B  49      29.400 -17.085  -8.624  1.00 31.35 LIG 0.17  HD
ENDBRANCH 51 52
ENDBRANCH 50 51
ENDBRANCH 49 50
ENDBRANCH 47 49
ENDBRANCH 43 47
ENDBRANCH 38 40
ENDBRANCH 1 36
TORSDOF 21
ENDMDL
MODEL 15
USER: ADFR SOLUTION from run 21
USER: SCORE 18.028722 LL:  -3.444 LR: -15.174 RR:   0.000 FEB:  -8.910
USER: RMSD 5.062629
USER: SEED 20
USER: STATUS no improvement in best in 12 clusters for 5 generations
USER: GENES 23
USER: genes 0 Translation |==|  0.58997 0.51724 0.36595
USER: genes 1 Rotation |==|  0.31142 0.62347 0.64791 0.92109
USER: genes 2 Torsion [N]-CA--C-[N] |==|  0.28420
USER: genes 3 Torsion [N]-CA--C-[O] |==|  0.97823
USER: genes 4 Torsion [C]-N--CA-[CB] |==|  0.78093
USER: genes 5 Torsion [N]-CA--CB-[CG] |==|  0.89443
USER: genes 6 Torsion [CA]-CB--CG-[CD1] |==|  0.39889
USER: genes 7 Torsion [N]-CA--C-[N] |==|  0.16127
USER: genes 8 Torsion [C]-N--CA-[CB] |==|  0.44190
USER: genes 9 Torsion [N]-CA--CB-[CG1] |==|  0.64536
USER: genes 10 Torsion [N]-CA--C-[O] |==|  0.89666
USER: genes 11 Torsion [C]-CA--CB-[CG] |==|  0.19249
USER: genes 12 Torsion [CA]-CB--CG-[CD] |==|  0.07573
USER: genes 13 Torsion [CB]-CG--CD-[CE] |==|  0.19211
USER: genes 14 Torsion [CG]-CD--CE-[NZ] |==|  0.55259
USER: genes 15 Torsion [CD]-CE--NZ-[HZ2] |==|  0.48356
USER: genes 16 Torsion [C]-CA--N-[C] |==|  0.77216
USER: genes 17 Torsion [N]-C--CA-[N] |==|  0.96772
USER: genes 18 Torsion [N]-C--CA-[N] |==|  0.05535
USER: genes 19 Torsion [C]-CA--CB-[CG] |==|  0.74878
USER: genes 20 Torsion [CA]-CB--CG-[CD] |==|  0.64604
USER: genes 21 Torsion [CB]-CG--CD-[NE] |==|  0.57047
USER: genes 22 Torsion [CG]-CD--NE-[HE] |==|  0.05578
ROOT
ATOM      1  CA  LYS B  51      24.731 -22.444  -6.636  1.00 67.60 LIG 0.18  C 
ENDROOT
BRANCH 1 2
ATOM      2  C   LYS B  51      23.508 -22.204  -5.691  1.00 65.68 LIG 0.24  C 
ATOM      3  N   PRO B  52      22.356 -21.718  -6.228  1.00 68.58 LIG-0.34  N 
ATOM      4  CD  PRO B  52      22.082 -20.972  -7.480  1.00 71.17 LIG 0.13  C 
ATOM      5  CA  PRO B  52      21.191 -21.694  -5.304  1.00 62.52 LIG 0.18  C 
ATOM      6  CG  PRO B  52      20.848 -20.163  -7.134  1.00 68.49 LIG 0.02  C 
ATOM      7  CB  PRO B  52      20.106 -20.987  -6.125  1.00 62.23 LIG 0.04  C 
ATOM      8 O    LYS B  51      23.628 -22.377  -4.464  1.00 49.94 LIG-0.27  OA
BRANCH 5 9
ATOM      9  C   PRO B  52      20.744 -23.119  -4.865  1.00 62.23 LIG 0.24  C 
ATOM     10 O    PRO B  52      21.261 -24.117  -5.407  1.00 52.82 LIG-0.27  OA
ATOM     11  N   LEU B  53      19.859 -23.195  -3.851  1.00 59.38 LIG-0.35  N 
ATOM     12 H    LEU B  53      19.618 -22.510  -3.391  1.00 59.38 LIG 0.16  HD
BRANCH 11 13
ATOM     13  CA  LEU B  53      19.208 -24.450  -3.416  1.00 58.77 LIG 0.18  C 
BRANCH 13 14
ATOM     14  CB  LEU B  53      18.028 -24.854  -4.345  1.00 52.29 LIG 0.04  C 
BRANCH 14 15
ATOM     15  CG  LEU B  53      17.110 -23.728  -4.914  1.00 62.01 LIG-0.02  C 
ATOM     16  CD2 LEU B  53      15.919 -23.416  -3.997  1.00 53.58 LIG 0.01  C 
ATOM     17  CD1 LEU B  53      16.625 -23.990  -6.359  1.00 50.45 LIG 0.01  C 
ENDBRANCH 14 15
ENDBRANCH 13 14
BRANCH 13 18
ATOM     18  C   LEU B  53      20.294 -25.549  -3.362  1.00 60.22 LIG 0.24  C 
ATOM     19  N   VAL B  54      21.355 -25.339  -2.564  1.00 61.95 LIG-0.35  N 
ATOM     20 H    VAL B  54      21.436 -24.662  -2.040  1.00 61.95 LIG 0.16  HD
ATOM     21 O    LEU B  53      20.181 -26.558  -4.067  1.00 54.25 LIG-0.27  OA
BRANCH 19 22
ATOM     22  CA  VAL B  54      22.503 -26.293  -2.528  1.00 71.55 LIG 0.17  C 
BRANCH 22 23
ATOM     23  CB  VAL B  54      23.838 -25.664  -1.972  1.00 67.56 LIG 0.01  C 
ATOM     24  CG1 VAL B  54      25.016 -25.888  -2.924  1.00 60.73 LIG 0.01  C 
ATOM     25  CG2 VAL B  54      23.690 -24.173  -1.678  1.00 61.59 LIG 0.01  C 
ENDBRANCH 22 23
BRANCH 22 26
ATOM     26  C   VAL B  54      22.142 -27.587  -1.789  1.00 64.78 LIG 0.22  C 
ATOM     27 O    VAL B  54      21.421 -27.553  -0.805  1.00 73.26 LIG-0.29  OA
ENDBRANCH 22 26
ENDBRANCH 19 22
ENDBRANCH 13 18
ENDBRANCH 11 13
ENDBRANCH 5 9
ENDBRANCH 1 2
BRANCH 1 28
ATOM     28  CB  LYS B  51      25.477 -23.794  -6.482  1.00 70.72 LIG 0.04  C 
BRANCH 28 29
ATOM     29  CG  LYS B  51      24.788 -25.092  -6.910  1.00 73.15 LIG 0.00  C 
BRANCH 29 30
ATOM     30  CD  LYS B  51      23.764 -24.809  -8.015  1.00 70.67 LIG 0.03  C 
BRANCH 30 31
ATOM     31  CE  LYS B  51      24.449 -24.411  -9.316  1.00 67.82 LIG 0.23  C 
BRANCH 31 32
ATOM     32  NZ  LYS B  51      23.493 -23.718 -10.209  1.00 73.20 LIG-0.08  N 
ATOM     33 HZ2  LYS B  51      23.923 -23.414 -10.926  1.00 73.20 LIG 0.27  HD
ATOM     34 HZ3  LYS B  51      22.858 -24.287 -10.463  1.00 73.20 LIG 0.27  HD
ATOM     35 HZ1  LYS B  51      23.123 -23.035  -9.774  1.00 73.20 LIG 0.27  HD
ENDBRANCH 31 32
ENDBRANCH 30 31
ENDBRANCH 29 30
ENDBRANCH 28 29
ENDBRANCH 1 28
BRANCH 1 36
ATOM     36  N   LYS B  51      25.704 -21.355  -6.478  1.00 65.69 LIG-0.35  N 
ATOM     37 H    LYS B  51      26.361 -21.535  -5.953  1.00 65.69 LIG 0.16  HD
ATOM     38  C   PRO B  50      25.549 -20.195  -7.114  1.00 68.91 LIG 0.24  C 
ATOM     39 O    PRO B  50      24.529 -19.936  -7.793  1.00 63.49 LIG-0.27  OA
BRANCH 38 40
ATOM     40  CA  PRO B  50      26.717 -19.170  -7.007  1.00 65.85 LIG 0.18  C 
ATOM     41  N   PRO B  50      27.703 -19.567  -5.973  1.00 60.71 LIG-0.34  N 
ATOM     42  CD  PRO B  50      28.890 -20.197  -6.592  1.00 60.54 LIG 0.13  C 
ATOM     43  C   ARG B  49      27.271 -19.557  -4.669  1.00 60.43 LIG 0.26  C 
ATOM     44  CG  PRO B  50      28.587 -20.187  -8.093  1.00 54.86 LIG 0.02  C 
ATOM     45  CB  PRO B  50      27.555 -19.132  -8.300  1.00 61.52 LIG 0.04  C 
ATOM     46 O    ARG B  49      26.095 -19.251  -4.350  1.00 53.87 LIG-0.27  OA
BRANCH 43 47
ATOM     47  CA  ARG B  49      28.275 -19.965  -3.551  1.00 56.75 LIG 0.40  C 
ATOM     48  N   ARG B  49      29.727 -19.861  -3.997  1.00 50.64 LIG 0.61  N 
BRANCH 47 49
ATOM     49  CB  ARG B  49      28.037 -19.108  -2.274  1.00 51.37 LIG 0.05  C 
BRANCH 49 50
ATOM     50  CG  ARG B  49      28.846 -17.808  -2.196  1.00 44.94 LIG 0.02  C 
BRANCH 50 51
ATOM     51  CD  ARG B  49      29.630 -17.698  -0.857  1.00 41.72 LIG 0.14  C 
BRANCH 51 52
ATOM     52  NE  ARG B  49      29.910 -16.311  -0.480  1.00 39.59 LIG-0.23  N 
ATOM     53 HE   ARG B  49      29.421 -15.704  -0.843  1.00 39.59 LIG 0.18  HD
ATOM     54  CZ  ARG B  49      30.852 -15.899   0.372  1.00 39.90 LIG 0.67  C 
ATOM     55  NH1 ARG B  49      31.694 -16.777   0.932  1.00 39.18 LIG-0.23  N 
ATOM     56  NH2 ARG B  49      30.994 -14.583   0.623  1.00 31.35 LIG-0.23  N 
ATOM     57 2HH1 ARG B  49      32.298 -16.503   1.480  1.00 39.18 LIG 0.17  HD
ATOM     58 1HH1 ARG B  49      31.632 -17.614   0.744  1.00 39.18 LIG 0.17  HD
ATOM     59 1HH2 ARG B  49      30.479 -14.014   0.235  1.00 31.35 LIG 0.17  HD
ATOM     60 2HH2 ARG B  49      31.599 -14.313   1.171  1.00 31.35 LIG 0.17  HD
ENDBRANCH 51 52
ENDBRANCH 50 51
ENDBRANCH 49 50
ENDBRANCH 47 49
ENDBRANCH 43 47
ENDBRANCH 38 40
ENDBRANCH 1 36
TORSDOF 21
ENDMDL
MODEL 16
USER: ADFR SOLUTION from run 116
USER: SCORE 18.676784 LL:  -4.094 LR: -15.132 RR:   0.000 FEB:  -8.867
USER: RMSD 7.089565
USER: SEED 115
USER: STATUS no improvement in best in 15 clusters for 5 generations
USER: GENES 23
USER: genes 0 Translation |==|  0.68914 0.62857 0.64210
USER: genes 1 Rotation |==|  0.85458 0.22681 0.68734 0.62061
USER: genes 2 Torsion [N]-CA--C-[N] |==|  0.87345
USER: genes 3 Torsion [N]-CA--C-[O] |==|  0.42519
USER: genes 4 Torsion [C]-N--CA-[CB] |==|  0.56879
USER: genes 5 Torsion [N]-CA--CB-[CG] |==|  0.39153
USER: genes 6 Torsion [CA]-CB--CG-[CD1] |==|  0.31662
USER: genes 7 Torsion [N]-CA--C-[N] |==|  0.35207
USER: genes 8 Torsion [C]-N--CA-[CB] |==|  0.77907
USER: genes 9 Torsion [N]-CA--CB-[CG1] |==|  0.65504
USER: genes 10 Torsion [N]-CA--C-[O] |==|  0.13333
USER: genes 11 Torsion [C]-CA--CB-[CG] |==|  0.79301
USER: genes 12 Torsion [CA]-CB--CG-[CD] |==|  0.37116
USER: genes 13 Torsion [CB]-CG--CD-[CE] |==|  0.09134
USER: genes 14 Torsion [CG]-CD--CE-[NZ] |==|  0.70229
USER: genes 15 Torsion [CD]-CE--NZ-[HZ2] |==|  0.23466
USER: genes 16 Torsion [C]-CA--N-[C] |==|  0.78333
USER: genes 17 Torsion [N]-C--CA-[N] |==|  0.00778
USER: genes 18 Torsion [N]-C--CA-[N] |==|  0.45353
USER: genes 19 Torsion [C]-CA--CB-[CG] |==|  0.53675
USER: genes 20 Torsion [CA]-CB--CG-[CD] |==|  0.66937
USER: genes 21 Torsion [CB]-CG--CD-[NE] |==|  0.70882
USER: genes 22 Torsion [CG]-CD--NE-[HE] |==|  0.95584
ROOT
ATOM      1  CA  LYS B  51      27.334 -19.939  -2.287  1.00 67.60 LIG 0.18  C 
ENDROOT
BRANCH 1 2
ATOM      2  C   LYS B  51      26.820 -19.644  -3.734  1.00 65.68 LIG 0.24  C 
ATOM      3  N   PRO B  52      27.616 -19.975  -4.788  1.00 68.58 LIG-0.34  N 
ATOM      4  CD  PRO B  52      29.076 -20.214  -4.892  1.00 71.17 LIG 0.13  C 
ATOM      5  CA  PRO B  52      26.982 -19.835  -6.125  1.00 62.52 LIG 0.18  C 
ATOM      6  CG  PRO B  52      29.384 -19.833  -6.325  1.00 68.49 LIG 0.02  C 
ATOM      7  CB  PRO B  52      28.133 -20.137  -7.093  1.00 62.23 LIG 0.04  C 
ATOM      8 O    LYS B  51      25.744 -19.042  -3.901  1.00 49.94 LIG-0.27  OA
BRANCH 5 9
ATOM      9  C   PRO B  52      25.787 -20.812  -6.328  1.00 62.23 LIG 0.24  C 
ATOM     10 O    PRO B  52      24.873 -20.504  -7.118  1.00 52.82 LIG-0.27  OA
ATOM     11  N   LEU B  53      25.849 -21.993  -5.680  1.00 59.38 LIG-0.35  N 
ATOM     12 H    LEU B  53      26.548 -22.254  -5.253  1.00 59.38 LIG 0.16  HD
BRANCH 11 13
ATOM     13  CA  LEU B  53      24.736 -22.965  -5.630  1.00 58.77 LIG 0.18  C 
BRANCH 13 14
ATOM     14  CB  LEU B  53      24.818 -23.891  -4.383  1.00 52.29 LIG 0.04  C 
BRANCH 14 15
ATOM     15  CG  LEU B  53      23.494 -24.266  -3.647  1.00 62.01 LIG-0.02  C 
ATOM     16  CD2 LEU B  53      23.476 -23.796  -2.186  1.00 53.58 LIG 0.01  C 
ATOM     17  CD1 LEU B  53      23.134 -25.768  -3.737  1.00 50.45 LIG 0.01  C 
ENDBRANCH 14 15
ENDBRANCH 13 14
BRANCH 13 18
ATOM     18  C   LEU B  53      23.413 -22.167  -5.662  1.00 60.22 LIG 0.24  C 
ATOM     19  N   VAL B  54      22.507 -22.500  -6.597  1.00 61.95 LIG-0.35  N 
ATOM     20 H    VAL B  54      22.594 -23.164  -7.137  1.00 61.95 LIG 0.16  HD
ATOM     21 O    LEU B  53      23.236 -21.239  -4.865  1.00 54.25 LIG-0.27  OA
BRANCH 19 22
ATOM     22  CA  VAL B  54      21.247 -21.718  -6.774  1.00 71.55 LIG 0.17  C 
BRANCH 22 23
ATOM     23  CB  VAL B  54      20.126 -22.067  -5.722  1.00 67.56 LIG 0.01  C 
ATOM     24  CG1 VAL B  54      18.818 -22.490  -6.398  1.00 60.73 LIG 0.01  C 
ATOM     25  CG2 VAL B  54      20.574 -23.153  -4.746  1.00 61.59 LIG 0.01  C 
ENDBRANCH 22 23
BRANCH 22 26
ATOM     26  C   VAL B  54      21.518 -20.209  -6.825  1.00 64.78 LIG 0.22  C 
ATOM     27 O    VAL B  54      22.401 -19.766  -7.543  1.00 73.26 LIG-0.29  OA
ENDBRANCH 22 26
ENDBRANCH 19 22
ENDBRANCH 13 18
ENDBRANCH 11 13
ENDBRANCH 5 9
ENDBRANCH 1 2
BRANCH 1 28
ATOM     28  CB  LYS B  51      28.373 -18.950  -1.701  1.00 70.72 LIG 0.04  C 
BRANCH 28 29
ATOM     29  CG  LYS B  51      29.820 -18.990  -2.198  1.00 73.15 LIG 0.00  C 
BRANCH 29 30
ATOM     30  CD  LYS B  51      30.317 -17.572  -2.500  1.00 70.67 LIG 0.03  C 
BRANCH 30 31
ATOM     31  CE  LYS B  51      29.689 -16.553  -1.557  1.00 67.82 LIG 0.23  C 
BRANCH 31 32
ATOM     32  NZ  LYS B  51      28.683 -15.739  -2.275  1.00 73.20 LIG-0.08  N 
ATOM     33 HZ2  LYS B  51      27.904 -16.169  -2.284  1.00 73.20 LIG 0.27  HD
ATOM     34 HZ3  LYS B  51      28.585 -14.957  -1.861  1.00 73.20 LIG 0.27  HD
ATOM     35 HZ1  LYS B  51      28.956 -15.600  -3.111  1.00 73.20 LIG 0.27  HD
ENDBRANCH 31 32
ENDBRANCH 30 31
ENDBRANCH 29 30
ENDBRANCH 28 29
ENDBRANCH 1 28
BRANCH 1 36
ATOM     36  N   LYS B  51      27.898 -21.294  -2.225  1.00 65.69 LIG-0.35  N 
ATOM     37 H    LYS B  51      28.757 -21.326  -2.241  1.00 65.69 LIG 0.16  HD
ATOM     38  C   PRO B  50      27.110 -22.365  -2.152  1.00 68.91 LIG 0.24  C 
ATOM     39 O    PRO B  50      25.863 -22.285  -2.231  1.00 63.49 LIG-0.27  OA
BRANCH 38 40
ATOM     40  CA  PRO B  50      27.807 -23.741  -1.928  1.00 65.85 LIG 0.18  C 
ATOM     41  N   PRO B  50      29.274 -23.592  -1.766  1.00 60.71 LIG-0.34  N 
ATOM     42  CD  PRO B  50      29.655 -23.656  -0.337  1.00 60.54 LIG 0.13  C 
ATOM     43  C   ARG B  49      29.977 -23.156  -2.862  1.00 60.43 LIG 0.26  C 
ATOM     44  CG  PRO B  50      28.327 -23.842   0.402  1.00 54.86 LIG 0.02  C 
ATOM     45  CB  PRO B  50      27.367 -24.386  -0.599  1.00 61.52 LIG 0.04  C 
ATOM     46 O    ARG B  49      29.421 -22.870  -3.951  1.00 53.87 LIG-0.27  OA
BRANCH 43 47
ATOM     47  CA  ARG B  49      31.521 -22.989  -2.736  1.00 56.75 LIG 0.40  C 
ATOM     48  N   ARG B  49      32.216 -22.901  -4.088  1.00 50.64 LIG 0.61  N 
BRANCH 47 49
ATOM     49  CB  ARG B  49      31.859 -21.741  -1.870  1.00 51.37 LIG 0.05  C 
BRANCH 49 50
ATOM     50  CG  ARG B  49      33.321 -21.280  -1.927  1.00 44.94 LIG 0.02  C 
BRANCH 50 51
ATOM     51  CD  ARG B  49      33.996 -21.339  -0.526  1.00 41.72 LIG 0.14  C 
BRANCH 51 52
ATOM     52  NE  ARG B  49      34.157 -20.013   0.077  1.00 39.59 LIG-0.23  N 
ATOM     53 HE   ARG B  49      34.075 -19.336  -0.446  1.00 39.59 LIG 0.18  HD
ATOM     54  CZ  ARG B  49      34.418 -19.757   1.361  1.00 39.90 LIG 0.67  C 
ATOM     55  NH1 ARG B  49      34.620 -20.758   2.228  1.00 39.18 LIG-0.23  N 
ATOM     56  NH2 ARG B  49      34.540 -18.481   1.774  1.00 31.35 LIG-0.23  N 
ATOM     57 2HH1 ARG B  49      34.787 -20.584   3.054  1.00 39.18 LIG 0.17  HD
ATOM     58 1HH1 ARG B  49      34.582 -21.574   1.959  1.00 39.18 LIG 0.17  HD
ATOM     59 1HH2 ARG B  49      34.448 -17.836   1.212  1.00 31.35 LIG 0.17  HD
ATOM     60 2HH2 ARG B  49      34.708 -18.310   2.600  1.00 31.35 LIG 0.17  HD
ENDBRANCH 51 52
ENDBRANCH 50 51
ENDBRANCH 49 50
ENDBRANCH 47 49
ENDBRANCH 43 47
ENDBRANCH 38 40
ENDBRANCH 1 36
TORSDOF 21
ENDMDL
MODEL 17
USER: ADFR SOLUTION from run 88
USER: SCORE 18.212485 LL:  -3.940 LR: -15.024 RR:   0.000 FEB:  -8.759
USER: RMSD 3.956239
USER: SEED 87
USER: STATUS no improvement in best in 6 clusters for 5 generations
USER: GENES 23
USER: genes 0 Translation |==|  0.58330 0.51209 0.35717
USER: genes 1 Rotation |==|  0.32516 0.64393 0.62570 0.92768
USER: genes 2 Torsion [N]-CA--C-[N] |==|  0.30580
USER: genes 3 Torsion [N]-CA--C-[O] |==|  0.41384
USER: genes 4 Torsion [C]-N--CA-[CB] |==|  0.88889
USER: genes 5 Torsion [N]-CA--CB-[CG] |==|  0.85969
USER: genes 6 Torsion [CA]-CB--CG-[CD1] |==|  0.39263
USER: genes 7 Torsion [N]-CA--C-[N] |==|  0.89877
USER: genes 8 Torsion [C]-N--CA-[CB] |==|  0.29170
USER: genes 9 Torsion [N]-CA--CB-[CG1] |==|  0.99106
USER: genes 10 Torsion [N]-CA--C-[O] |==|  0.89568
USER: genes 11 Torsion [C]-CA--CB-[CG] |==|  0.16537
USER: genes 12 Torsion [CA]-CB--CG-[CD] |==|  0.15711
USER: genes 13 Torsion [CB]-CG--CD-[CE] |==|  0.07874
USER: genes 14 Torsion [CG]-CD--CE-[NZ] |==|  0.62106
USER: genes 15 Torsion [CD]-CE--NZ-[HZ2] |==|  0.98991
USER: genes 16 Torsion [C]-CA--N-[C] |==|  0.80214
USER: genes 17 Torsion [N]-C--CA-[N] |==|  0.91550
USER: genes 18 Torsion [N]-C--CA-[N] |==|  0.07572
USER: genes 19 Torsion [C]-CA--CB-[CG] |==|  0.74995
USER: genes 20 Torsion [CA]-CB--CG-[CD] |==|  0.64143
USER: genes 21 Torsion [CB]-CG--CD-[NE] |==|  0.55709
USER: genes 22 Torsion [CG]-CD--NE-[HE] |==|  0.05543
ROOT
ATOM      1  CA  LYS B  51      24.556 -22.560  -6.775  1.00 67.60 LIG 0.18  C 
ENDROOT
BRANCH 1 2
ATOM      2  C   LYS B  51      23.417 -22.179  -5.772  1.00 65.68 LIG 0.24  C 
ATOM      3  N   PRO B  52      22.247 -21.691  -6.270  1.00 68.58 LIG-0.34  N 
ATOM      4  CD  PRO B  52      21.911 -21.051  -7.565  1.00 71.17 LIG 0.13  C 
ATOM      5  CA  PRO B  52      21.156 -21.531  -5.274  1.00 62.52 LIG 0.18  C 
ATOM      6  CG  PRO B  52      20.739 -20.158  -7.211  1.00 68.49 LIG 0.02  C 
ATOM      7  CB  PRO B  52      20.042 -20.852  -6.079  1.00 62.23 LIG 0.04  C 
ATOM      8 O    LYS B  51      23.620 -22.246  -4.546  1.00 49.94 LIG-0.27  OA
BRANCH 5 9
ATOM      9  C   PRO B  52      20.688 -22.889  -4.673  1.00 62.23 LIG 0.24  C 
ATOM     10 O    PRO B  52      20.260 -22.925  -3.502  1.00 52.82 LIG-0.27  OA
ATOM     11  N   LEU B  53      20.702 -23.957  -5.496  1.00 59.38 LIG-0.35  N 
ATOM     12 H    LEU B  53      20.862 -23.893  -6.338  1.00 59.38 LIG 0.16  HD
BRANCH 11 13
ATOM     13  CA  LEU B  53      20.446 -25.344  -5.052  1.00 58.77 LIG 0.18  C 
BRANCH 13 14
ATOM     14  CB  LEU B  53      21.106 -25.654  -3.679  1.00 52.29 LIG 0.04  C 
BRANCH 14 15
ATOM     15  CG  LEU B  53      22.615 -25.310  -3.484  1.00 62.01 LIG-0.02  C 
ATOM     16  CD2 LEU B  53      23.540 -26.486  -3.826  1.00 53.58 LIG 0.01  C 
ATOM     17  CD1 LEU B  53      22.951 -24.749  -2.081  1.00 50.45 LIG 0.01  C 
ENDBRANCH 14 15
ENDBRANCH 13 14
BRANCH 13 18
ATOM     18  C   LEU B  53      18.915 -25.549  -5.009  1.00 60.22 LIG 0.24  C 
ATOM     19  N   VAL B  54      18.158 -24.512  -4.611  1.00 61.95 LIG-0.35  N 
ATOM     20 H    VAL B  54      18.468 -23.728  -4.438  1.00 61.95 LIG 0.16  HD
ATOM     21 O    LEU B  53      18.434 -26.650  -5.300  1.00 54.25 LIG-0.27  OA
BRANCH 19 22
ATOM     22  CA  VAL B  54      16.682 -24.648  -4.435  1.00 71.55 LIG 0.17  C 
BRANCH 22 23
ATOM     23  CB  VAL B  54      16.221 -24.716  -2.929  1.00 67.56 LIG 0.01  C 
ATOM     24  CG1 VAL B  54      17.412 -24.707  -1.966  1.00 60.73 LIG 0.01  C 
ATOM     25  CG2 VAL B  54      15.262 -23.583  -2.570  1.00 61.59 LIG 0.01  C 
ENDBRANCH 22 23
BRANCH 22 26
ATOM     26  C   VAL B  54      15.916 -23.566  -5.207  1.00 64.78 LIG 0.22  C 
ATOM     27 O    VAL B  54      16.358 -22.430  -5.275  1.00 73.26 LIG-0.29  OA
ENDBRANCH 22 26
ENDBRANCH 19 22
ENDBRANCH 13 18
ENDBRANCH 11 13
ENDBRANCH 5 9
ENDBRANCH 1 2
BRANCH 1 28
ATOM     28  CB  LYS B  51      25.131 -23.995  -6.664  1.00 70.72 LIG 0.04  C 
BRANCH 28 29
ATOM     29  CG  LYS B  51      24.203 -25.198  -6.852  1.00 73.15 LIG 0.00  C 
BRANCH 29 30
ATOM     30  CD  LYS B  51      23.504 -25.121  -8.214  1.00 70.67 LIG 0.03  C 
BRANCH 30 31
ATOM     31  CE  LYS B  51      24.355 -24.371  -9.231  1.00 67.82 LIG 0.23  C 
BRANCH 31 32
ATOM     32  NZ  LYS B  51      23.517 -23.435 -10.013  1.00 73.20 LIG-0.08  N 
ATOM     33 HZ2  LYS B  51      22.665 -23.528  -9.774  1.00 73.20 LIG 0.27  HD
ATOM     34 HZ3  LYS B  51      23.779 -22.599  -9.855  1.00 73.20 LIG 0.27  HD
ATOM     35 HZ1  LYS B  51      23.603 -23.613 -10.880  1.00 73.20 LIG 0.27  HD
ENDBRANCH 31 32
ENDBRANCH 30 31
ENDBRANCH 29 30
ENDBRANCH 28 29
ENDBRANCH 1 28
BRANCH 1 36
ATOM     36  N   LYS B  51      25.665 -21.605  -6.653  1.00 65.69 LIG-0.35  N 
ATOM     37 H    LYS B  51      26.374 -21.924  -6.285  1.00 65.69 LIG 0.16  HD
ATOM     38  C   PRO B  50      25.547 -20.353  -7.090  1.00 68.91 LIG 0.24  C 
ATOM     39 O    PRO B  50      24.467 -19.898  -7.531  1.00 63.49 LIG-0.27  OA
BRANCH 38 40
ATOM     40  CA  PRO B  50      26.831 -19.471  -7.063  1.00 65.85 LIG 0.18  C 
ATOM     41  N   PRO B  50      27.741 -19.862  -5.960  1.00 60.71 LIG-0.34  N 
ATOM     42  CD  PRO B  50      28.852 -20.699  -6.465  1.00 60.54 LIG 0.13  C 
ATOM     43  C   ARG B  49      27.291 -19.649  -4.679  1.00 60.43 LIG 0.26  C 
ATOM     44  CG  PRO B  50      28.579 -20.826  -7.966  1.00 54.86 LIG 0.02  C 
ATOM     45  CB  PRO B  50      27.690 -19.685  -8.324  1.00 61.52 LIG 0.04  C 
ATOM     46 O    ARG B  49      26.158 -19.168  -4.434  1.00 53.87 LIG-0.27  OA
BRANCH 43 47
ATOM     47  CA  ARG B  49      28.218 -20.043  -3.491  1.00 56.75 LIG 0.40  C 
ATOM     48  N   ARG B  49      29.696 -19.995  -3.855  1.00 50.64 LIG 0.61  N 
BRANCH 47 49
ATOM     49  CB  ARG B  49      27.932 -19.134  -2.261  1.00 51.37 LIG 0.05  C 
BRANCH 49 50
ATOM     50  CG  ARG B  49      28.766 -17.850  -2.187  1.00 44.94 LIG 0.02  C 
BRANCH 50 51
ATOM     51  CD  ARG B  49      29.447 -17.686  -0.797  1.00 41.72 LIG 0.14  C 
BRANCH 51 52
ATOM     52  NE  ARG B  49      29.835 -16.301  -0.520  1.00 39.59 LIG-0.23  N 
ATOM     53 HE   ARG B  49      29.442 -15.689  -0.977  1.00 39.59 LIG 0.18  HD
ATOM     54  CZ  ARG B  49      30.740 -15.900   0.376  1.00 39.90 LIG 0.67  C 
ATOM     55  NH1 ARG B  49      31.439 -16.794   1.086  1.00 39.18 LIG-0.23  N 
ATOM     56  NH2 ARG B  49      30.994 -14.585   0.523  1.00 31.35 LIG-0.23  N 
ATOM     57 2HH1 ARG B  49      32.021 -16.528   1.661  1.00 39.18 LIG 0.17  HD
ATOM     58 1HH1 ARG B  49      31.307 -17.636   0.967  1.00 39.18 LIG 0.17  HD
ATOM     59 1HH2 ARG B  49      30.574 -14.009   0.041  1.00 31.35 LIG 0.17  HD
ATOM     60 2HH2 ARG B  49      31.576 -14.321   1.098  1.00 31.35 LIG 0.17  HD
ENDBRANCH 51 52
ENDBRANCH 50 51
ENDBRANCH 49 50
ENDBRANCH 47 49
ENDBRANCH 43 47
ENDBRANCH 38 40
ENDBRANCH 1 36
TORSDOF 21
ENDMDL
MODEL 18
USER: ADFR SOLUTION from run 89
USER: SCORE 17.804181 LL:  -3.687 LR: -14.947 RR:   0.000 FEB:  -8.682
USER: RMSD 7.788044
USER: SEED 88
USER: STATUS no improvement in best in 15 clusters for 5 generations
USER: GENES 23
USER: genes 0 Translation |==|  0.70437 0.62097 0.60361
USER: genes 1 Rotation |==|  0.86796 0.22501 0.62943 0.64912
USER: genes 2 Torsion [N]-CA--C-[N] |==|  0.84491
USER: genes 3 Torsion [N]-CA--C-[O] |==|  0.46836
USER: genes 4 Torsion [C]-N--CA-[CB] |==|  0.56177
USER: genes 5 Torsion [N]-CA--CB-[CG] |==|  0.36705
USER: genes 6 Torsion [CA]-CB--CG-[CD1] |==|  0.27126
USER: genes 7 Torsion [N]-CA--C-[N] |==|  0.33502
USER: genes 8 Torsion [C]-N--CA-[CB] |==|  0.78690
USER: genes 9 Torsion [N]-CA--CB-[CG1] |==|  0.65072
USER: genes 10 Torsion [N]-CA--C-[O] |==|  0.12433
USER: genes 11 Torsion [C]-CA--CB-[CG] |==|  0.33472
USER: genes 12 Torsion [CA]-CB--CG-[CD] |==|  0.58185
USER: genes 13 Torsion [CB]-CG--CD-[CE] |==|  0.11637
USER: genes 14 Torsion [CG]-CD--CE-[NZ] |==|  0.25047
USER: genes 15 Torsion [CD]-CE--NZ-[HZ2] |==|  0.79980
USER: genes 16 Torsion [C]-CA--N-[C] |==|  0.69158
USER: genes 17 Torsion [N]-C--CA-[N] |==|  0.28212
USER: genes 18 Torsion [N]-C--CA-[N] |==|  0.50761
USER: genes 19 Torsion [C]-CA--CB-[CG] |==|  0.48460
USER: genes 20 Torsion [CA]-CB--CG-[CD] |==|  0.68236
USER: genes 21 Torsion [CB]-CG--CD-[NE] |==|  0.92978
USER: genes 22 Torsion [CG]-CD--NE-[HE] |==|  0.88030
ROOT
ATOM      1  CA  LYS B  51      27.734 -20.110  -2.893  1.00 67.60 LIG 0.18  C 
ENDROOT
BRANCH 1 2
ATOM      2  C   LYS B  51      26.913 -19.681  -4.153  1.00 65.68 LIG 0.24  C 
ATOM      3  N   PRO B  52      27.494 -19.796  -5.379  1.00 68.58 LIG-0.34  N 
ATOM      4  CD  PRO B  52      28.913 -19.880  -5.800  1.00 71.17 LIG 0.13  C 
ATOM      5  CA  PRO B  52      26.589 -19.546  -6.531  1.00 62.52 LIG 0.18  C 
ATOM      6  CG  PRO B  52      28.892 -19.289  -7.196  1.00 68.49 LIG 0.02  C 
ATOM      7  CB  PRO B  52      27.531 -19.609  -7.739  1.00 62.23 LIG 0.04  C 
ATOM      8 O    LYS B  51      25.787 -19.167  -4.016  1.00 49.94 LIG-0.27  OA
BRANCH 5 9
ATOM      9  C   PRO B  52      25.446 -20.598  -6.637  1.00 62.23 LIG 0.24  C 
ATOM     10 O    PRO B  52      24.496 -20.393  -7.418  1.00 52.82 LIG-0.27  OA
ATOM     11  N   LEU B  53      25.590 -21.729  -5.916  1.00 59.38 LIG-0.35  N 
ATOM     12 H    LEU B  53      26.313 -21.922  -5.493  1.00 59.38 LIG 0.16  HD
BRANCH 11 13
ATOM     13  CA  LEU B  53      24.536 -22.755  -5.771  1.00 58.77 LIG 0.18  C 
BRANCH 13 14
ATOM     14  CB  LEU B  53      24.736 -23.631  -4.502  1.00 52.29 LIG 0.04  C 
BRANCH 14 15
ATOM     15  CG  LEU B  53      23.513 -23.875  -3.566  1.00 62.01 LIG-0.02  C 
ATOM     16  CD2 LEU B  53      23.865 -23.722  -2.079  1.00 53.58 LIG 0.01  C 
ATOM     17  CD1 LEU B  53      22.794 -25.222  -3.816  1.00 50.45 LIG 0.01  C 
ENDBRANCH 14 15
ENDBRANCH 13 14
BRANCH 13 18
ATOM     18  C   LEU B  53      23.172 -22.028  -5.752  1.00 60.22 LIG 0.24  C 
ATOM     19  N   VAL B  54      22.280 -22.351  -6.704  1.00 61.95 LIG-0.35  N 
ATOM     20 H    VAL B  54      22.398 -22.975  -7.282  1.00 61.95 LIG 0.16  HD
ATOM     21 O    LEU B  53      22.951 -21.159  -4.900  1.00 54.25 LIG-0.27  OA
BRANCH 19 22
ATOM     22  CA  VAL B  54      20.979 -21.627  -6.830  1.00 71.55 LIG 0.17  C 
BRANCH 22 23
ATOM     23  CB  VAL B  54      19.907 -22.049  -5.753  1.00 67.56 LIG 0.01  C 
ATOM     24  CG1 VAL B  54      18.589 -22.486  -6.399  1.00 60.73 LIG 0.01  C 
ATOM     25  CG2 VAL B  54      20.421 -23.156  -4.835  1.00 61.59 LIG 0.01  C 
ENDBRANCH 22 23
BRANCH 22 26
ATOM     26  C   VAL B  54      21.176 -20.107  -6.860  1.00 64.78 LIG 0.22  C 
ATOM     27 O    VAL B  54      22.055 -19.614  -7.550  1.00 73.26 LIG-0.29  OA
ENDBRANCH 22 26
ENDBRANCH 19 22
ENDBRANCH 13 18
ENDBRANCH 11 13
ENDBRANCH 5 9
ENDBRANCH 1 2
BRANCH 1 28
ATOM     28  CB  LYS B  51      28.960 -19.235  -2.529  1.00 70.72 LIG 0.04  C 
BRANCH 28 29
ATOM     29  CG  LYS B  51      29.019 -18.548  -1.163  1.00 73.15 LIG 0.00  C 
BRANCH 29 30
ATOM     30  CD  LYS B  51      29.827 -17.249  -1.256  1.00 70.67 LIG 0.03  C 
BRANCH 30 31
ATOM     31  CE  LYS B  51      29.488 -16.477  -2.526  1.00 67.82 LIG 0.23  C 
BRANCH 31 32
ATOM     32  NZ  LYS B  51      28.371 -15.539  -2.275  1.00 73.20 LIG-0.08  N 
ATOM     33 HZ2  LYS B  51      27.613 -15.997  -2.184  1.00 73.20 LIG 0.27  HD
ATOM     34 HZ3  LYS B  51      28.530 -15.080  -1.530  1.00 73.20 LIG 0.27  HD
ATOM     35 HZ1  LYS B  51      28.297 -14.976  -2.960  1.00 73.20 LIG 0.27  HD
ENDBRANCH 31 32
ENDBRANCH 30 31
ENDBRANCH 29 30
ENDBRANCH 28 29
ENDBRANCH 1 28
BRANCH 1 36
ATOM     36  N   LYS B  51      28.184 -21.500  -3.042  1.00 65.69 LIG-0.35  N 
ATOM     37 H    LYS B  51      28.781 -21.621  -3.649  1.00 65.69 LIG 0.16  HD
ATOM     38  C   PRO B  50      27.685 -22.471  -2.279  1.00 68.91 LIG 0.24  C 
ATOM     39 O    PRO B  50      26.747 -22.273  -1.473  1.00 63.49 LIG-0.27  OA
BRANCH 38 40
ATOM     40  CA  PRO B  50      28.344 -23.877  -2.404  1.00 65.85 LIG 0.18  C 
ATOM     41  N   PRO B  50      29.271 -24.150  -1.279  1.00 60.71 LIG-0.34  N 
ATOM     42  CD  PRO B  50      28.631 -25.019  -0.267  1.00 60.54 LIG 0.13  C 
ATOM     43  C   ARG B  49      30.402 -23.373  -1.206  1.00 60.43 LIG 0.26  C 
ATOM     44  CG  PRO B  50      27.225 -25.272  -0.818  1.00 54.86 LIG 0.02  C 
ATOM     45  CB  PRO B  50      27.299 -25.004  -2.283  1.00 61.52 LIG 0.04  C 
ATOM     46 O    ARG B  49      30.646 -22.457  -2.030  1.00 53.87 LIG-0.27  OA
BRANCH 43 47
ATOM     47  CA  ARG B  49      31.405 -23.628  -0.042  1.00 56.75 LIG 0.40  C 
ATOM     48  N   ARG B  49      32.574 -22.653  -0.049  1.00 50.64 LIG 0.61  N 
BRANCH 47 49
ATOM     49  CB  ARG B  49      30.666 -23.580   1.326  1.00 51.37 LIG 0.05  C 
BRANCH 49 50
ATOM     50  CG  ARG B  49      31.519 -23.948   2.546  1.00 44.94 LIG 0.02  C 
BRANCH 50 51
ATOM     51  CD  ARG B  49      31.025 -25.262   3.217  1.00 41.72 LIG 0.14  C 
BRANCH 51 52
ATOM     52  NE  ARG B  49      29.607 -25.525   2.963  1.00 39.59 LIG-0.23  N 
ATOM     53 HE   ARG B  49      29.070 -24.857   3.024  1.00 39.59 LIG 0.18  HD
ATOM     54  CZ  ARG B  49      29.069 -26.705   2.644  1.00 39.90 LIG 0.67  C 
ATOM     55  NH1 ARG B  49      29.827 -27.807   2.588  1.00 39.18 LIG-0.23  N 
ATOM     56  NH2 ARG B  49      27.740 -26.797   2.437  1.00 31.35 LIG-0.23  N 
ATOM     57 2HH1 ARG B  49      29.473 -28.563   2.382  1.00 39.18 LIG 0.17  HD
ATOM     58 1HH1 ARG B  49      30.669 -27.759   2.758  1.00 39.18 LIG 0.17  HD
ATOM     59 1HH2 ARG B  49      27.245 -26.098   2.510  1.00 31.35 LIG 0.17  HD
ATOM     60 2HH2 ARG B  49      27.389 -27.554   2.232  1.00 31.35 LIG 0.17  HD
ENDBRANCH 51 52
ENDBRANCH 50 51
ENDBRANCH 49 50
ENDBRANCH 47 49
ENDBRANCH 43 47
ENDBRANCH 38 40
ENDBRANCH 1 36
TORSDOF 21
ENDMDL
MODEL 19
USER: ADFR SOLUTION from run 28
USER: SCORE 17.845278 LL:  -3.951 LR: -14.927 RR:   0.000 FEB:  -8.663
USER: RMSD 7.065035
USER: SEED 27
USER: STATUS no improvement in best in 9 clusters for 5 generations
USER: GENES 23
USER: genes 0 Translation |==|  0.67759 0.53445 0.57331
USER: genes 1 Rotation |==|  0.97667 0.63691 0.43728 0.51031
USER: genes 2 Torsion [N]-CA--C-[N] |==|  0.58000
USER: genes 3 Torsion [N]-CA--C-[O] |==|  0.32487
USER: genes 4 Torsion [C]-N--CA-[CB] |==|  0.87222
USER: genes 5 Torsion [N]-CA--CB-[CG] |==|  0.51648
USER: genes 6 Torsion [CA]-CB--CG-[CD1] |==|  0.78044
USER: genes 7 Torsion [N]-CA--C-[N] |==|  0.35851
USER: genes 8 Torsion [C]-N--CA-[CB] |==|  0.23853
USER: genes 9 Torsion [N]-CA--CB-[CG1] |==|  0.96416
USER: genes 10 Torsion [N]-CA--C-[O] |==|  0.87661
USER: genes 11 Torsion [C]-CA--CB-[CG] |==|  0.43136
USER: genes 12 Torsion [CA]-CB--CG-[CD] |==|  0.26915
USER: genes 13 Torsion [CB]-CG--CD-[CE] |==|  0.49728
USER: genes 14 Torsion [CG]-CD--CE-[NZ] |==|  0.61043
USER: genes 15 Torsion [CD]-CE--NZ-[HZ2] |==|  0.42642
USER: genes 16 Torsion [C]-CA--N-[C] |==|  0.19935
USER: genes 17 Torsion [N]-C--CA-[N] |==|  0.29770
USER: genes 18 Torsion [N]-C--CA-[N] |==|  0.84640
USER: genes 19 Torsion [C]-CA--CB-[CG] |==|  0.12284
USER: genes 20 Torsion [CA]-CB--CG-[CD] |==|  0.14098
USER: genes 21 Torsion [CB]-CG--CD-[NE] |==|  0.39419
USER: genes 22 Torsion [CG]-CD--NE-[HE] |==|  0.90629
ROOT
ATOM      1  CA  LYS B  51      27.031 -22.057  -3.370  1.00 67.60 LIG 0.18  C 
ENDROOT
BRANCH 1 2
ATOM      2  C   LYS B  51      26.042 -23.258  -3.534  1.00 65.68 LIG 0.24  C 
ATOM      3  N   PRO B  52      25.110 -23.471  -2.565  1.00 68.58 LIG-0.34  N 
ATOM      4  CD  PRO B  52      25.041 -23.049  -1.145  1.00 71.17 LIG 0.13  C 
ATOM      5  CA  PRO B  52      24.097 -24.510  -2.883  1.00 62.52 LIG 0.18  C 
ATOM      6  CG  PRO B  52      24.208 -24.140  -0.503  1.00 68.49 LIG 0.02  C 
ATOM      7  CB  PRO B  52      23.288 -24.621  -1.585  1.00 62.23 LIG 0.04  C 
ATOM      8 O    LYS B  51      26.173 -24.045  -4.489  1.00 49.94 LIG-0.27  OA
BRANCH 5 9
ATOM      9  C   PRO B  52      23.196 -24.121  -4.091  1.00 62.23 LIG 0.24  C 
ATOM     10 O    PRO B  52      23.223 -24.818  -5.125  1.00 52.82 LIG-0.27  OA
ATOM     11  N   LEU B  53      22.365 -23.073  -3.919  1.00 59.38 LIG-0.35  N 
ATOM     12 H    LEU B  53      22.251 -22.689  -3.158  1.00 59.38 LIG 0.16  HD
BRANCH 11 13
ATOM     13  CA  LEU B  53      21.564 -22.468  -5.005  1.00 58.77 LIG 0.18  C 
BRANCH 13 14
ATOM     14  CB  LEU B  53      22.399 -22.239  -6.297  1.00 52.29 LIG 0.04  C 
BRANCH 14 15
ATOM     15  CG  LEU B  53      21.733 -21.480  -7.487  1.00 62.01 LIG-0.02  C 
ATOM     16  CD2 LEU B  53      21.025 -20.191  -7.045  1.00 53.58 LIG 0.01  C 
ATOM     17  CD1 LEU B  53      20.780 -22.358  -8.332  1.00 50.45 LIG 0.01  C 
ENDBRANCH 14 15
ENDBRANCH 13 14
BRANCH 13 18
ATOM     18  C   LEU B  53      20.353 -23.394  -5.266  1.00 60.22 LIG 0.24  C 
ATOM     19  N   VAL B  54      19.132 -22.832  -5.284  1.00 61.95 LIG-0.35  N 
ATOM     20 H    VAL B  54      18.990 -21.986  -5.219  1.00 61.95 LIG 0.16  HD
ATOM     21 O    LEU B  53      20.528 -24.608  -5.414  1.00 54.25 LIG-0.27  OA
BRANCH 19 22
ATOM     22  CA  VAL B  54      17.896 -23.659  -5.422  1.00 71.55 LIG 0.17  C 
BRANCH 22 23
ATOM     23  CB  VAL B  54      17.348 -24.222  -4.054  1.00 67.56 LIG 0.01  C 
ATOM     24  CG1 VAL B  54      18.368 -24.066  -2.922  1.00 60.73 LIG 0.01  C 
ATOM     25  CG2 VAL B  54      16.029 -23.565  -3.652  1.00 61.59 LIG 0.01  C 
ENDBRANCH 22 23
BRANCH 22 26
ATOM     26  C   VAL B  54      16.803 -22.920  -6.202  1.00 64.78 LIG 0.22  C 
ATOM     27 O    VAL B  54      16.561 -21.747  -5.962  1.00 73.26 LIG-0.29  OA
ENDBRANCH 22 26
ENDBRANCH 19 22
ENDBRANCH 13 18
ENDBRANCH 11 13
ENDBRANCH 5 9
ENDBRANCH 1 2
BRANCH 1 28
ATOM     28  CB  LYS B  51      26.527 -20.848  -2.540  1.00 70.72 LIG 0.04  C 
BRANCH 28 29
ATOM     29  CG  LYS B  51      27.540 -19.926  -1.858  1.00 73.15 LIG 0.00  C 
BRANCH 29 30
ATOM     30  CD  LYS B  51      27.803 -18.691  -2.727  1.00 70.67 LIG 0.03  C 
BRANCH 30 31
ATOM     31  CE  LYS B  51      28.791 -17.744  -2.058  1.00 67.82 LIG 0.23  C 
BRANCH 31 32
ATOM     32  NZ  LYS B  51      28.379 -16.338  -2.268  1.00 73.20 LIG-0.08  N 
ATOM     33 HZ2  LYS B  51      28.691 -15.834  -1.604  1.00 73.20 LIG 0.27  HD
ATOM     34 HZ3  LYS B  51      28.707 -16.044  -3.042  1.00 73.20 LIG 0.27  HD
ATOM     35 HZ1  LYS B  51      27.490 -16.288  -2.285  1.00 73.20 LIG 0.27  HD
ENDBRANCH 31 32
ENDBRANCH 30 31
ENDBRANCH 29 30
ENDBRANCH 28 29
ENDBRANCH 1 28
BRANCH 1 36
ATOM     36  N   LYS B  51      27.446 -21.570  -4.692  1.00 65.69 LIG-0.35  N 
ATOM     37 H    LYS B  51      28.260 -21.753  -4.902  1.00 65.69 LIG 0.16  HD
ATOM     38  C   PRO B  50      26.603 -20.902  -5.477  1.00 68.91 LIG 0.24  C 
ATOM     39 O    PRO B  50      25.457 -20.571  -5.097  1.00 63.49 LIG-0.27  OA
BRANCH 38 40
ATOM     40  CA  PRO B  50      27.091 -20.574  -6.920  1.00 65.85 LIG 0.18  C 
ATOM     41  N   PRO B  50      26.406 -21.411  -7.934  1.00 60.71 LIG-0.34  N 
ATOM     42  CD  PRO B  50      25.320 -20.654  -8.596  1.00 60.54 LIG 0.13  C 
ATOM     43  C   ARG B  49      26.671 -22.759  -7.906  1.00 60.43 LIG 0.26  C 
ATOM     44  CG  PRO B  50      25.350 -19.279  -7.923  1.00 54.86 LIG 0.02  C 
ATOM     45  CB  PRO B  50      26.710 -19.137  -7.331  1.00 61.52 LIG 0.04  C 
ATOM     46 O    ARG B  49      27.435 -23.279  -7.056  1.00 53.87 LIG-0.27  OA
BRANCH 43 47
ATOM     47  CA  ARG B  49      25.975 -23.675  -8.956  1.00 56.75 LIG 0.40  C 
ATOM     48  N   ARG B  49      24.458 -23.542  -8.940  1.00 50.64 LIG 0.61  N 
BRANCH 47 49
ATOM     49  CB  ARG B  49      26.530 -23.381 -10.380  1.00 51.37 LIG 0.05  C 
BRANCH 49 50
ATOM     50  CG  ARG B  49      28.054 -23.235 -10.472  1.00 44.94 LIG 0.02  C 
BRANCH 50 51
ATOM     51  CD  ARG B  49      28.787 -24.429  -9.796  1.00 41.72 LIG 0.14  C 
BRANCH 51 52
ATOM     52  NE  ARG B  49      29.987 -24.840 -10.529  1.00 39.59 LIG-0.23  N 
ATOM     53 HE   ARG B  49      29.964 -24.766 -11.385  1.00 39.59 LIG 0.18  HD
ATOM     54  CZ  ARG B  49      31.113 -25.318  -9.994  1.00 39.90 LIG 0.67  C 
ATOM     55  NH1 ARG B  49      31.208 -25.521  -8.674  1.00 39.18 LIG-0.23  N 
ATOM     56  NH2 ARG B  49      32.141 -25.656 -10.797  1.00 31.35 LIG-0.23  N 
ATOM     57 2HH1 ARG B  49      31.937 -25.829  -8.337  1.00 39.18 LIG 0.17  HD
ATOM     58 1HH1 ARG B  49      30.540 -25.343  -8.162  1.00 39.18 LIG 0.17  HD
ATOM     59 1HH2 ARG B  49      32.069 -25.563 -11.649  1.00 31.35 LIG 0.17  HD
ATOM     60 2HH2 ARG B  49      32.868 -25.965 -10.458  1.00 31.35 LIG 0.17  HD
ENDBRANCH 51 52
ENDBRANCH 50 51
ENDBRANCH 49 50
ENDBRANCH 47 49
ENDBRANCH 43 47
ENDBRANCH 38 40
ENDBRANCH 1 36
TORSDOF 21
ENDMDL
MODEL 20
USER: ADFR SOLUTION from run 190
USER: SCORE 16.913859 LL:  -2.936 LR: -14.871 RR:   0.000 FEB:  -8.607
USER: RMSD 5.028177
USER: SEED 189
USER: STATUS no improvement in best in 10 clusters for 5 generations
USER: GENES 23
USER: genes 0 Translation |==|  0.50101 0.47525 0.54268
USER: genes 1 Rotation |==|  0.89614 0.69895 0.59517 0.71079
USER: genes 2 Torsion [N]-CA--C-[N] |==|  0.15344
USER: genes 3 Torsion [N]-CA--C-[O] |==|  0.95444
USER: genes 4 Torsion [C]-N--CA-[CB] |==|  0.78323
USER: genes 5 Torsion [N]-CA--CB-[CG] |==|  0.89792
USER: genes 6 Torsion [CA]-CB--CG-[CD1] |==|  0.51886
USER: genes 7 Torsion [N]-CA--C-[N] |==|  0.17240
USER: genes 8 Torsion [C]-N--CA-[CB] |==|  0.43992
USER: genes 9 Torsion [N]-CA--CB-[CG1] |==|  0.40099
USER: genes 10 Torsion [N]-CA--C-[O] |==|  0.41214
USER: genes 11 Torsion [C]-CA--CB-[CG] |==|  0.88997
USER: genes 12 Torsion [CA]-CB--CG-[CD] |==|  0.66583
USER: genes 13 Torsion [CB]-CG--CD-[CE] |==|  0.96057
USER: genes 14 Torsion [CG]-CD--CE-[NZ] |==|  0.75512
USER: genes 15 Torsion [CD]-CE--NZ-[HZ2] |==|  0.28197
USER: genes 16 Torsion [C]-CA--N-[C] |==|  0.67817
USER: genes 17 Torsion [N]-C--CA-[N] |==|  0.49930
USER: genes 18 Torsion [N]-C--CA-[N] |==|  0.82093
USER: genes 19 Torsion [C]-CA--CB-[CG] |==|  0.56835
USER: genes 20 Torsion [CA]-CB--CG-[CD] |==|  0.77442
USER: genes 21 Torsion [CB]-CG--CD-[NE] |==|  0.05449
USER: genes 22 Torsion [CG]-CD--NE-[HE] |==|  0.90331
ROOT
ATOM      1  CA  LYS B  51      22.396 -23.389  -3.853  1.00 67.60 LIG 0.18  C 
ENDROOT
BRANCH 1 2
ATOM      2  C   LYS B  51      22.111 -24.918  -3.686  1.00 65.68 LIG 0.24  C 
ATOM      3  N   PRO B  52      23.091 -25.710  -3.171  1.00 68.58 LIG-0.34  N 
ATOM      4  CD  PRO B  52      24.560 -25.535  -3.075  1.00 71.17 LIG 0.13  C 
ATOM      5  CA  PRO B  52      22.680 -27.107  -2.873  1.00 62.52 LIG 0.18  C 
ATOM      6  CG  PRO B  52      25.077 -26.959  -3.084  1.00 68.49 LIG 0.02  C 
ATOM      7  CB  PRO B  52      23.993 -27.777  -2.448  1.00 62.23 LIG 0.04  C 
ATOM      8 O    LYS B  51      21.040 -25.399  -4.099  1.00 49.94 LIG-0.27  OA
BRANCH 5 9
ATOM      9  C   PRO B  52      21.602 -27.190  -1.752  1.00 62.23 LIG 0.24  C 
ATOM     10 O    PRO B  52      21.411 -26.203  -1.014  1.00 52.82 LIG-0.27  OA
ATOM     11  N   LEU B  53      20.870 -28.321  -1.692  1.00 59.38 LIG-0.35  N 
ATOM     12 H    LEU B  53      20.912 -28.934  -2.293  1.00 59.38 LIG 0.16  HD
BRANCH 11 13
ATOM     13  CA  LEU B  53      19.923 -28.633  -0.602  1.00 58.77 LIG 0.18  C 
BRANCH 13 14
ATOM     14  CB  LEU B  53      20.646 -29.130   0.683  1.00 52.29 LIG 0.04  C 
BRANCH 14 15
ATOM     15  CG  LEU B  53      21.908 -30.034   0.523  1.00 62.01 LIG-0.02  C 
ATOM     16  CD2 LEU B  53      21.701 -31.165  -0.494  1.00 53.58 LIG 0.01  C 
ATOM     17  CD1 LEU B  53      22.441 -30.601   1.860  1.00 50.45 LIG 0.01  C 
ENDBRANCH 14 15
ENDBRANCH 13 14
BRANCH 13 18
ATOM     18  C   LEU B  53      19.084 -27.363  -0.329  1.00 60.22 LIG 0.24  C 
ATOM     19  N   VAL B  54      18.314 -26.899  -1.327  1.00 61.95 LIG-0.35  N 
ATOM     20 H    VAL B  54      18.215 -27.296  -2.083  1.00 61.95 LIG 0.16  HD
ATOM     21 O    LEU B  53      19.167 -26.797   0.767  1.00 54.25 LIG-0.27  OA
BRANCH 19 22
ATOM     22  CA  VAL B  54      17.553 -25.621  -1.193  1.00 71.55 LIG 0.17  C 
BRANCH 22 23
ATOM     23  CB  VAL B  54      17.160 -24.964  -2.572  1.00 67.56 LIG 0.01  C 
ATOM     24  CG1 VAL B  54      15.790 -24.282  -2.511  1.00 60.73 LIG 0.01  C 
ATOM     25  CG2 VAL B  54      18.211 -23.964  -3.050  1.00 61.59 LIG 0.01  C 
ENDBRANCH 22 23
BRANCH 22 26
ATOM     26  C   VAL B  54      16.331 -25.782  -0.280  1.00 64.78 LIG 0.22  C 
ATOM     27 O    VAL B  54      15.942 -24.843   0.397  1.00 73.26 LIG-0.29  OA
ENDBRANCH 22 26
ENDBRANCH 19 22
ENDBRANCH 13 18
ENDBRANCH 11 13
ENDBRANCH 5 9
ENDBRANCH 1 2
BRANCH 1 28
ATOM     28  CB  LYS B  51      21.258 -22.530  -4.463  1.00 70.72 LIG 0.04  C 
BRANCH 28 29
ATOM     29  CG  LYS B  51      20.425 -23.090  -5.619  1.00 73.15 LIG 0.00  C 
BRANCH 29 30
ATOM     30  CD  LYS B  51      20.551 -22.187  -6.850  1.00 70.67 LIG 0.03  C 
BRANCH 30 31
ATOM     31  CE  LYS B  51      21.162 -20.839  -6.487  1.00 67.82 LIG 0.23  C 
BRANCH 31 32
ATOM     32  NZ  LYS B  51      20.104 -19.888  -6.078  1.00 73.20 LIG-0.08  N 
ATOM     33 HZ2  LYS B  51      20.088 -19.826  -5.190  1.00 73.20 LIG 0.27  HD
ATOM     34 HZ3  LYS B  51      20.273 -19.088  -6.428  1.00 73.20 LIG 0.27  HD
ATOM     35 HZ1  LYS B  51      19.315 -20.179  -6.369  1.00 73.20 LIG 0.27  HD
ENDBRANCH 31 32
ENDBRANCH 30 31
ENDBRANCH 29 30
ENDBRANCH 28 29
ENDBRANCH 1 28
BRANCH 1 36
ATOM     36  N   LYS B  51      23.608 -23.193  -4.659  1.00 65.69 LIG-0.35  N 
ATOM     37 H    LYS B  51      23.549 -23.474  -5.469  1.00 65.69 LIG 0.16  HD
ATOM     38  C   PRO B  50      24.694 -22.621  -4.141  1.00 68.91 LIG 0.24  C 
ATOM     39 O    PRO B  50      24.775 -22.313  -2.930  1.00 63.49 LIG-0.27  OA
BRANCH 38 40
ATOM     40  CA  PRO B  50      25.865 -22.313  -5.122  1.00 65.85 LIG 0.18  C 
ATOM     41  N   PRO B  50      27.008 -21.675  -4.427  1.00 60.71 LIG-0.34  N 
ATOM     42  CD  PRO B  50      28.075 -22.662  -4.150  1.00 60.54 LIG 0.13  C 
ATOM     43  C   ARG B  49      26.800 -20.416  -3.918  1.00 60.43 LIG 0.26  C 
ATOM     44  CG  PRO B  50      27.526 -23.980  -4.705  1.00 54.86 LIG 0.02  C 
ATOM     45  CB  PRO B  50      26.476 -23.607  -5.695  1.00 61.52 LIG 0.04  C 
ATOM     46 O    ARG B  49      25.694 -19.826  -4.008  1.00 53.87 LIG-0.27  OA
BRANCH 43 47
ATOM     47  CA  ARG B  49      27.976 -19.707  -3.183  1.00 56.75 LIG 0.40  C 
ATOM     48  N   ARG B  49      28.392 -20.427  -1.907  1.00 50.64 LIG 0.61  N 
BRANCH 47 49
ATOM     49  CB  ARG B  49      29.193 -19.550  -4.140  1.00 51.37 LIG 0.05  C 
BRANCH 49 50
ATOM     50  CG  ARG B  49      30.557 -19.432  -3.450  1.00 44.94 LIG 0.02  C 
BRANCH 50 51
ATOM     51  CD  ARG B  49      30.824 -17.984  -2.948  1.00 41.72 LIG 0.14  C 
BRANCH 51 52
ATOM     52  NE  ARG B  49      29.595 -17.197  -2.821  1.00 39.59 LIG-0.23  N 
ATOM     53 HE   ARG B  49      28.976 -17.347  -3.398  1.00 39.59 LIG 0.18  HD
ATOM     54  CZ  ARG B  49      29.344 -16.270  -1.893  1.00 39.90 LIG 0.67  C 
ATOM     55  NH1 ARG B  49      30.279 -15.934  -0.995  1.00 39.18 LIG-0.23  N 
ATOM     56  NH2 ARG B  49      28.161 -15.624  -1.900  1.00 31.35 LIG-0.23  N 
ATOM     57 2HH1 ARG B  49      30.109 -15.336  -0.401  1.00 39.18 LIG 0.17  HD
ATOM     58 1HH1 ARG B  49      31.049 -16.317  -1.012  1.00 39.18 LIG 0.17  HD
ATOM     59 1HH2 ARG B  49      27.573 -15.810  -2.499  1.00 31.35 LIG 0.17  HD
ATOM     60 2HH2 ARG B  49      27.995 -15.025  -1.305  1.00 31.35 LIG 0.17  HD
ENDBRANCH 51 52
ENDBRANCH 50 51
ENDBRANCH 49 50
ENDBRANCH 47 49
ENDBRANCH 43 47
ENDBRANCH 38 40
ENDBRANCH 1 36
TORSDOF 21
ENDMDL
MODEL 21
USER: ADFR SOLUTION from run 21
USER: SCORE 17.808673 LL:  -3.349 LR: -14.810 RR:   0.000 FEB:  -8.545
USER: RMSD 4.519975
USER: SEED 20
USER: STATUS no improvement in best in 12 clusters for 5 generations
USER: GENES 23
USER: genes 0 Translation |==|  0.58605 0.50941 0.36850
USER: genes 1 Rotation |==|  0.35524 0.61071 0.61439 0.95134
USER: genes 2 Torsion [N]-CA--C-[N] |==|  0.31929
USER: genes 3 Torsion [N]-CA--C-[O] |==|  0.96186
USER: genes 4 Torsion [C]-N--CA-[CB] |==|  0.83888
USER: genes 5 Torsion [N]-CA--CB-[CG] |==|  0.80304
USER: genes 6 Torsion [CA]-CB--CG-[CD1] |==|  0.88877
USER: genes 7 Torsion [N]-CA--C-[N] |==|  0.44197
USER: genes 8 Torsion [C]-N--CA-[CB] |==|  0.42245
USER: genes 9 Torsion [N]-CA--CB-[CG1] |==|  0.91808
USER: genes 10 Torsion [N]-CA--C-[O] |==|  0.12030
USER: genes 11 Torsion [C]-CA--CB-[CG] |==|  0.15019
USER: genes 12 Torsion [CA]-CB--CG-[CD] |==|  0.12640
USER: genes 13 Torsion [CB]-CG--CD-[CE] |==|  0.19343
USER: genes 14 Torsion [CG]-CD--CE-[NZ] |==|  0.55464
USER: genes 15 Torsion [CD]-CE--NZ-[HZ2] |==|  0.47884
USER: genes 16 Torsion [C]-CA--N-[C] |==|  0.77198
USER: genes 17 Torsion [N]-C--CA-[N] |==|  0.92744
USER: genes 18 Torsion [N]-C--CA-[N] |==|  0.89094
USER: genes 19 Torsion [C]-CA--CB-[CG] |==|  0.78391
USER: genes 20 Torsion [CA]-CB--CG-[CD] |==|  0.35661
USER: genes 21 Torsion [CB]-CG--CD-[NE] |==|  0.96997
USER: genes 22 Torsion [CG]-CD--NE-[HE] |==|  0.77867
ROOT
ATOM      1  CA  LYS B  51      24.628 -22.620  -6.596  1.00 67.60 LIG 0.18  C 
ENDROOT
BRANCH 1 2
ATOM      2  C   LYS B  51      23.385 -22.329  -5.693  1.00 65.68 LIG 0.24  C 
ATOM      3  N   PRO B  52      22.273 -21.793  -6.268  1.00 68.58 LIG-0.34  N 
ATOM      4  CD  PRO B  52      22.075 -21.035  -7.526  1.00 71.17 LIG 0.13  C 
ATOM      5  CA  PRO B  52      21.080 -21.720  -5.385  1.00 62.52 LIG 0.18  C 
ATOM      6  CG  PRO B  52      20.866 -20.174  -7.222  1.00 68.49 LIG 0.02  C 
ATOM      7  CB  PRO B  52      20.055 -20.966  -6.240  1.00 62.23 LIG 0.04  C 
ATOM      8 O    LYS B  51      23.455 -22.508  -4.463  1.00 49.94 LIG-0.27  OA
BRANCH 5 9
ATOM      9  C   PRO B  52      20.557 -23.125  -4.965  1.00 62.23 LIG 0.24  C 
ATOM     10 O    PRO B  52      20.969 -24.136  -5.568  1.00 52.82 LIG-0.27  OA
ATOM     11  N   LEU B  53      19.729 -23.175  -3.902  1.00 59.38 LIG-0.35  N 
ATOM     12 H    LEU B  53      19.565 -22.492  -3.407  1.00 59.38 LIG 0.16  HD
BRANCH 11 13
ATOM     13  CA  LEU B  53      19.016 -24.396  -3.469  1.00 58.77 LIG 0.18  C 
BRANCH 13 14
ATOM     14  CB  LEU B  53      18.107 -24.976  -4.589  1.00 52.29 LIG 0.04  C 
BRANCH 14 15
ATOM     15  CG  LEU B  53      16.813 -24.195  -4.976  1.00 62.01 LIG-0.02  C 
ATOM     16  CD2 LEU B  53      17.068 -23.114  -6.035  1.00 53.58 LIG 0.01  C 
ATOM     17  CD1 LEU B  53      16.059 -23.598  -3.764  1.00 50.45 LIG 0.01  C 
ENDBRANCH 14 15
ENDBRANCH 13 14
BRANCH 13 18
ATOM     18  C   LEU B  53      20.076 -25.421  -3.006  1.00 60.22 LIG 0.24  C 
ATOM     19  N   VAL B  54      19.672 -26.409  -2.189  1.00 61.95 LIG-0.35  N 
ATOM     20 H    VAL B  54      18.855 -26.538  -1.957  1.00 61.95 LIG 0.16  HD
ATOM     21 O    LEU B  53      21.252 -25.291  -3.363  1.00 54.25 LIG-0.27  OA
BRANCH 19 22
ATOM     22  CA  VAL B  54      20.643 -27.382  -1.605  1.00 71.55 LIG 0.17  C 
BRANCH 22 23
ATOM     23  CB  VAL B  54      20.191 -27.982  -0.219  1.00 67.56 LIG 0.01  C 
ATOM     24  CG1 VAL B  54      19.315 -27.005   0.569  1.00 60.73 LIG 0.01  C 
ATOM     25  CG2 VAL B  54      19.458 -29.312  -0.383  1.00 61.59 LIG 0.01  C 
ENDBRANCH 22 23
BRANCH 22 26
ATOM     26  C   VAL B  54      21.008 -28.488  -2.603  1.00 64.78 LIG 0.22  C 
ATOM     27 O    VAL B  54      21.239 -28.212  -3.770  1.00 73.26 LIG-0.29  OA
ENDBRANCH 22 26
ENDBRANCH 19 22
ENDBRANCH 13 18
ENDBRANCH 11 13
ENDBRANCH 5 9
ENDBRANCH 1 2
BRANCH 1 28
ATOM     28  CB  LYS B  51      25.125 -24.088  -6.646  1.00 70.72 LIG 0.04  C 
BRANCH 28 29
ATOM     29  CG  LYS B  51      24.146 -25.206  -7.013  1.00 73.15 LIG 0.00  C 
BRANCH 29 30
ATOM     30  CD  LYS B  51      23.309 -24.799  -8.231  1.00 70.67 LIG 0.03  C 
BRANCH 30 31
ATOM     31  CE  LYS B  51      24.158 -24.755  -9.495  1.00 67.82 LIG 0.23  C 
BRANCH 31 32
ATOM     32  NZ  LYS B  51      23.494 -23.933 -10.532  1.00 73.20 LIG-0.08  N 
ATOM     33 HZ2  LYS B  51      24.045 -23.823 -11.222  1.00 73.20 LIG 0.27  HD
ATOM     34 HZ3  LYS B  51      22.754 -24.344 -10.807  1.00 73.20 LIG 0.27  HD
ATOM     35 HZ1  LYS B  51      23.283 -23.139 -10.191  1.00 73.20 LIG 0.27  HD
ENDBRANCH 31 32
ENDBRANCH 30 31
ENDBRANCH 29 30
ENDBRANCH 28 29
ENDBRANCH 1 28
BRANCH 1 36
ATOM     36  N   LYS B  51      25.750 -21.764  -6.191  1.00 65.69 LIG-0.35  N 
ATOM     37 H    LYS B  51      26.320 -22.142  -5.670  1.00 65.69 LIG 0.16  HD
ATOM     38  C   PRO B  50      25.845 -20.505  -6.616  1.00 68.91 LIG 0.24  C 
ATOM     39 O    PRO B  50      24.945 -19.960  -7.294  1.00 63.49 LIG-0.27  OA
BRANCH 38 40
ATOM     40  CA  PRO B  50      27.152 -19.736  -6.261  1.00 65.85 LIG 0.18  C 
ATOM     41  N   PRO B  50      27.789 -20.273  -5.034  1.00 60.71 LIG-0.34  N 
ATOM     42  CD  PRO B  50      28.920 -21.164  -5.374  1.00 60.54 LIG 0.13  C 
ATOM     43  C   ARG B  49      27.101 -20.109  -3.856  1.00 60.43 LIG 0.26  C 
ATOM     44  CG  PRO B  50      28.953 -21.169  -6.905  1.00 54.86 LIG 0.02  C 
ATOM     45  CB  PRO B  50      28.235 -19.937  -7.339  1.00 61.52 LIG 0.04  C 
ATOM     46 O    ARG B  49      25.976 -19.553  -3.804  1.00 53.87 LIG-0.27  OA
BRANCH 43 47
ATOM     47  CA  ARG B  49      27.735 -20.656  -2.543  1.00 56.75 LIG 0.40  C 
ATOM     48  N   ARG B  49      28.428 -21.998  -2.739  1.00 50.64 LIG 0.61  N 
BRANCH 47 49
ATOM     49  CB  ARG B  49      28.726 -19.614  -1.949  1.00 51.37 LIG 0.05  C 
BRANCH 49 50
ATOM     50  CG  ARG B  49      30.095 -19.545  -2.637  1.00 44.94 LIG 0.02  C 
BRANCH 50 51
ATOM     51  CD  ARG B  49      30.463 -18.087  -3.037  1.00 41.72 LIG 0.14  C 
BRANCH 51 52
ATOM     52  NE  ARG B  49      29.333 -17.164  -2.902  1.00 39.59 LIG-0.23  N 
ATOM     53 HE   ARG B  49      28.751 -17.167  -3.534  1.00 39.59 LIG 0.18  HD
ATOM     54  CZ  ARG B  49      29.122 -16.319  -1.889  1.00 39.90 LIG 0.67  C 
ATOM     55  NH1 ARG B  49      30.013 -16.210  -0.896  1.00 39.18 LIG-0.23  N 
ATOM     56  NH2 ARG B  49      28.033 -15.526  -1.900  1.00 31.35 LIG-0.23  N 
ATOM     57 2HH1 ARG B  49      29.870 -15.663  -0.247  1.00 39.18 LIG 0.17  HD
ATOM     58 1HH1 ARG B  49      30.729 -16.687  -0.906  1.00 39.18 LIG 0.17  HD
ATOM     59 1HH2 ARG B  49      27.478 -15.566  -2.556  1.00 31.35 LIG 0.17  HD
ATOM     60 2HH2 ARG B  49      27.893 -14.980  -1.251  1.00 31.35 LIG 0.17  HD
ENDBRANCH 51 52
ENDBRANCH 50 51
ENDBRANCH 49 50
ENDBRANCH 47 49
ENDBRANCH 43 47
ENDBRANCH 38 40
ENDBRANCH 1 36
TORSDOF 21
ENDMDL
MODEL 22
USER: ADFR SOLUTION from run 145
USER: SCORE 17.352190 LL:  -3.903 LR: -14.814 RR:   0.000 FEB:  -8.550
USER: RMSD 8.210897
USER: SEED 144
USER: STATUS no improvement in best in 12 clusters for 5 generations
USER: GENES 23
USER: genes 0 Translation |==|  0.71139 0.59338 0.52219
USER: genes 1 Rotation |==|  0.02073 0.53705 0.46143 0.63208
USER: genes 2 Torsion [N]-CA--C-[N] |==|  0.15859
USER: genes 3 Torsion [N]-CA--C-[O] |==|  0.80794
USER: genes 4 Torsion [C]-N--CA-[CB] |==|  0.80073
USER: genes 5 Torsion [N]-CA--CB-[CG] |==|  0.90473
USER: genes 6 Torsion [CA]-CB--CG-[CD1] |==|  0.90137
USER: genes 7 Torsion [N]-CA--C-[N] |==|  0.10266
USER: genes 8 Torsion [C]-N--CA-[CB] |==|  0.48065
USER: genes 9 Torsion [N]-CA--CB-[CG1] |==|  0.79486
USER: genes 10 Torsion [N]-CA--C-[O] |==|  0.66597
USER: genes 11 Torsion [C]-CA--CB-[CG] |==|  0.59192
USER: genes 12 Torsion [CA]-CB--CG-[CD] |==|  0.39173
USER: genes 13 Torsion [CB]-CG--CD-[CE] |==|  0.67857
USER: genes 14 Torsion [CG]-CD--CE-[NZ] |==|  0.39450
USER: genes 15 Torsion [CD]-CE--NZ-[HZ2] |==|  0.95605
USER: genes 16 Torsion [C]-CA--N-[C] |==|  0.67957
USER: genes 17 Torsion [N]-C--CA-[N] |==|  0.90893
USER: genes 18 Torsion [N]-C--CA-[N] |==|  0.35200
USER: genes 19 Torsion [C]-CA--CB-[CG] |==|  0.58613
USER: genes 20 Torsion [CA]-CB--CG-[CD] |==|  0.87646
USER: genes 21 Torsion [CB]-CG--CD-[NE] |==|  0.66183
USER: genes 22 Torsion [CG]-CD--NE-[HE] |==|  0.32675
ROOT
ATOM      1  CA  LYS B  51      27.918 -20.731  -4.176  1.00 67.60 LIG 0.18  C 
ENDROOT
BRANCH 1 2
ATOM      2  C   LYS B  51      26.606 -20.651  -5.023  1.00 65.68 LIG 0.24  C 
ATOM      3  N   PRO B  52      26.571 -21.280  -6.230  1.00 68.58 LIG-0.34  N 
ATOM      4  CD  PRO B  52      27.647 -21.726  -7.147  1.00 71.17 LIG 0.13  C 
ATOM      5  CA  PRO B  52      25.237 -21.314  -6.884  1.00 62.52 LIG 0.18  C 
ATOM      6  CG  PRO B  52      26.983 -21.670  -8.508  1.00 68.49 LIG 0.02  C 
ATOM      7  CB  PRO B  52      25.531 -21.946  -8.250  1.00 62.23 LIG 0.04  C 
ATOM      8 O    LYS B  51      25.653 -19.954  -4.629  1.00 49.94 LIG-0.27  OA
BRANCH 5 9
ATOM      9  C   PRO B  52      24.194 -22.144  -6.079  1.00 62.23 LIG 0.24  C 
ATOM     10 O    PRO B  52      24.324 -23.382  -6.004  1.00 52.82 LIG-0.27  OA
ATOM     11  N   LEU B  53      23.233 -21.453  -5.433  1.00 59.38 LIG-0.35  N 
ATOM     12 H    LEU B  53      23.236 -20.595  -5.374  1.00 59.38 LIG 0.16  HD
BRANCH 11 13
ATOM     13  CA  LEU B  53      22.077 -22.082  -4.760  1.00 58.77 LIG 0.18  C 
BRANCH 13 14
ATOM     14  CB  LEU B  53      21.046 -22.658  -5.772  1.00 52.29 LIG 0.04  C 
BRANCH 14 15
ATOM     15  CG  LEU B  53      20.831 -21.907  -7.123  1.00 62.01 LIG-0.02  C 
ATOM     16  CD2 LEU B  53      21.751 -22.422  -8.239  1.00 53.58 LIG 0.01  C 
ATOM     17  CD1 LEU B  53      20.936 -20.368  -7.004  1.00 50.45 LIG 0.01  C 
ENDBRANCH 14 15
ENDBRANCH 13 14
BRANCH 13 18
ATOM     18  C   LEU B  53      22.621 -23.178  -3.815  1.00 60.22 LIG 0.24  C 
ATOM     19  N   VAL B  54      23.776 -22.931  -3.174  1.00 61.95 LIG-0.35  N 
ATOM     20 H    VAL B  54      24.197 -22.182  -3.212  1.00 61.95 LIG 0.16  HD
ATOM     21 O    LEU B  53      22.013 -24.248  -3.700  1.00 54.25 LIG-0.27  OA
BRANCH 19 22
ATOM     22  CA  VAL B  54      24.434 -23.969  -2.326  1.00 71.55 LIG 0.17  C 
BRANCH 22 23
ATOM     23  CB  VAL B  54      25.861 -23.554  -1.799  1.00 67.56 LIG 0.01  C 
ATOM     24  CG1 VAL B  54      26.917 -23.604  -2.908  1.00 60.73 LIG 0.01  C 
ATOM     25  CG2 VAL B  54      25.854 -22.167  -1.159  1.00 61.59 LIG 0.01  C 
ENDBRANCH 22 23
BRANCH 22 26
ATOM     26  C   VAL B  54      23.524 -24.424  -1.179  1.00 64.78 LIG 0.22  C 
ATOM     27 O    VAL B  54      23.881 -24.288  -0.019  1.00 73.26 LIG-0.29  OA
ENDBRANCH 22 26
ENDBRANCH 19 22
ENDBRANCH 13 18
ENDBRANCH 11 13
ENDBRANCH 5 9
ENDBRANCH 1 2
BRANCH 1 28
ATOM     28  CB  LYS B  51      27.903 -20.019  -2.799  1.00 70.72 LIG 0.04  C 
BRANCH 28 29
ATOM     29  CG  LYS B  51      29.188 -19.383  -2.263  1.00 73.15 LIG 0.00  C 
BRANCH 29 30
ATOM     30  CD  LYS B  51      28.871 -18.057  -1.562  1.00 70.67 LIG 0.03  C 
BRANCH 30 31
ATOM     31  CE  LYS B  51      29.509 -16.881  -2.290  1.00 67.82 LIG 0.23  C 
BRANCH 31 32
ATOM     32  NZ  LYS B  51      28.601 -15.712  -2.274  1.00 73.20 LIG-0.08  N 
ATOM     33 HZ2  LYS B  51      27.780 -15.976  -2.053  1.00 73.20 LIG 0.27  HD
ATOM     34 HZ3  LYS B  51      28.891 -15.118  -1.679  1.00 73.20 LIG 0.27  HD
ATOM     35 HZ1  LYS B  51      28.583 -15.338  -3.082  1.00 73.20 LIG 0.27  HD
ENDBRANCH 31 32
ENDBRANCH 30 31
ENDBRANCH 29 30
ENDBRANCH 28 29
ENDBRANCH 1 28
BRANCH 1 36
ATOM     36  N   LYS B  51      29.047 -20.208  -4.955  1.00 65.69 LIG-0.35  N 
ATOM     37 H    LYS B  51      28.992 -19.372  -5.149  1.00 65.69 LIG 0.16  HD
ATOM     38  C   PRO B  50      30.058 -20.995  -5.317  1.00 68.91 LIG 0.24  C 
ATOM     39 O    PRO B  50      30.055 -22.228  -5.100  1.00 63.49 LIG-0.27  OA
BRANCH 38 40
ATOM     40  CA  PRO B  50      31.279 -20.309  -5.999  1.00 65.85 LIG 0.18  C 
ATOM     41  N   PRO B  50      30.867 -19.140  -6.812  1.00 60.71 LIG-0.34  N 
ATOM     42  CD  PRO B  50      31.117 -17.876  -6.083  1.00 60.54 LIG 0.13  C 
ATOM     43  C   ARG B  49      30.100 -19.396  -7.923  1.00 60.43 LIG 0.26  C 
ATOM     44  CG  PRO B  50      31.705 -18.322  -4.741  1.00 54.86 LIG 0.02  C 
ATOM     45  CB  PRO B  50      32.237 -19.697  -4.958  1.00 61.52 LIG 0.04  C 
ATOM     46 O    ARG B  49      29.737 -20.556  -8.238  1.00 53.87 LIG-0.27  OA
BRANCH 43 47
ATOM     47  CA  ARG B  49      29.648 -18.197  -8.807  1.00 56.75 LIG 0.40  C 
ATOM     48  N   ARG B  49      30.009 -18.379 -10.275  1.00 50.64 LIG 0.61  N 
BRANCH 47 49
ATOM     49  CB  ARG B  49      28.118 -17.958  -8.650  1.00 51.37 LIG 0.05  C 
BRANCH 49 50
ATOM     50  CG  ARG B  49      27.412 -17.396  -9.889  1.00 44.94 LIG 0.02  C 
BRANCH 50 51
ATOM     51  CD  ARG B  49      28.225 -16.239 -10.539  1.00 41.72 LIG 0.14  C 
BRANCH 51 52
ATOM     52  NE  ARG B  49      27.465 -14.990 -10.614  1.00 39.59 LIG-0.23  N 
ATOM     53 HE   ARG B  49      27.775 -14.319 -10.175  1.00 39.59 LIG 0.18  HD
ATOM     54  CZ  ARG B  49      26.336 -14.794 -11.300  1.00 39.90 LIG 0.67  C 
ATOM     55  NH1 ARG B  49      25.755 -15.804 -11.959  1.00 39.18 LIG-0.23  N 
ATOM     56  NH2 ARG B  49      25.744 -13.583 -11.276  1.00 31.35 LIG-0.23  N 
ATOM     57 2HH1 ARG B  49      25.027 -15.669 -12.399  1.00 39.18 LIG 0.17  HD
ATOM     58 1HH1 ARG B  49      26.109 -16.588 -11.944  1.00 39.18 LIG 0.17  HD
ATOM     59 1HH2 ARG B  49      26.095 -12.942 -10.822  1.00 31.35 LIG 0.17  HD
ATOM     60 2HH2 ARG B  49      25.017 -13.452 -11.715  1.00 31.35 LIG 0.17  HD
ENDBRANCH 51 52
ENDBRANCH 50 51
ENDBRANCH 49 50
ENDBRANCH 47 49
ENDBRANCH 43 47
ENDBRANCH 38 40
ENDBRANCH 1 36
TORSDOF 21
ENDMDL
MODEL 23
USER: ADFR SOLUTION from run 91
USER: SCORE 18.678848 LL:  -4.257 LR: -14.810 RR:   0.000 FEB:  -8.546
USER: RMSD 6.355540
USER: SEED 90
USER: STATUS no improvement in best in 1 clusters for 5 generations
USER: GENES 23
USER: genes 0 Translation |==|  0.66464 0.65340 0.33574
USER: genes 1 Rotation |==|  0.74832 0.32844 0.63904 0.87359
USER: genes 2 Torsion [N]-CA--C-[N] |==|  0.90666
USER: genes 3 Torsion [N]-CA--C-[O] |==|  0.29654
USER: genes 4 Torsion [C]-N--CA-[CB] |==|  0.18889
USER: genes 5 Torsion [N]-CA--CB-[CG] |==|  0.10591
USER: genes 6 Torsion [CA]-CB--CG-[CD1] |==|  0.06908
USER: genes 7 Torsion [N]-CA--C-[N] |==|  0.09237
USER: genes 8 Torsion [C]-N--CA-[CB] |==|  0.40200
USER: genes 9 Torsion [N]-CA--CB-[CG1] |==|  0.74554
USER: genes 10 Torsion [N]-CA--C-[O] |==|  0.59463
USER: genes 11 Torsion [C]-CA--CB-[CG] |==|  0.24599
USER: genes 12 Torsion [CA]-CB--CG-[CD] |==|  0.76421
USER: genes 13 Torsion [CB]-CG--CD-[CE] |==|  0.26290
USER: genes 14 Torsion [CG]-CD--CE-[NZ] |==|  0.32807
USER: genes 15 Torsion [CD]-CE--NZ-[HZ2] |==|  0.50216
USER: genes 16 Torsion [C]-CA--N-[C] |==|  0.75675
USER: genes 17 Torsion [N]-C--CA-[N] |==|  0.20688
USER: genes 18 Torsion [N]-C--CA-[N] |==|  0.31803
USER: genes 19 Torsion [C]-CA--CB-[CG] |==|  0.18808
USER: genes 20 Torsion [CA]-CB--CG-[CD] |==|  0.10413
USER: genes 21 Torsion [CB]-CG--CD-[NE] |==|  0.59038
USER: genes 22 Torsion [CG]-CD--NE-[HE] |==|  0.12265
ROOT
ATOM      1  CA  LYS B  51      26.691 -19.381  -7.112  1.00 67.60 LIG 0.18  C 
ENDROOT
BRANCH 1 2
ATOM      2  C   LYS B  51      25.341 -19.786  -7.791  1.00 65.68 LIG 0.24  C 
ATOM      3  N   PRO B  52      25.101 -21.105  -8.026  1.00 68.58 LIG-0.34  N 
ATOM      4  CD  PRO B  52      26.007 -22.272  -8.144  1.00 71.17 LIG 0.13  C 
ATOM      5  CA  PRO B  52      23.728 -21.421  -8.500  1.00 62.52 LIG 0.18  C 
ATOM      6  CG  PRO B  52      25.247 -23.205  -9.064  1.00 68.49 LIG 0.02  C 
ATOM      7  CB  PRO B  52      23.798 -22.922  -8.804  1.00 62.23 LIG 0.04  C 
ATOM      8 O    LYS B  51      24.552 -18.905  -8.179  1.00 49.94 LIG-0.27  OA
BRANCH 5 9
ATOM      9  C   PRO B  52      22.638 -21.098  -7.437  1.00 62.23 LIG 0.24  C 
ATOM     10 O    PRO B  52      21.898 -20.108  -7.600  1.00 52.82 LIG-0.27  OA
ATOM     11  N   LEU B  53      22.504 -21.970  -6.417  1.00 59.38 LIG-0.35  N 
ATOM     12 H    LEU B  53      22.920 -22.722  -6.390  1.00 59.38 LIG 0.16  HD
BRANCH 11 13
ATOM     13  CA  LEU B  53      21.637 -21.738  -5.242  1.00 58.77 LIG 0.18  C 
BRANCH 13 14
ATOM     14  CB  LEU B  53      20.126 -21.755  -5.610  1.00 52.29 LIG 0.04  C 
BRANCH 14 15
ATOM     15  CG  LEU B  53      19.632 -22.784  -6.673  1.00 62.01 LIG-0.02  C 
ATOM     16  CD2 LEU B  53      18.167 -23.195  -6.464  1.00 53.58 LIG 0.01  C 
ATOM     17  CD1 LEU B  53      20.532 -24.037  -6.794  1.00 50.45 LIG 0.01  C 
ENDBRANCH 14 15
ENDBRANCH 13 14
BRANCH 13 18
ATOM     18  C   LEU B  53      21.978 -22.816  -4.186  1.00 60.22 LIG 0.24  C 
ATOM     19  N   VAL B  54      23.251 -23.241  -4.119  1.00 61.95 LIG-0.35  N 
ATOM     20 H    VAL B  54      23.895 -22.909  -4.583  1.00 61.95 LIG 0.16  HD
ATOM     21 O    LEU B  53      21.084 -23.277  -3.468  1.00 54.25 LIG-0.27  OA
BRANCH 19 22
ATOM     22  CA  VAL B  54      23.654 -24.352  -3.206  1.00 71.55 LIG 0.17  C 
BRANCH 22 23
ATOM     23  CB  VAL B  54      24.787 -25.281  -3.791  1.00 67.56 LIG 0.01  C 
ATOM     24  CG1 VAL B  54      24.209 -26.476  -4.554  1.00 60.73 LIG 0.01  C 
ATOM     25  CG2 VAL B  54      25.749 -24.511  -4.694  1.00 61.59 LIG 0.01  C 
ENDBRANCH 22 23
BRANCH 22 26
ATOM     26  C   VAL B  54      24.017 -23.836  -1.809  1.00 64.78 LIG 0.22  C 
ATOM     27 O    VAL B  54      24.896 -24.383  -1.161  1.00 73.26 LIG-0.29  OA
ENDBRANCH 22 26
ENDBRANCH 19 22
ENDBRANCH 13 18
ENDBRANCH 11 13
ENDBRANCH 5 9
ENDBRANCH 1 2
BRANCH 1 28
ATOM     28  CB  LYS B  51      27.883 -19.079  -8.056  1.00 70.72 LIG 0.04  C 
BRANCH 28 29
ATOM     29  CG  LYS B  51      28.085 -17.659  -8.589  1.00 73.15 LIG 0.00  C 
BRANCH 29 30
ATOM     30  CD  LYS B  51      27.232 -17.437  -9.843  1.00 70.67 LIG 0.03  C 
BRANCH 30 31
ATOM     31  CE  LYS B  51      25.894 -16.795  -9.496  1.00 67.82 LIG 0.23  C 
BRANCH 31 32
ATOM     32  NZ  LYS B  51      25.773 -15.473 -10.153  1.00 73.20 LIG-0.08  N 
ATOM     33 HZ2  LYS B  51      24.994 -15.103  -9.934  1.00 73.20 LIG 0.27  HD
ATOM     34 HZ3  LYS B  51      26.437 -14.946  -9.884  1.00 73.20 LIG 0.27  HD
ATOM     35 HZ1  LYS B  51      25.815 -15.576 -11.036  1.00 73.20 LIG 0.27  HD
ENDBRANCH 31 32
ENDBRANCH 30 31
ENDBRANCH 29 30
ENDBRANCH 28 29
ENDBRANCH 1 28
BRANCH 1 36
ATOM     36  N   LYS B  51      27.103 -20.422  -6.162  1.00 65.69 LIG-0.35  N 
ATOM     37 H    LYS B  51      27.625 -21.021  -6.491  1.00 65.69 LIG 0.16  HD
ATOM     38  C   PRO B  50      26.682 -20.409  -4.899  1.00 68.91 LIG 0.24  C 
ATOM     39 O    PRO B  50      25.845 -19.575  -4.483  1.00 63.49 LIG-0.27  OA
BRANCH 38 40
ATOM     40  CA  PRO B  50      27.304 -21.462  -3.935  1.00 65.85 LIG 0.18  C 
ATOM     41  N   PRO B  50      28.694 -21.109  -3.560  1.00 60.71 LIG-0.34  N 
ATOM     42  CD  PRO B  50      28.736 -20.493  -2.214  1.00 60.54 LIG 0.13  C 
ATOM     43  C   ARG B  49      29.633 -21.134  -4.562  1.00 60.43 LIG 0.26  C 
ATOM     44  CG  PRO B  50      27.274 -20.467  -1.763  1.00 54.86 LIG 0.02  C 
ATOM     45  CB  PRO B  50      26.568 -21.493  -2.581  1.00 61.52 LIG 0.04  C 
ATOM     46 O    ARG B  49      29.343 -21.419  -5.751  1.00 53.87 LIG-0.27  OA
BRANCH 43 47
ATOM     47  CA  ARG B  49      31.106 -20.772  -4.211  1.00 56.75 LIG 0.40  C 
ATOM     48  N   ARG B  49      32.058 -21.949  -4.376  1.00 50.64 LIG 0.61  N 
BRANCH 47 49
ATOM     49  CB  ARG B  49      31.584 -19.564  -5.068  1.00 51.37 LIG 0.05  C 
BRANCH 49 50
ATOM     50  CG  ARG B  49      30.900 -18.227  -4.756  1.00 44.94 LIG 0.02  C 
BRANCH 50 51
ATOM     51  CD  ARG B  49      30.633 -18.061  -3.232  1.00 41.72 LIG 0.14  C 
BRANCH 51 52
ATOM     52  NE  ARG B  49      29.415 -17.295  -2.954  1.00 39.59 LIG-0.23  N 
ATOM     53 HE   ARG B  49      28.720 -17.487  -3.421  1.00 39.59 LIG 0.18  HD
ATOM     54  CZ  ARG B  49      29.284 -16.326  -2.045  1.00 39.90 LIG 0.67  C 
ATOM     55  NH1 ARG B  49      30.335 -15.924  -1.320  1.00 39.18 LIG-0.23  N 
ATOM     56  NH2 ARG B  49      28.096 -15.706  -1.900  1.00 31.35 LIG-0.23  N 
ATOM     57 2HH1 ARG B  49      30.242 -15.299  -0.736  1.00 39.18 LIG 0.17  HD
ATOM     58 1HH1 ARG B  49      31.104 -16.291  -1.438  1.00 39.18 LIG 0.17  HD
ATOM     59 1HH2 ARG B  49      27.428 -15.935  -2.391  1.00 31.35 LIG 0.17  HD
ATOM     60 2HH2 ARG B  49      28.006 -15.081  -1.316  1.00 31.35 LIG 0.17  HD
ENDBRANCH 51 52
ENDBRANCH 50 51
ENDBRANCH 49 50
ENDBRANCH 47 49
ENDBRANCH 43 47
ENDBRANCH 38 40
ENDBRANCH 1 36
TORSDOF 21
ENDMDL
MODEL 24
USER: ADFR SOLUTION from run 137
USER: SCORE 18.197472 LL:  -3.641 LR: -14.806 RR:   0.000 FEB:  -8.542
USER: RMSD 4.608602
USER: SEED 136
USER: STATUS no improvement in best in 4 clusters for 5 generations
USER: GENES 23
USER: genes 0 Translation |==|  0.52140 0.54229 0.36885
USER: genes 1 Rotation |==|  0.86045 0.64439 0.68967 0.75150
USER: genes 2 Torsion [N]-CA--C-[N] |==|  0.31138
USER: genes 3 Torsion [N]-CA--C-[O] |==|  0.56744
USER: genes 4 Torsion [C]-N--CA-[CB] |==|  0.86097
USER: genes 5 Torsion [N]-CA--CB-[CG] |==|  0.60944
USER: genes 6 Torsion [CA]-CB--CG-[CD1] |==|  0.87378
USER: genes 7 Torsion [N]-CA--C-[N] |==|  0.37239
USER: genes 8 Torsion [C]-N--CA-[CB] |==|  0.76145
USER: genes 9 Torsion [N]-CA--CB-[CG1] |==|  0.45109
USER: genes 10 Torsion [N]-CA--C-[O] |==|  0.24601
USER: genes 11 Torsion [C]-CA--CB-[CG] |==|  0.26068
USER: genes 12 Torsion [CA]-CB--CG-[CD] |==|  0.95082
USER: genes 13 Torsion [CB]-CG--CD-[CE] |==|  0.71783
USER: genes 14 Torsion [CG]-CD--CE-[NZ] |==|  0.44577
USER: genes 15 Torsion [CD]-CE--NZ-[HZ2] |==|  0.02182
USER: genes 16 Torsion [C]-CA--N-[C] |==|  0.71269
USER: genes 17 Torsion [N]-C--CA-[N] |==|  0.52023
USER: genes 18 Torsion [N]-C--CA-[N] |==|  0.82893
USER: genes 19 Torsion [C]-CA--CB-[CG] |==|  0.33424
USER: genes 20 Torsion [CA]-CB--CG-[CD] |==|  0.17845
USER: genes 21 Torsion [CB]-CG--CD-[NE] |==|  0.53657
USER: genes 22 Torsion [CG]-CD--NE-[HE] |==|  0.15032
ROOT
ATOM      1  CA  LYS B  51      22.931 -21.880  -6.591  1.00 67.60 LIG 0.18  C 
ENDROOT
BRANCH 1 2
ATOM      2  C   LYS B  51      22.620 -23.413  -6.577  1.00 65.68 LIG 0.24  C 
ATOM      3  N   PRO B  52      22.164 -23.975  -5.423  1.00 68.58 LIG-0.34  N 
ATOM      4  CD  PRO B  52      22.249 -23.541  -4.008  1.00 71.17 LIG 0.13  C 
ATOM      5  CA  PRO B  52      21.718 -25.387  -5.544  1.00 62.52 LIG 0.18  C 
ATOM      6  CG  PRO B  52      22.212 -24.850  -3.246  1.00 68.49 LIG 0.02  C 
ATOM      7  CB  PRO B  52      21.397 -25.779  -4.096  1.00 62.23 LIG 0.04  C 
ATOM      8 O    LYS B  51      22.872 -24.107  -7.579  1.00 49.94 LIG-0.27  OA
BRANCH 5 9
ATOM      9  C   PRO B  52      20.479 -25.549  -6.472  1.00 62.23 LIG 0.24  C 
ATOM     10 O    PRO B  52      19.729 -26.534  -6.326  1.00 52.82 LIG-0.27  OA
ATOM     11  N   LEU B  53      20.241 -24.553  -7.350  1.00 59.38 LIG-0.35  N 
ATOM     12 H    LEU B  53      20.680 -23.814  -7.345  1.00 59.38 LIG 0.16  HD
BRANCH 11 13
ATOM     13  CA  LEU B  53      19.212 -24.616  -8.410  1.00 58.77 LIG 0.18  C 
BRANCH 13 14
ATOM     14  CB  LEU B  53      19.305 -25.924  -9.246  1.00 52.29 LIG 0.04  C 
BRANCH 14 15
ATOM     15  CG  LEU B  53      19.072 -25.840 -10.786  1.00 62.01 LIG-0.02  C 
ATOM     16  CD2 LEU B  53      20.319 -25.374 -11.550  1.00 53.58 LIG 0.01  C 
ATOM     17  CD1 LEU B  53      17.844 -24.987 -11.185  1.00 50.45 LIG 0.01  C 
ENDBRANCH 14 15
ENDBRANCH 13 14
BRANCH 13 18
ATOM     18  C   LEU B  53      17.830 -24.470  -7.732  1.00 60.22 LIG 0.24  C 
ATOM     19  N   VAL B  54      16.948 -23.623  -8.291  1.00 61.95 LIG-0.35  N 
ATOM     20 H    VAL B  54      17.084 -23.207  -9.031  1.00 61.95 LIG 0.16  HD
ATOM     21 O    LEU B  53      17.586 -25.095  -6.694  1.00 54.25 LIG-0.27  OA
BRANCH 19 22
ATOM     22  CA  VAL B  54      15.631 -23.336  -7.650  1.00 71.55 LIG 0.17  C 
BRANCH 22 23
ATOM     23  CB  VAL B  54      14.500 -24.371  -8.022  1.00 67.56 LIG 0.01  C 
ATOM     24  CG1 VAL B  54      13.325 -24.311  -7.042  1.00 60.73 LIG 0.01  C 
ATOM     25  CG2 VAL B  54      13.991 -24.175  -9.448  1.00 61.59 LIG 0.01  C 
ENDBRANCH 22 23
BRANCH 22 26
ATOM     26  C   VAL B  54      15.763 -23.172  -6.131  1.00 64.78 LIG 0.22  C 
ATOM     27 O    VAL B  54      16.006 -22.077  -5.649  1.00 73.26 LIG-0.29  OA
ENDBRANCH 22 26
ENDBRANCH 19 22
ENDBRANCH 13 18
ENDBRANCH 11 13
ENDBRANCH 5 9
ENDBRANCH 1 2
BRANCH 1 28
ATOM     28  CB  LYS B  51      22.202 -21.031  -7.663  1.00 70.72 LIG 0.04  C 
BRANCH 28 29
ATOM     29  CG  LYS B  51      20.886 -20.333  -7.309  1.00 73.15 LIG 0.00  C 
BRANCH 29 30
ATOM     30  CD  LYS B  51      20.280 -20.954  -6.045  1.00 70.67 LIG 0.03  C 
BRANCH 30 31
ATOM     31  CE  LYS B  51      19.146 -21.911  -6.389  1.00 67.82 LIG 0.23  C 
BRANCH 31 32
ATOM     32  NZ  LYS B  51      18.890 -22.832  -5.258  1.00 73.20 LIG-0.08  N 
ATOM     33 HZ2  LYS B  51      19.370 -22.577  -4.553  1.00 73.20 LIG 0.27  HD
ATOM     34 HZ3  LYS B  51      18.025 -22.814  -5.050  1.00 73.20 LIG 0.27  HD
ATOM     35 HZ1  LYS B  51      19.122 -23.659  -5.491  1.00 73.20 LIG 0.27  HD
ENDBRANCH 31 32
ENDBRANCH 30 31
ENDBRANCH 29 30
ENDBRANCH 28 29
ENDBRANCH 1 28
BRANCH 1 36
ATOM     36  N   LYS B  51      24.377 -21.666  -6.734  1.00 65.69 LIG-0.35  N 
ATOM     37 H    LYS B  51      24.680 -21.785  -7.530  1.00 65.69 LIG 0.16  HD
ATOM     38  C   PRO B  50      25.128 -21.316  -5.691  1.00 68.91 LIG 0.24  C 
ATOM     39 O    PRO B  50      24.667 -21.247  -4.529  1.00 63.49 LIG-0.27  OA
BRANCH 38 40
ATOM     40  CA  PRO B  50      26.616 -20.956  -5.981  1.00 65.85 LIG 0.18  C 
ATOM     41  N   PRO B  50      27.385 -20.754  -4.730  1.00 60.71 LIG-0.34  N 
ATOM     42  CD  PRO B  50      28.191 -21.953  -4.408  1.00 60.54 LIG 0.13  C 
ATOM     43  C   ARG B  49      27.036 -19.675  -3.956  1.00 60.43 LIG 0.26  C 
ATOM     44  CG  PRO B  50      27.871 -22.940  -5.534  1.00 54.86 LIG 0.02  C 
ATOM     45  CB  PRO B  50      27.355 -22.122  -6.668  1.00 61.52 LIG 0.04  C 
ATOM     46 O    ARG B  49      26.099 -18.898  -4.264  1.00 53.87 LIG-0.27  OA
BRANCH 43 47
ATOM     47  CA  ARG B  49      27.821 -19.424  -2.634  1.00 56.75 LIG 0.40  C 
ATOM     48  N   ARG B  49      27.684 -20.571  -1.641  1.00 50.64 LIG 0.61  N 
BRANCH 47 49
ATOM     49  CB  ARG B  49      29.322 -19.149  -2.942  1.00 51.37 LIG 0.05  C 
BRANCH 49 50
ATOM     50  CG  ARG B  49      29.849 -17.788  -2.472  1.00 44.94 LIG 0.02  C 
BRANCH 50 51
ATOM     51  CD  ARG B  49      29.809 -17.661  -0.921  1.00 41.72 LIG 0.14  C 
BRANCH 51 52
ATOM     52  NE  ARG B  49      30.010 -16.284  -0.464  1.00 39.59 LIG-0.23  N 
ATOM     53 HE   ARG B  49      29.489 -15.685  -0.793  1.00 39.59 LIG 0.18  HD
ATOM     54  CZ  ARG B  49      30.926 -15.871   0.415  1.00 39.90 LIG 0.67  C 
ATOM     55  NH1 ARG B  49      31.816 -16.731   0.927  1.00 39.18 LIG-0.23  N 
ATOM     56  NH2 ARG B  49      30.994 -14.566   0.743  1.00 31.35 LIG-0.23  N 
ATOM     57 2HH1 ARG B  49      32.403 -16.457   1.493  1.00 39.18 LIG 0.17  HD
ATOM     58 1HH1 ARG B  49      31.800 -17.558   0.690  1.00 39.18 LIG 0.17  HD
ATOM     59 1HH2 ARG B  49      30.449 -14.004   0.386  1.00 31.35 LIG 0.17  HD
ATOM     60 2HH2 ARG B  49      31.582 -14.294   1.308  1.00 31.35 LIG 0.17  HD
ENDBRANCH 51 52
ENDBRANCH 50 51
ENDBRANCH 49 50
ENDBRANCH 47 49
ENDBRANCH 43 47
ENDBRANCH 38 40
ENDBRANCH 1 36
TORSDOF 21
ENDMDL
MODEL 25
USER: ADFR SOLUTION from run 21
USER: SCORE 17.226424 LL:  -3.150 LR: -14.761 RR:   0.000 FEB:  -8.497
USER: RMSD 3.905807
USER: SEED 20
USER: STATUS no improvement in best in 12 clusters for 5 generations
USER: GENES 23
USER: genes 0 Translation |==|  0.58844 0.51476 0.35706
USER: genes 1 Rotation |==|  0.32997 0.63471 0.64258 0.92733
USER: genes 2 Torsion [N]-CA--C-[N] |==|  0.30000
USER: genes 3 Torsion [N]-CA--C-[O] |==|  0.02876
USER: genes 4 Torsion [C]-N--CA-[CB] |==|  0.51120
USER: genes 5 Torsion [N]-CA--CB-[CG] |==|  0.25185
USER: genes 6 Torsion [CA]-CB--CG-[CD1] |==|  0.51311
USER: genes 7 Torsion [N]-CA--C-[N] |==|  0.42692
USER: genes 8 Torsion [C]-N--CA-[CB] |==|  0.36853
USER: genes 9 Torsion [N]-CA--CB-[CG1] |==|  0.91395
USER: genes 10 Torsion [N]-CA--C-[O] |==|  0.10571
USER: genes 11 Torsion [C]-CA--CB-[CG] |==|  0.18107
USER: genes 12 Torsion [CA]-CB--CG-[CD] |==|  0.09795
USER: genes 13 Torsion [CB]-CG--CD-[CE] |==|  0.22240
USER: genes 14 Torsion [CG]-CD--CE-[NZ] |==|  0.56589
USER: genes 15 Torsion [CD]-CE--NZ-[HZ2] |==|  0.40261
USER: genes 16 Torsion [C]-CA--N-[C] |==|  0.77762
USER: genes 17 Torsion [N]-C--CA-[N] |==|  0.94127
USER: genes 18 Torsion [N]-C--CA-[N] |==|  0.05697
USER: genes 19 Torsion [C]-CA--CB-[CG] |==|  0.75063
USER: genes 20 Torsion [CA]-CB--CG-[CD] |==|  0.64560
USER: genes 21 Torsion [CB]-CG--CD-[NE] |==|  0.57559
USER: genes 22 Torsion [CG]-CD--NE-[HE] |==|  0.05458
ROOT
ATOM      1  CA  LYS B  51      24.690 -22.500  -6.776  1.00 67.60 LIG 0.18  C 
ENDROOT
BRANCH 1 2
ATOM      2  C   LYS B  51      23.528 -22.240  -5.763  1.00 65.68 LIG 0.24  C 
ATOM      3  N   PRO B  52      22.343 -21.766  -6.238  1.00 68.58 LIG-0.34  N 
ATOM      4  CD  PRO B  52      21.992 -21.050  -7.488  1.00 71.17 LIG 0.13  C 
ATOM      5  CA  PRO B  52      21.238 -21.723  -5.246  1.00 62.52 LIG 0.18  C 
ATOM      6  CG  PRO B  52      20.779 -20.234  -7.085  1.00 68.49 LIG 0.02  C 
ATOM      7  CB  PRO B  52      20.102 -21.035  -6.014  1.00 62.23 LIG 0.04  C 
ATOM      8 O    LYS B  51      23.723 -22.385  -4.543  1.00 49.94 LIG-0.27  OA
BRANCH 5 9
ATOM      9  C   PRO B  52      20.822 -23.139  -4.749  1.00 62.23 LIG 0.24  C 
ATOM     10 O    PRO B  52      21.531 -24.122  -5.040  1.00 52.82 LIG-0.27  OA
ATOM     11  N   LEU B  53      19.736 -23.211  -3.952  1.00 59.38 LIG-0.35  N 
ATOM     12 H    LEU B  53      19.339 -22.513  -3.643  1.00 59.38 LIG 0.16  HD
BRANCH 11 13
ATOM     13  CA  LEU B  53      19.109 -24.479  -3.525  1.00 58.77 LIG 0.18  C 
BRANCH 13 14
ATOM     14  CB  LEU B  53      17.815 -24.247  -2.693  1.00 52.29 LIG 0.04  C 
BRANCH 14 15
ATOM     15  CG  LEU B  53      16.451 -24.172  -3.446  1.00 62.01 LIG-0.02  C 
ATOM     16  CD2 LEU B  53      16.494 -23.229  -4.657  1.00 53.58 LIG 0.01  C 
ATOM     17  CD1 LEU B  53      15.252 -23.824  -2.532  1.00 50.45 LIG 0.01  C 
ENDBRANCH 14 15
ENDBRANCH 13 14
BRANCH 13 18
ATOM     18  C   LEU B  53      18.828 -25.316  -4.794  1.00 60.22 LIG 0.24  C 
ATOM     19  N   VAL B  54      18.779 -26.653  -4.660  1.00 61.95 LIG-0.35  N 
ATOM     20 H    VAL B  54      18.834 -27.064  -3.907  1.00 61.95 LIG 0.16  HD
ATOM     21 O    LEU B  53      18.693 -24.751  -5.885  1.00 54.25 LIG-0.27  OA
BRANCH 19 22
ATOM     22  CA  VAL B  54      18.619 -27.548  -5.845  1.00 71.55 LIG 0.17  C 
BRANCH 22 23
ATOM     23  CB  VAL B  54      19.627 -28.761  -5.869  1.00 67.56 LIG 0.01  C 
ATOM     24  CG1 VAL B  54      20.959 -28.411  -5.201  1.00 60.73 LIG 0.01  C 
ATOM     25  CG2 VAL B  54      19.036 -30.009  -5.215  1.00 61.59 LIG 0.01  C 
ENDBRANCH 22 23
BRANCH 22 26
ATOM     26  C   VAL B  54      17.170 -28.020  -6.009  1.00 64.78 LIG 0.22  C 
ATOM     27 O    VAL B  54      16.245 -27.258  -5.775  1.00 73.26 LIG-0.29  OA
ENDBRANCH 22 26
ENDBRANCH 19 22
ENDBRANCH 13 18
ENDBRANCH 11 13
ENDBRANCH 5 9
ENDBRANCH 1 2
BRANCH 1 28
ATOM     28  CB  LYS B  51      25.358 -23.898  -6.727  1.00 70.72 LIG 0.04  C 
BRANCH 28 29
ATOM     29  CG  LYS B  51      24.543 -25.139  -7.100  1.00 73.15 LIG 0.00  C 
BRANCH 29 30
ATOM     30  CD  LYS B  51      23.557 -24.807  -8.225  1.00 70.67 LIG 0.03  C 
BRANCH 30 31
ATOM     31  CE  LYS B  51      24.247 -24.807  -9.583  1.00 67.82 LIG 0.23  C 
BRANCH 31 32
ATOM     32  NZ  LYS B  51      23.494 -23.969 -10.543  1.00 73.20 LIG-0.08  N 
ATOM     33 HZ2  LYS B  51      24.063 -23.560 -11.092  1.00 73.20 LIG 0.27  HD
ATOM     34 HZ3  LYS B  51      22.944 -24.483 -11.017  1.00 73.20 LIG 0.27  HD
ATOM     35 HZ1  LYS B  51      23.022 -23.360 -10.098  1.00 73.20 LIG 0.27  HD
ENDBRANCH 31 32
ENDBRANCH 30 31
ENDBRANCH 29 30
ENDBRANCH 28 29
ENDBRANCH 1 28
BRANCH 1 36
ATOM     36  N   LYS B  51      25.735 -21.481  -6.608  1.00 65.69 LIG-0.35  N 
ATOM     37 H    LYS B  51      26.414 -21.737  -6.147  1.00 65.69 LIG 0.16  HD
ATOM     38  C   PRO B  50      25.606 -20.268  -7.142  1.00 68.91 LIG 0.24  C 
ATOM     39 O    PRO B  50      24.560 -19.902  -7.725  1.00 63.49 LIG-0.27  OA
BRANCH 38 40
ATOM     40  CA  PRO B  50      26.837 -19.318  -7.044  1.00 65.85 LIG 0.18  C 
ATOM     41  N   PRO B  50      27.759 -19.726  -5.956  1.00 60.71 LIG-0.34  N 
ATOM     42  CD  PRO B  50      28.920 -20.466  -6.498  1.00 60.54 LIG 0.13  C 
ATOM     43  C   ARG B  49      27.285 -19.619  -4.671  1.00 60.43 LIG 0.26  C 
ATOM     44  CG  PRO B  50      28.668 -20.514  -8.008  1.00 54.86 LIG 0.02  C 
ATOM     45  CB  PRO B  50      27.719 -19.405  -8.306  1.00 61.52 LIG 0.04  C 
ATOM     46 O    ARG B  49      26.124 -19.219  -4.410  1.00 53.87 LIG-0.27  OA
BRANCH 43 47
ATOM     47  CA  ARG B  49      28.222 -20.034  -3.497  1.00 56.75 LIG 0.40  C 
ATOM     48  N   ARG B  49      29.693 -20.037  -3.891  1.00 50.64 LIG 0.61  N 
BRANCH 47 49
ATOM     49  CB  ARG B  49      27.990 -19.107  -2.269  1.00 51.37 LIG 0.05  C 
BRANCH 49 50
ATOM     50  CG  ARG B  49      28.863 -17.847  -2.225  1.00 44.94 LIG 0.02  C 
BRANCH 50 51
ATOM     51  CD  ARG B  49      29.607 -17.712  -0.866  1.00 41.72 LIG 0.14  C 
BRANCH 51 52
ATOM     52  NE  ARG B  49      29.909 -16.319  -0.525  1.00 39.59 LIG-0.23  N 
ATOM     53 HE   ARG B  49      29.449 -15.713  -0.927  1.00 39.59 LIG 0.18  HD
ATOM     54  CZ  ARG B  49      30.828 -15.902   0.349  1.00 39.90 LIG 0.67  C 
ATOM     55  NH1 ARG B  49      31.625 -16.780   0.970  1.00 39.18 LIG-0.23  N 
ATOM     56  NH2 ARG B  49      30.994 -14.581   0.561  1.00 31.35 LIG-0.23  N 
ATOM     57 2HH1 ARG B  49      32.215 -16.503   1.531  1.00 39.18 LIG 0.17  HD
ATOM     58 1HH1 ARG B  49      31.549 -17.621   0.807  1.00 39.18 LIG 0.17  HD
ATOM     59 1HH2 ARG B  49      30.509 -14.013   0.135  1.00 31.35 LIG 0.17  HD
ATOM     60 2HH2 ARG B  49      31.585 -14.307   1.122  1.00 31.35 LIG 0.17  HD
ENDBRANCH 51 52
ENDBRANCH 50 51
ENDBRANCH 49 50
ENDBRANCH 47 49
ENDBRANCH 43 47
ENDBRANCH 38 40
ENDBRANCH 1 36
TORSDOF 21
ENDMDL
MODEL 26
USER: ADFR SOLUTION from run 89
USER: SCORE 18.125985 LL:  -4.072 LR: -14.748 RR:   0.000 FEB:  -8.484
USER: RMSD 7.879943
USER: SEED 88
USER: STATUS no improvement in best in 15 clusters for 5 generations
USER: GENES 23
USER: genes 0 Translation |==|  0.71170 0.63613 0.60472
USER: genes 1 Rotation |==|  0.87423 0.24616 0.65467 0.64695
USER: genes 2 Torsion [N]-CA--C-[N] |==|  0.86776
USER: genes 3 Torsion [N]-CA--C-[O] |==|  0.46920
USER: genes 4 Torsion [C]-N--CA-[CB] |==|  0.56874
USER: genes 5 Torsion [N]-CA--CB-[CG] |==|  0.38091
USER: genes 6 Torsion [CA]-CB--CG-[CD1] |==|  0.23291
USER: genes 7 Torsion [N]-CA--C-[N] |==|  0.33357
USER: genes 8 Torsion [C]-N--CA-[CB] |==|  0.76428
USER: genes 9 Torsion [N]-CA--CB-[CG1] |==|  0.72143
USER: genes 10 Torsion [N]-CA--C-[O] |==|  0.12887
USER: genes 11 Torsion [C]-CA--CB-[CG] |==|  0.37014
USER: genes 12 Torsion [CA]-CB--CG-[CD] |==|  0.53485
USER: genes 13 Torsion [CB]-CG--CD-[CE] |==|  0.11656
USER: genes 14 Torsion [CG]-CD--CE-[NZ] |==|  0.16543
USER: genes 15 Torsion [CD]-CE--NZ-[HZ2] |==|  0.84802
USER: genes 16 Torsion [C]-CA--N-[C] |==|  0.73484
USER: genes 17 Torsion [N]-C--CA-[N] |==|  0.52905
USER: genes 18 Torsion [N]-C--CA-[N] |==|  0.88292
USER: genes 19 Torsion [C]-CA--CB-[CG] |==|  0.98050
USER: genes 20 Torsion [CA]-CB--CG-[CD] |==|  0.35147
USER: genes 21 Torsion [CB]-CG--CD-[NE] |==|  0.66981
USER: genes 22 Torsion [CG]-CD--NE-[HE] |==|  0.70913
ROOT
ATOM      1  CA  LYS B  51      27.926 -19.769  -2.876  1.00 67.60 LIG 0.18  C 
ENDROOT
BRANCH 1 2
ATOM      2  C   LYS B  51      27.129 -19.510  -4.196  1.00 65.68 LIG 0.24  C 
ATOM      3  N   PRO B  52      27.727 -19.798  -5.385  1.00 68.58 LIG-0.34  N 
ATOM      4  CD  PRO B  52      29.151 -19.952  -5.767  1.00 71.17 LIG 0.13  C 
ATOM      5  CA  PRO B  52      26.842 -19.700  -6.575  1.00 62.52 LIG 0.18  C 
ATOM      6  CG  PRO B  52      29.157 -19.559  -7.231  1.00 68.49 LIG 0.02  C 
ATOM      7  CB  PRO B  52      27.802 -19.938  -7.747  1.00 62.23 LIG 0.04  C 
ATOM      8 O    LYS B  51      26.008 -18.972  -4.150  1.00 49.94 LIG-0.27  OA
BRANCH 5 9
ATOM      9  C   PRO B  52      25.689 -20.746  -6.553  1.00 62.23 LIG 0.24  C 
ATOM     10 O    PRO B  52      24.756 -20.646  -7.375  1.00 52.82 LIG-0.27  OA
ATOM     11  N   LEU B  53      25.807 -21.765  -5.678  1.00 59.38 LIG-0.35  N 
ATOM     12 H    LEU B  53      26.520 -21.903  -5.217  1.00 59.38 LIG 0.16  HD
BRANCH 11 13
ATOM     13  CA  LEU B  53      24.738 -22.751  -5.410  1.00 58.77 LIG 0.18  C 
BRANCH 13 14
ATOM     14  CB  LEU B  53      24.869 -23.396  -4.001  1.00 52.29 LIG 0.04  C 
BRANCH 14 15
ATOM     15  CG  LEU B  53      23.578 -23.581  -3.145  1.00 62.01 LIG-0.02  C 
ATOM     16  CD2 LEU B  53      23.850 -23.496  -1.637  1.00 53.58 LIG 0.01  C 
ATOM     17  CD1 LEU B  53      22.788 -24.869  -3.480  1.00 50.45 LIG 0.01  C 
ENDBRANCH 14 15
ENDBRANCH 13 14
BRANCH 13 18
ATOM     18  C   LEU B  53      23.380 -22.031  -5.583  1.00 60.22 LIG 0.24  C 
ATOM     19  N   VAL B  54      22.538 -22.507  -6.516  1.00 61.95 LIG-0.35  N 
ATOM     20 H    VAL B  54      22.681 -23.219  -6.977  1.00 61.95 LIG 0.16  HD
ATOM     21 O    LEU B  53      23.122 -21.034  -4.899  1.00 54.25 LIG-0.27  OA
BRANCH 19 22
ATOM     22  CA  VAL B  54      21.252 -21.815  -6.828  1.00 71.55 LIG 0.17  C 
BRANCH 22 23
ATOM     23  CB  VAL B  54      20.063 -22.213  -5.871  1.00 67.56 LIG 0.01  C 
ATOM     24  CG1 VAL B  54      19.129 -23.241  -6.517  1.00 60.73 LIG 0.01  C 
ATOM     25  CG2 VAL B  54      20.562 -22.744  -4.529  1.00 61.59 LIG 0.01  C 
ENDBRANCH 22 23
BRANCH 22 26
ATOM     26  C   VAL B  54      21.428 -20.294  -6.900  1.00 64.78 LIG 0.22  C 
ATOM     27 O    VAL B  54      22.360 -19.811  -7.524  1.00 73.26 LIG-0.29  OA
ENDBRANCH 22 26
ENDBRANCH 19 22
ENDBRANCH 13 18
ENDBRANCH 11 13
ENDBRANCH 5 9
ENDBRANCH 1 2
BRANCH 1 28
ATOM     28  CB  LYS B  51      29.032 -18.744  -2.517  1.00 70.72 LIG 0.04  C 
BRANCH 28 29
ATOM     29  CG  LYS B  51      29.117 -18.191  -1.092  1.00 73.15 LIG 0.00  C 
BRANCH 29 30
ATOM     30  CD  LYS B  51      30.063 -16.986  -1.045  1.00 70.67 LIG 0.03  C 
BRANCH 30 31
ATOM     31  CE  LYS B  51      29.853 -16.072  -2.246  1.00 67.82 LIG 0.23  C 
BRANCH 31 32
ATOM     32  NZ  LYS B  51      28.459 -15.573  -2.275  1.00 73.20 LIG-0.08  N 
ATOM     33 HZ2  LYS B  51      27.896 -16.262  -2.256  1.00 73.20 LIG 0.27  HD
ATOM     34 HZ3  LYS B  51      28.315 -15.053  -1.567  1.00 73.20 LIG 0.27  HD
ATOM     35 HZ1  LYS B  51      28.328 -15.103  -3.019  1.00 73.20 LIG 0.27  HD
ENDBRANCH 31 32
ENDBRANCH 30 31
ENDBRANCH 29 30
ENDBRANCH 28 29
ENDBRANCH 1 28
BRANCH 1 36
ATOM     36  N   LYS B  51      28.529 -21.108  -2.912  1.00 65.69 LIG-0.35  N 
ATOM     37 H    LYS B  51      29.287 -21.149  -3.317  1.00 65.69 LIG 0.16  HD
ATOM     38  C   PRO B  50      27.921 -22.152  -2.353  1.00 68.91 LIG 0.24  C 
ATOM     39 O    PRO B  50      26.774 -22.072  -1.858  1.00 63.49 LIG-0.27  OA
BRANCH 38 40
ATOM     40  CA  PRO B  50      28.718 -23.491  -2.305  1.00 65.85 LIG 0.18  C 
ATOM     41  N   PRO B  50      27.858 -24.626  -1.893  1.00 60.71 LIG-0.34  N 
ATOM     42  CD  PRO B  50      27.438 -25.422  -3.068  1.00 60.54 LIG 0.13  C 
ATOM     43  C   ARG B  49      27.374 -24.603  -0.608  1.00 60.43 LIG 0.26  C 
ATOM     44  CG  PRO B  50      28.079 -24.707  -4.260  1.00 54.86 LIG 0.02  C 
ATOM     45  CB  PRO B  50      29.207 -23.906  -3.706  1.00 61.52 LIG 0.04  C 
ATOM     46 O    ARG B  49      27.619 -23.663   0.189  1.00 53.87 LIG-0.27  OA
BRANCH 43 47
ATOM     47  CA  ARG B  49      26.469 -25.778  -0.133  1.00 56.75 LIG 0.40  C 
ATOM     48  N   ARG B  49      25.453 -26.201  -1.185  1.00 50.64 LIG 0.61  N 
BRANCH 47 49
ATOM     49  CB  ARG B  49      27.342 -26.992   0.297  1.00 51.37 LIG 0.05  C 
BRANCH 49 50
ATOM     50  CG  ARG B  49      28.843 -26.853   0.013  1.00 44.94 LIG 0.02  C 
BRANCH 50 51
ATOM     51  CD  ARG B  49      29.695 -27.100   1.291  1.00 41.72 LIG 0.14  C 
BRANCH 51 52
ATOM     52  NE  ARG B  49      30.491 -25.931   1.671  1.00 39.59 LIG-0.23  N 
ATOM     53 HE   ARG B  49      31.334 -25.963   1.504  1.00 39.59 LIG 0.18  HD
ATOM     54  CZ  ARG B  49      30.032 -24.819   2.253  1.00 39.90 LIG 0.67  C 
ATOM     55  NH1 ARG B  49      28.744 -24.714   2.601  1.00 39.18 LIG-0.23  N 
ATOM     56  NH2 ARG B  49      30.887 -23.820   2.545  1.00 31.35 LIG-0.23  N 
ATOM     57 2HH1 ARG B  49      28.457 -23.995   2.975  1.00 39.18 LIG 0.17  HD
ATOM     58 1HH1 ARG B  49      28.203 -25.366   2.451  1.00 39.18 LIG 0.17  HD
ATOM     59 1HH2 ARG B  49      31.723 -23.900   2.357  1.00 31.35 LIG 0.17  HD
ATOM     60 2HH2 ARG B  49      30.598 -23.102   2.920  1.00 31.35 LIG 0.17  HD
ENDBRANCH 51 52
ENDBRANCH 50 51
ENDBRANCH 49 50
ENDBRANCH 47 49
ENDBRANCH 43 47
ENDBRANCH 38 40
ENDBRANCH 1 36
TORSDOF 21
ENDMDL
MODEL 27
USER: ADFR SOLUTION from run 67
USER: SCORE 17.261814 LL:  -3.571 LR: -14.682 RR:   0.000 FEB:  -8.418
USER: RMSD 6.629540
USER: SEED 66
USER: STATUS no improvement in best in 1 clusters for 5 generations
USER: GENES 23
USER: genes 0 Translation |==|  0.71001 0.56639 0.65870
USER: genes 1 Rotation |==|  0.96668 0.53692 0.63625 0.61081
USER: genes 2 Torsion [N]-CA--C-[N] |==|  0.36133
USER: genes 3 Torsion [N]-CA--C-[O] |==|  0.10346
USER: genes 4 Torsion [C]-N--CA-[CB] |==|  0.18621
USER: genes 5 Torsion [N]-CA--CB-[CG] |==|  0.62774
USER: genes 6 Torsion [CA]-CB--CG-[CD1] |==|  0.43344
USER: genes 7 Torsion [N]-CA--C-[N] |==|  0.48740
USER: genes 8 Torsion [C]-N--CA-[CB] |==|  0.21859
USER: genes 9 Torsion [N]-CA--CB-[CG1] |==|  0.40752
USER: genes 10 Torsion [N]-CA--C-[O] |==|  0.84332
USER: genes 11 Torsion [C]-CA--CB-[CG] |==|  0.73493
USER: genes 12 Torsion [CA]-CB--CG-[CD] |==|  0.76345
USER: genes 13 Torsion [CB]-CG--CD-[CE] |==|  0.76568
USER: genes 14 Torsion [CG]-CD--CE-[NZ] |==|  0.81741
USER: genes 15 Torsion [CD]-CE--NZ-[HZ2] |==|  0.24812
USER: genes 16 Torsion [C]-CA--N-[C] |==|  0.76744
USER: genes 17 Torsion [N]-C--CA-[N] |==|  0.93656
USER: genes 18 Torsion [N]-C--CA-[N] |==|  0.41083
USER: genes 19 Torsion [C]-CA--CB-[CG] |==|  0.93724
USER: genes 20 Torsion [CA]-CB--CG-[CD] |==|  0.57658
USER: genes 21 Torsion [CB]-CG--CD-[NE] |==|  0.97138
USER: genes 22 Torsion [CG]-CD--NE-[HE] |==|  0.78996
ROOT
ATOM      1  CA  LYS B  51      27.882 -21.338  -2.026  1.00 67.60 LIG 0.18  C 
ENDROOT
BRANCH 1 2
ATOM      2  C   LYS B  51      27.001 -22.338  -2.844  1.00 65.68 LIG 0.24  C 
ATOM      3  N   PRO B  52      26.207 -23.212  -2.166  1.00 68.58 LIG-0.34  N 
ATOM      4  CD  PRO B  52      26.257 -23.724  -0.776  1.00 71.17 LIG 0.13  C 
ATOM      5  CA  PRO B  52      25.268 -23.996  -3.011  1.00 62.52 LIG 0.18  C 
ATOM      6  CG  PRO B  52      25.609 -25.089  -0.890  1.00 68.49 LIG 0.02  C 
ATOM      7  CB  PRO B  52      24.623 -24.965  -2.013  1.00 62.23 LIG 0.04  C 
ATOM      8 O    LYS B  51      27.098 -22.380  -4.084  1.00 49.94 LIG-0.27  OA
BRANCH 5 9
ATOM      9  C   PRO B  52      24.205 -23.102  -3.714  1.00 62.23 LIG 0.24  C 
ATOM     10 O    PRO B  52      24.535 -21.976  -4.137  1.00 52.82 LIG-0.27  OA
ATOM     11  N   LEU B  53      22.981 -23.639  -3.897  1.00 59.38 LIG-0.35  N 
ATOM     12 H    LEU B  53      22.806 -24.464  -3.731  1.00 59.38 LIG 0.16  HD
BRANCH 11 13
ATOM     13  CA  LEU B  53      21.814 -22.882  -4.397  1.00 58.77 LIG 0.18  C 
BRANCH 13 14
ATOM     14  CB  LEU B  53      21.990 -22.436  -5.877  1.00 52.29 LIG 0.04  C 
BRANCH 14 15
ATOM     15  CG  LEU B  53      21.633 -20.966  -6.257  1.00 62.01 LIG-0.02  C 
ATOM     16  CD2 LEU B  53      20.120 -20.735  -6.375  1.00 53.58 LIG 0.01  C 
ATOM     17  CD1 LEU B  53      22.358 -20.456  -7.526  1.00 50.45 LIG 0.01  C 
ENDBRANCH 14 15
ENDBRANCH 13 14
BRANCH 13 18
ATOM     18  C   LEU B  53      20.563 -23.772  -4.215  1.00 60.22 LIG 0.24  C 
ATOM     19  N   VAL B  54      19.369 -23.238  -4.522  1.00 61.95 LIG-0.35  N 
ATOM     20 H    VAL B  54      19.265 -22.458  -4.867  1.00 61.95 LIG 0.16  HD
ATOM     21 O    LEU B  53      20.685 -24.918  -3.768  1.00 54.25 LIG-0.27  OA
BRANCH 19 22
ATOM     22  CA  VAL B  54      18.098 -23.983  -4.278  1.00 71.55 LIG 0.17  C 
BRANCH 22 23
ATOM     23  CB  VAL B  54      17.620 -23.957  -2.775  1.00 67.56 LIG 0.01  C 
ATOM     24  CG1 VAL B  54      16.093 -23.954  -2.660  1.00 60.73 LIG 0.01  C 
ATOM     25  CG2 VAL B  54      18.194 -25.122  -1.972  1.00 61.59 LIG 0.01  C 
ENDBRANCH 22 23
BRANCH 22 26
ATOM     26  C   VAL B  54      16.983 -23.529  -5.228  1.00 64.78 LIG 0.22  C 
ATOM     27 O    VAL B  54      16.655 -22.354  -5.275  1.00 73.26 LIG-0.29  OA
ENDBRANCH 22 26
ENDBRANCH 19 22
ENDBRANCH 13 18
ENDBRANCH 11 13
ENDBRANCH 5 9
ENDBRANCH 1 2
BRANCH 1 28
ATOM     28  CB  LYS B  51      27.420 -19.859  -2.004  1.00 70.72 LIG 0.04  C 
BRANCH 28 29
ATOM     29  CG  LYS B  51      28.021 -18.864  -3.000  1.00 73.15 LIG 0.00  C 
BRANCH 29 30
ATOM     30  CD  LYS B  51      29.337 -18.298  -2.456  1.00 70.67 LIG 0.03  C 
BRANCH 30 31
ATOM     31  CE  LYS B  51      29.089 -17.119  -1.524  1.00 67.82 LIG 0.23  C 
BRANCH 31 32
ATOM     32  NZ  LYS B  51      28.508 -15.983  -2.274  1.00 73.20 LIG-0.08  N 
ATOM     33 HZ2  LYS B  51      27.620 -16.049  -2.274  1.00 73.20 LIG 0.27  HD
ATOM     34 HZ3  LYS B  51      28.748 -15.218  -1.888  1.00 73.20 LIG 0.27  HD
ATOM     35 HZ1  LYS B  51      28.806 -15.998  -3.113  1.00 73.20 LIG 0.27  HD
ENDBRANCH 31 32
ENDBRANCH 30 31
ENDBRANCH 29 30
ENDBRANCH 28 29
ENDBRANCH 1 28
BRANCH 1 36
ATOM     36  N   LYS B  51      29.268 -21.384  -2.509  1.00 65.69 LIG-0.35  N 
ATOM     37 H    LYS B  51      29.468 -20.775  -3.083  1.00 65.69 LIG 0.16  HD
ATOM     38  C   PRO B  50      30.120 -22.310  -2.073  1.00 68.91 LIG 0.24  C 
ATOM     39 O    PRO B  50      29.764 -23.239  -1.312  1.00 63.49 LIG-0.27  OA
BRANCH 38 40
ATOM     40  CA  PRO B  50      31.605 -22.173  -2.523  1.00 65.85 LIG 0.18  C 
ATOM     41  N   PRO B  50      31.729 -21.375  -3.767  1.00 60.71 LIG-0.34  N 
ATOM     42  CD  PRO B  50      32.146 -19.988  -3.464  1.00 60.54 LIG 0.13  C 
ATOM     43  C   ARG B  49      31.194 -21.920  -4.908  1.00 60.43 LIG 0.26  C 
ATOM     44  CG  PRO B  50      32.267 -19.952  -1.938  1.00 54.86 LIG 0.02  C 
ATOM     45  CB  PRO B  50      32.432 -21.368  -1.502  1.00 61.52 LIG 0.04  C 
ATOM     46 O    ARG B  49      30.604 -23.029  -4.915  1.00 53.87 LIG-0.27  OA
BRANCH 43 47
ATOM     47  CA  ARG B  49      31.305 -21.117  -6.238  1.00 56.75 LIG 0.40  C 
ATOM     48  N   ARG B  49      31.425 -22.017  -7.461  1.00 50.64 LIG 0.61  N 
BRANCH 47 49
ATOM     49  CB  ARG B  49      30.091 -20.155  -6.390  1.00 51.37 LIG 0.05  C 
BRANCH 49 50
ATOM     50  CG  ARG B  49      28.843 -20.542  -5.588  1.00 44.94 LIG 0.02  C 
BRANCH 50 51
ATOM     51  CD  ARG B  49      27.542 -20.018  -6.262  1.00 41.72 LIG 0.14  C 
BRANCH 51 52
ATOM     52  NE  ARG B  49      27.813 -19.082  -7.356  1.00 39.59 LIG-0.23  N 
ATOM     53 HE   ARG B  49      28.052 -18.286  -7.137  1.00 39.59 LIG 0.18  HD
ATOM     54  CZ  ARG B  49      27.724 -19.349  -8.662  1.00 39.90 LIG 0.67  C 
ATOM     55  NH1 ARG B  49      27.299 -20.546  -9.085  1.00 39.18 LIG-0.23  N 
ATOM     56  NH2 ARG B  49      28.005 -18.383  -9.559  1.00 31.35 LIG-0.23  N 
ATOM     57 2HH1 ARG B  49      27.244 -20.709  -9.928  1.00 39.18 LIG 0.17  HD
ATOM     58 1HH1 ARG B  49      27.081 -21.151  -8.515  1.00 39.18 LIG 0.17  HD
ATOM     59 1HH2 ARG B  49      28.242 -17.602  -9.289  1.00 31.35 LIG 0.17  HD
ATOM     60 2HH2 ARG B  49      27.949 -18.549 -10.401  1.00 31.35 LIG 0.17  HD
ENDBRANCH 51 52
ENDBRANCH 50 51
ENDBRANCH 49 50
ENDBRANCH 47 49
ENDBRANCH 43 47
ENDBRANCH 38 40
ENDBRANCH 1 36
TORSDOF 21
ENDMDL
MODEL 28
USER: ADFR SOLUTION from run 116
USER: SCORE 18.270354 LL:  -4.284 LR: -14.630 RR:   0.000 FEB:  -8.366
USER: RMSD 7.510996
USER: SEED 115
USER: STATUS no improvement in best in 15 clusters for 5 generations
USER: GENES 23
USER: genes 0 Translation |==|  0.68758 0.62504 0.64487
USER: genes 1 Rotation |==|  0.84674 0.22020 0.68840 0.62644
USER: genes 2 Torsion [N]-CA--C-[N] |==|  0.86983
USER: genes 3 Torsion [N]-CA--C-[O] |==|  0.43565
USER: genes 4 Torsion [C]-N--CA-[CB] |==|  0.56364
USER: genes 5 Torsion [N]-CA--CB-[CG] |==|  0.37603
USER: genes 6 Torsion [CA]-CB--CG-[CD1] |==|  0.26589
USER: genes 7 Torsion [N]-CA--C-[N] |==|  0.35749
USER: genes 8 Torsion [C]-N--CA-[CB] |==|  0.77900
USER: genes 9 Torsion [N]-CA--CB-[CG1] |==|  0.67332
USER: genes 10 Torsion [N]-CA--C-[O] |==|  0.10516
USER: genes 11 Torsion [C]-CA--CB-[CG] |==|  0.81896
USER: genes 12 Torsion [CA]-CB--CG-[CD] |==|  0.39959
USER: genes 13 Torsion [CB]-CG--CD-[CE] |==|  0.02850
USER: genes 14 Torsion [CG]-CD--CE-[NZ] |==|  0.70737
USER: genes 15 Torsion [CD]-CE--NZ-[HZ2] |==|  0.29390
USER: genes 16 Torsion [C]-CA--N-[C] |==|  0.75441
USER: genes 17 Torsion [N]-C--CA-[N] |==|  0.97065
USER: genes 18 Torsion [N]-C--CA-[N] |==|  0.19499
USER: genes 19 Torsion [C]-CA--CB-[CG] |==|  0.65401
USER: genes 20 Torsion [CA]-CB--CG-[CD] |==|  0.39650
USER: genes 21 Torsion [CB]-CG--CD-[NE] |==|  0.46903
USER: genes 22 Torsion [CG]-CD--NE-[HE] |==|  0.99373
ROOT
ATOM      1  CA  LYS B  51      27.293 -20.019  -2.243  1.00 67.60 LIG 0.18  C 
ENDROOT
BRANCH 1 2
ATOM      2  C   LYS B  51      26.804 -19.725  -3.700  1.00 65.68 LIG 0.24  C 
ATOM      3  N   PRO B  52      27.606 -20.084  -4.740  1.00 68.58 LIG-0.34  N 
ATOM      4  CD  PRO B  52      29.061 -20.357  -4.823  1.00 71.17 LIG 0.13  C 
ATOM      5  CA  PRO B  52      26.992 -19.942  -6.086  1.00 62.52 LIG 0.18  C 
ATOM      6  CG  PRO B  52      29.396 -19.996  -6.256  1.00 68.49 LIG 0.02  C 
ATOM      7  CB  PRO B  52      28.147 -20.279  -7.037  1.00 62.23 LIG 0.04  C 
ATOM      8 O    LYS B  51      25.744 -19.100  -3.885  1.00 49.94 LIG-0.27  OA
BRANCH 5 9
ATOM      9  C   PRO B  52      25.778 -20.894  -6.296  1.00 62.23 LIG 0.24  C 
ATOM     10 O    PRO B  52      24.917 -20.608  -7.151  1.00 52.82 LIG-0.27  OA
ATOM     11  N   LEU B  53      25.767 -22.035  -5.577  1.00 59.38 LIG-0.35  N 
ATOM     12 H    LEU B  53      26.434 -22.289  -5.098  1.00 59.38 LIG 0.16  HD
BRANCH 11 13
ATOM     13  CA  LEU B  53      24.622 -22.969  -5.529  1.00 58.77 LIG 0.18  C 
BRANCH 13 14
ATOM     14  CB  LEU B  53      24.633 -23.852  -4.249  1.00 52.29 LIG 0.04  C 
BRANCH 14 15
ATOM     15  CG  LEU B  53      23.296 -24.049  -3.470  1.00 62.01 LIG-0.02  C 
ATOM     16  CD2 LEU B  53      23.477 -23.955  -1.948  1.00 53.58 LIG 0.01  C 
ATOM     17  CD1 LEU B  53      22.541 -25.346  -3.846  1.00 50.45 LIG 0.01  C 
ENDBRANCH 14 15
ENDBRANCH 13 14
BRANCH 13 18
ATOM     18  C   LEU B  53      23.327 -22.131  -5.633  1.00 60.22 LIG 0.24  C 
ATOM     19  N   VAL B  54      22.423 -22.493  -6.559  1.00 61.95 LIG-0.35  N 
ATOM     20 H    VAL B  54      22.494 -23.192  -7.054  1.00 61.95 LIG 0.16  HD
ATOM     21 O    LEU B  53      23.172 -21.147  -4.900  1.00 54.25 LIG-0.27  OA
BRANCH 19 22
ATOM     22  CA  VAL B  54      21.193 -21.682  -6.805  1.00 71.55 LIG 0.17  C 
BRANCH 22 23
ATOM     23  CB  VAL B  54      20.046 -21.926  -5.750  1.00 67.56 LIG 0.01  C 
ATOM     24  CG1 VAL B  54      18.784 -22.501  -6.400  1.00 60.73 LIG 0.01  C 
ATOM     25  CG2 VAL B  54      20.499 -22.837  -4.612  1.00 61.59 LIG 0.01  C 
ENDBRANCH 22 23
BRANCH 22 26
ATOM     26  C   VAL B  54      21.516 -20.190  -6.947  1.00 64.78 LIG 0.22  C 
ATOM     27 O    VAL B  54      22.530 -19.832  -7.525  1.00 73.26 LIG-0.29  OA
ENDBRANCH 22 26
ENDBRANCH 19 22
ENDBRANCH 13 18
ENDBRANCH 11 13
ENDBRANCH 5 9
ENDBRANCH 1 2
BRANCH 1 28
ATOM     28  CB  LYS B  51      28.369 -19.065  -1.664  1.00 70.72 LIG 0.04  C 
BRANCH 28 29
ATOM     29  CG  LYS B  51      29.763 -19.027  -2.295  1.00 73.15 LIG 0.00  C 
BRANCH 29 30
ATOM     30  CD  LYS B  51      30.317 -17.598  -2.273  1.00 70.67 LIG 0.03  C 
BRANCH 30 31
ATOM     31  CE  LYS B  51      29.451 -16.683  -1.416  1.00 67.82 LIG 0.23  C 
BRANCH 31 32
ATOM     32  NZ  LYS B  51      28.642 -15.788  -2.275  1.00 73.20 LIG-0.08  N 
ATOM     33 HZ2  LYS B  51      27.795 -16.062  -2.275  1.00 73.20 LIG 0.27  HD
ATOM     34 HZ3  LYS B  51      28.685 -14.957  -1.961  1.00 73.20 LIG 0.27  HD
ATOM     35 HZ1  LYS B  51      28.960 -15.808  -3.106  1.00 73.20 LIG 0.27  HD
ENDBRANCH 31 32
ENDBRANCH 30 31
ENDBRANCH 29 30
ENDBRANCH 28 29
ENDBRANCH 1 28
BRANCH 1 36
ATOM     36  N   LYS B  51      27.797 -21.395  -2.154  1.00 65.69 LIG-0.35  N 
ATOM     37 H    LYS B  51      28.640 -21.479  -2.302  1.00 65.69 LIG 0.16  HD
ATOM     38  C   PRO B  50      26.983 -22.409  -1.866  1.00 68.91 LIG 0.24  C 
ATOM     39 O    PRO B  50      25.745 -22.261  -1.754  1.00 63.49 LIG-0.27  OA
BRANCH 38 40
ATOM     40  CA  PRO B  50      27.643 -23.802  -1.637  1.00 65.85 LIG 0.18  C 
ATOM     41  N   PRO B  50      29.073 -23.802  -2.029  1.00 60.71 LIG-0.34  N 
ATOM     42  CD  PRO B  50      29.946 -23.676  -0.841  1.00 60.54 LIG 0.13  C 
ATOM     43  C   ARG B  49      29.349 -23.636  -3.365  1.00 60.43 LIG 0.26  C 
ATOM     44  CG  PRO B  50      28.972 -23.582   0.337  1.00 54.86 LIG 0.02  C 
ATOM     45  CB  PRO B  50      27.687 -24.166  -0.139  1.00 61.52 LIG 0.04  C 
ATOM     46 O    ARG B  49      28.449 -23.469  -4.224  1.00 53.87 LIG-0.27  OA
BRANCH 43 47
ATOM     47  CA  ARG B  49      30.838 -23.633  -3.821  1.00 56.75 LIG 0.40  C 
ATOM     48  N   ARG B  49      31.489 -25.006  -3.716  1.00 50.64 LIG 0.61  N 
BRANCH 47 49
ATOM     49  CB  ARG B  49      30.956 -23.086  -5.273  1.00 51.37 LIG 0.05  C 
BRANCH 49 50
ATOM     50  CG  ARG B  49      31.662 -24.015  -6.268  1.00 44.94 LIG 0.02  C 
BRANCH 50 51
ATOM     51  CD  ARG B  49      31.004 -23.955  -7.677  1.00 41.72 LIG 0.14  C 
BRANCH 51 52
ATOM     52  NE  ARG B  49      31.808 -24.624  -8.703  1.00 39.59 LIG-0.23  N 
ATOM     53 HE   ARG B  49      32.561 -24.953  -8.452  1.00 39.59 LIG 0.18  HD
ATOM     54  CZ  ARG B  49      31.481 -24.770  -9.989  1.00 39.90 LIG 0.67  C 
ATOM     55  NH1 ARG B  49      30.354 -24.233 -10.471  1.00 39.18 LIG-0.23  N 
ATOM     56  NH2 ARG B  49      32.324 -25.413 -10.821  1.00 31.35 LIG-0.23  N 
ATOM     57 2HH1 ARG B  49      30.150 -24.332 -11.301  1.00 39.18 LIG 0.17  HD
ATOM     58 1HH1 ARG B  49      29.832 -23.788  -9.951  1.00 39.18 LIG 0.17  HD
ATOM     59 1HH2 ARG B  49      33.068 -25.726 -10.522  1.00 31.35 LIG 0.17  HD
ATOM     60 2HH2 ARG B  49      32.119 -25.509 -11.650  1.00 31.35 LIG 0.17  HD
ENDBRANCH 51 52
ENDBRANCH 50 51
ENDBRANCH 49 50
ENDBRANCH 47 49
ENDBRANCH 43 47
ENDBRANCH 38 40
ENDBRANCH 1 36
TORSDOF 21
ENDMDL
MODEL 29
USER: ADFR SOLUTION from run 98
USER: SCORE 17.211537 LL:  -3.310 LR: -14.634 RR:   0.000 FEB:  -8.370
USER: RMSD 6.133663
USER: SEED 97
USER: STATUS no improvement in best in 9 clusters for 5 generations
USER: GENES 23
USER: genes 0 Translation |==|  0.36310 0.43080 0.44276
USER: genes 1 Rotation |==|  0.81923 0.52126 0.59333 0.87273
USER: genes 2 Torsion [N]-CA--C-[N] |==|  0.32927
USER: genes 3 Torsion [N]-CA--C-[O] |==|  0.32848
USER: genes 4 Torsion [C]-N--CA-[CB] |==|  0.89444
USER: genes 5 Torsion [N]-CA--CB-[CG] |==|  0.72755
USER: genes 6 Torsion [CA]-CB--CG-[CD1] |==|  0.29539
USER: genes 7 Torsion [N]-CA--C-[N] |==|  0.86936
USER: genes 8 Torsion [C]-N--CA-[CB] |==|  0.34923
USER: genes 9 Torsion [N]-CA--CB-[CG1] |==|  0.90202
USER: genes 10 Torsion [N]-CA--C-[O] |==|  0.19341
USER: genes 11 Torsion [C]-CA--CB-[CG] |==|  0.54497
USER: genes 12 Torsion [CA]-CB--CG-[CD] |==|  0.85027
USER: genes 13 Torsion [CB]-CG--CD-[CE] |==|  0.68561
USER: genes 14 Torsion [CG]-CD--CE-[NZ] |==|  0.36225
USER: genes 15 Torsion [CD]-CE--NZ-[HZ2] |==|  0.04706
USER: genes 16 Torsion [C]-CA--N-[C] |==|  0.66838
USER: genes 17 Torsion [N]-C--CA-[N] |==|  0.56546
USER: genes 18 Torsion [N]-C--CA-[N] |==|  0.13695
USER: genes 19 Torsion [C]-CA--CB-[CG] |==|  0.77189
USER: genes 20 Torsion [CA]-CB--CG-[CD] |==|  0.45958
USER: genes 21 Torsion [CB]-CG--CD-[NE] |==|  0.53595
USER: genes 22 Torsion [CG]-CD--NE-[HE] |==|  0.96447
ROOT
ATOM      1  CA  LYS B  51      18.775 -24.389  -5.427  1.00 67.60 LIG 0.18  C 
ENDROOT
BRANCH 1 2
ATOM      2  C   LYS B  51      17.530 -25.273  -5.089  1.00 65.68 LIG 0.24  C 
ATOM      3  N   PRO B  52      16.700 -24.873  -4.087  1.00 68.58 LIG-0.34  N 
ATOM      4  CD  PRO B  52      16.903 -23.961  -2.936  1.00 71.17 LIG 0.13  C 
ATOM      5  CA  PRO B  52      15.448 -25.662  -3.953  1.00 62.52 LIG 0.18  C 
ATOM      6  CG  PRO B  52      15.931 -24.492  -1.902  1.00 68.49 LIG 0.02  C 
ATOM      7  CB  PRO B  52      14.800 -25.083  -2.689  1.00 62.23 LIG 0.04  C 
ATOM      8 O    LYS B  51      17.362 -26.359  -5.673  1.00 49.94 LIG-0.27  OA
BRANCH 5 9
ATOM      9  C   PRO B  52      14.516 -25.524  -5.193  1.00 62.23 LIG 0.24  C 
ATOM     10 O    PRO B  52      14.239 -26.537  -5.866  1.00 52.82 LIG-0.27  OA
ATOM     11  N   LEU B  53      13.991 -24.305  -5.428  1.00 59.38 LIG-0.35  N 
ATOM     12 H    LEU B  53      14.074 -23.649  -4.878  1.00 59.38 LIG 0.16  HD
BRANCH 11 13
ATOM     13  CA  LEU B  53      13.223 -23.957  -6.642  1.00 58.77 LIG 0.18  C 
BRANCH 13 14
ATOM     14  CB  LEU B  53      13.801 -24.631  -7.919  1.00 52.29 LIG 0.04  C 
BRANCH 14 15
ATOM     15  CG  LEU B  53      14.745 -23.796  -8.838  1.00 62.01 LIG-0.02  C 
ATOM     16  CD2 LEU B  53      14.290 -23.788 -10.304  1.00 53.58 LIG 0.01  C 
ATOM     17  CD1 LEU B  53      16.234 -24.203  -8.737  1.00 50.45 LIG 0.01  C 
ENDBRANCH 14 15
ENDBRANCH 13 14
BRANCH 13 18
ATOM     18  C   LEU B  53      11.751 -24.364  -6.400  1.00 60.22 LIG 0.24  C 
ATOM     19  N   VAL B  54      11.518 -25.586  -5.891  1.00 61.95 LIG-0.35  N 
ATOM     20 H    VAL B  54      12.136 -26.128  -5.639  1.00 61.95 LIG 0.16  HD
ATOM     21 O    LEU B  53      10.840 -23.586  -6.706  1.00 54.25 LIG-0.27  OA
BRANCH 19 22
ATOM     22  CA  VAL B  54      10.129 -26.108  -5.723  1.00 71.55 LIG 0.17  C 
BRANCH 22 23
ATOM     23  CB  VAL B  54       9.883 -27.504  -6.413  1.00 67.56 LIG 0.01  C 
ATOM     24  CG1 VAL B  54      10.666 -27.642  -7.721  1.00 60.73 LIG 0.01  C 
ATOM     25  CG2 VAL B  54      10.222 -28.669  -5.486  1.00 61.59 LIG 0.01  C 
ENDBRANCH 22 23
BRANCH 22 26
ATOM     26  C   VAL B  54       9.705 -26.128  -4.249  1.00 64.78 LIG 0.22  C 
ATOM     27 O    VAL B  54       9.507 -25.082  -3.652  1.00 73.26 LIG-0.29  OA
ENDBRANCH 22 26
ENDBRANCH 19 22
ENDBRANCH 13 18
ENDBRANCH 11 13
ENDBRANCH 5 9
ENDBRANCH 1 2
BRANCH 1 28
ATOM     28  CB  LYS B  51      18.828 -23.772  -6.848  1.00 70.72 LIG 0.04  C 
BRANCH 28 29
ATOM     29  CG  LYS B  51      20.150 -23.219  -7.383  1.00 73.15 LIG 0.00  C 
BRANCH 29 30
ATOM     30  CD  LYS B  51      20.735 -22.198  -6.401  1.00 70.67 LIG 0.03  C 
BRANCH 30 31
ATOM     31  CE  LYS B  51      20.735 -20.795  -6.996  1.00 67.82 LIG 0.23  C 
BRANCH 31 32
ATOM     32  NZ  LYS B  51      20.140 -19.832  -6.043  1.00 73.20 LIG-0.08  N 
ATOM     33 HZ2  LYS B  51      20.121 -20.192  -5.229  1.00 73.20 LIG 0.27  HD
ATOM     34 HZ3  LYS B  51      20.629 -19.089  -6.026  1.00 73.20 LIG 0.27  HD
ATOM     35 HZ1  LYS B  51      19.310 -19.635  -6.299  1.00 73.20 LIG 0.27  HD
ENDBRANCH 31 32
ENDBRANCH 30 31
ENDBRANCH 29 30
ENDBRANCH 28 29
ENDBRANCH 1 28
BRANCH 1 36
ATOM     36  N   LYS B  51      20.007 -25.159  -5.210  1.00 65.69 LIG-0.35  N 
ATOM     37 H    LYS B  51      20.077 -25.867  -5.694  1.00 65.69 LIG 0.16  HD
ATOM     38  C   PRO B  50      20.920 -24.764  -4.325  1.00 68.91 LIG 0.24  C 
ATOM     39 O    PRO B  50      20.738 -23.782  -3.570  1.00 63.49 LIG-0.27  OA
BRANCH 38 40
ATOM     40  CA  PRO B  50      22.259 -25.559  -4.289  1.00 65.85 LIG 0.18  C 
ATOM     41  N   PRO B  50      22.936 -25.434  -2.976  1.00 60.71 LIG-0.34  N 
ATOM     42  CD  PRO B  50      22.703 -26.636  -2.145  1.00 60.54 LIG 0.13  C 
ATOM     43  C   ARG B  49      23.402 -24.187  -2.635  1.00 60.43 LIG 0.26  C 
ATOM     44  CG  PRO B  50      21.818 -27.533  -3.015  1.00 54.86 LIG 0.02  C 
ATOM     45  CB  PRO B  50      22.018 -27.076  -4.420  1.00 61.52 LIG 0.04  C 
ATOM     46 O    ARG B  49      23.252 -23.185  -3.377  1.00 53.87 LIG-0.27  OA
BRANCH 43 47
ATOM     47  CA  ARG B  49      24.122 -24.011  -1.266  1.00 56.75 LIG 0.40  C 
ATOM     48  N   ARG B  49      25.204 -25.057  -1.031  1.00 50.64 LIG 0.61  N 
BRANCH 47 49
ATOM     49  CB  ARG B  49      24.719 -22.578  -1.150  1.00 51.37 LIG 0.05  C 
BRANCH 49 50
ATOM     50  CG  ARG B  49      26.076 -22.376  -1.834  1.00 44.94 LIG 0.02  C 
BRANCH 50 51
ATOM     51  CD  ARG B  49      26.422 -20.866  -1.987  1.00 41.72 LIG 0.14  C 
BRANCH 51 52
ATOM     52  NE  ARG B  49      27.549 -20.637  -2.893  1.00 39.59 LIG-0.23  N 
ATOM     53 HE   ARG B  49      28.015 -21.324  -3.116  1.00 39.59 LIG 0.18  HD
ATOM     54  CZ  ARG B  49      27.922 -19.462  -3.407  1.00 39.90 LIG 0.67  C 
ATOM     55  NH1 ARG B  49      27.287 -18.335  -3.061  1.00 39.18 LIG-0.23  N 
ATOM     56  NH2 ARG B  49      28.986 -19.403  -4.232  1.00 31.35 LIG-0.23  N 
ATOM     57 2HH1 ARG B  49      27.533 -17.582  -3.397  1.00 39.18 LIG 0.17  HD
ATOM     58 1HH1 ARG B  49      26.632 -18.364  -2.504  1.00 39.18 LIG 0.17  HD
ATOM     59 1HH2 ARG B  49      29.420 -20.120  -4.426  1.00 31.35 LIG 0.17  HD
ATOM     60 2HH2 ARG B  49      29.230 -18.649  -4.565  1.00 31.35 LIG 0.17  HD
ENDBRANCH 51 52
ENDBRANCH 50 51
ENDBRANCH 49 50
ENDBRANCH 47 49
ENDBRANCH 43 47
ENDBRANCH 38 40
ENDBRANCH 1 36
TORSDOF 21
ENDMDL
MODEL 30
USER: ADFR SOLUTION from run 128
USER: SCORE 18.549510 LL:  -4.354 LR: -14.604 RR:   0.000 FEB:  -8.339
USER: RMSD 8.147914
USER: SEED 127
USER: STATUS no improvement in best in 13 clusters for 5 generations
USER: GENES 23
USER: genes 0 Translation |==|  0.69450 0.58022 0.53480
USER: genes 1 Rotation |==|  0.10192 0.77900 0.38300 0.50046
USER: genes 2 Torsion [N]-CA--C-[N] |==|  0.90786
USER: genes 3 Torsion [N]-CA--C-[O] |==|  0.35879
USER: genes 4 Torsion [C]-N--CA-[CB] |==|  0.55710
USER: genes 5 Torsion [N]-CA--CB-[CG] |==|  0.75325
USER: genes 6 Torsion [CA]-CB--CG-[CD1] |==|  0.78171
USER: genes 7 Torsion [N]-CA--C-[N] |==|  0.38369
USER: genes 8 Torsion [C]-N--CA-[CB] |==|  0.82950
USER: genes 9 Torsion [N]-CA--CB-[CG1] |==|  0.29753
USER: genes 10 Torsion [N]-CA--C-[O] |==|  0.01589
USER: genes 11 Torsion [C]-CA--CB-[CG] |==|  0.08396
USER: genes 12 Torsion [CA]-CB--CG-[CD] |==|  0.62014
USER: genes 13 Torsion [CB]-CG--CD-[CE] |==|  0.56144
USER: genes 14 Torsion [CG]-CD--CE-[NZ] |==|  0.77103
USER: genes 15 Torsion [CD]-CE--NZ-[HZ2] |==|  0.90193
USER: genes 16 Torsion [C]-CA--N-[C] |==|  0.78333
USER: genes 17 Torsion [N]-C--CA-[N] |==|  0.34576
USER: genes 18 Torsion [N]-C--CA-[N] |==|  0.39235
USER: genes 19 Torsion [C]-CA--CB-[CG] |==|  0.73431
USER: genes 20 Torsion [CA]-CB--CG-[CD] |==|  0.20071
USER: genes 21 Torsion [CB]-CG--CD-[NE] |==|  0.56361
USER: genes 22 Torsion [CG]-CD--NE-[HE] |==|  0.84653
ROOT
ATOM      1  CA  LYS B  51      27.475 -21.027  -3.977  1.00 67.60 LIG 0.18  C 
ENDROOT
BRANCH 1 2
ATOM      2  C   LYS B  51      26.847 -20.116  -5.082  1.00 65.68 LIG 0.24  C 
ATOM      3  N   PRO B  52      27.551 -19.902  -6.227  1.00 68.58 LIG-0.34  N 
ATOM      4  CD  PRO B  52      28.995 -20.023  -6.541  1.00 71.17 LIG 0.13  C 
ATOM      5  CA  PRO B  52      26.812 -19.183  -7.297  1.00 62.52 LIG 0.18  C 
ATOM      6  CG  PRO B  52      29.189 -19.017  -7.657  1.00 68.49 LIG 0.02  C 
ATOM      7  CB  PRO B  52      27.877 -18.972  -8.380  1.00 62.23 LIG 0.04  C 
ATOM      8 O    LYS B  51      25.766 -19.537  -4.870  1.00 49.94 LIG-0.27  OA
BRANCH 5 9
ATOM      9  C   PRO B  52      25.596 -19.993  -7.835  1.00 62.23 LIG 0.24  C 
ATOM     10 O    PRO B  52      24.477 -19.446  -7.901  1.00 52.82 LIG-0.27  OA
ATOM     11  N   LEU B  53      25.843 -21.242  -8.278  1.00 59.38 LIG-0.35  N 
ATOM     12 H    LEU B  53      26.639 -21.557  -8.360  1.00 59.38 LIG 0.16  HD
BRANCH 11 13
ATOM     13  CA  LEU B  53      24.790 -22.203  -8.668  1.00 58.77 LIG 0.18  C 
BRANCH 13 14
ATOM     14  CB  LEU B  53      25.295 -23.674  -8.643  1.00 52.29 LIG 0.04  C 
BRANCH 14 15
ATOM     15  CG  LEU B  53      25.946 -24.258  -9.934  1.00 62.01 LIG-0.02  C 
ATOM     16  CD2 LEU B  53      27.005 -23.325 -10.538  1.00 53.58 LIG 0.01  C 
ATOM     17  CD1 LEU B  53      24.921 -24.682 -11.013  1.00 50.45 LIG 0.01  C 
ENDBRANCH 14 15
ENDBRANCH 13 14
BRANCH 13 18
ATOM     18  C   LEU B  53      23.589 -21.996  -7.716  1.00 60.22 LIG 0.24  C 
ATOM     19  N   VAL B  54      22.357 -22.019  -8.253  1.00 61.95 LIG-0.35  N 
ATOM     20 H    VAL B  54      22.195 -22.200  -9.077  1.00 61.95 LIG 0.16  HD
ATOM     21 O    LEU B  53      23.787 -21.784  -6.514  1.00 54.25 LIG-0.27  OA
BRANCH 19 22
ATOM     22  CA  VAL B  54      21.145 -21.724  -7.433  1.00 71.55 LIG 0.17  C 
BRANCH 22 23
ATOM     23  CB  VAL B  54      20.922 -22.728  -6.237  1.00 67.56 LIG 0.01  C 
ATOM     24  CG1 VAL B  54      21.239 -22.085  -4.884  1.00 60.73 LIG 0.01  C 
ATOM     25  CG2 VAL B  54      19.503 -23.291  -6.219  1.00 61.59 LIG 0.01  C 
ENDBRANCH 22 23
BRANCH 22 26
ATOM     26  C   VAL B  54      21.126 -20.267  -6.952  1.00 64.78 LIG 0.22  C 
ATOM     27 O    VAL B  54      21.978 -19.482  -7.336  1.00 73.26 LIG-0.29  OA
ENDBRANCH 22 26
ENDBRANCH 19 22
ENDBRANCH 13 18
ENDBRANCH 11 13
ENDBRANCH 5 9
ENDBRANCH 1 2
BRANCH 1 28
ATOM     28  CB  LYS B  51      28.339 -20.322  -2.900  1.00 70.72 LIG 0.04  C 
BRANCH 28 29
ATOM     29  CG  LYS B  51      28.021 -18.879  -2.502  1.00 73.15 LIG 0.00  C 
BRANCH 29 30
ATOM     30  CD  LYS B  51      29.314 -18.064  -2.385  1.00 70.67 LIG 0.03  C 
BRANCH 30 31
ATOM     31  CE  LYS B  51      29.118 -16.840  -1.499  1.00 67.82 LIG 0.23  C 
BRANCH 31 32
ATOM     32  NZ  LYS B  51      28.512 -15.735  -2.275  1.00 73.20 LIG-0.08  N 
ATOM     33 HZ2  LYS B  51      28.822 -15.752  -3.109  1.00 73.20 LIG 0.27  HD
ATOM     34 HZ3  LYS B  51      27.627 -15.831  -2.287  1.00 73.20 LIG 0.27  HD
ATOM     35 HZ1  LYS B  51      28.721 -14.957  -1.897  1.00 73.20 LIG 0.27  HD
ENDBRANCH 31 32
ENDBRANCH 30 31
ENDBRANCH 29 30
ENDBRANCH 28 29
ENDBRANCH 1 28
BRANCH 1 36
ATOM     36  N   LYS B  51      28.282 -22.083  -4.601  1.00 65.69 LIG-0.35  N 
ATOM     37 H    LYS B  51      29.131 -21.944  -4.581  1.00 65.69 LIG 0.16  HD
ATOM     38  C   PRO B  50      27.711 -23.156  -5.146  1.00 68.91 LIG 0.24  C 
ATOM     39 O    PRO B  50      26.469 -23.275  -5.243  1.00 63.49 LIG-0.27  OA
BRANCH 38 40
ATOM     40  CA  PRO B  50      28.661 -24.290  -5.635  1.00 65.85 LIG 0.18  C 
ATOM     41  N   PRO B  50      28.321 -25.594  -5.018  1.00 60.71 LIG-0.34  N 
ATOM     42  CD  PRO B  50      27.544 -26.435  -5.956  1.00 60.54 LIG 0.13  C 
ATOM     43  C   ARG B  49      28.512 -25.706  -3.662  1.00 60.43 LIG 0.26  C 
ATOM     44  CG  PRO B  50      27.400 -25.570  -7.211  1.00 54.86 LIG 0.02  C 
ATOM     45  CB  PRO B  50      28.491 -24.557  -7.144  1.00 61.52 LIG 0.04  C 
ATOM     46 O    ARG B  49      28.931 -24.754  -2.958  1.00 53.87 LIG-0.27  OA
BRANCH 43 47
ATOM     47  CA  ARG B  49      28.170 -27.061  -2.973  1.00 56.75 LIG 0.40  C 
ATOM     48  N   ARG B  49      29.166 -27.435  -1.884  1.00 50.64 LIG 0.61  N 
BRANCH 47 49
ATOM     49  CB  ARG B  49      26.725 -27.023  -2.397  1.00 51.37 LIG 0.05  C 
BRANCH 49 50
ATOM     50  CG  ARG B  49      26.620 -26.650  -0.913  1.00 44.94 LIG 0.02  C 
BRANCH 50 51
ATOM     51  CD  ARG B  49      26.918 -25.141  -0.678  1.00 41.72 LIG 0.14  C 
BRANCH 51 52
ATOM     52  NE  ARG B  49      27.350 -24.860   0.694  1.00 39.59 LIG-0.23  N 
ATOM     53 HE   ARG B  49      26.828 -25.118   1.326  1.00 39.59 LIG 0.18  HD
ATOM     54  CZ  ARG B  49      28.477 -24.242   1.054  1.00 39.90 LIG 0.67  C 
ATOM     55  NH1 ARG B  49      29.314 -23.756   0.129  1.00 39.18 LIG-0.23  N 
ATOM     56  NH2 ARG B  49      28.744 -24.053   2.361  1.00 31.35 LIG-0.23  N 
ATOM     57 2HH1 ARG B  49      30.038 -23.359   0.369  1.00 39.18 LIG 0.17  HD
ATOM     58 1HH1 ARG B  49      29.127 -23.840  -0.707  1.00 39.18 LIG 0.17  HD
ATOM     59 1HH2 ARG B  49      28.190 -24.330   2.958  1.00 31.35 LIG 0.17  HD
ATOM     60 2HH2 ARG B  49      29.468 -23.655   2.599  1.00 31.35 LIG 0.17  HD
ENDBRANCH 51 52
ENDBRANCH 50 51
ENDBRANCH 49 50
ENDBRANCH 47 49
ENDBRANCH 43 47
ENDBRANCH 38 40
ENDBRANCH 1 36
TORSDOF 21
ENDMDL
MODEL 31
USER: ADFR SOLUTION from run 170
USER: SCORE 17.400535 LL:  -3.826 LR: -14.581 RR:   0.000 FEB:  -8.316
USER: RMSD 12.459496
USER: SEED 169
USER: STATUS no improvement in best in 14 clusters for 5 generations
USER: GENES 23
USER: genes 0 Translation |==|  0.74406 0.64925 0.50906
USER: genes 1 Rotation |==|  0.59175 0.14161 0.76639 0.70536
USER: genes 2 Torsion [N]-CA--C-[N] |==|  0.20570
USER: genes 3 Torsion [N]-CA--C-[O] |==|  0.19384
USER: genes 4 Torsion [C]-N--CA-[CB] |==|  0.53517
USER: genes 5 Torsion [N]-CA--CB-[CG] |==|  0.18568
USER: genes 6 Torsion [CA]-CB--CG-[CD1] |==|  0.43897
USER: genes 7 Torsion [N]-CA--C-[N] |==|  0.36580
USER: genes 8 Torsion [C]-N--CA-[CB] |==|  0.29439
USER: genes 9 Torsion [N]-CA--CB-[CG1] |==|  0.46088
USER: genes 10 Torsion [N]-CA--C-[O] |==|  0.29270
USER: genes 11 Torsion [C]-CA--CB-[CG] |==|  0.56828
USER: genes 12 Torsion [CA]-CB--CG-[CD] |==|  0.79611
USER: genes 13 Torsion [CB]-CG--CD-[CE] |==|  0.85435
USER: genes 14 Torsion [CG]-CD--CE-[NZ] |==|  0.40290
USER: genes 15 Torsion [CD]-CE--NZ-[HZ2] |==|  0.95523
USER: genes 16 Torsion [C]-CA--N-[C] |==|  0.69444
USER: genes 17 Torsion [N]-C--CA-[N] |==|  0.81463
USER: genes 18 Torsion [N]-C--CA-[N] |==|  0.24969
USER: genes 19 Torsion [C]-CA--CB-[CG] |==|  0.67725
USER: genes 20 Torsion [CA]-CB--CG-[CD] |==|  0.33563
USER: genes 21 Torsion [CB]-CG--CD-[NE] |==|  0.70445
USER: genes 22 Torsion [CG]-CD--NE-[HE] |==|  0.90496
ROOT
ATOM      1  CA  LYS B  51      28.776 -19.474  -4.382  1.00 67.60 LIG 0.18  C 
ENDROOT
BRANCH 1 2
ATOM      2  C   LYS B  51      29.047 -20.002  -5.829  1.00 65.68 LIG 0.24  C 
ATOM      3  N   PRO B  52      28.054 -19.903  -6.756  1.00 68.58 LIG-0.34  N 
ATOM      4  CD  PRO B  52      26.585 -19.755  -6.622  1.00 71.17 LIG 0.13  C 
ATOM      5  CA  PRO B  52      28.451 -20.253  -8.145  1.00 62.52 LIG 0.18  C 
ATOM      6  CG  PRO B  52      26.059 -20.402  -7.887  1.00 68.49 LIG 0.02  C 
ATOM      7  CB  PRO B  52      27.128 -20.184  -8.916  1.00 62.23 LIG 0.04  C 
ATOM      8 O    LYS B  51      30.121 -20.574  -6.091  1.00 49.94 LIG-0.27  OA
BRANCH 5 9
ATOM      9  C   PRO B  52      29.511 -19.275  -8.730  1.00 62.23 LIG 0.24  C 
ATOM     10 O    PRO B  52      30.673 -19.288  -8.277  1.00 52.82 LIG-0.27  OA
ATOM     11  N   LEU B  53      29.123 -18.505  -9.768  1.00 59.38 LIG-0.35  N 
ATOM     12 H    LEU B  53      28.367 -18.605 -10.164  1.00 59.38 LIG 0.16  HD
BRANCH 11 13
ATOM     13  CA  LEU B  53      29.942 -17.414 -10.337  1.00 58.77 LIG 0.18  C 
BRANCH 13 14
ATOM     14  CB  LEU B  53      29.127 -16.506 -11.301  1.00 52.29 LIG 0.04  C 
BRANCH 14 15
ATOM     15  CG  LEU B  53      27.981 -15.630 -10.706  1.00 62.01 LIG-0.02  C 
ATOM     16  CD2 LEU B  53      26.729 -16.447 -10.361  1.00 53.58 LIG 0.01  C 
ATOM     17  CD1 LEU B  53      27.607 -14.413 -11.585  1.00 50.45 LIG 0.01  C 
ENDBRANCH 14 15
ENDBRANCH 13 14
BRANCH 13 18
ATOM     18  C   LEU B  53      30.535 -16.607  -9.159  1.00 60.22 LIG 0.24  C 
ATOM     19  N   VAL B  54      31.850 -16.332  -9.192  1.00 61.95 LIG-0.35  N 
ATOM     20 H    VAL B  54      32.366 -16.525  -9.852  1.00 61.95 LIG 0.16  HD
ATOM     21 O    LEU B  53      29.808 -16.271  -8.218  1.00 54.25 LIG-0.27  OA
BRANCH 19 22
ATOM     22  CA  VAL B  54      32.532 -15.652  -8.051  1.00 71.55 LIG 0.17  C 
BRANCH 22 23
ATOM     23  CB  VAL B  54      33.440 -16.610  -7.187  1.00 67.56 LIG 0.01  C 
ATOM     24  CG1 VAL B  54      34.375 -15.828  -6.260  1.00 60.73 LIG 0.01  C 
ATOM     25  CG2 VAL B  54      32.613 -17.598  -6.367  1.00 61.59 LIG 0.01  C 
ENDBRANCH 22 23
BRANCH 22 26
ATOM     26  C   VAL B  54      33.305 -14.410  -8.509  1.00 64.78 LIG 0.22  C 
ATOM     27 O    VAL B  54      32.869 -13.294  -8.277  1.00 73.26 LIG-0.29  OA
ENDBRANCH 22 26
ENDBRANCH 19 22
ENDBRANCH 13 18
ENDBRANCH 11 13
ENDBRANCH 5 9
ENDBRANCH 1 2
BRANCH 1 28
ATOM     28  CB  LYS B  51      30.017 -19.204  -3.494  1.00 70.72 LIG 0.04  C 
BRANCH 28 29
ATOM     29  CG  LYS B  51      29.878 -19.243  -1.970  1.00 73.15 LIG 0.00  C 
BRANCH 29 30
ATOM     30  CD  LYS B  51      29.134 -17.998  -1.473  1.00 70.67 LIG 0.03  C 
BRANCH 30 31
ATOM     31  CE  LYS B  51      29.773 -16.722  -2.006  1.00 67.82 LIG 0.23  C 
BRANCH 31 32
ATOM     32  NZ  LYS B  51      28.735 -15.700  -2.274  1.00 73.20 LIG-0.08  N 
ATOM     33 HZ2  LYS B  51      27.935 -16.089  -2.298  1.00 73.20 LIG 0.27  HD
ATOM     34 HZ3  LYS B  51      28.748 -15.089  -1.627  1.00 73.20 LIG 0.27  HD
ATOM     35 HZ1  LYS B  51      28.899 -15.309  -3.056  1.00 73.20 LIG 0.27  HD
ENDBRANCH 31 32
ENDBRANCH 30 31
ENDBRANCH 29 30
ENDBRANCH 28 29
ENDBRANCH 1 28
BRANCH 1 36
ATOM     36  N   LYS B  51      27.890 -20.405  -3.671  1.00 65.69 LIG-0.35  N 
ATOM     37 H    LYS B  51      28.250 -21.159  -3.469  1.00 65.69 LIG 0.16  HD
ATOM     38  C   PRO B  50      26.633 -20.073  -3.379  1.00 68.91 LIG 0.24  C 
ATOM     39 O    PRO B  50      26.115 -19.004  -3.775  1.00 63.49 LIG-0.27  OA
BRANCH 38 40
ATOM     40  CA  PRO B  50      25.831 -21.063  -2.483  1.00 65.85 LIG 0.18  C 
ATOM     41  N   PRO B  50      25.580 -22.350  -3.176  1.00 60.71 LIG-0.34  N 
ATOM     42  CD  PRO B  50      26.531 -23.388  -2.720  1.00 60.54 LIG 0.13  C 
ATOM     43  C   ARG B  49      24.754 -22.312  -4.272  1.00 60.43 LIG 0.26  C 
ATOM     44  CG  PRO B  50      27.415 -22.669  -1.696  1.00 54.86 LIG 0.02  C 
ATOM     45  CB  PRO B  50      26.640 -21.481  -1.240  1.00 61.52 LIG 0.04  C 
ATOM     46 O    ARG B  49      24.242 -21.247  -4.696  1.00 53.87 LIG-0.27  OA
BRANCH 43 47
ATOM     47  CA  ARG B  49      24.461 -23.642  -5.028  1.00 56.75 LIG 0.40  C 
ATOM     48  N   ARG B  49      23.242 -24.374  -4.482  1.00 50.64 LIG 0.61  N 
BRANCH 47 49
ATOM     49  CB  ARG B  49      24.295 -23.371  -6.551  1.00 51.37 LIG 0.05  C 
BRANCH 49 50
ATOM     50  CG  ARG B  49      22.906 -23.679  -7.124  1.00 44.94 LIG 0.02  C 
BRANCH 50 51
ATOM     51  CD  ARG B  49      22.256 -22.418  -7.764  1.00 41.72 LIG 0.14  C 
BRANCH 51 52
ATOM     52  NE  ARG B  49      21.175 -21.865  -6.945  1.00 39.59 LIG-0.23  N 
ATOM     53 HE   ARG B  49      20.696 -22.426  -6.503  1.00 39.59 LIG 0.18  HD
ATOM     54  CZ  ARG B  49      20.863 -20.573  -6.819  1.00 39.90 LIG 0.67  C 
ATOM     55  NH1 ARG B  49      21.521 -19.641  -7.521  1.00 39.18 LIG-0.23  N 
ATOM     56  NH2 ARG B  49      19.837 -20.210  -6.025  1.00 31.35 LIG-0.23  N 
ATOM     57 2HH1 ARG B  49      21.314 -18.811  -7.434  1.00 39.18 LIG 0.17  HD
ATOM     58 1HH1 ARG B  49      22.151 -19.873  -8.058  1.00 39.18 LIG 0.17  HD
ATOM     59 1HH2 ARG B  49      19.387 -20.809  -5.603  1.00 31.35 LIG 0.17  HD
ATOM     60 2HH2 ARG B  49      19.631 -19.379  -5.941  1.00 31.35 LIG 0.17  HD
ENDBRANCH 51 52
ENDBRANCH 50 51
ENDBRANCH 49 50
ENDBRANCH 47 49
ENDBRANCH 43 47
ENDBRANCH 38 40
ENDBRANCH 1 36
TORSDOF 21
ENDMDL
MODEL 32
USER: ADFR SOLUTION from run 21
USER: SCORE 17.383922 LL:  -3.275 LR: -14.565 RR:   0.000 FEB:  -8.300
USER: RMSD 5.524546
USER: SEED 20
USER: STATUS no improvement in best in 12 clusters for 5 generations
USER: GENES 23
USER: genes 0 Translation |==|  0.59305 0.50691 0.33669
USER: genes 1 Rotation |==|  0.33952 0.63775 0.69015 0.91123
USER: genes 2 Torsion [N]-CA--C-[N] |==|  0.35916
USER: genes 3 Torsion [N]-CA--C-[O] |==|  0.78935
USER: genes 4 Torsion [C]-N--CA-[CB] |==|  0.51111
USER: genes 5 Torsion [N]-CA--CB-[CG] |==|  0.82503
USER: genes 6 Torsion [CA]-CB--CG-[CD1] |==|  0.91977
USER: genes 7 Torsion [N]-CA--C-[N] |==|  0.46956
USER: genes 8 Torsion [C]-N--CA-[CB] |==|  0.44909
USER: genes 9 Torsion [N]-CA--CB-[CG1] |==|  0.76579
USER: genes 10 Torsion [N]-CA--C-[O] |==|  0.81444
USER: genes 11 Torsion [C]-CA--CB-[CG] |==|  0.45015
USER: genes 12 Torsion [CA]-CB--CG-[CD] |==|  0.90248
USER: genes 13 Torsion [CB]-CG--CD-[CE] |==|  0.82338
USER: genes 14 Torsion [CG]-CD--CE-[NZ] |==|  0.47784
USER: genes 15 Torsion [CD]-CE--NZ-[HZ2] |==|  0.15629
USER: genes 16 Torsion [C]-CA--N-[C] |==|  0.80215
USER: genes 17 Torsion [N]-C--CA-[N] |==|  0.92972
USER: genes 18 Torsion [N]-C--CA-[N] |==|  0.08720
USER: genes 19 Torsion [C]-CA--CB-[CG] |==|  0.75009
USER: genes 20 Torsion [CA]-CB--CG-[CD] |==|  0.67039
USER: genes 21 Torsion [CB]-CG--CD-[NE] |==|  0.52927
USER: genes 22 Torsion [CG]-CD--NE-[HE] |==|  0.01382
ROOT
ATOM      1  CA  LYS B  51      24.812 -22.676  -7.097  1.00 67.60 LIG 0.18  C 
ENDROOT
BRANCH 1 2
ATOM      2  C   LYS B  51      23.738 -22.667  -5.960  1.00 65.68 LIG 0.24  C 
ATOM      3  N   PRO B  52      22.428 -22.818  -6.299  1.00 68.58 LIG-0.34  N 
ATOM      4  CD  PRO B  52      21.703 -22.605  -7.575  1.00 71.17 LIG 0.13  C 
ATOM      5  CA  PRO B  52      21.496 -22.984  -5.154  1.00 62.52 LIG 0.18  C 
ATOM      6  CG  PRO B  52      20.300 -22.260  -7.118  1.00 68.49 LIG 0.02  C 
ATOM      7  CB  PRO B  52      20.116 -22.993  -5.823  1.00 62.23 LIG 0.04  C 
ATOM      8 O    LYS B  51      24.080 -22.439  -4.785  1.00 49.94 LIG-0.27  OA
BRANCH 5 9
ATOM      9  C   PRO B  52      21.755 -24.294  -4.353  1.00 62.23 LIG 0.24  C 
ATOM     10 O    PRO B  52      21.383 -25.385  -4.828  1.00 52.82 LIG-0.27  OA
ATOM     11  N   LEU B  53      22.450 -24.178  -3.204  1.00 59.38 LIG-0.35  N 
ATOM     12 H    LEU B  53      22.825 -23.444  -2.958  1.00 59.38 LIG 0.16  HD
BRANCH 11 13
ATOM     13  CA  LEU B  53      22.647 -25.284  -2.243  1.00 58.77 LIG 0.18  C 
BRANCH 13 14
ATOM     14  CB  LEU B  53      23.405 -24.827  -0.964  1.00 52.29 LIG 0.04  C 
BRANCH 14 15
ATOM     15  CG  LEU B  53      24.867 -24.304  -1.113  1.00 62.01 LIG-0.02  C 
ATOM     16  CD2 LEU B  53      24.946 -22.771  -1.158  1.00 53.58 LIG 0.01  C 
ATOM     17  CD1 LEU B  53      25.630 -24.920  -2.310  1.00 50.45 LIG 0.01  C 
ENDBRANCH 14 15
ENDBRANCH 13 14
BRANCH 13 18
ATOM     18  C   LEU B  53      21.255 -25.865  -1.904  1.00 60.22 LIG 0.24  C 
ATOM     19  N   VAL B  54      21.212 -27.024  -1.224  1.00 61.95 LIG-0.35  N 
ATOM     20 H    VAL B  54      21.906 -27.427  -0.916  1.00 61.95 LIG 0.16  HD
ATOM     21 O    LEU B  53      20.235 -25.281  -2.289  1.00 54.25 LIG-0.27  OA
BRANCH 19 22
ATOM     22  CA  VAL B  54      19.918 -27.715  -0.944  1.00 71.55 LIG 0.17  C 
BRANCH 22 23
ATOM     23  CB  VAL B  54      20.077 -29.235  -0.558  1.00 67.56 LIG 0.01  C 
ATOM     24  CG1 VAL B  54      20.170 -30.133  -1.795  1.00 60.73 LIG 0.01  C 
ATOM     25  CG2 VAL B  54      21.287 -29.475   0.343  1.00 61.59 LIG 0.01  C 
ENDBRANCH 22 23
BRANCH 22 26
ATOM     26  C   VAL B  54      19.083 -26.957   0.095  1.00 64.78 LIG 0.22  C 
ATOM     27 O    VAL B  54      19.468 -26.870   1.250  1.00 73.26 LIG-0.29  OA
ENDBRANCH 22 26
ENDBRANCH 19 22
ENDBRANCH 13 18
ENDBRANCH 11 13
ENDBRANCH 5 9
ENDBRANCH 1 2
BRANCH 1 28
ATOM     28  CB  LYS B  51      25.699 -23.942  -7.208  1.00 70.72 LIG 0.04  C 
BRANCH 28 29
ATOM     29  CG  LYS B  51      26.467 -24.216  -8.503  1.00 73.15 LIG 0.00  C 
BRANCH 29 30
ATOM     30  CD  LYS B  51      25.649 -23.753  -9.713  1.00 70.67 LIG 0.03  C 
BRANCH 30 31
ATOM     31  CE  LYS B  51      24.353 -24.544  -9.841  1.00 67.82 LIG 0.23  C 
BRANCH 31 32
ATOM     32  NZ  LYS B  51      23.494 -23.957 -10.893  1.00 73.20 LIG-0.08  N 
ATOM     33 HZ2  LYS B  51      23.943 -23.927 -11.661  1.00 73.20 LIG 0.27  HD
ATOM     34 HZ3  LYS B  51      22.766 -24.458 -10.996  1.00 73.20 LIG 0.27  HD
ATOM     35 HZ1  LYS B  51      23.256 -23.133 -10.657  1.00 73.20 LIG 0.27  HD
ENDBRANCH 31 32
ENDBRANCH 30 31
ENDBRANCH 29 30
ENDBRANCH 28 29
ENDBRANCH 1 28
BRANCH 1 36
ATOM     36  N   LYS B  51      25.688 -21.506  -6.965  1.00 65.69 LIG-0.35  N 
ATOM     37 H    LYS B  51      26.487 -21.684  -6.701  1.00 65.69 LIG 0.16  HD
ATOM     38  C   PRO B  50      25.247 -20.279  -7.238  1.00 68.91 LIG 0.24  C 
ATOM     39 O    PRO B  50      24.050 -20.049  -7.525  1.00 63.49 LIG-0.27  OA
BRANCH 38 40
ATOM     40  CA  PRO B  50      26.298 -19.130  -7.223  1.00 65.85 LIG 0.18  C 
ATOM     41  N   PRO B  50      27.453 -19.455  -6.351  1.00 60.71 LIG-0.34  N 
ATOM     42  CD  PRO B  50      28.607 -19.913  -7.155  1.00 60.54 LIG 0.13  C 
ATOM     43  C   ARG B  49      27.204 -19.555  -5.004  1.00 60.43 LIG 0.26  C 
ATOM     44  CG  PRO B  50      28.104 -19.871  -8.601  1.00 54.86 LIG 0.02  C 
ATOM     45  CB  PRO B  50      26.944 -18.936  -8.609  1.00 61.52 LIG 0.04  C 
ATOM     46 O    ARG B  49      26.056 -19.403  -4.517  1.00 53.87 LIG-0.27  OA
BRANCH 43 47
ATOM     47  CA  ARG B  49      28.389 -19.892  -4.052  1.00 56.75 LIG 0.40  C 
ATOM     48  N   ARG B  49      29.720 -19.347  -4.554  1.00 50.64 LIG 0.61  N 
BRANCH 47 49
ATOM     49  CB  ARG B  49      28.094 -19.367  -2.617  1.00 51.37 LIG 0.05  C 
BRANCH 49 50
ATOM     50  CG  ARG B  49      28.569 -17.937  -2.331  1.00 44.94 LIG 0.02  C 
BRANCH 50 51
ATOM     51  CD  ARG B  49      29.619 -17.899  -1.183  1.00 41.72 LIG 0.14  C 
BRANCH 51 52
ATOM     52  NE  ARG B  49      29.903 -16.537  -0.725  1.00 39.59 LIG-0.23  N 
ATOM     53 HE   ARG B  49      29.433 -15.905  -1.070  1.00 39.59 LIG 0.18  HD
ATOM     54  CZ  ARG B  49      30.822 -16.183   0.176  1.00 39.90 LIG 0.67  C 
ATOM     55  NH1 ARG B  49      31.636 -17.100   0.714  1.00 39.18 LIG-0.23  N 
ATOM     56  NH2 ARG B  49      30.971 -14.884   0.501  1.00 31.35 LIG-0.23  N 
ATOM     57 2HH1 ARG B  49      32.226 -16.864   1.295  1.00 39.18 LIG 0.17  HD
ATOM     58 1HH1 ARG B  49      31.570 -17.925   0.480  1.00 39.18 LIG 0.17  HD
ATOM     59 1HH2 ARG B  49      30.476 -14.288   0.128  1.00 31.35 LIG 0.17  HD
ATOM     60 2HH2 ARG B  49      31.562 -14.651   1.080  1.00 31.35 LIG 0.17  HD
ENDBRANCH 51 52
ENDBRANCH 50 51
ENDBRANCH 49 50
ENDBRANCH 47 49
ENDBRANCH 43 47
ENDBRANCH 38 40
ENDBRANCH 1 36
TORSDOF 21
ENDMDL
MODEL 33
USER: ADFR SOLUTION from run 20
USER: SCORE 16.822843 LL:  -3.254 LR: -14.562 RR:   0.000 FEB:  -8.297
USER: RMSD 9.567615
USER: SEED 19
USER: STATUS searching
USER: GENES 23
USER: genes 0 Translation |==|  0.79303 0.63495 0.52538
USER: genes 1 Rotation |==|  0.98665 0.59904 0.44278 0.50931
USER: genes 2 Torsion [N]-CA--C-[N] |==|  0.53889
USER: genes 3 Torsion [N]-CA--C-[O] |==|  0.83026
USER: genes 4 Torsion [C]-N--CA-[CB] |==|  0.85351
USER: genes 5 Torsion [N]-CA--CB-[CG] |==|  0.57254
USER: genes 6 Torsion [CA]-CB--CG-[CD1] |==|  0.73311
USER: genes 7 Torsion [N]-CA--C-[N] |==|  0.44961
USER: genes 8 Torsion [C]-N--CA-[CB] |==|  0.75925
USER: genes 9 Torsion [N]-CA--CB-[CG1] |==|  0.45228
USER: genes 10 Torsion [N]-CA--C-[O] |==|  0.14766
USER: genes 11 Torsion [C]-CA--CB-[CG] |==|  0.45944
USER: genes 12 Torsion [CA]-CB--CG-[CD] |==|  0.60525
USER: genes 13 Torsion [CB]-CG--CD-[CE] |==|  0.90013
USER: genes 14 Torsion [CG]-CD--CE-[NZ] |==|  0.83136
USER: genes 15 Torsion [CD]-CE--NZ-[HZ2] |==|  0.79246
USER: genes 16 Torsion [C]-CA--N-[C] |==|  0.78659
USER: genes 17 Torsion [N]-C--CA-[N] |==|  0.98757
USER: genes 18 Torsion [N]-C--CA-[N] |==|  0.85355
USER: genes 19 Torsion [C]-CA--CB-[CG] |==|  0.15074
USER: genes 20 Torsion [CA]-CB--CG-[CD] |==|  0.22552
USER: genes 21 Torsion [CB]-CG--CD-[NE] |==|  0.07366
USER: genes 22 Torsion [CG]-CD--NE-[HE] |==|  0.01128
ROOT
ATOM      1  CA  LYS B  51      30.061 -19.796  -4.125  1.00 67.60 LIG 0.18  C 
ENDROOT
BRANCH 1 2
ATOM      2  C   LYS B  51      28.903 -20.831  -4.309  1.00 65.68 LIG 0.24  C 
ATOM      3  N   PRO B  52      28.101 -21.107  -3.245  1.00 68.58 LIG-0.34  N 
ATOM      4  CD  PRO B  52      28.298 -20.938  -1.785  1.00 71.17 LIG 0.13  C 
ATOM      5  CA  PRO B  52      26.918 -21.954  -3.549  1.00 62.52 LIG 0.18  C 
ATOM      6  CG  PRO B  52      27.424 -22.026  -1.194  1.00 68.49 LIG 0.02  C 
ATOM      7  CB  PRO B  52      26.299 -22.202  -2.169  1.00 62.23 LIG 0.04  C 
ATOM      8 O    LYS B  51      28.784 -21.445  -5.385  1.00 49.94 LIG-0.27  OA
BRANCH 5 9
ATOM      9  C   PRO B  52      25.914 -21.258  -4.515  1.00 62.23 LIG 0.24  C 
ATOM     10 O    PRO B  52      25.372 -20.190  -4.168  1.00 52.82 LIG-0.27  OA
ATOM     11  N   LEU B  53      25.743 -21.824  -5.727  1.00 59.38 LIG-0.35  N 
ATOM     12 H    LEU B  53      26.226 -22.477  -6.008  1.00 59.38 LIG 0.16  HD
BRANCH 11 13
ATOM     13  CA  LEU B  53      24.717 -21.394  -6.700  1.00 58.77 LIG 0.18  C 
BRANCH 13 14
ATOM     14  CB  LEU B  53      23.292 -21.356  -6.077  1.00 52.29 LIG 0.04  C 
BRANCH 14 15
ATOM     15  CG  LEU B  53      22.063 -21.538  -7.021  1.00 62.01 LIG-0.02  C 
ATOM     16  CD2 LEU B  53      22.372 -22.431  -8.231  1.00 53.58 LIG 0.01  C 
ATOM     17  CD1 LEU B  53      21.428 -20.204  -7.482  1.00 50.45 LIG 0.01  C 
ENDBRANCH 14 15
ENDBRANCH 13 14
BRANCH 13 18
ATOM     18  C   LEU B  53      25.137 -20.009  -7.245  1.00 60.22 LIG 0.24  C 
ATOM     19  N   VAL B  54      24.573 -19.594  -8.392  1.00 61.95 LIG-0.35  N 
ATOM     20 H    VAL B  54      23.953 -20.022  -8.807  1.00 61.95 LIG 0.16  HD
ATOM     21 O    LEU B  53      25.990 -19.346  -6.645  1.00 54.25 LIG-0.27  OA
BRANCH 19 22
ATOM     22  CA  VAL B  54      24.994 -18.321  -9.051  1.00 71.55 LIG 0.17  C 
BRANCH 22 23
ATOM     23  CB  VAL B  54      24.232 -17.046  -8.521  1.00 67.56 LIG 0.01  C 
ATOM     24  CG1 VAL B  54      24.960 -15.750  -8.892  1.00 60.73 LIG 0.01  C 
ATOM     25  CG2 VAL B  54      22.792 -16.988  -9.025  1.00 61.59 LIG 0.01  C 
ENDBRANCH 22 23
BRANCH 22 26
ATOM     26  C   VAL B  54      26.514 -18.130  -8.996  1.00 64.78 LIG 0.22  C 
ATOM     27 O    VAL B  54      27.260 -19.008  -9.400  1.00 73.26 LIG-0.29  OA
ENDBRANCH 22 26
ENDBRANCH 19 22
ENDBRANCH 13 18
ENDBRANCH 11 13
ENDBRANCH 5 9
ENDBRANCH 1 2
BRANCH 1 28
ATOM     28  CB  LYS B  51      29.729 -18.515  -3.317  1.00 70.72 LIG 0.04  C 
BRANCH 28 29
ATOM     29  CG  LYS B  51      30.866 -17.626  -2.809  1.00 73.15 LIG 0.00  C 
BRANCH 29 30
ATOM     30  CD  LYS B  51      30.531 -17.080  -1.417  1.00 70.67 LIG 0.03  C 
BRANCH 30 31
ATOM     31  CE  LYS B  51      29.043 -16.778  -1.285  1.00 67.82 LIG 0.23  C 
BRANCH 31 32
ATOM     32  NZ  LYS B  51      28.635 -15.757  -2.275  1.00 73.20 LIG-0.08  N 
ATOM     33 HZ2  LYS B  51      28.927 -14.957  -2.015  1.00 73.20 LIG 0.27  HD
ATOM     34 HZ3  LYS B  51      28.986 -15.956  -3.068  1.00 73.20 LIG 0.27  HD
ATOM     35 HZ1  LYS B  51      27.748 -15.742  -2.338  1.00 73.20 LIG 0.27  HD
ENDBRANCH 31 32
ENDBRANCH 30 31
ENDBRANCH 29 30
ENDBRANCH 28 29
ENDBRANCH 1 28
BRANCH 1 36
ATOM     36  N   LYS B  51      30.583 -19.393  -5.438  1.00 65.69 LIG-0.35  N 
ATOM     37 H    LYS B  51      30.323 -18.618  -5.705  1.00 65.69 LIG 0.16  HD
ATOM     38  C   PRO B  50      31.393 -20.191  -6.131  1.00 68.91 LIG 0.24  C 
ATOM     39 O    PRO B  50      31.671 -21.352  -5.753  1.00 63.49 LIG-0.27  OA
BRANCH 38 40
ATOM     40  CA  PRO B  50      32.018 -19.605  -7.432  1.00 65.85 LIG 0.18  C 
ATOM     41  N   PRO B  50      31.498 -18.249  -7.728  1.00 60.71 LIG-0.34  N 
ATOM     42  CD  PRO B  50      32.467 -17.210  -7.313  1.00 60.54 LIG 0.13  C 
ATOM     43  C   ARG B  49      30.166 -18.153  -8.052  1.00 60.43 LIG 0.26  C 
ATOM     44  CG  PRO B  50      33.637 -17.999  -6.718  1.00 54.86 LIG 0.02  C 
ATOM     45  CB  PRO B  50      33.535 -19.377  -7.276  1.00 61.52 LIG 0.04  C 
ATOM     46 O    ARG B  49      29.405 -19.151  -8.080  1.00 53.87 LIG-0.27  OA
BRANCH 43 47
ATOM     47  CA  ARG B  49      29.579 -16.747  -8.372  1.00 56.75 LIG 0.40  C 
ATOM     48  N   ARG B  49      29.869 -15.725  -7.281  1.00 50.64 LIG 0.61  N 
BRANCH 47 49
ATOM     49  CB  ARG B  49      30.110 -16.241  -9.745  1.00 51.37 LIG 0.05  C 
BRANCH 49 50
ATOM     50  CG  ARG B  49      29.887 -17.193 -10.926  1.00 44.94 LIG 0.02  C 
BRANCH 50 51
ATOM     51  CD  ARG B  49      28.443 -17.075 -11.493  1.00 41.72 LIG 0.14  C 
BRANCH 51 52
ATOM     52  NE  ARG B  49      27.849 -15.758 -11.252  1.00 39.59 LIG-0.23  N 
ATOM     53 HE   ARG B  49      28.351 -15.167 -10.881  1.00 39.59 LIG 0.18  HD
ATOM     54  CZ  ARG B  49      26.602 -15.388 -11.554  1.00 39.90 LIG 0.67  C 
ATOM     55  NH1 ARG B  49      25.738 -16.267 -12.077  1.00 39.18 LIG-0.23  N 
ATOM     56  NH2 ARG B  49      26.192 -14.135 -11.272  1.00 31.35 LIG-0.23  N 
ATOM     57 2HH1 ARG B  49      24.936 -16.020 -12.269  1.00 39.18 LIG 0.17  HD
ATOM     58 1HH1 ARG B  49      25.985 -17.078 -12.222  1.00 39.18 LIG 0.17  HD
ATOM     59 1HH2 ARG B  49      26.733 -13.579 -10.900  1.00 31.35 LIG 0.17  HD
ATOM     60 2HH2 ARG B  49      25.390 -13.892 -11.464  1.00 31.35 LIG 0.17  HD
ENDBRANCH 51 52
ENDBRANCH 50 51
ENDBRANCH 49 50
ENDBRANCH 47 49
ENDBRANCH 43 47
ENDBRANCH 38 40
ENDBRANCH 1 36
TORSDOF 21
ENDMDL
MODEL 34
USER: ADFR SOLUTION from run 60
USER: SCORE 16.469128 LL:  -3.498 LR: -14.549 RR:   0.000 FEB:  -8.285
USER: RMSD 7.313994
USER: SEED 59
USER: STATUS no improvement in best in 14 clusters for 5 generations
USER: GENES 23
USER: genes 0 Translation |==|  0.32520 0.47008 0.33391
USER: genes 1 Rotation |==|  0.02278 0.64354 0.53764 0.51562
USER: genes 2 Torsion [N]-CA--C-[N] |==|  0.09316
USER: genes 3 Torsion [N]-CA--C-[O] |==|  0.47815
USER: genes 4 Torsion [C]-N--CA-[CB] |==|  0.27012
USER: genes 5 Torsion [N]-CA--CB-[CG] |==|  0.72342
USER: genes 6 Torsion [CA]-CB--CG-[CD1] |==|  0.96118
USER: genes 7 Torsion [N]-CA--C-[N] |==|  0.29644
USER: genes 8 Torsion [C]-N--CA-[CB] |==|  0.83172
USER: genes 9 Torsion [N]-CA--CB-[CG1] |==|  0.31449
USER: genes 10 Torsion [N]-CA--C-[O] |==|  0.06647
USER: genes 11 Torsion [C]-CA--CB-[CG] |==|  0.43827
USER: genes 12 Torsion [CA]-CB--CG-[CD] |==|  0.35607
USER: genes 13 Torsion [CB]-CG--CD-[CE] |==|  0.01093
USER: genes 14 Torsion [CG]-CD--CE-[NZ] |==|  0.22949
USER: genes 15 Torsion [CD]-CE--NZ-[HZ2] |==|  0.99993
USER: genes 16 Torsion [C]-CA--N-[C] |==|  0.62778
USER: genes 17 Torsion [N]-C--CA-[N] |==|  0.34465
USER: genes 18 Torsion [N]-C--CA-[N] |==|  0.13987
USER: genes 19 Torsion [C]-CA--CB-[CG] |==|  0.65724
USER: genes 20 Torsion [CA]-CB--CG-[CD] |==|  0.55392
USER: genes 21 Torsion [CB]-CG--CD-[NE] |==|  0.52776
USER: genes 22 Torsion [CG]-CD--NE-[HE] |==|  0.99153
ROOT
ATOM      1  CA  LYS B  51      17.780 -23.505  -7.141  1.00 67.60 LIG 0.18  C 
ENDROOT
BRANCH 1 2
ATOM      2  C   LYS B  51      16.293 -23.118  -7.431  1.00 65.68 LIG 0.24  C 
ATOM      3  N   PRO B  52      15.667 -23.689  -8.497  1.00 68.58 LIG-0.34  N 
ATOM      4  CD  PRO B  52      16.190 -24.332  -9.726  1.00 71.17 LIG 0.13  C 
ATOM      5  CA  PRO B  52      14.210 -23.413  -8.594  1.00 62.52 LIG 0.18  C 
ATOM      6  CG  PRO B  52      15.085 -24.094 -10.734  1.00 68.49 LIG 0.02  C 
ATOM      7  CB  PRO B  52      13.819 -24.054  -9.931  1.00 62.23 LIG 0.04  C 
ATOM      8 O    LYS B  51      15.734 -22.242  -6.746  1.00 49.94 LIG-0.27  OA
BRANCH 5 9
ATOM      9  C   PRO B  52      13.404 -24.020  -7.407  1.00 62.23 LIG 0.24  C 
ATOM     10 O    PRO B  52      12.195 -23.741  -7.283  1.00 52.82 LIG-0.27  OA
ATOM     11  N   LEU B  53      14.056 -24.889  -6.609  1.00 59.38 LIG-0.35  N 
ATOM     12 H    LEU B  53      14.845 -25.183  -6.787  1.00 59.38 LIG 0.16  HD
BRANCH 11 13
ATOM     13  CA  LEU B  53      13.500 -25.432  -5.352  1.00 58.77 LIG 0.18  C 
BRANCH 13 14
ATOM     14  CB  LEU B  53      12.859 -26.836  -5.547  1.00 52.29 LIG 0.04  C 
BRANCH 14 15
ATOM     15  CG  LEU B  53      11.309 -26.931  -5.696  1.00 62.01 LIG-0.02  C 
ATOM     16  CD2 LEU B  53      10.875 -27.384  -7.097  1.00 53.58 LIG 0.01  C 
ATOM     17  CD1 LEU B  53      10.563 -25.638  -5.290  1.00 50.45 LIG 0.01  C 
ENDBRANCH 14 15
ENDBRANCH 13 14
BRANCH 13 18
ATOM     18  C   LEU B  53      14.640 -25.466  -4.309  1.00 60.22 LIG 0.24  C 
ATOM     19  N   VAL B  54      14.610 -24.554  -3.322  1.00 61.95 LIG-0.35  N 
ATOM     20 H    VAL B  54      13.968 -23.995  -3.203  1.00 61.95 LIG 0.16  HD
ATOM     21 O    LEU B  53      15.553 -26.292  -4.424  1.00 54.25 LIG-0.27  OA
BRANCH 19 22
ATOM     22  CA  VAL B  54      15.722 -24.441  -2.332  1.00 71.55 LIG 0.17  C 
BRANCH 22 23
ATOM     23  CB  VAL B  54      15.958 -25.750  -1.484  1.00 67.56 LIG 0.01  C 
ATOM     24  CG1 VAL B  54      17.306 -26.403  -1.803  1.00 60.73 LIG 0.01  C 
ATOM     25  CG2 VAL B  54      15.857 -25.487   0.017  1.00 61.59 LIG 0.01  C 
ENDBRANCH 22 23
BRANCH 22 26
ATOM     26  C   VAL B  54      17.020 -23.958  -2.989  1.00 64.78 LIG 0.22  C 
ATOM     27 O    VAL B  54      16.982 -23.315  -4.027  1.00 73.26 LIG-0.29  OA
ENDBRANCH 22 26
ENDBRANCH 19 22
ENDBRANCH 13 18
ENDBRANCH 11 13
ENDBRANCH 5 9
ENDBRANCH 1 2
BRANCH 1 28
ATOM     28  CB  LYS B  51      18.615 -22.496  -6.312  1.00 70.72 LIG 0.04  C 
BRANCH 28 29
ATOM     29  CG  LYS B  51      19.857 -22.980  -5.560  1.00 73.15 LIG 0.00  C 
BRANCH 29 30
ATOM     30  CD  LYS B  51      21.064 -22.102  -5.908  1.00 70.67 LIG 0.03  C 
BRANCH 30 31
ATOM     31  CE  LYS B  51      20.665 -20.949  -6.821  1.00 67.82 LIG 0.23  C 
BRANCH 31 32
ATOM     32  NZ  LYS B  51      20.108 -19.832  -6.025  1.00 73.20 LIG-0.08  N 
ATOM     33 HZ2  LYS B  51      20.114 -20.050  -5.162  1.00 73.20 LIG 0.27  HD
ATOM     34 HZ3  LYS B  51      20.604 -19.103  -6.150  1.00 73.20 LIG 0.27  HD
ATOM     35 HZ1  LYS B  51      19.272 -19.670  -6.284  1.00 73.20 LIG 0.27  HD
ENDBRANCH 31 32
ENDBRANCH 30 31
ENDBRANCH 29 30
ENDBRANCH 28 29
ENDBRANCH 1 28
BRANCH 1 36
ATOM     36  N   LYS B  51      18.484 -23.761  -8.404  1.00 65.69 LIG-0.35  N 
ATOM     37 H    LYS B  51      18.347 -23.173  -9.017  1.00 65.69 LIG 0.16  HD
ATOM     38  C   PRO B  50      19.264 -24.830  -8.554  1.00 68.91 LIG 0.24  C 
ATOM     39 O    PRO B  50      19.361 -25.715  -7.674  1.00 63.49 LIG-0.27  OA
BRANCH 38 40
ATOM     40  CA  PRO B  50      20.090 -24.923  -9.872  1.00 65.85 LIG 0.18  C 
ATOM     41  N   PRO B  50      21.540 -25.070  -9.601  1.00 60.71 LIG-0.34  N 
ATOM     42  CD  PRO B  50      21.963 -26.480  -9.748  1.00 60.54 LIG 0.13  C 
ATOM     43  C   ARG B  49      22.171 -24.002  -9.011  1.00 60.43 LIG 0.26  C 
ATOM     44  CG  PRO B  50      20.678 -27.226 -10.119  1.00 54.86 LIG 0.02  C 
ATOM     45  CB  PRO B  50      19.746 -26.199 -10.665  1.00 61.52 LIG 0.04  C 
ATOM     46 O    ARG B  49      21.563 -22.952  -8.688  1.00 53.87 LIG-0.27  OA
BRANCH 43 47
ATOM     47  CA  ARG B  49      23.696 -24.113  -8.711  1.00 56.75 LIG 0.40  C 
ATOM     48  N   ARG B  49      24.501 -24.574  -9.919  1.00 50.64 LIG 0.61  N 
BRANCH 47 49
ATOM     49  CB  ARG B  49      24.241 -22.756  -8.180  1.00 51.37 LIG 0.05  C 
BRANCH 49 50
ATOM     50  CG  ARG B  49      25.405 -22.160  -8.980  1.00 44.94 LIG 0.02  C 
BRANCH 50 51
ATOM     51  CD  ARG B  49      26.193 -21.106  -8.149  1.00 41.72 LIG 0.14  C 
BRANCH 51 52
ATOM     52  NE  ARG B  49      27.157 -20.356  -8.959  1.00 39.59 LIG-0.23  N 
ATOM     53 HE   ARG B  49      27.231 -20.584  -9.785  1.00 39.59 LIG 0.18  HD
ATOM     54  CZ  ARG B  49      27.930 -19.353  -8.536  1.00 39.90 LIG 0.67  C 
ATOM     55  NH1 ARG B  49      27.919 -18.979  -7.251  1.00 39.18 LIG-0.23  N 
ATOM     56  NH2 ARG B  49      28.774 -18.754  -9.400  1.00 31.35 LIG-0.23  N 
ATOM     57 2HH1 ARG B  49      28.421 -18.332  -6.987  1.00 39.18 LIG 0.17  HD
ATOM     58 1HH1 ARG B  49      27.411 -19.386  -6.689  1.00 39.18 LIG 0.17  HD
ATOM     59 1HH2 ARG B  49      28.811 -19.018 -10.217  1.00 31.35 LIG 0.17  HD
ATOM     60 2HH2 ARG B  49      29.275 -18.108  -9.133  1.00 31.35 LIG 0.17  HD
ENDBRANCH 51 52
ENDBRANCH 50 51
ENDBRANCH 49 50
ENDBRANCH 47 49
ENDBRANCH 43 47
ENDBRANCH 38 40
ENDBRANCH 1 36
TORSDOF 21
ENDMDL
MODEL 35
USER: ADFR SOLUTION from run 97
USER: SCORE 17.678059 LL:  -4.080 LR: -14.535 RR:   0.000 FEB:  -8.271
USER: RMSD 7.450230
USER: SEED 96
USER: STATUS no improvement in best in 10 clusters for 5 generations
USER: GENES 23
USER: genes 0 Translation |==|  0.69498 0.60410 0.63310
USER: genes 1 Rotation |==|  0.83773 0.19858 0.63989 0.65974
USER: genes 2 Torsion [N]-CA--C-[N] |==|  0.82834
USER: genes 3 Torsion [N]-CA--C-[O] |==|  0.46722
USER: genes 4 Torsion [C]-N--CA-[CB] |==|  0.55784
USER: genes 5 Torsion [N]-CA--CB-[CG] |==|  0.30961
USER: genes 6 Torsion [CA]-CB--CG-[CD1] |==|  0.32718
USER: genes 7 Torsion [N]-CA--C-[N] |==|  0.35243
USER: genes 8 Torsion [C]-N--CA-[CB] |==|  0.78666
USER: genes 9 Torsion [N]-CA--CB-[CG1] |==|  0.64968
USER: genes 10 Torsion [N]-CA--C-[O] |==|  0.09571
USER: genes 11 Torsion [C]-CA--CB-[CG] |==|  0.08748
USER: genes 12 Torsion [CA]-CB--CG-[CD] |==|  0.41286
USER: genes 13 Torsion [CB]-CG--CD-[CE] |==|  0.54074
USER: genes 14 Torsion [CG]-CD--CE-[NZ] |==|  0.06241
USER: genes 15 Torsion [CD]-CE--NZ-[HZ2] |==|  0.72172
USER: genes 16 Torsion [C]-CA--N-[C] |==|  0.63491
USER: genes 17 Torsion [N]-C--CA-[N] |==|  0.39748
USER: genes 18 Torsion [N]-C--CA-[N] |==|  0.15394
USER: genes 19 Torsion [C]-CA--CB-[CG] |==|  0.78006
USER: genes 20 Torsion [CA]-CB--CG-[CD] |==|  0.35781
USER: genes 21 Torsion [CB]-CG--CD-[NE] |==|  0.80835
USER: genes 22 Torsion [CG]-CD--NE-[HE] |==|  0.11309
ROOT
ATOM      1  CA  LYS B  51      27.487 -20.490  -2.429  1.00 67.60 LIG 0.18  C 
ENDROOT
BRANCH 1 2
ATOM      2  C   LYS B  51      26.821 -20.036  -3.769  1.00 65.68 LIG 0.24  C 
ATOM      3  N   PRO B  52      27.513 -20.203  -4.929  1.00 68.58 LIG-0.34  N 
ATOM      4  CD  PRO B  52      28.960 -20.372  -5.205  1.00 71.17 LIG 0.13  C 
ATOM      5  CA  PRO B  52      26.743 -19.922  -6.169  1.00 62.52 LIG 0.18  C 
ATOM      6  CG  PRO B  52      29.111 -19.804  -6.602  1.00 68.49 LIG 0.02  C 
ATOM      7  CB  PRO B  52      27.796 -20.057  -7.276  1.00 62.23 LIG 0.04  C 
ATOM      8 O    LYS B  51      25.719 -19.459  -3.751  1.00 49.94 LIG-0.27  OA
BRANCH 5 9
ATOM      9  C   PRO B  52      25.558 -20.910  -6.377  1.00 62.23 LIG 0.24  C 
ATOM     10 O    PRO B  52      24.700 -20.662  -7.246  1.00 52.82 LIG-0.27  OA
ATOM     11  N   LEU B  53      25.570 -22.039  -5.640  1.00 59.38 LIG-0.35  N 
ATOM     12 H    LEU B  53      26.238 -22.267  -5.149  1.00 59.38 LIG 0.16  HD
BRANCH 11 13
ATOM     13  CA  LEU B  53      24.451 -23.004  -5.590  1.00 58.77 LIG 0.18  C 
BRANCH 13 14
ATOM     14  CB  LEU B  53      24.501 -23.901  -4.321  1.00 52.29 LIG 0.04  C 
BRANCH 14 15
ATOM     15  CG  LEU B  53      23.399 -23.711  -3.232  1.00 62.01 LIG-0.02  C 
ATOM     16  CD2 LEU B  53      23.966 -23.208  -1.897  1.00 53.58 LIG 0.01  C 
ATOM     17  CD1 LEU B  53      22.521 -24.965  -3.009  1.00 50.45 LIG 0.01  C 
ENDBRANCH 14 15
ENDBRANCH 13 14
BRANCH 13 18
ATOM     18  C   LEU B  53      23.133 -22.200  -5.668  1.00 60.22 LIG 0.24  C 
ATOM     19  N   VAL B  54      22.244 -22.551  -6.613  1.00 61.95 LIG-0.35  N 
ATOM     20 H    VAL B  54      22.338 -23.228  -7.134  1.00 61.95 LIG 0.16  HD
ATOM     21 O    LEU B  53      22.947 -21.250  -4.899  1.00 54.25 LIG-0.27  OA
BRANCH 19 22
ATOM     22  CA  VAL B  54      20.993 -21.766  -6.835  1.00 71.55 LIG 0.17  C 
BRANCH 22 23
ATOM     23  CB  VAL B  54      19.873 -22.033  -5.756  1.00 67.56 LIG 0.01  C 
ATOM     24  CG1 VAL B  54      18.544 -22.437  -6.400  1.00 60.73 LIG 0.01  C 
ATOM     25  CG2 VAL B  54      20.296 -23.093  -4.742  1.00 61.59 LIG 0.01  C 
ENDBRANCH 22 23
BRANCH 22 26
ATOM     26  C   VAL B  54      21.281 -20.268  -6.985  1.00 64.78 LIG 0.22  C 
ATOM     27 O    VAL B  54      22.307 -19.890  -7.530  1.00 73.26 LIG-0.29  OA
ENDBRANCH 22 26
ENDBRANCH 19 22
ENDBRANCH 13 18
ENDBRANCH 11 13
ENDBRANCH 5 9
ENDBRANCH 1 2
BRANCH 1 28
ATOM     28  CB  LYS B  51      28.801 -19.772  -2.025  1.00 70.72 LIG 0.04  C 
BRANCH 28 29
ATOM     29  CG  LYS B  51      29.017 -18.310  -2.424  1.00 73.15 LIG 0.00  C 
BRANCH 29 30
ATOM     30  CD  LYS B  51      29.872 -17.594  -1.373  1.00 70.67 LIG 0.03  C 
BRANCH 30 31
ATOM     31  CE  LYS B  51      29.807 -16.082  -1.544  1.00 67.82 LIG 0.23  C 
BRANCH 31 32
ATOM     32  NZ  LYS B  51      28.578 -15.699  -2.275  1.00 73.20 LIG-0.08  N 
ATOM     33 HZ2  LYS B  51      28.776 -15.543  -3.128  1.00 73.20 LIG 0.27  HD
ATOM     34 HZ3  LYS B  51      27.985 -16.361  -2.225  1.00 73.20 LIG 0.27  HD
ATOM     35 HZ1  LYS B  51      28.233 -14.964  -1.911  1.00 73.20 LIG 0.27  HD
ENDBRANCH 31 32
ENDBRANCH 30 31
ENDBRANCH 29 30
ENDBRANCH 28 29
ENDBRANCH 1 28
BRANCH 1 36
ATOM     36  N   LYS B  51      27.741 -21.936  -2.463  1.00 65.69 LIG-0.35  N 
ATOM     37 H    LYS B  51      28.130 -22.215  -3.177  1.00 65.69 LIG 0.16  HD
ATOM     38  C   PRO B  50      27.381 -22.722  -1.449  1.00 68.91 LIG 0.24  C 
ATOM     39 O    PRO B  50      26.729 -22.294  -0.470  1.00 63.49 LIG-0.27  OA
BRANCH 38 40
ATOM     40  CA  PRO B  50      27.840 -24.210  -1.513  1.00 65.85 LIG 0.18  C 
ATOM     41  N   PRO B  50      28.199 -24.731  -0.172  1.00 60.71 LIG-0.34  N 
ATOM     42  CD  PRO B  50      27.099 -25.547   0.389  1.00 60.54 LIG 0.13  C 
ATOM     43  C   ARG B  49      29.302 -24.178   0.432  1.00 60.43 LIG 0.26  C 
ATOM     44  CG  PRO B  50      26.007 -25.499  -0.683  1.00 54.86 LIG 0.02  C 
ATOM     45  CB  PRO B  50      26.690 -25.136  -1.956  1.00 61.52 LIG 0.04  C 
ATOM     46 O    ARG B  49      29.974 -23.259  -0.100  1.00 53.87 LIG-0.27  OA
BRANCH 43 47
ATOM     47  CA  ARG B  49      29.717 -24.698   1.840  1.00 56.75 LIG 0.40  C 
ATOM     48  N   ARG B  49      29.933 -26.205   1.871  1.00 50.64 LIG 0.61  N 
BRANCH 47 49
ATOM     49  CB  ARG B  49      30.993 -23.957   2.334  1.00 51.37 LIG 0.05  C 
BRANCH 49 50
ATOM     50  CG  ARG B  49      32.314 -24.460   1.741  1.00 44.94 LIG 0.02  C 
BRANCH 50 51
ATOM     51  CD  ARG B  49      33.162 -23.293   1.156  1.00 41.72 LIG 0.14  C 
BRANCH 51 52
ATOM     52  NE  ARG B  49      32.562 -22.709  -0.046  1.00 39.59 LIG-0.23  N 
ATOM     53 HE   ARG B  49      31.709 -22.604  -0.043  1.00 39.59 LIG 0.18  HD
ATOM     54  CZ  ARG B  49      33.215 -22.324  -1.145  1.00 39.90 LIG 0.67  C 
ATOM     55  NH1 ARG B  49      34.536 -22.509  -1.253  1.00 39.18 LIG-0.23  N 
ATOM     56  NH2 ARG B  49      32.527 -21.800  -2.179  1.00 31.35 LIG-0.23  N 
ATOM     57 2HH1 ARG B  49      34.949 -22.258  -1.965  1.00 39.18 LIG 0.17  HD
ATOM     58 1HH1 ARG B  49      34.973 -22.880  -0.611  1.00 39.18 LIG 0.17  HD
ATOM     59 1HH2 ARG B  49      31.673 -21.715  -2.127  1.00 31.35 LIG 0.17  HD
ATOM     60 2HH2 ARG B  49      32.942 -21.551  -2.889  1.00 31.35 LIG 0.17  HD
ENDBRANCH 51 52
ENDBRANCH 50 51
ENDBRANCH 49 50
ENDBRANCH 47 49
ENDBRANCH 43 47
ENDBRANCH 38 40
ENDBRANCH 1 36
TORSDOF 21
ENDMDL
MODEL 36
USER: ADFR SOLUTION from run 159
USER: SCORE 16.613519 LL:  -3.326 LR: -14.480 RR:   0.000 FEB:  -8.216
USER: RMSD 4.980474
USER: SEED 158
USER: STATUS no improvement in best in 5 clusters for 5 generations
USER: GENES 23
USER: genes 0 Translation |==|  0.40969 0.42002 0.56904
USER: genes 1 Rotation |==|  0.88206 0.59105 0.58814 0.79660
USER: genes 2 Torsion [N]-CA--C-[N] |==|  0.42114
USER: genes 3 Torsion [N]-CA--C-[O] |==|  0.22220
USER: genes 4 Torsion [C]-N--CA-[CB] |==|  0.52440
USER: genes 5 Torsion [N]-CA--CB-[CG] |==|  0.44162
USER: genes 6 Torsion [CA]-CB--CG-[CD1] |==|  0.13620
USER: genes 7 Torsion [N]-CA--C-[N] |==|  0.78207
USER: genes 8 Torsion [C]-N--CA-[CB] |==|  0.16547
USER: genes 9 Torsion [N]-CA--CB-[CG1] |==|  0.25504
USER: genes 10 Torsion [N]-CA--C-[O] |==|  0.12932
USER: genes 11 Torsion [C]-CA--CB-[CG] |==|  0.68858
USER: genes 12 Torsion [CA]-CB--CG-[CD] |==|  0.53360
USER: genes 13 Torsion [CB]-CG--CD-[CE] |==|  0.27448
USER: genes 14 Torsion [CG]-CD--CE-[NZ] |==|  0.63992
USER: genes 15 Torsion [CD]-CE--NZ-[HZ2] |==|  0.92761
USER: genes 16 Torsion [C]-CA--N-[C] |==|  0.60639
USER: genes 17 Torsion [N]-C--CA-[N] |==|  0.53644
USER: genes 18 Torsion [N]-C--CA-[N] |==|  0.17873
USER: genes 19 Torsion [C]-CA--CB-[CG] |==|  0.67752
USER: genes 20 Torsion [CA]-CB--CG-[CD] |==|  0.69949
USER: genes 21 Torsion [CB]-CG--CD-[NE] |==|  0.65851
USER: genes 22 Torsion [CG]-CD--NE-[HE] |==|  0.94751
ROOT
ATOM      1  CA  LYS B  51      19.998 -24.632  -3.438  1.00 67.60 LIG 0.18  C 
ENDROOT
BRANCH 1 2
ATOM      2  C   LYS B  51      19.072 -25.857  -3.142  1.00 65.68 LIG 0.24  C 
ATOM      3  N   PRO B  52      18.043 -25.698  -2.265  1.00 68.58 LIG-0.34  N 
ATOM      4  CD  PRO B  52      17.801 -24.708  -1.188  1.00 71.17 LIG 0.13  C 
ATOM      5  CA  PRO B  52      17.103 -26.847  -2.182  1.00 62.52 LIG 0.18  C 
ATOM      6  CG  PRO B  52      16.934 -25.473  -0.208  1.00 68.49 LIG 0.02  C 
ATOM      7  CB  PRO B  52      16.156 -26.445  -1.044  1.00 62.23 LIG 0.04  C 
ATOM      8 O    LYS B  51      19.333 -26.967  -3.639  1.00 49.94 LIG-0.27  OA
BRANCH 5 9
ATOM      9  C   PRO B  52      16.334 -27.091  -3.513  1.00 62.23 LIG 0.24  C 
ATOM     10 O    PRO B  52      16.898 -27.700  -4.443  1.00 52.82 LIG-0.27  OA
ATOM     11  N   LEU B  53      15.048 -26.687  -3.557  1.00 59.38 LIG-0.35  N 
ATOM     12 H    LEU B  53      14.627 -26.398  -2.864  1.00 59.38 LIG 0.16  HD
BRANCH 11 13
ATOM     13  CA  LEU B  53      14.223 -26.692  -4.783  1.00 58.77 LIG 0.18  C 
BRANCH 13 14
ATOM     14  CB  LEU B  53      12.859 -25.973  -4.580  1.00 52.29 LIG 0.04  C 
BRANCH 14 15
ATOM     15  CG  LEU B  53      12.099 -25.451  -5.838  1.00 62.01 LIG-0.02  C 
ATOM     16  CD2 LEU B  53      10.724 -24.858  -5.496  1.00 53.58 LIG 0.01  C 
ATOM     17  CD1 LEU B  53      11.968 -26.501  -6.967  1.00 50.45 LIG 0.01  C 
ENDBRANCH 14 15
ENDBRANCH 13 14
BRANCH 13 18
ATOM     18  C   LEU B  53      15.051 -26.035  -5.911  1.00 60.22 LIG 0.24  C 
ATOM     19  N   VAL B  54      15.130 -24.693  -5.924  1.00 61.95 LIG-0.35  N 
ATOM     20 H    VAL B  54      14.800 -24.185  -5.315  1.00 61.95 LIG 0.16  HD
ATOM     21 O    LEU B  53      15.582 -26.742  -6.775  1.00 54.25 LIG-0.27  OA
BRANCH 19 22
ATOM     22  CA  VAL B  54      15.818 -23.966  -7.032  1.00 71.55 LIG 0.17  C 
BRANCH 22 23
ATOM     23  CB  VAL B  54      15.195 -24.235  -8.456  1.00 67.56 LIG 0.01  C 
ATOM     24  CG1 VAL B  54      14.120 -23.204  -8.814  1.00 60.73 LIG 0.01  C 
ATOM     25  CG2 VAL B  54      16.260 -24.267  -9.550  1.00 61.59 LIG 0.01  C 
ENDBRANCH 22 23
BRANCH 22 26
ATOM     26  C   VAL B  54      15.927 -22.464  -6.743  1.00 64.78 LIG 0.22  C 
ATOM     27 O    VAL B  54      16.307 -22.074  -5.650  1.00 73.26 LIG-0.29  OA
ENDBRANCH 22 26
ENDBRANCH 19 22
ENDBRANCH 13 18
ENDBRANCH 11 13
ENDBRANCH 5 9
ENDBRANCH 1 2
BRANCH 1 28
ATOM     28  CB  LYS B  51      19.514 -23.637  -4.523  1.00 70.72 LIG 0.04  C 
BRANCH 28 29
ATOM     29  CG  LYS B  51      20.279 -23.528  -5.844  1.00 73.15 LIG 0.00  C 
BRANCH 29 30
ATOM     30  CD  LYS B  51      19.815 -22.295  -6.627  1.00 70.67 LIG 0.03  C 
BRANCH 30 31
ATOM     31  CE  LYS B  51      20.773 -21.126  -6.435  1.00 67.82 LIG 0.23  C 
BRANCH 31 32
ATOM     32  NZ  LYS B  51      20.026 -19.906  -6.051  1.00 73.20 LIG-0.08  N 
ATOM     33 HZ2  LYS B  51      19.192 -19.959  -6.359  1.00 73.20 LIG 0.27  HD
ATOM     34 HZ3  LYS B  51      20.010 -19.835  -5.164  1.00 73.20 LIG 0.27  HD
ATOM     35 HZ1  LYS B  51      20.425 -19.192  -6.399  1.00 73.20 LIG 0.27  HD
ENDBRANCH 31 32
ENDBRANCH 30 31
ENDBRANCH 29 30
ENDBRANCH 28 29
ENDBRANCH 1 28
BRANCH 1 36
ATOM     36  N   LYS B  51      21.342 -25.100  -3.804  1.00 65.69 LIG-0.35  N 
ATOM     37 H    LYS B  51      21.354 -25.808  -4.291  1.00 65.69 LIG 0.16  HD
ATOM     38  C   PRO B  50      22.432 -24.453  -3.395  1.00 68.91 LIG 0.24  C 
ATOM     39 O    PRO B  50      22.376 -23.482  -2.606  1.00 63.49 LIG-0.27  OA
BRANCH 38 40
ATOM     40  CA  PRO B  50      23.797 -24.935  -3.970  1.00 65.85 LIG 0.18  C 
ATOM     41  N   PRO B  50      24.941 -24.363  -3.221  1.00 60.71 LIG-0.34  N 
ATOM     42  CD  PRO B  50      25.490 -25.350  -2.264  1.00 60.54 LIG 0.13  C 
ATOM     43  C   ARG B  49      25.123 -23.005  -3.310  1.00 60.43 LIG 0.26  C 
ATOM     44  CG  PRO B  50      24.607 -26.587  -2.446  1.00 54.86 LIG 0.02  C 
ATOM     45  CB  PRO B  50      23.979 -26.455  -3.791  1.00 61.52 LIG 0.04  C 
ATOM     46 O    ARG B  49      24.356 -22.262  -3.971  1.00 53.87 LIG-0.27  OA
BRANCH 43 47
ATOM     47  CA  ARG B  49      26.315 -22.363  -2.540  1.00 56.75 LIG 0.40  C 
ATOM     48  N   ARG B  49      27.669 -22.834  -3.053  1.00 50.64 LIG 0.61  N 
BRANCH 47 49
ATOM     49  CB  ARG B  49      26.223 -20.811  -2.600  1.00 51.37 LIG 0.05  C 
BRANCH 49 50
ATOM     50  CG  ARG B  49      27.370 -20.114  -3.341  1.00 44.94 LIG 0.02  C 
BRANCH 50 51
ATOM     51  CD  ARG B  49      28.316 -19.364  -2.359  1.00 41.72 LIG 0.14  C 
BRANCH 51 52
ATOM     52  NE  ARG B  49      28.438 -17.938  -2.673  1.00 39.59 LIG-0.23  N 
ATOM     53 HE   ARG B  49      28.211 -17.694  -3.465  1.00 39.59 LIG 0.18  HD
ATOM     54  CZ  ARG B  49      28.869 -16.983  -1.845  1.00 39.90 LIG 0.67  C 
ATOM     55  NH1 ARG B  49      29.299 -17.290  -0.615  1.00 39.18 LIG-0.23  N 
ATOM     56  NH2 ARG B  49      28.928 -15.707  -2.275  1.00 31.35 LIG-0.23  N 
ATOM     57 2HH1 ARG B  49      29.575 -16.668  -0.088  1.00 39.18 LIG 0.17  HD
ATOM     58 1HH1 ARG B  49      29.300 -18.108  -0.351  1.00 39.18 LIG 0.17  HD
ATOM     59 1HH2 ARG B  49      28.688 -15.512  -3.078  1.00 31.35 LIG 0.17  HD
ATOM     60 2HH2 ARG B  49      29.205 -15.088  -1.747  1.00 31.35 LIG 0.17  HD
ENDBRANCH 51 52
ENDBRANCH 50 51
ENDBRANCH 49 50
ENDBRANCH 47 49
ENDBRANCH 43 47
ENDBRANCH 38 40
ENDBRANCH 1 36
TORSDOF 21
ENDMDL
MODEL 37
USER: ADFR SOLUTION from run 181
USER: SCORE 18.467678 LL:  -4.481 LR: -14.469 RR:   0.000 FEB:  -8.205
USER: RMSD 7.967078
USER: SEED 180
USER: STATUS no improvement in best in 10 clusters for 5 generations
USER: GENES 23
USER: genes 0 Translation |==|  0.65226 0.62047 0.56427
USER: genes 1 Rotation |==|  0.72462 0.12381 0.71477 0.60908
USER: genes 2 Torsion [N]-CA--C-[N] |==|  0.86170
USER: genes 3 Torsion [N]-CA--C-[O] |==|  0.25744
USER: genes 4 Torsion [C]-N--CA-[CB] |==|  0.52925
USER: genes 5 Torsion [N]-CA--CB-[CG] |==|  0.84690
USER: genes 6 Torsion [CA]-CB--CG-[CD1] |==|  0.52489
USER: genes 7 Torsion [N]-CA--C-[N] |==|  0.44444
USER: genes 8 Torsion [C]-N--CA-[CB] |==|  0.79067
USER: genes 9 Torsion [N]-CA--CB-[CG1] |==|  0.98443
USER: genes 10 Torsion [N]-CA--C-[O] |==|  0.03641
USER: genes 11 Torsion [C]-CA--CB-[CG] |==|  0.03136
USER: genes 12 Torsion [CA]-CB--CG-[CD] |==|  0.42374
USER: genes 13 Torsion [CB]-CG--CD-[CE] |==|  0.58453
USER: genes 14 Torsion [CG]-CD--CE-[NZ] |==|  0.22272
USER: genes 15 Torsion [CD]-CE--NZ-[HZ2] |==|  0.63360
USER: genes 16 Torsion [C]-CA--N-[C] |==|  0.80342
USER: genes 17 Torsion [N]-C--CA-[N] |==|  0.95226
USER: genes 18 Torsion [N]-C--CA-[N] |==|  0.39323
USER: genes 19 Torsion [C]-CA--CB-[CG] |==|  0.31536
USER: genes 20 Torsion [CA]-CB--CG-[CD] |==|  0.75474
USER: genes 21 Torsion [CB]-CG--CD-[NE] |==|  0.38967
USER: genes 22 Torsion [CG]-CD--NE-[HE] |==|  0.69015
ROOT
ATOM      1  CA  LYS B  51      26.366 -20.121  -3.513  1.00 67.60 LIG 0.18  C 
ENDROOT
BRANCH 1 2
ATOM      2  C   LYS B  51      26.656 -19.760  -5.007  1.00 65.68 LIG 0.24  C 
ATOM      3  N   PRO B  52      27.572 -20.502  -5.689  1.00 68.58 LIG-0.34  N 
ATOM      4  CD  PRO B  52      28.685 -21.368  -5.233  1.00 71.17 LIG 0.13  C 
ATOM      5  CA  PRO B  52      27.654 -20.216  -7.146  1.00 62.52 LIG 0.18  C 
ATOM      6  CG  PRO B  52      29.671 -21.293  -6.382  1.00 68.49 LIG 0.02  C 
ATOM      7  CB  PRO B  52      28.834 -21.080  -7.607  1.00 62.23 LIG 0.04  C 
ATOM      8 O    LYS B  51      26.119 -18.763  -5.520  1.00 49.94 LIG-0.27  OA
BRANCH 5 9
ATOM      9  C   PRO B  52      26.343 -20.579  -7.903  1.00 62.23 LIG 0.24  C 
ATOM     10 O    PRO B  52      25.470 -19.705  -8.069  1.00 52.82 LIG-0.27  OA
ATOM     11  N   LEU B  53      26.258 -21.825  -8.412  1.00 59.38 LIG-0.35  N 
ATOM     12 H    LEU B  53      26.921 -22.373  -8.415  1.00 59.38 LIG 0.16  HD
BRANCH 11 13
ATOM     13  CA  LEU B  53      25.031 -22.388  -9.014  1.00 58.77 LIG 0.18  C 
BRANCH 13 14
ATOM     14  CB  LEU B  53      25.150 -23.917  -9.275  1.00 52.29 LIG 0.04  C 
BRANCH 14 15
ATOM     15  CG  LEU B  53      26.344 -24.434 -10.134  1.00 62.01 LIG-0.02  C 
ATOM     16  CD2 LEU B  53      26.583 -23.583 -11.390  1.00 53.58 LIG 0.01  C 
ATOM     17  CD1 LEU B  53      26.241 -25.932 -10.509  1.00 50.45 LIG 0.01  C 
ENDBRANCH 14 15
ENDBRANCH 13 14
BRANCH 13 18
ATOM     18  C   LEU B  53      23.850 -22.061  -8.071  1.00 60.22 LIG 0.24  C 
ATOM     19  N   VAL B  54      22.610 -22.102  -8.587  1.00 61.95 LIG-0.35  N 
ATOM     20 H    VAL B  54      22.431 -22.357  -9.389  1.00 61.95 LIG 0.16  HD
ATOM     21 O    LEU B  53      24.073 -21.741  -6.898  1.00 54.25 LIG-0.27  OA
BRANCH 19 22
ATOM     22  CA  VAL B  54      21.419 -21.699  -7.783  1.00 71.55 LIG 0.17  C 
BRANCH 22 23
ATOM     23  CB  VAL B  54      20.983 -22.766  -6.707  1.00 67.56 LIG 0.01  C 
ATOM     24  CG1 VAL B  54      21.802 -24.055  -6.815  1.00 60.73 LIG 0.01  C 
ATOM     25  CG2 VAL B  54      21.075 -22.216  -5.285  1.00 61.59 LIG 0.01  C 
ENDBRANCH 22 23
BRANCH 22 26
ATOM     26  C   VAL B  54      21.601 -20.312  -7.155  1.00 64.78 LIG 0.22  C 
ATOM     27 O    VAL B  54      22.508 -19.583  -7.525  1.00 73.26 LIG-0.29  OA
ENDBRANCH 22 26
ENDBRANCH 19 22
ENDBRANCH 13 18
ENDBRANCH 11 13
ENDBRANCH 5 9
ENDBRANCH 1 2
BRANCH 1 28
ATOM     28  CB  LYS B  51      27.452 -19.733  -2.478  1.00 70.72 LIG 0.04  C 
BRANCH 28 29
ATOM     29  CG  LYS B  51      28.600 -18.810  -2.896  1.00 73.15 LIG 0.00  C 
BRANCH 29 30
ATOM     30  CD  LYS B  51      29.124 -18.032  -1.684  1.00 70.67 LIG 0.03  C 
BRANCH 30 31
ATOM     31  CE  LYS B  51      29.664 -16.668  -2.095  1.00 67.82 LIG 0.23  C 
BRANCH 31 32
ATOM     32  NZ  LYS B  51      28.553 -15.707  -2.274  1.00 73.20 LIG-0.08  N 
ATOM     33 HZ2  LYS B  51      28.653 -15.277  -3.047  1.00 73.20 LIG 0.27  HD
ATOM     34 HZ3  LYS B  51      27.779 -16.146  -2.278  1.00 73.20 LIG 0.27  HD
ATOM     35 HZ1  LYS B  51      28.558 -15.120  -1.606  1.00 73.20 LIG 0.27  HD
ENDBRANCH 31 32
ENDBRANCH 30 31
ENDBRANCH 29 30
ENDBRANCH 28 29
ENDBRANCH 1 28
BRANCH 1 36
ATOM     36  N   LYS B  51      26.102 -21.561  -3.390  1.00 65.69 LIG-0.35  N 
ATOM     37 H    LYS B  51      26.724 -22.007  -2.997  1.00 65.69 LIG 0.16  HD
ATOM     38  C   PRO B  50      24.979 -22.099  -3.864  1.00 68.91 LIG 0.24  C 
ATOM     39 O    PRO B  50      24.144 -21.433  -4.517  1.00 63.49 LIG-0.27  OA
BRANCH 38 40
ATOM     40  CA  PRO B  50      24.724 -23.601  -3.540  1.00 65.85 LIG 0.18  C 
ATOM     41  N   PRO B  50      25.965 -24.286  -3.103  1.00 60.71 LIG-0.34  N 
ATOM     42  CD  PRO B  50      26.000 -24.423  -1.630  1.00 60.54 LIG 0.13  C 
ATOM     43  C   ARG B  49      26.961 -24.421  -4.039  1.00 60.43 LIG 0.26  C 
ATOM     44  CG  PRO B  50      24.701 -23.765  -1.156  1.00 54.86 LIG 0.02  C 
ATOM     45  CB  PRO B  50      23.784 -23.766  -2.330  1.00 61.52 LIG 0.04  C 
ATOM     46 O    ARG B  49      26.854 -23.972  -5.207  1.00 53.87 LIG-0.27  OA
BRANCH 43 47
ATOM     47  CA  ARG B  49      28.280 -25.137  -3.623  1.00 56.75 LIG 0.40  C 
ATOM     48  N   ARG B  49      28.843 -26.021  -4.727  1.00 50.64 LIG 0.61  N 
BRANCH 47 49
ATOM     49  CB  ARG B  49      29.341 -24.093  -3.170  1.00 51.37 LIG 0.05  C 
BRANCH 49 50
ATOM     50  CG  ARG B  49      29.724 -24.148  -1.686  1.00 44.94 LIG 0.02  C 
BRANCH 50 51
ATOM     51  CD  ARG B  49      28.784 -23.263  -0.817  1.00 41.72 LIG 0.14  C 
BRANCH 51 52
ATOM     52  NE  ARG B  49      28.443 -23.891   0.461  1.00 39.59 LIG-0.23  N 
ATOM     53 HE   ARG B  49      27.627 -24.141   0.566  1.00 39.59 LIG 0.18  HD
ATOM     54  CZ  ARG B  49      29.278 -24.114   1.479  1.00 39.90 LIG 0.67  C 
ATOM     55  NH1 ARG B  49      30.550 -23.700   1.419  1.00 39.18 LIG-0.23  N 
ATOM     56  NH2 ARG B  49      28.820 -24.705   2.600  1.00 31.35 LIG-0.23  N 
ATOM     57 2HH1 ARG B  49      31.082 -23.848   2.079  1.00 39.18 LIG 0.17  HD
ATOM     58 1HH1 ARG B  49      30.836 -23.287   0.721  1.00 39.18 LIG 0.17  HD
ATOM     59 1HH2 ARG B  49      27.994 -24.937   2.656  1.00 31.35 LIG 0.17  HD
ATOM     60 2HH2 ARG B  49      29.353 -24.850   3.258  1.00 31.35 LIG 0.17  HD
ENDBRANCH 51 52
ENDBRANCH 50 51
ENDBRANCH 49 50
ENDBRANCH 47 49
ENDBRANCH 43 47
ENDBRANCH 38 40
ENDBRANCH 1 36
TORSDOF 21
ENDMDL
MODEL 38
USER: ADFR SOLUTION from run 128
USER: SCORE 18.254249 LL:  -4.160 LR: -14.446 RR:   0.000 FEB:  -8.182
USER: RMSD 7.894744
USER: SEED 127
USER: STATUS no improvement in best in 13 clusters for 5 generations
USER: GENES 23
USER: genes 0 Translation |==|  0.69620 0.58136 0.53666
USER: genes 1 Rotation |==|  0.89811 0.22068 0.61613 0.50188
USER: genes 2 Torsion [N]-CA--C-[N] |==|  0.90197
USER: genes 3 Torsion [N]-CA--C-[O] |==|  0.36015
USER: genes 4 Torsion [C]-N--CA-[CB] |==|  0.56118
USER: genes 5 Torsion [N]-CA--CB-[CG] |==|  0.81814
USER: genes 6 Torsion [CA]-CB--CG-[CD1] |==|  0.82993
USER: genes 7 Torsion [N]-CA--C-[N] |==|  0.37961
USER: genes 8 Torsion [C]-N--CA-[CB] |==|  0.82787
USER: genes 9 Torsion [N]-CA--CB-[CG1] |==|  0.29842
USER: genes 10 Torsion [N]-CA--C-[O] |==|  0.03732
USER: genes 11 Torsion [C]-CA--CB-[CG] |==|  0.07442
USER: genes 12 Torsion [CA]-CB--CG-[CD] |==|  0.63071
USER: genes 13 Torsion [CB]-CG--CD-[CE] |==|  0.57329
USER: genes 14 Torsion [CG]-CD--CE-[NZ] |==|  0.78719
USER: genes 15 Torsion [CD]-CE--NZ-[HZ2] |==|  0.90169
USER: genes 16 Torsion [C]-CA--N-[C] |==|  0.83726
USER: genes 17 Torsion [N]-C--CA-[N] |==|  0.05903
USER: genes 18 Torsion [N]-C--CA-[N] |==|  0.48590
USER: genes 19 Torsion [C]-CA--CB-[CG] |==|  0.87674
USER: genes 20 Torsion [CA]-CB--CG-[CD] |==|  0.36633
USER: genes 21 Torsion [CB]-CG--CD-[NE] |==|  0.25172
USER: genes 22 Torsion [CG]-CD--NE-[HE] |==|  0.00088
ROOT
ATOM      1  CA  LYS B  51      27.519 -21.001  -3.948  1.00 67.60 LIG 0.18  C 
ENDROOT
BRANCH 1 2
ATOM      2  C   LYS B  51      26.885 -20.094  -5.053  1.00 65.68 LIG 0.24  C 
ATOM      3  N   PRO B  52      27.600 -19.853  -6.186  1.00 68.58 LIG-0.34  N 
ATOM      4  CD  PRO B  52      29.050 -19.937  -6.481  1.00 71.17 LIG 0.13  C 
ATOM      5  CA  PRO B  52      26.858 -19.140  -7.259  1.00 62.52 LIG 0.18  C 
ATOM      6  CG  PRO B  52      29.236 -18.916  -7.585  1.00 68.49 LIG 0.02  C 
ATOM      7  CB  PRO B  52      27.932 -18.894  -8.325  1.00 62.23 LIG 0.04  C 
ATOM      8 O    LYS B  51      25.789 -19.542  -4.850  1.00 49.94 LIG-0.27  OA
BRANCH 5 9
ATOM      9  C   PRO B  52      25.668 -19.972  -7.821  1.00 62.23 LIG 0.24  C 
ATOM     10 O    PRO B  52      24.541 -19.448  -7.905  1.00 52.82 LIG-0.27  OA
ATOM     11  N   LEU B  53      25.949 -21.215  -8.263  1.00 59.38 LIG-0.35  N 
ATOM     12 H    LEU B  53      26.752 -21.514  -8.332  1.00 59.38 LIG 0.16  HD
BRANCH 11 13
ATOM     13  CA  LEU B  53      24.922 -22.196  -8.674  1.00 58.77 LIG 0.18  C 
BRANCH 13 14
ATOM     14  CB  LEU B  53      25.445 -23.659  -8.609  1.00 52.29 LIG 0.04  C 
BRANCH 14 15
ATOM     15  CG  LEU B  53      26.591 -24.083  -9.579  1.00 62.01 LIG-0.02  C 
ATOM     16  CD2 LEU B  53      27.909 -23.351  -9.294  1.00 53.58 LIG 0.01  C 
ATOM     17  CD1 LEU B  53      26.218 -23.961 -11.076  1.00 50.45 LIG 0.01  C 
ENDBRANCH 14 15
ENDBRANCH 13 14
BRANCH 13 18
ATOM     18  C   LEU B  53      23.686 -21.991  -7.768  1.00 60.22 LIG 0.24  C 
ATOM     19  N   VAL B  54      22.476 -22.008  -8.352  1.00 61.95 LIG-0.35  N 
ATOM     20 H    VAL B  54      22.345 -22.184  -9.183  1.00 61.95 LIG 0.16  HD
ATOM     21 O    LEU B  53      23.839 -21.786  -6.559  1.00 54.25 LIG-0.27  OA
BRANCH 19 22
ATOM     22  CA  VAL B  54      21.234 -21.714  -7.577  1.00 71.55 LIG 0.17  C 
BRANCH 22 23
ATOM     23  CB  VAL B  54      20.956 -22.732  -6.405  1.00 67.56 LIG 0.01  C 
ATOM     24  CG1 VAL B  54      21.214 -22.108  -5.031  1.00 60.73 LIG 0.01  C 
ATOM     25  CG2 VAL B  54      19.535 -23.290  -6.457  1.00 61.59 LIG 0.01  C 
ENDBRANCH 22 23
BRANCH 22 26
ATOM     26  C   VAL B  54      21.206 -20.264  -7.078  1.00 64.78 LIG 0.22  C 
ATOM     27 O    VAL B  54      21.994 -19.445  -7.524  1.00 73.26 LIG-0.29  OA
ENDBRANCH 22 26
ENDBRANCH 19 22
ENDBRANCH 13 18
ENDBRANCH 11 13
ENDBRANCH 5 9
ENDBRANCH 1 2
BRANCH 1 28
ATOM     28  CB  LYS B  51      28.394 -20.294  -2.881  1.00 70.72 LIG 0.04  C 
BRANCH 28 29
ATOM     29  CG  LYS B  51      28.135 -18.823  -2.546  1.00 73.15 LIG 0.00  C 
BRANCH 29 30
ATOM     30  CD  LYS B  51      29.453 -18.042  -2.526  1.00 70.67 LIG 0.03  C 
BRANCH 30 31
ATOM     31  CE  LYS B  51      29.363 -16.826  -1.614  1.00 67.82 LIG 0.23  C 
BRANCH 31 32
ATOM     32  NZ  LYS B  51      28.600 -15.743  -2.275  1.00 73.20 LIG-0.08  N 
ATOM     33 HZ2  LYS B  51      28.772 -15.749  -3.148  1.00 73.20 LIG 0.27  HD
ATOM     34 HZ3  LYS B  51      27.729 -15.870  -2.144  1.00 73.20 LIG 0.27  HD
ATOM     35 HZ1  LYS B  51      28.840 -14.958  -1.931  1.00 73.20 LIG 0.27  HD
ENDBRANCH 31 32
ENDBRANCH 30 31
ENDBRANCH 29 30
ENDBRANCH 28 29
ENDBRANCH 1 28
BRANCH 1 36
ATOM     36  N   LYS B  51      28.319 -22.063  -4.573  1.00 65.69 LIG-0.35  N 
ATOM     37 H    LYS B  51      29.147 -22.072  -4.341  1.00 65.69 LIG 0.16  HD
ATOM     38  C   PRO B  50      27.771 -22.925  -5.427  1.00 68.91 LIG 0.24  C 
ATOM     39 O    PRO B  50      26.585 -22.820  -5.815  1.00 63.49 LIG-0.27  OA
BRANCH 38 40
ATOM     40  CA  PRO B  50      28.664 -24.108  -5.907  1.00 65.85 LIG 0.18  C 
ATOM     41  N   PRO B  50      29.784 -24.365  -4.971  1.00 60.71 LIG-0.34  N 
ATOM     42  CD  PRO B  50      29.484 -25.518  -4.093  1.00 60.54 LIG 0.13  C 
ATOM     43  C   ARG B  49      30.741 -23.385  -4.865  1.00 60.43 LIG 0.26  C 
ATOM     44  CG  PRO B  50      28.087 -25.971  -4.526  1.00 54.86 LIG 0.02  C 
ATOM     45  CB  PRO B  50      27.887 -25.440  -5.904  1.00 61.52 LIG 0.04  C 
ATOM     46 O    ARG B  49      30.676 -22.307  -5.507  1.00 53.87 LIG-0.27  OA
BRANCH 43 47
ATOM     47  CA  ARG B  49      31.937 -23.615  -3.895  1.00 56.75 LIG 0.40  C 
ATOM     48  N   ARG B  49      32.979 -22.506  -3.971  1.00 50.64 LIG 0.61  N 
BRANCH 47 49
ATOM     49  CB  ARG B  49      31.423 -23.776  -2.435  1.00 51.37 LIG 0.05  C 
BRANCH 49 50
ATOM     50  CG  ARG B  49      30.351 -22.769  -2.002  1.00 44.94 LIG 0.02  C 
BRANCH 50 51
ATOM     51  CD  ARG B  49      29.147 -23.473  -1.311  1.00 41.72 LIG 0.14  C 
BRANCH 51 52
ATOM     52  NE  ARG B  49      29.315 -23.582   0.140  1.00 39.59 LIG-0.23  N 
ATOM     53 HE   ARG B  49      30.037 -23.254   0.473  1.00 39.59 LIG 0.18  HD
ATOM     54  CZ  ARG B  49      28.454 -24.140   0.994  1.00 39.90 LIG 0.67  C 
ATOM     55  NH1 ARG B  49      27.336 -24.726   0.548  1.00 39.18 LIG-0.23  N 
ATOM     56  NH2 ARG B  49      28.744 -24.167   2.310  1.00 31.35 LIG-0.23  N 
ATOM     57 2HH1 ARG B  49      26.786 -25.084   1.105  1.00 39.18 LIG 0.17  HD
ATOM     58 1HH1 ARG B  49      27.167 -24.745  -0.295  1.00 39.18 LIG 0.17  HD
ATOM     59 1HH2 ARG B  49      29.480 -23.825   2.595  1.00 31.35 LIG 0.17  HD
ATOM     60 2HH2 ARG B  49      28.193 -24.526   2.864  1.00 31.35 LIG 0.17  HD
ENDBRANCH 51 52
ENDBRANCH 50 51
ENDBRANCH 49 50
ENDBRANCH 47 49
ENDBRANCH 43 47
ENDBRANCH 38 40
ENDBRANCH 1 36
TORSDOF 21
ENDMDL
MODEL 39
USER: ADFR SOLUTION from run 28
USER: SCORE 17.564722 LL:  -4.073 LR: -14.439 RR:   0.000 FEB:  -8.174
USER: RMSD 7.624962
USER: SEED 27
USER: STATUS no improvement in best in 9 clusters for 5 generations
USER: GENES 23
USER: genes 0 Translation |==|  0.69825 0.55597 0.56116
USER: genes 1 Rotation |==|  0.03207 0.34444 0.57800 0.52750
USER: genes 2 Torsion [N]-CA--C-[N] |==|  0.59043
USER: genes 3 Torsion [N]-CA--C-[O] |==|  0.31132
USER: genes 4 Torsion [C]-N--CA-[CB] |==|  0.87222
USER: genes 5 Torsion [N]-CA--CB-[CG] |==|  0.47066
USER: genes 6 Torsion [CA]-CB--CG-[CD1] |==|  0.78309
USER: genes 7 Torsion [N]-CA--C-[N] |==|  0.35239
USER: genes 8 Torsion [C]-N--CA-[CB] |==|  0.25836
USER: genes 9 Torsion [N]-CA--CB-[CG1] |==|  0.90426
USER: genes 10 Torsion [N]-CA--C-[O] |==|  0.84172
USER: genes 11 Torsion [C]-CA--CB-[CG] |==|  0.43211
USER: genes 12 Torsion [CA]-CB--CG-[CD] |==|  0.23910
USER: genes 13 Torsion [CB]-CG--CD-[CE] |==|  0.44593
USER: genes 14 Torsion [CG]-CD--CE-[NZ] |==|  0.60869
USER: genes 15 Torsion [CD]-CE--NZ-[HZ2] |==|  0.17899
USER: genes 16 Torsion [C]-CA--N-[C] |==|  0.17105
USER: genes 17 Torsion [N]-C--CA-[N] |==|  0.26164
USER: genes 18 Torsion [N]-C--CA-[N] |==|  0.34447
USER: genes 19 Torsion [C]-CA--CB-[CG] |==|  0.34217
USER: genes 20 Torsion [CA]-CB--CG-[CD] |==|  0.06875
USER: genes 21 Torsion [CB]-CG--CD-[NE] |==|  0.55405
USER: genes 22 Torsion [CG]-CD--NE-[HE] |==|  0.31905
ROOT
ATOM      1  CA  LYS B  51      27.573 -21.573  -3.562  1.00 67.60 LIG 0.18  C 
ENDROOT
BRANCH 1 2
ATOM      2  C   LYS B  51      26.638 -22.806  -3.789  1.00 65.68 LIG 0.24  C 
ATOM      3  N   PRO B  52      25.774 -23.159  -2.798  1.00 68.58 LIG-0.34  N 
ATOM      4  CD  PRO B  52      25.766 -22.878  -1.343  1.00 71.17 LIG 0.13  C 
ATOM      5  CA  PRO B  52      24.797 -24.219  -3.163  1.00 62.52 LIG 0.18  C 
ATOM      6  CG  PRO B  52      25.026 -24.069  -0.768  1.00 68.49 LIG 0.02  C 
ATOM      7  CB  PRO B  52      24.070 -24.496  -1.841  1.00 62.23 LIG 0.04  C 
ATOM      8 O    LYS B  51      26.753 -23.490  -4.822  1.00 49.94 LIG-0.27  OA
BRANCH 5 9
ATOM      9  C   PRO B  52      23.811 -23.767  -4.279  1.00 62.23 LIG 0.24  C 
ATOM     10 O    PRO B  52      23.875 -24.299  -5.405  1.00 52.82 LIG-0.27  OA
ATOM     11  N   LEU B  53      22.874 -22.860  -3.935  1.00 59.38 LIG-0.35  N 
ATOM     12 H    LEU B  53      22.748 -22.606  -3.123  1.00 59.38 LIG 0.16  HD
BRANCH 11 13
ATOM     13  CA  LEU B  53      21.967 -22.203  -4.900  1.00 58.77 LIG 0.18  C 
BRANCH 13 14
ATOM     14  CB  LEU B  53      22.718 -21.692  -6.162  1.00 52.29 LIG 0.04  C 
BRANCH 14 15
ATOM     15  CG  LEU B  53      21.877 -21.203  -7.382  1.00 62.01 LIG-0.02  C 
ATOM     16  CD2 LEU B  53      20.766 -20.223  -6.980  1.00 53.58 LIG 0.01  C 
ATOM     17  CD1 LEU B  53      21.298 -22.353  -8.241  1.00 50.45 LIG 0.01  C 
ENDBRANCH 14 15
ENDBRANCH 13 14
BRANCH 13 18
ATOM     18  C   LEU B  53      20.859 -23.217  -5.268  1.00 60.22 LIG 0.24  C 
ATOM     19  N   VAL B  54      19.582 -22.821  -5.131  1.00 61.95 LIG-0.35  N 
ATOM     20 H    VAL B  54      19.346 -22.024  -4.910  1.00 61.95 LIG 0.16  HD
ATOM     21 O    LEU B  53      21.167 -24.355  -5.638  1.00 54.25 LIG-0.27  OA
BRANCH 19 22
ATOM     22  CA  VAL B  54      18.446 -23.763  -5.360  1.00 71.55 LIG 0.17  C 
BRANCH 22 23
ATOM     23  CB  VAL B  54      17.944 -24.487  -4.051  1.00 67.56 LIG 0.01  C 
ATOM     24  CG1 VAL B  54      19.092 -24.777  -3.081  1.00 60.73 LIG 0.01  C 
ATOM     25  CG2 VAL B  54      16.856 -23.688  -3.336  1.00 61.59 LIG 0.01  C 
ENDBRANCH 22 23
BRANCH 22 26
ATOM     26  C   VAL B  54      17.289 -23.087  -6.106  1.00 64.78 LIG 0.22  C 
ATOM     27 O    VAL B  54      16.767 -22.082  -5.650  1.00 73.26 LIG-0.29  OA
ENDBRANCH 22 26
ENDBRANCH 19 22
ENDBRANCH 13 18
ENDBRANCH 11 13
ENDBRANCH 5 9
ENDBRANCH 1 2
BRANCH 1 28
ATOM     28  CB  LYS B  51      27.100 -20.521  -2.526  1.00 70.72 LIG 0.04  C 
BRANCH 28 29
ATOM     29  CG  LYS B  51      28.131 -19.627  -1.832  1.00 73.15 LIG 0.00  C 
BRANCH 29 30
ATOM     30  CD  LYS B  51      28.423 -18.390  -2.690  1.00 70.67 LIG 0.03  C 
BRANCH 30 31
ATOM     31  CE  LYS B  51      29.045 -17.275  -1.859  1.00 67.82 LIG 0.23  C 
BRANCH 31 32
ATOM     32  NZ  LYS B  51      28.505 -15.961  -2.275  1.00 73.20 LIG-0.08  N 
ATOM     33 HZ2  LYS B  51      27.634 -15.928  -2.098  1.00 73.20 LIG 0.27  HD
ATOM     34 HZ3  LYS B  51      28.922 -15.314  -1.828  1.00 73.20 LIG 0.27  HD
ATOM     35 HZ1  LYS B  51      28.635 -15.850  -3.148  1.00 73.20 LIG 0.27  HD
ENDBRANCH 31 32
ENDBRANCH 30 31
ENDBRANCH 29 30
ENDBRANCH 28 29
ENDBRANCH 1 28
BRANCH 1 36
ATOM     36  N   LYS B  51      27.816 -20.889  -4.839  1.00 65.69 LIG-0.35  N 
ATOM     37 H    LYS B  51      28.640 -20.869  -5.084  1.00 65.69 LIG 0.16  HD
ATOM     38  C   PRO B  50      26.814 -20.352  -5.534  1.00 68.91 LIG 0.24  C 
ATOM     39 O    PRO B  50      25.642 -20.315  -5.096  1.00 63.49 LIG-0.27  OA
BRANCH 38 40
ATOM     40  CA  PRO B  50      27.155 -19.794  -6.948  1.00 65.85 LIG 0.18  C 
ATOM     41  N   PRO B  50      26.903 -20.799  -8.009  1.00 60.71 LIG-0.34  N 
ATOM     42  CD  PRO B  50      25.617 -20.533  -8.691  1.00 60.54 LIG 0.13  C 
ATOM     43  C   ARG B  49      27.701 -21.917  -8.006  1.00 60.43 LIG 0.26  C 
ATOM     44  CG  PRO B  50      25.059 -19.297  -7.982  1.00 54.86 LIG 0.02  C 
ATOM     45  CB  PRO B  50      26.224 -18.629  -7.335  1.00 61.52 LIG 0.04  C 
ATOM     46 O    ARG B  49      28.592 -22.108  -7.142  1.00 53.87 LIG-0.27  OA
BRANCH 43 47
ATOM     47  CA  ARG B  49      27.472 -22.996  -9.105  1.00 56.75 LIG 0.40  C 
ATOM     48  N   ARG B  49      28.731 -23.294  -9.910  1.00 50.64 LIG 0.61  N 
BRANCH 47 49
ATOM     49  CB  ARG B  49      26.913 -24.302  -8.470  1.00 51.37 LIG 0.05  C 
BRANCH 49 50
ATOM     50  CG  ARG B  49      25.577 -24.790  -9.043  1.00 44.94 LIG 0.02  C 
BRANCH 50 51
ATOM     51  CD  ARG B  49      25.354 -24.279 -10.495  1.00 41.72 LIG 0.14  C 
BRANCH 51 52
ATOM     52  NE  ARG B  49      23.947 -24.329 -10.900  1.00 39.59 LIG-0.23  N 
ATOM     53 HE   ARG B  49      23.561 -23.577 -11.055  1.00 39.59 LIG 0.18  HD
ATOM     54  CZ  ARG B  49      23.208 -25.431 -11.051  1.00 39.90 LIG 0.67  C 
ATOM     55  NH1 ARG B  49      23.718 -26.636 -10.770  1.00 39.18 LIG-0.23  N 
ATOM     56  NH2 ARG B  49      21.920 -25.322 -11.431  1.00 31.35 LIG-0.23  N 
ATOM     57 2HH1 ARG B  49      23.235 -27.342 -10.870  1.00 39.18 LIG 0.17  HD
ATOM     58 1HH1 ARG B  49      24.528 -26.706 -10.490  1.00 39.18 LIG 0.17  HD
ATOM     59 1HH2 ARG B  49      21.579 -24.545 -11.575  1.00 31.35 LIG 0.17  HD
ATOM     60 2HH2 ARG B  49      21.440 -26.028 -11.529  1.00 31.35 LIG 0.17  HD
ENDBRANCH 51 52
ENDBRANCH 50 51
ENDBRANCH 49 50
ENDBRANCH 47 49
ENDBRANCH 43 47
ENDBRANCH 38 40
ENDBRANCH 1 36
TORSDOF 21
ENDMDL
MODEL 40
USER: ADFR SOLUTION from run 128
USER: SCORE 18.364315 LL:  -4.356 LR: -14.429 RR:   0.000 FEB:  -8.164
USER: RMSD 8.489700
USER: SEED 127
USER: STATUS no improvement in best in 13 clusters for 5 generations
USER: GENES 23
USER: genes 0 Translation |==|  0.70615 0.58728 0.49614
USER: genes 1 Rotation |==|  0.91621 0.23327 0.57470 0.50659
USER: genes 2 Torsion [N]-CA--C-[N] |==|  0.89619
USER: genes 3 Torsion [N]-CA--C-[O] |==|  0.40375
USER: genes 4 Torsion [C]-N--CA-[CB] |==|  0.54917
USER: genes 5 Torsion [N]-CA--CB-[CG] |==|  0.67361
USER: genes 6 Torsion [CA]-CB--CG-[CD1] |==|  0.84035
USER: genes 7 Torsion [N]-CA--C-[N] |==|  0.39045
USER: genes 8 Torsion [C]-N--CA-[CB] |==|  0.80609
USER: genes 9 Torsion [N]-CA--CB-[CG1] |==|  0.28241
USER: genes 10 Torsion [N]-CA--C-[O] |==|  0.02388
USER: genes 11 Torsion [C]-CA--CB-[CG] |==|  0.12097
USER: genes 12 Torsion [CA]-CB--CG-[CD] |==|  0.59471
USER: genes 13 Torsion [CB]-CG--CD-[CE] |==|  0.53770
USER: genes 14 Torsion [CG]-CD--CE-[NZ] |==|  0.75161
USER: genes 15 Torsion [CD]-CE--NZ-[HZ2] |==|  0.91872
USER: genes 16 Torsion [C]-CA--N-[C] |==|  0.80025
USER: genes 17 Torsion [N]-C--CA-[N] |==|  0.85331
USER: genes 18 Torsion [N]-C--CA-[N] |==|  0.83544
USER: genes 19 Torsion [C]-CA--CB-[CG] |==|  0.70147
USER: genes 20 Torsion [CA]-CB--CG-[CD] |==|  0.41728
USER: genes 21 Torsion [CB]-CG--CD-[NE] |==|  0.05239
USER: genes 22 Torsion [CG]-CD--NE-[HE] |==|  0.07070
ROOT
ATOM      1  CA  LYS B  51      27.780 -20.868  -4.586  1.00 67.60 LIG 0.18  C 
ENDROOT
BRANCH 1 2
ATOM      2  C   LYS B  51      26.915 -19.950  -5.510  1.00 65.68 LIG 0.24  C 
ATOM      3  N   PRO B  52      27.436 -19.550  -6.702  1.00 68.58 LIG-0.34  N 
ATOM      4  CD  PRO B  52      28.832 -19.460  -7.194  1.00 71.17 LIG 0.13  C 
ATOM      5  CA  PRO B  52      26.487 -18.839  -7.598  1.00 62.52 LIG 0.18  C 
ATOM      6  CG  PRO B  52      28.763 -18.343  -8.217  1.00 68.49 LIG 0.02  C 
ATOM      7  CB  PRO B  52      27.372 -18.401  -8.772  1.00 62.23 LIG 0.04  C 
ATOM      8 O    LYS B  51      25.812 -19.533  -5.114  1.00 49.94 LIG-0.27  OA
BRANCH 5 9
ATOM      9  C   PRO B  52      25.312 -19.746  -8.069  1.00 62.23 LIG 0.24  C 
ATOM     10 O    PRO B  52      24.182 -19.246  -8.234  1.00 52.82 LIG-0.27  OA
ATOM     11  N   LEU B  53      25.609 -21.031  -8.349  1.00 59.38 LIG-0.35  N 
ATOM     12 H    LEU B  53      26.415 -21.329  -8.369  1.00 59.38 LIG 0.16  HD
BRANCH 11 13
ATOM     13  CA  LEU B  53      24.596 -22.065  -8.650  1.00 58.77 LIG 0.18  C 
BRANCH 13 14
ATOM     14  CB  LEU B  53      25.161 -23.506  -8.500  1.00 52.29 LIG 0.04  C 
BRANCH 14 15
ATOM     15  CG  LEU B  53      25.205 -24.422  -9.762  1.00 62.01 LIG-0.02  C 
ATOM     16  CD2 LEU B  53      26.236 -23.954 -10.798  1.00 53.58 LIG 0.01  C 
ATOM     17  CD1 LEU B  53      23.824 -24.631 -10.429  1.00 50.45 LIG 0.01  C 
ENDBRANCH 14 15
ENDBRANCH 13 14
BRANCH 13 18
ATOM     18  C   LEU B  53      23.388 -21.826  -7.715  1.00 60.22 LIG 0.24  C 
ATOM     19  N   VAL B  54      22.158 -21.994  -8.230  1.00 61.95 LIG-0.35  N 
ATOM     20 H    VAL B  54      22.005 -22.283  -9.025  1.00 61.95 LIG 0.16  HD
ATOM     21 O    LEU B  53      23.577 -21.459  -6.550  1.00 54.25 LIG-0.27  OA
BRANCH 19 22
ATOM     22  CA  VAL B  54      20.932 -21.684  -7.436  1.00 71.55 LIG 0.17  C 
BRANCH 22 23
ATOM     23  CB  VAL B  54      20.671 -22.686  -6.246  1.00 67.56 LIG 0.01  C 
ATOM     24  CG1 VAL B  54      21.092 -22.094  -4.898  1.00 60.73 LIG 0.01  C 
ATOM     25  CG2 VAL B  54      19.211 -23.128  -6.180  1.00 61.59 LIG 0.01  C 
ENDBRANCH 22 23
BRANCH 22 26
ATOM     26  C   VAL B  54      20.921 -20.228  -6.956  1.00 64.78 LIG 0.22  C 
ATOM     27 O    VAL B  54      21.760 -19.440  -7.362  1.00 73.26 LIG-0.29  OA
ENDBRANCH 22 26
ENDBRANCH 19 22
ENDBRANCH 13 18
ENDBRANCH 11 13
ENDBRANCH 5 9
ENDBRANCH 1 2
BRANCH 1 28
ATOM     28  CB  LYS B  51      28.764 -20.158  -3.621  1.00 70.72 LIG 0.04  C 
BRANCH 28 29
ATOM     29  CG  LYS B  51      28.301 -18.923  -2.844  1.00 73.15 LIG 0.00  C 
BRANCH 29 30
ATOM     30  CD  LYS B  51      29.464 -17.939  -2.669  1.00 70.67 LIG 0.03  C 
BRANCH 30 31
ATOM     31  CE  LYS B  51      29.135 -16.874  -1.631  1.00 67.82 LIG 0.23  C 
BRANCH 31 32
ATOM     32  NZ  LYS B  51      28.479 -15.713  -2.275  1.00 73.20 LIG-0.08  N 
ATOM     33 HZ2  LYS B  51      28.762 -15.640  -3.116  1.00 73.20 LIG 0.27  HD
ATOM     34 HZ3  LYS B  51      27.597 -15.830  -2.269  1.00 73.20 LIG 0.27  HD
ATOM     35 HZ1  LYS B  51      28.683 -14.971  -1.828  1.00 73.20 LIG 0.27  HD
ENDBRANCH 31 32
ENDBRANCH 30 31
ENDBRANCH 29 30
ENDBRANCH 28 29
ENDBRANCH 1 28
BRANCH 1 36
ATOM     36  N   LYS B  51      28.541 -21.823  -5.403  1.00 65.69 LIG-0.35  N 
ATOM     37 H    LYS B  51      29.385 -21.665  -5.446  1.00 65.69 LIG 0.16  HD
ATOM     38  C   PRO B  50      27.937 -22.840  -6.015  1.00 68.91 LIG 0.24  C 
ATOM     39 O    PRO B  50      26.693 -22.980  -6.009  1.00 63.49 LIG-0.27  OA
BRANCH 38 40
ATOM     40  CA  PRO B  50      28.853 -23.884  -6.721  1.00 65.85 LIG 0.18  C 
ATOM     41  N   PRO B  50      29.801 -23.236  -7.659  1.00 60.71 LIG-0.34  N 
ATOM     42  CD  PRO B  50      31.145 -23.115  -7.050  1.00 60.54 LIG 0.13  C 
ATOM     43  C   ARG B  49      29.260 -22.624  -8.763  1.00 60.43 LIG 0.26  C 
ATOM     44  CG  PRO B  50      30.983 -23.719  -5.652  1.00 54.86 LIG 0.02  C 
ATOM     45  CB  PRO B  50      29.779 -24.594  -5.714  1.00 61.52 LIG 0.04  C 
ATOM     46 O    ARG B  49      28.023 -22.584  -8.975  1.00 53.87 LIG-0.27  OA
BRANCH 43 47
ATOM     47  CA  ARG B  49      30.221 -21.933  -9.776  1.00 56.75 LIG 0.40  C 
ATOM     48  N   ARG B  49      31.056 -20.831  -9.137  1.00 50.64 LIG 0.61  N 
BRANCH 47 49
ATOM     49  CB  ARG B  49      31.143 -22.990 -10.451  1.00 51.37 LIG 0.05  C 
BRANCH 49 50
ATOM     50  CG  ARG B  49      32.607 -22.969  -9.996  1.00 44.94 LIG 0.02  C 
BRANCH 50 51
ATOM     51  CD  ARG B  49      33.256 -24.381 -10.082  1.00 41.72 LIG 0.14  C 
BRANCH 51 52
ATOM     52  NE  ARG B  49      32.514 -25.289 -10.960  1.00 39.59 LIG-0.23  N 
ATOM     53 HE   ARG B  49      32.040 -24.928 -11.580  1.00 39.59 LIG 0.18  HD
ATOM     54  CZ  ARG B  49      32.503 -26.622 -10.888  1.00 39.90 LIG 0.67  C 
ATOM     55  NH1 ARG B  49      33.166 -27.257  -9.913  1.00 39.18 LIG-0.23  N 
ATOM     56  NH2 ARG B  49      31.769 -27.330 -11.769  1.00 31.35 LIG-0.23  N 
ATOM     57 2HH1 ARG B  49      33.154 -28.116  -9.874  1.00 39.18 LIG 0.17  HD
ATOM     58 1HH1 ARG B  49      33.603 -26.806  -9.326  1.00 39.18 LIG 0.17  HD
ATOM     59 1HH2 ARG B  49      31.312 -26.923 -12.373  1.00 31.35 LIG 0.17  HD
ATOM     60 2HH2 ARG B  49      31.759 -28.189 -11.726  1.00 31.35 LIG 0.17  HD
ENDBRANCH 51 52
ENDBRANCH 50 51
ENDBRANCH 49 50
ENDBRANCH 47 49
ENDBRANCH 43 47
ENDBRANCH 38 40
ENDBRANCH 1 36
TORSDOF 21
ENDMDL
MODEL 41
USER: ADFR SOLUTION from run 78
USER: SCORE 17.426081 LL:  -3.571 LR: -14.411 RR:   0.000 FEB:  -8.147
USER: RMSD 6.594751
USER: SEED 77
USER: STATUS no improvement in best in 8 clusters for 5 generations
USER: GENES 23
USER: genes 0 Translation |==|  0.36936 0.42523 0.53045
USER: genes 1 Rotation |==|  0.05536 0.35367 0.43799 0.66442
USER: genes 2 Torsion [N]-CA--C-[N] |==|  0.47198
USER: genes 3 Torsion [N]-CA--C-[O] |==|  0.84923
USER: genes 4 Torsion [C]-N--CA-[CB] |==|  0.56111
USER: genes 5 Torsion [N]-CA--CB-[CG] |==|  0.84159
USER: genes 6 Torsion [CA]-CB--CG-[CD1] |==|  0.17595
USER: genes 7 Torsion [N]-CA--C-[N] |==|  0.29300
USER: genes 8 Torsion [C]-N--CA-[CB] |==|  0.28298
USER: genes 9 Torsion [N]-CA--CB-[CG1] |==|  0.45493
USER: genes 10 Torsion [N]-CA--C-[O] |==|  0.05250
USER: genes 11 Torsion [C]-CA--CB-[CG] |==|  0.98601
USER: genes 12 Torsion [CA]-CB--CG-[CD] |==|  0.75267
USER: genes 13 Torsion [CB]-CG--CD-[CE] |==|  0.25690
USER: genes 14 Torsion [CG]-CD--CE-[NZ] |==|  0.74318
USER: genes 15 Torsion [CD]-CE--NZ-[HZ2] |==|  0.79474
USER: genes 16 Torsion [C]-CA--N-[C] |==|  0.78680
USER: genes 17 Torsion [N]-C--CA-[N] |==|  0.52007
USER: genes 18 Torsion [N]-C--CA-[N] |==|  0.77132
USER: genes 19 Torsion [C]-CA--CB-[CG] |==|  0.22639
USER: genes 20 Torsion [CA]-CB--CG-[CD] |==|  0.27105
USER: genes 21 Torsion [CB]-CG--CD-[NE] |==|  0.39989
USER: genes 22 Torsion [CG]-CD--NE-[HE] |==|  0.19238
ROOT
ATOM      1  CA  LYS B  51      18.940 -24.514  -4.045  1.00 67.60 LIG 0.18  C 
ENDROOT
BRANCH 1 2
ATOM      2  C   LYS B  51      18.149 -25.096  -5.264  1.00 65.68 LIG 0.24  C 
ATOM      3  N   PRO B  52      17.629 -26.350  -5.164  1.00 68.58 LIG-0.34  N 
ATOM      4  CD  PRO B  52      17.963 -27.495  -4.284  1.00 71.17 LIG 0.13  C 
ATOM      5  CA  PRO B  52      16.739 -26.754  -6.284  1.00 62.52 LIG 0.18  C 
ATOM      6  CG  PRO B  52      17.564 -28.696  -5.117  1.00 68.49 LIG 0.02  C 
ATOM      7  CB  PRO B  52      16.426 -28.222  -5.971  1.00 62.23 LIG 0.04  C 
ATOM      8 O    LYS B  51      18.080 -24.449  -6.325  1.00 49.94 LIG-0.27  OA
BRANCH 5 9
ATOM      9  C   PRO B  52      15.445 -25.893  -6.363  1.00 62.23 LIG 0.24  C 
ATOM     10 O    PRO B  52      14.715 -25.790  -5.357  1.00 52.82 LIG-0.27  OA
ATOM     11  N   LEU B  53      15.222 -25.232  -7.517  1.00 59.38 LIG-0.35  N 
ATOM     12 H    LEU B  53      15.801 -25.195  -8.152  1.00 59.38 LIG 0.16  HD
BRANCH 11 13
ATOM     13  CA  LEU B  53      13.972 -24.504  -7.823  1.00 58.77 LIG 0.18  C 
BRANCH 13 14
ATOM     14  CB  LEU B  53      13.758 -24.316  -9.352  1.00 52.29 LIG 0.04  C 
BRANCH 14 15
ATOM     15  CG  LEU B  53      14.867 -23.588 -10.174  1.00 62.01 LIG-0.02  C 
ATOM     16  CD2 LEU B  53      14.421 -23.255 -11.605  1.00 53.58 LIG 0.01  C 
ATOM     17  CD1 LEU B  53      16.222 -24.334 -10.189  1.00 50.45 LIG 0.01  C 
ENDBRANCH 14 15
ENDBRANCH 13 14
BRANCH 13 18
ATOM     18  C   LEU B  53      12.804 -25.282  -7.176  1.00 60.22 LIG 0.24  C 
ATOM     19  N   VAL B  54      12.251 -24.766  -6.065  1.00 61.95 LIG-0.35  N 
ATOM     20 H    VAL B  54      12.466 -24.004  -5.729  1.00 61.95 LIG 0.16  HD
ATOM     21 O    LEU B  53      12.437 -26.357  -7.664  1.00 54.25 LIG-0.27  OA
BRANCH 19 22
ATOM     22  CA  VAL B  54      11.191 -25.499  -5.310  1.00 71.55 LIG 0.17  C 
BRANCH 22 23
ATOM     23  CB  VAL B  54      11.714 -26.216  -4.007  1.00 67.56 LIG 0.01  C 
ATOM     24  CG1 VAL B  54      10.568 -26.605  -3.069  1.00 60.73 LIG 0.01  C 
ATOM     25  CG2 VAL B  54      12.556 -27.449  -4.330  1.00 61.59 LIG 0.01  C 
ENDBRANCH 22 23
BRANCH 22 26
ATOM     26  C   VAL B  54       9.984 -24.601  -5.010  1.00 64.78 LIG 0.22  C 
ATOM     27 O    VAL B  54       9.806 -23.576  -5.649  1.00 73.26 LIG-0.29  OA
ENDBRANCH 22 26
ENDBRANCH 19 22
ENDBRANCH 13 18
ENDBRANCH 11 13
ENDBRANCH 5 9
ENDBRANCH 1 2
BRANCH 1 28
ATOM     28  CB  LYS B  51      18.128 -24.245  -2.753  1.00 70.72 LIG 0.04  C 
BRANCH 28 29
ATOM     29  CG  LYS B  51      16.610 -24.440  -2.758  1.00 73.15 LIG 0.00  C 
BRANCH 29 30
ATOM     30  CD  LYS B  51      15.910 -23.144  -3.179  1.00 70.67 LIG 0.03  C 
BRANCH 30 31
ATOM     31  CE  LYS B  51      15.660 -23.112  -4.682  1.00 67.82 LIG 0.23  C 
BRANCH 31 32
ATOM     32  NZ  LYS B  51      16.784 -22.445  -5.376  1.00 73.20 LIG-0.08  N 
ATOM     33 HZ2  LYS B  51      16.742 -21.567  -5.235  1.00 73.20 LIG 0.27  HD
ATOM     34 HZ3  LYS B  51      17.555 -22.758  -5.062  1.00 73.20 LIG 0.27  HD
ATOM     35 HZ1  LYS B  51      16.732 -22.607  -6.250  1.00 73.20 LIG 0.27  HD
ENDBRANCH 31 32
ENDBRANCH 30 31
ENDBRANCH 29 30
ENDBRANCH 28 29
ENDBRANCH 1 28
BRANCH 1 36
ATOM     36  N   LYS B  51      19.615 -23.270  -4.437  1.00 65.69 LIG-0.35  N 
ATOM     37 H    LYS B  51      19.232 -22.552  -4.159  1.00 65.69 LIG 0.16  HD
ATOM     38  C   PRO B  50      20.729 -23.291  -5.166  1.00 68.91 LIG 0.24  C 
ATOM     39 O    PRO B  50      21.202 -24.352  -5.634  1.00 63.49 LIG-0.27  OA
BRANCH 38 40
ATOM     40  CA  PRO B  50      21.453 -21.929  -5.389  1.00 65.85 LIG 0.18  C 
ATOM     41  N   PRO B  50      22.574 -22.055  -6.350  1.00 60.71 LIG-0.34  N 
ATOM     42  CD  PRO B  50      22.177 -21.569  -7.690  1.00 60.54 LIG 0.13  C 
ATOM     43  C   ARG B  49      23.645 -22.821  -5.957  1.00 60.43 LIG 0.26  C 
ATOM     44  CG  PRO B  50      20.718 -21.136  -7.520  1.00 54.86 LIG 0.02  C 
ATOM     45  CB  PRO B  50      20.523 -20.900  -6.061  1.00 61.52 LIG 0.04  C 
ATOM     46 O    ARG B  49      23.682 -23.412  -4.849  1.00 53.87 LIG-0.27  OA
BRANCH 43 47
ATOM     47  CA  ARG B  49      24.846 -22.978  -6.936  1.00 56.75 LIG 0.40  C 
ATOM     48  N   ARG B  49      24.612 -24.054  -7.988  1.00 50.64 LIG 0.61  N 
BRANCH 47 49
ATOM     49  CB  ARG B  49      25.169 -21.616  -7.615  1.00 51.37 LIG 0.05  C 
BRANCH 49 50
ATOM     50  CG  ARG B  49      26.020 -20.652  -6.781  1.00 44.94 LIG 0.02  C 
BRANCH 50 51
ATOM     51  CD  ARG B  49      27.524 -20.726  -7.173  1.00 41.72 LIG 0.14  C 
BRANCH 51 52
ATOM     52  NE  ARG B  49      28.188 -19.422  -7.108  1.00 39.59 LIG-0.23  N 
ATOM     53 HE   ARG B  49      28.304 -19.084  -6.326  1.00 39.59 LIG 0.18  HD
ATOM     54  CZ  ARG B  49      28.631 -18.710  -8.147  1.00 39.90 LIG 0.67  C 
ATOM     55  NH1 ARG B  49      28.435 -19.138  -9.400  1.00 39.18 LIG-0.23  N 
ATOM     56  NH2 ARG B  49      29.226 -17.520  -7.933  1.00 31.35 LIG-0.23  N 
ATOM     57 2HH1 ARG B  49      28.723 -18.673 -10.064  1.00 39.18 LIG 0.17  HD
ATOM     58 1HH1 ARG B  49      28.020 -19.878  -9.541  1.00 39.18 LIG 0.17  HD
ATOM     59 1HH2 ARG B  49      29.319 -17.224  -7.131  1.00 31.35 LIG 0.17  HD
ATOM     60 2HH2 ARG B  49      29.512 -17.057  -8.599  1.00 31.35 LIG 0.17  HD
ENDBRANCH 51 52
ENDBRANCH 50 51
ENDBRANCH 49 50
ENDBRANCH 47 49
ENDBRANCH 43 47
ENDBRANCH 38 40
ENDBRANCH 1 36
TORSDOF 21
ENDMDL
MODEL 42
USER: ADFR SOLUTION from run 79
USER: SCORE 16.775775 LL:  -3.603 LR: -14.396 RR:   0.000 FEB:  -8.132
USER: RMSD 5.063818
USER: SEED 78
USER: STATUS no improvement in best in 4 clusters for 5 generations
USER: GENES 23
USER: genes 0 Translation |==|  0.53260 0.47921 0.45973
USER: genes 1 Rotation |==|  0.75419 0.78433 0.65041 0.78622
USER: genes 2 Torsion [N]-CA--C-[N] |==|  0.22004
USER: genes 3 Torsion [N]-CA--C-[O] |==|  0.82726
USER: genes 4 Torsion [C]-N--CA-[CB] |==|  0.81397
USER: genes 5 Torsion [N]-CA--CB-[CG] |==|  0.73506
USER: genes 6 Torsion [CA]-CB--CG-[CD1] |==|  0.20059
USER: genes 7 Torsion [N]-CA--C-[N] |==|  0.17789
USER: genes 8 Torsion [C]-N--CA-[CB] |==|  0.16555
USER: genes 9 Torsion [N]-CA--CB-[CG1] |==|  0.19932
USER: genes 10 Torsion [N]-CA--C-[O] |==|  0.30887
USER: genes 11 Torsion [C]-CA--CB-[CG] |==|  0.59971
USER: genes 12 Torsion [CA]-CB--CG-[CD] |==|  0.79642
USER: genes 13 Torsion [CB]-CG--CD-[CE] |==|  0.82450
USER: genes 14 Torsion [CG]-CD--CE-[NZ] |==|  0.40810
USER: genes 15 Torsion [CD]-CE--NZ-[HZ2] |==|  0.93479
USER: genes 16 Torsion [C]-CA--N-[C] |==|  0.68703
USER: genes 17 Torsion [N]-C--CA-[N] |==|  0.66380
USER: genes 18 Torsion [N]-C--CA-[N] |==|  0.16229
USER: genes 19 Torsion [C]-CA--CB-[CG] |==|  0.44759
USER: genes 20 Torsion [CA]-CB--CG-[CD] |==|  0.27104
USER: genes 21 Torsion [CB]-CG--CD-[NE] |==|  0.31628
USER: genes 22 Torsion [CG]-CD--NE-[HE] |==|  0.79587
ROOT
ATOM      1  CA  LYS B  51      23.225 -23.300  -5.159  1.00 67.60 LIG 0.18  C 
ENDROOT
BRANCH 1 2
ATOM      2  C   LYS B  51      23.594 -24.552  -4.298  1.00 65.68 LIG 0.24  C 
ATOM      3  N   PRO B  52      24.153 -24.357  -3.072  1.00 68.58 LIG-0.34  N 
ATOM      4  CD  PRO B  52      24.875 -23.204  -2.483  1.00 71.17 LIG 0.13  C 
ATOM      5  CA  PRO B  52      24.302 -25.583  -2.245  1.00 62.52 LIG 0.18  C 
ATOM      6  CG  PRO B  52      25.792 -23.855  -1.468  1.00 68.49 LIG 0.02  C 
ATOM      7  CB  PRO B  52      25.066 -25.085  -1.012  1.00 62.23 LIG 0.04  C 
ATOM      8 O    LYS B  51      23.454 -25.695  -4.771  1.00 49.94 LIG-0.27  OA
BRANCH 5 9
ATOM      9  C   PRO B  52      22.933 -26.215  -1.858  1.00 62.23 LIG 0.24  C 
ATOM     10 O    PRO B  52      22.132 -25.561  -1.161  1.00 52.82 LIG-0.27  OA
ATOM     11  N   LEU B  53      22.655 -27.431  -2.372  1.00 59.38 LIG-0.35  N 
ATOM     12 H    LEU B  53      23.151 -27.810  -2.964  1.00 59.38 LIG 0.16  HD
BRANCH 11 13
ATOM     13  CA  LEU B  53      21.483 -28.243  -1.984  1.00 58.77 LIG 0.18  C 
BRANCH 13 14
ATOM     14  CB  LEU B  53      21.567 -28.733  -0.510  1.00 52.29 LIG 0.04  C 
BRANCH 14 15
ATOM     15  CG  LEU B  53      22.140 -30.157  -0.231  1.00 62.01 LIG-0.02  C 
ATOM     16  CD2 LEU B  53      21.750 -30.691   1.154  1.00 53.58 LIG 0.01  C 
ATOM     17  CD1 LEU B  53      23.669 -30.266  -0.442  1.00 50.45 LIG 0.01  C 
ENDBRANCH 14 15
ENDBRANCH 13 14
BRANCH 13 18
ATOM     18  C   LEU B  53      20.217 -27.390  -2.230  1.00 60.22 LIG 0.24  C 
ATOM     19  N   VAL B  54      19.940 -27.037  -3.497  1.00 61.95 LIG-0.35  N 
ATOM     20 H    VAL B  54      20.388 -27.305  -4.180  1.00 61.95 LIG 0.16  HD
ATOM     21 O    LEU B  53      19.524 -27.030  -1.272  1.00 54.25 LIG-0.27  OA
BRANCH 19 22
ATOM     22  CA  VAL B  54      18.802 -26.126  -3.820  1.00 71.55 LIG 0.17  C 
BRANCH 22 23
ATOM     23  CB  VAL B  54      18.906 -24.707  -3.140  1.00 67.56 LIG 0.01  C 
ATOM     24  CG1 VAL B  54      20.002 -23.848  -3.775  1.00 60.73 LIG 0.01  C 
ATOM     25  CG2 VAL B  54      17.577 -23.955  -3.178  1.00 61.59 LIG 0.01  C 
ENDBRANCH 22 23
BRANCH 22 26
ATOM     26  C   VAL B  54      18.581 -26.008  -5.333  1.00 64.78 LIG 0.22  C 
ATOM     27 O    VAL B  54      17.582 -26.486  -5.848  1.00 73.26 LIG-0.29  OA
ENDBRANCH 22 26
ENDBRANCH 19 22
ENDBRANCH 13 18
ENDBRANCH 11 13
ENDBRANCH 5 9
ENDBRANCH 1 2
BRANCH 1 28
ATOM     28  CB  LYS B  51      22.134 -23.496  -6.243  1.00 70.72 LIG 0.04  C 
BRANCH 28 29
ATOM     29  CG  LYS B  51      22.249 -22.751  -7.575  1.00 73.15 LIG 0.00  C 
BRANCH 29 30
ATOM     30  CD  LYS B  51      21.928 -21.265  -7.381  1.00 70.67 LIG 0.03  C 
BRANCH 30 31
ATOM     31  CE  LYS B  51      20.488 -21.066  -6.924  1.00 67.82 LIG 0.23  C 
BRANCH 31 32
ATOM     32  NZ  LYS B  51      20.391 -19.894  -6.025  1.00 73.20 LIG-0.08  N 
ATOM     33 HZ2  LYS B  51      21.185 -19.737  -5.654  1.00 73.20 LIG 0.27  HD
ATOM     34 HZ3  LYS B  51      20.138 -19.181  -6.493  1.00 73.20 LIG 0.27  HD
ATOM     35 HZ1  LYS B  51      19.793 -20.058  -5.387  1.00 73.20 LIG 0.27  HD
ENDBRANCH 31 32
ENDBRANCH 30 31
ENDBRANCH 29 30
ENDBRANCH 28 29
ENDBRANCH 1 28
BRANCH 1 36
ATOM     36  N   LYS B  51      24.431 -22.767  -5.806  1.00 65.69 LIG-0.35  N 
ATOM     37 H    LYS B  51      24.773 -23.280  -6.405  1.00 65.69 LIG 0.16  HD
ATOM     38  C   PRO B  50      24.927 -21.578  -5.466  1.00 68.91 LIG 0.24  C 
ATOM     39 O    PRO B  50      24.457 -20.904  -4.522  1.00 63.49 LIG-0.27  OA
BRANCH 38 40
ATOM     40  CA  PRO B  50      26.109 -21.035  -6.323  1.00 65.85 LIG 0.18  C 
ATOM     41  N   PRO B  50      27.316 -20.787  -5.498  1.00 60.71 LIG-0.34  N 
ATOM     42  CD  PRO B  50      28.289 -21.893  -5.641  1.00 60.54 LIG 0.13  C 
ATOM     43  C   ARG B  49      27.232 -19.784  -4.563  1.00 60.43 LIG 0.26  C 
ATOM     44  CG  PRO B  50      27.613 -22.871  -6.606  1.00 54.86 LIG 0.02  C 
ATOM     45  CB  PRO B  50      26.590 -22.081  -7.348  1.00 61.52 LIG 0.04  C 
ATOM     46 O    ARG B  49      26.185 -19.113  -4.386  1.00 53.87 LIG-0.27  OA
BRANCH 43 47
ATOM     47  CA  ARG B  49      28.477 -19.488  -3.676  1.00 56.75 LIG 0.40  C 
ATOM     48  N   ARG B  49      29.709 -19.123  -4.495  1.00 50.64 LIG 0.61  N 
BRANCH 47 49
ATOM     49  CB  ARG B  49      28.154 -18.363  -2.651  1.00 51.37 LIG 0.05  C 
BRANCH 49 50
ATOM     50  CG  ARG B  49      29.100 -18.282  -1.447  1.00 44.94 LIG 0.02  C 
BRANCH 50 51
ATOM     51  CD  ARG B  49      30.200 -17.201  -1.652  1.00 41.72 LIG 0.14  C 
BRANCH 51 52
ATOM     52  NE  ARG B  49      30.072 -16.082  -0.715  1.00 39.59 LIG-0.23  N 
ATOM     53 HE   ARG B  49      29.429 -15.530  -0.855  1.00 39.59 LIG 0.18  HD
ATOM     54  CZ  ARG B  49      30.859 -15.840   0.336  1.00 39.90 LIG 0.67  C 
ATOM     55  NH1 ARG B  49      31.919 -16.619   0.587  1.00 39.18 LIG-0.23  N 
ATOM     56  NH2 ARG B  49      30.619 -14.767   1.115  1.00 31.35 LIG-0.23  N 
ATOM     57 2HH1 ARG B  49      32.421 -16.456   1.267  1.00 39.18 LIG 0.17  HD
ATOM     58 1HH1 ARG B  49      32.098 -17.282   0.069  1.00 39.18 LIG 0.17  HD
ATOM     59 1HH2 ARG B  49      29.961 -14.243   0.934  1.00 31.35 LIG 0.17  HD
ATOM     60 2HH2 ARG B  49      31.123 -14.606   1.793  1.00 31.35 LIG 0.17  HD
ENDBRANCH 51 52
ENDBRANCH 50 51
ENDBRANCH 49 50
ENDBRANCH 47 49
ENDBRANCH 43 47
ENDBRANCH 38 40
ENDBRANCH 1 36
TORSDOF 21
ENDMDL
