MODEL 1
USER: ADFR SOLUTION from run 28
USER: SCORE 27.179909 LL:  -5.247 LR: -23.210 RR:   0.000 FEB: -16.945
USER: RMSD 4.717970
USER: SEED 27
USER: STATUS no improvement in best in 6 clusters for 5 generations
USER: GENES 23
USER: genes 0 Translation |==|  0.54558 0.56694 0.66153
USER: genes 1 Rotation |==|  0.68826 0.71126 0.45656 0.90993
USER: genes 2 Torsion [N]-C--CA-[N] |==|  0.37243
USER: genes 3 Torsion [C]-CA--CB-[CG2] |==|  0.73287
USER: genes 4 Torsion [CA]-CB--CG1-[CD1] |==|  0.71367
USER: genes 5 Torsion [C]-CA--N-[C] |==|  0.53558
USER: genes 6 Torsion [N]-C--CA-[N] |==|  0.29362
USER: genes 7 Torsion [C]-CA--CB-[CG] |==|  0.25349
USER: genes 8 Torsion [CA]-CB--CG-[CD2] |==|  0.96416
USER: genes 9 Torsion [CE2]-CZ--OH-[HH] |==|  0.29451
USER: genes 10 Torsion [C]-CA--N-[C] |==|  0.69607
USER: genes 11 Torsion [N]-C--CA-[N] |==|  0.47113
USER: genes 12 Torsion [C]-CA--CB-[CG1] |==|  0.41871
USER: genes 13 Torsion [C]-CA--N-[H3] |==|  0.74099
USER: genes 14 Torsion [C]-N--CA-[C] |==|  0.57178
USER: genes 15 Torsion [N]-CA--C-[N] |==|  0.24044
USER: genes 16 Torsion [N]-CA--C-[O] |==|  0.94375
USER: genes 17 Torsion [C]-N--CA-[C] |==|  0.21884
USER: genes 18 Torsion [N]-CA--C-[O] |==|  0.08507
USER: genes 19 Torsion [N]-CA--CB-[CG] |==|  0.83494
USER: genes 20 Torsion [CA]-CB--CG-[CD1] |==|  0.75653
USER: genes 21 Torsion [N]-CA--CB-[CG] |==|  0.11073
USER: genes 22 Torsion [CA]-CB--CG-[CD2] |==|  0.10426
ROOT
ATOM      1  C   ILE C   3     102.975  19.053  20.295  1.00 36.59 LIG 0.24  C 
ATOM      2 O    ILE C   3     103.311  19.819  21.200  1.00 38.27 LIG-0.27  OA
ATOM      3  N   HIS C   4     101.714  18.977  19.867  1.00 46.08 LIG-0.35  N 
ATOM      4 H    HIS C   4     101.424  18.472  19.236  1.00 46.08 LIG 0.16  HD
ENDROOT
BRANCH 1 5
ATOM      5  CA  ILE C   3     104.039  18.168  19.629  1.00 34.07 LIG 0.18  C 
BRANCH 5 6
ATOM      6  CB  ILE C   3     104.455  17.008  20.553  1.00 34.47 LIG 0.01  C 
ATOM      7  CG2 ILE C   3     105.726  17.341  21.342  1.00 38.92 LIG 0.01  C 
BRANCH 6 8
ATOM      8  CG1 ILE C   3     103.296  16.676  21.491  1.00 35.39 LIG 0.00  C 
ATOM      9  CD1 ILE C   3     103.495  17.208  22.888  1.00 37.65 LIG 0.01  C 
ENDBRANCH 6 8
ENDBRANCH 5 6
BRANCH 5 10
ATOM     10  N   ILE C   3     105.201  19.011  19.360  1.00 27.24 LIG-0.35  N 
ATOM     11 H    ILE C   3     105.181  19.775  19.755  1.00 27.24 LIG 0.16  HD
ATOM     12  C   TYR C   2     106.188  18.617  18.574  1.00 25.56 LIG 0.24  C 
ATOM     13 O    TYR C   2     106.286  17.479  18.136  1.00 25.11 LIG-0.27  OA
BRANCH 12 14
ATOM     14  CA  TYR C   2     107.259  19.658  18.272  1.00 24.41 LIG 0.18  C 
BRANCH 14 15
ATOM     15  CB  TYR C   2     107.540  19.697  16.777  1.00 23.53 LIG 0.07  C 
BRANCH 15 16
ATOM     16  CG  TYR C   2     106.665  20.712  16.082  1.00 26.01 LIG-0.06  A 
ATOM     17  CD2 TYR C   2     105.557  21.285  16.742  1.00 25.97 LIG 0.01  A 
ATOM     18  CE2 TYR C   2     104.772  22.239  16.122  1.00 26.70 LIG 0.04  A 
ATOM     19  CZ  TYR C   2     105.070  22.631  14.845  1.00 26.24 LIG 0.07  A 
ATOM     20  CE1 TYR C   2     106.165  22.101  14.166  1.00 24.75 LIG 0.04  A 
ATOM     21  CD1 TYR C   2     106.959  21.146  14.792  1.00 24.78 LIG 0.01  A 
BRANCH 19 22
ATOM     22 OH   TYR C   2     104.272  23.568  14.252  1.00 29.14 LIG-0.36  OA
ATOM     23 HH   TYR C   2     104.676  24.303  14.223  1.00 29.14 LIG 0.22  HD
ENDBRANCH 19 22
ENDBRANCH 15 16
ENDBRANCH 14 15
BRANCH 14 24
ATOM     24  N   TYR C   2     108.429  19.294  19.046  1.00 21.44 LIG-0.35  N 
ATOM     25 H    TYR C   2     108.837  18.586  18.777  1.00 21.44 LIG 0.16  HD
ATOM     26  C   VAL C   1     108.800  20.027  20.082  1.00 22.04 LIG 0.25  C 
ATOM     27 O    VAL C   1     108.304  21.137  20.350  1.00 22.28 LIG-0.27  OA
BRANCH 26 28
ATOM     28  CA  VAL C   1     109.848  19.402  20.990  1.00 20.62 LIG 0.28  C 
BRANCH 28 29
ATOM     29  CB  VAL C   1     109.094  18.188  21.653  1.00 21.07 LIG 0.02  C 
ATOM     30  CG1 VAL C   1     110.026  17.046  22.011  1.00 24.54 LIG 0.01  C 
ATOM     31  CG2 VAL C   1     108.246  18.618  22.869  1.00 20.31 LIG 0.01  C 
ENDBRANCH 28 29
BRANCH 28 32
ATOM     32  N   VAL C   1     110.365  20.440  21.976  1.00 19.14 LIG-0.07  N 
ATOM     33 H1   VAL C   1     109.738  21.058  22.113  1.00 19.14 LIG 0.28  HD
ATOM     34 H2   VAL C   1     110.564  20.043  22.748  1.00 19.14 LIG 0.28  HD
ATOM     35 H3   VAL C   1     111.094  20.827  21.645  1.00 19.14 LIG 0.28  HD
ENDBRANCH 28 32
ENDBRANCH 26 28
ENDBRANCH 14 24
ENDBRANCH 12 14
ENDBRANCH 5 10
ENDBRANCH 1 5
BRANCH 3 36
ATOM     36  CA  HIS C   4     100.718  19.833  20.528  1.00 52.11 LIG 0.18  C 
BRANCH 36 37
ATOM     37  C   HIS C   4      99.320  19.249  20.432  1.00 56.91 LIG 0.24  C 
ATOM     38  N   PRO C   5      98.975  18.368  21.396  1.00 60.52 LIG-0.34  N 
ATOM     39  CD  PRO C   5      99.911  17.807  22.392  1.00 64.10 LIG 0.13  C 
ATOM     40  CA  PRO C   5      97.632  17.863  21.616  1.00 66.68 LIG 0.18  C 
ATOM     41  CG  PRO C   5      99.012  17.131  23.404  1.00 63.73 LIG 0.02  C 
ATOM     42  CB  PRO C   5      97.630  17.597  23.128  1.00 65.87 LIG 0.04  C 
ATOM     43 O    HIS C   4      98.581  19.576  19.497  1.00 55.90 LIG-0.27  OA
BRANCH 40 44
ATOM     44  C   PRO C   5      96.559  18.895  21.248  1.00 66.75 LIG 0.24  C 
ATOM     45 O    PRO C   5      96.841  20.092  21.181  1.00 68.20 LIG-0.27  OA
ATOM     46  N   PHE C   6      95.352  18.415  20.967  1.00 67.82 LIG-0.34  N 
ATOM     47 H    PHE C   6      95.162  17.577  20.928  1.00 67.82 LIG 0.16  HD
BRANCH 46 48
ATOM     48  CA  PHE C   6      94.229  19.301  20.697  1.00 66.93 LIG 0.19  C 
BRANCH 48 49
ATOM     49  C   PHE C   6      94.322  19.828  19.265  1.00 69.04 LIG 0.20  C 
ATOM     50 O    PHE C   6      94.835  19.156  18.362  1.00 69.16 LIG-0.65  OA
ATOM     51 OXT  PHE C   6      93.873  20.939  18.985  1.00 68.12 LIG-0.65  OA
ENDBRANCH 48 49
BRANCH 48 52
ATOM     52  CB  PHE C   6      94.178  20.454  21.707  1.00 62.34 LIG 0.07  C 
BRANCH 52 53
ATOM     53  CG  PHE C   6      94.040  20.004  23.141  1.00 57.42 LIG-0.06  A 
ATOM     54  CD1 PHE C   6      92.778  19.782  23.701  1.00 55.80 LIG 0.01  A 
ATOM     55  CE1 PHE C   6      92.650  19.369  25.021  1.00 52.49 LIG 0.00  A 
ATOM     56  CZ  PHE C   6      93.794  19.158  25.793  1.00 53.54 LIG 0.00  A 
ATOM     57  CE2 PHE C   6      95.050  19.372  25.247  1.00 53.16 LIG 0.00  A 
ATOM     58  CD2 PHE C   6      95.170  19.793  23.929  1.00 55.01 LIG 0.01  A 
ENDBRANCH 52 53
ENDBRANCH 48 52
ENDBRANCH 46 48
ENDBRANCH 40 44
ENDBRANCH 36 37
BRANCH 36 59
ATOM     59  CB  HIS C   4     100.700  21.296  20.074  1.00 57.66 LIG 0.10  C 
BRANCH 59 60
ATOM     60  CG  HIS C   4     100.895  21.442  18.589  1.00 65.67 LIG 0.06  A 
ATOM     61  CD2 HIS C   4     100.451  20.693  17.549  1.00 66.99 LIG 0.14  A 
ATOM     62 NE2  HIS C   4     100.886  21.302  16.394  1.00 66.34 LIG-0.25  NA
ATOM     63  CE1 HIS C   4     101.563  22.393  16.710  1.00 66.88 LIG 0.23  A 
ATOM     64 ND1  HIS C   4     101.573  22.508  18.027  1.00 66.49 LIG-0.24  NA
ENDBRANCH 59 60
ENDBRANCH 36 59
ENDBRANCH 3 36
TORSDOF 21
ENDMDL
MODEL 2
USER: ADFR SOLUTION from run 174
USER: SCORE 27.562418 LL:  -5.511 LR: -23.035 RR:   0.000 FEB: -16.771
USER: RMSD 2.995538
USER: SEED 173
USER: STATUS no improvement in best in 5 clusters for 5 generations
USER: GENES 23
USER: genes 0 Translation |==|  0.56041 0.51045 0.61117
USER: genes 1 Rotation |==|  0.36658 0.56932 0.42417 0.97079
USER: genes 2 Torsion [N]-C--CA-[N] |==|  0.42345
USER: genes 3 Torsion [C]-CA--CB-[CG2] |==|  0.15279
USER: genes 4 Torsion [CA]-CB--CG1-[CD1] |==|  0.93089
USER: genes 5 Torsion [C]-CA--N-[C] |==|  0.79371
USER: genes 6 Torsion [N]-C--CA-[N] |==|  0.22264
USER: genes 7 Torsion [C]-CA--CB-[CG] |==|  0.28885
USER: genes 8 Torsion [CA]-CB--CG-[CD2] |==|  0.37802
USER: genes 9 Torsion [CE2]-CZ--OH-[HH] |==|  0.68706
USER: genes 10 Torsion [C]-CA--N-[C] |==|  0.71679
USER: genes 11 Torsion [N]-C--CA-[N] |==|  0.45807
USER: genes 12 Torsion [C]-CA--CB-[CG1] |==|  0.39266
USER: genes 13 Torsion [C]-CA--N-[H3] |==|  0.71594
USER: genes 14 Torsion [C]-N--CA-[C] |==|  0.66580
USER: genes 15 Torsion [N]-CA--C-[N] |==|  0.18334
USER: genes 16 Torsion [N]-CA--C-[O] |==|  0.87506
USER: genes 17 Torsion [C]-N--CA-[C] |==|  0.83665
USER: genes 18 Torsion [N]-CA--C-[O] |==|  0.88995
USER: genes 19 Torsion [N]-CA--CB-[CG] |==|  0.64135
USER: genes 20 Torsion [CA]-CB--CG-[CD1] |==|  0.54994
USER: genes 21 Torsion [N]-CA--CB-[CG] |==|  0.87665
USER: genes 22 Torsion [CA]-CB--CG-[CD2] |==|  0.36399
ROOT
ATOM      1  C   ILE C   3     103.365  18.120  19.313  1.00 36.59 LIG 0.24  C 
ATOM      2 O    ILE C   3     103.305  19.207  18.735  1.00 38.27 LIG-0.27  OA
ATOM      3  N   HIS C   4     102.436  17.179  19.140  1.00 46.08 LIG-0.35  N 
ATOM      4 H    HIS C   4     102.430  16.402  19.506  1.00 46.08 LIG 0.16  HD
ENDROOT
BRANCH 1 5
ATOM      5  CA  ILE C   3     104.547  17.834  20.249  1.00 34.07 LIG 0.18  C 
BRANCH 5 6
ATOM      6  CB  ILE C   3     104.212  18.218  21.702  1.00 34.47 LIG 0.01  C 
ATOM      7  CG2 ILE C   3     102.935  17.526  22.190  1.00 38.92 LIG 0.01  C 
BRANCH 6 8
ATOM      8  CG1 ILE C   3     105.401  17.873  22.598  1.00 35.39 LIG 0.00  C 
ATOM      9  CD1 ILE C   3     106.268  16.777  22.032  1.00 37.65 LIG 0.01  C 
ENDBRANCH 6 8
ENDBRANCH 5 6
BRANCH 5 10
ATOM     10  N   ILE C   3     105.675  18.637  19.785  1.00 27.24 LIG-0.35  N 
ATOM     11 H    ILE C   3     105.849  19.319  20.280  1.00 27.24 LIG 0.16  HD
ATOM     12  C   TYR C   2     106.358  18.327  18.696  1.00 25.56 LIG 0.24  C 
ATOM     13 O    TYR C   2     106.206  17.281  18.082  1.00 25.11 LIG-0.27  OA
BRANCH 12 14
ATOM     14  CA  TYR C   2     107.413  19.336  18.258  1.00 24.41 LIG 0.18  C 
BRANCH 14 15
ATOM     15  CB  TYR C   2     107.711  19.166  16.776  1.00 23.53 LIG 0.07  C 
BRANCH 15 16
ATOM     16  CG  TYR C   2     107.062  20.255  15.957  1.00 26.01 LIG-0.06  A 
ATOM     17  CD2 TYR C   2     107.770  20.901  14.921  1.00 25.97 LIG 0.01  A 
ATOM     18  CE2 TYR C   2     107.170  21.875  14.145  1.00 26.70 LIG 0.04  A 
ATOM     19  CZ  TYR C   2     105.869  22.224  14.390  1.00 26.24 LIG 0.07  A 
ATOM     20  CE1 TYR C   2     105.132  21.599  15.393  1.00 24.75 LIG 0.04  A 
ATOM     21  CD1 TYR C   2     105.734  20.613  16.168  1.00 24.78 LIG 0.01  A 
BRANCH 19 22
ATOM     22 OH   TYR C   2     105.304  23.198  13.616  1.00 29.14 LIG-0.36  OA
ATOM     23 HH   TYR C   2     105.152  23.877  14.086  1.00 29.14 LIG 0.22  HD
ENDBRANCH 19 22
ENDBRANCH 15 16
ENDBRANCH 14 15
BRANCH 14 24
ATOM     24  N   TYR C   2     108.579  19.112  19.088  1.00 21.44 LIG-0.35  N 
ATOM     25 H    TYR C   2     109.061  18.436  18.864  1.00 21.44 LIG 0.16  HD
ATOM     26  C   VAL C   1     108.840  19.915  20.106  1.00 22.04 LIG 0.25  C 
ATOM     27 O    VAL C   1     108.234  20.982  20.310  1.00 22.28 LIG-0.27  OA
BRANCH 26 28
ATOM     28  CA  VAL C   1     109.904  19.424  21.076  1.00 20.62 LIG 0.28  C 
BRANCH 28 29
ATOM     29  CB  VAL C   1     109.194  18.249  21.849  1.00 21.07 LIG 0.02  C 
ATOM     30  CG1 VAL C   1     110.125  17.083  22.122  1.00 24.54 LIG 0.01  C 
ATOM     31  CG2 VAL C   1     108.508  18.730  23.145  1.00 20.31 LIG 0.01  C 
ENDBRANCH 28 29
BRANCH 28 32
ATOM     32  N   VAL C   1     110.368  20.573  21.961  1.00 19.14 LIG-0.07  N 
ATOM     33 H1   VAL C   1     109.770  21.232  21.929  1.00 19.14 LIG 0.28  HD
ATOM     34 H2   VAL C   1     110.450  20.287  22.800  1.00 19.14 LIG 0.28  HD
ATOM     35 H3   VAL C   1     111.154  20.873  21.671  1.00 19.14 LIG 0.28  HD
ENDBRANCH 28 32
ENDBRANCH 26 28
ENDBRANCH 14 24
ENDBRANCH 12 14
ENDBRANCH 5 10
ENDBRANCH 1 5
BRANCH 3 36
ATOM     36  CA  HIS C   4     101.313  17.485  18.241  1.00 52.11 LIG 0.18  C 
BRANCH 36 37
ATOM     37  C   HIS C   4      99.978  17.407  18.959  1.00 56.91 LIG 0.24  C 
ATOM     38  N   PRO C   5      99.765  18.328  19.924  1.00 60.52 LIG-0.34  N 
ATOM     39  CD  PRO C   5     100.796  19.252  20.442  1.00 64.10 LIG 0.13  C 
ATOM     40  CA  PRO C   5      98.490  18.568  20.575  1.00 66.68 LIG 0.18  C 
ATOM     41  CG  PRO C   5     100.014  20.254  21.263  1.00 63.73 LIG 0.02  C 
ATOM     42  CB  PRO C   5      98.582  20.059  20.926  1.00 65.87 LIG 0.04  C 
ATOM     43 O    HIS C   4      99.170  16.523  18.657  1.00 55.90 LIG-0.27  OA
BRANCH 40 44
ATOM     44  C   PRO C   5      97.305  18.304  19.640  1.00 66.75 LIG 0.24  C 
ATOM     45 O    PRO C   5      97.317  18.726  18.482  1.00 68.20 LIG-0.27  OA
ATOM     46  N   PHE C   6      96.314  17.569  20.136  1.00 67.82 LIG-0.34  N 
ATOM     47 H    PHE C   6      96.330  17.198  20.912  1.00 67.82 LIG 0.16  HD
BRANCH 46 48
ATOM     48  CA  PHE C   6      95.095  17.331  19.377  1.00 66.93 LIG 0.19  C 
BRANCH 48 49
ATOM     49  C   PHE C   6      94.431  18.665  19.040  1.00 69.04 LIG 0.20  C 
ATOM     50 O    PHE C   6      94.396  19.594  19.856  1.00 69.16 LIG-0.65  OA
ATOM     51 OXT  PHE C   6      93.922  18.839  17.932  1.00 68.12 LIG-0.65  OA
ENDBRANCH 48 49
BRANCH 48 52
ATOM     52  CB  PHE C   6      94.135  16.414  20.145  1.00 62.34 LIG 0.07  C 
BRANCH 52 53
ATOM     53  CG  PHE C   6      93.633  15.242  19.339  1.00 57.42 LIG-0.06  A 
ATOM     54  CD1 PHE C   6      92.493  14.537  19.739  1.00 55.80 LIG 0.01  A 
ATOM     55  CE1 PHE C   6      92.029  13.457  18.998  1.00 52.49 LIG 0.00  A 
ATOM     56  CZ  PHE C   6      92.699  13.080  17.832  1.00 53.54 LIG 0.00  A 
ATOM     57  CE2 PHE C   6      93.829  13.774  17.425  1.00 53.16 LIG 0.00  A 
ATOM     58  CD2 PHE C   6      94.291  14.847  18.176  1.00 55.01 LIG 0.01  A 
ENDBRANCH 52 53
ENDBRANCH 48 52
ENDBRANCH 46 48
ENDBRANCH 40 44
ENDBRANCH 36 37
BRANCH 36 59
ATOM     59  CB  HIS C   4     101.257  16.661  16.952  1.00 57.66 LIG 0.10  C 
BRANCH 59 60
ATOM     60  CG  HIS C   4     102.601  16.535  16.288  1.00 65.67 LIG 0.06  A 
ATOM     61  CD2 HIS C   4     103.266  15.454  15.809  1.00 66.99 LIG 0.14  A 
ATOM     62 NE2  HIS C   4     104.443  15.910  15.261  1.00 66.34 LIG-0.25  NA
ATOM     63  CE1 HIS C   4     104.497  17.225  15.388  1.00 66.88 LIG 0.23  A 
ATOM     64 ND1  HIS C   4     103.393  17.629  15.992  1.00 66.49 LIG-0.24  NA
ENDBRANCH 59 60
ENDBRANCH 36 59
ENDBRANCH 3 36
TORSDOF 21
ENDMDL
MODEL 3
USER: ADFR SOLUTION from run 174
USER: SCORE 26.863051 LL:  -5.516 LR: -22.311 RR:   0.000 FEB: -16.047
USER: RMSD 3.776265
USER: SEED 173
USER: STATUS no improvement in best in 5 clusters for 5 generations
USER: GENES 23
USER: genes 0 Translation |==|  0.56094 0.50805 0.61518
USER: genes 1 Rotation |==|  0.36502 0.57688 0.42344 0.96905
USER: genes 2 Torsion [N]-C--CA-[N] |==|  0.42626
USER: genes 3 Torsion [C]-CA--CB-[CG2] |==|  0.15093
USER: genes 4 Torsion [CA]-CB--CG1-[CD1] |==|  0.92896
USER: genes 5 Torsion [C]-CA--N-[C] |==|  0.79696
USER: genes 6 Torsion [N]-C--CA-[N] |==|  0.21474
USER: genes 7 Torsion [C]-CA--CB-[CG] |==|  0.29262
USER: genes 8 Torsion [CA]-CB--CG-[CD2] |==|  0.37133
USER: genes 9 Torsion [CE2]-CZ--OH-[HH] |==|  0.68376
USER: genes 10 Torsion [C]-CA--N-[C] |==|  0.72222
USER: genes 11 Torsion [N]-C--CA-[N] |==|  0.45383
USER: genes 12 Torsion [C]-CA--CB-[CG1] |==|  0.39056
USER: genes 13 Torsion [C]-CA--N-[H3] |==|  0.70953
USER: genes 14 Torsion [C]-N--CA-[C] |==|  0.66470
USER: genes 15 Torsion [N]-CA--C-[N] |==|  0.18341
USER: genes 16 Torsion [N]-CA--C-[O] |==|  0.87419
USER: genes 17 Torsion [C]-N--CA-[C] |==|  0.22056
USER: genes 18 Torsion [N]-CA--C-[O] |==|  0.38365
USER: genes 19 Torsion [N]-CA--CB-[CG] |==|  0.79423
USER: genes 20 Torsion [CA]-CB--CG-[CD1] |==|  0.54332
USER: genes 21 Torsion [N]-CA--CB-[CG] |==|  0.86777
USER: genes 22 Torsion [CA]-CB--CG-[CD2] |==|  0.35496
ROOT
ATOM      1  C   ILE C   3     103.379  18.081  19.391  1.00 36.59 LIG 0.24  C 
ATOM      2 O    ILE C   3     103.314  19.166  18.811  1.00 38.27 LIG-0.27  OA
ATOM      3  N   HIS C   4     102.435  17.150  19.249  1.00 46.08 LIG-0.35  N 
ATOM      4 H    HIS C   4     102.431  16.373  19.618  1.00 46.08 LIG 0.16  HD
ENDROOT
BRANCH 1 5
ATOM      5  CA  ILE C   3     104.585  17.784  20.292  1.00 34.07 LIG 0.18  C 
BRANCH 5 6
ATOM      6  CB  ILE C   3     104.288  18.153  21.758  1.00 34.47 LIG 0.01  C 
ATOM      7  CG2 ILE C   3     103.015  17.470  22.267  1.00 38.92 LIG 0.01  C 
BRANCH 6 8
ATOM      8  CG1 ILE C   3     105.493  17.784  22.621  1.00 35.39 LIG 0.00  C 
ATOM      9  CD1 ILE C   3     106.325  16.674  22.030  1.00 37.65 LIG 0.01  C 
ENDBRANCH 6 8
ENDBRANCH 5 6
BRANCH 5 10
ATOM     10  N   ILE C   3     105.701  18.592  19.808  1.00 27.24 LIG-0.35  N 
ATOM     11 H    ILE C   3     105.898  19.259  20.313  1.00 27.24 LIG 0.16  HD
ATOM     12  C   TYR C   2     106.340  18.306  18.686  1.00 25.56 LIG 0.24  C 
ATOM     13 O    TYR C   2     106.157  17.277  18.051  1.00 25.11 LIG-0.27  OA
BRANCH 12 14
ATOM     14  CA  TYR C   2     107.385  19.319  18.235  1.00 24.41 LIG 0.18  C 
BRANCH 14 15
ATOM     15  CB  TYR C   2     107.679  19.139  16.753  1.00 23.53 LIG 0.07  C 
BRANCH 15 16
ATOM     16  CG  TYR C   2     107.045  20.234  15.931  1.00 26.01 LIG-0.06  A 
ATOM     17  CD2 TYR C   2     107.778  20.900  14.924  1.00 25.97 LIG 0.01  A 
ATOM     18  CE2 TYR C   2     107.193  21.881  14.146  1.00 26.70 LIG 0.04  A 
ATOM     19  CZ  TYR C   2     105.883  22.217  14.358  1.00 26.24 LIG 0.07  A 
ATOM     20  CE1 TYR C   2     105.122  21.573  15.331  1.00 24.75 LIG 0.04  A 
ATOM     21  CD1 TYR C   2     105.708  20.581  16.108  1.00 24.78 LIG 0.01  A 
BRANCH 19 22
ATOM     22 OH   TYR C   2     105.333  23.198  13.582  1.00 29.14 LIG-0.36  OA
ATOM     23 HH   TYR C   2     105.148  23.863  14.059  1.00 29.14 LIG 0.22  HD
ENDBRANCH 19 22
ENDBRANCH 15 16
ENDBRANCH 14 15
BRANCH 14 24
ATOM     24  N   TYR C   2     108.557  19.110  19.061  1.00 21.44 LIG-0.35  N 
ATOM     25 H    TYR C   2     109.057  18.452  18.824  1.00 21.44 LIG 0.16  HD
ATOM     26  C   VAL C   1     108.796  19.900  20.095  1.00 22.04 LIG 0.25  C 
ATOM     27 O    VAL C   1     108.162  20.947  20.318  1.00 22.28 LIG-0.27  OA
BRANCH 26 28
ATOM     28  CA  VAL C   1     109.873  19.420  21.056  1.00 20.62 LIG 0.28  C 
BRANCH 28 29
ATOM     29  CB  VAL C   1     109.181  18.238  21.834  1.00 21.07 LIG 0.02  C 
ATOM     30  CG1 VAL C   1     110.120  17.073  22.083  1.00 24.54 LIG 0.01  C 
ATOM     31  CG2 VAL C   1     108.516  18.707  23.145  1.00 20.31 LIG 0.01  C 
ENDBRANCH 28 29
BRANCH 28 32
ATOM     32  N   VAL C   1     110.332  20.573  21.938  1.00 19.14 LIG-0.07  N 
ATOM     33 H1   VAL C   1     109.744  21.240  21.885  1.00 19.14 LIG 0.28  HD
ATOM     34 H2   VAL C   1     110.391  20.296  22.782  1.00 19.14 LIG 0.28  HD
ATOM     35 H3   VAL C   1     111.128  20.859  21.662  1.00 19.14 LIG 0.28  HD
ENDBRANCH 28 32
ENDBRANCH 26 28
ENDBRANCH 14 24
ENDBRANCH 12 14
ENDBRANCH 5 10
ENDBRANCH 1 5
BRANCH 3 36
ATOM     36  CA  HIS C   4     101.289  17.465  18.383  1.00 52.11 LIG 0.18  C 
BRANCH 36 37
ATOM     37  C   HIS C   4      99.974  17.394  19.137  1.00 56.91 LIG 0.24  C 
ATOM     38  N   PRO C   5      99.795  18.315  20.110  1.00 60.52 LIG-0.34  N 
ATOM     39  CD  PRO C   5     100.846  19.231  20.600  1.00 64.10 LIG 0.13  C 
ATOM     40  CA  PRO C   5      98.541  18.562  20.797  1.00 66.68 LIG 0.18  C 
ATOM     41  CG  PRO C   5     100.094  20.237  21.444  1.00 63.73 LIG 0.02  C 
ATOM     42  CB  PRO C   5      98.652  20.053  21.146  1.00 65.87 LIG 0.04  C 
ATOM     43 O    HIS C   4      99.152  16.516  18.857  1.00 55.90 LIG-0.27  OA
BRANCH 40 44
ATOM     44  C   PRO C   5      97.327  18.308  19.894  1.00 66.75 LIG 0.24  C 
ATOM     45 O    PRO C   5      97.307  18.736  18.740  1.00 68.20 LIG-0.27  OA
ATOM     46  N   PHE C   6      96.349  17.573  20.415  1.00 67.82 LIG-0.34  N 
ATOM     47 H    PHE C   6      96.387  17.198  21.188  1.00 67.82 LIG 0.16  HD
BRANCH 46 48
ATOM     48  CA  PHE C   6      95.108  17.344  19.691  1.00 66.93 LIG 0.19  C 
BRANCH 48 49
ATOM     49  C   PHE C   6      95.316  16.250  18.644  1.00 69.04 LIG 0.20  C 
ATOM     50 O    PHE C   6      94.469  15.370  18.453  1.00 69.16 LIG-0.65  OA
ATOM     51 OXT  PHE C   6      96.341  16.235  17.962  1.00 68.12 LIG-0.65  OA
ENDBRANCH 48 49
BRANCH 48 52
ATOM     52  CB  PHE C   6      94.597  18.637  19.044  1.00 62.34 LIG 0.07  C 
BRANCH 52 53
ATOM     53  CG  PHE C   6      94.000  19.617  20.024  1.00 57.42 LIG-0.06  A 
ATOM     54  CD1 PHE C   6      93.208  20.679  19.577  1.00 55.80 LIG 0.01  A 
ATOM     55  CE1 PHE C   6      92.658  21.582  20.478  1.00 52.49 LIG 0.00  A 
ATOM     56  CZ  PHE C   6      92.884  21.418  21.846  1.00 53.54 LIG 0.00  A 
ATOM     57  CE2 PHE C   6      93.665  20.366  22.300  1.00 53.16 LIG 0.00  A 
ATOM     58  CD2 PHE C   6      94.219  19.473  21.393  1.00 55.01 LIG 0.01  A 
ENDBRANCH 52 53
ENDBRANCH 48 52
ENDBRANCH 46 48
ENDBRANCH 40 44
ENDBRANCH 36 37
BRANCH 36 59
ATOM     59  CB  HIS C   4     101.191  16.643  17.094  1.00 57.66 LIG 0.10  C 
BRANCH 59 60
ATOM     60  CG  HIS C   4     102.498  16.573  16.353  1.00 65.67 LIG 0.06  A 
ATOM     61  CD2 HIS C   4     103.205  15.517  15.879  1.00 66.99 LIG 0.14  A 
ATOM     62 NE2  HIS C   4     104.314  16.022  15.240  1.00 66.34 LIG-0.25  NA
ATOM     63  CE1 HIS C   4     104.285  17.342  15.305  1.00 66.88 LIG 0.23  A 
ATOM     64 ND1  HIS C   4     103.195  17.702  15.960  1.00 66.49 LIG-0.24  NA
ENDBRANCH 59 60
ENDBRANCH 36 59
ENDBRANCH 3 36
TORSDOF 21
ENDMDL
MODEL 4
USER: ADFR SOLUTION from run 149
USER: SCORE 25.883271 LL:  -5.002 LR: -21.724 RR:   0.000 FEB: -15.460
USER: RMSD 2.816396
USER: SEED 148
USER: STATUS 1 or 2 clusters left
USER: GENES 23
USER: genes 0 Translation |==|  0.55036 0.55329 0.60810
USER: genes 1 Rotation |==|  0.53315 0.59525 0.47214 0.98893
USER: genes 2 Torsion [N]-C--CA-[N] |==|  0.36157
USER: genes 3 Torsion [C]-CA--CB-[CG2] |==|  0.08034
USER: genes 4 Torsion [CA]-CB--CG1-[CD1] |==|  0.85574
USER: genes 5 Torsion [C]-CA--N-[C] |==|  0.65469
USER: genes 6 Torsion [N]-C--CA-[N] |==|  0.29157
USER: genes 7 Torsion [C]-CA--CB-[CG] |==|  0.26993
USER: genes 8 Torsion [CA]-CB--CG-[CD2] |==|  0.89186
USER: genes 9 Torsion [CE2]-CZ--OH-[HH] |==|  0.26224
USER: genes 10 Torsion [C]-CA--N-[C] |==|  0.73078
USER: genes 11 Torsion [N]-C--CA-[N] |==|  0.44783
USER: genes 12 Torsion [C]-CA--CB-[CG1] |==|  0.90483
USER: genes 13 Torsion [C]-CA--N-[H3] |==|  0.01191
USER: genes 14 Torsion [C]-N--CA-[C] |==|  0.66472
USER: genes 15 Torsion [N]-CA--C-[N] |==|  0.21323
USER: genes 16 Torsion [N]-CA--C-[O] |==|  0.94686
USER: genes 17 Torsion [C]-N--CA-[C] |==|  0.84198
USER: genes 18 Torsion [N]-CA--C-[O] |==|  0.25546
USER: genes 19 Torsion [N]-CA--CB-[CG] |==|  0.74572
USER: genes 20 Torsion [CA]-CB--CG-[CD1] |==|  0.04034
USER: genes 21 Torsion [N]-CA--CB-[CG] |==|  0.56328
USER: genes 22 Torsion [CA]-CB--CG-[CD2] |==|  0.75413
ROOT
ATOM      1  C   ILE C   3     103.101  18.827  19.253  1.00 36.59 LIG 0.24  C 
ATOM      2 O    ILE C   3     102.948  20.021  19.516  1.00 38.27 LIG-0.27  OA
ATOM      3  N   HIS C   4     102.215  18.149  18.521  1.00 46.08 LIG-0.35  N 
ATOM      4 H    HIS C   4     102.273  17.322  18.297  1.00 46.08 LIG 0.16  HD
ENDROOT
BRANCH 1 5
ATOM      5  CA  ILE C   3     104.351  18.101  19.768  1.00 34.07 LIG 0.18  C 
BRANCH 5 6
ATOM      6  CB  ILE C   3     104.296  17.913  21.295  1.00 34.47 LIG 0.01  C 
ATOM      7  CG2 ILE C   3     102.853  17.812  21.801  1.00 38.92 LIG 0.01  C 
BRANCH 6 8
ATOM      8  CG1 ILE C   3     105.100  16.671  21.676  1.00 35.39 LIG 0.00  C 
ATOM      9  CD1 ILE C   3     104.703  15.446  20.891  1.00 37.65 LIG 0.01  C 
ENDBRANCH 6 8
ENDBRANCH 5 6
BRANCH 5 10
ATOM     10  N   ILE C   3     105.507  18.925  19.424  1.00 27.24 LIG-0.35  N 
ATOM     11 H    ILE C   3     105.465  19.731  19.720  1.00 27.24 LIG 0.16  HD
ATOM     12  C   TYR C   2     106.521  18.453  18.718  1.00 25.56 LIG 0.24  C 
ATOM     13 O    TYR C   2     106.648  17.272  18.429  1.00 25.11 LIG-0.27  OA
BRANCH 12 14
ATOM     14  CA  TYR C   2     107.585  19.468  18.316  1.00 24.41 LIG 0.18  C 
BRANCH 14 15
ATOM     15  CB  TYR C   2     107.918  19.314  16.840  1.00 23.53 LIG 0.07  C 
BRANCH 15 16
ATOM     16  CG  TYR C   2     107.155  20.308  15.998  1.00 26.01 LIG-0.06  A 
ATOM     17  CD2 TYR C   2     105.813  20.629  16.297  1.00 25.97 LIG 0.01  A 
ATOM     18  CE2 TYR C   2     105.120  21.564  15.551  1.00 26.70 LIG 0.04  A 
ATOM     19  CZ  TYR C   2     105.743  22.184  14.501  1.00 26.24 LIG 0.07  A 
ATOM     20  CE1 TYR C   2     107.071  21.907  14.186  1.00 24.75 LIG 0.04  A 
ATOM     21  CD1 TYR C   2     107.770  20.972  14.941  1.00 24.78 LIG 0.01  A 
BRANCH 19 22
ATOM     22 OH   TYR C   2     105.031  23.097  13.774  1.00 29.14 LIG-0.36  OA
ATOM     23 HH   TYR C   2     105.176  23.868  14.073  1.00 29.14 LIG 0.22  HD
ENDBRANCH 19 22
ENDBRANCH 15 16
ENDBRANCH 14 15
BRANCH 14 24
ATOM     24  N   TYR C   2     108.731  19.236  19.170  1.00 21.44 LIG-0.35  N 
ATOM     25 H    TYR C   2     109.256  18.606  18.912  1.00 21.44 LIG 0.16  HD
ATOM     26  C   VAL C   1     108.914  19.965  20.259  1.00 22.04 LIG 0.25  C 
ATOM     27 O    VAL C   1     108.245  20.981  20.523  1.00 22.28 LIG-0.27  OA
BRANCH 26 28
ATOM     28  CA  VAL C   1     109.968  19.452  21.228  1.00 20.62 LIG 0.28  C 
BRANCH 28 29
ATOM     29  CB  VAL C   1     109.259  18.242  21.946  1.00 21.07 LIG 0.02  C 
ATOM     30  CG1 VAL C   1     107.771  18.466  22.138  1.00 24.54 LIG 0.01  C 
ATOM     31  CG2 VAL C   1     109.534  16.898  21.239  1.00 20.31 LIG 0.01  C 
ENDBRANCH 28 29
BRANCH 28 32
ATOM     32  N   VAL C   1     110.404  20.573  22.160  1.00 19.14 LIG-0.07  N 
ATOM     33 H1   VAL C   1     110.289  20.318  23.005  1.00 19.14 LIG 0.28  HD
ATOM     34 H2   VAL C   1     111.263  20.758  22.020  1.00 19.14 LIG 0.28  HD
ATOM     35 H3   VAL C   1     109.914  21.299  22.001  1.00 19.14 LIG 0.28  HD
ENDBRANCH 28 32
ENDBRANCH 26 28
ENDBRANCH 14 24
ENDBRANCH 12 14
ENDBRANCH 5 10
ENDBRANCH 1 5
BRANCH 3 36
ATOM     36  CA  HIS C   4     101.026  18.871  18.047  1.00 52.11 LIG 0.18  C 
BRANCH 36 37
ATOM     37  C   HIS C   4      99.742  18.236  18.550  1.00 56.91 LIG 0.24  C 
ATOM     38  N   PRO C   5      99.421  18.481  19.839  1.00 60.52 LIG-0.34  N 
ATOM     39  CD  PRO C   5     100.313  19.144  20.813  1.00 64.10 LIG 0.13  C 
ATOM     40  CA  PRO C   5      98.146  18.158  20.452  1.00 66.68 LIG 0.18  C 
ATOM     41  CG  PRO C   5      99.413  19.448  21.990  1.00 63.73 LIG 0.02  C 
ATOM     42  CB  PRO C   5      98.018  19.247  21.526  1.00 65.87 LIG 0.04  C 
ATOM     43 O    HIS C   4      99.071  17.528  17.793  1.00 55.90 LIG-0.27  OA
BRANCH 40 44
ATOM     44  C   PRO C   5      96.986  18.244  19.453  1.00 66.75 LIG 0.24  C 
ATOM     45 O    PRO C   5      97.110  18.879  18.405  1.00 68.20 LIG-0.27  OA
ATOM     46  N   PHE C   6      95.886  17.566  19.767  1.00 67.82 LIG-0.34  N 
ATOM     47 H    PHE C   6      95.816  17.051  20.452  1.00 67.82 LIG 0.16  HD
BRANCH 46 48
ATOM     48  CA  PHE C   6      94.687  17.648  18.946  1.00 66.93 LIG 0.19  C 
BRANCH 48 49
ATOM     49  C   PHE C   6      94.242  19.105  18.828  1.00 69.04 LIG 0.20  C 
ATOM     50 O    PHE C   6      94.624  19.823  17.896  1.00 69.16 LIG-0.65  OA
ATOM     51 OXT  PHE C   6      93.481  19.588  19.665  1.00 68.12 LIG-0.65  OA
ENDBRANCH 48 49
BRANCH 48 52
ATOM     52  CB  PHE C   6      93.565  16.772  19.516  1.00 62.34 LIG 0.07  C 
BRANCH 52 53
ATOM     53  CG  PHE C   6      93.541  15.369  18.959  1.00 57.42 LIG-0.06  A 
ATOM     54  CD1 PHE C   6      94.636  14.863  18.253  1.00 55.80 LIG 0.01  A 
ATOM     55  CE1 PHE C   6      94.615  13.572  17.739  1.00 52.49 LIG 0.00  A 
ATOM     56  CZ  PHE C   6      93.494  12.766  17.944  1.00 53.54 LIG 0.00  A 
ATOM     57  CE2 PHE C   6      92.403  13.257  18.645  1.00 53.16 LIG 0.00  A 
ATOM     58  CD2 PHE C   6      92.428  14.551  19.148  1.00 55.01 LIG 0.01  A 
ENDBRANCH 52 53
ENDBRANCH 48 52
ENDBRANCH 46 48
ENDBRANCH 40 44
ENDBRANCH 36 37
BRANCH 36 59
ATOM     59  CB  HIS C   4     100.942  19.080  16.532  1.00 57.66 LIG 0.10  C 
BRANCH 59 60
ATOM     60  CG  HIS C   4     100.058  20.239  16.157  1.00 65.67 LIG 0.06  A 
ATOM     61  CD2 HIS C   4      98.726  20.309  15.918  1.00 66.99 LIG 0.14  A 
ATOM     62 NE2  HIS C   4      98.427  21.627  15.658  1.00 66.34 LIG-0.25  NA
ATOM     63  CE1 HIS C   4      99.534  22.345  15.745  1.00 66.88 LIG 0.23  A 
ATOM     64 ND1  HIS C   4     100.530  21.535  16.058  1.00 66.49 LIG-0.24  NA
ENDBRANCH 59 60
ENDBRANCH 36 59
ENDBRANCH 3 36
TORSDOF 21
ENDMDL
MODEL 5
USER: ADFR SOLUTION from run 28
USER: SCORE 25.879068 LL:  -5.404 LR: -21.352 RR:   0.000 FEB: -15.088
USER: RMSD 4.105182
USER: SEED 27
USER: STATUS no improvement in best in 6 clusters for 5 generations
USER: GENES 23
USER: genes 0 Translation |==|  0.53619 0.56514 0.59839
USER: genes 1 Rotation |==|  0.57141 0.66088 0.45970 0.96626
USER: genes 2 Torsion [N]-C--CA-[N] |==|  0.40662
USER: genes 3 Torsion [C]-CA--CB-[CG2] |==|  0.45606
USER: genes 4 Torsion [CA]-CB--CG1-[CD1] |==|  0.55700
USER: genes 5 Torsion [C]-CA--N-[C] |==|  0.58615
USER: genes 6 Torsion [N]-C--CA-[N] |==|  0.32462
USER: genes 7 Torsion [C]-CA--CB-[CG] |==|  0.24103
USER: genes 8 Torsion [CA]-CB--CG-[CD2] |==|  0.96109
USER: genes 9 Torsion [CE2]-CZ--OH-[HH] |==|  0.32562
USER: genes 10 Torsion [C]-CA--N-[C] |==|  0.68616
USER: genes 11 Torsion [N]-C--CA-[N] |==|  0.46807
USER: genes 12 Torsion [C]-CA--CB-[CG1] |==|  0.42589
USER: genes 13 Torsion [C]-CA--N-[H3] |==|  0.72763
USER: genes 14 Torsion [C]-N--CA-[C] |==|  0.63575
USER: genes 15 Torsion [N]-CA--C-[N] |==|  0.15983
USER: genes 16 Torsion [N]-CA--C-[O] |==|  0.84772
USER: genes 17 Torsion [C]-N--CA-[C] |==|  0.49357
USER: genes 18 Torsion [N]-CA--C-[O] |==|  0.01514
USER: genes 19 Torsion [N]-CA--CB-[CG] |==|  0.55738
USER: genes 20 Torsion [CA]-CB--CG-[CD1] |==|  0.16979
USER: genes 21 Torsion [N]-CA--CB-[CG] |==|  0.70690
USER: genes 22 Torsion [CA]-CB--CG-[CD2] |==|  0.57426
ROOT
ATOM      1  C   ILE C   3     102.729  19.023  19.064  1.00 36.59 LIG 0.24  C 
ATOM      2 O    ILE C   3     102.753  20.161  19.535  1.00 38.27 LIG-0.27  OA
ATOM      3  N   HIS C   4     101.629  18.516  18.506  1.00 46.08 LIG-0.35  N 
ATOM      4 H    HIS C   4     101.555  17.735  18.153  1.00 46.08 LIG 0.16  HD
ENDROOT
BRANCH 1 5
ATOM      5  CA  ILE C   3     104.002  18.167  19.106  1.00 34.07 LIG 0.18  C 
BRANCH 5 6
ATOM      6  CB  ILE C   3     104.115  17.403  20.438  1.00 34.47 LIG 0.01  C 
ATOM      7  CG2 ILE C   3     105.141  16.268  20.355  1.00 38.92 LIG 0.01  C 
BRANCH 6 8
ATOM      8  CG1 ILE C   3     104.471  18.386  21.551  1.00 35.39 LIG 0.00  C 
ATOM      9  CD1 ILE C   3     105.077  17.718  22.759  1.00 37.65 LIG 0.01  C 
ENDBRANCH 6 8
ENDBRANCH 5 6
BRANCH 5 10
ATOM     10  N   ILE C   3     105.141  19.072  18.971  1.00 27.24 LIG-0.35  N 
ATOM     11 H    ILE C   3     105.009  19.855  19.302  1.00 27.24 LIG 0.16  HD
ATOM     12  C   TYR C   2     106.268  18.701  18.388  1.00 25.56 LIG 0.24  C 
ATOM     13 O    TYR C   2     106.506  17.549  18.055  1.00 25.11 LIG-0.27  OA
BRANCH 12 14
ATOM     14  CA  TYR C   2     107.311  19.795  18.192  1.00 24.41 LIG 0.18  C 
BRANCH 14 15
ATOM     15  CB  TYR C   2     107.634  19.947  16.714  1.00 23.53 LIG 0.07  C 
BRANCH 15 16
ATOM     16  CG  TYR C   2     106.676  20.897  16.038  1.00 26.01 LIG-0.06  A 
ATOM     17  CD2 TYR C   2     105.478  21.291  16.674  1.00 25.97 LIG 0.01  A 
ATOM     18  CE2 TYR C   2     104.613  22.187  16.075  1.00 26.70 LIG 0.04  A 
ATOM     19  CZ  TYR C   2     104.918  22.696  14.841  1.00 26.24 LIG 0.07  A 
ATOM     20  CE1 TYR C   2     106.098  22.345  14.189  1.00 24.75 LIG 0.04  A 
ATOM     21  CD1 TYR C   2     106.972  21.450  14.795  1.00 24.78 LIG 0.01  A 
BRANCH 19 22
ATOM     22 OH   TYR C   2     104.040  23.572  14.267  1.00 29.14 LIG-0.36  OA
ATOM     23 HH   TYR C   2     104.413  24.317  14.166  1.00 29.14 LIG 0.22  HD
ENDBRANCH 19 22
ENDBRANCH 15 16
ENDBRANCH 14 15
BRANCH 14 24
ATOM     24  N   TYR C   2     108.469  19.416  18.977  1.00 21.44 LIG-0.35  N 
ATOM     25 H    TYR C   2     108.882  18.714  18.701  1.00 21.44 LIG 0.16  HD
ATOM     26  C   VAL C   1     108.825  20.130  20.032  1.00 22.04 LIG 0.25  C 
ATOM     27 O    VAL C   1     108.325  21.234  20.313  1.00 22.28 LIG-0.27  OA
BRANCH 26 28
ATOM     28  CA  VAL C   1     109.859  19.488  20.944  1.00 20.62 LIG 0.28  C 
BRANCH 28 29
ATOM     29  CB  VAL C   1     109.087  18.279  21.594  1.00 21.07 LIG 0.02  C 
ATOM     30  CG1 VAL C   1     110.011  17.150  22.009  1.00 24.54 LIG 0.01  C 
ATOM     31  CG2 VAL C   1     108.186  18.721  22.767  1.00 20.31 LIG 0.01  C 
ENDBRANCH 28 29
BRANCH 28 32
ATOM     32  N   VAL C   1     110.381  20.514  21.939  1.00 19.14 LIG-0.07  N 
ATOM     33 H1   VAL C   1     109.790  21.174  22.023  1.00 19.14 LIG 0.28  HD
ATOM     34 H2   VAL C   1     110.504  20.124  22.730  1.00 19.14 LIG 0.28  HD
ATOM     35 H3   VAL C   1     111.154  20.844  21.648  1.00 19.14 LIG 0.28  HD
ENDBRANCH 28 32
ENDBRANCH 26 28
ENDBRANCH 14 24
ENDBRANCH 12 14
ENDBRANCH 5 10
ENDBRANCH 1 5
BRANCH 3 36
ATOM     36  CA  HIS C   4     100.424  19.357  18.485  1.00 52.11 LIG 0.18  C 
BRANCH 36 37
ATOM     37  C   HIS C   4      99.202  18.608  18.986  1.00 56.91 LIG 0.24  C 
ATOM     38  N   PRO C   5      99.288  18.094  20.232  1.00 60.52 LIG-0.34  N 
ATOM     39  CD  PRO C   5     100.527  18.048  21.036  1.00 64.10 LIG 0.13  C 
ATOM     40  CA  PRO C   5      98.174  17.538  20.978  1.00 66.68 LIG 0.18  C 
ATOM     41  CG  PRO C   5     100.054  17.672  22.423  1.00 63.73 LIG 0.02  C 
ATOM     42  CB  PRO C   5      98.578  17.832  22.430  1.00 65.87 LIG 0.04  C 
ATOM     43 O    HIS C   4      98.216  18.483  18.253  1.00 55.90 LIG-0.27  OA
BRANCH 40 44
ATOM     44  C   PRO C   5      96.848  18.227  20.636  1.00 66.75 LIG 0.24  C 
ATOM     45 O    PRO C   5      96.735  19.449  20.736  1.00 68.20 LIG-0.27  OA
ATOM     46  N   PHE C   6      95.873  17.440  20.192  1.00 67.82 LIG-0.34  N 
ATOM     47 H    PHE C   6      95.963  16.599  20.038  1.00 67.82 LIG 0.16  HD
BRANCH 46 48
ATOM     48  CA  PHE C   6      94.541  17.963  19.925  1.00 66.93 LIG 0.19  C 
BRANCH 48 49
ATOM     49  C   PHE C   6      93.651  16.850  19.374  1.00 69.04 LIG 0.20  C 
ATOM     50 O    PHE C   6      94.049  15.681  19.302  1.00 69.16 LIG-0.65  OA
ATOM     51 OXT  PHE C   6      92.507  17.103  18.996  1.00 68.12 LIG-0.65  OA
ENDBRANCH 48 49
BRANCH 48 52
ATOM     52  CB  PHE C   6      94.596  19.155  18.962  1.00 62.34 LIG 0.07  C 
BRANCH 52 53
ATOM     53  CG  PHE C   6      93.377  20.043  19.016  1.00 57.42 LIG-0.06  A 
ATOM     54  CD1 PHE C   6      93.029  20.704  20.198  1.00 55.80 LIG 0.01  A 
ATOM     55  CE1 PHE C   6      91.907  21.522  20.249  1.00 52.49 LIG 0.00  A 
ATOM     56  CZ  PHE C   6      91.127  21.698  19.105  1.00 53.54 LIG 0.00  A 
ATOM     57  CE2 PHE C   6      91.466  21.049  17.927  1.00 53.16 LIG 0.00  A 
ATOM     58  CD2 PHE C   6      92.584  20.227  17.885  1.00 55.01 LIG 0.01  A 
ENDBRANCH 52 53
ENDBRANCH 48 52
ENDBRANCH 46 48
ENDBRANCH 40 44
ENDBRANCH 36 37
BRANCH 36 59
ATOM     59  CB  HIS C   4     100.108  20.023  17.142  1.00 57.66 LIG 0.10  C 
BRANCH 59 60
ATOM     60  CG  HIS C   4     100.423  21.495  17.140  1.00 65.67 LIG 0.06  A 
ATOM     61  CD2 HIS C   4      99.904  22.520  16.421  1.00 66.99 LIG 0.14  A 
ATOM     62 NE2  HIS C   4     100.526  23.672  16.846  1.00 66.34 LIG-0.25  NA
ATOM     63  CE1 HIS C   4     101.389  23.368  17.801  1.00 66.88 LIG 0.23  A 
ATOM     64 ND1  HIS C   4     101.338  22.063  18.007  1.00 66.49 LIG-0.24  NA
ENDBRANCH 59 60
ENDBRANCH 36 59
ENDBRANCH 3 36
TORSDOF 21
ENDMDL
MODEL 6
USER: ADFR SOLUTION from run 153
USER: SCORE 26.387232 LL:  -6.517 LR: -21.273 RR:   0.000 FEB: -15.009
USER: RMSD 6.222626
USER: SEED 152
USER: STATUS no improvement in best in 4 clusters for 5 generations
USER: GENES 23
USER: genes 0 Translation |==|  0.56771 0.54543 0.56114
USER: genes 1 Rotation |==|  0.15964 0.66919 0.19386 0.60868
USER: genes 2 Torsion [N]-C--CA-[N] |==|  0.77145
USER: genes 3 Torsion [C]-CA--CB-[CG2] |==|  0.18479
USER: genes 4 Torsion [CA]-CB--CG1-[CD1] |==|  0.77791
USER: genes 5 Torsion [C]-CA--N-[C] |==|  0.73253
USER: genes 6 Torsion [N]-C--CA-[N] |==|  0.25374
USER: genes 7 Torsion [C]-CA--CB-[CG] |==|  0.21041
USER: genes 8 Torsion [CA]-CB--CG-[CD2] |==|  0.29466
USER: genes 9 Torsion [CE2]-CZ--OH-[HH] |==|  0.91644
USER: genes 10 Torsion [C]-CA--N-[C] |==|  0.75000
USER: genes 11 Torsion [N]-C--CA-[N] |==|  0.41702
USER: genes 12 Torsion [C]-CA--CB-[CG1] |==|  0.39700
USER: genes 13 Torsion [C]-CA--N-[H3] |==|  0.73152
USER: genes 14 Torsion [C]-N--CA-[C] |==|  0.60879
USER: genes 15 Torsion [N]-CA--C-[N] |==|  0.17149
USER: genes 16 Torsion [N]-CA--C-[O] |==|  0.31213
USER: genes 17 Torsion [C]-N--CA-[C] |==|  0.69116
USER: genes 18 Torsion [N]-CA--C-[O] |==|  0.60596
USER: genes 19 Torsion [N]-CA--CB-[CG] |==|  0.12776
USER: genes 20 Torsion [CA]-CB--CG-[CD1] |==|  0.58984
USER: genes 21 Torsion [N]-CA--CB-[CG] |==|  0.15215
USER: genes 22 Torsion [CA]-CB--CG-[CD2] |==|  0.94300
ROOT
ATOM      1  C   ILE C   3     103.556  18.698  18.337  1.00 36.59 LIG 0.24  C 
ATOM      2 O    ILE C   3     103.325  18.144  17.261  1.00 38.27 LIG-0.27  OA
ATOM      3  N   HIS C   4     102.839  19.739  18.761  1.00 46.08 LIG-0.35  N 
ATOM      4 H    HIS C   4     102.946  20.158  19.504  1.00 46.08 LIG 0.16  HD
ENDROOT
BRANCH 1 5
ATOM      5  CA  ILE C   3     104.693  18.168  19.223  1.00 34.07 LIG 0.18  C 
BRANCH 5 6
ATOM      6  CB  ILE C   3     104.313  18.236  20.714  1.00 34.47 LIG 0.01  C 
ATOM      7  CG2 ILE C   3     103.166  17.278  21.050  1.00 38.92 LIG 0.01  C 
BRANCH 6 8
ATOM      8  CG1 ILE C   3     105.549  17.933  21.559  1.00 35.39 LIG 0.00  C 
ATOM      9  CD1 ILE C   3     105.845  16.458  21.665  1.00 37.65 LIG 0.01  C 
ENDBRANCH 6 8
ENDBRANCH 5 6
BRANCH 5 10
ATOM     10  N   ILE C   3     105.861  19.010  18.983  1.00 27.24 LIG-0.35  N 
ATOM     11 H    ILE C   3     105.872  19.737  19.444  1.00 27.24 LIG 0.16  HD
ATOM     12  C   TYR C   2     106.810  18.669  18.128  1.00 25.56 LIG 0.24  C 
ATOM     13 O    TYR C   2     106.868  17.572  17.590  1.00 25.11 LIG-0.27  OA
BRANCH 12 14
ATOM     14  CA  TYR C   2     107.892  19.713  17.877  1.00 24.41 LIG 0.18  C 
BRANCH 14 15
ATOM     15  CB  TYR C   2     108.369  19.630  16.435  1.00 23.53 LIG 0.07  C 
BRANCH 15 16
ATOM     16  CG  TYR C   2     107.365  20.242  15.489  1.00 26.01 LIG-0.06  A 
ATOM     17  CD2 TYR C   2     107.607  21.497  14.890  1.00 25.97 LIG 0.01  A 
ATOM     18  CE2 TYR C   2     106.706  22.047  13.997  1.00 26.70 LIG 0.04  A 
ATOM     19  CZ  TYR C   2     105.558  21.366  13.693  1.00 26.24 LIG 0.07  A 
ATOM     20  CE1 TYR C   2     105.291  20.118  14.250  1.00 24.75 LIG 0.04  A 
ATOM     21  CD1 TYR C   2     106.201  19.562  15.143  1.00 24.78 LIG 0.01  A 
BRANCH 19 22
ATOM     22 OH   TYR C   2     104.680  21.937  12.815  1.00 29.14 LIG-0.36  OA
ATOM     23 HH   TYR C   2     104.730  22.774  12.873  1.00 29.14 LIG 0.22  HD
ENDBRANCH 19 22
ENDBRANCH 15 16
ENDBRANCH 14 15
BRANCH 14 24
ATOM     24  N   TYR C   2     108.954  19.455  18.829  1.00 21.44 LIG-0.35  N 
ATOM     25 H    TYR C   2     109.563  18.912  18.556  1.00 21.44 LIG 0.16  HD
ATOM     26  C   VAL C   1     108.943  20.035  20.017  1.00 22.04 LIG 0.25  C 
ATOM     27 O    VAL C   1     108.154  20.946  20.328  1.00 22.28 LIG-0.27  OA
BRANCH 26 28
ATOM     28  CA  VAL C   1     109.928  19.476  21.033  1.00 20.62 LIG 0.28  C 
BRANCH 28 29
ATOM     29  CB  VAL C   1     109.140  18.289  21.704  1.00 21.07 LIG 0.02  C 
ATOM     30  CG1 VAL C   1     110.029  17.101  22.021  1.00 24.54 LIG 0.01  C 
ATOM     31  CG2 VAL C   1     108.349  18.740  22.951  1.00 20.31 LIG 0.01  C 
ENDBRANCH 28 29
BRANCH 28 32
ATOM     32  N   VAL C   1     110.358  20.573  21.995  1.00 19.14 LIG-0.07  N 
ATOM     33 H1   VAL C   1     109.739  21.212  22.014  1.00 19.14 LIG 0.28  HD
ATOM     34 H2   VAL C   1     110.456  20.231  22.811  1.00 19.14 LIG 0.28  HD
ATOM     35 H3   VAL C   1     111.132  20.919  21.724  1.00 19.14 LIG 0.28  HD
ENDBRANCH 28 32
ENDBRANCH 26 28
ENDBRANCH 14 24
ENDBRANCH 12 14
ENDBRANCH 5 10
ENDBRANCH 1 5
BRANCH 3 36
ATOM     36  CA  HIS C   4     101.761  20.226  17.889  1.00 52.11 LIG 0.18  C 
BRANCH 36 37
ATOM     37  C   HIS C   4     101.675  21.741  17.889  1.00 56.91 LIG 0.24  C 
ATOM     38  N   PRO C   5     102.764  22.401  17.436  1.00 60.52 LIG-0.34  N 
ATOM     39  CD  PRO C   5     104.063  21.764  17.135  1.00 64.10 LIG 0.13  C 
ATOM     40  CA  PRO C   5     102.813  23.823  17.151  1.00 66.68 LIG 0.18  C 
ATOM     41  CG  PRO C   5     104.835  22.834  16.395  1.00 63.73 LIG 0.02  C 
ATOM     42  CB  PRO C   5     103.859  23.891  16.030  1.00 65.87 LIG 0.04  C 
ATOM     43 O    HIS C   4     100.654  22.298  18.308  1.00 55.90 LIG-0.27  OA
BRANCH 40 44
ATOM     44  C   PRO C   5     101.463  24.361  16.663  1.00 66.75 LIG 0.24  C 
ATOM     45 O    PRO C   5     100.815  25.146  17.358  1.00 68.20 LIG-0.27  OA
ATOM     46  N   PHE C   6     101.075  23.972  15.452  1.00 67.82 LIG-0.34  N 
ATOM     47 H    PHE C   6     101.555  23.493  14.923  1.00 67.82 LIG 0.16  HD
BRANCH 46 48
ATOM     48  CA  PHE C   6      99.771  24.340  14.920  1.00 66.93 LIG 0.19  C 
BRANCH 48 49
ATOM     49  C   PHE C   6      98.886  23.098  14.821  1.00 69.04 LIG 0.20  C 
ATOM     50 O    PHE C   6      98.112  22.932  13.872  1.00 69.16 LIG-0.65  OA
ATOM     51 OXT  PHE C   6      98.940  22.231  15.693  1.00 68.12 LIG-0.65  OA
ENDBRANCH 48 49
BRANCH 48 52
ATOM     52  CB  PHE C   6      99.904  25.034  13.560  1.00 62.34 LIG 0.07  C 
BRANCH 52 53
ATOM     53  CG  PHE C   6     100.847  24.339  12.608  1.00 57.42 LIG-0.06  A 
ATOM     54  CD1 PHE C   6     101.596  25.073  11.683  1.00 55.80 LIG 0.01  A 
ATOM     55  CE1 PHE C   6     102.464  24.435  10.806  1.00 52.49 LIG 0.00  A 
ATOM     56  CZ  PHE C   6     102.603  23.046  10.860  1.00 53.54 LIG 0.00  A 
ATOM     57  CE2 PHE C   6     101.867  22.310  11.775  1.00 53.16 LIG 0.00  A 
ATOM     58  CD2 PHE C   6     100.995  22.954  12.642  1.00 55.01 LIG 0.01  A 
ENDBRANCH 52 53
ENDBRANCH 48 52
ENDBRANCH 46 48
ENDBRANCH 40 44
ENDBRANCH 36 37
BRANCH 36 59
ATOM     59  CB  HIS C   4     100.376  19.629  18.155  1.00 57.66 LIG 0.10  C 
BRANCH 59 60
ATOM     60  CG  HIS C   4      99.941  19.796  19.586  1.00 65.67 LIG 0.06  A 
ATOM     61  CD2 HIS C   4     100.651  20.029  20.717  1.00 66.99 LIG 0.14  A 
ATOM     62 NE2  HIS C   4      99.748  20.138  21.750  1.00 66.34 LIG-0.25  NA
ATOM     63  CE1 HIS C   4      98.525  19.990  21.270  1.00 66.88 LIG 0.23  A 
ATOM     64 ND1  HIS C   4      98.611  19.795  19.966  1.00 66.49 LIG-0.24  NA
ENDBRANCH 59 60
ENDBRANCH 36 59
ENDBRANCH 3 36
TORSDOF 21
ENDMDL
