MODEL 1
USER: ADFR SOLUTION from run 102
USER: SCORE 17.397361 LL:  -4.150 LR: -15.239 RR:   0.000 FEB:  -8.677
USER: RMSD 3.008454
USER: SEED 101
USER: STATUS no improvement in best in 1 clusters for 5 generations
USER: GENES 24
USER: genes 0 Translation |==|  0.50490 0.54812 0.47889
USER: genes 1 Rotation |==|  0.51673 0.44228 0.51103 0.99625
USER: genes 2 Torsion [CB]-CA--N-[C] |==|  0.24232
USER: genes 3 Torsion [N]-C--CA-[N] |==|  0.35284
USER: genes 4 Torsion [C]-CA--CB-[CG] |==|  0.46745
USER: genes 5 Torsion [CA]-CB--CG-[CD1] |==|  0.91170
USER: genes 6 Torsion [C]-CA--N-[C] |==|  0.76192
USER: genes 7 Torsion [N]-C--CA-[N] |==|  0.37636
USER: genes 8 Torsion [C]-CA--CB-[CG] |==|  0.17641
USER: genes 9 Torsion [CA]-CB--CG-[CD1] |==|  0.23412
USER: genes 10 Torsion [CE1]-CZ--OH-[HH] |==|  0.90216
USER: genes 11 Torsion [N]-CA--CB-[CG2] |==|  0.50260
USER: genes 12 Torsion [N]-CA--C-[N] |==|  0.16042
USER: genes 13 Torsion [C]-N--CA-[CB] |==|  0.50000
USER: genes 14 Torsion [N]-CA--CB-[CG2] |==|  0.56380
USER: genes 15 Torsion [CA]-CB--OG1-[HG1] |==|  0.17500
USER: genes 16 Torsion [N]-CA--C-[N] |==|  0.40337
USER: genes 17 Torsion [C]-N--CA-[C] |==|  0.76033
USER: genes 18 Torsion [N]-CA--C-[N] |==|  0.45720
USER: genes 19 Torsion [C]-N--CA-[C] |==|  0.57584
USER: genes 20 Torsion [N]-CA--C-[OXT] |==|  0.35824
USER: genes 21 Torsion [N]-CA--CB-[CG2] |==|  0.05911
USER: genes 22 Torsion [N]-CA--CB-[OG] |==|  0.60310
USER: genes 23 Torsion [CA]-CB--OG-[HG] |==|  0.22771
ROOT
ATOM      1  CA  VAL B2840      -2.912 -13.400  20.870  1.00 12.24 LIG 0.18  C 
ENDROOT
BRANCH 1 2
ATOM      2  N   VAL B2840      -3.325 -13.855  22.195  1.00  7.10 LIG-0.35  N 
ATOM      3  C   LEU B2839      -2.999 -13.179  23.293  1.00  9.29 LIG 0.24  C 
ATOM      4 O    LEU B2839      -2.234 -12.210  23.287  1.00  7.82 LIG-0.27  OA
ATOM      5 H    VAL B2840      -3.785 -14.581  22.196  1.00  7.10 LIG 0.16  HD
BRANCH 3 6
ATOM      6  CA  LEU B2839      -3.604 -13.678  24.593  1.00  6.33 LIG 0.18  C 
BRANCH 6 7
ATOM      7  CB  LEU B2839      -4.634 -12.657  25.089  1.00 14.59 LIG 0.04  C 
BRANCH 7 8
ATOM      8  CG  LEU B2839      -5.525 -13.139  26.228  1.00 24.41 LIG-0.02  C 
ATOM      9  CD1 LEU B2839      -5.784 -14.652  26.139  1.00 21.70 LIG 0.01  C 
ATOM     10  CD2 LEU B2839      -4.904 -12.755  27.571  1.00 24.63 LIG 0.01  C 
ENDBRANCH 7 8
ENDBRANCH 6 7
BRANCH 6 11
ATOM     11  N   LEU B2839      -2.563 -13.904  25.599  1.00 12.50 LIG-0.35  N 
ATOM     12 H    LEU B2839      -2.431 -13.238  26.127  1.00 12.50 LIG 0.16  HD
ATOM     13  C   TYR B2838      -1.889 -15.056  25.672  1.00 14.62 LIG 0.26  C 
ATOM     14 O    TYR B2838      -2.129 -16.026  24.953  1.00 16.58 LIG-0.27  OA
BRANCH 13 15
ATOM     15  CA  TYR B2838      -0.778 -15.150  26.708  1.00 17.58 LIG 0.40  C 
ATOM     16  N   TYR B2838      -0.795 -16.403  27.453  1.00 19.10 LIG 0.61  N 
BRANCH 15 17
ATOM     17  CB  TYR B2838       0.584 -14.902  26.062  1.00 37.20 LIG 0.09  C 
BRANCH 17 18
ATOM     18  CG  TYR B2838       0.718 -13.508  25.496  1.00 53.42 LIG-0.06  A 
ATOM     19  CD1 TYR B2838       1.095 -12.441  26.307  1.00 57.26 LIG 0.01  A 
ATOM     20  CE1 TYR B2838       1.224 -11.158  25.792  1.00 58.59 LIG 0.04  A 
ATOM     21  CZ  TYR B2838       0.978 -10.931  24.450  1.00 63.46 LIG 0.07  A 
ATOM     22  CE2 TYR B2838       0.605 -11.974  23.623  1.00 67.17 LIG 0.04  A 
ATOM     23  CD2 TYR B2838       0.477 -13.257  24.150  1.00 64.10 LIG 0.01  A 
BRANCH 21 24
ATOM     24 OH   TYR B2838       1.104  -9.658  23.934  1.00 64.89 LIG-0.36  OA
ATOM     25 HH   TYR B2838       0.856  -9.097  24.509  1.00 64.89 LIG 0.22  HD
ENDBRANCH 21 24
ENDBRANCH 17 18
ENDBRANCH 15 17
ENDBRANCH 13 15
ENDBRANCH 6 11
ENDBRANCH 3 6
ENDBRANCH 1 2
BRANCH 1 26
ATOM     26  CB  VAL B2840      -1.512 -13.929  20.487  1.00 14.53 LIG 0.01  C 
ATOM     27  CG1 VAL B2840      -1.503 -15.450  20.503  1.00 16.85 LIG 0.01  C 
ATOM     28  CG2 VAL B2840      -1.112 -13.412  19.108  1.00 19.78 LIG 0.01  C 
ENDBRANCH 1 26
BRANCH 1 29
ATOM     29  C   VAL B2840      -3.935 -13.835  19.817  1.00 10.08 LIG 0.24  C 
ATOM     30 O    VAL B2840      -3.591 -14.516  18.859  1.00 13.99 LIG-0.27  OA
ATOM     31  N   THR B2841      -5.188 -13.430  19.985  1.00  7.81 LIG-0.34  N 
ATOM     32 H    THR B2841      -5.444 -12.888  20.602  1.00  7.81 LIG 0.16  HD
BRANCH 31 33
ATOM     33  CA  THR B2841      -6.253 -13.895  19.100  1.00  9.28 LIG 0.20  C 
BRANCH 33 34
ATOM     34  CB  THR B2841      -7.609 -13.291  19.493  1.00  5.66 LIG 0.15  C 
ATOM     35  CG2 THR B2841      -8.767 -14.166  18.982  1.00  2.82 LIG 0.04  C 
BRANCH 34 36
ATOM     36 OG1  THR B2841      -7.687 -13.206  20.921  1.00  4.58 LIG-0.39  OA
ATOM     37 HG1  THR B2841      -7.092 -12.685  21.204  1.00  4.58 LIG 0.21  HD
ENDBRANCH 34 36
ENDBRANCH 33 34
BRANCH 33 38
ATOM     38  C   THR B2841      -5.979 -13.562  17.640  1.00 11.02 LIG 0.24  C 
ATOM     39  N   SER B2842      -6.398 -14.457  16.741  1.00  4.17 LIG-0.34  N 
ATOM     40 H    SER B2842      -6.723 -15.226  16.945  1.00  4.17 LIG 0.16  HD
ATOM     41 O    THR B2841      -5.393 -12.519  17.339  1.00  9.65 LIG-0.27  OA
BRANCH 39 42
ATOM     42  CA  SER B2842      -6.333 -14.189  15.311  1.00  7.92 LIG 0.20  C 
BRANCH 42 43
ATOM     43  C   SER B2842      -7.581 -13.447  14.874  1.00  8.41 LIG 0.24  C 
ATOM     44  N   VAL B2843      -7.520 -12.863  13.683  1.00 12.74 LIG-0.34  N 
ATOM     45 H    VAL B2843      -6.839 -12.915  13.161  1.00 12.74 LIG 0.16  HD
ATOM     46 O    SER B2842      -8.567 -13.397  15.600  1.00  7.66 LIG-0.27  OA
BRANCH 44 47
ATOM     47  CA  VAL B2843      -8.616 -12.072  13.153  1.00 16.92 LIG 0.19  C 
BRANCH 47 48
ATOM     48  C   VAL B2843      -8.604 -12.091  11.624  1.00 17.95 LIG 0.20  C 
ATOM     49 OXT  VAL B2843      -9.630 -12.378  10.988  1.00 12.52 LIG-0.65  OA
ATOM     50 O    VAL B2843      -7.581 -11.820  10.995  1.00 13.13 LIG-0.65  OA
ENDBRANCH 47 48
BRANCH 47 51
ATOM     51  CB  VAL B2843      -8.543 -10.616  13.668  1.00 12.90 LIG 0.01  C 
ATOM     52  CG2 VAL B2843      -7.129 -10.265  14.133  1.00 11.86 LIG 0.01  C 
ATOM     53  CG1 VAL B2843      -9.538 -10.409  14.795  1.00 11.26 LIG 0.01  C 
ENDBRANCH 47 51
ENDBRANCH 44 47
ENDBRANCH 42 43
BRANCH 42 54
ATOM     54  CB  SER B2842      -6.173 -15.484  14.504  1.00 13.40 LIG 0.20  C 
BRANCH 54 55
ATOM     55 OG   SER B2842      -5.320 -15.291  13.391  1.00 24.06 LIG-0.40  OA
ATOM     56 HG   SER B2842      -4.520 -15.345  13.639  1.00 24.06 LIG 0.21  HD
ENDBRANCH 54 55
ENDBRANCH 42 54
ENDBRANCH 39 42
ENDBRANCH 33 38
ENDBRANCH 31 33
ENDBRANCH 1 29
TORSDOF 22
ENDMDL
MODEL 2
USER: ADFR SOLUTION from run 65
USER: SCORE 16.534597 LL:  -4.297 LR: -14.968 RR:   0.000 FEB:  -8.406
USER: RMSD 5.852164
USER: SEED 64
USER: STATUS searching
USER: GENES 24
USER: genes 0 Translation |==|  0.37566 0.52445 0.40694
USER: genes 1 Rotation |==|  0.72134 0.54154 0.94380 0.54826
USER: genes 2 Torsion [CB]-CA--N-[C] |==|  0.26881
USER: genes 3 Torsion [N]-C--CA-[N] |==|  0.43568
USER: genes 4 Torsion [C]-CA--CB-[CG] |==|  0.29557
USER: genes 5 Torsion [CA]-CB--CG-[CD1] |==|  0.34187
USER: genes 6 Torsion [C]-CA--N-[C] |==|  0.64079
USER: genes 7 Torsion [N]-C--CA-[N] |==|  0.91073
USER: genes 8 Torsion [C]-CA--CB-[CG] |==|  0.11603
USER: genes 9 Torsion [CA]-CB--CG-[CD1] |==|  0.21597
USER: genes 10 Torsion [CE1]-CZ--OH-[HH] |==|  0.70092
USER: genes 11 Torsion [N]-CA--CB-[CG2] |==|  0.62943
USER: genes 12 Torsion [N]-CA--C-[N] |==|  0.44972
USER: genes 13 Torsion [C]-N--CA-[CB] |==|  0.29267
USER: genes 14 Torsion [N]-CA--CB-[CG2] |==|  0.23619
USER: genes 15 Torsion [CA]-CB--OG1-[HG1] |==|  0.18530
USER: genes 16 Torsion [N]-CA--C-[N] |==|  0.42685
USER: genes 17 Torsion [C]-N--CA-[C] |==|  0.69000
USER: genes 18 Torsion [N]-CA--C-[N] |==|  0.09873
USER: genes 19 Torsion [C]-N--CA-[C] |==|  0.58836
USER: genes 20 Torsion [N]-CA--C-[OXT] |==|  0.55120
USER: genes 21 Torsion [N]-CA--CB-[CG2] |==|  0.00898
USER: genes 22 Torsion [N]-CA--CB-[OG] |==|  0.14568
USER: genes 23 Torsion [CA]-CB--OG-[HG] |==|  0.91680
ROOT
ATOM      1  CA  VAL B2840      -5.820 -13.773  18.711  1.00 12.24 LIG 0.18  C 
ENDROOT
BRANCH 1 2
ATOM      2  N   VAL B2840      -4.586 -13.373  19.384  1.00  7.10 LIG-0.35  N 
ATOM      3  C   LEU B2839      -4.155 -14.001  20.473  1.00  9.29 LIG 0.24  C 
ATOM      4 O    LEU B2839      -4.815 -14.865  21.060  1.00  7.82 LIG-0.27  OA
ATOM      5 H    VAL B2840      -4.178 -12.711  19.016  1.00  7.10 LIG 0.16  HD
BRANCH 3 6
ATOM      6  CA  LEU B2839      -2.793 -13.582  20.995  1.00  6.33 LIG 0.18  C 
BRANCH 6 7
ATOM      7  CB  LEU B2839      -1.705 -14.284  20.175  1.00 14.59 LIG 0.04  C 
BRANCH 7 8
ATOM      8  CG  LEU B2839      -0.957 -13.390  19.192  1.00 24.41 LIG-0.02  C 
ATOM      9  CD1 LEU B2839       0.559 -13.411  19.452  1.00 21.70 LIG 0.01  C 
ATOM     10  CD2 LEU B2839      -1.286 -13.805  17.759  1.00 24.63 LIG 0.01  C 
ENDBRANCH 7 8
ENDBRANCH 6 7
BRANCH 6 11
ATOM     11  N   LEU B2839      -2.661 -13.898  22.420  1.00 12.50 LIG-0.35  N 
ATOM     12 H    LEU B2839      -2.867 -14.708  22.623  1.00 12.50 LIG 0.16  HD
ATOM     13  C   TYR B2838      -2.253 -12.989  23.310  1.00 14.62 LIG 0.26  C 
ATOM     14 O    TYR B2838      -1.900 -11.851  23.001  1.00 16.58 LIG-0.27  OA
BRANCH 13 15
ATOM     15  CA  TYR B2838      -2.226 -13.408  24.774  1.00 17.58 LIG 0.40  C 
ATOM     16  N   TYR B2838      -3.267 -14.369  25.113  1.00 19.10 LIG 0.61  N 
BRANCH 15 17
ATOM     17  CB  TYR B2838      -0.841 -13.924  25.162  1.00 37.20 LIG 0.09  C 
BRANCH 17 18
ATOM     18  CG  TYR B2838       0.277 -13.088  24.584  1.00 53.42 LIG-0.06  A 
ATOM     19  CD1 TYR B2838       0.621 -11.864  25.152  1.00 57.26 LIG 0.01  A 
ATOM     20  CE1 TYR B2838       1.650 -11.094  24.629  1.00 58.59 LIG 0.04  A 
ATOM     21  CZ  TYR B2838       2.353 -11.546  23.527  1.00 63.46 LIG 0.07  A 
ATOM     22  CE2 TYR B2838       2.032 -12.759  22.946  1.00 67.17 LIG 0.04  A 
ATOM     23  CD2 TYR B2838       0.997 -13.524  23.478  1.00 64.10 LIG 0.01  A 
BRANCH 21 24
ATOM     24 OH   TYR B2838       3.375 -10.783  23.003  1.00 64.89 LIG-0.36  OA
ATOM     25 HH   TYR B2838       3.130 -10.449  22.272  1.00 64.89 LIG 0.22  HD
ENDBRANCH 21 24
ENDBRANCH 17 18
ENDBRANCH 15 17
ENDBRANCH 13 15
ENDBRANCH 6 11
ENDBRANCH 3 6
ENDBRANCH 1 2
BRANCH 1 26
ATOM     26  CB  VAL B2840      -7.022 -12.903  19.143  1.00 14.53 LIG 0.01  C 
ATOM     27  CG1 VAL B2840      -7.373 -11.912  18.046  1.00 16.85 LIG 0.01  C 
ATOM     28  CG2 VAL B2840      -8.224 -13.788  19.463  1.00 19.78 LIG 0.01  C 
ENDBRANCH 1 26
BRANCH 1 29
ATOM     29  C   VAL B2840      -5.645 -13.696  17.193  1.00 10.08 LIG 0.24  C 
ATOM     30 O    VAL B2840      -4.740 -13.032  16.702  1.00 13.99 LIG-0.27  OA
ATOM     31  N   THR B2841      -6.519 -14.362  16.446  1.00  7.81 LIG-0.34  N 
ATOM     32 H    THR B2841      -7.209 -14.772  16.757  1.00  7.81 LIG 0.16  HD
BRANCH 31 33
ATOM     33  CA  THR B2841      -6.360 -14.446  14.997  1.00  9.28 LIG 0.20  C 
BRANCH 33 34
ATOM     34  CB  THR B2841      -5.866 -15.835  14.569  1.00  5.66 LIG 0.15  C 
ATOM     35  CG2 THR B2841      -7.045 -16.811  14.413  1.00  2.82 LIG 0.04  C 
BRANCH 34 36
ATOM     36 OG1  THR B2841      -5.186 -15.724  13.313  1.00  4.58 LIG-0.39  OA
ATOM     37 HG1  THR B2841      -4.481 -15.279  13.415  1.00  4.58 LIG 0.21  HD
ENDBRANCH 34 36
ENDBRANCH 33 34
BRANCH 33 38
ATOM     38  C   THR B2841      -7.653 -14.142  14.254  1.00 11.02 LIG 0.24  C 
ATOM     39  N   SER B2842      -7.524 -13.663  13.013  1.00  4.17 LIG-0.34  N 
ATOM     40 H    SER B2842      -6.772 -13.443  12.660  1.00  4.17 LIG 0.16  HD
ATOM     41 O    THR B2841      -8.744 -14.330  14.800  1.00  9.65 LIG-0.27  OA
BRANCH 39 42
ATOM     42  CA  SER B2842      -8.678 -13.475  12.145  1.00  7.92 LIG 0.20  C 
BRANCH 42 43
ATOM     43  C   SER B2842      -8.621 -14.466  10.999  1.00  8.41 LIG 0.24  C 
ATOM     44  N   VAL B2843      -8.127 -15.663  11.294  1.00 12.74 LIG-0.34  N 
ATOM     45 H    VAL B2843      -7.880 -15.895  12.084  1.00 12.74 LIG 0.16  HD
ATOM     46 O    SER B2842      -9.003 -14.152   9.878  1.00  7.66 LIG-0.27  OA
BRANCH 44 47
ATOM     47  CA  VAL B2843      -7.960 -16.700  10.291  1.00 16.92 LIG 0.19  C 
BRANCH 47 48
ATOM     48  C   VAL B2843      -8.148 -18.085  10.910  1.00 17.95 LIG 0.20  C 
ATOM     49 OXT  VAL B2843      -7.724 -19.097  10.333  1.00 12.52 LIG-0.65  OA
ATOM     50 O    VAL B2843      -8.718 -18.222  11.992  1.00 13.13 LIG-0.65  OA
ENDBRANCH 47 48
BRANCH 47 51
ATOM     51  CB  VAL B2843      -6.568 -16.599   9.623  1.00 12.90 LIG 0.01  C 
ATOM     52  CG2 VAL B2843      -5.730 -15.489  10.259  1.00 11.86 LIG 0.01  C 
ATOM     53  CG1 VAL B2843      -6.719 -16.361   8.132  1.00 11.26 LIG 0.01  C 
ENDBRANCH 47 51
ENDBRANCH 44 47
ENDBRANCH 42 43
BRANCH 42 54
ATOM     54  CB  SER B2842      -8.746 -12.040  11.605  1.00 13.40 LIG 0.20  C 
BRANCH 54 55
ATOM     55 OG   SER B2842      -7.522 -11.663  11.003  1.00 24.06 LIG-0.40  OA
ATOM     56 HG   SER B2842      -6.888 -12.068  11.377  1.00 24.06 LIG 0.21  HD
ENDBRANCH 54 55
ENDBRANCH 42 54
ENDBRANCH 39 42
ENDBRANCH 33 38
ENDBRANCH 31 33
ENDBRANCH 1 29
TORSDOF 22
ENDMDL
MODEL 3
USER: ADFR SOLUTION from run 93
USER: SCORE 17.314289 LL:  -4.543 LR: -14.231 RR:   0.000 FEB:  -7.669
USER: RMSD 12.600530
USER: SEED 92
USER: STATUS no improvement in best in 4 clusters for 5 generations
USER: GENES 24
USER: genes 0 Translation |==|  0.37449 0.48054 0.41361
USER: genes 1 Rotation |==|  0.60829 0.03890 0.41814 0.63770
USER: genes 2 Torsion [CB]-CA--N-[C] |==|  0.52268
USER: genes 3 Torsion [N]-C--CA-[N] |==|  0.39084
USER: genes 4 Torsion [C]-CA--CB-[CG] |==|  0.38552
USER: genes 5 Torsion [CA]-CB--CG-[CD1] |==|  0.02158
USER: genes 6 Torsion [C]-CA--N-[C] |==|  0.83238
USER: genes 7 Torsion [N]-C--CA-[N] |==|  0.89898
USER: genes 8 Torsion [C]-CA--CB-[CG] |==|  0.85659
USER: genes 9 Torsion [CA]-CB--CG-[CD1] |==|  0.34736
USER: genes 10 Torsion [CE1]-CZ--OH-[HH] |==|  0.20795
USER: genes 11 Torsion [N]-CA--CB-[CG2] |==|  0.59332
USER: genes 12 Torsion [N]-CA--C-[N] |==|  0.45275
USER: genes 13 Torsion [C]-N--CA-[CB] |==|  0.51111
USER: genes 14 Torsion [N]-CA--CB-[CG2] |==|  0.48233
USER: genes 15 Torsion [CA]-CB--OG1-[HG1] |==|  0.00471
USER: genes 16 Torsion [N]-CA--C-[N] |==|  0.30029
USER: genes 17 Torsion [C]-N--CA-[C] |==|  0.58337
USER: genes 18 Torsion [N]-CA--C-[N] |==|  0.34603
USER: genes 19 Torsion [C]-N--CA-[C] |==|  0.72127
USER: genes 20 Torsion [N]-CA--C-[OXT] |==|  0.35651
USER: genes 21 Torsion [N]-CA--CB-[CG2] |==|  0.88866
USER: genes 22 Torsion [N]-CA--CB-[OG] |==|  0.06065
USER: genes 23 Torsion [CA]-CB--OG-[HG] |==|  0.90448
ROOT
ATOM      1  CA  VAL B2840      -5.846 -14.465  18.911  1.00 12.24 LIG 0.18  C 
ENDROOT
BRANCH 1 2
ATOM      2  N   VAL B2840      -6.471 -14.451  17.591  1.00  7.10 LIG-0.35  N 
ATOM      3  C   LEU B2839      -6.153 -13.535  16.682  1.00  9.29 LIG 0.24  C 
ATOM      4 O    LEU B2839      -5.416 -12.572  16.923  1.00  7.82 LIG-0.27  OA
ATOM      5 H    VAL B2840      -7.049 -15.075  17.463  1.00  7.10 LIG 0.16  HD
BRANCH 3 6
ATOM      6  CA  LEU B2839      -6.767 -13.710  15.306  1.00  6.33 LIG 0.18  C 
BRANCH 6 7
ATOM      7  CB  LEU B2839      -5.760 -14.420  14.395  1.00 14.59 LIG 0.04  C 
BRANCH 7 8
ATOM      8  CG  LEU B2839      -6.353 -15.486  13.480  1.00 24.41 LIG-0.02  C 
ATOM      9  CD1 LEU B2839      -7.890 -15.486  13.539  1.00 21.70 LIG 0.01  C 
ATOM     10  CD2 LEU B2839      -5.847 -15.286  12.053  1.00 24.63 LIG 0.01  C 
ENDBRANCH 7 8
ENDBRANCH 6 7
BRANCH 6 11
ATOM     11  N   LEU B2839      -7.164 -12.417  14.743  1.00 12.50 LIG-0.35  N 
ATOM     12 H    LEU B2839      -6.772 -12.218  14.004  1.00 12.50 LIG 0.16  HD
ATOM     13  C   TYR B2838      -8.061 -11.630  15.344  1.00 14.62 LIG 0.26  C 
ATOM     14 O    TYR B2838      -8.664 -11.951  16.368  1.00 16.58 LIG-0.27  OA
BRANCH 13 15
ATOM     15  CA  TYR B2838      -8.340 -10.276  14.707  1.00 17.58 LIG 0.40  C 
ATOM     16  N   TYR B2838      -7.153  -9.661  14.126  1.00 19.10 LIG 0.61  N 
BRANCH 15 17
ATOM     17  CB  TYR B2838      -9.471 -10.383  13.685  1.00 37.20 LIG 0.09  C 
BRANCH 17 18
ATOM     18  CG  TYR B2838      -9.249 -11.487  12.679  1.00 53.42 LIG-0.06  A 
ATOM     19  CD1 TYR B2838     -10.207 -12.479  12.483  1.00 57.26 LIG 0.01  A 
ATOM     20  CE1 TYR B2838     -10.010 -13.494  11.557  1.00 58.59 LIG 0.04  A 
ATOM     21  CZ  TYR B2838      -8.846 -13.525  10.811  1.00 63.46 LIG 0.07  A 
ATOM     22  CE2 TYR B2838      -7.881 -12.551  10.985  1.00 67.17 LIG 0.04  A 
ATOM     23  CD2 TYR B2838      -8.087 -11.537  11.917  1.00 64.10 LIG 0.01  A 
BRANCH 21 24
ATOM     24 OH   TYR B2838      -8.646 -14.533   9.891  1.00 64.89 LIG-0.36  OA
ATOM     25 HH   TYR B2838      -9.124 -14.393   9.214  1.00 64.89 LIG 0.22  HD
ENDBRANCH 21 24
ENDBRANCH 17 18
ENDBRANCH 15 17
ENDBRANCH 13 15
ENDBRANCH 6 11
ENDBRANCH 3 6
ENDBRANCH 1 2
BRANCH 1 26
ATOM     26  CB  VAL B2840      -6.221 -15.729  19.716  1.00 14.53 LIG 0.01  C 
ATOM     27  CG1 VAL B2840      -5.196 -16.826  19.477  1.00 16.85 LIG 0.01  C 
ATOM     28  CG2 VAL B2840      -6.310 -15.400  21.203  1.00 19.78 LIG 0.01  C 
ENDBRANCH 1 26
BRANCH 1 29
ATOM     29  C   VAL B2840      -4.324 -14.369  18.779  1.00 10.08 LIG 0.24  C 
ATOM     30 O    VAL B2840      -3.775 -14.617  17.711  1.00 13.99 LIG-0.27  OA
ATOM     31  N   THR B2841      -3.640 -14.024  19.863  1.00  7.81 LIG-0.34  N 
ATOM     32 H    THR B2841      -3.988 -13.920  20.643  1.00  7.81 LIG 0.16  HD
BRANCH 31 33
ATOM     33  CA  THR B2841      -2.200 -13.790  19.801  1.00  9.28 LIG 0.20  C 
BRANCH 33 34
ATOM     34  CB  THR B2841      -1.621 -13.502  21.193  1.00  5.66 LIG 0.15  C 
ATOM     35  CG2 THR B2841      -0.085 -13.414  21.140  1.00  2.82 LIG 0.04  C 
BRANCH 34 36
ATOM     36 OG1  THR B2841      -2.141 -12.254  21.668  1.00  4.58 LIG-0.39  OA
ATOM     37 HG1  THR B2841      -2.676 -11.940  21.101  1.00  4.58 LIG 0.21  HD
ENDBRANCH 34 36
ENDBRANCH 33 34
BRANCH 33 38
ATOM     38  C   THR B2841      -1.447 -14.968  19.198  1.00 11.02 LIG 0.24  C 
ATOM     39  N   SER B2842      -0.953 -14.787  17.970  1.00  4.17 LIG-0.34  N 
ATOM     40 H    SER B2842      -1.110 -14.094  17.486  1.00  4.17 LIG 0.16  HD
ATOM     41 O    THR B2841      -1.327 -16.020  19.831  1.00  9.65 LIG-0.27  OA
BRANCH 39 42
ATOM     42  CA  SER B2842      -0.087 -15.777  17.343  1.00  7.92 LIG 0.20  C 
BRANCH 42 43
ATOM     43  C   SER B2842       0.874 -15.086  16.395  1.00  8.41 LIG 0.24  C 
ATOM     44  N   VAL B2843       2.164 -15.320  16.608  1.00 12.74 LIG-0.34  N 
ATOM     45 H    VAL B2843       2.458 -15.850  17.218  1.00 12.74 LIG 0.16  HD
ATOM     46 O    SER B2842       0.458 -14.356  15.504  1.00  7.66 LIG-0.27  OA
BRANCH 44 47
ATOM     47  CA  VAL B2843       3.205 -14.688  15.817  1.00 16.92 LIG 0.19  C 
BRANCH 47 48
ATOM     48  C   VAL B2843       3.727 -15.648  14.748  1.00 17.95 LIG 0.20  C 
ATOM     49 OXT  VAL B2843       3.787 -15.298  13.560  1.00 12.52 LIG-0.65  OA
ATOM     50 O    VAL B2843       4.102 -16.783  15.045  1.00 13.13 LIG-0.65  OA
ENDBRANCH 47 48
BRANCH 47 51
ATOM     51  CB  VAL B2843       4.367 -14.211  16.719  1.00 12.90 LIG 0.01  C 
ATOM     52  CG2 VAL B2843       3.842 -13.607  18.023  1.00 11.86 LIG 0.01  C 
ATOM     53  CG1 VAL B2843       5.227 -13.204  15.978  1.00 11.26 LIG 0.01  C 
ENDBRANCH 47 51
ENDBRANCH 44 47
ENDBRANCH 42 43
BRANCH 42 54
ATOM     54  CB  SER B2842      -0.902 -16.840  16.594  1.00 13.40 LIG 0.20  C 
BRANCH 54 55
ATOM     55 OG   SER B2842      -2.193 -16.360  16.269  1.00 24.06 LIG-0.40  OA
ATOM     56 HG   SER B2842      -2.463 -15.848  16.878  1.00 24.06 LIG 0.21  HD
ENDBRANCH 54 55
ENDBRANCH 42 54
ENDBRANCH 39 42
ENDBRANCH 33 38
ENDBRANCH 31 33
ENDBRANCH 1 29
TORSDOF 22
ENDMDL
MODEL 4
USER: ADFR SOLUTION from run 35
USER: SCORE 15.839638 LL:  -4.641 LR: -14.127 RR:   0.000 FEB:  -7.564
USER: RMSD 13.190193
USER: SEED 34
USER: STATUS searching
USER: GENES 24
USER: genes 0 Translation |==|  0.28722 0.66680 0.23878
USER: genes 1 Rotation |==|  0.18561 0.15673 0.67844 0.53844
USER: genes 2 Torsion [CB]-CA--N-[C] |==|  0.34540
USER: genes 3 Torsion [N]-C--CA-[N] |==|  0.69253
USER: genes 4 Torsion [C]-CA--CB-[CG] |==|  0.26628
USER: genes 5 Torsion [CA]-CB--CG-[CD1] |==|  0.30727
USER: genes 6 Torsion [C]-CA--N-[C] |==|  0.16912
USER: genes 7 Torsion [N]-C--CA-[N] |==|  0.77615
USER: genes 8 Torsion [C]-CA--CB-[CG] |==|  0.17507
USER: genes 9 Torsion [CA]-CB--CG-[CD1] |==|  0.75978
USER: genes 10 Torsion [CE1]-CZ--OH-[HH] |==|  0.21294
USER: genes 11 Torsion [N]-CA--CB-[CG2] |==|  0.85743
USER: genes 12 Torsion [N]-CA--C-[N] |==|  0.23033
USER: genes 13 Torsion [C]-N--CA-[CB] |==|  0.51255
USER: genes 14 Torsion [N]-CA--CB-[CG2] |==|  0.60074
USER: genes 15 Torsion [CA]-CB--OG1-[HG1] |==|  0.21859
USER: genes 16 Torsion [N]-CA--C-[N] |==|  0.43334
USER: genes 17 Torsion [C]-N--CA-[C] |==|  0.75014
USER: genes 18 Torsion [N]-CA--C-[N] |==|  0.38946
USER: genes 19 Torsion [C]-N--CA-[C] |==|  0.61590
USER: genes 20 Torsion [N]-CA--C-[OXT] |==|  0.43191
USER: genes 21 Torsion [N]-CA--CB-[CG2] |==|  0.84217
USER: genes 22 Torsion [N]-CA--CB-[OG] |==|  0.75911
USER: genes 23 Torsion [CA]-CB--OG-[HG] |==|  0.87752
ROOT
ATOM      1  CA  VAL B2840      -7.809 -11.531  13.666  1.00 12.24 LIG 0.18  C 
ENDROOT
BRANCH 1 2
ATOM      2  N   VAL B2840      -8.855 -12.174  12.874  1.00  7.10 LIG-0.35  N 
ATOM      3  C   LEU B2839      -8.602 -12.675  11.669  1.00  9.29 LIG 0.24  C 
ATOM      4 O    LEU B2839      -7.522 -12.526  11.089  1.00  7.82 LIG-0.27  OA
ATOM      5 H    VAL B2840      -9.627 -12.195  13.252  1.00  7.10 LIG 0.16  HD
BRANCH 3 6
ATOM      6  CA  LEU B2839      -9.735 -13.438  11.008  1.00  6.33 LIG 0.18  C 
BRANCH 6 7
ATOM      7  CB  LEU B2839     -11.028 -13.195  11.793  1.00 14.59 LIG 0.04  C 
BRANCH 7 8
ATOM      8  CG  LEU B2839     -11.918 -12.084  11.246  1.00 24.41 LIG-0.02  C 
ATOM      9  CD1 LEU B2839     -13.215 -12.648  10.642  1.00 21.70 LIG 0.01  C 
ATOM     10  CD2 LEU B2839     -12.210 -11.064  12.345  1.00 24.63 LIG 0.01  C 
ENDBRANCH 7 8
ENDBRANCH 6 7
BRANCH 6 11
ATOM     11  N   LEU B2839      -9.427 -14.869  10.934  1.00 12.50 LIG-0.35  N 
ATOM     12 H    LEU B2839      -9.395 -15.183  10.134  1.00 12.50 LIG 0.16  HD
ATOM     13  C   TYR B2838      -9.219 -15.604  12.030  1.00 14.62 LIG 0.26  C 
ATOM     14 O    TYR B2838      -9.205 -15.134  13.167  1.00 16.58 LIG-0.27  OA
BRANCH 13 15
ATOM     15  CA  TYR B2838      -8.982 -17.096  11.836  1.00 17.58 LIG 0.40  C 
ATOM     16  N   TYR B2838     -10.214 -17.851  11.647  1.00 19.10 LIG 0.61  N 
BRANCH 15 17
ATOM     17  CB  TYR B2838      -7.995 -17.341  10.696  1.00 37.20 LIG 0.09  C 
BRANCH 17 18
ATOM     18  CG  TYR B2838      -6.626 -16.768  10.974  1.00 53.42 LIG-0.06  A 
ATOM     19  CD1 TYR B2838      -6.330 -15.443  10.665  1.00 57.26 LIG 0.01  A 
ATOM     20  CE1 TYR B2838      -5.075 -14.908  10.921  1.00 58.59 LIG 0.04  A 
ATOM     21  CZ  TYR B2838      -4.098 -15.699  11.498  1.00 63.46 LIG 0.07  A 
ATOM     22  CE2 TYR B2838      -4.367 -17.017  11.816  1.00 67.17 LIG 0.04  A 
ATOM     23  CD2 TYR B2838      -5.629 -17.545  11.554  1.00 64.10 LIG 0.01  A 
BRANCH 21 24
ATOM     24 OH   TYR B2838      -2.849 -15.173  11.753  1.00 64.89 LIG-0.36  OA
ATOM     25 HH   TYR B2838      -2.885 -14.686  12.437  1.00 64.89 LIG 0.22  HD
ENDBRANCH 21 24
ENDBRANCH 17 18
ENDBRANCH 15 17
ENDBRANCH 13 15
ENDBRANCH 6 11
ENDBRANCH 3 6
ENDBRANCH 1 2
BRANCH 1 26
ATOM     26  CB  VAL B2840      -8.199 -10.094  14.080  1.00 14.53 LIG 0.01  C 
ATOM     27  CG1 VAL B2840      -7.023  -9.407  14.757  1.00 16.85 LIG 0.01  C 
ATOM     28  CG2 VAL B2840      -8.647  -9.297  12.859  1.00 19.78 LIG 0.01  C 
ENDBRANCH 1 26
BRANCH 1 29
ATOM     29  C   VAL B2840      -7.502 -12.363  14.914  1.00 10.08 LIG 0.24  C 
ATOM     30 O    VAL B2840      -8.007 -12.077  15.993  1.00 13.99 LIG-0.27  OA
ATOM     31  N   THR B2841      -6.663 -13.383  14.772  1.00  7.81 LIG-0.34  N 
ATOM     32 H    THR B2841      -6.234 -13.561  14.048  1.00  7.81 LIG 0.16  HD
BRANCH 31 33
ATOM     33  CA  THR B2841      -6.406 -14.303  15.876  1.00  9.28 LIG 0.20  C 
BRANCH 33 34
ATOM     34  CB  THR B2841      -5.323 -15.328  15.507  1.00  5.66 LIG 0.15  C 
ATOM     35  CG2 THR B2841      -5.635 -16.701  16.127  1.00  2.82 LIG 0.04  C 
BRANCH 34 36
ATOM     36 OG1  THR B2841      -5.272 -15.463  14.082  1.00  4.58 LIG-0.39  OA
ATOM     37 HG1  THR B2841      -4.849 -14.815  13.754  1.00  4.58 LIG 0.21  HD
ENDBRANCH 34 36
ENDBRANCH 33 34
BRANCH 33 38
ATOM     38  C   THR B2841      -5.976 -13.580  17.145  1.00 11.02 LIG 0.24  C 
ATOM     39  N   SER B2842      -6.193 -14.224  18.295  1.00  4.17 LIG-0.34  N 
ATOM     40 H    SER B2842      -6.630 -14.962  18.357  1.00  4.17 LIG 0.16  HD
ATOM     41 O    THR B2841      -5.467 -12.458  17.080  1.00  9.65 LIG-0.27  OA
BRANCH 39 42
ATOM     42  CA  SER B2842      -5.694 -13.710  19.563  1.00  7.92 LIG 0.20  C 
BRANCH 42 43
ATOM     43  C   SER B2842      -4.306 -14.261  19.825  1.00  8.41 LIG 0.24  C 
ATOM     44  N   VAL B2843      -3.436 -13.409  20.353  1.00 12.74 LIG-0.34  N 
ATOM     45 H    VAL B2843      -3.632 -12.600  20.571  1.00 12.74 LIG 0.16  HD
ATOM     46 O    SER B2842      -4.030 -15.422  19.547  1.00  7.66 LIG-0.27  OA
BRANCH 44 47
ATOM     47  CA  VAL B2843      -2.055 -13.774  20.612  1.00 16.92 LIG 0.19  C 
BRANCH 47 48
ATOM     48  C   VAL B2843      -1.595 -13.226  21.963  1.00 17.95 LIG 0.20  C 
ATOM     49 OXT  VAL B2843      -0.664 -13.765  22.579  1.00 12.52 LIG-0.65  OA
ATOM     50 O    VAL B2843      -2.136 -12.239  22.462  1.00 13.13 LIG-0.65  OA
ENDBRANCH 47 48
BRANCH 47 51
ATOM     51  CB  VAL B2843      -1.130 -13.259  19.484  1.00 12.90 LIG 0.01  C 
ATOM     52  CG2 VAL B2843      -1.575 -13.787  18.120  1.00 11.86 LIG 0.01  C 
ATOM     53  CG1 VAL B2843       0.308 -13.657  19.763  1.00 11.26 LIG 0.01  C 
ENDBRANCH 47 51
ENDBRANCH 44 47
ENDBRANCH 42 43
BRANCH 42 54
ATOM     54  CB  SER B2842      -6.636 -14.064  20.722  1.00 13.40 LIG 0.20  C 
BRANCH 54 55
ATOM     55 OG   SER B2842      -7.657 -13.094  20.864  1.00 24.06 LIG-0.40  OA
ATOM     56 HG   SER B2842      -7.325 -12.325  20.801  1.00 24.06 LIG 0.21  HD
ENDBRANCH 54 55
ENDBRANCH 42 54
ENDBRANCH 39 42
ENDBRANCH 33 38
ENDBRANCH 31 33
ENDBRANCH 1 29
TORSDOF 22
ENDMDL
MODEL 5
USER: ADFR SOLUTION from run 62
USER: SCORE 15.488309 LL:  -3.472 LR: -14.074 RR:   0.000 FEB:  -7.511
USER: RMSD 4.524183
USER: SEED 61
USER: STATUS no improvement in best in 7 clusters for 5 generations
USER: GENES 24
USER: genes 0 Translation |==|  0.54278 0.46951 0.40347
USER: genes 1 Rotation |==|  0.37400 0.56208 0.27115 0.92178
USER: genes 2 Torsion [CB]-CA--N-[C] |==|  0.34711
USER: genes 3 Torsion [N]-C--CA-[N] |==|  0.04392
USER: genes 4 Torsion [C]-CA--CB-[CG] |==|  0.47765
USER: genes 5 Torsion [CA]-CB--CG-[CD1] |==|  0.55192
USER: genes 6 Torsion [C]-CA--N-[C] |==|  0.67285
USER: genes 7 Torsion [N]-C--CA-[N] |==|  0.23798
USER: genes 8 Torsion [C]-CA--CB-[CG] |==|  0.70062
USER: genes 9 Torsion [CA]-CB--CG-[CD1] |==|  0.24945
USER: genes 10 Torsion [CE1]-CZ--OH-[HH] |==|  0.25630
USER: genes 11 Torsion [N]-CA--CB-[CG2] |==|  0.85316
USER: genes 12 Torsion [N]-CA--C-[N] |==|  0.78541
USER: genes 13 Torsion [C]-N--CA-[CB] |==|  0.76078
USER: genes 14 Torsion [N]-CA--CB-[CG2] |==|  0.49515
USER: genes 15 Torsion [CA]-CB--OG1-[HG1] |==|  0.42201
USER: genes 16 Torsion [N]-CA--C-[N] |==|  0.24031
USER: genes 17 Torsion [C]-N--CA-[C] |==|  0.80385
USER: genes 18 Torsion [N]-CA--C-[N] |==|  0.43139
USER: genes 19 Torsion [C]-N--CA-[C] |==|  0.65455
USER: genes 20 Torsion [N]-CA--C-[OXT] |==|  0.46559
USER: genes 21 Torsion [N]-CA--CB-[CG2] |==|  0.95519
USER: genes 22 Torsion [N]-CA--CB-[OG] |==|  0.68790
USER: genes 23 Torsion [CA]-CB--OG-[HG] |==|  0.03336
ROOT
ATOM      1  CA  VAL B2840      -2.060 -14.638  18.607  1.00 12.24 LIG 0.18  C 
ENDROOT
BRANCH 1 2
ATOM      2  N   VAL B2840      -1.748 -14.264  19.985  1.00  7.10 LIG-0.35  N 
ATOM      3  C   LEU B2839      -0.732 -13.456  20.270  1.00  9.29 LIG 0.24  C 
ATOM      4 O    LEU B2839       0.085 -13.073  19.426  1.00  7.82 LIG-0.27  OA
ATOM      5 H    VAL B2840      -2.271 -14.607  20.574  1.00  7.10 LIG 0.16  HD
BRANCH 3 6
ATOM      6  CA  LEU B2839      -0.597 -13.033  21.721  1.00  6.33 LIG 0.18  C 
BRANCH 6 7
ATOM      7  CB  LEU B2839       0.882 -13.075  22.120  1.00 14.59 LIG 0.04  C 
BRANCH 7 8
ATOM      8  CG  LEU B2839       1.200 -12.493  23.493  1.00 24.41 LIG-0.02  C 
ATOM      9  CD1 LEU B2839       2.692 -12.149  23.627  1.00 21.70 LIG 0.01  C 
ATOM     10  CD2 LEU B2839       0.318 -11.273  23.755  1.00 24.63 LIG 0.01  C 
ENDBRANCH 7 8
ENDBRANCH 6 7
BRANCH 6 11
ATOM     11  N   LEU B2839      -1.400 -13.895  22.593  1.00 12.50 LIG-0.35  N 
ATOM     12 H    LEU B2839      -1.164 -14.722  22.587  1.00 12.50 LIG 0.16  HD
ATOM     13  C   TYR B2838      -2.409 -13.415  23.326  1.00 14.62 LIG 0.26  C 
ATOM     14 O    TYR B2838      -2.699 -12.220  23.377  1.00 16.58 LIG-0.27  OA
BRANCH 13 15
ATOM     15  CA  TYR B2838      -3.221 -14.416  24.136  1.00 17.58 LIG 0.40  C 
ATOM     16  N   TYR B2838      -2.639 -14.704  25.441  1.00 19.10 LIG 0.61  N 
BRANCH 15 17
ATOM     17  CB  TYR B2838      -4.673 -13.956  24.261  1.00 37.20 LIG 0.09  C 
BRANCH 17 18
ATOM     18  CG  TYR B2838      -5.016 -13.473  25.651  1.00 53.42 LIG-0.06  A 
ATOM     19  CD1 TYR B2838      -4.850 -12.136  26.003  1.00 57.26 LIG 0.01  A 
ATOM     20  CE1 TYR B2838      -5.167 -11.684  27.276  1.00 58.59 LIG 0.04  A 
ATOM     21  CZ  TYR B2838      -5.661 -12.572  28.215  1.00 63.46 LIG 0.07  A 
ATOM     22  CE2 TYR B2838      -5.837 -13.903  27.890  1.00 67.17 LIG 0.04  A 
ATOM     23  CD2 TYR B2838      -5.515 -14.348  26.609  1.00 64.10 LIG 0.01  A 
BRANCH 21 24
ATOM     24 OH   TYR B2838      -5.976 -12.127  29.482  1.00 64.89 LIG-0.36  OA
ATOM     25 HH   TYR B2838      -6.787 -11.908  29.509  1.00 64.89 LIG 0.22  HD
ENDBRANCH 21 24
ENDBRANCH 17 18
ENDBRANCH 15 17
ENDBRANCH 13 15
ENDBRANCH 6 11
ENDBRANCH 3 6
ENDBRANCH 1 2
BRANCH 1 26
ATOM     26  CB  VAL B2840      -2.099 -16.171  18.419  1.00 14.53 LIG 0.01  C 
ATOM     27  CG1 VAL B2840      -2.299 -16.515  16.952  1.00 16.85 LIG 0.01  C 
ATOM     28  CG2 VAL B2840      -0.809 -16.799  18.939  1.00 19.78 LIG 0.01  C 
ENDBRANCH 1 26
BRANCH 1 29
ATOM     29  C   VAL B2840      -3.398 -14.030  18.182  1.00 10.08 LIG 0.24  C 
ATOM     30 O    VAL B2840      -3.432 -13.033  17.470  1.00 13.99 LIG-0.27  OA
ATOM     31  N   THR B2841      -4.502 -14.619  18.627  1.00  7.81 LIG-0.34  N 
ATOM     32 H    THR B2841      -4.511 -15.270  19.189  1.00  7.81 LIG 0.16  HD
BRANCH 31 33
ATOM     33  CA  THR B2841      -5.821 -14.184  18.177  1.00  9.28 LIG 0.20  C 
BRANCH 33 34
ATOM     34  CB  THR B2841      -6.345 -13.019  19.028  1.00  5.66 LIG 0.15  C 
ATOM     35  CG2 THR B2841      -7.716 -12.540  18.516  1.00  2.82 LIG 0.04  C 
BRANCH 34 36
ATOM     36 OG1  THR B2841      -6.483 -13.455  20.385  1.00  4.58 LIG-0.39  OA
ATOM     37 HG1  THR B2841      -6.389 -12.799  20.902  1.00  4.58 LIG 0.21  HD
ENDBRANCH 34 36
ENDBRANCH 33 34
BRANCH 33 38
ATOM     38  C   THR B2841      -5.821 -13.755  16.716  1.00 11.02 LIG 0.24  C 
ATOM     39  N   SER B2842      -6.008 -14.724  15.815  1.00  4.17 LIG-0.34  N 
ATOM     40 H    SER B2842      -6.038 -15.561  16.010  1.00  4.17 LIG 0.16  HD
ATOM     41 O    THR B2841      -5.647 -12.571  16.414  1.00  9.65 LIG-0.27  OA
BRANCH 39 42
ATOM     42  CA  SER B2842      -6.179 -14.427  14.400  1.00  7.92 LIG 0.20  C 
BRANCH 42 43
ATOM     43  C   SER B2842      -7.528 -13.771  14.177  1.00  8.41 LIG 0.24  C 
ATOM     44  N   VAL B2843      -7.626 -13.003  13.098  1.00 12.74 LIG-0.34  N 
ATOM     45 H    VAL B2843      -6.990 -12.896  12.530  1.00 12.74 LIG 0.16  HD
ATOM     46 O    SER B2842      -8.449 -13.947  14.966  1.00  7.66 LIG-0.27  OA
BRANCH 44 47
ATOM     47  CA  VAL B2843      -8.837 -12.267  12.780  1.00 16.92 LIG 0.19  C 
BRANCH 47 48
ATOM     48  C   VAL B2843      -9.332 -12.623  11.378  1.00 17.95 LIG 0.20  C 
ATOM     49 OXT  VAL B2843     -10.464 -12.284  11.003  1.00 12.52 LIG-0.65  OA
ATOM     50 O    VAL B2843      -8.617 -13.248  10.594  1.00 13.13 LIG-0.65  OA
ENDBRANCH 47 48
BRANCH 47 51
ATOM     51  CB  VAL B2843      -8.599 -10.743  12.890  1.00 12.90 LIG 0.01  C 
ATOM     52  CG2 VAL B2843      -7.318 -10.440  13.669  1.00 11.86 LIG 0.01  C 
ATOM     53  CG1 VAL B2843      -9.791 -10.073  13.548  1.00 11.26 LIG 0.01  C 
ENDBRANCH 47 51
ENDBRANCH 44 47
ENDBRANCH 42 43
BRANCH 42 54
ATOM     54  CB  SER B2842      -6.054 -15.692  13.541  1.00 13.40 LIG 0.20  C 
BRANCH 54 55
ATOM     55 OG   SER B2842      -4.891 -15.651  12.736  1.00 24.06 LIG-0.40  OA
ATOM     56 HG   SER B2842      -4.396 -15.022  12.991  1.00 24.06 LIG 0.21  HD
ENDBRANCH 54 55
ENDBRANCH 42 54
ENDBRANCH 39 42
ENDBRANCH 33 38
ENDBRANCH 31 33
ENDBRANCH 1 29
TORSDOF 22
ENDMDL
MODEL 6
USER: ADFR SOLUTION from run 35
USER: SCORE 16.052173 LL:  -4.969 LR: -14.048 RR:   0.000 FEB:  -7.486
USER: RMSD 13.005843
USER: SEED 34
USER: STATUS searching
USER: GENES 24
USER: genes 0 Translation |==|  0.28853 0.66710 0.23857
USER: genes 1 Rotation |==|  0.18819 0.15520 0.67932 0.54160
USER: genes 2 Torsion [CB]-CA--N-[C] |==|  0.34557
USER: genes 3 Torsion [N]-C--CA-[N] |==|  0.69396
USER: genes 4 Torsion [C]-CA--CB-[CG] |==|  0.26654
USER: genes 5 Torsion [CA]-CB--CG-[CD1] |==|  0.30659
USER: genes 6 Torsion [C]-CA--N-[C] |==|  0.16871
USER: genes 7 Torsion [N]-C--CA-[N] |==|  0.77615
USER: genes 8 Torsion [C]-CA--CB-[CG] |==|  0.17671
USER: genes 9 Torsion [CA]-CB--CG-[CD1] |==|  0.75958
USER: genes 10 Torsion [CE1]-CZ--OH-[HH] |==|  0.21317
USER: genes 11 Torsion [N]-CA--CB-[CG2] |==|  0.85803
USER: genes 12 Torsion [N]-CA--C-[N] |==|  0.22460
USER: genes 13 Torsion [C]-N--CA-[CB] |==|  0.49444
USER: genes 14 Torsion [N]-CA--CB-[CG2] |==|  0.63518
USER: genes 15 Torsion [CA]-CB--OG1-[HG1] |==|  0.21066
USER: genes 16 Torsion [N]-CA--C-[N] |==|  0.46936
USER: genes 17 Torsion [C]-N--CA-[C] |==|  0.78962
USER: genes 18 Torsion [N]-CA--C-[N] |==|  0.96042
USER: genes 19 Torsion [C]-N--CA-[C] |==|  0.48846
USER: genes 20 Torsion [N]-CA--C-[OXT] |==|  0.01698
USER: genes 21 Torsion [N]-CA--CB-[CG2] |==|  0.56461
USER: genes 22 Torsion [N]-CA--CB-[OG] |==|  0.75911
USER: genes 23 Torsion [CA]-CB--OG-[HG] |==|  0.87752
ROOT
ATOM      1  CA  VAL B2840      -7.780 -11.526  13.660  1.00 12.24 LIG 0.18  C 
ENDROOT
BRANCH 1 2
ATOM      2  N   VAL B2840      -8.833 -12.170  12.877  1.00  7.10 LIG-0.35  N 
ATOM      3  C   LEU B2839      -8.593 -12.660  11.665  1.00  9.29 LIG 0.24  C 
ATOM      4 O    LEU B2839      -7.522 -12.499  11.071  1.00  7.82 LIG-0.27  OA
ATOM      5 H    VAL B2840      -9.599 -12.198  13.265  1.00  7.10 LIG 0.16  HD
BRANCH 3 6
ATOM      6  CA  LEU B2839      -9.730 -13.425  11.013  1.00  6.33 LIG 0.18  C 
BRANCH 6 7
ATOM      7  CB  LEU B2839     -11.017 -13.185  11.811  1.00 14.59 LIG 0.04  C 
BRANCH 7 8
ATOM      8  CG  LEU B2839     -11.915 -12.077  11.271  1.00 24.41 LIG-0.02  C 
ATOM      9  CD1 LEU B2839     -13.214 -12.646  10.674  1.00 21.70 LIG 0.01  C 
ATOM     10  CD2 LEU B2839     -12.204 -11.061  12.375  1.00 24.63 LIG 0.01  C 
ENDBRANCH 7 8
ENDBRANCH 6 7
BRANCH 6 11
ATOM     11  N   LEU B2839      -9.420 -14.855  10.935  1.00 12.50 LIG-0.35  N 
ATOM     12 H    LEU B2839      -9.396 -15.168  10.135  1.00 12.50 LIG 0.16  HD
ATOM     13  C   TYR B2838      -9.197 -15.590  12.028  1.00 14.62 LIG 0.26  C 
ATOM     14 O    TYR B2838      -9.171 -15.120  13.166  1.00 16.58 LIG-0.27  OA
BRANCH 13 15
ATOM     15  CA  TYR B2838      -8.959 -17.081  11.831  1.00 17.58 LIG 0.40  C 
ATOM     16  N   TYR B2838     -10.192 -17.839  11.655  1.00 19.10 LIG 0.61  N 
BRANCH 15 17
ATOM     17  CB  TYR B2838      -7.985 -17.323  10.679  1.00 37.20 LIG 0.09  C 
BRANCH 17 18
ATOM     18  CG  TYR B2838      -6.610 -16.759  10.948  1.00 53.42 LIG-0.06  A 
ATOM     19  CD1 TYR B2838      -6.309 -15.434  10.643  1.00 57.26 LIG 0.01  A 
ATOM     20  CE1 TYR B2838      -5.049 -14.908  10.891  1.00 58.59 LIG 0.04  A 
ATOM     21  CZ  TYR B2838      -4.071 -15.708  11.453  1.00 63.46 LIG 0.07  A 
ATOM     22  CE2 TYR B2838      -4.345 -17.026  11.767  1.00 67.17 LIG 0.04  A 
ATOM     23  CD2 TYR B2838      -5.612 -17.545  11.513  1.00 64.10 LIG 0.01  A 
BRANCH 21 24
ATOM     24 OH   TYR B2838      -2.817 -15.190  11.700  1.00 64.89 LIG-0.36  OA
ATOM     25 HH   TYR B2838      -2.843 -14.708  12.388  1.00 64.89 LIG 0.22  HD
ENDBRANCH 21 24
ENDBRANCH 17 18
ENDBRANCH 15 17
ENDBRANCH 13 15
ENDBRANCH 6 11
ENDBRANCH 3 6
ENDBRANCH 1 2
BRANCH 1 26
ATOM     26  CB  VAL B2840      -8.173 -10.096  14.092  1.00 14.53 LIG 0.01  C 
ATOM     27  CG1 VAL B2840      -6.991  -9.404  14.753  1.00 16.85 LIG 0.01  C 
ATOM     28  CG2 VAL B2840      -8.649  -9.293  12.885  1.00 19.78 LIG 0.01  C 
ENDBRANCH 1 26
BRANCH 1 29
ATOM     29  C   VAL B2840      -7.449 -12.367  14.896  1.00 10.08 LIG 0.24  C 
ATOM     30 O    VAL B2840      -7.911 -12.071  15.992  1.00 13.99 LIG-0.27  OA
ATOM     31  N   THR B2841      -6.639 -13.405  14.725  1.00  7.81 LIG-0.34  N 
ATOM     32 H    THR B2841      -6.239 -13.591  13.987  1.00  7.81 LIG 0.16  HD
BRANCH 31 33
ATOM     33  CA  THR B2841      -6.365 -14.333  15.819  1.00  9.28 LIG 0.20  C 
BRANCH 33 34
ATOM     34  CB  THR B2841      -5.444 -15.474  15.366  1.00  5.66 LIG 0.15  C 
ATOM     35  CG2 THR B2841      -6.009 -16.838  15.797  1.00  2.82 LIG 0.04  C 
BRANCH 34 36
ATOM     36 OG1  THR B2841      -5.334 -15.448  13.938  1.00  4.58 LIG-0.39  OA
ATOM     37 HG1  THR B2841      -4.824 -14.821  13.707  1.00  4.58 LIG 0.21  HD
ENDBRANCH 34 36
ENDBRANCH 33 34
BRANCH 33 38
ATOM     38  C   THR B2841      -5.728 -13.643  17.018  1.00 11.02 LIG 0.24  C 
ATOM     39  N   SER B2842      -5.653 -14.360  18.142  1.00  4.17 LIG-0.34  N 
ATOM     40 H    SER B2842      -6.014 -15.134  18.243  1.00  4.17 LIG 0.16  HD
ATOM     41 O    THR B2841      -5.323 -12.481  16.924  1.00  9.65 LIG-0.27  OA
BRANCH 39 42
ATOM     42  CA  SER B2842      -4.934 -13.873  19.311  1.00  7.92 LIG 0.20  C 
BRANCH 42 43
ATOM     43  C   SER B2842      -3.441 -14.009  19.084  1.00  8.41 LIG 0.24  C 
ATOM     44  N   VAL B2843      -3.079 -14.780  18.065  1.00 12.74 LIG-0.34  N 
ATOM     45 H    VAL B2843      -3.637 -15.162  17.535  1.00 12.74 LIG 0.16  HD
ATOM     46 O    SER B2842      -2.641 -13.440  19.817  1.00  7.66 LIG-0.27  OA
BRANCH 44 47
ATOM     47  CA  VAL B2843      -1.686 -15.049  17.756  1.00 16.92 LIG 0.19  C 
BRANCH 47 48
ATOM     48  C   VAL B2843      -1.572 -16.044  16.601  1.00 17.95 LIG 0.20  C 
ATOM     49 OXT  VAL B2843      -2.583 -16.420  15.989  1.00 12.52 LIG-0.65  OA
ATOM     50 O    VAL B2843      -0.478 -16.488  16.254  1.00 13.13 LIG-0.65  OA
ENDBRANCH 47 48
BRANCH 47 51
ATOM     51  CB  VAL B2843      -0.941 -15.587  19.000  1.00 12.90 LIG 0.01  C 
ATOM     52  CG2 VAL B2843       0.564 -15.339  18.892  1.00 11.86 LIG 0.01  C 
ATOM     53  CG1 VAL B2843      -1.222 -17.067  19.179  1.00 11.26 LIG 0.01  C 
ENDBRANCH 47 51
ENDBRANCH 44 47
ENDBRANCH 42 43
BRANCH 42 54
ATOM     54  CB  SER B2842      -5.351 -14.626  20.581  1.00 13.40 LIG 0.20  C 
BRANCH 54 55
ATOM     55 OG   SER B2842      -6.488 -14.032  21.177  1.00 24.06 LIG-0.40  OA
ATOM     56 HG   SER B2842      -6.397 -13.197  21.184  1.00 24.06 LIG 0.21  HD
ENDBRANCH 54 55
ENDBRANCH 42 54
ENDBRANCH 39 42
ENDBRANCH 33 38
ENDBRANCH 31 33
ENDBRANCH 1 29
TORSDOF 22
ENDMDL
MODEL 7
USER: ADFR SOLUTION from run 95
USER: SCORE 15.652356 LL:  -4.482 LR: -14.019 RR:   0.000 FEB:  -7.456
USER: RMSD 3.830956
USER: SEED 94
USER: STATUS no improvement in best in 15 clusters for 5 generations
USER: GENES 24
USER: genes 0 Translation |==|  0.50201 0.54219 0.48558
USER: genes 1 Rotation |==|  0.47614 0.51784 0.47447 0.99846
USER: genes 2 Torsion [CB]-CA--N-[C] |==|  0.26982
USER: genes 3 Torsion [N]-C--CA-[N] |==|  0.81114
USER: genes 4 Torsion [C]-CA--CB-[CG] |==|  0.18383
USER: genes 5 Torsion [CA]-CB--CG-[CD1] |==|  0.73363
USER: genes 6 Torsion [C]-CA--N-[C] |==|  0.20371
USER: genes 7 Torsion [N]-C--CA-[N] |==|  0.42975
USER: genes 8 Torsion [C]-CA--CB-[CG] |==|  0.14906
USER: genes 9 Torsion [CA]-CB--CG-[CD1] |==|  0.68527
USER: genes 10 Torsion [CE1]-CZ--OH-[HH] |==|  0.50126
USER: genes 11 Torsion [N]-CA--CB-[CG2] |==|  0.62332
USER: genes 12 Torsion [N]-CA--C-[N] |==|  0.43828
USER: genes 13 Torsion [C]-N--CA-[CB] |==|  0.22222
USER: genes 14 Torsion [N]-CA--CB-[CG2] |==|  0.44464
USER: genes 15 Torsion [CA]-CB--OG1-[HG1] |==|  0.27500
USER: genes 16 Torsion [N]-CA--C-[N] |==|  0.31472
USER: genes 17 Torsion [C]-N--CA-[C] |==|  0.80985
USER: genes 18 Torsion [N]-CA--C-[N] |==|  0.40409
USER: genes 19 Torsion [C]-N--CA-[C] |==|  0.59558
USER: genes 20 Torsion [N]-CA--C-[OXT] |==|  0.39776
USER: genes 21 Torsion [N]-CA--CB-[CG2] |==|  0.02769
USER: genes 22 Torsion [N]-CA--CB-[OG] |==|  0.81471
USER: genes 23 Torsion [CA]-CB--OG-[HG] |==|  0.89589
ROOT
ATOM      1  CA  VAL B2840      -2.977 -13.493  21.070  1.00 12.24 LIG 0.18  C 
ENDROOT
BRANCH 1 2
ATOM      2  N   VAL B2840      -3.015 -13.700  22.516  1.00  7.10 LIG-0.35  N 
ATOM      3  C   LEU B2839      -2.440 -12.843  23.354  1.00  9.29 LIG 0.24  C 
ATOM      4 O    LEU B2839      -1.738 -11.899  22.978  1.00  7.82 LIG-0.27  OA
ATOM      5 H    VAL B2840      -3.433 -14.409  22.764  1.00  7.10 LIG 0.16  HD
BRANCH 3 6
ATOM      6  CA  LEU B2839      -2.668 -13.095  24.833  1.00  6.33 LIG 0.18  C 
BRANCH 6 7
ATOM      7  CB  LEU B2839      -2.248 -14.530  25.168  1.00 14.59 LIG 0.04  C 
BRANCH 7 8
ATOM      8  CG  LEU B2839      -0.758 -14.818  25.025  1.00 24.41 LIG-0.02  C 
ATOM      9  CD1 LEU B2839      -0.433 -15.439  23.656  1.00 21.70 LIG 0.01  C 
ATOM     10  CD2 LEU B2839       0.043 -13.539  25.264  1.00 24.63 LIG 0.01  C 
ENDBRANCH 7 8
ENDBRANCH 6 7
BRANCH 6 11
ATOM     11  N   LEU B2839      -4.070 -12.861  25.193  1.00 12.50 LIG-0.35  N 
ATOM     12 H    LEU B2839      -4.204 -12.138  25.639  1.00 12.50 LIG 0.16  HD
ATOM     13  C   TYR B2838      -5.039 -13.712  24.845  1.00 14.62 LIG 0.26  C 
ATOM     14 O    TYR B2838      -4.847 -14.710  24.152  1.00 16.58 LIG-0.27  OA
BRANCH 13 15
ATOM     15  CA  TYR B2838      -6.447 -13.405  25.338  1.00 17.58 LIG 0.40  C 
ATOM     16  N   TYR B2838      -7.487 -13.978  24.493  1.00 19.10 LIG 0.61  N 
BRANCH 15 17
ATOM     17  CB  TYR B2838      -6.613 -13.833  26.796  1.00 37.20 LIG 0.09  C 
BRANCH 17 18
ATOM     18  CG  TYR B2838      -5.556 -13.246  27.701  1.00 53.42 LIG-0.06  A 
ATOM     19  CD1 TYR B2838      -4.610 -14.061  28.317  1.00 57.26 LIG 0.01  A 
ATOM     20  CE1 TYR B2838      -3.633 -13.528  29.147  1.00 58.59 LIG 0.04  A 
ATOM     21  CZ  TYR B2838      -3.592 -12.163  29.368  1.00 63.46 LIG 0.07  A 
ATOM     22  CE2 TYR B2838      -4.519 -11.332  28.767  1.00 67.17 LIG 0.04  A 
ATOM     23  CD2 TYR B2838      -5.495 -11.877  27.936  1.00 64.10 LIG 0.01  A 
BRANCH 21 24
ATOM     24 OH   TYR B2838      -2.625 -11.630  30.193  1.00 64.89 LIG-0.36  OA
ATOM     25 HH   TYR B2838      -2.724 -10.797  30.239  1.00 64.89 LIG 0.22  HD
ENDBRANCH 21 24
ENDBRANCH 17 18
ENDBRANCH 15 17
ENDBRANCH 13 15
ENDBRANCH 6 11
ENDBRANCH 3 6
ENDBRANCH 1 2
BRANCH 1 26
ATOM     26  CB  VAL B2840      -1.843 -14.302  20.400  1.00 14.53 LIG 0.01  C 
ATOM     27  CG1 VAL B2840      -2.412 -15.539  19.723  1.00 16.85 LIG 0.01  C 
ATOM     28  CG2 VAL B2840      -1.105 -13.434  19.386  1.00 19.78 LIG 0.01  C 
ENDBRANCH 1 26
BRANCH 1 29
ATOM     29  C   VAL B2840      -4.321 -13.872  20.445  1.00 10.08 LIG 0.24  C 
ATOM     30 O    VAL B2840      -5.079 -14.647  21.017  1.00 13.99 LIG-0.27  OA
ATOM     31  N   THR B2841      -4.614 -13.338  19.264  1.00  7.81 LIG-0.34  N 
ATOM     32 H    THR B2841      -4.072 -12.855  18.803  1.00  7.81 LIG 0.16  HD
BRANCH 31 33
ATOM     33  CA  THR B2841      -5.922 -13.545  18.649  1.00  9.28 LIG 0.20  C 
BRANCH 33 34
ATOM     34  CB  THR B2841      -6.976 -12.606  19.251  1.00  5.66 LIG 0.15  C 
ATOM     35  CG2 THR B2841      -8.184 -12.462  18.307  1.00  2.82 LIG 0.04  C 
BRANCH 34 36
ATOM     36 OG1  THR B2841      -7.425 -13.145  20.500  1.00  4.58 LIG-0.39  OA
ATOM     37 HG1  THR B2841      -7.026 -12.760  21.131  1.00  4.58 LIG 0.21  HD
ENDBRANCH 34 36
ENDBRANCH 33 34
BRANCH 33 38
ATOM     38  C   THR B2841      -5.892 -13.337  17.141  1.00 11.02 LIG 0.24  C 
ATOM     39  N   SER B2842      -6.108 -14.421  16.390  1.00  4.17 LIG-0.34  N 
ATOM     40 H    SER B2842      -6.172 -15.219  16.706  1.00  4.17 LIG 0.16  HD
ATOM     41 O    THR B2841      -5.669 -12.219  16.671  1.00  9.65 LIG-0.27  OA
BRANCH 39 42
ATOM     42  CA  SER B2842      -6.255 -14.330  14.944  1.00  7.92 LIG 0.20  C 
BRANCH 42 43
ATOM     43  C   SER B2842      -7.549 -13.617  14.607  1.00  8.41 LIG 0.24  C 
ATOM     44  N   VAL B2843      -7.523 -12.851  13.523  1.00 12.74 LIG-0.34  N 
ATOM     45 H    VAL B2843      -6.837 -12.773  13.011  1.00 12.74 LIG 0.16  HD
ATOM     46 O    SER B2842      -8.541 -13.750  15.316  1.00  7.66 LIG-0.27  OA
BRANCH 44 47
ATOM     47  CA  VAL B2843      -8.669 -12.064  13.104  1.00 16.92 LIG 0.19  C 
BRANCH 47 48
ATOM     48  C   VAL B2843      -8.744 -11.991  11.579  1.00 17.95 LIG 0.20  C 
ATOM     49 OXT  VAL B2843      -9.839 -12.009  10.998  1.00 12.52 LIG-0.65  OA
ATOM     50 O    VAL B2843      -7.721 -11.907  10.898  1.00 13.13 LIG-0.65  OA
ENDBRANCH 47 48
BRANCH 47 51
ATOM     51  CB  VAL B2843      -8.607 -10.640  13.704  1.00 12.90 LIG 0.01  C 
ATOM     52  CG2 VAL B2843      -7.253 -10.376  14.362  1.00 11.86 LIG 0.01  C 
ATOM     53  CG1 VAL B2843      -9.730 -10.445  14.706  1.00 11.26 LIG 0.01  C 
ENDBRANCH 47 51
ENDBRANCH 44 47
ENDBRANCH 42 43
BRANCH 42 54
ATOM     54  CB  SER B2842      -6.224 -15.717  14.289  1.00 13.40 LIG 0.20  C 
BRANCH 54 55
ATOM     55 OG   SER B2842      -4.950 -16.318  14.423  1.00 24.06 LIG-0.40  OA
ATOM     56 HG   SER B2842      -4.354 -15.731  14.344  1.00 24.06 LIG 0.21  HD
ENDBRANCH 54 55
ENDBRANCH 42 54
ENDBRANCH 39 42
ENDBRANCH 33 38
ENDBRANCH 31 33
ENDBRANCH 1 29
TORSDOF 22
ENDMDL
MODEL 8
USER: ADFR SOLUTION from run 65
USER: SCORE 15.968743 LL:  -4.494 LR: -13.967 RR:   0.000 FEB:  -7.405
USER: RMSD 6.515824
USER: SEED 64
USER: STATUS searching
USER: GENES 24
USER: genes 0 Translation |==|  0.36117 0.53682 0.41128
USER: genes 1 Rotation |==|  0.71088 0.51478 0.95009 0.55223
USER: genes 2 Torsion [CB]-CA--N-[C] |==|  0.26977
USER: genes 3 Torsion [N]-C--CA-[N] |==|  0.43292
USER: genes 4 Torsion [C]-CA--CB-[CG] |==|  0.20425
USER: genes 5 Torsion [CA]-CB--CG-[CD1] |==|  0.32499
USER: genes 6 Torsion [C]-CA--N-[C] |==|  0.63252
USER: genes 7 Torsion [N]-C--CA-[N] |==|  0.33517
USER: genes 8 Torsion [C]-CA--CB-[CG] |==|  0.19537
USER: genes 9 Torsion [CA]-CB--CG-[CD1] |==|  0.02194
USER: genes 10 Torsion [CE1]-CZ--OH-[HH] |==|  0.11354
USER: genes 11 Torsion [N]-CA--CB-[CG2] |==|  0.63265
USER: genes 12 Torsion [N]-CA--C-[N] |==|  0.44102
USER: genes 13 Torsion [C]-N--CA-[CB] |==|  0.27133
USER: genes 14 Torsion [N]-CA--CB-[CG2] |==|  0.19389
USER: genes 15 Torsion [CA]-CB--OG1-[HG1] |==|  0.28876
USER: genes 16 Torsion [N]-CA--C-[N] |==|  0.44498
USER: genes 17 Torsion [C]-N--CA-[C] |==|  0.69873
USER: genes 18 Torsion [N]-CA--C-[N] |==|  0.08662
USER: genes 19 Torsion [C]-N--CA-[C] |==|  0.64032
USER: genes 20 Torsion [N]-CA--C-[OXT] |==|  0.42678
USER: genes 21 Torsion [N]-CA--CB-[CG2] |==|  0.26543
USER: genes 22 Torsion [N]-CA--CB-[OG] |==|  0.12306
USER: genes 23 Torsion [CA]-CB--OG-[HG] |==|  0.95902
ROOT
ATOM      1  CA  VAL B2840      -6.146 -13.578  18.841  1.00 12.24 LIG 0.18  C 
ENDROOT
BRANCH 1 2
ATOM      2  N   VAL B2840      -4.936 -13.309  19.616  1.00  7.10 LIG-0.35  N 
ATOM      3  C   LEU B2839      -4.605 -14.054  20.665  1.00  9.29 LIG 0.24  C 
ATOM      4 O    LEU B2839      -5.341 -14.929  21.131  1.00  7.82 LIG-0.27  OA
ATOM      5 H    VAL B2840      -4.474 -12.640  19.335  1.00  7.10 LIG 0.16  HD
BRANCH 3 6
ATOM      6  CA  LEU B2839      -3.258 -13.760  21.299  1.00  6.33 LIG 0.18  C 
BRANCH 6 7
ATOM      7  CB  LEU B2839      -2.160 -14.465  20.494  1.00 14.59 LIG 0.04  C 
BRANCH 7 8
ATOM      8  CG  LEU B2839      -1.842 -13.833  19.143  1.00 24.41 LIG-0.02  C 
ATOM      9  CD1 LEU B2839      -0.393 -13.318  19.091  1.00 21.70 LIG 0.01  C 
ATOM     10  CD2 LEU B2839      -2.122 -14.833  18.023  1.00 24.63 LIG 0.01  C 
ENDBRANCH 7 8
ENDBRANCH 6 7
BRANCH 6 11
ATOM     11  N   LEU B2839      -3.236 -14.187  22.701  1.00 12.50 LIG-0.35  N 
ATOM     12 H    LEU B2839      -3.539 -14.981  22.833  1.00 12.50 LIG 0.16  HD
ATOM     13  C   TYR B2838      -2.781 -13.393  23.674  1.00 14.62 LIG 0.26  C 
ATOM     14 O    TYR B2838      -2.292 -12.283  23.469  1.00 16.58 LIG-0.27  OA
BRANCH 13 15
ATOM     15  CA  TYR B2838      -2.877 -13.914  25.102  1.00 17.58 LIG 0.40  C 
ATOM     16  N   TYR B2838      -1.584 -14.007  25.766  1.00 19.10 LIG 0.61  N 
BRANCH 15 17
ATOM     17  CB  TYR B2838      -3.865 -13.078  25.915  1.00 37.20 LIG 0.09  C 
BRANCH 17 18
ATOM     18  CG  TYR B2838      -5.299 -13.292  25.493  1.00 53.42 LIG-0.06  A 
ATOM     19  CD1 TYR B2838      -5.634 -14.289  24.579  1.00 57.26 LIG 0.01  A 
ATOM     20  CE1 TYR B2838      -6.951 -14.493  24.190  1.00 58.59 LIG 0.04  A 
ATOM     21  CZ  TYR B2838      -7.953 -13.699  24.718  1.00 63.46 LIG 0.07  A 
ATOM     22  CE2 TYR B2838      -7.647 -12.705  25.628  1.00 67.17 LIG 0.04  A 
ATOM     23  CD2 TYR B2838      -6.323 -12.507  26.012  1.00 64.10 LIG 0.01  A 
BRANCH 21 24
ATOM     24 OH   TYR B2838      -9.262 -13.899  24.333  1.00 64.89 LIG-0.36  OA
ATOM     25 HH   TYR B2838      -9.417 -14.723  24.283  1.00 64.89 LIG 0.22  HD
ENDBRANCH 21 24
ENDBRANCH 17 18
ENDBRANCH 15 17
ENDBRANCH 13 15
ENDBRANCH 6 11
ENDBRANCH 3 6
ENDBRANCH 1 2
BRANCH 1 26
ATOM     26  CB  VAL B2840      -7.324 -12.680  19.278  1.00 14.53 LIG 0.01  C 
ATOM     27  CG1 VAL B2840      -7.572 -11.598  18.239  1.00 16.85 LIG 0.01  C 
ATOM     28  CG2 VAL B2840      -8.582 -13.521  19.478  1.00 19.78 LIG 0.01  C 
ENDBRANCH 1 26
BRANCH 1 29
ATOM     29  C   VAL B2840      -5.873 -13.384  17.348  1.00 10.08 LIG 0.24  C 
ATOM     30 O    VAL B2840      -4.938 -12.687  16.971  1.00 13.99 LIG-0.27  OA
ATOM     31  N   THR B2841      -6.696 -13.986  16.497  1.00  7.81 LIG-0.34  N 
ATOM     32 H    THR B2841      -7.404 -14.416  16.729  1.00  7.81 LIG 0.16  HD
BRANCH 31 33
ATOM     33  CA  THR B2841      -6.443 -13.957  15.059  1.00  9.28 LIG 0.20  C 
BRANCH 33 34
ATOM     34  CB  THR B2841      -5.746 -15.241  14.589  1.00  5.66 LIG 0.15  C 
ATOM     35  CG2 THR B2841      -6.704 -16.444  14.665  1.00  2.82 LIG 0.04  C 
BRANCH 34 36
ATOM     36 OG1  THR B2841      -5.319 -15.073  13.232  1.00  4.58 LIG-0.39  OA
ATOM     37 HG1  THR B2841      -4.489 -14.941  13.214  1.00  4.58 LIG 0.21  HD
ENDBRANCH 34 36
ENDBRANCH 33 34
BRANCH 33 38
ATOM     38  C   THR B2841      -7.721 -13.776  14.250  1.00 11.02 LIG 0.24  C 
ATOM     39  N   SER B2842      -7.570 -13.334  12.998  1.00  4.17 LIG-0.34  N 
ATOM     40 H    SER B2842      -6.820 -13.071  12.669  1.00  4.17 LIG 0.16  HD
ATOM     41 O    THR B2841      -8.818 -14.024  14.756  1.00  9.65 LIG-0.27  OA
BRANCH 39 42
ATOM     42  CA  SER B2842      -8.694 -13.262  12.075  1.00  7.92 LIG 0.20  C 
BRANCH 42 43
ATOM     43  C   SER B2842      -8.552 -14.338  11.016  1.00  8.41 LIG 0.24  C 
ATOM     44  N   VAL B2843      -7.945 -15.454  11.403  1.00 12.74 LIG-0.34  N 
ATOM     45 H    VAL B2843      -7.670 -15.593  12.205  1.00 12.74 LIG 0.16  HD
ATOM     46 O    SER B2842      -8.973 -14.158   9.879  1.00  7.66 LIG-0.27  OA
BRANCH 44 47
ATOM     47  CA  VAL B2843      -7.689 -16.552  10.488  1.00 16.92 LIG 0.19  C 
BRANCH 47 48
ATOM     48  C   VAL B2843      -8.181 -17.873  11.080  1.00 17.95 LIG 0.20  C 
ATOM     49 OXT  VAL B2843      -8.512 -18.812  10.341  1.00 12.52 LIG-0.65  OA
ATOM     50 O    VAL B2843      -8.255 -18.032  12.299  1.00 13.13 LIG-0.65  OA
ENDBRANCH 47 48
BRANCH 47 51
ATOM     51  CB  VAL B2843      -6.183 -16.647  10.151  1.00 12.90 LIG 0.01  C 
ATOM     52  CG2 VAL B2843      -5.478 -17.662  11.052  1.00 11.86 LIG 0.01  C 
ATOM     53  CG1 VAL B2843      -5.530 -15.283  10.279  1.00 11.26 LIG 0.01  C 
ENDBRANCH 47 51
ENDBRANCH 44 47
ENDBRANCH 42 43
BRANCH 42 54
ATOM     54  CB  SER B2842      -8.793 -11.879  11.418  1.00 13.40 LIG 0.20  C 
BRANCH 54 55
ATOM     55 OG   SER B2842      -7.522 -11.420  10.999  1.00 24.06 LIG-0.40  OA
ATOM     56 HG   SER B2842      -6.923 -11.886  11.359  1.00 24.06 LIG 0.21  HD
ENDBRANCH 54 55
ENDBRANCH 42 54
ENDBRANCH 39 42
ENDBRANCH 33 38
ENDBRANCH 31 33
ENDBRANCH 1 29
TORSDOF 22
ENDMDL
MODEL 9
USER: ADFR SOLUTION from run 65
USER: SCORE 16.066739 LL:  -4.403 LR: -13.968 RR:   0.000 FEB:  -7.405
USER: RMSD 5.544645
USER: SEED 64
USER: STATUS searching
USER: GENES 24
USER: genes 0 Translation |==|  0.39855 0.48535 0.41075
USER: genes 1 Rotation |==|  0.25276 0.50217 0.07553 0.59325
USER: genes 2 Torsion [CB]-CA--N-[C] |==|  0.21696
USER: genes 3 Torsion [N]-C--CA-[N] |==|  0.39706
USER: genes 4 Torsion [C]-CA--CB-[CG] |==|  0.27775
USER: genes 5 Torsion [CA]-CB--CG-[CD1] |==|  0.39837
USER: genes 6 Torsion [C]-CA--N-[C] |==|  0.67235
USER: genes 7 Torsion [N]-C--CA-[N] |==|  0.83931
USER: genes 8 Torsion [C]-CA--CB-[CG] |==|  0.11193
USER: genes 9 Torsion [CA]-CB--CG-[CD1] |==|  0.18439
USER: genes 10 Torsion [CE1]-CZ--OH-[HH] |==|  0.83763
USER: genes 11 Torsion [N]-CA--CB-[CG2] |==|  0.55314
USER: genes 12 Torsion [N]-CA--C-[N] |==|  0.41391
USER: genes 13 Torsion [C]-N--CA-[CB] |==|  0.45111
USER: genes 14 Torsion [N]-CA--CB-[CG2] |==|  0.32685
USER: genes 15 Torsion [CA]-CB--OG1-[HG1] |==|  0.06535
USER: genes 16 Torsion [N]-CA--C-[N] |==|  0.41807
USER: genes 17 Torsion [C]-N--CA-[C] |==|  0.70538
USER: genes 18 Torsion [N]-CA--C-[N] |==|  0.34656
USER: genes 19 Torsion [C]-N--CA-[C] |==|  0.58750
USER: genes 20 Torsion [N]-CA--C-[OXT] |==|  0.54930
USER: genes 21 Torsion [N]-CA--CB-[CG2] |==|  0.13484
USER: genes 22 Torsion [N]-CA--CB-[OG] |==|  0.91168
USER: genes 23 Torsion [CA]-CB--OG-[HG] |==|  0.97920
ROOT
ATOM      1  CA  VAL B2840      -5.305 -14.389  18.826  1.00 12.24 LIG 0.18  C 
ENDROOT
BRANCH 1 2
ATOM      2  N   VAL B2840      -4.175 -13.776  19.522  1.00  7.10 LIG-0.35  N 
ATOM      3  C   LEU B2839      -3.529 -14.415  20.491  1.00  9.29 LIG 0.24  C 
ATOM      4 O    LEU B2839      -3.905 -15.497  20.955  1.00  7.82 LIG-0.27  OA
ATOM      5 H    VAL B2840      -3.976 -12.985  19.250  1.00  7.10 LIG 0.16  HD
BRANCH 3 6
ATOM      6  CA  LEU B2839      -2.291 -13.729  21.039  1.00  6.33 LIG 0.18  C 
BRANCH 6 7
ATOM      7  CB  LEU B2839      -1.056 -14.268  20.308  1.00 14.59 LIG 0.04  C 
BRANCH 7 8
ATOM      8  CG  LEU B2839      -0.523 -13.373  19.194  1.00 24.41 LIG-0.02  C 
ATOM      9  CD1 LEU B2839       1.014 -13.408  19.131  1.00 21.70 LIG 0.01  C 
ATOM     10  CD2 LEU B2839      -1.147 -13.778  17.859  1.00 24.63 LIG 0.01  C 
ENDBRANCH 7 8
ENDBRANCH 6 7
BRANCH 6 11
ATOM     11  N   LEU B2839      -2.176 -13.937  22.485  1.00 12.50 LIG-0.35  N 
ATOM     12 H    LEU B2839      -2.090 -14.760  22.718  1.00 12.50 LIG 0.16  HD
ATOM     13  C   TYR B2838      -2.205 -12.918  23.349  1.00 14.62 LIG 0.26  C 
ATOM     14 O    TYR B2838      -2.264 -11.739  23.002  1.00 16.58 LIG-0.27  OA
BRANCH 13 15
ATOM     15  CA  TYR B2838      -2.153 -13.259  24.832  1.00 17.58 LIG 0.40  C 
ATOM     16  N   TYR B2838      -3.237 -14.136  25.256  1.00 19.10 LIG 0.61  N 
BRANCH 15 17
ATOM     17  CB  TYR B2838      -0.789 -13.836  25.206  1.00 37.20 LIG 0.09  C 
BRANCH 17 18
ATOM     18  CG  TYR B2838       0.355 -13.124  24.521  1.00 53.42 LIG-0.06  A 
ATOM     19  CD1 TYR B2838       0.650 -11.797  24.818  1.00 57.26 LIG 0.01  A 
ATOM     20  CE1 TYR B2838       1.702 -11.138  24.196  1.00 58.59 LIG 0.04  A 
ATOM     21  CZ  TYR B2838       2.476 -11.809  23.266  1.00 63.46 LIG 0.07  A 
ATOM     22  CE2 TYR B2838       2.205 -13.128  22.956  1.00 67.17 LIG 0.04  A 
ATOM     23  CD2 TYR B2838       1.146 -13.780  23.585  1.00 64.10 LIG 0.01  A 
BRANCH 21 24
ATOM     24 OH   TYR B2838       3.521 -11.158  22.645  1.00 64.89 LIG-0.36  OA
ATOM     25 HH   TYR B2838       3.229 -10.481  22.241  1.00 64.89 LIG 0.22  HD
ENDBRANCH 21 24
ENDBRANCH 17 18
ENDBRANCH 15 17
ENDBRANCH 13 15
ENDBRANCH 6 11
ENDBRANCH 3 6
ENDBRANCH 1 2
BRANCH 1 26
ATOM     26  CB  VAL B2840      -6.602 -14.327  19.662  1.00 14.53 LIG 0.01  C 
ATOM     27  CG1 VAL B2840      -7.198 -12.929  19.604  1.00 16.85 LIG 0.01  C 
ATOM     28  CG2 VAL B2840      -7.608 -15.354  19.151  1.00 19.78 LIG 0.01  C 
ENDBRANCH 1 26
BRANCH 1 29
ATOM     29  C   VAL B2840      -5.528 -13.707  17.474  1.00 10.08 LIG 0.24  C 
ATOM     30 O    VAL B2840      -5.272 -12.517  17.326  1.00 13.99 LIG-0.27  OA
ATOM     31  N   THR B2841      -6.018 -14.453  16.490  1.00  7.81 LIG-0.34  N 
ATOM     32 H    THR B2841      -6.280 -15.267  16.584  1.00  7.81 LIG 0.16  HD
BRANCH 31 33
ATOM     33  CA  THR B2841      -6.150 -13.920  15.137  1.00  9.28 LIG 0.20  C 
BRANCH 33 34
ATOM     34  CB  THR B2841      -6.315 -15.047  14.108  1.00  5.66 LIG 0.15  C 
ATOM     35  CG2 THR B2841      -7.676 -14.943  13.396  1.00  2.82 LIG 0.04  C 
BRANCH 34 36
ATOM     36 OG1  THR B2841      -5.272 -14.947  13.132  1.00  4.58 LIG-0.39  OA
ATOM     37 HG1  THR B2841      -4.619 -14.533  13.461  1.00  4.58 LIG 0.21  HD
ENDBRANCH 34 36
ENDBRANCH 33 34
BRANCH 33 38
ATOM     38  C   THR B2841      -7.329 -12.966  15.003  1.00 11.02 LIG 0.24  C 
ATOM     39  N   SER B2842      -7.206 -12.000  14.087  1.00  4.17 LIG-0.34  N 
ATOM     40 H    SER B2842      -6.483 -11.844  13.648  1.00  4.17 LIG 0.16  HD
ATOM     41 O    THR B2841      -8.323 -13.098  15.722  1.00  9.65 LIG-0.27  OA
BRANCH 39 42
ATOM     42  CA  SER B2842      -8.317 -11.118  13.756  1.00  7.92 LIG 0.20  C 
BRANCH 42 43
ATOM     43  C   SER B2842      -8.881 -11.497  12.401  1.00  8.41 LIG 0.24  C 
ATOM     44  N   VAL B2843     -10.181 -11.764  12.370  1.00 12.74 LIG-0.34  N 
ATOM     45 H    VAL B2843     -10.697 -11.703  13.055  1.00 12.74 LIG 0.16  HD
ATOM     46 O    SER B2842      -8.157 -11.554  11.414  1.00  7.66 LIG-0.27  OA
BRANCH 44 47
ATOM     47  CA  VAL B2843     -10.855 -12.192  11.157  1.00 16.92 LIG 0.19  C 
BRANCH 47 48
ATOM     48  C   VAL B2843     -12.303 -11.703  11.142  1.00 17.95 LIG 0.20  C 
ATOM     49 OXT  VAL B2843     -13.136 -12.217  10.381  1.00 12.52 LIG-0.65  OA
ATOM     50 O    VAL B2843     -12.671 -10.794  11.886  1.00 13.13 LIG-0.65  OA
ENDBRANCH 47 48
BRANCH 47 51
ATOM     51  CB  VAL B2843     -10.811 -13.732  11.018  1.00 12.90 LIG 0.01  C 
ATOM     52  CG2 VAL B2843     -11.238 -14.416  12.318  1.00 11.86 LIG 0.01  C 
ATOM     53  CG1 VAL B2843      -9.420 -14.183  10.615  1.00 11.26 LIG 0.01  C 
ENDBRANCH 47 51
ENDBRANCH 44 47
ENDBRANCH 42 43
BRANCH 42 54
ATOM     54  CB  SER B2842      -7.884  -9.646  13.760  1.00 13.40 LIG 0.20  C 
BRANCH 54 55
ATOM     55 OG   SER B2842      -6.861  -9.417  14.711  1.00 24.06 LIG-0.40  OA
ATOM     56 HG   SER B2842      -6.747 -10.109  15.173  1.00 24.06 LIG 0.21  HD
ENDBRANCH 54 55
ENDBRANCH 42 54
ENDBRANCH 39 42
ENDBRANCH 33 38
ENDBRANCH 31 33
ENDBRANCH 1 29
TORSDOF 22
ENDMDL
MODEL 10
USER: ADFR SOLUTION from run 65
USER: SCORE 16.981125 LL:  -5.135 LR: -13.965 RR:   0.000 FEB:  -7.403
USER: RMSD 5.589270
USER: SEED 64
USER: STATUS searching
USER: GENES 24
USER: genes 0 Translation |==|  0.36800 0.52504 0.41408
USER: genes 1 Rotation |==|  0.75174 0.51371 0.93164 0.51139
USER: genes 2 Torsion [CB]-CA--N-[C] |==|  0.22222
USER: genes 3 Torsion [N]-C--CA-[N] |==|  0.44965
USER: genes 4 Torsion [C]-CA--CB-[CG] |==|  0.32166
USER: genes 5 Torsion [CA]-CB--CG-[CD1] |==|  0.31628
USER: genes 6 Torsion [C]-CA--N-[C] |==|  0.65543
USER: genes 7 Torsion [N]-C--CA-[N] |==|  0.89107
USER: genes 8 Torsion [C]-CA--CB-[CG] |==|  0.13434
USER: genes 9 Torsion [CA]-CB--CG-[CD1] |==|  0.18506
USER: genes 10 Torsion [CE1]-CZ--OH-[HH] |==|  0.69563
USER: genes 11 Torsion [N]-CA--CB-[CG2] |==|  0.62265
USER: genes 12 Torsion [N]-CA--C-[N] |==|  0.45872
USER: genes 13 Torsion [C]-N--CA-[CB] |==|  0.48095
USER: genes 14 Torsion [N]-CA--CB-[CG2] |==|  0.75609
USER: genes 15 Torsion [CA]-CB--OG1-[HG1] |==|  0.15753
USER: genes 16 Torsion [N]-CA--C-[N] |==|  0.52734
USER: genes 17 Torsion [C]-N--CA-[C] |==|  0.80938
USER: genes 18 Torsion [N]-CA--C-[N] |==|  0.96856
USER: genes 19 Torsion [C]-N--CA-[C] |==|  0.62236
USER: genes 20 Torsion [N]-CA--C-[OXT] |==|  0.44058
USER: genes 21 Torsion [N]-CA--CB-[CG2] |==|  0.08988
USER: genes 22 Torsion [N]-CA--CB-[OG] |==|  0.00416
USER: genes 23 Torsion [CA]-CB--OG-[HG] |==|  0.89149
ROOT
ATOM      1  CA  VAL B2840      -5.992 -13.764  18.925  1.00 12.24 LIG 0.18  C 
ENDROOT
BRANCH 1 2
ATOM      2  N   VAL B2840      -4.702 -13.386  19.499  1.00  7.10 LIG-0.35  N 
ATOM      3  C   LEU B2839      -4.247 -13.950  20.612  1.00  9.29 LIG 0.24  C 
ATOM      4 O    LEU B2839      -4.920 -14.724  21.301  1.00  7.82 LIG-0.27  OA
ATOM      5 H    VAL B2840      -4.279 -12.782  19.057  1.00  7.10 LIG 0.16  HD
BRANCH 3 6
ATOM      6  CA  LEU B2839      -2.837 -13.575  21.028  1.00  6.33 LIG 0.18  C 
BRANCH 6 7
ATOM      7  CB  LEU B2839      -1.837 -14.310  20.128  1.00 14.59 LIG 0.04  C 
BRANCH 7 8
ATOM      8  CG  LEU B2839      -0.978 -13.410  19.246  1.00 24.41 LIG-0.02  C 
ATOM      9  CD1 LEU B2839       0.505 -13.477  19.648  1.00 21.70 LIG 0.01  C 
ATOM     10  CD2 LEU B2839      -1.178 -13.780  17.777  1.00 24.63 LIG 0.01  C 
ENDBRANCH 7 8
ENDBRANCH 6 7
BRANCH 6 11
ATOM     11  N   LEU B2839      -2.606 -13.895  22.439  1.00 12.50 LIG-0.35  N 
ATOM     12 H    LEU B2839      -2.753 -14.717  22.644  1.00 12.50 LIG 0.16  HD
ATOM     13  C   TYR B2838      -2.201 -12.972  23.316  1.00 14.62 LIG 0.26  C 
ATOM     14 O    TYR B2838      -1.932 -11.812  23.002  1.00 16.58 LIG-0.27  OA
BRANCH 13 15
ATOM     15  CA  TYR B2838      -2.067 -13.401  24.771  1.00 17.58 LIG 0.40  C 
ATOM     16  N   TYR B2838      -3.129 -14.301  25.202  1.00 19.10 LIG 0.61  N 
BRANCH 15 17
ATOM     17  CB  TYR B2838      -0.686 -14.002  25.030  1.00 37.20 LIG 0.09  C 
BRANCH 17 18
ATOM     18  CG  TYR B2838       0.435 -13.146  24.490  1.00 53.42 LIG-0.06  A 
ATOM     19  CD1 TYR B2838       0.701 -11.891  25.032  1.00 57.26 LIG 0.01  A 
ATOM     20  CE1 TYR B2838       1.733 -11.101  24.543  1.00 58.59 LIG 0.04  A 
ATOM     21  CZ  TYR B2838       2.516 -11.565  23.501  1.00 63.46 LIG 0.07  A 
ATOM     22  CE2 TYR B2838       2.274 -12.808  22.947  1.00 67.17 LIG 0.04  A 
ATOM     23  CD2 TYR B2838       1.236 -13.593  23.444  1.00 64.10 LIG 0.01  A 
BRANCH 21 24
ATOM     24 OH   TYR B2838       3.540 -10.783  23.011  1.00 64.89 LIG-0.36  OA
ATOM     25 HH   TYR B2838       3.339 -10.505  22.244  1.00 64.89 LIG 0.22  HD
ENDBRANCH 21 24
ENDBRANCH 17 18
ENDBRANCH 15 17
ENDBRANCH 13 15
ENDBRANCH 6 11
ENDBRANCH 3 6
ENDBRANCH 1 2
BRANCH 1 26
ATOM     26  CB  VAL B2840      -7.170 -13.074  19.649  1.00 14.53 LIG 0.01  C 
ATOM     27  CG1 VAL B2840      -7.683 -11.906  18.822  1.00 16.85 LIG 0.01  C 
ATOM     28  CG2 VAL B2840      -8.292 -14.077  19.903  1.00 19.78 LIG 0.01  C 
ENDBRANCH 1 26
BRANCH 1 29
ATOM     29  C   VAL B2840      -6.030 -13.422  17.434  1.00 10.08 LIG 0.24  C 
ATOM     30 O    VAL B2840      -5.201 -12.662  16.948  1.00 13.99 LIG-0.27  OA
ATOM     31  N   THR B2841      -7.000 -13.969  16.710  1.00  7.81 LIG-0.34  N 
ATOM     32 H    THR B2841      -7.640 -14.442  17.036  1.00  7.81 LIG 0.16  HD
BRANCH 31 33
ATOM     33  CA  THR B2841      -7.044 -13.798  15.260  1.00  9.28 LIG 0.20  C 
BRANCH 33 34
ATOM     34  CB  THR B2841      -8.150 -14.656  14.630  1.00  5.66 LIG 0.15  C 
ATOM     35  CG2 THR B2841      -7.627 -16.066  14.299  1.00  2.82 LIG 0.04  C 
BRANCH 34 36
ATOM     36 OG1  THR B2841      -9.238 -14.770  15.555  1.00  4.58 LIG-0.39  OA
ATOM     37 HG1  THR B2841      -9.509 -14.003  15.765  1.00  4.58 LIG 0.21  HD
ENDBRANCH 34 36
ENDBRANCH 33 34
BRANCH 33 38
ATOM     38  C   THR B2841      -7.266 -12.347  14.855  1.00 11.02 LIG 0.24  C 
ATOM     39  N   SER B2842      -7.522 -12.127  13.562  1.00  4.17 LIG-0.34  N 
ATOM     40 H    SER B2842      -7.481 -12.734  12.955  1.00  4.17 LIG 0.16  HD
ATOM     41 O    THR B2841      -7.197 -11.448  15.697  1.00  9.65 LIG-0.27  OA
BRANCH 39 42
ATOM     42  CA  SER B2842      -7.900 -10.808  13.074  1.00  7.92 LIG 0.20  C 
BRANCH 42 43
ATOM     43  C   SER B2842      -9.280 -10.450  13.592  1.00  8.41 LIG 0.24  C 
ATOM     44  N   VAL B2843      -9.960 -11.439  14.159  1.00 12.74 LIG-0.34  N 
ATOM     45 H    VAL B2843      -9.646 -12.233  14.266  1.00 12.74 LIG 0.16  HD
ATOM     46 O    SER B2842      -9.718  -9.312  13.471  1.00  7.66 LIG-0.27  OA
BRANCH 44 47
ATOM     47  CA  VAL B2843     -11.313 -11.263  14.654  1.00 16.92 LIG 0.19  C 
BRANCH 47 48
ATOM     48  C   VAL B2843     -11.476 -11.919  16.025  1.00 17.95 LIG 0.20  C 
ATOM     49 OXT  VAL B2843     -12.387 -11.568  16.790  1.00 12.52 LIG-0.65  OA
ATOM     50 O    VAL B2843     -10.710 -12.809  16.396  1.00 13.13 LIG-0.65  OA
ENDBRANCH 47 48
BRANCH 47 51
ATOM     51  CB  VAL B2843     -12.343 -11.848  13.658  1.00 12.90 LIG 0.01  C 
ATOM     52  CG2 VAL B2843     -11.772 -13.061  12.922  1.00 11.86 LIG 0.01  C 
ATOM     53  CG1 VAL B2843     -12.777 -10.783  12.669  1.00 11.26 LIG 0.01  C 
ENDBRANCH 47 51
ENDBRANCH 44 47
ENDBRANCH 42 43
BRANCH 42 54
ATOM     54  CB  SER B2842      -7.874 -10.749  11.541  1.00 13.40 LIG 0.20  C 
BRANCH 54 55
ATOM     55 OG   SER B2842      -7.522 -12.002  10.987  1.00 24.06 LIG-0.40  OA
ATOM     56 HG   SER B2842      -6.922 -12.358  11.456  1.00 24.06 LIG 0.21  HD
ENDBRANCH 54 55
ENDBRANCH 42 54
ENDBRANCH 39 42
ENDBRANCH 33 38
ENDBRANCH 31 33
ENDBRANCH 1 29
TORSDOF 22
ENDMDL
MODEL 11
USER: ADFR SOLUTION from run 171
USER: SCORE 14.932897 LL:  -3.921 LR: -13.951 RR:   0.000 FEB:  -7.389
USER: RMSD 6.214459
USER: SEED 170
USER: STATUS no improvement in best in 11 clusters for 5 generations
USER: GENES 24
USER: genes 0 Translation |==|  0.36855 0.53150 0.41127
USER: genes 1 Rotation |==|  0.74743 0.49661 0.93425 0.51384
USER: genes 2 Torsion [CB]-CA--N-[C] |==|  0.19962
USER: genes 3 Torsion [N]-C--CA-[N] |==|  0.48286
USER: genes 4 Torsion [C]-CA--CB-[CG] |==|  0.39419
USER: genes 5 Torsion [CA]-CB--CG-[CD1] |==|  0.23591
USER: genes 6 Torsion [C]-CA--N-[C] |==|  0.68551
USER: genes 7 Torsion [N]-C--CA-[N] |==|  0.30483
USER: genes 8 Torsion [C]-CA--CB-[CG] |==|  0.17333
USER: genes 9 Torsion [CA]-CB--CG-[CD1] |==|  0.53589
USER: genes 10 Torsion [CE1]-CZ--OH-[HH] |==|  0.58561
USER: genes 11 Torsion [N]-CA--CB-[CG2] |==|  0.65786
USER: genes 12 Torsion [N]-CA--C-[N] |==|  0.41854
USER: genes 13 Torsion [C]-N--CA-[CB] |==|  0.38486
USER: genes 14 Torsion [N]-CA--CB-[CG2] |==|  0.37802
USER: genes 15 Torsion [CA]-CB--OG1-[HG1] |==|  0.97718
USER: genes 16 Torsion [N]-CA--C-[N] |==|  0.41153
USER: genes 17 Torsion [C]-N--CA-[C] |==|  0.85000
USER: genes 18 Torsion [N]-CA--C-[N] |==|  0.36847
USER: genes 19 Torsion [C]-N--CA-[C] |==|  0.63346
USER: genes 20 Torsion [N]-CA--C-[OXT] |==|  0.44722
USER: genes 21 Torsion [N]-CA--CB-[CG2] |==|  0.39500
USER: genes 22 Torsion [N]-CA--CB-[OG] |==|  0.10908
USER: genes 23 Torsion [CA]-CB--OG-[HG] |==|  0.97704
ROOT
ATOM      1  CA  VAL B2840      -5.980 -13.662  18.841  1.00 12.24 LIG 0.18  C 
ENDROOT
BRANCH 1 2
ATOM      2  N   VAL B2840      -4.688 -13.371  19.461  1.00  7.10 LIG-0.35  N 
ATOM      3  C   LEU B2839      -4.350 -13.893  20.635  1.00  9.29 LIG 0.24  C 
ATOM      4 O    LEU B2839      -5.133 -14.544  21.335  1.00  7.82 LIG-0.27  OA
ATOM      5 H    VAL B2840      -4.184 -12.845  19.004  1.00  7.10 LIG 0.16  HD
BRANCH 3 6
ATOM      6  CA  LEU B2839      -2.932 -13.628  21.105  1.00  6.33 LIG 0.18  C 
BRANCH 6 7
ATOM      7  CB  LEU B2839      -1.950 -14.286  20.129  1.00 14.59 LIG 0.04  C 
BRANCH 7 8
ATOM      8  CG  LEU B2839      -0.682 -13.486  19.850  1.00 24.41 LIG-0.02  C 
ATOM      9  CD1 LEU B2839       0.395 -13.748  20.915  1.00 21.70 LIG 0.01  C 
ATOM     10  CD2 LEU B2839      -0.169 -13.801  18.445  1.00 24.63 LIG 0.01  C 
ENDBRANCH 7 8
ENDBRANCH 6 7
BRANCH 6 11
ATOM     11  N   LEU B2839      -2.731 -14.127  22.468  1.00 12.50 LIG-0.35  N 
ATOM     12 H    LEU B2839      -2.769 -14.984  22.539  1.00 12.50 LIG 0.16  HD
ATOM     13  C   TYR B2838      -2.510 -13.304  23.497  1.00 14.62 LIG 0.26  C 
ATOM     14 O    TYR B2838      -2.395 -12.085  23.375  1.00 16.58 LIG-0.27  OA
BRANCH 13 15
ATOM     15  CA  TYR B2838      -2.392 -13.931  24.879  1.00 17.58 LIG 0.40  C 
ATOM     16  N   TYR B2838      -1.037 -13.885  25.415  1.00 19.10 LIG 0.61  N 
BRANCH 15 17
ATOM     17  CB  TYR B2838      -3.396 -13.302  25.844  1.00 37.20 LIG 0.09  C 
BRANCH 17 18
ATOM     18  CG  TYR B2838      -4.830 -13.529  25.427  1.00 53.42 LIG-0.06  A 
ATOM     19  CD1 TYR B2838      -5.868 -12.816  26.020  1.00 57.26 LIG 0.01  A 
ATOM     20  CE1 TYR B2838      -7.188 -13.017  25.639  1.00 58.59 LIG 0.04  A 
ATOM     21  CZ  TYR B2838      -7.482 -13.937  24.649  1.00 63.46 LIG 0.07  A 
ATOM     22  CE2 TYR B2838      -6.469 -14.655  24.042  1.00 67.17 LIG 0.04  A 
ATOM     23  CD2 TYR B2838      -5.148 -14.448  24.433  1.00 64.10 LIG 0.01  A 
BRANCH 21 24
ATOM     24 OH   TYR B2838      -8.792 -14.140  24.267  1.00 64.89 LIG-0.36  OA
ATOM     25 HH   TYR B2838      -8.891 -14.936  24.017  1.00 64.89 LIG 0.22  HD
ENDBRANCH 21 24
ENDBRANCH 17 18
ENDBRANCH 15 17
ENDBRANCH 13 15
ENDBRANCH 6 11
ENDBRANCH 3 6
ENDBRANCH 1 2
BRANCH 1 26
ATOM     26  CB  VAL B2840      -7.144 -12.962  19.577  1.00 14.53 LIG 0.01  C 
ATOM     27  CG1 VAL B2840      -7.793 -11.929  18.669  1.00 16.85 LIG 0.01  C 
ATOM     28  CG2 VAL B2840      -8.176 -13.992  20.030  1.00 19.78 LIG 0.01  C 
ENDBRANCH 1 26
BRANCH 1 29
ATOM     29  C   VAL B2840      -5.969 -13.240  17.370  1.00 10.08 LIG 0.24  C 
ATOM     30 O    VAL B2840      -5.275 -12.301  16.996  1.00 13.99 LIG-0.27  OA
ATOM     31  N   THR B2841      -6.747 -13.921  16.537  1.00  7.81 LIG-0.34  N 
ATOM     32 H    THR B2841      -7.302 -14.531  16.781  1.00  7.81 LIG 0.16  HD
BRANCH 31 33
ATOM     33  CA  THR B2841      -6.711 -13.669  15.099  1.00  9.28 LIG 0.20  C 
BRANCH 33 34
ATOM     34  CB  THR B2841      -6.769 -14.979  14.301  1.00  5.66 LIG 0.15  C 
ATOM     35  CG2 THR B2841      -7.743 -14.856  13.116  1.00  2.82 LIG 0.04  C 
BRANCH 34 36
ATOM     36 OG1  THR B2841      -5.462 -15.280  13.798  1.00  4.58 LIG-0.39  OA
ATOM     37 HG1  THR B2841      -4.950 -14.629  13.941  1.00  4.58 LIG 0.21  HD
ENDBRANCH 34 36
ENDBRANCH 33 34
BRANCH 33 38
ATOM     38  C   THR B2841      -7.852 -12.771  14.639  1.00 11.02 LIG 0.24  C 
ATOM     39  N   SER B2842      -7.592 -11.970  13.602  1.00  4.17 LIG-0.34  N 
ATOM     40 H    SER B2842      -6.813 -11.876  13.251  1.00  4.17 LIG 0.16  HD
ATOM     41 O    THR B2841      -8.940 -12.800  15.220  1.00  9.65 LIG-0.27  OA
BRANCH 39 42
ATOM     42  CA  SER B2842      -8.638 -11.175  12.972  1.00  7.92 LIG 0.20  C 
BRANCH 42 43
ATOM     43  C   SER B2842      -9.788 -12.077  12.567  1.00  8.41 LIG 0.24  C 
ATOM     44  N   VAL B2843     -11.001 -11.653  12.902  1.00 12.74 LIG-0.34  N 
ATOM     45 H    VAL B2843     -11.152 -10.904  13.295  1.00 12.74 LIG 0.16  HD
ATOM     46 O    SER B2842      -9.581 -13.130  11.976  1.00  7.66 LIG-0.27  OA
BRANCH 44 47
ATOM     47  CA  VAL B2843     -12.195 -12.433  12.629  1.00 16.92 LIG 0.19  C 
BRANCH 47 48
ATOM     48  C   VAL B2843     -13.271 -11.562  11.980  1.00 17.95 LIG 0.20  C 
ATOM     49 OXT  VAL B2843     -14.210 -12.078  11.356  1.00 12.52 LIG-0.65  OA
ATOM     50 O    VAL B2843     -13.229 -10.334  12.067  1.00 13.13 LIG-0.65  OA
ENDBRANCH 47 48
BRANCH 47 51
ATOM     51  CB  VAL B2843     -12.740 -13.076  13.926  1.00 12.90 LIG 0.01  C 
ATOM     52  CG2 VAL B2843     -14.269 -13.067  13.946  1.00 11.86 LIG 0.01  C 
ATOM     53  CG1 VAL B2843     -12.190 -12.352  15.141  1.00 11.26 LIG 0.01  C 
ENDBRANCH 47 51
ENDBRANCH 44 47
ENDBRANCH 42 43
BRANCH 42 54
ATOM     54  CB  SER B2842      -8.105 -10.411  11.753  1.00 13.40 LIG 0.20  C 
BRANCH 54 55
ATOM     55 OG   SER B2842      -7.196 -11.203  11.012  1.00 24.06 LIG-0.40  OA
ATOM     56 HG   SER B2842      -7.026 -11.907  11.436  1.00 24.06 LIG 0.21  HD
ENDBRANCH 54 55
ENDBRANCH 42 54
ENDBRANCH 39 42
ENDBRANCH 33 38
ENDBRANCH 31 33
ENDBRANCH 1 29
TORSDOF 22
ENDMDL
MODEL 12
USER: ADFR SOLUTION from run 104
USER: SCORE 16.072884 LL:  -4.329 LR: -13.828 RR:   0.000 FEB:  -7.265
USER: RMSD 12.726470
USER: SEED 103
USER: STATUS no improvement in best in 11 clusters for 5 generations
USER: GENES 24
USER: genes 0 Translation |==|  0.25837 0.69211 0.30453
USER: genes 1 Rotation |==|  0.39428 0.02898 0.51890 0.62887
USER: genes 2 Torsion [CB]-CA--N-[C] |==|  0.36072
USER: genes 3 Torsion [N]-C--CA-[N] |==|  0.88345
USER: genes 4 Torsion [C]-CA--CB-[CG] |==|  0.70491
USER: genes 5 Torsion [CA]-CB--CG-[CD1] |==|  0.37899
USER: genes 6 Torsion [C]-CA--N-[C] |==|  0.78434
USER: genes 7 Torsion [N]-C--CA-[N] |==|  0.09928
USER: genes 8 Torsion [C]-CA--CB-[CG] |==|  0.32537
USER: genes 9 Torsion [CA]-CB--CG-[CD1] |==|  0.69459
USER: genes 10 Torsion [CE1]-CZ--OH-[HH] |==|  0.96845
USER: genes 11 Torsion [N]-CA--CB-[CG2] |==|  0.95325
USER: genes 12 Torsion [N]-CA--C-[N] |==|  0.77787
USER: genes 13 Torsion [C]-N--CA-[CB] |==|  0.83047
USER: genes 14 Torsion [N]-CA--CB-[CG2] |==|  0.61740
USER: genes 15 Torsion [CA]-CB--OG1-[HG1] |==|  0.23453
USER: genes 16 Torsion [N]-CA--C-[N] |==|  0.36973
USER: genes 17 Torsion [C]-N--CA-[C] |==|  0.74760
USER: genes 18 Torsion [N]-CA--C-[N] |==|  0.21374
USER: genes 19 Torsion [C]-N--CA-[C] |==|  0.18784
USER: genes 20 Torsion [N]-CA--C-[OXT] |==|  0.03150
USER: genes 21 Torsion [N]-CA--CB-[CG2] |==|  0.88075
USER: genes 22 Torsion [N]-CA--CB-[OG] |==|  0.81303
USER: genes 23 Torsion [CA]-CB--OG-[HG] |==|  0.92262
ROOT
ATOM      1  CA  VAL B2840      -8.459 -11.132  15.639  1.00 12.24 LIG 0.18  C 
ENDROOT
BRANCH 1 2
ATOM      2  N   VAL B2840      -9.214 -11.444  14.427  1.00  7.10 LIG-0.35  N 
ATOM      3  C   LEU B2839      -9.170 -10.654  13.360  1.00  9.29 LIG 0.24  C 
ATOM      4 O    LEU B2839      -8.603  -9.556  13.356  1.00  7.82 LIG-0.27  OA
ATOM      5 H    VAL B2840      -9.676 -12.168  14.472  1.00  7.10 LIG 0.16  HD
BRANCH 3 6
ATOM      6  CA  LEU B2839      -9.885 -11.157  12.120  1.00  6.33 LIG 0.18  C 
BRANCH 6 7
ATOM      7  CB  LEU B2839     -11.385 -10.874  12.259  1.00 14.59 LIG 0.04  C 
BRANCH 7 8
ATOM      8  CG  LEU B2839     -12.250 -12.096  12.549  1.00 24.41 LIG-0.02  C 
ATOM      9  CD1 LEU B2839     -13.298 -11.799  13.636  1.00 21.70 LIG 0.01  C 
ATOM     10  CD2 LEU B2839     -12.905 -12.587  11.259  1.00 24.63 LIG 0.01  C 
ENDBRANCH 7 8
ENDBRANCH 6 7
BRANCH 6 11
ATOM     11  N   LEU B2839      -9.638 -12.588  11.920  1.00 12.50 LIG-0.35  N 
ATOM     12 H    LEU B2839     -10.290 -13.096  12.157  1.00 12.50 LIG 0.16  HD
ATOM     13  C   TYR B2838      -8.489 -13.041  11.411  1.00 14.62 LIG 0.26  C 
ATOM     14 O    TYR B2838      -7.586 -12.304  11.016  1.00 16.58 LIG-0.27  OA
BRANCH 13 15
ATOM     15  CA  TYR B2838      -8.314 -14.551  11.318  1.00 17.58 LIG 0.40  C 
ATOM     16  N   TYR B2838      -9.551 -15.252  10.999  1.00 19.10 LIG 0.61  N 
BRANCH 15 17
ATOM     17  CB  TYR B2838      -7.200 -14.905  10.334  1.00 37.20 LIG 0.09  C 
BRANCH 17 18
ATOM     18  CG  TYR B2838      -6.043 -15.619  10.991  1.00 53.42 LIG-0.06  A 
ATOM     19  CD1 TYR B2838      -4.810 -14.989  11.146  1.00 57.26 LIG 0.01  A 
ATOM     20  CE1 TYR B2838      -3.743 -15.638  11.753  1.00 58.59 LIG 0.04  A 
ATOM     21  CZ  TYR B2838      -3.903 -16.931  12.218  1.00 63.46 LIG 0.07  A 
ATOM     22  CE2 TYR B2838      -5.117 -17.576  12.079  1.00 67.17 LIG 0.04  A 
ATOM     23  CD2 TYR B2838      -6.181 -16.918  11.467  1.00 64.10 LIG 0.01  A 
BRANCH 21 24
ATOM     24 OH   TYR B2838      -2.845 -17.579  12.821  1.00 64.89 LIG-0.36  OA
ATOM     25 HH   TYR B2838      -2.140 -17.139  12.698  1.00 64.89 LIG 0.22  HD
ENDBRANCH 21 24
ENDBRANCH 17 18
ENDBRANCH 15 17
ENDBRANCH 13 15
ENDBRANCH 6 11
ENDBRANCH 3 6
ENDBRANCH 1 2
BRANCH 1 26
ATOM     26  CB  VAL B2840      -9.342 -11.198  16.904  1.00 14.53 LIG 0.01  C 
ATOM     27  CG1 VAL B2840      -9.009 -10.045  17.838  1.00 16.85 LIG 0.01  C 
ATOM     28  CG2 VAL B2840     -10.818 -11.159  16.519  1.00 19.78 LIG 0.01  C 
ENDBRANCH 1 26
BRANCH 1 29
ATOM     29  C   VAL B2840      -7.272 -12.088  15.786  1.00 10.08 LIG 0.24  C 
ATOM     30 O    VAL B2840      -6.147 -11.741  15.448  1.00 13.99 LIG-0.27  OA
ATOM     31  N   THR B2841      -7.523 -13.297  16.275  1.00  7.81 LIG-0.34  N 
ATOM     32 H    THR B2841      -8.311 -13.597  16.447  1.00  7.81 LIG 0.16  HD
BRANCH 31 33
ATOM     33  CA  THR B2841      -6.439 -14.232  16.563  1.00  9.28 LIG 0.20  C 
BRANCH 33 34
ATOM     34  CB  THR B2841      -5.644 -14.573  15.295  1.00  5.66 LIG 0.15  C 
ATOM     35  CG2 THR B2841      -5.322 -16.077  15.239  1.00  2.82 LIG 0.04  C 
BRANCH 34 36
ATOM     36 OG1  THR B2841      -6.424 -14.223  14.145  1.00  4.58 LIG-0.39  OA
ATOM     37 HG1  THR B2841      -6.316 -13.408  13.971  1.00  4.58 LIG 0.21  HD
ENDBRANCH 34 36
ENDBRANCH 33 34
BRANCH 33 38
ATOM     38  C   THR B2841      -5.473 -13.692  17.609  1.00 11.02 LIG 0.24  C 
ATOM     39  N   SER B2842      -5.136 -14.533  18.592  1.00  4.17 LIG-0.34  N 
ATOM     40 H    SER B2842      -5.495 -15.306  18.706  1.00  4.17 LIG 0.16  HD
ATOM     41 O    THR B2841      -5.051 -12.536  17.530  1.00  9.65 LIG-0.27  OA
BRANCH 39 42
ATOM     42  CA  SER B2842      -4.108 -14.193  19.567  1.00  7.92 LIG 0.20  C 
BRANCH 42 43
ATOM     43  C   SER B2842      -2.759 -14.680  19.075  1.00  8.41 LIG 0.24  C 
ATOM     44  N   VAL B2843      -2.189 -13.944  18.128  1.00 12.74 LIG-0.34  N 
ATOM     45 H    VAL B2843      -2.529 -13.216  17.821  1.00 12.74 LIG 0.16  HD
ATOM     46 O    SER B2842      -2.255 -15.698  19.534  1.00  7.66 LIG-0.27  OA
BRANCH 44 47
ATOM     47  CA  VAL B2843      -0.922 -14.311  17.521  1.00 16.92 LIG 0.19  C 
BRANCH 47 48
ATOM     48  C   VAL B2843      -1.073 -15.582  16.685  1.00 17.95 LIG 0.20  C 
ATOM     49 OXT  VAL B2843      -2.196 -16.037  16.424  1.00 12.52 LIG-0.65  OA
ATOM     50 O    VAL B2843      -0.085 -16.176  16.253  1.00 13.13 LIG-0.65  OA
ENDBRANCH 47 48
BRANCH 47 51
ATOM     51  CB  VAL B2843       0.168 -14.508  18.600  1.00 12.90 LIG 0.01  C 
ATOM     52  CG2 VAL B2843       0.101 -13.408  19.660  1.00 11.86 LIG 0.01  C 
ATOM     53  CG1 VAL B2843       1.542 -14.542  17.958  1.00 11.26 LIG 0.01  C 
ENDBRANCH 47 51
ENDBRANCH 44 47
ENDBRANCH 42 43
BRANCH 42 54
ATOM     54  CB  SER B2842      -4.422 -14.793  20.944  1.00 13.40 LIG 0.20  C 
BRANCH 54 55
ATOM     55 OG   SER B2842      -5.569 -14.192  21.514  1.00 24.06 LIG-0.40  OA
ATOM     56 HG   SER B2842      -5.649 -13.408  21.223  1.00 24.06 LIG 0.21  HD
ENDBRANCH 54 55
ENDBRANCH 42 54
ENDBRANCH 39 42
ENDBRANCH 33 38
ENDBRANCH 31 33
ENDBRANCH 1 29
TORSDOF 22
ENDMDL
MODEL 13
USER: ADFR SOLUTION from run 121
USER: SCORE 15.200848 LL:  -3.982 LR: -13.755 RR:   0.000 FEB:  -7.193
USER: RMSD 6.063444
USER: SEED 120
USER: STATUS no improvement in best in 3 clusters for 5 generations
USER: GENES 24
USER: genes 0 Translation |==|  0.53583 0.50578 0.43163
USER: genes 1 Rotation |==|  0.36548 0.47132 0.38383 0.96646
USER: genes 2 Torsion [CB]-CA--N-[C] |==|  0.81470
USER: genes 3 Torsion [N]-C--CA-[N] |==|  0.43174
USER: genes 4 Torsion [C]-CA--CB-[CG] |==|  0.26702
USER: genes 5 Torsion [CA]-CB--CG-[CD1] |==|  0.64395
USER: genes 6 Torsion [C]-CA--N-[C] |==|  0.54341
USER: genes 7 Torsion [N]-C--CA-[N] |==|  0.56449
USER: genes 8 Torsion [C]-CA--CB-[CG] |==|  0.61209
USER: genes 9 Torsion [CA]-CB--CG-[CD1] |==|  0.26227
USER: genes 10 Torsion [CE1]-CZ--OH-[HH] |==|  0.67527
USER: genes 11 Torsion [N]-CA--CB-[CG2] |==|  0.89923
USER: genes 12 Torsion [N]-CA--C-[N] |==|  0.10939
USER: genes 13 Torsion [C]-N--CA-[CB] |==|  0.45000
USER: genes 14 Torsion [N]-CA--CB-[CG2] |==|  0.45482
USER: genes 15 Torsion [CA]-CB--OG1-[HG1] |==|  0.31954
USER: genes 16 Torsion [N]-CA--C-[N] |==|  0.30008
USER: genes 17 Torsion [C]-N--CA-[C] |==|  0.80547
USER: genes 18 Torsion [N]-CA--C-[N] |==|  0.42105
USER: genes 19 Torsion [C]-N--CA-[C] |==|  0.61543
USER: genes 20 Torsion [N]-CA--C-[OXT] |==|  0.46653
USER: genes 21 Torsion [N]-CA--CB-[CG2] |==|  0.01037
USER: genes 22 Torsion [N]-CA--CB-[OG] |==|  0.69278
USER: genes 23 Torsion [CA]-CB--OG-[HG] |==|  0.01273
ROOT
ATOM      1  CA  VAL B2840      -2.216 -14.067  19.452  1.00 12.24 LIG 0.18  C 
ENDROOT
BRANCH 1 2
ATOM      2  N   VAL B2840      -2.453 -13.537  20.793  1.00  7.10 LIG-0.35  N 
ATOM      3  C   LEU B2839      -3.227 -14.175  21.664  1.00  9.29 LIG 0.24  C 
ATOM      4 O    LEU B2839      -3.892 -15.174  21.371  1.00  7.82 LIG-0.27  OA
ATOM      5 H    VAL B2840      -2.053 -12.793  20.957  1.00  7.10 LIG 0.16  HD
BRANCH 3 6
ATOM      6  CA  LEU B2839      -3.282 -13.595  23.065  1.00  6.33 LIG 0.18  C 
BRANCH 6 7
ATOM      7  CB  LEU B2839      -2.063 -14.083  23.857  1.00 14.59 LIG 0.04  C 
BRANCH 7 8
ATOM      8  CG  LEU B2839      -0.882 -13.120  23.884  1.00 24.41 LIG-0.02  C 
ATOM      9  CD1 LEU B2839       0.422 -13.817  23.461  1.00 21.70 LIG 0.01  C 
ATOM     10  CD2 LEU B2839      -1.180 -11.907  23.004  1.00 24.63 LIG 0.01  C 
ENDBRANCH 7 8
ENDBRANCH 6 7
BRANCH 6 11
ATOM     11  N   LEU B2839      -4.529 -13.971  23.737  1.00 12.50 LIG-0.35  N 
ATOM     12 H    LEU B2839      -4.952 -14.618  23.360  1.00 12.50 LIG 0.16  HD
ATOM     13  C   TYR B2838      -4.953 -13.347  24.840  1.00 14.62 LIG 0.26  C 
ATOM     14 O    TYR B2838      -4.309 -12.465  25.408  1.00 16.58 LIG-0.27  OA
BRANCH 13 15
ATOM     15  CA  TYR B2838      -6.300 -13.771  25.408  1.00 17.58 LIG 0.40  C 
ATOM     16  N   TYR B2838      -6.924 -12.743  26.231  1.00 19.10 LIG 0.61  N 
BRANCH 15 17
ATOM     17  CB  TYR B2838      -7.233 -14.237  24.291  1.00 37.20 LIG 0.09  C 
BRANCH 17 18
ATOM     18  CG  TYR B2838      -8.656 -13.767  24.483  1.00 53.42 LIG-0.06  A 
ATOM     19  CD1 TYR B2838      -9.109 -12.597  23.879  1.00 57.26 LIG 0.01  A 
ATOM     20  CE1 TYR B2838     -10.416 -12.161  24.049  1.00 58.59 LIG 0.04  A 
ATOM     21  CZ  TYR B2838     -11.290 -12.900  24.826  1.00 63.46 LIG 0.07  A 
ATOM     22  CE2 TYR B2838     -10.865 -14.066  25.435  1.00 67.17 LIG 0.04  A 
ATOM     23  CD2 TYR B2838      -9.551 -14.495  25.260  1.00 64.10 LIG 0.01  A 
BRANCH 21 24
ATOM     24 OH   TYR B2838     -12.588 -12.470  24.998  1.00 64.89 LIG-0.36  OA
ATOM     25 HH   TYR B2838     -12.723 -12.300  25.810  1.00 64.89 LIG 0.22  HD
ENDBRANCH 21 24
ENDBRANCH 17 18
ENDBRANCH 15 17
ENDBRANCH 13 15
ENDBRANCH 6 11
ENDBRANCH 3 6
ENDBRANCH 1 2
BRANCH 1 26
ATOM     26  CB  VAL B2840      -1.406 -15.383  19.485  1.00 14.53 LIG 0.01  C 
ATOM     27  CG1 VAL B2840      -0.730 -15.616  18.143  1.00 16.85 LIG 0.01  C 
ATOM     28  CG2 VAL B2840      -0.367 -15.334  20.601  1.00 19.78 LIG 0.01  C 
ENDBRANCH 1 26
BRANCH 1 29
ATOM     29  C   VAL B2840      -3.546 -14.296  18.729  1.00 10.08 LIG 0.24  C 
ATOM     30 O    VAL B2840      -3.704 -15.276  18.012  1.00 13.99 LIG-0.27  OA
ATOM     31  N   THR B2841      -4.497 -13.386  18.905  1.00  7.81 LIG-0.34  N 
ATOM     32 H    THR B2841      -4.390 -12.650  19.338  1.00  7.81 LIG 0.16  HD
BRANCH 31 33
ATOM     33  CA  THR B2841      -5.835 -13.582  18.355  1.00  9.28 LIG 0.20  C 
BRANCH 33 34
ATOM     34  CB  THR B2841      -6.859 -12.662  19.035  1.00  5.66 LIG 0.15  C 
ATOM     35  CG2 THR B2841      -8.151 -12.571  18.204  1.00  2.82 LIG 0.04  C 
BRANCH 34 36
ATOM     36 OG1  THR B2841      -7.175 -13.189  20.329  1.00  4.58 LIG-0.39  OA
ATOM     37 HG1  THR B2841      -6.913 -12.655  20.921  1.00  4.58 LIG 0.21  HD
ENDBRANCH 34 36
ENDBRANCH 33 34
BRANCH 33 38
ATOM     38  C   THR B2841      -5.886 -13.335  16.853  1.00 11.02 LIG 0.24  C 
ATOM     39  N   SER B2842      -6.030 -14.416  16.081  1.00  4.17 LIG-0.34  N 
ATOM     40 H    SER B2842      -6.006 -15.224  16.376  1.00  4.17 LIG 0.16  HD
ATOM     41 O    THR B2841      -5.787 -12.190  16.407  1.00  9.65 LIG-0.27  OA
BRANCH 39 42
ATOM     42  CA  SER B2842      -6.242 -14.304  14.644  1.00  7.92 LIG 0.20  C 
BRANCH 42 43
ATOM     43  C   SER B2842      -7.625 -13.744  14.376  1.00  8.41 LIG 0.24  C 
ATOM     44  N   VAL B2843      -7.762 -13.055  13.250  1.00 12.74 LIG-0.34  N 
ATOM     45 H    VAL B2843      -7.130 -12.948  12.677  1.00 12.74 LIG 0.16  HD
ATOM     46 O    SER B2842      -8.539 -13.924  15.173  1.00  7.66 LIG-0.27  OA
BRANCH 44 47
ATOM     47  CA  VAL B2843      -9.012 -12.414  12.882  1.00 16.92 LIG 0.19  C 
BRANCH 47 48
ATOM     48  C   VAL B2843      -9.300 -12.607  11.393  1.00 17.95 LIG 0.20  C 
ATOM     49 OXT  VAL B2843     -10.415 -12.333  10.924  1.00 12.52 LIG-0.65  OA
ATOM     50 O    VAL B2843      -8.432 -13.033  10.631  1.00 13.13 LIG-0.65  OA
ENDBRANCH 47 48
BRANCH 47 51
ATOM     51  CB  VAL B2843      -8.979 -10.907  13.228  1.00 12.90 LIG 0.01  C 
ATOM     52  CG2 VAL B2843      -7.611 -10.496  13.774  1.00 11.86 LIG 0.01  C 
ATOM     53  CG1 VAL B2843     -10.070 -10.575  14.229  1.00 11.26 LIG 0.01  C 
ENDBRANCH 47 51
ENDBRANCH 44 47
ENDBRANCH 42 43
BRANCH 42 54
ATOM     54  CB  SER B2842      -6.071 -15.659  13.944  1.00 13.40 LIG 0.20  C 
BRANCH 54 55
ATOM     55 OG   SER B2842      -4.905 -15.676  13.143  1.00 24.06 LIG-0.40  OA
ATOM     56 HG   SER B2842      -4.483 -14.957  13.247  1.00 24.06 LIG 0.21  HD
ENDBRANCH 54 55
ENDBRANCH 42 54
ENDBRANCH 39 42
ENDBRANCH 33 38
ENDBRANCH 31 33
ENDBRANCH 1 29
TORSDOF 22
ENDMDL
MODEL 14
USER: ADFR SOLUTION from run 135
USER: SCORE 15.459234 LL:  -4.249 LR: -13.735 RR:   0.000 FEB:  -7.172
USER: RMSD 5.560181
USER: SEED 134
USER: STATUS no improvement in best in 9 clusters for 5 generations
USER: GENES 24
USER: genes 0 Translation |==|  0.50347 0.50744 0.47342
USER: genes 1 Rotation |==|  0.89532 0.58674 0.79223 0.52831
USER: genes 2 Torsion [CB]-CA--N-[C] |==|  0.30915
USER: genes 3 Torsion [N]-C--CA-[N] |==|  0.42599
USER: genes 4 Torsion [C]-CA--CB-[CG] |==|  0.63065
USER: genes 5 Torsion [CA]-CB--CG-[CD1] |==|  0.27427
USER: genes 6 Torsion [C]-CA--N-[C] |==|  0.61457
USER: genes 7 Torsion [N]-C--CA-[N] |==|  0.47353
USER: genes 8 Torsion [C]-CA--CB-[CG] |==|  0.89116
USER: genes 9 Torsion [CA]-CB--CG-[CD1] |==|  0.82388
USER: genes 10 Torsion [CE1]-CZ--OH-[HH] |==|  0.55661
USER: genes 11 Torsion [N]-CA--CB-[CG2] |==|  0.93185
USER: genes 12 Torsion [N]-CA--C-[N] |==|  0.64322
USER: genes 13 Torsion [C]-N--CA-[CB] |==|  0.51972
USER: genes 14 Torsion [N]-CA--CB-[CG2] |==|  0.38933
USER: genes 15 Torsion [CA]-CB--OG1-[HG1] |==|  0.20173
USER: genes 16 Torsion [N]-CA--C-[N] |==|  0.36121
USER: genes 17 Torsion [C]-N--CA-[C] |==|  0.75667
USER: genes 18 Torsion [N]-CA--C-[N] |==|  0.47392
USER: genes 19 Torsion [C]-N--CA-[C] |==|  0.56241
USER: genes 20 Torsion [N]-CA--C-[OXT] |==|  0.36819
USER: genes 21 Torsion [N]-CA--CB-[CG2] |==|  0.05833
USER: genes 22 Torsion [N]-CA--CB-[OG] |==|  0.81048
USER: genes 23 Torsion [CA]-CB--OG-[HG] |==|  0.91472
ROOT
ATOM      1  CA  VAL B2840      -2.944 -14.041  20.706  1.00 12.24 LIG 0.18  C 
ENDROOT
BRANCH 1 2
ATOM      2  N   VAL B2840      -1.711 -13.591  20.063  1.00  7.10 LIG-0.35  N 
ATOM      3  C   LEU B2839      -0.580 -14.278  20.177  1.00  9.29 LIG 0.24  C 
ATOM      4 O    LEU B2839      -0.455 -15.256  20.922  1.00  7.82 LIG-0.27  OA
ATOM      5 H    VAL B2840      -1.788 -12.860  19.617  1.00  7.10 LIG 0.16  HD
BRANCH 3 6
ATOM      6  CA  LEU B2839       0.593 -13.783  19.351  1.00  6.33 LIG 0.18  C 
BRANCH 6 7
ATOM      7  CB  LEU B2839       0.489 -14.363  17.936  1.00 14.59 LIG 0.04  C 
BRANCH 7 8
ATOM      8  CG  LEU B2839       1.778 -14.963  17.385  1.00 24.41 LIG-0.02  C 
ATOM      9  CD1 LEU B2839       1.799 -16.493  17.539  1.00 21.70 LIG 0.01  C 
ATOM     10  CD2 LEU B2839       1.965 -14.543  15.928  1.00 24.63 LIG 0.01  C 
ENDBRANCH 7 8
ENDBRANCH 6 7
BRANCH 6 11
ATOM     11  N   LEU B2839       1.865 -14.154  19.977  1.00 12.50 LIG-0.35  N 
ATOM     12 H    LEU B2839       1.881 -14.949  20.302  1.00 12.50 LIG 0.16  HD
ATOM     13  C   TYR B2838       2.900 -13.310  20.026  1.00 14.62 LIG 0.26  C 
ATOM     14 O    TYR B2838       2.891 -12.196  19.502  1.00 16.58 LIG-0.27  OA
BRANCH 13 15
ATOM     15  CA  TYR B2838       4.146 -13.775  20.768  1.00 17.58 LIG 0.40  C 
ATOM     16  N   TYR B2838       5.288 -12.890  20.581  1.00 19.10 LIG 0.61  N 
BRANCH 15 17
ATOM     17  CB  TYR B2838       3.842 -13.990  22.250  1.00 37.20 LIG 0.09  C 
BRANCH 17 18
ATOM     18  CG  TYR B2838       2.915 -12.941  22.815  1.00 53.42 LIG-0.06  A 
ATOM     19  CD1 TYR B2838       3.297 -11.602  22.865  1.00 57.26 LIG 0.01  A 
ATOM     20  CE1 TYR B2838       2.448 -10.632  23.380  1.00 58.59 LIG 0.04  A 
ATOM     21  CZ  TYR B2838       1.199 -10.994  23.850  1.00 63.46 LIG 0.07  A 
ATOM     22  CE2 TYR B2838       0.795 -12.315  23.810  1.00 67.17 LIG 0.04  A 
ATOM     23  CD2 TYR B2838       1.654 -13.282  23.292  1.00 64.10 LIG 0.01  A 
BRANCH 21 24
ATOM     24 OH   TYR B2838       0.353 -10.033  24.363  1.00 64.89 LIG-0.36  OA
ATOM     25 HH   TYR B2838      -0.225 -10.399  24.851  1.00 64.89 LIG 0.22  HD
ENDBRANCH 21 24
ENDBRANCH 17 18
ENDBRANCH 15 17
ENDBRANCH 13 15
ENDBRANCH 6 11
ENDBRANCH 3 6
ENDBRANCH 1 2
BRANCH 1 26
ATOM     26  CB  VAL B2840      -3.368 -13.106  21.861  1.00 14.53 LIG 0.01  C 
ATOM     27  CG1 VAL B2840      -4.042 -13.908  22.964  1.00 16.85 LIG 0.01  C 
ATOM     28  CG2 VAL B2840      -2.154 -12.364  22.411  1.00 19.78 LIG 0.01  C 
ENDBRANCH 1 26
BRANCH 1 29
ATOM     29  C   VAL B2840      -4.074 -14.138  19.678  1.00 10.08 LIG 0.24  C 
ATOM     30 O    VAL B2840      -3.911 -14.752  18.630  1.00 13.99 LIG-0.27  OA
ATOM     31  N   THR B2841      -5.214 -13.521  19.967  1.00  7.81 LIG-0.34  N 
ATOM     32 H    THR B2841      -5.332 -13.019  20.655  1.00  7.81 LIG 0.16  HD
BRANCH 31 33
ATOM     33  CA  THR B2841      -6.383 -13.660  19.104  1.00  9.28 LIG 0.20  C 
BRANCH 33 34
ATOM     34  CB  THR B2841      -7.516 -12.723  19.545  1.00  5.66 LIG 0.15  C 
ATOM     35  CG2 THR B2841      -8.222 -12.105  18.325  1.00  2.82 LIG 0.04  C 
BRANCH 34 36
ATOM     36 OG1  THR B2841      -8.473 -13.470  20.306  1.00  4.58 LIG-0.39  OA
ATOM     37 HG1  THR B2841      -8.151 -13.652  21.060  1.00  4.58 LIG 0.21  HD
ENDBRANCH 34 36
ENDBRANCH 33 34
BRANCH 33 38
ATOM     38  C   THR B2841      -6.062 -13.378  17.643  1.00 11.02 LIG 0.24  C 
ATOM     39  N   SER B2842      -6.473 -14.292  16.760  1.00  4.17 LIG-0.34  N 
ATOM     40 H    SER B2842      -6.819 -15.049  16.978  1.00  4.17 LIG 0.16  HD
ATOM     41 O    THR B2841      -5.447 -12.356  17.327  1.00  9.65 LIG-0.27  OA
BRANCH 39 42
ATOM     42  CA  SER B2842      -6.362 -14.070  15.325  1.00  7.92 LIG 0.20  C 
BRANCH 42 43
ATOM     43  C   SER B2842      -7.598 -13.347  14.825  1.00  8.41 LIG 0.24  C 
ATOM     44  N   VAL B2843      -7.545 -12.910  13.572  1.00 12.74 LIG-0.34  N 
ATOM     45 H    VAL B2843      -6.876 -13.043  13.048  1.00 12.74 LIG 0.16  HD
ATOM     46 O    SER B2842      -8.567 -13.183  15.556  1.00  7.66 LIG-0.27  OA
BRANCH 44 47
ATOM     47  CA  VAL B2843      -8.629 -12.154  12.970  1.00 16.92 LIG 0.19  C 
BRANCH 47 48
ATOM     48  C   VAL B2843      -8.576 -12.257  11.446  1.00 17.95 LIG 0.20  C 
ATOM     49 OXT  VAL B2843      -9.599 -12.518  10.795  1.00 12.52 LIG-0.65  OA
ATOM     50 O    VAL B2843      -7.522 -12.080  10.835  1.00 13.13 LIG-0.65  OA
ENDBRANCH 47 48
BRANCH 47 51
ATOM     51  CB  VAL B2843      -8.574 -10.672  13.407  1.00 12.90 LIG 0.01  C 
ATOM     52  CG2 VAL B2843      -7.176 -10.291  13.895  1.00 11.86 LIG 0.01  C 
ATOM     53  CG1 VAL B2843      -9.604 -10.406  14.489  1.00 11.26 LIG 0.01  C 
ENDBRANCH 47 51
ENDBRANCH 44 47
ENDBRANCH 42 43
BRANCH 42 54
ATOM     54  CB  SER B2842      -6.173 -15.390  14.565  1.00 13.40 LIG 0.20  C 
BRANCH 54 55
ATOM     55 OG   SER B2842      -4.911 -15.965  14.847  1.00 24.06 LIG-0.40  OA
ATOM     56 HG   SER B2842      -4.354 -15.356  15.005  1.00 24.06 LIG 0.21  HD
ENDBRANCH 54 55
ENDBRANCH 42 54
ENDBRANCH 39 42
ENDBRANCH 33 38
ENDBRANCH 31 33
ENDBRANCH 1 29
TORSDOF 22
ENDMDL
MODEL 15
USER: ADFR SOLUTION from run 104
USER: SCORE 16.012004 LL:  -4.507 LR: -13.635 RR:   0.000 FEB:  -7.072
USER: RMSD 13.859536
USER: SEED 103
USER: STATUS no improvement in best in 11 clusters for 5 generations
USER: GENES 24
USER: genes 0 Translation |==|  0.24919 0.68125 0.29634
USER: genes 1 Rotation |==|  0.40525 0.02546 0.51946 0.62432
USER: genes 2 Torsion [CB]-CA--N-[C] |==|  0.38489
USER: genes 3 Torsion [N]-C--CA-[N] |==|  0.86904
USER: genes 4 Torsion [C]-CA--CB-[CG] |==|  0.69972
USER: genes 5 Torsion [CA]-CB--CG-[CD1] |==|  0.33863
USER: genes 6 Torsion [C]-CA--N-[C] |==|  0.80041
USER: genes 7 Torsion [N]-C--CA-[N] |==|  0.59979
USER: genes 8 Torsion [C]-CA--CB-[CG] |==|  0.32197
USER: genes 9 Torsion [CA]-CB--CG-[CD1] |==|  0.71337
USER: genes 10 Torsion [CE1]-CZ--OH-[HH] |==|  0.18967
USER: genes 11 Torsion [N]-CA--CB-[CG2] |==|  0.92476
USER: genes 12 Torsion [N]-CA--C-[N] |==|  0.76758
USER: genes 13 Torsion [C]-N--CA-[CB] |==|  0.84217
USER: genes 14 Torsion [N]-CA--CB-[CG2] |==|  0.61957
USER: genes 15 Torsion [CA]-CB--OG1-[HG1] |==|  0.26558
USER: genes 16 Torsion [N]-CA--C-[N] |==|  0.35835
USER: genes 17 Torsion [C]-N--CA-[C] |==|  0.75115
USER: genes 18 Torsion [N]-CA--C-[N] |==|  0.23336
USER: genes 19 Torsion [C]-N--CA-[C] |==|  0.17716
USER: genes 20 Torsion [N]-CA--C-[OXT] |==|  0.01062
USER: genes 21 Torsion [N]-CA--CB-[CG2] |==|  0.90222
USER: genes 22 Torsion [N]-CA--CB-[OG] |==|  0.83017
USER: genes 23 Torsion [CA]-CB--OG-[HG] |==|  0.87594
ROOT
ATOM      1  CA  VAL B2840      -8.665 -11.303  15.393  1.00 12.24 LIG 0.18  C 
ENDROOT
BRANCH 1 2
ATOM      2  N   VAL B2840      -9.383 -11.642  14.166  1.00  7.10 LIG-0.35  N 
ATOM      3  C   LEU B2839      -9.221 -10.937  13.051  1.00  9.29 LIG 0.24  C 
ATOM      4 O    LEU B2839      -8.565  -9.890  13.003  1.00  7.82 LIG-0.27  OA
ATOM      5 H    VAL B2840      -9.905 -12.321  14.234  1.00  7.10 LIG 0.16  HD
BRANCH 3 6
ATOM      6  CA  LEU B2839      -9.913 -11.471  11.811  1.00  6.33 LIG 0.18  C 
BRANCH 6 7
ATOM      7  CB  LEU B2839     -11.414 -11.174  11.909  1.00 14.59 LIG 0.04  C 
BRANCH 7 8
ATOM      8  CG  LEU B2839     -12.298 -12.388  12.172  1.00 24.41 LIG-0.02  C 
ATOM      9  CD1 LEU B2839     -13.124 -12.215  13.458  1.00 21.70 LIG 0.01  C 
ATOM     10  CD2 LEU B2839     -13.194 -12.648  10.961  1.00 24.63 LIG 0.01  C 
ENDBRANCH 7 8
ENDBRANCH 6 7
BRANCH 6 11
ATOM     11  N   LEU B2839      -9.672 -12.908  11.657  1.00 12.50 LIG-0.35  N 
ATOM     12 H    LEU B2839     -10.358 -13.401  11.819  1.00 12.50 LIG 0.16  HD
ATOM     13  C   TYR B2838      -8.480 -13.389  11.294  1.00 14.62 LIG 0.26  C 
ATOM     14 O    TYR B2838      -7.522 -12.674  11.003  1.00 16.58 LIG-0.27  OA
BRANCH 13 15
ATOM     15  CA  TYR B2838      -8.325 -14.903  11.240  1.00 17.58 LIG 0.40  C 
ATOM     16  N   TYR B2838      -7.007 -15.360  11.660  1.00 19.10 LIG 0.61  N 
BRANCH 15 17
ATOM     17  CB  TYR B2838      -9.435 -15.588  12.037  1.00 37.20 LIG 0.09  C 
BRANCH 17 18
ATOM     18  CG  TYR B2838     -10.343 -16.429  11.173  1.00 53.42 LIG-0.06  A 
ATOM     19  CD1 TYR B2838     -11.610 -15.975  10.813  1.00 57.26 LIG 0.01  A 
ATOM     20  CE1 TYR B2838     -12.448 -16.742  10.015  1.00 58.59 LIG 0.04  A 
ATOM     21  CZ  TYR B2838     -12.022 -17.978   9.564  1.00 63.46 LIG 0.07  A 
ATOM     22  CE2 TYR B2838     -10.769 -18.450   9.905  1.00 67.17 LIG 0.04  A 
ATOM     23  CD2 TYR B2838      -9.935 -17.674  10.707  1.00 64.10 LIG 0.01  A 
BRANCH 21 24
ATOM     24 OH   TYR B2838     -12.852 -18.744   8.772  1.00 64.89 LIG-0.36  OA
ATOM     25 HH   TYR B2838     -12.945 -18.374   8.023  1.00 64.89 LIG 0.22  HD
ENDBRANCH 21 24
ENDBRANCH 17 18
ENDBRANCH 15 17
ENDBRANCH 13 15
ENDBRANCH 6 11
ENDBRANCH 3 6
ENDBRANCH 1 2
BRANCH 1 26
ATOM     26  CB  VAL B2840      -9.568 -11.418  16.642  1.00 14.53 LIG 0.01  C 
ATOM     27  CG1 VAL B2840      -9.135 -10.411  17.696  1.00 16.85 LIG 0.01  C 
ATOM     28  CG2 VAL B2840     -11.028 -11.189  16.259  1.00 19.78 LIG 0.01  C 
ENDBRANCH 1 26
BRANCH 1 29
ATOM     29  C   VAL B2840      -7.440 -12.205  15.557  1.00 10.08 LIG 0.24  C 
ATOM     30 O    VAL B2840      -6.335 -11.830  15.180  1.00 13.99 LIG-0.27  OA
ATOM     31  N   THR B2841      -7.633 -13.400  16.105  1.00  7.81 LIG-0.34  N 
ATOM     32 H    THR B2841      -8.405 -13.721  16.307  1.00  7.81 LIG 0.16  HD
BRANCH 31 33
ATOM     33  CA  THR B2841      -6.507 -14.277  16.411  1.00  9.28 LIG 0.20  C 
BRANCH 33 34
ATOM     34  CB  THR B2841      -5.664 -14.561  15.160  1.00  5.66 LIG 0.15  C 
ATOM     35  CG2 THR B2841      -5.276 -16.049  15.087  1.00  2.82 LIG 0.04  C 
BRANCH 34 36
ATOM     36 OG1  THR B2841      -6.426 -14.223  13.995  1.00  4.58 LIG-0.39  OA
ATOM     37 HG1  THR B2841      -6.231 -13.444  13.748  1.00  4.58 LIG 0.21  HD
ENDBRANCH 34 36
ENDBRANCH 33 34
BRANCH 33 38
ATOM     38  C   THR B2841      -5.598 -13.699  17.487  1.00 11.02 LIG 0.24  C 
ATOM     39  N   SER B2842      -5.309 -14.505  18.513  1.00  4.17 LIG-0.34  N 
ATOM     40 H    SER B2842      -5.670 -15.275  18.635  1.00  4.17 LIG 0.16  HD
ATOM     41 O    THR B2841      -5.176 -12.543  17.390  1.00  9.65 LIG-0.27  OA
BRANCH 39 42
ATOM     42  CA  SER B2842      -4.334 -14.127  19.527  1.00  7.92 LIG 0.20  C 
BRANCH 42 43
ATOM     43  C   SER B2842      -2.954 -14.595  19.107  1.00  8.41 LIG 0.24  C 
ATOM     44  N   VAL B2843      -2.296 -13.788  18.284  1.00 12.74 LIG-0.34  N 
ATOM     45 H    VAL B2843      -2.598 -13.028  18.018  1.00 12.74 LIG 0.16  HD
ATOM     46 O    SER B2842      -2.505 -15.662  19.509  1.00  7.66 LIG-0.27  OA
BRANCH 44 47
ATOM     47  CA  VAL B2843      -0.987 -14.125  17.753  1.00 16.92 LIG 0.19  C 
BRANCH 47 48
ATOM     48  C   VAL B2843      -1.068 -15.369  16.867  1.00 17.95 LIG 0.20  C 
ATOM     49 OXT  VAL B2843      -2.160 -15.904  16.628  1.00 12.52 LIG-0.65  OA
ATOM     50 O    VAL B2843      -0.053 -15.860  16.372  1.00 13.13 LIG-0.65  OA
ENDBRANCH 47 48
BRANCH 47 51
ATOM     51  CB  VAL B2843       0.029 -14.350  18.897  1.00 12.90 LIG 0.01  C 
ATOM     52  CG2 VAL B2843      -0.243 -13.408  20.071  1.00 11.86 LIG 0.01  C 
ATOM     53  CG1 VAL B2843       1.445 -14.164  18.385  1.00 11.26 LIG 0.01  C 
ENDBRANCH 47 51
ENDBRANCH 44 47
ENDBRANCH 42 43
BRANCH 42 54
ATOM     54  CB  SER B2842      -4.699 -14.709  20.899  1.00 13.40 LIG 0.20  C 
BRANCH 54 55
ATOM     55 OG   SER B2842      -5.953 -14.226  21.342  1.00 24.06 LIG-0.40  OA
ATOM     56 HG   SER B2842      -5.998 -13.398  21.207  1.00 24.06 LIG 0.21  HD
ENDBRANCH 54 55
ENDBRANCH 42 54
ENDBRANCH 39 42
ENDBRANCH 33 38
ENDBRANCH 31 33
ENDBRANCH 1 29
TORSDOF 22
ENDMDL
MODEL 16
USER: ADFR SOLUTION from run 83
USER: SCORE 15.639572 LL:  -4.755 LR: -13.575 RR:   0.000 FEB:  -7.013
USER: RMSD 12.453550
USER: SEED 82
USER: STATUS no improvement in best in 11 clusters for 5 generations
USER: GENES 24
USER: genes 0 Translation |==|  0.32348 0.64890 0.33653
USER: genes 1 Rotation |==|  0.24643 0.08368 0.48609 0.61040
USER: genes 2 Torsion [CB]-CA--N-[C] |==|  0.30850
USER: genes 3 Torsion [N]-C--CA-[N] |==|  0.88917
USER: genes 4 Torsion [C]-CA--CB-[CG] |==|  0.69957
USER: genes 5 Torsion [CA]-CB--CG-[CD1] |==|  0.21516
USER: genes 6 Torsion [C]-CA--N-[C] |==|  0.65229
USER: genes 7 Torsion [N]-C--CA-[N] |==|  0.23513
USER: genes 8 Torsion [C]-CA--CB-[CG] |==|  0.25084
USER: genes 9 Torsion [CA]-CB--CG-[CD1] |==|  0.69882
USER: genes 10 Torsion [CE1]-CZ--OH-[HH] |==|  0.99497
USER: genes 11 Torsion [N]-CA--CB-[CG2] |==|  0.38938
USER: genes 12 Torsion [N]-CA--C-[N] |==|  0.38098
USER: genes 13 Torsion [C]-N--CA-[CB] |==|  0.20902
USER: genes 14 Torsion [N]-CA--CB-[CG2] |==|  0.60396
USER: genes 15 Torsion [CA]-CB--OG1-[HG1] |==|  0.34283
USER: genes 16 Torsion [N]-CA--C-[N] |==|  0.93058
USER: genes 17 Torsion [C]-N--CA-[C] |==|  0.16517
USER: genes 18 Torsion [N]-CA--C-[N] |==|  0.11111
USER: genes 19 Torsion [C]-N--CA-[C] |==|  0.63500
USER: genes 20 Torsion [N]-CA--C-[OXT] |==|  0.98698
USER: genes 21 Torsion [N]-CA--CB-[CG2] |==|  0.12620
USER: genes 22 Torsion [N]-CA--CB-[OG] |==|  0.79874
USER: genes 23 Torsion [CA]-CB--OG-[HG] |==|  0.08758
ROOT
ATOM      1  CA  VAL B2840      -6.994 -11.813  16.599  1.00 12.24 LIG 0.18  C 
ENDROOT
BRANCH 1 2
ATOM      2  N   VAL B2840      -7.731 -11.694  15.343  1.00  7.10 LIG-0.35  N 
ATOM      3  C   LEU B2839      -7.340 -10.859  14.386  1.00  9.29 LIG 0.24  C 
ATOM      4 O    LEU B2839      -6.420 -10.047  14.533  1.00  7.82 LIG-0.27  OA
ATOM      5 H    VAL B2840      -8.422 -12.202  15.286  1.00  7.10 LIG 0.16  HD
BRANCH 3 6
ATOM      6  CA  LEU B2839      -8.107 -10.929  13.078  1.00  6.33 LIG 0.18  C 
BRANCH 6 7
ATOM      7  CB  LEU B2839      -9.388 -10.097  13.205  1.00 14.59 LIG 0.04  C 
BRANCH 7 8
ATOM      8  CG  LEU B2839     -10.678 -10.905  13.288  1.00 24.41 LIG-0.02  C 
ATOM      9  CD1 LEU B2839     -10.878 -11.505  14.690  1.00 21.70 LIG 0.01  C 
ATOM     10  CD2 LEU B2839     -11.864 -10.033  12.877  1.00 24.63 LIG 0.01  C 
ENDBRANCH 7 8
ENDBRANCH 6 7
BRANCH 6 11
ATOM     11  N   LEU B2839      -8.415 -12.317  12.728  1.00 12.50 LIG-0.35  N 
ATOM     12 H    LEU B2839      -8.834 -12.752  13.340  1.00 12.50 LIG 0.16  HD
ATOM     13  C   TYR B2838      -8.066 -12.843  11.550  1.00 14.62 LIG 0.26  C 
ATOM     14 O    TYR B2838      -7.523 -12.196  10.655  1.00 16.58 LIG-0.27  OA
BRANCH 13 15
ATOM     15  CA  TYR B2838      -8.371 -14.317  11.325  1.00 17.58 LIG 0.40  C 
ATOM     16  N   TYR B2838      -9.730 -14.556  10.856  1.00 19.10 LIG 0.61  N 
BRANCH 15 17
ATOM     17  CB  TYR B2838      -7.338 -14.945  10.390  1.00 37.20 LIG 0.09  C 
BRANCH 17 18
ATOM     18  CG  TYR B2838      -6.155 -15.524  11.128  1.00 53.42 LIG-0.06  A 
ATOM     19  CD1 TYR B2838      -4.907 -14.908  11.071  1.00 57.26 LIG 0.01  A 
ATOM     20  CE1 TYR B2838      -3.816 -15.432  11.751  1.00 58.59 LIG 0.04  A 
ATOM     21  CZ  TYR B2838      -3.965 -16.583  12.503  1.00 63.46 LIG 0.07  A 
ATOM     22  CE2 TYR B2838      -5.194 -17.211  12.578  1.00 67.17 LIG 0.04  A 
ATOM     23  CD2 TYR B2838      -6.283 -16.679  11.891  1.00 64.10 LIG 0.01  A 
BRANCH 21 24
ATOM     24 OH   TYR B2838      -2.884 -17.107  13.179  1.00 64.89 LIG-0.36  OA
ATOM     25 HH   TYR B2838      -2.202 -16.641  13.023  1.00 64.89 LIG 0.22  HD
ENDBRANCH 21 24
ENDBRANCH 17 18
ENDBRANCH 15 17
ENDBRANCH 13 15
ENDBRANCH 6 11
ENDBRANCH 3 6
ENDBRANCH 1 2
BRANCH 1 26
ATOM     26  CB  VAL B2840      -7.793 -11.247  17.794  1.00 14.53 LIG 0.01  C 
ATOM     27  CG1 VAL B2840      -9.266 -11.137  17.436  1.00 16.85 LIG 0.01  C 
ATOM     28  CG2 VAL B2840      -7.611 -12.139  19.019  1.00 19.78 LIG 0.01  C 
ENDBRANCH 1 26
BRANCH 1 29
ATOM     29  C   VAL B2840      -6.631 -13.276  16.865  1.00 10.08 LIG 0.24  C 
ATOM     30 O    VAL B2840      -7.455 -14.165  16.680  1.00 13.99 LIG-0.27  OA
ATOM     31  N   THR B2841      -5.406 -13.527  17.312  1.00  7.81 LIG-0.34  N 
ATOM     32 H    THR B2841      -4.835 -12.921  17.525  1.00  7.81 LIG 0.16  HD
BRANCH 31 33
ATOM     33  CA  THR B2841      -4.933 -14.898  17.478  1.00  9.28 LIG 0.20  C 
BRANCH 33 34
ATOM     34  CB  THR B2841      -4.598 -15.540  16.124  1.00  5.66 LIG 0.15  C 
ATOM     35  CG2 THR B2841      -5.000 -17.026  16.108  1.00  2.82 LIG 0.04  C 
BRANCH 34 36
ATOM     36 OG1  THR B2841      -5.315 -14.855  15.090  1.00  4.58 LIG-0.39  OA
ATOM     37 HG1  THR B2841      -4.773 -14.567  14.516  1.00  4.58 LIG 0.21  HD
ENDBRANCH 34 36
ENDBRANCH 33 34
BRANCH 33 38
ATOM     38  C   THR B2841      -3.703 -14.983  18.371  1.00 11.02 LIG 0.24  C 
ATOM     39  N   SER B2842      -2.947 -13.883  18.442  1.00  4.17 LIG-0.34  N 
ATOM     40 H    SER B2842      -3.069 -13.185  17.955  1.00  4.17 LIG 0.16  HD
ATOM     41 O    THR B2841      -3.443 -16.026  18.976  1.00  9.65 LIG-0.27  OA
BRANCH 39 42
ATOM     42  CA  SER B2842      -1.832 -13.783  19.374  1.00  7.92 LIG 0.20  C 
BRANCH 42 43
ATOM     43  C   SER B2842      -0.829 -14.883  19.086  1.00  8.41 LIG 0.24  C 
ATOM     44  N   VAL B2843      -0.606 -15.142  17.803  1.00 12.74 LIG-0.34  N 
ATOM     45 H    VAL B2843      -0.971 -14.705  17.159  1.00 12.74 LIG 0.16  HD
ATOM     46 O    SER B2842      -0.280 -15.485  20.001  1.00  7.66 LIG-0.27  OA
BRANCH 44 47
ATOM     47  CA  VAL B2843       0.288 -16.201  17.372  1.00 16.92 LIG 0.19  C 
BRANCH 47 48
ATOM     48  C   VAL B2843       1.262 -15.687  16.311  1.00 17.95 LIG 0.20  C 
ATOM     49 OXT  VAL B2843       1.163 -14.533  15.870  1.00 12.52 LIG-0.65  OA
ATOM     50 O    VAL B2843       2.163 -16.406  15.878  1.00 13.13 LIG-0.65  OA
ENDBRANCH 47 48
BRANCH 47 51
ATOM     51  CB  VAL B2843      -0.512 -17.405  16.822  1.00 12.90 LIG 0.01  C 
ATOM     52  CG2 VAL B2843      -1.623 -16.945  15.878  1.00 11.86 LIG 0.01  C 
ATOM     53  CG1 VAL B2843      -1.091 -18.216  17.967  1.00 11.26 LIG 0.01  C 
ENDBRANCH 47 51
ENDBRANCH 44 47
ENDBRANCH 42 43
BRANCH 42 54
ATOM     54  CB  SER B2842      -2.309 -13.864  20.830  1.00 13.40 LIG 0.20  C 
BRANCH 54 55
ATOM     55 OG   SER B2842      -2.977 -12.678  21.215  1.00 24.06 LIG-0.40  OA
ATOM     56 HG   SER B2842      -3.368 -12.347  20.549  1.00 24.06 LIG 0.21  HD
ENDBRANCH 54 55
ENDBRANCH 42 54
ENDBRANCH 39 42
ENDBRANCH 33 38
ENDBRANCH 31 33
ENDBRANCH 1 29
TORSDOF 22
ENDMDL
MODEL 17
USER: ADFR SOLUTION from run 172
USER: SCORE 15.811473 LL:  -4.802 LR: -13.557 RR:   0.000 FEB:  -6.994
USER: RMSD 13.420041
USER: SEED 171
USER: STATUS searching
USER: GENES 24
USER: genes 0 Translation |==|  0.26104 0.72224 0.29446
USER: genes 1 Rotation |==|  0.42587 0.03035 0.54523 0.64795
USER: genes 2 Torsion [CB]-CA--N-[C] |==|  0.38154
USER: genes 3 Torsion [N]-C--CA-[N] |==|  0.87442
USER: genes 4 Torsion [C]-CA--CB-[CG] |==|  0.71197
USER: genes 5 Torsion [CA]-CB--CG-[CD1] |==|  0.37692
USER: genes 6 Torsion [C]-CA--N-[C] |==|  0.80425
USER: genes 7 Torsion [N]-C--CA-[N] |==|  0.12907
USER: genes 8 Torsion [C]-CA--CB-[CG] |==|  0.60655
USER: genes 9 Torsion [CA]-CB--CG-[CD1] |==|  0.33084
USER: genes 10 Torsion [CE1]-CZ--OH-[HH] |==|  0.31934
USER: genes 11 Torsion [N]-CA--CB-[CG2] |==|  0.36185
USER: genes 12 Torsion [N]-CA--C-[N] |==|  0.88576
USER: genes 13 Torsion [C]-N--CA-[CB] |==|  0.21264
USER: genes 14 Torsion [N]-CA--CB-[CG2] |==|  0.48315
USER: genes 15 Torsion [CA]-CB--OG1-[HG1] |==|  0.63129
USER: genes 16 Torsion [N]-CA--C-[N] |==|  0.31364
USER: genes 17 Torsion [C]-N--CA-[C] |==|  0.83972
USER: genes 18 Torsion [N]-CA--C-[N] |==|  0.87262
USER: genes 19 Torsion [C]-N--CA-[C] |==|  0.48540
USER: genes 20 Torsion [N]-CA--C-[OXT] |==|  0.98560
USER: genes 21 Torsion [N]-CA--CB-[CG2] |==|  0.54716
USER: genes 22 Torsion [N]-CA--CB-[OG] |==|  0.01006
USER: genes 23 Torsion [CA]-CB--OG-[HG] |==|  0.15992
ROOT
ATOM      1  CA  VAL B2840      -8.399 -10.658  15.337  1.00 12.24 LIG 0.18  C 
ENDROOT
BRANCH 1 2
ATOM      2  N   VAL B2840      -9.214 -11.141  14.225  1.00  7.10 LIG-0.35  N 
ATOM      3  C   LEU B2839      -9.270 -10.486  13.070  1.00  9.29 LIG 0.24  C 
ATOM      4 O    LEU B2839      -8.751  -9.378  12.896  1.00  7.82 LIG-0.27  OA
ATOM      5 H    VAL B2840      -9.642 -11.869  14.387  1.00  7.10 LIG 0.16  HD
BRANCH 3 6
ATOM      6  CA  LEU B2839     -10.039 -11.161  11.950  1.00  6.33 LIG 0.18  C 
BRANCH 6 7
ATOM      7  CB  LEU B2839     -11.542 -10.984  12.198  1.00 14.59 LIG 0.04  C 
BRANCH 7 8
ATOM      8  CG  LEU B2839     -12.260 -12.218  12.732  1.00 24.41 LIG-0.02  C 
ATOM      9  CD1 LEU B2839     -13.218 -11.860  13.880  1.00 21.70 LIG 0.01  C 
ATOM     10  CD2 LEU B2839     -12.991 -12.927  11.592  1.00 24.63 LIG 0.01  C 
ENDBRANCH 7 8
ENDBRANCH 6 7
BRANCH 6 11
ATOM     11  N   LEU B2839      -9.687 -12.580  11.857  1.00 12.50 LIG-0.35  N 
ATOM     12 H    LEU B2839     -10.312 -13.117  12.107  1.00 12.50 LIG 0.16  HD
ATOM     13  C   TYR B2838      -8.492 -12.984  11.418  1.00 14.62 LIG 0.26  C 
ATOM     14 O    TYR B2838      -7.628 -12.213  11.003  1.00 16.58 LIG-0.27  OA
BRANCH 13 15
ATOM     15  CA  TYR B2838      -8.210 -14.481  11.436  1.00 17.58 LIG 0.40  C 
ATOM     16  N   TYR B2838      -9.303 -15.275  10.889  1.00 19.10 LIG 0.61  N 
BRANCH 15 17
ATOM     17  CB  TYR B2838      -6.889 -14.789  10.733  1.00 37.20 LIG 0.09  C 
BRANCH 17 18
ATOM     18  CG  TYR B2838      -6.942 -16.059   9.917  1.00 53.42 LIG-0.06  A 
ATOM     19  CD1 TYR B2838      -6.728 -16.033   8.541  1.00 57.26 LIG 0.01  A 
ATOM     20  CE1 TYR B2838      -6.772 -17.197   7.786  1.00 58.59 LIG 0.04  A 
ATOM     21  CZ  TYR B2838      -7.029 -18.406   8.405  1.00 63.46 LIG 0.07  A 
ATOM     22  CE2 TYR B2838      -7.243 -18.459   9.769  1.00 67.17 LIG 0.04  A 
ATOM     23  CD2 TYR B2838      -7.198 -17.286  10.519  1.00 64.10 LIG 0.01  A 
BRANCH 21 24
ATOM     24 OH   TYR B2838      -7.075 -19.564   7.658  1.00 64.89 LIG-0.36  OA
ATOM     25 HH   TYR B2838      -6.446 -20.072   7.887  1.00 64.89 LIG 0.22  HD
ENDBRANCH 21 24
ENDBRANCH 17 18
ENDBRANCH 15 17
ENDBRANCH 13 15
ENDBRANCH 6 11
ENDBRANCH 3 6
ENDBRANCH 1 2
BRANCH 1 26
ATOM     26  CB  VAL B2840      -9.138 -10.773  16.689  1.00 14.53 LIG 0.01  C 
ATOM     27  CG1 VAL B2840     -10.434 -11.548  16.513  1.00 16.85 LIG 0.01  C 
ATOM     28  CG2 VAL B2840      -8.246 -11.459  17.720  1.00 19.78 LIG 0.01  C 
ENDBRANCH 1 26
BRANCH 1 29
ATOM     29  C   VAL B2840      -7.079 -11.430  15.401  1.00 10.08 LIG 0.24  C 
ATOM     30 O    VAL B2840      -6.026 -10.845  15.628  1.00 13.99 LIG-0.27  OA
ATOM     31  N   THR B2841      -7.129 -12.739  15.188  1.00  7.81 LIG-0.34  N 
ATOM     32 H    THR B2841      -7.838 -13.165  14.951  1.00  7.81 LIG 0.16  HD
BRANCH 31 33
ATOM     33  CA  THR B2841      -5.942 -13.574  15.349  1.00  9.28 LIG 0.20  C 
BRANCH 33 34
ATOM     34  CB  THR B2841      -5.636 -13.829  16.832  1.00  5.66 LIG 0.15  C 
ATOM     35  CG2 THR B2841      -4.476 -14.829  16.987  1.00  2.82 LIG 0.04  C 
BRANCH 34 36
ATOM     36 OG1  THR B2841      -5.268 -12.592  17.454  1.00  4.58 LIG-0.39  OA
ATOM     37 HG1  THR B2841      -4.572 -12.705  17.912  1.00  4.58 LIG 0.21  HD
ENDBRANCH 34 36
ENDBRANCH 33 34
BRANCH 33 38
ATOM     38  C   THR B2841      -6.078 -14.917  14.645  1.00 11.02 LIG 0.24  C 
ATOM     39  N   SER B2842      -5.272 -15.120  13.599  1.00  4.17 LIG-0.34  N 
ATOM     40 H    SER B2842      -4.761 -14.516  13.262  1.00  4.17 LIG 0.16  HD
ATOM     41 O    THR B2841      -6.903 -15.745  15.038  1.00  9.65 LIG-0.27  OA
BRANCH 39 42
ATOM     42  CA  SER B2842      -5.197 -16.414  12.934  1.00  7.92 LIG 0.20  C 
BRANCH 42 43
ATOM     43  C   SER B2842      -4.800 -17.479  13.937  1.00  8.41 LIG 0.24  C 
ATOM     44  N   VAL B2843      -3.789 -17.169  14.741  1.00 12.74 LIG-0.34  N 
ATOM     45 H    VAL B2843      -3.390 -16.407  14.733  1.00 12.74 LIG 0.16  HD
ATOM     46 O    SER B2842      -5.386 -18.554  13.975  1.00  7.66 LIG-0.27  OA
BRANCH 44 47
ATOM     47  CA  VAL B2843      -3.261 -18.106  15.716  1.00 16.92 LIG 0.19  C 
BRANCH 47 48
ATOM     48  C   VAL B2843      -2.025 -17.528  16.405  1.00 17.95 LIG 0.20  C 
ATOM     49 OXT  VAL B2843      -1.547 -16.444  16.039  1.00 12.52 LIG-0.65  OA
ATOM     50 O    VAL B2843      -1.483 -18.123  17.337  1.00 13.13 LIG-0.65  OA
ENDBRANCH 47 48
BRANCH 47 51
ATOM     51  CB  VAL B2843      -2.916 -19.458  15.050  1.00 12.90 LIG 0.01  C 
ATOM     52  CG2 VAL B2843      -2.764 -20.566  16.093  1.00 11.86 LIG 0.01  C 
ATOM     53  CG1 VAL B2843      -1.649 -19.328  14.226  1.00 11.26 LIG 0.01  C 
ENDBRANCH 47 51
ENDBRANCH 44 47
ENDBRANCH 42 43
BRANCH 42 54
ATOM     54  CB  SER B2842      -4.205 -16.387  11.764  1.00 13.40 LIG 0.20  C 
BRANCH 54 55
ATOM     55 OG   SER B2842      -3.551 -15.135  11.678  1.00 24.06 LIG-0.40  OA
ATOM     56 HG   SER B2842      -3.157 -14.973  12.402  1.00 24.06 LIG 0.21  HD
ENDBRANCH 54 55
ENDBRANCH 42 54
ENDBRANCH 39 42
ENDBRANCH 33 38
ENDBRANCH 31 33
ENDBRANCH 1 29
TORSDOF 22
ENDMDL
MODEL 18
USER: ADFR SOLUTION from run 187
USER: SCORE 15.626599 LL:  -4.049 LR: -13.484 RR:   0.000 FEB:  -6.921
USER: RMSD 8.047983
USER: SEED 186
USER: STATUS no improvement in best in 17 clusters for 5 generations
USER: GENES 24
USER: genes 0 Translation |==|  0.30296 0.59133 0.30829
USER: genes 1 Rotation |==|  0.81393 0.52752 0.75792 0.79012
USER: genes 2 Torsion [CB]-CA--N-[C] |==|  0.20049
USER: genes 3 Torsion [N]-C--CA-[N] |==|  0.44097
USER: genes 4 Torsion [C]-CA--CB-[CG] |==|  0.30348
USER: genes 5 Torsion [CA]-CB--CG-[CD1] |==|  0.87474
USER: genes 6 Torsion [C]-CA--N-[C] |==|  0.55772
USER: genes 7 Torsion [N]-C--CA-[N] |==|  0.53855
USER: genes 8 Torsion [C]-CA--CB-[CG] |==|  0.36274
USER: genes 9 Torsion [CA]-CB--CG-[CD1] |==|  0.22416
USER: genes 10 Torsion [CE1]-CZ--OH-[HH] |==|  0.34154
USER: genes 11 Torsion [N]-CA--CB-[CG2] |==|  0.56862
USER: genes 12 Torsion [N]-CA--C-[N] |==|  0.88618
USER: genes 13 Torsion [C]-N--CA-[CB] |==|  0.24444
USER: genes 14 Torsion [N]-CA--CB-[CG2] |==|  0.84062
USER: genes 15 Torsion [CA]-CB--OG1-[HG1] |==|  0.91659
USER: genes 16 Torsion [N]-CA--C-[N] |==|  0.99465
USER: genes 17 Torsion [C]-N--CA-[C] |==|  0.85464
USER: genes 18 Torsion [N]-CA--C-[N] |==|  0.84212
USER: genes 19 Torsion [C]-N--CA-[C] |==|  0.16165
USER: genes 20 Torsion [N]-CA--C-[OXT] |==|  0.71437
USER: genes 21 Torsion [N]-CA--CB-[CG2] |==|  0.85109
USER: genes 22 Torsion [N]-CA--CB-[OG] |==|  0.85671
USER: genes 23 Torsion [CA]-CB--OG-[HG] |==|  0.34693
ROOT
ATOM      1  CA  VAL B2840      -7.455 -12.720  15.752  1.00 12.24 LIG 0.18  C 
ENDROOT
BRANCH 1 2
ATOM      2  N   VAL B2840      -6.315 -13.632  15.701  1.00  7.10 LIG-0.35  N 
ATOM      3  C   LEU B2839      -5.570 -13.870  16.775  1.00  9.29 LIG 0.24  C 
ATOM      4 O    LEU B2839      -5.702 -13.256  17.839  1.00  7.82 LIG-0.27  OA
ATOM      5 H    VAL B2840      -6.178 -13.988  14.931  1.00  7.10 LIG 0.16  HD
BRANCH 3 6
ATOM      6  CA  LEU B2839      -4.503 -14.939  16.630  1.00  6.33 LIG 0.18  C 
BRANCH 6 7
ATOM      7  CB  LEU B2839      -5.160 -16.320  16.740  1.00 14.59 LIG 0.04  C 
BRANCH 7 8
ATOM      8  CG  LEU B2839      -5.220 -17.114  15.440  1.00 24.41 LIG-0.02  C 
ATOM      9  CD1 LEU B2839      -5.686 -16.236  14.266  1.00 21.70 LIG 0.01  C 
ATOM     10  CD2 LEU B2839      -3.861 -17.752  15.158  1.00 24.63 LIG 0.01  C 
ENDBRANCH 7 8
ENDBRANCH 6 7
BRANCH 6 11
ATOM     11  N   LEU B2839      -3.456 -14.774  17.641  1.00 12.50 LIG-0.35  N 
ATOM     12 H    LEU B2839      -3.697 -14.314  18.327  1.00 12.50 LIG 0.16  HD
ATOM     13  C   TYR B2838      -2.238 -15.301  17.490  1.00 14.62 LIG 0.26  C 
ATOM     14 O    TYR B2838      -1.921 -16.009  16.535  1.00 16.58 LIG-0.27  OA
BRANCH 13 15
ATOM     15  CA  TYR B2838      -1.208 -15.000  18.570  1.00 17.58 LIG 0.40  C 
ATOM     16  N   TYR B2838       0.154 -15.335  18.173  1.00 19.10 LIG 0.61  N 
BRANCH 15 17
ATOM     17  CB  TYR B2838      -1.315 -13.545  19.028  1.00 37.20 LIG 0.09  C 
BRANCH 17 18
ATOM     18  CG  TYR B2838      -1.374 -13.407  20.531  1.00 53.42 LIG-0.06  A 
ATOM     19  CD1 TYR B2838      -0.213 -13.460  21.299  1.00 57.26 LIG 0.01  A 
ATOM     20  CE1 TYR B2838      -0.260 -13.329  22.680  1.00 58.59 LIG 0.04  A 
ATOM     21  CZ  TYR B2838      -1.476 -13.140  23.310  1.00 63.46 LIG 0.07  A 
ATOM     22  CE2 TYR B2838      -2.642 -13.083  22.570  1.00 67.17 LIG 0.04  A 
ATOM     23  CD2 TYR B2838      -2.586 -13.216  21.184  1.00 64.10 LIG 0.01  A 
BRANCH 21 24
ATOM     24 OH   TYR B2838      -1.527 -13.012  24.682  1.00 64.89 LIG-0.36  OA
ATOM     25 HH   TYR B2838      -1.894 -12.283  24.882  1.00 64.89 LIG 0.22  HD
ENDBRANCH 21 24
ENDBRANCH 17 18
ENDBRANCH 15 17
ENDBRANCH 13 15
ENDBRANCH 6 11
ENDBRANCH 3 6
ENDBRANCH 1 2
BRANCH 1 26
ATOM     26  CB  VAL B2840      -7.011 -11.244  15.860  1.00 14.53 LIG 0.01  C 
ATOM     27  CG1 VAL B2840      -6.671 -10.696  14.483  1.00 16.85 LIG 0.01  C 
ATOM     28  CG2 VAL B2840      -8.113 -10.408  16.506  1.00 19.78 LIG 0.01  C 
ENDBRANCH 1 26
BRANCH 1 29
ATOM     29  C   VAL B2840      -8.338 -12.904  14.515  1.00 10.08 LIG 0.24  C 
ATOM     30 O    VAL B2840      -9.559 -12.907  14.616  1.00 13.99 LIG-0.27  OA
ATOM     31  N   THR B2841      -7.723 -13.074  13.350  1.00  7.81 LIG-0.34  N 
ATOM     32 H    THR B2841      -6.872 -13.155  13.258  1.00  7.81 LIG 0.16  HD
BRANCH 31 33
ATOM     33  CA  THR B2841      -8.480 -13.136  12.103  1.00  9.28 LIG 0.20  C 
BRANCH 33 34
ATOM     34  CB  THR B2841      -8.693 -11.737  11.508  1.00  5.66 LIG 0.15  C 
ATOM     35  CG2 THR B2841      -9.413 -10.819  12.513  1.00  2.82 LIG 0.04  C 
BRANCH 34 36
ATOM     36 OG1  THR B2841      -7.419 -11.165  11.189  1.00  4.58 LIG-0.39  OA
ATOM     37 HG1  THR B2841      -6.838 -11.463  11.718  1.00  4.58 LIG 0.21  HD
ENDBRANCH 34 36
ENDBRANCH 33 34
BRANCH 33 38
ATOM     38  C   THR B2841      -7.801 -14.009  11.056  1.00 11.02 LIG 0.24  C 
ATOM     39  N   SER B2842      -6.627 -14.543  11.403  1.00  4.17 LIG-0.34  N 
ATOM     40 H    SER B2842      -6.208 -14.352  12.130  1.00  4.17 LIG 0.16  HD
ATOM     41 O    THR B2841      -8.329 -14.185   9.955  1.00  9.65 LIG-0.27  OA
BRANCH 39 42
ATOM     42  CA  SER B2842      -5.949 -15.513  10.554  1.00  7.92 LIG 0.20  C 
BRANCH 42 43
ATOM     43  C   SER B2842      -6.903 -16.641  10.209  1.00  8.41 LIG 0.24  C 
ATOM     44  N   VAL B2843      -7.436 -17.283  11.241  1.00 12.74 LIG-0.34  N 
ATOM     45 H    VAL B2843      -7.290 -17.071  12.062  1.00 12.74 LIG 0.16  HD
ATOM     46 O    SER B2842      -7.140 -16.926   9.041  1.00  7.66 LIG-0.27  OA
BRANCH 44 47
ATOM     47  CA  VAL B2843      -8.325 -18.418  11.071  1.00 16.92 LIG 0.19  C 
BRANCH 47 48
ATOM     48  C   VAL B2843      -7.634 -19.532  10.284  1.00 17.95 LIG 0.20  C 
ATOM     49 OXT  VAL B2843      -7.895 -19.715   9.086  1.00 12.52 LIG-0.65  OA
ATOM     50 O    VAL B2843      -6.802 -20.264  10.821  1.00 13.13 LIG-0.65  OA
ENDBRANCH 47 48
BRANCH 47 51
ATOM     51  CB  VAL B2843      -9.629 -17.992  10.357  1.00 12.90 LIG 0.01  C 
ATOM     52  CG2 VAL B2843     -10.295 -16.819  11.077  1.00 11.86 LIG 0.01  C 
ATOM     53  CG1 VAL B2843     -10.585 -19.167  10.264  1.00 11.26 LIG 0.01  C 
ENDBRANCH 47 51
ENDBRANCH 44 47
ENDBRANCH 42 43
BRANCH 42 54
ATOM     54  CB  SER B2842      -4.690 -16.069  11.231  1.00 13.40 LIG 0.20  C 
BRANCH 54 55
ATOM     55 OG   SER B2842      -3.854 -15.023  11.691  1.00 24.06 LIG-0.40  OA
ATOM     56 HG   SER B2842      -3.702 -15.126  12.511  1.00 24.06 LIG 0.21  HD
ENDBRANCH 54 55
ENDBRANCH 42 54
ENDBRANCH 39 42
ENDBRANCH 33 38
ENDBRANCH 31 33
ENDBRANCH 1 29
TORSDOF 22
ENDMDL
MODEL 19
USER: ADFR SOLUTION from run 45
USER: SCORE 14.351916 LL:  -4.006 LR: -13.484 RR:   0.000 FEB:  -6.921
USER: RMSD 13.832838
USER: SEED 44
USER: STATUS no improvement in best in 15 clusters for 5 generations
USER: GENES 24
USER: genes 0 Translation |==|  0.24479 0.70084 0.30395
USER: genes 1 Rotation |==|  0.45639 0.03394 0.54231 0.67057
USER: genes 2 Torsion [CB]-CA--N-[C] |==|  0.37562
USER: genes 3 Torsion [N]-C--CA-[N] |==|  0.89277
USER: genes 4 Torsion [C]-CA--CB-[CG] |==|  0.46042
USER: genes 5 Torsion [CA]-CB--CG-[CD1] |==|  0.98009
USER: genes 6 Torsion [C]-CA--N-[C] |==|  0.74686
USER: genes 7 Torsion [N]-C--CA-[N] |==|  0.68552
USER: genes 8 Torsion [C]-CA--CB-[CG] |==|  0.30117
USER: genes 9 Torsion [CA]-CB--CG-[CD1] |==|  0.75863
USER: genes 10 Torsion [CE1]-CZ--OH-[HH] |==|  0.20581
USER: genes 11 Torsion [N]-CA--CB-[CG2] |==|  0.88512
USER: genes 12 Torsion [N]-CA--C-[N] |==|  0.82819
USER: genes 13 Torsion [C]-N--CA-[CB] |==|  0.26471
USER: genes 14 Torsion [N]-CA--CB-[CG2] |==|  0.47793
USER: genes 15 Torsion [CA]-CB--OG1-[HG1] |==|  0.61508
USER: genes 16 Torsion [N]-CA--C-[N] |==|  0.32069
USER: genes 17 Torsion [C]-N--CA-[C] |==|  0.77222
USER: genes 18 Torsion [N]-CA--C-[N] |==|  0.19015
USER: genes 19 Torsion [C]-N--CA-[C] |==|  0.11206
USER: genes 20 Torsion [N]-CA--C-[OXT] |==|  0.62914
USER: genes 21 Torsion [N]-CA--CB-[CG2] |==|  0.03556
USER: genes 22 Torsion [N]-CA--CB-[OG] |==|  0.08270
USER: genes 23 Torsion [CA]-CB--OG-[HG] |==|  0.12104
ROOT
ATOM      1  CA  VAL B2840      -8.764 -10.995  15.622  1.00 12.24 LIG 0.18  C 
ENDROOT
BRANCH 1 2
ATOM      2  N   VAL B2840      -9.637 -11.499  14.564  1.00  7.10 LIG-0.35  N 
ATOM      3  C   LEU B2839      -9.906 -10.774  13.483  1.00  9.29 LIG 0.24  C 
ATOM      4 O    LEU B2839      -9.552  -9.598  13.353  1.00  7.82 LIG-0.27  OA
ATOM      5 H    VAL B2840      -9.950 -12.287  14.705  1.00  7.10 LIG 0.16  HD
BRANCH 3 6
ATOM      6  CA  LEU B2839     -10.711 -11.462  12.396  1.00  6.33 LIG 0.18  C 
BRANCH 6 7
ATOM      7  CB  LEU B2839     -12.202 -11.357  12.735  1.00 14.59 LIG 0.04  C 
BRANCH 7 8
ATOM      8  CG  LEU B2839     -13.152 -11.694  11.590  1.00 24.41 LIG-0.02  C 
ATOM      9  CD1 LEU B2839     -12.391 -11.900  10.270  1.00 21.70 LIG 0.01  C 
ATOM     10  CD2 LEU B2839     -13.988 -12.920  11.953  1.00 24.63 LIG 0.01  C 
ENDBRANCH 7 8
ENDBRANCH 6 7
BRANCH 6 11
ATOM     11  N   LEU B2839     -10.303 -12.862  12.250  1.00 12.50 LIG-0.35  N 
ATOM     12 H    LEU B2839     -10.731 -13.409  12.758  1.00 12.50 LIG 0.16  HD
ATOM     13  C   TYR B2838      -9.345 -13.233  11.396  1.00 14.62 LIG 0.26  C 
ATOM     14 O    TYR B2838      -8.783 -12.452  10.629  1.00 16.58 LIG-0.27  OA
BRANCH 13 15
ATOM     15  CA  TYR B2838      -8.952 -14.704  11.385  1.00 17.58 LIG 0.40  C 
ATOM     16  N   TYR B2838      -7.595 -14.938  11.863  1.00 19.10 LIG 0.61  N 
BRANCH 15 17
ATOM     17  CB  TYR B2838      -9.969 -15.540  12.160  1.00 37.20 LIG 0.09  C 
BRANCH 17 18
ATOM     18  CG  TYR B2838     -10.825 -16.402  11.262  1.00 53.42 LIG-0.06  A 
ATOM     19  CD1 TYR B2838     -11.994 -15.902  10.694  1.00 57.26 LIG 0.01  A 
ATOM     20  CE1 TYR B2838     -12.782 -16.688   9.865  1.00 58.59 LIG 0.04  A 
ATOM     21  CZ  TYR B2838     -12.403 -17.989   9.590  1.00 63.46 LIG 0.07  A 
ATOM     22  CE2 TYR B2838     -11.245 -18.508  10.139  1.00 67.17 LIG 0.04  A 
ATOM     23  CD2 TYR B2838     -10.462 -17.713  10.971  1.00 64.10 LIG 0.01  A 
BRANCH 21 24
ATOM     24 OH   TYR B2838     -13.184 -18.774   8.767  1.00 64.89 LIG-0.36  OA
ATOM     25 HH   TYR B2838     -13.088 -18.526   7.970  1.00 64.89 LIG 0.22  HD
ENDBRANCH 21 24
ENDBRANCH 17 18
ENDBRANCH 15 17
ENDBRANCH 13 15
ENDBRANCH 6 11
ENDBRANCH 3 6
ENDBRANCH 1 2
BRANCH 1 26
ATOM     26  CB  VAL B2840      -9.348 -11.259  17.028  1.00 14.53 LIG 0.01  C 
ATOM     27  CG1 VAL B2840      -8.650 -10.384  18.058  1.00 16.85 LIG 0.01  C 
ATOM     28  CG2 VAL B2840     -10.850 -10.990  17.034  1.00 19.78 LIG 0.01  C 
ENDBRANCH 1 26
BRANCH 1 29
ATOM     29  C   VAL B2840      -7.375 -11.628  15.511  1.00 10.08 LIG 0.24  C 
ATOM     30 O    VAL B2840      -6.389 -10.933  15.294  1.00 13.99 LIG-0.27  OA
ATOM     31  N   THR B2841      -7.297 -12.947  15.644  1.00  7.81 LIG-0.34  N 
ATOM     32 H    THR B2841      -7.977 -13.468  15.718  1.00  7.81 LIG 0.16  HD
BRANCH 31 33
ATOM     33  CA  THR B2841      -6.003 -13.624  15.673  1.00  9.28 LIG 0.20  C 
BRANCH 33 34
ATOM     34  CB  THR B2841      -5.527 -13.853  17.115  1.00  5.66 LIG 0.15  C 
ATOM     35  CG2 THR B2841      -4.266 -14.737  17.140  1.00  2.82 LIG 0.04  C 
BRANCH 34 36
ATOM     36 OG1  THR B2841      -5.218 -12.589  17.713  1.00  4.58 LIG-0.39  OA
ATOM     37 HG1  THR B2841      -4.513 -12.657  18.164  1.00  4.58 LIG 0.21  HD
ENDBRANCH 34 36
ENDBRANCH 33 34
BRANCH 33 38
ATOM     38  C   THR B2841      -6.034 -14.965  14.954  1.00 11.02 LIG 0.24  C 
ATOM     39  N   SER B2842      -5.272 -15.069  13.862  1.00  4.17 LIG-0.34  N 
ATOM     40 H    SER B2842      -4.849 -14.410  13.508  1.00  4.17 LIG 0.16  HD
ATOM     41 O    THR B2841      -6.743 -15.882  15.378  1.00  9.65 LIG-0.27  OA
BRANCH 39 42
ATOM     42  CA  SER B2842      -5.097 -16.340  13.172  1.00  7.92 LIG 0.20  C 
BRANCH 42 43
ATOM     43  C   SER B2842      -4.031 -17.158  13.875  1.00  8.41 LIG 0.24  C 
ATOM     44  N   VAL B2843      -4.350 -17.607  15.083  1.00 12.74 LIG-0.34  N 
ATOM     45 H    VAL B2843      -5.116 -17.481  15.451  1.00 12.74 LIG 0.16  HD
ATOM     46 O    SER B2842      -2.949 -17.368  13.341  1.00  7.66 LIG-0.27  OA
BRANCH 44 47
ATOM     47  CA  VAL B2843      -3.414 -18.359  15.900  1.00 16.92 LIG 0.19  C 
BRANCH 47 48
ATOM     48  C   VAL B2843      -2.008 -17.770  15.791  1.00 17.95 LIG 0.20  C 
ATOM     49 OXT  VAL B2843      -1.027 -18.507  15.608  1.00 12.52 LIG-0.65  OA
ATOM     50 O    VAL B2843      -1.821 -16.556  15.879  1.00 13.13 LIG-0.65  OA
ENDBRANCH 47 48
BRANCH 47 51
ATOM     51  CB  VAL B2843      -3.401 -19.850  15.488  1.00 12.90 LIG 0.01  C 
ATOM     52  CG2 VAL B2843      -4.121 -20.061  14.156  1.00 11.86 LIG 0.01  C 
ATOM     53  CG1 VAL B2843      -4.037 -20.699  16.574  1.00 11.26 LIG 0.01  C 
ENDBRANCH 47 51
ENDBRANCH 44 47
ENDBRANCH 42 43
BRANCH 42 54
ATOM     54  CB  SER B2842      -4.724 -16.131  11.699  1.00 13.40 LIG 0.20  C 
BRANCH 54 55
ATOM     55 OG   SER B2842      -4.002 -14.927  11.520  1.00 24.06 LIG-0.40  OA
ATOM     56 HG   SER B2842      -3.428 -14.851  12.128  1.00 24.06 LIG 0.21  HD
ENDBRANCH 54 55
ENDBRANCH 42 54
ENDBRANCH 39 42
ENDBRANCH 33 38
ENDBRANCH 31 33
ENDBRANCH 1 29
TORSDOF 22
ENDMDL
MODEL 20
USER: ADFR SOLUTION from run 17
USER: SCORE 14.905852 LL:  -3.672 LR: -13.449 RR:   0.000 FEB:  -6.886
USER: RMSD 13.721619
USER: SEED 16
USER: STATUS no improvement in best in 11 clusters for 5 generations
USER: GENES 24
USER: genes 0 Translation |==|  0.29988 0.62625 0.25465
USER: genes 1 Rotation |==|  0.79122 0.85358 0.30550 0.54839
USER: genes 2 Torsion [CB]-CA--N-[C] |==|  0.23210
USER: genes 3 Torsion [N]-C--CA-[N] |==|  0.19298
USER: genes 4 Torsion [C]-CA--CB-[CG] |==|  0.21389
USER: genes 5 Torsion [CA]-CB--CG-[CD1] |==|  0.05388
USER: genes 6 Torsion [C]-CA--N-[C] |==|  0.11838
USER: genes 7 Torsion [N]-C--CA-[N] |==|  0.04310
USER: genes 8 Torsion [C]-CA--CB-[CG] |==|  0.79773
USER: genes 9 Torsion [CA]-CB--CG-[CD1] |==|  0.76037
USER: genes 10 Torsion [CE1]-CZ--OH-[HH] |==|  0.71205
USER: genes 11 Torsion [N]-CA--CB-[CG2] |==|  0.86231
USER: genes 12 Torsion [N]-CA--C-[N] |==|  0.46457
USER: genes 13 Torsion [C]-N--CA-[CB] |==|  0.87046
USER: genes 14 Torsion [N]-CA--CB-[CG2] |==|  0.50788
USER: genes 15 Torsion [CA]-CB--OG1-[HG1] |==|  0.28281
USER: genes 16 Torsion [N]-CA--C-[N] |==|  0.36217
USER: genes 17 Torsion [C]-N--CA-[C] |==|  0.63341
USER: genes 18 Torsion [N]-CA--C-[N] |==|  0.84864
USER: genes 19 Torsion [C]-N--CA-[C] |==|  0.63809
USER: genes 20 Torsion [N]-CA--C-[OXT] |==|  0.30708
USER: genes 21 Torsion [N]-CA--CB-[CG2] |==|  0.96586
USER: genes 22 Torsion [N]-CA--CB-[OG] |==|  0.08972
USER: genes 23 Torsion [CA]-CB--OG-[HG] |==|  0.33628
ROOT
ATOM      1  CA  VAL B2840      -7.525 -12.170  14.142  1.00 12.24 LIG 0.18  C 
ENDROOT
BRANCH 1 2
ATOM      2  N   VAL B2840      -8.254 -13.197  13.402  1.00  7.10 LIG-0.35  N 
ATOM      3  C   LEU B2839      -8.135 -13.318  12.084  1.00  9.29 LIG 0.24  C 
ATOM      4 O    LEU B2839      -7.516 -12.509  11.385  1.00  7.82 LIG-0.27  OA
ATOM      5 H    VAL B2840      -8.752 -13.701  13.889  1.00  7.10 LIG 0.16  HD
BRANCH 3 6
ATOM      6  CA  LEU B2839      -8.833 -14.508  11.453  1.00  6.33 LIG 0.18  C 
BRANCH 6 7
ATOM      7  CB  LEU B2839      -8.353 -14.660  10.005  1.00 14.59 LIG 0.04  C 
BRANCH 7 8
ATOM      8  CG  LEU B2839      -6.969 -15.280   9.844  1.00 24.41 LIG-0.02  C 
ATOM      9  CD1 LEU B2839      -6.548 -16.052  11.106  1.00 21.70 LIG 0.01  C 
ATOM     10  CD2 LEU B2839      -6.943 -16.174   8.605  1.00 24.63 LIG 0.01  C 
ENDBRANCH 7 8
ENDBRANCH 6 7
BRANCH 6 11
ATOM     11  N   LEU B2839     -10.289 -14.350  11.508  1.00 12.50 LIG-0.35  N 
ATOM     12 H    LEU B2839     -10.714 -15.064  11.728  1.00 12.50 LIG 0.16  HD
ATOM     13  C   TYR B2838     -10.883 -13.184  11.238  1.00 14.62 LIG 0.26  C 
ATOM     14 O    TYR B2838     -10.264 -12.151  10.987  1.00 16.58 LIG-0.27  OA
BRANCH 13 15
ATOM     15  CA  TYR B2838     -12.406 -13.157  11.253  1.00 17.58 LIG 0.40  C 
ATOM     16  N   TYR B2838     -12.993 -14.319  11.908  1.00 19.10 LIG 0.61  N 
BRANCH 15 17
ATOM     17  CB  TYR B2838     -12.915 -11.853  11.865  1.00 37.20 LIG 0.09  C 
BRANCH 17 18
ATOM     18  CG  TYR B2838     -12.721 -11.793  13.362  1.00 53.42 LIG-0.06  A 
ATOM     19  CD1 TYR B2838     -13.670 -12.330  14.227  1.00 57.26 LIG 0.01  A 
ATOM     20  CE1 TYR B2838     -13.496 -12.283  15.604  1.00 58.59 LIG 0.04  A 
ATOM     21  CZ  TYR B2838     -12.359 -11.696  16.131  1.00 63.46 LIG 0.07  A 
ATOM     22  CE2 TYR B2838     -11.401 -11.158  15.292  1.00 67.17 LIG 0.04  A 
ATOM     23  CD2 TYR B2838     -11.585 -11.210  13.913  1.00 64.10 LIG 0.01  A 
BRANCH 21 24
ATOM     24 OH   TYR B2838     -12.182 -11.646  17.497  1.00 64.89 LIG-0.36  OA
ATOM     25 HH   TYR B2838     -12.344 -10.868  17.772  1.00 64.89 LIG 0.22  HD
ENDBRANCH 21 24
ENDBRANCH 17 18
ENDBRANCH 15 17
ENDBRANCH 13 15
ENDBRANCH 6 11
ENDBRANCH 3 6
ENDBRANCH 1 2
BRANCH 1 26
ATOM     26  CB  VAL B2840      -8.258 -10.810  14.118  1.00 14.53 LIG 0.01  C 
ATOM     27  CG1 VAL B2840      -7.374  -9.726  14.715  1.00 16.85 LIG 0.01  C 
ATOM     28  CG2 VAL B2840      -8.649 -10.447  12.688  1.00 19.78 LIG 0.01  C 
ENDBRANCH 1 26
BRANCH 1 29
ATOM     29  C   VAL B2840      -7.306 -12.613  15.591  1.00 10.08 LIG 0.24  C 
ATOM     30 O    VAL B2840      -7.921 -13.569  16.049  1.00 13.99 LIG-0.27  OA
ATOM     31  N   THR B2841      -6.441 -11.914  16.317  1.00  7.81 LIG-0.34  N 
ATOM     32 H    THR B2841      -6.054 -11.194  16.048  1.00  7.81 LIG 0.16  HD
BRANCH 31 33
ATOM     33  CA  THR B2841      -6.079 -12.335  17.667  1.00  9.28 LIG 0.20  C 
BRANCH 33 34
ATOM     34  CB  THR B2841      -7.322 -12.706  18.488  1.00  5.66 LIG 0.15  C 
ATOM     35  CG2 THR B2841      -6.933 -13.080  19.930  1.00  2.82 LIG 0.04  C 
BRANCH 34 36
ATOM     36 OG1  THR B2841      -8.210 -11.583  18.525  1.00  4.58 LIG-0.39  OA
ATOM     37 HG1  THR B2841      -8.838 -11.704  17.979  1.00  4.58 LIG 0.21  HD
ENDBRANCH 34 36
ENDBRANCH 33 34
BRANCH 33 38
ATOM     38  C   THR B2841      -5.127 -13.524  17.666  1.00 11.02 LIG 0.24  C 
ATOM     39  N   SER B2842      -4.036 -13.408  18.429  1.00  4.17 LIG-0.34  N 
ATOM     40 H    SER B2842      -3.809 -12.685  18.836  1.00  4.17 LIG 0.16  HD
ATOM     41 O    THR B2841      -5.375 -14.519  16.981  1.00  9.65 LIG-0.27  OA
BRANCH 39 42
ATOM     42  CA  SER B2842      -3.126 -14.527  18.633  1.00  7.92 LIG 0.20  C 
BRANCH 42 43
ATOM     43  C   SER B2842      -2.821 -14.672  20.111  1.00  8.41 LIG 0.24  C 
ATOM     44  N   VAL B2843      -2.356 -13.585  20.715  1.00 12.74 LIG-0.34  N 
ATOM     45 H    VAL B2843      -2.256 -12.827  20.322  1.00 12.74 LIG 0.16  HD
ATOM     46 O    SER B2842      -2.994 -15.741  20.685  1.00  7.66 LIG-0.27  OA
BRANCH 44 47
ATOM     47  CA  VAL B2843      -1.969 -13.583  22.115  1.00 16.92 LIG 0.19  C 
BRANCH 47 48
ATOM     48  C   VAL B2843      -2.614 -12.409  22.851  1.00 17.95 LIG 0.20  C 
ATOM     49 OXT  VAL B2843      -3.504 -12.603  23.692  1.00 12.52 LIG-0.65  OA
ATOM     50 O    VAL B2843      -2.261 -11.251  22.628  1.00 13.13 LIG-0.65  OA
ENDBRANCH 47 48
BRANCH 47 51
ATOM     51  CB  VAL B2843      -0.430 -13.523  22.259  1.00 12.90 LIG 0.01  C 
ATOM     52  CG2 VAL B2843       0.261 -13.786  20.921  1.00 11.86 LIG 0.01  C 
ATOM     53  CG1 VAL B2843       0.037 -14.521  23.303  1.00 11.26 LIG 0.01  C 
ENDBRANCH 47 51
ENDBRANCH 44 47
ENDBRANCH 42 43
BRANCH 42 54
ATOM     54  CB  SER B2842      -1.828 -14.347  17.836  1.00 13.40 LIG 0.20  C 
BRANCH 54 55
ATOM     55 OG   SER B2842      -1.483 -12.979  17.724  1.00 24.06 LIG-0.40  OA
ATOM     56 HG   SER B2842      -0.724 -12.852  18.061  1.00 24.06 LIG 0.21  HD
ENDBRANCH 54 55
ENDBRANCH 42 54
ENDBRANCH 39 42
ENDBRANCH 33 38
ENDBRANCH 31 33
ENDBRANCH 1 29
TORSDOF 22
ENDMDL
MODEL 21
USER: ADFR SOLUTION from run 119
USER: SCORE 15.670932 LL:  -4.150 LR: -13.419 RR:   0.000 FEB:  -6.856
USER: RMSD 12.598207
USER: SEED 118
USER: STATUS no improvement in best in 8 clusters for 5 generations
USER: GENES 24
USER: genes 0 Translation |==|  0.34079 0.47516 0.32524
USER: genes 1 Rotation |==|  0.82471 0.29398 0.18274 0.53835
USER: genes 2 Torsion [CB]-CA--N-[C] |==|  0.43333
USER: genes 3 Torsion [N]-C--CA-[N] |==|  0.94517
USER: genes 4 Torsion [C]-CA--CB-[CG] |==|  0.41490
USER: genes 5 Torsion [CA]-CB--CG-[CD1] |==|  0.59178
USER: genes 6 Torsion [C]-CA--N-[C] |==|  0.78343
USER: genes 7 Torsion [N]-C--CA-[N] |==|  0.74969
USER: genes 8 Torsion [C]-CA--CB-[CG] |==|  0.79316
USER: genes 9 Torsion [CA]-CB--CG-[CD1] |==|  0.33654
USER: genes 10 Torsion [CE1]-CZ--OH-[HH] |==|  0.36437
USER: genes 11 Torsion [N]-CA--CB-[CG2] |==|  0.94957
USER: genes 12 Torsion [N]-CA--C-[N] |==|  0.48821
USER: genes 13 Torsion [C]-N--CA-[CB] |==|  0.22174
USER: genes 14 Torsion [N]-CA--CB-[CG2] |==|  0.15448
USER: genes 15 Torsion [CA]-CB--OG1-[HG1] |==|  0.13329
USER: genes 16 Torsion [N]-CA--C-[N] |==|  0.04524
USER: genes 17 Torsion [C]-N--CA-[C] |==|  0.78449
USER: genes 18 Torsion [N]-CA--C-[N] |==|  0.48113
USER: genes 19 Torsion [C]-N--CA-[C] |==|  0.62753
USER: genes 20 Torsion [N]-CA--C-[OXT] |==|  0.87192
USER: genes 21 Torsion [N]-CA--CB-[CG2] |==|  0.85794
USER: genes 22 Torsion [N]-CA--CB-[OG] |==|  0.09908
USER: genes 23 Torsion [CA]-CB--OG-[HG] |==|  0.66203
ROOT
ATOM      1  CA  VAL B2840      -6.604 -14.549  16.260  1.00 12.24 LIG 0.18  C 
ENDROOT
BRANCH 1 2
ATOM      2  N   VAL B2840      -7.689 -13.652  15.868  1.00  7.10 LIG-0.35  N 
ATOM      3  C   LEU B2839      -8.677 -13.352  16.705  1.00  9.29 LIG 0.24  C 
ATOM      4 O    LEU B2839      -8.819 -13.896  17.805  1.00  7.82 LIG-0.27  OA
ATOM      5 H    VAL B2840      -7.627 -13.347  15.067  1.00  7.10 LIG 0.16  HD
BRANCH 3 6
ATOM      6  CA  LEU B2839      -9.666 -12.304  16.229  1.00  6.33 LIG 0.18  C 
BRANCH 6 7
ATOM      7  CB  LEU B2839     -10.951 -13.001  15.768  1.00 14.59 LIG 0.04  C 
BRANCH 7 8
ATOM      8  CG  LEU B2839     -12.229 -12.191  15.954  1.00 24.41 LIG-0.02  C 
ATOM      9  CD1 LEU B2839     -13.430 -13.098  16.268  1.00 21.70 LIG 0.01  C 
ATOM     10  CD2 LEU B2839     -12.022 -11.138  17.042  1.00 24.63 LIG 0.01  C 
ENDBRANCH 7 8
ENDBRANCH 6 7
BRANCH 6 11
ATOM     11  N   LEU B2839      -9.091 -11.496  15.150  1.00 12.50 LIG-0.35  N 
ATOM     12 H    LEU B2839      -9.367 -11.709  14.363  1.00 12.50 LIG 0.16  HD
ATOM     13  C   TYR B2838      -8.215 -10.516  15.391  1.00 14.62 LIG 0.26  C 
ATOM     14 O    TYR B2838      -7.875 -10.177  16.523  1.00 16.58 LIG-0.27  OA
BRANCH 13 15
ATOM     15  CA  TYR B2838      -7.627  -9.794  14.186  1.00 17.58 LIG 0.40  C 
ATOM     16  N   TYR B2838      -6.401 -10.408  13.693  1.00 19.10 LIG 0.61  N 
BRANCH 15 17
ATOM     17  CB  TYR B2838      -8.669  -9.658  13.077  1.00 37.20 LIG 0.09  C 
BRANCH 17 18
ATOM     18  CG  TYR B2838      -8.926 -10.959  12.352  1.00 53.42 LIG-0.06  A 
ATOM     19  CD1 TYR B2838     -10.201 -11.517  12.316  1.00 57.26 LIG 0.01  A 
ATOM     20  CE1 TYR B2838     -10.445 -12.709  11.648  1.00 58.59 LIG 0.04  A 
ATOM     21  CZ  TYR B2838      -9.407 -13.357  11.003  1.00 63.46 LIG 0.07  A 
ATOM     22  CE2 TYR B2838      -8.132 -12.823  11.023  1.00 67.17 LIG 0.04  A 
ATOM     23  CD2 TYR B2838      -7.898 -11.626  11.696  1.00 64.10 LIG 0.01  A 
BRANCH 21 24
ATOM     24 OH   TYR B2838      -9.644 -14.543  10.340  1.00 64.89 LIG-0.36  OA
ATOM     25 HH   TYR B2838      -9.311 -14.505   9.570  1.00 64.89 LIG 0.22  HD
ENDBRANCH 21 24
ENDBRANCH 17 18
ENDBRANCH 15 17
ENDBRANCH 13 15
ENDBRANCH 6 11
ENDBRANCH 3 6
ENDBRANCH 1 2
BRANCH 1 26
ATOM     26  CB  VAL B2840      -5.934 -15.215  15.038  1.00 14.53 LIG 0.01  C 
ATOM     27  CG1 VAL B2840      -5.614 -16.670  15.342  1.00 16.85 LIG 0.01  C 
ATOM     28  CG2 VAL B2840      -6.845 -15.116  13.818  1.00 19.78 LIG 0.01  C 
ENDBRANCH 1 26
BRANCH 1 29
ATOM     29  C   VAL B2840      -5.555 -13.789  17.075  1.00 10.08 LIG 0.24  C 
ATOM     30 O    VAL B2840      -5.650 -12.578  17.236  1.00 13.99 LIG-0.27  OA
ATOM     31  N   THR B2841      -4.548 -14.494  17.578  1.00  7.81 LIG-0.34  N 
ATOM     32 H    THR B2841      -4.413 -15.328  17.417  1.00  7.81 LIG 0.16  HD
BRANCH 31 33
ATOM     33  CA  THR B2841      -3.569 -13.876  18.467  1.00  9.28 LIG 0.20  C 
BRANCH 33 34
ATOM     34  CB  THR B2841      -4.110 -13.762  19.899  1.00  5.66 LIG 0.15  C 
ATOM     35  CG2 THR B2841      -4.554 -15.138  20.428  1.00  2.82 LIG 0.04  C 
BRANCH 34 36
ATOM     36 OG1  THR B2841      -3.078 -13.250  20.751  1.00  4.58 LIG-0.39  OA
ATOM     37 HG1  THR B2841      -2.726 -12.577  20.391  1.00  4.58 LIG 0.21  HD
ENDBRANCH 34 36
ENDBRANCH 33 34
BRANCH 33 38
ATOM     38  C   THR B2841      -2.255 -14.645  18.506  1.00 11.02 LIG 0.24  C 
ATOM     39  N   SER B2842      -2.055 -15.524  17.519  1.00  4.17 LIG-0.34  N 
ATOM     40 H    SER B2842      -2.650 -15.732  16.934  1.00  4.17 LIG 0.16  HD
ATOM     41 O    THR B2841      -1.446 -14.450  19.416  1.00  9.65 LIG-0.27  OA
BRANCH 39 42
ATOM     42  CA  SER B2842      -0.782 -16.211  17.357  1.00  7.92 LIG 0.20  C 
BRANCH 42 43
ATOM     43  C   SER B2842       0.225 -15.273  16.719  1.00  8.41 LIG 0.24  C 
ATOM     44  N   VAL B2843       1.470 -15.728  16.641  1.00 12.74 LIG-0.34  N 
ATOM     45 H    VAL B2843       1.708 -16.513  16.900  1.00 12.74 LIG 0.16  HD
ATOM     46 O    SER B2842      -0.115 -14.167  16.318  1.00  7.66 LIG-0.27  OA
BRANCH 44 47
ATOM     47  CA  VAL B2843       2.555 -14.925  16.105  1.00 16.92 LIG 0.19  C 
BRANCH 47 48
ATOM     48  C   VAL B2843       3.400 -15.743  15.128  1.00 17.95 LIG 0.20  C 
ATOM     49 OXT  VAL B2843       3.766 -16.892  15.419  1.00 12.52 LIG-0.65  OA
ATOM     50 O    VAL B2843       3.730 -15.281  14.036  1.00 13.13 LIG-0.65  OA
ENDBRANCH 47 48
BRANCH 47 51
ATOM     51  CB  VAL B2843       3.443 -14.370  17.243  1.00 12.90 LIG 0.01  C 
ATOM     52  CG2 VAL B2843       2.599 -13.674  18.312  1.00 11.86 LIG 0.01  C 
ATOM     53  CG1 VAL B2843       4.479 -13.415  16.681  1.00 11.26 LIG 0.01  C 
ENDBRANCH 47 51
ENDBRANCH 44 47
ENDBRANCH 42 43
BRANCH 42 54
ATOM     54  CB  SER B2842      -0.934 -17.483  16.512  1.00 13.40 LIG 0.20  C 
BRANCH 54 55
ATOM     55 OG   SER B2842      -1.896 -17.305  15.490  1.00 24.06 LIG-0.40  OA
ATOM     56 HG   SER B2842      -2.504 -17.878  15.574  1.00 24.06 LIG 0.21  HD
ENDBRANCH 54 55
ENDBRANCH 42 54
ENDBRANCH 39 42
ENDBRANCH 33 38
ENDBRANCH 31 33
ENDBRANCH 1 29
TORSDOF 22
ENDMDL
MODEL 22
USER: ADFR SOLUTION from run 21
USER: SCORE 15.037490 LL:  -3.877 LR: -13.421 RR:   0.000 FEB:  -6.859
USER: RMSD 13.647177
USER: SEED 20
USER: STATUS no improvement in best in 2 clusters for 5 generations
USER: GENES 24
USER: genes 0 Translation |==|  0.25730 0.67973 0.30748
USER: genes 1 Rotation |==|  0.40785 0.02621 0.54744 0.62159
USER: genes 2 Torsion [CB]-CA--N-[C] |==|  0.34242
USER: genes 3 Torsion [N]-C--CA-[N] |==|  0.83637
USER: genes 4 Torsion [C]-CA--CB-[CG] |==|  0.33007
USER: genes 5 Torsion [CA]-CB--CG-[CD1] |==|  0.23913
USER: genes 6 Torsion [C]-CA--N-[C] |==|  0.80419
USER: genes 7 Torsion [N]-C--CA-[N] |==|  0.78732
USER: genes 8 Torsion [C]-CA--CB-[CG] |==|  0.44291
USER: genes 9 Torsion [CA]-CB--CG-[CD1] |==|  0.74228
USER: genes 10 Torsion [CE1]-CZ--OH-[HH] |==|  0.50621
USER: genes 11 Torsion [N]-CA--CB-[CG2] |==|  0.91934
USER: genes 12 Torsion [N]-CA--C-[N] |==|  0.78702
USER: genes 13 Torsion [C]-N--CA-[CB] |==|  0.83001
USER: genes 14 Torsion [N]-CA--CB-[CG2] |==|  0.63686
USER: genes 15 Torsion [CA]-CB--OG1-[HG1] |==|  0.34918
USER: genes 16 Torsion [N]-CA--C-[N] |==|  0.38733
USER: genes 17 Torsion [C]-N--CA-[C] |==|  0.72222
USER: genes 18 Torsion [N]-CA--C-[N] |==|  0.95800
USER: genes 19 Torsion [C]-N--CA-[C] |==|  0.64214
USER: genes 20 Torsion [N]-CA--C-[OXT] |==|  0.82899
USER: genes 21 Torsion [N]-CA--CB-[CG2] |==|  0.95061
USER: genes 22 Torsion [N]-CA--CB-[OG] |==|  0.88047
USER: genes 23 Torsion [CA]-CB--OG-[HG] |==|  0.86028
ROOT
ATOM      1  CA  VAL B2840      -8.483 -11.327  15.727  1.00 12.24 LIG 0.18  C 
ENDROOT
BRANCH 1 2
ATOM      2  N   VAL B2840      -9.199 -11.820  14.553  1.00  7.10 LIG-0.35  N 
ATOM      3  C   LEU B2839      -9.322 -11.081  13.455  1.00  9.29 LIG 0.24  C 
ATOM      4 O    LEU B2839      -8.959  -9.901  13.391  1.00  7.82 LIG-0.27  OA
ATOM      5 H    VAL B2840      -9.524 -12.611  14.640  1.00  7.10 LIG 0.16  HD
BRANCH 3 6
ATOM      6  CA  LEU B2839      -9.966 -11.756  12.259  1.00  6.33 LIG 0.18  C 
BRANCH 6 7
ATOM      7  CB  LEU B2839     -11.414 -12.119  12.608  1.00 14.59 LIG 0.04  C 
BRANCH 7 8
ATOM      8  CG  LEU B2839     -12.475 -11.454  11.738  1.00 24.41 LIG-0.02  C 
ATOM      9  CD1 LEU B2839     -12.741 -12.263  10.457  1.00 21.70 LIG 0.01  C 
ATOM     10  CD2 LEU B2839     -13.755 -11.249  12.547  1.00 24.63 LIG 0.01  C 
ENDBRANCH 7 8
ENDBRANCH 6 7
BRANCH 6 11
ATOM     11  N   LEU B2839      -9.209 -12.946  11.861  1.00 12.50 LIG-0.35  N 
ATOM     12 H    LEU B2839      -9.607 -13.690  12.025  1.00 12.50 LIG 0.16  HD
ATOM     13  C   TYR B2838      -8.003 -12.859  11.292  1.00 14.62 LIG 0.26  C 
ATOM     14 O    TYR B2838      -7.468 -11.789  11.002  1.00 16.58 LIG-0.27  OA
BRANCH 13 15
ATOM     15  CA  TYR B2838      -7.277 -14.163  10.990  1.00 17.58 LIG 0.40  C 
ATOM     16  N   TYR B2838      -6.690 -14.778  12.173  1.00 19.10 LIG 0.61  N 
BRANCH 15 17
ATOM     17  CB  TYR B2838      -8.198 -15.134  10.253  1.00 37.20 LIG 0.09  C 
BRANCH 17 18
ATOM     18  CG  TYR B2838      -7.440 -16.205   9.504  1.00 53.42 LIG-0.06  A 
ATOM     19  CD1 TYR B2838      -7.097 -16.033   8.165  1.00 57.26 LIG 0.01  A 
ATOM     20  CE1 TYR B2838      -6.397 -17.011   7.472  1.00 58.59 LIG 0.04  A 
ATOM     21  CZ  TYR B2838      -6.027 -18.177   8.118  1.00 63.46 LIG 0.07  A 
ATOM     22  CE2 TYR B2838      -6.353 -18.370   9.447  1.00 67.17 LIG 0.04  A 
ATOM     23  CD2 TYR B2838      -7.057 -17.384  10.134  1.00 64.10 LIG 0.01  A 
BRANCH 21 24
ATOM     24 OH   TYR B2838      -5.333 -19.151   7.432  1.00 64.89 LIG-0.36  OA
ATOM     25 HH   TYR B2838      -5.203 -19.810   7.937  1.00 64.89 LIG 0.22  HD
ENDBRANCH 21 24
ENDBRANCH 17 18
ENDBRANCH 15 17
ENDBRANCH 13 15
ENDBRANCH 6 11
ENDBRANCH 3 6
ENDBRANCH 1 2
BRANCH 1 26
ATOM     26  CB  VAL B2840      -9.368 -11.342  16.993  1.00 14.53 LIG 0.01  C 
ATOM     27  CG1 VAL B2840      -8.932 -10.245  17.951  1.00 16.85 LIG 0.01  C 
ATOM     28  CG2 VAL B2840     -10.835 -11.161  16.613  1.00 19.78 LIG 0.01  C 
ENDBRANCH 1 26
BRANCH 1 29
ATOM     29  C   VAL B2840      -7.222 -12.161  15.968  1.00 10.08 LIG 0.24  C 
ATOM     30 O    VAL B2840      -6.120 -11.729  15.652  1.00 13.99 LIG-0.27  OA
ATOM     31  N   THR B2841      -7.382 -13.361  16.514  1.00  7.81 LIG-0.34  N 
ATOM     32 H    THR B2841      -8.146 -13.723  16.674  1.00  7.81 LIG 0.16  HD
BRANCH 31 33
ATOM     33  CA  THR B2841      -6.230 -14.175  16.891  1.00  9.28 LIG 0.20  C 
BRANCH 33 34
ATOM     34  CB  THR B2841      -5.360 -14.510  15.671  1.00  5.66 LIG 0.15  C 
ATOM     35  CG2 THR B2841      -5.047 -16.016  15.619  1.00  2.82 LIG 0.04  C 
BRANCH 34 36
ATOM     36 OG1  THR B2841      -6.063 -14.141  14.479  1.00  4.58 LIG-0.39  OA
ATOM     37 HG1  THR B2841      -5.582 -13.631  14.017  1.00  4.58 LIG 0.21  HD
ENDBRANCH 34 36
ENDBRANCH 33 34
BRANCH 33 38
ATOM     38  C   THR B2841      -5.358 -13.495  17.936  1.00 11.02 LIG 0.24  C 
ATOM     39  N   SER B2842      -4.877 -14.278  18.906  1.00  4.17 LIG-0.34  N 
ATOM     40 H    SER B2842      -5.101 -15.101  19.014  1.00  4.17 LIG 0.16  HD
ATOM     41 O    THR B2841      -5.134 -12.283  17.868  1.00  9.65 LIG-0.27  OA
BRANCH 39 42
ATOM     42  CA  SER B2842      -3.911 -13.783  19.878  1.00  7.92 LIG 0.20  C 
BRANCH 42 43
ATOM     43  C   SER B2842      -2.517 -14.230  19.483  1.00  8.41 LIG 0.24  C 
ATOM     44  N   VAL B2843      -2.455 -15.199  18.577  1.00 12.74 LIG-0.34  N 
ATOM     45 H    VAL B2843      -3.146 -15.543  18.200  1.00 12.74 LIG 0.16  HD
ATOM     46 O    SER B2842      -1.527 -13.719  19.993  1.00  7.66 LIG-0.27  OA
BRANCH 44 47
ATOM     47  CA  VAL B2843      -1.193 -15.768  18.138  1.00 16.92 LIG 0.19  C 
BRANCH 47 48
ATOM     48  C   VAL B2843      -1.103 -15.769  16.612  1.00 17.95 LIG 0.20  C 
ATOM     49 OXT  VAL B2843      -1.919 -16.408  15.931  1.00 12.52 LIG-0.65  OA
ATOM     50 O    VAL B2843      -0.224 -15.133  16.029  1.00 13.13 LIG-0.65  OA
ENDBRANCH 47 48
BRANCH 47 51
ATOM     51  CB  VAL B2843      -1.020 -17.205  18.683  1.00 12.90 LIG 0.01  C 
ATOM     52  CG2 VAL B2843      -1.967 -17.470  19.854  1.00 11.86 LIG 0.01  C 
ATOM     53  CG1 VAL B2843       0.420 -17.436  19.103  1.00 11.26 LIG 0.01  C 
ENDBRANCH 47 51
ENDBRANCH 44 47
ENDBRANCH 42 43
BRANCH 42 54
ATOM     54  CB  SER B2842      -4.244 -14.265  21.296  1.00 13.40 LIG 0.20  C 
BRANCH 54 55
ATOM     55 OG   SER B2842      -5.631 -14.164  21.557  1.00 24.06 LIG-0.40  OA
ATOM     56 HG   SER B2842      -5.899 -13.394  21.355  1.00 24.06 LIG 0.21  HD
ENDBRANCH 54 55
ENDBRANCH 42 54
ENDBRANCH 39 42
ENDBRANCH 33 38
ENDBRANCH 31 33
ENDBRANCH 1 29
TORSDOF 22
ENDMDL
MODEL 23
USER: ADFR SOLUTION from run 126
USER: SCORE 16.422867 LL:  -4.457 LR: -13.379 RR:   0.000 FEB:  -6.816
USER: RMSD 5.599602
USER: SEED 125
USER: STATUS searching
USER: GENES 24
USER: genes 0 Translation |==|  0.44376 0.48286 0.36278
USER: genes 1 Rotation |==|  0.24580 0.62526 0.22454 0.80630
USER: genes 2 Torsion [CB]-CA--N-[C] |==|  0.22568
USER: genes 3 Torsion [N]-C--CA-[N] |==|  0.10979
USER: genes 4 Torsion [C]-CA--CB-[CG] |==|  0.44344
USER: genes 5 Torsion [CA]-CB--CG-[CD1] |==|  0.26434
USER: genes 6 Torsion [C]-CA--N-[C] |==|  0.16600
USER: genes 7 Torsion [N]-C--CA-[N] |==|  0.31970
USER: genes 8 Torsion [C]-CA--CB-[CG] |==|  0.24908
USER: genes 9 Torsion [CA]-CB--CG-[CD1] |==|  0.57301
USER: genes 10 Torsion [CE1]-CZ--OH-[HH] |==|  0.79192
USER: genes 11 Torsion [N]-CA--CB-[CG2] |==|  0.08812
USER: genes 12 Torsion [N]-CA--C-[N] |==|  0.56084
USER: genes 13 Torsion [C]-N--CA-[CB] |==|  0.85000
USER: genes 14 Torsion [N]-CA--CB-[CG2] |==|  0.53412
USER: genes 15 Torsion [CA]-CB--OG1-[HG1] |==|  0.82517
USER: genes 16 Torsion [N]-CA--C-[N] |==|  0.40227
USER: genes 17 Torsion [C]-N--CA-[C] |==|  0.19430
USER: genes 18 Torsion [N]-CA--C-[N] |==|  0.05490
USER: genes 19 Torsion [C]-N--CA-[C] |==|  0.77768
USER: genes 20 Torsion [N]-CA--C-[OXT] |==|  0.05091
USER: genes 21 Torsion [N]-CA--CB-[CG2] |==|  0.91285
USER: genes 22 Torsion [N]-CA--CB-[OG] |==|  0.25138
USER: genes 23 Torsion [CA]-CB--OG-[HG] |==|  0.91835
ROOT
ATOM      1  CA  VAL B2840      -4.288 -14.428  17.386  1.00 12.24 LIG 0.18  C 
ENDROOT
BRANCH 1 2
ATOM      2  N   VAL B2840      -3.239 -13.790  18.179  1.00  7.10 LIG-0.35  N 
ATOM      3  C   LEU B2839      -1.973 -14.186  18.101  1.00  9.29 LIG 0.24  C 
ATOM      4 O    LEU B2839      -1.615 -15.182  17.464  1.00  7.82 LIG-0.27  OA
ATOM      5 H    VAL B2840      -3.514 -13.152  18.686  1.00  7.10 LIG 0.16  HD
BRANCH 3 6
ATOM      6  CA  LEU B2839      -0.960 -13.355  18.867  1.00  6.33 LIG 0.18  C 
BRANCH 6 7
ATOM      7  CB  LEU B2839       0.325 -14.171  19.045  1.00 14.59 LIG 0.04  C 
BRANCH 7 8
ATOM      8  CG  LEU B2839       1.575 -13.352  19.346  1.00 24.41 LIG-0.02  C 
ATOM      9  CD1 LEU B2839       1.844 -13.268  20.858  1.00 21.70 LIG 0.01  C 
ATOM     10  CD2 LEU B2839       2.771 -13.937  18.596  1.00 24.63 LIG 0.01  C 
ENDBRANCH 7 8
ENDBRANCH 6 7
BRANCH 6 11
ATOM     11  N   LEU B2839      -1.501 -12.938  20.163  1.00 12.50 LIG-0.35  N 
ATOM     12 H    LEU B2839      -1.541 -12.086  20.273  1.00 12.50 LIG 0.16  HD
ATOM     13  C   TYR B2838      -1.892 -13.825  21.083  1.00 14.62 LIG 0.26  C 
ATOM     14 O    TYR B2838      -1.890 -15.041  20.895  1.00 16.58 LIG-0.27  OA
BRANCH 13 15
ATOM     15  CA  TYR B2838      -2.366 -13.278  22.423  1.00 17.58 LIG 0.40  C 
ATOM     16  N   TYR B2838      -3.775 -13.543  22.683  1.00 19.10 LIG 0.61  N 
BRANCH 15 17
ATOM     17  CB  TYR B2838      -1.482 -13.791  23.559  1.00 37.20 LIG 0.09  C 
BRANCH 17 18
ATOM     18  CG  TYR B2838      -0.301 -12.890  23.834  1.00 53.42 LIG-0.06  A 
ATOM     19  CD1 TYR B2838       0.867 -13.395  24.397  1.00 57.26 LIG 0.01  A 
ATOM     20  CE1 TYR B2838       1.957 -12.573  24.650  1.00 58.59 LIG 0.04  A 
ATOM     21  CZ  TYR B2838       1.888 -11.228  24.335  1.00 63.46 LIG 0.07  A 
ATOM     22  CE2 TYR B2838       0.740 -10.702  23.773  1.00 67.17 LIG 0.04  A 
ATOM     23  CD2 TYR B2838      -0.349 -11.535  23.525  1.00 64.10 LIG 0.01  A 
BRANCH 21 24
ATOM     24 OH   TYR B2838       2.968 -10.408  24.585  1.00 64.89 LIG-0.36  OA
ATOM     25 HH   TYR B2838       3.017 -10.253  25.410  1.00 64.89 LIG 0.22  HD
ENDBRANCH 21 24
ENDBRANCH 17 18
ENDBRANCH 15 17
ENDBRANCH 13 15
ENDBRANCH 6 11
ENDBRANCH 3 6
ENDBRANCH 1 2
BRANCH 1 26
ATOM     26  CB  VAL B2840      -4.780 -15.743  18.031  1.00 14.53 LIG 0.01  C 
ATOM     27  CG1 VAL B2840      -3.960 -16.917  17.519  1.00 16.85 LIG 0.01  C 
ATOM     28  CG2 VAL B2840      -4.685 -15.653  19.551  1.00 19.78 LIG 0.01  C 
ENDBRANCH 1 26
BRANCH 1 29
ATOM     29  C   VAL B2840      -5.467 -13.471  17.198  1.00 10.08 LIG 0.24  C 
ATOM     30 O    VAL B2840      -5.314 -12.262  17.327  1.00 13.99 LIG-0.27  OA
ATOM     31  N   THR B2841      -6.646 -14.009  16.908  1.00  7.81 LIG-0.34  N 
ATOM     32 H    THR B2841      -6.801 -14.855  16.889  1.00  7.81 LIG 0.16  HD
BRANCH 31 33
ATOM     33  CA  THR B2841      -7.798 -13.169  16.593  1.00  9.28 LIG 0.20  C 
BRANCH 33 34
ATOM     34  CB  THR B2841      -8.054 -12.134  17.697  1.00  5.66 LIG 0.15  C 
ATOM     35  CG2 THR B2841      -9.428 -11.466  17.514  1.00  2.82 LIG 0.04  C 
BRANCH 34 36
ATOM     36 OG1  THR B2841      -8.024 -12.791  18.970  1.00  4.58 LIG-0.39  OA
ATOM     37 HG1  THR B2841      -8.645 -13.355  19.009  1.00  4.58 LIG 0.21  HD
ENDBRANCH 34 36
ENDBRANCH 33 34
BRANCH 33 38
ATOM     38  C   THR B2841      -7.634 -12.435  15.269  1.00 11.02 LIG 0.24  C 
ATOM     39  N   SER B2842      -8.745 -12.264  14.546  1.00  4.17 LIG-0.34  N 
ATOM     40 H    SER B2842      -9.505 -12.615  14.743  1.00  4.17 LIG 0.16  HD
ATOM     41 O    THR B2841      -6.522 -12.040  14.910  1.00  9.65 LIG-0.27  OA
BRANCH 39 42
ATOM     42  CA  SER B2842      -8.751 -11.450  13.338  1.00  7.92 LIG 0.20  C 
BRANCH 42 43
ATOM     43  C   SER B2842      -7.966 -12.152  12.247  1.00  8.41 LIG 0.24  C 
ATOM     44  N   VAL B2843      -7.792 -13.459  12.409  1.00 12.74 LIG-0.34  N 
ATOM     45 H    VAL B2843      -8.121 -13.905  13.066  1.00 12.74 LIG 0.16  HD
ATOM     46 O    SER B2842      -7.523 -11.526  11.291  1.00  7.66 LIG-0.27  OA
BRANCH 44 47
ATOM     47  CA  VAL B2843      -7.018 -14.258  11.476  1.00 16.92 LIG 0.19  C 
BRANCH 47 48
ATOM     48  C   VAL B2843      -7.850 -14.601  10.241  1.00 17.95 LIG 0.20  C 
ATOM     49 OXT  VAL B2843      -8.871 -13.953   9.967  1.00 12.52 LIG-0.65  OA
ATOM     50 O    VAL B2843      -7.522 -15.522   9.492  1.00 13.13 LIG-0.65  OA
ENDBRANCH 47 48
BRANCH 47 51
ATOM     51  CB  VAL B2843      -6.508 -15.552  12.152  1.00 12.90 LIG 0.01  C 
ATOM     52  CG2 VAL B2843      -6.250 -15.331  13.643  1.00 11.86 LIG 0.01  C 
ATOM     53  CG1 VAL B2843      -5.249 -16.042  11.463  1.00 11.26 LIG 0.01  C 
ENDBRANCH 47 51
ENDBRANCH 44 47
ENDBRANCH 42 43
BRANCH 42 54
ATOM     54  CB  SER B2842      -8.168 -10.055  13.599  1.00 13.40 LIG 0.20  C 
BRANCH 54 55
ATOM     55 OG   SER B2842      -6.772 -10.033  13.369  1.00 24.06 LIG-0.40  OA
ATOM     56 HG   SER B2842      -6.450 -10.793  13.526  1.00 24.06 LIG 0.21  HD
ENDBRANCH 54 55
ENDBRANCH 42 54
ENDBRANCH 39 42
ENDBRANCH 33 38
ENDBRANCH 31 33
ENDBRANCH 1 29
TORSDOF 22
ENDMDL
MODEL 24
USER: ADFR SOLUTION from run 62
USER: SCORE 15.376934 LL:  -4.089 LR: -13.367 RR:   0.000 FEB:  -6.805
USER: RMSD 4.932771
USER: SEED 61
USER: STATUS no improvement in best in 7 clusters for 5 generations
USER: GENES 24
USER: genes 0 Translation |==|  0.53254 0.41342 0.39860
USER: genes 1 Rotation |==|  0.29018 0.60903 0.22310 0.84265
USER: genes 2 Torsion [CB]-CA--N-[C] |==|  0.42653
USER: genes 3 Torsion [N]-C--CA-[N] |==|  0.98119
USER: genes 4 Torsion [C]-CA--CB-[CG] |==|  0.21407
USER: genes 5 Torsion [CA]-CB--CG-[CD1] |==|  0.34042
USER: genes 6 Torsion [C]-CA--N-[C] |==|  0.76403
USER: genes 7 Torsion [N]-C--CA-[N] |==|  0.88132
USER: genes 8 Torsion [C]-CA--CB-[CG] |==|  0.96993
USER: genes 9 Torsion [CA]-CB--CG-[CD1] |==|  0.74546
USER: genes 10 Torsion [CE1]-CZ--OH-[HH] |==|  0.31425
USER: genes 11 Torsion [N]-CA--CB-[CG2] |==|  0.92636
USER: genes 12 Torsion [N]-CA--C-[N] |==|  0.68251
USER: genes 13 Torsion [C]-N--CA-[CB] |==|  0.78889
USER: genes 14 Torsion [N]-CA--CB-[CG2] |==|  0.50994
USER: genes 15 Torsion [CA]-CB--OG1-[HG1] |==|  0.48544
USER: genes 16 Torsion [N]-CA--C-[N] |==|  0.21040
USER: genes 17 Torsion [C]-N--CA-[C] |==|  0.79236
USER: genes 18 Torsion [N]-CA--C-[N] |==|  0.45543
USER: genes 19 Torsion [C]-N--CA-[C] |==|  0.63960
USER: genes 20 Torsion [N]-CA--C-[OXT] |==|  0.46312
USER: genes 21 Torsion [N]-CA--CB-[CG2] |==|  0.95565
USER: genes 22 Torsion [N]-CA--CB-[OG] |==|  0.68814
USER: genes 23 Torsion [CA]-CB--OG-[HG] |==|  0.03336
ROOT
ATOM      1  CA  VAL B2840      -2.290 -15.522  18.461  1.00 12.24 LIG 0.18  C 
ENDROOT
BRANCH 1 2
ATOM      2  N   VAL B2840      -1.445 -14.956  19.511  1.00  7.10 LIG-0.35  N 
ATOM      3  C   LEU B2839      -0.524 -14.037  19.240  1.00  9.29 LIG 0.24  C 
ATOM      4 O    LEU B2839      -0.232 -13.693  18.090  1.00  7.82 LIG-0.27  OA
ATOM      5 H    VAL B2840      -1.597 -15.268  20.297  1.00  7.10 LIG 0.16  HD
BRANCH 3 6
ATOM      6  CA  LEU B2839       0.191 -13.430  20.432  1.00  6.33 LIG 0.18  C 
BRANCH 6 7
ATOM      7  CB  LEU B2839       1.677 -13.802  20.368  1.00 14.59 LIG 0.04  C 
BRANCH 7 8
ATOM      8  CG  LEU B2839       2.501 -13.003  19.364  1.00 24.41 LIG-0.02  C 
ATOM      9  CD1 LEU B2839       3.676 -12.284  20.046  1.00 21.70 LIG 0.01  C 
ATOM     10  CD2 LEU B2839       2.981 -13.921  18.240  1.00 24.63 LIG 0.01  C 
ENDBRANCH 7 8
ENDBRANCH 6 7
BRANCH 6 11
ATOM     11  N   LEU B2839      -0.410 -13.886  21.689  1.00 12.50 LIG-0.35  N 
ATOM     12 H    LEU B2839      -0.018 -14.565  22.042  1.00 12.50 LIG 0.16  HD
ATOM     13  C   TYR B2838      -1.476 -13.282  22.222  1.00 14.62 LIG 0.26  C 
ATOM     14 O    TYR B2838      -1.991 -12.272  21.743  1.00 16.58 LIG-0.27  OA
BRANCH 13 15
ATOM     15  CA  TYR B2838      -2.060 -13.889  23.490  1.00 17.58 LIG 0.40  C 
ATOM     16  N   TYR B2838      -2.139 -15.343  23.445  1.00 19.10 LIG 0.61  N 
BRANCH 15 17
ATOM     17  CB  TYR B2838      -1.293 -13.408  24.721  1.00 37.20 LIG 0.09  C 
BRANCH 17 18
ATOM     18  CG  TYR B2838      -0.016 -12.682  24.368  1.00 53.42 LIG-0.06  A 
ATOM     19  CD1 TYR B2838       1.191 -13.369  24.267  1.00 57.26 LIG 0.01  A 
ATOM     20  CE1 TYR B2838       2.367 -12.709  23.939  1.00 58.59 LIG 0.04  A 
ATOM     21  CZ  TYR B2838       2.346 -11.346  23.704  1.00 63.46 LIG 0.07  A 
ATOM     22  CE2 TYR B2838       1.160 -10.642  23.797  1.00 67.17 LIG 0.04  A 
ATOM     23  CD2 TYR B2838      -0.015 -11.313  24.127  1.00 64.10 LIG 0.01  A 
BRANCH 21 24
ATOM     24 OH   TYR B2838       3.513 -10.687  23.380  1.00 64.89 LIG-0.36  OA
ATOM     25 HH   TYR B2838       3.466 -10.408  22.589  1.00 64.89 LIG 0.22  HD
ENDBRANCH 21 24
ENDBRANCH 17 18
ENDBRANCH 15 17
ENDBRANCH 13 15
ENDBRANCH 6 11
ENDBRANCH 3 6
ENDBRANCH 1 2
BRANCH 1 26
ATOM     26  CB  VAL B2840      -2.782 -16.942  18.817  1.00 14.53 LIG 0.01  C 
ATOM     27  CG1 VAL B2840      -2.948 -17.772  17.553  1.00 16.85 LIG 0.01  C 
ATOM     28  CG2 VAL B2840      -1.799 -17.618  19.769  1.00 19.78 LIG 0.01  C 
ENDBRANCH 1 26
BRANCH 1 29
ATOM     29  C   VAL B2840      -3.490 -14.610  18.198  1.00 10.08 LIG 0.24  C 
ATOM     30 O    VAL B2840      -3.328 -13.483  17.743  1.00 13.99 LIG-0.27  OA
ATOM     31  N   THR B2841      -4.693 -15.087  18.495  1.00  7.81 LIG-0.34  N 
ATOM     32 H    THR B2841      -4.832 -15.840  18.887  1.00  7.81 LIG 0.16  HD
BRANCH 31 33
ATOM     33  CA  THR B2841      -5.902 -14.337  18.166  1.00  9.28 LIG 0.20  C 
BRANCH 33 34
ATOM     34  CB  THR B2841      -6.115 -13.168  19.138  1.00  5.66 LIG 0.15  C 
ATOM     35  CG2 THR B2841      -7.438 -12.440  18.836  1.00  2.82 LIG 0.04  C 
BRANCH 34 36
ATOM     36 OG1  THR B2841      -6.160 -13.674  20.477  1.00  4.58 LIG-0.39  OA
ATOM     37 HG1  THR B2841      -6.204 -13.032  21.018  1.00  4.58 LIG 0.21  HD
ENDBRANCH 34 36
ENDBRANCH 33 34
BRANCH 33 38
ATOM     38  C   THR B2841      -5.875 -13.788  16.746  1.00 11.02 LIG 0.24  C 
ATOM     39  N   SER B2842      -6.097 -14.670  15.767  1.00  4.17 LIG-0.34  N 
ATOM     40 H    SER B2842      -6.164 -15.518  15.891  1.00  4.17 LIG 0.16  HD
ATOM     41 O    THR B2841      -5.648 -12.592  16.545  1.00  9.65 LIG-0.27  OA
BRANCH 39 42
ATOM     42  CA  SER B2842      -6.246 -14.248  14.381  1.00  7.92 LIG 0.20  C 
BRANCH 42 43
ATOM     43  C   SER B2842      -7.607 -13.608  14.187  1.00  8.41 LIG 0.24  C 
ATOM     44  N   VAL B2843      -7.756 -12.889  13.081  1.00 12.74 LIG-0.34  N 
ATOM     45 H    VAL B2843      -7.144 -12.803  12.482  1.00 12.74 LIG 0.16  HD
ATOM     46 O    SER B2842      -8.493 -13.755  15.021  1.00  7.66 LIG-0.27  OA
BRANCH 44 47
ATOM     47  CA  VAL B2843      -8.983 -12.173  12.783  1.00 16.92 LIG 0.19  C 
BRANCH 47 48
ATOM     48  C   VAL B2843      -9.463 -12.491  11.367  1.00 17.95 LIG 0.20  C 
ATOM     49 OXT  VAL B2843     -10.607 -12.182  11.003  1.00 12.52 LIG-0.65  OA
ATOM     50 O    VAL B2843      -8.723 -13.055  10.559  1.00 13.13 LIG-0.65  OA
ENDBRANCH 47 48
BRANCH 47 51
ATOM     51  CB  VAL B2843      -8.784 -10.648  12.949  1.00 12.90 LIG 0.01  C 
ATOM     52  CG2 VAL B2843      -7.513 -10.340  13.741  1.00 11.86 LIG 0.01  C 
ATOM     53  CG1 VAL B2843      -9.994 -10.033  13.627  1.00 11.26 LIG 0.01  C 
ENDBRANCH 47 51
ENDBRANCH 44 47
ENDBRANCH 42 43
BRANCH 42 54
ATOM     54  CB  SER B2842      -6.068 -15.426  13.414  1.00 13.40 LIG 0.20  C 
BRANCH 54 55
ATOM     55 OG   SER B2842      -4.889 -15.283  12.646  1.00 24.06 LIG-0.40  OA
ATOM     56 HG   SER B2842      -4.416 -14.668  12.969  1.00 24.06 LIG 0.21  HD
ENDBRANCH 54 55
ENDBRANCH 42 54
ENDBRANCH 39 42
ENDBRANCH 33 38
ENDBRANCH 31 33
ENDBRANCH 1 29
TORSDOF 22
ENDMDL
MODEL 25
USER: ADFR SOLUTION from run 63
USER: SCORE 15.906096 LL:  -4.751 LR: -13.289 RR:   0.000 FEB:  -6.727
USER: RMSD 5.636361
USER: SEED 62
USER: STATUS no improvement in best in 7 clusters for 5 generations
USER: GENES 24
USER: genes 0 Translation |==|  0.37050 0.52285 0.41526
USER: genes 1 Rotation |==|  0.24671 0.48570 0.06933 0.51280
USER: genes 2 Torsion [CB]-CA--N-[C] |==|  0.22579
USER: genes 3 Torsion [N]-C--CA-[N] |==|  0.48740
USER: genes 4 Torsion [C]-CA--CB-[CG] |==|  0.87045
USER: genes 5 Torsion [CA]-CB--CG-[CD1] |==|  0.34721
USER: genes 6 Torsion [C]-CA--N-[C] |==|  0.65795
USER: genes 7 Torsion [N]-C--CA-[N] |==|  0.44496
USER: genes 8 Torsion [C]-CA--CB-[CG] |==|  0.77085
USER: genes 9 Torsion [CA]-CB--CG-[CD1] |==|  0.73374
USER: genes 10 Torsion [CE1]-CZ--OH-[HH] |==|  0.70821
USER: genes 11 Torsion [N]-CA--CB-[CG2] |==|  0.64403
USER: genes 12 Torsion [N]-CA--C-[N] |==|  0.45674
USER: genes 13 Torsion [C]-N--CA-[CB] |==|  0.48889
USER: genes 14 Torsion [N]-CA--CB-[CG2] |==|  0.76266
USER: genes 15 Torsion [CA]-CB--OG1-[HG1] |==|  0.15473
USER: genes 16 Torsion [N]-CA--C-[N] |==|  0.52018
USER: genes 17 Torsion [C]-N--CA-[C] |==|  0.79976
USER: genes 18 Torsion [N]-CA--C-[N] |==|  0.98518
USER: genes 19 Torsion [C]-N--CA-[C] |==|  0.61558
USER: genes 20 Torsion [N]-CA--C-[OXT] |==|  0.45638
USER: genes 21 Torsion [N]-CA--CB-[CG2] |==|  0.87423
USER: genes 22 Torsion [N]-CA--CB-[OG] |==|  0.03557
USER: genes 23 Torsion [CA]-CB--OG-[HG] |==|  0.84054
ROOT
ATOM      1  CA  VAL B2840      -5.936 -13.798  18.961  1.00 12.24 LIG 0.18  C 
ENDROOT
BRANCH 1 2
ATOM      2  N   VAL B2840      -4.675 -13.340  19.541  1.00  7.10 LIG-0.35  N 
ATOM      3  C   LEU B2839      -4.148 -13.931  20.608  1.00  9.29 LIG 0.24  C 
ATOM      4 O    LEU B2839      -4.733 -14.807  21.253  1.00  7.82 LIG-0.27  OA
ATOM      5 H    VAL B2840      -4.319 -12.671  19.135  1.00  7.10 LIG 0.16  HD
BRANCH 3 6
ATOM      6  CA  LEU B2839      -2.771 -13.452  21.030  1.00  6.33 LIG 0.18  C 
BRANCH 6 7
ATOM      7  CB  LEU B2839      -1.775 -13.736  19.899  1.00 14.59 LIG 0.04  C 
BRANCH 7 8
ATOM      8  CG  LEU B2839      -1.860 -15.135  19.298  1.00 24.41 LIG-0.02  C 
ATOM      9  CD1 LEU B2839      -2.063 -15.082  17.774  1.00 21.70 LIG 0.01  C 
ATOM     10  CD2 LEU B2839      -0.614 -15.936  19.670  1.00 24.63 LIG 0.01  C 
ENDBRANCH 7 8
ENDBRANCH 6 7
BRANCH 6 11
ATOM     11  N   LEU B2839      -2.351 -14.102  22.274  1.00 12.50 LIG-0.35  N 
ATOM     12 H    LEU B2839      -2.344 -14.961  22.239  1.00 12.50 LIG 0.16  HD
ATOM     13  C   TYR B2838      -2.011 -13.399  23.358  1.00 14.62 LIG 0.26  C 
ATOM     14 O    TYR B2838      -1.962 -12.169  23.379  1.00 16.58 LIG-0.27  OA
BRANCH 13 15
ATOM     15  CA  TYR B2838      -1.664 -14.181  24.617  1.00 17.58 LIG 0.40  C 
ATOM     16  N   TYR B2838      -0.885 -13.408  25.576  1.00 19.10 LIG 0.61  N 
BRANCH 15 17
ATOM     17  CB  TYR B2838      -2.926 -14.759  25.258  1.00 37.20 LIG 0.09  C 
BRANCH 17 18
ATOM     18  CG  TYR B2838      -3.653 -13.757  26.124  1.00 53.42 LIG-0.06  A 
ATOM     19  CD1 TYR B2838      -3.443 -13.718  27.500  1.00 57.26 LIG 0.01  A 
ATOM     20  CE1 TYR B2838      -4.105 -12.798  28.302  1.00 58.59 LIG 0.04  A 
ATOM     21  CZ  TYR B2838      -4.987 -11.899  27.728  1.00 63.46 LIG 0.07  A 
ATOM     22  CE2 TYR B2838      -5.210 -11.916  26.365  1.00 67.17 LIG 0.04  A 
ATOM     23  CD2 TYR B2838      -4.542 -12.844  25.569  1.00 64.10 LIG 0.01  A 
BRANCH 21 24
ATOM     24 OH   TYR B2838      -5.647 -10.984  28.521  1.00 64.89 LIG-0.36  OA
ATOM     25 HH   TYR B2838      -6.448 -11.220  28.614  1.00 64.89 LIG 0.22  HD
ENDBRANCH 21 24
ENDBRANCH 17 18
ENDBRANCH 15 17
ENDBRANCH 13 15
ENDBRANCH 6 11
ENDBRANCH 3 6
ENDBRANCH 1 2
BRANCH 1 26
ATOM     26  CB  VAL B2840      -7.159 -13.245  19.726  1.00 14.53 LIG 0.01  C 
ATOM     27  CG1 VAL B2840      -7.890 -12.219  18.874  1.00 16.85 LIG 0.01  C 
ATOM     28  CG2 VAL B2840      -8.101 -14.383  20.108  1.00 19.78 LIG 0.01  C 
ENDBRANCH 1 26
BRANCH 1 29
ATOM     29  C   VAL B2840      -6.020 -13.393  17.488  1.00 10.08 LIG 0.24  C 
ATOM     30 O    VAL B2840      -5.272 -12.534  17.034  1.00 13.99 LIG-0.27  OA
ATOM     31  N   THR B2841      -6.939 -13.996  16.743  1.00  7.81 LIG-0.34  N 
ATOM     32 H    THR B2841      -7.528 -14.543  17.049  1.00  7.81 LIG 0.16  HD
BRANCH 31 33
ATOM     33  CA  THR B2841      -7.013 -13.762  15.303  1.00  9.28 LIG 0.20  C 
BRANCH 33 34
ATOM     34  CB  THR B2841      -8.087 -14.643  14.649  1.00  5.66 LIG 0.15  C 
ATOM     35  CG2 THR B2841      -7.519 -16.031  14.301  1.00  2.82 LIG 0.04  C 
BRANCH 34 36
ATOM     36 OG1  THR B2841      -9.180 -14.804  15.561  1.00  4.58 LIG-0.39  OA
ATOM     37 HG1  THR B2841      -9.467 -14.049  15.791  1.00  4.58 LIG 0.21  HD
ENDBRANCH 34 36
ENDBRANCH 33 34
BRANCH 33 38
ATOM     38  C   THR B2841      -7.309 -12.307  14.967  1.00 11.02 LIG 0.24  C 
ATOM     39  N   SER B2842      -7.542 -12.033  13.681  1.00  4.17 LIG-0.34  N 
ATOM     40 H    SER B2842      -7.448 -12.603  13.044  1.00  4.17 LIG 0.16  HD
ATOM     41 O    THR B2841      -7.316 -11.452  15.857  1.00  9.65 LIG-0.27  OA
BRANCH 39 42
ATOM     42  CA  SER B2842      -7.984 -10.713  13.250  1.00  7.92 LIG 0.20  C 
BRANCH 42 43
ATOM     43  C   SER B2842      -9.424 -10.497  13.669  1.00  8.41 LIG 0.24  C 
ATOM     44  N   VAL B2843     -10.029 -11.541  14.224  1.00 12.74 LIG-0.34  N 
ATOM     45 H    VAL B2843      -9.639 -12.293  14.375  1.00 12.74 LIG 0.16  HD
ATOM     46 O    SER B2842      -9.975  -9.418  13.487  1.00  7.66 LIG-0.27  OA
BRANCH 44 47
ATOM     47  CA  VAL B2843     -11.423 -11.504  14.628  1.00 16.92 LIG 0.19  C 
BRANCH 47 48
ATOM     48  C   VAL B2843     -11.612 -12.194  15.979  1.00 17.95 LIG 0.20  C 
ATOM     49 OXT  VAL B2843     -12.650 -12.024  16.635  1.00 12.52 LIG-0.65  OA
ATOM     50 O    VAL B2843     -10.741 -12.933  16.439  1.00 13.13 LIG-0.65  OA
ENDBRANCH 47 48
BRANCH 47 51
ATOM     51  CB  VAL B2843     -12.323 -12.168  13.559  1.00 12.90 LIG 0.01  C 
ATOM     52  CG2 VAL B2843     -11.946 -11.702  12.153  1.00 11.86 LIG 0.01  C 
ATOM     53  CG1 VAL B2843     -13.783 -11.867  13.844  1.00 11.26 LIG 0.01  C 
ENDBRANCH 47 51
ENDBRANCH 44 47
ENDBRANCH 42 43
BRANCH 42 54
ATOM     54  CB  SER B2842      -7.838 -10.541  11.733  1.00 13.40 LIG 0.20  C 
BRANCH 54 55
ATOM     55 OG   SER B2842      -7.594 -11.782  11.098  1.00 24.06 LIG-0.40  OA
ATOM     56 HG   SER B2842      -6.904 -12.133  11.424  1.00 24.06 LIG 0.21  HD
ENDBRANCH 54 55
ENDBRANCH 42 54
ENDBRANCH 39 42
ENDBRANCH 33 38
ENDBRANCH 31 33
ENDBRANCH 1 29
TORSDOF 22
ENDMDL
MODEL 26
USER: ADFR SOLUTION from run 100
USER: SCORE 14.890964 LL:  -3.939 LR: -13.293 RR:   0.000 FEB:  -6.731
USER: RMSD 8.820656
USER: SEED 99
USER: STATUS no improvement in best in 7 clusters for 5 generations
USER: GENES 24
USER: genes 0 Translation |==|  0.28947 0.63679 0.25564
USER: genes 1 Rotation |==|  0.70608 0.57689 0.76220 0.86451
USER: genes 2 Torsion [CB]-CA--N-[C] |==|  0.42812
USER: genes 3 Torsion [N]-C--CA-[N] |==|  0.36673
USER: genes 4 Torsion [C]-CA--CB-[CG] |==|  0.53798
USER: genes 5 Torsion [CA]-CB--CG-[CD1] |==|  0.91709
USER: genes 6 Torsion [C]-CA--N-[C] |==|  0.84146
USER: genes 7 Torsion [N]-C--CA-[N] |==|  0.80223
USER: genes 8 Torsion [C]-CA--CB-[CG] |==|  0.36908
USER: genes 9 Torsion [CA]-CB--CG-[CD1] |==|  0.20307
USER: genes 10 Torsion [CE1]-CZ--OH-[HH] |==|  0.99661
USER: genes 11 Torsion [N]-CA--CB-[CG2] |==|  0.78444
USER: genes 12 Torsion [N]-CA--C-[N] |==|  0.89336
USER: genes 13 Torsion [C]-N--CA-[CB] |==|  0.50078
USER: genes 14 Torsion [N]-CA--CB-[CG2] |==|  0.08236
USER: genes 15 Torsion [CA]-CB--OG1-[HG1] |==|  0.19009
USER: genes 16 Torsion [N]-CA--C-[N] |==|  0.41719
USER: genes 17 Torsion [C]-N--CA-[C] |==|  0.73094
USER: genes 18 Torsion [N]-CA--C-[N] |==|  0.14208
USER: genes 19 Torsion [C]-N--CA-[C] |==|  0.79123
USER: genes 20 Torsion [N]-CA--C-[OXT] |==|  0.40468
USER: genes 21 Torsion [N]-CA--CB-[CG2] |==|  0.72803
USER: genes 22 Torsion [N]-CA--CB-[OG] |==|  0.94416
USER: genes 23 Torsion [CA]-CB--OG-[HG] |==|  0.91005
ROOT
ATOM      1  CA  VAL B2840      -7.759 -12.004  14.172  1.00 12.24 LIG 0.18  C 
ENDROOT
BRANCH 1 2
ATOM      2  N   VAL B2840      -6.652 -12.764  14.748  1.00  7.10 LIG-0.35  N 
ATOM      3  C   LEU B2839      -6.847 -13.636  15.731  1.00  9.29 LIG 0.24  C 
ATOM      4 O    LEU B2839      -7.932 -13.774  16.306  1.00  7.82 LIG-0.27  OA
ATOM      5 H    VAL B2840      -5.884 -12.596  14.399  1.00  7.10 LIG 0.16  HD
BRANCH 3 6
ATOM      6  CA  LEU B2839      -5.643 -14.461  16.147  1.00  6.33 LIG 0.18  C 
BRANCH 6 7
ATOM      7  CB  LEU B2839      -5.808 -15.890  15.615  1.00 14.59 LIG 0.04  C 
BRANCH 7 8
ATOM      8  CG  LEU B2839      -4.855 -16.917  16.216  1.00 24.41 LIG-0.02  C 
ATOM      9  CD1 LEU B2839      -3.520 -16.274  16.628  1.00 21.70 LIG 0.01  C 
ATOM     10  CD2 LEU B2839      -5.525 -17.619  17.396  1.00 24.63 LIG 0.01  C 
ENDBRANCH 7 8
ENDBRANCH 6 7
BRANCH 6 11
ATOM     11  N   LEU B2839      -5.487 -14.459  17.604  1.00 12.50 LIG-0.35  N 
ATOM     12 H    LEU B2839      -5.486 -15.241  17.961  1.00 12.50 LIG 0.16  HD
ATOM     13  C   TYR B2838      -5.359 -13.324  18.299  1.00 14.62 LIG 0.26  C 
ATOM     14 O    TYR B2838      -5.298 -12.213  17.774  1.00 16.58 LIG-0.27  OA
BRANCH 13 15
ATOM     15  CA  TYR B2838      -5.279 -13.440  19.815  1.00 17.58 LIG 0.40  C 
ATOM     16  N   TYR B2838      -6.547 -13.815  20.428  1.00 19.10 LIG 0.61  N 
BRANCH 15 17
ATOM     17  CB  TYR B2838      -4.156 -14.391  20.225  1.00 37.20 LIG 0.09  C 
BRANCH 17 18
ATOM     18  CG  TYR B2838      -3.281 -13.827  21.319  1.00 53.42 LIG-0.06  A 
ATOM     19  CD1 TYR B2838      -3.744 -13.739  22.630  1.00 57.26 LIG 0.01  A 
ATOM     20  CE1 TYR B2838      -2.944 -13.225  23.641  1.00 58.59 LIG 0.04  A 
ATOM     21  CZ  TYR B2838      -1.662 -12.795  23.349  1.00 63.46 LIG 0.07  A 
ATOM     22  CE2 TYR B2838      -1.178 -12.875  22.056  1.00 67.17 LIG 0.04  A 
ATOM     23  CD2 TYR B2838      -1.989 -13.391  21.048  1.00 64.10 LIG 0.01  A 
BRANCH 21 24
ATOM     24 OH   TYR B2838      -0.864 -12.283  24.350  1.00 64.89 LIG-0.36  OA
ATOM     25 HH   TYR B2838      -1.291 -12.278  25.074  1.00 64.89 LIG 0.22  HD
ENDBRANCH 21 24
ENDBRANCH 17 18
ENDBRANCH 15 17
ENDBRANCH 13 15
ENDBRANCH 6 11
ENDBRANCH 3 6
ENDBRANCH 1 2
BRANCH 1 26
ATOM     26  CB  VAL B2840      -7.285 -10.667  13.558  1.00 14.53 LIG 0.01  C 
ATOM     27  CG1 VAL B2840      -8.321 -10.146  12.574  1.00 16.85 LIG 0.01  C 
ATOM     28  CG2 VAL B2840      -7.036  -9.640  14.659  1.00 19.78 LIG 0.01  C 
ENDBRANCH 1 26
BRANCH 1 29
ATOM     29  C   VAL B2840      -8.477 -12.836  13.108  1.00 10.08 LIG 0.24  C 
ATOM     30 O    VAL B2840      -9.698 -12.799  13.007  1.00 13.99 LIG-0.27  OA
ATOM     31  N   THR B2841      -7.725 -13.599  12.323  1.00  7.81 LIG-0.34  N 
ATOM     32 H    THR B2841      -6.877 -13.706  12.420  1.00  7.81 LIG 0.16  HD
BRANCH 31 33
ATOM     33  CA  THR B2841      -8.309 -14.333  11.204  1.00  9.28 LIG 0.20  C 
BRANCH 33 34
ATOM     34  CB  THR B2841      -7.245 -15.145  10.453  1.00  5.66 LIG 0.15  C 
ATOM     35  CG2 THR B2841      -6.113 -15.574  11.403  1.00  2.82 LIG 0.04  C 
BRANCH 34 36
ATOM     36 OG1  THR B2841      -7.855 -16.317   9.899  1.00  4.58 LIG-0.39  OA
ATOM     37 HG1  THR B2841      -8.383 -16.095   9.285  1.00  4.58 LIG 0.21  HD
ENDBRANCH 34 36
ENDBRANCH 33 34
BRANCH 33 38
ATOM     38  C   THR B2841      -9.417 -15.278  11.646  1.00 11.02 LIG 0.24  C 
ATOM     39  N   SER B2842     -10.387 -15.510  10.757  1.00  4.17 LIG-0.34  N 
ATOM     40 H    SER B2842     -10.459 -15.097  10.007  1.00  4.17 LIG 0.16  HD
ATOM     41 O    THR B2841      -9.396 -15.778  12.774  1.00  9.65 LIG-0.27  OA
BRANCH 39 42
ATOM     42  CA  SER B2842     -11.421 -16.508  10.999  1.00  7.92 LIG 0.20  C 
BRANCH 42 43
ATOM     43  C   SER B2842     -11.046 -17.806  10.311  1.00  8.41 LIG 0.24  C 
ATOM     44  N   VAL B2843      -9.825 -18.263  10.563  1.00 12.74 LIG-0.34  N 
ATOM     45 H    VAL B2843      -9.276 -17.881  11.103  1.00 12.74 LIG 0.16  HD
ATOM     46 O    SER B2842     -11.838 -18.372   9.567  1.00  7.66 LIG-0.27  OA
BRANCH 44 47
ATOM     47  CA  VAL B2843      -9.305 -19.465   9.937  1.00 16.92 LIG 0.19  C 
BRANCH 47 48
ATOM     48  C   VAL B2843      -9.925 -20.713  10.565  1.00 17.95 LIG 0.20  C 
ATOM     49 OXT  VAL B2843     -10.154 -21.719   9.878  1.00 12.52 LIG-0.65  OA
ATOM     50 O    VAL B2843     -10.206 -20.745  11.764  1.00 13.13 LIG-0.65  OA
ENDBRANCH 47 48
BRANCH 47 51
ATOM     51  CB  VAL B2843      -7.763 -19.521  10.051  1.00 12.90 LIG 0.01  C 
ATOM     52  CG2 VAL B2843      -7.096 -19.023   8.769  1.00 11.86 LIG 0.01  C 
ATOM     53  CG1 VAL B2843      -7.312 -20.935  10.369  1.00 11.26 LIG 0.01  C 
ENDBRANCH 47 51
ENDBRANCH 44 47
ENDBRANCH 42 43
BRANCH 42 54
ATOM     54  CB  SER B2842     -12.793 -16.023  10.512  1.00 13.40 LIG 0.20  C 
BRANCH 54 55
ATOM     55 OG   SER B2842     -12.820 -14.614  10.382  1.00 24.06 LIG-0.40  OA
ATOM     56 HG   SER B2842     -12.320 -14.269  10.962  1.00 24.06 LIG 0.21  HD
ENDBRANCH 54 55
ENDBRANCH 42 54
ENDBRANCH 39 42
ENDBRANCH 33 38
ENDBRANCH 31 33
ENDBRANCH 1 29
TORSDOF 22
ENDMDL
