MODEL 1
USER: ADFR SOLUTION from run 52
USER: SCORE 22.517683 LL:  -3.365 LR: -20.937 RR:   0.000 FEB: -12.585
USER: RMSD 1.558566
USER: SEED 51
USER: STATUS searching
USER: GENES 30
USER: genes 0 Translation |==|  0.48279 0.48311 0.58983
USER: genes 1 Rotation |==|  0.36240 0.29405 0.48245 0.93398
USER: genes 2 Torsion [N]-C--CA-[N] |==|  0.23061
USER: genes 3 Torsion [C]-CA--CB-[CG2] |==|  0.39977
USER: genes 4 Torsion [CA]-CB--OG1-[HG1] |==|  0.21864
USER: genes 5 Torsion [C]-CA--N-[C] |==|  0.81577
USER: genes 6 Torsion [N]-C--CA-[N] |==|  0.33429
USER: genes 7 Torsion [C]-CA--N-[C] |==|  0.69572
USER: genes 8 Torsion [N]-C--CA-[N] |==|  0.08535
USER: genes 9 Torsion [C]-CA--N-[H1] |==|  0.95064
USER: genes 10 Torsion [C]-CA--CB-[CG] |==|  0.54053
USER: genes 11 Torsion [CA]-CB--CG-[CD] |==|  0.40564
USER: genes 12 Torsion [CB]-CG--CD-[NE] |==|  0.68128
USER: genes 13 Torsion [CG]-CD--NE-[HE] |==|  0.89593
USER: genes 14 Torsion [C]-N--CA-[CB] |==|  0.48889
USER: genes 15 Torsion [N]-CA--CB-[CG] |==|  0.20897
USER: genes 16 Torsion [CA]-CB--CG-[CD] |==|  0.43572
USER: genes 17 Torsion [CB]-CG--CD-[CE] |==|  0.75795
USER: genes 18 Torsion [CG]-CD--CE-[NZ] |==|  0.56197
USER: genes 19 Torsion [CD]-CE--NZ-[HZ3] |==|  0.70453
USER: genes 20 Torsion [N]-CA--C-[N] |==|  0.44480
USER: genes 21 Torsion [C]-N--CA-[C] |==|  0.67286
USER: genes 22 Torsion [N]-CA--CB-[CG] |==|  0.61948
USER: genes 23 Torsion [CA]-CB--CG-[CD] |==|  0.09111
USER: genes 24 Torsion [CB]-CG--CD-[OE1] |==|  0.78314
USER: genes 25 Torsion [N]-CA--C-[N] |==|  0.29826
USER: genes 26 Torsion [C]-N--CA-[C] |==|  0.66071
USER: genes 27 Torsion [N]-CA--CB-[CG2] |==|  0.14191
USER: genes 28 Torsion [CA]-CB--OG1-[HG1] |==|  0.67646
USER: genes 29 Torsion [N]-CA--C-[O] |==|  0.71461
ROOT
ATOM      1  C   THR B   3       8.500 -22.315  12.245  1.00 20.25 LIG 0.24  C 
ATOM      2 O    THR B   3       9.348 -22.163  13.139  1.00 21.22 LIG-0.27  OA
ATOM      3  N   LYS B   4       8.409 -21.511  11.198  1.00 19.99 LIG-0.35  N 
ATOM      4 H    LYS B   4       7.929 -21.680  10.504  1.00 19.99 LIG 0.16  HD
ENDROOT
BRANCH 1 5
ATOM      5  CA  THR B   3       7.480 -23.458  12.267  1.00 18.41 LIG 0.20  C 
BRANCH 5 6
ATOM      6  CB  THR B   3       7.226 -23.827  13.740  1.00 21.88 LIG 0.15  C 
ATOM      7  CG2 THR B   3       5.764 -24.215  13.969  1.00 22.89 LIG 0.04  C 
BRANCH 6 8
ATOM      8 OG1  THR B   3       8.090 -24.903  14.114  1.00 27.36 LIG-0.39  OA
ATOM      9 HG1  THR B   3       8.860 -24.604  14.265  1.00 27.36 LIG 0.21  HD
ENDBRANCH 6 8
ENDBRANCH 5 6
BRANCH 5 10
ATOM     10  N   THR B   3       7.895 -24.599  11.467  1.00 19.27 LIG-0.34  N 
ATOM     11  C   ARG B   2       8.002 -24.523  10.144  1.00 14.36 LIG 0.24  C 
ATOM     12 O    ARG B   2       7.660 -23.544   9.486  1.00 14.31 LIG-0.27  OA
ATOM     13 H    THR B   3       8.059 -25.310  11.921  1.00 19.27 LIG 0.16  HD
BRANCH 11 14
ATOM     14  CA  ARG B   2       8.664 -25.700   9.473  1.00 14.00 LIG 0.18  C 
BRANCH 14 15
ATOM     15  N   ARG B   2       7.806 -26.365   8.502  1.00 14.23 LIG-0.35  N 
ATOM     16 H    ARG B   2       7.670 -25.897   7.793  1.00 14.23 LIG 0.16  HD
ATOM     17  C   ALA B   1       7.275 -27.574   8.676  1.00 14.69 LIG 0.25  C 
ATOM     18 O    ALA B   1       7.328 -28.195   9.741  1.00 15.97 LIG-0.27  OA
BRANCH 17 19
ATOM     19  CA  ALA B   1       6.570 -28.172   7.461  1.00 13.70 LIG 0.27  C 
ATOM     20  CB  ALA B   1       6.611 -29.686   7.521  1.00 15.23 LIG 0.05  C 
BRANCH 19 21
ATOM     21  N   ALA B   1       7.213 -27.687   6.203  1.00 12.70 LIG-0.07  N 
ATOM     22 H1   ALA B   1       7.699 -26.963   6.379  1.00 12.70 LIG 0.28  HD
ATOM     23 H3   ALA B   1       6.584 -27.485   5.607  1.00 12.70 LIG 0.28  HD
ATOM     24 H2   ALA B   1       7.739 -28.324   5.874  1.00 12.70 LIG 0.28  HD
ENDBRANCH 19 21
ENDBRANCH 17 19
ENDBRANCH 14 15
BRANCH 14 25
ATOM     25  CB  ARG B   2       9.897 -25.164   8.760  1.00 15.26 LIG 0.04  C 
BRANCH 25 26
ATOM     26  CG  ARG B   2      10.494 -26.123   7.751  1.00 16.76 LIG 0.02  C 
BRANCH 26 27
ATOM     27  CD  ARG B   2      11.078 -25.343   6.575  1.00 19.38 LIG 0.14  C 
BRANCH 27 28
ATOM     28  NE  ARG B   2      10.335 -25.642   5.347  1.00 21.76 LIG-0.23  N 
ATOM     29 HE   ARG B   2      10.063 -26.450   5.235  1.00 21.76 LIG 0.18  HD
ATOM     30  CZ  ARG B   2      10.049 -24.763   4.395  1.00 17.86 LIG 0.67  C 
ATOM     31  NH2 ARG B   2       9.349 -25.154   3.334  1.00 21.34 LIG-0.23  N 
ATOM     32  NH1 ARG B   2      10.472 -23.505   4.487  1.00 18.80 LIG-0.23  N 
ATOM     33 2HH2 ARG B   2       9.159 -24.591   2.712  1.00 21.34 LIG 0.17  HD
ATOM     34 1HH2 ARG B   2       9.086 -25.971   3.269  1.00 21.34 LIG 0.17  HD
ATOM     35 2HH1 ARG B   2      10.284 -22.940   3.867  1.00 18.80 LIG 0.17  HD
ATOM     36 1HH1 ARG B   2      10.935 -23.256   5.168  1.00 18.80 LIG 0.17  HD
ENDBRANCH 27 28
ENDBRANCH 26 27
ENDBRANCH 25 26
ENDBRANCH 14 25
ENDBRANCH 11 14
ENDBRANCH 5 10
ENDBRANCH 1 5
BRANCH 3 37
ATOM     37  CA  LYS B   4       9.124 -20.257  11.133  1.00 20.35 LIG 0.18  C 
BRANCH 37 38
ATOM     38  CB  LYS B   4       8.923 -19.571   9.778  1.00 22.30 LIG 0.04  C 
BRANCH 38 39
ATOM     39  CG  LYS B   4       7.576 -18.911   9.567  1.00 24.16 LIG 0.00  C 
BRANCH 39 40
ATOM     40  CD  LYS B   4       7.668 -17.823   8.507  1.00 24.93 LIG 0.03  C 
BRANCH 40 41
ATOM     41  CE  LYS B   4       8.077 -16.490   9.102  1.00 25.90 LIG 0.23  C 
BRANCH 41 42
ATOM     42  NZ  LYS B   4       7.665 -15.352   8.234  1.00 28.03 LIG-0.08  N 
ATOM     43 HZ3  LYS B   4       8.380 -15.015   7.826  1.00 28.03 LIG 0.27  HD
ATOM     44 HZ1  LYS B   4       7.084 -15.639   7.624  1.00 28.03 LIG 0.27  HD
ATOM     45 HZ2  LYS B   4       7.284 -14.721   8.732  1.00 28.03 LIG 0.27  HD
ENDBRANCH 41 42
ENDBRANCH 40 41
ENDBRANCH 39 40
ENDBRANCH 38 39
ENDBRANCH 37 38
BRANCH 37 46
ATOM     46  C   LYS B   4       8.600 -19.379  12.266  1.00 21.64 LIG 0.24  C 
ATOM     47 O    LYS B   4       7.507 -19.618  12.803  1.00 22.31 LIG-0.27  OA
ATOM     48  N   GLN B   5       9.389 -18.376  12.632  1.00 26.13 LIG-0.35  N 
ATOM     49 H    GLN B   5      10.145 -18.205  12.260  1.00 26.13 LIG 0.16  HD
BRANCH 48 50
ATOM     50  CA  GLN B   5       9.040 -17.469  13.706  1.00 25.39 LIG 0.18  C 
BRANCH 50 51
ATOM     51  CB  GLN B   5      10.133 -17.488  14.779  1.00 28.67 LIG 0.04  C 
BRANCH 51 52
ATOM     52  CG  GLN B   5       9.581 -17.517  16.191  1.00 31.68 LIG 0.10  C 
BRANCH 52 53
ATOM     53  CD  GLN B   5       8.275 -18.276  16.309  1.00 33.20 LIG 0.21  C 
ATOM     54 OE1  GLN B   5       7.211 -17.756  15.954  1.00 36.95 LIG-0.27  OA
ATOM     55  NE2 GLN B   5       8.343 -19.504  16.815  1.00 36.99 LIG-0.37  N 
ATOM     56 22HE GLN B   5       7.627 -19.971  16.907  1.00 36.99 LIG 0.16  HD
ATOM     57 21HE GLN B   5       9.103 -19.831  17.051  1.00 36.99 LIG 0.16  HD
ENDBRANCH 52 53
ENDBRANCH 51 52
ENDBRANCH 50 51
BRANCH 50 58
ATOM     58  C   GLN B   5       8.914 -16.073  13.132  1.00 30.80 LIG 0.24  C 
ATOM     59  N   THR B   6       7.678 -15.592  13.031  1.00 32.96 LIG-0.34  N 
ATOM     60 H    THR B   6       6.971 -16.048  13.208  1.00 32.96 LIG 0.16  HD
ATOM     61 O    GLN B   5       9.922 -15.449  12.784  1.00 36.06 LIG-0.27  OA
BRANCH 59 62
ATOM     62  CA  THR B   6       7.411 -14.217  12.600  1.00 38.52 LIG 0.19  C 
BRANCH 62 63
ATOM     63  CB  THR B   6       6.663 -14.193  11.264  1.00 33.66 LIG 0.14  C 
ATOM     64  CG2 THR B   6       5.459 -15.096  11.349  1.00 38.34 LIG 0.04  C 
BRANCH 63 65
ATOM     65 OG1  THR B   6       6.224 -12.855  10.986  1.00 35.05 LIG-0.39  OA
ATOM     66 HG1  THR B   6       5.385 -12.833  10.968  1.00 35.05 LIG 0.21  HD
ENDBRANCH 63 65
ENDBRANCH 62 63
BRANCH 62 67
ATOM     67  C   THR B   6       6.616 -13.428  13.639  1.00 43.93 LIG 0.22  C 
ATOM     68 O    THR B   6       5.409 -13.221  13.492  1.00 48.58 LIG-0.29  OA
ENDBRANCH 62 67
ENDBRANCH 59 62
ENDBRANCH 50 58
ENDBRANCH 48 50
ENDBRANCH 37 46
ENDBRANCH 3 37
TORSDOF 28
ENDMDL
MODEL 2
USER: ADFR SOLUTION from run 199
USER: SCORE 22.707630 LL:  -3.440 LR: -20.841 RR:   0.000 FEB: -12.489
USER: RMSD 2.328068
USER: SEED 198
USER: STATUS searching
USER: GENES 30
USER: genes 0 Translation |==|  0.55371 0.48424 0.53265
USER: genes 1 Rotation |==|  0.49842 0.57455 0.54425 0.99243
USER: genes 2 Torsion [N]-C--CA-[N] |==|  0.36359
USER: genes 3 Torsion [C]-CA--CB-[CG2] |==|  0.36884
USER: genes 4 Torsion [CA]-CB--OG1-[HG1] |==|  0.16734
USER: genes 5 Torsion [C]-CA--N-[C] |==|  0.72148
USER: genes 6 Torsion [N]-C--CA-[N] |==|  0.43557
USER: genes 7 Torsion [C]-CA--N-[C] |==|  0.81194
USER: genes 8 Torsion [N]-C--CA-[N] |==|  0.03936
USER: genes 9 Torsion [C]-CA--N-[H1] |==|  0.19706
USER: genes 10 Torsion [C]-CA--CB-[CG] |==|  0.42375
USER: genes 11 Torsion [CA]-CB--CG-[CD] |==|  0.95497
USER: genes 12 Torsion [CB]-CG--CD-[NE] |==|  0.25944
USER: genes 13 Torsion [CG]-CD--NE-[HE] |==|  0.07563
USER: genes 14 Torsion [C]-N--CA-[CB] |==|  0.27778
USER: genes 15 Torsion [N]-CA--CB-[CG] |==|  0.23157
USER: genes 16 Torsion [CA]-CB--CG-[CD] |==|  0.45086
USER: genes 17 Torsion [CB]-CG--CD-[CE] |==|  0.84891
USER: genes 18 Torsion [CG]-CD--CE-[NZ] |==|  0.60665
USER: genes 19 Torsion [CD]-CE--NZ-[HZ3] |==|  0.64621
USER: genes 20 Torsion [N]-CA--C-[N] |==|  0.41371
USER: genes 21 Torsion [C]-N--CA-[C] |==|  0.65010
USER: genes 22 Torsion [N]-CA--CB-[CG] |==|  0.90081
USER: genes 23 Torsion [CA]-CB--CG-[CD] |==|  0.77911
USER: genes 24 Torsion [CB]-CG--CD-[OE1] |==|  0.33815
USER: genes 25 Torsion [N]-CA--C-[N] |==|  0.28940
USER: genes 26 Torsion [C]-N--CA-[C] |==|  0.73761
USER: genes 27 Torsion [N]-CA--CB-[CG2] |==|  0.92942
USER: genes 28 Torsion [CA]-CB--OG1-[HG1] |==|  0.46963
USER: genes 29 Torsion [N]-CA--C-[O] |==|  0.87410
ROOT
ATOM      1  C   THR B   3       9.670 -22.283  10.959  1.00 20.25 LIG 0.24  C 
ATOM      2 O    THR B   3      10.824 -22.099  10.538  1.00 21.22 LIG-0.27  OA
ATOM      3  N   LYS B   4       8.801 -21.300  11.126  1.00 19.99 LIG-0.35  N 
ATOM      4 H    LYS B   4       7.963 -21.421  11.277  1.00 19.99 LIG 0.16  HD
ENDROOT
BRANCH 1 5
ATOM      5  CA  THR B   3       9.140 -23.675  11.316  1.00 18.41 LIG 0.20  C 
BRANCH 5 6
ATOM      6  CB  THR B   3       9.749 -24.070  12.674  1.00 21.88 LIG 0.15  C 
ATOM      7  CG2 THR B   3       8.680 -24.620  13.622  1.00 22.89 LIG 0.04  C 
BRANCH 6 8
ATOM      8 OG1  THR B   3      10.776 -25.042  12.467  1.00 27.36 LIG-0.39  OA
ATOM      9 HG1  THR B   3      11.376 -24.716  11.978  1.00 27.36 LIG 0.21  HD
ENDBRANCH 6 8
ENDBRANCH 5 6
BRANCH 5 10
ATOM     10  N   THR B   3       9.397 -24.661  10.280  1.00 19.27 LIG-0.34  N 
ATOM     11  C   ARG B   2       8.456 -25.028   9.416  1.00 14.36 LIG 0.24  C 
ATOM     12 O    ARG B   2       7.285 -24.664   9.486  1.00 14.31 LIG-0.27  OA
ATOM     13 H    THR B   3      10.197 -24.976  10.280  1.00 19.27 LIG 0.16  HD
BRANCH 11 14
ATOM     14  CA  ARG B   2       8.925 -25.873   8.257  1.00 14.00 LIG 0.18  C 
BRANCH 14 15
ATOM     15  N   ARG B   2       7.863 -26.677   7.666  1.00 14.23 LIG-0.35  N 
ATOM     16 H    ARG B   2       7.656 -26.429   6.869  1.00 14.23 LIG 0.16  HD
ATOM     17  C   ALA B   1       7.262 -27.693   8.281  1.00 14.69 LIG 0.25  C 
ATOM     18 O    ALA B   1       7.433 -27.967   9.472  1.00 15.97 LIG-0.27  OA
BRANCH 17 19
ATOM     19  CA  ALA B   1       6.317 -28.528   7.419  1.00 13.70 LIG 0.27  C 
ATOM     20  CB  ALA B   1       6.533 -30.004   7.681  1.00 15.23 LIG 0.05  C 
BRANCH 19 21
ATOM     21  N   ALA B   1       6.534 -28.221   5.974  1.00 12.70 LIG-0.07  N 
ATOM     22 H1   ALA B   1       7.317 -28.555   5.714  1.00 12.70 LIG 0.28  HD
ATOM     23 H3   ALA B   1       6.533 -27.339   5.855  1.00 12.70 LIG 0.28  HD
ATOM     24 H2   ALA B   1       5.882 -28.586   5.492  1.00 12.70 LIG 0.28  HD
ENDBRANCH 19 21
ENDBRANCH 17 19
ENDBRANCH 14 15
BRANCH 14 25
ATOM     25  CB  ARG B   2       9.467 -24.916   7.206  1.00 15.26 LIG 0.04  C 
BRANCH 25 26
ATOM     26  CG  ARG B   2      10.533 -25.518   6.314  1.00 16.76 LIG 0.02  C 
BRANCH 26 27
ATOM     27  CD  ARG B   2      11.077 -26.797   6.945  1.00 19.38 LIG 0.14  C 
BRANCH 27 28
ATOM     28  NE  ARG B   2      10.349 -27.964   6.438  1.00 21.76 LIG-0.23  N 
ATOM     29 HE   ARG B   2      10.000 -27.904   5.654  1.00 21.76 LIG 0.18  HD
ATOM     30  CZ  ARG B   2      10.186 -29.107   7.093  1.00 17.86 LIG 0.67  C 
ATOM     31  NH2 ARG B   2       9.519 -30.102   6.516  1.00 21.34 LIG-0.23  N 
ATOM     32  NH1 ARG B   2      10.668 -29.253   8.325  1.00 18.80 LIG-0.23  N 
ATOM     33 2HH2 ARG B   2       9.409 -30.846   6.933  1.00 21.34 LIG 0.17  HD
ATOM     34 1HH2 ARG B   2       9.197 -30.002   5.724  1.00 21.34 LIG 0.17  HD
ATOM     35 2HH1 ARG B   2      10.559 -29.996   8.745  1.00 18.80 LIG 0.17  HD
ATOM     36 1HH1 ARG B   2      11.088 -28.605   8.702  1.00 18.80 LIG 0.17  HD
ENDBRANCH 27 28
ENDBRANCH 26 27
ENDBRANCH 25 26
ENDBRANCH 14 25
ENDBRANCH 11 14
ENDBRANCH 5 10
ENDBRANCH 1 5
BRANCH 3 37
ATOM     37  CA  LYS B   4       9.198 -19.912  11.067  1.00 20.35 LIG 0.18  C 
BRANCH 37 38
ATOM     38  CB  LYS B   4       8.865 -19.295   9.704  1.00 22.30 LIG 0.04  C 
BRANCH 38 39
ATOM     39  CG  LYS B   4       7.443 -18.800   9.534  1.00 24.16 LIG 0.00  C 
BRANCH 39 40
ATOM     40  CD  LYS B   4       7.343 -17.843   8.356  1.00 24.93 LIG 0.03  C 
BRANCH 40 41
ATOM     41  CE  LYS B   4       8.332 -16.699   8.473  1.00 25.90 LIG 0.23  C 
BRANCH 41 42
ATOM     42  NZ  LYS B   4       7.743 -15.414   8.002  1.00 28.03 LIG-0.08  N 
ATOM     43 HZ3  LYS B   4       8.281 -15.045   7.397  1.00 28.03 LIG 0.27  HD
ATOM     44 HZ1  LYS B   4       6.947 -15.569   7.636  1.00 28.03 LIG 0.27  HD
ATOM     45 HZ2  LYS B   4       7.649 -14.860   8.692  1.00 28.03 LIG 0.27  HD
ENDBRANCH 41 42
ENDBRANCH 40 41
ENDBRANCH 39 40
ENDBRANCH 38 39
ENDBRANCH 37 38
BRANCH 37 46
ATOM     46  C   LYS B   4       8.459 -19.182  12.185  1.00 21.64 LIG 0.24  C 
ATOM     47 O    LYS B   4       7.339 -19.562  12.561  1.00 22.31 LIG-0.27  OA
ATOM     48  N   GLN B   5       9.094 -18.145  12.717  1.00 26.13 LIG-0.35  N 
ATOM     49 H    GLN B   5       9.868 -17.876  12.455  1.00 26.13 LIG 0.16  HD
BRANCH 48 50
ATOM     50  CA  GLN B   5       8.532 -17.365  13.800  1.00 25.39 LIG 0.18  C 
BRANCH 50 51
ATOM     51  CB  GLN B   5       9.382 -17.539  15.063  1.00 28.67 LIG 0.04  C 
BRANCH 51 52
ATOM     52  CG  GLN B   5       9.949 -18.938  15.212  1.00 31.68 LIG 0.10  C 
BRANCH 52 53
ATOM     53  CD  GLN B   5       8.947 -19.936  15.752  1.00 33.20 LIG 0.21  C 
ATOM     54 OE1  GLN B   5       8.657 -20.950  15.107  1.00 36.95 LIG-0.27  OA
ATOM     55  NE2 GLN B   5       8.403 -19.655  16.933  1.00 36.99 LIG-0.37  N 
ATOM     56 22HE GLN B   5       7.824 -20.189  17.278  1.00 36.99 LIG 0.16  HD
ATOM     57 21HE GLN B   5       8.630 -18.939  17.352  1.00 36.99 LIG 0.16  HD
ENDBRANCH 52 53
ENDBRANCH 51 52
ENDBRANCH 50 51
BRANCH 50 58
ATOM     58  C   GLN B   5       8.524 -15.908  13.388  1.00 30.80 LIG 0.24  C 
ATOM     59  N   THR B   6       7.343 -15.407  13.034  1.00 32.96 LIG-0.34  N 
ATOM     60 H    THR B   6       6.626 -15.875  12.968  1.00 32.96 LIG 0.16  HD
ATOM     61 O    GLN B   5       9.573 -15.255  13.388  1.00 36.06 LIG-0.27  OA
BRANCH 59 62
ATOM     62  CA  THR B   6       7.164 -13.987  12.721  1.00 38.52 LIG 0.19  C 
BRANCH 62 63
ATOM     63  CB  THR B   6       6.174 -13.798  11.568  1.00 33.66 LIG 0.14  C 
ATOM     64  CG2 THR B   6       6.159 -15.039  10.713  1.00 38.34 LIG 0.04  C 
BRANCH 63 65
ATOM     65 OG1  THR B   6       4.858 -13.581  12.099  1.00 35.05 LIG-0.39  OA
ATOM     66 HG1  THR B   6       4.345 -13.330  11.483  1.00 35.05 LIG 0.21  HD
ENDBRANCH 63 65
ENDBRANCH 62 63
BRANCH 62 67
ATOM     67  C   THR B   6       6.692 -13.182  13.929  1.00 43.93 LIG 0.22  C 
ATOM     68 O    THR B   6       5.784 -13.597  14.655  1.00 48.58 LIG-0.29  OA
ENDBRANCH 62 67
ENDBRANCH 59 62
ENDBRANCH 50 58
ENDBRANCH 48 50
ENDBRANCH 37 46
ENDBRANCH 3 37
TORSDOF 28
ENDMDL
MODEL 3
USER: ADFR SOLUTION from run 146
USER: SCORE 20.728602 LL:  -3.489 LR: -19.641 RR:   0.000 FEB: -11.288
USER: RMSD 5.796566
USER: SEED 145
USER: STATUS no improvement in best in 3 clusters for 5 generations
USER: GENES 30
USER: genes 0 Translation |==|  0.48407 0.57642 0.59653
USER: genes 1 Rotation |==|  0.49330 0.02236 0.38309 0.59025
USER: genes 2 Torsion [N]-C--CA-[N] |==|  0.45306
USER: genes 3 Torsion [C]-CA--CB-[CG2] |==|  0.86224
USER: genes 4 Torsion [CA]-CB--OG1-[HG1] |==|  0.91449
USER: genes 5 Torsion [C]-CA--N-[C] |==|  0.54284
USER: genes 6 Torsion [N]-C--CA-[N] |==|  0.98501
USER: genes 7 Torsion [C]-CA--N-[C] |==|  0.66112
USER: genes 8 Torsion [N]-C--CA-[N] |==|  0.58145
USER: genes 9 Torsion [C]-CA--N-[H1] |==|  0.39000
USER: genes 10 Torsion [C]-CA--CB-[CG] |==|  0.26783
USER: genes 11 Torsion [CA]-CB--CG-[CD] |==|  0.33977
USER: genes 12 Torsion [CB]-CG--CD-[NE] |==|  0.23884
USER: genes 13 Torsion [CG]-CD--NE-[HE] |==|  0.88548
USER: genes 14 Torsion [C]-N--CA-[CB] |==|  0.35411
USER: genes 15 Torsion [N]-CA--CB-[CG] |==|  0.87769
USER: genes 16 Torsion [CA]-CB--CG-[CD] |==|  0.64961
USER: genes 17 Torsion [CB]-CG--CD-[CE] |==|  0.22648
USER: genes 18 Torsion [CG]-CD--CE-[NZ] |==|  0.33476
USER: genes 19 Torsion [CD]-CE--NZ-[HZ3] |==|  0.11325
USER: genes 20 Torsion [N]-CA--C-[N] |==|  0.11225
USER: genes 21 Torsion [C]-N--CA-[C] |==|  0.79339
USER: genes 22 Torsion [N]-CA--CB-[CG] |==|  0.72657
USER: genes 23 Torsion [CA]-CB--CG-[CD] |==|  0.63944
USER: genes 24 Torsion [CB]-CG--CD-[OE1] |==|  0.66409
USER: genes 25 Torsion [N]-CA--C-[N] |==|  0.29848
USER: genes 26 Torsion [C]-N--CA-[C] |==|  0.55691
USER: genes 27 Torsion [N]-CA--CB-[CG2] |==|  0.47400
USER: genes 28 Torsion [CA]-CB--OG1-[HG1] |==|  0.76858
USER: genes 29 Torsion [N]-CA--C-[O] |==|  0.83058
ROOT
ATOM      1  C   THR B   3       8.521 -19.725  12.396  1.00 20.25 LIG 0.24  C 
ATOM      2 O    THR B   3       7.379 -19.850  12.866  1.00 21.22 LIG-0.27  OA
ATOM      3  N   LYS B   4       9.316 -18.712  12.700  1.00 19.99 LIG-0.35  N 
ATOM      4 H    LYS B   4      10.152 -18.683  12.501  1.00 19.99 LIG 0.16  HD
ENDROOT
BRANCH 1 5
ATOM      5  CA  THR B   3       9.123 -20.743  11.422  1.00 18.41 LIG 0.20  C 
BRANCH 5 6
ATOM      6  CB  THR B   3       9.175 -20.081  10.032  1.00 21.88 LIG 0.15  C 
ATOM      7  CG2 THR B   3       7.827 -19.454   9.667  1.00 22.89 LIG 0.04  C 
BRANCH 6 8
ATOM      8 OG1  THR B   3      10.204 -19.090  10.018  1.00 27.36 LIG-0.39  OA
ATOM      9 HG1  THR B   3      10.287 -18.760  10.786  1.00 27.36 LIG 0.21  HD
ENDBRANCH 6 8
ENDBRANCH 5 6
BRANCH 5 10
ATOM     10  N   THR B   3       8.408 -22.008  11.413  1.00 19.27 LIG-0.34  N 
ATOM     11  C   ARG B   2       8.936 -23.105  10.878  1.00 14.36 LIG 0.24  C 
ATOM     12 O    ARG B   2       9.994 -23.120  10.256  1.00 14.31 LIG-0.27  OA
ATOM     13 H    THR B   3       7.631 -21.980  11.779  1.00 19.27 LIG 0.16  HD
BRANCH 11 14
ATOM     14  CA  ARG B   2       8.191 -24.388  11.149  1.00 14.00 LIG 0.18  C 
BRANCH 14 15
ATOM     15  N   ARG B   2       7.072 -24.220  12.068  1.00 14.23 LIG-0.35  N 
ATOM     16 H    ARG B   2       6.493 -23.646  11.795  1.00 14.23 LIG 0.16  HD
ATOM     17  C   ALA B   1       6.943 -24.879  13.218  1.00 14.69 LIG 0.25  C 
ATOM     18 O    ALA B   1       7.830 -25.588  13.702  1.00 15.97 LIG-0.27  OA
BRANCH 17 19
ATOM     19  CA  ALA B   1       5.607 -24.707  13.936  1.00 13.70 LIG 0.27  C 
ATOM     20  CB  ALA B   1       5.004 -23.356  13.609  1.00 15.23 LIG 0.05  C 
BRANCH 19 21
ATOM     21  N   ALA B   1       5.794 -24.846  15.411  1.00 12.70 LIG-0.07  N 
ATOM     22 H1   ALA B   1       5.288 -24.248  15.832  1.00 12.70 LIG 0.28  HD
ATOM     23 H3   ALA B   1       6.649 -24.708  15.615  1.00 12.70 LIG 0.28  HD
ATOM     24 H2   ALA B   1       5.557 -25.665  15.664  1.00 12.70 LIG 0.28  HD
ENDBRANCH 19 21
ENDBRANCH 17 19
ENDBRANCH 14 15
BRANCH 14 25
ATOM     25  CB  ARG B   2       7.662 -24.881   9.810  1.00 15.26 LIG 0.04  C 
BRANCH 25 26
ATOM     26  CG  ARG B   2       8.542 -25.917   9.141  1.00 16.76 LIG 0.02  C 
BRANCH 26 27
ATOM     27  CD  ARG B   2       7.742 -27.193   8.889  1.00 19.38 LIG 0.14  C 
BRANCH 27 28
ATOM     28  NE  ARG B   2       7.024 -27.100   7.615  1.00 21.76 LIG-0.23  N 
ATOM     29 HE   ARG B   2       6.651 -26.349   7.424  1.00 21.76 LIG 0.18  HD
ATOM     30  CZ  ARG B   2       6.904 -28.084   6.732  1.00 17.86 LIG 0.67  C 
ATOM     31  NH2 ARG B   2       6.242 -27.868   5.599  1.00 21.34 LIG-0.23  N 
ATOM     32  NH1 ARG B   2       7.424 -29.283   6.982  1.00 18.80 LIG-0.23  N 
ATOM     33 2HH2 ARG B   2       6.159 -28.500   5.021  1.00 21.34 LIG 0.17  HD
ATOM     34 1HH2 ARG B   2       5.895 -27.096   5.444  1.00 21.34 LIG 0.17  HD
ATOM     35 2HH1 ARG B   2       7.343 -29.916   6.406  1.00 18.80 LIG 0.17  HD
ATOM     36 1HH1 ARG B   2       7.842 -29.424   7.720  1.00 18.80 LIG 0.17  HD
ENDBRANCH 27 28
ENDBRANCH 26 27
ENDBRANCH 25 26
ENDBRANCH 14 25
ENDBRANCH 11 14
ENDBRANCH 5 10
ENDBRANCH 1 5
BRANCH 3 37
ATOM     37  CA  LYS B   4       8.834 -17.549  13.407  1.00 20.35 LIG 0.18  C 
BRANCH 37 38
ATOM     38  CB  LYS B   4       9.696 -17.248  14.638  1.00 22.30 LIG 0.04  C 
BRANCH 38 39
ATOM     39  CG  LYS B   4      10.074 -18.444  15.487  1.00 24.16 LIG 0.00  C 
BRANCH 39 40
ATOM     40  CD  LYS B   4       9.682 -18.220  16.940  1.00 24.93 LIG 0.03  C 
BRANCH 40 41
ATOM     41  CE  LYS B   4       8.215 -18.520  17.180  1.00 25.90 LIG 0.23  C 
BRANCH 41 42
ATOM     42  NZ  LYS B   4       8.034 -19.596  18.194  1.00 28.03 LIG-0.08  N 
ATOM     43 HZ3  LYS B   4       8.616 -19.480  18.857  1.00 28.03 LIG 0.27  HD
ATOM     44 HZ1  LYS B   4       7.206 -19.563  18.518  1.00 28.03 LIG 0.27  HD
ATOM     45 HZ2  LYS B   4       8.172 -20.388  17.814  1.00 28.03 LIG 0.27  HD
ENDBRANCH 41 42
ENDBRANCH 40 41
ENDBRANCH 39 40
ENDBRANCH 38 39
ENDBRANCH 37 38
BRANCH 37 46
ATOM     46  C   LYS B   4       8.863 -16.379  12.427  1.00 21.64 LIG 0.24  C 
ATOM     47 O    LYS B   4       9.242 -15.254  12.791  1.00 22.31 LIG-0.27  OA
ATOM     48  N   GLN B   5       8.475 -16.653  11.188  1.00 26.13 LIG-0.35  N 
ATOM     49 H    GLN B   5       8.207 -17.430  10.934  1.00 26.13 LIG 0.16  HD
BRANCH 48 50
ATOM     50  CA  GLN B   5       8.467 -15.654  10.140  1.00 25.39 LIG 0.18  C 
BRANCH 50 51
ATOM     51  CB  GLN B   5       8.318 -16.332   8.775  1.00 28.67 LIG 0.04  C 
BRANCH 51 52
ATOM     52  CG  GLN B   5       9.638 -16.510   8.050  1.00 31.68 LIG 0.10  C 
BRANCH 52 53
ATOM     53  CD  GLN B   5       9.609 -16.009   6.621  1.00 33.20 LIG 0.21  C 
ATOM     54 OE1  GLN B   5       9.853 -16.773   5.680  1.00 36.95 LIG-0.27  OA
ATOM     55  NE2 GLN B   5       9.322 -14.722   6.447  1.00 36.99 LIG-0.37  N 
ATOM     56 22HE GLN B   5       9.300 -14.389   5.654  1.00 36.99 LIG 0.16  HD
ATOM     57 21HE GLN B   5       9.159 -14.221   7.127  1.00 36.99 LIG 0.16  HD
ENDBRANCH 52 53
ENDBRANCH 51 52
ENDBRANCH 50 51
BRANCH 50 58
ATOM     58  C   GLN B   5       7.299 -14.720  10.375  1.00 30.80 LIG 0.24  C 
ATOM     59  N   THR B   6       7.602 -13.500  10.811  1.00 32.96 LIG-0.34  N 
ATOM     60 H    THR B   6       8.399 -13.252  11.019  1.00 32.96 LIG 0.16  HD
ATOM     61 O    GLN B   5       6.143 -15.105  10.170  1.00 36.06 LIG-0.27  OA
BRANCH 59 62
ATOM     62  CA  THR B   6       6.587 -12.457  10.974  1.00 38.52 LIG 0.19  C 
BRANCH 62 63
ATOM     63  CB  THR B   6       5.776 -12.674  12.255  1.00 33.66 LIG 0.14  C 
ATOM     64  CG2 THR B   6       4.906 -11.470  12.507  1.00 38.34 LIG 0.04  C 
BRANCH 63 65
ATOM     65 OG1  THR B   6       4.939 -13.830  12.100  1.00 35.05 LIG-0.39  OA
ATOM     66 HG1  THR B   6       4.233 -13.614  11.697  1.00 35.05 LIG 0.21  HD
ENDBRANCH 63 65
ENDBRANCH 62 63
BRANCH 62 67
ATOM     67  C   THR B   6       7.193 -11.056  10.991  1.00 43.93 LIG 0.22  C 
ATOM     68 O    THR B   6       8.007 -10.725  11.857  1.00 48.58 LIG-0.29  OA
ENDBRANCH 62 67
ENDBRANCH 59 62
ENDBRANCH 50 58
ENDBRANCH 48 50
ENDBRANCH 37 46
ENDBRANCH 3 37
TORSDOF 28
ENDMDL
MODEL 4
USER: ADFR SOLUTION from run 183
USER: SCORE 21.561303 LL:  -3.530 LR: -19.446 RR:   0.000 FEB: -11.094
USER: RMSD 2.995695
USER: SEED 182
USER: STATUS no improvement in best in 3 clusters for 5 generations
USER: GENES 30
USER: genes 0 Translation |==|  0.51486 0.47150 0.54352
USER: genes 1 Rotation |==|  0.50229 0.54092 0.46343 0.99697
USER: genes 2 Torsion [N]-C--CA-[N] |==|  0.45385
USER: genes 3 Torsion [C]-CA--CB-[CG2] |==|  0.89271
USER: genes 4 Torsion [CA]-CB--OG1-[HG1] |==|  0.88267
USER: genes 5 Torsion [C]-CA--N-[C] |==|  0.54838
USER: genes 6 Torsion [N]-C--CA-[N] |==|  0.87444
USER: genes 7 Torsion [C]-CA--N-[C] |==|  0.84355
USER: genes 8 Torsion [N]-C--CA-[N] |==|  0.43490
USER: genes 9 Torsion [C]-CA--N-[H1] |==|  0.57324
USER: genes 10 Torsion [C]-CA--CB-[CG] |==|  0.37883
USER: genes 11 Torsion [CA]-CB--CG-[CD] |==|  0.26918
USER: genes 12 Torsion [CB]-CG--CD-[NE] |==|  0.82957
USER: genes 13 Torsion [CG]-CD--NE-[HE] |==|  0.32491
USER: genes 14 Torsion [C]-N--CA-[CB] |==|  0.26626
USER: genes 15 Torsion [N]-CA--CB-[CG] |==|  0.24536
USER: genes 16 Torsion [CA]-CB--CG-[CD] |==|  0.32315
USER: genes 17 Torsion [CB]-CG--CD-[CE] |==|  0.34254
USER: genes 18 Torsion [CG]-CD--CE-[NZ] |==|  0.34692
USER: genes 19 Torsion [CD]-CE--NZ-[HZ3] |==|  0.71304
USER: genes 20 Torsion [N]-CA--C-[N] |==|  0.40694
USER: genes 21 Torsion [C]-N--CA-[C] |==|  0.74258
USER: genes 22 Torsion [N]-CA--CB-[CG] |==|  0.76134
USER: genes 23 Torsion [CA]-CB--CG-[CD] |==|  0.87052
USER: genes 24 Torsion [CB]-CG--CD-[OE1] |==|  0.93025
USER: genes 25 Torsion [N]-CA--C-[N] |==|  0.32233
USER: genes 26 Torsion [C]-N--CA-[C] |==|  0.69172
USER: genes 27 Torsion [N]-CA--CB-[CG2] |==|  0.88575
USER: genes 28 Torsion [CA]-CB--OG1-[HG1] |==|  0.87014
USER: genes 29 Torsion [N]-CA--C-[O] |==|  0.75797
ROOT
ATOM      1  C   THR B   3       9.029 -22.637  11.203  1.00 20.25 LIG 0.24  C 
ATOM      2 O    THR B   3      10.226 -22.844  10.943  1.00 21.22 LIG-0.27  OA
ATOM      3  N   LYS B   4       8.504 -21.423  11.252  1.00 19.99 LIG-0.35  N 
ATOM      4 H    LYS B   4       7.659 -21.268  11.287  1.00 19.99 LIG 0.16  HD
ENDROOT
BRANCH 1 5
ATOM      5  CA  THR B   3       8.042 -23.774  11.484  1.00 18.41 LIG 0.20  C 
BRANCH 5 6
ATOM      6  CB  THR B   3       7.704 -23.736  12.986  1.00 21.88 LIG 0.15  C 
ATOM      7  CG2 THR B   3       8.939 -23.395  13.823  1.00 22.89 LIG 0.04  C 
BRANCH 6 8
ATOM      8 OG1  THR B   3       6.670 -22.776  13.214  1.00 27.36 LIG-0.39  OA
ATOM      9 HG1  THR B   3       6.822 -22.086  12.758  1.00 27.36 LIG 0.21  HD
ENDBRANCH 6 8
ENDBRANCH 5 6
BRANCH 5 10
ATOM     10  N   THR B   3       8.537 -25.071  11.054  1.00 19.27 LIG-0.34  N 
ATOM     11  C   ARG B   2       7.725 -26.110  10.892  1.00 14.36 LIG 0.24  C 
ATOM     12 O    ARG B   2       6.535 -26.101  11.195  1.00 14.31 LIG-0.27  OA
ATOM     13 H    THR B   3       9.386 -25.100  10.918  1.00 19.27 LIG 0.16  HD
BRANCH 11 14
ATOM     14  CA  ARG B   2       8.332 -27.317  10.220  1.00 14.00 LIG 0.18  C 
BRANCH 14 15
ATOM     15  N   ARG B   2       9.121 -26.982   9.042  1.00 14.23 LIG-0.35  N 
ATOM     16 H    ARG B   2       9.931 -27.268   9.085  1.00 14.23 LIG 0.16  HD
ATOM     17  C   ALA B   1       8.654 -26.302   7.997  1.00 14.69 LIG 0.25  C 
ATOM     18 O    ALA B   1       7.550 -25.751   7.980  1.00 15.97 LIG-0.27  OA
BRANCH 17 19
ATOM     19  CA  ALA B   1       9.579 -26.227   6.785  1.00 13.70 LIG 0.27  C 
ATOM     20  CB  ALA B   1      10.614 -25.139   6.979  1.00 15.23 LIG 0.05  C 
BRANCH 19 21
ATOM     21  N   ALA B   1       8.784 -25.970   5.547  1.00 12.70 LIG-0.07  N 
ATOM     22 H1   ALA B   1       9.219 -26.294   4.842  1.00 12.70 LIG 0.28  HD
ATOM     23 H3   ALA B   1       8.667 -25.094   5.446  1.00 12.70 LIG 0.28  HD
ATOM     24 H2   ALA B   1       7.992 -26.369   5.615  1.00 12.70 LIG 0.28  HD
ENDBRANCH 19 21
ENDBRANCH 17 19
ENDBRANCH 14 15
BRANCH 14 25
ATOM     25  CB  ARG B   2       9.234 -27.985  11.248  1.00 15.26 LIG 0.04  C 
BRANCH 25 26
ATOM     26  CG  ARG B   2       9.110 -29.494  11.293  1.00 16.76 LIG 0.02  C 
BRANCH 26 27
ATOM     27  CD  ARG B   2      10.216 -30.130  10.455  1.00 19.38 LIG 0.14  C 
BRANCH 27 28
ATOM     28  NE  ARG B   2      10.098 -29.713   9.054  1.00 21.76 LIG-0.23  N 
ATOM     29 HE   ARG B   2      10.746 -29.256   8.720  1.00 21.76 LIG 0.18  HD
ATOM     30  CZ  ARG B   2       9.069 -29.985   8.260  1.00 17.86 LIG 0.67  C 
ATOM     31  NH2 ARG B   2       9.089 -29.565   6.998  1.00 21.34 LIG-0.23  N 
ATOM     32  NH1 ARG B   2       8.017 -30.655   8.724  1.00 18.80 LIG-0.23  N 
ATOM     33 2HH2 ARG B   2       8.427 -29.737   6.477  1.00 21.34 LIG 0.17  HD
ATOM     34 1HH2 ARG B   2       9.765 -29.122   6.703  1.00 21.34 LIG 0.17  HD
ATOM     35 2HH1 ARG B   2       7.354 -30.828   8.205  1.00 18.80 LIG 0.17  HD
ATOM     36 1HH1 ARG B   2       8.000 -30.914   9.543  1.00 18.80 LIG 0.17  HD
ENDBRANCH 27 28
ENDBRANCH 26 27
ENDBRANCH 25 26
ENDBRANCH 14 25
ENDBRANCH 11 14
ENDBRANCH 5 10
ENDBRANCH 1 5
BRANCH 3 37
ATOM     37  CA  LYS B   4       9.326 -20.235  11.248  1.00 20.35 LIG 0.18  C 
BRANCH 37 38
ATOM     38  CB  LYS B   4       9.470 -19.661   9.835  1.00 22.30 LIG 0.04  C 
BRANCH 38 39
ATOM     39  CG  LYS B   4       8.400 -18.675   9.412  1.00 24.16 LIG 0.00  C 
BRANCH 39 40
ATOM     40  CD  LYS B   4       9.002 -17.301   9.161  1.00 24.93 LIG 0.03  C 
BRANCH 40 41
ATOM     41  CE  LYS B   4       8.707 -16.804   7.759  1.00 25.90 LIG 0.23  C 
BRANCH 41 42
ATOM     42  NZ  LYS B   4       8.043 -15.471   7.777  1.00 28.03 LIG-0.08  N 
ATOM     43 HZ3  LYS B   4       7.174 -15.570   7.613  1.00 28.03 LIG 0.27  HD
ATOM     44 HZ1  LYS B   4       8.153 -15.096   8.577  1.00 28.03 LIG 0.27  HD
ATOM     45 HZ2  LYS B   4       8.405 -14.950   7.153  1.00 28.03 LIG 0.27  HD
ENDBRANCH 41 42
ENDBRANCH 40 41
ENDBRANCH 39 40
ENDBRANCH 38 39
ENDBRANCH 37 38
BRANCH 37 46
ATOM     46  C   LYS B   4       8.662 -19.223  12.178  1.00 21.64 LIG 0.24  C 
ATOM     47 O    LYS B   4       7.427 -19.177  12.290  1.00 22.31 LIG-0.27  OA
ATOM     48  N   GLN B   5       9.485 -18.425  12.847  1.00 26.13 LIG-0.35  N 
ATOM     49 H    GLN B   5      10.341 -18.451  12.768  1.00 26.13 LIG 0.16  HD
BRANCH 48 50
ATOM     50  CA  GLN B   5       9.008 -17.428  13.782  1.00 25.39 LIG 0.18  C 
BRANCH 50 51
ATOM     51  CB  GLN B   5      10.019 -17.255  14.920  1.00 28.67 LIG 0.04  C 
BRANCH 51 52
ATOM     52  CG  GLN B   5       9.822 -18.248  16.049  1.00 31.68 LIG 0.10  C 
BRANCH 52 53
ATOM     53  CD  GLN B   5       8.378 -18.380  16.486  1.00 33.20 LIG 0.21  C 
ATOM     54 OE1  GLN B   5       7.579 -17.454  16.308  1.00 36.95 LIG-0.27  OA
ATOM     55  NE2 GLN B   5       8.034 -19.526  17.069  1.00 36.99 LIG-0.37  N 
ATOM     56 22HE GLN B   5       7.227 -19.645  17.340  1.00 36.99 LIG 0.16  HD
ATOM     57 21HE GLN B   5       8.619 -20.147  17.175  1.00 36.99 LIG 0.16  HD
ENDBRANCH 52 53
ENDBRANCH 51 52
ENDBRANCH 50 51
BRANCH 50 58
ATOM     58  C   GLN B   5       8.843 -16.117  13.043  1.00 30.80 LIG 0.24  C 
ATOM     59  N   THR B   6       7.603 -15.642  12.961  1.00 32.96 LIG-0.34  N 
ATOM     60 H    THR B   6       6.910 -16.067  13.242  1.00 32.96 LIG 0.16  HD
ATOM     61 O    GLN B   5       9.826 -15.551  12.552  1.00 36.06 LIG-0.27  OA
BRANCH 59 62
ATOM     62  CA  THR B   6       7.308 -14.333  12.375  1.00 38.52 LIG 0.19  C 
BRANCH 62 63
ATOM     63  CB  THR B   6       6.255 -14.449  11.269  1.00 33.66 LIG 0.14  C 
ATOM     64  CG2 THR B   6       6.535 -15.673  10.438  1.00 38.34 LIG 0.04  C 
BRANCH 63 65
ATOM     65 OG1  THR B   6       4.953 -14.574  11.861  1.00 35.05 LIG-0.39  OA
ATOM     66 HG1  THR B   6       4.978 -15.145  12.476  1.00 35.05 LIG 0.21  HD
ENDBRANCH 63 65
ENDBRANCH 62 63
BRANCH 62 67
ATOM     67  C   THR B   6       6.835 -13.324  13.420  1.00 43.93 LIG 0.22  C 
ATOM     68 O    THR B   6       5.644 -13.239  13.728  1.00 48.58 LIG-0.29  OA
ENDBRANCH 62 67
ENDBRANCH 59 62
ENDBRANCH 50 58
ENDBRANCH 48 50
ENDBRANCH 37 46
ENDBRANCH 3 37
TORSDOF 28
ENDMDL
MODEL 5
USER: ADFR SOLUTION from run 83
USER: SCORE 21.126039 LL:  -3.696 LR: -19.418 RR:   0.000 FEB: -11.065
USER: RMSD 3.296168
USER: SEED 82
USER: STATUS 1 or 2 clusters left
USER: GENES 30
USER: genes 0 Translation |==|  0.48815 0.50588 0.61036
USER: genes 1 Rotation |==|  0.36827 0.26686 0.53107 0.92110
USER: genes 2 Torsion [N]-C--CA-[N] |==|  0.08406
USER: genes 3 Torsion [C]-CA--CB-[CG2] |==|  0.21820
USER: genes 4 Torsion [CA]-CB--OG1-[HG1] |==|  0.91847
USER: genes 5 Torsion [C]-CA--N-[C] |==|  0.19306
USER: genes 6 Torsion [N]-C--CA-[N] |==|  0.50248
USER: genes 7 Torsion [C]-CA--N-[C] |==|  0.54660
USER: genes 8 Torsion [N]-C--CA-[N] |==|  0.41540
USER: genes 9 Torsion [C]-CA--N-[H1] |==|  0.94311
USER: genes 10 Torsion [C]-CA--CB-[CG] |==|  0.70050
USER: genes 11 Torsion [CA]-CB--CG-[CD] |==|  0.62827
USER: genes 12 Torsion [CB]-CG--CD-[NE] |==|  0.15421
USER: genes 13 Torsion [CG]-CD--NE-[HE] |==|  0.87879
USER: genes 14 Torsion [C]-N--CA-[CB] |==|  0.48449
USER: genes 15 Torsion [N]-CA--CB-[CG] |==|  0.62614
USER: genes 16 Torsion [CA]-CB--CG-[CD] |==|  0.67376
USER: genes 17 Torsion [CB]-CG--CD-[CE] |==|  0.88863
USER: genes 18 Torsion [CG]-CD--CE-[NZ] |==|  0.51673
USER: genes 19 Torsion [CD]-CE--NZ-[HZ3] |==|  0.47079
USER: genes 20 Torsion [N]-CA--C-[N] |==|  0.27375
USER: genes 21 Torsion [C]-N--CA-[C] |==|  0.74707
USER: genes 22 Torsion [N]-CA--CB-[CG] |==|  0.90446
USER: genes 23 Torsion [CA]-CB--CG-[CD] |==|  0.47390
USER: genes 24 Torsion [CB]-CG--CD-[OE1] |==|  0.70683
USER: genes 25 Torsion [N]-CA--C-[N] |==|  0.24340
USER: genes 26 Torsion [C]-N--CA-[C] |==|  0.81956
USER: genes 27 Torsion [N]-CA--CB-[CG2] |==|  0.77900
USER: genes 28 Torsion [CA]-CB--OG1-[HG1] |==|  0.96016
USER: genes 29 Torsion [N]-CA--C-[O] |==|  0.97220
ROOT
ATOM      1  C   THR B   3       8.588 -21.683  12.707  1.00 20.25 LIG 0.24  C 
ATOM      2 O    THR B   3       9.323 -21.295  13.630  1.00 21.22 LIG-0.27  OA
ATOM      3  N   LYS B   4       8.410 -20.992  11.592  1.00 19.99 LIG-0.35  N 
ATOM      4 H    LYS B   4       8.025 -21.305  10.891  1.00 19.99 LIG 0.16  HD
ENDROOT
BRANCH 1 5
ATOM      5  CA  THR B   3       7.823 -23.008  12.768  1.00 18.41 LIG 0.20  C 
BRANCH 5 6
ATOM      6  CB  THR B   3       8.575 -23.935  13.741  1.00 21.88 LIG 0.15  C 
ATOM      7  CG2 THR B   3       8.271 -23.573  15.197  1.00 22.89 LIG 0.04  C 
BRANCH 6 8
ATOM      8 OG1  THR B   3       8.209 -25.292  13.480  1.00 27.36 LIG-0.39  OA
ATOM      9 HG1  THR B   3       7.426 -25.318  13.177  1.00 27.36 LIG 0.21  HD
ENDBRANCH 6 8
ENDBRANCH 5 6
BRANCH 5 10
ATOM     10  N   THR B   3       7.629 -23.610  11.459  1.00 19.27 LIG-0.34  N 
ATOM     11  C   ARG B   2       8.644 -24.119  10.768  1.00 14.36 LIG 0.24  C 
ATOM     12 O    ARG B   2       9.819 -24.026  11.110  1.00 14.31 LIG-0.27  OA
ATOM     13 H    THR B   3       6.815 -23.604  11.183  1.00 19.27 LIG 0.16  HD
BRANCH 11 14
ATOM     14  CA  ARG B   2       8.266 -24.916   9.544  1.00 14.00 LIG 0.18  C 
BRANCH 14 15
ATOM     15  N   ARG B   2       9.416 -25.467   8.839  1.00 14.23 LIG-0.35  N 
ATOM     16 H    ARG B   2      10.133 -25.471   9.313  1.00 14.23 LIG 0.16  HD
ATOM     17  C   ALA B   1       9.380 -25.921   7.588  1.00 14.69 LIG 0.25  C 
ATOM     18 O    ALA B   1       8.408 -25.783   6.840  1.00 15.97 LIG-0.27  OA
BRANCH 17 19
ATOM     19  CA  ALA B   1      10.639 -26.636   7.103  1.00 13.70 LIG 0.27  C 
ATOM     20  CB  ALA B   1      11.613 -25.641   6.505  1.00 15.23 LIG 0.05  C 
BRANCH 19 21
ATOM     21  N   ALA B   1      10.283 -27.679   6.096  1.00 12.70 LIG-0.07  N 
ATOM     22 H1   ALA B   1       9.423 -27.893   6.182  1.00 12.70 LIG 0.28  HD
ATOM     23 H3   ALA B   1      10.783 -28.403   6.229  1.00 12.70 LIG 0.28  HD
ATOM     24 H2   ALA B   1      10.428 -27.364   5.278  1.00 12.70 LIG 0.28  HD
ENDBRANCH 19 21
ENDBRANCH 17 19
ENDBRANCH 14 15
BRANCH 14 25
ATOM     25  CB  ARG B   2       7.382 -26.061  10.019  1.00 15.26 LIG 0.04  C 
BRANCH 25 26
ATOM     26  CG  ARG B   2       8.052 -27.418   9.977  1.00 16.76 LIG 0.02  C 
BRANCH 26 27
ATOM     27  CD  ARG B   2       7.111 -28.442   9.347  1.00 19.38 LIG 0.14  C 
BRANCH 27 28
ATOM     28  NE  ARG B   2       6.680 -27.989   8.021  1.00 21.76 LIG-0.23  N 
ATOM     29 HE   ARG B   2       6.455 -27.163   7.938  1.00 21.76 LIG 0.18  HD
ATOM     30  CZ  ARG B   2       6.611 -28.753   6.938  1.00 17.86 LIG 0.67  C 
ATOM     31  NH2 ARG B   2       6.222 -28.218   5.784  1.00 21.34 LIG-0.23  N 
ATOM     32  NH1 ARG B   2       6.910 -30.048   7.005  1.00 18.80 LIG-0.23  N 
ATOM     33 2HH2 ARG B   2       6.174 -28.706   5.078  1.00 21.34 LIG 0.17  HD
ATOM     34 1HH2 ARG B   2       6.017 -27.383   5.745  1.00 21.34 LIG 0.17  HD
ATOM     35 2HH1 ARG B   2       6.863 -30.538   6.300  1.00 18.80 LIG 0.17  HD
ATOM     36 1HH1 ARG B   2       7.149 -30.396   7.754  1.00 18.80 LIG 0.17  HD
ENDBRANCH 27 28
ENDBRANCH 26 27
ENDBRANCH 25 26
ENDBRANCH 14 25
ENDBRANCH 11 14
ENDBRANCH 5 10
ENDBRANCH 1 5
BRANCH 3 37
ATOM     37  CA  LYS B   4       8.859 -19.625  11.462  1.00 20.35 LIG 0.18  C 
BRANCH 37 38
ATOM     38  CB  LYS B   4       8.655 -19.105  10.035  1.00 22.30 LIG 0.04  C 
BRANCH 38 39
ATOM     39  CG  LYS B   4       9.824 -18.350   9.436  1.00 24.16 LIG 0.00  C 
BRANCH 39 40
ATOM     40  CD  LYS B   4       9.436 -16.911   9.129  1.00 24.93 LIG 0.03  C 
BRANCH 40 41
ATOM     41  CE  LYS B   4       8.034 -16.815   8.558  1.00 25.90 LIG 0.23  C 
BRANCH 41 42
ATOM     42  NZ  LYS B   4       7.712 -15.427   8.126  1.00 28.03 LIG-0.08  N 
ATOM     43 HZ3  LYS B   4       6.953 -15.429   7.661  1.00 28.03 LIG 0.27  HD
ATOM     44 HZ1  LYS B   4       7.619 -14.906   8.842  1.00 28.03 LIG 0.27  HD
ATOM     45 HZ2  LYS B   4       8.370 -15.114   7.616  1.00 28.03 LIG 0.27  HD
ENDBRANCH 41 42
ENDBRANCH 40 41
ENDBRANCH 39 40
ENDBRANCH 38 39
ENDBRANCH 37 38
BRANCH 37 46
ATOM     46  C   LYS B   4       8.061 -18.790  12.460  1.00 21.64 LIG 0.24  C 
ATOM     47 O    LYS B   4       6.910 -18.409  12.194  1.00 22.31 LIG-0.27  OA
ATOM     48  N   GLN B   5       8.672 -18.521  13.608  1.00 26.13 LIG-0.35  N 
ATOM     49 H    GLN B   5       9.471 -18.779  13.793  1.00 26.13 LIG 0.16  HD
BRANCH 48 50
ATOM     50  CA  GLN B   5       8.037 -17.758  14.662  1.00 25.39 LIG 0.18  C 
BRANCH 50 51
ATOM     51  CB  GLN B   5       8.555 -18.225  16.027  1.00 28.67 LIG 0.04  C 
BRANCH 51 52
ATOM     52  CG  GLN B   5       8.855 -19.710  16.075  1.00 31.68 LIG 0.10  C 
BRANCH 52 53
ATOM     53  CD  GLN B   5       9.575 -20.135  17.337  1.00 33.20 LIG 0.21  C 
ATOM     54 OE1  GLN B   5      10.779 -20.415  17.313  1.00 36.95 LIG-0.27  OA
ATOM     55  NE2 GLN B   5       8.845 -20.198  18.448  1.00 36.99 LIG-0.37  N 
ATOM     56 22HE GLN B   5       9.208 -20.441  19.188  1.00 36.99 LIG 0.16  HD
ATOM     57 21HE GLN B   5       8.009 -19.996  18.425  1.00 36.99 LIG 0.16  HD
ENDBRANCH 52 53
ENDBRANCH 51 52
ENDBRANCH 50 51
BRANCH 50 58
ATOM     58  C   GLN B   5       8.372 -16.295  14.464  1.00 30.80 LIG 0.24  C 
ATOM     59  N   THR B   6       7.554 -15.610  13.667  1.00 32.96 LIG-0.34  N 
ATOM     60 H    THR B   6       6.909 -15.967  13.225  1.00 32.96 LIG 0.16  HD
ATOM     61 O    GLN B   5       9.357 -15.800  15.021  1.00 36.06 LIG-0.27  OA
BRANCH 59 62
ATOM     62  CA  THR B   6       7.688 -14.165  13.473  1.00 38.52 LIG 0.19  C 
BRANCH 62 63
ATOM     63  CB  THR B   6       6.750 -13.668  12.369  1.00 33.66 LIG 0.14  C 
ATOM     64  CG2 THR B   6       7.358 -13.967  11.023  1.00 38.34 LIG 0.04  C 
BRANCH 63 65
ATOM     65 OG1  THR B   6       5.489 -14.347  12.473  1.00 35.05 LIG-0.39  OA
ATOM     66 HG1  THR B   6       5.570 -15.013  12.979  1.00 35.05 LIG 0.21  HD
ENDBRANCH 63 65
ENDBRANCH 62 63
BRANCH 62 67
ATOM     67  C   THR B   6       7.420 -13.380  14.755  1.00 43.93 LIG 0.22  C 
ATOM     68 O    THR B   6       6.952 -13.933  15.753  1.00 48.58 LIG-0.29  OA
ENDBRANCH 62 67
ENDBRANCH 59 62
ENDBRANCH 50 58
ENDBRANCH 48 50
ENDBRANCH 37 46
ENDBRANCH 3 37
TORSDOF 28
ENDMDL
MODEL 6
USER: ADFR SOLUTION from run 104
USER: SCORE 20.906748 LL:  -2.989 LR: -19.409 RR:   0.000 FEB: -11.056
USER: RMSD 11.859509
USER: SEED 103
USER: STATUS no improvement in best in 2 clusters for 5 generations
USER: GENES 30
USER: genes 0 Translation |==|  0.51101 0.54142 0.53613
USER: genes 1 Rotation |==|  0.01627 0.46890 0.37829 0.51484
USER: genes 2 Torsion [N]-C--CA-[N] |==|  0.42153
USER: genes 3 Torsion [C]-CA--CB-[CG2] |==|  0.47469
USER: genes 4 Torsion [CA]-CB--OG1-[HG1] |==|  0.51400
USER: genes 5 Torsion [C]-CA--N-[C] |==|  0.82167
USER: genes 6 Torsion [N]-C--CA-[N] |==|  0.18543
USER: genes 7 Torsion [C]-CA--N-[C] |==|  0.78195
USER: genes 8 Torsion [N]-C--CA-[N] |==|  0.61096
USER: genes 9 Torsion [C]-CA--N-[H1] |==|  0.61993
USER: genes 10 Torsion [C]-CA--CB-[CG] |==|  0.16932
USER: genes 11 Torsion [CA]-CB--CG-[CD] |==|  0.39729
USER: genes 12 Torsion [CB]-CG--CD-[NE] |==|  0.39105
USER: genes 13 Torsion [CG]-CD--NE-[HE] |==|  0.81859
USER: genes 14 Torsion [C]-N--CA-[CB] |==|  0.24741
USER: genes 15 Torsion [N]-CA--CB-[CG] |==|  0.19322
USER: genes 16 Torsion [CA]-CB--CG-[CD] |==|  0.73419
USER: genes 17 Torsion [CB]-CG--CD-[CE] |==|  0.51103
USER: genes 18 Torsion [CG]-CD--CE-[NZ] |==|  0.25866
USER: genes 19 Torsion [CD]-CE--NZ-[HZ3] |==|  0.70577
USER: genes 20 Torsion [N]-CA--C-[N] |==|  0.33371
USER: genes 21 Torsion [C]-N--CA-[C] |==|  0.86086
USER: genes 22 Torsion [N]-CA--CB-[CG] |==|  0.79440
USER: genes 23 Torsion [CA]-CB--CG-[CD] |==|  0.79997
USER: genes 24 Torsion [CB]-CG--CD-[OE1] |==|  0.42513
USER: genes 25 Torsion [N]-CA--C-[N] |==|  0.35582
USER: genes 26 Torsion [C]-N--CA-[C] |==|  0.09563
USER: genes 27 Torsion [N]-CA--CB-[CG2] |==|  0.17788
USER: genes 28 Torsion [CA]-CB--OG1-[HG1] |==|  0.62071
USER: genes 29 Torsion [N]-CA--C-[O] |==|  0.15645
ROOT
ATOM      1  C   THR B   3       8.966 -20.697  11.037  1.00 20.25 LIG 0.24  C 
ATOM      2 O    THR B   3      10.018 -20.542  11.677  1.00 21.22 LIG-0.27  OA
ATOM      3  N   LYS B   4       8.480 -21.889  10.732  1.00 19.99 LIG-0.35  N 
ATOM      4 H    LYS B   4       7.689 -22.018  10.418  1.00 19.99 LIG 0.16  HD
ENDROOT
BRANCH 1 5
ATOM      5  CA  THR B   3       8.122 -19.516  10.546  1.00 18.41 LIG 0.20  C 
BRANCH 5 6
ATOM      6  CB  THR B   3       8.503 -19.250   9.078  1.00 21.88 LIG 0.15  C 
ATOM      7  CG2 THR B   3       7.555 -18.236   8.434  1.00 22.89 LIG 0.04  C 
BRANCH 6 8
ATOM      8 OG1  THR B   3       9.851 -18.778   9.018  1.00 27.36 LIG-0.39  OA
ATOM      9 HG1  THR B   3      10.039 -18.567   8.226  1.00 27.36 LIG 0.21  HD
ENDBRANCH 6 8
ENDBRANCH 5 6
BRANCH 5 10
ATOM     10  N   THR B   3       8.262 -18.335  11.383  1.00 19.27 LIG-0.34  N 
ATOM     11  C   ARG B   2       7.865 -18.328  12.652  1.00 14.36 LIG 0.24  C 
ATOM     12 O    ARG B   2       7.256 -19.252  13.183  1.00 14.31 LIG-0.27  OA
ATOM     13 H    THR B   3       8.617 -17.660  10.988  1.00 19.27 LIG 0.16  HD
BRANCH 11 14
ATOM     14  CA  ARG B   2       8.284 -17.125  13.461  1.00 14.00 LIG 0.18  C 
BRANCH 14 15
ATOM     15  N   ARG B   2       7.655 -15.888  13.019  1.00 14.23 LIG-0.35  N 
ATOM     16 H    ARG B   2       6.998 -15.646  13.518  1.00 14.23 LIG 0.16  HD
ATOM     17  C   ALA B   1       8.043 -15.190  11.953  1.00 14.69 LIG 0.25  C 
ATOM     18 O    ALA B   1       8.877 -15.595  11.139  1.00 15.97 LIG-0.27  OA
BRANCH 17 19
ATOM     19  CA  ALA B   1       7.383 -13.824  11.776  1.00 13.70 LIG 0.27  C 
ATOM     20  CB  ALA B   1       6.115 -13.742  12.600  1.00 15.23 LIG 0.05  C 
BRANCH 19 21
ATOM     21  N   ALA B   1       7.080 -13.583  10.334  1.00 12.70 LIG-0.07  N 
ATOM     22 H1   ALA B   1       7.300 -12.748  10.120  1.00 12.70 LIG 0.28  HD
ATOM     23 H3   ALA B   1       6.211 -13.708  10.189  1.00 12.70 LIG 0.28  HD
ATOM     24 H2   ALA B   1       7.548 -14.150   9.834  1.00 12.70 LIG 0.28  HD
ENDBRANCH 19 21
ENDBRANCH 17 19
ENDBRANCH 14 15
BRANCH 14 25
ATOM     25  CB  ARG B   2       7.877 -17.401  14.901  1.00 15.26 LIG 0.04  C 
BRANCH 25 26
ATOM     26  CG  ARG B   2       8.538 -18.622  15.508  1.00 16.76 LIG 0.02  C 
BRANCH 26 27
ATOM     27  CD  ARG B   2       8.858 -18.362  16.978  1.00 19.38 LIG 0.14  C 
BRANCH 27 28
ATOM     28  NE  ARG B   2       8.598 -19.565  17.775  1.00 21.76 LIG-0.23  N 
ATOM     29 HE   ARG B   2       7.782 -19.834  17.832  1.00 21.76 LIG 0.18  HD
ATOM     30  CZ  ARG B   2       9.521 -20.271  18.416  1.00 17.86 LIG 0.67  C 
ATOM     31  NH2 ARG B   2       9.159 -21.358  19.092  1.00 21.34 LIG-0.23  N 
ATOM     32  NH1 ARG B   2      10.795 -19.888  18.400  1.00 18.80 LIG-0.23  N 
ATOM     33 2HH2 ARG B   2       9.751 -21.822  19.510  1.00 21.34 LIG 0.17  HD
ATOM     34 1HH2 ARG B   2       8.333 -21.598  19.111  1.00 21.34 LIG 0.17  HD
ATOM     35 2HH1 ARG B   2      11.388 -20.350  18.818  1.00 18.80 LIG 0.17  HD
ATOM     36 1HH1 ARG B   2      11.025 -19.179  17.973  1.00 18.80 LIG 0.17  HD
ENDBRANCH 27 28
ENDBRANCH 26 27
ENDBRANCH 25 26
ENDBRANCH 14 25
ENDBRANCH 11 14
ENDBRANCH 5 10
ENDBRANCH 1 5
BRANCH 3 37
ATOM     37  CA  LYS B   4       9.255 -23.096  10.904  1.00 20.35 LIG 0.18  C 
BRANCH 37 38
ATOM     38  CB  LYS B   4       9.067 -23.683  12.306  1.00 22.30 LIG 0.04  C 
BRANCH 38 39
ATOM     39  CG  LYS B   4       7.702 -24.274  12.596  1.00 24.16 LIG 0.00  C 
BRANCH 39 40
ATOM     40  CD  LYS B   4       6.812 -23.258  13.297  1.00 24.93 LIG 0.03  C 
BRANCH 40 41
ATOM     41  CE  LYS B   4       5.473 -23.855  13.685  1.00 25.90 LIG 0.23  C 
BRANCH 41 42
ATOM     42  NZ  LYS B   4       5.492 -24.388  15.076  1.00 28.03 LIG-0.08  N 
ATOM     43 HZ3  LYS B   4       5.516 -25.277  15.052  1.00 28.03 LIG 0.27  HD
ATOM     44 HZ1  LYS B   4       6.213 -24.083  15.501  1.00 28.03 LIG 0.27  HD
ATOM     45 HZ2  LYS B   4       4.760 -24.122  15.506  1.00 28.03 LIG 0.27  HD
ENDBRANCH 41 42
ENDBRANCH 40 41
ENDBRANCH 39 40
ENDBRANCH 38 39
ENDBRANCH 37 38
BRANCH 37 46
ATOM     46  C   LYS B   4       8.793 -24.085   9.837  1.00 21.64 LIG 0.24  C 
ATOM     47 O    LYS B   4       7.610 -24.457   9.783  1.00 22.31 LIG-0.27  OA
ATOM     48  N   GLN B   5       9.727 -24.498   8.989  1.00 26.13 LIG-0.35  N 
ATOM     49 H    GLN B   5      10.549 -24.247   9.026  1.00 26.13 LIG 0.16  HD
BRANCH 48 50
ATOM     50  CA  GLN B   5       9.440 -25.420   7.909  1.00 25.39 LIG 0.18  C 
BRANCH 50 51
ATOM     51  CB  GLN B   5      10.747 -25.895   7.268  1.00 28.67 LIG 0.04  C 
BRANCH 51 52
ATOM     52  CG  GLN B   5      11.405 -24.838   6.402  1.00 31.68 LIG 0.10  C 
BRANCH 52 53
ATOM     53  CD  GLN B   5      10.672 -24.588   5.101  1.00 33.20 LIG 0.21  C 
ATOM     54 OE1  GLN B   5      10.748 -23.491   4.536  1.00 36.95 LIG-0.27  OA
ATOM     55  NE2 GLN B   5       9.949 -25.596   4.621  1.00 36.99 LIG-0.37  N 
ATOM     56 22HE GLN B   5       9.509 -25.499   3.889  1.00 36.99 LIG 0.16  HD
ATOM     57 21HE GLN B   5       9.921 -26.345   5.044  1.00 36.99 LIG 0.16  HD
ENDBRANCH 52 53
ENDBRANCH 51 52
ENDBRANCH 50 51
BRANCH 50 58
ATOM     58  C   GLN B   5       8.691 -26.607   8.479  1.00 30.80 LIG 0.24  C 
ATOM     59  N   THR B   6       7.553 -26.928   7.869  1.00 32.96 LIG-0.34  N 
ATOM     60 H    THR B   6       7.205 -26.466   7.232  1.00 32.96 LIG 0.16  HD
ATOM     61 O    GLN B   5       9.138 -27.214   9.457  1.00 36.06 LIG-0.27  OA
BRANCH 59 62
ATOM     62  CA  THR B   6       6.781 -28.117   8.238  1.00 38.52 LIG 0.19  C 
BRANCH 62 63
ATOM     63  CB  THR B   6       7.249 -29.344   7.450  1.00 33.66 LIG 0.14  C 
ATOM     64  CG2 THR B   6       8.676 -29.661   7.818  1.00 38.34 LIG 0.04  C 
BRANCH 63 65
ATOM     65 OG1  THR B   6       6.420 -30.469   7.780  1.00 35.05 LIG-0.39  OA
ATOM     66 HG1  THR B   6       6.901 -31.149   7.890  1.00 35.05 LIG 0.21  HD
ENDBRANCH 63 65
ENDBRANCH 62 63
BRANCH 62 67
ATOM     67  C   THR B   6       6.860 -28.418   9.734  1.00 43.93 LIG 0.22  C 
ATOM     68 O    THR B   6       6.530 -27.573  10.570  1.00 48.58 LIG-0.29  OA
ENDBRANCH 62 67
ENDBRANCH 59 62
ENDBRANCH 50 58
ENDBRANCH 48 50
ENDBRANCH 37 46
ENDBRANCH 3 37
TORSDOF 28
ENDMDL
MODEL 7
USER: ADFR SOLUTION from run 52
USER: SCORE 21.987180 LL:  -4.353 LR: -19.306 RR:   0.000 FEB: -10.954
USER: RMSD 3.934075
USER: SEED 51
USER: STATUS searching
USER: GENES 30
USER: genes 0 Translation |==|  0.48276 0.48384 0.58865
USER: genes 1 Rotation |==|  0.35268 0.28591 0.48380 0.92685
USER: genes 2 Torsion [N]-C--CA-[N] |==|  0.22217
USER: genes 3 Torsion [C]-CA--CB-[CG2] |==|  0.39907
USER: genes 4 Torsion [CA]-CB--OG1-[HG1] |==|  0.21870
USER: genes 5 Torsion [C]-CA--N-[C] |==|  0.81665
USER: genes 6 Torsion [N]-C--CA-[N] |==|  0.33416
USER: genes 7 Torsion [C]-CA--N-[C] |==|  0.69510
USER: genes 8 Torsion [N]-C--CA-[N] |==|  0.08468
USER: genes 9 Torsion [C]-CA--N-[H1] |==|  0.95039
USER: genes 10 Torsion [C]-CA--CB-[CG] |==|  0.54211
USER: genes 11 Torsion [CA]-CB--CG-[CD] |==|  0.40634
USER: genes 12 Torsion [CB]-CG--CD-[NE] |==|  0.68136
USER: genes 13 Torsion [CG]-CD--NE-[HE] |==|  0.89584
USER: genes 14 Torsion [C]-N--CA-[CB] |==|  0.47807
USER: genes 15 Torsion [N]-CA--CB-[CG] |==|  0.21208
USER: genes 16 Torsion [CA]-CB--CG-[CD] |==|  0.40157
USER: genes 17 Torsion [CB]-CG--CD-[CE] |==|  0.74202
USER: genes 18 Torsion [CG]-CD--CE-[NZ] |==|  0.58593
USER: genes 19 Torsion [CD]-CE--NZ-[HZ3] |==|  0.78395
USER: genes 20 Torsion [N]-CA--C-[N] |==|  0.44177
USER: genes 21 Torsion [C]-N--CA-[C] |==|  0.15585
USER: genes 22 Torsion [N]-CA--CB-[CG] |==|  0.70315
USER: genes 23 Torsion [CA]-CB--CG-[CD] |==|  0.44945
USER: genes 24 Torsion [CB]-CG--CD-[OE1] |==|  0.65552
USER: genes 25 Torsion [N]-CA--C-[N] |==|  0.09499
USER: genes 26 Torsion [C]-N--CA-[C] |==|  0.84484
USER: genes 27 Torsion [N]-CA--CB-[CG2] |==|  0.68671
USER: genes 28 Torsion [CA]-CB--OG1-[HG1] |==|  0.70293
USER: genes 29 Torsion [N]-CA--C-[O] |==|  0.83600
ROOT
ATOM      1  C   THR B   3       8.499 -22.294  12.219  1.00 20.25 LIG 0.24  C 
ATOM      2 O    THR B   3       9.315 -22.105  13.136  1.00 21.22 LIG-0.27  OA
ATOM      3  N   LYS B   4       8.451 -21.538  11.133  1.00 19.99 LIG-0.35  N 
ATOM      4 H    LYS B   4       7.996 -21.737  10.431  1.00 19.99 LIG 0.16  HD
ENDROOT
BRANCH 1 5
ATOM      5  CA  THR B   3       7.475 -23.433  12.253  1.00 18.41 LIG 0.20  C 
BRANCH 5 6
ATOM      6  CB  THR B   3       7.223 -23.786  13.730  1.00 21.88 LIG 0.15  C 
ATOM      7  CG2 THR B   3       5.758 -24.160  13.968  1.00 22.89 LIG 0.04  C 
BRANCH 6 8
ATOM      8 OG1  THR B   3       8.078 -24.867  14.111  1.00 27.36 LIG-0.39  OA
ATOM      9 HG1  THR B   3       8.852 -24.573  14.258  1.00 27.36 LIG 0.21  HD
ENDBRANCH 6 8
ENDBRANCH 5 6
BRANCH 5 10
ATOM     10  N   THR B   3       7.882 -24.583  11.464  1.00 19.27 LIG-0.34  N 
ATOM     11  C   ARG B   2       7.994 -24.518  10.141  1.00 14.36 LIG 0.24  C 
ATOM     12 O    ARG B   2       7.659 -23.543   9.474  1.00 14.31 LIG-0.27  OA
ATOM     13 H    THR B   3       8.040 -25.292  11.924  1.00 19.27 LIG 0.16  HD
BRANCH 11 14
ATOM     14  CA  ARG B   2       8.648 -25.707   9.480  1.00 14.00 LIG 0.18  C 
BRANCH 14 15
ATOM     15  N   ARG B   2       7.786 -26.374   8.513  1.00 14.23 LIG-0.35  N 
ATOM     16 H    ARG B   2       7.653 -25.909   7.802  1.00 14.23 LIG 0.16  HD
ATOM     17  C   ALA B   1       7.250 -27.579   8.695  1.00 14.69 LIG 0.25  C 
ATOM     18 O    ALA B   1       7.301 -28.194   9.764  1.00 15.97 LIG-0.27  OA
BRANCH 17 19
ATOM     19  CA  ALA B   1       6.542 -28.181   7.484  1.00 13.70 LIG 0.27  C 
ATOM     20  CB  ALA B   1       6.582 -29.694   7.550  1.00 15.23 LIG 0.05  C 
BRANCH 19 21
ATOM     21  N   ALA B   1       7.183 -27.702   6.223  1.00 12.70 LIG-0.07  N 
ATOM     22 H1   ALA B   1       7.669 -26.977   6.394  1.00 12.70 LIG 0.28  HD
ATOM     23 H3   ALA B   1       6.553 -27.503   5.627  1.00 12.70 LIG 0.28  HD
ATOM     24 H2   ALA B   1       7.709 -28.340   5.896  1.00 12.70 LIG 0.28  HD
ENDBRANCH 19 21
ENDBRANCH 17 19
ENDBRANCH 14 15
BRANCH 14 25
ATOM     25  CB  ARG B   2       9.886 -25.185   8.764  1.00 15.26 LIG 0.04  C 
BRANCH 25 26
ATOM     26  CG  ARG B   2      10.469 -26.151   7.755  1.00 16.76 LIG 0.02  C 
BRANCH 26 27
ATOM     27  CD  ARG B   2      11.065 -25.378   6.581  1.00 19.38 LIG 0.14  C 
BRANCH 27 28
ATOM     28  NE  ARG B   2      10.319 -25.664   5.352  1.00 21.76 LIG-0.23  N 
ATOM     29 HE   ARG B   2      10.035 -26.468   5.238  1.00 21.76 LIG 0.18  HD
ATOM     30  CZ  ARG B   2      10.045 -24.779   4.400  1.00 17.86 LIG 0.67  C 
ATOM     31  NH2 ARG B   2       9.340 -25.158   3.339  1.00 21.34 LIG-0.23  N 
ATOM     32  NH1 ARG B   2      10.487 -23.528   4.496  1.00 18.80 LIG-0.23  N 
ATOM     33 2HH2 ARG B   2       9.159 -24.591   2.718  1.00 21.34 LIG 0.17  HD
ATOM     34 1HH2 ARG B   2       9.066 -25.971   3.272  1.00 21.34 LIG 0.17  HD
ATOM     35 2HH1 ARG B   2      10.307 -22.959   3.876  1.00 18.80 LIG 0.17  HD
ATOM     36 1HH1 ARG B   2      10.953 -23.287   5.177  1.00 18.80 LIG 0.17  HD
ENDBRANCH 27 28
ENDBRANCH 26 27
ENDBRANCH 25 26
ENDBRANCH 14 25
ENDBRANCH 11 14
ENDBRANCH 5 10
ENDBRANCH 1 5
BRANCH 3 37
ATOM     37  CA  LYS B   4       9.173 -20.291  11.039  1.00 20.35 LIG 0.18  C 
BRANCH 37 38
ATOM     38  CB  LYS B   4       9.105 -19.714   9.621  1.00 22.30 LIG 0.04  C 
BRANCH 38 39
ATOM     39  CG  LYS B   4       7.795 -19.054   9.240  1.00 24.16 LIG 0.00  C 
BRANCH 39 40
ATOM     40  CD  LYS B   4       8.038 -17.856   8.335  1.00 24.93 LIG 0.03  C 
BRANCH 40 41
ATOM     41  CE  LYS B   4       8.150 -16.566   9.125  1.00 25.90 LIG 0.23  C 
BRANCH 41 42
ATOM     42  NZ  LYS B   4       7.656 -15.399   8.342  1.00 28.03 LIG-0.08  N 
ATOM     43 HZ3  LYS B   4       8.275 -15.156   7.751  1.00 28.03 LIG 0.27  HD
ATOM     44 HZ1  LYS B   4       6.909 -15.623   7.914  1.00 28.03 LIG 0.27  HD
ATOM     45 HZ2  LYS B   4       7.491 -14.721   8.893  1.00 28.03 LIG 0.27  HD
ENDBRANCH 41 42
ENDBRANCH 40 41
ENDBRANCH 39 40
ENDBRANCH 38 39
ENDBRANCH 37 38
BRANCH 37 46
ATOM     46  C   LYS B   4       8.546 -19.329  12.045  1.00 21.64 LIG 0.24  C 
ATOM     47 O    LYS B   4       7.398 -19.518  12.475  1.00 22.31 LIG-0.27  OA
ATOM     48  N   GLN B   5       9.308 -18.309  12.421  1.00 26.13 LIG-0.35  N 
ATOM     49 H    GLN B   5      10.102 -18.172  12.121  1.00 26.13 LIG 0.16  HD
BRANCH 48 50
ATOM     50  CA  GLN B   5       8.862 -17.324  13.384  1.00 25.39 LIG 0.18  C 
BRANCH 50 51
ATOM     51  CB  GLN B   5       7.659 -16.557  12.826  1.00 28.67 LIG 0.04  C 
BRANCH 51 52
ATOM     52  CG  GLN B   5       7.997 -15.139  12.409  1.00 31.68 LIG 0.10  C 
BRANCH 52 53
ATOM     53  CD  GLN B   5       6.971 -14.529  11.476  1.00 33.20 LIG 0.21  C 
ATOM     54 OE1  GLN B   5       7.309 -14.083  10.373  1.00 36.95 LIG-0.27  OA
ATOM     55  NE2 GLN B   5       5.715 -14.494  11.912  1.00 36.99 LIG-0.37  N 
ATOM     56 22HE GLN B   5       5.098 -14.151  11.421  1.00 36.99 LIG 0.16  HD
ATOM     57 21HE GLN B   5       5.519 -14.814  12.686  1.00 36.99 LIG 0.16  HD
ENDBRANCH 52 53
ENDBRANCH 51 52
ENDBRANCH 50 51
BRANCH 50 58
ATOM     58  C   GLN B   5       8.463 -18.042  14.656  1.00 30.80 LIG 0.24  C 
ATOM     59  N   THR B   6       9.170 -19.127  14.963  1.00 32.96 LIG-0.34  N 
ATOM     60 H    THR B   6       9.777 -19.461  14.453  1.00 32.96 LIG 0.16  HD
ATOM     61 O    GLN B   5       7.526 -17.620  15.342  1.00 36.06 LIG-0.27  OA
BRANCH 59 62
ATOM     62  CA  THR B   6       8.971 -19.856  16.217  1.00 38.52 LIG 0.19  C 
BRANCH 62 63
ATOM     63  CB  THR B   6       9.938 -21.039  16.325  1.00 33.66 LIG 0.14  C 
ATOM     64  CG2 THR B   6       9.160 -22.328  16.262  1.00 38.34 LIG 0.04  C 
BRANCH 63 65
ATOM     65 OG1  THR B   6      10.866 -21.000  15.231  1.00 35.05 LIG-0.39  OA
ATOM     66 HG1  THR B   6      10.677 -21.607  14.681  1.00 35.05 LIG 0.21  HD
ENDBRANCH 63 65
ENDBRANCH 62 63
BRANCH 62 67
ATOM     67  C   THR B   6       9.132 -18.959  17.442  1.00 43.93 LIG 0.22  C 
ATOM     68 O    THR B   6      10.188 -18.356  17.654  1.00 48.58 LIG-0.29  OA
ENDBRANCH 62 67
ENDBRANCH 59 62
ENDBRANCH 50 58
ENDBRANCH 48 50
ENDBRANCH 37 46
ENDBRANCH 3 37
TORSDOF 28
ENDMDL
MODEL 8
USER: ADFR SOLUTION from run 100
USER: SCORE 21.400739 LL:  -3.516 LR: -19.168 RR:   0.000 FEB: -10.816
USER: RMSD 11.941567
USER: SEED 99
USER: STATUS no improvement in best in 2 clusters for 5 generations
USER: GENES 30
USER: genes 0 Translation |==|  0.46293 0.42526 0.51193
USER: genes 1 Rotation |==|  0.24904 0.45332 0.91907 0.59604
USER: genes 2 Torsion [N]-C--CA-[N] |==|  0.52207
USER: genes 3 Torsion [C]-CA--CB-[CG2] |==|  0.86623
USER: genes 4 Torsion [CA]-CB--OG1-[HG1] |==|  0.30818
USER: genes 5 Torsion [C]-CA--N-[C] |==|  0.78054
USER: genes 6 Torsion [N]-C--CA-[N] |==|  0.22633
USER: genes 7 Torsion [C]-CA--N-[C] |==|  0.76966
USER: genes 8 Torsion [N]-C--CA-[N] |==|  0.25977
USER: genes 9 Torsion [C]-CA--N-[H1] |==|  0.02059
USER: genes 10 Torsion [C]-CA--CB-[CG] |==|  0.76935
USER: genes 11 Torsion [CA]-CB--CG-[CD] |==|  0.54235
USER: genes 12 Torsion [CB]-CG--CD-[NE] |==|  0.15733
USER: genes 13 Torsion [CG]-CD--NE-[HE] |==|  0.09538
USER: genes 14 Torsion [C]-N--CA-[CB] |==|  0.17224
USER: genes 15 Torsion [N]-CA--CB-[CG] |==|  0.42444
USER: genes 16 Torsion [CA]-CB--CG-[CD] |==|  0.16151
USER: genes 17 Torsion [CB]-CG--CD-[CE] |==|  0.64398
USER: genes 18 Torsion [CG]-CD--CE-[NZ] |==|  0.85734
USER: genes 19 Torsion [CD]-CE--NZ-[HZ3] |==|  0.67919
USER: genes 20 Torsion [N]-CA--C-[N] |==|  0.83166
USER: genes 21 Torsion [C]-N--CA-[C] |==|  0.82350
USER: genes 22 Torsion [N]-CA--CB-[CG] |==|  0.56490
USER: genes 23 Torsion [CA]-CB--CG-[CD] |==|  0.04766
USER: genes 24 Torsion [CB]-CG--CD-[OE1] |==|  0.66203
USER: genes 25 Torsion [N]-CA--C-[N] |==|  0.38708
USER: genes 26 Torsion [C]-N--CA-[C] |==|  0.83212
USER: genes 27 Torsion [N]-CA--CB-[CG2] |==|  0.22539
USER: genes 28 Torsion [CA]-CB--OG1-[HG1] |==|  0.28947
USER: genes 29 Torsion [N]-CA--C-[O] |==|  0.95462
ROOT
ATOM      1  C   THR B   3       8.172 -23.920  10.492  1.00 20.25 LIG 0.24  C 
ATOM      2 O    THR B   3       7.706 -23.380   9.476  1.00 21.22 LIG-0.27  OA
ATOM      3  N   LYS B   4       8.265 -25.233  10.630  1.00 19.99 LIG-0.35  N 
ATOM      4 H    LYS B   4       8.711 -25.619  11.257  1.00 19.99 LIG 0.16  HD
ENDROOT
BRANCH 1 5
ATOM      5  CA  THR B   3       8.696 -23.112  11.684  1.00 18.41 LIG 0.20  C 
BRANCH 5 6
ATOM      6  CB  THR B   3       8.108 -23.737  12.963  1.00 21.88 LIG 0.15  C 
ATOM      7  CG2 THR B   3       6.601 -23.964  12.827  1.00 22.89 LIG 0.04  C 
BRANCH 6 8
ATOM      8 OG1  THR B   3       8.774 -24.973  13.234  1.00 27.36 LIG-0.39  OA
ATOM      9 HG1  THR B   3       9.246 -24.892  13.924  1.00 27.36 LIG 0.21  HD
ENDBRANCH 6 8
ENDBRANCH 5 6
BRANCH 5 10
ATOM     10  N   THR B   3       8.409 -21.691  11.573  1.00 19.27 LIG-0.34  N 
ATOM     11  C   ARG B   2       9.138 -20.890  10.803  1.00 14.36 LIG 0.24  C 
ATOM     12 O    ARG B   2      10.162 -21.244  10.224  1.00 14.31 LIG-0.27  OA
ATOM     13 H    THR B   3       7.739 -21.426  12.041  1.00 19.27 LIG 0.16  HD
BRANCH 11 14
ATOM     14  CA  ARG B   2       8.588 -19.500  10.598  1.00 14.00 LIG 0.18  C 
BRANCH 14 15
ATOM     15  N   ARG B   2       8.887 -18.596  11.701  1.00 14.23 LIG-0.35  N 
ATOM     16 H    ARG B   2       9.576 -18.103  11.557  1.00 14.23 LIG 0.16  HD
ATOM     17  C   ALA B   1       8.177 -18.527  12.826  1.00 14.69 LIG 0.25  C 
ATOM     18 O    ALA B   1       7.284 -19.327  13.119  1.00 15.97 LIG-0.27  OA
BRANCH 17 19
ATOM     19  CA  ALA B   1       8.535 -17.381  13.769  1.00 13.70 LIG 0.27  C 
ATOM     20  CB  ALA B   1       8.393 -17.823  15.211  1.00 15.23 LIG 0.05  C 
BRANCH 19 21
ATOM     21  N   ALA B   1       7.659 -16.202  13.500  1.00 12.70 LIG-0.07  N 
ATOM     22 H1   ALA B   1       7.026 -16.429  12.917  1.00 12.70 LIG 0.28  HD
ATOM     23 H3   ALA B   1       8.148 -15.539  13.164  1.00 12.70 LIG 0.28  HD
ATOM     24 H2   ALA B   1       7.279 -15.935  14.259  1.00 12.70 LIG 0.28  HD
ENDBRANCH 19 21
ENDBRANCH 17 19
ENDBRANCH 14 15
BRANCH 14 25
ATOM     25  CB  ARG B   2       9.224 -18.958   9.326  1.00 15.26 LIG 0.04  C 
BRANCH 25 26
ATOM     26  CG  ARG B   2      10.602 -18.363   9.530  1.00 16.76 LIG 0.02  C 
BRANCH 26 27
ATOM     27  CD  ARG B   2      10.989 -17.524   8.314  1.00 19.38 LIG 0.14  C 
BRANCH 27 28
ATOM     28  NE  ARG B   2       9.984 -16.485   8.072  1.00 21.76 LIG-0.23  N 
ATOM     29 HE   ARG B   2       9.599 -16.138   8.759  1.00 21.76 LIG 0.18  HD
ATOM     30  CZ  ARG B   2       9.620 -16.036   6.876  1.00 17.86 LIG 0.67  C 
ATOM     31  NH2 ARG B   2       8.708 -15.073   6.790  1.00 21.34 LIG-0.23  N 
ATOM     32  NH1 ARG B   2      10.148 -16.557   5.771  1.00 18.80 LIG-0.23  N 
ATOM     33 2HH2 ARG B   2       8.467 -14.777   6.019  1.00 21.34 LIG 0.17  HD
ATOM     34 1HH2 ARG B   2       8.358 -14.746   7.504  1.00 21.34 LIG 0.17  HD
ATOM     35 2HH1 ARG B   2       9.909 -16.262   5.000  1.00 18.80 LIG 0.17  HD
ATOM     36 1HH1 ARG B   2      10.729 -17.188   5.829  1.00 18.80 LIG 0.17  HD
ENDBRANCH 27 28
ENDBRANCH 26 27
ENDBRANCH 25 26
ENDBRANCH 14 25
ENDBRANCH 11 14
ENDBRANCH 5 10
ENDBRANCH 1 5
BRANCH 3 37
ATOM     37  CA  LYS B   4       7.611 -26.144   9.720  1.00 20.35 LIG 0.18  C 
BRANCH 37 38
ATOM     38  CB  LYS B   4       8.140 -25.980   8.291  1.00 22.30 LIG 0.04  C 
BRANCH 38 39
ATOM     39  CG  LYS B   4       8.053 -27.209   7.411  1.00 24.16 LIG 0.00  C 
BRANCH 39 40
ATOM     40  CD  LYS B   4       6.614 -27.690   7.296  1.00 24.93 LIG 0.03  C 
BRANCH 40 41
ATOM     41  CE  LYS B   4       6.485 -29.165   7.625  1.00 25.90 LIG 0.23  C 
BRANCH 41 42
ATOM     42  NZ  LYS B   4       7.455 -29.987   6.849  1.00 28.03 LIG-0.08  N 
ATOM     43 HZ3  LYS B   4       7.012 -30.528   6.299  1.00 28.03 LIG 0.27  HD
ATOM     44 HZ1  LYS B   4       7.985 -29.452   6.375  1.00 28.03 LIG 0.27  HD
ATOM     45 HZ2  LYS B   4       7.947 -30.472   7.409  1.00 28.03 LIG 0.27  HD
ENDBRANCH 41 42
ENDBRANCH 40 41
ENDBRANCH 39 40
ENDBRANCH 38 39
ENDBRANCH 37 38
BRANCH 37 46
ATOM     46  C   LYS B   4       7.868 -27.558  10.232  1.00 21.64 LIG 0.24  C 
ATOM     47 O    LYS B   4       6.926 -28.302  10.548  1.00 22.31 LIG-0.27  OA
ATOM     48  N   GLN B   5       9.142 -27.925  10.301  1.00 26.13 LIG-0.35  N 
ATOM     49 H    GLN B   5       9.798 -27.411  10.088  1.00 26.13 LIG 0.16  HD
BRANCH 48 50
ATOM     50  CA  GLN B   5       9.545 -29.243  10.747  1.00 25.39 LIG 0.18  C 
BRANCH 50 51
ATOM     51  CB  GLN B   5      11.066 -29.388  10.634  1.00 28.67 LIG 0.04  C 
BRANCH 51 52
ATOM     52  CG  GLN B   5      11.521 -30.831  10.528  1.00 31.68 LIG 0.10  C 
BRANCH 52 53
ATOM     53  CD  GLN B   5      10.408 -31.783  10.143  1.00 33.20 LIG 0.21  C 
ATOM     54 OE1  GLN B   5      10.110 -32.733  10.877  1.00 36.95 LIG-0.27  OA
ATOM     55  NE2 GLN B   5       9.793 -31.545   8.988  1.00 36.99 LIG-0.37  N 
ATOM     56 22HE GLN B   5       9.159 -32.063   8.724  1.00 36.99 LIG 0.16  HD
ATOM     57 21HE GLN B   5      10.030 -30.874   8.505  1.00 36.99 LIG 0.16  HD
ENDBRANCH 52 53
ENDBRANCH 51 52
ENDBRANCH 50 51
BRANCH 50 58
ATOM     58  C   GLN B   5       9.123 -29.411  12.191  1.00 30.80 LIG 0.24  C 
ATOM     59  N   THR B   6       8.626 -30.600  12.521  1.00 32.96 LIG-0.34  N 
ATOM     60 H    THR B   6       8.479 -31.230  11.955  1.00 32.96 LIG 0.16  HD
ATOM     61 O    GLN B   5       9.242 -28.474  12.988  1.00 36.06 LIG-0.27  OA
BRANCH 59 62
ATOM     62  CA  THR B   6       8.281 -30.943  13.903  1.00 38.52 LIG 0.19  C 
BRANCH 62 63
ATOM     63  CB  THR B   6       7.659 -32.339  13.986  1.00 33.66 LIG 0.14  C 
ATOM     64  CG2 THR B   6       8.753 -33.376  13.976  1.00 38.34 LIG 0.04  C 
BRANCH 63 65
ATOM     65 OG1  THR B   6       6.913 -32.459  15.207  1.00 35.05 LIG-0.39  OA
ATOM     66 HG1  THR B   6       6.092 -32.406  15.040  1.00 35.05 LIG 0.21  HD
ENDBRANCH 63 65
ENDBRANCH 62 63
BRANCH 62 67
ATOM     67  C   THR B   6       9.488 -30.871  14.836  1.00 43.93 LIG 0.22  C 
ATOM     68 O    THR B   6      10.638 -30.852  14.389  1.00 48.58 LIG-0.29  OA
ENDBRANCH 62 67
ENDBRANCH 59 62
ENDBRANCH 50 58
ENDBRANCH 48 50
ENDBRANCH 37 46
ENDBRANCH 3 37
TORSDOF 28
ENDMDL
MODEL 9
USER: ADFR SOLUTION from run 102
USER: SCORE 21.714186 LL:  -4.350 LR: -19.121 RR:   0.000 FEB: -10.768
USER: RMSD 5.898124
USER: SEED 101
USER: STATUS no improvement in best in 4 clusters for 5 generations
USER: GENES 30
USER: genes 0 Translation |==|  0.48376 0.53674 0.61612
USER: genes 1 Rotation |==|  0.52597 0.97502 0.65328 0.51378
USER: genes 2 Torsion [N]-C--CA-[N] |==|  0.44335
USER: genes 3 Torsion [C]-CA--CB-[CG2] |==|  0.84747
USER: genes 4 Torsion [CA]-CB--OG1-[HG1] |==|  0.44785
USER: genes 5 Torsion [C]-CA--N-[C] |==|  0.61000
USER: genes 6 Torsion [N]-C--CA-[N] |==|  0.89161
USER: genes 7 Torsion [C]-CA--N-[C] |==|  0.85814
USER: genes 8 Torsion [N]-C--CA-[N] |==|  0.43729
USER: genes 9 Torsion [C]-CA--N-[H1] |==|  0.68107
USER: genes 10 Torsion [C]-CA--CB-[CG] |==|  0.25906
USER: genes 11 Torsion [CA]-CB--CG-[CD] |==|  0.28897
USER: genes 12 Torsion [CB]-CG--CD-[NE] |==|  0.25284
USER: genes 13 Torsion [CG]-CD--NE-[HE] |==|  0.90062
USER: genes 14 Torsion [C]-N--CA-[CB] |==|  0.50000
USER: genes 15 Torsion [N]-CA--CB-[CG] |==|  0.54525
USER: genes 16 Torsion [CA]-CB--CG-[CD] |==|  0.09925
USER: genes 17 Torsion [CB]-CG--CD-[CE] |==|  0.28295
USER: genes 18 Torsion [CG]-CD--CE-[NZ] |==|  0.67101
USER: genes 19 Torsion [CD]-CE--NZ-[HZ3] |==|  0.39889
USER: genes 20 Torsion [N]-CA--C-[N] |==|  0.72204
USER: genes 21 Torsion [C]-N--CA-[C] |==|  0.78286
USER: genes 22 Torsion [N]-CA--CB-[CG] |==|  0.35255
USER: genes 23 Torsion [CA]-CB--CG-[CD] |==|  0.72263
USER: genes 24 Torsion [CB]-CG--CD-[OE1] |==|  0.93984
USER: genes 25 Torsion [N]-CA--C-[N] |==|  0.42803
USER: genes 26 Torsion [C]-N--CA-[C] |==|  0.18436
USER: genes 27 Torsion [N]-CA--CB-[CG2] |==|  0.44315
USER: genes 28 Torsion [CA]-CB--OG1-[HG1] |==|  0.12207
USER: genes 29 Torsion [N]-CA--C-[O] |==|  0.14519
ROOT
ATOM      1  C   THR B   3       8.516 -20.826  12.837  1.00 20.25 LIG 0.24  C 
ATOM      2 O    THR B   3       7.277 -20.740  12.841  1.00 21.22 LIG-0.27  OA
ATOM      3  N   LYS B   4       9.294 -20.037  13.560  1.00 19.99 LIG-0.35  N 
ATOM      4 H    LYS B   4      10.135 -20.172  13.680  1.00 19.99 LIG 0.16  HD
ENDROOT
BRANCH 1 5
ATOM      5  CA  THR B   3       9.263 -21.867  11.996  1.00 18.41 LIG 0.20  C 
BRANCH 5 6
ATOM      6  CB  THR B   3       9.879 -21.135  10.790  1.00 21.88 LIG 0.15  C 
ATOM      7  CG2 THR B   3       8.814 -20.363  10.008  1.00 22.89 LIG 0.04  C 
BRANCH 6 8
ATOM      8 OG1  THR B   3      10.900 -20.245  11.247  1.00 27.36 LIG-0.39  OA
ATOM      9 HG1  THR B   3      11.403 -20.042  10.606  1.00 27.36 LIG 0.21  HD
ENDBRANCH 6 8
ENDBRANCH 5 6
BRANCH 5 10
ATOM     10  N   THR B   3       8.422 -22.985  11.603  1.00 19.27 LIG-0.34  N 
ATOM     11  C   ARG B   2       8.878 -24.233  11.596  1.00 14.36 LIG 0.24  C 
ATOM     12 O    ARG B   2      10.050 -24.534  11.802  1.00 14.31 LIG-0.27  OA
ATOM     13 H    THR B   3       7.621 -22.766  11.381  1.00 19.27 LIG 0.16  HD
BRANCH 11 14
ATOM     14  CA  ARG B   2       7.838 -25.308  11.398  1.00 14.00 LIG 0.18  C 
BRANCH 14 15
ATOM     15  N   ARG B   2       6.589 -25.035  12.097  1.00 14.23 LIG-0.35  N 
ATOM     16 H    ARG B   2       5.897 -25.100  11.591  1.00 14.23 LIG 0.16  HD
ATOM     17  C   ALA B   1       6.508 -24.716  13.387  1.00 14.69 LIG 0.25  C 
ATOM     18 O    ALA B   1       7.491 -24.468  14.091  1.00 15.97 LIG-0.27  OA
BRANCH 17 19
ATOM     19  CA  ALA B   1       5.099 -24.664  13.973  1.00 13.70 LIG 0.27  C 
ATOM     20  CB  ALA B   1       4.434 -23.347  13.627  1.00 15.23 LIG 0.05  C 
BRANCH 19 21
ATOM     21  N   ALA B   1       5.151 -24.845  15.454  1.00 12.70 LIG-0.07  N 
ATOM     22 H1   ALA B   1       4.746 -25.605  15.675  1.00 12.70 LIG 0.28  HD
ATOM     23 H3   ALA B   1       4.738 -24.163  15.850  1.00 12.70 LIG 0.28  HD
ATOM     24 H2   ALA B   1       5.999 -24.873  15.720  1.00 12.70 LIG 0.28  HD
ENDBRANCH 19 21
ENDBRANCH 17 19
ENDBRANCH 14 15
BRANCH 14 25
ATOM     25  CB  ARG B   2       7.563 -25.383   9.903  1.00 15.26 LIG 0.04  C 
BRANCH 25 26
ATOM     26  CG  ARG B   2       8.398 -26.413   9.171  1.00 16.76 LIG 0.02  C 
BRANCH 26 27
ATOM     27  CD  ARG B   2       7.547 -27.639   8.850  1.00 19.38 LIG 0.14  C 
BRANCH 27 28
ATOM     28  NE  ARG B   2       6.924 -27.495   7.531  1.00 21.76 LIG-0.23  N 
ATOM     29 HE   ARG B   2       6.673 -26.706   7.295  1.00 21.76 LIG 0.18  HD
ATOM     30  CZ  ARG B   2       6.717 -28.485   6.670  1.00 17.86 LIG 0.67  C 
ATOM     31  NH2 ARG B   2       6.159 -28.221   5.493  1.00 21.34 LIG-0.23  N 
ATOM     32  NH1 ARG B   2       7.048 -29.734   6.988  1.00 18.80 LIG-0.23  N 
ATOM     33 2HH2 ARG B   2       6.022 -28.857   4.930  1.00 21.34 LIG 0.17  HD
ATOM     34 1HH2 ARG B   2       5.934 -27.415   5.294  1.00 21.34 LIG 0.17  HD
ATOM     35 2HH1 ARG B   2       6.911 -30.371   6.426  1.00 18.80 LIG 0.17  HD
ATOM     36 1HH1 ARG B   2       7.397 -29.905   7.754  1.00 18.80 LIG 0.17  HD
ENDBRANCH 27 28
ENDBRANCH 26 27
ENDBRANCH 25 26
ENDBRANCH 14 25
ENDBRANCH 11 14
ENDBRANCH 5 10
ENDBRANCH 1 5
BRANCH 3 37
ATOM     37  CA  LYS B   4       8.782 -18.858  14.220  1.00 20.35 LIG 0.18  C 
BRANCH 37 38
ATOM     38  CB  LYS B   4       9.888 -18.125  14.987  1.00 22.30 LIG 0.04  C 
BRANCH 38 39
ATOM     39  CG  LYS B   4       9.418 -17.116  16.015  1.00 24.16 LIG 0.00  C 
BRANCH 39 40
ATOM     40  CD  LYS B   4       8.144 -17.593  16.698  1.00 24.93 LIG 0.03  C 
BRANCH 40 41
ATOM     41  CE  LYS B   4       8.423 -18.161  18.076  1.00 25.90 LIG 0.23  C 
BRANCH 41 42
ATOM     42  NZ  LYS B   4       8.034 -19.596  18.166  1.00 28.03 LIG-0.08  N 
ATOM     43 HZ3  LYS B   4       8.616 -20.029  18.681  1.00 28.03 LIG 0.27  HD
ATOM     44 HZ1  LYS B   4       7.220 -19.662  18.520  1.00 28.03 LIG 0.27  HD
ATOM     45 HZ2  LYS B   4       8.034 -19.955  17.352  1.00 28.03 LIG 0.27  HD
ENDBRANCH 41 42
ENDBRANCH 40 41
ENDBRANCH 39 40
ENDBRANCH 38 39
ENDBRANCH 37 38
BRANCH 37 46
ATOM     46  C   LYS B   4       8.186 -17.959  13.141  1.00 21.64 LIG 0.24  C 
ATOM     47 O    LYS B   4       7.050 -18.174  12.690  1.00 22.31 LIG-0.27  OA
ATOM     48  N   GLN B   5       8.950 -16.949  12.743  1.00 26.13 LIG-0.35  N 
ATOM     49 H    GLN B   5       9.739 -16.800  13.049  1.00 26.13 LIG 0.16  HD
BRANCH 48 50
ATOM     50  CA  GLN B   5       8.515 -15.997  11.742  1.00 25.39 LIG 0.18  C 
BRANCH 50 51
ATOM     51  CB  GLN B   5       9.379 -14.734  11.815  1.00 28.67 LIG 0.04  C 
BRANCH 51 52
ATOM     52  CG  GLN B   5       9.989 -14.351  10.481  1.00 31.68 LIG 0.10  C 
BRANCH 52 53
ATOM     53  CD  GLN B   5      11.435 -14.780  10.338  1.00 33.20 LIG 0.21  C 
ATOM     54 OE1  GLN B   5      12.126 -15.008  11.338  1.00 36.95 LIG-0.27  OA
ATOM     55  NE2 GLN B   5      11.907 -14.884   9.099  1.00 36.99 LIG-0.37  N 
ATOM     56 22HE GLN B   5      12.724 -15.118   8.968  1.00 36.99 LIG 0.16  HD
ATOM     57 21HE GLN B   5      11.395 -14.717   8.428  1.00 36.99 LIG 0.16  HD
ENDBRANCH 52 53
ENDBRANCH 51 52
ENDBRANCH 50 51
BRANCH 50 58
ATOM     58  C   GLN B   5       8.661 -16.636  10.377  1.00 30.80 LIG 0.24  C 
ATOM     59  N   THR B   6       7.855 -16.171   9.424  1.00 32.96 LIG-0.34  N 
ATOM     60 H    THR B   6       7.234 -15.593   9.564  1.00 32.96 LIG 0.16  HD
ATOM     61 O    GLN B   5       9.486 -17.537  10.196  1.00 36.06 LIG-0.27  OA
BRANCH 59 62
ATOM     62  CA  THR B   6       7.961 -16.615   8.032  1.00 38.52 LIG 0.19  C 
BRANCH 62 63
ATOM     63  CB  THR B   6       9.371 -16.377   7.484  1.00 33.66 LIG 0.14  C 
ATOM     64  CG2 THR B   6       9.598 -17.263   6.286  1.00 38.34 LIG 0.04  C 
BRANCH 63 65
ATOM     65 OG1  THR B   6       9.501 -15.005   7.081  1.00 35.05 LIG-0.39  OA
ATOM     66 HG1  THR B   6       9.162 -14.507   7.667  1.00 35.05 LIG 0.21  HD
ENDBRANCH 63 65
ENDBRANCH 62 63
BRANCH 62 67
ATOM     67  C   THR B   6       7.596 -18.088   7.863  1.00 43.93 LIG 0.22  C 
ATOM     68 O    THR B   6       6.531 -18.533   8.300  1.00 48.58 LIG-0.29  OA
ENDBRANCH 62 67
ENDBRANCH 59 62
ENDBRANCH 50 58
ENDBRANCH 48 50
ENDBRANCH 37 46
ENDBRANCH 3 37
TORSDOF 28
ENDMDL
MODEL 10
USER: ADFR SOLUTION from run 81
USER: SCORE 20.156648 LL:  -3.438 LR: -19.106 RR:   0.000 FEB: -10.753
USER: RMSD 4.027205
USER: SEED 80
USER: STATUS no improvement in best in 2 clusters for 5 generations
USER: GENES 30
USER: genes 0 Translation |==|  0.52629 0.52660 0.49673
USER: genes 1 Rotation |==|  0.39581 0.53579 0.56591 0.98324
USER: genes 2 Torsion [N]-C--CA-[N] |==|  0.34352
USER: genes 3 Torsion [C]-CA--CB-[CG2] |==|  0.98995
USER: genes 4 Torsion [CA]-CB--OG1-[HG1] |==|  0.51663
USER: genes 5 Torsion [C]-CA--N-[C] |==|  0.65310
USER: genes 6 Torsion [N]-C--CA-[N] |==|  0.56960
USER: genes 7 Torsion [C]-CA--N-[C] |==|  0.67952
USER: genes 8 Torsion [N]-C--CA-[N] |==|  0.12913
USER: genes 9 Torsion [C]-CA--N-[H1] |==|  0.60197
USER: genes 10 Torsion [C]-CA--CB-[CG] |==|  0.36180
USER: genes 11 Torsion [CA]-CB--CG-[CD] |==|  0.23127
USER: genes 12 Torsion [CB]-CG--CD-[NE] |==|  0.74393
USER: genes 13 Torsion [CG]-CD--NE-[HE] |==|  0.92626
USER: genes 14 Torsion [C]-N--CA-[CB] |==|  0.46647
USER: genes 15 Torsion [N]-CA--CB-[CG] |==|  0.63705
USER: genes 16 Torsion [CA]-CB--CG-[CD] |==|  0.91353
USER: genes 17 Torsion [CB]-CG--CD-[CE] |==|  0.76298
USER: genes 18 Torsion [CG]-CD--CE-[NZ] |==|  0.71371
USER: genes 19 Torsion [CD]-CE--NZ-[HZ3] |==|  0.18805
USER: genes 20 Torsion [N]-CA--C-[N] |==|  0.85698
USER: genes 21 Torsion [C]-N--CA-[C] |==|  0.62292
USER: genes 22 Torsion [N]-CA--CB-[CG] |==|  0.92669
USER: genes 23 Torsion [CA]-CB--CG-[CD] |==|  0.50294
USER: genes 24 Torsion [CB]-CG--CD-[OE1] |==|  0.88723
USER: genes 25 Torsion [N]-CA--C-[N] |==|  0.38411
USER: genes 26 Torsion [C]-N--CA-[C] |==|  0.12063
USER: genes 27 Torsion [N]-CA--CB-[CG2] |==|  0.97250
USER: genes 28 Torsion [CA]-CB--OG1-[HG1] |==|  0.17178
USER: genes 29 Torsion [N]-CA--C-[O] |==|  0.16819
ROOT
ATOM      1  C   THR B   3       9.218 -21.108  10.151  1.00 20.25 LIG 0.24  C 
ATOM      2 O    THR B   3      10.405 -20.879   9.870  1.00 21.22 LIG-0.27  OA
ATOM      3  N   LYS B   4       8.228 -20.304   9.797  1.00 19.99 LIG-0.35  N 
ATOM      4 H    LYS B   4       7.396 -20.514   9.855  1.00 19.99 LIG 0.16  HD
ENDROOT
BRANCH 1 5
ATOM      5  CA  THR B   3       8.784 -22.354  10.929  1.00 18.41 LIG 0.20  C 
BRANCH 5 6
ATOM      6  CB  THR B   3       9.301 -22.205  12.371  1.00 21.88 LIG 0.15  C 
ATOM      7  CG2 THR B   3      10.138 -20.933  12.531  1.00 22.89 LIG 0.04  C 
BRANCH 6 8
ATOM      8 OG1  THR B   3       8.191 -22.184  13.272  1.00 27.36 LIG-0.39  OA
ATOM      9 HG1  THR B   3       8.464 -22.021  14.050  1.00 27.36 LIG 0.21  HD
ENDBRANCH 6 8
ENDBRANCH 5 6
BRANCH 5 10
ATOM     10  N   THR B   3       9.221 -23.591  10.303  1.00 19.27 LIG-0.34  N 
ATOM     11  C   ARG B   2       8.361 -24.555   9.987  1.00 14.36 LIG 0.24  C 
ATOM     12 O    ARG B   2       7.173 -24.538  10.294  1.00 14.31 LIG-0.27  OA
ATOM     13 H    THR B   3      10.067 -23.638  10.160  1.00 19.27 LIG 0.16  HD
BRANCH 11 14
ATOM     14  CA  ARG B   2       8.914 -25.671   9.135  1.00 14.00 LIG 0.18  C 
BRANCH 14 15
ATOM     15  N   ARG B   2       7.894 -26.356   8.353  1.00 14.23 LIG-0.35  N 
ATOM     16 H    ARG B   2       7.522 -25.851   7.765  1.00 14.23 LIG 0.16  HD
ATOM     17  C   ALA B   1       7.557 -27.634   8.518  1.00 14.69 LIG 0.25  C 
ATOM     18 O    ALA B   1       7.964 -28.332   9.451  1.00 15.97 LIG-0.27  OA
BRANCH 17 19
ATOM     19  CA  ALA B   1       6.610 -28.213   7.469  1.00 13.70 LIG 0.27  C 
ATOM     20  CB  ALA B   1       6.534 -29.720   7.604  1.00 15.23 LIG 0.05  C 
BRANCH 19 21
ATOM     21  N   ALA B   1       7.069 -27.838   6.099  1.00 12.70 LIG-0.07  N 
ATOM     22 H1   ALA B   1       6.363 -27.680   5.582  1.00 12.70 LIG 0.28  HD
ATOM     23 H3   ALA B   1       7.546 -28.505   5.753  1.00 12.70 LIG 0.28  HD
ATOM     24 H2   ALA B   1       7.572 -27.106   6.144  1.00 12.70 LIG 0.28  HD
ENDBRANCH 19 21
ENDBRANCH 17 19
ENDBRANCH 14 15
BRANCH 14 25
ATOM     25  CB  ARG B   2       9.925 -25.041   8.188  1.00 15.26 LIG 0.04  C 
BRANCH 25 26
ATOM     26  CG  ARG B   2      11.264 -25.748   8.153  1.00 16.76 LIG 0.02  C 
BRANCH 26 27
ATOM     27  CD  ARG B   2      11.197 -26.938   7.197  1.00 19.38 LIG 0.14  C 
BRANCH 27 28
ATOM     28  NE  ARG B   2      10.825 -28.155   7.925  1.00 21.76 LIG-0.23  N 
ATOM     29 HE   ARG B   2      11.021 -28.192   8.762  1.00 21.76 LIG 0.18  HD
ATOM     30  CZ  ARG B   2      10.208 -29.204   7.396  1.00 17.86 LIG 0.67  C 
ATOM     31  NH2 ARG B   2       9.906 -30.243   8.168  1.00 21.34 LIG-0.23  N 
ATOM     32  NH1 ARG B   2       9.909 -29.227   6.099  1.00 18.80 LIG-0.23  N 
ATOM     33 2HH2 ARG B   2       9.506 -30.927   7.833  1.00 21.34 LIG 0.17  HD
ATOM     34 1HH2 ARG B   2      10.111 -30.232   9.004  1.00 21.34 LIG 0.17  HD
ATOM     35 2HH1 ARG B   2       9.509 -29.910   5.761  1.00 18.80 LIG 0.17  HD
ATOM     36 1HH1 ARG B   2      10.116 -28.560   5.598  1.00 18.80 LIG 0.17  HD
ENDBRANCH 27 28
ENDBRANCH 26 27
ENDBRANCH 25 26
ENDBRANCH 14 25
ENDBRANCH 11 14
ENDBRANCH 5 10
ENDBRANCH 1 5
BRANCH 3 37
ATOM     37  CA  LYS B   4       8.471 -18.980   9.272  1.00 20.35 LIG 0.18  C 
BRANCH 37 38
ATOM     38  CB  LYS B   4       7.197 -18.378   8.669  1.00 22.30 LIG 0.04  C 
BRANCH 38 39
ATOM     39  CG  LYS B   4       7.341 -17.789   7.280  1.00 24.16 LIG 0.00  C 
BRANCH 39 40
ATOM     40  CD  LYS B   4       8.741 -17.230   7.073  1.00 24.93 LIG 0.03  C 
BRANCH 40 41
ATOM     41  CE  LYS B   4       8.861 -15.808   7.587  1.00 25.90 LIG 0.23  C 
BRANCH 41 42
ATOM     42  NZ  LYS B   4       8.838 -14.819   6.474  1.00 28.03 LIG-0.08  N 
ATOM     43 HZ3  LYS B   4       8.032 -14.814   6.098  1.00 28.03 LIG 0.27  HD
ATOM     44 HZ1  LYS B   4       9.022 -14.009   6.793  1.00 28.03 LIG 0.27  HD
ATOM     45 HZ2  LYS B   4       9.447 -15.043   5.865  1.00 28.03 LIG 0.27  HD
ENDBRANCH 41 42
ENDBRANCH 40 41
ENDBRANCH 39 40
ENDBRANCH 38 39
ENDBRANCH 37 38
BRANCH 37 46
ATOM     46  C   LYS B   4       8.979 -18.122  10.427  1.00 21.64 LIG 0.24  C 
ATOM     47 O    LYS B   4      10.018 -17.452  10.313  1.00 22.31 LIG-0.27  OA
ATOM     48  N   GLN B   5       8.239 -18.138  11.529  1.00 26.13 LIG-0.35  N 
ATOM     49 H    GLN B   5       7.522 -18.605  11.614  1.00 26.13 LIG 0.16  HD
BRANCH 48 50
ATOM     50  CA  GLN B   5       8.579 -17.360  12.702  1.00 25.39 LIG 0.18  C 
BRANCH 50 51
ATOM     51  CB  GLN B   5       7.659 -16.139  12.802  1.00 28.67 LIG 0.04  C 
BRANCH 51 52
ATOM     52  CG  GLN B   5       7.120 -15.687  11.459  1.00 31.68 LIG 0.10  C 
BRANCH 52 53
ATOM     53  CD  GLN B   5       6.230 -14.464  11.551  1.00 33.20 LIG 0.21  C 
ATOM     54 OE1  GLN B   5       5.416 -14.346  12.474  1.00 36.95 LIG-0.27  OA
ATOM     55  NE2 GLN B   5       6.370 -13.552  10.593  1.00 36.99 LIG-0.37  N 
ATOM     56 22HE GLN B   5       5.882 -12.844  10.599  1.00 36.99 LIG 0.16  HD
ATOM     57 21HE GLN B   5       6.948 -13.670   9.967  1.00 36.99 LIG 0.16  HD
ENDBRANCH 52 53
ENDBRANCH 51 52
ENDBRANCH 50 51
BRANCH 50 58
ATOM     58  C   GLN B   5       8.400 -18.234  13.926  1.00 30.80 LIG 0.24  C 
ATOM     59  N   THR B   6       9.343 -18.133  14.860  1.00 32.96 LIG-0.34  N 
ATOM     60 H    THR B   6      10.056 -17.661  14.769  1.00 32.96 LIG 0.16  HD
ATOM     61 O    GLN B   5       7.426 -18.988  14.016  1.00 36.06 LIG-0.27  OA
BRANCH 59 62
ATOM     62  CA  THR B   6       9.245 -18.832  16.143  1.00 38.52 LIG 0.19  C 
BRANCH 62 63
ATOM     63  CB  THR B   6       8.311 -18.090  17.104  1.00 33.66 LIG 0.14  C 
ATOM     64  CG2 THR B   6       7.968 -16.741  16.526  1.00 38.34 LIG 0.04  C 
BRANCH 63 65
ATOM     65 OG1  THR B   6       7.103 -18.846  17.275  1.00 35.05 LIG-0.39  OA
ATOM     66 HG1  THR B   6       7.285 -19.592  17.615  1.00 35.05 LIG 0.21  HD
ENDBRANCH 63 65
ENDBRANCH 62 63
BRANCH 62 67
ATOM     67  C   THR B   6       8.763 -20.273  15.983  1.00 43.93 LIG 0.22  C 
ATOM     68 O    THR B   6       9.406 -21.088  15.316  1.00 48.58 LIG-0.29  OA
ENDBRANCH 62 67
ENDBRANCH 59 62
ENDBRANCH 50 58
ENDBRANCH 48 50
ENDBRANCH 37 46
ENDBRANCH 3 37
TORSDOF 28
ENDMDL
MODEL 11
USER: ADFR SOLUTION from run 37
USER: SCORE 20.967219 LL:  -3.388 LR: -19.036 RR:   0.000 FEB: -10.684
USER: RMSD 12.179553
USER: SEED 36
USER: STATUS no improvement in best in 14 clusters for 5 generations
USER: GENES 30
USER: genes 0 Translation |==|  0.44913 0.40063 0.52570
USER: genes 1 Rotation |==|  0.18358 0.43202 0.87451 0.57071
USER: genes 2 Torsion [N]-C--CA-[N] |==|  0.47401
USER: genes 3 Torsion [C]-CA--CB-[CG2] |==|  0.31520
USER: genes 4 Torsion [CA]-CB--OG1-[HG1] |==|  0.89003
USER: genes 5 Torsion [C]-CA--N-[C] |==|  0.56597
USER: genes 6 Torsion [N]-C--CA-[N] |==|  0.01483
USER: genes 7 Torsion [C]-CA--N-[C] |==|  0.58401
USER: genes 8 Torsion [N]-C--CA-[N] |==|  0.04561
USER: genes 9 Torsion [C]-CA--N-[H1] |==|  0.58190
USER: genes 10 Torsion [C]-CA--CB-[CG] |==|  0.62357
USER: genes 11 Torsion [CA]-CB--CG-[CD] |==|  0.68263
USER: genes 12 Torsion [CB]-CG--CD-[NE] |==|  0.36184
USER: genes 13 Torsion [CG]-CD--NE-[HE] |==|  0.74505
USER: genes 14 Torsion [C]-N--CA-[CB] |==|  0.17786
USER: genes 15 Torsion [N]-CA--CB-[CG] |==|  0.59531
USER: genes 16 Torsion [CA]-CB--CG-[CD] |==|  0.85679
USER: genes 17 Torsion [CB]-CG--CD-[CE] |==|  0.35322
USER: genes 18 Torsion [CG]-CD--CE-[NZ] |==|  0.18705
USER: genes 19 Torsion [CD]-CE--NZ-[HZ3] |==|  0.93319
USER: genes 20 Torsion [N]-CA--C-[N] |==|  0.82346
USER: genes 21 Torsion [C]-N--CA-[C] |==|  0.79254
USER: genes 22 Torsion [N]-CA--CB-[CG] |==|  0.72265
USER: genes 23 Torsion [CA]-CB--CG-[CD] |==|  0.91815
USER: genes 24 Torsion [CB]-CG--CD-[OE1] |==|  0.75135
USER: genes 25 Torsion [N]-CA--C-[N] |==|  0.39722
USER: genes 26 Torsion [C]-N--CA-[C] |==|  0.87231
USER: genes 27 Torsion [N]-CA--CB-[CG2] |==|  0.57850
USER: genes 28 Torsion [CA]-CB--OG1-[HG1] |==|  0.89240
USER: genes 29 Torsion [N]-CA--C-[O] |==|  0.27770
ROOT
ATOM      1  C   THR B   3       7.945 -24.604  10.802  1.00 20.25 LIG 0.24  C 
ATOM      2 O    THR B   3       7.806 -24.099   9.676  1.00 21.22 LIG-0.27  OA
ATOM      3  N   LYS B   4       8.073 -25.907  10.995  1.00 19.99 LIG-0.35  N 
ATOM      4 H    LYS B   4       8.311 -26.259  11.742  1.00 19.99 LIG 0.16  HD
ENDROOT
BRANCH 1 5
ATOM      5  CA  THR B   3       7.990 -23.759  12.080  1.00 18.41 LIG 0.20  C 
BRANCH 5 6
ATOM      6  CB  THR B   3       6.766 -24.140  12.933  1.00 21.88 LIG 0.15  C 
ATOM      7  CG2 THR B   3       7.189 -24.836  14.228  1.00 22.89 LIG 0.04  C 
BRANCH 6 8
ATOM      8 OG1  THR B   3       6.010 -22.963  13.226  1.00 27.36 LIG-0.39  OA
ATOM      9 HG1  THR B   3       6.534 -22.326  13.389  1.00 27.36 LIG 0.21  HD
ENDBRANCH 6 8
ENDBRANCH 5 6
BRANCH 5 10
ATOM     10  N   THR B   3       8.064 -22.332  11.811  1.00 19.27 LIG-0.34  N 
ATOM     11  C   ARG B   2       8.566 -21.480  12.699  1.00 14.36 LIG 0.24  C 
ATOM     12 O    ARG B   2       8.895 -21.796  13.839  1.00 14.31 LIG-0.27  OA
ATOM     13 H    THR B   3       7.760 -22.100  11.042  1.00 19.27 LIG 0.16  HD
BRANCH 11 14
ATOM     14  CA  ARG B   2       8.798 -20.076  12.198  1.00 14.00 LIG 0.18  C 
BRANCH 14 15
ATOM     15  N   ARG B   2       8.311 -19.862  10.842  1.00 14.23 LIG-0.35  N 
ATOM     16 H    ARG B   2       7.631 -20.351  10.645  1.00 14.23 LIG 0.16  HD
ATOM     17  C   ALA B   1       8.850 -19.001   9.980  1.00 14.69 LIG 0.25  C 
ATOM     18 O    ALA B   1       9.911 -18.406  10.184  1.00 15.97 LIG-0.27  OA
BRANCH 17 19
ATOM     19  CA  ALA B   1       8.073 -18.784   8.684  1.00 13.70 LIG 0.27  C 
ATOM     20  CB  ALA B   1       8.066 -17.314   8.316  1.00 15.23 LIG 0.05  C 
BRANCH 19 21
ATOM     21  N   ALA B   1       6.675 -19.286   8.832  1.00 12.70 LIG-0.07  N 
ATOM     22 H1   ALA B   1       6.371 -19.557   8.041  1.00 12.70 LIG 0.28  HD
ATOM     23 H3   ALA B   1       6.156 -18.633   9.141  1.00 12.70 LIG 0.28  HD
ATOM     24 H2   ALA B   1       6.664 -19.969   9.402  1.00 12.70 LIG 0.28  HD
ENDBRANCH 19 21
ENDBRANCH 17 19
ENDBRANCH 14 15
BRANCH 14 25
ATOM     25  CB  ARG B   2       8.055 -19.144  13.145  1.00 15.26 LIG 0.04  C 
BRANCH 25 26
ATOM     26  CG  ARG B   2       7.266 -18.055  12.447  1.00 16.76 LIG 0.02  C 
BRANCH 26 27
ATOM     27  CD  ARG B   2       7.862 -16.689  12.777  1.00 19.38 LIG 0.14  C 
BRANCH 27 28
ATOM     28  NE  ARG B   2       8.076 -15.918  11.549  1.00 21.76 LIG-0.23  N 
ATOM     29 HE   ARG B   2       8.845 -15.983  11.168  1.00 21.76 LIG 0.18  HD
ATOM     30  CZ  ARG B   2       7.176 -15.126  10.977  1.00 17.86 LIG 0.67  C 
ATOM     31  NH2 ARG B   2       7.486 -14.493   9.850  1.00 21.34 LIG-0.23  N 
ATOM     32  NH1 ARG B   2       5.981 -14.951  11.534  1.00 18.80 LIG-0.23  N 
ATOM     33 2HH2 ARG B   2       6.909 -13.978   9.473  1.00 21.34 LIG 0.17  HD
ATOM     34 1HH2 ARG B   2       8.264 -14.597   9.497  1.00 21.34 LIG 0.17  HD
ATOM     35 2HH1 ARG B   2       5.402 -14.437  11.159  1.00 18.80 LIG 0.17  HD
ATOM     36 1HH1 ARG B   2       5.786 -15.351  12.270  1.00 18.80 LIG 0.17  HD
ENDBRANCH 27 28
ENDBRANCH 26 27
ENDBRANCH 25 26
ENDBRANCH 14 25
ENDBRANCH 11 14
ENDBRANCH 5 10
ENDBRANCH 1 5
BRANCH 3 37
ATOM     37  CA  LYS B   4       7.817 -26.862   9.942  1.00 20.35 LIG 0.18  C 
BRANCH 37 38
ATOM     38  CB  LYS B   4       8.809 -26.696   8.786  1.00 22.30 LIG 0.04  C 
BRANCH 38 39
ATOM     39  CG  LYS B   4       8.259 -26.973   7.402  1.00 24.16 LIG 0.00  C 
BRANCH 39 40
ATOM     40  CD  LYS B   4       7.567 -28.327   7.357  1.00 24.93 LIG 0.03  C 
BRANCH 40 41
ATOM     41  CE  LYS B   4       6.158 -28.221   6.806  1.00 25.90 LIG 0.23  C 
BRANCH 41 42
ATOM     42  NZ  LYS B   4       6.159 -27.846   5.365  1.00 28.03 LIG-0.08  N 
ATOM     43 HZ3  LYS B   4       6.916 -27.422   5.169  1.00 28.03 LIG 0.27  HD
ATOM     44 HZ1  LYS B   4       6.094 -28.581   4.867  1.00 28.03 LIG 0.27  HD
ATOM     45 HZ2  LYS B   4       5.468 -27.312   5.196  1.00 28.03 LIG 0.27  HD
ENDBRANCH 41 42
ENDBRANCH 40 41
ENDBRANCH 39 40
ENDBRANCH 38 39
ENDBRANCH 37 38
BRANCH 37 46
ATOM     46  C   LYS B   4       7.934 -28.254  10.557  1.00 21.64 LIG 0.24  C 
ATOM     47 O    LYS B   4       6.955 -29.017  10.594  1.00 22.31 LIG-0.27  OA
ATOM     48  N   GLN B   5       9.132 -28.581  11.026  1.00 26.13 LIG-0.35  N 
ATOM     49 H    GLN B   5       9.811 -28.054  11.006  1.00 26.13 LIG 0.16  HD
BRANCH 48 50
ATOM     50  CA  GLN B   5       9.405 -29.874  11.619  1.00 25.39 LIG 0.18  C 
BRANCH 50 51
ATOM     51  CB  GLN B   5      10.918 -30.088  11.728  1.00 28.67 LIG 0.04  C 
BRANCH 51 52
ATOM     52  CG  GLN B   5      11.479 -30.956  10.619  1.00 31.68 LIG 0.10  C 
BRANCH 52 53
ATOM     53  CD  GLN B   5      10.485 -31.970  10.091  1.00 33.20 LIG 0.21  C 
ATOM     54 OE1  GLN B   5      10.401 -33.094  10.599  1.00 36.95 LIG-0.27  OA
ATOM     55  NE2 GLN B   5       9.733 -31.587   9.062  1.00 36.99 LIG-0.37  N 
ATOM     56 22HE GLN B   5       9.158 -32.130   8.724  1.00 36.99 LIG 0.16  HD
ATOM     57 21HE GLN B   5       9.821 -30.796   8.736  1.00 36.99 LIG 0.16  HD
ENDBRANCH 52 53
ENDBRANCH 51 52
ENDBRANCH 50 51
BRANCH 50 58
ATOM     58  C   GLN B   5       8.785 -29.909  13.000  1.00 30.80 LIG 0.24  C 
ATOM     59  N   THR B   6       8.256 -31.071  13.375  1.00 32.96 LIG-0.34  N 
ATOM     60 H    THR B   6       8.195 -31.756  12.859  1.00 32.96 LIG 0.16  HD
ATOM     61 O    GLN B   5       8.784 -28.896  13.708  1.00 36.06 LIG-0.27  OA
BRANCH 59 62
ATOM     62  CA  THR B   6       7.723 -31.284  14.722  1.00 38.52 LIG 0.19  C 
BRANCH 62 63
ATOM     63  CB  THR B   6       7.435 -32.767  14.973  1.00 33.66 LIG 0.14  C 
ATOM     64  CG2 THR B   6       6.318 -32.898  15.976  1.00 38.34 LIG 0.04  C 
BRANCH 63 65
ATOM     65 OG1  THR B   6       7.034 -33.390  13.743  1.00 35.05 LIG-0.39  OA
ATOM     66 HG1  THR B   6       6.544 -32.863  13.308  1.00 35.05 LIG 0.21  HD
ENDBRANCH 63 65
ENDBRANCH 62 63
BRANCH 62 67
ATOM     67  C   THR B   6       8.663 -30.762  15.807  1.00 43.93 LIG 0.22  C 
ATOM     68 O    THR B   6       8.466 -29.671  16.348  1.00 48.58 LIG-0.29  OA
ENDBRANCH 62 67
ENDBRANCH 59 62
ENDBRANCH 50 58
ENDBRANCH 48 50
ENDBRANCH 37 46
ENDBRANCH 3 37
TORSDOF 28
ENDMDL
MODEL 12
USER: ADFR SOLUTION from run 18
USER: SCORE 22.631243 LL:  -4.513 LR: -19.018 RR:   0.000 FEB: -10.665
USER: RMSD 4.788287
USER: SEED 17
USER: STATUS no improvement in best in 4 clusters for 5 generations
USER: GENES 30
USER: genes 0 Translation |==|  0.42142 0.45413 0.64596
USER: genes 1 Rotation |==|  0.42053 0.27200 0.36793 0.91744
USER: genes 2 Torsion [N]-C--CA-[N] |==|  0.31611
USER: genes 3 Torsion [C]-CA--CB-[CG2] |==|  0.31093
USER: genes 4 Torsion [CA]-CB--OG1-[HG1] |==|  0.12110
USER: genes 5 Torsion [C]-CA--N-[C] |==|  0.77194
USER: genes 6 Torsion [N]-C--CA-[N] |==|  0.40562
USER: genes 7 Torsion [C]-CA--N-[C] |==|  0.59051
USER: genes 8 Torsion [N]-C--CA-[N] |==|  0.42314
USER: genes 9 Torsion [C]-CA--N-[H1] |==|  0.56629
USER: genes 10 Torsion [C]-CA--CB-[CG] |==|  0.64989
USER: genes 11 Torsion [CA]-CB--CG-[CD] |==|  0.25834
USER: genes 12 Torsion [CB]-CG--CD-[NE] |==|  0.61292
USER: genes 13 Torsion [CG]-CD--NE-[HE] |==|  0.76389
USER: genes 14 Torsion [C]-N--CA-[CB] |==|  0.20160
USER: genes 15 Torsion [N]-CA--CB-[CG] |==|  0.56758
USER: genes 16 Torsion [CA]-CB--CG-[CD] |==|  0.08128
USER: genes 17 Torsion [CB]-CG--CD-[CE] |==|  0.23655
USER: genes 18 Torsion [CG]-CD--CE-[NZ] |==|  0.66070
USER: genes 19 Torsion [CD]-CE--NZ-[HZ3] |==|  0.23130
USER: genes 20 Torsion [N]-CA--C-[N] |==|  0.96691
USER: genes 21 Torsion [C]-N--CA-[C] |==|  0.83884
USER: genes 22 Torsion [N]-CA--CB-[CG] |==|  0.47390
USER: genes 23 Torsion [CA]-CB--CG-[CD] |==|  0.12375
USER: genes 24 Torsion [CB]-CG--CD-[OE1] |==|  0.09471
USER: genes 25 Torsion [N]-CA--C-[N] |==|  0.39287
USER: genes 26 Torsion [C]-N--CA-[C] |==|  0.85799
USER: genes 27 Torsion [N]-CA--CB-[CG2] |==|  0.66146
USER: genes 28 Torsion [CA]-CB--OG1-[HG1] |==|  0.33506
USER: genes 29 Torsion [N]-CA--C-[O] |==|  0.44663
ROOT
ATOM      1  C   THR B   3       7.487 -23.119  13.508  1.00 20.25 LIG 0.24  C 
ATOM      2 O    THR B   3       8.061 -23.539  14.526  1.00 21.22 LIG-0.27  OA
ATOM      3  N   LYS B   4       7.879 -22.034  12.859  1.00 19.99 LIG-0.35  N 
ATOM      4 H    LYS B   4       7.589 -21.811  12.081  1.00 19.99 LIG 0.16  HD
ENDROOT
BRANCH 1 5
ATOM      5  CA  THR B   3       6.272 -23.826  12.900  1.00 18.41 LIG 0.20  C 
BRANCH 5 6
ATOM      6  CB  THR B   3       5.171 -23.866  13.976  1.00 21.88 LIG 0.15  C 
ATOM      7  CG2 THR B   3       3.990 -22.971  13.595  1.00 22.89 LIG 0.04  C 
BRANCH 6 8
ATOM      8 OG1  THR B   3       4.734 -25.216  14.154  1.00 27.36 LIG-0.39  OA
ATOM      9 HG1  THR B   3       5.401 -25.726  14.176  1.00 27.36 LIG 0.21  HD
ENDBRANCH 6 8
ENDBRANCH 5 6
BRANCH 5 10
ATOM     10  N   THR B   3       6.590 -25.143  12.374  1.00 19.27 LIG-0.34  N 
ATOM     11  C   ARG B   2       7.124 -25.303  11.168  1.00 14.36 LIG 0.24  C 
ATOM     12 O    ARG B   2       7.286 -24.388  10.365  1.00 14.31 LIG-0.27  OA
ATOM     13 H    THR B   3       6.402 -25.793  12.906  1.00 19.27 LIG 0.16  HD
BRANCH 11 14
ATOM     14  CA  ARG B   2       7.617 -26.693  10.850  1.00 14.00 LIG 0.18  C 
BRANCH 14 15
ATOM     15  N   ARG B   2       7.453 -27.054   9.448  1.00 14.23 LIG-0.35  N 
ATOM     16 H    ARG B   2       7.532 -26.384   8.914  1.00 14.23 LIG 0.16  HD
ATOM     17  C   ALA B   1       7.204 -28.290   9.017  1.00 14.69 LIG 0.25  C 
ATOM     18 O    ALA B   1       6.935 -29.232   9.767  1.00 15.97 LIG-0.27  OA
BRANCH 17 19
ATOM     19  CA  ALA B   1       7.264 -28.491   7.505  1.00 13.70 LIG 0.27  C 
ATOM     20  CB  ALA B   1       5.929 -28.148   6.876  1.00 15.23 LIG 0.05  C 
BRANCH 19 21
ATOM     21  N   ALA B   1       7.637 -29.902   7.189  1.00 12.70 LIG-0.07  N 
ATOM     22 H1   ALA B   1       8.001 -29.939   6.378  1.00 12.70 LIG 0.28  HD
ATOM     23 H3   ALA B   1       6.909 -30.413   7.211  1.00 12.70 LIG 0.28  HD
ATOM     24 H2   ALA B   1       8.224 -30.196   7.790  1.00 12.70 LIG 0.28  HD
ENDBRANCH 19 21
ENDBRANCH 17 19
ENDBRANCH 14 15
BRANCH 14 25
ATOM     25  CB  ARG B   2       9.098 -26.725  11.200  1.00 15.26 LIG 0.04  C 
BRANCH 25 26
ATOM     26  CG  ARG B   2       9.991 -27.189  10.068  1.00 16.76 LIG 0.02  C 
BRANCH 26 27
ATOM     27  CD  ARG B   2      10.492 -25.984   9.275  1.00 19.38 LIG 0.14  C 
BRANCH 27 28
ATOM     28  NE  ARG B   2      10.476 -26.277   7.839  1.00 21.76 LIG-0.23  N 
ATOM     29 HE   ARG B   2      11.160 -26.683   7.510  1.00 21.76 LIG 0.18  HD
ATOM     30  CZ  ARG B   2       9.490 -25.966   7.006  1.00 17.86 LIG 0.67  C 
ATOM     31  NH2 ARG B   2       9.587 -26.304   5.724  1.00 21.34 LIG-0.23  N 
ATOM     32  NH1 ARG B   2       8.422 -25.304   7.443  1.00 18.80 LIG-0.23  N 
ATOM     33 2HH2 ARG B   2       8.952 -26.106   5.178  1.00 21.34 LIG 0.17  HD
ATOM     34 1HH2 ARG B   2      10.284 -26.721   5.440  1.00 21.34 LIG 0.17  HD
ATOM     35 2HH1 ARG B   2       7.786 -25.106   6.899  1.00 18.80 LIG 0.17  HD
ATOM     36 1HH1 ARG B   2       8.366 -25.075   8.270  1.00 18.80 LIG 0.17  HD
ENDBRANCH 27 28
ENDBRANCH 26 27
ENDBRANCH 25 26
ENDBRANCH 14 25
ENDBRANCH 11 14
ENDBRANCH 5 10
ENDBRANCH 1 5
BRANCH 3 37
ATOM     37  CA  LYS B   4       8.848 -21.119  13.416  1.00 20.35 LIG 0.18  C 
BRANCH 37 38
ATOM     38  CB  LYS B   4      10.257 -21.721  13.401  1.00 22.30 LIG 0.04  C 
BRANCH 38 39
ATOM     39  CG  LYS B   4      11.223 -21.163  14.425  1.00 24.16 LIG 0.00  C 
BRANCH 39 40
ATOM     40  CD  LYS B   4      10.481 -20.686  15.664  1.00 24.93 LIG 0.03  C 
BRANCH 40 41
ATOM     41  CE  LYS B   4      10.235 -21.817  16.644  1.00 25.90 LIG 0.23  C 
BRANCH 41 42
ATOM     42  NZ  LYS B   4       8.784 -21.989  16.930  1.00 28.03 LIG-0.08  N 
ATOM     43 HZ3  LYS B   4       8.412 -22.485  16.292  1.00 28.03 LIG 0.27  HD
ATOM     44 HZ1  LYS B   4       8.682 -22.393  17.717  1.00 28.03 LIG 0.27  HD
ATOM     45 HZ2  LYS B   4       8.389 -21.192  16.953  1.00 28.03 LIG 0.27  HD
ENDBRANCH 41 42
ENDBRANCH 40 41
ENDBRANCH 39 40
ENDBRANCH 38 39
ENDBRANCH 37 38
BRANCH 37 46
ATOM     46  C   LYS B   4       8.797 -19.843  12.582  1.00 21.64 LIG 0.24  C 
ATOM     47 O    LYS B   4       9.373 -18.811  12.961  1.00 22.31 LIG-0.27  OA
ATOM     48  N   GLN B   5       8.117 -19.922  11.444  1.00 26.13 LIG-0.35  N 
ATOM     49 H    GLN B   5       7.713 -20.634  11.180  1.00 26.13 LIG 0.16  HD
BRANCH 48 50
ATOM     50  CA  GLN B   5       7.996 -18.802  10.534  1.00 25.39 LIG 0.18  C 
BRANCH 50 51
ATOM     51  CB  GLN B   5       7.113 -19.191   9.344  1.00 28.67 LIG 0.04  C 
BRANCH 51 52
ATOM     52  CG  GLN B   5       6.750 -18.013   8.461  1.00 31.68 LIG 0.10  C 
BRANCH 52 53
ATOM     53  CD  GLN B   5       7.924 -17.103   8.163  1.00 33.20 LIG 0.21  C 
ATOM     54 OE1  GLN B   5       9.064 -17.566   8.039  1.00 36.95 LIG-0.27  OA
ATOM     55  NE2 GLN B   5       7.659 -15.804   8.057  1.00 36.99 LIG-0.37  N 
ATOM     56 22HE GLN B   5       8.294 -15.247   7.895  1.00 36.99 LIG 0.16  HD
ATOM     57 21HE GLN B   5       6.852 -15.520   8.150  1.00 36.99 LIG 0.16  HD
ENDBRANCH 52 53
ENDBRANCH 51 52
ENDBRANCH 50 51
BRANCH 50 58
ATOM     58  C   GLN B   5       7.366 -17.644  11.280  1.00 30.80 LIG 0.24  C 
ATOM     59  N   THR B   6       7.847 -16.436  10.998  1.00 32.96 LIG-0.34  N 
ATOM     60 H    THR B   6       8.519 -16.298  10.480  1.00 32.96 LIG 0.16  HD
ATOM     61 O    GLN B   5       6.465 -17.848  12.099  1.00 36.06 LIG-0.27  OA
BRANCH 59 62
ATOM     62  CA  THR B   6       7.260 -15.216  11.557  1.00 38.52 LIG 0.19  C 
BRANCH 62 63
ATOM     63  CB  THR B   6       7.907 -13.966  10.953  1.00 33.66 LIG 0.14  C 
ATOM     64  CG2 THR B   6       8.501 -13.129  12.056  1.00 38.34 LIG 0.04  C 
BRANCH 63 65
ATOM     65 OG1  THR B   6       8.952 -14.359  10.050  1.00 35.05 LIG-0.39  OA
ATOM     66 HG1  THR B   6       8.784 -14.062   9.282  1.00 35.05 LIG 0.21  HD
ENDBRANCH 63 65
ENDBRANCH 62 63
BRANCH 62 67
ATOM     67  C   THR B   6       5.748 -15.152  11.349  1.00 43.93 LIG 0.22  C 
ATOM     68 O    THR B   6       5.043 -14.406  12.034  1.00 48.58 LIG-0.29  OA
ENDBRANCH 62 67
ENDBRANCH 59 62
ENDBRANCH 50 58
ENDBRANCH 48 50
ENDBRANCH 37 46
ENDBRANCH 3 37
TORSDOF 28
ENDMDL
MODEL 13
USER: ADFR SOLUTION from run 55
USER: SCORE 20.931468 LL:  -3.898 LR: -18.992 RR:   0.000 FEB: -10.640
USER: RMSD 5.671259
USER: SEED 54
USER: STATUS no improvement in best in 4 clusters for 5 generations
USER: GENES 30
USER: genes 0 Translation |==|  0.46225 0.56933 0.58389
USER: genes 1 Rotation |==|  0.57242 0.03729 0.43974 0.66439
USER: genes 2 Torsion [N]-C--CA-[N] |==|  0.52119
USER: genes 3 Torsion [C]-CA--CB-[CG2] |==|  0.88745
USER: genes 4 Torsion [CA]-CB--OG1-[HG1] |==|  0.41100
USER: genes 5 Torsion [C]-CA--N-[C] |==|  0.72669
USER: genes 6 Torsion [N]-C--CA-[N] |==|  0.82700
USER: genes 7 Torsion [C]-CA--N-[C] |==|  0.74143
USER: genes 8 Torsion [N]-C--CA-[N] |==|  0.50932
USER: genes 9 Torsion [C]-CA--N-[H1] |==|  0.04660
USER: genes 10 Torsion [C]-CA--CB-[CG] |==|  0.45068
USER: genes 11 Torsion [CA]-CB--CG-[CD] |==|  0.52593
USER: genes 12 Torsion [CB]-CG--CD-[NE] |==|  0.45449
USER: genes 13 Torsion [CG]-CD--NE-[HE] |==|  0.91688
USER: genes 14 Torsion [C]-N--CA-[CB] |==|  0.26517
USER: genes 15 Torsion [N]-CA--CB-[CG] |==|  0.02328
USER: genes 16 Torsion [CA]-CB--CG-[CD] |==|  0.68132
USER: genes 17 Torsion [CB]-CG--CD-[CE] |==|  0.86163
USER: genes 18 Torsion [CG]-CD--CE-[NZ] |==|  0.42867
USER: genes 19 Torsion [CD]-CE--NZ-[HZ3] |==|  0.38691
USER: genes 20 Torsion [N]-CA--C-[N] |==|  0.44988
USER: genes 21 Torsion [C]-N--CA-[C] |==|  0.82567
USER: genes 22 Torsion [N]-CA--CB-[CG] |==|  0.38248
USER: genes 23 Torsion [CA]-CB--CG-[CD] |==|  0.34031
USER: genes 24 Torsion [CB]-CG--CD-[OE1] |==|  0.13376
USER: genes 25 Torsion [N]-CA--C-[N] |==|  0.36418
USER: genes 26 Torsion [C]-N--CA-[C] |==|  0.74637
USER: genes 27 Torsion [N]-CA--CB-[CG2] |==|  0.60115
USER: genes 28 Torsion [CA]-CB--OG1-[HG1] |==|  0.23742
USER: genes 29 Torsion [N]-CA--C-[O] |==|  0.99398
ROOT
ATOM      1  C   THR B   3       8.161 -19.922  12.112  1.00 20.25 LIG 0.24  C 
ATOM      2 O    THR B   3       7.284 -20.387  12.857  1.00 21.22 LIG-0.27  OA
ATOM      3  N   LYS B   4       8.506 -18.644  12.118  1.00 19.99 LIG-0.35  N 
ATOM      4 H    LYS B   4       9.200 -18.333  11.717  1.00 19.99 LIG 0.16  HD
ENDROOT
BRANCH 1 5
ATOM      5  CA  THR B   3       8.937 -20.790  11.116  1.00 18.41 LIG 0.20  C 
BRANCH 5 6
ATOM      6  CB  THR B   3       8.944 -20.054   9.764  1.00 21.88 LIG 0.15  C 
ATOM      7  CG2 THR B   3       7.586 -19.409   9.477  1.00 22.89 LIG 0.04  C 
BRANCH 6 8
ATOM      8 OG1  THR B   3       9.973 -19.061   9.772  1.00 27.36 LIG-0.39  OA
ATOM      9 HG1  THR B   3      10.281 -18.971   8.995  1.00 27.36 LIG 0.21  HD
ENDBRANCH 6 8
ENDBRANCH 5 6
BRANCH 5 10
ATOM     10  N   THR B   3       8.410 -22.142  11.015  1.00 19.27 LIG-0.34  N 
ATOM     11  C   ARG B   2       8.959 -23.156  11.676  1.00 14.36 LIG 0.24  C 
ATOM     12 O    ARG B   2      10.000 -23.068  12.321  1.00 14.31 LIG-0.27  OA
ATOM     13 H    THR B   3       7.727 -22.219  10.499  1.00 19.27 LIG 0.16  HD
BRANCH 11 14
ATOM     14  CA  ARG B   2       8.173 -24.444  11.666  1.00 14.00 LIG 0.18  C 
BRANCH 14 15
ATOM     15  N   ARG B   2       6.868 -24.326  12.303  1.00 14.23 LIG-0.35  N 
ATOM     16 H    ARG B   2       6.253 -24.057  11.766  1.00 14.23 LIG 0.16  HD
ATOM     17  C   ALA B   1       6.633 -24.601  13.584  1.00 14.69 LIG 0.25  C 
ATOM     18 O    ALA B   1       7.523 -24.838  14.406  1.00 15.97 LIG-0.27  OA
BRANCH 17 19
ATOM     19  CA  ALA B   1       5.165 -24.604  14.005  1.00 13.70 LIG 0.27  C 
ATOM     20  CB  ALA B   1       4.510 -23.288  13.638  1.00 15.23 LIG 0.05  C 
BRANCH 19 21
ATOM     21  N   ALA B   1       5.052 -24.846  15.474  1.00 12.70 LIG-0.07  N 
ATOM     22 H1   ALA B   1       5.841 -24.702  15.860  1.00 12.70 LIG 0.28  HD
ATOM     23 H3   ALA B   1       4.801 -25.688  15.618  1.00 12.70 LIG 0.28  HD
ATOM     24 H2   ALA B   1       4.448 -24.293  15.820  1.00 12.70 LIG 0.28  HD
ENDBRANCH 19 21
ENDBRANCH 17 19
ENDBRANCH 14 15
BRANCH 14 25
ATOM     25  CB  ARG B   2       7.980 -24.829  10.207  1.00 15.26 LIG 0.04  C 
BRANCH 25 26
ATOM     26  CG  ARG B   2       7.595 -26.279   9.996  1.00 16.76 LIG 0.02  C 
BRANCH 26 27
ATOM     27  CD  ARG B   2       7.652 -26.620   8.508  1.00 19.38 LIG 0.14  C 
BRANCH 27 28
ATOM     28  NE  ARG B   2       7.669 -28.074   8.320  1.00 21.76 LIG-0.23  N 
ATOM     29 HE   ARG B   2       8.031 -28.549   8.938  1.00 21.76 LIG 0.18  HD
ATOM     30  CZ  ARG B   2       7.170 -28.714   7.269  1.00 17.86 LIG 0.67  C 
ATOM     31  NH2 ARG B   2       7.230 -30.042   7.225  1.00 21.34 LIG-0.23  N 
ATOM     32  NH1 ARG B   2       6.631 -28.036   6.259  1.00 18.80 LIG-0.23  N 
ATOM     33 2HH2 ARG B   2       6.909 -30.464   6.548  1.00 21.34 LIG 0.17  HD
ATOM     34 1HH2 ARG B   2       7.590 -30.478   7.873  1.00 21.34 LIG 0.17  HD
ATOM     35 2HH1 ARG B   2       6.309 -28.456   5.582  1.00 18.80 LIG 0.17  HD
ATOM     36 1HH1 ARG B   2       6.604 -27.177   6.284  1.00 18.80 LIG 0.17  HD
ENDBRANCH 27 28
ENDBRANCH 26 27
ENDBRANCH 25 26
ENDBRANCH 14 25
ENDBRANCH 11 14
ENDBRANCH 5 10
ENDBRANCH 1 5
BRANCH 3 37
ATOM     37  CA  LYS B   4       7.726 -17.647  12.813  1.00 20.35 LIG 0.18  C 
BRANCH 37 38
ATOM     38  CB  LYS B   4       8.284 -17.380  14.214  1.00 22.30 LIG 0.04  C 
BRANCH 38 39
ATOM     39  CG  LYS B   4       9.616 -18.031  14.528  1.00 24.16 LIG 0.00  C 
BRANCH 39 40
ATOM     40  CD  LYS B   4       9.463 -19.070  15.629  1.00 24.93 LIG 0.03  C 
BRANCH 40 41
ATOM     41  CE  LYS B   4       8.712 -18.516  16.825  1.00 25.90 LIG 0.23  C 
BRANCH 41 42
ATOM     42  NZ  LYS B   4       8.034 -19.596  17.595  1.00 28.03 LIG-0.08  N 
ATOM     43 HZ3  LYS B   4       8.122 -19.440  18.466  1.00 28.03 LIG 0.27  HD
ATOM     44 HZ1  LYS B   4       7.170 -19.614  17.383  1.00 28.03 LIG 0.27  HD
ATOM     45 HZ2  LYS B   4       8.404 -20.380  17.395  1.00 28.03 LIG 0.27  HD
ENDBRANCH 41 42
ENDBRANCH 40 41
ENDBRANCH 39 40
ENDBRANCH 38 39
ENDBRANCH 37 38
BRANCH 37 46
ATOM     46  C   LYS B   4       7.759 -16.377  11.967  1.00 21.64 LIG 0.24  C 
ATOM     47 O    LYS B   4       8.617 -16.223  11.083  1.00 22.31 LIG-0.27  OA
ATOM     48  N   GLN B   5       6.818 -15.480  12.234  1.00 26.13 LIG-0.35  N 
ATOM     49 H    GLN B   5       6.225 -15.580  12.849  1.00 26.13 LIG 0.16  HD
BRANCH 48 50
ATOM     50  CA  GLN B   5       6.705 -14.234  11.504  1.00 25.39 LIG 0.18  C 
BRANCH 50 51
ATOM     51  CB  GLN B   5       5.488 -13.447  12.000  1.00 28.67 LIG 0.04  C 
BRANCH 51 52
ATOM     52  CG  GLN B   5       5.761 -11.965  12.161  1.00 31.68 LIG 0.10  C 
BRANCH 52 53
ATOM     53  CD  GLN B   5       4.831 -11.092  11.345  1.00 33.20 LIG 0.21  C 
ATOM     54 OE1  GLN B   5       3.609 -11.281  11.366  1.00 36.95 LIG-0.27  OA
ATOM     55  NE2 GLN B   5       5.399 -10.138  10.612  1.00 36.99 LIG-0.37  N 
ATOM     56 22HE GLN B   5       4.912  -9.621  10.127  1.00 36.99 LIG 0.16  HD
ATOM     57 21HE GLN B   5       6.253 -10.038  10.623  1.00 36.99 LIG 0.16  HD
ENDBRANCH 52 53
ENDBRANCH 51 52
ENDBRANCH 50 51
BRANCH 50 58
ATOM     58  C   GLN B   5       7.964 -13.426  11.737  1.00 30.80 LIG 0.24  C 
ATOM     59  N   THR B   6       8.549 -12.928  10.651  1.00 32.96 LIG-0.34  N 
ATOM     60 H    THR B   6       8.290 -13.096   9.849  1.00 32.96 LIG 0.16  HD
ATOM     61 O    GLN B   5       8.396 -13.263  12.883  1.00 36.06 LIG-0.27  OA
BRANCH 59 62
ATOM     62  CA  THR B   6       9.707 -12.034  10.732  1.00 38.52 LIG 0.19  C 
BRANCH 62 63
ATOM     63  CB  THR B   6      10.661 -12.261   9.555  1.00 33.66 LIG 0.14  C 
ATOM     64  CG2 THR B   6      12.084 -12.103  10.027  1.00 38.34 LIG 0.04  C 
BRANCH 63 65
ATOM     65 OG1  THR B   6      10.484 -13.591   9.046  1.00 35.05 LIG-0.39  OA
ATOM     66 HG1  THR B   6       9.853 -13.597   8.491  1.00 35.05 LIG 0.21  HD
ENDBRANCH 63 65
ENDBRANCH 62 63
BRANCH 62 67
ATOM     67  C   THR B   6       9.302 -10.563  10.778  1.00 43.93 LIG 0.22  C 
ATOM     68 O    THR B   6       8.117 -10.227  10.707  1.00 48.58 LIG-0.29  OA
ENDBRANCH 62 67
ENDBRANCH 59 62
ENDBRANCH 50 58
ENDBRANCH 48 50
ENDBRANCH 37 46
ENDBRANCH 3 37
TORSDOF 28
ENDMDL
