MODEL 1
USER: ADFR SOLUTION from run 123
USER: SCORE 24.413505 LL:  -3.380 LR: -21.395 RR:   0.000 FEB: -14.832
USER: RMSD 0.774210
USER: SEED 122
USER: STATUS 1 or 2 clusters left
USER: GENES 24
USER: genes 0 Translation |==|  0.59204 0.43234 0.52107
USER: genes 1 Rotation |==|  0.51476 0.50999 0.50618 0.99964
USER: genes 2 Torsion [N]-CA--C-[N] |==|  0.38860
USER: genes 3 Torsion [C]-N--CA-[C] |==|  0.83529
USER: genes 4 Torsion [N]-CA--C-[N] |==|  0.45407
USER: genes 5 Torsion [C]-N--CA-[C] |==|  0.71112
USER: genes 6 Torsion [N]-CA--C-[N] |==|  0.39097
USER: genes 7 Torsion [C]-N--CA-[C] |==|  0.67790
USER: genes 8 Torsion [N]-CA--C-[OXT] |==|  0.44821
USER: genes 9 Torsion [N]-CA--CB-[CG2] |==|  0.72613
USER: genes 10 Torsion [CA]-CB--OG1-[HG1] |==|  0.36384
USER: genes 11 Torsion [N]-CA--CB-[CG] |==|  0.12628
USER: genes 12 Torsion [CA]-CB--CG-[SD] |==|  0.50469
USER: genes 13 Torsion [CB]-CG--SD-[CE] |==|  0.13351
USER: genes 14 Torsion [C]-CA--CB-[CG] |==|  0.33741
USER: genes 15 Torsion [CA]-CB--CG-[CD] |==|  0.17931
USER: genes 16 Torsion [CB]-CG--CD-[NE] |==|  0.78069
USER: genes 17 Torsion [CG]-CD--NE-[CZ] |==|  0.76476
USER: genes 18 Torsion [C]-CA--N-[C] |==|  0.80607
USER: genes 19 Torsion [N]-C--CA-[N] |==|  0.27291
USER: genes 20 Torsion [C]-CA--CB-[CG] |==|  0.44013
USER: genes 21 Torsion [CA]-CB--CG-[CD] |==|  0.88162
USER: genes 22 Torsion [CB]-CG--CD-[OE1] |==|  0.27825
USER: genes 23 Torsion [C]-CA--N-[H1] |==|  0.48333
ROOT
ATOM      1  CA  ARG C   2       8.585  58.724  94.850  1.00 28.55 LIG 0.18  C 
ENDROOT
BRANCH 1 2
ATOM      2  C   ARG C   2       7.455  59.705  94.567  1.00 27.63 LIG 0.24  C 
ATOM      3  N   GLY C   3       7.691  60.623  93.635  1.00 28.98 LIG-0.35  N 
ATOM      4 H    GLY C   3       8.448  60.728  93.244  1.00 28.98 LIG 0.16  HD
ATOM      5 O    ARG C   2       6.392  59.632  95.180  1.00 38.18 LIG-0.27  OA
BRANCH 3 6
ATOM      6  CA  GLY C   3       6.656  61.543  93.200  1.00 28.70 LIG 0.23  C 
BRANCH 6 7
ATOM      7  C   GLY C   3       5.465  60.792  92.634  1.00 32.52 LIG 0.24  C 
ATOM      8  N   MET C   4       4.333  61.480  92.518  1.00 24.44 LIG-0.35  N 
ATOM      9 H    MET C   4       4.259  62.318  92.696  1.00 24.44 LIG 0.16  HD
ATOM     10 O    GLY C   3       5.566  59.607  92.305  1.00 29.09 LIG-0.27  OA
BRANCH 8 11
ATOM     11  CA  MET C   4       3.098  60.845  92.065  1.00 28.81 LIG 0.18  C 
BRANCH 11 12
ATOM     12  C   MET C   4       2.738  61.179  90.623  1.00 31.65 LIG 0.24  C 
ATOM     13  N   THR C   5       2.237  60.173  89.911  1.00 30.68 LIG-0.34  N 
ATOM     14 H    THR C   5       2.231  59.356  90.181  1.00 30.68 LIG 0.16  HD
ATOM     15 O    MET C   4       2.902  62.313  90.175  1.00 27.41 LIG-0.27  OA
BRANCH 13 16
ATOM     16  CA  THR C   5       1.647  60.366  88.592  1.00 35.68 LIG 0.21  C 
BRANCH 16 17
ATOM     17  C   THR C   5       0.166  60.007  88.633  1.00 44.01 LIG 0.20  C 
ATOM     18 OXT  THR C   5      -0.610  60.400  87.762  1.00 37.19 LIG-0.65  OA
ATOM     19 O    THR C   5      -0.287  59.315  89.545  1.00 36.37 LIG-0.65  OA
ENDBRANCH 16 17
BRANCH 16 20
ATOM     20  CB  THR C   5       2.337  59.510  87.517  1.00 39.19 LIG 0.15  C 
ATOM     21  CG2 THR C   5       3.347  60.339  86.748  1.00 34.97 LIG 0.04  C 
BRANCH 20 22
ATOM     22 OG1  THR C   5       3.004  58.404  88.138  1.00 33.33 LIG-0.39  OA
ATOM     23 HG1  THR C   5       2.801  57.694  87.738  1.00 33.33 LIG 0.21  HD
ENDBRANCH 20 22
ENDBRANCH 16 20
ENDBRANCH 13 16
ENDBRANCH 11 12
BRANCH 11 24
ATOM     24  CB  MET C   4       1.931  61.252  92.964  1.00 29.60 LIG 0.04  C 
BRANCH 24 25
ATOM     25  CG  MET C   4       1.863  62.728  93.284  1.00 30.85 LIG 0.08  C 
BRANCH 25 26
ATOM     26 SD   MET C   4       0.480  63.062  94.384  1.00 29.25 LIG-0.17  SA
ATOM     27  CE  MET C   4       0.716  61.797  95.629  1.00 27.46 LIG 0.09  C 
ENDBRANCH 25 26
ENDBRANCH 24 25
ENDBRANCH 11 24
ENDBRANCH 8 11
ENDBRANCH 6 7
ENDBRANCH 3 6
ENDBRANCH 1 2
BRANCH 1 28
ATOM     28  CB  ARG C   2       8.331  57.418  94.088  1.00 31.53 LIG 0.04  C 
BRANCH 28 29
ATOM     29  CG  ARG C   2       9.433  57.011  93.111  1.00 24.41 LIG 0.02  C 
BRANCH 29 30
ATOM     30  CD  ARG C   2      10.742  56.701  93.824  1.00 21.67 LIG 0.14  C 
BRANCH 30 31
ATOM     31  NE  ARG C   2      11.473  57.910  94.195  1.00 22.58 LIG-0.23  N 
ATOM     32  CZ  ARG C   2      12.293  58.567  93.383  1.00 29.43 LIG 0.67  C 
ATOM     33  NH1 ARG C   2      12.486  58.139  92.142  1.00 25.92 LIG-0.23  N 
ATOM     34  NH2 ARG C   2      12.914  59.660  93.808  1.00 25.80 LIG-0.23  N 
ATOM     35 1HH1 ARG C   2      12.079  57.435  91.862  1.00 25.92 LIG 0.17  HD
ATOM     36 2HH1 ARG C   2      13.017  58.566  91.617  1.00 25.92 LIG 0.17  HD
ATOM     37 2HH2 ARG C   2      13.444  60.086  93.283  1.00 25.80 LIG 0.17  HD
ATOM     38 1HH2 ARG C   2      12.785  59.942  94.611  1.00 25.80 LIG 0.17  HD
ATOM     39 HE   ARG C   2      11.366  58.216  94.991  1.00 22.58 LIG 0.18  HD
ENDBRANCH 30 31
ENDBRANCH 29 30
ENDBRANCH 28 29
ENDBRANCH 1 28
BRANCH 1 40
ATOM     40  N   ARG C   2       8.688  58.468  96.282  1.00 27.17 LIG-0.35  N 
ATOM     41 H    ARG C   2       8.448  57.676  96.517  1.00 27.17 LIG 0.16  HD
ATOM     42  C   GLU C   1       9.117  59.392  97.134  1.00 28.98 LIG 0.25  C 
ATOM     43 O    GLU C   1       9.521  60.501  96.778  1.00 27.13 LIG-0.27  OA
BRANCH 42 44
ATOM     44  CA  GLU C   1       9.096  59.003  98.608  1.00 33.23 LIG 0.28  C 
BRANCH 44 45
ATOM     45  CB  GLU C   1       8.600  60.179  99.457  1.00 35.26 LIG 0.05  C 
BRANCH 45 46
ATOM     46  CG  GLU C   1       8.054  59.776 100.819  1.00 36.87 LIG 0.12  C 
BRANCH 46 47
ATOM     47  CD  GLU C   1       7.177  58.537 100.752  1.00 40.37 LIG 0.17  C 
ATOM     48 OE1  GLU C   1       7.671  57.438 101.081  1.00 44.48 LIG-0.65  OA
ATOM     49 OE2  GLU C   1       5.991  58.662 100.377  1.00 35.28 LIG-0.65  OA
ENDBRANCH 46 47
ENDBRANCH 45 46
ENDBRANCH 44 45
BRANCH 44 50
ATOM     50  N   GLU C   1      10.409  58.563  99.061  1.00 29.71 LIG-0.07  N 
ATOM     51 H1   GLU C   1      10.390  58.426  99.940  1.00 29.71 LIG 0.28  HD
ATOM     52 H2   GLU C   1      10.628  57.805  98.648  1.00 29.71 LIG 0.28  HD
ATOM     53 H3   GLU C   1      11.014  59.188  98.872  1.00 29.71 LIG 0.28  HD
ENDBRANCH 44 50
ENDBRANCH 42 44
ENDBRANCH 1 40
TORSDOF 22
ENDMDL
MODEL 2
USER: ADFR SOLUTION from run 57
USER: SCORE 22.890177 LL:  -3.610 LR: -20.078 RR:   0.000 FEB: -13.515
USER: RMSD 3.111676
USER: SEED 56
USER: STATUS searching
USER: GENES 24
USER: genes 0 Translation |==|  0.61181 0.45249 0.54403
USER: genes 1 Rotation |==|  0.54501 0.50760 0.50128 0.99791
USER: genes 2 Torsion [N]-CA--C-[N] |==|  0.48786
USER: genes 3 Torsion [C]-N--CA-[C] |==|  0.84327
USER: genes 4 Torsion [N]-CA--C-[N] |==|  0.50865
USER: genes 5 Torsion [C]-N--CA-[C] |==|  0.85329
USER: genes 6 Torsion [N]-CA--C-[N] |==|  0.34445
USER: genes 7 Torsion [C]-N--CA-[C] |==|  0.80008
USER: genes 8 Torsion [N]-CA--C-[OXT] |==|  0.99190
USER: genes 9 Torsion [N]-CA--CB-[CG2] |==|  0.21133
USER: genes 10 Torsion [CA]-CB--OG1-[HG1] |==|  0.84449
USER: genes 11 Torsion [N]-CA--CB-[CG] |==|  0.65094
USER: genes 12 Torsion [CA]-CB--CG-[SD] |==|  0.90943
USER: genes 13 Torsion [CB]-CG--SD-[CE] |==|  0.40486
USER: genes 14 Torsion [C]-CA--CB-[CG] |==|  0.52759
USER: genes 15 Torsion [CA]-CB--CG-[CD] |==|  0.75963
USER: genes 16 Torsion [CB]-CG--CD-[NE] |==|  0.16543
USER: genes 17 Torsion [CG]-CD--NE-[CZ] |==|  0.59641
USER: genes 18 Torsion [C]-CA--N-[C] |==|  0.79967
USER: genes 19 Torsion [N]-C--CA-[N] |==|  0.26556
USER: genes 20 Torsion [C]-CA--CB-[CG] |==|  0.33058
USER: genes 21 Torsion [CA]-CB--CG-[CD] |==|  0.06921
USER: genes 22 Torsion [CB]-CG--CD-[OE1] |==|  0.65821
USER: genes 23 Torsion [C]-CA--N-[H1] |==|  0.47350
ROOT
ATOM      1  CA  ARG C   2       9.030  59.011  95.367  1.00 28.55 LIG 0.18  C 
ENDROOT
BRANCH 1 2
ATOM      2  C   ARG C   2       7.924  60.045  95.197  1.00 27.63 LIG 0.24  C 
ATOM      3  N   GLY C   3       7.802  60.585  93.989  1.00 28.98 LIG-0.35  N 
ATOM      4 H    GLY C   3       8.340  60.432  93.337  1.00 28.98 LIG 0.16  HD
ATOM      5 O    ARG C   2       7.197  60.347  96.142  1.00 38.18 LIG-0.27  OA
BRANCH 3 6
ATOM      6  CA  GLY C   3       6.719  61.498  93.674  1.00 28.70 LIG 0.23  C 
BRANCH 6 7
ATOM      7  C   GLY C   3       5.371  60.857  93.947  1.00 32.52 LIG 0.24  C 
ATOM      8  N   MET C   4       4.299  61.579  93.635  1.00 24.44 LIG-0.35  N 
ATOM      9 H    MET C   4       4.331  62.347  93.251  1.00 24.44 LIG 0.16  HD
ATOM     10 O    GLY C   3       5.299  59.726  94.434  1.00 29.09 LIG-0.27  OA
BRANCH 8 11
ATOM     11  CA  MET C   4       2.949  61.105  93.928  1.00 28.81 LIG 0.18  C 
BRANCH 11 12
ATOM     12  C   MET C   4       2.666  59.709  93.390  1.00 31.65 LIG 0.24  C 
ATOM     13  N   THR C   5       2.260  58.818  94.292  1.00 30.68 LIG-0.34  N 
ATOM     14 H    THR C   5       2.276  58.961  95.140  1.00 30.68 LIG 0.16  HD
ATOM     15 O    MET C   4       2.804  59.449  92.195  1.00 27.41 LIG-0.27  OA
BRANCH 13 16
ATOM     16  CA  THR C   5       1.747  57.506  93.921  1.00 35.68 LIG 0.21  C 
BRANCH 16 17
ATOM     17  C   THR C   5       0.363  57.651  93.298  1.00 44.01 LIG 0.20  C 
ATOM     18 OXT  THR C   5      -0.188  58.749  93.216  1.00 37.19 LIG-0.65  OA
ATOM     19 O    THR C   5      -0.235  56.668  92.863  1.00 36.37 LIG-0.65  OA
ENDBRANCH 16 17
BRANCH 16 20
ATOM     20  CB  THR C   5       1.654  56.557  95.128  1.00 39.19 LIG 0.15  C 
ATOM     21  CG2 THR C   5       0.457  56.911  95.989  1.00 34.97 LIG 0.04  C 
BRANCH 20 22
ATOM     22 OG1  THR C   5       1.526  55.206  94.668  1.00 33.33 LIG-0.39  OA
ATOM     23 HG1  THR C   5       0.863  55.145  94.157  1.00 33.33 LIG 0.21  HD
ENDBRANCH 20 22
ENDBRANCH 16 20
ENDBRANCH 13 16
ENDBRANCH 11 12
BRANCH 11 24
ATOM     24  CB  MET C   4       1.911  62.068  93.352  1.00 29.60 LIG 0.04  C 
BRANCH 24 25
ATOM     25  CG  MET C   4       0.899  62.579  94.352  1.00 30.85 LIG 0.08  C 
BRANCH 25 26
ATOM     26 SD   MET C   4       0.562  61.323  95.593  1.00 29.25 LIG-0.17  SA
ATOM     27  CE  MET C   4       0.294  62.336  97.045  1.00 27.46 LIG 0.09  C 
ENDBRANCH 25 26
ENDBRANCH 24 25
ENDBRANCH 11 24
ENDBRANCH 8 11
ENDBRANCH 6 7
ENDBRANCH 3 6
ENDBRANCH 1 2
BRANCH 1 28
ATOM     28  CB  ARG C   2       8.755  57.812  94.451  1.00 31.53 LIG 0.04  C 
BRANCH 28 29
ATOM     29  CG  ARG C   2       9.649  56.596  94.687  1.00 24.41 LIG 0.02  C 
BRANCH 29 30
ATOM     30  CD  ARG C   2      10.951  56.685  93.902  1.00 21.67 LIG 0.14  C 
BRANCH 30 31
ATOM     31  NE  ARG C   2      11.734  57.866  94.257  1.00 22.58 LIG-0.23  N 
ATOM     32  CZ  ARG C   2      12.479  58.554  93.400  1.00 29.43 LIG 0.67  C 
ATOM     33  NH1 ARG C   2      12.541  58.187  92.126  1.00 25.92 LIG-0.23  N 
ATOM     34  NH2 ARG C   2      13.157  59.617  93.814  1.00 25.80 LIG-0.23  N 
ATOM     35 1HH1 ARG C   2      12.097  57.503  91.855  1.00 25.92 LIG 0.17  HD
ATOM     36 2HH1 ARG C   2      13.024  58.634  91.572  1.00 25.92 LIG 0.17  HD
ATOM     37 2HH2 ARG C   2      13.639  60.063  93.259  1.00 25.80 LIG 0.17  HD
ATOM     38 1HH2 ARG C   2      13.113  59.860  94.638  1.00 25.80 LIG 0.17  HD
ATOM     39 HE   ARG C   2      11.712  58.132  95.074  1.00 22.58 LIG 0.18  HD
ENDBRANCH 30 31
ENDBRANCH 29 30
ENDBRANCH 28 29
ENDBRANCH 1 28
BRANCH 1 40
ATOM     40  N   ARG C   2       9.115  58.582  96.757  1.00 27.17 LIG-0.35  N 
ATOM     41 H    ARG C   2       8.827  57.784  96.899  1.00 27.17 LIG 0.16  HD
ATOM     42  C   GLU C   1       9.598  59.371  97.710  1.00 28.98 LIG 0.25  C 
ATOM     43 O    GLU C   1      10.070  60.487  97.486  1.00 27.13 LIG-0.27  OA
BRANCH 42 44
ATOM     44  CA  GLU C   1       9.551  58.813  99.128  1.00 33.23 LIG 0.28  C 
BRANCH 44 45
ATOM     45  CB  GLU C   1       9.191  59.924 100.121  1.00 35.26 LIG 0.05  C 
BRANCH 45 46
ATOM     46  CG  GLU C   1       7.902  59.676 100.891  1.00 36.87 LIG 0.12  C 
BRANCH 46 47
ATOM     47  CD  GLU C   1       7.559  58.200 100.994  1.00 40.37 LIG 0.17  C 
ATOM     48 OE1  GLU C   1       6.453  57.813 100.562  1.00 44.48 LIG-0.65  OA
ATOM     49 OE2  GLU C   1       8.398  57.424 101.500  1.00 35.28 LIG-0.65  OA
ENDBRANCH 46 47
ENDBRANCH 45 46
ENDBRANCH 44 45
BRANCH 44 50
ATOM     50  N   GLU C   1      10.815  58.188  99.497  1.00 29.71 LIG-0.07  N 
ATOM     51 H1   GLU C   1      10.810  57.996 100.365  1.00 29.71 LIG 0.28  HD
ATOM     52 H2   GLU C   1      10.924  57.438  99.028  1.00 29.71 LIG 0.28  HD
ATOM     53 H3   GLU C   1      11.485  58.747  99.321  1.00 29.71 LIG 0.28  HD
ENDBRANCH 44 50
ENDBRANCH 42 44
ENDBRANCH 1 40
TORSDOF 22
ENDMDL
MODEL 3
USER: ADFR SOLUTION from run 89
USER: SCORE 22.129126 LL:  -3.185 LR: -19.744 RR:   0.000 FEB: -13.182
USER: RMSD 2.933928
USER: SEED 88
USER: STATUS no improvement in best in 4 clusters for 5 generations
USER: GENES 24
USER: genes 0 Translation |==|  0.52127 0.40251 0.57917
USER: genes 1 Rotation |==|  0.65579 0.55079 0.88037 0.78013
USER: genes 2 Torsion [N]-CA--C-[N] |==|  0.31454
USER: genes 3 Torsion [C]-N--CA-[C] |==|  0.66184
USER: genes 4 Torsion [N]-CA--C-[N] |==|  0.97649
USER: genes 5 Torsion [C]-N--CA-[C] |==|  0.71767
USER: genes 6 Torsion [N]-CA--C-[N] |==|  0.34903
USER: genes 7 Torsion [C]-N--CA-[C] |==|  0.58937
USER: genes 8 Torsion [N]-CA--C-[OXT] |==|  0.82242
USER: genes 9 Torsion [N]-CA--CB-[CG2] |==|  0.63062
USER: genes 10 Torsion [CA]-CB--OG1-[HG1] |==|  0.61479
USER: genes 11 Torsion [N]-CA--CB-[CG] |==|  0.19428
USER: genes 12 Torsion [CA]-CB--CG-[SD] |==|  0.43841
USER: genes 13 Torsion [CB]-CG--SD-[CE] |==|  0.17570
USER: genes 14 Torsion [C]-CA--CB-[CG] |==|  0.80543
USER: genes 15 Torsion [CA]-CB--CG-[CD] |==|  0.68265
USER: genes 16 Torsion [CB]-CG--CD-[NE] |==|  0.60177
USER: genes 17 Torsion [CG]-CD--NE-[CZ] |==|  0.46107
USER: genes 18 Torsion [C]-CA--N-[C] |==|  0.60000
USER: genes 19 Torsion [N]-C--CA-[N] |==|  0.20444
USER: genes 20 Torsion [C]-CA--CB-[CG] |==|  0.19430
USER: genes 21 Torsion [CA]-CB--CG-[CD] |==|  0.04753
USER: genes 22 Torsion [CB]-CG--CD-[OE1] |==|  0.18309
USER: genes 23 Torsion [C]-CA--N-[H1] |==|  0.79902
ROOT
ATOM      1  CA  ARG C   2       6.993  58.299  96.157  1.00 28.55 LIG 0.18  C 
ENDROOT
BRANCH 1 2
ATOM      2  C   ARG C   2       6.180  57.026  95.959  1.00 27.63 LIG 0.24  C 
ATOM      3  N   GLY C   3       4.891  57.094  96.274  1.00 28.98 LIG-0.35  N 
ATOM      4 H    GLY C   3       4.519  57.781  96.633  1.00 28.98 LIG 0.16  HD
ATOM      5 O    ARG C   2       6.711  56.003  95.530  1.00 38.18 LIG-0.27  OA
BRANCH 3 6
ATOM      6  CA  GLY C   3       3.991  55.984  96.026  1.00 28.70 LIG 0.23  C 
BRANCH 6 7
ATOM      7  C   GLY C   3       2.845  56.403  95.123  1.00 32.52 LIG 0.24  C 
ATOM      8  N   MET C   4       2.745  57.701  94.859  1.00 24.44 LIG-0.35  N 
ATOM      9 H    MET C   4       3.310  58.292  95.126  1.00 24.44 LIG 0.16  HD
ATOM     10 O    GLY C   3       2.061  55.564  94.671  1.00 29.09 LIG-0.27  OA
BRANCH 8 11
ATOM     11  CA  MET C   4       1.637  58.237  94.072  1.00 28.81 LIG 0.18  C 
BRANCH 11 12
ATOM     12  C   MET C   4       2.011  58.542  92.627  1.00 31.65 LIG 0.24  C 
ATOM     13  N   THR C   5       1.242  57.969  91.704  1.00 30.68 LIG-0.34  N 
ATOM     14 H    THR C   5       0.656  57.364  91.882  1.00 30.68 LIG 0.16  HD
ATOM     15 O    MET C   4       2.960  59.278  92.360  1.00 27.41 LIG-0.27  OA
BRANCH 13 16
ATOM     16  CA  THR C   5       1.324  58.318  90.292  1.00 35.68 LIG 0.21  C 
BRANCH 16 17
ATOM     17  C   THR C   5      -0.049  58.179  89.646  1.00 44.01 LIG 0.20  C 
ATOM     18 OXT  THR C   5      -0.611  57.087  89.570  1.00 37.19 LIG-0.65  OA
ATOM     19 O    THR C   5      -0.627  59.162  89.183  1.00 36.37 LIG-0.65  OA
ENDBRANCH 16 17
BRANCH 16 20
ATOM     20  CB  THR C   5       2.325  57.430  89.532  1.00 39.19 LIG 0.15  C 
ATOM     21  CG2 THR C   5       3.233  58.279  88.663  1.00 34.97 LIG 0.04  C 
BRANCH 20 22
ATOM     22 OG1  THR C   5       3.118  56.690  90.468  1.00 33.33 LIG-0.39  OA
ATOM     23 HG1  THR C   5       3.917  56.678  90.211  1.00 33.33 LIG 0.21  HD
ENDBRANCH 20 22
ENDBRANCH 16 20
ENDBRANCH 13 16
ENDBRANCH 11 12
BRANCH 11 24
ATOM     24  CB  MET C   4       1.097  59.513  94.715  1.00 29.60 LIG 0.04  C 
BRANCH 24 25
ATOM     25  CG  MET C   4       2.023  60.705  94.631  1.00 30.85 LIG 0.08  C 
BRANCH 25 26
ATOM     26 SD   MET C   4       1.090  62.232  94.805  1.00 29.25 LIG-0.17  SA
ATOM     27  CE  MET C   4       0.449  62.057  96.468  1.00 27.46 LIG 0.09  C 
ENDBRANCH 25 26
ENDBRANCH 24 25
ENDBRANCH 11 24
ENDBRANCH 8 11
ENDBRANCH 6 7
ENDBRANCH 3 6
ENDBRANCH 1 2
BRANCH 1 28
ATOM     28  CB  ARG C   2       7.690  58.671  94.843  1.00 31.53 LIG 0.04  C 
BRANCH 28 29
ATOM     29  CG  ARG C   2       8.825  57.738  94.424  1.00 24.41 LIG 0.02  C 
BRANCH 29 30
ATOM     30  CD  ARG C   2      10.177  58.439  94.444  1.00 21.67 LIG 0.14  C 
BRANCH 30 31
ATOM     31  NE  ARG C   2      11.047  58.001  93.357  1.00 22.58 LIG-0.23  N 
ATOM     32  CZ  ARG C   2      12.156  58.631  92.986  1.00 29.43 LIG 0.67  C 
ATOM     33  NH1 ARG C   2      12.542  59.730  93.622  1.00 25.92 LIG-0.23  N 
ATOM     34  NH2 ARG C   2      12.886  58.156  91.985  1.00 25.80 LIG-0.23  N 
ATOM     35 1HH1 ARG C   2      12.074  60.035  94.275  1.00 25.92 LIG 0.17  HD
ATOM     36 2HH1 ARG C   2      13.261  60.137  93.380  1.00 25.92 LIG 0.17  HD
ATOM     37 2HH2 ARG C   2      13.604  58.563  91.746  1.00 25.80 LIG 0.17  HD
ATOM     38 1HH2 ARG C   2      12.640  57.440  91.577  1.00 25.80 LIG 0.17  HD
ATOM     39 HE   ARG C   2      10.827  57.289  92.928  1.00 22.58 LIG 0.18  HD
ENDBRANCH 30 31
ENDBRANCH 29 30
ENDBRANCH 28 29
ENDBRANCH 1 28
BRANCH 1 40
ATOM     40  N   ARG C   2       7.973  58.115  97.221  1.00 27.17 LIG-0.35  N 
ATOM     41 H    ARG C   2       8.315  57.326  97.253  1.00 27.17 LIG 0.16  HD
ATOM     42  C   GLU C   1       8.295  59.094  98.058  1.00 28.98 LIG 0.25  C 
ATOM     43 O    GLU C   1       7.849  60.238  97.962  1.00 27.13 LIG-0.27  OA
BRANCH 42 44
ATOM     44  CA  GLU C   1       9.277  58.729  99.167  1.00 33.23 LIG 0.28  C 
BRANCH 44 45
ATOM     45  CB  GLU C   1       9.242  59.788 100.273  1.00 35.26 LIG 0.05  C 
BRANCH 45 46
ATOM     46  CG  GLU C   1       7.958  59.791 101.091  1.00 36.87 LIG 0.12  C 
BRANCH 46 47
ATOM     47  CD  GLU C   1       7.162  58.507 100.930  1.00 40.37 LIG 0.17  C 
ATOM     48 OE1  GLU C   1       7.653  57.443 101.360  1.00 44.48 LIG-0.65  OA
ATOM     49 OE2  GLU C   1       6.041  58.563 100.379  1.00 35.28 LIG-0.65  OA
ENDBRANCH 46 47
ENDBRANCH 45 46
ENDBRANCH 44 45
BRANCH 44 50
ATOM     50  N   GLU C   1      10.631  58.575  98.649  1.00 29.71 LIG-0.07  N 
ATOM     51 H1   GLU C   1      10.685  57.823  98.178  1.00 29.71 LIG 0.28  HD
ATOM     52 H2   GLU C   1      10.830  59.268  98.126  1.00 29.71 LIG 0.28  HD
ATOM     53 H3   GLU C   1      11.206  58.541  99.328  1.00 29.71 LIG 0.28  HD
ENDBRANCH 44 50
ENDBRANCH 42 44
ENDBRANCH 1 40
TORSDOF 22
ENDMDL
MODEL 4
USER: ADFR SOLUTION from run 152
USER: SCORE 22.129322 LL:  -3.191 LR: -19.744 RR:   0.000 FEB: -13.182
USER: RMSD 3.253604
USER: SEED 151
USER: STATUS no improvement in best in 2 clusters for 5 generations
USER: GENES 24
USER: genes 0 Translation |==|  0.59303 0.47838 0.53731
USER: genes 1 Rotation |==|  0.70352 0.30737 0.58922 0.90437
USER: genes 2 Torsion [N]-CA--C-[N] |==|  0.62886
USER: genes 3 Torsion [C]-N--CA-[C] |==|  0.79781
USER: genes 4 Torsion [N]-CA--C-[N] |==|  0.45619
USER: genes 5 Torsion [C]-N--CA-[C] |==|  0.66474
USER: genes 6 Torsion [N]-CA--C-[N] |==|  0.43573
USER: genes 7 Torsion [C]-N--CA-[C] |==|  0.63344
USER: genes 8 Torsion [N]-CA--C-[OXT] |==|  0.00771
USER: genes 9 Torsion [N]-CA--CB-[CG2] |==|  0.90650
USER: genes 10 Torsion [CA]-CB--OG1-[HG1] |==|  0.68689
USER: genes 11 Torsion [N]-CA--CB-[CG] |==|  0.24878
USER: genes 12 Torsion [CA]-CB--CG-[SD] |==|  0.63158
USER: genes 13 Torsion [CB]-CG--SD-[CE] |==|  0.87258
USER: genes 14 Torsion [C]-CA--CB-[CG] |==|  0.62600
USER: genes 15 Torsion [CA]-CB--CG-[CD] |==|  0.74999
USER: genes 16 Torsion [CB]-CG--CD-[NE] |==|  0.19213
USER: genes 17 Torsion [CG]-CD--NE-[CZ] |==|  0.72333
USER: genes 18 Torsion [C]-CA--N-[C] |==|  0.13889
USER: genes 19 Torsion [N]-C--CA-[N] |==|  0.95404
USER: genes 20 Torsion [C]-CA--CB-[CG] |==|  0.49744
USER: genes 21 Torsion [CA]-CB--CG-[CD] |==|  0.94304
USER: genes 22 Torsion [CB]-CG--CD-[OE1] |==|  0.37506
USER: genes 23 Torsion [C]-CA--N-[H1] |==|  0.92444
ROOT
ATOM      1  CA  ARG C   2       8.607  59.380  95.215  1.00 28.55 LIG 0.18  C 
ENDROOT
BRANCH 1 2
ATOM      2  C   ARG C   2       7.498  60.313  94.748  1.00 27.63 LIG 0.24  C 
ATOM      3  N   GLY C   3       7.686  60.914  93.578  1.00 28.98 LIG-0.35  N 
ATOM      4 H    GLY C   3       8.409  60.855  93.118  1.00 28.98 LIG 0.16  HD
ATOM      5 O    ARG C   2       6.492  60.484  95.434  1.00 38.18 LIG-0.27  OA
BRANCH 3 6
ATOM      6  CA  GLY C   3       6.655  61.738  92.976  1.00 28.70 LIG 0.23  C 
BRANCH 6 7
ATOM      7  C   GLY C   3       5.522  60.885  92.438  1.00 32.52 LIG 0.24  C 
ATOM      8  N   MET C   4       4.386  61.517  92.160  1.00 24.44 LIG-0.35  N 
ATOM      9 H    MET C   4       4.281  62.368  92.222  1.00 24.44 LIG 0.16  HD
ATOM     10 O    GLY C   3       5.670  59.671  92.275  1.00 29.09 LIG-0.27  OA
BRANCH 8 11
ATOM     11  CA  MET C   4       3.198  60.792  91.717  1.00 28.81 LIG 0.18  C 
BRANCH 11 12
ATOM     12  C   MET C   4       2.695  61.232  90.348  1.00 31.65 LIG 0.24  C 
ATOM     13  N   THR C   5       1.959  60.337  89.693  1.00 30.68 LIG-0.34  N 
ATOM     14 H    THR C   5       1.871  59.519  89.945  1.00 30.68 LIG 0.16  HD
ATOM     15 O    MET C   4       2.959  62.349  89.904  1.00 27.41 LIG-0.27  OA
BRANCH 13 16
ATOM     16  CA  THR C   5       1.227  60.665  88.477  1.00 35.68 LIG 0.21  C 
BRANCH 16 17
ATOM     17  C   THR C   5      -0.203  60.150  88.581  1.00 44.01 LIG 0.20  C 
ATOM     18 OXT  THR C   5      -0.610  59.600  89.604  1.00 37.19 LIG-0.65  OA
ATOM     19 O    THR C   5      -0.985  60.274  87.639  1.00 36.37 LIG-0.65  OA
ENDBRANCH 16 17
BRANCH 16 20
ATOM     20  CB  THR C   5       1.885  60.061  87.224  1.00 39.19 LIG 0.15  C 
ATOM     21  CG2 THR C   5       3.393  60.028  87.380  1.00 34.97 LIG 0.04  C 
BRANCH 20 22
ATOM     22 OG1  THR C   5       1.397  58.729  87.020  1.00 33.33 LIG-0.39  OA
ATOM     23 HG1  THR C   5       2.021  58.181  87.143  1.00 33.33 LIG 0.21  HD
ENDBRANCH 20 22
ENDBRANCH 16 20
ENDBRANCH 13 16
ENDBRANCH 11 12
BRANCH 11 24
ATOM     24  CB  MET C   4       2.065  60.959  92.728  1.00 29.60 LIG 0.04  C 
BRANCH 24 25
ATOM     25  CG  MET C   4       1.169  62.152  92.484  1.00 30.85 LIG 0.08  C 
BRANCH 25 26
ATOM     26 SD   MET C   4       0.918  63.064  94.013  1.00 29.25 LIG-0.17  SA
ATOM     27  CE  MET C   4       0.566  61.732  95.156  1.00 27.46 LIG 0.09  C 
ENDBRANCH 25 26
ENDBRANCH 24 25
ENDBRANCH 11 24
ENDBRANCH 8 11
ENDBRANCH 6 7
ENDBRANCH 3 6
ENDBRANCH 1 2
BRANCH 1 28
ATOM     28  CB  ARG C   2       9.583  59.126  94.060  1.00 31.53 LIG 0.04  C 
BRANCH 28 29
ATOM     29  CG  ARG C   2       9.994  57.668  93.865  1.00 24.41 LIG 0.02  C 
BRANCH 29 30
ATOM     30  CD  ARG C   2      11.236  57.313  94.671  1.00 21.67 LIG 0.14  C 
BRANCH 30 31
ATOM     31  NE  ARG C   2      10.980  57.297  96.109  1.00 22.58 LIG-0.23  N 
ATOM     32  CZ  ARG C   2      11.286  58.292  96.934  1.00 29.43 LIG 0.67  C 
ATOM     33  NH1 ARG C   2      11.856  59.395  96.465  1.00 25.92 LIG-0.23  N 
ATOM     34  NH2 ARG C   2      11.014  58.188  98.228  1.00 25.80 LIG-0.23  N 
ATOM     35 1HH1 ARG C   2      12.027  59.466  95.625  1.00 25.92 LIG 0.17  HD
ATOM     36 2HH1 ARG C   2      12.054  60.038  97.001  1.00 25.92 LIG 0.17  HD
ATOM     37 2HH2 ARG C   2      11.212  58.832  98.762  1.00 25.80 LIG 0.17  HD
ATOM     38 1HH2 ARG C   2      10.639  57.476  98.533  1.00 25.80 LIG 0.17  HD
ATOM     39 HE   ARG C   2      10.608  56.598  96.443  1.00 22.58 LIG 0.18  HD
ENDBRANCH 30 31
ENDBRANCH 29 30
ENDBRANCH 28 29
ENDBRANCH 1 28
BRANCH 1 40
ATOM     40  N   ARG C   2       8.045  58.123  95.694  1.00 27.17 LIG-0.35  N 
ATOM     41 H    ARG C   2       8.333  57.879  96.467  1.00 27.17 LIG 0.16  HD
ATOM     42  C   GLU C   1       7.166  57.427  94.981  1.00 28.98 LIG 0.25  C 
ATOM     43 O    GLU C   1       6.711  57.818  93.905  1.00 27.13 LIG-0.27  OA
BRANCH 42 44
ATOM     44  CA  GLU C   1       6.728  56.094  95.577  1.00 33.23 LIG 0.28  C 
BRANCH 44 45
ATOM     45  CB  GLU C   1       5.298  56.203  96.118  1.00 35.26 LIG 0.05  C 
BRANCH 45 46
ATOM     46  CG  GLU C   1       4.759  54.911  96.716  1.00 36.87 LIG 0.12  C 
BRANCH 46 47
ATOM     47  CD  GLU C   1       5.511  53.684  96.229  1.00 40.37 LIG 0.17  C 
ATOM     48 OE1  GLU C   1       5.845  52.818  97.064  1.00 44.48 LIG-0.65  OA
ATOM     49 OE2  GLU C   1       5.764  53.583  95.009  1.00 35.28 LIG-0.65  OA
ENDBRANCH 46 47
ENDBRANCH 45 46
ENDBRANCH 44 45
BRANCH 44 50
ATOM     50  N   GLU C   1       7.639  55.654  96.626  1.00 29.71 LIG-0.07  N 
ATOM     51 H1   GLU C   1       8.449  55.990  96.476  1.00 29.71 LIG 0.28  HD
ATOM     52 H2   GLU C   1       7.342  55.937  97.416  1.00 29.71 LIG 0.28  HD
ATOM     53 H3   GLU C   1       7.683  54.765  96.627  1.00 29.71 LIG 0.28  HD
ENDBRANCH 44 50
ENDBRANCH 42 44
ENDBRANCH 1 40
TORSDOF 22
ENDMDL
MODEL 5
USER: ADFR SOLUTION from run 102
USER: SCORE 21.667845 LL:  -3.051 LR: -19.696 RR:   0.000 FEB: -13.133
USER: RMSD 2.669210
USER: SEED 101
USER: STATUS no improvement in best in 6 clusters for 5 generations
USER: GENES 24
USER: genes 0 Translation |==|  0.58120 0.38714 0.52900
USER: genes 1 Rotation |==|  0.49998 0.55163 0.62523 0.98130
USER: genes 2 Torsion [N]-CA--C-[N] |==|  0.46913
USER: genes 3 Torsion [C]-N--CA-[C] |==|  0.34987
USER: genes 4 Torsion [N]-CA--C-[N] |==|  0.27000
USER: genes 5 Torsion [C]-N--CA-[C] |==|  0.66950
USER: genes 6 Torsion [N]-CA--C-[N] |==|  0.87843
USER: genes 7 Torsion [C]-N--CA-[C] |==|  0.71480
USER: genes 8 Torsion [N]-CA--C-[OXT] |==|  0.93504
USER: genes 9 Torsion [N]-CA--CB-[CG2] |==|  0.99517
USER: genes 10 Torsion [CA]-CB--OG1-[HG1] |==|  0.71683
USER: genes 11 Torsion [N]-CA--CB-[CG] |==|  0.62843
USER: genes 12 Torsion [CA]-CB--CG-[SD] |==|  0.28629
USER: genes 13 Torsion [CB]-CG--SD-[CE] |==|  0.79085
USER: genes 14 Torsion [C]-CA--CB-[CG] |==|  0.32860
USER: genes 15 Torsion [CA]-CB--CG-[CD] |==|  0.26048
USER: genes 16 Torsion [CB]-CG--CD-[NE] |==|  0.76931
USER: genes 17 Torsion [CG]-CD--NE-[CZ] |==|  0.72741
USER: genes 18 Torsion [C]-CA--N-[C] |==|  0.79693
USER: genes 19 Torsion [N]-C--CA-[N] |==|  0.21590
USER: genes 20 Torsion [C]-CA--CB-[CG] |==|  0.38050
USER: genes 21 Torsion [CA]-CB--CG-[CD] |==|  0.90396
USER: genes 22 Torsion [CB]-CG--CD-[OE1] |==|  0.26582
USER: genes 23 Torsion [C]-CA--N-[H1] |==|  0.73376
ROOT
ATOM      1  CA  ARG C   2       8.341  58.080  95.028  1.00 28.55 LIG 0.18  C 
ENDROOT
BRANCH 1 2
ATOM      2  C   ARG C   2       6.856  58.398  94.919  1.00 27.63 LIG 0.24  C 
ATOM      3  N   GLY C   3       6.406  58.704  93.707  1.00 28.98 LIG-0.35  N 
ATOM      4 H    GLY C   3       6.908  58.791  93.015  1.00 28.98 LIG 0.16  HD
ATOM      5 O    ARG C   2       6.133  58.368  95.913  1.00 38.18 LIG-0.27  OA
BRANCH 3 6
ATOM      6  CA  GLY C   3       4.993  58.918  93.455  1.00 28.70 LIG 0.23  C 
BRANCH 6 7
ATOM      7  C   GLY C   3       4.756  60.263  92.793  1.00 32.52 LIG 0.24  C 
ATOM      8  N   MET C   4       4.630  60.257  91.470  1.00 24.44 LIG-0.35  N 
ATOM      9 H    MET C   4       4.627  59.544  90.990  1.00 24.44 LIG 0.16  HD
ATOM     10 O    GLY C   3       4.688  61.293  93.468  1.00 29.09 LIG-0.27  OA
BRANCH 8 11
ATOM     11  CA  MET C   4       4.483  61.497  90.712  1.00 28.81 LIG 0.18  C 
BRANCH 11 12
ATOM     12  C   MET C   4       3.174  61.583  89.938  1.00 31.65 LIG 0.24  C 
ATOM     13  N   THR C   5       2.817  60.476  89.292  1.00 30.68 LIG-0.34  N 
ATOM     14 H    THR C   5       3.333  59.795  89.194  1.00 30.68 LIG 0.16  HD
ATOM     15 O    MET C   4       2.506  62.617  89.935  1.00 27.41 LIG-0.27  OA
BRANCH 13 16
ATOM     16  CA  THR C   5       1.503  60.315  88.682  1.00 35.68 LIG 0.21  C 
BRANCH 16 17
ATOM     17  C   THR C   5       0.631  59.429  89.564  1.00 44.01 LIG 0.20  C 
ATOM     18 OXT  THR C   5       1.129  58.632  90.359  1.00 37.19 LIG-0.65  OA
ATOM     19 O    THR C   5      -0.597  59.492  89.498  1.00 36.37 LIG-0.65  OA
ENDBRANCH 16 17
BRANCH 16 20
ATOM     20  CB  THR C   5       1.587  59.693  87.278  1.00 39.19 LIG 0.15  C 
ATOM     21  CG2 THR C   5       3.033  59.454  86.890  1.00 34.97 LIG 0.04  C 
BRANCH 20 22
ATOM     22 OG1  THR C   5       0.877  58.449  87.261  1.00 33.33 LIG-0.39  OA
ATOM     23 HG1  THR C   5       1.424  57.813  87.303  1.00 33.33 LIG 0.21  HD
ENDBRANCH 20 22
ENDBRANCH 16 20
ENDBRANCH 13 16
ENDBRANCH 11 12
BRANCH 11 24
ATOM     24  CB  MET C   4       5.641  61.659  89.728  1.00 29.60 LIG 0.04  C 
BRANCH 24 25
ATOM     25  CG  MET C   4       6.271  63.033  89.714  1.00 30.85 LIG 0.08  C 
BRANCH 25 26
ATOM     26 SD   MET C   4       7.832  63.011  90.605  1.00 29.25 LIG-0.17  SA
ATOM     27  CE  MET C   4       7.261  62.962  92.301  1.00 27.46 LIG 0.09  C 
ENDBRANCH 25 26
ENDBRANCH 24 25
ENDBRANCH 11 24
ENDBRANCH 8 11
ENDBRANCH 6 7
ENDBRANCH 3 6
ENDBRANCH 1 2
BRANCH 1 28
ATOM     28  CB  ARG C   2       8.631  56.745  94.331  1.00 31.53 LIG 0.04  C 
BRANCH 28 29
ATOM     29  CG  ARG C   2       9.592  56.827  93.146  1.00 24.41 LIG 0.02  C 
BRANCH 29 30
ATOM     30  CD  ARG C   2      11.031  56.550  93.559  1.00 21.67 LIG 0.14  C 
BRANCH 30 31
ATOM     31  NE  ARG C   2      11.692  57.733  94.103  1.00 22.58 LIG-0.23  N 
ATOM     32  CZ  ARG C   2      12.498  58.526  93.407  1.00 29.43 LIG 0.67  C 
ATOM     33  NH1 ARG C   2      12.742  58.271  92.127  1.00 25.92 LIG-0.23  N 
ATOM     34  NH2 ARG C   2      13.053  59.583  93.987  1.00 25.80 LIG-0.23  N 
ATOM     35 1HH1 ARG C   2      12.377  57.591  91.748  1.00 25.92 LIG 0.17  HD
ATOM     36 2HH1 ARG C   2      13.264  58.786  91.678  1.00 25.92 LIG 0.17  HD
ATOM     37 2HH2 ARG C   2      13.574  60.097  93.536  1.00 25.80 LIG 0.17  HD
ATOM     38 1HH2 ARG C   2      12.890  59.753  94.814  1.00 25.80 LIG 0.17  HD
ATOM     39 HE   ARG C   2      11.550  57.928  94.928  1.00 22.58 LIG 0.18  HD
ENDBRANCH 30 31
ENDBRANCH 29 30
ENDBRANCH 28 29
ENDBRANCH 1 28
BRANCH 1 40
ATOM     40  N   ARG C   2       8.746  58.023  96.428  1.00 27.17 LIG-0.35  N 
ATOM     41 H    ARG C   2       8.899  57.228  96.719  1.00 27.17 LIG 0.16  HD
ATOM     42  C   GLU C   1       8.863  59.116  97.172  1.00 28.98 LIG 0.25  C 
ATOM     43 O    GLU C   1       8.706  60.255  96.727  1.00 27.13 LIG-0.27  OA
BRANCH 42 44
ATOM     44  CA  GLU C   1       9.219  58.892  98.638  1.00 33.23 LIG 0.28  C 
BRANCH 44 45
ATOM     45  CB  GLU C   1       8.824  60.117  99.471  1.00 35.26 LIG 0.05  C 
BRANCH 45 46
ATOM     46  CG  GLU C   1       8.157  59.778 100.796  1.00 36.87 LIG 0.12  C 
BRANCH 46 47
ATOM     47  CD  GLU C   1       7.289  58.535 100.712  1.00 40.37 LIG 0.17  C 
ATOM     48 OE1  GLU C   1       7.780  57.440 101.058  1.00 44.48 LIG-0.65  OA
ATOM     49 OE2  GLU C   1       6.113  58.652 100.305  1.00 35.28 LIG-0.65  OA
ENDBRANCH 46 47
ENDBRANCH 45 46
ENDBRANCH 44 45
BRANCH 44 50
ATOM     50  N   GLU C   1      10.637  58.598  98.802  1.00 29.71 LIG-0.07  N 
ATOM     51 H1   GLU C   1      10.756  57.717  98.834  1.00 29.71 LIG 0.28  HD
ATOM     52 H2   GLU C   1      11.092  58.934  98.114  1.00 29.71 LIG 0.28  HD
ATOM     53 H3   GLU C   1      10.931  58.964  99.559  1.00 29.71 LIG 0.28  HD
ENDBRANCH 44 50
ENDBRANCH 42 44
ENDBRANCH 1 40
TORSDOF 22
ENDMDL
MODEL 6
USER: ADFR SOLUTION from run 166
USER: SCORE 22.897906 LL:  -3.610 LR: -19.648 RR:   0.000 FEB: -13.085
USER: RMSD 2.135432
USER: SEED 165
USER: STATUS no improvement in best in 2 clusters for 5 generations
USER: GENES 24
USER: genes 0 Translation |==|  0.59051 0.44886 0.52456
USER: genes 1 Rotation |==|  0.52483 0.51102 0.51714 0.99897
USER: genes 2 Torsion [N]-CA--C-[N] |==|  0.40398
USER: genes 3 Torsion [C]-N--CA-[C] |==|  0.82460
USER: genes 4 Torsion [N]-CA--C-[N] |==|  0.48055
USER: genes 5 Torsion [C]-N--CA-[C] |==|  0.69326
USER: genes 6 Torsion [N]-CA--C-[N] |==|  0.40553
USER: genes 7 Torsion [C]-N--CA-[C] |==|  0.64935
USER: genes 8 Torsion [N]-CA--C-[OXT] |==|  0.97853
USER: genes 9 Torsion [N]-CA--CB-[CG2] |==|  0.76600
USER: genes 10 Torsion [CA]-CB--OG1-[HG1] |==|  0.22857
USER: genes 11 Torsion [N]-CA--CB-[CG] |==|  0.77980
USER: genes 12 Torsion [CA]-CB--CG-[SD] |==|  0.39267
USER: genes 13 Torsion [CB]-CG--SD-[CE] |==|  0.04296
USER: genes 14 Torsion [C]-CA--CB-[CG] |==|  0.40456
USER: genes 15 Torsion [CA]-CB--CG-[CD] |==|  0.22428
USER: genes 16 Torsion [CB]-CG--CD-[NE] |==|  0.09194
USER: genes 17 Torsion [CG]-CD--NE-[CZ] |==|  0.24588
USER: genes 18 Torsion [C]-CA--N-[C] |==|  0.82169
USER: genes 19 Torsion [N]-C--CA-[N] |==|  0.22125
USER: genes 20 Torsion [C]-CA--CB-[CG] |==|  0.38643
USER: genes 21 Torsion [CA]-CB--CG-[CD] |==|  0.98165
USER: genes 22 Torsion [CB]-CG--CD-[OE1] |==|  0.21757
USER: genes 23 Torsion [C]-CA--N-[H1] |==|  0.21981
ROOT
ATOM      1  CA  ARG C   2       8.551  58.959  94.929  1.00 28.55 LIG 0.18  C 
ENDROOT
BRANCH 1 2
ATOM      2  C   ARG C   2       7.378  59.902  94.689  1.00 27.63 LIG 0.24  C 
ATOM      3  N   GLY C   3       7.529  60.794  93.716  1.00 28.98 LIG-0.35  N 
ATOM      4 H    GLY C   3       8.257  60.905  93.273  1.00 28.98 LIG 0.16  HD
ATOM      5 O    ARG C   2       6.359  59.821  95.372  1.00 38.18 LIG-0.27  OA
BRANCH 3 6
ATOM      6  CA  GLY C   3       6.443  61.672  93.320  1.00 28.70 LIG 0.23  C 
BRANCH 6 7
ATOM      7  C   GLY C   3       5.275  60.878  92.768  1.00 32.52 LIG 0.24  C 
ATOM      8  N   MET C   4       4.165  61.561  92.505  1.00 24.44 LIG-0.35  N 
ATOM      9 H    MET C   4       4.096  62.415  92.584  1.00 24.44 LIG 0.16  HD
ATOM     10 O    GLY C   3       5.373  59.662  92.580  1.00 29.09 LIG-0.27  OA
BRANCH 8 11
ATOM     11  CA  MET C   4       2.948  60.895  92.050  1.00 28.81 LIG 0.18  C 
BRANCH 11 12
ATOM     12  C   MET C   4       2.599  61.196  90.598  1.00 31.65 LIG 0.24  C 
ATOM     13  N   THR C   5       2.026  60.199  89.928  1.00 30.68 LIG-0.34  N 
ATOM     14 H    THR C   5       1.967  59.395  90.231  1.00 30.68 LIG 0.16  HD
ATOM     15 O    MET C   4       2.836  62.298  90.104  1.00 27.41 LIG-0.27  OA
BRANCH 13 16
ATOM     16  CA  THR C   5       1.439  60.379  88.607  1.00 35.68 LIG 0.21  C 
BRANCH 16 17
ATOM     17  C   THR C   5      -0.002  59.882  88.611  1.00 44.01 LIG 0.20  C 
ATOM     18 OXT  THR C   5      -0.468  59.284  89.580  1.00 37.19 LIG-0.65  OA
ATOM     19 O    THR C   5      -0.732  60.067  87.637  1.00 36.37 LIG-0.65  OA
ENDBRANCH 16 17
BRANCH 16 20
ATOM     20  CB  THR C   5       2.223  59.630  87.517  1.00 39.19 LIG 0.15  C 
ATOM     21  CG2 THR C   5       3.393  60.466  87.036  1.00 34.97 LIG 0.04  C 
BRANCH 20 22
ATOM     22 OG1  THR C   5       2.708  58.388  88.041  1.00 33.33 LIG-0.39  OA
ATOM     23 HG1  THR C   5       2.099  57.812  88.008  1.00 33.33 LIG 0.21  HD
ENDBRANCH 20 22
ENDBRANCH 16 20
ENDBRANCH 13 16
ENDBRANCH 11 12
BRANCH 11 24
ATOM     24  CB  MET C   4       1.763  61.294  92.928  1.00 29.60 LIG 0.04  C 
BRANCH 24 25
ATOM     25  CG  MET C   4       1.686  60.572  94.253  1.00 30.85 LIG 0.08  C 
BRANCH 25 26
ATOM     26 SD   MET C   4       1.144  61.700  95.545  1.00 29.25 LIG-0.17  SA
ATOM     27  CE  MET C   4       0.498  63.056  94.570  1.00 27.46 LIG 0.09  C 
ENDBRANCH 25 26
ENDBRANCH 24 25
ENDBRANCH 11 24
ENDBRANCH 8 11
ENDBRANCH 6 7
ENDBRANCH 3 6
ENDBRANCH 1 2
BRANCH 1 28
ATOM     28  CB  ARG C   2       8.350  57.676  94.114  1.00 31.53 LIG 0.04  C 
BRANCH 28 29
ATOM     29  CG  ARG C   2       9.631  57.043  93.574  1.00 24.41 LIG 0.02  C 
BRANCH 29 30
ATOM     30  CD  ARG C   2      10.349  56.215  94.633  1.00 21.67 LIG 0.14  C 
BRANCH 30 31
ATOM     31  NE  ARG C   2       9.421  55.575  95.560  1.00 22.58 LIG-0.23  N 
ATOM     32  CZ  ARG C   2       8.875  54.379  95.367  1.00 29.43 LIG 0.67  C 
ATOM     33  NH1 ARG C   2       9.170  53.681  94.277  1.00 25.92 LIG-0.23  N 
ATOM     34  NH2 ARG C   2       8.042  53.876  96.268  1.00 25.80 LIG-0.23  N 
ATOM     35 1HH1 ARG C   2       9.715  54.003  93.695  1.00 25.92 LIG 0.17  HD
ATOM     36 2HH1 ARG C   2       8.816  52.907  94.153  1.00 25.92 LIG 0.17  HD
ATOM     37 2HH2 ARG C   2       7.690  53.102  96.143  1.00 25.80 LIG 0.17  HD
ATOM     38 1HH2 ARG C   2       7.855  54.324  96.978  1.00 25.80 LIG 0.17  HD
ATOM     39 HE   ARG C   2       9.213  55.999  96.279  1.00 22.58 LIG 0.18  HD
ENDBRANCH 30 31
ENDBRANCH 29 30
ENDBRANCH 28 29
ENDBRANCH 1 28
BRANCH 1 40
ATOM     40  N   ARG C   2       8.670  58.649  96.348  1.00 27.17 LIG-0.35  N 
ATOM     41 H    ARG C   2       8.540  57.821  96.541  1.00 27.17 LIG 0.16  HD
ATOM     42  C   GLU C   1       8.956  59.581  97.251  1.00 28.98 LIG 0.25  C 
ATOM     43 O    GLU C   1       9.206  60.751  96.956  1.00 27.13 LIG-0.27  OA
BRANCH 42 44
ATOM     44  CA  GLU C   1       8.971  59.120  98.705  1.00 33.23 LIG 0.28  C 
BRANCH 44 45
ATOM     45  CB  GLU C   1       8.748  60.314  99.639  1.00 35.26 LIG 0.05  C 
BRANCH 45 46
ATOM     46  CG  GLU C   1       7.827  60.020 100.815  1.00 36.87 LIG 0.12  C 
BRANCH 46 47
ATOM     47  CD  GLU C   1       7.192  58.643 100.728  1.00 40.37 LIG 0.17  C 
ATOM     48 OE1  GLU C   1       7.878  57.649 101.047  1.00 44.48 LIG-0.65  OA
ATOM     49 OE2  GLU C   1       6.005  58.553 100.347  1.00 35.28 LIG-0.65  OA
ENDBRANCH 46 47
ENDBRANCH 45 46
ENDBRANCH 44 45
BRANCH 44 50
ATOM     50  N   GLU C   1      10.217  58.439  99.035  1.00 29.71 LIG-0.07  N 
ATOM     51 H1   GLU C   1      10.856  59.041  99.178  1.00 29.71 LIG 0.28  HD
ATOM     52 H2   GLU C   1      10.102  57.948  99.769  1.00 29.71 LIG 0.28  HD
ATOM     53 H3   GLU C   1      10.454  57.911  98.359  1.00 29.71 LIG 0.28  HD
ENDBRANCH 44 50
ENDBRANCH 42 44
ENDBRANCH 1 40
TORSDOF 22
ENDMDL
