MODEL 1
USER: ADFR SOLUTION from run 179
USER: SCORE 8.900284 LL:  -0.569 LR:  -8.624 RR:   0.000 FEB:  -5.342
USER: RMSD 5.825154
USER: SEED 178
USER: STATUS no improvement in best in 32 clusters for 5 generations
USER: GENES 13
USER: genes 0 Translation |==|  0.30974 0.50444 0.55664
USER: genes 1 Rotation |==|  0.19795 0.65911 0.40941 0.85390
USER: genes 2 Torsion [N]-C--CA-[N] |==|  0.21769
USER: genes 3 Torsion [C]-CA--CB-[CG] |==|  0.13270
USER: genes 4 Torsion [CA]-CB--CG-[CD] |==|  0.40857
USER: genes 5 Torsion [CB]-CG--CD-[NE] |==|  0.32273
USER: genes 6 Torsion [CG]-CD--NE-[CZ] |==|  0.62076
USER: genes 7 Torsion [C]-N--CA-[C] |==|  0.26635
USER: genes 8 Torsion [N]-CA--C-[N] |==|  0.58217
USER: genes 9 Torsion [C]-N--CA-[C] |==|  0.25287
USER: genes 10 Torsion [N]-CA--C-[OXT] |==|  0.87131
USER: genes 11 Torsion [N]-CA--CB-[OG1] |==|  0.68096
USER: genes 12 Torsion [CA]-CB--OG1-[HG1] |==|  0.88025
ROOT
ATOM      1  C   ARG C 760      14.006 -16.949  19.238  1.00 56.34 LIG 0.26  C 
ATOM      2 O    ARG C 760      13.538 -15.883  18.853  1.00 53.76 LIG-0.27  OA
ATOM      3  N   GLY C 761      15.181 -17.040  19.854  1.00 59.89 LIG-0.35  N 
ATOM      4 H    GLY C 761      15.618 -17.774  19.948  1.00 59.89 LIG 0.16  HD
ENDROOT
BRANCH 1 5
ATOM      5  CA  ARG C 760      13.244 -18.256  19.017  1.00 61.16 LIG 0.40  C 
ATOM      6  N   ARG C 760      12.589 -18.665  20.258  1.00 59.95 LIG 0.61  N 
BRANCH 5 7
ATOM      7  CB  ARG C 760      12.217 -18.119  17.893  1.00 63.40 LIG 0.05  C 
BRANCH 7 8
ATOM      8  CG  ARG C 760      12.756 -17.474  16.632  1.00 63.69 LIG 0.02  C 
BRANCH 8 9
ATOM      9  CD  ARG C 760      12.082 -18.047  15.396  1.00 63.30 LIG 0.14  C 
BRANCH 9 10
ATOM     10  NE  ARG C 760      11.313 -17.031  14.683  1.00 65.15 LIG-0.23  N 
ATOM     11  CZ  ARG C 760      10.095 -17.221  14.185  1.00 66.46 LIG 0.67  C 
ATOM     12  NH1 ARG C 760       9.489 -18.393  14.324  1.00 66.43 LIG-0.23  N 
ATOM     13  NH2 ARG C 760       9.479 -16.234  13.551  1.00 66.89 LIG-0.23  N 
ATOM     14 2HH1 ARG C 760       8.701 -18.511  14.001  1.00 66.43 LIG 0.17  HD
ATOM     15 1HH1 ARG C 760       9.884 -19.036  14.739  1.00 66.43 LIG 0.17  HD
ATOM     16 2HH2 ARG C 760       8.691 -16.356  13.229  1.00 66.89 LIG 0.17  HD
ATOM     17 1HH2 ARG C 760       9.867 -15.473  13.462  1.00 66.89 LIG 0.17  HD
ATOM     18 HE   ARG C 760      11.672 -16.257  14.579  1.00 65.15 LIG 0.18  HD
ENDBRANCH 9 10
ENDBRANCH 8 9
ENDBRANCH 7 8
ENDBRANCH 5 7
ENDBRANCH 1 5
BRANCH 3 19
ATOM     19  CA  GLY C 761      15.830 -15.875  20.431  1.00 62.83 LIG 0.23  C 
BRANCH 19 20
ATOM     20  C   GLY C 761      15.672 -15.546  21.908  1.00 67.24 LIG 0.24  C 
ATOM     21 O    GLY C 761      15.485 -16.438  22.737  1.00 65.14 LIG-0.27  OA
ATOM     22  N   THR C 762      15.744 -14.252  22.216  1.00 72.11 LIG-0.34  N 
ATOM     23 H    THR C 762      15.592 -13.632  21.640  1.00 72.11 LIG 0.16  HD
BRANCH 22 24
ATOM     24  CA  THR C 762      16.082 -13.731  23.545  1.00 75.13 LIG 0.21  C 
BRANCH 24 25
ATOM     25  C   THR C 762      17.595 -13.534  23.590  1.00 73.09 LIG 0.20  C 
ATOM     26 OXT  THR C 762      18.339 -14.421  23.176  1.00 76.95 LIG-0.65  OA
ATOM     27 O    THR C 762      18.116 -12.506  24.024  1.00 68.26 LIG-0.65  OA
ENDBRANCH 24 25
BRANCH 24 28
ATOM     28  CB  THR C 762      15.665 -14.649  24.715  1.00 77.67 LIG 0.15  C 
ATOM     29  CG2 THR C 762      16.865 -14.957  25.594  1.00 76.40 LIG 0.04  C 
BRANCH 28 30
ATOM     30 OG1  THR C 762      14.663 -14.006  25.510  1.00 80.43 LIG-0.39  OA
ATOM     31 HG1  THR C 762      14.872 -13.201  25.626  1.00 80.43 LIG 0.21  HD
ENDBRANCH 28 30
ENDBRANCH 24 28
ENDBRANCH 22 24
ENDBRANCH 19 20
ENDBRANCH 3 19
TORSDOF 11
ENDMDL
MODEL 2
USER: ADFR SOLUTION from run 73
USER: SCORE 8.624956 LL:  -0.695 LR:  -8.222 RR:   0.000 FEB:  -4.940
USER: RMSD 5.528194
USER: SEED 72
USER: STATUS no improvement in best in 24 clusters for 5 generations
USER: GENES 13
USER: genes 0 Translation |==|  0.30011 0.49436 0.54627
USER: genes 1 Rotation |==|  0.19965 0.62319 0.36002 0.85358
USER: genes 2 Torsion [N]-C--CA-[N] |==|  0.23228
USER: genes 3 Torsion [C]-CA--CB-[CG] |==|  0.55226
USER: genes 4 Torsion [CA]-CB--CG-[CD] |==|  0.45222
USER: genes 5 Torsion [CB]-CG--CD-[NE] |==|  0.12904
USER: genes 6 Torsion [CG]-CD--NE-[CZ] |==|  0.64385
USER: genes 7 Torsion [C]-N--CA-[C] |==|  0.34839
USER: genes 8 Torsion [N]-CA--C-[N] |==|  0.51111
USER: genes 9 Torsion [C]-N--CA-[C] |==|  0.77834
USER: genes 10 Torsion [N]-CA--C-[OXT] |==|  0.94624
USER: genes 11 Torsion [N]-CA--CB-[OG1] |==|  0.96558
USER: genes 12 Torsion [CA]-CB--OG1-[HG1] |==|  0.14039
ROOT
ATOM      1  C   ARG C 760      13.840 -17.078  19.028  1.00 56.34 LIG 0.26  C 
ATOM      2 O    ARG C 760      13.537 -16.030  18.466  1.00 53.76 LIG-0.27  OA
ATOM      3  N   GLY C 761      14.844 -17.166  19.896  1.00 59.89 LIG-0.35  N 
ATOM      4 H    GLY C 761      15.202 -17.908  20.141  1.00 59.89 LIG 0.16  HD
ENDROOT
BRANCH 1 5
ATOM      5  CA  ARG C 760      13.062 -18.363  18.746  1.00 61.16 LIG 0.40  C 
ATOM      6  N   ARG C 760      12.041 -18.562  19.773  1.00 59.95 LIG 0.61  N 
BRANCH 5 7
ATOM      7  CB  ARG C 760      12.421 -18.333  17.358  1.00 63.40 LIG 0.05  C 
BRANCH 7 8
ATOM      8  CG  ARG C 760      11.293 -19.328  17.171  1.00 63.69 LIG 0.02  C 
BRANCH 8 9
ATOM      9  CD  ARG C 760      10.443 -18.968  15.963  1.00 63.30 LIG 0.14  C 
BRANCH 9 10
ATOM     10  NE  ARG C 760      11.268 -18.650  14.802  1.00 65.15 LIG-0.23  N 
ATOM     11  CZ  ARG C 760      11.148 -17.544  14.074  1.00 66.46 LIG 0.67  C 
ATOM     12  NH1 ARG C 760      10.237 -16.631  14.387  1.00 66.43 LIG-0.23  N 
ATOM     13  NH2 ARG C 760      11.945 -17.347  13.034  1.00 66.89 LIG-0.23  N 
ATOM     14 2HH1 ARG C 760      10.163 -15.917  13.913  1.00 66.43 LIG 0.17  HD
ATOM     15 1HH1 ARG C 760       9.719 -16.753  15.064  1.00 66.43 LIG 0.17  HD
ATOM     16 2HH2 ARG C 760      11.868 -16.632  12.563  1.00 66.89 LIG 0.17  HD
ATOM     17 1HH2 ARG C 760      12.539 -17.934  12.831  1.00 66.89 LIG 0.17  HD
ATOM     18 HE   ARG C 760      11.874 -19.216  14.574  1.00 65.15 LIG 0.18  HD
ENDBRANCH 9 10
ENDBRANCH 8 9
ENDBRANCH 7 8
ENDBRANCH 5 7
ENDBRANCH 1 5
BRANCH 3 19
ATOM     19  CA  GLY C 761      15.426 -15.984  20.510  1.00 62.83 LIG 0.23  C 
BRANCH 19 20
ATOM     20  C   GLY C 761      15.524 -15.861  22.023  1.00 67.24 LIG 0.24  C 
ATOM     21 O    GLY C 761      15.174 -16.786  22.756  1.00 65.14 LIG-0.27  OA
ATOM     22  N   THR C 762      15.999 -14.700  22.472  1.00 72.11 LIG-0.34  N 
ATOM     23 H    THR C 762      15.974 -13.980  22.003  1.00 72.11 LIG 0.16  HD
BRANCH 22 24
ATOM     24  CA  THR C 762      16.611 -14.506  23.791  1.00 75.13 LIG 0.21  C 
BRANCH 24 25
ATOM     25  C   THR C 762      15.480 -14.381  24.808  1.00 73.09 LIG 0.20  C 
ATOM     26 OXT  THR C 762      14.346 -14.095  24.430  1.00 76.95 LIG-0.65  OA
ATOM     27 O    THR C 762      15.652 -14.563  26.014  1.00 68.26 LIG-0.65  OA
ENDBRANCH 24 25
BRANCH 24 28
ATOM     28  CB  THR C 762      17.515 -13.257  23.897  1.00 77.67 LIG 0.15  C 
ATOM     29  CG2 THR C 762      18.836 -13.620  24.552  1.00 76.40 LIG 0.04  C 
BRANCH 28 30
ATOM     30 OG1  THR C 762      17.776 -12.729  22.591  1.00 80.43 LIG-0.39  OA
ATOM     31 HG1  THR C 762      17.051 -12.636  22.177  1.00 80.43 LIG 0.21  HD
ENDBRANCH 28 30
ENDBRANCH 24 28
ENDBRANCH 22 24
ENDBRANCH 19 20
ENDBRANCH 3 19
TORSDOF 11
ENDMDL
MODEL 3
USER: ADFR SOLUTION from run 24
USER: SCORE 8.576913 LL:  -0.704 LR:  -8.125 RR:   0.000 FEB:  -4.844
USER: RMSD 4.850826
USER: SEED 23
USER: STATUS no improvement in best in 38 clusters for 5 generations
USER: GENES 13
USER: genes 0 Translation |==|  0.32025 0.44532 0.60266
USER: genes 1 Rotation |==|  0.60095 0.65433 0.93691 0.65843
USER: genes 2 Torsion [N]-C--CA-[N] |==|  0.71752
USER: genes 3 Torsion [C]-CA--CB-[CG] |==|  0.36742
USER: genes 4 Torsion [CA]-CB--CG-[CD] |==|  0.71124
USER: genes 5 Torsion [CB]-CG--CD-[NE] |==|  0.62751
USER: genes 6 Torsion [CG]-CD--NE-[CZ] |==|  0.50681
USER: genes 7 Torsion [C]-N--CA-[C] |==|  0.69073
USER: genes 8 Torsion [N]-CA--C-[N] |==|  0.60464
USER: genes 9 Torsion [C]-N--CA-[C] |==|  0.42194
USER: genes 10 Torsion [N]-CA--C-[OXT] |==|  0.94475
USER: genes 11 Torsion [N]-CA--CB-[OG1] |==|  0.65497
USER: genes 12 Torsion [CA]-CB--OG1-[HG1] |==|  0.98348
ROOT
ATOM      1  C   ARG C 760      14.187 -17.703  20.170  1.00 56.34 LIG 0.26  C 
ATOM      2 O    ARG C 760      14.827 -18.550  20.785  1.00 53.76 LIG-0.27  OA
ATOM      3  N   GLY C 761      14.378 -16.397  20.334  1.00 59.89 LIG-0.35  N 
ATOM      4 H    GLY C 761      13.819 -15.795  20.079  1.00 59.89 LIG 0.16  HD
ENDROOT
BRANCH 1 5
ATOM      5  CA  ARG C 760      13.112 -18.120  19.166  1.00 61.16 LIG 0.40  C 
ATOM      6  N   ARG C 760      11.896 -18.512  19.875  1.00 59.95 LIG 0.61  N 
BRANCH 5 7
ATOM      7  CB  ARG C 760      12.811 -16.997  18.174  1.00 63.40 LIG 0.05  C 
BRANCH 7 8
ATOM      8  CG  ARG C 760      12.782 -17.438  16.724  1.00 63.69 LIG 0.02  C 
BRANCH 8 9
ATOM      9  CD  ARG C 760      14.047 -17.010  15.999  1.00 63.30 LIG 0.14  C 
BRANCH 9 10
ATOM     10  NE  ARG C 760      13.746 -16.414  14.700  1.00 65.15 LIG-0.23  N 
ATOM     11  CZ  ARG C 760      14.664 -15.995  13.834  1.00 66.46 LIG 0.67  C 
ATOM     12  NH1 ARG C 760      15.955 -16.110  14.117  1.00 66.43 LIG-0.23  N 
ATOM     13  NH2 ARG C 760      14.289 -15.464  12.679  1.00 66.89 LIG-0.23  N 
ATOM     14 2HH1 ARG C 760      16.545 -15.837  13.554  1.00 66.43 LIG 0.17  HD
ATOM     15 1HH1 ARG C 760      16.203 -16.457  14.865  1.00 66.43 LIG 0.17  HD
ATOM     16 2HH2 ARG C 760      14.881 -15.193  12.119  1.00 66.89 LIG 0.17  HD
ATOM     17 1HH2 ARG C 760      13.453 -15.391  12.491  1.00 66.89 LIG 0.17  HD
ATOM     18 HE   ARG C 760      12.919 -16.329  14.480  1.00 65.15 LIG 0.18  HD
ENDBRANCH 9 10
ENDBRANCH 8 9
ENDBRANCH 7 8
ENDBRANCH 5 7
ENDBRANCH 1 5
BRANCH 3 19
ATOM     19  CA  GLY C 761      15.575 -15.876  20.972  1.00 62.83 LIG 0.23  C 
BRANCH 19 20
ATOM     20  C   GLY C 761      15.502 -15.208  22.337  1.00 67.24 LIG 0.24  C 
ATOM     21 O    GLY C 761      14.738 -15.629  23.206  1.00 65.14 LIG-0.27  OA
ATOM     22  N   THR C 762      16.305 -14.158  22.503  1.00 72.11 LIG-0.34  N 
ATOM     23 H    THR C 762      16.613 -13.704  21.841  1.00 72.11 LIG 0.16  HD
BRANCH 22 24
ATOM     24  CA  THR C 762      16.757 -13.654  23.805  1.00 75.13 LIG 0.21  C 
BRANCH 24 25
ATOM     25  C   THR C 762      18.111 -12.984  23.593  1.00 73.09 LIG 0.20  C 
ATOM     26 OXT  THR C 762      18.778 -13.254  22.596  1.00 76.95 LIG-0.65  OA
ATOM     27 O    THR C 762      18.576 -12.165  24.387  1.00 68.26 LIG-0.65  OA
ENDBRANCH 24 25
BRANCH 24 28
ATOM     28  CB  THR C 762      16.903 -14.741  24.893  1.00 77.67 LIG 0.15  C 
ATOM     29  CG2 THR C 762      18.356 -14.865  25.317  1.00 76.40 LIG 0.04  C 
BRANCH 28 30
ATOM     30 OG1  THR C 762      16.115 -14.397  26.038  1.00 80.43 LIG-0.39  OA
ATOM     31 HG1  THR C 762      15.788 -13.631  25.933  1.00 80.43 LIG 0.21  HD
ENDBRANCH 28 30
ENDBRANCH 24 28
ENDBRANCH 22 24
ENDBRANCH 19 20
ENDBRANCH 3 19
TORSDOF 11
ENDMDL
MODEL 4
USER: ADFR SOLUTION from run 182
USER: SCORE 8.443777 LL:  -0.535 LR:  -8.066 RR:   0.000 FEB:  -4.785
USER: RMSD 10.021118
USER: SEED 181
USER: STATUS no improvement in best in 35 clusters for 5 generations
USER: GENES 13
USER: genes 0 Translation |==|  0.47452 0.72298 0.77785
USER: genes 1 Rotation |==|  0.56696 0.81439 0.73420 0.80303
USER: genes 2 Torsion [N]-C--CA-[N] |==|  0.09439
USER: genes 3 Torsion [C]-CA--CB-[CG] |==|  0.17159
USER: genes 4 Torsion [CA]-CB--CG-[CD] |==|  0.62305
USER: genes 5 Torsion [CB]-CG--CD-[NE] |==|  0.90902
USER: genes 6 Torsion [CG]-CD--NE-[CZ] |==|  0.31534
USER: genes 7 Torsion [C]-N--CA-[C] |==|  0.82993
USER: genes 8 Torsion [N]-CA--C-[N] |==|  0.41015
USER: genes 9 Torsion [C]-N--CA-[C] |==|  0.82313
USER: genes 10 Torsion [N]-CA--C-[OXT] |==|  0.82205
USER: genes 11 Torsion [N]-CA--CB-[OG1] |==|  0.94882
USER: genes 12 Torsion [CA]-CB--OG1-[HG1] |==|  0.25184
ROOT
ATOM      1  C   ARG C 760      16.848 -14.163  23.717  1.00 56.34 LIG 0.26  C 
ATOM      2 O    ARG C 760      17.203 -14.318  24.882  1.00 53.76 LIG-0.27  OA
ATOM      3  N   GLY C 761      17.652 -13.671  22.780  1.00 59.89 LIG-0.35  N 
ATOM      4 H    GLY C 761      17.378 -13.365  22.025  1.00 59.89 LIG 0.16  HD
ENDROOT
BRANCH 1 5
ATOM      5  CA  ARG C 760      15.430 -14.532  23.282  1.00 61.16 LIG 0.40  C 
ATOM      6  N   ARG C 760      15.446 -15.029  21.907  1.00 59.95 LIG 0.61  N 
BRANCH 5 7
ATOM      7  CB  ARG C 760      14.813 -15.573  24.216  1.00 63.40 LIG 0.05  C 
BRANCH 7 8
ATOM      8  CG  ARG C 760      14.663 -15.109  25.651  1.00 63.69 LIG 0.02  C 
BRANCH 8 9
ATOM      9  CD  ARG C 760      15.108 -16.190  26.623  1.00 63.30 LIG 0.14  C 
BRANCH 9 10
ATOM     10  NE  ARG C 760      14.832 -17.526  26.103  1.00 65.15 LIG-0.23  N 
ATOM     11  CZ  ARG C 760      15.766 -18.409  25.763  1.00 66.46 LIG 0.67  C 
ATOM     12  NH1 ARG C 760      17.052 -18.108  25.892  1.00 66.43 LIG-0.23  N 
ATOM     13  NH2 ARG C 760      15.413 -19.598  25.297  1.00 66.89 LIG-0.23  N 
ATOM     14 2HH1 ARG C 760      17.652 -18.682  25.670  1.00 66.43 LIG 0.17  HD
ATOM     15 1HH1 ARG C 760      17.285 -17.338  26.197  1.00 66.43 LIG 0.17  HD
ATOM     16 2HH2 ARG C 760      16.016 -20.170  25.077  1.00 66.89 LIG 0.17  HD
ATOM     17 1HH2 ARG C 760      14.581 -19.798  25.216  1.00 66.89 LIG 0.17  HD
ATOM     18 HE   ARG C 760      14.009 -17.758  26.012  1.00 65.15 LIG 0.18  HD
ENDBRANCH 9 10
ENDBRANCH 8 9
ENDBRANCH 7 8
ENDBRANCH 5 7
ENDBRANCH 1 5
BRANCH 3 19
ATOM     19  CA  GLY C 761      19.093 -13.612  22.965  1.00 62.83 LIG 0.23  C 
BRANCH 19 20
ATOM     20  C   GLY C 761      19.700 -12.794  24.095  1.00 67.24 LIG 0.24  C 
ATOM     21 O    GLY C 761      19.163 -11.756  24.482  1.00 65.14 LIG-0.27  OA
ATOM     22  N   THR C 762      20.830 -13.279  24.607  1.00 72.11 LIG-0.34  N 
ATOM     23 H    THR C 762      21.340 -13.817  24.172  1.00 72.11 LIG 0.16  HD
BRANCH 22 24
ATOM     24  CA  THR C 762      21.339 -12.963  25.946  1.00 75.13 LIG 0.21  C 
BRANCH 24 25
ATOM     25  C   THR C 762      21.644 -11.469  25.982  1.00 73.09 LIG 0.20  C 
ATOM     26 OXT  THR C 762      22.521 -11.006  25.255  1.00 76.95 LIG-0.65  OA
ATOM     27 O    THR C 762      21.038 -10.687  26.716  1.00 68.26 LIG-0.65  OA
ENDBRANCH 24 25
BRANCH 24 28
ATOM     28  CB  THR C 762      22.614 -13.741  26.343  1.00 77.67 LIG 0.15  C 
ATOM     29  CG2 THR C 762      22.520 -14.200  27.788  1.00 76.40 LIG 0.04  C 
BRANCH 28 30
ATOM     30 OG1  THR C 762      22.769 -14.890  25.502  1.00 80.43 LIG-0.39  OA
ATOM     31 HG1  THR C 762      23.229 -14.685  24.830  1.00 80.43 LIG 0.21  HD
ENDBRANCH 28 30
ENDBRANCH 24 28
ENDBRANCH 22 24
ENDBRANCH 19 20
ENDBRANCH 3 19
TORSDOF 11
ENDMDL
MODEL 5
USER: ADFR SOLUTION from run 37
USER: SCORE 9.019144 LL:  -0.960 LR:  -8.075 RR:   0.000 FEB:  -4.793
USER: RMSD 8.006558
USER: SEED 36
USER: STATUS no improvement in best in 38 clusters for 5 generations
USER: GENES 13
USER: genes 0 Translation |==|  0.39880 0.40442 0.81509
USER: genes 1 Rotation |==|  0.56154 0.00797 0.54401 0.54672
USER: genes 2 Torsion [N]-C--CA-[N] |==|  0.21532
USER: genes 3 Torsion [C]-CA--CB-[CG] |==|  0.23335
USER: genes 4 Torsion [CA]-CB--CG-[CD] |==|  0.77063
USER: genes 5 Torsion [CB]-CG--CD-[NE] |==|  0.76021
USER: genes 6 Torsion [CG]-CD--NE-[CZ] |==|  0.43090
USER: genes 7 Torsion [C]-N--CA-[C] |==|  0.79444
USER: genes 8 Torsion [N]-CA--C-[N] |==|  0.96357
USER: genes 9 Torsion [C]-N--CA-[C] |==|  0.19442
USER: genes 10 Torsion [N]-CA--C-[OXT] |==|  0.83645
USER: genes 11 Torsion [N]-CA--CB-[OG1] |==|  0.74090
USER: genes 12 Torsion [CA]-CB--OG1-[HG1] |==|  0.00518
ROOT
ATOM      1  C   ARG C 760      15.542 -18.225  24.472  1.00 56.34 LIG 0.26  C 
ATOM      2 O    ARG C 760      16.193 -17.479  23.746  1.00 53.76 LIG-0.27  OA
ATOM      3  N   GLY C 761      14.879 -19.281  24.010  1.00 59.89 LIG-0.35  N 
ATOM      4 H    GLY C 761      14.263 -19.690  24.449  1.00 59.89 LIG 0.16  HD
ENDROOT
BRANCH 1 5
ATOM      5  CA  ARG C 760      15.458 -17.964  25.976  1.00 61.16 LIG 0.40  C 
ATOM      6  N   ARG C 760      16.341 -18.883  26.690  1.00 59.95 LIG 0.61  N 
BRANCH 5 7
ATOM      7  CB  ARG C 760      15.814 -16.515  26.311  1.00 63.40 LIG 0.05  C 
BRANCH 7 8
ATOM      8  CG  ARG C 760      14.661 -15.542  26.171  1.00 63.69 LIG 0.02  C 
BRANCH 8 9
ATOM      9  CD  ARG C 760      14.488 -15.105  24.726  1.00 63.30 LIG 0.14  C 
BRANCH 9 10
ATOM     10  NE  ARG C 760      15.342 -13.966  24.404  1.00 65.15 LIG-0.23  N 
ATOM     11  CZ  ARG C 760      15.767 -13.666  23.180  1.00 66.46 LIG 0.67  C 
ATOM     12  NH1 ARG C 760      15.413 -14.418  22.145  1.00 66.43 LIG-0.23  N 
ATOM     13  NH2 ARG C 760      16.544 -12.610  22.990  1.00 66.89 LIG-0.23  N 
ATOM     14 2HH1 ARG C 760      15.690 -14.220  21.355  1.00 66.43 LIG 0.17  HD
ATOM     15 1HH1 ARG C 760      14.906 -15.103  22.264  1.00 66.43 LIG 0.17  HD
ATOM     16 2HH2 ARG C 760      16.819 -12.415  22.199  1.00 66.89 LIG 0.17  HD
ATOM     17 1HH2 ARG C 760      16.772 -12.119  23.658  1.00 66.89 LIG 0.17  HD
ATOM     18 HE   ARG C 760      15.587 -13.453  25.050  1.00 65.15 LIG 0.18  HD
ENDBRANCH 9 10
ENDBRANCH 8 9
ENDBRANCH 7 8
ENDBRANCH 5 7
ENDBRANCH 1 5
BRANCH 3 19
ATOM     19  CA  GLY C 761      15.153 -19.838  22.696  1.00 62.83 LIG 0.23  C 
BRANCH 19 20
ATOM     20  C   GLY C 761      14.689 -19.124  21.435  1.00 67.24 LIG 0.24  C 
ATOM     21 O    GLY C 761      15.121 -19.450  20.330  1.00 65.14 LIG-0.27  OA
ATOM     22  N   THR C 762      13.809 -18.143  21.626  1.00 72.11 LIG-0.34  N 
ATOM     23 H    THR C 762      13.726 -17.738  22.380  1.00 72.11 LIG 0.16  HD
BRANCH 22 24
ATOM     24  CA  THR C 762      12.889 -17.638  20.600  1.00 75.13 LIG 0.21  C 
BRANCH 24 25
ATOM     25  C   THR C 762      11.849 -18.724  20.342  1.00 73.09 LIG 0.20  C 
ATOM     26 OXT  THR C 762      12.207 -19.837  19.962  1.00 76.95 LIG-0.65  OA
ATOM     27 O    THR C 762      10.642 -18.537  20.504  1.00 68.26 LIG-0.65  OA
ENDBRANCH 24 25
BRANCH 24 28
ATOM     28  CB  THR C 762      13.568 -17.271  19.261  1.00 77.67 LIG 0.15  C 
ATOM     29  CG2 THR C 762      12.629 -17.555  18.102  1.00 76.40 LIG 0.04  C 
BRANCH 28 30
ATOM     30 OG1  THR C 762      13.909 -15.880  19.250  1.00 80.43 LIG-0.39  OA
ATOM     31 HG1  THR C 762      13.697 -15.534  19.986  1.00 80.43 LIG 0.21  HD
ENDBRANCH 28 30
ENDBRANCH 24 28
ENDBRANCH 22 24
ENDBRANCH 19 20
ENDBRANCH 3 19
TORSDOF 11
ENDMDL
MODEL 6
USER: ADFR SOLUTION from run 134
USER: SCORE 9.272132 LL:  -1.399 LR:  -8.057 RR:   0.000 FEB:  -4.776
USER: RMSD 8.395067
USER: SEED 133
USER: STATUS no improvement in best in 20 clusters for 5 generations
USER: GENES 13
USER: genes 0 Translation |==|  0.36715 0.63284 0.87062
USER: genes 1 Rotation |==|  0.24194 0.84784 0.72220 0.61418
USER: genes 2 Torsion [N]-C--CA-[N] |==|  0.61161
USER: genes 3 Torsion [C]-CA--CB-[CG] |==|  0.21948
USER: genes 4 Torsion [CA]-CB--CG-[CD] |==|  0.59477
USER: genes 5 Torsion [CB]-CG--CD-[NE] |==|  0.25469
USER: genes 6 Torsion [CG]-CD--NE-[CZ] |==|  0.69595
USER: genes 7 Torsion [C]-N--CA-[C] |==|  0.31667
USER: genes 8 Torsion [N]-CA--C-[N] |==|  0.95333
USER: genes 9 Torsion [C]-N--CA-[C] |==|  0.16771
USER: genes 10 Torsion [N]-CA--C-[OXT] |==|  0.31840
USER: genes 11 Torsion [N]-CA--CB-[OG1] |==|  0.95536
USER: genes 12 Torsion [CA]-CB--OG1-[HG1] |==|  0.17180
ROOT
ATOM      1  C   ARG C 760      14.996 -15.312  25.596  1.00 56.34 LIG 0.26  C 
ATOM      2 O    ARG C 760      14.672 -14.398  26.348  1.00 53.76 LIG-0.27  OA
ATOM      3  N   GLY C 761      15.314 -15.117  24.320  1.00 59.89 LIG-0.35  N 
ATOM      4 H    GLY C 761      15.343 -15.743  23.731  1.00 59.89 LIG 0.16  HD
ENDROOT
BRANCH 1 5
ATOM      5  CA  ARG C 760      15.045 -16.754  26.103  1.00 61.16 LIG 0.40  C 
ATOM      6  N   ARG C 760      13.913 -17.006  26.993  1.00 59.95 LIG 0.61  N 
BRANCH 5 7
ATOM      7  CB  ARG C 760      15.045 -17.752  24.946  1.00 63.40 LIG 0.05  C 
BRANCH 7 8
ATOM      8  CG  ARG C 760      16.392 -17.925  24.272  1.00 63.69 LIG 0.02  C 
BRANCH 8 9
ATOM      9  CD  ARG C 760      16.227 -18.181  22.783  1.00 63.30 LIG 0.14  C 
BRANCH 9 10
ATOM     10  NE  ARG C 760      16.262 -16.938  22.017  1.00 65.15 LIG-0.23  N 
ATOM     11  CZ  ARG C 760      15.209 -16.398  21.411  1.00 66.46 LIG 0.67  C 
ATOM     12  NH1 ARG C 760      14.021 -16.984  21.483  1.00 66.43 LIG-0.23  N 
ATOM     13  NH2 ARG C 760      15.343 -15.266  20.737  1.00 66.89 LIG-0.23  N 
ATOM     14 2HH1 ARG C 760      13.342 -16.631  21.090  1.00 66.43 LIG 0.17  HD
ATOM     15 1HH1 ARG C 760      13.928 -17.718  21.923  1.00 66.43 LIG 0.17  HD
ATOM     16 2HH2 ARG C 760      14.663 -14.916  20.345  1.00 66.89 LIG 0.17  HD
ATOM     17 1HH2 ARG C 760      16.111 -14.882  20.691  1.00 66.89 LIG 0.17  HD
ATOM     18 HE   ARG C 760      17.015 -16.528  21.954  1.00 65.15 LIG 0.18  HD
ENDBRANCH 9 10
ENDBRANCH 8 9
ENDBRANCH 7 8
ENDBRANCH 5 7
ENDBRANCH 1 5
BRANCH 3 19
ATOM     19  CA  GLY C 761      15.646 -13.797  23.810  1.00 62.83 LIG 0.23  C 
BRANCH 19 20
ATOM     20  C   GLY C 761      17.048 -13.484  23.310  1.00 67.24 LIG 0.24  C 
ATOM     21 O    GLY C 761      17.261 -12.501  22.602  1.00 65.14 LIG-0.27  OA
ATOM     22  N   THR C 762      17.993 -14.344  23.688  1.00 72.11 LIG-0.34  N 
ATOM     23 H    THR C 762      17.815 -15.150  23.928  1.00 72.11 LIG 0.16  HD
BRANCH 22 24
ATOM     24  CA  THR C 762      19.427 -14.034  23.740  1.00 75.13 LIG 0.21  C 
BRANCH 24 25
ATOM     25  C   THR C 762      19.613 -12.884  24.725  1.00 73.09 LIG 0.20  C 
ATOM     26 OXT  THR C 762      20.236 -13.067  25.769  1.00 76.95 LIG-0.65  OA
ATOM     27 O    THR C 762      19.163 -11.756  24.517  1.00 68.26 LIG-0.65  OA
ENDBRANCH 24 25
BRANCH 24 28
ATOM     28  CB  THR C 762      20.042 -13.631  22.381  1.00 77.67 LIG 0.15  C 
ATOM     29  CG2 THR C 762      21.378 -14.325  22.184  1.00 76.40 LIG 0.04  C 
BRANCH 28 30
ATOM     30 OG1  THR C 762      19.163 -14.006  21.315  1.00 80.43 LIG-0.39  OA
ATOM     31 HG1  THR C 762      18.434 -13.598  21.397  1.00 80.43 LIG 0.21  HD
ENDBRANCH 28 30
ENDBRANCH 24 28
ENDBRANCH 22 24
ENDBRANCH 19 20
ENDBRANCH 3 19
TORSDOF 11
ENDMDL
MODEL 7
USER: ADFR SOLUTION from run 99
USER: SCORE 8.269300 LL:  -0.764 LR:  -8.028 RR:   0.000 FEB:  -4.746
USER: RMSD 5.429165
USER: SEED 98
USER: STATUS no improvement in best in 22 clusters for 5 generations
USER: GENES 13
USER: genes 0 Translation |==|  0.29791 0.49488 0.54218
USER: genes 1 Rotation |==|  0.45501 0.50677 0.25649 0.93432
USER: genes 2 Torsion [N]-C--CA-[N] |==|  0.86032
USER: genes 3 Torsion [C]-CA--CB-[CG] |==|  0.45025
USER: genes 4 Torsion [CA]-CB--CG-[CD] |==|  0.55875
USER: genes 5 Torsion [CB]-CG--CD-[NE] |==|  0.36451
USER: genes 6 Torsion [CG]-CD--NE-[CZ] |==|  0.37795
USER: genes 7 Torsion [C]-N--CA-[C] |==|  0.74317
USER: genes 8 Torsion [N]-CA--C-[N] |==|  0.34654
USER: genes 9 Torsion [C]-N--CA-[C] |==|  0.59594
USER: genes 10 Torsion [N]-CA--C-[OXT] |==|  0.70883
USER: genes 11 Torsion [N]-CA--CB-[OG1] |==|  0.87252
USER: genes 12 Torsion [CA]-CB--OG1-[HG1] |==|  0.32803
ROOT
ATOM      1  C   ARG C 760      13.802 -17.071  18.945  1.00 56.34 LIG 0.26  C 
ATOM      2 O    ARG C 760      13.910 -15.880  19.217  1.00 53.76 LIG-0.27  OA
ATOM      3  N   GLY C 761      13.647 -18.011  19.873  1.00 59.89 LIG-0.35  N 
ATOM      4 H    GLY C 761      13.773 -18.849  19.733  1.00 59.89 LIG 0.16  HD
ENDROOT
BRANCH 1 5
ATOM      5  CA  ARG C 760      13.848 -17.543  17.491  1.00 61.16 LIG 0.40  C 
ATOM      6  N   ARG C 760      14.811 -18.634  17.353  1.00 59.95 LIG 0.61  N 
BRANCH 5 7
ATOM      7  CB  ARG C 760      12.468 -17.986  17.005  1.00 63.40 LIG 0.05  C 
BRANCH 7 8
ATOM      8  CG  ARG C 760      12.332 -18.057  15.498  1.00 63.69 LIG 0.02  C 
BRANCH 8 9
ATOM      9  CD  ARG C 760      10.873 -17.988  15.078  1.00 63.30 LIG 0.14  C 
BRANCH 9 10
ATOM     10  NE  ARG C 760      10.665 -17.006  14.018  1.00 65.15 LIG-0.23  N 
ATOM     11  CZ  ARG C 760       9.912 -17.210  12.941  1.00 66.46 LIG 0.67  C 
ATOM     12  NH1 ARG C 760       9.278 -18.364  12.775  1.00 66.43 LIG-0.23  N 
ATOM     13  NH2 ARG C 760       9.788 -16.255  12.031  1.00 66.89 LIG-0.23  N 
ATOM     14 2HH1 ARG C 760       8.792 -18.491  12.077  1.00 66.43 LIG 0.17  HD
ATOM     15 1HH1 ARG C 760       9.353 -18.985  13.365  1.00 66.43 LIG 0.17  HD
ATOM     16 2HH2 ARG C 760       9.301 -16.386  11.335  1.00 66.89 LIG 0.17  HD
ATOM     17 1HH2 ARG C 760      10.194 -15.505  12.138  1.00 66.89 LIG 0.17  HD
ATOM     18 HE   ARG C 760      11.056 -16.244  14.095  1.00 65.15 LIG 0.18  HD
ENDBRANCH 9 10
ENDBRANCH 8 9
ENDBRANCH 7 8
ENDBRANCH 5 7
ENDBRANCH 1 5
BRANCH 3 19
ATOM     19  CA  GLY C 761      13.241 -17.682  21.230  1.00 62.83 LIG 0.23  C 
BRANCH 19 20
ATOM     20  C   GLY C 761      14.278 -17.429  22.313  1.00 67.24 LIG 0.24  C 
ATOM     21 O    GLY C 761      15.139 -18.269  22.572  1.00 65.14 LIG-0.27  OA
ATOM     22  N   THR C 762      14.172 -16.260  22.943  1.00 72.11 LIG-0.34  N 
ATOM     23 H    THR C 762      13.437 -15.814  22.967  1.00 72.11 LIG 0.16  HD
BRANCH 22 24
ATOM     24  CA  THR C 762      15.268 -15.597  23.659  1.00 75.13 LIG 0.21  C 
BRANCH 24 25
ATOM     25  C   THR C 762      14.664 -14.878  24.861  1.00 73.09 LIG 0.20  C 
ATOM     26 OXT  THR C 762      14.534 -13.656  24.841  1.00 76.95 LIG-0.65  OA
ATOM     27 O    THR C 762      14.288 -15.477  25.870  1.00 68.26 LIG-0.65  OA
ENDBRANCH 24 25
BRANCH 24 28
ATOM     28  CB  THR C 762      16.056 -14.574  22.810  1.00 77.67 LIG 0.15  C 
ATOM     29  CG2 THR C 762      17.356 -14.207  23.505  1.00 76.40 LIG 0.04  C 
BRANCH 28 30
ATOM     30 OG1  THR C 762      16.359 -15.131  21.527  1.00 80.43 LIG-0.39  OA
ATOM     31 HG1  THR C 762      15.991 -14.671  20.928  1.00 80.43 LIG 0.21  HD
ENDBRANCH 28 30
ENDBRANCH 24 28
ENDBRANCH 22 24
ENDBRANCH 19 20
ENDBRANCH 3 19
TORSDOF 11
ENDMDL
MODEL 8
USER: ADFR SOLUTION from run 42
USER: SCORE 9.032034 LL:  -1.286 LR:  -8.013 RR:   0.000 FEB:  -4.732
USER: RMSD 7.066816
USER: SEED 41
USER: STATUS no improvement in best in 24 clusters for 5 generations
USER: GENES 13
USER: genes 0 Translation |==|  0.29732 0.50981 0.58557
USER: genes 1 Rotation |==|  0.15826 0.60675 0.33308 0.80652
USER: genes 2 Torsion [N]-C--CA-[N] |==|  0.56527
USER: genes 3 Torsion [C]-CA--CB-[CG] |==|  0.27998
USER: genes 4 Torsion [CA]-CB--CG-[CD] |==|  0.69298
USER: genes 5 Torsion [CB]-CG--CD-[NE] |==|  0.39852
USER: genes 6 Torsion [CG]-CD--NE-[CZ] |==|  0.58372
USER: genes 7 Torsion [C]-N--CA-[C] |==|  0.34600
USER: genes 8 Torsion [N]-CA--C-[N] |==|  0.47048
USER: genes 9 Torsion [C]-N--CA-[C] |==|  0.40131
USER: genes 10 Torsion [N]-CA--C-[OXT] |==|  0.42995
USER: genes 11 Torsion [N]-CA--CB-[OG1] |==|  0.68018
USER: genes 12 Torsion [CA]-CB--OG1-[HG1] |==|  0.97885
ROOT
ATOM      1  C   ARG C 760      13.792 -16.881  19.824  1.00 56.34 LIG 0.26  C 
ATOM      2 O    ARG C 760      13.549 -16.013  18.991  1.00 53.76 LIG-0.27  OA
ATOM      3  N   GLY C 761      14.780 -16.774  20.707  1.00 59.89 LIG-0.35  N 
ATOM      4 H    GLY C 761      15.097 -17.437  21.154  1.00 59.89 LIG 0.16  HD
ENDROOT
BRANCH 1 5
ATOM      5  CA  ARG C 760      12.953 -18.158  19.882  1.00 61.16 LIG 0.40  C 
ATOM      6  N   ARG C 760      12.322 -18.397  18.585  1.00 59.95 LIG 0.61  N 
BRANCH 5 7
ATOM      7  CB  ARG C 760      13.799 -19.363  20.293  1.00 63.40 LIG 0.05  C 
BRANCH 7 8
ATOM      8  CG  ARG C 760      13.652 -19.760  21.748  1.00 63.69 LIG 0.02  C 
BRANCH 8 9
ATOM      9  CD  ARG C 760      14.923 -19.462  22.526  1.00 63.30 LIG 0.14  C 
BRANCH 9 10
ATOM     10  NE  ARG C 760      14.629 -19.007  23.881  1.00 65.15 LIG-0.23  N 
ATOM     11  CZ  ARG C 760      15.392 -18.169  24.576  1.00 66.46 LIG 0.67  C 
ATOM     12  NH1 ARG C 760      16.504 -17.676  24.044  1.00 66.43 LIG-0.23  N 
ATOM     13  NH2 ARG C 760      15.040 -17.817  25.804  1.00 66.89 LIG-0.23  N 
ATOM     14 2HH1 ARG C 760      16.994 -17.134  24.497  1.00 66.43 LIG 0.17  HD
ATOM     15 1HH1 ARG C 760      16.734 -17.899  23.245  1.00 66.43 LIG 0.17  HD
ATOM     16 2HH2 ARG C 760      15.532 -17.274  26.253  1.00 66.89 LIG 0.17  HD
ATOM     17 1HH2 ARG C 760      14.319 -18.131  26.150  1.00 66.89 LIG 0.17  HD
ATOM     18 HE   ARG C 760      13.913 -19.301  24.256  1.00 65.15 LIG 0.18  HD
ENDBRANCH 9 10
ENDBRANCH 8 9
ENDBRANCH 7 8
ENDBRANCH 5 7
ENDBRANCH 1 5
BRANCH 3 19
ATOM     19  CA  GLY C 761      15.414 -15.498  20.992  1.00 62.83 LIG 0.23  C 
BRANCH 19 20
ATOM     20  C   GLY C 761      15.483 -14.962  22.414  1.00 67.24 LIG 0.24  C 
ATOM     21 O    GLY C 761      14.837 -15.489  23.319  1.00 65.14 LIG-0.27  OA
ATOM     22  N   THR C 762      16.272 -13.903  22.587  1.00 72.11 LIG-0.34  N 
ATOM     23 H    THR C 762      16.489 -13.379  21.941  1.00 72.11 LIG 0.16  HD
BRANCH 22 24
ATOM     24  CA  THR C 762      16.860 -13.504  23.871  1.00 75.13 LIG 0.21  C 
BRANCH 24 25
ATOM     25  C   THR C 762      18.247 -12.936  23.585  1.00 73.09 LIG 0.20  C 
ATOM     26 OXT  THR C 762      18.752 -12.132  24.366  1.00 76.95 LIG-0.65  OA
ATOM     27 O    THR C 762      18.901 -13.256  22.591  1.00 68.26 LIG-0.65  OA
ENDBRANCH 24 25
BRANCH 24 28
ATOM     28  CB  THR C 762      16.995 -14.654  24.894  1.00 77.67 LIG 0.15  C 
ATOM     29  CG2 THR C 762      18.433 -14.770  25.367  1.00 76.40 LIG 0.04  C 
BRANCH 28 30
ATOM     30 OG1  THR C 762      16.155 -14.403  26.027  1.00 80.43 LIG-0.39  OA
ATOM     31 HG1  THR C 762      15.829 -13.631  25.968  1.00 80.43 LIG 0.21  HD
ENDBRANCH 28 30
ENDBRANCH 24 28
ENDBRANCH 22 24
ENDBRANCH 19 20
ENDBRANCH 3 19
TORSDOF 11
ENDMDL
MODEL 9
USER: ADFR SOLUTION from run 80
USER: SCORE 8.834624 LL:  -1.481 LR:  -7.907 RR:   0.000 FEB:  -4.625
USER: RMSD 9.802514
USER: SEED 79
USER: STATUS no improvement in best in 42 clusters for 5 generations
USER: GENES 13
USER: genes 0 Translation |==|  0.54598 0.64836 0.83201
USER: genes 1 Rotation |==|  0.23134 0.89555 0.55036 0.63720
USER: genes 2 Torsion [N]-C--CA-[N] |==|  0.27155
USER: genes 3 Torsion [C]-CA--CB-[CG] |==|  0.24325
USER: genes 4 Torsion [CA]-CB--CG-[CD] |==|  0.68382
USER: genes 5 Torsion [CB]-CG--CD-[NE] |==|  0.07539
USER: genes 6 Torsion [CG]-CD--NE-[CZ] |==|  0.30863
USER: genes 7 Torsion [C]-N--CA-[C] |==|  0.12353
USER: genes 8 Torsion [N]-CA--C-[N] |==|  0.04945
USER: genes 9 Torsion [C]-N--CA-[C] |==|  0.15272
USER: genes 10 Torsion [N]-CA--C-[OXT] |==|  0.47470
USER: genes 11 Torsion [N]-CA--CB-[OG1] |==|  0.24001
USER: genes 12 Torsion [CA]-CB--OG1-[HG1] |==|  0.90737
ROOT
ATOM      1  C   ARG C 760      18.081 -15.114  24.814  1.00 56.34 LIG 0.26  C 
ATOM      2 O    ARG C 760      17.892 -13.903  24.861  1.00 53.76 LIG-0.27  OA
ATOM      3  N   GLY C 761      18.813 -15.693  23.867  1.00 59.89 LIG-0.35  N 
ATOM      4 H    GLY C 761      18.793 -16.535  23.692  1.00 59.89 LIG 0.16  HD
ENDROOT
BRANCH 1 5
ATOM      5  CA  ARG C 760      17.464 -16.037  25.866  1.00 61.16 LIG 0.40  C 
ATOM      6  N   ARG C 760      18.299 -16.052  27.065  1.00 59.95 LIG 0.61  N 
BRANCH 5 7
ATOM      7  CB  ARG C 760      16.039 -15.610  26.214  1.00 63.40 LIG 0.05  C 
BRANCH 7 8
ATOM      8  CG  ARG C 760      14.973 -16.205  25.317  1.00 63.69 LIG 0.02  C 
BRANCH 8 9
ATOM      9  CD  ARG C 760      14.292 -15.128  24.489  1.00 63.30 LIG 0.14  C 
BRANCH 9 10
ATOM     10  NE  ARG C 760      15.176 -13.987  24.262  1.00 65.15 LIG-0.23  N 
ATOM     11  CZ  ARG C 760      15.693 -13.660  23.082  1.00 66.46 LIG 0.67  C 
ATOM     12  NH1 ARG C 760      15.413 -14.381  22.003  1.00 66.43 LIG-0.23  N 
ATOM     13  NH2 ARG C 760      16.488 -12.605  22.979  1.00 66.89 LIG-0.23  N 
ATOM     14 2HH1 ARG C 760      15.750 -14.165  21.242  1.00 66.43 LIG 0.17  HD
ATOM     15 1HH1 ARG C 760      14.894 -15.065  22.065  1.00 66.43 LIG 0.17  HD
ATOM     16 2HH2 ARG C 760      16.823 -12.392  22.216  1.00 66.89 LIG 0.17  HD
ATOM     17 1HH2 ARG C 760      16.669 -12.134  23.674  1.00 66.89 LIG 0.17  HD
ATOM     18 HE   ARG C 760      15.374 -13.494  24.938  1.00 65.15 LIG 0.18  HD
ENDBRANCH 9 10
ENDBRANCH 8 9
ENDBRANCH 7 8
ENDBRANCH 5 7
ENDBRANCH 1 5
BRANCH 3 19
ATOM     19  CA  GLY C 761      19.725 -14.927  23.034  1.00 62.83 LIG 0.23  C 
BRANCH 19 20
ATOM     20  C   GLY C 761      20.644 -13.879  23.644  1.00 67.24 LIG 0.24  C 
ATOM     21 O    GLY C 761      21.175 -13.020  22.941  1.00 65.14 LIG-0.27  OA
ATOM     22  N   THR C 762      20.823 -13.975  24.960  1.00 72.11 LIG-0.34  N 
ATOM     23 H    THR C 762      20.694 -14.707  25.392  1.00 72.11 LIG 0.16  HD
BRANCH 22 24
ATOM     24  CA  THR C 762      21.253 -12.868  25.824  1.00 75.13 LIG 0.21  C 
BRANCH 24 25
ATOM     25  C   THR C 762      20.280 -11.712  25.607  1.00 73.09 LIG 0.20  C 
ATOM     26 OXT  THR C 762      20.328 -10.727  26.341  1.00 76.95 LIG-0.65  OA
ATOM     27 O    THR C 762      19.437 -11.716  24.710  1.00 68.26 LIG-0.65  OA
ENDBRANCH 24 25
BRANCH 24 28
ATOM     28  CB  THR C 762      22.689 -12.369  25.551  1.00 77.67 LIG 0.15  C 
ATOM     29  CG2 THR C 762      23.574 -13.526  25.122  1.00 76.40 LIG 0.04  C 
BRANCH 28 30
ATOM     30 OG1  THR C 762      22.677 -11.386  24.510  1.00 80.43 LIG-0.39  OA
ATOM     31 HG1  THR C 762      22.070 -11.570  23.959  1.00 80.43 LIG 0.21  HD
ENDBRANCH 28 30
ENDBRANCH 24 28
ENDBRANCH 22 24
ENDBRANCH 19 20
ENDBRANCH 3 19
TORSDOF 11
ENDMDL
MODEL 10
USER: ADFR SOLUTION from run 15
USER: SCORE 8.401886 LL:  -0.729 LR:  -7.886 RR:   0.000 FEB:  -4.605
USER: RMSD 4.138340
USER: SEED 294261
USER: STATUS no improvement in best in 9 clusters for 5 generations
USER: GENES 13
USER: genes 0 Translation |==|  0.32736 0.45078 0.55552
USER: genes 1 Rotation |==|  0.64597 0.60407 0.96486 0.54204
USER: genes 2 Torsion [N]-C--CA-[N] |==|  0.80765
USER: genes 3 Torsion [C]-CA--CB-[CG] |==|  0.28909
USER: genes 4 Torsion [CA]-CB--CG-[CD] |==|  0.74604
USER: genes 5 Torsion [CB]-CG--CD-[NE] |==|  0.69869
USER: genes 6 Torsion [CG]-CD--NE-[CZ] |==|  0.69706
USER: genes 7 Torsion [C]-N--CA-[C] |==|  0.70286
USER: genes 8 Torsion [N]-CA--C-[N] |==|  0.59444
USER: genes 9 Torsion [C]-N--CA-[C] |==|  0.77929
USER: genes 10 Torsion [N]-CA--C-[OXT] |==|  0.45215
USER: genes 11 Torsion [N]-CA--CB-[OG1] |==|  0.96302
USER: genes 12 Torsion [CA]-CB--OG1-[HG1] |==|  0.05491
ROOT
ATOM      1  C   ARG C 760      14.310 -17.634  19.215  1.00 56.34 LIG 0.26  C 
ATOM      2 O    ARG C 760      15.311 -18.328  19.358  1.00 53.76 LIG-0.27  OA
ATOM      3  N   GLY C 761      14.144 -16.471  19.840  1.00 59.89 LIG-0.35  N 
ATOM      4 H    GLY C 761      13.387 -16.073  19.920  1.00 59.89 LIG 0.16  HD
ENDROOT
BRANCH 1 5
ATOM      5  CA  ARG C 760      13.176 -18.086  18.295  1.00 61.16 LIG 0.40  C 
ATOM      6  N   ARG C 760      12.001 -18.438  19.090  1.00 59.95 LIG 0.61  N 
BRANCH 5 7
ATOM      7  CB  ARG C 760      12.823 -17.006  17.273  1.00 63.40 LIG 0.05  C 
BRANCH 7 8
ATOM      8  CG  ARG C 760      13.340 -17.279  15.874  1.00 63.69 LIG 0.02  C 
BRANCH 8 9
ATOM      9  CD  ARG C 760      14.713 -16.661  15.670  1.00 63.30 LIG 0.14  C 
BRANCH 9 10
ATOM     10  NE  ARG C 760      14.655 -15.506  14.779  1.00 65.15 LIG-0.23  N 
ATOM     11  CZ  ARG C 760      15.137 -15.487  13.540  1.00 66.46 LIG 0.67  C 
ATOM     12  NH1 ARG C 760      15.712 -16.567  13.027  1.00 66.43 LIG-0.23  N 
ATOM     13  NH2 ARG C 760      15.038 -14.385  12.809  1.00 66.89 LIG-0.23  N 
ATOM     14 2HH1 ARG C 760      16.021 -16.550  12.225  1.00 66.43 LIG 0.17  HD
ATOM     15 1HH1 ARG C 760      15.775 -17.285  13.497  1.00 66.43 LIG 0.17  HD
ATOM     16 2HH2 ARG C 760      15.349 -14.372  12.008  1.00 66.89 LIG 0.17  HD
ATOM     17 1HH2 ARG C 760      14.663 -13.685  13.137  1.00 66.89 LIG 0.17  HD
ATOM     18 HE   ARG C 760      14.284 -14.789  15.076  1.00 65.15 LIG 0.18  HD
ENDBRANCH 9 10
ENDBRANCH 8 9
ENDBRANCH 7 8
ENDBRANCH 5 7
ENDBRANCH 1 5
BRANCH 3 19
ATOM     19  CA  GLY C 761      15.261 -15.768  20.450  1.00 62.83 LIG 0.23  C 
BRANCH 19 20
ATOM     20  C   GLY C 761      15.418 -15.720  21.962  1.00 67.24 LIG 0.24  C 
ATOM     21 O    GLY C 761      15.069 -16.669  22.664  1.00 65.14 LIG-0.27  OA
ATOM     22  N   THR C 762      15.941 -14.594  22.446  1.00 72.11 LIG-0.34  N 
ATOM     23 H    THR C 762      15.920 -13.852  22.012  1.00 72.11 LIG 0.16  HD
BRANCH 22 24
ATOM     24  CA  THR C 762      16.606 -14.479  23.749  1.00 75.13 LIG 0.21  C 
BRANCH 24 25
ATOM     25  C   THR C 762      15.517 -14.381  24.813  1.00 73.09 LIG 0.20  C 
ATOM     26 OXT  THR C 762      15.793 -14.593  25.992  1.00 76.95 LIG-0.65  OA
ATOM     27 O    THR C 762      14.352 -14.088  24.543  1.00 68.26 LIG-0.65  OA
ENDBRANCH 24 25
BRANCH 24 28
ATOM     28  CB  THR C 762      17.542 -13.256  23.881  1.00 77.67 LIG 0.15  C 
ATOM     29  CG2 THR C 762      18.870 -13.676  24.487  1.00 76.40 LIG 0.04  C 
BRANCH 28 30
ATOM     30 OG1  THR C 762      17.783 -12.683  22.591  1.00 80.43 LIG-0.39  OA
ATOM     31 HG1  THR C 762      17.183 -12.930  22.058  1.00 80.43 LIG 0.21  HD
ENDBRANCH 28 30
ENDBRANCH 24 28
ENDBRANCH 22 24
ENDBRANCH 19 20
ENDBRANCH 3 19
TORSDOF 11
ENDMDL
MODEL 11
USER: ADFR SOLUTION from run 66
USER: SCORE 9.072515 LL:  -1.337 LR:  -7.827 RR:   0.000 FEB:  -4.545
USER: RMSD 6.500000
USER: SEED 65
USER: STATUS no improvement in best in 27 clusters for 5 generations
USER: GENES 13
USER: genes 0 Translation |==|  0.29584 0.49768 0.55822
USER: genes 1 Rotation |==|  0.22289 0.69209 0.37472 0.84729
USER: genes 2 Torsion [N]-C--CA-[N] |==|  0.71661
USER: genes 3 Torsion [C]-CA--CB-[CG] |==|  0.15234
USER: genes 4 Torsion [CA]-CB--CG-[CD] |==|  0.63166
USER: genes 5 Torsion [CB]-CG--CD-[NE] |==|  0.48624
USER: genes 6 Torsion [CG]-CD--NE-[CZ] |==|  0.63671
USER: genes 7 Torsion [C]-N--CA-[C] |==|  0.23292
USER: genes 8 Torsion [N]-CA--C-[N] |==|  0.52565
USER: genes 9 Torsion [C]-N--CA-[C] |==|  0.81759
USER: genes 10 Torsion [N]-CA--C-[OXT] |==|  0.81427
USER: genes 11 Torsion [N]-CA--CB-[OG1] |==|  0.01119
USER: genes 12 Torsion [CA]-CB--OG1-[HG1] |==|  0.16735
ROOT
ATOM      1  C   ARG C 760      13.766 -17.036  19.270  1.00 56.34 LIG 0.26  C 
ATOM      2 O    ARG C 760      13.538 -15.881  18.923  1.00 53.76 LIG-0.27  OA
ATOM      3  N   GLY C 761      14.892 -17.395  19.879  1.00 59.89 LIG-0.35  N 
ATOM      4 H    GLY C 761      15.163 -18.209  19.946  1.00 59.89 LIG 0.16  HD
ENDROOT
BRANCH 1 5
ATOM      5  CA  ARG C 760      12.744 -18.142  19.007  1.00 61.16 LIG 0.40  C 
ATOM      6  N   ARG C 760      12.805 -18.551  17.605  1.00 59.95 LIG 0.61  N 
BRANCH 5 7
ATOM      7  CB  ARG C 760      12.974 -19.343  19.923  1.00 63.40 LIG 0.05  C 
BRANCH 7 8
ATOM      8  CG  ARG C 760      12.997 -19.005  21.400  1.00 63.69 LIG 0.02  C 
BRANCH 8 9
ATOM      9  CD  ARG C 760      14.188 -19.649  22.089  1.00 63.30 LIG 0.14  C 
BRANCH 9 10
ATOM     10  NE  ARG C 760      14.287 -19.238  23.487  1.00 65.15 LIG-0.23  N 
ATOM     11  CZ  ARG C 760      15.399 -18.790  24.062  1.00 66.46 LIG 0.67  C 
ATOM     12  NH1 ARG C 760      16.521 -18.684  23.360  1.00 66.43 LIG-0.23  N 
ATOM     13  NH2 ARG C 760      15.388 -18.443  25.341  1.00 66.89 LIG-0.23  N 
ATOM     14 2HH1 ARG C 760      17.237 -18.393  23.737  1.00 66.43 LIG 0.17  HD
ATOM     15 1HH1 ARG C 760      16.531 -18.905  22.529  1.00 66.43 LIG 0.17  HD
ATOM     16 2HH2 ARG C 760      16.107 -18.153  25.713  1.00 66.89 LIG 0.17  HD
ATOM     17 1HH2 ARG C 760      14.663 -18.508  25.797  1.00 66.89 LIG 0.17  HD
ATOM     18 HE   ARG C 760      13.578 -19.288  23.970  1.00 65.15 LIG 0.18  HD
ENDBRANCH 9 10
ENDBRANCH 8 9
ENDBRANCH 7 8
ENDBRANCH 5 7
ENDBRANCH 1 5
BRANCH 3 19
ATOM     19  CA  GLY C 761      15.773 -16.416  20.493  1.00 62.83 LIG 0.23  C 
BRANCH 19 20
ATOM     20  C   GLY C 761      15.513 -15.911  21.904  1.00 67.24 LIG 0.24  C 
ATOM     21 O    GLY C 761      14.654 -16.435  22.614  1.00 65.14 LIG-0.27  OA
ATOM     22  N   THR C 762      16.266 -14.882  22.290  1.00 72.11 LIG-0.34  N 
ATOM     23 H    THR C 762      16.646 -14.353  21.729  1.00 72.11 LIG 0.16  HD
BRANCH 22 24
ATOM     24  CA  THR C 762      16.538 -14.529  23.688  1.00 75.13 LIG 0.21  C 
BRANCH 24 25
ATOM     25  C   THR C 762      15.217 -14.101  24.320  1.00 73.09 LIG 0.20  C 
ATOM     26 OXT  THR C 762      14.663 -13.071  23.941  1.00 76.95 LIG-0.65  OA
ATOM     27 O    THR C 762      14.664 -14.755  25.205  1.00 68.26 LIG-0.65  OA
ENDBRANCH 24 25
BRANCH 24 28
ATOM     28  CB  THR C 762      17.568 -13.391  23.869  1.00 77.67 LIG 0.15  C 
ATOM     29  CG2 THR C 762      18.803 -13.910  24.584  1.00 76.40 LIG 0.04  C 
BRANCH 28 30
ATOM     30 OG1  THR C 762      17.956 -12.874  22.591  1.00 80.43 LIG-0.39  OA
ATOM     31 HG1  THR C 762      17.280 -12.571  22.195  1.00 80.43 LIG 0.21  HD
ENDBRANCH 28 30
ENDBRANCH 24 28
ENDBRANCH 22 24
ENDBRANCH 19 20
ENDBRANCH 3 19
TORSDOF 11
ENDMDL
MODEL 12
USER: ADFR SOLUTION from run 186
USER: SCORE 8.528825 LL:  -0.803 LR:  -7.812 RR:   0.000 FEB:  -4.530
USER: RMSD 9.537708
USER: SEED 185
USER: STATUS no improvement in best in 37 clusters for 5 generations
USER: GENES 13
USER: genes 0 Translation |==|  0.56801 0.73829 0.73925
USER: genes 1 Rotation |==|  0.23761 0.85807 0.44230 0.72272
USER: genes 2 Torsion [N]-C--CA-[N] |==|  0.17966
USER: genes 3 Torsion [C]-CA--CB-[CG] |==|  0.54472
USER: genes 4 Torsion [CA]-CB--CG-[CD] |==|  0.86094
USER: genes 5 Torsion [CB]-CG--CD-[NE] |==|  0.86088
USER: genes 6 Torsion [CG]-CD--NE-[CZ] |==|  0.43817
USER: genes 7 Torsion [C]-N--CA-[C] |==|  0.16874
USER: genes 8 Torsion [N]-CA--C-[N] |==|  0.06960
USER: genes 9 Torsion [C]-N--CA-[C] |==|  0.20312
USER: genes 10 Torsion [N]-CA--C-[OXT] |==|  0.02338
USER: genes 11 Torsion [N]-CA--CB-[OG1] |==|  0.22118
USER: genes 12 Torsion [CA]-CB--OG1-[HG1] |==|  0.93352
ROOT
ATOM      1  C   ARG C 760      18.461 -13.968  22.936  1.00 56.34 LIG 0.26  C 
ATOM      2 O    ARG C 760      18.429 -12.756  22.748  1.00 53.76 LIG-0.27  OA
ATOM      3  N   GLY C 761      19.496 -14.724  22.582  1.00 59.89 LIG-0.35  N 
ATOM      4 H    GLY C 761      19.463 -15.580  22.513  1.00 59.89 LIG 0.16  HD
ENDROOT
BRANCH 1 5
ATOM      5  CA  ARG C 760      17.282 -14.683  23.597  1.00 61.16 LIG 0.40  C 
ATOM      6  N   ARG C 760      17.698 -15.245  24.880  1.00 59.95 LIG 0.61  N 
BRANCH 5 7
ATOM      7  CB  ARG C 760      16.095 -13.739  23.789  1.00 63.40 LIG 0.05  C 
BRANCH 7 8
ATOM      8  CG  ARG C 760      15.050 -14.243  24.763  1.00 63.69 LIG 0.02  C 
BRANCH 8 9
ATOM      9  CD  ARG C 760      14.643 -15.671  24.435  1.00 63.30 LIG 0.14  C 
BRANCH 9 10
ATOM     10  NE  ARG C 760      14.299 -15.820  23.024  1.00 65.15 LIG-0.23  N 
ATOM     11  CZ  ARG C 760      14.320 -16.974  22.363  1.00 66.46 LIG 0.67  C 
ATOM     12  NH1 ARG C 760      14.661 -18.096  22.984  1.00 66.43 LIG-0.23  N 
ATOM     13  NH2 ARG C 760      13.993 -17.006  21.079  1.00 66.89 LIG-0.23  N 
ATOM     14 2HH1 ARG C 760      14.672 -18.840  22.552  1.00 66.43 LIG 0.17  HD
ATOM     15 1HH1 ARG C 760      14.870 -18.080  23.818  1.00 66.43 LIG 0.17  HD
ATOM     16 2HH2 ARG C 760      14.006 -17.751  20.651  1.00 66.89 LIG 0.17  HD
ATOM     17 1HH2 ARG C 760      13.768 -16.282  20.675  1.00 66.89 LIG 0.17  HD
ATOM     18 HE   ARG C 760      14.068 -15.114  22.591  1.00 65.15 LIG 0.18  HD
ENDBRANCH 9 10
ENDBRANCH 8 9
ENDBRANCH 7 8
ENDBRANCH 5 7
ENDBRANCH 1 5
BRANCH 3 19
ATOM     19  CA  GLY C 761      20.794 -14.145  22.277  1.00 62.83 LIG 0.23  C 
BRANCH 19 20
ATOM     20  C   GLY C 761      21.559 -13.352  23.326  1.00 67.24 LIG 0.24  C 
ATOM     21 O    GLY C 761      22.390 -12.506  22.996  1.00 65.14 LIG-0.27  OA
ATOM     22  N   THR C 762      21.266 -13.649  24.592  1.00 72.11 LIG-0.34  N 
ATOM     23 H    THR C 762      20.918 -14.401  24.820  1.00 72.11 LIG 0.16  HD
BRANCH 22 24
ATOM     24  CA  THR C 762      21.495 -12.752  25.731  1.00 75.13 LIG 0.21  C 
BRANCH 24 25
ATOM     25  C   THR C 762      20.451 -11.642  25.658  1.00 73.09 LIG 0.20  C 
ATOM     26 OXT  THR C 762      19.535 -11.716  24.841  1.00 76.95 LIG-0.65  OA
ATOM     27 O    THR C 762      20.480 -10.657  26.397  1.00 68.26 LIG-0.65  OA
ENDBRANCH 24 25
BRANCH 24 28
ATOM     28  CB  THR C 762      22.901 -12.112  25.765  1.00 77.67 LIG 0.15  C 
ATOM     29  CG2 THR C 762      23.951 -13.133  25.362  1.00 76.40 LIG 0.04  C 
BRANCH 28 30
ATOM     30 OG1  THR C 762      22.958 -11.006  24.859  1.00 80.43 LIG-0.39  OA
ATOM     31 HG1  THR C 762      22.375 -11.102  24.262  1.00 80.43 LIG 0.21  HD
ENDBRANCH 28 30
ENDBRANCH 24 28
ENDBRANCH 22 24
ENDBRANCH 19 20
ENDBRANCH 3 19
TORSDOF 11
ENDMDL
MODEL 13
USER: ADFR SOLUTION from run 126
USER: SCORE 8.428392 LL:  -0.796 LR:  -7.798 RR:   0.000 FEB:  -4.517
USER: RMSD 9.481165
USER: SEED 125
USER: STATUS no improvement in best in 30 clusters for 5 generations
USER: GENES 13
USER: genes 0 Translation |==|  0.36850 0.68071 0.88986
USER: genes 1 Rotation |==|  0.21321 0.86685 0.66718 0.57224
USER: genes 2 Torsion [N]-C--CA-[N] |==|  0.80797
USER: genes 3 Torsion [C]-CA--CB-[CG] |==|  0.78570
USER: genes 4 Torsion [CA]-CB--CG-[CD] |==|  0.72605
USER: genes 5 Torsion [CB]-CG--CD-[NE] |==|  0.30013
USER: genes 6 Torsion [CG]-CD--NE-[CZ] |==|  0.32537
USER: genes 7 Torsion [C]-N--CA-[C] |==|  0.31040
USER: genes 8 Torsion [N]-CA--C-[N] |==|  0.99994
USER: genes 9 Torsion [C]-N--CA-[C] |==|  0.17467
USER: genes 10 Torsion [N]-CA--C-[OXT] |==|  0.32292
USER: genes 11 Torsion [N]-CA--CB-[OG1] |==|  0.95246
USER: genes 12 Torsion [CA]-CB--OG1-[HG1] |==|  0.17785
ROOT
ATOM      1  C   ARG C 760      15.020 -14.702  25.986  1.00 56.34 LIG 0.26  C 
ATOM      2 O    ARG C 760      14.612 -13.631  26.425  1.00 53.76 LIG-0.27  OA
ATOM      3  N   GLY C 761      15.376 -14.871  24.716  1.00 59.89 LIG-0.35  N 
ATOM      4 H    GLY C 761      15.466 -15.639  24.341  1.00 59.89 LIG 0.16  HD
ENDROOT
BRANCH 1 5
ATOM      5  CA  ARG C 760      15.134 -15.923  26.899  1.00 61.16 LIG 0.40  C 
ATOM      6  N   ARG C 760      14.131 -16.918  26.526  1.00 59.95 LIG 0.61  N 
BRANCH 5 7
ATOM      7  CB  ARG C 760      16.535 -16.531  26.843  1.00 63.40 LIG 0.05  C 
BRANCH 7 8
ATOM      8  CG  ARG C 760      16.805 -17.360  25.604  1.00 63.69 LIG 0.02  C 
BRANCH 8 9
ATOM      9  CD  ARG C 760      16.629 -18.842  25.889  1.00 63.30 LIG 0.14  C 
BRANCH 9 10
ATOM     10  NE  ARG C 760      15.420 -19.370  25.263  1.00 65.15 LIG-0.23  N 
ATOM     11  CZ  ARG C 760      15.409 -20.310  24.323  1.00 66.46 LIG 0.67  C 
ATOM     12  NH1 ARG C 760      16.545 -20.844  23.895  1.00 66.43 LIG-0.23  N 
ATOM     13  NH2 ARG C 760      14.256 -20.721  23.814  1.00 66.89 LIG-0.23  N 
ATOM     14 2HH1 ARG C 760      16.533 -21.452  23.288  1.00 66.43 LIG 0.17  HD
ATOM     15 1HH1 ARG C 760      17.295 -20.582  24.226  1.00 66.43 LIG 0.17  HD
ATOM     16 2HH2 ARG C 760      14.248 -21.329  23.206  1.00 66.89 LIG 0.17  HD
ATOM     17 1HH2 ARG C 760      13.518 -20.380  24.091  1.00 66.89 LIG 0.17  HD
ATOM     18 HE   ARG C 760      14.664 -19.050  25.520  1.00 65.15 LIG 0.18  HD
ENDBRANCH 9 10
ENDBRANCH 8 9
ENDBRANCH 7 8
ENDBRANCH 5 7
ENDBRANCH 1 5
BRANCH 3 19
ATOM     19  CA  GLY C 761      15.648 -13.740  23.844  1.00 62.83 LIG 0.23  C 
BRANCH 19 20
ATOM     20  C   GLY C 761      17.059 -13.464  23.344  1.00 67.24 LIG 0.24  C 
ATOM     21 O    GLY C 761      17.289 -12.511  22.599  1.00 65.14 LIG-0.27  OA
ATOM     22  N   THR C 762      17.990 -14.320  23.761  1.00 72.11 LIG-0.34  N 
ATOM     23 H    THR C 762      17.799 -15.114  24.031  1.00 72.11 LIG 0.16  HD
BRANCH 22 24
ATOM     24  CA  THR C 762      19.427 -14.026  23.813  1.00 75.13 LIG 0.21  C 
BRANCH 24 25
ATOM     25  C   THR C 762      19.626 -12.882  24.803  1.00 73.09 LIG 0.20  C 
ATOM     26 OXT  THR C 762      20.274 -13.068  25.831  1.00 76.95 LIG-0.65  OA
ATOM     27 O    THR C 762      19.163 -11.756  24.615  1.00 68.26 LIG-0.65  OA
ENDBRANCH 24 25
BRANCH 24 28
ATOM     28  CB  THR C 762      20.044 -13.623  22.455  1.00 77.67 LIG 0.15  C 
ATOM     29  CG2 THR C 762      21.385 -14.310  22.265  1.00 76.40 LIG 0.04  C 
BRANCH 28 30
ATOM     30 OG1  THR C 762      19.171 -14.006  21.387  1.00 80.43 LIG-0.39  OA
ATOM     31 HG1  THR C 762      18.450 -13.579  21.448  1.00 80.43 LIG 0.21  HD
ENDBRANCH 28 30
ENDBRANCH 24 28
ENDBRANCH 22 24
ENDBRANCH 19 20
ENDBRANCH 3 19
TORSDOF 11
ENDMDL
MODEL 14
USER: ADFR SOLUTION from run 108
USER: SCORE 9.137905 LL:  -1.638 LR:  -7.757 RR:   0.000 FEB:  -4.476
USER: RMSD 8.386303
USER: SEED 107
USER: STATUS no improvement in best in 18 clusters for 5 generations
USER: GENES 13
USER: genes 0 Translation |==|  0.35804 0.64211 0.88810
USER: genes 1 Rotation |==|  0.72797 0.07632 0.41285 0.60454
USER: genes 2 Torsion [N]-C--CA-[N] |==|  0.88808
USER: genes 3 Torsion [C]-CA--CB-[CG] |==|  0.93252
USER: genes 4 Torsion [CA]-CB--CG-[CD] |==|  0.29538
USER: genes 5 Torsion [CB]-CG--CD-[NE] |==|  0.78078
USER: genes 6 Torsion [CG]-CD--NE-[CZ] |==|  0.67932
USER: genes 7 Torsion [C]-N--CA-[C] |==|  0.32986
USER: genes 8 Torsion [N]-CA--C-[N] |==|  0.49722
USER: genes 9 Torsion [C]-N--CA-[C] |==|  0.75031
USER: genes 10 Torsion [N]-CA--C-[OXT] |==|  0.56424
USER: genes 11 Torsion [N]-CA--CB-[OG1] |==|  0.03947
USER: genes 12 Torsion [CA]-CB--OG1-[HG1] |==|  0.95446
ROOT
ATOM      1  C   ARG C 760      14.839 -15.194  25.950  1.00 56.34 LIG 0.26  C 
ATOM      2 O    ARG C 760      14.618 -14.013  25.700  1.00 53.76 LIG-0.27  OA
ATOM      3  N   GLY C 761      14.600 -16.171  25.080  1.00 59.89 LIG-0.35  N 
ATOM      4 H    GLY C 761      14.551 -17.003  25.294  1.00 59.89 LIG 0.16  HD
ENDROOT
BRANCH 1 5
ATOM      5  CA  ARG C 760      15.409 -15.607  27.307  1.00 61.16 LIG 0.40  C 
ATOM      6  N   ARG C 760      14.755 -16.829  27.770  1.00 59.95 LIG 0.61  N 
BRANCH 5 7
ATOM      7  CB  ARG C 760      16.923 -15.806  27.239  1.00 63.40 LIG 0.05  C 
BRANCH 7 8
ATOM      8  CG  ARG C 760      17.446 -16.134  25.855  1.00 63.69 LIG 0.02  C 
BRANCH 8 9
ATOM      9  CD  ARG C 760      18.169 -14.942  25.249  1.00 63.30 LIG 0.14  C 
BRANCH 9 10
ATOM     10  NE  ARG C 760      17.231 -13.958  24.717  1.00 65.15 LIG-0.23  N 
ATOM     11  CZ  ARG C 760      17.127 -13.637  23.431  1.00 66.46 LIG 0.67  C 
ATOM     12  NH1 ARG C 760      17.899 -14.227  22.528  1.00 66.43 LIG-0.23  N 
ATOM     13  NH2 ARG C 760      16.243 -12.727  23.047  1.00 66.89 LIG-0.23  N 
ATOM     14 2HH1 ARG C 760      17.827 -14.016  21.697  1.00 66.43 LIG 0.17  HD
ATOM     15 1HH1 ARG C 760      18.471 -14.821  22.773  1.00 66.43 LIG 0.17  HD
ATOM     16 2HH2 ARG C 760      16.175 -12.519  22.216  1.00 66.89 LIG 0.17  HD
ATOM     17 1HH2 ARG C 760      15.739 -12.345  23.629  1.00 66.89 LIG 0.17  HD
ATOM     18 HE   ARG C 760      16.711 -13.560  25.274  1.00 65.15 LIG 0.18  HD
ENDBRANCH 9 10
ENDBRANCH 8 9
ENDBRANCH 7 8
ENDBRANCH 5 7
ENDBRANCH 1 5
BRANCH 3 19
ATOM     19  CA  GLY C 761      14.399 -15.901  23.666  1.00 62.83 LIG 0.23  C 
BRANCH 19 20
ATOM     20  C   GLY C 761      15.338 -16.484  22.621  1.00 67.24 LIG 0.24  C 
ATOM     21 O    GLY C 761      16.301 -17.175  22.952  1.00 65.14 LIG-0.27  OA
ATOM     22  N   THR C 762      15.041 -16.184  21.357  1.00 72.11 LIG-0.34  N 
ATOM     23 H    THR C 762      14.566 -15.500  21.145  1.00 72.11 LIG 0.16  HD
BRANCH 22 24
ATOM     24  CA  THR C 762      15.476 -16.964  20.193  1.00 75.13 LIG 0.21  C 
BRANCH 24 25
ATOM     25  C   THR C 762      16.820 -16.401  19.739  1.00 73.09 LIG 0.20  C 
ATOM     26 OXT  THR C 762      17.193 -16.568  18.579  1.00 76.95 LIG-0.65  OA
ATOM     27 O    THR C 762      17.561 -15.769  20.493  1.00 68.26 LIG-0.65  OA
ENDBRANCH 24 25
BRANCH 24 28
ATOM     28  CB  THR C 762      14.494 -16.931  19.000  1.00 77.67 LIG 0.15  C 
ATOM     29  CG2 THR C 762      13.756 -18.254  18.893  1.00 76.40 LIG 0.04  C 
BRANCH 28 30
ATOM     30 OG1  THR C 762      13.538 -15.881  19.182  1.00 80.43 LIG-0.39  OA
ATOM     31 HG1  THR C 762      13.545 -15.632  19.984  1.00 80.43 LIG 0.21  HD
ENDBRANCH 28 30
ENDBRANCH 24 28
ENDBRANCH 22 24
ENDBRANCH 19 20
ENDBRANCH 3 19
TORSDOF 11
ENDMDL
MODEL 15
USER: ADFR SOLUTION from run 19
USER: SCORE 8.367235 LL:  -1.065 LR:  -7.624 RR:   0.000 FEB:  -4.343
USER: RMSD 8.328573
USER: SEED 18
USER: STATUS no improvement in best in 15 clusters for 5 generations
USER: GENES 13
USER: genes 0 Translation |==|  0.35745 0.61260 0.86692
USER: genes 1 Rotation |==|  0.73892 0.07986 0.41376 0.59464
USER: genes 2 Torsion [N]-C--CA-[N] |==|  0.90064
USER: genes 3 Torsion [C]-CA--CB-[CG] |==|  0.94958
USER: genes 4 Torsion [CA]-CB--CG-[CD] |==|  0.30424
USER: genes 5 Torsion [CB]-CG--CD-[NE] |==|  0.76557
USER: genes 6 Torsion [CG]-CD--NE-[CZ] |==|  0.70335
USER: genes 7 Torsion [C]-N--CA-[C] |==|  0.48627
USER: genes 8 Torsion [N]-CA--C-[N] |==|  0.45000
USER: genes 9 Torsion [C]-N--CA-[C] |==|  0.53327
USER: genes 10 Torsion [N]-CA--C-[OXT] |==|  0.00868
USER: genes 11 Torsion [N]-CA--CB-[OG1] |==|  0.87406
USER: genes 12 Torsion [CA]-CB--OG1-[HG1] |==|  0.90133
ROOT
ATOM      1  C   ARG C 760      14.829 -15.570  25.521  1.00 56.34 LIG 0.26  C 
ATOM      2 O    ARG C 760      14.573 -14.392  25.293  1.00 53.76 LIG-0.27  OA
ATOM      3  N   GLY C 761      14.662 -16.531  24.618  1.00 59.89 LIG-0.35  N 
ATOM      4 H    GLY C 761      14.636 -17.370  24.808  1.00 59.89 LIG 0.16  HD
ENDROOT
BRANCH 1 5
ATOM      5  CA  ARG C 760      15.360 -15.999  26.889  1.00 61.16 LIG 0.40  C 
ATOM      6  N   ARG C 760      14.818 -17.308  27.245  1.00 59.95 LIG 0.61  N 
BRANCH 5 7
ATOM      7  CB  ARG C 760      16.888 -16.032  26.908  1.00 63.40 LIG 0.05  C 
BRANCH 7 8
ATOM      8  CG  ARG C 760      17.527 -16.074  25.535  1.00 63.69 LIG 0.02  C 
BRANCH 8 9
ATOM      9  CD  ARG C 760      18.217 -14.758  25.214  1.00 63.30 LIG 0.14  C 
BRANCH 9 10
ATOM     10  NE  ARG C 760      17.280 -13.779  24.672  1.00 65.15 LIG-0.23  N 
ATOM     11  CZ  ARG C 760      17.235 -13.407  23.397  1.00 66.46 LIG 0.67  C 
ATOM     12  NH1 ARG C 760      18.072 -13.937  22.513  1.00 66.43 LIG-0.23  N 
ATOM     13  NH2 ARG C 760      16.347 -12.506  23.002  1.00 66.89 LIG-0.23  N 
ATOM     14 2HH1 ARG C 760      18.038 -13.693  21.689  1.00 66.43 LIG 0.17  HD
ATOM     15 1HH1 ARG C 760      18.648 -14.525  22.765  1.00 66.43 LIG 0.17  HD
ATOM     16 2HH2 ARG C 760      16.317 -12.265  22.177  1.00 66.89 LIG 0.17  HD
ATOM     17 1HH2 ARG C 760      15.801 -12.163  23.570  1.00 66.89 LIG 0.17  HD
ATOM     18 HE   ARG C 760      16.719 -13.419  25.215  1.00 65.15 LIG 0.18  HD
ENDBRANCH 9 10
ENDBRANCH 8 9
ENDBRANCH 7 8
ENDBRANCH 5 7
ENDBRANCH 1 5
BRANCH 3 19
ATOM     19  CA  GLY C 761      14.506 -16.230  23.204  1.00 62.83 LIG 0.23  C 
BRANCH 19 20
ATOM     20  C   GLY C 761      14.428 -17.347  22.174  1.00 67.24 LIG 0.24  C 
ATOM     21 O    GLY C 761      14.821 -18.482  22.442  1.00 65.14 LIG-0.27  OA
ATOM     22  N   THR C 762      13.922 -16.998  20.992  1.00 72.11 LIG-0.34  N 
ATOM     23 H    THR C 762      13.914 -16.184  20.715  1.00 72.11 LIG 0.16  HD
BRANCH 22 24
ATOM     24  CA  THR C 762      13.325 -17.935  20.034  1.00 75.13 LIG 0.21  C 
BRANCH 24 25
ATOM     25  C   THR C 762      13.149 -17.192  18.712  1.00 73.09 LIG 0.20  C 
ATOM     26 OXT  THR C 762      13.548 -16.035  18.604  1.00 76.95 LIG-0.65  OA
ATOM     27 O    THR C 762      12.622 -17.710  17.727  1.00 68.26 LIG-0.65  OA
ENDBRANCH 24 25
BRANCH 24 28
ATOM     28  CB  THR C 762      11.956 -18.506  20.469  1.00 77.67 LIG 0.15  C 
ATOM     29  CG2 THR C 762      11.596 -19.710  19.616  1.00 76.40 LIG 0.04  C 
BRANCH 28 30
ATOM     30 OG1  THR C 762      12.008 -18.910  21.842  1.00 80.43 LIG-0.39  OA
ATOM     31 HG1  THR C 762      12.769 -19.223  22.013  1.00 80.43 LIG 0.21  HD
ENDBRANCH 28 30
ENDBRANCH 24 28
ENDBRANCH 22 24
ENDBRANCH 19 20
ENDBRANCH 3 19
TORSDOF 11
ENDMDL
MODEL 16
USER: ADFR SOLUTION from run 147
USER: SCORE 8.996929 LL:  -1.775 LR:  -7.545 RR:   0.000 FEB:  -4.263
USER: RMSD 9.951856
USER: SEED 146
USER: STATUS no improvement in best in 28 clusters for 5 generations
USER: GENES 13
USER: genes 0 Translation |==|  0.52900 0.55625 0.90486
USER: genes 1 Rotation |==|  0.20685 0.72152 0.36950 0.81299
USER: genes 2 Torsion [N]-C--CA-[N] |==|  0.11439
USER: genes 3 Torsion [C]-CA--CB-[CG] |==|  0.23824
USER: genes 4 Torsion [CA]-CB--CG-[CD] |==|  0.61577
USER: genes 5 Torsion [CB]-CG--CD-[NE] |==|  0.23851
USER: genes 6 Torsion [CG]-CD--NE-[CZ] |==|  0.24179
USER: genes 7 Torsion [C]-N--CA-[C] |==|  0.78871
USER: genes 8 Torsion [N]-CA--C-[N] |==|  0.34155
USER: genes 9 Torsion [C]-N--CA-[C] |==|  0.55117
USER: genes 10 Torsion [N]-CA--C-[OXT] |==|  0.35723
USER: genes 11 Torsion [N]-CA--CB-[OG1] |==|  0.13072
USER: genes 12 Torsion [CA]-CB--OG1-[HG1] |==|  0.85430
ROOT
ATOM      1  C   ARG C 760      17.788 -16.289  26.290  1.00 56.34 LIG 0.26  C 
ATOM      2 O    ARG C 760      17.608 -15.155  25.857  1.00 53.76 LIG-0.27  OA
ATOM      3  N   GLY C 761      18.956 -16.697  26.776  1.00 59.89 LIG-0.35  N 
ATOM      4 H    GLY C 761      19.166 -17.523  26.891  1.00 59.89 LIG 0.16  HD
ENDROOT
BRANCH 1 5
ATOM      5  CA  ARG C 760      16.651 -17.311  26.283  1.00 61.16 LIG 0.40  C 
ATOM      6  N   ARG C 760      16.663 -18.075  27.530  1.00 59.95 LIG 0.61  N 
BRANCH 5 7
ATOM      7  CB  ARG C 760      15.295 -16.635  26.086  1.00 63.40 LIG 0.05  C 
BRANCH 7 8
ATOM      8  CG  ARG C 760      14.918 -16.405  24.637  1.00 63.69 LIG 0.02  C 
BRANCH 8 9
ATOM      9  CD  ARG C 760      14.288 -15.035  24.448  1.00 63.30 LIG 0.14  C 
BRANCH 9 10
ATOM     10  NE  ARG C 760      15.299 -14.002  24.243  1.00 65.15 LIG-0.23  N 
ATOM     11  CZ  ARG C 760      15.815 -13.678  23.062  1.00 66.46 LIG 0.67  C 
ATOM     12  NH1 ARG C 760      15.413 -14.301  21.961  1.00 66.43 LIG-0.23  N 
ATOM     13  NH2 ARG C 760      16.732 -12.725  22.980  1.00 66.89 LIG-0.23  N 
ATOM     14 2HH1 ARG C 760      15.750 -14.088  21.199  1.00 66.43 LIG 0.17  HD
ATOM     15 1HH1 ARG C 760      14.815 -14.918  22.009  1.00 66.43 LIG 0.17  HD
ATOM     16 2HH2 ARG C 760      17.067 -12.515  22.216  1.00 66.89 LIG 0.17  HD
ATOM     17 1HH2 ARG C 760      16.993 -12.318  23.690  1.00 66.89 LIG 0.17  HD
ATOM     18 HE   ARG C 760      15.579 -13.573  24.934  1.00 65.15 LIG 0.18  HD
ENDBRANCH 9 10
ENDBRANCH 8 9
ENDBRANCH 7 8
ENDBRANCH 5 7
ENDBRANCH 1 5
BRANCH 3 19
ATOM     19  CA  GLY C 761      19.993 -15.754  27.161  1.00 62.83 LIG 0.23  C 
BRANCH 19 20
ATOM     20  C   GLY C 761      20.838 -15.052  26.108  1.00 67.24 LIG 0.24  C 
ATOM     21 O    GLY C 761      21.496 -15.699  25.293  1.00 65.14 LIG-0.27  OA
ATOM     22  N   THR C 762      20.810 -13.721  26.148  1.00 72.11 LIG-0.34  N 
ATOM     23 H    THR C 762      20.595 -13.286  26.858  1.00 72.11 LIG 0.16  HD
BRANCH 22 24
ATOM     24  CA  THR C 762      21.134 -12.847  25.015  1.00 75.13 LIG 0.21  C 
BRANCH 24 25
ATOM     25  C   THR C 762      21.432 -11.460  25.575  1.00 73.09 LIG 0.20  C 
ATOM     26 OXT  THR C 762      22.469 -10.881  25.257  1.00 76.95 LIG-0.65  OA
ATOM     27 O    THR C 762      20.664 -10.876  26.341  1.00 68.26 LIG-0.65  OA
ENDBRANCH 24 25
BRANCH 24 28
ATOM     28  CB  THR C 762      20.011 -12.728  23.961  1.00 77.67 LIG 0.15  C 
ATOM     29  CG2 THR C 762      19.910 -14.012  23.155  1.00 76.40 LIG 0.04  C 
BRANCH 28 30
ATOM     30 OG1  THR C 762      18.756 -12.488  24.607  1.00 80.43 LIG-0.39  OA
ATOM     31 HG1  THR C 762      18.630 -13.069  25.199  1.00 80.43 LIG 0.21  HD
ENDBRANCH 28 30
ENDBRANCH 24 28
ENDBRANCH 22 24
ENDBRANCH 19 20
ENDBRANCH 3 19
TORSDOF 11
ENDMDL
MODEL 17
USER: ADFR SOLUTION from run 179
USER: SCORE 8.179102 LL:  -0.817 LR:  -7.488 RR:   0.000 FEB:  -4.207
USER: RMSD 7.984882
USER: SEED 178
USER: STATUS no improvement in best in 32 clusters for 5 generations
USER: GENES 13
USER: genes 0 Translation |==|  0.27307 0.46612 0.56084
USER: genes 1 Rotation |==|  0.23580 0.92280 0.53418 0.51640
USER: genes 2 Torsion [N]-C--CA-[N] |==|  0.87586
USER: genes 3 Torsion [C]-CA--CB-[CG] |==|  0.15210
USER: genes 4 Torsion [CA]-CB--CG-[CD] |==|  0.22347
USER: genes 5 Torsion [CB]-CG--CD-[NE] |==|  0.53360
USER: genes 6 Torsion [CG]-CD--NE-[CZ] |==|  0.53258
USER: genes 7 Torsion [C]-N--CA-[C] |==|  0.81879
USER: genes 8 Torsion [N]-CA--C-[N] |==|  0.88333
USER: genes 9 Torsion [C]-N--CA-[C] |==|  0.48175
USER: genes 10 Torsion [N]-CA--C-[OXT] |==|  0.41710
USER: genes 11 Torsion [N]-CA--CB-[OG1] |==|  0.56534
USER: genes 12 Torsion [CA]-CB--OG1-[HG1] |==|  0.16217
ROOT
ATOM      1  C   ARG C 760      13.373 -17.438  19.323  1.00 56.34 LIG 0.26  C 
ATOM      2 O    ARG C 760      13.192 -16.255  19.051  1.00 53.76 LIG-0.27  OA
ATOM      3  N   GLY C 761      13.709 -18.344  18.410  1.00 59.89 LIG-0.35  N 
ATOM      4 H    GLY C 761      13.642 -19.193  18.529  1.00 59.89 LIG 0.16  HD
ENDROOT
BRANCH 1 5
ATOM      5  CA  ARG C 760      13.213 -17.937  20.759  1.00 61.16 LIG 0.40  C 
ATOM      6  N   ARG C 760      12.449 -19.184  20.770  1.00 59.95 LIG 0.61  N 
BRANCH 5 7
ATOM      7  CB  ARG C 760      14.569 -18.138  21.435  1.00 63.40 LIG 0.05  C 
BRANCH 7 8
ATOM      8  CG  ARG C 760      15.464 -16.915  21.411  1.00 63.69 LIG 0.02  C 
BRANCH 8 9
ATOM      9  CD  ARG C 760      15.075 -15.934  22.505  1.00 63.30 LIG 0.14  C 
BRANCH 9 10
ATOM     10  NE  ARG C 760      15.728 -14.641  22.324  1.00 65.15 LIG-0.23  N 
ATOM     11  CZ  ARG C 760      15.752 -13.676  23.237  1.00 66.46 LIG 0.67  C 
ATOM     12  NH1 ARG C 760      15.164 -13.851  24.414  1.00 66.43 LIG-0.23  N 
ATOM     13  NH2 ARG C 760      16.370 -12.533  22.975  1.00 66.89 LIG-0.23  N 
ATOM     14 2HH1 ARG C 760      15.182 -13.224  25.001  1.00 66.43 LIG 0.17  HD
ATOM     15 1HH1 ARG C 760      14.764 -14.593  24.589  1.00 66.43 LIG 0.17  HD
ATOM     16 2HH2 ARG C 760      16.386 -11.908  23.566  1.00 66.89 LIG 0.17  HD
ATOM     17 1HH2 ARG C 760      16.755 -12.417  22.216  1.00 66.89 LIG 0.17  HD
ATOM     18 HE   ARG C 760      16.125 -14.495  21.575  1.00 65.15 LIG 0.18  HD
ENDBRANCH 9 10
ENDBRANCH 8 9
ENDBRANCH 7 8
ENDBRANCH 5 7
ENDBRANCH 1 5
BRANCH 3 19
ATOM     19  CA  GLY C 761      14.228 -17.958  17.108  1.00 62.83 LIG 0.23  C 
BRANCH 19 20
ATOM     20  C   GLY C 761      13.360 -17.197  16.118  1.00 67.24 LIG 0.24  C 
ATOM     21 O    GLY C 761      13.818 -16.256  15.470  1.00 65.14 LIG-0.27  OA
ATOM     22  N   THR C 762      12.100 -17.618  16.022  1.00 72.11 LIG-0.34  N 
ATOM     23 H    THR C 762      11.713 -18.063  16.648  1.00 72.11 LIG 0.16  HD
BRANCH 22 24
ATOM     24  CA  THR C 762      11.230 -17.384  14.863  1.00 75.13 LIG 0.21  C 
BRANCH 24 25
ATOM     25  C   THR C 762       9.940 -18.166  15.091  1.00 73.09 LIG 0.20  C 
ATOM     26 OXT  THR C 762       8.883 -17.755  14.617  1.00 76.95 LIG-0.65  OA
ATOM     27 O    THR C 762       9.908 -19.216  15.736  1.00 68.26 LIG-0.65  OA
ENDBRANCH 24 25
BRANCH 24 28
ATOM     28  CB  THR C 762      11.841 -17.814  13.511  1.00 77.67 LIG 0.15  C 
ATOM     29  CG2 THR C 762      11.623 -19.301  13.287  1.00 76.40 LIG 0.04  C 
BRANCH 28 30
ATOM     30 OG1  THR C 762      11.224 -17.090  12.441  1.00 80.43 LIG-0.39  OA
ATOM     31 HG1  THR C 762      11.331 -16.266  12.564  1.00 80.43 LIG 0.21  HD
ENDBRANCH 28 30
ENDBRANCH 24 28
ENDBRANCH 22 24
ENDBRANCH 19 20
ENDBRANCH 3 19
TORSDOF 11
ENDMDL
MODEL 18
USER: ADFR SOLUTION from run 37
USER: SCORE 9.232800 LL:  -1.928 LR:  -7.451 RR:   0.000 FEB:  -4.170
USER: RMSD 7.810352
USER: SEED 36
USER: STATUS no improvement in best in 38 clusters for 5 generations
USER: GENES 13
USER: genes 0 Translation |==|  0.37876 0.39740 0.78137
USER: genes 1 Rotation |==|  0.54100 0.01970 0.51555 0.63188
USER: genes 2 Torsion [N]-C--CA-[N] |==|  0.25923
USER: genes 3 Torsion [C]-CA--CB-[CG] |==|  0.20805
USER: genes 4 Torsion [CA]-CB--CG-[CD] |==|  0.73385
USER: genes 5 Torsion [CB]-CG--CD-[NE] |==|  0.79510
USER: genes 6 Torsion [CG]-CD--NE-[CZ] |==|  0.37885
USER: genes 7 Torsion [C]-N--CA-[C] |==|  0.82223
USER: genes 8 Torsion [N]-CA--C-[N] |==|  0.38363
USER: genes 9 Torsion [C]-N--CA-[C] |==|  0.13498
USER: genes 10 Torsion [N]-CA--C-[OXT] |==|  0.60016
USER: genes 11 Torsion [N]-CA--CB-[OG1] |==|  0.93955
USER: genes 12 Torsion [CA]-CB--OG1-[HG1] |==|  0.12296
ROOT
ATOM      1  C   ARG C 760      15.197 -18.314  23.789  1.00 56.34 LIG 0.26  C 
ATOM      2 O    ARG C 760      15.651 -17.586  22.912  1.00 53.76 LIG-0.27  OA
ATOM      3  N   GLY C 761      14.292 -19.257  23.544  1.00 59.89 LIG-0.35  N 
ATOM      4 H    GLY C 761      13.814 -19.633  24.153  1.00 59.89 LIG 0.16  HD
ENDROOT
BRANCH 1 5
ATOM      5  CA  ARG C 760      15.657 -18.163  25.239  1.00 61.16 LIG 0.40  C 
ATOM      6  N   ARG C 760      16.860 -18.961  25.464  1.00 59.95 LIG 0.61  N 
BRANCH 5 7
ATOM      7  CB  ARG C 760      15.916 -16.698  25.592  1.00 63.40 LIG 0.05  C 
BRANCH 7 8
ATOM      8  CG  ARG C 760      14.660 -15.874  25.790  1.00 63.69 LIG 0.02  C 
BRANCH 8 9
ATOM      9  CD  ARG C 760      14.289 -15.131  24.517  1.00 63.30 LIG 0.14  C 
BRANCH 9 10
ATOM     10  NE  ARG C 760      15.185 -14.004  24.272  1.00 65.15 LIG-0.23  N 
ATOM     11  CZ  ARG C 760      15.703 -13.701  23.086  1.00 66.46 LIG 0.67  C 
ATOM     12  NH1 ARG C 760      15.413 -14.434  22.019  1.00 66.43 LIG-0.23  N 
ATOM     13  NH2 ARG C 760      16.510 -12.656  22.966  1.00 66.89 LIG-0.23  N 
ATOM     14 2HH1 ARG C 760      15.751 -14.233  21.254  1.00 66.43 LIG 0.17  HD
ATOM     15 1HH1 ARG C 760      14.886 -15.111  22.092  1.00 66.43 LIG 0.17  HD
ATOM     16 2HH2 ARG C 760      16.846 -12.459  22.200  1.00 66.89 LIG 0.17  HD
ATOM     17 1HH2 ARG C 760      16.698 -12.177  23.654  1.00 66.89 LIG 0.17  HD
ATOM     18 HE   ARG C 760      15.390 -13.503  24.940  1.00 65.15 LIG 0.18  HD
ENDBRANCH 9 10
ENDBRANCH 8 9
ENDBRANCH 7 8
ENDBRANCH 5 7
ENDBRANCH 1 5
BRANCH 3 19
ATOM     19  CA  GLY C 761      14.035 -19.736  22.196  1.00 62.83 LIG 0.23  C 
BRANCH 19 20
ATOM     20  C   GLY C 761      13.470 -18.806  21.133  1.00 67.24 LIG 0.24  C 
ATOM     21 O    GLY C 761      12.563 -18.018  21.402  1.00 65.14 LIG-0.27  OA
ATOM     22  N   THR C 762      14.018 -18.921  19.925  1.00 72.11 LIG-0.34  N 
ATOM     23 H    THR C 762      14.429 -19.631  19.670  1.00 72.11 LIG 0.16  HD
BRANCH 22 24
ATOM     24  CA  THR C 762      13.992 -17.873  18.897  1.00 75.13 LIG 0.21  C 
BRANCH 24 25
ATOM     25  C   THR C 762      14.429 -16.569  19.559  1.00 73.09 LIG 0.20  C 
ATOM     26 OXT  THR C 762      13.913 -15.507  19.217  1.00 76.95 LIG-0.65  OA
ATOM     27 O    THR C 762      15.288 -16.531  20.441  1.00 68.26 LIG-0.65  OA
ENDBRANCH 24 25
BRANCH 24 28
ATOM     28  CB  THR C 762      12.610 -17.659  18.240  1.00 77.67 LIG 0.15  C 
ATOM     29  CG2 THR C 762      12.773 -17.379  16.756  1.00 76.40 LIG 0.04  C 
BRANCH 28 30
ATOM     30 OG1  THR C 762      11.804 -18.831  18.403  1.00 80.43 LIG-0.39  OA
ATOM     31 HG1  THR C 762      11.874 -19.111  19.192  1.00 80.43 LIG 0.21  HD
ENDBRANCH 28 30
ENDBRANCH 24 28
ENDBRANCH 22 24
ENDBRANCH 19 20
ENDBRANCH 3 19
TORSDOF 11
ENDMDL
MODEL 19
USER: ADFR SOLUTION from run 50
USER: SCORE 8.455506 LL:  -1.125 LR:  -7.426 RR:   0.000 FEB:  -4.145
USER: RMSD 4.943005
USER: SEED 49
USER: STATUS no improvement in best in 24 clusters for 5 generations
USER: GENES 13
USER: genes 0 Translation |==|  0.50534 0.52804 0.58566
USER: genes 1 Rotation |==|  0.26760 0.36166 0.91276 0.58048
USER: genes 2 Torsion [N]-C--CA-[N] |==|  0.37546
USER: genes 3 Torsion [C]-CA--CB-[CG] |==|  0.37834
USER: genes 4 Torsion [CA]-CB--CG-[CD] |==|  0.63867
USER: genes 5 Torsion [CB]-CG--CD-[NE] |==|  0.40401
USER: genes 6 Torsion [CG]-CD--NE-[CZ] |==|  0.55932
USER: genes 7 Torsion [C]-N--CA-[C] |==|  0.29444
USER: genes 8 Torsion [N]-CA--C-[N] |==|  0.00425
USER: genes 9 Torsion [C]-N--CA-[C] |==|  0.43491
USER: genes 10 Torsion [N]-CA--C-[OXT] |==|  0.94373
USER: genes 11 Torsion [N]-CA--CB-[OG1] |==|  0.67219
USER: genes 12 Torsion [CA]-CB--OG1-[HG1] |==|  0.96458
ROOT
ATOM      1  C   ARG C 760      17.380 -16.649  19.826  1.00 56.34 LIG 0.26  C 
ATOM      2 O    ARG C 760      17.473 -17.795  20.252  1.00 53.76 LIG-0.27  OA
ATOM      3  N   GLY C 761      16.335 -15.867  20.081  1.00 59.89 LIG-0.35  N 
ATOM      4 H    GLY C 761      16.150 -15.154  19.638  1.00 59.89 LIG 0.16  HD
ENDROOT
BRANCH 1 5
ATOM      5  CA  ARG C 760      18.487 -16.053  18.955  1.00 61.16 LIG 0.40  C 
ATOM      6  N   ARG C 760      19.794 -16.357  19.535  1.00 59.95 LIG 0.61  N 
BRANCH 5 7
ATOM      7  CB  ARG C 760      18.408 -16.574  17.520  1.00 63.40 LIG 0.05  C 
BRANCH 7 8
ATOM      8  CG  ARG C 760      18.597 -15.508  16.459  1.00 63.69 LIG 0.02  C 
BRANCH 8 9
ATOM      9  CD  ARG C 760      17.491 -15.573  15.418  1.00 63.30 LIG 0.14  C 
BRANCH 9 10
ATOM     10  NE  ARG C 760      17.140 -14.245  14.924  1.00 65.15 LIG-0.23  N 
ATOM     11  CZ  ARG C 760      15.984 -13.941  14.342  1.00 66.46 LIG 0.67  C 
ATOM     12  NH1 ARG C 760      15.049 -14.869  14.182  1.00 66.43 LIG-0.23  N 
ATOM     13  NH2 ARG C 760      15.760 -12.704  13.924  1.00 66.89 LIG-0.23  N 
ATOM     14 2HH1 ARG C 760      14.302 -14.667  13.806  1.00 66.43 LIG 0.17  HD
ATOM     15 1HH1 ARG C 760      15.189 -15.673  14.456  1.00 66.43 LIG 0.17  HD
ATOM     16 2HH2 ARG C 760      15.013 -12.506  13.548  1.00 66.89 LIG 0.17  HD
ATOM     17 1HH2 ARG C 760      16.362 -12.099  14.028  1.00 66.89 LIG 0.17  HD
ATOM     18 HE   ARG C 760      17.720 -13.617  15.016  1.00 65.15 LIG 0.18  HD
ENDBRANCH 9 10
ENDBRANCH 8 9
ENDBRANCH 7 8
ENDBRANCH 5 7
ENDBRANCH 1 5
BRANCH 3 19
ATOM     19  CA  GLY C 761      15.403 -16.167  21.155  1.00 62.83 LIG 0.23  C 
BRANCH 19 20
ATOM     20  C   GLY C 761      15.413 -15.358  22.444  1.00 67.24 LIG 0.24  C 
ATOM     21 O    GLY C 761      14.638 -15.625  23.362  1.00 65.14 LIG-0.27  OA
ATOM     22  N   THR C 762      16.298 -14.363  22.486  1.00 72.11 LIG-0.34  N 
ATOM     23 H    THR C 762      16.625 -14.006  21.775  1.00 72.11 LIG 0.16  HD
BRANCH 22 24
ATOM     24  CA  THR C 762      16.817 -13.764  23.720  1.00 75.13 LIG 0.21  C 
BRANCH 24 25
ATOM     25  C   THR C 762      18.163 -13.126  23.391  1.00 73.09 LIG 0.20  C 
ATOM     26 OXT  THR C 762      18.781 -13.483  22.390  1.00 76.95 LIG-0.65  OA
ATOM     27 O    THR C 762      18.668 -12.247  24.091  1.00 68.26 LIG-0.65  OA
ENDBRANCH 24 25
BRANCH 24 28
ATOM     28  CB  THR C 762      17.011 -14.764  24.882  1.00 77.67 LIG 0.15  C 
ATOM     29  CG2 THR C 762      18.458 -14.756  25.344  1.00 76.40 LIG 0.04  C 
BRANCH 28 30
ATOM     30 OG1  THR C 762      16.171 -14.404  25.984  1.00 80.43 LIG-0.39  OA
ATOM     31 HG1  THR C 762      15.867 -13.631  25.863  1.00 80.43 LIG 0.21  HD
ENDBRANCH 28 30
ENDBRANCH 24 28
ENDBRANCH 22 24
ENDBRANCH 19 20
ENDBRANCH 3 19
TORSDOF 11
ENDMDL
MODEL 20
USER: ADFR SOLUTION from run 178
USER: SCORE 7.627442 LL:  -0.889 LR:  -7.419 RR:   0.000 FEB:  -4.138
USER: RMSD 6.742702
USER: SEED 177
USER: STATUS no improvement in best in 19 clusters for 5 generations
USER: GENES 13
USER: genes 0 Translation |==|  0.38929 0.56425 0.73405
USER: genes 1 Rotation |==|  0.49711 0.68264 0.95434 0.60104
USER: genes 2 Torsion [N]-C--CA-[N] |==|  0.75307
USER: genes 3 Torsion [C]-CA--CB-[CG] |==|  0.61387
USER: genes 4 Torsion [CA]-CB--CG-[CD] |==|  0.68772
USER: genes 5 Torsion [CB]-CG--CD-[NE] |==|  0.54372
USER: genes 6 Torsion [CG]-CD--NE-[CZ] |==|  0.35419
USER: genes 7 Torsion [C]-N--CA-[C] |==|  0.19615
USER: genes 8 Torsion [N]-CA--C-[N] |==|  0.78597
USER: genes 9 Torsion [C]-N--CA-[C] |==|  0.15143
USER: genes 10 Torsion [N]-CA--C-[OXT] |==|  0.31607
USER: genes 11 Torsion [N]-CA--CB-[OG1] |==|  0.96360
USER: genes 12 Torsion [CA]-CB--OG1-[HG1] |==|  0.15206
ROOT
ATOM      1  C   ARG C 760      15.378 -16.187  22.831  1.00 56.34 LIG 0.26  C 
ATOM      2 O    ARG C 760      16.058 -16.652  23.740  1.00 53.76 LIG-0.27  OA
ATOM      3  N   GLY C 761      15.056 -14.899  22.759  1.00 59.89 LIG-0.35  N 
ATOM      4 H    GLY C 761      14.427 -14.589  22.262  1.00 59.89 LIG 0.16  HD
ENDROOT
BRANCH 1 5
ATOM      5  CA  ARG C 760      14.853 -17.090  21.714  1.00 61.16 LIG 0.40  C 
ATOM      6  N   ARG C 760      13.533 -17.606  22.072  1.00 59.95 LIG 0.61  N 
BRANCH 5 7
ATOM      7  CB  ARG C 760      14.790 -16.347  20.380  1.00 63.40 LIG 0.05  C 
BRANCH 7 8
ATOM      8  CG  ARG C 760      13.549 -16.642  19.561  1.00 63.69 LIG 0.02  C 
BRANCH 8 9
ATOM      9  CD  ARG C 760      13.899 -17.408  18.296  1.00 63.30 LIG 0.14  C 
BRANCH 9 10
ATOM     10  NE  ARG C 760      12.805 -17.380  17.331  1.00 65.15 LIG-0.23  N 
ATOM     11  CZ  ARG C 760      12.931 -17.006  16.061  1.00 66.46 LIG 0.67  C 
ATOM     12  NH1 ARG C 760      14.113 -16.631  15.587  1.00 66.43 LIG-0.23  N 
ATOM     13  NH2 ARG C 760      11.874 -17.013  15.262  1.00 66.89 LIG-0.23  N 
ATOM     14 2HH1 ARG C 760      14.189 -16.391  14.765  1.00 66.43 LIG 0.17  HD
ATOM     15 1HH1 ARG C 760      14.802 -16.629  16.102  1.00 66.43 LIG 0.17  HD
ATOM     16 2HH2 ARG C 760      11.955 -16.771  14.441  1.00 66.89 LIG 0.17  HD
ATOM     17 1HH2 ARG C 760      11.108 -17.258  15.565  1.00 66.89 LIG 0.17  HD
ATOM     18 HE   ARG C 760      12.025 -17.622  17.602  1.00 65.15 LIG 0.18  HD
ENDBRANCH 9 10
ENDBRANCH 8 9
ENDBRANCH 7 8
ENDBRANCH 5 7
ENDBRANCH 1 5
BRANCH 3 19
ATOM     19  CA  GLY C 761      15.761 -13.892  23.534  1.00 62.83 LIG 0.23  C 
BRANCH 19 20
ATOM     20  C   GLY C 761      17.195 -13.512  23.196  1.00 67.24 LIG 0.24  C 
ATOM     21 O    GLY C 761      17.446 -12.470  22.591  1.00 65.14 LIG-0.27  OA
ATOM     22  N   THR C 762      18.124 -14.381  23.592  1.00 72.11 LIG-0.34  N 
ATOM     23 H    THR C 762      17.946 -15.207  23.750  1.00 72.11 LIG 0.16  HD
BRANCH 22 24
ATOM     24  CA  THR C 762      19.538 -14.047  23.805  1.00 75.13 LIG 0.21  C 
BRANCH 24 25
ATOM     25  C   THR C 762      19.591 -12.877  24.782  1.00 73.09 LIG 0.20  C 
ATOM     26 OXT  THR C 762      20.077 -13.035  25.900  1.00 76.95 LIG-0.65  OA
ATOM     27 O    THR C 762      19.168 -11.756  24.496  1.00 68.26 LIG-0.65  OA
ENDBRANCH 24 25
BRANCH 24 28
ATOM     28  CB  THR C 762      20.301 -13.658  22.519  1.00 77.67 LIG 0.15  C 
ATOM     29  CG2 THR C 762      21.630 -14.391  22.456  1.00 76.40 LIG 0.04  C 
BRANCH 28 30
ATOM     30 OG1  THR C 762      19.527 -14.004  21.366  1.00 80.43 LIG-0.39  OA
ATOM     31 HG1  THR C 762      18.767 -13.651  21.422  1.00 80.43 LIG 0.21  HD
ENDBRANCH 28 30
ENDBRANCH 24 28
ENDBRANCH 22 24
ENDBRANCH 19 20
ENDBRANCH 3 19
TORSDOF 11
ENDMDL
MODEL 21
USER: ADFR SOLUTION from run 135
USER: SCORE 8.499666 LL:  -1.185 LR:  -7.422 RR:   0.000 FEB:  -4.141
USER: RMSD 9.348096
USER: SEED 134
USER: STATUS no improvement in best in 21 clusters for 5 generations
USER: GENES 13
USER: genes 0 Translation |==|  0.36232 0.69219 0.87639
USER: genes 1 Rotation |==|  0.98754 0.54137 0.52694 0.59932
USER: genes 2 Torsion [N]-C--CA-[N] |==|  0.27355
USER: genes 3 Torsion [C]-CA--CB-[CG] |==|  0.15108
USER: genes 4 Torsion [CA]-CB--CG-[CD] |==|  0.63744
USER: genes 5 Torsion [CB]-CG--CD-[NE] |==|  0.24361
USER: genes 6 Torsion [CG]-CD--NE-[CZ] |==|  0.17282
USER: genes 7 Torsion [C]-N--CA-[C] |==|  0.76990
USER: genes 8 Torsion [N]-CA--C-[N] |==|  0.52060
USER: genes 9 Torsion [C]-N--CA-[C] |==|  0.67171
USER: genes 10 Torsion [N]-CA--C-[OXT] |==|  0.07579
USER: genes 11 Torsion [N]-CA--CB-[OG1] |==|  0.10730
USER: genes 12 Torsion [CA]-CB--OG1-[HG1] |==|  0.83870
ROOT
ATOM      1  C   ARG C 760      14.913 -14.556  25.713  1.00 56.34 LIG 0.26  C 
ATOM      2 O    ARG C 760      14.148 -15.489  25.492  1.00 53.76 LIG-0.27  OA
ATOM      3  N   GLY C 761      15.671 -14.006  24.768  1.00 59.89 LIG-0.35  N 
ATOM      4 H    GLY C 761      16.349 -13.504  24.930  1.00 59.89 LIG 0.16  HD
ENDROOT
BRANCH 1 5
ATOM      5  CA  ARG C 760      15.038 -13.971  27.120  1.00 61.16 LIG 0.40  C 
ATOM      6  N   ARG C 760      13.949 -13.028  27.365  1.00 59.95 LIG 0.61  N 
BRANCH 5 7
ATOM      7  CB  ARG C 760      15.038 -15.071  28.182  1.00 63.40 LIG 0.05  C 
BRANCH 7 8
ATOM      8  CG  ARG C 760      16.086 -16.144  27.968  1.00 63.69 LIG 0.02  C 
BRANCH 8 9
ATOM      9  CD  ARG C 760      15.474 -17.531  28.063  1.00 63.30 LIG 0.14  C 
BRANCH 9 10
ATOM     10  NE  ARG C 760      14.956 -17.980  26.774  1.00 65.15 LIG-0.23  N 
ATOM     11  CZ  ARG C 760      15.700 -18.166  25.688  1.00 66.46 LIG 0.67  C 
ATOM     12  NH1 ARG C 760      17.009 -17.951  25.727  1.00 66.43 LIG-0.23  N 
ATOM     13  NH2 ARG C 760      15.134 -18.573  24.561  1.00 66.89 LIG-0.23  N 
ATOM     14 2HH1 ARG C 760      17.486 -18.073  25.022  1.00 66.43 LIG 0.17  HD
ATOM     15 1HH1 ARG C 760      17.381 -17.689  26.458  1.00 66.43 LIG 0.17  HD
ATOM     16 2HH2 ARG C 760      15.614 -18.694  23.858  1.00 66.89 LIG 0.17  HD
ATOM     17 1HH2 ARG C 760      14.287 -18.717  24.533  1.00 66.89 LIG 0.17  HD
ATOM     18 HE   ARG C 760      14.112 -18.135  26.713  1.00 65.15 LIG 0.18  HD
ENDBRANCH 9 10
ENDBRANCH 8 9
ENDBRANCH 7 8
ENDBRANCH 5 7
ENDBRANCH 1 5
BRANCH 3 19
ATOM     19  CA  GLY C 761      15.401 -14.218  23.356  1.00 62.83 LIG 0.23  C 
BRANCH 19 20
ATOM     20  C   GLY C 761      15.898 -15.469  22.647  1.00 67.24 LIG 0.24  C 
ATOM     21 O    GLY C 761      16.425 -16.385  23.279  1.00 65.14 LIG-0.27  OA
ATOM     22  N   THR C 762      15.727 -15.483  21.326  1.00 72.11 LIG-0.34  N 
ATOM     23 H    THR C 762      15.629 -14.763  20.866  1.00 72.11 LIG 0.16  HD
BRANCH 22 24
ATOM     24  CA  THR C 762      15.683 -16.699  20.506  1.00 75.13 LIG 0.21  C 
BRANCH 24 25
ATOM     25  C   THR C 762      16.847 -16.630  19.520  1.00 73.09 LIG 0.20  C 
ATOM     26 OXT  THR C 762      17.858 -15.994  19.811  1.00 76.95 LIG-0.65  OA
ATOM     27 O    THR C 762      16.822 -17.199  18.428  1.00 68.26 LIG-0.65  OA
ENDBRANCH 24 25
BRANCH 24 28
ATOM     28  CB  THR C 762      14.370 -16.886  19.713  1.00 77.67 LIG 0.15  C 
ATOM     29  CG2 THR C 762      13.297 -17.479  20.610  1.00 76.40 LIG 0.04  C 
BRANCH 28 30
ATOM     30 OG1  THR C 762      13.913 -15.623  19.217  1.00 80.43 LIG-0.39  OA
ATOM     31 HG1  THR C 762      13.800 -15.095  19.860  1.00 80.43 LIG 0.21  HD
ENDBRANCH 28 30
ENDBRANCH 24 28
ENDBRANCH 22 24
ENDBRANCH 19 20
ENDBRANCH 3 19
TORSDOF 11
ENDMDL
MODEL 22
USER: ADFR SOLUTION from run 198
USER: SCORE 8.219439 LL:  -0.995 LR:  -7.406 RR:   0.000 FEB:  -4.124
USER: RMSD 8.171986
USER: SEED 197
USER: STATUS no improvement in best in 10 clusters for 5 generations
USER: GENES 13
USER: genes 0 Translation |==|  0.37990 0.32881 0.76711
USER: genes 1 Rotation |==|  0.50832 0.03634 0.60138 0.65707
USER: genes 2 Torsion [N]-C--CA-[N] |==|  0.27665
USER: genes 3 Torsion [C]-CA--CB-[CG] |==|  0.30051
USER: genes 4 Torsion [CA]-CB--CG-[CD] |==|  0.63621
USER: genes 5 Torsion [CB]-CG--CD-[NE] |==|  0.78235
USER: genes 6 Torsion [CG]-CD--NE-[CZ] |==|  0.32036
USER: genes 7 Torsion [C]-N--CA-[C] |==|  0.71895
USER: genes 8 Torsion [N]-CA--C-[N] |==|  0.94478
USER: genes 9 Torsion [C]-N--CA-[C] |==|  0.16545
USER: genes 10 Torsion [N]-CA--C-[OXT] |==|  0.55005
USER: genes 11 Torsion [N]-CA--CB-[OG1] |==|  0.92401
USER: genes 12 Torsion [CA]-CB--OG1-[HG1] |==|  0.16127
ROOT
ATOM      1  C   ARG C 760      15.216 -19.189  23.500  1.00 56.34 LIG 0.26  C 
ATOM      2 O    ARG C 760      15.606 -18.855  22.385  1.00 53.76 LIG-0.27  OA
ATOM      3  N   GLY C 761      14.278 -20.111  23.689  1.00 59.89 LIG-0.35  N 
ATOM      4 H    GLY C 761      13.849 -20.215  24.427  1.00 59.89 LIG 0.16  HD
ENDROOT
BRANCH 1 5
ATOM      5  CA  ARG C 760      15.803 -18.539  24.753  1.00 61.16 LIG 0.40  C 
ATOM      6  N   ARG C 760      17.085 -19.159  25.081  1.00 59.95 LIG 0.61  N 
BRANCH 5 7
ATOM      7  CB  ARG C 760      15.972 -17.030  24.572  1.00 63.40 LIG 0.05  C 
BRANCH 7 8
ATOM      8  CG  ARG C 760      14.989 -16.193  25.365  1.00 63.69 LIG 0.02  C 
BRANCH 8 9
ATOM      9  CD  ARG C 760      14.337 -15.139  24.485  1.00 63.30 LIG 0.14  C 
BRANCH 9 10
ATOM     10  NE  ARG C 760      15.224 -14.001  24.263  1.00 65.15 LIG-0.23  N 
ATOM     11  CZ  ARG C 760      15.720 -13.654  23.079  1.00 66.46 LIG 0.67  C 
ATOM     12  NH1 ARG C 760      15.413 -14.352  21.993  1.00 66.43 LIG-0.23  N 
ATOM     13  NH2 ARG C 760      16.521 -12.603  22.981  1.00 66.89 LIG-0.23  N 
ATOM     14 2HH1 ARG C 760      15.736 -14.123  21.229  1.00 66.43 LIG 0.17  HD
ATOM     15 1HH1 ARG C 760      14.890 -15.033  22.052  1.00 66.43 LIG 0.17  HD
ATOM     16 2HH2 ARG C 760      16.842 -12.378  22.216  1.00 66.89 LIG 0.17  HD
ATOM     17 1HH2 ARG C 760      16.719 -12.147  23.682  1.00 66.89 LIG 0.17  HD
ATOM     18 HE   ARG C 760      15.440 -13.523  24.944  1.00 65.15 LIG 0.18  HD
ENDBRANCH 9 10
ENDBRANCH 8 9
ENDBRANCH 7 8
ENDBRANCH 5 7
ENDBRANCH 1 5
BRANCH 3 19
ATOM     19  CA  GLY C 761      13.897 -21.038  22.636  1.00 62.83 LIG 0.23  C 
BRANCH 19 20
ATOM     20  C   GLY C 761      12.631 -20.816  21.823  1.00 67.24 LIG 0.24  C 
ATOM     21 O    GLY C 761      12.486 -21.349  20.723  1.00 65.14 LIG-0.27  OA
ATOM     22  N   THR C 762      11.726 -20.015  22.383  1.00 72.11 LIG-0.34  N 
ATOM     23 H    THR C 762      11.932 -19.438  22.987  1.00 72.11 LIG 0.16  HD
BRANCH 22 24
ATOM     24  CA  THR C 762      10.297 -20.013  22.050  1.00 75.13 LIG 0.21  C 
BRANCH 24 25
ATOM     25  C   THR C 762       9.755 -21.409  22.346  1.00 73.09 LIG 0.20  C 
ATOM     26 OXT  THR C 762       8.687 -21.767  21.854  1.00 76.95 LIG-0.65  OA
ATOM     27 O    THR C 762      10.351 -22.211  23.066  1.00 68.26 LIG-0.65  OA
ENDBRANCH 24 25
BRANCH 24 28
ATOM     28  CB  THR C 762       9.986 -19.660  20.579  1.00 77.67 LIG 0.15  C 
ATOM     29  CG2 THR C 762       8.663 -18.919  20.486  1.00 76.40 LIG 0.04  C 
BRANCH 28 30
ATOM     30 OG1  THR C 762      11.021 -18.827  20.045  1.00 80.43 LIG-0.39  OA
ATOM     31 HG1  THR C 762      11.759 -19.224  20.107  1.00 80.43 LIG 0.21  HD
ENDBRANCH 28 30
ENDBRANCH 24 28
ENDBRANCH 22 24
ENDBRANCH 19 20
ENDBRANCH 3 19
TORSDOF 11
ENDMDL
MODEL 23
USER: ADFR SOLUTION from run 23
USER: SCORE 8.357357 LL:  -1.102 LR:  -7.396 RR:   0.000 FEB:  -4.114
USER: RMSD 8.042373
USER: SEED 22
USER: STATUS no improvement in best in 36 clusters for 5 generations
USER: GENES 13
USER: genes 0 Translation |==|  0.39257 0.41937 0.80297
USER: genes 1 Rotation |==|  0.52681 0.00713 0.47895 0.57693
USER: genes 2 Torsion [N]-C--CA-[N] |==|  0.40423
USER: genes 3 Torsion [C]-CA--CB-[CG] |==|  0.80469
USER: genes 4 Torsion [CA]-CB--CG-[CD] |==|  0.22362
USER: genes 5 Torsion [CB]-CG--CD-[NE] |==|  0.56402
USER: genes 6 Torsion [CG]-CD--NE-[CZ] |==|  0.41447
USER: genes 7 Torsion [C]-N--CA-[C] |==|  0.82512
USER: genes 8 Torsion [N]-CA--C-[N] |==|  0.41800
USER: genes 9 Torsion [C]-N--CA-[C] |==|  0.76673
USER: genes 10 Torsion [N]-CA--C-[OXT] |==|  0.13285
USER: genes 11 Torsion [N]-CA--CB-[OG1] |==|  0.04746
USER: genes 12 Torsion [CA]-CB--OG1-[HG1] |==|  0.20433
ROOT
ATOM      1  C   ARG C 760      15.435 -18.034  24.226  1.00 56.34 LIG 0.26  C 
ATOM      2 O    ARG C 760      16.123 -17.247  23.584  1.00 53.76 LIG-0.27  OA
ATOM      3  N   GLY C 761      14.538 -18.835  23.659  1.00 59.89 LIG-0.35  N 
ATOM      4 H    GLY C 761      13.912 -19.237  24.091  1.00 59.89 LIG 0.16  HD
ENDROOT
BRANCH 1 5
ATOM      5  CA  ARG C 760      15.577 -18.128  25.746  1.00 61.16 LIG 0.40  C 
ATOM      6  N   ARG C 760      16.970 -17.909  26.129  1.00 59.95 LIG 0.61  N 
BRANCH 5 7
ATOM      7  CB  ARG C 760      14.666 -17.125  26.453  1.00 63.40 LIG 0.05  C 
BRANCH 7 8
ATOM      8  CG  ARG C 760      15.090 -15.679  26.296  1.00 63.69 LIG 0.02  C 
BRANCH 8 9
ATOM      9  CD  ARG C 760      14.643 -15.122  24.954  1.00 63.30 LIG 0.14  C 
BRANCH 9 10
ATOM     10  NE  ARG C 760      15.459 -13.983  24.546  1.00 65.15 LIG-0.23  N 
ATOM     11  CZ  ARG C 760      15.727 -13.663  23.284  1.00 66.46 LIG 0.67  C 
ATOM     12  NH1 ARG C 760      15.237 -14.392  22.289  1.00 66.43 LIG-0.23  N 
ATOM     13  NH2 ARG C 760      16.482 -12.608  23.015  1.00 66.89 LIG-0.23  N 
ATOM     14 2HH1 ARG C 760      15.413 -14.181  21.474  1.00 66.43 LIG 0.17  HD
ATOM     15 1HH1 ARG C 760      14.743 -15.076  22.459  1.00 66.43 LIG 0.17  HD
ATOM     16 2HH2 ARG C 760      16.655 -12.400  22.199  1.00 66.89 LIG 0.17  HD
ATOM     17 1HH2 ARG C 760      16.798 -12.131  23.657  1.00 66.89 LIG 0.17  HD
ATOM     18 HE   ARG C 760      15.788 -13.484  25.164  1.00 65.15 LIG 0.18  HD
ENDBRANCH 9 10
ENDBRANCH 8 9
ENDBRANCH 7 8
ENDBRANCH 5 7
ENDBRANCH 1 5
BRANCH 3 19
ATOM     19  CA  GLY C 761      14.548 -19.100  22.230  1.00 62.83 LIG 0.23  C 
BRANCH 19 20
ATOM     20  C   GLY C 761      14.322 -17.977  21.228  1.00 67.24 LIG 0.24  C 
ATOM     21 O    GLY C 761      13.622 -17.006  21.516  1.00 65.14 LIG-0.27  OA
ATOM     22  N   THR C 762      14.922 -18.135  20.050  1.00 72.11 LIG-0.34  N 
ATOM     23 H    THR C 762      15.162 -18.905  19.753  1.00 72.11 LIG 0.16  HD
BRANCH 22 24
ATOM     24  CA  THR C 762      15.244 -17.040  19.127  1.00 75.13 LIG 0.21  C 
BRANCH 24 25
ATOM     25  C   THR C 762      13.994 -16.753  18.300  1.00 73.09 LIG 0.20  C 
ATOM     26 OXT  THR C 762      12.905 -16.631  18.859  1.00 76.95 LIG-0.65  OA
ATOM     27 O    THR C 762      14.024 -16.631  17.075  1.00 68.26 LIG-0.65  OA
ENDBRANCH 24 25
BRANCH 24 28
ATOM     28  CB  THR C 762      16.417 -17.339  18.167  1.00 77.67 LIG 0.15  C 
ATOM     29  CG2 THR C 762      17.675 -16.631  18.640  1.00 76.40 LIG 0.04  C 
BRANCH 28 30
ATOM     30 OG1  THR C 762      16.668 -18.748  18.125  1.00 80.43 LIG-0.39  OA
ATOM     31 HG1  THR C 762      16.061 -19.128  17.686  1.00 80.43 LIG 0.21  HD
ENDBRANCH 28 30
ENDBRANCH 24 28
ENDBRANCH 22 24
ENDBRANCH 19 20
ENDBRANCH 3 19
TORSDOF 11
ENDMDL
MODEL 24
USER: ADFR SOLUTION from run 47
USER: SCORE 8.087516 LL:  -0.995 LR:  -7.375 RR:   0.000 FEB:  -4.094
USER: RMSD 8.524864
USER: SEED 46
USER: STATUS no improvement in best in 32 clusters for 5 generations
USER: GENES 13
USER: genes 0 Translation |==|  0.45284 0.64753 0.71397
USER: genes 1 Rotation |==|  0.68880 0.94208 0.37689 0.56134
USER: genes 2 Torsion [N]-C--CA-[N] |==|  0.76416
USER: genes 3 Torsion [C]-CA--CB-[CG] |==|  0.37236
USER: genes 4 Torsion [CA]-CB--CG-[CD] |==|  0.83999
USER: genes 5 Torsion [CB]-CG--CD-[NE] |==|  0.89110
USER: genes 6 Torsion [CG]-CD--NE-[CZ] |==|  0.76562
USER: genes 7 Torsion [C]-N--CA-[C] |==|  0.58869
USER: genes 8 Torsion [N]-CA--C-[N] |==|  0.50441
USER: genes 9 Torsion [C]-N--CA-[C] |==|  0.13701
USER: genes 10 Torsion [N]-CA--C-[OXT] |==|  0.14294
USER: genes 11 Torsion [N]-CA--CB-[OG1] |==|  0.22813
USER: genes 12 Torsion [CA]-CB--OG1-[HG1] |==|  0.90284
ROOT
ATOM      1  C   ARG C 760      16.475 -15.125  22.424  1.00 56.34 LIG 0.26  C 
ATOM      2 O    ARG C 760      17.605 -15.545  22.196  1.00 53.76 LIG-0.27  OA
ATOM      3  N   GLY C 761      15.409 -15.511  21.729  1.00 59.89 LIG-0.35  N 
ATOM      4 H    GLY C 761      14.659 -15.092  21.728  1.00 59.89 LIG 0.16  HD
ENDROOT
BRANCH 1 5
ATOM      5  CA  ARG C 760      16.234 -14.109  23.541  1.00 61.16 LIG 0.40  C 
ATOM      6  N   ARG C 760      16.244 -12.755  22.992  1.00 59.95 LIG 0.61  N 
BRANCH 5 7
ATOM      7  CB  ARG C 760      14.917 -14.380  24.267  1.00 63.40 LIG 0.05  C 
BRANCH 7 8
ATOM      8  CG  ARG C 760      15.016 -14.331  25.778  1.00 63.69 LIG 0.02  C 
BRANCH 8 9
ATOM      9  CD  ARG C 760      16.046 -15.325  26.289  1.00 63.30 LIG 0.14  C 
BRANCH 9 10
ATOM     10  NE  ARG C 760      16.000 -16.579  25.542  1.00 65.15 LIG-0.23  N 
ATOM     11  CZ  ARG C 760      15.165 -17.580  25.802  1.00 66.46 LIG 0.67  C 
ATOM     12  NH1 ARG C 760      14.288 -17.481  26.794  1.00 66.43 LIG-0.23  N 
ATOM     13  NH2 ARG C 760      15.202 -18.681  25.066  1.00 66.89 LIG-0.23  N 
ATOM     14 2HH1 ARG C 760      13.750 -18.131  26.958  1.00 66.43 LIG 0.17  HD
ATOM     15 1HH1 ARG C 760      14.258 -16.766  27.272  1.00 66.43 LIG 0.17  HD
ATOM     16 2HH2 ARG C 760      14.662 -19.328  25.233  1.00 66.89 LIG 0.17  HD
ATOM     17 1HH2 ARG C 760      15.766 -18.747  24.421  1.00 66.89 LIG 0.17  HD
ATOM     18 HE   ARG C 760      16.550 -16.675  24.888  1.00 65.15 LIG 0.18  HD
ENDBRANCH 9 10
ENDBRANCH 8 9
ENDBRANCH 7 8
ENDBRANCH 5 7
ENDBRANCH 1 5
BRANCH 3 19
ATOM     19  CA  GLY C 761      15.433 -16.703  20.897  1.00 62.83 LIG 0.23  C 
BRANCH 19 20
ATOM     20  C   GLY C 761      14.603 -16.781  19.624  1.00 67.24 LIG 0.24  C 
ATOM     21 O    GLY C 761      13.913 -15.829  19.261  1.00 65.14 LIG-0.27  OA
ATOM     22  N   THR C 762      14.681 -17.935  18.962  1.00 72.11 LIG-0.34  N 
ATOM     23 H    THR C 762      14.920 -18.669  19.341  1.00 72.11 LIG 0.16  HD
BRANCH 22 24
ATOM     24  CA  THR C 762      14.377 -18.098  17.536  1.00 75.13 LIG 0.21  C 
BRANCH 24 25
ATOM     25  C   THR C 762      15.133 -17.011  16.778  1.00 73.09 LIG 0.20  C 
ATOM     26 OXT  THR C 762      16.338 -16.860  16.965  1.00 76.95 LIG-0.65  OA
ATOM     27 O    THR C 762      14.582 -16.266  15.965  1.00 68.26 LIG-0.65  OA
ENDBRANCH 24 25
BRANCH 24 28
ATOM     28  CB  THR C 762      12.874 -17.994  17.189  1.00 77.67 LIG 0.15  C 
ATOM     29  CG2 THR C 762      12.039 -18.651  18.275  1.00 76.40 LIG 0.04  C 
BRANCH 28 30
ATOM     30 OG1  THR C 762      12.491 -16.619  17.079  1.00 80.43 LIG-0.39  OA
ATOM     31 HG1  THR C 762      12.923 -16.163  17.636  1.00 80.43 LIG 0.21  HD
ENDBRANCH 28 30
ENDBRANCH 24 28
ENDBRANCH 22 24
ENDBRANCH 19 20
ENDBRANCH 3 19
TORSDOF 11
ENDMDL
MODEL 25
USER: ADFR SOLUTION from run 20
USER: SCORE 7.726489 LL:  -0.779 LR:  -7.356 RR:   0.000 FEB:  -4.075
USER: RMSD 4.463703
USER: SEED 19
USER: STATUS no improvement in best in 25 clusters for 5 generations
USER: GENES 13
USER: genes 0 Translation |==|  0.49218 0.51643 0.56089
USER: genes 1 Rotation |==|  0.27103 0.31319 0.86083 0.68020
USER: genes 2 Torsion [N]-C--CA-[N] |==|  0.32078
USER: genes 3 Torsion [C]-CA--CB-[CG] |==|  0.10046
USER: genes 4 Torsion [CA]-CB--CG-[CD] |==|  0.38747
USER: genes 5 Torsion [CB]-CG--CD-[NE] |==|  0.45211
USER: genes 6 Torsion [CG]-CD--NE-[CZ] |==|  0.32054
USER: genes 7 Torsion [C]-N--CA-[C] |==|  0.31465
USER: genes 8 Torsion [N]-CA--C-[N] |==|  0.07778
USER: genes 9 Torsion [C]-N--CA-[C] |==|  0.80763
USER: genes 10 Torsion [N]-CA--C-[OXT] |==|  0.96394
USER: genes 11 Torsion [N]-CA--CB-[OG1] |==|  0.97437
USER: genes 12 Torsion [CA]-CB--OG1-[HG1] |==|  0.12878
ROOT
ATOM      1  C   ARG C 760      17.153 -16.796  19.324  1.00 56.34 LIG 0.26  C 
ATOM      2 O    ARG C 760      16.919 -17.999  19.260  1.00 53.76 LIG-0.27  OA
ATOM      3  N   GLY C 761      16.333 -15.934  19.917  1.00 59.89 LIG-0.35  N 
ATOM      4 H    GLY C 761      16.366 -15.083  19.800  1.00 59.89 LIG 0.16  HD
ENDROOT
BRANCH 1 5
ATOM      5  CA  ARG C 760      18.427 -16.220  18.706  1.00 61.16 LIG 0.40  C 
ATOM      6  N   ARG C 760      19.599 -16.743  19.404  1.00 59.95 LIG 0.61  N 
BRANCH 5 7
ATOM      7  CB  ARG C 760      18.513 -16.534  17.212  1.00 63.40 LIG 0.05  C 
BRANCH 7 8
ATOM      8  CG  ARG C 760      17.179 -16.510  16.493  1.00 63.69 LIG 0.02  C 
BRANCH 8 9
ATOM      9  CD  ARG C 760      17.308 -15.856  15.127  1.00 63.30 LIG 0.14  C 
BRANCH 9 10
ATOM     10  NE  ARG C 760      16.170 -16.176  14.269  1.00 65.15 LIG-0.23  N 
ATOM     11  CZ  ARG C 760      15.293 -15.284  13.820  1.00 66.46 LIG 0.67  C 
ATOM     12  NH1 ARG C 760      15.418 -14.002  14.136  1.00 66.43 LIG-0.23  N 
ATOM     13  NH2 ARG C 760      14.290 -15.676  13.046  1.00 66.89 LIG-0.23  N 
ATOM     14 2HH1 ARG C 760      14.848 -13.429  13.842  1.00 66.43 LIG 0.17  HD
ATOM     15 1HH1 ARG C 760      16.070 -13.743  14.635  1.00 66.43 LIG 0.17  HD
ATOM     16 2HH2 ARG C 760      13.723 -15.100  12.755  1.00 66.89 LIG 0.17  HD
ATOM     17 1HH2 ARG C 760      14.208 -16.505  12.837  1.00 66.89 LIG 0.17  HD
ATOM     18 HE   ARG C 760      16.061 -16.998  14.039  1.00 65.15 LIG 0.18  HD
ENDBRANCH 9 10
ENDBRANCH 8 9
ENDBRANCH 7 8
ENDBRANCH 5 7
ENDBRANCH 1 5
BRANCH 3 19
ATOM     19  CA  GLY C 761      15.292 -16.376  20.830  1.00 62.83 LIG 0.23  C 
BRANCH 19 20
ATOM     20  C   GLY C 761      15.354 -16.026  22.309  1.00 67.24 LIG 0.24  C 
ATOM     21 O    GLY C 761      14.828 -16.752  23.152  1.00 65.14 LIG-0.27  OA
ATOM     22  N   THR C 762      15.999 -14.898  22.603  1.00 72.11 LIG-0.34  N 
ATOM     23 H    THR C 762      16.113 -14.269  22.028  1.00 72.11 LIG 0.16  HD
BRANCH 22 24
ATOM     24  CA  THR C 762      16.586 -14.592  23.912  1.00 75.13 LIG 0.21  C 
BRANCH 24 25
ATOM     25  C   THR C 762      15.436 -14.383  24.893  1.00 73.09 LIG 0.20  C 
ATOM     26 OXT  THR C 762      14.289 -14.248  24.472  1.00 76.95 LIG-0.65  OA
ATOM     27 O    THR C 762      15.605 -14.348  26.113  1.00 68.26 LIG-0.65  OA
ENDBRANCH 24 25
BRANCH 24 28
ATOM     28  CB  THR C 762      17.489 -13.338  23.929  1.00 77.67 LIG 0.15  C 
ATOM     29  CG2 THR C 762      18.827 -13.664  24.568  1.00 76.40 LIG 0.04  C 
BRANCH 28 30
ATOM     30 OG1  THR C 762      17.714 -12.879  22.591  1.00 80.43 LIG-0.39  OA
ATOM     31 HG1  THR C 762      16.985 -12.864  22.174  1.00 80.43 LIG 0.21  HD
ENDBRANCH 28 30
ENDBRANCH 24 28
ENDBRANCH 22 24
ENDBRANCH 19 20
ENDBRANCH 3 19
TORSDOF 11
ENDMDL
MODEL 26
USER: ADFR SOLUTION from run 172
USER: SCORE 8.504068 LL:  -1.206 LR:  -7.365 RR:   0.000 FEB:  -4.083
USER: RMSD 7.795109
USER: SEED 171
USER: STATUS no improvement in best in 46 clusters for 5 generations
USER: GENES 13
USER: genes 0 Translation |==|  0.35303 0.40243 0.71641
USER: genes 1 Rotation |==|  0.14686 0.15355 0.48444 0.57090
USER: genes 2 Torsion [N]-C--CA-[N] |==|  0.47511
USER: genes 3 Torsion [C]-CA--CB-[CG] |==|  0.31289
USER: genes 4 Torsion [CA]-CB--CG-[CD] |==|  0.73749
USER: genes 5 Torsion [CB]-CG--CD-[NE] |==|  0.77028
USER: genes 6 Torsion [CG]-CD--NE-[CZ] |==|  0.30041
USER: genes 7 Torsion [C]-N--CA-[C] |==|  0.18385
USER: genes 8 Torsion [N]-CA--C-[N] |==|  0.08640
USER: genes 9 Torsion [C]-N--CA-[C] |==|  0.67081
USER: genes 10 Torsion [N]-CA--C-[OXT] |==|  0.52612
USER: genes 11 Torsion [N]-CA--CB-[OG1] |==|  0.93361
USER: genes 12 Torsion [CA]-CB--OG1-[HG1] |==|  0.26071
ROOT
ATOM      1  C   ARG C 760      14.753 -18.250  22.473  1.00 56.34 LIG 0.26  C 
ATOM      2 O    ARG C 760      15.293 -19.049  21.714  1.00 53.76 LIG-0.27  OA
ATOM      3  N   GLY C 761      13.909 -17.313  22.051  1.00 59.89 LIG-0.35  N 
ATOM      4 H    GLY C 761      13.682 -16.627  22.516  1.00 59.89 LIG 0.16  HD
ENDROOT
BRANCH 1 5
ATOM      5  CA  ARG C 760      15.037 -18.292  23.975  1.00 61.16 LIG 0.40  C 
ATOM      6  N   ARG C 760      15.804 -19.493  24.302  1.00 59.95 LIG 0.61  N 
BRANCH 5 7
ATOM      7  CB  ARG C 760      15.785 -17.041  24.436  1.00 63.40 LIG 0.05  C 
BRANCH 7 8
ATOM      8  CG  ARG C 760      14.983 -16.136  25.349  1.00 63.69 LIG 0.02  C 
BRANCH 8 9
ATOM      9  CD  ARG C 760      14.295 -15.036  24.558  1.00 63.30 LIG 0.14  C 
BRANCH 9 10
ATOM     10  NE  ARG C 760      15.197 -13.918  24.296  1.00 65.15 LIG-0.23  N 
ATOM     11  CZ  ARG C 760      15.713 -13.631  23.105  1.00 66.46 LIG 0.67  C 
ATOM     12  NH1 ARG C 760      15.413 -14.375  22.047  1.00 66.43 LIG-0.23  N 
ATOM     13  NH2 ARG C 760      16.526 -12.594  22.970  1.00 66.89 LIG-0.23  N 
ATOM     14 2HH1 ARG C 760      15.749 -14.184  21.279  1.00 66.43 LIG 0.17  HD
ATOM     15 1HH1 ARG C 760      14.882 -15.047  22.130  1.00 66.43 LIG 0.17  HD
ATOM     16 2HH2 ARG C 760      16.860 -12.407  22.200  1.00 66.89 LIG 0.17  HD
ATOM     17 1HH2 ARG C 760      16.720 -12.108  23.651  1.00 66.89 LIG 0.17  HD
ATOM     18 HE   ARG C 760      15.409 -13.411  24.958  1.00 65.15 LIG 0.18  HD
ENDBRANCH 9 10
ENDBRANCH 8 9
ENDBRANCH 7 8
ENDBRANCH 5 7
ENDBRANCH 1 5
BRANCH 3 19
ATOM     19  CA  GLY C 761      13.290 -17.381  20.738  1.00 62.83 LIG 0.23  C 
BRANCH 19 20
ATOM     20  C   GLY C 761      12.298 -18.485  20.400  1.00 67.24 LIG 0.24  C 
ATOM     21 O    GLY C 761      12.195 -18.910  19.249  1.00 65.14 LIG-0.27  OA
ATOM     22  N   THR C 762      11.570 -18.931  21.422  1.00 72.11 LIG-0.34  N 
ATOM     23 H    THR C 762      11.437 -18.464  22.132  1.00 72.11 LIG 0.16  HD
BRANCH 22 24
ATOM     24  CA  THR C 762      10.918 -20.244  21.469  1.00 75.13 LIG 0.21  C 
BRANCH 24 25
ATOM     25  C   THR C 762       9.415 -20.007  21.587  1.00 73.09 LIG 0.20  C 
ATOM     26 OXT  THR C 762       8.663 -20.952  21.817  1.00 76.95 LIG-0.65  OA
ATOM     27 O    THR C 762       8.910 -18.890  21.466  1.00 68.26 LIG-0.65  OA
ENDBRANCH 24 25
BRANCH 24 28
ATOM     28  CB  THR C 762      11.374 -21.142  22.641  1.00 77.67 LIG 0.15  C 
ATOM     29  CG2 THR C 762      11.422 -22.594  22.201  1.00 76.40 LIG 0.04  C 
BRANCH 28 30
ATOM     30 OG1  THR C 762      12.679 -20.748  23.080  1.00 80.43 LIG-0.39  OA
ATOM     31 HG1  THR C 762      12.608 -20.204  23.716  1.00 80.43 LIG 0.21  HD
ENDBRANCH 28 30
ENDBRANCH 24 28
ENDBRANCH 22 24
ENDBRANCH 19 20
ENDBRANCH 3 19
TORSDOF 11
ENDMDL
MODEL 27
USER: ADFR SOLUTION from run 103
USER: SCORE 8.155972 LL:  -1.080 LR:  -7.296 RR:   0.000 FEB:  -4.014
USER: RMSD 7.760577
USER: SEED 102
USER: STATUS no improvement in best in 35 clusters for 5 generations
USER: GENES 13
USER: genes 0 Translation |==|  0.34462 0.40853 0.70085
USER: genes 1 Rotation |==|  0.18187 0.13231 0.49294 0.61638
USER: genes 2 Torsion [N]-C--CA-[N] |==|  0.46212
USER: genes 3 Torsion [C]-CA--CB-[CG] |==|  0.30431
USER: genes 4 Torsion [CA]-CB--CG-[CD] |==|  0.72315
USER: genes 5 Torsion [CB]-CG--CD-[NE] |==|  0.77989
USER: genes 6 Torsion [CG]-CD--NE-[CZ] |==|  0.28204
USER: genes 7 Torsion [C]-N--CA-[C] |==|  0.82262
USER: genes 8 Torsion [N]-CA--C-[N] |==|  0.33333
USER: genes 9 Torsion [C]-N--CA-[C] |==|  0.80827
USER: genes 10 Torsion [N]-CA--C-[OXT] |==|  0.88824
USER: genes 11 Torsion [N]-CA--CB-[OG1] |==|  0.11013
USER: genes 12 Torsion [CA]-CB--OG1-[HG1] |==|  0.13821
ROOT
ATOM      1  C   ARG C 760      14.608 -18.172  22.158  1.00 56.34 LIG 0.26  C 
ATOM      2 O    ARG C 760      15.153 -18.776  21.240  1.00 53.76 LIG-0.27  OA
ATOM      3  N   GLY C 761      13.575 -17.357  21.970  1.00 59.89 LIG-0.35  N 
ATOM      4 H    GLY C 761      13.311 -16.776  22.547  1.00 59.89 LIG 0.16  HD
ENDROOT
BRANCH 1 5
ATOM      5  CA  ARG C 760      15.107 -18.329  23.595  1.00 61.16 LIG 0.40  C 
ATOM      6  N   ARG C 760      16.008 -19.477  23.685  1.00 59.95 LIG 0.61  N 
BRANCH 5 7
ATOM      7  CB  ARG C 760      15.809 -17.062  24.082  1.00 63.40 LIG 0.05  C 
BRANCH 7 8
ATOM      8  CG  ARG C 760      15.039 -16.289  25.134  1.00 63.69 LIG 0.02  C 
BRANCH 8 9
ATOM      9  CD  ARG C 760      14.303 -15.111  24.516  1.00 63.30 LIG 0.14  C 
BRANCH 9 10
ATOM     10  NE  ARG C 760      15.199 -13.983  24.279  1.00 65.15 LIG-0.23  N 
ATOM     11  CZ  ARG C 760      15.711 -13.665  23.094  1.00 66.46 LIG 0.67  C 
ATOM     12  NH1 ARG C 760      15.413 -14.385  22.020  1.00 66.43 LIG-0.23  N 
ATOM     13  NH2 ARG C 760      16.518 -12.620  22.982  1.00 66.89 LIG-0.23  N 
ATOM     14 2HH1 ARG C 760      15.746 -14.175  21.255  1.00 66.43 LIG 0.17  HD
ATOM     15 1HH1 ARG C 760      14.886 -15.062  22.088  1.00 66.43 LIG 0.17  HD
ATOM     16 2HH2 ARG C 760      16.849 -12.414  22.216  1.00 66.89 LIG 0.17  HD
ATOM     17 1HH2 ARG C 760      16.710 -12.150  23.675  1.00 66.89 LIG 0.17  HD
ATOM     18 HE   ARG C 760      15.409 -13.490  24.952  1.00 65.15 LIG 0.18  HD
ENDBRANCH 9 10
ENDBRANCH 8 9
ENDBRANCH 7 8
ENDBRANCH 5 7
ENDBRANCH 1 5
BRANCH 3 19
ATOM     19  CA  GLY C 761      12.793 -17.386  20.745  1.00 62.83 LIG 0.23  C 
BRANCH 19 20
ATOM     20  C   GLY C 761      13.425 -17.027  19.409  1.00 67.24 LIG 0.24  C 
ATOM     21 O    GLY C 761      13.911 -15.912  19.220  1.00 65.14 LIG-0.27  OA
ATOM     22  N   THR C 762      13.399 -17.989  18.488  1.00 72.11 LIG-0.34  N 
ATOM     23 H    THR C 762      12.834 -18.637  18.513  1.00 72.11 LIG 0.16  HD
BRANCH 22 24
ATOM     24  CA  THR C 762      14.312 -18.068  17.342  1.00 75.13 LIG 0.21  C 
BRANCH 24 25
ATOM     25  C   THR C 762      13.962 -16.922  16.397  1.00 73.09 LIG 0.20  C 
ATOM     26 OXT  THR C 762      12.784 -16.631  16.198  1.00 76.95 LIG-0.65  OA
ATOM     27 O    THR C 762      14.821 -16.257  15.817  1.00 68.26 LIG-0.65  OA
ENDBRANCH 24 25
BRANCH 24 28
ATOM     28  CB  THR C 762      14.238 -19.398  16.559  1.00 77.67 LIG 0.15  C 
ATOM     29  CG2 THR C 762      15.042 -20.471  17.273  1.00 76.40 LIG 0.04  C 
BRANCH 28 30
ATOM     30 OG1  THR C 762      12.878 -19.831  16.455  1.00 80.43 LIG-0.39  OA
ATOM     31 HG1  THR C 762      12.402 -19.196  16.180  1.00 80.43 LIG 0.21  HD
ENDBRANCH 28 30
ENDBRANCH 24 28
ENDBRANCH 22 24
ENDBRANCH 19 20
ENDBRANCH 3 19
TORSDOF 11
ENDMDL
MODEL 28
USER: ADFR SOLUTION from run 45
USER: SCORE 8.393784 LL:  -1.330 LR:  -7.299 RR:   0.000 FEB:  -4.018
USER: RMSD 9.946736
USER: SEED 44
USER: STATUS no improvement in best in 36 clusters for 5 generations
USER: GENES 13
USER: genes 0 Translation |==|  0.53503 0.76476 0.74088
USER: genes 1 Rotation |==|  0.27512 0.87712 0.37193 0.70201
USER: genes 2 Torsion [N]-C--CA-[N] |==|  0.70807
USER: genes 3 Torsion [C]-CA--CB-[CG] |==|  0.22371
USER: genes 4 Torsion [CA]-CB--CG-[CD] |==|  0.52058
USER: genes 5 Torsion [CB]-CG--CD-[NE] |==|  0.99919
USER: genes 6 Torsion [CG]-CD--NE-[CZ] |==|  0.71669
USER: genes 7 Torsion [C]-N--CA-[C] |==|  0.15010
USER: genes 8 Torsion [N]-CA--C-[N] |==|  0.13259
USER: genes 9 Torsion [C]-N--CA-[C] |==|  0.17973
USER: genes 10 Torsion [N]-CA--C-[OXT] |==|  0.51661
USER: genes 11 Torsion [N]-CA--CB-[OG1] |==|  0.23536
USER: genes 12 Torsion [CA]-CB--OG1-[HG1] |==|  0.83770
ROOT
ATOM      1  C   ARG C 760      17.892 -13.630  22.969  1.00 56.34 LIG 0.26  C 
ATOM      2 O    ARG C 760      18.215 -12.508  22.591  1.00 53.76 LIG-0.27  OA
ATOM      3  N   GLY C 761      18.685 -14.690  22.837  1.00 59.89 LIG-0.35  N 
ATOM      4 H    GLY C 761      18.413 -15.503  22.901  1.00 59.89 LIG 0.16  HD
ENDROOT
BRANCH 1 5
ATOM      5  CA  ARG C 760      16.529 -13.868  23.619  1.00 61.16 LIG 0.40  C 
ATOM      6  N   ARG C 760      15.481 -13.844  22.599  1.00 59.95 LIG 0.61  N 
BRANCH 5 7
ATOM      7  CB  ARG C 760      16.499 -15.193  24.381  1.00 63.40 LIG 0.05  C 
BRANCH 7 8
ATOM      8  CG  ARG C 760      17.127 -15.133  25.758  1.00 63.69 LIG 0.02  C 
BRANCH 8 9
ATOM      9  CD  ARG C 760      17.222 -16.519  26.375  1.00 63.30 LIG 0.14  C 
BRANCH 9 10
ATOM     10  NE  ARG C 760      16.678 -17.541  25.486  1.00 65.15 LIG-0.23  N 
ATOM     11  CZ  ARG C 760      15.478 -18.097  25.624  1.00 66.46 LIG 0.67  C 
ATOM     12  NH1 ARG C 760      14.678 -17.728  26.616  1.00 66.43 LIG-0.23  N 
ATOM     13  NH2 ARG C 760      15.075 -19.021  24.764  1.00 66.89 LIG-0.23  N 
ATOM     14 2HH1 ARG C 760      13.903 -18.090  26.701  1.00 66.43 LIG 0.17  HD
ATOM     15 1HH1 ARG C 760      14.935 -17.126  27.175  1.00 66.43 LIG 0.17  HD
ATOM     16 2HH2 ARG C 760      14.299 -19.381  24.852  1.00 66.89 LIG 0.17  HD
ATOM     17 1HH2 ARG C 760      15.589 -19.260  24.118  1.00 66.89 LIG 0.17  HD
ATOM     18 HE   ARG C 760      17.167 -17.801  24.828  1.00 65.15 LIG 0.18  HD
ENDBRANCH 9 10
ENDBRANCH 8 9
ENDBRANCH 7 8
ENDBRANCH 5 7
ENDBRANCH 1 5
BRANCH 3 19
ATOM     19  CA  GLY C 761      20.106 -14.550  22.570  1.00 62.83 LIG 0.23  C 
BRANCH 19 20
ATOM     20  C   GLY C 761      20.988 -13.695  23.469  1.00 67.24 LIG 0.24  C 
ATOM     21 O    GLY C 761      21.776 -12.881  22.989  1.00 65.14 LIG-0.27  OA
ATOM     22  N   THR C 762      20.842 -13.904  24.776  1.00 72.11 LIG-0.34  N 
ATOM     23 H    THR C 762      20.521 -14.635  25.094  1.00 72.11 LIG 0.16  HD
BRANCH 22 24
ATOM     24  CA  THR C 762      21.201 -12.935  25.818  1.00 75.13 LIG 0.21  C 
BRANCH 24 25
ATOM     25  C   THR C 762      20.288 -11.723  25.653  1.00 73.09 LIG 0.20  C 
ATOM     26 OXT  THR C 762      20.469 -10.723  26.344  1.00 76.95 LIG-0.65  OA
ATOM     27 O    THR C 762      19.363 -11.697  24.839  1.00 68.26 LIG-0.65  OA
ENDBRANCH 24 25
BRANCH 24 28
ATOM     28  CB  THR C 762      22.671 -12.461  25.768  1.00 77.67 LIG 0.15  C 
ATOM     29  CG2 THR C 762      23.574 -13.600  25.328  1.00 76.40 LIG 0.04  C 
BRANCH 28 30
ATOM     30 OG1  THR C 762      22.806 -11.379  24.841  1.00 80.43 LIG-0.39  OA
ATOM     31 HG1  THR C 762      22.552 -11.628  24.081  1.00 80.43 LIG 0.21  HD
ENDBRANCH 28 30
ENDBRANCH 24 28
ENDBRANCH 22 24
ENDBRANCH 19 20
ENDBRANCH 3 19
TORSDOF 11
ENDMDL
MODEL 29
USER: ADFR SOLUTION from run 149
USER: SCORE 8.527785 LL:  -1.271 LR:  -7.272 RR:   0.000 FEB:  -3.991
USER: RMSD 6.207150
USER: SEED 148
USER: STATUS no improvement in best in 20 clusters for 5 generations
USER: GENES 13
USER: genes 0 Translation |==|  0.41800 0.54715 0.67378
USER: genes 1 Rotation |==|  0.44106 0.50607 0.99564 0.52874
USER: genes 2 Torsion [N]-C--CA-[N] |==|  0.40549
USER: genes 3 Torsion [C]-CA--CB-[CG] |==|  0.34439
USER: genes 4 Torsion [CA]-CB--CG-[CD] |==|  0.33869
USER: genes 5 Torsion [CB]-CG--CD-[NE] |==|  0.43275
USER: genes 6 Torsion [CG]-CD--NE-[CZ] |==|  0.32717
USER: genes 7 Torsion [C]-N--CA-[C] |==|  0.20619
USER: genes 8 Torsion [N]-CA--C-[N] |==|  0.03552
USER: genes 9 Torsion [C]-N--CA-[C] |==|  0.31659
USER: genes 10 Torsion [N]-CA--C-[OXT] |==|  0.44745
USER: genes 11 Torsion [N]-CA--CB-[OG1] |==|  0.62410
USER: genes 12 Torsion [CA]-CB--OG1-[HG1] |==|  0.93787
ROOT
ATOM      1  C   ARG C 760      15.874 -16.405  21.610  1.00 56.34 LIG 0.26  C 
ATOM      2 O    ARG C 760      16.598 -17.139  22.275  1.00 53.76 LIG-0.27  OA
ATOM      3  N   GLY C 761      15.038 -15.528  22.159  1.00 59.89 LIG-0.35  N 
ATOM      4 H    GLY C 761      14.387 -15.157  21.738  1.00 59.89 LIG 0.16  HD
ENDROOT
BRANCH 1 5
ATOM      5  CA  ARG C 760      15.895 -16.469  20.083  1.00 61.16 LIG 0.40  C 
ATOM      6  N   ARG C 760      17.248 -16.771  19.617  1.00 59.95 LIG 0.61  N 
BRANCH 5 7
ATOM      7  CB  ARG C 760      14.906 -17.508  19.554  1.00 63.40 LIG 0.05  C 
BRANCH 7 8
ATOM      8  CG  ARG C 760      13.893 -16.959  18.570  1.00 63.69 LIG 0.02  C 
BRANCH 8 9
ATOM      9  CD  ARG C 760      13.971 -17.693  17.241  1.00 63.30 LIG 0.14  C 
BRANCH 9 10
ATOM     10  NE  ARG C 760      12.711 -17.611  16.508  1.00 65.15 LIG-0.23  N 
ATOM     11  CZ  ARG C 760      12.569 -17.032  15.319  1.00 66.46 LIG 0.67  C 
ATOM     12  NH1 ARG C 760      13.614 -16.484  14.712  1.00 66.43 LIG-0.23  N 
ATOM     13  NH2 ARG C 760      11.381 -17.006  14.734  1.00 66.89 LIG-0.23  N 
ATOM     14 2HH1 ARG C 760      13.517 -16.111  13.943  1.00 66.43 LIG 0.17  HD
ATOM     15 1HH1 ARG C 760      14.388 -16.501  15.086  1.00 66.43 LIG 0.17  HD
ATOM     16 2HH2 ARG C 760      11.288 -16.632  13.966  1.00 66.89 LIG 0.17  HD
ATOM     17 1HH2 ARG C 760      10.703 -17.363  15.124  1.00 66.89 LIG 0.17  HD
ATOM     18 HE   ARG C 760      12.014 -17.961  16.869  1.00 65.15 LIG 0.18  HD
ENDBRANCH 9 10
ENDBRANCH 8 9
ENDBRANCH 7 8
ENDBRANCH 5 7
ENDBRANCH 1 5
BRANCH 3 19
ATOM     19  CA  GLY C 761      15.166 -15.121  23.549  1.00 62.83 LIG 0.23  C 
BRANCH 19 20
ATOM     20  C   GLY C 761      16.275 -14.175  23.984  1.00 67.24 LIG 0.24  C 
ATOM     21 O    GLY C 761      16.529 -14.006  25.177  1.00 65.14 LIG-0.27  OA
ATOM     22  N   THR C 762      16.922 -13.561  22.995  1.00 72.11 LIG-0.34  N 
ATOM     23 H    THR C 762      16.579 -13.457  22.214  1.00 72.11 LIG 0.16  HD
BRANCH 22 24
ATOM     24  CA  THR C 762      18.272 -12.996  23.108  1.00 75.13 LIG 0.21  C 
BRANCH 24 25
ATOM     25  C   THR C 762      19.188 -13.807  22.196  1.00 73.09 LIG 0.20  C 
ATOM     26 OXT  THR C 762      20.268 -13.339  21.842  1.00 76.95 LIG-0.65  OA
ATOM     27 O    THR C 762      18.892 -14.933  21.795  1.00 68.26 LIG-0.65  OA
ENDBRANCH 24 25
BRANCH 24 28
ATOM     28  CB  THR C 762      18.852 -13.014  24.540  1.00 77.67 LIG 0.15  C 
ATOM     29  CG2 THR C 762      19.893 -14.112  24.670  1.00 76.40 LIG 0.04  C 
BRANCH 28 30
ATOM     30 OG1  THR C 762      19.468 -11.756  24.836  1.00 80.43 LIG-0.39  OA
ATOM     31 HG1  THR C 762      19.672 -11.369  24.119  1.00 80.43 LIG 0.21  HD
ENDBRANCH 28 30
ENDBRANCH 24 28
ENDBRANCH 22 24
ENDBRANCH 19 20
ENDBRANCH 3 19
TORSDOF 11
ENDMDL
MODEL 30
USER: ADFR SOLUTION from run 161
USER: SCORE 7.864348 LL:  -0.689 LR:  -7.261 RR:   0.000 FEB:  -3.980
USER: RMSD 5.222830
USER: SEED 160
USER: STATUS no improvement in best in 37 clusters for 5 generations
USER: GENES 13
USER: genes 0 Translation |==|  0.31843 0.45632 0.58628
USER: genes 1 Rotation |==|  0.57618 0.64403 0.94399 0.66224
USER: genes 2 Torsion [N]-C--CA-[N] |==|  0.71075
USER: genes 3 Torsion [C]-CA--CB-[CG] |==|  0.36581
USER: genes 4 Torsion [CA]-CB--CG-[CD] |==|  0.25710
USER: genes 5 Torsion [CB]-CG--CD-[NE] |==|  0.37562
USER: genes 6 Torsion [CG]-CD--NE-[CZ] |==|  0.26351
USER: genes 7 Torsion [C]-N--CA-[C] |==|  0.81934
USER: genes 8 Torsion [N]-CA--C-[N] |==|  0.89530
USER: genes 9 Torsion [C]-N--CA-[C] |==|  0.18389
USER: genes 10 Torsion [N]-CA--C-[OXT] |==|  0.49872
USER: genes 11 Torsion [N]-CA--CB-[OG1] |==|  0.87770
USER: genes 12 Torsion [CA]-CB--OG1-[HG1] |==|  0.72241
ROOT
ATOM      1  C   ARG C 760      14.156 -17.563  19.838  1.00 56.34 LIG 0.26  C 
ATOM      2 O    ARG C 760      14.740 -18.406  20.512  1.00 53.76 LIG-0.27  OA
ATOM      3  N   GLY C 761      14.303 -16.256  20.034  1.00 59.89 LIG-0.35  N 
ATOM      4 H    GLY C 761      13.765 -15.661  19.725  1.00 59.89 LIG 0.16  HD
ENDROOT
BRANCH 1 5
ATOM      5  CA  ARG C 760      13.205 -17.987  18.718  1.00 61.16 LIG 0.40  C 
ATOM      6  N   ARG C 760      11.947 -18.463  19.289  1.00 59.95 LIG 0.61  N 
BRANCH 5 7
ATOM      7  CB  ARG C 760      12.947 -16.839  17.742  1.00 63.40 LIG 0.05  C 
BRANCH 7 8
ATOM      8  CG  ARG C 760      13.095 -17.218  16.282  1.00 63.69 LIG 0.02  C 
BRANCH 8 9
ATOM      9  CD  ARG C 760      11.761 -17.645  15.692  1.00 63.30 LIG 0.14  C 
BRANCH 9 10
ATOM     10  NE  ARG C 760      11.537 -17.045  14.380  1.00 65.15 LIG-0.23  N 
ATOM     11  CZ  ARG C 760      11.824 -17.636  13.224  1.00 66.46 LIG 0.67  C 
ATOM     12  NH1 ARG C 760      12.343 -18.857  13.206  1.00 66.43 LIG-0.23  N 
ATOM     13  NH2 ARG C 760      11.586 -17.006  12.083  1.00 66.89 LIG-0.23  N 
ATOM     14 2HH1 ARG C 760      12.526 -19.235  12.456  1.00 66.43 LIG 0.17  HD
ATOM     15 1HH1 ARG C 760      12.496 -19.271  13.945  1.00 66.43 LIG 0.17  HD
ATOM     16 2HH2 ARG C 760      11.771 -17.387  11.335  1.00 66.89 LIG 0.17  HD
ATOM     17 1HH2 ARG C 760      11.247 -16.216  12.091  1.00 66.89 LIG 0.17  HD
ATOM     18 HE   ARG C 760      11.197 -16.256  14.353  1.00 65.15 LIG 0.18  HD
ENDBRANCH 9 10
ENDBRANCH 8 9
ENDBRANCH 7 8
ENDBRANCH 5 7
ENDBRANCH 1 5
BRANCH 3 19
ATOM     19  CA  GLY C 761      15.413 -15.721  20.805  1.00 62.83 LIG 0.23  C 
BRANCH 19 20
ATOM     20  C   GLY C 761      15.546 -16.021  22.291  1.00 67.24 LIG 0.24  C 
ATOM     21 O    GLY C 761      16.649 -16.222  22.798  1.00 65.14 LIG-0.27  OA
ATOM     22  N   THR C 762      14.400 -16.054  22.971  1.00 72.11 LIG-0.34  N 
ATOM     23 H    THR C 762      13.642 -16.195  22.591  1.00 72.11 LIG 0.16  HD
BRANCH 22 24
ATOM     24  CA  THR C 762      14.288 -15.859  24.421  1.00 75.13 LIG 0.21  C 
BRANCH 24 25
ATOM     25  C   THR C 762      14.685 -14.417  24.723  1.00 73.09 LIG 0.20  C 
ATOM     26 OXT  THR C 762      14.663 -14.006  25.881  1.00 76.95 LIG-0.65  OA
ATOM     27 O    THR C 762      15.040 -13.631  23.843  1.00 68.26 LIG-0.65  OA
ENDBRANCH 24 25
BRANCH 24 28
ATOM     28  CB  THR C 762      15.174 -16.806  25.262  1.00 77.67 LIG 0.15  C 
ATOM     29  CG2 THR C 762      14.712 -16.808  26.708  1.00 76.40 LIG 0.04  C 
BRANCH 28 30
ATOM     30 OG1  THR C 762      15.091 -18.139  24.747  1.00 80.43 LIG-0.39  OA
ATOM     31 HG1  THR C 762      14.558 -18.588  25.216  1.00 80.43 LIG 0.21  HD
ENDBRANCH 28 30
ENDBRANCH 24 28
ENDBRANCH 22 24
ENDBRANCH 19 20
ENDBRANCH 3 19
TORSDOF 11
ENDMDL
MODEL 31
USER: ADFR SOLUTION from run 132
USER: SCORE 7.426837 LL:  -0.884 LR:  -7.246 RR:   0.000 FEB:  -3.965
USER: RMSD 9.297384
USER: SEED 131
USER: STATUS no improvement in best in 35 clusters for 5 generations
USER: GENES 13
USER: genes 0 Translation |==|  0.37962 0.66306 0.76088
USER: genes 1 Rotation |==|  0.38072 0.76005 0.80549 0.77354
USER: genes 2 Torsion [N]-C--CA-[N] |==|  0.02516
USER: genes 3 Torsion [C]-CA--CB-[CG] |==|  0.85754
USER: genes 4 Torsion [CA]-CB--CG-[CD] |==|  0.36144
USER: genes 5 Torsion [CB]-CG--CD-[NE] |==|  0.98543
USER: genes 6 Torsion [CG]-CD--NE-[CZ] |==|  0.65478
USER: genes 7 Torsion [C]-N--CA-[C] |==|  0.26652
USER: genes 8 Torsion [N]-CA--C-[N] |==|  0.71667
USER: genes 9 Torsion [C]-N--CA-[C] |==|  0.15193
USER: genes 10 Torsion [N]-CA--C-[OXT] |==|  0.08727
USER: genes 11 Torsion [N]-CA--CB-[OG1] |==|  0.90720
USER: genes 12 Torsion [CA]-CB--OG1-[HG1] |==|  0.73256
ROOT
ATOM      1  C   ARG C 760      15.212 -14.927  23.374  1.00 56.34 LIG 0.26  C 
ATOM      2 O    ARG C 760      15.008 -14.826  24.580  1.00 53.76 LIG-0.27  OA
ATOM      3  N   GLY C 761      15.903 -14.026  22.682  1.00 59.89 LIG-0.35  N 
ATOM      4 H    GLY C 761      15.886 -13.963  21.825  1.00 59.89 LIG 0.16  HD
ENDROOT
BRANCH 1 5
ATOM      5  CA  ARG C 760      14.661 -16.119  22.591  1.00 61.16 LIG 0.40  C 
ATOM      6  N   ARG C 760      15.209 -16.119  21.236  1.00 59.95 LIG 0.61  N 
BRANCH 5 7
ATOM      7  CB  ARG C 760      14.976 -17.440  23.292  1.00 63.40 LIG 0.05  C 
BRANCH 7 8
ATOM      8  CG  ARG C 760      16.435 -17.616  23.662  1.00 63.69 LIG 0.02  C 
BRANCH 8 9
ATOM      9  CD  ARG C 760      16.583 -18.033  25.116  1.00 63.30 LIG 0.14  C 
BRANCH 9 10
ATOM     10  NE  ARG C 760      15.297 -18.034  25.808  1.00 65.15 LIG-0.23  N 
ATOM     11  CZ  ARG C 760      15.039 -17.351  26.919  1.00 66.46 LIG 0.67  C 
ATOM     12  NH1 ARG C 760      15.978 -16.594  27.473  1.00 66.43 LIG-0.23  N 
ATOM     13  NH2 ARG C 760      13.838 -17.420  27.473  1.00 66.89 LIG-0.23  N 
ATOM     14 2HH1 ARG C 760      15.806 -16.154  28.192  1.00 66.43 LIG 0.17  HD
ATOM     15 1HH1 ARG C 760      16.758 -16.544  27.114  1.00 66.43 LIG 0.17  HD
ATOM     16 2HH2 ARG C 760      13.670 -16.978  28.192  1.00 66.89 LIG 0.17  HD
ATOM     17 1HH2 ARG C 760      13.227 -17.907  27.115  1.00 66.89 LIG 0.17  HD
ATOM     18 HE   ARG C 760      14.663 -18.510  25.473  1.00 65.15 LIG 0.18  HD
ENDBRANCH 9 10
ENDBRANCH 8 9
ENDBRANCH 7 8
ENDBRANCH 5 7
ENDBRANCH 1 5
BRANCH 3 19
ATOM     19  CA  GLY C 761      16.761 -13.055  23.340  1.00 62.83 LIG 0.23  C 
BRANCH 19 20
ATOM     20  C   GLY C 761      18.254 -13.311  23.492  1.00 67.24 LIG 0.24  C 
ATOM     21 O    GLY C 761      19.021 -13.153  22.542  1.00 65.14 LIG-0.27  OA
ATOM     22  N   THR C 762      18.643 -13.715  24.700  1.00 72.11 LIG-0.34  N 
ATOM     23 H    THR C 762      18.106 -14.087  25.258  1.00 72.11 LIG 0.16  HD
BRANCH 22 24
ATOM     24  CA  THR C 762      20.008 -13.580  25.222  1.00 75.13 LIG 0.21  C 
BRANCH 24 25
ATOM     25  C   THR C 762      20.399 -12.109  25.111  1.00 73.09 LIG 0.20  C 
ATOM     26 OXT  THR C 762      19.538 -11.238  25.215  1.00 76.95 LIG-0.65  OA
ATOM     27 O    THR C 762      21.561 -11.745  24.924  1.00 68.26 LIG-0.65  OA
ENDBRANCH 24 25
BRANCH 24 28
ATOM     28  CB  THR C 762      21.062 -14.432  24.479  1.00 77.67 LIG 0.15  C 
ATOM     29  CG2 THR C 762      22.221 -14.757  25.405  1.00 76.40 LIG 0.04  C 
BRANCH 28 30
ATOM     30 OG1  THR C 762      20.472 -15.657  24.029  1.00 80.43 LIG-0.39  OA
ATOM     31 HG1  THR C 762      20.632 -16.265  24.586  1.00 80.43 LIG 0.21  HD
ENDBRANCH 28 30
ENDBRANCH 24 28
ENDBRANCH 22 24
ENDBRANCH 19 20
ENDBRANCH 3 19
TORSDOF 11
ENDMDL
MODEL 32
USER: ADFR SOLUTION from run 173
USER: SCORE 8.581706 LL:  -1.489 LR:  -7.246 RR:   0.000 FEB:  -3.965
USER: RMSD 7.450486
USER: SEED 172
USER: STATUS no improvement in best in 46 clusters for 5 generations
USER: GENES 13
USER: genes 0 Translation |==|  0.42248 0.42894 0.71636
USER: genes 1 Rotation |==|  0.94580 0.66739 0.65170 0.51531
USER: genes 2 Torsion [N]-C--CA-[N] |==|  0.55699
USER: genes 3 Torsion [C]-CA--CB-[CG] |==|  0.36277
USER: genes 4 Torsion [CA]-CB--CG-[CD] |==|  0.81290
USER: genes 5 Torsion [CB]-CG--CD-[NE] |==|  0.77837
USER: genes 6 Torsion [CG]-CD--NE-[CZ] |==|  0.34446
USER: genes 7 Torsion [C]-N--CA-[C] |==|  0.15004
USER: genes 8 Torsion [N]-CA--C-[N] |==|  0.09810
USER: genes 9 Torsion [C]-N--CA-[C] |==|  0.28959
USER: genes 10 Torsion [N]-CA--C-[OXT] |==|  0.44471
USER: genes 11 Torsion [N]-CA--CB-[OG1] |==|  0.81365
USER: genes 12 Torsion [CA]-CB--OG1-[HG1] |==|  0.24084
ROOT
ATOM      1  C   ARG C 760      15.951 -17.912  22.472  1.00 56.34 LIG 0.26  C 
ATOM      2 O    ARG C 760      16.026 -18.927  21.786  1.00 53.76 LIG-0.27  OA
ATOM      3  N   GLY C 761      16.393 -16.728  22.058  1.00 59.89 LIG-0.35  N 
ATOM      4 H    GLY C 761      16.539 -16.061  22.581  1.00 59.89 LIG 0.16  HD
ENDROOT
BRANCH 1 5
ATOM      5  CA  ARG C 760      15.335 -17.965  23.871  1.00 61.16 LIG 0.40  C 
ATOM      6  N   ARG C 760      15.350 -19.339  24.369  1.00 59.95 LIG 0.61  N 
BRANCH 5 7
ATOM      7  CB  ARG C 760      16.072 -17.040  24.839  1.00 63.40 LIG 0.05  C 
BRANCH 7 8
ATOM      8  CG  ARG C 760      15.165 -16.125  25.638  1.00 63.69 LIG 0.02  C 
BRANCH 8 9
ATOM      9  CD  ARG C 760      14.495 -15.100  24.738  1.00 63.30 LIG 0.14  C 
BRANCH 9 10
ATOM     10  NE  ARG C 760      15.391 -13.991  24.425  1.00 65.15 LIG-0.23  N 
ATOM     11  CZ  ARG C 760      15.712 -13.608  23.193  1.00 66.46 LIG 0.67  C 
ATOM     12  NH1 ARG C 760      15.203 -14.237  22.141  1.00 66.43 LIG-0.23  N 
ATOM     13  NH2 ARG C 760      16.539 -12.588  23.012  1.00 66.89 LIG-0.23  N 
ATOM     14 2HH1 ARG C 760      15.413 -13.985  21.346  1.00 66.43 LIG 0.17  HD
ATOM     15 1HH1 ARG C 760      14.663 -14.897  22.254  1.00 66.43 LIG 0.17  HD
ATOM     16 2HH2 ARG C 760      16.746 -12.340  22.216  1.00 66.89 LIG 0.17  HD
ATOM     17 1HH2 ARG C 760      16.867 -12.176  23.691  1.00 66.89 LIG 0.17  HD
ATOM     18 HE   ARG C 760      15.735 -13.557  25.082  1.00 65.15 LIG 0.18  HD
ENDBRANCH 9 10
ENDBRANCH 8 9
ENDBRANCH 7 8
ENDBRANCH 5 7
ENDBRANCH 1 5
BRANCH 3 19
ATOM     19  CA  GLY C 761      16.669 -16.466  20.656  1.00 62.83 LIG 0.23  C 
BRANCH 19 20
ATOM     20  C   GLY C 761      15.610 -16.717  19.593  1.00 67.24 LIG 0.24  C 
ATOM     21 O    GLY C 761      15.923 -17.121  18.473  1.00 65.14 LIG-0.27  OA
ATOM     22  N   THR C 762      14.357 -16.463  19.965  1.00 72.11 LIG-0.34  N 
ATOM     23 H    THR C 762      14.167 -15.933  20.615  1.00 72.11 LIG 0.16  HD
BRANCH 22 24
ATOM     24  CA  THR C 762      13.167 -17.041  19.329  1.00 75.13 LIG 0.21  C 
BRANCH 24 25
ATOM     25  C   THR C 762      12.632 -18.127  20.258  1.00 73.09 LIG 0.20  C 
ATOM     26 OXT  THR C 762      11.468 -18.506  20.149  1.00 76.95 LIG-0.65  OA
ATOM     27 O    THR C 762      13.327 -18.658  21.125  1.00 68.26 LIG-0.65  OA
ENDBRANCH 24 25
BRANCH 24 28
ATOM     28  CB  THR C 762      13.425 -17.659  17.937  1.00 77.67 LIG 0.15  C 
ATOM     29  CG2 THR C 762      12.182 -18.379  17.445  1.00 76.40 LIG 0.04  C 
BRANCH 28 30
ATOM     30 OG1  THR C 762      13.766 -16.631  17.000  1.00 80.43 LIG-0.39  OA
ATOM     31 HG1  THR C 762      14.593 -16.487  17.031  1.00 80.43 LIG 0.21  HD
ENDBRANCH 28 30
ENDBRANCH 24 28
ENDBRANCH 22 24
ENDBRANCH 19 20
ENDBRANCH 3 19
TORSDOF 11
ENDMDL
MODEL 33
USER: ADFR SOLUTION from run 111
USER: SCORE 7.345004 LL:  -0.873 LR:  -7.231 RR:   0.000 FEB:  -3.950
USER: RMSD 9.164124
USER: SEED 110
USER: STATUS no improvement in best in 22 clusters for 5 generations
USER: GENES 13
USER: genes 0 Translation |==|  0.38998 0.71213 0.77593
USER: genes 1 Rotation |==|  0.36097 0.78954 0.76467 0.77711
USER: genes 2 Torsion [N]-C--CA-[N] |==|  0.03804
USER: genes 3 Torsion [C]-CA--CB-[CG] |==|  0.86355
USER: genes 4 Torsion [CA]-CB--CG-[CD] |==|  0.61643
USER: genes 5 Torsion [CB]-CG--CD-[NE] |==|  0.94669
USER: genes 6 Torsion [CG]-CD--NE-[CZ] |==|  0.39208
USER: genes 7 Torsion [C]-N--CA-[C] |==|  0.27439
USER: genes 8 Torsion [N]-CA--C-[N] |==|  0.73247
USER: genes 9 Torsion [C]-N--CA-[C] |==|  0.16906
USER: genes 10 Torsion [N]-CA--C-[OXT] |==|  0.56527
USER: genes 11 Torsion [N]-CA--CB-[OG1] |==|  0.95817
USER: genes 12 Torsion [CA]-CB--OG1-[HG1] |==|  0.14179
ROOT
ATOM      1  C   ARG C 760      15.390 -14.301  23.679  1.00 56.34 LIG 0.26  C 
ATOM      2 O    ARG C 760      15.171 -13.949  24.833  1.00 53.76 LIG-0.27  OA
ATOM      3  N   GLY C 761      16.173 -13.614  22.852  1.00 59.89 LIG-0.35  N 
ATOM      4 H    GLY C 761      16.180 -13.719  21.999  1.00 59.89 LIG 0.16  HD
ENDROOT
BRANCH 1 5
ATOM      5  CA  ARG C 760      14.754 -15.575  23.122  1.00 61.16 LIG 0.40  C 
ATOM      6  N   ARG C 760      15.405 -15.948  21.867  1.00 59.95 LIG 0.61  N 
BRANCH 5 7
ATOM      7  CB  ARG C 760      14.837 -16.725  24.126  1.00 63.40 LIG 0.05  C 
BRANCH 7 8
ATOM      8  CG  ARG C 760      16.215 -16.934  24.721  1.00 63.69 LIG 0.02  C 
BRANCH 8 9
ATOM      9  CD  ARG C 760      16.553 -18.414  24.806  1.00 63.30 LIG 0.14  C 
BRANCH 9 10
ATOM     10  NE  ARG C 760      15.354 -19.243  24.733  1.00 65.15 LIG-0.23  N 
ATOM     11  CZ  ARG C 760      15.277 -20.398  24.080  1.00 66.46 LIG 0.67  C 
ATOM     12  NH1 ARG C 760      16.336 -20.879  23.439  1.00 66.43 LIG-0.23  N 
ATOM     13  NH2 ARG C 760      14.140 -21.078  24.071  1.00 66.89 LIG-0.23  N 
ATOM     14 2HH1 ARG C 760      16.281 -21.627  23.018  1.00 66.43 LIG 0.17  HD
ATOM     15 1HH1 ARG C 760      17.077 -20.442  23.446  1.00 66.43 LIG 0.17  HD
ATOM     16 2HH2 ARG C 760      14.089 -21.826  23.649  1.00 66.89 LIG 0.17  HD
ATOM     17 1HH2 ARG C 760      13.453 -20.772  24.487  1.00 66.89 LIG 0.17  HD
ATOM     18 HE   ARG C 760      14.650 -18.966  25.142  1.00 65.15 LIG 0.18  HD
ENDBRANCH 9 10
ENDBRANCH 8 9
ENDBRANCH 7 8
ENDBRANCH 5 7
ENDBRANCH 1 5
BRANCH 3 19
ATOM     19  CA  GLY C 761      17.098 -12.605  23.341  1.00 62.83 LIG 0.23  C 
BRANCH 19 20
ATOM     20  C   GLY C 761      18.572 -12.930  23.536  1.00 67.24 LIG 0.24  C 
ATOM     21 O    GLY C 761      19.359 -12.881  22.591  1.00 65.14 LIG-0.27  OA
ATOM     22  N   THR C 762      18.923 -13.269  24.776  1.00 72.11 LIG-0.34  N 
ATOM     23 H    THR C 762      18.358 -13.571  25.349  1.00 72.11 LIG 0.16  HD
BRANCH 22 24
ATOM     24  CA  THR C 762      20.286 -13.171  25.310  1.00 75.13 LIG 0.21  C 
BRANCH 24 25
ATOM     25  C   THR C 762      20.701 -11.704  25.246  1.00 73.09 LIG 0.20  C 
ATOM     26 OXT  THR C 762      21.893 -11.405  25.217  1.00 76.95 LIG-0.65  OA
ATOM     27 O    THR C 762      19.880 -10.785  25.216  1.00 68.26 LIG-0.65  OA
ENDBRANCH 24 25
BRANCH 24 28
ATOM     28  CB  THR C 762      21.331 -14.017  24.549  1.00 77.67 LIG 0.15  C 
ATOM     29  CG2 THR C 762      22.221 -14.758  25.532  1.00 76.40 LIG 0.04  C 
BRANCH 28 30
ATOM     30 OG1  THR C 762      20.672 -14.972  23.711  1.00 80.43 LIG-0.39  OA
ATOM     31 HG1  THR C 762      20.096 -14.582  23.241  1.00 80.43 LIG 0.21  HD
ENDBRANCH 28 30
ENDBRANCH 24 28
ENDBRANCH 22 24
ENDBRANCH 19 20
ENDBRANCH 3 19
TORSDOF 11
ENDMDL
MODEL 34
USER: ADFR SOLUTION from run 38
USER: SCORE 9.111880 LL:  -1.978 LR:  -7.220 RR:   0.000 FEB:  -3.938
USER: RMSD 10.027780
USER: SEED 37
USER: STATUS no improvement in best in 21 clusters for 5 generations
USER: GENES 13
USER: genes 0 Translation |==|  0.59000 0.50924 0.93704
USER: genes 1 Rotation |==|  0.78808 0.56648 0.90179 0.53393
USER: genes 2 Torsion [N]-C--CA-[N] |==|  0.83210
USER: genes 3 Torsion [C]-CA--CB-[CG] |==|  0.52019
USER: genes 4 Torsion [CA]-CB--CG-[CD] |==|  0.57047
USER: genes 5 Torsion [CB]-CG--CD-[NE] |==|  0.91430
USER: genes 6 Torsion [CG]-CD--NE-[CZ] |==|  0.39044
USER: genes 7 Torsion [C]-N--CA-[C] |==|  0.24451
USER: genes 8 Torsion [N]-CA--C-[N] |==|  0.94986
USER: genes 9 Torsion [C]-N--CA-[C] |==|  0.62181
USER: genes 10 Torsion [N]-CA--C-[OXT] |==|  0.12004
USER: genes 11 Torsion [N]-CA--CB-[OG1] |==|  0.48577
USER: genes 12 Torsion [CA]-CB--OG1-[HG1] |==|  0.79504
ROOT
ATOM      1  C   ARG C 760      18.841 -16.888  26.941  1.00 56.34 LIG 0.26  C 
ATOM      2 O    ARG C 760      19.600 -17.696  26.416  1.00 53.76 LIG-0.27  OA
ATOM      3  N   GLY C 761      19.272 -15.849  27.650  1.00 59.89 LIG-0.35  N 
ATOM      4 H    GLY C 761      18.777 -15.397  28.188  1.00 59.89 LIG 0.16  HD
ENDROOT
BRANCH 1 5
ATOM      5  CA  ARG C 760      17.326 -17.047  26.806  1.00 61.16 LIG 0.40  C 
ATOM      6  N   ARG C 760      16.723 -17.208  28.128  1.00 59.95 LIG 0.61  N 
BRANCH 5 7
ATOM      7  CB  ARG C 760      16.703 -15.854  26.080  1.00 63.40 LIG 0.05  C 
BRANCH 7 8
ATOM      8  CG  ARG C 760      15.188 -15.858  26.062  1.00 63.69 LIG 0.02  C 
BRANCH 8 9
ATOM      9  CD  ARG C 760      14.655 -15.074  24.874  1.00 63.30 LIG 0.14  C 
BRANCH 9 10
ATOM     10  NE  ARG C 760      15.552 -13.983  24.504  1.00 65.15 LIG-0.23  N 
ATOM     11  CZ  ARG C 760      15.828 -13.629  23.253  1.00 66.46 LIG 0.67  C 
ATOM     12  NH1 ARG C 760      15.272 -14.272  22.234  1.00 66.43 LIG-0.23  N 
ATOM     13  NH2 ARG C 760      16.660 -12.624  23.019  1.00 66.89 LIG-0.23  N 
ATOM     14 2HH1 ARG C 760      15.453 -14.039  21.427  1.00 66.43 LIG 0.17  HD
ATOM     15 1HH1 ARG C 760      14.728 -14.923  22.382  1.00 66.43 LIG 0.17  HD
ATOM     16 2HH2 ARG C 760      16.839 -12.393  22.210  1.00 66.89 LIG 0.17  HD
ATOM     17 1HH2 ARG C 760      17.020 -12.202  23.676  1.00 66.89 LIG 0.17  HD
ATOM     18 HE   ARG C 760      15.926 -13.540  25.138  1.00 65.15 LIG 0.18  HD
ENDBRANCH 9 10
ENDBRANCH 8 9
ENDBRANCH 7 8
ENDBRANCH 5 7
ENDBRANCH 1 5
BRANCH 3 19
ATOM     19  CA  GLY C 761      20.647 -15.387  27.565  1.00 62.83 LIG 0.23  C 
BRANCH 19 20
ATOM     20  C   GLY C 761      21.065 -14.370  26.514  1.00 67.24 LIG 0.24  C 
ATOM     21 O    GLY C 761      22.108 -13.728  26.636  1.00 65.14 LIG-0.27  OA
ATOM     22  N   THR C 762      20.226 -14.232  25.488  1.00 72.11 LIG-0.34  N 
ATOM     23 H    THR C 762      19.396 -14.453  25.538  1.00 72.11 LIG 0.16  HD
BRANCH 22 24
ATOM     24  CA  THR C 762      20.600 -13.700  24.173  1.00 75.13 LIG 0.21  C 
BRANCH 24 25
ATOM     25  C   THR C 762      19.502 -12.733  23.740  1.00 73.09 LIG 0.20  C 
ATOM     26 OXT  THR C 762      19.033 -11.936  24.550  1.00 76.95 LIG-0.65  OA
ATOM     27 O    THR C 762      19.058 -12.708  22.591  1.00 68.26 LIG-0.65  OA
ENDBRANCH 24 25
BRANCH 24 28
ATOM     28  CB  THR C 762      20.778 -14.775  23.078  1.00 77.67 LIG 0.15  C 
ATOM     29  CG2 THR C 762      19.524 -15.625  22.969  1.00 76.40 LIG 0.04  C 
BRANCH 28 30
ATOM     30 OG1  THR C 762      21.024 -14.150  21.813  1.00 80.43 LIG-0.39  OA
ATOM     31 HG1  THR C 762      20.311 -13.812  21.525  1.00 80.43 LIG 0.21  HD
ENDBRANCH 28 30
ENDBRANCH 24 28
ENDBRANCH 22 24
ENDBRANCH 19 20
ENDBRANCH 3 19
TORSDOF 11
ENDMDL
MODEL 35
USER: ADFR SOLUTION from run 125
USER: SCORE 8.768261 LL:  -1.733 LR:  -7.215 RR:   0.000 FEB:  -3.934
USER: RMSD 8.193720
USER: SEED 124
USER: STATUS no improvement in best in 32 clusters for 5 generations
USER: GENES 13
USER: genes 0 Translation |==|  0.37441 0.64581 0.86543
USER: genes 1 Rotation |==|  0.21451 0.81843 0.74621 0.58050
USER: genes 2 Torsion [N]-C--CA-[N] |==|  0.66247
USER: genes 3 Torsion [C]-CA--CB-[CG] |==|  0.75903
USER: genes 4 Torsion [CA]-CB--CG-[CD] |==|  0.32492
USER: genes 5 Torsion [CB]-CG--CD-[NE] |==|  0.07079
USER: genes 6 Torsion [CG]-CD--NE-[CZ] |==|  0.61693
USER: genes 7 Torsion [C]-N--CA-[C] |==|  0.31381
USER: genes 8 Torsion [N]-CA--C-[N] |==|  0.97517
USER: genes 9 Torsion [C]-N--CA-[C] |==|  0.61578
USER: genes 10 Torsion [N]-CA--C-[OXT] |==|  0.40644
USER: genes 11 Torsion [N]-CA--CB-[OG1] |==|  0.72354
USER: genes 12 Torsion [CA]-CB--OG1-[HG1] |==|  0.98997
ROOT
ATOM      1  C   ARG C 760      15.122 -15.147  25.491  1.00 56.34 LIG 0.26  C 
ATOM      2 O    ARG C 760      14.661 -14.338  26.291  1.00 53.76 LIG-0.27  OA
ATOM      3  N   GLY C 761      15.300 -14.865  24.204  1.00 59.89 LIG-0.35  N 
ATOM      4 H    GLY C 761      15.422 -15.460  23.595  1.00 59.89 LIG 0.16  HD
ENDROOT
BRANCH 1 5
ATOM      5  CA  ARG C 760      15.517 -16.551  25.948  1.00 61.16 LIG 0.40  C 
ATOM      6  N   ARG C 760      14.360 -17.227  26.534  1.00 59.95 LIG 0.61  N 
BRANCH 5 7
ATOM      7  CB  ARG C 760      16.085 -17.375  24.792  1.00 63.40 LIG 0.05  C 
BRANCH 7 8
ATOM      8  CG  ARG C 760      15.038 -18.103  23.973  1.00 63.69 LIG 0.02  C 
BRANCH 8 9
ATOM      9  CD  ARG C 760      15.023 -17.603  22.538  1.00 63.30 LIG 0.14  C 
BRANCH 9 10
ATOM     10  NE  ARG C 760      16.315 -17.045  22.150  1.00 65.15 LIG-0.23  N 
ATOM     11  CZ  ARG C 760      16.471 -15.931  21.443  1.00 66.46 LIG 0.67  C 
ATOM     12  NH1 ARG C 760      15.413 -15.236  21.044  1.00 66.43 LIG-0.23  N 
ATOM     13  NH2 ARG C 760      17.689 -15.506  21.138  1.00 66.89 LIG-0.23  N 
ATOM     14 2HH1 ARG C 760      15.519 -14.515  20.587  1.00 66.43 LIG 0.17  HD
ATOM     15 1HH1 ARG C 760      14.621 -15.506  21.243  1.00 66.43 LIG 0.17  HD
ATOM     16 2HH2 ARG C 760      17.791 -14.785  20.681  1.00 66.89 LIG 0.17  HD
ATOM     17 1HH2 ARG C 760      18.376 -15.952  21.398  1.00 66.89 LIG 0.17  HD
ATOM     18 HE   ARG C 760      17.023 -17.466  22.396  1.00 65.15 LIG 0.18  HD
ENDBRANCH 9 10
ENDBRANCH 8 9
ENDBRANCH 7 8
ENDBRANCH 5 7
ENDBRANCH 1 5
BRANCH 3 19
ATOM     19  CA  GLY C 761      15.301 -13.496  23.716  1.00 62.83 LIG 0.23  C 
BRANCH 19 20
ATOM     20  C   GLY C 761      16.570 -12.869  23.158  1.00 67.24 LIG 0.24  C 
ATOM     21 O    GLY C 761      16.538 -11.777  22.591  1.00 65.14 LIG-0.27  OA
ATOM     22  N   THR C 762      17.681 -13.585  23.324  1.00 72.11 LIG-0.34  N 
ATOM     23 H    THR C 762      17.667 -14.435  23.455  1.00 72.11 LIG 0.16  HD
BRANCH 22 24
ATOM     24  CA  THR C 762      19.039 -13.029  23.308  1.00 75.13 LIG 0.21  C 
BRANCH 24 25
ATOM     25  C   THR C 762      19.921 -13.994  22.521  1.00 73.09 LIG 0.20  C 
ATOM     26 OXT  THR C 762      20.848 -13.559  21.841  1.00 76.95 LIG-0.65  OA
ATOM     27 O    THR C 762      19.748 -15.213  22.539  1.00 68.26 LIG-0.65  OA
ENDBRANCH 24 25
BRANCH 24 28
ATOM     28  CB  THR C 762      19.658 -12.819  24.708  1.00 77.67 LIG 0.15  C 
ATOM     29  CG2 THR C 762      21.129 -13.198  24.693  1.00 76.40 LIG 0.04  C 
BRANCH 28 30
ATOM     30 OG1  THR C 762      19.538 -11.446  25.095  1.00 80.43 LIG-0.39  OA
ATOM     31 HG1  THR C 762      19.198 -11.006  24.466  1.00 80.43 LIG 0.21  HD
ENDBRANCH 28 30
ENDBRANCH 24 28
ENDBRANCH 22 24
ENDBRANCH 19 20
ENDBRANCH 3 19
TORSDOF 11
ENDMDL
MODEL 36
USER: ADFR SOLUTION from run 114
USER: SCORE 7.591275 LL:  -0.518 LR:  -7.216 RR:   0.000 FEB:  -3.935
USER: RMSD 9.380187
USER: SEED 113
USER: STATUS no improvement in best in 32 clusters for 5 generations
USER: GENES 13
USER: genes 0 Translation |==|  0.48063 0.75275 0.77806
USER: genes 1 Rotation |==|  0.60324 0.80484 0.73688 0.80051
USER: genes 2 Torsion [N]-C--CA-[N] |==|  0.12854
USER: genes 3 Torsion [C]-CA--CB-[CG] |==|  0.85160
USER: genes 4 Torsion [CA]-CB--CG-[CD] |==|  0.78477
USER: genes 5 Torsion [CB]-CG--CD-[NE] |==|  0.63864
USER: genes 6 Torsion [CG]-CD--NE-[CZ] |==|  0.56423
USER: genes 7 Torsion [C]-N--CA-[C] |==|  0.82694
USER: genes 8 Torsion [N]-CA--C-[N] |==|  0.43767
USER: genes 9 Torsion [C]-N--CA-[C] |==|  0.19889
USER: genes 10 Torsion [N]-CA--C-[OXT] |==|  0.94844
USER: genes 11 Torsion [N]-CA--CB-[OG1] |==|  0.83127
USER: genes 12 Torsion [CA]-CB--OG1-[HG1] |==|  0.81120
ROOT
ATOM      1  C   ARG C 760      16.954 -13.783  23.722  1.00 56.34 LIG 0.26  C 
ATOM      2 O    ARG C 760      17.345 -14.101  24.841  1.00 53.76 LIG-0.27  OA
ATOM      3  N   GLY C 761      17.755 -13.254  22.802  1.00 59.89 LIG-0.35  N 
ATOM      4 H    GLY C 761      17.475 -12.841  22.102  1.00 59.89 LIG 0.16  HD
ENDROOT
BRANCH 1 5
ATOM      5  CA  ARG C 760      15.491 -13.982  23.325  1.00 61.16 LIG 0.40  C 
ATOM      6  N   ARG C 760      15.414 -14.595  22.000  1.00 59.95 LIG 0.61  N 
BRANCH 5 7
ATOM      7  CB  ARG C 760      14.747 -14.837  24.351  1.00 63.40 LIG 0.05  C 
BRANCH 7 8
ATOM      8  CG  ARG C 760      15.410 -16.167  24.652  1.00 63.69 LIG 0.02  C 
BRANCH 8 9
ATOM      9  CD  ARG C 760      15.148 -17.170  23.541  1.00 63.30 LIG 0.14  C 
BRANCH 9 10
ATOM     10  NE  ARG C 760      14.663 -18.442  24.070  1.00 65.15 LIG-0.23  N 
ATOM     11  CZ  ARG C 760      14.765 -19.607  23.437  1.00 66.46 LIG 0.67  C 
ATOM     12  NH1 ARG C 760      15.344 -19.675  22.245  1.00 66.43 LIG-0.23  N 
ATOM     13  NH2 ARG C 760      14.291 -20.709  24.001  1.00 66.89 LIG-0.23  N 
ATOM     14 2HH1 ARG C 760      15.407 -20.431  21.840  1.00 66.43 LIG 0.17  HD
ATOM     15 1HH1 ARG C 760      15.656 -18.962  21.877  1.00 66.43 LIG 0.17  HD
ATOM     16 2HH2 ARG C 760      14.356 -21.463  23.592  1.00 66.89 LIG 0.17  HD
ATOM     17 1HH2 ARG C 760      13.919 -20.669  24.774  1.00 66.89 LIG 0.17  HD
ATOM     18 HE   ARG C 760      14.288 -18.437  24.843  1.00 65.15 LIG 0.18  HD
ENDBRANCH 9 10
ENDBRANCH 8 9
ENDBRANCH 7 8
ENDBRANCH 5 7
ENDBRANCH 1 5
BRANCH 3 19
ATOM     19  CA  GLY C 761      19.202 -13.335  22.914  1.00 62.83 LIG 0.23  C 
BRANCH 19 20
ATOM     20  C   GLY C 761      19.931 -12.685  24.081  1.00 67.24 LIG 0.24  C 
ATOM     21 O    GLY C 761      19.419 -11.757  24.707  1.00 65.14 LIG-0.27  OA
ATOM     22  N   THR C 762      21.135 -13.185  24.351  1.00 72.11 LIG-0.34  N 
ATOM     23 H    THR C 762      21.598 -13.615  23.768  1.00 72.11 LIG 0.16  HD
BRANCH 22 24
ATOM     24  CA  THR C 762      21.812 -13.071  25.649  1.00 75.13 LIG 0.21  C 
BRANCH 24 25
ATOM     25  C   THR C 762      21.081 -13.984  26.630  1.00 73.09 LIG 0.20  C 
ATOM     26 OXT  THR C 762      19.942 -14.367  26.376  1.00 76.95 LIG-0.65  OA
ATOM     27 O    THR C 762      21.593 -14.367  27.683  1.00 68.26 LIG-0.65  OA
ENDBRANCH 24 25
BRANCH 24 28
ATOM     28  CB  THR C 762      21.840 -11.639  26.228  1.00 77.67 LIG 0.15  C 
ATOM     29  CG2 THR C 762      22.542 -11.632  27.575  1.00 76.40 LIG 0.04  C 
BRANCH 28 30
ATOM     30 OG1  THR C 762      22.539 -10.763  25.337  1.00 80.43 LIG-0.39  OA
ATOM     31 HG1  THR C 762      23.353 -10.971  25.322  1.00 80.43 LIG 0.21  HD
ENDBRANCH 28 30
ENDBRANCH 24 28
ENDBRANCH 22 24
ENDBRANCH 19 20
ENDBRANCH 3 19
TORSDOF 11
ENDMDL
MODEL 37
USER: ADFR SOLUTION from run 172
USER: SCORE 7.965615 LL:  -1.136 LR:  -7.210 RR:   0.000 FEB:  -3.929
USER: RMSD 6.290986
USER: SEED 171
USER: STATUS no improvement in best in 46 clusters for 5 generations
USER: GENES 13
USER: genes 0 Translation |==|  0.32296 0.25004 0.71052
USER: genes 1 Rotation |==|  0.29647 0.60314 0.06104 0.57250
USER: genes 2 Torsion [N]-C--CA-[N] |==|  0.90116
USER: genes 3 Torsion [C]-CA--CB-[CG] |==|  0.36747
USER: genes 4 Torsion [CA]-CB--CG-[CD] |==|  0.69519
USER: genes 5 Torsion [CB]-CG--CD-[NE] |==|  0.85857
USER: genes 6 Torsion [CG]-CD--NE-[CZ] |==|  0.34480
USER: genes 7 Torsion [C]-N--CA-[C] |==|  0.26667
USER: genes 8 Torsion [N]-CA--C-[N] |==|  0.10288
USER: genes 9 Torsion [C]-N--CA-[C] |==|  0.63460
USER: genes 10 Torsion [N]-CA--C-[OXT] |==|  0.05678
USER: genes 11 Torsion [N]-CA--CB-[OG1] |==|  0.91046
USER: genes 12 Torsion [CA]-CB--OG1-[HG1] |==|  0.51143
ROOT
ATOM      1  C   ARG C 760      14.234 -20.193  22.354  1.00 56.34 LIG 0.26  C 
ATOM      2 O    ARG C 760      15.226 -20.476  21.690  1.00 53.76 LIG-0.27  OA
ATOM      3  N   GLY C 761      14.271 -20.037  23.674  1.00 59.89 LIG-0.35  N 
ATOM      4 H    GLY C 761      13.575 -20.043  24.178  1.00 59.89 LIG 0.16  HD
ENDROOT
BRANCH 1 5
ATOM      5  CA  ARG C 760      12.875 -20.008  21.679  1.00 61.16 LIG 0.40  C 
ATOM      6  N   ARG C 760      11.815 -20.512  22.549  1.00 59.95 LIG 0.61  N 
BRANCH 5 7
ATOM      7  CB  ARG C 760      12.623 -18.542  21.326  1.00 63.40 LIG 0.05  C 
BRANCH 7 8
ATOM      8  CG  ARG C 760      12.127 -18.318  19.912  1.00 63.69 LIG 0.02  C 
BRANCH 8 9
ATOM      9  CD  ARG C 760      13.194 -17.650  19.059  1.00 63.30 LIG 0.14  C 
BRANCH 9 10
ATOM     10  NE  ARG C 760      13.732 -16.459  19.709  1.00 65.15 LIG-0.23  N 
ATOM     11  CZ  ARG C 760      15.022 -16.260  19.965  1.00 66.46 LIG 0.67  C 
ATOM     12  NH1 ARG C 760      15.922 -17.171  19.620  1.00 66.43 LIG-0.23  N 
ATOM     13  NH2 ARG C 760      15.412 -15.143  20.563  1.00 66.89 LIG-0.23  N 
ATOM     14 2HH1 ARG C 760      16.755 -17.037  19.788  1.00 66.43 LIG 0.17  HD
ATOM     15 1HH1 ARG C 760      15.674 -17.896  19.229  1.00 66.43 LIG 0.17  HD
ATOM     16 2HH2 ARG C 760      16.246 -15.013  20.729  1.00 66.89 LIG 0.17  HD
ATOM     17 1HH2 ARG C 760      14.832 -14.549  20.784  1.00 66.89 LIG 0.17  HD
ATOM     18 HE   ARG C 760      13.178 -15.844  19.941  1.00 65.15 LIG 0.18  HD
ENDBRANCH 9 10
ENDBRANCH 8 9
ENDBRANCH 7 8
ENDBRANCH 5 7
ENDBRANCH 1 5
BRANCH 3 19
ATOM     19  CA  GLY C 761      15.525 -19.838  24.383  1.00 62.83 LIG 0.23  C 
BRANCH 19 20
ATOM     20  C   GLY C 761      16.009 -18.439  24.732  1.00 67.24 LIG 0.24  C 
ATOM     21 O    GLY C 761      17.207 -18.157  24.692  1.00 65.14 LIG-0.27  OA
ATOM     22  N   THR C 762      15.056 -17.576  25.082  1.00 72.11 LIG-0.34  N 
ATOM     23 H    THR C 762      14.290 -17.830  25.378  1.00 72.11 LIG 0.16  HD
BRANCH 22 24
ATOM     24  CA  THR C 762      15.188 -16.117  25.009  1.00 75.13 LIG 0.21  C 
BRANCH 24 25
ATOM     25  C   THR C 762      14.720 -15.545  26.344  1.00 73.09 LIG 0.20  C 
ATOM     26 OXT  THR C 762      14.689 -16.265  27.340  1.00 76.95 LIG-0.65  OA
ATOM     27 O    THR C 762      14.371 -14.371  26.475  1.00 68.26 LIG-0.65  OA
ENDBRANCH 24 25
BRANCH 24 28
ATOM     28  CB  THR C 762      14.373 -15.459  23.873  1.00 77.67 LIG 0.15  C 
ATOM     29  CG2 THR C 762      15.040 -14.169  23.428  1.00 76.40 LIG 0.04  C 
BRANCH 28 30
ATOM     30 OG1  THR C 762      14.289 -16.347  22.752  1.00 80.43 LIG-0.39  OA
ATOM     31 HG1  THR C 762      13.894 -15.962  22.119  1.00 80.43 LIG 0.21  HD
ENDBRANCH 28 30
ENDBRANCH 24 28
ENDBRANCH 22 24
ENDBRANCH 19 20
ENDBRANCH 3 19
TORSDOF 11
ENDMDL
MODEL 38
USER: ADFR SOLUTION from run 95
USER: SCORE 7.947440 LL:  -0.922 LR:  -7.185 RR:   0.000 FEB:  -3.904
USER: RMSD 8.888353
USER: SEED 94
USER: STATUS no improvement in best in 37 clusters for 5 generations
USER: GENES 13
USER: genes 0 Translation |==|  0.50339 0.62427 0.71041
USER: genes 1 Rotation |==|  0.49776 0.61479 0.97768 0.59296
USER: genes 2 Torsion [N]-C--CA-[N] |==|  0.51515
USER: genes 3 Torsion [C]-CA--CB-[CG] |==|  0.76780
USER: genes 4 Torsion [CA]-CB--CG-[CD] |==|  0.20432
USER: genes 5 Torsion [CB]-CG--CD-[NE] |==|  0.09866
USER: genes 6 Torsion [CG]-CD--NE-[CZ] |==|  0.53755
USER: genes 7 Torsion [C]-N--CA-[C] |==|  0.15599
USER: genes 8 Torsion [N]-CA--C-[N] |==|  0.63313
USER: genes 9 Torsion [C]-N--CA-[C] |==|  0.22731
USER: genes 10 Torsion [N]-CA--C-[OXT] |==|  0.38670
USER: genes 11 Torsion [N]-CA--CB-[OG1] |==|  0.87655
USER: genes 12 Torsion [CA]-CB--OG1-[HG1] |==|  0.15799
ROOT
ATOM      1  C   ARG C 760      17.346 -15.422  22.352  1.00 56.34 LIG 0.26  C 
ATOM      2 O    ARG C 760      18.020 -16.093  23.127  1.00 53.76 LIG-0.27  OA
ATOM      3  N   GLY C 761      16.958 -14.180  22.624  1.00 59.89 LIG-0.35  N 
ATOM      4 H    GLY C 761      16.329 -13.770  22.204  1.00 59.89 LIG 0.16  HD
ENDROOT
BRANCH 1 5
ATOM      5  CA  ARG C 760      16.908 -15.999  21.006  1.00 61.16 LIG 0.40  C 
ATOM      6  N   ARG C 760      17.302 -17.404  20.915  1.00 59.95 LIG 0.61  N 
BRANCH 5 7
ATOM      7  CB  ARG C 760      15.399 -15.855  20.803  1.00 63.40 LIG 0.05  C 
BRANCH 7 8
ATOM      8  CG  ARG C 760      14.577 -16.953  21.447  1.00 63.69 LIG 0.02  C 
BRANCH 8 9
ATOM      9  CD  ARG C 760      14.533 -16.787  22.957  1.00 63.30 LIG 0.14  C 
BRANCH 9 10
ATOM     10  NE  ARG C 760      14.501 -15.379  23.342  1.00 65.15 LIG-0.23  N 
ATOM     11  CZ  ARG C 760      14.717 -14.931  24.575  1.00 66.46 LIG 0.67  C 
ATOM     12  NH1 ARG C 760      14.992 -15.779  25.557  1.00 66.43 LIG-0.23  N 
ATOM     13  NH2 ARG C 760      14.663 -13.631  24.825  1.00 66.89 LIG-0.23  N 
ATOM     14 2HH1 ARG C 760      15.132 -15.485  26.353  1.00 66.43 LIG 0.17  HD
ATOM     15 1HH1 ARG C 760      15.032 -16.624  25.399  1.00 66.43 LIG 0.17  HD
ATOM     16 2HH2 ARG C 760      14.803 -13.341  25.622  1.00 66.89 LIG 0.17  HD
ATOM     17 1HH2 ARG C 760      14.488 -13.079  24.190  1.00 66.89 LIG 0.17  HD
ATOM     18 HE   ARG C 760      14.331 -14.800  22.729  1.00 65.15 LIG 0.18  HD
ENDBRANCH 9 10
ENDBRANCH 8 9
ENDBRANCH 7 8
ENDBRANCH 5 7
ENDBRANCH 1 5
BRANCH 3 19
ATOM     19  CA  GLY C 761      17.582 -13.400  23.681  1.00 62.83 LIG 0.23  C 
BRANCH 19 20
ATOM     20  C   GLY C 761      19.084 -13.157  23.686  1.00 67.24 LIG 0.24  C 
ATOM     21 O    GLY C 761      19.666 -12.784  22.668  1.00 65.14 LIG-0.27  OA
ATOM     22  N   THR C 762      19.694 -13.384  24.848  1.00 72.11 LIG-0.34  N 
ATOM     23 H    THR C 762      19.360 -13.896  25.452  1.00 72.11 LIG 0.16  HD
BRANCH 22 24
ATOM     24  CA  THR C 762      20.985 -12.803  25.236  1.00 75.13 LIG 0.21  C 
BRANCH 24 25
ATOM     25  C   THR C 762      20.716 -11.393  25.756  1.00 73.09 LIG 0.20  C 
ATOM     26 OXT  THR C 762      21.317 -10.981  26.746  1.00 76.95 LIG-0.65  OA
ATOM     27 O    THR C 762      19.913 -10.631  25.216  1.00 68.26 LIG-0.65  OA
ENDBRANCH 24 25
BRANCH 24 28
ATOM     28  CB  THR C 762      22.018 -12.722  24.091  1.00 77.67 LIG 0.15  C 
ATOM     29  CG2 THR C 762      23.407 -12.478  24.654  1.00 76.40 LIG 0.04  C 
BRANCH 28 30
ATOM     30 OG1  THR C 762      22.028 -13.949  23.352  1.00 80.43 LIG-0.39  OA
ATOM     31 HG1  THR C 762      21.255 -14.108  23.063  1.00 80.43 LIG 0.21  HD
ENDBRANCH 28 30
ENDBRANCH 24 28
ENDBRANCH 22 24
ENDBRANCH 19 20
ENDBRANCH 3 19
TORSDOF 11
ENDMDL
MODEL 39
USER: ADFR SOLUTION from run 101
USER: SCORE 8.350667 LL:  -1.198 LR:  -7.170 RR:   0.000 FEB:  -3.889
USER: RMSD 9.166927
USER: SEED 100
USER: STATUS no improvement in best in 31 clusters for 5 generations
USER: GENES 13
USER: genes 0 Translation |==|  0.46249 0.52150 0.95082
USER: genes 1 Rotation |==|  0.84895 0.53439 0.83896 0.61027
USER: genes 2 Torsion [N]-C--CA-[N] |==|  0.04181
USER: genes 3 Torsion [C]-CA--CB-[CG] |==|  0.82166
USER: genes 4 Torsion [CA]-CB--CG-[CD] |==|  0.30733
USER: genes 5 Torsion [CB]-CG--CD-[NE] |==|  0.38092
USER: genes 6 Torsion [CG]-CD--NE-[CZ] |==|  0.55948
USER: genes 7 Torsion [C]-N--CA-[C] |==|  0.21774
USER: genes 8 Torsion [N]-CA--C-[N] |==|  0.04683
USER: genes 9 Torsion [C]-N--CA-[C] |==|  0.74067
USER: genes 10 Torsion [N]-CA--C-[OXT] |==|  0.41180
USER: genes 11 Torsion [N]-CA--CB-[OG1] |==|  0.64512
USER: genes 12 Torsion [CA]-CB--OG1-[HG1] |==|  0.75150
ROOT
ATOM      1  C   ARG C 760      16.641 -16.732  27.220  1.00 56.34 LIG 0.26  C 
ATOM      2 O    ARG C 760      16.881 -17.781  26.631  1.00 53.76 LIG-0.27  OA
ATOM      3  N   GLY C 761      17.595 -15.904  27.635  1.00 59.89 LIG-0.35  N 
ATOM      4 H    GLY C 761      17.472 -15.282  28.216  1.00 59.89 LIG 0.16  HD
ENDROOT
BRANCH 1 5
ATOM      5  CA  ARG C 760      15.198 -16.321  27.517  1.00 61.16 LIG 0.40  C 
ATOM      6  N   ARG C 760      15.151 -14.910  27.894  1.00 59.95 LIG 0.61  N 
BRANCH 5 7
ATOM      7  CB  ARG C 760      14.287 -16.582  26.318  1.00 63.40 LIG 0.05  C 
BRANCH 7 8
ATOM      8  CG  ARG C 760      14.621 -15.759  25.090  1.00 63.69 LIG 0.02  C 
BRANCH 8 9
ATOM      9  CD  ARG C 760      15.187 -16.634  23.984  1.00 63.30 LIG 0.14  C 
BRANCH 9 10
ATOM     10  NE  ARG C 760      14.627 -16.283  22.682  1.00 65.15 LIG-0.23  N 
ATOM     11  CZ  ARG C 760      14.605 -17.095  21.629  1.00 66.46 LIG 0.67  C 
ATOM     12  NH1 ARG C 760      15.106 -18.320  21.717  1.00 66.43 LIG-0.23  N 
ATOM     13  NH2 ARG C 760      14.075 -16.681  20.487  1.00 66.89 LIG-0.23  N 
ATOM     14 2HH1 ARG C 760      15.090 -18.841  21.033  1.00 66.43 LIG 0.17  HD
ATOM     15 1HH1 ARG C 760      15.448 -18.594  22.457  1.00 66.43 LIG 0.17  HD
ATOM     16 2HH2 ARG C 760      14.060 -17.205  19.806  1.00 66.89 LIG 0.17  HD
ATOM     17 1HH2 ARG C 760      13.746 -15.889  20.428  1.00 66.89 LIG 0.17  HD
ATOM     18 HE   ARG C 760      14.287 -15.498  22.591  1.00 65.15 LIG 0.18  HD
ENDBRANCH 9 10
ENDBRANCH 8 9
ENDBRANCH 7 8
ENDBRANCH 5 7
ENDBRANCH 1 5
BRANCH 3 19
ATOM     19  CA  GLY C 761      18.953 -15.989  27.123  1.00 62.83 LIG 0.23  C 
BRANCH 19 20
ATOM     20  C   GLY C 761      19.308 -15.419  25.758  1.00 67.24 LIG 0.24  C 
ATOM     21 O    GLY C 761      20.353 -15.741  25.192  1.00 65.14 LIG-0.27  OA
ATOM     22  N   THR C 762      18.424 -14.562  25.250  1.00 72.11 LIG-0.34  N 
ATOM     23 H    THR C 762      17.864 -14.131  25.740  1.00 72.11 LIG 0.16  HD
BRANCH 22 24
ATOM     24  CA  THR C 762      18.294 -14.250  23.822  1.00 75.13 LIG 0.21  C 
BRANCH 24 25
ATOM     25  C   THR C 762      19.150 -13.019  23.541  1.00 73.09 LIG 0.20  C 
ATOM     26 OXT  THR C 762      19.688 -12.885  22.443  1.00 76.95 LIG-0.65  OA
ATOM     27 O    THR C 762      19.328 -12.131  24.376  1.00 68.26 LIG-0.65  OA
ENDBRANCH 24 25
BRANCH 24 28
ATOM     28  CB  THR C 762      16.847 -13.966  23.361  1.00 77.67 LIG 0.15  C 
ATOM     29  CG2 THR C 762      16.700 -12.506  22.966  1.00 76.40 LIG 0.04  C 
BRANCH 28 30
ATOM     30 OG1  THR C 762      16.522 -14.785  22.233  1.00 80.43 LIG-0.39  OA
ATOM     31 HG1  THR C 762      16.731 -14.383  21.526  1.00 80.43 LIG 0.21  HD
ENDBRANCH 28 30
ENDBRANCH 24 28
ENDBRANCH 22 24
ENDBRANCH 19 20
ENDBRANCH 3 19
TORSDOF 11
ENDMDL
MODEL 40
USER: ADFR SOLUTION from run 183
USER: SCORE 8.727033 LL:  -1.664 LR:  -7.163 RR:   0.000 FEB:  -3.882
USER: RMSD 7.803513
USER: SEED 182
USER: STATUS no improvement in best in 41 clusters for 5 generations
USER: GENES 13
USER: genes 0 Translation |==|  0.35593 0.53755 0.73113
USER: genes 1 Rotation |==|  0.46842 0.52747 0.98569 0.61115
USER: genes 2 Torsion [N]-C--CA-[N] |==|  0.25433
USER: genes 3 Torsion [C]-CA--CB-[CG] |==|  0.20166
USER: genes 4 Torsion [CA]-CB--CG-[CD] |==|  0.62767
USER: genes 5 Torsion [CB]-CG--CD-[NE] |==|  0.19681
USER: genes 6 Torsion [CG]-CD--NE-[CZ] |==|  0.66158
USER: genes 7 Torsion [C]-N--CA-[C] |==|  0.16918
USER: genes 8 Torsion [N]-CA--C-[N] |==|  0.10051
USER: genes 9 Torsion [C]-N--CA-[C] |==|  0.63480
USER: genes 10 Torsion [N]-CA--C-[OXT] |==|  0.73117
USER: genes 11 Torsion [N]-CA--CB-[OG1] |==|  0.12519
USER: genes 12 Torsion [CA]-CB--OG1-[HG1] |==|  0.10412
ROOT
ATOM      1  C   ARG C 760      14.803 -16.527  22.771  1.00 56.34 LIG 0.26  C 
ATOM      2 O    ARG C 760      15.309 -17.448  23.404  1.00 53.76 LIG-0.27  OA
ATOM      3  N   GLY C 761      14.372 -15.409  23.347  1.00 59.89 LIG-0.35  N 
ATOM      4 H    GLY C 761      13.840 -14.849  22.970  1.00 59.89 LIG 0.16  HD
ENDROOT
BRANCH 1 5
ATOM      5  CA  ARG C 760      14.634 -16.628  21.255  1.00 61.16 LIG 0.40  C 
ATOM      6  N   ARG C 760      15.834 -16.127  20.587  1.00 59.95 LIG 0.61  N 
BRANCH 5 7
ATOM      7  CB  ARG C 760      14.343 -18.065  20.821  1.00 63.40 LIG 0.05  C 
BRANCH 7 8
ATOM      8  CG  ARG C 760      12.950 -18.550  21.167  1.00 63.69 LIG 0.02  C 
BRANCH 8 9
ATOM      9  CD  ARG C 760      12.994 -19.940  21.781  1.00 63.30 LIG 0.14  C 
BRANCH 9 10
ATOM     10  NE  ARG C 760      13.562 -19.915  23.126  1.00 65.15 LIG-0.23  N 
ATOM     11  CZ  ARG C 760      14.634 -20.606  23.502  1.00 66.46 LIG 0.67  C 
ATOM     12  NH1 ARG C 760      15.273 -21.379  22.633  1.00 66.43 LIG-0.23  N 
ATOM     13  NH2 ARG C 760      15.072 -20.518  24.750  1.00 66.89 LIG-0.23  N 
ATOM     14 2HH1 ARG C 760      15.966 -21.823  22.882  1.00 66.43 LIG 0.17  HD
ATOM     15 1HH1 ARG C 760      14.994 -21.436  21.821  1.00 66.43 LIG 0.17  HD
ATOM     16 2HH2 ARG C 760      15.766 -20.964  24.994  1.00 66.89 LIG 0.17  HD
ATOM     17 1HH2 ARG C 760      14.663 -20.016  25.314  1.00 66.89 LIG 0.17  HD
ATOM     18 HE   ARG C 760      13.178 -19.420  23.714  1.00 65.15 LIG 0.18  HD
ENDBRANCH 9 10
ENDBRANCH 8 9
ENDBRANCH 7 8
ENDBRANCH 5 7
ENDBRANCH 1 5
BRANCH 3 19
ATOM     19  CA  GLY C 761      14.780 -15.038  24.692  1.00 62.83 LIG 0.23  C 
BRANCH 19 20
ATOM     20  C   GLY C 761      16.246 -14.803  25.025  1.00 67.24 LIG 0.24  C 
ATOM     21 O    GLY C 761      16.705 -15.128  26.119  1.00 65.14 LIG-0.27  OA
ATOM     22  N   THR C 762      16.964 -14.226  24.062  1.00 72.11 LIG-0.34  N 
ATOM     23 H    THR C 762      16.606 -13.757  23.437  1.00 72.11 LIG 0.16  HD
BRANCH 22 24
ATOM     24  CA  THR C 762      18.424 -14.316  23.946  1.00 75.13 LIG 0.21  C 
BRANCH 24 25
ATOM     25  C   THR C 762      18.956 -12.902  23.730  1.00 73.09 LIG 0.20  C 
ATOM     26 OXT  THR C 762      19.196 -12.506  22.591  1.00 76.95 LIG-0.65  OA
ATOM     27 O    THR C 762      19.155 -12.121  24.661  1.00 68.26 LIG-0.65  OA
ENDBRANCH 24 25
BRANCH 24 28
ATOM     28  CB  THR C 762      18.918 -15.215  22.790  1.00 77.67 LIG 0.15  C 
ATOM     29  CG2 THR C 762      18.735 -16.679  23.151  1.00 76.40 LIG 0.04  C 
BRANCH 28 30
ATOM     30 OG1  THR C 762      18.174 -14.935  21.600  1.00 80.43 LIG-0.39  OA
ATOM     31 HG1  THR C 762      18.019 -14.111  21.554  1.00 80.43 LIG 0.21  HD
ENDBRANCH 28 30
ENDBRANCH 24 28
ENDBRANCH 22 24
ENDBRANCH 19 20
ENDBRANCH 3 19
TORSDOF 11
ENDMDL
MODEL 41
USER: ADFR SOLUTION from run 179
USER: SCORE 7.635513 LL:  -0.643 LR:  -7.153 RR:   0.000 FEB:  -3.872
USER: RMSD 7.872124
USER: SEED 178
USER: STATUS no improvement in best in 32 clusters for 5 generations
USER: GENES 13
USER: genes 0 Translation |==|  0.28294 0.49068 0.54944
USER: genes 1 Rotation |==|  0.25049 0.92253 0.49903 0.59600
USER: genes 2 Torsion [N]-C--CA-[N] |==|  0.90851
USER: genes 3 Torsion [C]-CA--CB-[CG] |==|  0.06199
USER: genes 4 Torsion [CA]-CB--CG-[CD] |==|  0.37395
USER: genes 5 Torsion [CB]-CG--CD-[NE] |==|  0.59748
USER: genes 6 Torsion [CG]-CD--NE-[CZ] |==|  0.43645
USER: genes 7 Torsion [C]-N--CA-[C] |==|  0.78845
USER: genes 8 Torsion [N]-CA--C-[N] |==|  0.52778
USER: genes 9 Torsion [C]-N--CA-[C] |==|  0.53871
USER: genes 10 Torsion [N]-CA--C-[OXT] |==|  0.97840
USER: genes 11 Torsion [N]-CA--CB-[OG1] |==|  0.52799
USER: genes 12 Torsion [CA]-CB--OG1-[HG1] |==|  0.21540
ROOT
ATOM      1  C   ARG C 760      13.544 -17.125  19.092  1.00 56.34 LIG 0.26  C 
ATOM      2 O    ARG C 760      13.542 -15.922  18.851  1.00 53.76 LIG-0.27  OA
ATOM      3  N   GLY C 761      14.107 -18.021  18.287  1.00 59.89 LIG-0.35  N 
ATOM      4 H    GLY C 761      13.948 -18.865  18.323  1.00 59.89 LIG 0.16  HD
ENDROOT
BRANCH 1 5
ATOM      5  CA  ARG C 760      12.877 -17.663  20.359  1.00 61.16 LIG 0.40  C 
ATOM      6  N   ARG C 760      12.309 -18.984  20.098  1.00 59.95 LIG 0.61  N 
BRANCH 5 7
ATOM      7  CB  ARG C 760      13.865 -17.728  21.524  1.00 63.40 LIG 0.05  C 
BRANCH 7 8
ATOM      8  CG  ARG C 760      15.058 -16.805  21.381  1.00 63.69 LIG 0.02  C 
BRANCH 8 9
ATOM      9  CD  ARG C 760      15.330 -16.061  22.679  1.00 63.30 LIG 0.14  C 
BRANCH 9 10
ATOM     10  NE  ARG C 760      15.813 -14.706  22.430  1.00 65.15 LIG-0.23  N 
ATOM     11  CZ  ARG C 760      15.723 -13.704  23.299  1.00 66.46 LIG 0.67  C 
ATOM     12  NH1 ARG C 760      15.172 -13.898  24.491  1.00 66.43 LIG-0.23  N 
ATOM     13  NH2 ARG C 760      16.190 -12.507  22.978  1.00 66.89 LIG-0.23  N 
ATOM     14 2HH1 ARG C 760      15.116 -13.246  25.049  1.00 66.43 LIG 0.17  HD
ATOM     15 1HH1 ARG C 760      14.870 -14.675  24.705  1.00 66.43 LIG 0.17  HD
ATOM     16 2HH2 ARG C 760      16.133 -11.858  23.539  1.00 66.89 LIG 0.17  HD
ATOM     17 1HH2 ARG C 760      16.551 -12.379  22.208  1.00 66.89 LIG 0.17  HD
ATOM     18 HE   ARG C 760      16.182 -14.546  21.670  1.00 65.15 LIG 0.18  HD
ENDBRANCH 9 10
ENDBRANCH 8 9
ENDBRANCH 7 8
ENDBRANCH 5 7
ENDBRANCH 1 5
BRANCH 3 19
ATOM     19  CA  GLY C 761      15.057 -17.631  17.259  1.00 62.83 LIG 0.23  C 
BRANCH 19 20
ATOM     20  C   GLY C 761      14.585 -16.978  15.968  1.00 67.24 LIG 0.24  C 
ATOM     21 O    GLY C 761      13.419 -16.607  15.838  1.00 65.14 LIG-0.27  OA
ATOM     22  N   THR C 762      15.512 -16.854  15.019  1.00 72.11 LIG-0.34  N 
ATOM     23 H    THR C 762      16.216 -17.347  14.995  1.00 72.11 LIG 0.16  HD
BRANCH 22 24
ATOM     24  CA  THR C 762      15.451 -15.885  13.919  1.00 75.13 LIG 0.21  C 
BRANCH 24 25
ATOM     25  C   THR C 762      16.494 -16.298  12.885  1.00 73.09 LIG 0.20  C 
ATOM     26 OXT  THR C 762      17.284 -17.205  13.141  1.00 76.95 LIG-0.65  OA
ATOM     27 O    THR C 762      16.580 -15.760  11.780  1.00 68.26 LIG-0.65  OA
ENDBRANCH 24 25
BRANCH 24 28
ATOM     28  CB  THR C 762      15.722 -14.424  14.342  1.00 77.67 LIG 0.15  C 
ATOM     29  CG2 THR C 762      17.183 -14.249  14.719  1.00 76.40 LIG 0.04  C 
BRANCH 28 30
ATOM     30 OG1  THR C 762      15.413 -13.536  13.262  1.00 80.43 LIG-0.39  OA
ATOM     31 HG1  THR C 762      14.581 -13.436  13.212  1.00 80.43 LIG 0.21  HD
ENDBRANCH 28 30
ENDBRANCH 24 28
ENDBRANCH 22 24
ENDBRANCH 19 20
ENDBRANCH 3 19
TORSDOF 11
ENDMDL
MODEL 42
USER: ADFR SOLUTION from run 160
USER: SCORE 8.839670 LL:  -1.781 LR:  -7.146 RR:   0.000 FEB:  -3.865
USER: RMSD 7.497880
USER: SEED 159
USER: STATUS no improvement in best in 35 clusters for 5 generations
USER: GENES 13
USER: genes 0 Translation |==|  0.38937 0.28977 0.74296
USER: genes 1 Rotation |==|  0.96470 0.51342 0.58503 0.66323
USER: genes 2 Torsion [N]-C--CA-[N] |==|  0.78398
USER: genes 3 Torsion [C]-CA--CB-[CG] |==|  0.48595
USER: genes 4 Torsion [CA]-CB--CG-[CD] |==|  0.61128
USER: genes 5 Torsion [CB]-CG--CD-[NE] |==|  0.72569
USER: genes 6 Torsion [CG]-CD--NE-[CZ] |==|  0.26871
USER: genes 7 Torsion [C]-N--CA-[C] |==|  0.17027
USER: genes 8 Torsion [N]-CA--C-[N] |==|  0.10000
USER: genes 9 Torsion [C]-N--CA-[C] |==|  0.61967
USER: genes 10 Torsion [N]-CA--C-[OXT] |==|  0.28180
USER: genes 11 Torsion [N]-CA--CB-[OG1] |==|  0.13970
USER: genes 12 Torsion [CA]-CB--OG1-[HG1] |==|  0.15581
ROOT
ATOM      1  C   ARG C 760      15.380 -19.686  23.011  1.00 56.34 LIG 0.26  C 
ATOM      2 O    ARG C 760      14.608 -20.618  22.805  1.00 53.76 LIG-0.27  OA
ATOM      3  N   GLY C 761      16.409 -19.414  22.215  1.00 59.89 LIG-0.35  N 
ATOM      4 H    GLY C 761      17.070 -18.911  22.440  1.00 59.89 LIG 0.16  HD
ENDROOT
BRANCH 1 5
ATOM      5  CA  ARG C 760      15.190 -18.777  24.225  1.00 61.16 LIG 0.40  C 
ATOM      6  N   ARG C 760      16.143 -19.141  25.272  1.00 59.95 LIG 0.61  N 
BRANCH 5 7
ATOM      7  CB  ARG C 760      15.351 -17.304  23.849  1.00 63.40 LIG 0.05  C 
BRANCH 7 8
ATOM      8  CG  ARG C 760      15.057 -16.337  24.978  1.00 63.69 LIG 0.02  C 
BRANCH 8 9
ATOM      9  CD  ARG C 760      14.295 -15.123  24.472  1.00 63.30 LIG 0.14  C 
BRANCH 9 10
ATOM     10  NE  ARG C 760      15.183 -13.987  24.247  1.00 65.15 LIG-0.23  N 
ATOM     11  CZ  ARG C 760      15.699 -13.658  23.066  1.00 66.46 LIG 0.67  C 
ATOM     12  NH1 ARG C 760      15.413 -14.374  21.987  1.00 66.43 LIG-0.23  N 
ATOM     13  NH2 ARG C 760      16.499 -12.606  22.965  1.00 66.89 LIG-0.23  N 
ATOM     14 2HH1 ARG C 760      15.749 -14.157  21.225  1.00 66.43 LIG 0.17  HD
ATOM     15 1HH1 ARG C 760      14.891 -15.055  22.048  1.00 66.43 LIG 0.17  HD
ATOM     16 2HH2 ARG C 760      16.833 -12.393  22.202  1.00 66.89 LIG 0.17  HD
ATOM     17 1HH2 ARG C 760      16.684 -12.138  23.661  1.00 66.89 LIG 0.17  HD
ATOM     18 HE   ARG C 760      15.386 -13.496  24.924  1.00 65.15 LIG 0.18  HD
ENDBRANCH 9 10
ENDBRANCH 8 9
ENDBRANCH 7 8
ENDBRANCH 5 7
ENDBRANCH 1 5
BRANCH 3 19
ATOM     19  CA  GLY C 761      16.499 -19.960  20.871  1.00 62.83 LIG 0.23  C 
BRANCH 19 20
ATOM     20  C   GLY C 761      15.442 -19.633  19.826  1.00 67.24 LIG 0.24  C 
ATOM     21 O    GLY C 761      15.094 -20.474  18.996  1.00 65.14 LIG-0.27  OA
ATOM     22  N   THR C 762      14.949 -18.397  19.880  1.00 72.11 LIG-0.34  N 
ATOM     23 H    THR C 762      15.372 -17.747  20.251  1.00 72.11 LIG 0.16  HD
BRANCH 22 24
ATOM     24  CA  THR C 762      13.651 -17.995  19.327  1.00 75.13 LIG 0.21  C 
BRANCH 24 25
ATOM     25  C   THR C 762      13.849 -16.661  18.613  1.00 73.09 LIG 0.20  C 
ATOM     26 OXT  THR C 762      13.944 -16.630  17.388  1.00 76.95 LIG-0.65  OA
ATOM     27 O    THR C 762      13.913 -15.590  19.219  1.00 68.26 LIG-0.65  OA
ENDBRANCH 24 25
BRANCH 24 28
ATOM     28  CB  THR C 762      12.531 -17.835  20.380  1.00 77.67 LIG 0.15  C 
ATOM     29  CG2 THR C 762      12.138 -19.192  20.937  1.00 76.40 LIG 0.04  C 
BRANCH 28 30
ATOM     30 OG1  THR C 762      12.986 -17.008  21.456  1.00 80.43 LIG-0.39  OA
ATOM     31 HG1  THR C 762      13.245 -16.269  21.151  1.00 80.43 LIG 0.21  HD
ENDBRANCH 28 30
ENDBRANCH 24 28
ENDBRANCH 22 24
ENDBRANCH 19 20
ENDBRANCH 3 19
TORSDOF 11
ENDMDL
MODEL 43
USER: ADFR SOLUTION from run 172
USER: SCORE 7.688980 LL:  -0.723 LR:  -7.151 RR:   0.000 FEB:  -3.870
USER: RMSD 4.400237
USER: SEED 171
USER: STATUS no improvement in best in 46 clusters for 5 generations
USER: GENES 13
USER: genes 0 Translation |==|  0.29995 0.52948 0.35231
USER: genes 1 Rotation |==|  0.67854 0.56431 0.14549 0.79717
USER: genes 2 Torsion [N]-C--CA-[N] |==|  0.46339
USER: genes 3 Torsion [C]-CA--CB-[CG] |==|  0.24522
USER: genes 4 Torsion [CA]-CB--CG-[CD] |==|  0.21808
USER: genes 5 Torsion [CB]-CG--CD-[NE] |==|  0.82086
USER: genes 6 Torsion [CG]-CD--NE-[CZ] |==|  0.39505
USER: genes 7 Torsion [C]-N--CA-[C] |==|  0.83281
USER: genes 8 Torsion [N]-CA--C-[N] |==|  0.34714
USER: genes 9 Torsion [C]-N--CA-[C] |==|  0.63918
USER: genes 10 Torsion [N]-CA--C-[OXT] |==|  0.47918
USER: genes 11 Torsion [N]-CA--CB-[OG1] |==|  0.01436
USER: genes 12 Torsion [CA]-CB--OG1-[HG1] |==|  0.35879
ROOT
ATOM      1  C   ARG C 760      13.837 -16.630  15.100  1.00 56.34 LIG 0.26  C 
ATOM      2 O    ARG C 760      14.324 -16.369  16.196  1.00 53.76 LIG-0.27  OA
ATOM      3  N   GLY C 761      12.821 -17.474  14.946  1.00 59.89 LIG-0.35  N 
ATOM      4 H    GLY C 761      12.600 -17.826  14.193  1.00 59.89 LIG 0.16  HD
ENDROOT
BRANCH 1 5
ATOM      5  CA  ARG C 760      14.394 -15.985  13.831  1.00 61.16 LIG 0.40  C 
ATOM      6  N   ARG C 760      15.272 -14.871  14.184  1.00 59.95 LIG 0.61  N 
BRANCH 5 7
ATOM      7  CB  ARG C 760      15.144 -17.003  12.972  1.00 63.40 LIG 0.05  C 
BRANCH 7 8
ATOM      8  CG  ARG C 760      14.270 -17.748  11.983  1.00 63.69 LIG 0.02  C 
BRANCH 8 9
ATOM      9  CD  ARG C 760      13.971 -16.889  10.765  1.00 63.30 LIG 0.14  C 
BRANCH 9 10
ATOM     10  NE  ARG C 760      13.181 -15.713  11.118  1.00 65.15 LIG-0.23  N 
ATOM     11  CZ  ARG C 760      13.341 -14.509  10.576  1.00 66.46 LIG 0.67  C 
ATOM     12  NH1 ARG C 760      14.262 -14.312   9.641  1.00 66.43 LIG-0.23  N 
ATOM     13  NH2 ARG C 760      12.574 -13.502  10.966  1.00 66.89 LIG-0.23  N 
ATOM     14 2HH1 ARG C 760      14.361 -13.532   9.293  1.00 66.43 LIG 0.17  HD
ATOM     15 1HH1 ARG C 760      14.760 -14.965   9.382  1.00 66.43 LIG 0.17  HD
ATOM     16 2HH2 ARG C 760      12.677 -12.723  10.616  1.00 66.89 LIG 0.17  HD
ATOM     17 1HH2 ARG C 760      11.975 -13.627  11.569  1.00 66.89 LIG 0.17  HD
ATOM     18 HE   ARG C 760      12.571 -15.805  11.716  1.00 65.15 LIG 0.18  HD
ENDBRANCH 9 10
ENDBRANCH 8 9
ENDBRANCH 7 8
ENDBRANCH 5 7
ENDBRANCH 1 5
BRANCH 3 19
ATOM     19  CA  GLY C 761      11.986 -17.875  16.066  1.00 62.83 LIG 0.23  C 
BRANCH 19 20
ATOM     20  C   GLY C 761      12.586 -18.589  17.268  1.00 67.24 LIG 0.24  C 
ATOM     21 O    GLY C 761      13.231 -19.628  17.128  1.00 65.14 LIG-0.27  OA
ATOM     22  N   THR C 762      12.352 -18.015  18.447  1.00 72.11 LIG-0.34  N 
ATOM     23 H    THR C 762      11.693 -17.478  18.576  1.00 72.11 LIG 0.16  HD
BRANCH 22 24
ATOM     24  CA  THR C 762      13.169 -18.221  19.649  1.00 75.13 LIG 0.21  C 
BRANCH 24 25
ATOM     25  C   THR C 762      12.223 -18.570  20.794  1.00 73.09 LIG 0.20  C 
ATOM     26 OXT  THR C 762      12.680 -18.924  21.879  1.00 76.95 LIG-0.65  OA
ATOM     27 O    THR C 762      10.998 -18.508  20.682  1.00 68.26 LIG-0.65  OA
ENDBRANCH 24 25
BRANCH 24 28
ATOM     28  CB  THR C 762      14.017 -16.996  20.059  1.00 77.67 LIG 0.15  C 
ATOM     29  CG2 THR C 762      15.496 -17.315  19.929  1.00 76.40 LIG 0.04  C 
BRANCH 28 30
ATOM     30 OG1  THR C 762      13.708 -15.881  19.216  1.00 80.43 LIG-0.39  OA
ATOM     31 HG1  THR C 762      13.538 -15.209  19.690  1.00 80.43 LIG 0.21  HD
ENDBRANCH 28 30
ENDBRANCH 24 28
ENDBRANCH 22 24
ENDBRANCH 19 20
ENDBRANCH 3 19
TORSDOF 11
ENDMDL
MODEL 44
USER: ADFR SOLUTION from run 70
USER: SCORE 9.138644 LL:  -2.274 LR:  -7.118 RR:   0.000 FEB:  -3.836
USER: RMSD 7.471767
USER: SEED 69
USER: STATUS no improvement in best in 31 clusters for 5 generations
USER: GENES 13
USER: genes 0 Translation |==|  0.42638 0.40858 0.86478
USER: genes 1 Rotation |==|  0.47967 0.27792 0.07548 0.64160
USER: genes 2 Torsion [N]-C--CA-[N] |==|  0.85060
USER: genes 3 Torsion [C]-CA--CB-[CG] |==|  0.81790
USER: genes 4 Torsion [CA]-CB--CG-[CD] |==|  0.48746
USER: genes 5 Torsion [CB]-CG--CD-[NE] |==|  0.71122
USER: genes 6 Torsion [CG]-CD--NE-[CZ] |==|  0.30059
USER: genes 7 Torsion [C]-N--CA-[C] |==|  0.20568
USER: genes 8 Torsion [N]-CA--C-[N] |==|  0.95626
USER: genes 9 Torsion [C]-N--CA-[C] |==|  0.44527
USER: genes 10 Torsion [N]-CA--C-[OXT] |==|  0.50932
USER: genes 11 Torsion [N]-CA--CB-[OG1] |==|  0.53414
USER: genes 12 Torsion [CA]-CB--OG1-[HG1] |==|  0.95761
ROOT
ATOM      1  C   ARG C 760      16.018 -18.172  25.478  1.00 56.34 LIG 0.26  C 
ATOM      2 O    ARG C 760      17.057 -17.695  25.925  1.00 53.76 LIG-0.27  OA
ATOM      3  N   GLY C 761      14.834 -17.583  25.624  1.00 59.89 LIG-0.35  N 
ATOM      4 H    GLY C 761      14.082 -17.983  25.506  1.00 59.89 LIG 0.16  HD
ENDROOT
BRANCH 1 5
ATOM      5  CA  ARG C 760      16.037 -19.498  24.718  1.00 61.16 LIG 0.40  C 
ATOM      6  N   ARG C 760      15.084 -20.429  25.321  1.00 59.95 LIG 0.61  N 
BRANCH 5 7
ATOM      7  CB  ARG C 760      15.720 -19.297  23.237  1.00 63.40 LIG 0.05  C 
BRANCH 7 8
ATOM      8  CG  ARG C 760      14.312 -18.808  22.962  1.00 63.69 LIG 0.02  C 
BRANCH 8 9
ATOM      9  CD  ARG C 760      14.111 -18.528  21.482  1.00 63.30 LIG 0.14  C 
BRANCH 9 10
ATOM     10  NE  ARG C 760      14.128 -17.096  21.199  1.00 65.15 LIG-0.23  N 
ATOM     11  CZ  ARG C 760      15.116 -16.464  20.574  1.00 66.46 LIG 0.67  C 
ATOM     12  NH1 ARG C 760      16.179 -17.135  20.150  1.00 66.43 LIG-0.23  N 
ATOM     13  NH2 ARG C 760      15.038 -15.157  20.366  1.00 66.89 LIG-0.23  N 
ATOM     14 2HH1 ARG C 760      16.816 -16.722  19.745  1.00 66.43 LIG 0.17  HD
ATOM     15 1HH1 ARG C 760      16.232 -17.984  20.279  1.00 66.43 LIG 0.17  HD
ATOM     16 2HH2 ARG C 760      15.676 -14.748  19.961  1.00 66.89 LIG 0.17  HD
ATOM     17 1HH2 ARG C 760      14.349 -14.720  20.636  1.00 66.89 LIG 0.17  HD
ATOM     18 HE   ARG C 760      13.452 -16.630  21.454  1.00 65.15 LIG 0.18  HD
ENDBRANCH 9 10
ENDBRANCH 8 9
ENDBRANCH 7 8
ENDBRANCH 5 7
ENDBRANCH 1 5
BRANCH 3 19
ATOM     19  CA  GLY C 761      14.720 -16.185  26.002  1.00 62.83 LIG 0.23  C 
BRANCH 19 20
ATOM     20  C   GLY C 761      15.031 -15.080  25.004  1.00 67.24 LIG 0.24  C 
ATOM     21 O    GLY C 761      14.662 -13.923  25.208  1.00 65.14 LIG-0.27  OA
ATOM     22  N   THR C 762      15.707 -15.462  23.921  1.00 72.11 LIG-0.34  N 
ATOM     23 H    THR C 762      15.715 -16.276  23.646  1.00 72.11 LIG 0.16  HD
BRANCH 22 24
ATOM     24  CA  THR C 762      16.506 -14.564  23.080  1.00 75.13 LIG 0.21  C 
BRANCH 24 25
ATOM     25  C   THR C 762      17.481 -15.427  22.284  1.00 73.09 LIG 0.20  C 
ATOM     26 OXT  THR C 762      18.307 -14.895  21.546  1.00 76.95 LIG-0.65  OA
ATOM     27 O    THR C 762      17.483 -16.657  22.352  1.00 68.26 LIG-0.65  OA
ENDBRANCH 24 25
BRANCH 24 28
ATOM     28  CB  THR C 762      17.308 -13.502  23.864  1.00 77.67 LIG 0.15  C 
ATOM     29  CG2 THR C 762      18.473 -14.154  24.588  1.00 76.40 LIG 0.04  C 
BRANCH 28 30
ATOM     30 OG1  THR C 762      17.818 -12.511  22.966  1.00 80.43 LIG-0.39  OA
ATOM     31 HG1  THR C 762      17.769 -12.796  22.177  1.00 80.43 LIG 0.21  HD
ENDBRANCH 28 30
ENDBRANCH 24 28
ENDBRANCH 22 24
ENDBRANCH 19 20
ENDBRANCH 3 19
TORSDOF 11
ENDMDL
MODEL 45
USER: ADFR SOLUTION from run 123
USER: SCORE 8.936255 LL:  -2.390 LR:  -7.123 RR:   0.000 FEB:  -3.842
USER: RMSD 8.207063
USER: SEED 122
USER: STATUS no improvement in best in 10 clusters for 5 generations
USER: GENES 13
USER: genes 0 Translation |==|  0.42989 0.48040 0.73244
USER: genes 1 Rotation |==|  0.05563 0.67874 0.39488 0.59763
USER: genes 2 Torsion [N]-C--CA-[N] |==|  0.83163
USER: genes 3 Torsion [C]-CA--CB-[CG] |==|  0.26982
USER: genes 4 Torsion [CA]-CB--CG-[CD] |==|  0.85014
USER: genes 5 Torsion [CB]-CG--CD-[NE] |==|  0.77314
USER: genes 6 Torsion [CG]-CD--NE-[CZ] |==|  0.36817
USER: genes 7 Torsion [C]-N--CA-[C] |==|  0.32187
USER: genes 8 Torsion [N]-CA--C-[N] |==|  0.11661
USER: genes 9 Torsion [C]-N--CA-[C] |==|  0.14830
USER: genes 10 Torsion [N]-CA--C-[OXT] |==|  0.12162
USER: genes 11 Torsion [N]-CA--CB-[OG1] |==|  0.91100
USER: genes 12 Torsion [CA]-CB--OG1-[HG1] |==|  0.07684
ROOT
ATOM      1  C   ARG C 760      16.079 -17.256  22.798  1.00 56.34 LIG 0.26  C 
ATOM      2 O    ARG C 760      15.334 -16.931  21.878  1.00 53.76 LIG-0.27  OA
ATOM      3  N   GLY C 761      17.402 -17.150  22.725  1.00 59.89 LIG-0.35  N 
ATOM      4 H    GLY C 761      17.946 -17.551  23.257  1.00 59.89 LIG 0.16  HD
ENDROOT
BRANCH 1 5
ATOM      5  CA  ARG C 760      15.505 -17.817  24.099  1.00 61.16 LIG 0.40  C 
ATOM      6  N   ARG C 760      16.007 -19.172  24.320  1.00 59.95 LIG 0.61  N 
BRANCH 5 7
ATOM      7  CB  ARG C 760      15.847 -16.922  25.291  1.00 63.40 LIG 0.05  C 
BRANCH 7 8
ATOM      8  CG  ARG C 760      14.747 -15.954  25.678  1.00 63.69 LIG 0.02  C 
BRANCH 8 9
ATOM      9  CD  ARG C 760      14.312 -15.118  24.486  1.00 63.30 LIG 0.14  C 
BRANCH 9 10
ATOM     10  NE  ARG C 760      15.213 -13.991  24.262  1.00 65.15 LIG-0.23  N 
ATOM     11  CZ  ARG C 760      15.721 -13.657  23.080  1.00 66.46 LIG 0.67  C 
ATOM     12  NH1 ARG C 760      15.413 -14.358  21.996  1.00 66.43 LIG-0.23  N 
ATOM     13  NH2 ARG C 760      16.534 -12.615  22.980  1.00 66.89 LIG-0.23  N 
ATOM     14 2HH1 ARG C 760      15.744 -14.137  21.233  1.00 66.43 LIG 0.17  HD
ATOM     15 1HH1 ARG C 760      14.883 -15.033  22.056  1.00 66.43 LIG 0.17  HD
ATOM     16 2HH2 ARG C 760      16.862 -12.398  22.216  1.00 66.89 LIG 0.17  HD
ATOM     17 1HH2 ARG C 760      16.732 -12.157  23.680  1.00 66.89 LIG 0.17  HD
ATOM     18 HE   ARG C 760      15.430 -13.511  24.942  1.00 65.15 LIG 0.18  HD
ENDBRANCH 9 10
ENDBRANCH 8 9
ENDBRANCH 7 8
ENDBRANCH 5 7
ENDBRANCH 1 5
BRANCH 3 19
ATOM     19  CA  GLY C 761      18.046 -16.326  21.716  1.00 62.83 LIG 0.23  C 
BRANCH 19 20
ATOM     20  C   GLY C 761      18.869 -15.109  22.112  1.00 67.24 LIG 0.24  C 
ATOM     21 O    GLY C 761      18.789 -14.058  21.476  1.00 65.14 LIG-0.27  OA
ATOM     22  N   THR C 762      19.663 -15.277  23.169  1.00 72.11 LIG-0.34  N 
ATOM     23 H    THR C 762      19.928 -16.052  23.428  1.00 72.11 LIG 0.16  HD
BRANCH 22 24
ATOM     24  CA  THR C 762      20.175 -14.186  24.006  1.00 75.13 LIG 0.21  C 
BRANCH 24 25
ATOM     25  C   THR C 762      18.978 -13.357  24.464  1.00 73.09 LIG 0.20  C 
ATOM     26 OXT  THR C 762      17.959 -13.921  24.858  1.00 76.95 LIG-0.65  OA
ATOM     27 O    THR C 762      18.987 -12.126  24.464  1.00 68.26 LIG-0.65  OA
ENDBRANCH 24 25
BRANCH 24 28
ATOM     28  CB  THR C 762      21.181 -13.254  23.293  1.00 77.67 LIG 0.15  C 
ATOM     29  CG2 THR C 762      22.137 -12.645  24.304  1.00 76.40 LIG 0.04  C 
BRANCH 28 30
ATOM     30 OG1  THR C 762      21.938 -13.996  22.330  1.00 80.43 LIG-0.39  OA
ATOM     31 HG1  THR C 762      21.482 -14.646  22.057  1.00 80.43 LIG 0.21  HD
ENDBRANCH 28 30
ENDBRANCH 24 28
ENDBRANCH 22 24
ENDBRANCH 19 20
ENDBRANCH 3 19
TORSDOF 11
ENDMDL
MODEL 46
USER: ADFR SOLUTION from run 11
USER: SCORE 8.554551 LL:  -1.519 LR:  -7.090 RR:   0.000 FEB:  -3.809
USER: RMSD 6.450645
USER: SEED 954915
USER: STATUS no improvement in best in 38 clusters for 5 generations
USER: GENES 13
USER: genes 0 Translation |==|  0.35365 0.52752 0.72607
USER: genes 1 Rotation |==|  0.46229 0.50432 0.98565 0.61272
USER: genes 2 Torsion [N]-C--CA-[N] |==|  0.29966
USER: genes 3 Torsion [C]-CA--CB-[CG] |==|  0.36703
USER: genes 4 Torsion [CA]-CB--CG-[CD] |==|  0.24453
USER: genes 5 Torsion [CB]-CG--CD-[NE] |==|  0.48148
USER: genes 6 Torsion [CG]-CD--NE-[CZ] |==|  0.44589
USER: genes 7 Torsion [C]-N--CA-[C] |==|  0.18890
USER: genes 8 Torsion [N]-CA--C-[N] |==|  0.07688
USER: genes 9 Torsion [C]-N--CA-[C] |==|  0.61918
USER: genes 10 Torsion [N]-CA--C-[OXT] |==|  0.79614
USER: genes 11 Torsion [N]-CA--CB-[OG1] |==|  0.14564
USER: genes 12 Torsion [CA]-CB--OG1-[HG1] |==|  0.07931
ROOT
ATOM      1  C   ARG C 760      14.763 -16.655  22.669  1.00 56.34 LIG 0.26  C 
ATOM      2 O    ARG C 760      15.244 -17.627  23.243  1.00 53.76 LIG-0.27  OA
ATOM      3  N   GLY C 761      14.304 -15.589  23.318  1.00 59.89 LIG-0.35  N 
ATOM      4 H    GLY C 761      13.788 -14.999  22.966  1.00 59.89 LIG 0.16  HD
ENDROOT
BRANCH 1 5
ATOM      5  CA  ARG C 760      14.663 -16.627  21.143  1.00 61.16 LIG 0.40  C 
ATOM      6  N   ARG C 760      15.992 -16.449  20.561  1.00 59.95 LIG 0.61  N 
BRANCH 5 7
ATOM      7  CB  ARG C 760      14.012 -17.900  20.604  1.00 63.40 LIG 0.05  C 
BRANCH 7 8
ATOM      8  CG  ARG C 760      12.914 -17.656  19.589  1.00 63.69 LIG 0.02  C 
BRANCH 8 9
ATOM      9  CD  ARG C 760      13.482 -17.567  18.182  1.00 63.30 LIG 0.14  C 
BRANCH 9 10
ATOM     10  NE  ARG C 760      12.424 -17.489  17.179  1.00 65.15 LIG-0.23  N 
ATOM     11  CZ  ARG C 760      12.595 -17.040  15.939  1.00 66.46 LIG 0.67  C 
ATOM     12  NH1 ARG C 760      13.790 -16.631  15.532  1.00 66.43 LIG-0.23  N 
ATOM     13  NH2 ARG C 760      11.568 -17.006  15.102  1.00 66.89 LIG-0.23  N 
ATOM     14 2HH1 ARG C 760      13.895 -16.342  14.729  1.00 66.43 LIG 0.17  HD
ATOM     15 1HH1 ARG C 760      14.460 -16.655  16.072  1.00 66.43 LIG 0.17  HD
ATOM     16 2HH2 ARG C 760      11.678 -16.717  14.300  1.00 66.89 LIG 0.17  HD
ATOM     17 1HH2 ARG C 760      10.794 -17.273  15.360  1.00 66.89 LIG 0.17  HD
ATOM     18 HE   ARG C 760      11.637 -17.751  17.406  1.00 65.15 LIG 0.18  HD
ENDBRANCH 9 10
ENDBRANCH 8 9
ENDBRANCH 7 8
ENDBRANCH 5 7
ENDBRANCH 1 5
BRANCH 3 19
ATOM     19  CA  GLY C 761      14.651 -15.334  24.706  1.00 62.83 LIG 0.23  C 
BRANCH 19 20
ATOM     20  C   GLY C 761      16.075 -14.971  25.100  1.00 67.24 LIG 0.24  C 
ATOM     21 O    GLY C 761      16.506 -15.232  26.223  1.00 65.14 LIG-0.27  OA
ATOM     22  N   THR C 762      16.789 -14.359  24.156  1.00 72.11 LIG-0.34  N 
ATOM     23 H    THR C 762      16.424 -13.935  23.503  1.00 72.11 LIG 0.16  HD
BRANCH 22 24
ATOM     24  CA  THR C 762      18.255 -14.329  24.111  1.00 75.13 LIG 0.21  C 
BRANCH 24 25
ATOM     25  C   THR C 762      18.676 -12.909  23.742  1.00 73.09 LIG 0.20  C 
ATOM     26 OXT  THR C 762      18.525 -12.506  22.591  1.00 76.95 LIG-0.65  OA
ATOM     27 O    THR C 762      19.163 -12.130  24.562  1.00 68.26 LIG-0.65  OA
ENDBRANCH 24 25
BRANCH 24 28
ATOM     28  CB  THR C 762      18.881 -15.312  23.096  1.00 77.67 LIG 0.15  C 
ATOM     29  CG2 THR C 762      18.644 -16.745  23.540  1.00 76.40 LIG 0.04  C 
BRANCH 28 30
ATOM     30 OG1  THR C 762      18.291 -15.125  21.805  1.00 80.43 LIG-0.39  OA
ATOM     31 HG1  THR C 762      18.038 -14.328  21.726  1.00 80.43 LIG 0.21  HD
ENDBRANCH 28 30
ENDBRANCH 24 28
ENDBRANCH 22 24
ENDBRANCH 19 20
ENDBRANCH 3 19
TORSDOF 11
ENDMDL
MODEL 47
USER: ADFR SOLUTION from run 54
USER: SCORE 7.578361 LL:  -0.660 LR:  -7.068 RR:   0.000 FEB:  -3.787
USER: RMSD 9.538145
USER: SEED 53
USER: STATUS no improvement in best in 33 clusters for 5 generations
USER: GENES 13
USER: genes 0 Translation |==|  0.48190 0.70113 0.78979
USER: genes 1 Rotation |==|  0.55485 0.83152 0.74423 0.77828
USER: genes 2 Torsion [N]-C--CA-[N] |==|  0.81054
USER: genes 3 Torsion [C]-CA--CB-[CG] |==|  0.25487
USER: genes 4 Torsion [CA]-CB--CG-[CD] |==|  0.34217
USER: genes 5 Torsion [CB]-CG--CD-[NE] |==|  0.61005
USER: genes 6 Torsion [CG]-CD--NE-[CZ] |==|  0.66807
USER: genes 7 Torsion [C]-N--CA-[C] |==|  0.83880
USER: genes 8 Torsion [N]-CA--C-[N] |==|  0.38136
USER: genes 9 Torsion [C]-N--CA-[C] |==|  0.81997
USER: genes 10 Torsion [N]-CA--C-[OXT] |==|  0.32500
USER: genes 11 Torsion [N]-CA--CB-[OG1] |==|  0.95417
USER: genes 12 Torsion [CA]-CB--OG1-[HG1] |==|  0.13339
ROOT
ATOM      1  C   ARG C 760      16.976 -14.442  23.959  1.00 56.34 LIG 0.26  C 
ATOM      2 O    ARG C 760      17.430 -14.526  25.096  1.00 53.76 LIG-0.27  OA
ATOM      3  N   GLY C 761      17.648 -13.890  22.953  1.00 59.89 LIG-0.35  N 
ATOM      4 H    GLY C 761      17.286 -13.636  22.216  1.00 59.89 LIG 0.16  HD
ENDROOT
BRANCH 1 5
ATOM      5  CA  ARG C 760      15.579 -14.975  23.641  1.00 61.16 LIG 0.40  C 
ATOM      6  N   ARG C 760      14.679 -13.863  23.341  1.00 59.95 LIG 0.61  N 
BRANCH 5 7
ATOM      7  CB  ARG C 760      15.612 -15.963  22.474  1.00 63.40 LIG 0.05  C 
BRANCH 7 8
ATOM      8  CG  ARG C 760      15.779 -17.411  22.888  1.00 63.69 LIG 0.02  C 
BRANCH 8 9
ATOM      9  CD  ARG C 760      14.640 -18.265  22.358  1.00 63.30 LIG 0.14  C 
BRANCH 9 10
ATOM     10  NE  ARG C 760      14.210 -19.257  23.339  1.00 65.15 LIG-0.23  N 
ATOM     11  CZ  ARG C 760      14.247 -20.572  23.145  1.00 66.46 LIG 0.67  C 
ATOM     12  NH1 ARG C 760      14.705 -21.068  22.002  1.00 66.43 LIG-0.23  N 
ATOM     13  NH2 ARG C 760      13.831 -21.392  24.099  1.00 66.89 LIG-0.23  N 
ATOM     14 2HH1 ARG C 760      14.727 -21.920  21.882  1.00 66.43 LIG 0.17  HD
ATOM     15 1HH1 ARG C 760      14.979 -20.539  21.382  1.00 66.43 LIG 0.17  HD
ATOM     16 2HH2 ARG C 760      13.856 -22.243  23.974  1.00 66.89 LIG 0.17  HD
ATOM     17 1HH2 ARG C 760      13.538 -21.074  24.841  1.00 66.89 LIG 0.17  HD
ATOM     18 HE   ARG C 760      13.913 -18.971  24.094  1.00 65.15 LIG 0.18  HD
ENDBRANCH 9 10
ENDBRANCH 8 9
ENDBRANCH 7 8
ENDBRANCH 5 7
ENDBRANCH 1 5
BRANCH 3 19
ATOM     19  CA  GLY C 761      19.083 -13.669  23.026  1.00 62.83 LIG 0.23  C 
BRANCH 19 20
ATOM     20  C   GLY C 761      19.685 -12.817  24.134  1.00 67.24 LIG 0.24  C 
ATOM     21 O    GLY C 761      19.160 -11.756  24.470  1.00 65.14 LIG-0.27  OA
ATOM     22  N   THR C 762      20.797 -13.301  24.685  1.00 72.11 LIG-0.34  N 
ATOM     23 H    THR C 762      21.304 -13.866  24.282  1.00 72.11 LIG 0.16  HD
BRANCH 22 24
ATOM     24  CA  THR C 762      21.288 -12.942  26.021  1.00 75.13 LIG 0.21  C 
BRANCH 24 25
ATOM     25  C   THR C 762      21.646 -11.459  25.995  1.00 73.09 LIG 0.20  C 
ATOM     26 OXT  THR C 762      21.038 -10.670  26.716  1.00 76.95 LIG-0.65  OA
ATOM     27 O    THR C 762      22.538 -11.006  25.276  1.00 68.26 LIG-0.65  OA
ENDBRANCH 24 25
BRANCH 24 28
ATOM     28  CB  THR C 762      22.524 -13.745  26.483  1.00 77.67 LIG 0.15  C 
ATOM     29  CG2 THR C 762      22.361 -14.173  27.931  1.00 76.40 LIG 0.04  C 
BRANCH 28 30
ATOM     30 OG1  THR C 762      22.681 -14.913  25.670  1.00 80.43 LIG-0.39  OA
ATOM     31 HG1  THR C 762      22.619 -14.701  24.860  1.00 80.43 LIG 0.21  HD
ENDBRANCH 28 30
ENDBRANCH 24 28
ENDBRANCH 22 24
ENDBRANCH 19 20
ENDBRANCH 3 19
TORSDOF 11
ENDMDL
MODEL 48
USER: ADFR SOLUTION from run 102
USER: SCORE 7.966046 LL:  -1.374 LR:  -7.069 RR:   0.000 FEB:  -3.787
USER: RMSD 9.825307
USER: SEED 101
USER: STATUS no improvement in best in 32 clusters for 5 generations
USER: GENES 13
USER: genes 0 Translation |==|  0.55790 0.59549 0.87282
USER: genes 1 Rotation |==|  0.62991 0.93783 0.67536 0.60333
USER: genes 2 Torsion [N]-C--CA-[N] |==|  0.56403
USER: genes 3 Torsion [C]-CA--CB-[CG] |==|  0.24021
USER: genes 4 Torsion [CA]-CB--CG-[CD] |==|  0.60929
USER: genes 5 Torsion [CB]-CG--CD-[NE] |==|  0.10849
USER: genes 6 Torsion [CG]-CD--NE-[CZ] |==|  0.30580
USER: genes 7 Torsion [C]-N--CA-[C] |==|  0.76703
USER: genes 8 Torsion [N]-CA--C-[N] |==|  0.32156
USER: genes 9 Torsion [C]-N--CA-[C] |==|  0.49595
USER: genes 10 Torsion [N]-CA--C-[OXT] |==|  0.98553
USER: genes 11 Torsion [N]-CA--CB-[OG1] |==|  0.48290
USER: genes 12 Torsion [CA]-CB--OG1-[HG1] |==|  0.86774
ROOT
ATOM      1  C   ARG C 760      18.287 -15.788  25.641  1.00 56.34 LIG 0.26  C 
ATOM      2 O    ARG C 760      19.464 -15.719  25.979  1.00 53.76 LIG-0.27  OA
ATOM      3  N   GLY C 761      17.859 -15.412  24.439  1.00 59.89 LIG-0.35  N 
ATOM      4 H    GLY C 761      17.035 -15.259  24.250  1.00 59.89 LIG 0.16  HD
ENDROOT
BRANCH 1 5
ATOM      5  CA  ARG C 760      17.231 -16.318  26.611  1.00 61.16 LIG 0.40  C 
ATOM      6  N   ARG C 760      17.702 -16.171  27.987  1.00 59.95 LIG 0.61  N 
BRANCH 5 7
ATOM      7  CB  ARG C 760      15.894 -15.600  26.427  1.00 63.40 LIG 0.05  C 
BRANCH 7 8
ATOM      8  CG  ARG C 760      15.004 -16.205  25.361  1.00 63.69 LIG 0.02  C 
BRANCH 8 9
ATOM      9  CD  ARG C 760      14.295 -15.123  24.563  1.00 63.30 LIG 0.14  C 
BRANCH 9 10
ATOM     10  NE  ARG C 760      15.171 -13.983  24.309  1.00 65.15 LIG-0.23  N 
ATOM     11  CZ  ARG C 760      15.661 -13.662  23.115  1.00 66.46 LIG 0.67  C 
ATOM     12  NH1 ARG C 760      15.358 -14.390  22.048  1.00 66.43 LIG-0.23  N 
ATOM     13  NH2 ARG C 760      16.452 -12.606  22.987  1.00 66.89 LIG-0.23  N 
ATOM     14 2HH1 ARG C 760      15.677 -14.178  21.278  1.00 66.43 LIG 0.17  HD
ATOM     15 1HH1 ARG C 760      14.841 -15.074  22.126  1.00 66.43 LIG 0.17  HD
ATOM     16 2HH2 ARG C 760      16.769 -12.398  22.216  1.00 66.89 LIG 0.17  HD
ATOM     17 1HH2 ARG C 760      16.648 -12.130  23.676  1.00 66.89 LIG 0.17  HD
ATOM     18 HE   ARG C 760      15.384 -13.485  24.977  1.00 65.15 LIG 0.18  HD
ENDBRANCH 9 10
ENDBRANCH 8 9
ENDBRANCH 7 8
ENDBRANCH 5 7
ENDBRANCH 1 5
BRANCH 3 19
ATOM     19  CA  GLY C 761      18.776 -15.229  23.326  1.00 62.83 LIG 0.23  C 
BRANCH 19 20
ATOM     20  C   GLY C 761      19.531 -13.920  23.147  1.00 67.24 LIG 0.24  C 
ATOM     21 O    GLY C 761      18.930 -12.872  22.910  1.00 65.14 LIG-0.27  OA
ATOM     22  N   THR C 762      20.856 -14.006  23.256  1.00 72.11 LIG-0.34  N 
ATOM     23 H    THR C 762      21.282 -14.744  23.139  1.00 72.11 LIG 0.16  HD
BRANCH 22 24
ATOM     24  CA  THR C 762      21.738 -12.880  23.583  1.00 75.13 LIG 0.21  C 
BRANCH 24 25
ATOM     25  C   THR C 762      23.165 -13.417  23.643  1.00 73.09 LIG 0.20  C 
ATOM     26 OXT  THR C 762      23.370 -14.623  23.527  1.00 76.95 LIG-0.65  OA
ATOM     27 O    THR C 762      24.142 -12.683  23.800  1.00 68.26 LIG-0.65  OA
ENDBRANCH 24 25
BRANCH 24 28
ATOM     28  CB  THR C 762      21.411 -12.183  24.922  1.00 77.67 LIG 0.15  C 
ATOM     29  CG2 THR C 762      21.378 -13.201  26.049  1.00 76.40 LIG 0.04  C 
BRANCH 28 30
ATOM     30 OG1  THR C 762      22.408 -11.198  25.218  1.00 80.43 LIG-0.39  OA
ATOM     31 HG1  THR C 762      23.171 -11.531  25.110  1.00 80.43 LIG 0.21  HD
ENDBRANCH 28 30
ENDBRANCH 24 28
ENDBRANCH 22 24
ENDBRANCH 19 20
ENDBRANCH 3 19
TORSDOF 11
ENDMDL
MODEL 49
USER: ADFR SOLUTION from run 49
USER: SCORE 8.270639 LL:  -1.266 LR:  -7.072 RR:   0.000 FEB:  -3.791
USER: RMSD 7.413627
USER: SEED 48
USER: STATUS no improvement in best in 39 clusters for 5 generations
USER: GENES 13
USER: genes 0 Translation |==|  0.60738 0.81749 0.75736
USER: genes 1 Rotation |==|  0.74591 0.36368 0.13965 0.70272
USER: genes 2 Torsion [N]-C--CA-[N] |==|  0.58248
USER: genes 3 Torsion [C]-CA--CB-[CG] |==|  0.84759
USER: genes 4 Torsion [CA]-CB--CG-[CD] |==|  0.39057
USER: genes 5 Torsion [CB]-CG--CD-[NE] |==|  0.80637
USER: genes 6 Torsion [CG]-CD--NE-[CZ] |==|  0.61783
USER: genes 7 Torsion [C]-N--CA-[C] |==|  0.72222
USER: genes 8 Torsion [N]-CA--C-[N] |==|  0.99161
USER: genes 9 Torsion [C]-N--CA-[C] |==|  0.79088
USER: genes 10 Torsion [N]-CA--C-[OXT] |==|  0.07063
USER: genes 11 Torsion [N]-CA--CB-[OG1] |==|  0.52166
USER: genes 12 Torsion [CA]-CB--OG1-[HG1] |==|  0.86155
ROOT
ATOM      1  C   ARG C 760      19.140 -12.958  23.303  1.00 56.34 LIG 0.26  C 
ATOM      2 O    ARG C 760      19.104 -12.502  24.441  1.00 53.76 LIG-0.27  OA
ATOM      3  N   GLY C 761      18.045 -13.222  22.597  1.00 59.89 LIG-0.35  N 
ATOM      4 H    GLY C 761      18.034 -13.721  21.897  1.00 59.89 LIG 0.16  HD
ENDROOT
BRANCH 1 5
ATOM      5  CA  ARG C 760      20.480 -13.255  22.628  1.00 61.16 LIG 0.40  C 
ATOM      6  N   ARG C 760      21.479 -13.600  23.638  1.00 59.95 LIG 0.61  N 
BRANCH 5 7
ATOM      7  CB  ARG C 760      20.350 -14.380  21.602  1.00 63.40 LIG 0.05  C 
BRANCH 7 8
ATOM      8  CG  ARG C 760      19.758 -15.661  22.154  1.00 63.69 LIG 0.02  C 
BRANCH 8 9
ATOM      9  CD  ARG C 760      18.810 -16.300  21.152  1.00 63.30 LIG 0.14  C 
BRANCH 9 10
ATOM     10  NE  ARG C 760      17.590 -15.514  20.990  1.00 65.15 LIG-0.23  N 
ATOM     11  CZ  ARG C 760      16.368 -16.030  20.914  1.00 66.46 LIG 0.67  C 
ATOM     12  NH1 ARG C 760      16.188 -17.343  20.994  1.00 66.43 LIG-0.23  N 
ATOM     13  NH2 ARG C 760      15.321 -15.232  20.765  1.00 66.89 LIG-0.23  N 
ATOM     14 2HH1 ARG C 760      15.395 -17.672  20.945  1.00 66.43 LIG 0.17  HD
ATOM     15 1HH1 ARG C 760      16.864 -17.865  21.095  1.00 66.43 LIG 0.17  HD
ATOM     16 2HH2 ARG C 760      14.530 -15.565  20.716  1.00 66.89 LIG 0.17  HD
ATOM     17 1HH2 ARG C 760      15.434 -14.381  20.716  1.00 66.89 LIG 0.17  HD
ATOM     18 HE   ARG C 760      17.669 -14.659  20.940  1.00 65.15 LIG 0.18  HD
ENDBRANCH 9 10
ENDBRANCH 8 9
ENDBRANCH 7 8
ENDBRANCH 5 7
ENDBRANCH 1 5
BRANCH 3 19
ATOM     19  CA  GLY C 761      16.750 -12.673  22.965  1.00 62.83 LIG 0.23  C 
BRANCH 19 20
ATOM     20  C   GLY C 761      15.734 -13.514  23.723  1.00 67.24 LIG 0.24  C 
ATOM     21 O    GLY C 761      14.663 -13.032  24.090  1.00 65.14 LIG-0.27  OA
ATOM     22  N   THR C 762      16.097 -14.775  23.956  1.00 72.11 LIG-0.34  N 
ATOM     23 H    THR C 762      16.919 -15.025  23.958  1.00 72.11 LIG 0.16  HD
BRANCH 22 24
ATOM     24  CA  THR C 762      15.162 -15.872  24.231  1.00 75.13 LIG 0.21  C 
BRANCH 24 25
ATOM     25  C   THR C 762      14.665 -15.705  25.663  1.00 73.09 LIG 0.20  C 
ATOM     26 OXT  THR C 762      14.663 -14.591  26.184  1.00 76.95 LIG-0.65  OA
ATOM     27 O    THR C 762      14.252 -16.651  26.335  1.00 68.26 LIG-0.65  OA
ENDBRANCH 24 25
BRANCH 24 28
ATOM     28  CB  THR C 762      15.773 -17.283  24.078  1.00 77.67 LIG 0.15  C 
ATOM     29  CG2 THR C 762      16.809 -17.526  25.162  1.00 76.40 LIG 0.04  C 
BRANCH 28 30
ATOM     30 OG1  THR C 762      14.748 -18.276  24.187  1.00 80.43 LIG-0.39  OA
ATOM     31 HG1  THR C 762      14.288 -18.129  24.874  1.00 80.43 LIG 0.21  HD
ENDBRANCH 28 30
ENDBRANCH 24 28
ENDBRANCH 22 24
ENDBRANCH 19 20
ENDBRANCH 3 19
TORSDOF 11
ENDMDL
MODEL 50
USER: ADFR SOLUTION from run 24
USER: SCORE 8.133053 LL:  -1.179 LR:  -7.054 RR:   0.000 FEB:  -3.773
USER: RMSD 6.876903
USER: SEED 23
USER: STATUS no improvement in best in 38 clusters for 5 generations
USER: GENES 13
USER: genes 0 Translation |==|  0.36238 0.47101 0.76804
USER: genes 1 Rotation |==|  0.30398 0.63966 0.93250 0.57084
USER: genes 2 Torsion [N]-C--CA-[N] |==|  0.45311
USER: genes 3 Torsion [C]-CA--CB-[CG] |==|  0.10877
USER: genes 4 Torsion [CA]-CB--CG-[CD] |==|  0.22617
USER: genes 5 Torsion [CB]-CG--CD-[NE] |==|  0.96214
USER: genes 6 Torsion [CG]-CD--NE-[CZ] |==|  0.70248
USER: genes 7 Torsion [C]-N--CA-[C] |==|  0.16798
USER: genes 8 Torsion [N]-CA--C-[N] |==|  0.10228
USER: genes 9 Torsion [C]-N--CA-[C] |==|  0.60370
USER: genes 10 Torsion [N]-CA--C-[OXT] |==|  0.39512
USER: genes 11 Torsion [N]-CA--CB-[OG1] |==|  0.07869
USER: genes 12 Torsion [CA]-CB--OG1-[HG1] |==|  0.40519
ROOT
ATOM      1  C   ARG C 760      14.914 -17.376  23.519  1.00 56.34 LIG 0.26  C 
ATOM      2 O    ARG C 760      14.953 -17.657  24.712  1.00 53.76 LIG-0.27  OA
ATOM      3  N   GLY C 761      14.308 -16.287  23.055  1.00 59.89 LIG-0.35  N 
ATOM      4 H    GLY C 761      14.091 -16.173  22.231  1.00 59.89 LIG 0.16  HD
ENDROOT
BRANCH 1 5
ATOM      5  CA  ARG C 760      15.571 -18.290  22.484  1.00 61.16 LIG 0.40  C 
ATOM      6  N   ARG C 760      16.512 -19.193  23.145  1.00 59.95 LIG 0.61  N 
BRANCH 5 7
ATOM      7  CB  ARG C 760      14.527 -19.088  21.703  1.00 63.40 LIG 0.05  C 
BRANCH 7 8
ATOM      8  CG  ARG C 760      13.277 -18.305  21.356  1.00 63.69 LIG 0.02  C 
BRANCH 8 9
ATOM      9  CD  ARG C 760      13.497 -17.445  20.122  1.00 63.30 LIG 0.14  C 
BRANCH 9 10
ATOM     10  NE  ARG C 760      14.913 -17.343  19.784  1.00 65.15 LIG-0.23  N 
ATOM     11  CZ  ARG C 760      15.653 -16.253  19.966  1.00 66.46 LIG 0.67  C 
ATOM     12  NH1 ARG C 760      15.118 -15.159  20.494  1.00 66.43 LIG-0.23  N 
ATOM     13  NH2 ARG C 760      16.933 -16.259  19.624  1.00 66.89 LIG-0.23  N 
ATOM     14 2HH1 ARG C 760      15.601 -14.457  20.610  1.00 66.43 LIG 0.17  HD
ATOM     15 1HH1 ARG C 760      14.288 -15.153  20.721  1.00 66.43 LIG 0.17  HD
ATOM     16 2HH2 ARG C 760      17.412 -15.555  19.741  1.00 66.89 LIG 0.17  HD
ATOM     17 1HH2 ARG C 760      17.284 -16.966  19.285  1.00 66.89 LIG 0.17  HD
ATOM     18 HE   ARG C 760      15.295 -18.034  19.445  1.00 65.15 LIG 0.18  HD
ENDBRANCH 9 10
ENDBRANCH 8 9
ENDBRANCH 7 8
ENDBRANCH 5 7
ENDBRANCH 1 5
BRANCH 3 19
ATOM     19  CA  GLY C 761      13.960 -15.178  23.928  1.00 62.83 LIG 0.23  C 
BRANCH 19 20
ATOM     20  C   GLY C 761      15.036 -14.423  24.695  1.00 67.24 LIG 0.24  C 
ATOM     21 O    GLY C 761      14.823 -14.005  25.833  1.00 65.14 LIG-0.27  OA
ATOM     22  N   THR C 762      16.187 -14.254  24.047  1.00 72.11 LIG-0.34  N 
ATOM     23 H    THR C 762      16.243 -14.287  23.190  1.00 72.11 LIG 0.16  HD
BRANCH 22 24
ATOM     24  CA  THR C 762      17.477 -13.996  24.697  1.00 75.13 LIG 0.21  C 
BRANCH 24 25
ATOM     25  C   THR C 762      18.243 -13.008  23.822  1.00 73.09 LIG 0.20  C 
ATOM     26 OXT  THR C 762      18.928 -12.131  24.344  1.00 76.95 LIG-0.65  OA
ATOM     27 O    THR C 762      18.211 -13.051  22.591  1.00 68.26 LIG-0.65  OA
ENDBRANCH 24 25
BRANCH 24 28
ATOM     28  CB  THR C 762      18.348 -15.255  24.906  1.00 77.67 LIG 0.15  C 
ATOM     29  CG2 THR C 762      18.072 -15.862  26.270  1.00 76.40 LIG 0.04  C 
BRANCH 28 30
ATOM     30 OG1  THR C 762      18.053 -16.227  23.898  1.00 80.43 LIG-0.39  OA
ATOM     31 HG1  THR C 762      18.753 -16.649  23.703  1.00 80.43 LIG 0.21  HD
ENDBRANCH 28 30
ENDBRANCH 24 28
ENDBRANCH 22 24
ENDBRANCH 19 20
ENDBRANCH 3 19
TORSDOF 11
ENDMDL
MODEL 51
USER: ADFR SOLUTION from run 16
USER: SCORE 7.765584 LL:  -0.952 LR:  -7.050 RR:   0.000 FEB:  -3.769
USER: RMSD 7.812182
USER: SEED 342200
USER: STATUS no improvement in best in 37 clusters for 5 generations
USER: GENES 13
USER: genes 0 Translation |==|  0.36521 0.62315 0.82441
USER: genes 1 Rotation |==|  0.84472 0.14080 0.45630 0.51513
USER: genes 2 Torsion [N]-C--CA-[N] |==|  0.87314
USER: genes 3 Torsion [C]-CA--CB-[CG] |==|  0.86847
USER: genes 4 Torsion [CA]-CB--CG-[CD] |==|  0.32060
USER: genes 5 Torsion [CB]-CG--CD-[NE] |==|  0.85473
USER: genes 6 Torsion [CG]-CD--NE-[CZ] |==|  0.67582
USER: genes 7 Torsion [C]-N--CA-[C] |==|  0.68333
USER: genes 8 Torsion [N]-CA--C-[N] |==|  0.07688
USER: genes 9 Torsion [C]-N--CA-[C] |==|  0.21655
USER: genes 10 Torsion [N]-CA--C-[OXT] |==|  0.56064
USER: genes 11 Torsion [N]-CA--CB-[OG1] |==|  0.90816
USER: genes 12 Torsion [CA]-CB--OG1-[HG1] |==|  0.01384
ROOT
ATOM      1  C   ARG C 760      14.963 -15.436  24.660  1.00 56.34 LIG 0.26  C 
ATOM      2 O    ARG C 760      14.291 -14.443  24.399  1.00 53.76 LIG-0.27  OA
ATOM      3  N   GLY C 761      15.557 -16.170  23.724  1.00 59.89 LIG-0.35  N 
ATOM      4 H    GLY C 761      15.853 -16.966  23.855  1.00 59.89 LIG 0.16  HD
ENDROOT
BRANCH 1 5
ATOM      5  CA  ARG C 760      15.148 -15.889  26.109  1.00 61.16 LIG 0.40  C 
ATOM      6  N   ARG C 760      14.941 -17.333  26.208  1.00 59.95 LIG 0.61  N 
BRANCH 5 7
ATOM      7  CB  ARG C 760      16.531 -15.512  26.639  1.00 63.40 LIG 0.05  C 
BRANCH 7 8
ATOM      8  CG  ARG C 760      17.672 -15.860  25.704  1.00 63.69 LIG 0.02  C 
BRANCH 8 9
ATOM      9  CD  ARG C 760      18.378 -14.606  25.216  1.00 63.30 LIG 0.14  C 
BRANCH 9 10
ATOM     10  NE  ARG C 760      17.436 -13.644  24.651  1.00 65.15 LIG-0.23  N 
ATOM     11  CZ  ARG C 760      17.435 -13.247  23.383  1.00 66.46 LIG 0.67  C 
ATOM     12  NH1 ARG C 760      18.326 -13.734  22.527  1.00 66.43 LIG-0.23  N 
ATOM     13  NH2 ARG C 760      16.538 -12.366  22.966  1.00 66.89 LIG-0.23  N 
ATOM     14 2HH1 ARG C 760      18.321 -13.475  21.707  1.00 66.43 LIG 0.17  HD
ATOM     15 1HH1 ARG C 760      18.908 -14.309  22.793  1.00 66.43 LIG 0.17  HD
ATOM     16 2HH2 ARG C 760      16.537 -12.109  22.146  1.00 66.89 LIG 0.17  HD
ATOM     17 1HH2 ARG C 760      15.958 -12.051  23.516  1.00 66.89 LIG 0.17  HD
ATOM     18 HE   ARG C 760      16.841 -13.312  25.176  1.00 65.15 LIG 0.18  HD
ENDBRANCH 9 10
ENDBRANCH 8 9
ENDBRANCH 7 8
ENDBRANCH 5 7
ENDBRANCH 1 5
BRANCH 3 19
ATOM     19  CA  GLY C 761      15.756 -15.668  22.375  1.00 62.83 LIG 0.23  C 
BRANCH 19 20
ATOM     20  C   GLY C 761      15.038 -16.304  21.194  1.00 67.24 LIG 0.24  C 
ATOM     21 O    GLY C 761      15.524 -16.264  20.063  1.00 65.14 LIG-0.27  OA
ATOM     22  N   THR C 762      13.871 -16.881  21.479  1.00 72.11 LIG-0.34  N 
ATOM     23 H    THR C 762      13.411 -16.672  22.174  1.00 72.11 LIG 0.16  HD
BRANCH 22 24
ATOM     24  CA  THR C 762      13.238 -17.923  20.663  1.00 75.13 LIG 0.21  C 
BRANCH 24 25
ATOM     25  C   THR C 762      13.950 -19.239  20.963  1.00 73.09 LIG 0.20  C 
ATOM     26 OXT  THR C 762      13.899 -20.161  20.153  1.00 76.95 LIG-0.65  OA
ATOM     27 O    THR C 762      14.592 -19.422  21.999  1.00 68.26 LIG-0.65  OA
ENDBRANCH 24 25
BRANCH 24 28
ATOM     28  CB  THR C 762      13.294 -17.663  19.141  1.00 77.67 LIG 0.15  C 
ATOM     29  CG2 THR C 762      12.128 -18.347  18.449  1.00 76.40 LIG 0.04  C 
BRANCH 28 30
ATOM     30 OG1  THR C 762      13.226 -16.257  18.881  1.00 80.43 LIG-0.39  OA
ATOM     31 HG1  THR C 762      13.237 -15.837  19.608  1.00 80.43 LIG 0.21  HD
ENDBRANCH 28 30
ENDBRANCH 24 28
ENDBRANCH 22 24
ENDBRANCH 19 20
ENDBRANCH 3 19
TORSDOF 11
ENDMDL
MODEL 52
USER: ADFR SOLUTION from run 130
USER: SCORE 9.139610 LL:  -2.148 LR:  -7.046 RR:   0.000 FEB:  -3.764
USER: RMSD 9.024201
USER: SEED 129
USER: STATUS no improvement in best in 16 clusters for 5 generations
USER: GENES 13
USER: genes 0 Translation |==|  0.49639 0.47591 0.85774
USER: genes 1 Rotation |==|  0.53446 0.90870 0.61254 0.76289
USER: genes 2 Torsion [N]-C--CA-[N] |==|  0.23620
USER: genes 3 Torsion [C]-CA--CB-[CG] |==|  0.24089
USER: genes 4 Torsion [CA]-CB--CG-[CD] |==|  0.01093
USER: genes 5 Torsion [CB]-CG--CD-[NE] |==|  0.65435
USER: genes 6 Torsion [CG]-CD--NE-[CZ] |==|  0.49839
USER: genes 7 Torsion [C]-N--CA-[C] |==|  0.80855
USER: genes 8 Torsion [N]-CA--C-[N] |==|  0.96618
USER: genes 9 Torsion [C]-N--CA-[C] |==|  0.54618
USER: genes 10 Torsion [N]-CA--C-[OXT] |==|  0.44881
USER: genes 11 Torsion [N]-CA--CB-[OG1] |==|  0.10023
USER: genes 12 Torsion [CA]-CB--OG1-[HG1] |==|  0.29293
ROOT
ATOM      1  C   ARG C 760      17.226 -17.313  25.335  1.00 56.34 LIG 0.26  C 
ATOM      2 O    ARG C 760      17.956 -16.928  26.243  1.00 53.76 LIG-0.27  OA
ATOM      3  N   GLY C 761      17.659 -17.500  24.092  1.00 59.89 LIG-0.35  N 
ATOM      4 H    GLY C 761      17.142 -17.567  23.409  1.00 59.89 LIG 0.16  HD
ENDROOT
BRANCH 1 5
ATOM      5  CA  ARG C 760      15.747 -17.598  25.597  1.00 61.16 LIG 0.40  C 
ATOM      6  N   ARG C 760      15.556 -19.022  25.868  1.00 59.95 LIG 0.61  N 
BRANCH 5 7
ATOM      7  CB  ARG C 760      15.214 -16.759  26.758  1.00 63.40 LIG 0.05  C 
BRANCH 7 8
ATOM      8  CG  ARG C 760      14.719 -15.384  26.356  1.00 63.69 LIG 0.02  C 
BRANCH 8 9
ATOM      9  CD  ARG C 760      14.785 -15.199  24.849  1.00 63.30 LIG 0.14  C 
BRANCH 9 10
ATOM     10  NE  ARG C 760      15.567 -14.021  24.486  1.00 65.15 LIG-0.23  N 
ATOM     11  CZ  ARG C 760      15.798 -13.628  23.237  1.00 66.46 LIG 0.67  C 
ATOM     12  NH1 ARG C 760      15.299 -14.312  22.215  1.00 66.43 LIG-0.23  N 
ATOM     13  NH2 ARG C 760      16.525 -12.543  23.010  1.00 66.89 LIG-0.23  N 
ATOM     14 2HH1 ARG C 760      15.451 -14.053  21.409  1.00 66.43 LIG 0.17  HD
ATOM     15 1HH1 ARG C 760      14.824 -15.014  22.359  1.00 66.43 LIG 0.17  HD
ATOM     16 2HH2 ARG C 760      16.674 -12.288  22.203  1.00 66.89 LIG 0.17  HD
ATOM     17 1HH2 ARG C 760      16.846 -12.096  23.669  1.00 66.89 LIG 0.17  HD
ATOM     18 HE   ARG C 760      15.901 -13.551  25.123  1.00 65.15 LIG 0.18  HD
ENDBRANCH 9 10
ENDBRANCH 8 9
ENDBRANCH 7 8
ENDBRANCH 5 7
ENDBRANCH 1 5
BRANCH 3 19
ATOM     19  CA  GLY C 761      19.077 -17.606  23.787  1.00 62.83 LIG 0.23  C 
BRANCH 19 20
ATOM     20  C   GLY C 761      19.995 -16.400  23.918  1.00 67.24 LIG 0.24  C 
ATOM     21 O    GLY C 761      21.218 -16.532  23.886  1.00 65.14 LIG-0.27  OA
ATOM     22  N   THR C 762      19.379 -15.229  24.073  1.00 72.11 LIG-0.34  N 
ATOM     23 H    THR C 762      18.575 -15.166  24.371  1.00 72.11 LIG 0.16  HD
BRANCH 22 24
ATOM     24  CA  THR C 762      19.979 -13.926  23.761  1.00 75.13 LIG 0.21  C 
BRANCH 24 25
ATOM     25  C   THR C 762      19.140 -12.856  24.452  1.00 73.09 LIG 0.20  C 
ATOM     26 OXT  THR C 762      19.607 -11.734  24.633  1.00 76.95 LIG-0.65  OA
ATOM     27 O    THR C 762      17.990 -13.066  24.841  1.00 68.26 LIG-0.65  OA
ENDBRANCH 24 25
BRANCH 24 28
ATOM     28  CB  THR C 762      20.052 -13.604  22.251  1.00 77.67 LIG 0.15  C 
ATOM     29  CG2 THR C 762      21.292 -14.233  21.640  1.00 76.40 LIG 0.04  C 
BRANCH 28 30
ATOM     30 OG1  THR C 762      18.895 -14.119  21.584  1.00 80.43 LIG-0.39  OA
ATOM     31 HG1  THR C 762      18.377 -13.486  21.393  1.00 80.43 LIG 0.21  HD
ENDBRANCH 28 30
ENDBRANCH 24 28
ENDBRANCH 22 24
ENDBRANCH 19 20
ENDBRANCH 3 19
TORSDOF 11
ENDMDL
MODEL 53
USER: ADFR SOLUTION from run 170
USER: SCORE 7.737677 LL:  -0.890 LR:  -7.026 RR:   0.000 FEB:  -3.745
USER: RMSD 7.753561
USER: SEED 169
USER: STATUS no improvement in best in 48 clusters for 5 generations
USER: GENES 13
USER: genes 0 Translation |==|  0.36104 0.44063 0.66877
USER: genes 1 Rotation |==|  0.13232 0.17295 0.41382 0.52059
USER: genes 2 Torsion [N]-C--CA-[N] |==|  0.43498
USER: genes 3 Torsion [C]-CA--CB-[CG] |==|  0.38592
USER: genes 4 Torsion [CA]-CB--CG-[CD] |==|  0.77670
USER: genes 5 Torsion [CB]-CG--CD-[NE] |==|  0.77785
USER: genes 6 Torsion [CG]-CD--NE-[CZ] |==|  0.26168
USER: genes 7 Torsion [C]-N--CA-[C] |==|  0.17470
USER: genes 8 Torsion [N]-CA--C-[N] |==|  0.64746
USER: genes 9 Torsion [C]-N--CA-[C] |==|  0.56961
USER: genes 10 Torsion [N]-CA--C-[OXT] |==|  0.92868
USER: genes 11 Torsion [N]-CA--CB-[OG1] |==|  0.99367
USER: genes 12 Torsion [CA]-CB--OG1-[HG1] |==|  0.18345
ROOT
ATOM      1  C   ARG C 760      14.891 -17.763  21.509  1.00 56.34 LIG 0.26  C 
ATOM      2 O    ARG C 760      15.538 -18.614  20.906  1.00 53.76 LIG-0.27  OA
ATOM      3  N   GLY C 761      14.360 -16.703  20.907  1.00 59.89 LIG-0.35  N 
ATOM      4 H    GLY C 761      14.087 -16.002  21.323  1.00 59.89 LIG 0.16  HD
ENDROOT
BRANCH 1 5
ATOM      5  CA  ARG C 760      14.665 -17.882  23.016  1.00 61.16 LIG 0.40  C 
ATOM      6  N   ARG C 760      14.790 -19.279  23.428  1.00 59.95 LIG 0.61  N 
BRANCH 5 7
ATOM      7  CB  ARG C 760      15.645 -17.007  23.797  1.00 63.40 LIG 0.05  C 
BRANCH 7 8
ATOM      8  CG  ARG C 760      15.028 -16.282  24.976  1.00 63.69 LIG 0.02  C 
BRANCH 8 9
ATOM      9  CD  ARG C 760      14.288 -15.034  24.523  1.00 63.30 LIG 0.14  C 
BRANCH 9 10
ATOM     10  NE  ARG C 760      15.205 -13.923  24.283  1.00 65.15 LIG-0.23  N 
ATOM     11  CZ  ARG C 760      15.723 -13.619  23.097  1.00 66.46 LIG 0.67  C 
ATOM     12  NH1 ARG C 760      15.413 -14.336  22.025  1.00 66.43 LIG-0.23  N 
ATOM     13  NH2 ARG C 760      16.550 -12.590  22.982  1.00 66.89 LIG-0.23  N 
ATOM     14 2HH1 ARG C 760      15.751 -14.135  21.260  1.00 66.43 LIG 0.17  HD
ATOM     15 1HH1 ARG C 760      14.874 -15.003  22.095  1.00 66.43 LIG 0.17  HD
ATOM     16 2HH2 ARG C 760      16.886 -12.392  22.216  1.00 66.89 LIG 0.17  HD
ATOM     17 1HH2 ARG C 760      16.751 -12.121  23.674  1.00 66.89 LIG 0.17  HD
ATOM     18 HE   ARG C 760      15.424 -13.433  24.954  1.00 65.15 LIG 0.18  HD
ENDBRANCH 9 10
ENDBRANCH 8 9
ENDBRANCH 7 8
ENDBRANCH 5 7
ENDBRANCH 1 5
BRANCH 3 19
ATOM     19  CA  GLY C 761      14.197 -16.647  19.464  1.00 62.83 LIG 0.23  C 
BRANCH 19 20
ATOM     20  C   GLY C 761      13.289 -17.634  18.744  1.00 67.24 LIG 0.24  C 
ATOM     21 O    GLY C 761      12.121 -17.791  19.098  1.00 65.14 LIG-0.27  OA
ATOM     22  N   THR C 762      13.853 -18.296  17.735  1.00 72.11 LIG-0.34  N 
ATOM     23 H    THR C 762      14.704 -18.400  17.669  1.00 72.11 LIG 0.16  HD
BRANCH 22 24
ATOM     24  CA  THR C 762      13.113 -18.920  16.632  1.00 75.13 LIG 0.21  C 
BRANCH 24 25
ATOM     25  C   THR C 762      13.977 -20.049  16.079  1.00 73.09 LIG 0.20  C 
ATOM     26 OXT  THR C 762      15.199 -20.004  16.207  1.00 76.95 LIG-0.65  OA
ATOM     27 O    THR C 762      13.498 -21.027  15.503  1.00 68.26 LIG-0.65  OA
ENDBRANCH 24 25
BRANCH 24 28
ATOM     28  CB  THR C 762      12.756 -17.955  15.479  1.00 77.67 LIG 0.15  C 
ATOM     29  CG2 THR C 762      11.253 -17.930  15.263  1.00 76.40 LIG 0.04  C 
BRANCH 28 30
ATOM     30 OG1  THR C 762      13.201 -16.631  15.792  1.00 80.43 LIG-0.39  OA
ATOM     31 HG1  THR C 762      14.040 -16.617  15.821  1.00 80.43 LIG 0.21  HD
ENDBRANCH 28 30
ENDBRANCH 24 28
ENDBRANCH 22 24
ENDBRANCH 19 20
ENDBRANCH 3 19
TORSDOF 11
ENDMDL
MODEL 54
USER: ADFR SOLUTION from run 196
USER: SCORE 8.596256 LL:  -2.111 LR:  -7.025 RR:   0.000 FEB:  -3.744
USER: RMSD 6.638888
USER: SEED 195
USER: STATUS no improvement in best in 39 clusters for 5 generations
USER: GENES 13
USER: genes 0 Translation |==|  0.35565 0.52411 0.77149
USER: genes 1 Rotation |==|  0.44560 0.69454 0.94371 0.61097
USER: genes 2 Torsion [N]-C--CA-[N] |==|  0.56275
USER: genes 3 Torsion [C]-CA--CB-[CG] |==|  0.44258
USER: genes 4 Torsion [CA]-CB--CG-[CD] |==|  0.73946
USER: genes 5 Torsion [CB]-CG--CD-[NE] |==|  0.22252
USER: genes 6 Torsion [CG]-CD--NE-[CZ] |==|  0.73883
USER: genes 7 Torsion [C]-N--CA-[C] |==|  0.17898
USER: genes 8 Torsion [N]-CA--C-[N] |==|  0.18878
USER: genes 9 Torsion [C]-N--CA-[C] |==|  0.22992
USER: genes 10 Torsion [N]-CA--C-[OXT] |==|  0.96080
USER: genes 11 Torsion [N]-CA--CB-[OG1] |==|  0.84819
USER: genes 12 Torsion [CA]-CB--OG1-[HG1] |==|  0.21584
ROOT
ATOM      1  C   ARG C 760      14.798 -16.699  23.589  1.00 56.34 LIG 0.26  C 
ATOM      2 O    ARG C 760      15.299 -17.046  24.653  1.00 53.76 LIG-0.27  OA
ATOM      3  N   GLY C 761      14.469 -15.437  23.325  1.00 59.89 LIG-0.35  N 
ATOM      4 H    GLY C 761      13.941 -15.202  22.689  1.00 59.89 LIG 0.16  HD
ENDROOT
BRANCH 1 5
ATOM      5  CA  ARG C 760      14.516 -17.725  22.491  1.00 61.16 LIG 0.40  C 
ATOM      6  N   ARG C 760      14.413 -19.061  23.076  1.00 59.95 LIG 0.61  N 
BRANCH 5 7
ATOM      7  CB  ARG C 760      13.242 -17.382  21.720  1.00 63.40 LIG 0.05  C 
BRANCH 7 8
ATOM      8  CG  ARG C 760      13.151 -18.023  20.350  1.00 63.69 LIG 0.02  C 
BRANCH 8 9
ATOM      9  CD  ARG C 760      13.682 -17.090  19.275  1.00 63.30 LIG 0.14  C 
BRANCH 9 10
ATOM     10  NE  ARG C 760      15.141 -17.113  19.216  1.00 65.15 LIG-0.23  N 
ATOM     11  CZ  ARG C 760      15.933 -16.259  19.857  1.00 66.46 LIG 0.67  C 
ATOM     12  NH1 ARG C 760      15.413 -15.306  20.621  1.00 66.43 LIG-0.23  N 
ATOM     13  NH2 ARG C 760      17.249 -16.360  19.738  1.00 66.89 LIG-0.23  N 
ATOM     14 2HH1 ARG C 760      15.930 -14.756  21.033  1.00 66.43 LIG 0.17  HD
ATOM     15 1HH1 ARG C 760      14.559 -15.238  20.704  1.00 66.43 LIG 0.17  HD
ATOM     16 2HH2 ARG C 760      17.762 -15.809  20.152  1.00 66.89 LIG 0.17  HD
ATOM     17 1HH2 ARG C 760      17.589 -16.978  19.247  1.00 66.89 LIG 0.17  HD
ATOM     18 HE   ARG C 760      15.513 -17.721  18.735  1.00 65.15 LIG 0.18  HD
ENDBRANCH 9 10
ENDBRANCH 8 9
ENDBRANCH 7 8
ENDBRANCH 5 7
ENDBRANCH 1 5
BRANCH 3 19
ATOM     19  CA  GLY C 761      14.991 -14.333  24.113  1.00 62.83 LIG 0.23  C 
BRANCH 19 20
ATOM     20  C   GLY C 761      16.480 -14.019  24.123  1.00 67.24 LIG 0.24  C 
ATOM     21 O    GLY C 761      17.152 -14.182  25.141  1.00 65.14 LIG-0.27  OA
ATOM     22  N   THR C 762      16.973 -13.559  22.974  1.00 72.11 LIG-0.34  N 
ATOM     23 H    THR C 762      16.481 -13.187  22.376  1.00 72.11 LIG 0.16  HD
BRANCH 22 24
ATOM     24  CA  THR C 762      18.388 -13.626  22.591  1.00 75.13 LIG 0.21  C 
BRANCH 24 25
ATOM     25  C   THR C 762      18.643 -15.017  22.017  1.00 73.09 LIG 0.20  C 
ATOM     26 OXT  THR C 762      17.814 -15.909  22.184  1.00 76.95 LIG-0.65  OA
ATOM     27 O    THR C 762      19.658 -15.292  21.375  1.00 68.26 LIG-0.65  OA
ENDBRANCH 24 25
BRANCH 24 28
ATOM     28  CB  THR C 762      19.376 -13.380  23.753  1.00 77.67 LIG 0.15  C 
ATOM     29  CG2 THR C 762      20.801 -13.341  23.231  1.00 76.40 LIG 0.04  C 
BRANCH 28 30
ATOM     30 OG1  THR C 762      19.082 -12.131  24.389  1.00 80.43 LIG-0.39  OA
ATOM     31 HG1  THR C 762      18.415 -12.223  24.892  1.00 80.43 LIG 0.21  HD
ENDBRANCH 28 30
ENDBRANCH 24 28
ENDBRANCH 22 24
ENDBRANCH 19 20
ENDBRANCH 3 19
TORSDOF 11
ENDMDL
MODEL 55
USER: ADFR SOLUTION from run 137
USER: SCORE 8.039123 LL:  -1.109 LR:  -7.018 RR:   0.000 FEB:  -3.736
USER: RMSD 8.547654
USER: SEED 136
USER: STATUS no improvement in best in 20 clusters for 5 generations
USER: GENES 13
USER: genes 0 Translation |==|  0.54263 0.74491 0.73981
USER: genes 1 Rotation |==|  0.24498 0.86256 0.39912 0.70817
USER: genes 2 Torsion [N]-C--CA-[N] |==|  0.52195
USER: genes 3 Torsion [C]-CA--CB-[CG] |==|  0.80067
USER: genes 4 Torsion [CA]-CB--CG-[CD] |==|  0.50154
USER: genes 5 Torsion [CB]-CG--CD-[NE] |==|  0.45596
USER: genes 6 Torsion [CG]-CD--NE-[CZ] |==|  0.37786
USER: genes 7 Torsion [C]-N--CA-[C] |==|  0.16995
USER: genes 8 Torsion [N]-CA--C-[N] |==|  0.10000
USER: genes 9 Torsion [C]-N--CA-[C] |==|  0.18356
USER: genes 10 Torsion [N]-CA--C-[OXT] |==|  0.02257
USER: genes 11 Torsion [N]-CA--CB-[OG1] |==|  0.21290
USER: genes 12 Torsion [CA]-CB--OG1-[HG1] |==|  0.15263
ROOT
ATOM      1  C   ARG C 760      18.023 -13.883  22.947  1.00 56.34 LIG 0.26  C 
ATOM      2 O    ARG C 760      18.140 -12.714  22.595  1.00 53.76 LIG-0.27  OA
ATOM      3  N   GLY C 761      18.975 -14.792  22.754  1.00 59.89 LIG-0.35  N 
ATOM      4 H    GLY C 761      18.845 -15.640  22.800  1.00 59.89 LIG 0.16  HD
ENDROOT
BRANCH 1 5
ATOM      5  CA  ARG C 760      16.746 -14.363  23.636  1.00 61.16 LIG 0.40  C 
ATOM      6  N   ARG C 760      15.737 -13.305  23.605  1.00 59.95 LIG 0.61  N 
BRANCH 5 7
ATOM      7  CB  ARG C 760      16.204 -15.634  22.983  1.00 63.40 LIG 0.05  C 
BRANCH 7 8
ATOM      8  CG  ARG C 760      15.594 -15.419  21.613  1.00 63.69 LIG 0.02  C 
BRANCH 8 9
ATOM      9  CD  ARG C 760      15.068 -16.725  21.039  1.00 63.30 LIG 0.14  C 
BRANCH 9 10
ATOM     10  NE  ARG C 760      14.163 -16.492  19.917  1.00 65.15 LIG-0.23  N 
ATOM     11  CZ  ARG C 760      14.186 -17.177  18.778  1.00 66.46 LIG 0.67  C 
ATOM     12  NH1 ARG C 760      15.066 -18.154  18.600  1.00 66.43 LIG-0.23  N 
ATOM     13  NH2 ARG C 760      13.321 -16.888  17.816  1.00 66.89 LIG-0.23  N 
ATOM     14 2HH1 ARG C 760      15.077 -18.594  17.862  1.00 66.43 LIG 0.17  HD
ATOM     15 1HH1 ARG C 760      15.627 -18.347  19.224  1.00 66.43 LIG 0.17  HD
ATOM     16 2HH2 ARG C 760      13.335 -17.330  17.079  1.00 66.89 LIG 0.17  HD
ATOM     17 1HH2 ARG C 760      12.748 -16.258  17.929  1.00 66.89 LIG 0.17  HD
ATOM     18 HE   ARG C 760      13.575 -15.870  20.000  1.00 65.15 LIG 0.18  HD
ENDBRANCH 9 10
ENDBRANCH 8 9
ENDBRANCH 7 8
ENDBRANCH 5 7
ENDBRANCH 1 5
BRANCH 3 19
ATOM     19  CA  GLY C 761      20.342 -14.409  22.441  1.00 62.83 LIG 0.23  C 
BRANCH 19 20
ATOM     20  C   GLY C 761      21.159 -13.573  23.416  1.00 67.24 LIG 0.24  C 
ATOM     21 O    GLY C 761      21.958 -12.730  23.008  1.00 65.14 LIG-0.27  OA
ATOM     22  N   THR C 762      20.947 -13.831  24.705  1.00 72.11 LIG-0.34  N 
ATOM     23 H    THR C 762      20.622 -14.578  24.979  1.00 72.11 LIG 0.16  HD
BRANCH 22 24
ATOM     24  CA  THR C 762      21.233 -12.895  25.798  1.00 75.13 LIG 0.21  C 
BRANCH 24 25
ATOM     25  C   THR C 762      20.285 -11.708  25.647  1.00 73.09 LIG 0.20  C 
ATOM     26 OXT  THR C 762      19.381 -11.750  24.815  1.00 76.95 LIG-0.65  OA
ATOM     27 O    THR C 762      20.382 -10.692  26.336  1.00 68.26 LIG-0.65  OA
ENDBRANCH 24 25
BRANCH 24 28
ATOM     28  CB  THR C 762      22.686 -12.371  25.825  1.00 77.67 LIG 0.15  C 
ATOM     29  CG2 THR C 762      23.658 -13.510  25.569  1.00 76.40 LIG 0.04  C 
BRANCH 28 30
ATOM     30 OG1  THR C 762      22.866 -11.373  24.814  1.00 80.43 LIG-0.39  OA
ATOM     31 HG1  THR C 762      22.293 -10.767  24.914  1.00 80.43 LIG 0.21  HD
ENDBRANCH 28 30
ENDBRANCH 24 28
ENDBRANCH 22 24
ENDBRANCH 19 20
ENDBRANCH 3 19
TORSDOF 11
ENDMDL
MODEL 56
USER: ADFR SOLUTION from run 160
USER: SCORE 7.623801 LL:  -0.905 LR:  -6.979 RR:   0.000 FEB:  -3.698
USER: RMSD 5.401721
USER: SEED 159
USER: STATUS no improvement in best in 35 clusters for 5 generations
USER: GENES 13
USER: genes 0 Translation |==|  0.35256 0.53173 0.57502
USER: genes 1 Rotation |==|  0.35851 0.45083 0.54154 0.97522
USER: genes 2 Torsion [N]-C--CA-[N] |==|  0.05370
USER: genes 3 Torsion [C]-CA--CB-[CG] |==|  0.24047
USER: genes 4 Torsion [CA]-CB--CG-[CD] |==|  0.57743
USER: genes 5 Torsion [CB]-CG--CD-[NE] |==|  0.56612
USER: genes 6 Torsion [CG]-CD--NE-[CZ] |==|  0.25473
USER: genes 7 Torsion [C]-N--CA-[C] |==|  0.66667
USER: genes 8 Torsion [N]-CA--C-[N] |==|  0.98358
USER: genes 9 Torsion [C]-N--CA-[C] |==|  0.48911
USER: genes 10 Torsion [N]-CA--C-[OXT] |==|  0.43463
USER: genes 11 Torsion [N]-CA--CB-[OG1] |==|  0.45397
USER: genes 12 Torsion [CA]-CB--OG1-[HG1] |==|  0.93929
ROOT
ATOM      1  C   ARG C 760      14.745 -16.601  19.610  1.00 56.34 LIG 0.26  C 
ATOM      2 O    ARG C 760      13.667 -16.028  19.487  1.00 53.76 LIG-0.27  OA
ATOM      3  N   GLY C 761      15.394 -16.673  20.768  1.00 59.89 LIG-0.35  N 
ATOM      4 H    GLY C 761      16.225 -16.881  20.840  1.00 59.89 LIG 0.16  HD
ENDROOT
BRANCH 1 5
ATOM      5  CA  ARG C 760      15.409 -17.272  18.407  1.00 61.16 LIG 0.40  C 
ATOM      6  N   ARG C 760      16.402 -18.242  18.865  1.00 59.95 LIG 0.61  N 
BRANCH 5 7
ATOM      7  CB  ARG C 760      14.377 -17.951  17.507  1.00 63.40 LIG 0.05  C 
BRANCH 7 8
ATOM      8  CG  ARG C 760      13.761 -17.038  16.467  1.00 63.69 LIG 0.02  C 
BRANCH 8 9
ATOM      9  CD  ARG C 760      12.360 -17.498  16.098  1.00 63.30 LIG 0.14  C 
BRANCH 9 10
ATOM     10  NE  ARG C 760      11.972 -17.027  14.772  1.00 65.15 LIG-0.23  N 
ATOM     11  CZ  ARG C 760      12.159 -17.710  13.647  1.00 66.46 LIG 0.67  C 
ATOM     12  NH1 ARG C 760      12.726 -18.910  13.677  1.00 66.43 LIG-0.23  N 
ATOM     13  NH2 ARG C 760      11.773 -17.195  12.489  1.00 66.89 LIG-0.23  N 
ATOM     14 2HH1 ARG C 760      12.845 -19.348  12.947  1.00 66.43 LIG 0.17  HD
ATOM     15 1HH1 ARG C 760      12.975 -19.250  14.427  1.00 66.43 LIG 0.17  HD
ATOM     16 2HH2 ARG C 760      11.894 -17.636  11.761  1.00 66.89 LIG 0.17  HD
ATOM     17 1HH2 ARG C 760      11.403 -16.420  12.466  1.00 66.89 LIG 0.17  HD
ATOM     18 HE   ARG C 760      11.596 -16.256  14.715  1.00 65.15 LIG 0.18  HD
ENDBRANCH 9 10
ENDBRANCH 8 9
ENDBRANCH 7 8
ENDBRANCH 5 7
ENDBRANCH 1 5
BRANCH 3 19
ATOM     19  CA  GLY C 761      14.732 -16.397  22.032  1.00 62.83 LIG 0.23  C 
BRANCH 19 20
ATOM     20  C   GLY C 761      15.216 -15.274  22.937  1.00 67.24 LIG 0.24  C 
ATOM     21 O    GLY C 761      14.589 -14.964  23.950  1.00 65.14 LIG-0.27  OA
ATOM     22  N   THR C 762      16.337 -14.670  22.546  1.00 72.11 LIG-0.34  N 
ATOM     23 H    THR C 762      16.609 -14.685  21.731  1.00 72.11 LIG 0.16  HD
BRANCH 22 24
ATOM     24  CA  THR C 762      17.231 -13.919  23.436  1.00 75.13 LIG 0.21  C 
BRANCH 24 25
ATOM     25  C   THR C 762      18.437 -13.479  22.610  1.00 73.09 LIG 0.20  C 
ATOM     26 OXT  THR C 762      19.099 -12.506  22.966  1.00 76.95 LIG-0.65  OA
ATOM     27 O    THR C 762      18.789 -14.067  21.587  1.00 68.26 LIG-0.65  OA
ENDBRANCH 24 25
BRANCH 24 28
ATOM     28  CB  THR C 762      17.731 -14.719  24.659  1.00 77.67 LIG 0.15  C 
ATOM     29  CG2 THR C 762      18.133 -16.122  24.240  1.00 76.40 LIG 0.04  C 
BRANCH 28 30
ATOM     30 OG1  THR C 762      18.866 -14.067  25.241  1.00 80.43 LIG-0.39  OA
ATOM     31 HG1  THR C 762      19.226 -13.569  24.669  1.00 80.43 LIG 0.21  HD
ENDBRANCH 28 30
ENDBRANCH 24 28
ENDBRANCH 22 24
ENDBRANCH 19 20
ENDBRANCH 3 19
TORSDOF 11
ENDMDL
MODEL 57
USER: ADFR SOLUTION from run 3
USER: SCORE 7.821081 LL:  -1.359 LR:  -6.956 RR:   0.000 FEB:  -3.675
USER: RMSD 7.289193
USER: SEED 197383
USER: STATUS no improvement in best in 30 clusters for 5 generations
USER: GENES 13
USER: genes 0 Translation |==|  0.34240 0.39606 0.70975
USER: genes 1 Rotation |==|  0.12737 0.17338 0.48724 0.56560
USER: genes 2 Torsion [N]-C--CA-[N] |==|  0.48089
USER: genes 3 Torsion [C]-CA--CB-[CG] |==|  0.32506
USER: genes 4 Torsion [CA]-CB--CG-[CD] |==|  0.74288
USER: genes 5 Torsion [CB]-CG--CD-[NE] |==|  0.75613
USER: genes 6 Torsion [CG]-CD--NE-[CZ] |==|  0.29392
USER: genes 7 Torsion [C]-N--CA-[C] |==|  0.77561
USER: genes 8 Torsion [N]-CA--C-[N] |==|  0.13481
USER: genes 9 Torsion [C]-N--CA-[C] |==|  0.63488
USER: genes 10 Torsion [N]-CA--C-[OXT] |==|  0.34242
USER: genes 11 Torsion [N]-CA--CB-[OG1] |==|  0.86063
USER: genes 12 Torsion [CA]-CB--OG1-[HG1] |==|  0.87377
ROOT
ATOM      1  C   ARG C 760      14.569 -18.331  22.338  1.00 56.34 LIG 0.26  C 
ATOM      2 O    ARG C 760      15.012 -19.207  21.603  1.00 53.76 LIG-0.27  OA
ATOM      3  N   GLY C 761      13.828 -17.322  21.891  1.00 59.89 LIG-0.35  N 
ATOM      4 H    GLY C 761      13.682 -16.601  22.336  1.00 59.89 LIG 0.16  HD
ENDROOT
BRANCH 1 5
ATOM      5  CA  ARG C 760      14.861 -18.358  23.839  1.00 61.16 LIG 0.40  C 
ATOM      6  N   ARG C 760      15.539 -19.603  24.192  1.00 59.95 LIG 0.61  N 
BRANCH 5 7
ATOM      7  CB  ARG C 760      15.702 -17.154  24.265  1.00 63.40 LIG 0.05  C 
BRANCH 7 8
ATOM      8  CG  ARG C 760      15.010 -16.226  25.242  1.00 63.69 LIG 0.02  C 
BRANCH 8 9
ATOM      9  CD  ARG C 760      14.288 -15.105  24.512  1.00 63.30 LIG 0.14  C 
BRANCH 9 10
ATOM     10  NE  ARG C 760      15.169 -13.964  24.275  1.00 65.15 LIG-0.23  N 
ATOM     11  CZ  ARG C 760      15.688 -13.649  23.093  1.00 66.46 LIG 0.67  C 
ATOM     12  NH1 ARG C 760      15.413 -14.382  22.022  1.00 66.43 LIG-0.23  N 
ATOM     13  NH2 ARG C 760      16.480 -12.592  22.980  1.00 66.89 LIG-0.23  N 
ATOM     14 2HH1 ARG C 760      15.751 -14.174  21.259  1.00 66.43 LIG 0.17  HD
ATOM     15 1HH1 ARG C 760      14.896 -15.067  22.090  1.00 66.43 LIG 0.17  HD
ATOM     16 2HH2 ARG C 760      16.816 -12.387  22.216  1.00 66.89 LIG 0.17  HD
ATOM     17 1HH2 ARG C 760      16.658 -12.113  23.671  1.00 66.89 LIG 0.17  HD
ATOM     18 HE   ARG C 760      15.364 -13.463  24.946  1.00 65.15 LIG 0.18  HD
ENDBRANCH 9 10
ENDBRANCH 8 9
ENDBRANCH 7 8
ENDBRANCH 5 7
ENDBRANCH 1 5
BRANCH 3 19
ATOM     19  CA  GLY C 761      13.194 -17.362  20.584  1.00 62.83 LIG 0.23  C 
BRANCH 19 20
ATOM     20  C   GLY C 761      13.984 -17.037  19.325  1.00 67.24 LIG 0.24  C 
ATOM     21 O    GLY C 761      13.538 -16.256  18.484  1.00 65.14 LIG-0.27  OA
ATOM     22  N   THR C 762      15.158 -17.657  19.211  1.00 72.11 LIG-0.34  N 
ATOM     23 H    THR C 762      15.336 -18.386  19.630  1.00 72.11 LIG 0.16  HD
BRANCH 22 24
ATOM     24  CA  THR C 762      16.270 -17.186  18.378  1.00 75.13 LIG 0.21  C 
BRANCH 24 25
ATOM     25  C   THR C 762      16.759 -18.373  17.552  1.00 73.09 LIG 0.20  C 
ATOM     26 OXT  THR C 762      16.786 -18.295  16.326  1.00 76.95 LIG-0.65  OA
ATOM     27 O    THR C 762      17.142 -19.424  18.067  1.00 68.26 LIG-0.65  OA
ENDBRANCH 24 25
BRANCH 24 28
ATOM     28  CB  THR C 762      17.461 -16.608  19.173  1.00 77.67 LIG 0.15  C 
ATOM     29  CG2 THR C 762      18.443 -15.934  18.230  1.00 76.40 LIG 0.04  C 
BRANCH 28 30
ATOM     30 OG1  THR C 762      16.995 -15.642  20.122  1.00 80.43 LIG-0.39  OA
ATOM     31 HG1  THR C 762      16.441 -15.131  19.751  1.00 80.43 LIG 0.21  HD
ENDBRANCH 28 30
ENDBRANCH 24 28
ENDBRANCH 22 24
ENDBRANCH 19 20
ENDBRANCH 3 19
TORSDOF 11
ENDMDL
MODEL 58
USER: ADFR SOLUTION from run 54
USER: SCORE 8.578211 LL:  -1.625 LR:  -6.962 RR:   0.000 FEB:  -3.681
USER: RMSD 8.260392
USER: SEED 53
USER: STATUS no improvement in best in 33 clusters for 5 generations
USER: GENES 13
USER: genes 0 Translation |==|  0.51762 0.69276 0.74710
USER: genes 1 Rotation |==|  0.84222 0.74574 0.56618 0.76098
USER: genes 2 Torsion [N]-C--CA-[N] |==|  0.96077
USER: genes 3 Torsion [C]-CA--CB-[CG] |==|  0.28784
USER: genes 4 Torsion [CA]-CB--CG-[CD] |==|  0.86517
USER: genes 5 Torsion [CB]-CG--CD-[NE] |==|  0.81480
USER: genes 6 Torsion [CG]-CD--NE-[CZ] |==|  0.72102
USER: genes 7 Torsion [C]-N--CA-[C] |==|  0.21604
USER: genes 8 Torsion [N]-CA--C-[N] |==|  0.02826
USER: genes 9 Torsion [C]-N--CA-[C] |==|  0.67230
USER: genes 10 Torsion [N]-CA--C-[OXT] |==|  0.73114
USER: genes 11 Torsion [N]-CA--CB-[OG1] |==|  0.97635
USER: genes 12 Torsion [CA]-CB--OG1-[HG1] |==|  0.30467
ROOT
ATOM      1  C   ARG C 760      17.592 -14.548  23.095  1.00 56.34 LIG 0.26  C 
ATOM      2 O    ARG C 760      17.801 -15.553  23.767  1.00 53.76 LIG-0.27  OA
ATOM      3  N   GLY C 761      18.084 -14.386  21.870  1.00 59.89 LIG-0.35  N 
ATOM      4 H    GLY C 761      18.126 -13.628  21.466  1.00 59.89 LIG 0.16  HD
ENDROOT
BRANCH 1 5
ATOM      5  CA  ARG C 760      16.740 -13.407  23.650  1.00 61.16 LIG 0.40  C 
ATOM      6  N   ARG C 760      16.916 -12.211  22.828  1.00 59.95 LIG 0.61  N 
BRANCH 5 7
ATOM      7  CB  ARG C 760      15.263 -13.795  23.715  1.00 63.40 LIG 0.05  C 
BRANCH 7 8
ATOM      8  CG  ARG C 760      14.768 -14.131  25.108  1.00 63.69 LIG 0.02  C 
BRANCH 8 9
ATOM      9  CD  ARG C 760      15.709 -15.103  25.800  1.00 63.30 LIG 0.14  C 
BRANCH 9 10
ATOM     10  NE  ARG C 760      15.707 -16.409  25.148  1.00 65.15 LIG-0.23  N 
ATOM     11  CZ  ARG C 760      15.034 -17.468  25.587  1.00 66.46 LIG 0.67  C 
ATOM     12  NH1 ARG C 760      14.292 -17.384  26.684  1.00 66.43 LIG-0.23  N 
ATOM     13  NH2 ARG C 760      15.098 -18.614  24.924  1.00 66.89 LIG-0.23  N 
ATOM     14 2HH1 ARG C 760      13.858 -18.072  26.964  1.00 66.43 LIG 0.17  HD
ATOM     15 1HH1 ARG C 760      14.244 -16.641  27.116  1.00 66.43 LIG 0.17  HD
ATOM     16 2HH2 ARG C 760      14.663 -19.299  25.207  1.00 66.89 LIG 0.17  HD
ATOM     17 1HH2 ARG C 760      15.575 -18.671  24.212  1.00 66.89 LIG 0.17  HD
ATOM     18 HE   ARG C 760      16.172 -16.499  24.431  1.00 65.15 LIG 0.18  HD
ENDBRANCH 9 10
ENDBRANCH 8 9
ENDBRANCH 7 8
ENDBRANCH 5 7
ENDBRANCH 1 5
BRANCH 3 19
ATOM     19  CA  GLY C 761      18.599 -15.507  21.101  1.00 62.83 LIG 0.23  C 
BRANCH 19 20
ATOM     20  C   GLY C 761      17.654 -16.475  20.406  1.00 67.24 LIG 0.24  C 
ATOM     21 O    GLY C 761      18.075 -17.519  19.907  1.00 65.14 LIG-0.27  OA
ATOM     22  N   THR C 762      16.376 -16.103  20.377  1.00 72.11 LIG-0.34  N 
ATOM     23 H    THR C 762      16.132 -15.283  20.463  1.00 72.11 LIG 0.16  HD
BRANCH 22 24
ATOM     24  CA  THR C 762      15.246 -17.023  20.201  1.00 75.13 LIG 0.21  C 
BRANCH 24 25
ATOM     25  C   THR C 762      14.531 -16.631  18.911  1.00 73.09 LIG 0.20  C 
ATOM     26 OXT  THR C 762      13.539 -15.906  18.957  1.00 76.95 LIG-0.65  OA
ATOM     27 O    THR C 762      14.912 -17.009  17.803  1.00 68.26 LIG-0.65  OA
ENDBRANCH 24 25
BRANCH 24 28
ATOM     28  CB  THR C 762      14.224 -17.006  21.361  1.00 77.67 LIG 0.15  C 
ATOM     29  CG2 THR C 762      13.967 -18.420  21.853  1.00 76.40 LIG 0.04  C 
BRANCH 28 30
ATOM     30 OG1  THR C 762      14.729 -16.223  22.448  1.00 80.43 LIG-0.39  OA
ATOM     31 HG1  THR C 762      14.287 -15.512  22.509  1.00 80.43 LIG 0.21  HD
ENDBRANCH 28 30
ENDBRANCH 24 28
ENDBRANCH 22 24
ENDBRANCH 19 20
ENDBRANCH 3 19
TORSDOF 11
ENDMDL
MODEL 59
USER: ADFR SOLUTION from run 126
USER: SCORE 8.087131 LL:  -1.224 LR:  -6.947 RR:   0.000 FEB:  -3.666
USER: RMSD 7.524089
USER: SEED 125
USER: STATUS no improvement in best in 30 clusters for 5 generations
USER: GENES 13
USER: genes 0 Translation |==|  0.63602 0.65252 0.68214
USER: genes 1 Rotation |==|  0.74605 0.11773 0.42288 0.69334
USER: genes 2 Torsion [N]-C--CA-[N] |==|  0.23989
USER: genes 3 Torsion [C]-CA--CB-[CG] |==|  0.15032
USER: genes 4 Torsion [CA]-CB--CG-[CD] |==|  0.69398
USER: genes 5 Torsion [CB]-CG--CD-[NE] |==|  0.29539
USER: genes 6 Torsion [CG]-CD--NE-[CZ] |==|  0.23798
USER: genes 7 Torsion [C]-N--CA-[C] |==|  0.73590
USER: genes 8 Torsion [N]-CA--C-[N] |==|  0.06111
USER: genes 9 Torsion [C]-N--CA-[C] |==|  0.26220
USER: genes 10 Torsion [N]-CA--C-[OXT] |==|  0.87550
USER: genes 11 Torsion [N]-CA--CB-[OG1] |==|  0.79023
USER: genes 12 Torsion [CA]-CB--OG1-[HG1] |==|  0.88991
ROOT
ATOM      1  C   ARG C 760      19.634 -15.061  21.779  1.00 56.34 LIG 0.26  C 
ATOM      2 O    ARG C 760      19.090 -14.004  21.475  1.00 53.76 LIG-0.27  OA
ATOM      3  N   GLY C 761      19.387 -16.206  21.150  1.00 59.89 LIG-0.35  N 
ATOM      4 H    GLY C 761      19.589 -16.980  21.464  1.00 59.89 LIG 0.16  HD
ENDROOT
BRANCH 1 5
ATOM      5  CA  ARG C 760      20.643 -15.113  22.927  1.00 61.16 LIG 0.40  C 
ATOM      6  N   ARG C 760      21.999 -14.951  22.405  1.00 59.95 LIG 0.61  N 
BRANCH 5 7
ATOM      7  CB  ARG C 760      20.346 -14.044  23.979  1.00 63.40 LIG 0.05  C 
BRANCH 7 8
ATOM      8  CG  ARG C 760      18.930 -14.078  24.519  1.00 63.69 LIG 0.02  C 
BRANCH 8 9
ATOM      9  CD  ARG C 760      18.136 -12.872  24.043  1.00 63.30 LIG 0.14  C 
BRANCH 9 10
ATOM     10  NE  ARG C 760      17.165 -13.240  23.016  1.00 65.15 LIG-0.23  N 
ATOM     11  CZ  ARG C 760      15.942 -13.696  23.267  1.00 66.46 LIG 0.67  C 
ATOM     12  NH1 ARG C 760      15.522 -13.837  24.518  1.00 66.43 LIG-0.23  N 
ATOM     13  NH2 ARG C 760      15.133 -14.006  22.264  1.00 66.89 LIG-0.23  N 
ATOM     14 2HH1 ARG C 760      14.729 -14.132  24.675  1.00 66.43 LIG 0.17  HD
ATOM     15 1HH1 ARG C 760      16.042 -13.634  25.172  1.00 66.43 LIG 0.17  HD
ATOM     16 2HH2 ARG C 760      14.342 -14.300  22.425  1.00 66.89 LIG 0.17  HD
ATOM     17 1HH2 ARG C 760      15.401 -13.913  21.452  1.00 66.89 LIG 0.17  HD
ATOM     18 HE   ARG C 760      17.401 -13.156  22.194  1.00 65.15 LIG 0.18  HD
ENDBRANCH 9 10
ENDBRANCH 8 9
ENDBRANCH 7 8
ENDBRANCH 5 7
ENDBRANCH 1 5
BRANCH 3 19
ATOM     19  CA  GLY C 761      18.738 -16.236  19.849  1.00 62.83 LIG 0.23  C 
BRANCH 19 20
ATOM     20  C   GLY C 761      17.234 -16.435  19.733  1.00 67.24 LIG 0.24  C 
ATOM     21 O    GLY C 761      16.731 -16.850  18.689  1.00 65.14 LIG-0.27  OA
ATOM     22  N   THR C 762      16.532 -16.124  20.821  1.00 72.11 LIG-0.34  N 
ATOM     23 H    THR C 762      16.828 -15.588  21.424  1.00 72.11 LIG 0.16  HD
BRANCH 22 24
ATOM     24  CA  THR C 762      15.194 -16.645  21.124  1.00 75.13 LIG 0.21  C 
BRANCH 24 25
ATOM     25  C   THR C 762      15.368 -17.869  22.018  1.00 73.09 LIG 0.20  C 
ATOM     26 OXT  THR C 762      16.222 -18.710  21.744  1.00 76.95 LIG-0.65  OA
ATOM     27 O    THR C 762      14.684 -18.056  23.026  1.00 68.26 LIG-0.65  OA
ENDBRANCH 24 25
BRANCH 24 28
ATOM     28  CB  THR C 762      14.371 -17.050  19.881  1.00 77.67 LIG 0.15  C 
ATOM     29  CG2 THR C 762      13.191 -17.913  20.292  1.00 76.40 LIG 0.04  C 
BRANCH 28 30
ATOM     30 OG1  THR C 762      13.880 -15.881  19.216  1.00 80.43 LIG-0.39  OA
ATOM     31 HG1  THR C 762      13.635 -15.316  19.787  1.00 80.43 LIG 0.21  HD
ENDBRANCH 28 30
ENDBRANCH 24 28
ENDBRANCH 22 24
ENDBRANCH 19 20
ENDBRANCH 3 19
TORSDOF 11
ENDMDL
MODEL 60
USER: ADFR SOLUTION from run 177
USER: SCORE 7.573123 LL:  -0.737 LR:  -6.933 RR:   0.000 FEB:  -3.652
USER: RMSD 7.804728
USER: SEED 176
USER: STATUS no improvement in best in 33 clusters for 5 generations
USER: GENES 13
USER: genes 0 Translation |==|  0.30104 0.49844 0.57921
USER: genes 1 Rotation |==|  0.21295 0.69412 0.33802 0.82199
USER: genes 2 Torsion [N]-C--CA-[N] |==|  0.81335
USER: genes 3 Torsion [C]-CA--CB-[CG] |==|  0.79024
USER: genes 4 Torsion [CA]-CB--CG-[CD] |==|  0.64632
USER: genes 5 Torsion [CB]-CG--CD-[NE] |==|  0.66938
USER: genes 6 Torsion [CG]-CD--NE-[CZ] |==|  0.47936
USER: genes 7 Torsion [C]-N--CA-[C] |==|  0.20627
USER: genes 8 Torsion [N]-CA--C-[N] |==|  0.55174
USER: genes 9 Torsion [C]-N--CA-[C] |==|  0.42280
USER: genes 10 Torsion [N]-CA--C-[OXT] |==|  0.49768
USER: genes 11 Torsion [N]-CA--CB-[OG1] |==|  0.61242
USER: genes 12 Torsion [CA]-CB--OG1-[HG1] |==|  0.85614
ROOT
ATOM      1  C   ARG C 760      13.856 -17.026  19.695  1.00 56.34 LIG 0.26  C 
ATOM      2 O    ARG C 760      13.772 -15.912  19.187  1.00 53.76 LIG-0.27  OA
ATOM      3  N   GLY C 761      14.920 -17.424  20.386  1.00 59.89 LIG-0.35  N 
ATOM      4 H    GLY C 761      15.092 -18.245  20.572  1.00 59.89 LIG 0.16  HD
ENDROOT
BRANCH 1 5
ATOM      5  CA  ARG C 760      12.715 -18.034  19.549  1.00 61.16 LIG 0.40  C 
ATOM      6  N   ARG C 760      13.148 -19.158  18.721  1.00 59.95 LIG 0.61  N 
BRANCH 5 7
ATOM      7  CB  ARG C 760      12.233 -18.531  20.912  1.00 63.40 LIG 0.05  C 
BRANCH 7 8
ATOM      8  CG  ARG C 760      13.160 -19.531  21.573  1.00 63.69 LIG 0.02  C 
BRANCH 8 9
ATOM      9  CD  ARG C 760      12.406 -20.787  21.979  1.00 63.30 LIG 0.14  C 
BRANCH 9 10
ATOM     10  NE  ARG C 760      12.463 -21.004  23.422  1.00 65.15 LIG-0.23  N 
ATOM     11  CZ  ARG C 760      11.777 -21.942  24.069  1.00 66.46 LIG 0.67  C 
ATOM     12  NH1 ARG C 760      10.978 -22.767  23.404  1.00 66.43 LIG-0.23  N 
ATOM     13  NH2 ARG C 760      11.895 -22.058  25.384  1.00 66.89 LIG-0.23  N 
ATOM     14 2HH1 ARG C 760      10.537 -23.372  23.827  1.00 66.43 LIG 0.17  HD
ATOM     15 1HH1 ARG C 760      10.902 -22.698  22.550  1.00 66.43 LIG 0.17  HD
ATOM     16 2HH2 ARG C 760      11.452 -22.664  25.803  1.00 66.89 LIG 0.17  HD
ATOM     17 1HH2 ARG C 760      12.414 -21.527  25.817  1.00 66.89 LIG 0.17  HD
ATOM     18 HE   ARG C 760      12.975 -20.491  23.884  1.00 65.15 LIG 0.18  HD
ENDBRANCH 9 10
ENDBRANCH 8 9
ENDBRANCH 7 8
ENDBRANCH 5 7
ENDBRANCH 1 5
BRANCH 3 19
ATOM     19  CA  GLY C 761      15.899 -16.476  20.892  1.00 62.83 LIG 0.23  C 
BRANCH 19 20
ATOM     20  C   GLY C 761      15.583 -15.595  22.091  1.00 67.24 LIG 0.24  C 
ATOM     21 O    GLY C 761      14.661 -15.878  22.856  1.00 65.14 LIG-0.27  OA
ATOM     22  N   THR C 762      16.359 -14.522  22.232  1.00 72.11 LIG-0.34  N 
ATOM     23 H    THR C 762      16.795 -14.178  21.575  1.00 72.11 LIG 0.16  HD
BRANCH 22 24
ATOM     24  CA  THR C 762      16.568 -13.806  23.496  1.00 75.13 LIG 0.21  C 
BRANCH 24 25
ATOM     25  C   THR C 762      17.947 -13.156  23.434  1.00 73.09 LIG 0.20  C 
ATOM     26 OXT  THR C 762      18.348 -12.481  24.380  1.00 76.95 LIG-0.65  OA
ATOM     27 O    THR C 762      18.696 -13.284  22.464  1.00 68.26 LIG-0.65  OA
ENDBRANCH 24 25
BRANCH 24 28
ATOM     28  CB  THR C 762      16.494 -14.700  24.754  1.00 77.67 LIG 0.15  C 
ATOM     29  CG2 THR C 762      17.893 -15.037  25.239  1.00 76.40 LIG 0.04  C 
BRANCH 28 30
ATOM     30 OG1  THR C 762      15.794 -14.017  25.800  1.00 80.43 LIG-0.39  OA
ATOM     31 HG1  THR C 762      16.131 -13.256  25.912  1.00 80.43 LIG 0.21  HD
ENDBRANCH 28 30
ENDBRANCH 24 28
ENDBRANCH 22 24
ENDBRANCH 19 20
ENDBRANCH 3 19
TORSDOF 11
ENDMDL
MODEL 61
USER: ADFR SOLUTION from run 138
USER: SCORE 7.804396 LL:  -1.167 LR:  -6.928 RR:   0.000 FEB:  -3.646
USER: RMSD 9.278098
USER: SEED 137
USER: STATUS no improvement in best in 24 clusters for 5 generations
USER: GENES 13
USER: genes 0 Translation |==|  0.36048 0.64592 0.88244
USER: genes 1 Rotation |==|  0.74234 0.08019 0.42498 0.59697
USER: genes 2 Torsion [N]-C--CA-[N] |==|  0.55141
USER: genes 3 Torsion [C]-CA--CB-[CG] |==|  0.33153
USER: genes 4 Torsion [CA]-CB--CG-[CD] |==|  0.79745
USER: genes 5 Torsion [CB]-CG--CD-[NE] |==|  0.82267
USER: genes 6 Torsion [CG]-CD--NE-[CZ] |==|  0.58085
USER: genes 7 Torsion [C]-N--CA-[C] |==|  0.46650
USER: genes 8 Torsion [N]-CA--C-[N] |==|  0.46125
USER: genes 9 Torsion [C]-N--CA-[C] |==|  0.51403
USER: genes 10 Torsion [N]-CA--C-[OXT] |==|  0.53241
USER: genes 11 Torsion [N]-CA--CB-[OG1] |==|  0.09670
USER: genes 12 Torsion [CA]-CB--OG1-[HG1] |==|  0.01647
ROOT
ATOM      1  C   ARG C 760      14.881 -15.145  25.835  1.00 56.34 LIG 0.26  C 
ATOM      2 O    ARG C 760      14.603 -13.983  25.557  1.00 53.76 LIG-0.27  OA
ATOM      3  N   GLY C 761      14.750 -16.145  24.968  1.00 59.89 LIG-0.35  N 
ATOM      4 H    GLY C 761      14.739 -16.975  25.191  1.00 59.89 LIG 0.16  HD
ENDROOT
BRANCH 1 5
ATOM      5  CA  ARG C 760      15.400 -15.508  27.227  1.00 61.16 LIG 0.40  C 
ATOM      6  N   ARG C 760      15.080 -14.438  28.170  1.00 59.95 LIG 0.61  N 
BRANCH 5 7
ATOM      7  CB  ARG C 760      14.816 -16.835  27.711  1.00 63.40 LIG 0.05  C 
BRANCH 7 8
ATOM      8  CG  ARG C 760      15.851 -17.906  27.989  1.00 63.69 LIG 0.02  C 
BRANCH 8 9
ATOM      9  CD  ARG C 760      16.431 -18.453  26.695  1.00 63.30 LIG 0.14  C 
BRANCH 9 10
ATOM     10  NE  ARG C 760      15.413 -19.127  25.893  1.00 65.15 LIG-0.23  N 
ATOM     11  CZ  ARG C 760      15.658 -20.130  25.056  1.00 66.46 LIG 0.67  C 
ATOM     12  NH1 ARG C 760      16.892 -20.594  24.908  1.00 66.43 LIG-0.23  N 
ATOM     13  NH2 ARG C 760      14.664 -20.675  24.370  1.00 66.89 LIG-0.23  N 
ATOM     14 2HH1 ARG C 760      17.045 -21.244  24.365  1.00 66.43 LIG 0.17  HD
ATOM     15 1HH1 ARG C 760      17.540 -20.245  25.354  1.00 66.43 LIG 0.17  HD
ATOM     16 2HH2 ARG C 760      14.821 -21.324  23.828  1.00 66.89 LIG 0.17  HD
ATOM     17 1HH2 ARG C 760      13.863 -20.380  24.466  1.00 66.89 LIG 0.17  HD
ATOM     18 HE   ARG C 760      14.600 -18.856  25.969  1.00 65.15 LIG 0.18  HD
ENDBRANCH 9 10
ENDBRANCH 8 9
ENDBRANCH 7 8
ENDBRANCH 5 7
ENDBRANCH 1 5
BRANCH 3 19
ATOM     19  CA  GLY C 761      14.611 -15.903  23.542  1.00 62.83 LIG 0.23  C 
BRANCH 19 20
ATOM     20  C   GLY C 761      14.734 -17.043  22.542  1.00 67.24 LIG 0.24  C 
ATOM     21 O    GLY C 761      15.207 -18.129  22.879  1.00 65.14 LIG-0.27  OA
ATOM     22  N   THR C 762      14.309 -16.770  21.310  1.00 72.11 LIG-0.34  N 
ATOM     23 H    THR C 762      14.250 -15.967  21.009  1.00 72.11 LIG 0.16  HD
BRANCH 22 24
ATOM     24  CA  THR C 762      13.894 -17.781  20.330  1.00 75.13 LIG 0.21  C 
BRANCH 24 25
ATOM     25  C   THR C 762      13.604 -17.058  19.018  1.00 73.09 LIG 0.20  C 
ATOM     26 OXT  THR C 762      13.036 -17.653  18.105  1.00 76.95 LIG-0.65  OA
ATOM     27 O    THR C 762      13.913 -15.881  18.829  1.00 68.26 LIG-0.65  OA
ENDBRANCH 24 25
BRANCH 24 28
ATOM     28  CB  THR C 762      12.644 -18.591  20.740  1.00 77.67 LIG 0.15  C 
ATOM     29  CG2 THR C 762      13.043 -19.763  21.620  1.00 76.40 LIG 0.04  C 
BRANCH 28 30
ATOM     30 OG1  THR C 762      11.736 -17.755  21.466  1.00 80.43 LIG-0.39  OA
ATOM     31 HG1  THR C 762      12.018 -16.965  21.461  1.00 80.43 LIG 0.21  HD
ENDBRANCH 28 30
ENDBRANCH 24 28
ENDBRANCH 22 24
ENDBRANCH 19 20
ENDBRANCH 3 19
TORSDOF 11
ENDMDL
MODEL 62
USER: ADFR SOLUTION from run 197
USER: SCORE 7.340628 LL:  -1.017 LR:  -6.917 RR:   0.000 FEB:  -3.636
USER: RMSD 10.016459
USER: SEED 196
USER: STATUS no improvement in best in 12 clusters for 5 generations
USER: GENES 13
USER: genes 0 Translation |==|  0.38313 0.69299 0.88231
USER: genes 1 Rotation |==|  0.90752 0.21266 0.48139 0.53191
USER: genes 2 Torsion [N]-C--CA-[N] |==|  0.46850
USER: genes 3 Torsion [C]-CA--CB-[CG] |==|  0.23436
USER: genes 4 Torsion [CA]-CB--CG-[CD] |==|  0.53218
USER: genes 5 Torsion [CB]-CG--CD-[NE] |==|  0.20080
USER: genes 6 Torsion [CG]-CD--NE-[CZ] |==|  0.29315
USER: genes 7 Torsion [C]-N--CA-[C] |==|  0.26371
USER: genes 8 Torsion [N]-CA--C-[N] |==|  0.22222
USER: genes 9 Torsion [C]-N--CA-[C] |==|  0.55558
USER: genes 10 Torsion [N]-CA--C-[OXT] |==|  0.87841
USER: genes 11 Torsion [N]-CA--CB-[OG1] |==|  0.74429
USER: genes 12 Torsion [CA]-CB--OG1-[HG1] |==|  0.06357
ROOT
ATOM      1  C   ARG C 760      15.272 -14.545  25.833  1.00 56.34 LIG 0.26  C 
ATOM      2 O    ARG C 760      14.289 -13.907  25.472  1.00 53.76 LIG-0.27  OA
ATOM      3  N   GLY C 761      16.146 -15.067  24.977  1.00 59.89 LIG-0.35  N 
ATOM      4 H    GLY C 761      16.714 -15.678  25.185  1.00 59.89 LIG 0.16  HD
ENDROOT
BRANCH 1 5
ATOM      5  CA  ARG C 760      15.542 -14.780  27.319  1.00 61.16 LIG 0.40  C 
ATOM      6  N   ARG C 760      14.664 -13.933  28.124  1.00 59.95 LIG 0.61  N 
BRANCH 5 7
ATOM      7  CB  ARG C 760      15.352 -16.250  27.694  1.00 63.40 LIG 0.05  C 
BRANCH 7 8
ATOM      8  CG  ARG C 760      16.567 -17.120  27.440  1.00 63.69 LIG 0.02  C 
BRANCH 8 9
ATOM      9  CD  ARG C 760      16.218 -18.594  27.565  1.00 63.30 LIG 0.14  C 
BRANCH 9 10
ATOM     10  NE  ARG C 760      15.413 -19.052  26.437  1.00 65.15 LIG-0.23  N 
ATOM     11  CZ  ARG C 760      15.871 -19.811  25.446  1.00 66.46 LIG 0.67  C 
ATOM     12  NH1 ARG C 760      17.135 -20.213  25.438  1.00 66.43 LIG-0.23  N 
ATOM     13  NH2 ARG C 760      15.060 -20.174  24.462  1.00 66.89 LIG-0.23  N 
ATOM     14 2HH1 ARG C 760      17.427 -20.704  24.794  1.00 66.43 LIG 0.17  HD
ATOM     15 1HH1 ARG C 760      17.664 -19.982  26.076  1.00 66.43 LIG 0.17  HD
ATOM     16 2HH2 ARG C 760      15.355 -20.665  23.821  1.00 66.89 LIG 0.17  HD
ATOM     17 1HH2 ARG C 760      14.239 -19.919  24.466  1.00 66.89 LIG 0.17  HD
ATOM     18 HE   ARG C 760      14.587 -18.816  26.412  1.00 65.15 LIG 0.18  HD
ENDBRANCH 9 10
ENDBRANCH 8 9
ENDBRANCH 7 8
ENDBRANCH 5 7
ENDBRANCH 1 5
BRANCH 3 19
ATOM     19  CA  GLY C 761      16.208 -14.634  23.591  1.00 62.83 LIG 0.23  C 
BRANCH 19 20
ATOM     20  C   GLY C 761      17.191 -13.558  23.155  1.00 67.24 LIG 0.24  C 
ATOM     21 O    GLY C 761      16.822 -12.395  22.992  1.00 65.14 LIG-0.27  OA
ATOM     22  N   THR C 762      18.442 -13.972  22.963  1.00 72.11 LIG-0.34  N 
ATOM     23 H    THR C 762      18.637 -14.794  22.802  1.00 72.11 LIG 0.16  HD
BRANCH 22 24
ATOM     24  CA  THR C 762      19.622 -13.101  23.002  1.00 75.13 LIG 0.21  C 
BRANCH 24 25
ATOM     25  C   THR C 762      20.748 -13.818  22.262  1.00 73.09 LIG 0.20  C 
ATOM     26 OXT  THR C 762      20.942 -15.016  22.457  1.00 76.95 LIG-0.65  OA
ATOM     27 O    THR C 762      21.482 -13.242  21.458  1.00 68.26 LIG-0.65  OA
ENDBRANCH 24 25
BRANCH 24 28
ATOM     28  CB  THR C 762      20.108 -12.749  24.426  1.00 77.67 LIG 0.15  C 
ATOM     29  CG2 THR C 762      21.617 -12.575  24.438  1.00 76.40 LIG 0.04  C 
BRANCH 28 30
ATOM     30 OG1  THR C 762      19.498 -11.529  24.864  1.00 80.43 LIG-0.39  OA
ATOM     31 HG1  THR C 762      18.788 -11.402  24.435  1.00 80.43 LIG 0.21  HD
ENDBRANCH 28 30
ENDBRANCH 24 28
ENDBRANCH 22 24
ENDBRANCH 19 20
ENDBRANCH 3 19
TORSDOF 11
ENDMDL
MODEL 63
USER: ADFR SOLUTION from run 26
USER: SCORE 8.215949 LL:  -1.386 LR:  -6.906 RR:   0.000 FEB:  -3.625
USER: RMSD 7.353835
USER: SEED 25
USER: STATUS no improvement in best in 31 clusters for 5 generations
USER: GENES 13
USER: genes 0 Translation |==|  0.35532 0.44225 0.65535
USER: genes 1 Rotation |==|  0.11230 0.19768 0.40926 0.50782
USER: genes 2 Torsion [N]-C--CA-[N] |==|  0.43611
USER: genes 3 Torsion [C]-CA--CB-[CG] |==|  0.40502
USER: genes 4 Torsion [CA]-CB--CG-[CD] |==|  0.78758
USER: genes 5 Torsion [CB]-CG--CD-[NE] |==|  0.77158
USER: genes 6 Torsion [CG]-CD--NE-[CZ] |==|  0.25436
USER: genes 7 Torsion [C]-N--CA-[C] |==|  0.21810
USER: genes 8 Torsion [N]-CA--C-[N] |==|  0.97222
USER: genes 9 Torsion [C]-N--CA-[C] |==|  0.51662
USER: genes 10 Torsion [N]-CA--C-[OXT] |==|  0.44684
USER: genes 11 Torsion [N]-CA--CB-[OG1] |==|  0.06405
USER: genes 12 Torsion [CA]-CB--OG1-[HG1] |==|  0.00808
ROOT
ATOM      1  C   ARG C 760      14.792 -17.742  21.237  1.00 56.34 LIG 0.26  C 
ATOM      2 O    ARG C 760      15.335 -18.681  20.663  1.00 53.76 LIG-0.27  OA
ATOM      3  N   GLY C 761      14.426 -16.629  20.609  1.00 59.89 LIG-0.35  N 
ATOM      4 H    GLY C 761      14.238 -15.892  21.010  1.00 59.89 LIG 0.16  HD
ENDROOT
BRANCH 1 5
ATOM      5  CA  ARG C 760      14.510 -17.810  22.738  1.00 61.16 LIG 0.40  C 
ATOM      6  N   ARG C 760      14.444 -19.205  23.169  1.00 59.95 LIG 0.61  N 
BRANCH 5 7
ATOM      7  CB  ARG C 760      15.571 -17.054  23.539  1.00 63.40 LIG 0.05  C 
BRANCH 7 8
ATOM      8  CG  ARG C 760      15.043 -16.373  24.785  1.00 63.69 LIG 0.02  C 
BRANCH 8 9
ATOM      9  CD  ARG C 760      14.290 -15.101  24.433  1.00 63.30 LIG 0.14  C 
BRANCH 9 10
ATOM     10  NE  ARG C 760      15.199 -13.977  24.230  1.00 65.15 LIG-0.23  N 
ATOM     11  CZ  ARG C 760      15.717 -13.631  23.056  1.00 66.46 LIG 0.67  C 
ATOM     12  NH1 ARG C 760      15.413 -14.316  21.961  1.00 66.43 LIG-0.23  N 
ATOM     13  NH2 ARG C 760      16.538 -12.594  22.975  1.00 66.89 LIG-0.23  N 
ATOM     14 2HH1 ARG C 760      15.750 -14.088  21.203  1.00 66.43 LIG 0.17  HD
ATOM     15 1HH1 ARG C 760      14.878 -14.988  22.008  1.00 66.43 LIG 0.17  HD
ATOM     16 2HH2 ARG C 760      16.873 -12.369  22.216  1.00 66.89 LIG 0.17  HD
ATOM     17 1HH2 ARG C 760      16.734 -12.146  23.682  1.00 66.89 LIG 0.17  HD
ATOM     18 HE   ARG C 760      15.414 -13.507  24.918  1.00 65.15 LIG 0.18  HD
ENDBRANCH 9 10
ENDBRANCH 8 9
ENDBRANCH 7 8
ENDBRANCH 5 7
ENDBRANCH 1 5
BRANCH 3 19
ATOM     19  CA  GLY C 761      14.312 -16.572  19.161  1.00 62.83 LIG 0.23  C 
BRANCH 19 20
ATOM     20  C   GLY C 761      13.096 -17.149  18.452  1.00 67.24 LIG 0.24  C 
ATOM     21 O    GLY C 761      12.905 -16.937  17.255  1.00 65.14 LIG-0.27  OA
ATOM     22  N   THR C 762      12.279 -17.872  19.217  1.00 72.11 LIG-0.34  N 
ATOM     23 H    THR C 762      12.253 -17.788  20.072  1.00 72.11 LIG 0.16  HD
BRANCH 22 24
ATOM     24  CA  THR C 762      11.342 -18.881  18.710  1.00 75.13 LIG 0.21  C 
BRANCH 24 25
ATOM     25  C   THR C 762      10.500 -19.359  19.890  1.00 73.09 LIG 0.20  C 
ATOM     26 OXT  THR C 762       9.429 -19.927  19.686  1.00 76.95 LIG-0.65  OA
ATOM     27 O    THR C 762      10.853 -19.205  21.060  1.00 68.26 LIG-0.65  OA
ENDBRANCH 24 25
BRANCH 24 28
ATOM     28  CB  THR C 762      12.018 -20.105  18.053  1.00 77.67 LIG 0.15  C 
ATOM     29  CG2 THR C 762      12.062 -19.932  16.544  1.00 76.40 LIG 0.04  C 
BRANCH 28 30
ATOM     30 OG1  THR C 762      13.357 -20.247  18.541  1.00 80.43 LIG-0.39  OA
ATOM     31 HG1  THR C 762      13.506 -19.660  19.123  1.00 80.43 LIG 0.21  HD
ENDBRANCH 28 30
ENDBRANCH 24 28
ENDBRANCH 22 24
ENDBRANCH 19 20
ENDBRANCH 3 19
TORSDOF 11
ENDMDL
MODEL 64
USER: ADFR SOLUTION from run 119
USER: SCORE 8.274998 LL:  -1.577 LR:  -6.883 RR:   0.000 FEB:  -3.601
USER: RMSD 9.256156
USER: SEED 118
USER: STATUS no improvement in best in 18 clusters for 5 generations
USER: GENES 13
USER: genes 0 Translation |==|  0.41772 0.68814 0.76284
USER: genes 1 Rotation |==|  0.79694 0.69476 0.85088 0.52788
USER: genes 2 Torsion [N]-C--CA-[N] |==|  0.42763
USER: genes 3 Torsion [C]-CA--CB-[CG] |==|  0.94497
USER: genes 4 Torsion [CA]-CB--CG-[CD] |==|  0.62132
USER: genes 5 Torsion [CB]-CG--CD-[NE] |==|  0.13922
USER: genes 6 Torsion [CG]-CD--NE-[CZ] |==|  0.22302
USER: genes 7 Torsion [C]-N--CA-[C] |==|  0.85556
USER: genes 8 Torsion [N]-CA--C-[N] |==|  0.91729
USER: genes 9 Torsion [C]-N--CA-[C] |==|  0.53003
USER: genes 10 Torsion [N]-CA--C-[OXT] |==|  0.54260
USER: genes 11 Torsion [N]-CA--CB-[OG1] |==|  0.98373
USER: genes 12 Torsion [CA]-CB--OG1-[HG1] |==|  0.81802
ROOT
ATOM      1  C   ARG C 760      15.869 -14.607  23.414  1.00 56.34 LIG 0.26  C 
ATOM      2 O    ARG C 760      16.784 -15.348  23.069  1.00 53.76 LIG-0.27  OA
ATOM      3  N   GLY C 761      16.018 -13.293  23.549  1.00 59.89 LIG-0.35  N 
ATOM      4 H    GLY C 761      15.468 -12.789  23.977  1.00 59.89 LIG 0.16  HD
ENDROOT
BRANCH 1 5
ATOM      5  CA  ARG C 760      14.482 -15.176  23.716  1.00 61.16 LIG 0.40  C 
ATOM      6  N   ARG C 760      14.282 -16.419  22.973  1.00 59.95 LIG 0.61  N 
BRANCH 5 7
ATOM      7  CB  ARG C 760      14.292 -15.415  25.214  1.00 63.40 LIG 0.05  C 
BRANCH 7 8
ATOM      8  CG  ARG C 760      15.585 -15.507  25.999  1.00 63.69 LIG 0.02  C 
BRANCH 8 9
ATOM      9  CD  ARG C 760      15.539 -16.656  26.993  1.00 63.30 LIG 0.14  C 
BRANCH 9 10
ATOM     10  NE  ARG C 760      15.109 -17.899  26.358  1.00 65.15 LIG-0.23  N 
ATOM     11  CZ  ARG C 760      15.901 -18.690  25.641  1.00 66.46 LIG 0.67  C 
ATOM     12  NH1 ARG C 760      17.179 -18.379  25.466  1.00 66.43 LIG-0.23  N 
ATOM     13  NH2 ARG C 760      15.415 -19.798  25.102  1.00 66.89 LIG-0.23  N 
ATOM     14 2HH1 ARG C 760      17.687 -18.894  25.001  1.00 66.43 LIG 0.17  HD
ATOM     15 1HH1 ARG C 760      17.500 -17.662  25.817  1.00 66.43 LIG 0.17  HD
ATOM     16 2HH2 ARG C 760      15.926 -20.311  24.638  1.00 66.89 LIG 0.17  HD
ATOM     17 1HH2 ARG C 760      14.588 -20.005  25.216  1.00 66.89 LIG 0.17  HD
ATOM     18 HE   ARG C 760      14.288 -18.135  26.455  1.00 65.15 LIG 0.18  HD
ENDBRANCH 9 10
ENDBRANCH 8 9
ENDBRANCH 7 8
ENDBRANCH 5 7
ENDBRANCH 1 5
BRANCH 3 19
ATOM     19  CA  GLY C 761      17.151 -12.590  22.969  1.00 62.83 LIG 0.23  C 
BRANCH 19 20
ATOM     20  C   GLY C 761      18.574 -13.059  23.230  1.00 67.24 LIG 0.24  C 
ATOM     21 O    GLY C 761      19.460 -12.885  22.393  1.00 65.14 LIG-0.27  OA
ATOM     22  N   THR C 762      18.771 -13.661  24.402  1.00 72.11 LIG-0.34  N 
ATOM     23 H    THR C 762      18.132 -14.026  24.846  1.00 72.11 LIG 0.16  HD
BRANCH 22 24
ATOM     24  CA  THR C 762      20.072 -13.775  25.071  1.00 75.13 LIG 0.21  C 
BRANCH 24 25
ATOM     25  C   THR C 762      19.910 -14.754  26.229  1.00 73.09 LIG 0.20  C 
ATOM     26 OXT  THR C 762      20.766 -14.809  27.109  1.00 76.95 LIG-0.65  OA
ATOM     27 O    THR C 762      18.938 -15.504  26.330  1.00 68.26 LIG-0.65  OA
ENDBRANCH 24 25
BRANCH 24 28
ATOM     28  CB  THR C 762      20.625 -12.441  25.621  1.00 77.67 LIG 0.15  C 
ATOM     29  CG2 THR C 762      22.024 -12.192  25.084  1.00 76.40 LIG 0.04  C 
BRANCH 28 30
ATOM     30 OG1  THR C 762      19.778 -11.358  25.222  1.00 80.43 LIG-0.39  OA
ATOM     31 HG1  THR C 762      19.807 -11.272  24.387  1.00 80.43 LIG 0.21  HD
ENDBRANCH 28 30
ENDBRANCH 24 28
ENDBRANCH 22 24
ENDBRANCH 19 20
ENDBRANCH 3 19
TORSDOF 11
ENDMDL
MODEL 65
USER: ADFR SOLUTION from run 194
USER: SCORE 8.442936 LL:  -1.712 LR:  -6.847 RR:   0.000 FEB:  -3.566
USER: RMSD 7.623886
USER: SEED 193
USER: STATUS no improvement in best in 4 clusters for 5 generations
USER: GENES 13
USER: genes 0 Translation |==|  0.40366 0.58627 0.69350
USER: genes 1 Rotation |==|  0.47582 0.53735 0.99334 0.56807
USER: genes 2 Torsion [N]-C--CA-[N] |==|  0.36294
USER: genes 3 Torsion [C]-CA--CB-[CG] |==|  0.03876
USER: genes 4 Torsion [CA]-CB--CG-[CD] |==|  0.69423
USER: genes 5 Torsion [CB]-CG--CD-[NE] |==|  0.38378
USER: genes 6 Torsion [CG]-CD--NE-[CZ] |==|  0.71604
USER: genes 7 Torsion [C]-N--CA-[C] |==|  0.16282
USER: genes 8 Torsion [N]-CA--C-[N] |==|  0.10440
USER: genes 9 Torsion [C]-N--CA-[C] |==|  0.23928
USER: genes 10 Torsion [N]-CA--C-[OXT] |==|  0.40468
USER: genes 11 Torsion [N]-CA--CB-[OG1] |==|  0.79686
USER: genes 12 Torsion [CA]-CB--OG1-[HG1] |==|  0.04184
ROOT
ATOM      1  C   ARG C 760      15.626 -15.906  22.009  1.00 56.34 LIG 0.26  C 
ATOM      2 O    ARG C 760      16.310 -16.699  22.648  1.00 53.76 LIG-0.27  OA
ATOM      3  N   GLY C 761      15.038 -14.851  22.566  1.00 59.89 LIG-0.35  N 
ATOM      4 H    GLY C 761      14.401 -14.407  22.197  1.00 59.89 LIG 0.16  HD
ENDROOT
BRANCH 1 5
ATOM      5  CA  ARG C 760      15.409 -16.102  20.509  1.00 61.16 LIG 0.40  C 
ATOM      6  N   ARG C 760      16.692 -16.327  19.846  1.00 59.95 LIG 0.61  N 
BRANCH 5 7
ATOM      7  CB  ARG C 760      14.455 -17.264  20.231  1.00 63.40 LIG 0.05  C 
BRANCH 7 8
ATOM      8  CG  ARG C 760      13.685 -17.742  21.445  1.00 63.69 LIG 0.02  C 
BRANCH 8 9
ATOM      9  CD  ARG C 760      14.161 -19.117  21.886  1.00 63.30 LIG 0.14  C 
BRANCH 9 10
ATOM     10  NE  ARG C 760      14.272 -19.207  23.339  1.00 65.15 LIG-0.23  N 
ATOM     11  CZ  ARG C 760      15.416 -19.140  24.011  1.00 66.46 LIG 0.67  C 
ATOM     12  NH1 ARG C 760      16.564 -18.972  23.367  1.00 66.43 LIG-0.23  N 
ATOM     13  NH2 ARG C 760      15.413 -19.234  25.333  1.00 66.89 LIG-0.23  N 
ATOM     14 2HH1 ARG C 760      17.302 -18.929  23.807  1.00 66.43 LIG 0.17  HD
ATOM     15 1HH1 ARG C 760      16.571 -18.907  22.509  1.00 66.43 LIG 0.17  HD
ATOM     16 2HH2 ARG C 760      16.152 -19.191  25.769  1.00 66.89 LIG 0.17  HD
ATOM     17 1HH2 ARG C 760      14.671 -19.339  25.754  1.00 66.89 LIG 0.17  HD
ATOM     18 HE   ARG C 760      13.547 -19.310  23.790  1.00 65.15 LIG 0.18  HD
ENDBRANCH 9 10
ENDBRANCH 8 9
ENDBRANCH 7 8
ENDBRANCH 5 7
ENDBRANCH 1 5
BRANCH 3 19
ATOM     19  CA  GLY C 761      15.438 -14.357  23.873  1.00 62.83 LIG 0.23  C 
BRANCH 19 20
ATOM     20  C   GLY C 761      16.869 -13.912  24.133  1.00 67.24 LIG 0.24  C 
ATOM     21 O    GLY C 761      17.412 -14.136  25.215  1.00 65.14 LIG-0.27  OA
ATOM     22  N   THR C 762      17.460 -13.273  23.125  1.00 72.11 LIG-0.34  N 
ATOM     23 H    THR C 762      17.015 -12.878  22.505  1.00 72.11 LIG 0.16  HD
BRANCH 22 24
ATOM     24  CA  THR C 762      18.913 -13.165  22.947  1.00 75.13 LIG 0.21  C 
BRANCH 24 25
ATOM     25  C   THR C 762      19.377 -14.408  22.194  1.00 73.09 LIG 0.20  C 
ATOM     26 OXT  THR C 762      20.308 -14.327  21.395  1.00 76.95 LIG-0.65  OA
ATOM     27 O    THR C 762      18.858 -15.513  22.357  1.00 68.26 LIG-0.65  OA
ENDBRANCH 24 25
BRANCH 24 28
ATOM     28  CB  THR C 762      19.710 -13.054  24.266  1.00 77.67 LIG 0.15  C 
ATOM     29  CG2 THR C 762      21.190 -13.272  24.003  1.00 76.40 LIG 0.04  C 
BRANCH 28 30
ATOM     30 OG1  THR C 762      19.528 -11.756  24.841  1.00 80.43 LIG-0.39  OA
ATOM     31 HG1  THR C 762      18.874 -11.377  24.475  1.00 80.43 LIG 0.21  HD
ENDBRANCH 28 30
ENDBRANCH 24 28
ENDBRANCH 22 24
ENDBRANCH 19 20
ENDBRANCH 3 19
TORSDOF 11
ENDMDL
MODEL 66
USER: ADFR SOLUTION from run 7
USER: SCORE 8.196420 LL:  -1.749 LR:  -6.846 RR:   0.000 FEB:  -3.565
USER: RMSD 8.797190
USER: SEED 139135
USER: STATUS no improvement in best in 23 clusters for 5 generations
USER: GENES 13
USER: genes 0 Translation |==|  0.56394 0.55651 0.71476
USER: genes 1 Rotation |==|  0.68858 0.80104 0.82649 0.63123
USER: genes 2 Torsion [N]-C--CA-[N] |==|  0.38088
USER: genes 3 Torsion [C]-CA--CB-[CG] |==|  0.37941
USER: genes 4 Torsion [CA]-CB--CG-[CD] |==|  0.64185
USER: genes 5 Torsion [CB]-CG--CD-[NE] |==|  0.13514
USER: genes 6 Torsion [CG]-CD--NE-[CZ] |==|  0.14809
USER: genes 7 Torsion [C]-N--CA-[C] |==|  0.75724
USER: genes 8 Torsion [N]-CA--C-[N] |==|  0.09492
USER: genes 9 Torsion [C]-N--CA-[C] |==|  0.20463
USER: genes 10 Torsion [N]-CA--C-[OXT] |==|  0.48757
USER: genes 11 Torsion [N]-CA--CB-[OG1] |==|  0.91091
USER: genes 12 Torsion [CA]-CB--OG1-[HG1] |==|  0.17498
ROOT
ATOM      1  C   ARG C 760      18.391 -16.285  22.440  1.00 56.34 LIG 0.26  C 
ATOM      2 O    ARG C 760      19.369 -16.857  22.912  1.00 53.76 LIG-0.27  OA
ATOM      3  N   GLY C 761      18.473 -15.115  21.814  1.00 59.89 LIG-0.35  N 
ATOM      4 H    GLY C 761      17.798 -14.605  21.660  1.00 59.89 LIG 0.16  HD
ENDROOT
BRANCH 1 5
ATOM      5  CA  ARG C 760      16.998 -16.906  22.557  1.00 61.16 LIG 0.40  C 
ATOM      6  N   ARG C 760      17.067 -18.338  22.273  1.00 59.95 LIG 0.61  N 
BRANCH 5 7
ATOM      7  CB  ARG C 760      16.396 -16.666  23.941  1.00 63.40 LIG 0.05  C 
BRANCH 7 8
ATOM      8  CG  ARG C 760      14.937 -16.257  23.923  1.00 63.69 LIG 0.02  C 
BRANCH 8 9
ATOM      9  CD  ARG C 760      14.711 -15.003  24.752  1.00 63.30 LIG 0.14  C 
BRANCH 9 10
ATOM     10  NE  ARG C 760      15.678 -13.960  24.422  1.00 65.15 LIG-0.23  N 
ATOM     11  CZ  ARG C 760      15.906 -13.508  23.193  1.00 66.46 LIG 0.67  C 
ATOM     12  NH1 ARG C 760      15.231 -14.000  22.162  1.00 66.43 LIG-0.23  N 
ATOM     13  NH2 ARG C 760      16.808 -12.557  22.995  1.00 66.89 LIG-0.23  N 
ATOM     14 2HH1 ARG C 760      15.383 -13.704  21.368  1.00 66.43 LIG 0.17  HD
ATOM     15 1HH1 ARG C 760      14.642 -14.614  22.286  1.00 66.43 LIG 0.17  HD
ATOM     16 2HH2 ARG C 760      16.956 -12.264  22.201  1.00 66.89 LIG 0.17  HD
ATOM     17 1HH2 ARG C 760      17.244 -12.234  23.661  1.00 66.89 LIG 0.17  HD
ATOM     18 HE   ARG C 760      16.129 -13.614  25.067  1.00 65.15 LIG 0.18  HD
ENDBRANCH 9 10
ENDBRANCH 8 9
ENDBRANCH 7 8
ENDBRANCH 5 7
ENDBRANCH 1 5
BRANCH 3 19
ATOM     19  CA  GLY C 761      19.742 -14.596  21.332  1.00 62.83 LIG 0.23  C 
BRANCH 19 20
ATOM     20  C   GLY C 761      20.641 -13.768  22.238  1.00 67.24 LIG 0.24  C 
ATOM     21 O    GLY C 761      21.328 -12.855  21.782  1.00 65.14 LIG-0.27  OA
ATOM     22  N   THR C 762      20.626 -14.113  23.525  1.00 72.11 LIG-0.34  N 
ATOM     23 H    THR C 762      20.384 -14.894  23.791  1.00 72.11 LIG 0.16  HD
BRANCH 22 24
ATOM     24  CA  THR C 762      21.011 -13.225  24.628  1.00 75.13 LIG 0.21  C 
BRANCH 24 25
ATOM     25  C   THR C 762      19.891 -12.204  24.809  1.00 73.09 LIG 0.20  C 
ATOM     26 OXT  THR C 762      19.943 -11.396  25.733  1.00 76.95 LIG-0.65  OA
ATOM     27 O    THR C 762      18.920 -12.147  24.053  1.00 68.26 LIG-0.65  OA
ENDBRANCH 24 25
BRANCH 24 28
ATOM     28  CB  THR C 762      22.340 -12.470  24.404  1.00 77.67 LIG 0.15  C 
ATOM     29  CG2 THR C 762      22.997 -12.158  25.738  1.00 76.40 LIG 0.04  C 
BRANCH 28 30
ATOM     30 OG1  THR C 762      23.234 -13.273  23.626  1.00 80.43 LIG-0.39  OA
ATOM     31 HG1  THR C 762      22.901 -13.407  22.867  1.00 80.43 LIG 0.21  HD
ENDBRANCH 28 30
ENDBRANCH 24 28
ENDBRANCH 22 24
ENDBRANCH 19 20
ENDBRANCH 3 19
TORSDOF 11
ENDMDL
MODEL 67
USER: ADFR SOLUTION from run 97
USER: SCORE 8.682219 LL:  -1.923 LR:  -6.838 RR:   0.000 FEB:  -3.557
USER: RMSD 8.935195
USER: SEED 96
USER: STATUS no improvement in best in 30 clusters for 5 generations
USER: GENES 13
USER: genes 0 Translation |==|  0.34816 0.62960 0.90299
USER: genes 1 Rotation |==|  0.70623 0.07209 0.35132 0.54755
USER: genes 2 Torsion [N]-C--CA-[N] |==|  0.87302
USER: genes 3 Torsion [C]-CA--CB-[CG] |==|  0.71908
USER: genes 4 Torsion [CA]-CB--CG-[CD] |==|  0.24499
USER: genes 5 Torsion [CB]-CG--CD-[NE] |==|  0.69754
USER: genes 6 Torsion [CG]-CD--NE-[CZ] |==|  0.51381
USER: genes 7 Torsion [C]-N--CA-[C] |==|  0.17600
USER: genes 8 Torsion [N]-CA--C-[N] |==|  0.09404
USER: genes 9 Torsion [C]-N--CA-[C] |==|  0.41465
USER: genes 10 Torsion [N]-CA--C-[OXT] |==|  0.35333
USER: genes 11 Torsion [N]-CA--CB-[OG1] |==|  0.74973
USER: genes 12 Torsion [CA]-CB--OG1-[HG1] |==|  0.15184
ROOT
ATOM      1  C   ARG C 760      14.669 -15.354  26.252  1.00 56.34 LIG 0.26  C 
ATOM      2 O    ARG C 760      14.663 -14.131  26.350  1.00 53.76 LIG-0.27  OA
ATOM      3  N   GLY C 761      14.359 -15.987  25.124  1.00 59.89 LIG-0.35  N 
ATOM      4 H    GLY C 761      14.158 -16.822  25.083  1.00 59.89 LIG 0.16  HD
ENDROOT
BRANCH 1 5
ATOM      5  CA  ARG C 760      15.036 -16.227  27.452  1.00 61.16 LIG 0.40  C 
ATOM      6  N   ARG C 760      14.076 -17.321  27.583  1.00 59.95 LIG 0.61  N 
BRANCH 5 7
ATOM      7  CB  ARG C 760      16.456 -16.777  27.327  1.00 63.40 LIG 0.05  C 
BRANCH 7 8
ATOM      8  CG  ARG C 760      16.527 -18.218  26.863  1.00 63.69 LIG 0.02  C 
BRANCH 8 9
ATOM      9  CD  ARG C 760      16.559 -18.301  25.345  1.00 63.30 LIG 0.14  C 
BRANCH 9 10
ATOM     10  NE  ARG C 760      15.305 -18.825  24.810  1.00 65.15 LIG-0.23  N 
ATOM     11  CZ  ARG C 760      15.089 -19.092  23.526  1.00 66.46 LIG 0.67  C 
ATOM     12  NH1 ARG C 760      16.048 -18.895  22.629  1.00 66.43 LIG-0.23  N 
ATOM     13  NH2 ARG C 760      13.913 -19.563  23.138  1.00 66.89 LIG-0.23  N 
ATOM     14 2HH1 ARG C 760      15.903 -19.070  21.800  1.00 66.43 LIG 0.17  HD
ATOM     15 1HH1 ARG C 760      16.814 -18.593  22.878  1.00 66.43 LIG 0.17  HD
ATOM     16 2HH2 ARG C 760      13.772 -19.737  22.308  1.00 66.89 LIG 0.17  HD
ATOM     17 1HH2 ARG C 760      13.291 -19.695  23.716  1.00 66.89 LIG 0.17  HD
ATOM     18 HE   ARG C 760      14.663 -18.970  25.364  1.00 65.15 LIG 0.18  HD
ENDBRANCH 9 10
ENDBRANCH 8 9
ENDBRANCH 7 8
ENDBRANCH 5 7
ENDBRANCH 1 5
BRANCH 3 19
ATOM     19  CA  GLY C 761      14.337 -15.299  23.844  1.00 62.83 LIG 0.23  C 
BRANCH 19 20
ATOM     20  C   GLY C 761      15.606 -14.695  23.263  1.00 67.24 LIG 0.24  C 
ATOM     21 O    GLY C 761      15.564 -13.664  22.591  1.00 65.14 LIG-0.27  OA
ATOM     22  N   THR C 762      16.729 -15.361  23.528  1.00 72.11 LIG-0.34  N 
ATOM     23 H    THR C 762      16.732 -16.194  23.740  1.00 72.11 LIG 0.16  HD
BRANCH 22 24
ATOM     24  CA  THR C 762      18.073 -14.772  23.495  1.00 75.13 LIG 0.21  C 
BRANCH 24 25
ATOM     25  C   THR C 762      18.923 -15.510  24.525  1.00 73.09 LIG 0.20  C 
ATOM     26 OXT  THR C 762      20.001 -15.998  24.191  1.00 76.95 LIG-0.65  OA
ATOM     27 O    THR C 762      18.577 -15.637  25.700  1.00 68.26 LIG-0.65  OA
ENDBRANCH 24 25
BRANCH 24 28
ATOM     28  CB  THR C 762      18.114 -13.260  23.807  1.00 77.67 LIG 0.15  C 
ATOM     29  CG2 THR C 762      19.434 -12.896  24.464  1.00 76.40 LIG 0.04  C 
BRANCH 28 30
ATOM     30 OG1  THR C 762      17.976 -12.506  22.597  1.00 80.43 LIG-0.39  OA
ATOM     31 HG1  THR C 762      17.279 -12.746  22.196  1.00 80.43 LIG 0.21  HD
ENDBRANCH 28 30
ENDBRANCH 24 28
ENDBRANCH 22 24
ENDBRANCH 19 20
ENDBRANCH 3 19
TORSDOF 11
ENDMDL
MODEL 68
USER: ADFR SOLUTION from run 85
USER: SCORE 7.713487 LL:  -0.937 LR:  -6.823 RR:   0.000 FEB:  -3.542
USER: RMSD 5.897391
USER: SEED 84
USER: STATUS no improvement in best in 21 clusters for 5 generations
USER: GENES 13
USER: genes 0 Translation |==|  0.39173 0.52860 0.67073
USER: genes 1 Rotation |==|  0.64455 0.63413 0.95937 0.50981
USER: genes 2 Torsion [N]-C--CA-[N] |==|  0.86031
USER: genes 3 Torsion [C]-CA--CB-[CG] |==|  0.52647
USER: genes 4 Torsion [CA]-CB--CG-[CD] |==|  0.65618
USER: genes 5 Torsion [CB]-CG--CD-[NE] |==|  0.63259
USER: genes 6 Torsion [CG]-CD--NE-[CZ] |==|  0.57427
USER: genes 7 Torsion [C]-N--CA-[C] |==|  0.73349
USER: genes 8 Torsion [N]-CA--C-[N] |==|  0.03634
USER: genes 9 Torsion [C]-N--CA-[C] |==|  0.53139
USER: genes 10 Torsion [N]-CA--C-[OXT] |==|  0.05246
USER: genes 11 Torsion [N]-CA--CB-[OG1] |==|  0.93538
USER: genes 12 Torsion [CA]-CB--OG1-[HG1] |==|  0.75224
ROOT
ATOM      1  C   ARG C 760      15.420 -16.641  21.548  1.00 56.34 LIG 0.26  C 
ATOM      2 O    ARG C 760      16.521 -17.161  21.699  1.00 53.76 LIG-0.27  OA
ATOM      3  N   GLY C 761      15.096 -15.471  22.089  1.00 59.89 LIG-0.35  N 
ATOM      4 H    GLY C 761      14.289 -15.187  22.172  1.00 59.89 LIG 0.16  HD
ENDROOT
BRANCH 1 5
ATOM      5  CA  ARG C 760      14.342 -17.335  20.716  1.00 61.16 LIG 0.40  C 
ATOM      6  N   ARG C 760      13.091 -17.392  21.470  1.00 59.95 LIG 0.61  N 
BRANCH 5 7
ATOM      7  CB  ARG C 760      14.126 -16.624  19.380  1.00 63.40 LIG 0.05  C 
BRANCH 7 8
ATOM      8  CG  ARG C 760      12.921 -17.114  18.601  1.00 63.69 LIG 0.02  C 
BRANCH 8 9
ATOM      9  CD  ARG C 760      13.323 -17.576  17.210  1.00 63.30 LIG 0.14  C 
BRANCH 9 10
ATOM     10  NE  ARG C 760      12.444 -17.020  16.185  1.00 65.15 LIG-0.23  N 
ATOM     11  CZ  ARG C 760      12.205 -17.592  15.009  1.00 66.46 LIG 0.67  C 
ATOM     12  NH1 ARG C 760      12.771 -18.752  14.700  1.00 66.43 LIG-0.23  N 
ATOM     13  NH2 ARG C 760      11.392 -17.006  14.142  1.00 66.89 LIG-0.23  N 
ATOM     14 2HH1 ARG C 760      12.613 -19.118  13.938  1.00 66.43 LIG 0.17  HD
ATOM     15 1HH1 ARG C 760      13.297 -19.138  15.261  1.00 66.43 LIG 0.17  HD
ATOM     16 2HH2 ARG C 760      11.236 -17.375  13.382  1.00 66.89 LIG 0.17  HD
ATOM     17 1HH2 ARG C 760      11.021 -16.257  14.341  1.00 66.89 LIG 0.17  HD
ATOM     18 HE   ARG C 760      12.056 -16.272  16.354  1.00 65.15 LIG 0.18  HD
ENDBRANCH 9 10
ENDBRANCH 8 9
ENDBRANCH 7 8
ENDBRANCH 5 7
ENDBRANCH 1 5
BRANCH 3 19
ATOM     19  CA  GLY C 761      16.109 -14.558  22.595  1.00 62.83 LIG 0.23  C 
BRANCH 19 20
ATOM     20  C   GLY C 761      16.477 -14.544  24.071  1.00 67.24 LIG 0.24  C 
ATOM     21 O    GLY C 761      17.154 -13.630  24.543  1.00 65.14 LIG-0.27  OA
ATOM     22  N   THR C 762      16.026 -15.576  24.782  1.00 72.11 LIG-0.34  N 
ATOM     23 H    THR C 762      15.811 -16.326  24.421  1.00 72.11 LIG 0.16  HD
BRANCH 22 24
ATOM     24  CA  THR C 762      15.842 -15.566  26.238  1.00 75.13 LIG 0.21  C 
BRANCH 24 25
ATOM     25  C   THR C 762      15.588 -17.005  26.678  1.00 73.09 LIG 0.20  C 
ATOM     26 OXT  THR C 762      15.906 -17.935  25.941  1.00 76.95 LIG-0.65  OA
ATOM     27 O    THR C 762      15.075 -17.283  27.763  1.00 68.26 LIG-0.65  OA
ENDBRANCH 24 25
BRANCH 24 28
ATOM     28  CB  THR C 762      14.672 -14.682  26.725  1.00 77.67 LIG 0.15  C 
ATOM     29  CG2 THR C 762      15.038 -14.004  28.034  1.00 76.40 LIG 0.04  C 
BRANCH 28 30
ATOM     30 OG1  THR C 762      14.378 -13.676  25.750  1.00 80.43 LIG-0.39  OA
ATOM     31 HG1  THR C 762      14.844 -12.994  25.902  1.00 80.43 LIG 0.21  HD
ENDBRANCH 28 30
ENDBRANCH 24 28
ENDBRANCH 22 24
ENDBRANCH 19 20
ENDBRANCH 3 19
TORSDOF 11
ENDMDL
MODEL 69
USER: ADFR SOLUTION from run 15
USER: SCORE 7.695788 LL:  -1.316 LR:  -6.809 RR:   0.000 FEB:  -3.527
USER: RMSD 8.190145
USER: SEED 294261
USER: STATUS no improvement in best in 9 clusters for 5 generations
USER: GENES 13
USER: genes 0 Translation |==|  0.44254 0.61809 0.66999
USER: genes 1 Rotation |==|  0.43081 0.39059 0.02481 0.58626
USER: genes 2 Torsion [N]-C--CA-[N] |==|  0.51244
USER: genes 3 Torsion [C]-CA--CB-[CG] |==|  0.95297
USER: genes 4 Torsion [CA]-CB--CG-[CD] |==|  0.75510
USER: genes 5 Torsion [CB]-CG--CD-[NE] |==|  0.51020
USER: genes 6 Torsion [CG]-CD--NE-[CZ] |==|  0.77449
USER: genes 7 Torsion [C]-N--CA-[C] |==|  0.88273
USER: genes 8 Torsion [N]-CA--C-[N] |==|  0.33333
USER: genes 9 Torsion [C]-N--CA-[C] |==|  0.65478
USER: genes 10 Torsion [N]-CA--C-[OXT] |==|  0.91036
USER: genes 11 Torsion [N]-CA--CB-[OG1] |==|  0.97240
USER: genes 12 Torsion [CA]-CB--OG1-[HG1] |==|  0.98608
ROOT
ATOM      1  C   ARG C 760      16.297 -15.500  21.533  1.00 56.34 LIG 0.26  C 
ATOM      2 O    ARG C 760      17.480 -15.592  21.846  1.00 53.76 LIG-0.27  OA
ATOM      3  N   GLY C 761      15.442 -14.707  22.172  1.00 59.89 LIG-0.35  N 
ATOM      4 H    GLY C 761      14.587 -14.775  22.112  1.00 59.89 LIG 0.16  HD
ENDROOT
BRANCH 1 5
ATOM      5  CA  ARG C 760      15.736 -16.319  20.370  1.00 61.16 LIG 0.40  C 
ATOM      6  N   ARG C 760      16.769 -17.211  19.847  1.00 59.95 LIG 0.61  N 
BRANCH 5 7
ATOM      7  CB  ARG C 760      14.505 -17.120  20.794  1.00 63.40 LIG 0.05  C 
BRANCH 7 8
ATOM      8  CG  ARG C 760      14.345 -17.267  22.294  1.00 63.69 LIG 0.02  C 
BRANCH 8 9
ATOM      9  CD  ARG C 760      15.090 -18.489  22.805  1.00 63.30 LIG 0.14  C 
BRANCH 9 10
ATOM     10  NE  ARG C 760      14.873 -18.691  24.235  1.00 65.15 LIG-0.23  N 
ATOM     11  CZ  ARG C 760      15.525 -18.042  25.194  1.00 66.46 LIG 0.67  C 
ATOM     12  NH1 ARG C 760      16.441 -17.132  24.885  1.00 66.43 LIG-0.23  N 
ATOM     13  NH2 ARG C 760      15.257 -18.298  26.466  1.00 66.89 LIG-0.23  N 
ATOM     14 2HH1 ARG C 760      16.860 -16.714  25.509  1.00 66.43 LIG 0.17  HD
ATOM     15 1HH1 ARG C 760      16.615 -16.960  24.060  1.00 66.43 LIG 0.17  HD
ATOM     16 2HH2 ARG C 760      15.679 -17.879  27.087  1.00 66.89 LIG 0.17  HD
ATOM     17 1HH2 ARG C 760      14.663 -18.884  26.670  1.00 66.89 LIG 0.17  HD
ATOM     18 HE   ARG C 760      14.282 -19.269  24.472  1.00 65.15 LIG 0.18  HD
ENDBRANCH 9 10
ENDBRANCH 8 9
ENDBRANCH 7 8
ENDBRANCH 5 7
ENDBRANCH 1 5
BRANCH 3 19
ATOM     19  CA  GLY C 761      15.901 -13.637  23.043  1.00 62.83 LIG 0.23  C 
BRANCH 19 20
ATOM     20  C   GLY C 761      17.061 -13.857  24.002  1.00 67.24 LIG 0.24  C 
ATOM     21 O    GLY C 761      16.999 -14.716  24.881  1.00 65.14 LIG-0.27  OA
ATOM     22  N   THR C 762      18.112 -13.058  23.819  1.00 72.11 LIG-0.34  N 
ATOM     23 H    THR C 762      18.052 -12.302  23.416  1.00 72.11 LIG 0.16  HD
BRANCH 22 24
ATOM     24  CA  THR C 762      19.475 -13.361  24.270  1.00 75.13 LIG 0.21  C 
BRANCH 24 25
ATOM     25  C   THR C 762      19.935 -12.203  25.151  1.00 73.09 LIG 0.20  C 
ATOM     26 OXT  THR C 762      19.538 -11.063  24.920  1.00 76.95 LIG-0.65  OA
ATOM     27 O    THR C 762      20.698 -12.361  26.106  1.00 68.26 LIG-0.65  OA
ENDBRANCH 24 25
BRANCH 24 28
ATOM     28  CB  THR C 762      20.497 -13.554  23.127  1.00 77.67 LIG 0.15  C 
ATOM     29  CG2 THR C 762      21.273 -14.843  23.330  1.00 76.40 LIG 0.04  C 
BRANCH 28 30
ATOM     30 OG1  THR C 762      19.817 -13.616  21.868  1.00 80.43 LIG-0.39  OA
ATOM     31 HG1  THR C 762      18.987 -13.605  21.997  1.00 80.43 LIG 0.21  HD
ENDBRANCH 28 30
ENDBRANCH 24 28
ENDBRANCH 22 24
ENDBRANCH 19 20
ENDBRANCH 3 19
TORSDOF 11
ENDMDL
MODEL 70
USER: ADFR SOLUTION from run 76
USER: SCORE 7.619866 LL:  -1.051 LR:  -6.801 RR:   0.000 FEB:  -3.520
USER: RMSD 8.196333
USER: SEED 75
USER: STATUS no improvement in best in 37 clusters for 5 generations
USER: GENES 13
USER: genes 0 Translation |==|  0.45531 0.61735 0.68834
USER: genes 1 Rotation |==|  0.33531 0.06085 0.66127 0.56342
USER: genes 2 Torsion [N]-C--CA-[N] |==|  0.59555
USER: genes 3 Torsion [C]-CA--CB-[CG] |==|  0.26466
USER: genes 4 Torsion [CA]-CB--CG-[CD] |==|  0.06056
USER: genes 5 Torsion [CB]-CG--CD-[NE] |==|  0.76717
USER: genes 6 Torsion [CG]-CD--NE-[CZ] |==|  0.73053
USER: genes 7 Torsion [C]-N--CA-[C] |==|  0.67778
USER: genes 8 Torsion [N]-CA--C-[N] |==|  0.58040
USER: genes 9 Torsion [C]-N--CA-[C] |==|  0.46278
USER: genes 10 Torsion [N]-CA--C-[OXT] |==|  0.91647
USER: genes 11 Torsion [N]-CA--CB-[OG1] |==|  0.76161
USER: genes 12 Torsion [CA]-CB--OG1-[HG1] |==|  0.12634
ROOT
ATOM      1  C   ARG C 760      16.517 -15.510  21.905  1.00 56.34 LIG 0.26  C 
ATOM      2 O    ARG C 760      17.349 -15.971  21.129  1.00 53.76 LIG-0.27  OA
ATOM      3  N   GLY C 761      15.223 -15.807  21.833  1.00 59.89 LIG-0.35  N 
ATOM      4 H    GLY C 761      14.604 -15.352  22.220  1.00 59.89 LIG 0.16  HD
ENDROOT
BRANCH 1 5
ATOM      5  CA  ARG C 760      16.940 -14.545  23.013  1.00 61.16 LIG 0.40  C 
ATOM      6  N   ARG C 760      18.045 -13.708  22.547  1.00 59.95 LIG 0.61  N 
BRANCH 5 7
ATOM      7  CB  ARG C 760      15.770 -13.675  23.471  1.00 63.40 LIG 0.05  C 
BRANCH 7 8
ATOM      8  CG  ARG C 760      15.040 -14.205  24.689  1.00 63.69 LIG 0.02  C 
BRANCH 8 9
ATOM      9  CD  ARG C 760      15.922 -15.153  25.484  1.00 63.30 LIG 0.14  C 
BRANCH 9 10
ATOM     10  NE  ARG C 760      15.881 -16.508  24.940  1.00 65.15 LIG-0.23  N 
ATOM     11  CZ  ARG C 760      15.105 -17.482  25.405  1.00 66.46 LIG 0.67  C 
ATOM     12  NH1 ARG C 760      14.288 -17.259  26.426  1.00 66.43 LIG-0.23  N 
ATOM     13  NH2 ARG C 760      15.142 -18.682  24.843  1.00 66.89 LIG-0.23  N 
ATOM     14 2HH1 ARG C 760      13.788 -17.892  26.723  1.00 66.43 LIG 0.17  HD
ATOM     15 1HH1 ARG C 760      14.258 -16.480  26.792  1.00 66.43 LIG 0.17  HD
ATOM     16 2HH2 ARG C 760      14.641 -19.312  25.143  1.00 66.89 LIG 0.17  HD
ATOM     17 1HH2 ARG C 760      15.668 -18.829  24.179  1.00 66.89 LIG 0.17  HD
ATOM     18 HE   ARG C 760      16.394 -16.687  24.273  1.00 65.15 LIG 0.18  HD
ENDBRANCH 9 10
ENDBRANCH 8 9
ENDBRANCH 7 8
ENDBRANCH 5 7
ENDBRANCH 1 5
BRANCH 3 19
ATOM     19  CA  GLY C 761      14.744 -16.952  21.077  1.00 62.83 LIG 0.23  C 
BRANCH 19 20
ATOM     20  C   GLY C 761      13.848 -16.764  19.863  1.00 67.24 LIG 0.24  C 
ATOM     21 O    GLY C 761      13.913 -15.741  19.182  1.00 65.14 LIG-0.27  OA
ATOM     22  N   THR C 762      13.007 -17.768  19.613  1.00 72.11 LIG-0.34  N 
ATOM     23 H    THR C 762      12.765 -18.328  20.219  1.00 72.11 LIG 0.16  HD
BRANCH 22 24
ATOM     24  CA  THR C 762      12.403 -18.040  18.304  1.00 75.13 LIG 0.21  C 
BRANCH 24 25
ATOM     25  C   THR C 762      11.792 -19.437  18.362  1.00 73.09 LIG 0.20  C 
ATOM     26 OXT  THR C 762      12.290 -20.293  19.090  1.00 76.95 LIG-0.65  OA
ATOM     27 O    THR C 762      10.799 -19.753  17.705  1.00 68.26 LIG-0.65  OA
ENDBRANCH 24 25
BRANCH 24 28
ATOM     28  CB  THR C 762      13.393 -17.979  17.120  1.00 77.67 LIG 0.15  C 
ATOM     29  CG2 THR C 762      12.898 -18.849  15.977  1.00 76.40 LIG 0.04  C 
BRANCH 28 30
ATOM     30 OG1  THR C 762      13.518 -16.631  16.655  1.00 80.43 LIG-0.39  OA
ATOM     31 HG1  THR C 762      13.608 -16.116  17.312  1.00 80.43 LIG 0.21  HD
ENDBRANCH 28 30
ENDBRANCH 24 28
ENDBRANCH 22 24
ENDBRANCH 19 20
ENDBRANCH 3 19
TORSDOF 11
ENDMDL
MODEL 71
USER: ADFR SOLUTION from run 192
USER: SCORE 7.348376 LL:  -0.795 LR:  -6.778 RR:   0.000 FEB:  -3.497
USER: RMSD 8.822285
USER: SEED 191
USER: STATUS no improvement in best in 26 clusters for 5 generations
USER: GENES 13
USER: genes 0 Translation |==|  0.40192 0.65535 0.73558
USER: genes 1 Rotation |==|  0.37470 0.67855 0.81709 0.81917
USER: genes 2 Torsion [N]-C--CA-[N] |==|  0.17382
USER: genes 3 Torsion [C]-CA--CB-[CG] |==|  0.59483
USER: genes 4 Torsion [CA]-CB--CG-[CD] |==|  0.51192
USER: genes 5 Torsion [CB]-CG--CD-[NE] |==|  0.77508
USER: genes 6 Torsion [CG]-CD--NE-[CZ] |==|  0.73382
USER: genes 7 Torsion [C]-N--CA-[C] |==|  0.25000
USER: genes 8 Torsion [N]-CA--C-[N] |==|  0.40386
USER: genes 9 Torsion [C]-N--CA-[C] |==|  0.52710
USER: genes 10 Torsion [N]-CA--C-[OXT] |==|  0.08253
USER: genes 11 Torsion [N]-CA--CB-[OG1] |==|  0.00254
USER: genes 12 Torsion [CA]-CB--OG1-[HG1] |==|  0.81478
ROOT
ATOM      1  C   ARG C 760      15.596 -15.025  22.861  1.00 56.34 LIG 0.26  C 
ATOM      2 O    ARG C 760      15.069 -15.223  23.952  1.00 53.76 LIG-0.27  OA
ATOM      3  N   GLY C 761      16.413 -14.002  22.631  1.00 59.89 LIG-0.35  N 
ATOM      4 H    GLY C 761      16.628 -13.726  21.845  1.00 59.89 LIG 0.16  HD
ENDROOT
BRANCH 1 5
ATOM      5  CA  ARG C 760      15.326 -15.966  21.687  1.00 61.16 LIG 0.40  C 
ATOM      6  N   ARG C 760      16.570 -16.609  21.269  1.00 59.95 LIG 0.61  N 
BRANCH 5 7
ATOM      7  CB  ARG C 760      14.277 -17.019  22.047  1.00 63.40 LIG 0.05  C 
BRANCH 7 8
ATOM      8  CG  ARG C 760      14.501 -18.369  21.395  1.00 63.69 LIG 0.02  C 
BRANCH 8 9
ATOM      9  CD  ARG C 760      13.364 -19.325  21.716  1.00 63.30 LIG 0.14  C 
BRANCH 9 10
ATOM     10  NE  ARG C 760      13.527 -19.928  23.036  1.00 65.15 LIG-0.23  N 
ATOM     11  CZ  ARG C 760      14.081 -21.117  23.257  1.00 66.46 LIG 0.67  C 
ATOM     12  NH1 ARG C 760      14.540 -21.841  22.244  1.00 66.43 LIG-0.23  N 
ATOM     13  NH2 ARG C 760      14.180 -21.580  24.494  1.00 66.89 LIG-0.23  N 
ATOM     14 2HH1 ARG C 760      14.898 -22.609  22.392  1.00 66.43 LIG 0.17  HD
ATOM     15 1HH1 ARG C 760      14.480 -21.542  21.439  1.00 66.43 LIG 0.17  HD
ATOM     16 2HH2 ARG C 760      14.539 -22.348  24.638  1.00 66.89 LIG 0.17  HD
ATOM     17 1HH2 ARG C 760      13.887 -21.112  25.153  1.00 66.89 LIG 0.17  HD
ATOM     18 HE   ARG C 760      13.246 -19.484  23.717  1.00 65.15 LIG 0.18  HD
ENDBRANCH 9 10
ENDBRANCH 8 9
ENDBRANCH 7 8
ENDBRANCH 5 7
ENDBRANCH 1 5
BRANCH 3 19
ATOM     19  CA  GLY C 761      17.022 -13.253  23.718  1.00 62.83 LIG 0.23  C 
BRANCH 19 20
ATOM     20  C   GLY C 761      18.369 -13.669  24.292  1.00 67.24 LIG 0.24  C 
ATOM     21 O    GLY C 761      18.681 -14.857  24.373  1.00 65.14 LIG-0.27  OA
ATOM     22  N   THR C 762      19.151 -12.668  24.693  1.00 72.11 LIG-0.34  N 
ATOM     23 H    THR C 762      18.841 -11.893  24.897  1.00 72.11 LIG 0.16  HD
BRANCH 22 24
ATOM     24  CA  THR C 762      20.609 -12.758  24.833  1.00 75.13 LIG 0.21  C 
BRANCH 24 25
ATOM     25  C   THR C 762      21.081 -11.491  25.541  1.00 73.09 LIG 0.20  C 
ATOM     26 OXT  THR C 762      20.336 -10.920  26.335  1.00 76.95 LIG-0.65  OA
ATOM     27 O    THR C 762      22.198 -11.006  25.355  1.00 68.26 LIG-0.65  OA
ENDBRANCH 24 25
BRANCH 24 28
ATOM     28  CB  THR C 762      21.371 -12.894  23.496  1.00 77.67 LIG 0.15  C 
ATOM     29  CG2 THR C 762      22.147 -14.199  23.466  1.00 76.40 LIG 0.04  C 
BRANCH 28 30
ATOM     30 OG1  THR C 762      20.447 -12.880  22.402  1.00 80.43 LIG-0.39  OA
ATOM     31 HG1  THR C 762      19.970 -13.570  22.430  1.00 80.43 LIG 0.21  HD
ENDBRANCH 28 30
ENDBRANCH 24 28
ENDBRANCH 22 24
ENDBRANCH 19 20
ENDBRANCH 3 19
TORSDOF 11
ENDMDL
MODEL 72
USER: ADFR SOLUTION from run 77
USER: SCORE 8.068489 LL:  -1.388 LR:  -6.763 RR:   0.000 FEB:  -3.482
USER: RMSD 6.650832
USER: SEED 76
USER: STATUS no improvement in best in 38 clusters for 5 generations
USER: GENES 13
USER: genes 0 Translation |==|  0.44734 0.56055 0.65110
USER: genes 1 Rotation |==|  0.58798 0.49976 0.00784 0.50646
USER: genes 2 Torsion [N]-C--CA-[N] |==|  0.39960
USER: genes 3 Torsion [C]-CA--CB-[CG] |==|  0.36122
USER: genes 4 Torsion [CA]-CB--CG-[CD] |==|  0.73236
USER: genes 5 Torsion [CB]-CG--CD-[NE] |==|  0.04971
USER: genes 6 Torsion [CG]-CD--NE-[CZ] |==|  0.73353
USER: genes 7 Torsion [C]-N--CA-[C] |==|  0.16668
USER: genes 8 Torsion [N]-CA--C-[N] |==|  0.08291
USER: genes 9 Torsion [C]-N--CA-[C] |==|  0.28040
USER: genes 10 Torsion [N]-CA--C-[OXT] |==|  0.44760
USER: genes 11 Torsion [N]-CA--CB-[OG1] |==|  0.60628
USER: genes 12 Torsion [CA]-CB--OG1-[HG1] |==|  0.83343
ROOT
ATOM      1  C   ARG C 760      16.380 -16.234  21.151  1.00 56.34 LIG 0.26  C 
ATOM      2 O    ARG C 760      17.119 -16.863  21.901  1.00 53.76 LIG-0.27  OA
ATOM      3  N   GLY C 761      15.370 -15.490  21.592  1.00 59.89 LIG-0.35  N 
ATOM      4 H    GLY C 761      14.726 -15.212  21.095  1.00 59.89 LIG 0.16  HD
ENDROOT
BRANCH 1 5
ATOM      5  CA  ARG C 760      16.587 -16.282  19.637  1.00 61.16 LIG 0.40  C 
ATOM      6  N   ARG C 760      18.016 -16.334  19.333  1.00 59.95 LIG 0.61  N 
BRANCH 5 7
ATOM      7  CB  ARG C 760      15.867 -17.477  19.013  1.00 63.40 LIG 0.05  C 
BRANCH 7 8
ATOM      8  CG  ARG C 760      15.002 -17.129  17.818  1.00 63.69 LIG 0.02  C 
BRANCH 8 9
ATOM      9  CD  ARG C 760      13.552 -16.940  18.232  1.00 63.30 LIG 0.14  C 
BRANCH 9 10
ATOM     10  NE  ARG C 760      13.427 -16.724  19.670  1.00 65.15 LIG-0.23  N 
ATOM     11  CZ  ARG C 760      13.154 -17.679  20.553  1.00 66.46 LIG 0.67  C 
ATOM     12  NH1 ARG C 760      12.981 -18.933  20.153  1.00 66.43 LIG-0.23  N 
ATOM     13  NH2 ARG C 760      13.058 -17.381  21.841  1.00 66.89 LIG-0.23  N 
ATOM     14 2HH1 ARG C 760      12.805 -19.547  20.729  1.00 66.43 LIG 0.17  HD
ATOM     15 1HH1 ARG C 760      13.046 -19.131  19.319  1.00 66.43 LIG 0.17  HD
ATOM     16 2HH2 ARG C 760      12.882 -17.998  22.413  1.00 66.89 LIG 0.17  HD
ATOM     17 1HH2 ARG C 760      13.172 -16.571  22.104  1.00 66.89 LIG 0.17  HD
ATOM     18 HE   ARG C 760      13.538 -15.924  19.966  1.00 65.15 LIG 0.18  HD
ENDBRANCH 9 10
ENDBRANCH 8 9
ENDBRANCH 7 8
ENDBRANCH 5 7
ENDBRANCH 1 5
BRANCH 3 19
ATOM     19  CA  GLY C 761      15.277 -15.079  22.983  1.00 62.83 LIG 0.23  C 
BRANCH 19 20
ATOM     20  C   GLY C 761      16.371 -14.237  23.622  1.00 67.24 LIG 0.24  C 
ATOM     21 O    GLY C 761      16.611 -14.322  24.826  1.00 65.14 LIG-0.27  OA
ATOM     22  N   THR C 762      17.020 -13.421  22.793  1.00 72.11 LIG-0.34  N 
ATOM     23 H    THR C 762      16.683 -13.158  22.047  1.00 72.11 LIG 0.16  HD
BRANCH 22 24
ATOM     24  CA  THR C 762      18.362 -12.881  23.039  1.00 75.13 LIG 0.21  C 
BRANCH 24 25
ATOM     25  C   THR C 762      19.348 -13.705  22.216  1.00 73.09 LIG 0.20  C 
ATOM     26 OXT  THR C 762      20.466 -13.256  21.971  1.00 76.95 LIG-0.65  OA
ATOM     27 O    THR C 762      19.073 -14.824  21.781  1.00 68.26 LIG-0.65  OA
ENDBRANCH 24 25
BRANCH 24 28
ATOM     28  CB  THR C 762      18.801 -12.915  24.521  1.00 77.67 LIG 0.15  C 
ATOM     29  CG2 THR C 762      19.680 -14.126  24.779  1.00 76.40 LIG 0.04  C 
BRANCH 28 30
ATOM     30 OG1  THR C 762      19.538 -11.731  24.841  1.00 80.43 LIG-0.39  OA
ATOM     31 HG1  THR C 762      20.219 -11.684  24.352  1.00 80.43 LIG 0.21  HD
ENDBRANCH 28 30
ENDBRANCH 24 28
ENDBRANCH 22 24
ENDBRANCH 19 20
ENDBRANCH 3 19
TORSDOF 11
ENDMDL
MODEL 73
USER: ADFR SOLUTION from run 31
USER: SCORE 8.054914 LL:  -1.711 LR:  -6.746 RR:   0.000 FEB:  -3.465
USER: RMSD 7.512347
USER: SEED 30
USER: STATUS no improvement in best in 15 clusters for 5 generations
USER: GENES 13
USER: genes 0 Translation |==|  0.53866 0.54812 0.57599
USER: genes 1 Rotation |==|  0.22746 0.61460 0.15940 0.71582
USER: genes 2 Torsion [N]-C--CA-[N] |==|  0.81997
USER: genes 3 Torsion [C]-CA--CB-[CG] |==|  0.76899
USER: genes 4 Torsion [CA]-CB--CG-[CD] |==|  0.40388
USER: genes 5 Torsion [CB]-CG--CD-[NE] |==|  0.88809
USER: genes 6 Torsion [CG]-CD--NE-[CZ] |==|  0.52329
USER: genes 7 Torsion [C]-N--CA-[C] |==|  0.30144
USER: genes 8 Torsion [N]-CA--C-[N] |==|  0.32780
USER: genes 9 Torsion [C]-N--CA-[C] |==|  0.80383
USER: genes 10 Torsion [N]-CA--C-[OXT] |==|  0.79726
USER: genes 11 Torsion [N]-CA--CB-[OG1] |==|  0.13791
USER: genes 12 Torsion [CA]-CB--OG1-[HG1] |==|  0.06005
ROOT
ATOM      1  C   ARG C 760      17.955 -16.392  19.630  1.00 56.34 LIG 0.26  C 
ATOM      2 O    ARG C 760      18.630 -15.877  18.744  1.00 53.76 LIG-0.27  OA
ATOM      3  N   GLY C 761      18.385 -16.521  20.881  1.00 59.89 LIG-0.35  N 
ATOM      4 H    GLY C 761      18.030 -17.049  21.459  1.00 59.89 LIG 0.16  HD
ENDROOT
BRANCH 1 5
ATOM      5  CA  ARG C 760      16.556 -16.930  19.326  1.00 61.16 LIG 0.40  C 
ATOM      6  N   ARG C 760      16.531 -18.380  19.504  1.00 59.95 LIG 0.61  N 
BRANCH 5 7
ATOM      7  CB  ARG C 760      15.500 -16.267  20.211  1.00 63.40 LIG 0.05  C 
BRANCH 7 8
ATOM      8  CG  ARG C 760      15.360 -16.889  21.586  1.00 63.69 LIG 0.02  C 
BRANCH 8 9
ATOM      9  CD  ARG C 760      15.031 -15.835  22.630  1.00 63.30 LIG 0.14  C 
BRANCH 9 10
ATOM     10  NE  ARG C 760      15.789 -14.606  22.411  1.00 65.15 LIG-0.23  N 
ATOM     11  CZ  ARG C 760      15.822 -13.582  23.257  1.00 66.46 LIG 0.67  C 
ATOM     12  NH1 ARG C 760      15.144 -13.631  24.397  1.00 66.43 LIG-0.23  N 
ATOM     13  NH2 ARG C 760      16.539 -12.506  22.965  1.00 66.89 LIG-0.23  N 
ATOM     14 2HH1 ARG C 760      15.169 -12.966  24.941  1.00 66.43 LIG 0.17  HD
ATOM     15 1HH1 ARG C 760      14.680 -14.329  24.592  1.00 66.43 LIG 0.17  HD
ATOM     16 2HH2 ARG C 760      16.561 -11.843  23.512  1.00 66.89 LIG 0.17  HD
ATOM     17 1HH2 ARG C 760      16.982 -12.472  22.229  1.00 66.89 LIG 0.17  HD
ATOM     18 HE   ARG C 760      16.245 -14.542  21.685  1.00 65.15 LIG 0.18  HD
ENDBRANCH 9 10
ENDBRANCH 8 9
ENDBRANCH 7 8
ENDBRANCH 5 7
ENDBRANCH 1 5
BRANCH 3 19
ATOM     19  CA  GLY C 761      19.518 -15.758  21.379  1.00 62.83 LIG 0.23  C 
BRANCH 19 20
ATOM     20  C   GLY C 761      19.318 -14.625  22.374  1.00 67.24 LIG 0.24  C 
ATOM     21 O    GLY C 761      18.656 -13.632  22.074  1.00 65.14 LIG-0.27  OA
ATOM     22  N   THR C 762      19.908 -14.792  23.557  1.00 72.11 LIG-0.34  N 
ATOM     23 H    THR C 762      20.577 -15.321  23.668  1.00 72.11 LIG 0.16  HD
BRANCH 22 24
ATOM     24  CA  THR C 762      19.503 -14.113  24.792  1.00 75.13 LIG 0.21  C 
BRANCH 24 25
ATOM     25  C   THR C 762      19.885 -12.642  24.655  1.00 73.09 LIG 0.20  C 
ATOM     26 OXT  THR C 762      21.066 -12.308  24.724  1.00 76.95 LIG-0.65  OA
ATOM     27 O    THR C 762      19.050 -11.756  24.468  1.00 68.26 LIG-0.65  OA
ENDBRANCH 24 25
BRANCH 24 28
ATOM     28  CB  THR C 762      20.154 -14.679  26.074  1.00 77.67 LIG 0.15  C 
ATOM     29  CG2 THR C 762      19.592 -16.055  26.384  1.00 76.40 LIG 0.04  C 
BRANCH 28 30
ATOM     30 OG1  THR C 762      21.571 -14.788  25.896  1.00 80.43 LIG-0.39  OA
ATOM     31 HG1  THR C 762      21.816 -14.271  25.281  1.00 80.43 LIG 0.21  HD
ENDBRANCH 28 30
ENDBRANCH 24 28
ENDBRANCH 22 24
ENDBRANCH 19 20
ENDBRANCH 3 19
TORSDOF 11
ENDMDL
MODEL 74
USER: ADFR SOLUTION from run 122
USER: SCORE 7.260793 LL:  -1.111 LR:  -6.736 RR:   0.000 FEB:  -3.455
USER: RMSD 7.468678
USER: SEED 121
USER: STATUS no improvement in best in 22 clusters for 5 generations
USER: GENES 13
USER: genes 0 Translation |==|  0.52248 0.53708 0.65603
USER: genes 1 Rotation |==|  0.16736 0.22758 0.73241 0.60547
USER: genes 2 Torsion [N]-C--CA-[N] |==|  0.61489
USER: genes 3 Torsion [C]-CA--CB-[CG] |==|  0.35874
USER: genes 4 Torsion [CA]-CB--CG-[CD] |==|  0.66096
USER: genes 5 Torsion [CB]-CG--CD-[NE] |==|  0.04980
USER: genes 6 Torsion [CG]-CD--NE-[CZ] |==|  0.32270
USER: genes 7 Torsion [C]-N--CA-[C] |==|  0.76441
USER: genes 8 Torsion [N]-CA--C-[N] |==|  0.21454
USER: genes 9 Torsion [C]-N--CA-[C] |==|  0.17513
USER: genes 10 Torsion [N]-CA--C-[OXT] |==|  0.10113
USER: genes 11 Torsion [N]-CA--CB-[OG1] |==|  0.22657
USER: genes 12 Torsion [CA]-CB--OG1-[HG1] |==|  0.19270
ROOT
ATOM      1  C   ARG C 760      17.676 -16.533  21.251  1.00 56.34 LIG 0.26  C 
ATOM      2 O    ARG C 760      17.663 -17.705  20.886  1.00 53.76 LIG-0.27  OA
ATOM      3  N   GLY C 761      16.605 -15.748  21.189  1.00 59.89 LIG-0.35  N 
ATOM      4 H    GLY C 761      16.635 -14.890  21.241  1.00 59.89 LIG 0.16  HD
ENDROOT
BRANCH 1 5
ATOM      5  CA  ARG C 760      18.957 -15.906  21.801  1.00 61.16 LIG 0.40  C 
ATOM      6  N   ARG C 760      20.104 -16.342  21.007  1.00 59.95 LIG 0.61  N 
BRANCH 5 7
ATOM      7  CB  ARG C 760      18.868 -14.380  21.815  1.00 63.40 LIG 0.05  C 
BRANCH 7 8
ATOM      8  CG  ARG C 760      19.228 -13.747  23.145  1.00 63.69 LIG 0.02  C 
BRANCH 8 9
ATOM      9  CD  ARG C 760      18.079 -12.907  23.677  1.00 63.30 LIG 0.14  C 
BRANCH 9 10
ATOM     10  NE  ARG C 760      16.817 -13.247  23.025  1.00 65.15 LIG-0.23  N 
ATOM     11  CZ  ARG C 760      15.765 -13.767  23.648  1.00 66.46 LIG 0.67  C 
ATOM     12  NH1 ARG C 760      15.808 -14.006  24.953  1.00 66.43 LIG-0.23  N 
ATOM     13  NH2 ARG C 760      14.663 -14.044  22.966  1.00 66.89 LIG-0.23  N 
ATOM     14 2HH1 ARG C 760      15.125 -14.342  25.352  1.00 66.43 LIG 0.17  HD
ATOM     15 1HH1 ARG C 760      16.521 -13.824  25.400  1.00 66.43 LIG 0.17  HD
ATOM     16 2HH2 ARG C 760      13.982 -14.380  23.368  1.00 66.89 LIG 0.17  HD
ATOM     17 1HH2 ARG C 760      14.630 -13.887  22.122  1.00 66.89 LIG 0.17  HD
ATOM     18 HE   ARG C 760      16.751 -13.100  22.180  1.00 65.15 LIG 0.18  HD
ENDBRANCH 9 10
ENDBRANCH 8 9
ENDBRANCH 7 8
ENDBRANCH 5 7
ENDBRANCH 1 5
BRANCH 3 19
ATOM     19  CA  GLY C 761      15.267 -16.294  21.025  1.00 62.83 LIG 0.23  C 
BRANCH 19 20
ATOM     20  C   GLY C 761      14.724 -16.623  19.643  1.00 67.24 LIG 0.24  C 
ATOM     21 O    GLY C 761      13.913 -15.880  19.090  1.00 65.14 LIG-0.27  OA
ATOM     22  N   THR C 762      15.182 -17.752  19.103  1.00 72.11 LIG-0.34  N 
ATOM     23 H    THR C 762      15.509 -18.390  19.577  1.00 72.11 LIG 0.16  HD
BRANCH 22 24
ATOM     24  CA  THR C 762      15.188 -18.044  17.665  1.00 75.13 LIG 0.21  C 
BRANCH 24 25
ATOM     25  C   THR C 762      16.097 -17.019  16.992  1.00 73.09 LIG 0.20  C 
ATOM     26 OXT  THR C 762      17.114 -16.634  17.565  1.00 76.95 LIG-0.65  OA
ATOM     27 O    THR C 762      15.858 -16.555  15.876  1.00 68.26 LIG-0.65  OA
ENDBRANCH 24 25
BRANCH 24 28
ATOM     28  CB  THR C 762      13.795 -17.988  16.998  1.00 77.67 LIG 0.15  C 
ATOM     29  CG2 THR C 762      12.745 -18.568  17.929  1.00 76.40 LIG 0.04  C 
BRANCH 28 30
ATOM     30 OG1  THR C 762      13.450 -16.631  16.698  1.00 80.43 LIG-0.39  OA
ATOM     31 HG1  THR C 762      13.942 -16.347  16.080  1.00 80.43 LIG 0.21  HD
ENDBRANCH 28 30
ENDBRANCH 24 28
ENDBRANCH 22 24
ENDBRANCH 19 20
ENDBRANCH 3 19
TORSDOF 11
ENDMDL
MODEL 75
USER: ADFR SOLUTION from run 84
USER: SCORE 7.767111 LL:  -1.430 LR:  -6.736 RR:   0.000 FEB:  -3.455
USER: RMSD 8.867846
USER: SEED 83
USER: STATUS no improvement in best in 42 clusters for 5 generations
USER: GENES 13
USER: genes 0 Translation |==|  0.36957 0.69568 0.76671
USER: genes 1 Rotation |==|  0.32434 0.78072 0.76110 0.76864
USER: genes 2 Torsion [N]-C--CA-[N] |==|  0.98714
USER: genes 3 Torsion [C]-CA--CB-[CG] |==|  0.95519
USER: genes 4 Torsion [CA]-CB--CG-[CD] |==|  0.42025
USER: genes 5 Torsion [CB]-CG--CD-[NE] |==|  0.04576
USER: genes 6 Torsion [CG]-CD--NE-[CZ] |==|  0.29166
USER: genes 7 Torsion [C]-N--CA-[C] |==|  0.29101
USER: genes 8 Torsion [N]-CA--C-[N] |==|  0.08838
USER: genes 9 Torsion [C]-N--CA-[C] |==|  0.59258
USER: genes 10 Torsion [N]-CA--C-[OXT] |==|  0.78082
USER: genes 11 Torsion [N]-CA--CB-[OG1] |==|  0.12425
USER: genes 12 Torsion [CA]-CB--OG1-[HG1] |==|  0.13789
ROOT
ATOM      1  C   ARG C 760      15.038 -14.511  23.492  1.00 56.34 LIG 0.26  C 
ATOM      2 O    ARG C 760      14.686 -14.098  24.592  1.00 53.76 LIG-0.27  OA
ATOM      3  N   GLY C 761      15.815 -13.808  22.673  1.00 59.89 LIG-0.35  N 
ATOM      4 H    GLY C 761      15.906 -13.977  21.835  1.00 59.89 LIG 0.16  HD
ENDROOT
BRANCH 1 5
ATOM      5  CA  ARG C 760      14.584 -15.885  22.997  1.00 61.16 LIG 0.40  C 
ATOM      6  N   ARG C 760      15.038 -16.093  21.623  1.00 59.95 LIG 0.61  N 
BRANCH 5 7
ATOM      7  CB  ARG C 760      15.101 -17.002  23.903  1.00 63.40 LIG 0.05  C 
BRANCH 7 8
ATOM      8  CG  ARG C 760      16.227 -16.584  24.827  1.00 63.69 LIG 0.02  C 
BRANCH 8 9
ATOM      9  CD  ARG C 760      16.222 -17.411  26.102  1.00 63.30 LIG 0.14  C 
BRANCH 9 10
ATOM     10  NE  ARG C 760      15.413 -18.618  25.956  1.00 65.15 LIG-0.23  N 
ATOM     11  CZ  ARG C 760      15.910 -19.843  25.809  1.00 66.46 LIG 0.67  C 
ATOM     12  NH1 ARG C 760      17.223 -20.037  25.794  1.00 66.43 LIG-0.23  N 
ATOM     13  NH2 ARG C 760      15.091 -20.877  25.681  1.00 66.89 LIG-0.23  N 
ATOM     14 2HH1 ARG C 760      17.539 -20.831  25.699  1.00 66.43 LIG 0.17  HD
ATOM     15 1HH1 ARG C 760      17.758 -19.368  25.881  1.00 66.43 LIG 0.17  HD
ATOM     16 2HH2 ARG C 760      15.412 -21.669  25.586  1.00 66.89 LIG 0.17  HD
ATOM     17 1HH2 ARG C 760      14.241 -20.755  25.693  1.00 66.89 LIG 0.17  HD
ATOM     18 HE   ARG C 760      14.558 -18.531  25.967  1.00 65.15 LIG 0.18  HD
ENDBRANCH 9 10
ENDBRANCH 8 9
ENDBRANCH 7 8
ENDBRANCH 5 7
ENDBRANCH 1 5
BRANCH 3 19
ATOM     19  CA  GLY C 761      16.589 -12.672  23.146  1.00 62.83 LIG 0.23  C 
BRANCH 19 20
ATOM     20  C   GLY C 761      18.092 -12.784  23.351  1.00 67.24 LIG 0.24  C 
ATOM     21 O    GLY C 761      18.660 -12.131  24.225  1.00 65.14 LIG-0.27  OA
ATOM     22  N   THR C 762      18.720 -13.619  22.523  1.00 72.11 LIG-0.34  N 
ATOM     23 H    THR C 762      18.392 -13.847  21.762  1.00 72.11 LIG 0.16  HD
BRANCH 22 24
ATOM     24  CA  THR C 762      20.020 -14.241  22.798  1.00 75.13 LIG 0.21  C 
BRANCH 24 25
ATOM     25  C   THR C 762      20.751 -14.386  21.467  1.00 73.09 LIG 0.20  C 
ATOM     26 OXT  THR C 762      20.459 -15.305  20.705  1.00 76.95 LIG-0.65  OA
ATOM     27 O    THR C 762      21.634 -13.605  21.109  1.00 68.26 LIG-0.65  OA
ENDBRANCH 24 25
BRANCH 24 28
ATOM     28  CB  THR C 762      19.932 -15.630  23.470  1.00 77.67 LIG 0.15  C 
ATOM     29  CG2 THR C 762      19.565 -15.479  24.937  1.00 76.40 LIG 0.04  C 
BRANCH 28 30
ATOM     30 OG1  THR C 762      18.933 -16.425  22.823  1.00 80.43 LIG-0.39  OA
ATOM     31 HG1  THR C 762      19.054 -16.406  21.992  1.00 80.43 LIG 0.21  HD
ENDBRANCH 28 30
ENDBRANCH 24 28
ENDBRANCH 22 24
ENDBRANCH 19 20
ENDBRANCH 3 19
TORSDOF 11
ENDMDL
MODEL 76
USER: ADFR SOLUTION from run 50
USER: SCORE 8.167509 LL:  -1.909 LR:  -6.741 RR:   0.000 FEB:  -3.460
USER: RMSD 8.955447
USER: SEED 49
USER: STATUS no improvement in best in 24 clusters for 5 generations
USER: GENES 13
USER: genes 0 Translation |==|  0.38624 0.69549 0.84893
USER: genes 1 Rotation |==|  0.93611 0.26254 0.53548 0.54644
USER: genes 2 Torsion [N]-C--CA-[N] |==|  0.43849
USER: genes 3 Torsion [C]-CA--CB-[CG] |==|  0.20896
USER: genes 4 Torsion [CA]-CB--CG-[CD] |==|  0.54084
USER: genes 5 Torsion [CB]-CG--CD-[NE] |==|  0.20780
USER: genes 6 Torsion [CG]-CD--NE-[CZ] |==|  0.30659
USER: genes 7 Torsion [C]-N--CA-[C] |==|  0.77171
USER: genes 8 Torsion [N]-CA--C-[N] |==|  0.13379
USER: genes 9 Torsion [C]-N--CA-[C] |==|  0.17544
USER: genes 10 Torsion [N]-CA--C-[OXT] |==|  0.51323
USER: genes 11 Torsion [N]-CA--CB-[OG1] |==|  0.89627
USER: genes 12 Torsion [CA]-CB--OG1-[HG1] |==|  0.01527
ROOT
ATOM      1  C   ARG C 760      15.326 -14.514  25.157  1.00 56.34 LIG 0.26  C 
ATOM      2 O    ARG C 760      14.288 -14.199  24.582  1.00 53.76 LIG-0.27  OA
ATOM      3  N   GLY C 761      16.416 -14.912  24.508  1.00 59.89 LIG-0.35  N 
ATOM      4 H    GLY C 761      17.071 -15.325  24.881  1.00 59.89 LIG 0.16  HD
ENDROOT
BRANCH 1 5
ATOM      5  CA  ARG C 760      15.413 -14.465  26.683  1.00 61.16 LIG 0.40  C 
ATOM      6  N   ARG C 760      14.401 -13.551  27.209  1.00 59.95 LIG 0.61  N 
BRANCH 5 7
ATOM      7  CB  ARG C 760      15.245 -15.856  27.295  1.00 63.40 LIG 0.05  C 
BRANCH 7 8
ATOM      8  CG  ARG C 760      16.461 -16.749  27.152  1.00 63.69 LIG 0.02  C 
BRANCH 8 9
ATOM      9  CD  ARG C 760      16.110 -18.198  27.449  1.00 63.30 LIG 0.14  C 
BRANCH 9 10
ATOM     10  NE  ARG C 760      15.361 -18.805  26.351  1.00 65.15 LIG-0.23  N 
ATOM     11  CZ  ARG C 760      15.840 -19.748  25.546  1.00 66.46 LIG 0.67  C 
ATOM     12  NH1 ARG C 760      17.072 -20.210  25.712  1.00 66.43 LIG-0.23  N 
ATOM     13  NH2 ARG C 760      15.081 -20.234  24.574  1.00 66.89 LIG-0.23  N 
ATOM     14 2HH1 ARG C 760      17.377 -20.820  25.188  1.00 66.43 LIG 0.17  HD
ATOM     15 1HH1 ARG C 760      17.567 -19.899  26.344  1.00 66.43 LIG 0.17  HD
ATOM     16 2HH2 ARG C 760      15.389 -20.844  24.053  1.00 66.89 LIG 0.17  HD
ATOM     17 1HH2 ARG C 760      14.281 -19.940  24.466  1.00 66.89 LIG 0.17  HD
ATOM     18 HE   ARG C 760      14.556 -18.533  26.218  1.00 65.15 LIG 0.18  HD
ENDBRANCH 9 10
ENDBRANCH 8 9
ENDBRANCH 7 8
ENDBRANCH 5 7
ENDBRANCH 1 5
BRANCH 3 19
ATOM     19  CA  GLY C 761      16.586 -14.673  23.085  1.00 62.83 LIG 0.23  C 
BRANCH 19 20
ATOM     20  C   GLY C 761      15.950 -15.599  22.058  1.00 67.24 LIG 0.24  C 
ATOM     21 O    GLY C 761      16.604 -16.034  21.110  1.00 65.14 LIG-0.27  OA
ATOM     22  N   THR C 762      14.665 -15.881  22.263  1.00 72.11 LIG-0.34  N 
ATOM     23 H    THR C 762      14.151 -15.377  22.733  1.00 72.11 LIG 0.16  HD
BRANCH 22 24
ATOM     24  CA  THR C 762      13.976 -17.060  21.725  1.00 75.13 LIG 0.21  C 
BRANCH 24 25
ATOM     25  C   THR C 762      14.635 -18.294  22.334  1.00 73.09 LIG 0.20  C 
ATOM     26 OXT  THR C 762      14.289 -19.416  21.968  1.00 76.95 LIG-0.65  OA
ATOM     27 O    THR C 762      15.520 -18.219  23.188  1.00 68.26 LIG-0.65  OA
ENDBRANCH 24 25
BRANCH 24 28
ATOM     28  CB  THR C 762      14.024 -17.179  20.185  1.00 77.67 LIG 0.15  C 
ATOM     29  CG2 THR C 762      12.879 -18.045  19.691  1.00 76.40 LIG 0.04  C 
BRANCH 28 30
ATOM     30 OG1  THR C 762      13.913 -15.881  19.590  1.00 80.43 LIG-0.39  OA
ATOM     31 HG1  THR C 762      13.919 -15.296  20.192  1.00 80.43 LIG 0.21  HD
ENDBRANCH 28 30
ENDBRANCH 24 28
ENDBRANCH 22 24
ENDBRANCH 19 20
ENDBRANCH 3 19
TORSDOF 11
ENDMDL
MODEL 77
USER: ADFR SOLUTION from run 47
USER: SCORE 7.507587 LL:  -1.036 LR:  -6.743 RR:   0.000 FEB:  -3.462
USER: RMSD 7.504042
USER: SEED 46
USER: STATUS no improvement in best in 32 clusters for 5 generations
USER: GENES 13
USER: genes 0 Translation |==|  0.37189 0.54345 0.75282
USER: genes 1 Rotation |==|  0.80580 0.86279 0.49975 0.65770
USER: genes 2 Torsion [N]-C--CA-[N] |==|  0.43999
USER: genes 3 Torsion [C]-CA--CB-[CG] |==|  0.06079
USER: genes 4 Torsion [CA]-CB--CG-[CD] |==|  0.58857
USER: genes 5 Torsion [CB]-CG--CD-[NE] |==|  0.37355
USER: genes 6 Torsion [CG]-CD--NE-[CZ] |==|  0.60625
USER: genes 7 Torsion [C]-N--CA-[C] |==|  0.45670
USER: genes 8 Torsion [N]-CA--C-[N] |==|  0.52562
USER: genes 9 Torsion [C]-N--CA-[C] |==|  0.14671
USER: genes 10 Torsion [N]-CA--C-[OXT] |==|  0.12510
USER: genes 11 Torsion [N]-CA--CB-[OG1] |==|  0.22747
USER: genes 12 Torsion [CA]-CB--OG1-[HG1] |==|  0.90363
ROOT
ATOM      1  C   ARG C 760      15.078 -16.452  23.211  1.00 56.34 LIG 0.26  C 
ATOM      2 O    ARG C 760      15.912 -17.293  23.531  1.00 53.76 LIG-0.27  OA
ATOM      3  N   GLY C 761      14.704 -16.252  21.950  1.00 59.89 LIG-0.35  N 
ATOM      4 H    GLY C 761      14.288 -15.550  21.679  1.00 59.89 LIG 0.16  HD
ENDROOT
BRANCH 1 5
ATOM      5  CA  ARG C 760      14.419 -15.570  24.271  1.00 61.16 LIG 0.40  C 
ATOM      6  N   ARG C 760      14.515 -16.212  25.581  1.00 59.95 LIG 0.61  N 
BRANCH 5 7
ATOM      7  CB  ARG C 760      15.052 -14.180  24.312  1.00 63.40 LIG 0.05  C 
BRANCH 7 8
ATOM      8  CG  ARG C 760      15.771 -13.785  23.038  1.00 63.69 LIG 0.02  C 
BRANCH 8 9
ATOM      9  CD  ARG C 760      16.954 -12.879  23.338  1.00 63.30 LIG 0.14  C 
BRANCH 9 10
ATOM     10  NE  ARG C 760      18.144 -13.287  22.598  1.00 65.15 LIG-0.23  N 
ATOM     11  CZ  ARG C 760      19.380 -13.256  23.086  1.00 66.46 LIG 0.67  C 
ATOM     12  NH1 ARG C 760      19.601 -12.840  24.327  1.00 66.43 LIG-0.23  N 
ATOM     13  NH2 ARG C 760      20.398 -13.646  22.332  1.00 66.89 LIG-0.23  N 
ATOM     14 2HH1 ARG C 760      20.403 -12.822  24.638  1.00 66.43 LIG 0.17  HD
ATOM     15 1HH1 ARG C 760      18.943 -12.589  24.820  1.00 66.43 LIG 0.17  HD
ATOM     16 2HH2 ARG C 760      21.198 -13.626  22.647  1.00 66.89 LIG 0.17  HD
ATOM     17 1HH2 ARG C 760      20.259 -13.919  21.530  1.00 66.89 LIG 0.17  HD
ATOM     18 HE   ARG C 760      18.038 -13.568  21.792  1.00 65.15 LIG 0.18  HD
ENDBRANCH 9 10
ENDBRANCH 8 9
ENDBRANCH 7 8
ENDBRANCH 5 7
ENDBRANCH 1 5
BRANCH 3 19
ATOM     19  CA  GLY C 761      14.976 -17.229  20.910  1.00 62.83 LIG 0.23  C 
BRANCH 19 20
ATOM     20  C   GLY C 761      14.254 -17.166  19.573  1.00 67.24 LIG 0.24  C 
ATOM     21 O    GLY C 761      13.548 -16.200  19.282  1.00 65.14 LIG-0.27  OA
ATOM     22  N   THR C 762      14.439 -18.215  18.773  1.00 72.11 LIG-0.34  N 
ATOM     23 H    THR C 762      14.683 -18.984  19.071  1.00 72.11 LIG 0.16  HD
BRANCH 22 24
ATOM     24  CA  THR C 762      14.255 -18.195  17.318  1.00 75.13 LIG 0.21  C 
BRANCH 24 25
ATOM     25  C   THR C 762      15.085 -17.039  16.766  1.00 73.09 LIG 0.20  C 
ATOM     26 OXT  THR C 762      16.237 -16.870  17.161  1.00 76.95 LIG-0.65  OA
ATOM     27 O    THR C 762      14.649 -16.256  15.921  1.00 68.26 LIG-0.65  OA
ENDBRANCH 24 25
BRANCH 24 28
ATOM     28  CB  THR C 762      12.789 -18.017  16.863  1.00 77.67 LIG 0.15  C 
ATOM     29  CG2 THR C 762      11.858 -18.788  17.782  1.00 76.40 LIG 0.04  C 
BRANCH 28 30
ATOM     30 OG1  THR C 762      12.430 -16.631  16.898  1.00 80.43 LIG-0.39  OA
ATOM     31 HG1  THR C 762      12.820 -16.257  17.541  1.00 80.43 LIG 0.21  HD
ENDBRANCH 28 30
ENDBRANCH 24 28
ENDBRANCH 22 24
ENDBRANCH 19 20
ENDBRANCH 3 19
TORSDOF 11
ENDMDL
MODEL 78
USER: ADFR SOLUTION from run 150
USER: SCORE 7.920336 LL:  -1.286 LR:  -6.714 RR:   0.000 FEB:  -3.433
USER: RMSD 9.004245
USER: SEED 149
USER: STATUS no improvement in best in 22 clusters for 5 generations
USER: GENES 13
USER: genes 0 Translation |==|  0.46510 0.64726 0.84630
USER: genes 1 Rotation |==|  0.83997 0.76229 0.75602 0.50875
USER: genes 2 Torsion [N]-C--CA-[N] |==|  0.87966
USER: genes 3 Torsion [C]-CA--CB-[CG] |==|  0.99956
USER: genes 4 Torsion [CA]-CB--CG-[CD] |==|  0.25295
USER: genes 5 Torsion [CB]-CG--CD-[NE] |==|  0.70286
USER: genes 6 Torsion [CG]-CD--NE-[CZ] |==|  0.77244
USER: genes 7 Torsion [C]-N--CA-[C] |==|  0.81871
USER: genes 8 Torsion [N]-CA--C-[N] |==|  0.95912
USER: genes 9 Torsion [C]-N--CA-[C] |==|  0.19020
USER: genes 10 Torsion [N]-CA--C-[OXT] |==|  0.02247
USER: genes 11 Torsion [N]-CA--CB-[OG1] |==|  0.90543
USER: genes 12 Torsion [CA]-CB--OG1-[HG1] |==|  0.13057
ROOT
ATOM      1  C   ARG C 760      16.686 -15.128  25.104  1.00 56.34 LIG 0.26  C 
ATOM      2 O    ARG C 760      17.531 -15.875  24.620  1.00 53.76 LIG-0.27  OA
ATOM      3  N   GLY C 761      16.639 -13.827  24.837  1.00 59.89 LIG-0.35  N 
ATOM      4 H    GLY C 761      16.200 -13.256  25.308  1.00 59.89 LIG 0.16  HD
ENDROOT
BRANCH 1 5
ATOM      5  CA  ARG C 760      15.626 -15.673  26.062  1.00 61.16 LIG 0.40  C 
ATOM      6  N   ARG C 760      15.466 -14.762  27.194  1.00 59.95 LIG 0.61  N 
BRANCH 5 7
ATOM      7  CB  ARG C 760      14.288 -15.881  25.353  1.00 63.40 LIG 0.05  C 
BRANCH 7 8
ATOM      8  CG  ARG C 760      14.297 -15.508  23.884  1.00 63.69 LIG 0.02  C 
BRANCH 8 9
ATOM      9  CD  ARG C 760      14.657 -16.705  23.020  1.00 63.30 LIG 0.14  C 
BRANCH 9 10
ATOM     10  NE  ARG C 760      16.008 -16.588  22.477  1.00 65.15 LIG-0.23  N 
ATOM     11  CZ  ARG C 760      16.325 -15.881  21.397  1.00 66.46 LIG 0.67  C 
ATOM     12  NH1 ARG C 760      15.390 -15.212  20.734  1.00 66.43 LIG-0.23  N 
ATOM     13  NH2 ARG C 760      17.583 -15.839  20.981  1.00 66.89 LIG-0.23  N 
ATOM     14 2HH1 ARG C 760      15.601 -14.756  20.036  1.00 66.43 LIG 0.17  HD
ATOM     15 1HH1 ARG C 760      14.573 -15.233  21.003  1.00 66.43 LIG 0.17  HD
ATOM     16 2HH2 ARG C 760      17.789 -15.382  20.282  1.00 66.89 LIG 0.17  HD
ATOM     17 1HH2 ARG C 760      18.191 -16.268  21.409  1.00 66.89 LIG 0.17  HD
ATOM     18 HE   ARG C 760      16.640 -17.004  22.884  1.00 65.15 LIG 0.18  HD
ENDBRANCH 9 10
ENDBRANCH 8 9
ENDBRANCH 7 8
ENDBRANCH 5 7
ENDBRANCH 1 5
BRANCH 3 19
ATOM     19  CA  GLY C 761      17.342 -13.255  23.701  1.00 62.83 LIG 0.23  C 
BRANCH 19 20
ATOM     20  C   GLY C 761      18.862 -13.271  23.637  1.00 67.24 LIG 0.24  C 
ATOM     21 O    GLY C 761      19.452 -13.048  22.580  1.00 65.14 LIG-0.27  OA
ATOM     22  N   THR C 762      19.478 -13.546  24.786  1.00 72.11 LIG-0.34  N 
ATOM     23 H    THR C 762      19.091 -13.966  25.428  1.00 72.11 LIG 0.16  HD
BRANCH 22 24
ATOM     24  CA  THR C 762      20.864 -13.176  25.096  1.00 75.13 LIG 0.21  C 
BRANCH 24 25
ATOM     25  C   THR C 762      20.916 -11.657  25.224  1.00 73.09 LIG 0.20  C 
ATOM     26 OXT  THR C 762      19.873 -11.006  25.216  1.00 76.95 LIG-0.65  OA
ATOM     27 O    THR C 762      21.975 -11.039  25.343  1.00 68.26 LIG-0.65  OA
ENDBRANCH 24 25
BRANCH 24 28
ATOM     28  CB  THR C 762      21.895 -13.622  24.034  1.00 77.67 LIG 0.15  C 
ATOM     29  CG2 THR C 762      23.263 -13.792  24.671  1.00 76.40 LIG 0.04  C 
BRANCH 28 30
ATOM     30 OG1  THR C 762      21.495 -14.870  23.457  1.00 80.43 LIG-0.39  OA
ATOM     31 HG1  THR C 762      20.682 -14.836  23.252  1.00 80.43 LIG 0.21  HD
ENDBRANCH 28 30
ENDBRANCH 24 28
ENDBRANCH 22 24
ENDBRANCH 19 20
ENDBRANCH 3 19
TORSDOF 11
ENDMDL
MODEL 79
USER: ADFR SOLUTION from run 44
USER: SCORE 7.530898 LL:  -1.107 LR:  -6.698 RR:   0.000 FEB:  -3.417
USER: RMSD 7.446215
USER: SEED 43
USER: STATUS no improvement in best in 46 clusters for 5 generations
USER: GENES 13
USER: genes 0 Translation |==|  0.53638 0.56280 0.67988
USER: genes 1 Rotation |==|  0.89126 0.59875 0.21077 0.55923
USER: genes 2 Torsion [N]-C--CA-[N] |==|  0.81129
USER: genes 3 Torsion [C]-CA--CB-[CG] |==|  0.20297
USER: genes 4 Torsion [CA]-CB--CG-[CD] |==|  0.65624
USER: genes 5 Torsion [CB]-CG--CD-[NE] |==|  0.20108
USER: genes 6 Torsion [CG]-CD--NE-[CZ] |==|  0.25230
USER: genes 7 Torsion [C]-N--CA-[C] |==|  0.66693
USER: genes 8 Torsion [N]-CA--C-[N] |==|  0.59441
USER: genes 9 Torsion [C]-N--CA-[C] |==|  0.18803
USER: genes 10 Torsion [N]-CA--C-[OXT] |==|  0.08299
USER: genes 11 Torsion [N]-CA--CB-[OG1] |==|  0.91036
USER: genes 12 Torsion [CA]-CB--OG1-[HG1] |==|  0.20074
ROOT
ATOM      1  C   ARG C 760      17.916 -16.205  21.734  1.00 56.34 LIG 0.26  C 
ATOM      2 O    ARG C 760      17.583 -17.136  22.461  1.00 53.76 LIG-0.27  OA
ATOM      3  N   GLY C 761      17.116 -15.701  20.798  1.00 59.89 LIG-0.35  N 
ATOM      4 H    GLY C 761      17.387 -15.203  20.153  1.00 59.89 LIG 0.16  HD
ENDROOT
BRANCH 1 5
ATOM      5  CA  ARG C 760      19.300 -15.571  21.868  1.00 61.16 LIG 0.40  C 
ATOM      6  N   ARG C 760      20.101 -15.871  20.683  1.00 59.95 LIG 0.61  N 
BRANCH 5 7
ATOM      7  CB  ARG C 760      19.203 -14.060  22.076  1.00 63.40 LIG 0.05  C 
BRANCH 7 8
ATOM      8  CG  ARG C 760      18.719 -13.651  23.453  1.00 63.69 LIG 0.02  C 
BRANCH 8 9
ATOM      9  CD  ARG C 760      17.489 -12.763  23.357  1.00 63.30 LIG 0.14  C 
BRANCH 9 10
ATOM     10  NE  ARG C 760      16.308 -13.523  22.957  1.00 65.15 LIG-0.23  N 
ATOM     11  CZ  ARG C 760      15.464 -14.102  23.806  1.00 66.46 LIG 0.67  C 
ATOM     12  NH1 ARG C 760      15.658 -14.006  25.115  1.00 66.43 LIG-0.23  N 
ATOM     13  NH2 ARG C 760      14.419 -14.773  23.343  1.00 66.89 LIG-0.23  N 
ATOM     14 2HH1 ARG C 760      15.109 -14.382  25.660  1.00 66.43 LIG 0.17  HD
ATOM     15 1HH1 ARG C 760      16.333 -13.568  25.419  1.00 66.43 LIG 0.17  HD
ATOM     16 2HH2 ARG C 760      13.873 -15.148  23.891  1.00 66.89 LIG 0.17  HD
ATOM     17 1HH2 ARG C 760      14.289 -14.834  22.496  1.00 66.89 LIG 0.17  HD
ATOM     18 HE   ARG C 760      16.148 -13.601  22.116  1.00 65.15 LIG 0.18  HD
ENDBRANCH 9 10
ENDBRANCH 8 9
ENDBRANCH 7 8
ENDBRANCH 5 7
ENDBRANCH 1 5
BRANCH 3 19
ATOM     19  CA  GLY C 761      15.686 -15.962  20.797  1.00 62.83 LIG 0.23  C 
BRANCH 19 20
ATOM     20  C   GLY C 761      15.022 -16.659  19.619  1.00 67.24 LIG 0.24  C 
ATOM     21 O    GLY C 761      15.620 -17.524  18.979  1.00 65.14 LIG-0.27  OA
ATOM     22  N   THR C 762      13.781 -16.260  19.345  1.00 72.11 LIG-0.34  N 
ATOM     23 H    THR C 762      13.478 -15.494  19.591  1.00 72.11 LIG 0.16  HD
BRANCH 22 24
ATOM     24  CA  THR C 762      12.795 -17.057  18.606  1.00 75.13 LIG 0.21  C 
BRANCH 24 25
ATOM     25  C   THR C 762      12.427 -18.255  19.476  1.00 73.09 LIG 0.20  C 
ATOM     26 OXT  THR C 762      12.467 -18.156  20.701  1.00 76.95 LIG-0.65  OA
ATOM     27 O    THR C 762      12.078 -19.336  19.001  1.00 68.26 LIG-0.65  OA
ENDBRANCH 24 25
BRANCH 24 28
ATOM     28  CB  THR C 762      13.291 -17.571  17.235  1.00 77.67 LIG 0.15  C 
ATOM     29  CG2 THR C 762      12.117 -17.757  16.290  1.00 76.40 LIG 0.04  C 
BRANCH 28 30
ATOM     30 OG1  THR C 762      14.204 -16.631  16.660  1.00 80.43 LIG-0.39  OA
ATOM     31 HG1  THR C 762      14.931 -16.655  17.079  1.00 80.43 LIG 0.21  HD
ENDBRANCH 28 30
ENDBRANCH 24 28
ENDBRANCH 22 24
ENDBRANCH 19 20
ENDBRANCH 3 19
TORSDOF 11
ENDMDL
MODEL 80
USER: ADFR SOLUTION from run 7
USER: SCORE 7.833097 LL:  -1.617 LR:  -6.689 RR:   0.000 FEB:  -3.408
USER: RMSD 8.787091
USER: SEED 139135
USER: STATUS no improvement in best in 23 clusters for 5 generations
USER: GENES 13
USER: genes 0 Translation |==|  0.51832 0.44701 0.76437
USER: genes 1 Rotation |==|  0.09746 0.32647 0.26515 0.55189
USER: genes 2 Torsion [N]-C--CA-[N] |==|  0.72722
USER: genes 3 Torsion [C]-CA--CB-[CG] |==|  0.14311
USER: genes 4 Torsion [CA]-CB--CG-[CD] |==|  0.55939
USER: genes 5 Torsion [CB]-CG--CD-[NE] |==|  0.27152
USER: genes 6 Torsion [CG]-CD--NE-[CZ] |==|  0.15780
USER: genes 7 Torsion [C]-N--CA-[C] |==|  0.60396
USER: genes 8 Torsion [N]-CA--C-[N] |==|  0.06337
USER: genes 9 Torsion [C]-N--CA-[C] |==|  0.53970
USER: genes 10 Torsion [N]-CA--C-[OXT] |==|  0.92863
USER: genes 11 Torsion [N]-CA--CB-[OG1] |==|  0.86210
USER: genes 12 Torsion [CA]-CB--OG1-[HG1] |==|  0.93111
ROOT
ATOM      1  C   ARG C 760      17.604 -17.682  23.445  1.00 56.34 LIG 0.26  C 
ATOM      2 O    ARG C 760      18.042 -18.373  22.530  1.00 53.76 LIG-0.27  OA
ATOM      3  N   GLY C 761      17.868 -16.383  23.556  1.00 59.89 LIG-0.35  N 
ATOM      4 H    GLY C 761      17.750 -15.930  24.277  1.00 59.89 LIG 0.16  HD
ENDROOT
BRANCH 1 5
ATOM      5  CA  ARG C 760      16.718 -18.298  24.527  1.00 61.16 LIG 0.40  C 
ATOM      6  N   ARG C 760      17.548 -18.960  25.531  1.00 59.95 LIG 0.61  N 
BRANCH 5 7
ATOM      7  CB  ARG C 760      15.827 -17.244  25.185  1.00 63.40 LIG 0.05  C 
BRANCH 7 8
ATOM      8  CG  ARG C 760      15.034 -16.400  24.207  1.00 63.69 LIG 0.02  C 
BRANCH 8 9
ATOM      9  CD  ARG C 760      14.604 -15.088  24.842  1.00 63.30 LIG 0.14  C 
BRANCH 9 10
ATOM     10  NE  ARG C 760      15.508 -13.998  24.487  1.00 65.15 LIG-0.23  N 
ATOM     11  CZ  ARG C 760      15.788 -13.629  23.241  1.00 66.46 LIG 0.67  C 
ATOM     12  NH1 ARG C 760      15.229 -14.256  22.214  1.00 66.43 LIG-0.23  N 
ATOM     13  NH2 ARG C 760      16.626 -12.626  23.021  1.00 66.89 LIG-0.23  N 
ATOM     14 2HH1 ARG C 760      15.413 -14.013  21.410  1.00 66.43 LIG 0.17  HD
ATOM     15 1HH1 ARG C 760      14.682 -14.906  22.352  1.00 66.43 LIG 0.17  HD
ATOM     16 2HH2 ARG C 760      16.807 -12.386  22.216  1.00 66.89 LIG 0.17  HD
ATOM     17 1HH2 ARG C 760      16.987 -12.215  23.684  1.00 66.89 LIG 0.17  HD
ATOM     18 HE   ARG C 760      15.885 -13.565  25.128  1.00 65.15 LIG 0.18  HD
ENDBRANCH 9 10
ENDBRANCH 8 9
ENDBRANCH 7 8
ENDBRANCH 5 7
ENDBRANCH 1 5
BRANCH 3 19
ATOM     19  CA  GLY C 761      18.387 -15.612  22.438  1.00 62.83 LIG 0.23  C 
BRANCH 19 20
ATOM     20  C   GLY C 761      19.421 -14.518  22.660  1.00 67.24 LIG 0.24  C 
ATOM     21 O    GLY C 761      19.564 -13.610  21.841  1.00 65.14 LIG-0.27  OA
ATOM     22  N   THR C 762      20.138 -14.629  23.777  1.00 72.11 LIG-0.34  N 
ATOM     23 H    THR C 762      20.240 -15.377  24.188  1.00 72.11 LIG 0.16  HD
BRANCH 22 24
ATOM     24  CA  THR C 762      20.831 -13.515  24.435  1.00 75.13 LIG 0.21  C 
BRANCH 24 25
ATOM     25  C   THR C 762      21.806 -14.112  25.445  1.00 73.09 LIG 0.20  C 
ATOM     26 OXT  THR C 762      21.586 -15.222  25.925  1.00 76.95 LIG-0.65  OA
ATOM     27 O    THR C 762      22.826 -13.525  25.807  1.00 68.26 LIG-0.65  OA
ENDBRANCH 24 25
BRANCH 24 28
ATOM     28  CB  THR C 762      19.896 -12.527  25.168  1.00 77.67 LIG 0.15  C 
ATOM     29  CG2 THR C 762      20.668 -11.290  25.592  1.00 76.40 LIG 0.04  C 
BRANCH 28 30
ATOM     30 OG1  THR C 762      18.826 -12.131  24.303  1.00 80.43 LIG-0.39  OA
ATOM     31 HG1  THR C 762      19.067 -12.215  23.503  1.00 80.43 LIG 0.21  HD
ENDBRANCH 28 30
ENDBRANCH 24 28
ENDBRANCH 22 24
ENDBRANCH 19 20
ENDBRANCH 3 19
TORSDOF 11
ENDMDL
MODEL 81
USER: ADFR SOLUTION from run 145
USER: SCORE 8.517079 LL:  -1.981 LR:  -6.658 RR:   0.000 FEB:  -3.376
USER: RMSD 7.643767
USER: SEED 144
USER: STATUS no improvement in best in 16 clusters for 5 generations
USER: GENES 13
USER: genes 0 Translation |==|  0.53591 0.47599 0.73670
USER: genes 1 Rotation |==|  0.08500 0.25606 0.36485 0.50033
USER: genes 2 Torsion [N]-C--CA-[N] |==|  0.71629
USER: genes 3 Torsion [C]-CA--CB-[CG] |==|  0.25984
USER: genes 4 Torsion [CA]-CB--CG-[CD] |==|  0.53184
USER: genes 5 Torsion [CB]-CG--CD-[NE] |==|  0.07421
USER: genes 6 Torsion [CG]-CD--NE-[CZ] |==|  0.20073
USER: genes 7 Torsion [C]-N--CA-[C] |==|  0.15590
USER: genes 8 Torsion [N]-CA--C-[N] |==|  0.08403
USER: genes 9 Torsion [C]-N--CA-[C] |==|  0.76621
USER: genes 10 Torsion [N]-CA--C-[OXT] |==|  0.34365
USER: genes 11 Torsion [N]-CA--CB-[OG1] |==|  0.11519
USER: genes 12 Torsion [CA]-CB--OG1-[HG1] |==|  0.12278
ROOT
ATOM      1  C   ARG C 760      17.907 -17.312  22.884  1.00 56.34 LIG 0.26  C 
ATOM      2 O    ARG C 760      18.283 -18.293  22.250  1.00 53.76 LIG-0.27  OA
ATOM      3  N   GLY C 761      17.920 -16.081  22.381  1.00 59.89 LIG-0.35  N 
ATOM      4 H    GLY C 761      17.860 -15.368  22.857  1.00 59.89 LIG 0.16  HD
ENDROOT
BRANCH 1 5
ATOM      5  CA  ARG C 760      17.400 -17.463  24.319  1.00 61.16 LIG 0.40  C 
ATOM      6  N   ARG C 760      18.531 -17.621  25.231  1.00 59.95 LIG 0.61  N 
BRANCH 5 7
ATOM      7  CB  ARG C 760      16.544 -16.268  24.736  1.00 63.40 LIG 0.05  C 
BRANCH 7 8
ATOM      8  CG  ARG C 760      15.057 -16.461  24.517  1.00 63.69 LIG 0.02  C 
BRANCH 8 9
ATOM      9  CD  ARG C 760      14.306 -15.150  24.685  1.00 63.30 LIG 0.14  C 
BRANCH 9 10
ATOM     10  NE  ARG C 760      15.158 -14.001  24.389  1.00 65.15 LIG-0.23  N 
ATOM     11  CZ  ARG C 760      15.557 -13.655  23.170  1.00 66.46 LIG 0.67  C 
ATOM     12  NH1 ARG C 760      15.178 -14.364  22.113  1.00 66.43 LIG-0.23  N 
ATOM     13  NH2 ARG C 760      16.334 -12.594  23.004  1.00 66.89 LIG-0.23  N 
ATOM     14 2HH1 ARG C 760      15.438 -14.135  21.326  1.00 66.43 LIG 0.17  HD
ATOM     15 1HH1 ARG C 760      14.671 -15.051  22.216  1.00 66.43 LIG 0.17  HD
ATOM     16 2HH2 ARG C 760      16.592 -12.369  22.216  1.00 66.89 LIG 0.17  HD
ATOM     17 1HH2 ARG C 760      16.579 -12.131  23.686  1.00 66.89 LIG 0.17  HD
ATOM     18 HE   ARG C 760      15.418 -13.516  25.049  1.00 65.15 LIG 0.18  HD
ENDBRANCH 9 10
ENDBRANCH 8 9
ENDBRANCH 7 8
ENDBRANCH 5 7
ENDBRANCH 1 5
BRANCH 3 19
ATOM     19  CA  GLY C 761      18.037 -15.843  20.952  1.00 62.83 LIG 0.23  C 
BRANCH 19 20
ATOM     20  C   GLY C 761      17.048 -16.461  19.975  1.00 67.24 LIG 0.24  C 
ATOM     21 O    GLY C 761      17.388 -16.744  18.827  1.00 65.14 LIG-0.27  OA
ATOM     22  N   THR C 762      15.820 -16.655  20.454  1.00 72.11 LIG-0.34  N 
ATOM     23 H    THR C 762      15.512 -16.217  21.126  1.00 72.11 LIG 0.16  HD
BRANCH 22 24
ATOM     24  CA  THR C 762      14.857 -17.619  19.908  1.00 75.13 LIG 0.21  C 
BRANCH 24 25
ATOM     25  C   THR C 762      14.145 -16.946  18.738  1.00 73.09 LIG 0.20  C 
ATOM     26 OXT  THR C 762      14.161 -17.473  17.627  1.00 76.95 LIG-0.65  OA
ATOM     27 O    THR C 762      13.538 -15.881  18.858  1.00 68.26 LIG-0.65  OA
ENDBRANCH 24 25
BRANCH 24 28
ATOM     28  CB  THR C 762      13.798 -18.105  20.922  1.00 77.67 LIG 0.15  C 
ATOM     29  CG2 THR C 762      14.395 -19.158  21.840  1.00 76.40 LIG 0.04  C 
BRANCH 28 30
ATOM     30 OG1  THR C 762      13.339 -17.006  21.716  1.00 80.43 LIG-0.39  OA
ATOM     31 HG1  THR C 762      13.198 -16.343  21.221  1.00 80.43 LIG 0.21  HD
ENDBRANCH 28 30
ENDBRANCH 24 28
ENDBRANCH 22 24
ENDBRANCH 19 20
ENDBRANCH 3 19
TORSDOF 11
ENDMDL
MODEL 82
USER: ADFR SOLUTION from run 126
USER: SCORE 8.309983 LL:  -1.804 LR:  -6.661 RR:   0.000 FEB:  -3.379
USER: RMSD 9.574756
USER: SEED 125
USER: STATUS no improvement in best in 30 clusters for 5 generations
USER: GENES 13
USER: genes 0 Translation |==|  0.35836 0.65648 0.87186
USER: genes 1 Rotation |==|  0.24807 0.86051 0.71015 0.61134
USER: genes 2 Torsion [N]-C--CA-[N] |==|  0.00374
USER: genes 3 Torsion [C]-CA--CB-[CG] |==|  0.85696
USER: genes 4 Torsion [CA]-CB--CG-[CD] |==|  0.67141
USER: genes 5 Torsion [CB]-CG--CD-[NE] |==|  0.40031
USER: genes 6 Torsion [CG]-CD--NE-[CZ] |==|  0.19142
USER: genes 7 Torsion [C]-N--CA-[C] |==|  0.30776
USER: genes 8 Torsion [N]-CA--C-[N] |==|  0.96502
USER: genes 9 Torsion [C]-N--CA-[C] |==|  0.17593
USER: genes 10 Torsion [N]-CA--C-[OXT] |==|  0.31166
USER: genes 11 Torsion [N]-CA--CB-[OG1] |==|  0.94189
USER: genes 12 Torsion [CA]-CB--OG1-[HG1] |==|  0.19615
ROOT
ATOM      1  C   ARG C 760      14.845 -15.011  25.621  1.00 56.34 LIG 0.26  C 
ATOM      2 O    ARG C 760      14.571 -14.041  26.321  1.00 53.76 LIG-0.27  OA
ATOM      3  N   GLY C 761      15.163 -14.903  24.335  1.00 59.89 LIG-0.35  N 
ATOM      4 H    GLY C 761      15.157 -15.562  23.782  1.00 59.89 LIG 0.16  HD
ENDROOT
BRANCH 1 5
ATOM      5  CA  ARG C 760      14.826 -16.422  26.209  1.00 61.16 LIG 0.40  C 
ATOM      6  N   ARG C 760      15.211 -17.392  25.185  1.00 59.95 LIG 0.61  N 
BRANCH 5 7
ATOM      7  CB  ARG C 760      15.751 -16.533  27.421  1.00 63.40 LIG 0.05  C 
BRANCH 7 8
ATOM      8  CG  ARG C 760      17.159 -16.031  27.178  1.00 63.69 LIG 0.02  C 
BRANCH 8 9
ATOM      9  CD  ARG C 760      18.175 -17.148  27.357  1.00 63.30 LIG 0.14  C 
BRANCH 9 10
ATOM     10  NE  ARG C 760      19.280 -17.026  26.411  1.00 65.15 LIG-0.23  N 
ATOM     11  CZ  ARG C 760      20.197 -16.064  26.445  1.00 66.46 LIG 0.67  C 
ATOM     12  NH1 ARG C 760      20.155 -15.131  27.388  1.00 66.43 LIG-0.23  N 
ATOM     13  NH2 ARG C 760      21.162 -16.039  25.537  1.00 66.89 LIG-0.23  N 
ATOM     14 2HH1 ARG C 760      20.751 -14.511  27.406  1.00 66.43 LIG 0.17  HD
ATOM     15 1HH1 ARG C 760      19.532 -15.146  27.981  1.00 66.43 LIG 0.17  HD
ATOM     16 2HH2 ARG C 760      21.755 -15.417  25.559  1.00 66.89 LIG 0.17  HD
ATOM     17 1HH2 ARG C 760      21.194 -16.643  24.927  1.00 66.89 LIG 0.17  HD
ATOM     18 HE   ARG C 760      19.341 -17.617  25.789  1.00 65.15 LIG 0.18  HD
ENDBRANCH 9 10
ENDBRANCH 8 9
ENDBRANCH 7 8
ENDBRANCH 5 7
ENDBRANCH 1 5
BRANCH 3 19
ATOM     19  CA  GLY C 761      15.555 -13.632  23.750  1.00 62.83 LIG 0.23  C 
BRANCH 19 20
ATOM     20  C   GLY C 761      16.987 -13.393  23.294  1.00 67.24 LIG 0.24  C 
ATOM     21 O    GLY C 761      17.272 -12.423  22.591  1.00 65.14 LIG-0.27  OA
ATOM     22  N   THR C 762      17.874 -14.299  23.701  1.00 72.11 LIG-0.34  N 
ATOM     23 H    THR C 762      17.647 -15.094  23.937  1.00 72.11 LIG 0.16  HD
BRANCH 22 24
ATOM     24  CA  THR C 762      19.320 -14.063  23.798  1.00 75.13 LIG 0.21  C 
BRANCH 24 25
ATOM     25  C   THR C 762      19.538 -12.972  24.842  1.00 73.09 LIG 0.20  C 
ATOM     26 OXT  THR C 762      20.088 -13.245  25.907  1.00 76.95 LIG-0.65  OA
ATOM     27 O    THR C 762      19.187 -11.805  24.663  1.00 68.26 LIG-0.65  OA
ENDBRANCH 24 25
BRANCH 24 28
ATOM     28  CB  THR C 762      19.984 -13.624  22.474  1.00 77.67 LIG 0.15  C 
ATOM     29  CG2 THR C 762      21.344 -14.282  22.327  1.00 76.40 LIG 0.04  C 
BRANCH 28 30
ATOM     30 OG1  THR C 762      19.163 -14.006  21.364  1.00 80.43 LIG-0.39  OA
ATOM     31 HG1  THR C 762      18.471 -13.530  21.351  1.00 80.43 LIG 0.21  HD
ENDBRANCH 28 30
ENDBRANCH 24 28
ENDBRANCH 22 24
ENDBRANCH 19 20
ENDBRANCH 3 19
TORSDOF 11
ENDMDL
MODEL 83
USER: ADFR SOLUTION from run 169
USER: SCORE 7.753931 LL:  -1.703 LR:  -6.663 RR:   0.000 FEB:  -3.382
USER: RMSD 7.310947
USER: SEED 168
USER: STATUS no improvement in best in 23 clusters for 5 generations
USER: GENES 13
USER: genes 0 Translation |==|  0.47297 0.47667 0.57457
USER: genes 1 Rotation |==|  0.69074 0.65864 0.88934 0.69200
USER: genes 2 Torsion [N]-C--CA-[N] |==|  0.47813
USER: genes 3 Torsion [C]-CA--CB-[CG] |==|  0.88634
USER: genes 4 Torsion [CA]-CB--CG-[CD] |==|  0.26350
USER: genes 5 Torsion [CB]-CG--CD-[NE] |==|  0.41013
USER: genes 6 Torsion [CG]-CD--NE-[CZ] |==|  0.57706
USER: genes 7 Torsion [C]-N--CA-[C] |==|  0.73210
USER: genes 8 Torsion [N]-CA--C-[N] |==|  0.79870
USER: genes 9 Torsion [C]-N--CA-[C] |==|  0.56195
USER: genes 10 Torsion [N]-CA--C-[OXT] |==|  0.98707
USER: genes 11 Torsion [N]-CA--CB-[OG1] |==|  0.94381
USER: genes 12 Torsion [CA]-CB--OG1-[HG1] |==|  0.01286
ROOT
ATOM      1  C   ARG C 760      16.822 -17.303  19.601  1.00 56.34 LIG 0.26  C 
ATOM      2 O    ARG C 760      17.355 -18.329  20.014  1.00 53.76 LIG-0.27  OA
ATOM      3  N   GLY C 761      17.411 -16.113  19.655  1.00 59.89 LIG-0.35  N 
ATOM      4 H    GLY C 761      16.994 -15.366  19.567  1.00 59.89 LIG 0.16  HD
ENDROOT
BRANCH 1 5
ATOM      5  CA  ARG C 760      15.419 -17.348  18.995  1.00 61.16 LIG 0.40  C 
ATOM      6  N   ARG C 760      14.990 -18.737  18.837  1.00 59.95 LIG 0.61  N 
BRANCH 5 7
ATOM      7  CB  ARG C 760      14.416 -16.576  19.853  1.00 63.40 LIG 0.05  C 
BRANCH 7 8
ATOM      8  CG  ARG C 760      14.590 -16.775  21.345  1.00 63.69 LIG 0.02  C 
BRANCH 8 9
ATOM      9  CD  ARG C 760      15.446 -15.671  21.946  1.00 63.30 LIG 0.14  C 
BRANCH 9 10
ATOM     10  NE  ARG C 760      15.044 -15.367  23.316  1.00 65.15 LIG-0.23  N 
ATOM     11  CZ  ARG C 760      15.201 -14.183  23.900  1.00 66.46 LIG 0.67  C 
ATOM     12  NH1 ARG C 760      15.748 -13.174  23.234  1.00 66.43 LIG-0.23  N 
ATOM     13  NH2 ARG C 760      14.806 -14.006  25.153  1.00 66.89 LIG-0.23  N 
ATOM     14 2HH1 ARG C 760      15.848 -12.410  23.617  1.00 66.43 LIG 0.17  HD
ATOM     15 1HH1 ARG C 760      16.004 -13.283  22.420  1.00 66.43 LIG 0.17  HD
ATOM     16 2HH2 ARG C 760      14.907 -13.241  25.531  1.00 66.89 LIG 0.17  HD
ATOM     17 1HH2 ARG C 760      14.448 -14.656  25.586  1.00 66.89 LIG 0.17  HD
ATOM     18 HE   ARG C 760      14.681 -15.996  23.776  1.00 65.15 LIG 0.18  HD
ENDBRANCH 9 10
ENDBRANCH 8 9
ENDBRANCH 7 8
ENDBRANCH 5 7
ENDBRANCH 1 5
BRANCH 3 19
ATOM     19  CA  GLY C 761      18.843 -15.980  19.873  1.00 62.83 LIG 0.23  C 
BRANCH 19 20
ATOM     20  C   GLY C 761      19.398 -15.723  21.265  1.00 67.24 LIG 0.24  C 
ATOM     21 O    GLY C 761      19.987 -16.610  21.884  1.00 65.14 LIG-0.27  OA
ATOM     22  N   THR C 762      19.192 -14.498  21.744  1.00 72.11 LIG-0.34  N 
ATOM     23 H    THR C 762      18.564 -13.988  21.454  1.00 72.11 LIG 0.16  HD
BRANCH 22 24
ATOM     24  CA  THR C 762      19.994 -13.873  22.804  1.00 75.13 LIG 0.21  C 
BRANCH 24 25
ATOM     25  C   THR C 762      19.144 -12.775  23.436  1.00 73.09 LIG 0.20  C 
ATOM     26 OXT  THR C 762      18.039 -12.510  22.966  1.00 76.95 LIG-0.65  OA
ATOM     27 O    THR C 762      19.517 -12.131  24.417  1.00 68.26 LIG-0.65  OA
ENDBRANCH 24 25
BRANCH 24 28
ATOM     28  CB  THR C 762      21.323 -13.256  22.316  1.00 77.67 LIG 0.15  C 
ATOM     29  CG2 THR C 762      22.427 -13.526  23.324  1.00 76.40 LIG 0.04  C 
BRANCH 28 30
ATOM     30 OG1  THR C 762      21.696 -13.826  21.057  1.00 80.43 LIG-0.39  OA
ATOM     31 HG1  THR C 762      21.089 -14.342  20.793  1.00 80.43 LIG 0.21  HD
ENDBRANCH 28 30
ENDBRANCH 24 28
ENDBRANCH 22 24
ENDBRANCH 19 20
ENDBRANCH 3 19
TORSDOF 11
ENDMDL
MODEL 84
USER: ADFR SOLUTION from run 123
USER: SCORE 7.405007 LL:  -0.805 LR:  -6.657 RR:   0.000 FEB:  -3.376
USER: RMSD 5.657299
USER: SEED 122
USER: STATUS no improvement in best in 10 clusters for 5 generations
USER: GENES 13
USER: genes 0 Translation |==|  0.35614 0.52799 0.64952
USER: genes 1 Rotation |==|  0.29486 0.46116 0.24624 0.87685
USER: genes 2 Torsion [N]-C--CA-[N] |==|  0.98184
USER: genes 3 Torsion [C]-CA--CB-[CG] |==|  0.22398
USER: genes 4 Torsion [CA]-CB--CG-[CD] |==|  0.35750
USER: genes 5 Torsion [CB]-CG--CD-[NE] |==|  0.56607
USER: genes 6 Torsion [CG]-CD--NE-[CZ] |==|  0.64535
USER: genes 7 Torsion [C]-N--CA-[C] |==|  0.80405
USER: genes 8 Torsion [N]-CA--C-[N] |==|  0.91667
USER: genes 9 Torsion [C]-N--CA-[C] |==|  0.24121
USER: genes 10 Torsion [N]-CA--C-[OXT] |==|  0.95869
USER: genes 11 Torsion [N]-CA--CB-[OG1] |==|  0.83939
USER: genes 12 Torsion [CA]-CB--OG1-[HG1] |==|  0.17112
ROOT
ATOM      1  C   ARG C 760      14.806 -16.649  21.119  1.00 56.34 LIG 0.26  C 
ATOM      2 O    ARG C 760      15.038 -15.582  20.560  1.00 53.76 LIG-0.27  OA
ATOM      3  N   GLY C 761      14.765 -16.776  22.442  1.00 59.89 LIG-0.35  N 
ATOM      4 H    GLY C 761      14.809 -17.529  22.853  1.00 59.89 LIG 0.16  HD
ENDROOT
BRANCH 1 5
ATOM      5  CA  ARG C 760      14.554 -17.915  20.299  1.00 61.16 LIG 0.40  C 
ATOM      6  N   ARG C 760      14.463 -19.072  21.188  1.00 59.95 LIG 0.61  N 
BRANCH 5 7
ATOM      7  CB  ARG C 760      13.283 -17.790  19.458  1.00 63.40 LIG 0.05  C 
BRANCH 7 8
ATOM      8  CG  ARG C 760      13.464 -17.013  18.169  1.00 63.69 LIG 0.02  C 
BRANCH 8 9
ATOM      9  CD  ARG C 760      12.931 -17.797  16.981  1.00 63.30 LIG 0.14  C 
BRANCH 9 10
ATOM     10  NE  ARG C 760      13.561 -17.375  15.733  1.00 65.15 LIG-0.23  N 
ATOM     11  CZ  ARG C 760      12.897 -17.011  14.641  1.00 66.46 LIG 0.67  C 
ATOM     12  NH1 ARG C 760      11.570 -17.006  14.633  1.00 66.43 LIG-0.23  N 
ATOM     13  NH2 ARG C 760      13.561 -16.646  13.554  1.00 66.89 LIG-0.23  N 
ATOM     14 2HH1 ARG C 760      11.144 -16.769  13.924  1.00 66.43 LIG 0.17  HD
ATOM     15 1HH1 ARG C 760      11.134 -17.239  15.338  1.00 66.43 LIG 0.17  HD
ATOM     16 2HH2 ARG C 760      13.132 -16.410  12.847  1.00 66.89 LIG 0.17  HD
ATOM     17 1HH2 ARG C 760      14.421 -16.645  13.556  1.00 66.89 LIG 0.17  HD
ATOM     18 HE   ARG C 760      14.420 -17.361  15.704  1.00 65.15 LIG 0.18  HD
ENDBRANCH 9 10
ENDBRANCH 8 9
ENDBRANCH 7 8
ENDBRANCH 5 7
ENDBRANCH 1 5
BRANCH 3 19
ATOM     19  CA  GLY C 761      14.638 -15.620  23.314  1.00 62.83 LIG 0.23  C 
BRANCH 19 20
ATOM     20  C   GLY C 761      15.789 -14.640  23.482  1.00 67.24 LIG 0.24  C 
ATOM     21 O    GLY C 761      15.577 -13.451  23.719  1.00 65.14 LIG-0.27  OA
ATOM     22  N   THR C 762      17.007 -15.162  23.346  1.00 72.11 LIG-0.34  N 
ATOM     23 H    THR C 762      17.151 -15.893  22.916  1.00 72.11 LIG 0.16  HD
BRANCH 22 24
ATOM     24  CA  THR C 762      18.232 -14.573  23.900  1.00 75.13 LIG 0.21  C 
BRANCH 24 25
ATOM     25  C   THR C 762      18.384 -15.086  25.329  1.00 73.09 LIG 0.20  C 
ATOM     26 OXT  THR C 762      17.431 -15.622  25.891  1.00 76.95 LIG-0.65  OA
ATOM     27 O    THR C 762      19.439 -14.991  25.957  1.00 68.26 LIG-0.65  OA
ENDBRANCH 24 25
BRANCH 24 28
ATOM     28  CB  THR C 762      18.241 -13.028  23.922  1.00 77.67 LIG 0.15  C 
ATOM     29  CG2 THR C 762      19.567 -12.519  24.461  1.00 76.40 LIG 0.04  C 
BRANCH 28 30
ATOM     30 OG1  THR C 762      18.054 -12.517  22.597  1.00 80.43 LIG-0.39  OA
ATOM     31 HG1  THR C 762      17.307 -12.767  22.304  1.00 80.43 LIG 0.21  HD
ENDBRANCH 28 30
ENDBRANCH 24 28
ENDBRANCH 22 24
ENDBRANCH 19 20
ENDBRANCH 3 19
TORSDOF 11
ENDMDL
MODEL 85
USER: ADFR SOLUTION from run 62
USER: SCORE 8.469917 LL:  -2.445 LR:  -6.651 RR:   0.000 FEB:  -3.369
USER: RMSD 8.595854
USER: SEED 61
USER: STATUS no improvement in best in 34 clusters for 5 generations
USER: GENES 13
USER: genes 0 Translation |==|  0.56896 0.78166 0.76710
USER: genes 1 Rotation |==|  0.31660 0.11791 0.50041 0.76528
USER: genes 2 Torsion [N]-C--CA-[N] |==|  0.77400
USER: genes 3 Torsion [C]-CA--CB-[CG] |==|  0.15935
USER: genes 4 Torsion [CA]-CB--CG-[CD] |==|  0.66752
USER: genes 5 Torsion [CB]-CG--CD-[NE] |==|  0.47403
USER: genes 6 Torsion [CG]-CD--NE-[CZ] |==|  0.44662
USER: genes 7 Torsion [C]-N--CA-[C] |==|  0.24873
USER: genes 8 Torsion [N]-CA--C-[N] |==|  0.77565
USER: genes 9 Torsion [C]-N--CA-[C] |==|  0.71340
USER: genes 10 Torsion [N]-CA--C-[OXT] |==|  0.91428
USER: genes 11 Torsion [N]-CA--CB-[OG1] |==|  0.68558
USER: genes 12 Torsion [CA]-CB--OG1-[HG1] |==|  0.03350
ROOT
ATOM      1  C   ARG C 760      18.477 -13.415  23.500  1.00 56.34 LIG 0.26  C 
ATOM      2 O    ARG C 760      18.635 -13.290  22.289  1.00 53.76 LIG-0.27  OA
ATOM      3  N   GLY C 761      17.300 -13.245  24.095  1.00 59.89 LIG-0.35  N 
ATOM      4 H    GLY C 761      17.203 -13.125  24.940  1.00 59.89 LIG 0.16  HD
ENDROOT
BRANCH 1 5
ATOM      5  CA  ARG C 760      19.658 -13.775  24.402  1.00 61.16 LIG 0.40  C 
ATOM      6  N   ARG C 760      20.192 -12.566  25.028  1.00 59.95 LIG 0.61  N 
BRANCH 5 7
ATOM      7  CB  ARG C 760      19.253 -14.792  25.470  1.00 63.40 LIG 0.05  C 
BRANCH 7 8
ATOM      8  CG  ARG C 760      18.679 -16.080  24.916  1.00 63.69 LIG 0.02  C 
BRANCH 8 9
ATOM      9  CD  ARG C 760      17.258 -16.299  25.407  1.00 63.30 LIG 0.14  C 
BRANCH 9 10
ATOM     10  NE  ARG C 760      16.616 -17.413  24.715  1.00 65.15 LIG-0.23  N 
ATOM     11  CZ  ARG C 760      15.546 -18.062  25.165  1.00 66.46 LIG 0.67  C 
ATOM     12  NH1 ARG C 760      14.980 -17.708  26.312  1.00 66.43 LIG-0.23  N 
ATOM     13  NH2 ARG C 760      15.038 -19.065  24.463  1.00 66.89 LIG-0.23  N 
ATOM     14 2HH1 ARG C 760      14.288 -18.131  26.598  1.00 66.43 LIG 0.17  HD
ATOM     15 1HH1 ARG C 760      15.305 -17.056  26.769  1.00 66.43 LIG 0.17  HD
ATOM     16 2HH2 ARG C 760      14.346 -19.485  24.753  1.00 66.89 LIG 0.17  HD
ATOM     17 1HH2 ARG C 760      15.400 -19.294  23.718  1.00 66.89 LIG 0.17  HD
ATOM     18 HE   ARG C 760      16.953 -17.666  23.965  1.00 65.15 LIG 0.18  HD
ENDBRANCH 9 10
ENDBRANCH 8 9
ENDBRANCH 7 8
ENDBRANCH 5 7
ENDBRANCH 1 5
BRANCH 3 19
ATOM     19  CA  GLY C 761      16.058 -13.250  23.341  1.00 62.83 LIG 0.23  C 
BRANCH 19 20
ATOM     20  C   GLY C 761      15.298 -14.546  23.100  1.00 67.24 LIG 0.24  C 
ATOM     21 O    GLY C 761      14.333 -14.851  23.801  1.00 65.14 LIG-0.27  OA
ATOM     22  N   THR C 762      15.758 -15.301  22.103  1.00 72.11 LIG-0.34  N 
ATOM     23 H    THR C 762      16.564 -15.239  21.812  1.00 72.11 LIG 0.16  HD
BRANCH 22 24
ATOM     24  CA  THR C 762      14.966 -16.310  21.391  1.00 75.13 LIG 0.21  C 
BRANCH 24 25
ATOM     25  C   THR C 762      15.392 -17.680  21.911  1.00 73.09 LIG 0.20  C 
ATOM     26 OXT  THR C 762      16.546 -17.856  22.297  1.00 76.95 LIG-0.65  OA
ATOM     27 O    THR C 762      14.617 -18.635  21.969  1.00 68.26 LIG-0.65  OA
ENDBRANCH 24 25
BRANCH 24 28
ATOM     28  CB  THR C 762      15.137 -16.286  19.855  1.00 77.67 LIG 0.15  C 
ATOM     29  CG2 THR C 762      15.513 -17.667  19.348  1.00 76.40 LIG 0.04  C 
BRANCH 28 30
ATOM     30 OG1  THR C 762      13.913 -15.881  19.232  1.00 80.43 LIG-0.39  OA
ATOM     31 HG1  THR C 762      13.390 -15.577  19.815  1.00 80.43 LIG 0.21  HD
ENDBRANCH 28 30
ENDBRANCH 24 28
ENDBRANCH 22 24
ENDBRANCH 19 20
ENDBRANCH 3 19
TORSDOF 11
ENDMDL
MODEL 86
USER: ADFR SOLUTION from run 95
USER: SCORE 7.561629 LL:  -0.959 LR:  -6.649 RR:   0.000 FEB:  -3.368
USER: RMSD 9.966289
USER: SEED 94
USER: STATUS no improvement in best in 37 clusters for 5 generations
USER: GENES 13
USER: genes 0 Translation |==|  0.35853 0.67905 0.85412
USER: genes 1 Rotation |==|  0.25914 0.88099 0.67947 0.62095
USER: genes 2 Torsion [N]-C--CA-[N] |==|  0.02205
USER: genes 3 Torsion [C]-CA--CB-[CG] |==|  0.46384
USER: genes 4 Torsion [CA]-CB--CG-[CD] |==|  0.23770
USER: genes 5 Torsion [CB]-CG--CD-[NE] |==|  0.74576
USER: genes 6 Torsion [CG]-CD--NE-[CZ] |==|  0.54893
USER: genes 7 Torsion [C]-N--CA-[C] |==|  0.26845
USER: genes 8 Torsion [N]-CA--C-[N] |==|  0.99276
USER: genes 9 Torsion [C]-N--CA-[C] |==|  0.48178
USER: genes 10 Torsion [N]-CA--C-[OXT] |==|  0.92398
USER: genes 11 Torsion [N]-CA--CB-[OG1] |==|  0.81234
USER: genes 12 Torsion [CA]-CB--OG1-[HG1] |==|  0.97265
ROOT
ATOM      1  C   ARG C 760      14.848 -14.723  25.262  1.00 56.34 LIG 0.26  C 
ATOM      2 O    ARG C 760      14.659 -13.666  25.855  1.00 53.76 LIG-0.27  OA
ATOM      3  N   GLY C 761      15.237 -14.777  23.992  1.00 59.89 LIG-0.35  N 
ATOM      4 H    GLY C 761      15.179 -15.481  23.501  1.00 59.89 LIG 0.16  HD
ENDROOT
BRANCH 1 5
ATOM      5  CA  ARG C 760      14.634 -16.060  25.972  1.00 61.16 LIG 0.40  C 
ATOM      6  N   ARG C 760      15.096 -17.155  25.121  1.00 59.95 LIG 0.61  N 
BRANCH 5 7
ATOM      7  CB  ARG C 760      15.352 -16.095  27.321  1.00 63.40 LIG 0.05  C 
BRANCH 7 8
ATOM      8  CG  ARG C 760      14.941 -17.247  28.216  1.00 63.69 LIG 0.02  C 
BRANCH 8 9
ATOM      9  CD  ARG C 760      15.743 -18.498  27.897  1.00 63.30 LIG 0.14  C 
BRANCH 9 10
ATOM     10  NE  ARG C 760      15.070 -19.328  26.903  1.00 65.15 LIG-0.23  N 
ATOM     11  CZ  ARG C 760      15.349 -20.609  26.679  1.00 66.46 LIG 0.67  C 
ATOM     12  NH1 ARG C 760      16.289 -21.224  27.385  1.00 66.43 LIG-0.23  N 
ATOM     13  NH2 ARG C 760      14.682 -21.278  25.749  1.00 66.89 LIG-0.23  N 
ATOM     14 2HH1 ARG C 760      16.466 -22.052  27.237  1.00 66.43 LIG 0.17  HD
ATOM     15 1HH1 ARG C 760      16.722 -20.794  27.992  1.00 66.43 LIG 0.17  HD
ATOM     16 2HH2 ARG C 760      14.862 -22.106  25.604  1.00 66.89 LIG 0.17  HD
ATOM     17 1HH2 ARG C 760      14.071 -20.884  25.292  1.00 66.89 LIG 0.17  HD
ATOM     18 HE   ARG C 760      14.451 -18.964  26.430  1.00 65.15 LIG 0.18  HD
ENDBRANCH 9 10
ENDBRANCH 8 9
ENDBRANCH 7 8
ENDBRANCH 5 7
ENDBRANCH 1 5
BRANCH 3 19
ATOM     19  CA  GLY C 761      15.804 -13.621  23.318  1.00 62.83 LIG 0.23  C 
BRANCH 19 20
ATOM     20  C   GLY C 761      17.312 -13.445  23.210  1.00 67.24 LIG 0.24  C 
ATOM     21 O    GLY C 761      17.793 -12.495  22.593  1.00 65.14 LIG-0.27  OA
ATOM     22  N   THR C 762      18.040 -14.382  23.814  1.00 72.11 LIG-0.34  N 
ATOM     23 H    THR C 762      17.731 -15.165  23.990  1.00 72.11 LIG 0.16  HD
BRANCH 22 24
ATOM     24  CA  THR C 762      19.431 -14.204  24.247  1.00 75.13 LIG 0.21  C 
BRANCH 24 25
ATOM     25  C   THR C 762      19.831 -15.449  25.033  1.00 73.09 LIG 0.20  C 
ATOM     26 OXT  THR C 762      18.973 -16.102  25.623  1.00 76.95 LIG-0.65  OA
ATOM     27 O    THR C 762      20.996 -15.843  25.101  1.00 68.26 LIG-0.65  OA
ENDBRANCH 24 25
BRANCH 24 28
ATOM     28  CB  THR C 762      19.669 -12.959  25.132  1.00 77.67 LIG 0.15  C 
ATOM     29  CG2 THR C 762      21.086 -12.966  25.677  1.00 76.40 LIG 0.04  C 
BRANCH 28 30
ATOM     30 OG1  THR C 762      19.474 -11.767  24.363  1.00 80.43 LIG-0.39  OA
ATOM     31 HG1  THR C 762      19.402 -11.967  23.550  1.00 80.43 LIG 0.21  HD
ENDBRANCH 28 30
ENDBRANCH 24 28
ENDBRANCH 22 24
ENDBRANCH 19 20
ENDBRANCH 3 19
TORSDOF 11
ENDMDL
