MODEL 1
USER: ADFR SOLUTION from run 122
USER: SCORE 14.196991 LL:  -2.759 LR: -12.164 RR:   0.000 FEB:  -7.988
USER: RMSD 6.302741
USER: SEED 121
USER: STATUS no improvement in best in 26 clusters for 5 generations
USER: GENES 16
USER: genes 0 Translation |==|  0.45021 0.53638 0.58474
USER: genes 1 Rotation |==|  0.26131 0.16493 0.34385 0.73742
USER: genes 2 Torsion [N]-C--CA-[N] |==|  0.52217
USER: genes 3 Torsion [C]-CA--N-[C] |==|  0.36644
USER: genes 4 Torsion [N]-C--CA-[N] |==|  0.01172
USER: genes 5 Torsion [C]-CA--N-[C] |==|  0.21361
USER: genes 6 Torsion [N]-C--CA-[N] |==|  0.04747
USER: genes 7 Torsion [C]-CA--CB-[CG2] |==|  0.57814
USER: genes 8 Torsion [C]-CA--CB-[CG] |==|  0.98122
USER: genes 9 Torsion [CA]-CB--CG-[SD] |==|  0.67375
USER: genes 10 Torsion [CB]-CG--SD-[CE] |==|  0.40178
USER: genes 11 Torsion [N]-CA--C-[O] |==|  0.55005
USER: genes 12 Torsion [C]-N--CA-[C] |==|  0.18571
USER: genes 13 Torsion [N]-CA--C-[O] |==|  0.99563
USER: genes 14 Torsion [N]-CA--CB-[CG] |==|  0.56343
USER: genes 15 Torsion [CA]-CB--CG-[CD2] |==|  0.23744
ROOT
ATOM      1  C   GLY E2013      -0.309 -15.085 -26.675  1.00 21.81 LIG 0.24  C 
ATOM      2 O    GLY E2013      -1.400 -14.513 -26.522  1.00 22.84 LIG-0.27  OA
ATOM      3  N   PRO E2014       0.766 -14.794 -25.939  1.00 21.64 LIG-0.34  N 
ATOM      4  CA  PRO E2014       0.762 -13.843 -24.823  1.00 21.53 LIG 0.18  C 
ATOM      5  CB  PRO E2014       2.010 -14.249 -24.033  1.00 21.78 LIG 0.04  C 
ATOM      6  CG  PRO E2014       2.939 -14.859 -25.043  1.00 22.21 LIG 0.02  C 
ATOM      7  CD  PRO E2014       2.069 -15.461 -26.118  1.00 21.52 LIG 0.13  C 
ENDROOT
BRANCH 1 8
ATOM      8  CA  GLY E2013      -0.148 -16.185 -27.718  1.00 23.09 LIG 0.23  C 
BRANCH 8 9
ATOM      9  N   GLY E2013      -1.357 -16.225 -28.540  1.00 25.21 LIG-0.35  N 
ATOM     10  C   MET E2012      -1.306 -16.257 -29.870  1.00 26.98 LIG 0.24  C 
ATOM     11 O    MET E2012      -0.266 -16.076 -30.519  1.00 24.85 LIG-0.27  OA
ATOM     12 H    GLY E2013      -2.089 -16.225 -28.089  1.00 25.21 LIG 0.16  HD
BRANCH 10 13
ATOM     13  CA  MET E2012      -2.620 -16.580 -30.571  1.00 29.83 LIG 0.18  C 
BRANCH 13 14
ATOM     14  N   MET E2012      -3.731 -16.699 -29.625  1.00 30.84 LIG-0.35  N 
ATOM     15  C   VAL E2011      -4.319 -15.644 -29.077  1.00 36.49 LIG 0.26  C 
ATOM     16 O    VAL E2011      -3.929 -14.482 -29.262  1.00 38.00 LIG-0.27  OA
ATOM     17 H    MET E2012      -3.963 -17.510 -29.459  1.00 30.84 LIG 0.16  HD
BRANCH 15 18
ATOM     18  CA  VAL E2011      -5.527 -15.952 -28.169  1.00 39.95 LIG 0.40  C 
ATOM     19  N   VAL E2011      -5.541 -17.395 -27.762  1.00 39.42 LIG 0.61  N 
BRANCH 18 20
ATOM     20  CB  VAL E2011      -5.591 -15.004 -26.932  1.00 43.12 LIG 0.03  C 
ATOM     21  CG2 VAL E2011      -6.282 -15.702 -25.764  1.00 41.73 LIG 0.01  C 
ATOM     22  CG1 VAL E2011      -6.275 -13.673 -27.253  1.00 40.75 LIG 0.01  C 
ENDBRANCH 18 20
ENDBRANCH 15 18
ENDBRANCH 13 14
BRANCH 13 23
ATOM     23  CB  MET E2012      -2.895 -15.447 -31.581  1.00 32.11 LIG 0.04  C 
BRANCH 23 24
ATOM     24  CG  MET E2012      -1.950 -14.240 -31.551  1.00 37.34 LIG 0.08  C 
BRANCH 24 25
ATOM     25 SD   MET E2012      -2.733 -12.670 -31.131  1.00 39.45 LIG-0.17  SA
ATOM     26  CE  MET E2012      -1.408 -11.898 -30.189  1.00 39.28 LIG 0.09  C 
ENDBRANCH 24 25
ENDBRANCH 23 24
ENDBRANCH 13 23
ENDBRANCH 10 13
ENDBRANCH 8 9
ENDBRANCH 1 8
BRANCH 4 27
ATOM     27  C   PRO E2014       0.863 -12.367 -25.261  1.00 21.57 LIG 0.24  C 
ATOM     28 O    PRO E2014       1.208 -11.464 -24.442  1.00 21.05 LIG-0.27  OA
ATOM     29  N   TRP E2015       0.586 -12.118 -26.544  1.00 20.29 LIG-0.34  N 
ATOM     30 H    TRP E2015       0.269 -12.697 -27.095  1.00 20.29 LIG 0.16  HD
BRANCH 29 31
ATOM     31  CA  TRP E2015       0.814 -10.785 -27.110  1.00 20.70 LIG 0.19  C 
BRANCH 31 32
ATOM     32  C   TRP E2015       2.286 -10.399 -27.183  1.00 20.18 LIG 0.20  C 
ATOM     33 O    TRP E2015       3.185 -11.130 -26.775  1.00 21.31 LIG-0.65  OA
ATOM     34 OXT  TRP E2015       2.596  -9.301 -27.633  1.00 19.23 LIG-0.65  OA
ENDBRANCH 31 32
BRANCH 31 35
ATOM     35  CB  TRP E2015       0.083  -9.717 -26.283  1.00 21.64 LIG 0.08  C 
BRANCH 35 36
ATOM     36  CG  TRP E2015      -0.236  -8.406 -26.999  1.00 22.27 LIG-0.03  A 
ATOM     37  CD2 TRP E2015      -1.392  -8.167 -27.805  1.00 22.85 LIG-0.00  A 
ATOM     38  CE2 TRP E2015      -1.326  -6.828 -28.263  1.00 23.44 LIG 0.04  A 
ATOM     39  CE3 TRP E2015      -2.496  -8.960 -28.175  1.00 23.10 LIG 0.01  A 
ATOM     40  CZ2 TRP E2015      -2.319  -6.269 -29.091  1.00 22.82 LIG 0.03  A 
ATOM     41  NE1 TRP E2015      -0.174  -6.272 -27.762  1.00 23.03 LIG-0.36  N 
ATOM     42  CH2 TRP E2015      -3.374  -7.068 -29.455  1.00 23.08 LIG 0.00  A 
ATOM     43  CZ3 TRP E2015      -3.481  -8.397 -29.009  1.00 24.27 LIG 0.00  A 
ATOM     44 HE1  TRP E2015       0.100  -5.471 -27.911  1.00 23.03 LIG 0.17  HD
ATOM     45  CD1 TRP E2015       0.475  -7.218 -26.977  1.00 22.46 LIG 0.10  A 
ENDBRANCH 35 36
ENDBRANCH 31 35
ENDBRANCH 29 31
ENDBRANCH 4 27
TORSDOF 14
ENDMDL
MODEL 2
USER: ADFR SOLUTION from run 56
USER: SCORE 14.262656 LL:  -2.819 LR: -11.687 RR:   0.000 FEB:  -7.510
USER: RMSD 5.259626
USER: SEED 55
USER: STATUS no improvement in best in 10 clusters for 5 generations
USER: GENES 16
USER: genes 0 Translation |==|  0.45154 0.53673 0.57850
USER: genes 1 Rotation |==|  0.26536 0.16374 0.34016 0.73733
USER: genes 2 Torsion [N]-C--CA-[N] |==|  0.49224
USER: genes 3 Torsion [C]-CA--N-[C] |==|  0.20210
USER: genes 4 Torsion [N]-C--CA-[N] |==|  0.04123
USER: genes 5 Torsion [C]-CA--N-[C] |==|  0.68917
USER: genes 6 Torsion [N]-C--CA-[N] |==|  0.83463
USER: genes 7 Torsion [C]-CA--CB-[CG2] |==|  0.11441
USER: genes 8 Torsion [C]-CA--CB-[CG] |==|  0.67884
USER: genes 9 Torsion [CA]-CB--CG-[SD] |==|  0.33778
USER: genes 10 Torsion [CB]-CG--SD-[CE] |==|  0.73882
USER: genes 11 Torsion [N]-CA--C-[O] |==|  0.54909
USER: genes 12 Torsion [C]-N--CA-[C] |==|  0.18512
USER: genes 13 Torsion [N]-CA--C-[O] |==|  0.53213
USER: genes 14 Torsion [N]-CA--CB-[CG] |==|  0.56325
USER: genes 15 Torsion [CA]-CB--CG-[CD2] |==|  0.24488
ROOT
ATOM      1  C   GLY E2013      -0.288 -15.076 -26.783  1.00 21.81 LIG 0.24  C 
ATOM      2 O    GLY E2013      -1.385 -14.513 -26.637  1.00 22.84 LIG-0.27  OA
ATOM      3  N   PRO E2014       0.774 -14.790 -26.026  1.00 21.64 LIG-0.34  N 
ATOM      4  CA  PRO E2014       0.748 -13.858 -24.895  1.00 21.53 LIG 0.18  C 
ATOM      5  CB  PRO E2014       1.987 -14.269 -24.094  1.00 21.78 LIG 0.04  C 
ATOM      6  CG  PRO E2014       2.934 -14.857 -25.100  1.00 22.21 LIG 0.02  C 
ATOM      7  CD  PRO E2014       2.083 -15.447 -26.197  1.00 21.52 LIG 0.13  C 
ENDROOT
BRANCH 1 8
ATOM      8  CA  GLY E2013      -0.106 -16.158 -27.841  1.00 23.09 LIG 0.23  C 
BRANCH 8 9
ATOM      9  N   GLY E2013      -1.386 -16.371 -28.512  1.00 25.21 LIG-0.35  N 
ATOM     10  C   MET E2012      -1.891 -15.486 -29.370  1.00 26.98 LIG 0.24  C 
ATOM     11 O    MET E2012      -1.423 -14.350 -29.533  1.00 24.85 LIG-0.27  OA
ATOM     12 H    GLY E2013      -1.775 -17.109 -28.303  1.00 25.21 LIG 0.16  HD
BRANCH 10 13
ATOM     13  CA  MET E2012      -3.078 -15.970 -30.194  1.00 29.83 LIG 0.18  C 
BRANCH 13 14
ATOM     14  N   MET E2012      -3.661 -17.197 -29.645  1.00 30.84 LIG-0.35  N 
ATOM     15  C   VAL E2011      -3.589 -18.364 -30.272  1.00 36.49 LIG 0.26  C 
ATOM     16 O    VAL E2011      -3.094 -18.494 -31.400  1.00 38.00 LIG-0.27  OA
ATOM     17 H    MET E2012      -4.050 -17.089 -28.886  1.00 30.84 LIG 0.16  HD
BRANCH 15 18
ATOM     18  CA  VAL E2011      -4.183 -19.566 -29.509  1.00 39.95 LIG 0.40  C 
ATOM     19  N   VAL E2011      -3.491 -19.766 -28.195  1.00 39.42 LIG 0.61  N 
BRANCH 18 20
ATOM     20  CB  VAL E2011      -5.728 -19.447 -29.334  1.00 43.12 LIG 0.03  C 
ATOM     21  CG2 VAL E2011      -6.368 -18.921 -30.617  1.00 41.73 LIG 0.01  C 
ATOM     22  CG1 VAL E2011      -6.114 -18.576 -28.137  1.00 40.75 LIG 0.01  C 
ENDBRANCH 18 20
ENDBRANCH 15 18
ENDBRANCH 13 14
BRANCH 13 23
ATOM     23  CB  MET E2012      -4.124 -14.838 -30.205  1.00 32.11 LIG 0.04  C 
BRANCH 23 24
ATOM     24  CG  MET E2012      -5.470 -15.122 -29.527  1.00 37.34 LIG 0.08  C 
BRANCH 24 25
ATOM     25 SD   MET E2012      -5.900 -13.995 -28.186  1.00 39.45 LIG-0.17  SA
ATOM     26  CE  MET E2012      -5.274 -14.926 -26.778  1.00 39.28 LIG 0.09  C 
ENDBRANCH 24 25
ENDBRANCH 23 24
ENDBRANCH 13 23
ENDBRANCH 10 13
ENDBRANCH 8 9
ENDBRANCH 1 8
BRANCH 4 27
ATOM     27  C   PRO E2014       0.847 -12.374 -25.308  1.00 21.57 LIG 0.24  C 
ATOM     28 O    PRO E2014       1.167 -11.482 -24.469  1.00 21.05 LIG-0.27  OA
ATOM     29  N   TRP E2015       0.593 -12.107 -26.593  1.00 20.29 LIG-0.34  N 
ATOM     30 H    TRP E2015       0.292 -12.680 -27.159  1.00 20.29 LIG 0.16  HD
BRANCH 29 31
ATOM     31  CA  TRP E2015       0.822 -10.763 -27.134  1.00 20.70 LIG 0.19  C 
BRANCH 31 32
ATOM     32  C   TRP E2015       2.292 -10.364 -27.166  1.00 20.18 LIG 0.20  C 
ATOM     33 O    TRP E2015       2.664  -9.215 -27.387  1.00 21.31 LIG-0.65  OA
ATOM     34 OXT  TRP E2015       3.151 -11.225 -27.000  1.00 19.23 LIG-0.65  OA
ENDBRANCH 31 32
BRANCH 31 35
ATOM     35  CB  TRP E2015       0.062  -9.715 -26.308  1.00 21.64 LIG 0.08  C 
BRANCH 35 36
ATOM     36  CG  TRP E2015      -0.250  -8.396 -27.012  1.00 22.27 LIG-0.03  A 
ATOM     37  CD2 TRP E2015      -1.415  -8.137 -27.798  1.00 22.85 LIG-0.00  A 
ATOM     38  CE2 TRP E2015      -1.339  -6.796 -28.249  1.00 23.44 LIG 0.04  A 
ATOM     39  CE3 TRP E2015      -2.536  -8.912 -28.155  1.00 23.10 LIG 0.01  A 
ATOM     40  CZ2 TRP E2015      -2.336  -6.219 -29.058  1.00 22.82 LIG 0.03  A 
ATOM     41  NE1 TRP E2015      -0.172  -6.259 -27.763  1.00 23.03 LIG-0.36  N 
ATOM     42  CH2 TRP E2015      -3.408  -7.001 -29.410  1.00 23.08 LIG 0.00  A 
ATOM     43  CZ3 TRP E2015      -3.526  -8.331 -28.970  1.00 24.27 LIG 0.00  A 
ATOM     44 HE1  TRP E2015       0.111  -5.460 -27.911  1.00 23.03 LIG 0.17  HD
ATOM     45  CD1 TRP E2015       0.477  -7.218 -26.993  1.00 22.46 LIG 0.10  A 
ENDBRANCH 35 36
ENDBRANCH 31 35
ENDBRANCH 29 31
ENDBRANCH 4 27
TORSDOF 14
ENDMDL
MODEL 3
USER: ADFR SOLUTION from run 112
USER: SCORE 14.176976 LL:  -3.202 LR: -11.651 RR:   0.000 FEB:  -7.475
USER: RMSD 4.682440
USER: SEED 111
USER: STATUS no improvement in best in 7 clusters for 5 generations
USER: GENES 16
USER: genes 0 Translation |==|  0.42000 0.52993 0.51997
USER: genes 1 Rotation |==|  0.32593 0.41584 0.26123 0.89447
USER: genes 2 Torsion [N]-C--CA-[N] |==|  0.40302
USER: genes 3 Torsion [C]-CA--N-[C] |==|  0.43605
USER: genes 4 Torsion [N]-C--CA-[N] |==|  0.94268
USER: genes 5 Torsion [C]-CA--N-[C] |==|  0.70216
USER: genes 6 Torsion [N]-C--CA-[N] |==|  0.82277
USER: genes 7 Torsion [C]-CA--CB-[CG2] |==|  0.45459
USER: genes 8 Torsion [C]-CA--CB-[CG] |==|  0.76336
USER: genes 9 Torsion [CA]-CB--CG-[SD] |==|  0.72176
USER: genes 10 Torsion [CB]-CG--SD-[CE] |==|  0.52863
USER: genes 11 Torsion [N]-CA--C-[O] |==|  0.66400
USER: genes 12 Torsion [C]-N--CA-[C] |==|  0.54506
USER: genes 13 Torsion [N]-CA--C-[O] |==|  0.58470
USER: genes 14 Torsion [N]-CA--CB-[CG] |==|  0.15221
USER: genes 15 Torsion [CA]-CB--CG-[CD2] |==|  0.34508
ROOT
ATOM      1  C   GLY E2013      -0.785 -15.250 -27.793  1.00 21.81 LIG 0.24  C 
ATOM      2 O    GLY E2013      -1.236 -15.202 -26.637  1.00 22.84 LIG-0.27  OA
ATOM      3  N   PRO E2014       0.468 -15.624 -28.061  1.00 21.64 LIG-0.34  N 
ATOM      4  CA  PRO E2014       1.417 -16.099 -27.049  1.00 21.53 LIG 0.18  C 
ATOM      5  CB  PRO E2014       2.452 -16.854 -27.890  1.00 21.78 LIG 0.04  C 
ATOM      6  CG  PRO E2014       2.417 -16.203 -29.242  1.00 22.21 LIG 0.02  C 
ATOM      7  CD  PRO E2014       1.016 -15.676 -29.429  1.00 21.52 LIG 0.13  C 
ENDROOT
BRANCH 1 8
ATOM      8  CA  GLY E2013      -1.666 -14.897 -28.985  1.00 23.09 LIG 0.23  C 
BRANCH 8 9
ATOM      9  N   GLY E2013      -3.033 -15.321 -28.693  1.00 25.21 LIG-0.35  N 
ATOM     10  C   MET E2012      -4.088 -14.778 -29.299  1.00 26.98 LIG 0.24  C 
ATOM     11 O    MET E2012      -4.020 -13.764 -30.010  1.00 24.85 LIG-0.27  OA
ATOM     12 H    GLY E2013      -3.090 -15.944 -28.103  1.00 25.21 LIG 0.16  HD
BRANCH 10 13
ATOM     13  CA  MET E2012      -5.410 -15.509 -29.103  1.00 29.83 LIG 0.18  C 
BRANCH 13 14
ATOM     14  N   MET E2012      -5.210 -16.904 -28.703  1.00 30.84 LIG-0.35  N 
ATOM     15  C   VAL E2011      -5.430 -17.921 -29.524  1.00 36.49 LIG 0.26  C 
ATOM     16 O    VAL E2011      -5.893 -17.779 -30.665  1.00 38.00 LIG-0.27  OA
ATOM     17 H    MET E2012      -4.939 -16.999 -27.892  1.00 30.84 LIG 0.16  HD
BRANCH 15 18
ATOM     18  CA  VAL E2011      -5.086 -19.316 -28.963  1.00 39.95 LIG 0.40  C 
ATOM     19  N   VAL E2011      -3.619 -19.437 -28.682  1.00 39.42 LIG 0.61  N 
BRANCH 18 20
ATOM     20  CB  VAL E2011      -5.944 -19.675 -27.711  1.00 43.12 LIG 0.03  C 
ATOM     21  CG2 VAL E2011      -5.876 -21.175 -27.434  1.00 41.73 LIG 0.01  C 
ATOM     22  CG1 VAL E2011      -7.396 -19.212 -27.848  1.00 40.75 LIG 0.01  C 
ENDBRANCH 18 20
ENDBRANCH 15 18
ENDBRANCH 13 14
BRANCH 13 23
ATOM     23  CB  MET E2012      -6.202 -14.749 -28.021  1.00 32.11 LIG 0.04  C 
BRANCH 23 24
ATOM     24  CG  MET E2012      -5.905 -15.102 -26.559  1.00 37.34 LIG 0.08  C 
BRANCH 24 25
ATOM     25 SD   MET E2012      -7.096 -16.216 -25.787  1.00 39.45 LIG-0.17  SA
ATOM     26  CE  MET E2012      -6.566 -16.104 -24.070  1.00 39.28 LIG 0.09  C 
ENDBRANCH 24 25
ENDBRANCH 23 24
ENDBRANCH 13 23
ENDBRANCH 10 13
ENDBRANCH 8 9
ENDBRANCH 1 8
BRANCH 4 27
ATOM     27  C   PRO E2014       2.099 -14.967 -26.253  1.00 21.57 LIG 0.24  C 
ATOM     28 O    PRO E2014       3.358 -14.837 -26.250  1.00 21.05 LIG-0.27  OA
ATOM     29  N   TRP E2015       1.280 -14.140 -25.596  1.00 20.29 LIG-0.34  N 
ATOM     30 H    TRP E2015       0.432 -14.258 -25.513  1.00 20.29 LIG 0.16  HD
BRANCH 29 31
ATOM     31  CA  TRP E2015       1.803 -12.933 -24.948  1.00 20.70 LIG 0.19  C 
BRANCH 31 32
ATOM     32  C   TRP E2015       0.843 -12.323 -23.935  1.00 20.18 LIG 0.20  C 
ATOM     33 O    TRP E2015       0.802 -11.118 -23.699  1.00 21.31 LIG-0.65  OA
ATOM     34 OXT  TRP E2015       0.100 -13.060 -23.294  1.00 19.23 LIG-0.65  OA
ENDBRANCH 31 32
BRANCH 31 35
ATOM     35  CB  TRP E2015       2.133 -11.860 -25.997  1.00 21.64 LIG 0.08  C 
BRANCH 35 36
ATOM     36  CG  TRP E2015       1.002 -11.471 -26.946  1.00 22.27 LIG-0.03  A 
ATOM     37  CD2 TRP E2015       0.509 -10.143 -27.141  1.00 22.85 LIG-0.00  A 
ATOM     38  CE2 TRP E2015      -0.516 -10.205 -28.116  1.00 23.44 LIG 0.04  A 
ATOM     39  CE3 TRP E2015       0.850  -8.893 -26.590  1.00 23.10 LIG 0.01  A 
ATOM     40  CZ2 TRP E2015      -1.219  -9.060 -28.539  1.00 22.82 LIG 0.03  A 
ATOM     41  NE1 TRP E2015      -0.649 -11.518 -28.499  1.00 23.03 LIG-0.36  N 
ATOM     42  CH2 TRP E2015      -0.883  -7.857 -27.972  1.00 23.08 LIG 0.00  A 
ATOM     43  CZ3 TRP E2015       0.139  -7.754 -27.012  1.00 24.27 LIG 0.00  A 
ATOM     44 HE1  TRP E2015      -1.218 -11.817 -29.071  1.00 23.03 LIG 0.17  HD
ATOM     45  CD1 TRP E2015       0.286 -12.283 -27.810  1.00 22.46 LIG 0.10  A 
ENDBRANCH 35 36
ENDBRANCH 31 35
ENDBRANCH 29 31
ENDBRANCH 4 27
TORSDOF 14
ENDMDL
MODEL 4
USER: ADFR SOLUTION from run 52
USER: SCORE 13.542807 LL:  -2.700 LR: -11.323 RR:   0.000 FEB:  -7.147
USER: RMSD 6.262695
USER: SEED 51
USER: STATUS no improvement in best in 16 clusters for 5 generations
USER: GENES 16
USER: genes 0 Translation |==|  0.45642 0.52324 0.57611
USER: genes 1 Rotation |==|  0.26505 0.23013 0.31859 0.79843
USER: genes 2 Torsion [N]-C--CA-[N] |==|  0.53949
USER: genes 3 Torsion [C]-CA--N-[C] |==|  0.22528
USER: genes 4 Torsion [N]-C--CA-[N] |==|  0.15012
USER: genes 5 Torsion [C]-CA--N-[C] |==|  0.76925
USER: genes 6 Torsion [N]-C--CA-[N] |==|  0.52797
USER: genes 7 Torsion [C]-CA--CB-[CG2] |==|  0.60170
USER: genes 8 Torsion [C]-CA--CB-[CG] |==|  0.57854
USER: genes 9 Torsion [CA]-CB--CG-[SD] |==|  0.27303
USER: genes 10 Torsion [CB]-CG--SD-[CE] |==|  0.59282
USER: genes 11 Torsion [N]-CA--C-[O] |==|  0.52743
USER: genes 12 Torsion [C]-N--CA-[C] |==|  0.82556
USER: genes 13 Torsion [N]-CA--C-[O] |==|  0.50425
USER: genes 14 Torsion [N]-CA--CB-[CG] |==|  0.48079
USER: genes 15 Torsion [CA]-CB--CG-[CD2] |==|  0.73548
ROOT
ATOM      1  C   GLY E2013      -0.211 -15.420 -26.824  1.00 21.81 LIG 0.24  C 
ATOM      2 O    GLY E2013      -1.168 -14.856 -26.269  1.00 22.84 LIG-0.27  OA
ATOM      3  N   PRO E2014       1.025 -15.402 -26.320  1.00 21.64 LIG-0.34  N 
ATOM      4  CA  PRO E2014       1.376 -14.801 -25.030  1.00 21.53 LIG 0.18  C 
ATOM      5  CB  PRO E2014       2.711 -15.476 -24.699  1.00 21.78 LIG 0.04  C 
ATOM      6  CG  PRO E2014       3.319 -15.829 -26.026  1.00 22.21 LIG 0.02  C 
ATOM      7  CD  PRO E2014       2.170 -16.061 -26.976  1.00 21.52 LIG 0.13  C 
ENDROOT
BRANCH 1 8
ATOM      8  CA  GLY E2013      -0.412 -16.193 -28.122  1.00 23.09 LIG 0.23  C 
BRANCH 8 9
ATOM      9  N   GLY E2013      -1.709 -15.824 -28.686  1.00 25.21 LIG-0.35  N 
ATOM     10  C   MET E2012      -1.881 -14.708 -29.393  1.00 26.98 LIG 0.24  C 
ATOM     11 O    MET E2012      -1.025 -13.815 -29.478  1.00 24.85 LIG-0.27  OA
ATOM     12 H    GLY E2013      -2.338 -16.386 -28.520  1.00 25.21 LIG 0.16  HD
BRANCH 10 13
ATOM     13  CA  MET E2012      -3.201 -14.602 -30.145  1.00 29.83 LIG 0.18  C 
BRANCH 13 14
ATOM     14  N   MET E2012      -4.352 -14.795 -29.261  1.00 30.84 LIG-0.35  N 
ATOM     15  C   VAL E2011      -4.803 -15.997 -28.927  1.00 36.49 LIG 0.26  C 
ATOM     16 O    VAL E2011      -4.337 -17.045 -29.395  1.00 38.00 LIG-0.27  OA
ATOM     17 H    MET E2012      -4.705 -14.062 -28.981  1.00 30.84 LIG 0.16  HD
BRANCH 15 18
ATOM     18  CA  VAL E2011      -5.971 -16.013 -27.919  1.00 39.95 LIG 0.40  C 
ATOM     19  N   VAL E2011      -6.239 -17.403 -27.428  1.00 39.42 LIG 0.61  N 
BRANCH 18 20
ATOM     20  CB  VAL E2011      -5.744 -15.019 -26.739  1.00 43.12 LIG 0.03  C 
ATOM     21  CG2 VAL E2011      -6.283 -15.608 -25.438  1.00 41.73 LIG 0.01  C 
ATOM     22  CG1 VAL E2011      -6.360 -13.644 -27.010  1.00 40.75 LIG 0.01  C 
ENDBRANCH 18 20
ENDBRANCH 15 18
ENDBRANCH 13 14
BRANCH 13 23
ATOM     23  CB  MET E2012      -3.252 -13.204 -30.794  1.00 32.11 LIG 0.04  C 
BRANCH 23 24
ATOM     24  CG  MET E2012      -4.637 -12.588 -31.021  1.00 37.34 LIG 0.08  C 
BRANCH 24 25
ATOM     25 SD   MET E2012      -5.162 -11.408 -29.761  1.00 39.45 LIG-0.17  SA
ATOM     26  CE  MET E2012      -6.934 -11.722 -29.752  1.00 39.28 LIG 0.09  C 
ENDBRANCH 24 25
ENDBRANCH 23 24
ENDBRANCH 13 23
ENDBRANCH 10 13
ENDBRANCH 8 9
ENDBRANCH 1 8
BRANCH 4 27
ATOM     27  C   PRO E2014       1.551 -13.269 -25.084  1.00 21.57 LIG 0.24  C 
ATOM     28 O    PRO E2014       2.032 -12.631 -24.101  1.00 21.05 LIG-0.27  OA
ATOM     29  N   TRP E2015       1.184 -12.678 -26.225  1.00 20.29 LIG-0.34  N 
ATOM     30 H    TRP E2015       0.778 -13.076 -26.871  1.00 20.29 LIG 0.16  HD
BRANCH 29 31
ATOM     31  CA  TRP E2015       1.463 -11.256 -26.451  1.00 20.70 LIG 0.19  C 
BRANCH 31 32
ATOM     32  C   TRP E2015       0.758 -10.334 -25.464  1.00 20.18 LIG 0.20  C 
ATOM     33 O    TRP E2015       0.850  -9.111 -25.515  1.00 21.31 LIG-0.65  OA
ATOM     34 OXT  TRP E2015       0.096 -10.824 -24.554  1.00 19.23 LIG-0.65  OA
ENDBRANCH 31 32
BRANCH 31 35
ATOM     35  CB  TRP E2015       1.042 -10.845 -27.870  1.00 21.64 LIG 0.08  C 
BRANCH 35 36
ATOM     36  CG  TRP E2015       1.121  -9.355 -28.195  1.00 22.27 LIG-0.03  A 
ATOM     37  CD2 TRP E2015       0.033  -8.433 -28.104  1.00 22.85 LIG-0.00  A 
ATOM     38  CE2 TRP E2015       0.524  -7.154 -28.462  1.00 23.44 LIG 0.04  A 
ATOM     39  CE3 TRP E2015      -1.320  -8.564 -27.735  1.00 23.10 LIG 0.01  A 
ATOM     40  CZ2 TRP E2015      -0.301  -6.012 -28.480  1.00 22.82 LIG 0.03  A 
ATOM     41  NE1 TRP E2015       1.857  -7.288 -28.765  1.00 23.03 LIG-0.36  N 
ATOM     42  CH2 TRP E2015      -1.620  -6.169 -28.137  1.00 23.08 LIG 0.00  A 
ATOM     43  CZ3 TRP E2015      -2.140  -7.420 -27.762  1.00 24.27 LIG 0.00  A 
ATOM     44 HE1  TRP E2015       2.377  -6.655 -29.026  1.00 23.03 LIG 0.17  HD
ATOM     45  CD1 TRP E2015       2.227  -8.616 -28.580  1.00 22.46 LIG 0.10  A 
ENDBRANCH 35 36
ENDBRANCH 31 35
ENDBRANCH 29 31
ENDBRANCH 4 27
TORSDOF 14
ENDMDL
MODEL 5
USER: ADFR SOLUTION from run 122
USER: SCORE 12.869914 LL:  -2.374 LR: -11.240 RR:   0.000 FEB:  -7.063
USER: RMSD 6.509082
USER: SEED 121
USER: STATUS no improvement in best in 26 clusters for 5 generations
USER: GENES 16
USER: genes 0 Translation |==|  0.46196 0.53625 0.57694
USER: genes 1 Rotation |==|  0.27408 0.17084 0.32573 0.74544
USER: genes 2 Torsion [N]-C--CA-[N] |==|  0.47067
USER: genes 3 Torsion [C]-CA--N-[C] |==|  0.28580
USER: genes 4 Torsion [N]-C--CA-[N] |==|  0.14895
USER: genes 5 Torsion [C]-CA--N-[C] |==|  0.19434
USER: genes 6 Torsion [N]-C--CA-[N] |==|  0.03037
USER: genes 7 Torsion [C]-CA--CB-[CG2] |==|  0.61593
USER: genes 8 Torsion [C]-CA--CB-[CG] |==|  0.24371
USER: genes 9 Torsion [CA]-CB--CG-[SD] |==|  0.68038
USER: genes 10 Torsion [CB]-CG--SD-[CE] |==|  0.42613
USER: genes 11 Torsion [N]-CA--C-[O] |==|  0.47852
USER: genes 12 Torsion [C]-N--CA-[C] |==|  0.78236
USER: genes 13 Torsion [N]-CA--C-[O] |==|  0.86895
USER: genes 14 Torsion [N]-CA--CB-[CG] |==|  0.66152
USER: genes 15 Torsion [CA]-CB--CG-[CD2] |==|  0.33001
ROOT
ATOM      1  C   GLY E2013      -0.124 -15.089 -26.810  1.00 21.81 LIG 0.24  C 
ATOM      2 O    GLY E2013      -1.217 -14.531 -26.622  1.00 22.84 LIG-0.27  OA
ATOM      3  N   PRO E2014       0.938 -14.871 -26.030  1.00 21.64 LIG-0.34  N 
ATOM      4  CA  PRO E2014       0.914 -14.031 -24.828  1.00 21.53 LIG 0.18  C 
ATOM      5  CB  PRO E2014       2.148 -14.514 -24.059  1.00 21.78 LIG 0.04  C 
ATOM      6  CG  PRO E2014       3.094 -15.026 -25.106  1.00 22.21 LIG 0.02  C 
ATOM      7  CD  PRO E2014       2.243 -15.521 -26.249  1.00 21.52 LIG 0.13  C 
ENDROOT
BRANCH 1 8
ATOM      8  CA  GLY E2013       0.055 -16.084 -27.950  1.00 23.09 LIG 0.23  C 
BRANCH 8 9
ATOM      9  N   GLY E2013      -1.259 -16.376 -28.521  1.00 25.21 LIG-0.35  N 
ATOM     10  C   MET E2012      -1.665 -15.840 -29.671  1.00 26.98 LIG 0.24  C 
ATOM     11 O    MET E2012      -1.058 -14.929 -30.252  1.00 24.85 LIG-0.27  OA
ATOM     12 H    GLY E2013      -1.735 -16.916 -28.051  1.00 25.21 LIG 0.16  HD
BRANCH 10 13
ATOM     13  CA  MET E2012      -2.925 -16.451 -30.273  1.00 29.83 LIG 0.18  C 
BRANCH 13 14
ATOM     14  N   MET E2012      -4.036 -16.464 -29.320  1.00 30.84 LIG-0.35  N 
ATOM     15  C   VAL E2011      -4.654 -15.359 -28.927  1.00 36.49 LIG 0.26  C 
ATOM     16 O    VAL E2011      -4.292 -14.225 -29.273  1.00 38.00 LIG-0.27  OA
ATOM     17 H    MET E2012      -4.248 -17.250 -29.042  1.00 30.84 LIG 0.16  HD
BRANCH 15 18
ATOM     18  CA  VAL E2011      -5.857 -15.568 -27.985  1.00 39.95 LIG 0.40  C 
ATOM     19  N   VAL E2011      -5.920 -16.983 -27.496  1.00 39.42 LIG 0.61  N 
BRANCH 18 20
ATOM     20  CB  VAL E2011      -5.864 -14.549 -26.804  1.00 43.12 LIG 0.03  C 
ATOM     21  CG2 VAL E2011      -6.249 -15.249 -25.503  1.00 41.73 LIG 0.01  C 
ATOM     22  CG1 VAL E2011      -6.782 -13.354 -27.071  1.00 40.75 LIG 0.01  C 
ENDBRANCH 18 20
ENDBRANCH 15 18
ENDBRANCH 13 14
BRANCH 13 23
ATOM     23  CB  MET E2012      -3.293 -15.616 -31.516  1.00 32.11 LIG 0.04  C 
BRANCH 23 24
ATOM     24  CG  MET E2012      -2.650 -16.022 -32.847  1.00 37.34 LIG 0.08  C 
BRANCH 24 25
ATOM     25 SD   MET E2012      -1.527 -14.801 -33.555  1.00 39.45 LIG-0.17  SA
ATOM     26  CE  MET E2012      -0.452 -15.880 -34.514  1.00 39.28 LIG 0.09  C 
ENDBRANCH 24 25
ENDBRANCH 23 24
ENDBRANCH 13 23
ENDBRANCH 10 13
ENDBRANCH 8 9
ENDBRANCH 1 8
BRANCH 4 27
ATOM     27  C   PRO E2014       1.025 -12.520 -25.121  1.00 21.57 LIG 0.24  C 
ATOM     28 O    PRO E2014       0.873 -11.663 -24.202  1.00 21.05 LIG-0.27  OA
ATOM     29  N   TRP E2015       1.304 -12.190 -26.386  1.00 20.29 LIG-0.34  N 
ATOM     30 H    TRP E2015       1.327 -12.746 -27.042  1.00 20.29 LIG 0.16  HD
BRANCH 29 31
ATOM     31  CA  TRP E2015       1.600 -10.798 -26.744  1.00 20.70 LIG 0.19  C 
BRANCH 31 32
ATOM     32  C   TRP E2015       0.358  -9.924 -26.859  1.00 20.18 LIG 0.20  C 
ATOM     33 O    TRP E2015      -0.644 -10.269 -27.479  1.00 21.31 LIG-0.65  OA
ATOM     34 OXT  TRP E2015       0.360  -8.810 -26.344  1.00 19.23 LIG-0.65  OA
ENDBRANCH 31 32
BRANCH 31 35
ATOM     35  CB  TRP E2015       2.351 -10.736 -28.082  1.00 21.64 LIG 0.08  C 
BRANCH 35 36
ATOM     36  CG  TRP E2015       3.719 -10.057 -28.059  1.00 22.27 LIG-0.03  A 
ATOM     37  CD2 TRP E2015       4.958 -10.689 -28.391  1.00 22.85 LIG-0.00  A 
ATOM     38  CE2 TRP E2015       5.981  -9.717 -28.270  1.00 23.44 LIG 0.04  A 
ATOM     39  CE3 TRP E2015       5.303 -11.993 -28.798  1.00 23.10 LIG 0.01  A 
ATOM     40  CZ2 TRP E2015       7.333 -10.015 -28.525  1.00 22.82 LIG 0.03  A 
ATOM     41  NE1 TRP E2015       5.393  -8.540 -27.875  1.00 23.03 LIG-0.36  N 
ATOM     42  CH2 TRP E2015       7.647 -11.297 -28.900  1.00 23.08 LIG 0.00  A 
ATOM     43  CZ3 TRP E2015       6.658 -12.286 -29.044  1.00 24.27 LIG 0.00  A 
ATOM     44 HE1  TRP E2015       5.806  -7.802 -27.719  1.00 23.03 LIG 0.17  HD
ATOM     45  CD1 TRP E2015       4.020  -8.737 -27.771  1.00 22.46 LIG 0.10  A 
ENDBRANCH 35 36
ENDBRANCH 31 35
ENDBRANCH 29 31
ENDBRANCH 4 27
TORSDOF 14
ENDMDL
MODEL 6
USER: ADFR SOLUTION from run 196
USER: SCORE 13.013897 LL:  -2.824 LR: -11.061 RR:   0.000 FEB:  -6.885
USER: RMSD 6.065019
USER: SEED 195
USER: STATUS no improvement in best in 26 clusters for 5 generations
USER: GENES 16
USER: genes 0 Translation |==|  0.45210 0.53215 0.58522
USER: genes 1 Rotation |==|  0.26343 0.17685 0.32995 0.74636
USER: genes 2 Torsion [N]-C--CA-[N] |==|  0.52471
USER: genes 3 Torsion [C]-CA--N-[C] |==|  0.40033
USER: genes 4 Torsion [N]-C--CA-[N] |==|  0.98234
USER: genes 5 Torsion [C]-CA--N-[C] |==|  0.23333
USER: genes 6 Torsion [N]-C--CA-[N] |==|  0.03355
USER: genes 7 Torsion [C]-CA--CB-[CG2] |==|  0.59247
USER: genes 8 Torsion [C]-CA--CB-[CG] |==|  0.01337
USER: genes 9 Torsion [CA]-CB--CG-[SD] |==|  0.71949
USER: genes 10 Torsion [CB]-CG--SD-[CE] |==|  0.30863
USER: genes 11 Torsion [N]-CA--C-[O] |==|  0.47433
USER: genes 12 Torsion [C]-N--CA-[C] |==|  0.79037
USER: genes 13 Torsion [N]-CA--C-[O] |==|  0.86103
USER: genes 14 Torsion [N]-CA--CB-[CG] |==|  0.56672
USER: genes 15 Torsion [CA]-CB--CG-[CD2] |==|  0.68026
ROOT
ATOM      1  C   GLY E2013      -0.279 -15.193 -26.667  1.00 21.81 LIG 0.24  C 
ATOM      2 O    GLY E2013      -1.348 -14.599 -26.453  1.00 22.84 LIG-0.27  OA
ATOM      3  N   PRO E2014       0.816 -14.991 -25.932  1.00 21.64 LIG-0.34  N 
ATOM      4  CA  PRO E2014       0.862 -14.125 -24.749  1.00 21.53 LIG 0.18  C 
ATOM      5  CB  PRO E2014       2.109 -14.628 -24.014  1.00 21.78 LIG 0.04  C 
ATOM      6  CG  PRO E2014       3.000 -15.190 -25.084  1.00 22.21 LIG 0.02  C 
ATOM      7  CD  PRO E2014       2.093 -15.684 -26.183  1.00 21.52 LIG 0.13  C 
ENDROOT
BRANCH 1 8
ATOM      8  CA  GLY E2013      -0.172 -16.218 -27.790  1.00 23.09 LIG 0.23  C 
BRANCH 8 9
ATOM      9  N   GLY E2013      -1.384 -16.144 -28.603  1.00 25.21 LIG-0.35  N 
ATOM     10  C   MET E2012      -1.363 -16.318 -29.923  1.00 26.98 LIG 0.24  C 
ATOM     11 O    MET E2012      -0.318 -16.374 -30.588  1.00 24.85 LIG-0.27  OA
ATOM     12 H    GLY E2013      -2.099 -15.980 -28.154  1.00 25.21 LIG 0.16  HD
BRANCH 10 13
ATOM     13  CA  MET E2012      -2.723 -16.491 -30.587  1.00 29.83 LIG 0.18  C 
BRANCH 13 14
ATOM     14  N   MET E2012      -3.805 -16.581 -29.604  1.00 30.84 LIG-0.35  N 
ATOM     15  C   VAL E2011      -4.378 -15.510 -29.073  1.00 36.49 LIG 0.26  C 
ATOM     16 O    VAL E2011      -3.996 -14.354 -29.307  1.00 38.00 LIG-0.27  OA
ATOM     17 H    MET E2012      -4.030 -17.387 -29.405  1.00 30.84 LIG 0.16  HD
BRANCH 15 18
ATOM     18  CA  VAL E2011      -5.558 -15.790 -28.119  1.00 39.95 LIG 0.40  C 
ATOM     19  N   VAL E2011      -5.628 -17.244 -27.762  1.00 39.42 LIG 0.61  N 
BRANCH 18 20
ATOM     20  CB  VAL E2011      -5.515 -14.886 -26.849  1.00 43.12 LIG 0.03  C 
ATOM     21  CG2 VAL E2011      -6.072 -15.638 -25.644  1.00 41.73 LIG 0.01  C 
ATOM     22  CG1 VAL E2011      -6.254 -13.561 -27.053  1.00 40.75 LIG 0.01  C 
ENDBRANCH 18 20
ENDBRANCH 15 18
ENDBRANCH 13 14
BRANCH 13 23
ATOM     23  CB  MET E2012      -2.941 -15.280 -31.516  1.00 32.11 LIG 0.04  C 
BRANCH 23 24
ATOM     24  CG  MET E2012      -1.779 -14.291 -31.660  1.00 37.34 LIG 0.08  C 
BRANCH 24 25
ATOM     25 SD   MET E2012      -1.940 -12.780 -30.688  1.00 39.45 LIG-0.17  SA
ATOM     26  CE  MET E2012      -0.632 -13.040 -29.479  1.00 39.28 LIG 0.09  C 
ENDBRANCH 24 25
ENDBRANCH 23 24
ENDBRANCH 13 23
ENDBRANCH 10 13
ENDBRANCH 8 9
ENDBRANCH 1 8
BRANCH 4 27
ATOM     27  C   PRO E2014       1.005 -12.625 -25.080  1.00 21.57 LIG 0.24  C 
ATOM     28 O    PRO E2014       0.884 -11.742 -24.180  1.00 21.05 LIG-0.27  OA
ATOM     29  N   TRP E2015       1.278 -12.331 -26.355  1.00 20.29 LIG-0.34  N 
ATOM     30 H    TRP E2015       1.280 -12.904 -26.997  1.00 20.29 LIG 0.16  HD
BRANCH 29 31
ATOM     31  CA  TRP E2015       1.602 -10.957 -26.750  1.00 20.70 LIG 0.19  C 
BRANCH 31 32
ATOM     32  C   TRP E2015       0.389 -10.038 -26.805  1.00 20.18 LIG 0.20  C 
ATOM     33 O    TRP E2015      -0.642 -10.333 -27.404  1.00 21.31 LIG-0.65  OA
ATOM     34 OXT  TRP E2015       0.444  -8.939 -26.262  1.00 19.23 LIG-0.65  OA
ENDBRANCH 31 32
BRANCH 31 35
ATOM     35  CB  TRP E2015       2.276 -10.939 -28.130  1.00 21.64 LIG 0.08  C 
BRANCH 35 36
ATOM     36  CG  TRP E2015       3.163  -9.733 -28.435  1.00 22.27 LIG-0.03  A 
ATOM     37  CD2 TRP E2015       2.907  -8.757 -29.448  1.00 22.85 LIG-0.00  A 
ATOM     38  CE2 TRP E2015       3.946  -7.796 -29.389  1.00 23.44 LIG 0.04  A 
ATOM     39  CE3 TRP E2015       1.881  -8.594 -30.399  1.00 23.10 LIG 0.01  A 
ATOM     40  CZ2 TRP E2015       3.997  -6.693 -30.262  1.00 22.82 LIG 0.03  A 
ATOM     41  NE1 TRP E2015       4.804  -8.171 -28.384  1.00 23.03 LIG-0.36  N 
ATOM     42  CH2 TRP E2015       2.997  -6.566 -31.194  1.00 23.08 LIG 0.00  A 
ATOM     43  CZ3 TRP E2015       1.942  -7.492 -31.273  1.00 24.27 LIG 0.00  A 
ATOM     44 HE1  TRP E2015       5.524  -7.757 -28.160  1.00 23.03 LIG 0.17  HD
ATOM     45  CD1 TRP E2015       4.319  -9.331 -27.789  1.00 22.46 LIG 0.10  A 
ENDBRANCH 35 36
ENDBRANCH 31 35
ENDBRANCH 29 31
ENDBRANCH 4 27
TORSDOF 14
ENDMDL
MODEL 7
USER: ADFR SOLUTION from run 19
USER: SCORE 12.922256 LL:  -3.023 LR: -11.013 RR:   0.000 FEB:  -6.837
USER: RMSD 5.209432
USER: SEED 18
USER: STATUS no improvement in best in 16 clusters for 5 generations
USER: GENES 16
USER: genes 0 Translation |==|  0.45822 0.52804 0.60640
USER: genes 1 Rotation |==|  0.23409 0.10513 0.44315 0.64191
USER: genes 2 Torsion [N]-C--CA-[N] |==|  0.58134
USER: genes 3 Torsion [C]-CA--N-[C] |==|  0.34201
USER: genes 4 Torsion [N]-C--CA-[N] |==|  0.00598
USER: genes 5 Torsion [C]-CA--N-[C] |==|  0.56876
USER: genes 6 Torsion [N]-C--CA-[N] |==|  0.77956
USER: genes 7 Torsion [C]-CA--CB-[CG2] |==|  0.50833
USER: genes 8 Torsion [C]-CA--CB-[CG] |==|  0.76343
USER: genes 9 Torsion [CA]-CB--CG-[SD] |==|  0.17484
USER: genes 10 Torsion [CB]-CG--SD-[CE] |==|  0.70656
USER: genes 11 Torsion [N]-CA--C-[O] |==|  0.13182
USER: genes 12 Torsion [C]-N--CA-[C] |==|  0.66936
USER: genes 13 Torsion [N]-CA--C-[O] |==|  0.01681
USER: genes 14 Torsion [N]-CA--CB-[CG] |==|  0.68286
USER: genes 15 Torsion [CA]-CB--CG-[CD2] |==|  0.74054
ROOT
ATOM      1  C   GLY E2013      -0.183 -15.298 -26.302  1.00 21.81 LIG 0.24  C 
ATOM      2 O    GLY E2013      -1.318 -14.902 -26.611  1.00 22.84 LIG-0.27  OA
ATOM      3  N   PRO E2014       0.730 -14.500 -25.742  1.00 21.64 LIG-0.34  N 
ATOM      4  CA  PRO E2014       0.474 -13.110 -25.351  1.00 21.53 LIG 0.18  C 
ATOM      5  CB  PRO E2014       1.593 -12.836 -24.340  1.00 21.78 LIG 0.04  C 
ATOM      6  CG  PRO E2014       2.717 -13.750 -24.734  1.00 22.21 LIG 0.02  C 
ATOM      7  CD  PRO E2014       2.083 -14.958 -25.378  1.00 21.52 LIG 0.13  C 
ENDROOT
BRANCH 1 8
ATOM      8  CA  GLY E2013       0.223 -16.749 -26.532  1.00 23.09 LIG 0.23  C 
BRANCH 8 9
ATOM      9  N   GLY E2013      -0.507 -17.255 -27.693  1.00 25.21 LIG-0.35  N 
ATOM     10  C   MET E2012       0.118 -17.762 -28.755  1.00 26.98 LIG 0.24  C 
ATOM     11 O    MET E2012       1.343 -17.683 -28.929  1.00 24.85 LIG-0.27  OA
ATOM     12 H    GLY E2013      -1.362 -17.196 -27.624  1.00 25.21 LIG 0.16  HD
BRANCH 10 13
ATOM     13  CA  MET E2012      -0.769 -18.500 -29.750  1.00 29.83 LIG 0.18  C 
BRANCH 13 14
ATOM     14  N   MET E2012      -2.180 -18.464 -29.358  1.00 30.84 LIG-0.35  N 
ATOM     15  C   VAL E2011      -3.054 -19.383 -29.748  1.00 36.49 LIG 0.26  C 
ATOM     16 O    VAL E2011      -2.765 -20.297 -30.534  1.00 38.00 LIG-0.27  OA
ATOM     17 H    MET E2012      -2.386 -17.798 -28.855  1.00 30.84 LIG 0.16  HD
BRANCH 15 18
ATOM     18  CA  VAL E2011      -4.476 -19.236 -29.171  1.00 39.95 LIG 0.40  C 
ATOM     19  N   VAL E2011      -4.547 -19.763 -27.769  1.00 39.42 LIG 0.61  N 
BRANCH 18 20
ATOM     20  CB  VAL E2011      -5.000 -17.770 -29.262  1.00 43.12 LIG 0.03  C 
ATOM     21  CG2 VAL E2011      -6.377 -17.657 -28.614  1.00 41.73 LIG 0.01  C 
ATOM     22  CG1 VAL E2011      -5.032 -17.251 -30.701  1.00 40.75 LIG 0.01  C 
ENDBRANCH 18 20
ENDBRANCH 15 18
ENDBRANCH 13 14
BRANCH 13 23
ATOM     23  CB  MET E2012      -0.578 -17.829 -31.125  1.00 32.11 LIG 0.04  C 
BRANCH 23 24
ATOM     24  CG  MET E2012      -1.436 -16.596 -31.427  1.00 37.34 LIG 0.08  C 
BRANCH 24 25
ATOM     25 SD   MET E2012      -1.146 -15.182 -30.343  1.00 39.45 LIG-0.17  SA
ATOM     26  CE  MET E2012      -2.626 -15.259 -29.321  1.00 39.28 LIG 0.09  C 
ENDBRANCH 24 25
ENDBRANCH 23 24
ENDBRANCH 13 23
ENDBRANCH 10 13
ENDBRANCH 8 9
ENDBRANCH 1 8
BRANCH 4 27
ATOM     27  C   PRO E2014       0.556 -12.108 -26.522  1.00 21.57 LIG 0.24  C 
ATOM     28 O    PRO E2014      -0.033 -12.337 -27.620  1.00 21.05 LIG-0.27  OA
ATOM     29  N   TRP E2015       1.262 -10.998 -26.292  1.00 20.29 LIG-0.34  N 
ATOM     30 H    TRP E2015       1.738 -10.859 -25.589  1.00 20.29 LIG 0.16  HD
BRANCH 29 31
ATOM     31  CA  TRP E2015       1.266  -9.902 -27.268  1.00 20.70 LIG 0.19  C 
BRANCH 31 32
ATOM     32  C   TRP E2015       2.649  -9.592 -27.826  1.00 20.18 LIG 0.20  C 
ATOM     33 O    TRP E2015       3.638 -10.273 -27.570  1.00 21.31 LIG-0.65  OA
ATOM     34 OXT  TRP E2015       2.800  -8.602 -28.535  1.00 19.23 LIG-0.65  OA
ENDBRANCH 31 32
BRANCH 31 35
ATOM     35  CB  TRP E2015       0.708  -8.618 -26.636  1.00 21.64 LIG 0.08  C 
BRANCH 35 36
ATOM     36  CG  TRP E2015      -0.610  -8.101 -27.207  1.00 22.27 LIG-0.03  A 
ATOM     37  CD2 TRP E2015      -0.733  -7.130 -28.249  1.00 22.85 LIG-0.00  A 
ATOM     38  CE2 TRP E2015      -2.114  -6.946 -28.503  1.00 23.44 LIG 0.04  A 
ATOM     39  CE3 TRP E2015       0.202  -6.403 -29.012  1.00 23.10 LIG 0.01  A 
ATOM     40  CZ2 TRP E2015      -2.584  -6.046 -29.479  1.00 22.82 LIG 0.03  A 
ATOM     41  NE1 TRP E2015      -2.809  -7.766 -27.647  1.00 23.03 LIG-0.36  N 
ATOM     42  CH2 TRP E2015      -1.654  -5.334 -30.194  1.00 23.08 LIG 0.00  A 
ATOM     43  CZ3 TRP E2015      -0.275  -5.500 -29.980  1.00 24.27 LIG 0.00  A 
ATOM     44 HE1  TRP E2015      -3.665  -7.825 -27.596  1.00 23.03 LIG 0.17  HD
ATOM     45  CD1 TRP E2015      -1.899  -8.485 -26.878  1.00 22.46 LIG 0.10  A 
ENDBRANCH 35 36
ENDBRANCH 31 35
ENDBRANCH 29 31
ENDBRANCH 4 27
TORSDOF 14
ENDMDL
MODEL 8
USER: ADFR SOLUTION from run 87
USER: SCORE 14.228922 LL:  -3.514 LR: -10.998 RR:   0.000 FEB:  -6.821
USER: RMSD 6.513420
USER: SEED 86
USER: STATUS no improvement in best in 12 clusters for 5 generations
USER: GENES 16
USER: genes 0 Translation |==|  0.47566 0.57597 0.56855
USER: genes 1 Rotation |==|  0.11260 0.21458 0.36473 0.51271
USER: genes 2 Torsion [N]-C--CA-[N] |==|  0.47289
USER: genes 3 Torsion [C]-CA--N-[C] |==|  0.19690
USER: genes 4 Torsion [N]-C--CA-[N] |==|  0.03386
USER: genes 5 Torsion [C]-CA--N-[C] |==|  0.70218
USER: genes 6 Torsion [N]-C--CA-[N] |==|  0.56724
USER: genes 7 Torsion [C]-CA--CB-[CG2] |==|  0.60266
USER: genes 8 Torsion [C]-CA--CB-[CG] |==|  0.82118
USER: genes 9 Torsion [CA]-CB--CG-[SD] |==|  0.27884
USER: genes 10 Torsion [CB]-CG--SD-[CE] |==|  0.48818
USER: genes 11 Torsion [N]-CA--C-[O] |==|  0.92998
USER: genes 12 Torsion [C]-N--CA-[C] |==|  0.59085
USER: genes 13 Torsion [N]-CA--C-[O] |==|  0.09671
USER: genes 14 Torsion [N]-CA--CB-[CG] |==|  0.19386
USER: genes 15 Torsion [CA]-CB--CG-[CD2] |==|  0.81125
ROOT
ATOM      1  C   GLY E2013       0.092 -14.076 -26.954  1.00 21.81 LIG 0.24  C 
ATOM      2 O    GLY E2013      -0.245 -13.121 -27.673  1.00 22.84 LIG-0.27  OA
ATOM      3  N   PRO E2014       1.059 -13.981 -26.039  1.00 21.64 LIG-0.34  N 
ATOM      4  CA  PRO E2014       1.765 -12.737 -25.718  1.00 21.53 LIG 0.18  C 
ATOM      5  CB  PRO E2014       2.349 -13.032 -24.332  1.00 21.78 LIG 0.04  C 
ATOM      6  CG  PRO E2014       2.529 -14.522 -24.285  1.00 22.21 LIG 0.02  C 
ATOM      7  CD  PRO E2014       1.472 -15.111 -25.186  1.00 21.52 LIG 0.13  C 
ENDROOT
BRANCH 1 8
ATOM      8  CA  GLY E2013      -0.613 -15.422 -27.071  1.00 23.09 LIG 0.23  C 
BRANCH 8 9
ATOM      9  N   GLY E2013      -1.775 -15.263 -27.943  1.00 25.21 LIG-0.35  N 
ATOM     10  C   MET E2012      -1.653 -15.069 -29.256  1.00 26.98 LIG 0.24  C 
ATOM     11 O    MET E2012      -0.573 -14.830 -29.814  1.00 24.85 LIG-0.27  OA
ATOM     12 H    GLY E2013      -2.530 -15.305 -27.535  1.00 25.21 LIG 0.16  HD
BRANCH 10 13
ATOM     13  CA  MET E2012      -2.939 -15.204 -30.063  1.00 29.83 LIG 0.18  C 
BRANCH 13 14
ATOM     14  N   MET E2012      -4.124 -15.243 -29.203  1.00 30.84 LIG-0.35  N 
ATOM     15  C   VAL E2011      -4.819 -16.352 -28.994  1.00 36.49 LIG 0.26  C 
ATOM     16 O    VAL E2011      -4.569 -17.423 -29.567  1.00 38.00 LIG-0.27  OA
ATOM     17 H    MET E2012      -4.324 -14.484 -28.850  1.00 30.84 LIG 0.16  HD
BRANCH 15 18
ATOM     18  CA  VAL E2011      -5.986 -16.228 -27.994  1.00 39.95 LIG 0.40  C 
ATOM     19  N   VAL E2011      -6.321 -17.558 -27.388  1.00 39.42 LIG 0.61  N 
BRANCH 18 20
ATOM     20  CB  VAL E2011      -5.713 -15.149 -26.902  1.00 43.12 LIG 0.03  C 
ATOM     21  CG2 VAL E2011      -6.272 -15.604 -25.556  1.00 41.73 LIG 0.01  C 
ATOM     22  CG1 VAL E2011      -6.270 -13.777 -27.287  1.00 40.75 LIG 0.01  C 
ENDBRANCH 18 20
ENDBRANCH 15 18
ENDBRANCH 13 14
BRANCH 13 23
ATOM     23  CB  MET E2012      -3.010 -13.998 -31.021  1.00 32.11 LIG 0.04  C 
BRANCH 23 24
ATOM     24  CG  MET E2012      -3.134 -12.608 -30.387  1.00 37.34 LIG 0.08  C 
BRANCH 24 25
ATOM     25 SD   MET E2012      -1.596 -11.670 -30.302  1.00 39.45 LIG-0.17  SA
ATOM     26  CE  MET E2012      -2.211 -10.114 -29.637  1.00 39.28 LIG 0.09  C 
ENDBRANCH 24 25
ENDBRANCH 23 24
ENDBRANCH 13 23
ENDBRANCH 10 13
ENDBRANCH 8 9
ENDBRANCH 1 8
BRANCH 4 27
ATOM     27  C   PRO E2014       2.895 -12.387 -26.710  1.00 21.57 LIG 0.24  C 
ATOM     28 O    PRO E2014       3.474 -13.288 -27.385  1.00 21.05 LIG-0.27  OA
ATOM     29  N   TRP E2015       3.198 -11.090 -26.815  1.00 20.29 LIG-0.34  N 
ATOM     30 H    TRP E2015       2.879 -10.472 -26.309  1.00 20.29 LIG 0.16  HD
BRANCH 29 31
ATOM     31  CA  TRP E2015       4.132 -10.625 -27.846  1.00 20.70 LIG 0.19  C 
BRANCH 31 32
ATOM     32  C   TRP E2015       4.962  -9.423 -27.415  1.00 20.18 LIG 0.20  C 
ATOM     33 O    TRP E2015       5.351  -9.263 -26.262  1.00 21.31 LIG-0.65  OA
ATOM     34 OXT  TRP E2015       5.230  -8.554 -28.239  1.00 19.23 LIG-0.65  OA
ENDBRANCH 31 32
BRANCH 31 35
ATOM     35  CB  TRP E2015       3.373 -10.246 -29.127  1.00 21.64 LIG 0.08  C 
BRANCH 35 36
ATOM     36  CG  TRP E2015       2.506  -8.990 -29.053  1.00 22.27 LIG-0.03  A 
ATOM     37  CD2 TRP E2015       1.315  -8.857 -28.275  1.00 22.85 LIG-0.00  A 
ATOM     38  CE2 TRP E2015       0.828  -7.539 -28.459  1.00 23.44 LIG 0.04  A 
ATOM     39  CE3 TRP E2015       0.614  -9.728 -27.418  1.00 23.10 LIG 0.01  A 
ATOM     40  CZ2 TRP E2015      -0.344  -7.078 -27.829  1.00 22.82 LIG 0.03  A 
ATOM     41  NE1 TRP E2015       1.684  -6.895 -29.319  1.00 23.03 LIG-0.36  N 
ATOM     42  CH2 TRP E2015      -1.021  -7.952 -27.016  1.00 23.08 LIG 0.00  A 
ATOM     43  CZ3 TRP E2015      -0.561  -9.262 -26.798  1.00 24.27 LIG 0.00  A 
ATOM     44 HE1  TRP E2015       1.596  -6.087 -29.600  1.00 23.03 LIG 0.17  HD
ATOM     45  CD1 TRP E2015       2.714  -7.764 -29.661  1.00 22.46 LIG 0.10  A 
ENDBRANCH 35 36
ENDBRANCH 31 35
ENDBRANCH 29 31
ENDBRANCH 4 27
TORSDOF 14
ENDMDL
MODEL 9
USER: ADFR SOLUTION from run 195
USER: SCORE 13.242765 LL:  -2.729 LR: -10.956 RR:   0.000 FEB:  -6.780
USER: RMSD 4.481299
USER: SEED 194
USER: STATUS no improvement in best in 19 clusters for 5 generations
USER: GENES 16
USER: genes 0 Translation |==|  0.41221 0.53984 0.50886
USER: genes 1 Rotation |==|  0.33405 0.38672 0.30513 0.91431
USER: genes 2 Torsion [N]-C--CA-[N] |==|  0.41769
USER: genes 3 Torsion [C]-CA--N-[C] |==|  0.37463
USER: genes 4 Torsion [N]-C--CA-[N] |==|  0.01120
USER: genes 5 Torsion [C]-CA--N-[C] |==|  0.70255
USER: genes 6 Torsion [N]-C--CA-[N] |==|  0.17001
USER: genes 7 Torsion [C]-CA--CB-[CG2] |==|  0.17538
USER: genes 8 Torsion [C]-CA--CB-[CG] |==|  0.78296
USER: genes 9 Torsion [CA]-CB--CG-[SD] |==|  0.74373
USER: genes 10 Torsion [CB]-CG--SD-[CE] |==|  0.51861
USER: genes 11 Torsion [N]-CA--C-[O] |==|  0.61467
USER: genes 12 Torsion [C]-N--CA-[C] |==|  0.71329
USER: genes 13 Torsion [N]-CA--C-[O] |==|  0.51368
USER: genes 14 Torsion [N]-CA--CB-[CG] |==|  0.67860
USER: genes 15 Torsion [CA]-CB--CG-[CD2] |==|  0.06680
ROOT
ATOM      1  C   GLY E2013      -0.908 -14.997 -27.984  1.00 21.81 LIG 0.24  C 
ATOM      2 O    GLY E2013      -1.399 -15.018 -26.845  1.00 22.84 LIG-0.27  OA
ATOM      3  N   PRO E2014       0.406 -15.091 -28.203  1.00 21.64 LIG-0.34  N 
ATOM      4  CA  PRO E2014       1.399 -15.317 -27.147  1.00 21.53 LIG 0.18  C 
ATOM      5  CB  PRO E2014       2.604 -15.847 -27.930  1.00 21.78 LIG 0.04  C 
ATOM      6  CG  PRO E2014       2.476 -15.258 -29.305  1.00 22.21 LIG 0.02  C 
ATOM      7  CD  PRO E2014       1.002 -15.059 -29.551  1.00 21.52 LIG 0.13  C 
ENDROOT
BRANCH 1 8
ATOM      8  CA  GLY E2013      -1.801 -14.881 -29.214  1.00 23.09 LIG 0.23  C 
BRANCH 8 9
ATOM      9  N   GLY E2013      -3.097 -15.480 -28.902  1.00 25.21 LIG-0.35  N 
ATOM     10  C   MET E2012      -4.246 -14.888 -29.227  1.00 26.98 LIG 0.24  C 
ATOM     11 O    MET E2012      -4.320 -13.723 -29.645  1.00 24.85 LIG-0.27  OA
ATOM     12 H    GLY E2013      -3.048 -16.237 -28.497  1.00 25.21 LIG 0.16  HD
BRANCH 10 13
ATOM     13  CA  MET E2012      -5.493 -15.753 -29.094  1.00 29.83 LIG 0.18  C 
BRANCH 13 14
ATOM     14  N   MET E2012      -5.188 -17.071 -28.534  1.00 30.84 LIG-0.35  N 
ATOM     15  C   VAL E2011      -5.196 -18.178 -29.266  1.00 36.49 LIG 0.26  C 
ATOM     16 O    VAL E2011      -5.536 -18.195 -30.457  1.00 38.00 LIG-0.27  OA
ATOM     17 H    MET E2012      -5.005 -17.060 -27.694  1.00 30.84 LIG 0.16  HD
BRANCH 15 18
ATOM     18  CA  VAL E2011      -4.768 -19.464 -28.531  1.00 39.95 LIG 0.40  C 
ATOM     19  N   VAL E2011      -5.689 -19.764 -27.387  1.00 39.42 LIG 0.61  N 
BRANCH 18 20
ATOM     20  CB  VAL E2011      -4.638 -20.680 -29.499  1.00 43.12 LIG 0.03  C 
ATOM     21  CG2 VAL E2011      -3.539 -20.423 -30.527  1.00 41.73 LIG 0.01  C 
ATOM     22  CG1 VAL E2011      -5.961 -21.018 -30.190  1.00 40.75 LIG 0.01  C 
ENDBRANCH 18 20
ENDBRANCH 15 18
ENDBRANCH 13 14
BRANCH 13 23
ATOM     23  CB  MET E2012      -6.483 -14.999 -28.184  1.00 32.11 LIG 0.04  C 
BRANCH 23 24
ATOM     24  CG  MET E2012      -6.219 -15.046 -26.674  1.00 37.34 LIG 0.08  C 
BRANCH 24 25
ATOM     25 SD   MET E2012      -7.057 -16.380 -25.795  1.00 39.45 LIG-0.17  SA
ATOM     26  CE  MET E2012      -6.650 -15.942 -24.097  1.00 39.28 LIG 0.09  C 
ENDBRANCH 24 25
ENDBRANCH 23 24
ENDBRANCH 13 23
ENDBRANCH 10 13
ENDBRANCH 8 9
ENDBRANCH 1 8
BRANCH 4 27
ATOM     27  C   PRO E2014       1.785 -14.039 -26.372  1.00 21.57 LIG 0.24  C 
ATOM     28 O    PRO E2014       2.988 -13.808 -26.052  1.00 21.05 LIG-0.27  OA
ATOM     29  N   TRP E2015       0.782 -13.204 -26.086  1.00 20.29 LIG-0.34  N 
ATOM     30 H    TRP E2015      -0.050 -13.378 -26.217  1.00 20.29 LIG 0.16  HD
BRANCH 29 31
ATOM     31  CA  TRP E2015       1.054 -11.885 -25.506  1.00 20.70 LIG 0.19  C 
BRANCH 31 32
ATOM     32  C   TRP E2015       0.767 -11.808 -24.012  1.00 20.18 LIG 0.20  C 
ATOM     33 O    TRP E2015       0.850 -10.763 -23.372  1.00 21.31 LIG-0.65  OA
ATOM     34 OXT  TRP E2015       0.474 -12.833 -23.404  1.00 19.23 LIG-0.65  OA
ENDBRANCH 31 32
BRANCH 31 35
ATOM     35  CB  TRP E2015       0.215 -10.806 -26.208  1.00 21.64 LIG 0.08  C 
BRANCH 35 36
ATOM     36  CG  TRP E2015       0.992  -9.743 -26.983  1.00 22.27 LIG-0.03  A 
ATOM     37  CD2 TRP E2015       2.308  -9.909 -27.516  1.00 22.85 LIG-0.00  A 
ATOM     38  CE2 TRP E2015       2.655  -8.709 -28.182  1.00 23.44 LIG 0.04  A 
ATOM     39  CE3 TRP E2015       3.230 -10.974 -27.507  1.00 23.10 LIG 0.01  A 
ATOM     40  CZ2 TRP E2015       3.899  -8.538 -28.820  1.00 22.82 LIG 0.03  A 
ATOM     41  NE1 TRP E2015       1.597  -7.841 -28.057  1.00 23.03 LIG-0.36  N 
ATOM     42  CH2 TRP E2015       4.788  -9.582 -28.780  1.00 23.08 LIG 0.00  A 
ATOM     43  CZ3 TRP E2015       4.474 -10.794 -28.141  1.00 24.27 LIG 0.00  A 
ATOM     44 HE1  TRP E2015       1.569  -7.039 -28.365  1.00 23.03 LIG 0.17  HD
ATOM     45  CD1 TRP E2015       0.579  -8.475 -27.353  1.00 22.46 LIG 0.10  A 
ENDBRANCH 35 36
ENDBRANCH 31 35
ENDBRANCH 29 31
ENDBRANCH 4 27
TORSDOF 14
ENDMDL
MODEL 10
USER: ADFR SOLUTION from run 46
USER: SCORE 13.436559 LL:  -3.571 LR: -10.922 RR:   0.000 FEB:  -6.746
USER: RMSD 5.138262
USER: SEED 45
USER: STATUS no improvement in best in 17 clusters for 5 generations
USER: GENES 16
USER: genes 0 Translation |==|  0.45528 0.52576 0.60576
USER: genes 1 Rotation |==|  0.24074 0.11507 0.41181 0.66382
USER: genes 2 Torsion [N]-C--CA-[N] |==|  0.57618
USER: genes 3 Torsion [C]-CA--N-[C] |==|  0.38892
USER: genes 4 Torsion [N]-C--CA-[N] |==|  0.99121
USER: genes 5 Torsion [C]-CA--N-[C] |==|  0.57862
USER: genes 6 Torsion [N]-C--CA-[N] |==|  0.75021
USER: genes 7 Torsion [C]-CA--CB-[CG2] |==|  0.58728
USER: genes 8 Torsion [C]-CA--CB-[CG] |==|  0.87719
USER: genes 9 Torsion [CA]-CB--CG-[SD] |==|  0.81706
USER: genes 10 Torsion [CB]-CG--SD-[CE] |==|  0.35758
USER: genes 11 Torsion [N]-CA--C-[O] |==|  0.50454
USER: genes 12 Torsion [C]-N--CA-[C] |==|  0.46325
USER: genes 13 Torsion [N]-CA--C-[O] |==|  0.49719
USER: genes 14 Torsion [N]-CA--CB-[CG] |==|  0.60621
USER: genes 15 Torsion [CA]-CB--CG-[CD2] |==|  0.15573
ROOT
ATOM      1  C   GLY E2013      -0.229 -15.356 -26.313  1.00 21.81 LIG 0.24  C 
ATOM      2 O    GLY E2013      -1.356 -14.888 -26.542  1.00 22.84 LIG-0.27  OA
ATOM      3  N   PRO E2014       0.709 -14.679 -25.646  1.00 21.64 LIG-0.34  N 
ATOM      4  CA  PRO E2014       0.494 -13.362 -25.039  1.00 21.53 LIG 0.18  C 
ATOM      5  CB  PRO E2014       1.628 -13.279 -24.012  1.00 21.78 LIG 0.04  C 
ATOM      6  CG  PRO E2014       2.725 -14.147 -24.559  1.00 22.21 LIG 0.02  C 
ATOM      7  CD  PRO E2014       2.053 -15.222 -25.376  1.00 21.52 LIG 0.13  C 
ENDROOT
BRANCH 1 8
ATOM      8  CA  GLY E2013       0.136 -16.762 -26.773  1.00 23.09 LIG 0.23  C 
BRANCH 8 9
ATOM      9  N   GLY E2013      -0.650 -17.078 -27.964  1.00 25.21 LIG-0.35  N 
ATOM     10  C   MET E2012      -0.131 -17.737 -29.000  1.00 26.98 LIG 0.24  C 
ATOM     11 O    MET E2012       1.080 -17.972 -29.122  1.00 24.85 LIG-0.27  OA
ATOM     12 H    GLY E2013      -1.464 -16.804 -27.932  1.00 25.21 LIG 0.16  HD
BRANCH 10 13
ATOM     13  CA  MET E2012      -1.135 -18.236 -30.032  1.00 29.83 LIG 0.18  C 
BRANCH 13 14
ATOM     14  N   MET E2012      -2.515 -17.949 -29.637  1.00 30.84 LIG-0.35  N 
ATOM     15  C   VAL E2011      -3.539 -18.701 -30.020  1.00 36.49 LIG 0.26  C 
ATOM     16 O    VAL E2011      -3.419 -19.655 -30.801  1.00 38.00 LIG-0.27  OA
ATOM     17 H    MET E2012      -2.598 -17.254 -29.138  1.00 30.84 LIG 0.16  HD
BRANCH 15 18
ATOM     18  CA  VAL E2011      -4.911 -18.302 -29.440  1.00 39.95 LIG 0.40  C 
ATOM     19  N   VAL E2011      -5.176 -19.009 -28.145  1.00 39.42 LIG 0.61  N 
BRANCH 18 20
ATOM     20  CB  VAL E2011      -5.062 -16.756 -29.295  1.00 43.12 LIG 0.03  C 
ATOM     21  CG2 VAL E2011      -5.958 -16.421 -28.106  1.00 41.73 LIG 0.01  C 
ATOM     22  CG1 VAL E2011      -5.586 -16.099 -30.574  1.00 40.75 LIG 0.01  C 
ENDBRANCH 18 20
ENDBRANCH 15 18
ENDBRANCH 13 14
BRANCH 13 23
ATOM     23  CB  MET E2012      -0.804 -17.542 -31.369  1.00 32.11 LIG 0.04  C 
BRANCH 23 24
ATOM     24  CG  MET E2012      -0.501 -16.040 -31.321  1.00 37.34 LIG 0.08  C 
BRANCH 24 25
ATOM     25 SD   MET E2012      -1.891 -14.997 -30.837  1.00 39.45 LIG-0.17  SA
ATOM     26  CE  MET E2012      -1.121 -14.033 -29.526  1.00 39.28 LIG 0.09  C 
ENDBRANCH 24 25
ENDBRANCH 23 24
ENDBRANCH 13 23
ENDBRANCH 10 13
ENDBRANCH 8 9
ENDBRANCH 1 8
BRANCH 4 27
ATOM     27  C   PRO E2014       0.592 -12.191 -26.039  1.00 21.57 LIG 0.24  C 
ATOM     28 O    PRO E2014       0.460 -10.991 -25.656  1.00 21.05 LIG-0.27  OA
ATOM     29  N   TRP E2015       0.839 -12.527 -27.309  1.00 20.29 LIG-0.34  N 
ATOM     30 H    TRP E2015       0.848 -13.333 -27.607  1.00 20.29 LIG 0.16  HD
BRANCH 29 31
ATOM     31  CA  TRP E2015       1.121 -11.493 -28.311  1.00 20.70 LIG 0.19  C 
BRANCH 31 32
ATOM     32  C   TRP E2015       1.688 -12.048 -29.612  1.00 20.18 LIG 0.20  C 
ATOM     33 O    TRP E2015       1.967 -11.335 -30.572  1.00 21.31 LIG-0.65  OA
ATOM     34 OXT  TRP E2015       1.842 -13.259 -29.730  1.00 19.23 LIG-0.65  OA
ENDBRANCH 31 32
BRANCH 31 35
ATOM     35  CB  TRP E2015       2.118 -10.465 -27.757  1.00 21.64 LIG 0.08  C 
BRANCH 35 36
ATOM     36  CG  TRP E2015       1.873  -9.008 -28.145  1.00 22.27 LIG-0.03  A 
ATOM     37  CD2 TRP E2015       0.662  -8.286 -27.913  1.00 22.85 LIG-0.00  A 
ATOM     38  CE2 TRP E2015       0.850  -6.967 -28.393  1.00 23.44 LIG 0.04  A 
ATOM     39  CE3 TRP E2015      -0.572  -8.627 -27.325  1.00 23.10 LIG 0.01  A 
ATOM     40  CZ2 TRP E2015      -0.162  -5.990 -28.320  1.00 22.82 LIG 0.03  A 
ATOM     41  NE1 TRP E2015       2.123  -6.887 -28.903  1.00 23.03 LIG-0.36  N 
ATOM     42  CH2 TRP E2015      -1.362  -6.352 -27.762  1.00 23.08 LIG 0.00  A 
ATOM     43  CZ3 TRP E2015      -1.582  -7.647 -27.261  1.00 24.27 LIG 0.00  A 
ATOM     44 HE1  TRP E2015       2.473  -6.191 -29.268  1.00 23.03 LIG 0.17  HD
ATOM     45  CD1 TRP E2015       2.753  -8.115 -28.731  1.00 22.46 LIG 0.10  A 
ENDBRANCH 35 36
ENDBRANCH 31 35
ENDBRANCH 29 31
ENDBRANCH 4 27
TORSDOF 14
ENDMDL
MODEL 11
USER: ADFR SOLUTION from run 174
USER: SCORE 12.181583 LL:  -2.656 LR: -10.905 RR:   0.000 FEB:  -6.729
USER: RMSD 4.400377
USER: SEED 173
USER: STATUS no improvement in best in 11 clusters for 5 generations
USER: GENES 16
USER: genes 0 Translation |==|  0.45950 0.53591 0.57784
USER: genes 1 Rotation |==|  0.26999 0.15527 0.33877 0.72861
USER: genes 2 Torsion [N]-C--CA-[N] |==|  0.25162
USER: genes 3 Torsion [C]-CA--N-[C] |==|  0.71947
USER: genes 4 Torsion [N]-C--CA-[N] |==|  0.14556
USER: genes 5 Torsion [C]-CA--N-[C] |==|  0.57229
USER: genes 6 Torsion [N]-C--CA-[N] |==|  0.79778
USER: genes 7 Torsion [C]-CA--CB-[CG2] |==|  0.10998
USER: genes 8 Torsion [C]-CA--CB-[CG] |==|  0.33178
USER: genes 9 Torsion [CA]-CB--CG-[SD] |==|  0.01014
USER: genes 10 Torsion [CB]-CG--SD-[CE] |==|  0.49186
USER: genes 11 Torsion [N]-CA--C-[O] |==|  0.56345
USER: genes 12 Torsion [C]-N--CA-[C] |==|  0.18310
USER: genes 13 Torsion [N]-CA--C-[O] |==|  0.53247
USER: genes 14 Torsion [N]-CA--CB-[CG] |==|  0.56074
USER: genes 15 Torsion [CA]-CB--CG-[CD2] |==|  0.24108
ROOT
ATOM      1  C   GLY E2013      -0.163 -15.097 -26.794  1.00 21.81 LIG 0.24  C 
ATOM      2 O    GLY E2013      -1.273 -14.548 -26.710  1.00 22.84 LIG-0.27  OA
ATOM      3  N   PRO E2014       0.858 -14.785 -25.992  1.00 21.64 LIG-0.34  N 
ATOM      4  CA  PRO E2014       0.764 -13.836 -24.878  1.00 21.53 LIG 0.18  C 
ATOM      5  CB  PRO E2014       1.969 -14.218 -24.012  1.00 21.78 LIG 0.04  C 
ATOM      6  CG  PRO E2014       2.972 -14.806 -24.962  1.00 22.21 LIG 0.02  C 
ATOM      7  CD  PRO E2014       2.183 -15.424 -26.090  1.00 21.52 LIG 0.13  C 
ENDROOT
BRANCH 1 8
ATOM      8  CA  GLY E2013       0.086 -16.191 -27.826  1.00 23.09 LIG 0.23  C 
BRANCH 8 9
ATOM      9  N   GLY E2013      -0.275 -17.478 -27.233  1.00 25.21 LIG-0.35  N 
ATOM     10  C   MET E2012       0.641 -18.318 -26.754  1.00 26.98 LIG 0.24  C 
ATOM     11 O    MET E2012       1.860 -18.171 -26.928  1.00 24.85 LIG-0.27  OA
ATOM     12 H    GLY E2013      -1.120 -17.636 -27.224  1.00 25.21 LIG 0.16  HD
BRANCH 10 13
ATOM     13  CA  MET E2012       0.103 -19.475 -25.921  1.00 29.83 LIG 0.18  C 
BRANCH 13 14
ATOM     14  N   MET E2012      -0.948 -20.213 -26.625  1.00 30.84 LIG-0.35  N 
ATOM     15  C   VAL E2011      -1.892 -20.894 -25.989  1.00 36.49 LIG 0.26  C 
ATOM     16 O    VAL E2011      -1.915 -21.024 -24.757  1.00 38.00 LIG-0.27  OA
ATOM     17 H    MET E2012      -0.896 -20.163 -27.482  1.00 30.84 LIG 0.16  HD
BRANCH 15 18
ATOM     18  CA  VAL E2011      -2.967 -21.540 -26.887  1.00 39.95 LIG 0.40  C 
ATOM     19  N   VAL E2011      -3.894 -20.505 -27.447  1.00 39.42 LIG 0.61  N 
BRANCH 18 20
ATOM     20  CB  VAL E2011      -2.342 -22.423 -28.011  1.00 43.12 LIG 0.03  C 
ATOM     21  CG2 VAL E2011      -1.147 -23.203 -27.469  1.00 41.73 LIG 0.01  C 
ATOM     22  CG1 VAL E2011      -1.945 -21.605 -29.241  1.00 40.75 LIG 0.01  C 
ENDBRANCH 18 20
ENDBRANCH 15 18
ENDBRANCH 13 14
BRANCH 13 23
ATOM     23  CB  MET E2012       1.290 -20.405 -25.602  1.00 32.11 LIG 0.04  C 
BRANCH 23 24
ATOM     24  CG  MET E2012       1.632 -20.619 -24.123  1.00 37.34 LIG 0.08  C 
BRANCH 24 25
ATOM     25 SD   MET E2012       0.511 -19.816 -22.958  1.00 39.45 LIG-0.17  SA
ATOM     26  CE  MET E2012       1.211 -20.389 -21.402  1.00 39.28 LIG 0.09  C 
ENDBRANCH 24 25
ENDBRANCH 23 24
ENDBRANCH 13 23
ENDBRANCH 10 13
ENDBRANCH 8 9
ENDBRANCH 1 8
BRANCH 4 27
ATOM     27  C   PRO E2014       0.861 -12.357 -25.308  1.00 21.57 LIG 0.24  C 
ATOM     28 O    PRO E2014       1.223 -11.461 -24.489  1.00 21.05 LIG-0.27  OA
ATOM     29  N   TRP E2015       0.561 -12.099 -26.584  1.00 20.29 LIG-0.34  N 
ATOM     30 H    TRP E2015       0.233 -12.674 -27.133  1.00 20.29 LIG 0.16  HD
BRANCH 29 31
ATOM     31  CA  TRP E2015       0.782 -10.763 -27.146  1.00 20.70 LIG 0.19  C 
BRANCH 31 32
ATOM     32  C   TRP E2015       2.253 -10.372 -27.221  1.00 20.18 LIG 0.20  C 
ATOM     33 O    TRP E2015       2.625  -9.227 -27.463  1.00 21.31 LIG-0.65  OA
ATOM     34 OXT  TRP E2015       3.111 -11.236 -27.072  1.00 19.23 LIG-0.65  OA
ENDBRANCH 31 32
BRANCH 31 35
ATOM     35  CB  TRP E2015       0.050  -9.701 -26.312  1.00 21.64 LIG 0.08  C 
BRANCH 35 36
ATOM     36  CG  TRP E2015      -0.255  -8.380 -27.015  1.00 22.27 LIG-0.03  A 
ATOM     37  CD2 TRP E2015      -1.416  -8.116 -27.806  1.00 22.85 LIG-0.00  A 
ATOM     38  CE2 TRP E2015      -1.334  -6.775 -28.254  1.00 23.44 LIG 0.04  A 
ATOM     39  CE3 TRP E2015      -2.537  -8.888 -28.169  1.00 23.10 LIG 0.01  A 
ATOM     40  CZ2 TRP E2015      -2.326  -6.194 -29.067  1.00 22.82 LIG 0.03  A 
ATOM     41  NE1 TRP E2015      -0.168  -6.242 -27.762  1.00 23.03 LIG-0.36  N 
ATOM     42  CH2 TRP E2015      -3.398  -6.973 -29.425  1.00 23.08 LIG 0.00  A 
ATOM     43  CZ3 TRP E2015      -3.522  -8.303 -28.987  1.00 24.27 LIG 0.00  A 
ATOM     44 HE1  TRP E2015       0.118  -5.444 -27.908  1.00 23.03 LIG 0.17  HD
ATOM     45  CD1 TRP E2015       0.475  -7.204 -26.991  1.00 22.46 LIG 0.10  A 
ENDBRANCH 35 36
ENDBRANCH 31 35
ENDBRANCH 29 31
ENDBRANCH 4 27
TORSDOF 14
ENDMDL
MODEL 12
USER: ADFR SOLUTION from run 198
USER: SCORE 12.743752 LL:  -2.334 LR: -10.884 RR:   0.000 FEB:  -6.707
USER: RMSD 6.018078
USER: SEED 197
USER: STATUS no improvement in best in 21 clusters for 5 generations
USER: GENES 16
USER: genes 0 Translation |==|  0.45851 0.53158 0.58590
USER: genes 1 Rotation |==|  0.29187 0.15625 0.35429 0.75940
USER: genes 2 Torsion [N]-C--CA-[N] |==|  0.51365
USER: genes 3 Torsion [C]-CA--N-[C] |==|  0.33613
USER: genes 4 Torsion [N]-C--CA-[N] |==|  0.08731
USER: genes 5 Torsion [C]-CA--N-[C] |==|  0.18882
USER: genes 6 Torsion [N]-C--CA-[N] |==|  0.04438
USER: genes 7 Torsion [C]-CA--CB-[CG2] |==|  0.59461
USER: genes 8 Torsion [C]-CA--CB-[CG] |==|  0.48281
USER: genes 9 Torsion [CA]-CB--CG-[SD] |==|  0.78793
USER: genes 10 Torsion [CB]-CG--SD-[CE] |==|  0.39044
USER: genes 11 Torsion [N]-CA--C-[O] |==|  0.54773
USER: genes 12 Torsion [C]-N--CA-[C] |==|  0.53596
USER: genes 13 Torsion [N]-CA--C-[O] |==|  0.83905
USER: genes 14 Torsion [N]-CA--CB-[CG] |==|  0.45774
USER: genes 15 Torsion [CA]-CB--CG-[CD2] |==|  0.58446
ROOT
ATOM      1  C   GLY E2013      -0.178 -15.208 -26.655  1.00 21.81 LIG 0.24  C 
ATOM      2 O    GLY E2013      -1.336 -14.811 -26.445  1.00 22.84 LIG-0.27  OA
ATOM      3  N   PRO E2014       0.864 -14.806 -25.923  1.00 21.64 LIG-0.34  N 
ATOM      4  CA  PRO E2014       0.754 -13.935 -24.750  1.00 21.53 LIG 0.18  C 
ATOM      5  CB  PRO E2014       2.070 -14.200 -24.012  1.00 21.78 LIG 0.04  C 
ATOM      6  CG  PRO E2014       3.048 -14.607 -25.076  1.00 22.21 LIG 0.02  C 
ATOM      7  CD  PRO E2014       2.244 -15.265 -26.170  1.00 21.52 LIG 0.13  C 
ENDROOT
BRANCH 1 8
ATOM      8  CA  GLY E2013       0.110 -16.208 -27.768  1.00 23.09 LIG 0.23  C 
BRANCH 8 9
ATOM      9  N   GLY E2013      -1.123 -16.431 -28.521  1.00 25.21 LIG-0.35  N 
ATOM     10  C   MET E2012      -1.207 -16.184 -29.828  1.00 26.98 LIG 0.24  C 
ATOM     11 O    MET E2012      -0.330 -15.587 -30.468  1.00 24.85 LIG-0.27  OA
ATOM     12 H    GLY E2013      -1.775 -16.731 -28.049  1.00 25.21 LIG 0.16  HD
BRANCH 10 13
ATOM     13  CA  MET E2012      -2.451 -16.726 -30.521  1.00 29.83 LIG 0.18  C 
BRANCH 13 14
ATOM     14  N   MET E2012      -3.610 -16.750 -29.626  1.00 30.84 LIG-0.35  N 
ATOM     15  C   VAL E2011      -4.192 -15.645 -29.180  1.00 36.49 LIG 0.26  C 
ATOM     16 O    VAL E2011      -3.756 -14.510 -29.421  1.00 38.00 LIG-0.27  OA
ATOM     17 H    MET E2012      -3.875 -17.542 -29.419  1.00 30.84 LIG 0.16  HD
BRANCH 15 18
ATOM     18  CA  VAL E2011      -5.451 -15.858 -28.315  1.00 39.95 LIG 0.40  C 
ATOM     19  N   VAL E2011      -5.544 -17.276 -27.838  1.00 39.42 LIG 0.61  N 
BRANCH 18 20
ATOM     20  CB  VAL E2011      -5.531 -14.845 -27.132  1.00 43.12 LIG 0.03  C 
ATOM     21  CG2 VAL E2011      -6.174 -15.503 -25.914  1.00 41.73 LIG 0.01  C 
ATOM     22  CG1 VAL E2011      -6.274 -13.562 -27.513  1.00 40.75 LIG 0.01  C 
ENDBRANCH 18 20
ENDBRANCH 15 18
ENDBRANCH 13 14
BRANCH 13 23
ATOM     23  CB  MET E2012      -2.732 -15.822 -31.738  1.00 32.11 LIG 0.04  C 
BRANCH 23 24
ATOM     24  CG  MET E2012      -3.858 -16.254 -32.685  1.00 37.34 LIG 0.08  C 
BRANCH 24 25
ATOM     25 SD   MET E2012      -3.441 -17.614 -33.795  1.00 39.45 LIG-0.17  SA
ATOM     26  CE  MET E2012      -4.987 -18.535 -33.760  1.00 39.28 LIG 0.09  C 
ENDBRANCH 24 25
ENDBRANCH 23 24
ENDBRANCH 13 23
ENDBRANCH 10 13
ENDBRANCH 8 9
ENDBRANCH 1 8
BRANCH 4 27
ATOM     27  C   PRO E2014       0.629 -12.436 -25.096  1.00 21.57 LIG 0.24  C 
ATOM     28 O    PRO E2014       0.847 -11.543 -24.225  1.00 21.05 LIG-0.27  OA
ATOM     29  N   TRP E2015       0.298 -12.154 -26.360  1.00 20.29 LIG-0.34  N 
ATOM     30 H    TRP E2015       0.063 -12.740 -26.944  1.00 20.29 LIG 0.16  HD
BRANCH 29 31
ATOM     31  CA  TRP E2015       0.317 -10.770 -26.844  1.00 20.70 LIG 0.19  C 
BRANCH 31 32
ATOM     32  C   TRP E2015      -0.375 -10.587 -28.188  1.00 20.18 LIG 0.20  C 
ATOM     33 O    TRP E2015      -0.037 -11.197 -29.199  1.00 21.31 LIG-0.65  OA
ATOM     34 OXT  TRP E2015      -1.288  -9.773 -28.287  1.00 19.23 LIG-0.65  OA
ENDBRANCH 31 32
BRANCH 31 35
ATOM     35  CB  TRP E2015       1.763 -10.268 -26.981  1.00 21.64 LIG 0.08  C 
BRANCH 35 36
ATOM     36  CG  TRP E2015       1.962  -8.996 -27.802  1.00 22.27 LIG-0.03  A 
ATOM     37  CD2 TRP E2015       3.129  -8.683 -28.566  1.00 22.85 LIG-0.00  A 
ATOM     38  CE2 TRP E2015       2.907  -7.434 -29.196  1.00 23.44 LIG 0.04  A 
ATOM     39  CE3 TRP E2015       4.347  -9.353 -28.794  1.00 23.10 LIG 0.01  A 
ATOM     40  CZ2 TRP E2015       3.871  -6.831 -30.026  1.00 22.82 LIG 0.03  A 
ATOM     41  NE1 TRP E2015       1.658  -6.998 -28.828  1.00 23.03 LIG-0.36  N 
ATOM     42  CH2 TRP E2015       5.058  -7.493 -30.216  1.00 23.08 LIG 0.00  A 
ATOM     43  CZ3 TRP E2015       5.309  -8.741 -29.619  1.00 24.27 LIG 0.00  A 
ATOM     44 HE1  TRP E2015       1.296  -6.255 -29.068  1.00 23.03 LIG 0.17  HD
ATOM     45  CD1 TRP E2015       1.074  -7.954 -28.004  1.00 22.46 LIG 0.10  A 
ENDBRANCH 35 36
ENDBRANCH 31 35
ENDBRANCH 29 31
ENDBRANCH 4 27
TORSDOF 14
ENDMDL
MODEL 13
USER: ADFR SOLUTION from run 196
USER: SCORE 12.881226 LL:  -2.624 LR: -10.847 RR:   0.000 FEB:  -6.671
USER: RMSD 5.748169
USER: SEED 195
USER: STATUS no improvement in best in 26 clusters for 5 generations
USER: GENES 16
USER: genes 0 Translation |==|  0.45522 0.53674 0.58726
USER: genes 1 Rotation |==|  0.26216 0.16224 0.34886 0.73770
USER: genes 2 Torsion [N]-C--CA-[N] |==|  0.51885
USER: genes 3 Torsion [C]-CA--N-[C] |==|  0.21257
USER: genes 4 Torsion [N]-C--CA-[N] |==|  0.05664
USER: genes 5 Torsion [C]-CA--N-[C] |==|  0.59446
USER: genes 6 Torsion [N]-C--CA-[N] |==|  0.85833
USER: genes 7 Torsion [C]-CA--CB-[CG2] |==|  0.12334
USER: genes 8 Torsion [C]-CA--CB-[CG] |==|  0.25565
USER: genes 9 Torsion [CA]-CB--CG-[SD] |==|  0.29310
USER: genes 10 Torsion [CB]-CG--SD-[CE] |==|  0.74216
USER: genes 11 Torsion [N]-CA--C-[O] |==|  0.54643
USER: genes 12 Torsion [C]-N--CA-[C] |==|  0.19820
USER: genes 13 Torsion [N]-CA--C-[O] |==|  0.59140
USER: genes 14 Torsion [N]-CA--CB-[CG] |==|  0.64436
USER: genes 15 Torsion [CA]-CB--CG-[CD2] |==|  0.83215
ROOT
ATOM      1  C   GLY E2013      -0.230 -15.076 -26.632  1.00 21.81 LIG 0.24  C 
ATOM      2 O    GLY E2013      -1.330 -14.521 -26.483  1.00 22.84 LIG-0.27  OA
ATOM      3  N   PRO E2014       0.843 -14.755 -25.904  1.00 21.64 LIG-0.34  N 
ATOM      4  CA  PRO E2014       0.826 -13.789 -24.802  1.00 21.53 LIG 0.18  C 
ATOM      5  CB  PRO E2014       2.085 -14.162 -24.012  1.00 21.78 LIG 0.04  C 
ATOM      6  CG  PRO E2014       3.020 -14.770 -25.017  1.00 22.21 LIG 0.02  C 
ATOM      7  CD  PRO E2014       2.156 -15.403 -26.079  1.00 21.52 LIG 0.13  C 
ENDROOT
BRANCH 1 8
ATOM      8  CA  GLY E2013      -0.055 -16.188 -27.659  1.00 23.09 LIG 0.23  C 
BRANCH 8 9
ATOM      9  N   GLY E2013      -1.276 -16.280 -28.456  1.00 25.21 LIG-0.35  N 
ATOM     10  C   MET E2012      -1.562 -15.402 -29.417  1.00 26.98 LIG 0.24  C 
ATOM     11 O    MET E2012      -0.926 -14.353 -29.594  1.00 24.85 LIG-0.27  OA
ATOM     12 H    GLY E2013      -1.783 -16.942 -28.248  1.00 25.21 LIG 0.16  HD
BRANCH 10 13
ATOM     13  CA  MET E2012      -2.713 -15.786 -30.338  1.00 29.83 LIG 0.18  C 
BRANCH 13 14
ATOM     14  N   MET E2012      -3.590 -16.789 -29.731  1.00 30.84 LIG-0.35  N 
ATOM     15  C   VAL E2011      -4.199 -17.730 -30.440  1.00 36.49 LIG 0.26  C 
ATOM     16 O    VAL E2011      -4.137 -17.788 -31.676  1.00 38.00 LIG-0.27  OA
ATOM     17 H    MET E2012      -3.671 -16.711 -28.878  1.00 30.84 LIG 0.16  HD
BRANCH 15 18
ATOM     18  CA  VAL E2011      -5.016 -18.753 -29.626  1.00 39.95 LIG 0.40  C 
ATOM     19  N   VAL E2011      -4.197 -19.333 -28.511  1.00 39.42 LIG 0.61  N 
BRANCH 18 20
ATOM     20  CB  VAL E2011      -6.358 -18.154 -29.104  1.00 43.12 LIG 0.03  C 
ATOM     21  CG2 VAL E2011      -7.048 -17.357 -30.208  1.00 41.73 LIG 0.01  C 
ATOM     22  CG1 VAL E2011      -6.164 -17.295 -27.852  1.00 40.75 LIG 0.01  C 
ENDBRANCH 18 20
ENDBRANCH 15 18
ENDBRANCH 13 14
BRANCH 13 23
ATOM     23  CB  MET E2012      -3.504 -14.499 -30.649  1.00 32.11 LIG 0.04  C 
BRANCH 23 24
ATOM     24  CG  MET E2012      -3.099 -13.716 -31.903  1.00 37.34 LIG 0.08  C 
BRANCH 24 25
ATOM     25 SD   MET E2012      -4.236 -13.868 -33.296  1.00 39.45 LIG-0.17  SA
ATOM     26  CE  MET E2012      -3.478 -15.246 -34.172  1.00 39.28 LIG 0.09  C 
ENDBRANCH 24 25
ENDBRANCH 23 24
ENDBRANCH 13 23
ENDBRANCH 10 13
ENDBRANCH 8 9
ENDBRANCH 1 8
BRANCH 4 27
ATOM     27  C   PRO E2014       0.901 -12.317 -25.262  1.00 21.57 LIG 0.24  C 
ATOM     28 O    PRO E2014       1.209 -11.394 -24.452  1.00 21.05 LIG-0.27  OA
ATOM     29  N   TRP E2015       0.640 -12.096 -26.554  1.00 20.29 LIG-0.34  N 
ATOM     30 H    TRP E2015       0.347 -12.691 -27.101  1.00 20.29 LIG 0.16  HD
BRANCH 29 31
ATOM     31  CA  TRP E2015       0.846 -10.766 -27.137  1.00 20.70 LIG 0.19  C 
BRANCH 31 32
ATOM     32  C   TRP E2015       2.315 -10.392 -27.291  1.00 20.18 LIG 0.20  C 
ATOM     33 O    TRP E2015       2.722  -9.238 -27.183  1.00 21.31 LIG-0.65  OA
ATOM     34 OXT  TRP E2015       3.130 -11.265 -27.569  1.00 19.23 LIG-0.65  OA
ENDBRANCH 31 32
BRANCH 31 35
ATOM     35  CB  TRP E2015       0.168  -9.690 -26.277  1.00 21.64 LIG 0.08  C 
BRANCH 35 36
ATOM     36  CG  TRP E2015      -0.771  -8.732 -27.007  1.00 22.27 LIG-0.03  A 
ATOM     37  CD2 TRP E2015      -0.390  -7.857 -28.072  1.00 22.85 LIG-0.00  A 
ATOM     38  CE2 TRP E2015      -1.551  -7.161 -28.490  1.00 23.44 LIG 0.04  A 
ATOM     39  CE3 TRP E2015       0.829  -7.604 -28.730  1.00 23.10 LIG 0.01  A 
ATOM     40  CZ2 TRP E2015      -1.522  -6.210 -29.529  1.00 22.82 LIG 0.03  A 
ATOM     41  NE1 TRP E2015      -2.597  -7.588 -27.710  1.00 23.03 LIG-0.36  N 
ATOM     42  CH2 TRP E2015      -0.317  -5.966 -30.140  1.00 23.08 LIG 0.00  A 
ATOM     43  CZ3 TRP E2015       0.853  -6.647 -29.762  1.00 24.27 LIG 0.00  A 
ATOM     44 HE1  TRP E2015      -3.407  -7.303 -27.759  1.00 23.03 LIG 0.17  HD
ATOM     45  CD1 TRP E2015      -2.132  -8.557 -26.828  1.00 22.46 LIG 0.10  A 
ENDBRANCH 35 36
ENDBRANCH 31 35
ENDBRANCH 29 31
ENDBRANCH 4 27
TORSDOF 14
ENDMDL
MODEL 14
USER: ADFR SOLUTION from run 108
USER: SCORE 13.361958 LL:  -2.809 LR: -10.760 RR:   0.000 FEB:  -6.584
USER: RMSD 5.448448
USER: SEED 107
USER: STATUS searching
USER: GENES 16
USER: genes 0 Translation |==|  0.45869 0.53647 0.58294
USER: genes 1 Rotation |==|  0.26962 0.17426 0.32816 0.74757
USER: genes 2 Torsion [N]-C--CA-[N] |==|  0.49403
USER: genes 3 Torsion [C]-CA--N-[C] |==|  0.21706
USER: genes 4 Torsion [N]-C--CA-[N] |==|  0.04203
USER: genes 5 Torsion [C]-CA--N-[C] |==|  0.68258
USER: genes 6 Torsion [N]-C--CA-[N] |==|  0.77431
USER: genes 7 Torsion [C]-CA--CB-[CG2] |==|  0.50550
USER: genes 8 Torsion [C]-CA--CB-[CG] |==|  0.64650
USER: genes 9 Torsion [CA]-CB--CG-[SD] |==|  0.30871
USER: genes 10 Torsion [CB]-CG--SD-[CE] |==|  0.76146
USER: genes 11 Torsion [N]-CA--C-[O] |==|  0.46899
USER: genes 12 Torsion [C]-N--CA-[C] |==|  0.79229
USER: genes 13 Torsion [N]-CA--C-[O] |==|  0.87314
USER: genes 14 Torsion [N]-CA--CB-[CG] |==|  0.65609
USER: genes 15 Torsion [CA]-CB--CG-[CD2] |==|  0.33453
ROOT
ATOM      1  C   GLY E2013      -0.176 -15.083 -26.706  1.00 21.81 LIG 0.24  C 
ATOM      2 O    GLY E2013      -1.259 -14.513 -26.498  1.00 22.84 LIG-0.27  OA
ATOM      3  N   PRO E2014       0.906 -14.871 -25.953  1.00 21.64 LIG-0.34  N 
ATOM      4  CA  PRO E2014       0.918 -14.024 -24.756  1.00 21.53 LIG 0.18  C 
ATOM      5  CB  PRO E2014       2.165 -14.514 -24.012  1.00 21.78 LIG 0.04  C 
ATOM      6  CG  PRO E2014       3.082 -15.043 -25.077  1.00 22.21 LIG 0.02  C 
ATOM      7  CD  PRO E2014       2.199 -15.536 -26.197  1.00 21.52 LIG 0.13  C 
ENDROOT
BRANCH 1 8
ATOM      8  CA  GLY E2013      -0.033 -16.088 -27.843  1.00 23.09 LIG 0.23  C 
BRANCH 8 9
ATOM      9  N   GLY E2013      -1.326 -16.217 -28.512  1.00 25.21 LIG-0.35  N 
ATOM     10  C   MET E2012      -1.770 -15.307 -29.378  1.00 26.98 LIG 0.24  C 
ATOM     11 O    MET E2012      -1.225 -14.207 -29.551  1.00 24.85 LIG-0.27  OA
ATOM     12 H    GLY E2013      -1.765 -16.925 -28.297  1.00 25.21 LIG 0.16  HD
BRANCH 10 13
ATOM     13  CA  MET E2012      -2.988 -15.715 -30.196  1.00 29.83 LIG 0.18  C 
BRANCH 13 14
ATOM     14  N   MET E2012      -3.658 -16.889 -29.634  1.00 30.84 LIG-0.35  N 
ATOM     15  C   VAL E2011      -3.709 -18.054 -30.266  1.00 36.49 LIG 0.26  C 
ATOM     16 O    VAL E2011      -3.265 -18.220 -31.411  1.00 38.00 LIG-0.27  OA
ATOM     17 H    MET E2012      -4.011 -16.753 -28.861  1.00 30.84 LIG 0.16  HD
BRANCH 15 18
ATOM     18  CA  VAL E2011      -4.380 -19.204 -29.489  1.00 39.95 LIG 0.40  C 
ATOM     19  N   VAL E2011      -3.427 -19.824 -28.512  1.00 39.42 LIG 0.61  N 
BRANCH 18 20
ATOM     20  CB  VAL E2011      -5.703 -18.754 -28.796  1.00 43.12 LIG 0.03  C 
ATOM     21  CG2 VAL E2011      -6.305 -19.909 -28.000  1.00 41.73 LIG 0.01  C 
ATOM     22  CG1 VAL E2011      -6.720 -18.192 -29.792  1.00 40.75 LIG 0.01  C 
ENDBRANCH 18 20
ENDBRANCH 15 18
ENDBRANCH 13 14
BRANCH 13 23
ATOM     23  CB  MET E2012      -3.950 -14.510 -30.223  1.00 32.11 LIG 0.04  C 
BRANCH 23 24
ATOM     24  CG  MET E2012      -5.400 -14.764 -29.795  1.00 37.34 LIG 0.08  C 
BRANCH 24 25
ATOM     25 SD   MET E2012      -5.879 -13.996 -28.235  1.00 39.45 LIG-0.17  SA
ATOM     26  CE  MET E2012      -5.334 -15.263 -27.078  1.00 39.28 LIG 0.09  C 
ENDBRANCH 24 25
ENDBRANCH 23 24
ENDBRANCH 13 23
ENDBRANCH 10 13
ENDBRANCH 8 9
ENDBRANCH 1 8
BRANCH 4 27
ATOM     27  C   PRO E2014       1.037 -12.516 -25.062  1.00 21.57 LIG 0.24  C 
ATOM     28 O    PRO E2014       0.852 -11.649 -24.158  1.00 21.05 LIG-0.27  OA
ATOM     29  N   TRP E2015       1.361 -12.199 -26.319  1.00 20.29 LIG-0.34  N 
ATOM     30 H    TRP E2015       1.408 -12.762 -26.967  1.00 20.29 LIG 0.16  HD
BRANCH 29 31
ATOM     31  CA  TRP E2015       1.668 -10.811 -26.682  1.00 20.70 LIG 0.19  C 
BRANCH 31 32
ATOM     32  C   TRP E2015       0.436  -9.919 -26.766  1.00 20.18 LIG 0.20  C 
ATOM     33 O    TRP E2015      -0.594 -10.261 -27.340  1.00 21.31 LIG-0.65  OA
ATOM     34 OXT  TRP E2015       0.475  -8.796 -26.274  1.00 19.23 LIG-0.65  OA
ENDBRANCH 31 32
BRANCH 31 35
ATOM     35  CB  TRP E2015       2.389 -10.756 -28.037  1.00 21.64 LIG 0.08  C 
BRANCH 35 36
ATOM     36  CG  TRP E2015       3.746 -10.056 -28.054  1.00 22.27 LIG-0.03  A 
ATOM     37  CD2 TRP E2015       4.982 -10.664 -28.436  1.00 22.85 LIG-0.00  A 
ATOM     38  CE2 TRP E2015       5.993  -9.676 -28.340  1.00 23.44 LIG 0.04  A 
ATOM     39  CE3 TRP E2015       5.333 -11.957 -28.869  1.00 23.10 LIG 0.01  A 
ATOM     40  CZ2 TRP E2015       7.340  -9.950 -28.645  1.00 22.82 LIG 0.03  A 
ATOM     41  NE1 TRP E2015       5.400  -8.513 -27.912  1.00 23.03 LIG-0.36  N 
ATOM     42  CH2 TRP E2015       7.660 -11.223 -29.045  1.00 23.08 LIG 0.00  A 
ATOM     43  CZ3 TRP E2015       6.683 -12.226 -29.166  1.00 24.27 LIG 0.00  A 
ATOM     44 HE1  TRP E2015       5.807  -7.770 -27.762  1.00 23.03 LIG 0.17  HD
ATOM     45  CD1 TRP E2015       4.035  -8.734 -27.762  1.00 22.46 LIG 0.10  A 
ENDBRANCH 35 36
ENDBRANCH 31 35
ENDBRANCH 29 31
ENDBRANCH 4 27
TORSDOF 14
ENDMDL
MODEL 15
USER: ADFR SOLUTION from run 178
USER: SCORE 13.607840 LL:  -3.775 LR: -10.752 RR:   0.000 FEB:  -6.576
USER: RMSD 6.230502
USER: SEED 177
USER: STATUS no improvement in best in 13 clusters for 5 generations
USER: GENES 16
USER: genes 0 Translation |==|  0.53658 0.55693 0.68223
USER: genes 1 Rotation |==|  0.26984 0.27003 0.63639 0.85431
USER: genes 2 Torsion [N]-C--CA-[N] |==|  0.83722
USER: genes 3 Torsion [C]-CA--N-[C] |==|  0.87073
USER: genes 4 Torsion [N]-C--CA-[N] |==|  0.37451
USER: genes 5 Torsion [C]-CA--N-[C] |==|  0.53366
USER: genes 6 Torsion [N]-C--CA-[N] |==|  0.83032
USER: genes 7 Torsion [C]-CA--CB-[CG2] |==|  0.11320
USER: genes 8 Torsion [C]-CA--CB-[CG] |==|  0.29473
USER: genes 9 Torsion [CA]-CB--CG-[SD] |==|  0.28952
USER: genes 10 Torsion [CB]-CG--SD-[CE] |==|  0.08689
USER: genes 11 Torsion [N]-CA--C-[O] |==|  0.32747
USER: genes 12 Torsion [C]-N--CA-[C] |==|  0.48739
USER: genes 13 Torsion [N]-CA--C-[O] |==|  0.92190
USER: genes 14 Torsion [N]-CA--CB-[CG] |==|  0.30724
USER: genes 15 Torsion [CA]-CB--CG-[CD2] |==|  0.25945
ROOT
ATOM      1  C   GLY E2013       1.051 -14.561 -24.994  1.00 21.81 LIG 0.24  C 
ATOM      2 O    GLY E2013       0.474 -14.231 -23.945  1.00 22.84 LIG-0.27  OA
ATOM      3  N   PRO E2014       1.720 -13.690 -25.753  1.00 21.64 LIG-0.34  N 
ATOM      4  CA  PRO E2014       1.924 -12.282 -25.398  1.00 21.53 LIG 0.18  C 
ATOM      5  CB  PRO E2014       3.121 -11.888 -26.270  1.00 21.78 LIG 0.04  C 
ATOM      6  CG  PRO E2014       3.056 -12.793 -27.467  1.00 22.21 LIG 0.02  C 
ATOM      7  CD  PRO E2014       2.400 -14.070 -27.004  1.00 21.52 LIG 0.13  C 
ENDROOT
BRANCH 1 8
ATOM      8  CA  GLY E2013       1.040 -16.011 -25.462  1.00 23.09 LIG 0.23  C 
BRANCH 8 9
ATOM      9  N   GLY E2013       0.456 -16.061 -26.801  1.00 25.21 LIG-0.35  N 
ATOM     10  C   MET E2012      -0.668 -15.416 -27.107  1.00 26.98 LIG 0.24  C 
ATOM     11 O    MET E2012      -1.400 -14.880 -26.262  1.00 24.85 LIG-0.27  OA
ATOM     12 H    GLY E2013       0.901 -16.539 -27.361  1.00 25.21 LIG 0.16  HD
BRANCH 10 13
ATOM     13  CA  MET E2012      -0.995 -15.331 -28.593  1.00 29.83 LIG 0.18  C 
BRANCH 13 14
ATOM     14  N   MET E2012      -2.401 -15.638 -28.863  1.00 30.84 LIG-0.35  N 
ATOM     15  C   VAL E2011      -2.863 -15.857 -30.087  1.00 36.49 LIG 0.26  C 
ATOM     16 O    VAL E2011      -2.161 -15.744 -31.102  1.00 38.00 LIG-0.27  OA
ATOM     17 H    MET E2012      -2.894 -15.663 -28.159  1.00 30.84 LIG 0.16  HD
BRANCH 15 18
ATOM     18  CA  VAL E2011      -4.351 -16.250 -30.176  1.00 39.95 LIG 0.40  C 
ATOM     19  N   VAL E2011      -4.617 -17.527 -29.439  1.00 39.42 LIG 0.61  N 
BRANCH 18 20
ATOM     20  CB  VAL E2011      -5.293 -15.102 -29.699  1.00 43.12 LIG 0.03  C 
ATOM     21  CG2 VAL E2011      -4.786 -13.754 -30.205  1.00 41.73 LIG 0.01  C 
ATOM     22  CG1 VAL E2011      -5.463 -15.083 -28.178  1.00 40.75 LIG 0.01  C 
ENDBRANCH 18 20
ENDBRANCH 15 18
ENDBRANCH 13 14
BRANCH 13 23
ATOM     23  CB  MET E2012      -0.659 -13.900 -29.058  1.00 32.11 LIG 0.04  C 
BRANCH 23 24
ATOM     24  CG  MET E2012       0.603 -13.720 -29.910  1.00 37.34 LIG 0.08  C 
BRANCH 24 25
ATOM     25 SD   MET E2012       0.303 -13.462 -31.671  1.00 39.45 LIG-0.17  SA
ATOM     26  CE  MET E2012      -1.277 -12.603 -31.599  1.00 39.28 LIG 0.09  C 
ENDBRANCH 24 25
ENDBRANCH 23 24
ENDBRANCH 13 23
ENDBRANCH 10 13
ENDBRANCH 8 9
ENDBRANCH 1 8
BRANCH 4 27
ATOM     27  C   PRO E2014       0.713 -11.378 -25.713  1.00 21.57 LIG 0.24  C 
ATOM     28 O    PRO E2014       0.100 -10.763 -24.792  1.00 21.05 LIG-0.27  OA
ATOM     29  N   TRP E2015       0.378 -11.279 -27.003  1.00 20.29 LIG-0.34  N 
ATOM     30 H    TRP E2015       0.723 -11.751 -27.634  1.00 20.29 LIG 0.16  HD
BRANCH 29 31
ATOM     31  CA  TRP E2015      -0.643 -10.319 -27.435  1.00 20.70 LIG 0.19  C 
BRANCH 31 32
ATOM     32  C   TRP E2015      -0.822 -10.263 -28.947  1.00 20.18 LIG 0.20  C 
ATOM     33 O    TRP E2015       0.084 -10.525 -29.734  1.00 21.31 LIG-0.65  OA
ATOM     34 OXT  TRP E2015      -1.901  -9.907 -29.410  1.00 19.23 LIG-0.65  OA
ENDBRANCH 31 32
BRANCH 31 35
ATOM     35  CB  TRP E2015      -0.295  -8.906 -26.944  1.00 21.64 LIG 0.08  C 
BRANCH 35 36
ATOM     36  CG  TRP E2015       0.117  -7.899 -28.016  1.00 22.27 LIG-0.03  A 
ATOM     37  CD2 TRP E2015      -0.767  -6.989 -28.674  1.00 22.85 LIG-0.00  A 
ATOM     38  CE2 TRP E2015       0.007  -6.214 -29.573  1.00 23.44 LIG 0.04  A 
ATOM     39  CE3 TRP E2015      -2.150  -6.739 -28.578  1.00 23.10 LIG 0.01  A 
ATOM     40  CZ2 TRP E2015      -0.563  -5.218 -30.388  1.00 22.82 LIG 0.03  A 
ATOM     41  NE1 TRP E2015       1.310  -6.638 -29.473  1.00 23.03 LIG-0.36  N 
ATOM     42  CH2 TRP E2015      -1.916  -5.008 -30.291  1.00 23.08 LIG 0.00  A 
ATOM     43  CZ3 TRP E2015      -2.715  -5.746 -29.400  1.00 24.27 LIG 0.00  A 
ATOM     44 HE1  TRP E2015       1.972  -6.332 -29.930  1.00 23.03 LIG 0.17  HD
ATOM     45  CD1 TRP E2015       1.383  -7.641 -28.513  1.00 22.46 LIG 0.10  A 
ENDBRANCH 35 36
ENDBRANCH 31 35
ENDBRANCH 29 31
ENDBRANCH 4 27
TORSDOF 14
ENDMDL
MODEL 16
USER: ADFR SOLUTION from run 198
USER: SCORE 12.732348 LL:  -2.556 LR: -10.680 RR:   0.000 FEB:  -6.504
USER: RMSD 5.603592
USER: SEED 197
USER: STATUS no improvement in best in 21 clusters for 5 generations
USER: GENES 16
USER: genes 0 Translation |==|  0.46775 0.53161 0.60859
USER: genes 1 Rotation |==|  0.24807 0.09499 0.44545 0.63972
USER: genes 2 Torsion [N]-C--CA-[N] |==|  0.55346
USER: genes 3 Torsion [C]-CA--N-[C] |==|  0.37940
USER: genes 4 Torsion [N]-C--CA-[N] |==|  0.07639
USER: genes 5 Torsion [C]-CA--N-[C] |==|  0.18333
USER: genes 6 Torsion [N]-C--CA-[N] |==|  0.99795
USER: genes 7 Torsion [C]-CA--CB-[CG2] |==|  0.68430
USER: genes 8 Torsion [C]-CA--CB-[CG] |==|  0.24878
USER: genes 9 Torsion [CA]-CB--CG-[SD] |==|  0.39735
USER: genes 10 Torsion [CB]-CG--SD-[CE] |==|  0.08531
USER: genes 11 Torsion [N]-CA--C-[O] |==|  0.15466
USER: genes 12 Torsion [C]-N--CA-[C] |==|  0.65047
USER: genes 13 Torsion [N]-CA--C-[O] |==|  0.53761
USER: genes 14 Torsion [N]-CA--CB-[CG] |==|  0.67745
USER: genes 15 Torsion [CA]-CB--CG-[CD2] |==|  0.74418
ROOT
ATOM      1  C   GLY E2013      -0.033 -15.207 -26.264  1.00 21.81 LIG 0.24  C 
ATOM      2 O    GLY E2013      -1.186 -14.888 -26.597  1.00 22.84 LIG-0.27  OA
ATOM      3  N   PRO E2014       0.813 -14.349 -25.687  1.00 21.64 LIG-0.34  N 
ATOM      4  CA  PRO E2014       0.457 -12.980 -25.303  1.00 21.53 LIG 0.18  C 
ATOM      5  CB  PRO E2014       1.534 -12.631 -24.271  1.00 21.78 LIG 0.04  C 
ATOM      6  CG  PRO E2014       2.725 -13.468 -24.641  1.00 22.21 LIG 0.02  C 
ATOM      7  CD  PRO E2014       2.187 -14.715 -25.296  1.00 21.52 LIG 0.13  C 
ENDROOT
BRANCH 1 8
ATOM      8  CA  GLY E2013       0.474 -16.627 -26.484  1.00 23.09 LIG 0.23  C 
BRANCH 8 9
ATOM      9  N   GLY E2013      -0.360 -17.265 -27.500  1.00 25.21 LIG-0.35  N 
ATOM     10  C   MET E2012       0.158 -18.002 -28.481  1.00 26.98 LIG 0.24  C 
ATOM     11 O    MET E2012       1.373 -18.062 -28.722  1.00 24.85 LIG-0.27  OA
ATOM     12 H    GLY E2013      -1.203 -17.120 -27.406  1.00 25.21 LIG 0.16  HD
BRANCH 10 13
ATOM     13  CA  MET E2012      -0.841 -18.824 -29.286  1.00 29.83 LIG 0.18  C 
BRANCH 13 14
ATOM     14  N   MET E2012      -2.171 -18.213 -29.295  1.00 30.84 LIG-0.35  N 
ATOM     15  C   VAL E2011      -2.419 -17.050 -29.883  1.00 36.49 LIG 0.26  C 
ATOM     16 O    VAL E2011      -1.534 -16.355 -30.402  1.00 38.00 LIG-0.27  OA
ATOM     17 H    MET E2012      -2.771 -18.675 -28.887  1.00 30.84 LIG 0.16  HD
BRANCH 15 18
ATOM     18  CA  VAL E2011      -3.894 -16.598 -29.869  1.00 39.95 LIG 0.40  C 
ATOM     19  N   VAL E2011      -4.762 -17.611 -29.186  1.00 39.42 LIG 0.61  N 
BRANCH 18 20
ATOM     20  CB  VAL E2011      -4.068 -15.178 -29.248  1.00 43.12 LIG 0.03  C 
ATOM     21  CG2 VAL E2011      -4.847 -15.263 -27.938  1.00 41.73 LIG 0.01  C 
ATOM     22  CG1 VAL E2011      -4.735 -14.197 -30.215  1.00 40.75 LIG 0.01  C 
ENDBRANCH 18 20
ENDBRANCH 15 18
ENDBRANCH 13 14
BRANCH 13 23
ATOM     23  CB  MET E2012      -0.293 -18.940 -30.722  1.00 32.11 LIG 0.04  C 
BRANCH 23 24
ATOM     24  CG  MET E2012       0.626 -20.129 -31.026  1.00 37.34 LIG 0.08  C 
BRANCH 24 25
ATOM     25 SD   MET E2012       0.422 -20.849 -32.667  1.00 39.45 LIG-0.17  SA
ATOM     26  CE  MET E2012      -0.076 -19.388 -33.594  1.00 39.28 LIG 0.09  C 
ENDBRANCH 24 25
ENDBRANCH 23 24
ENDBRANCH 13 23
ENDBRANCH 10 13
ENDBRANCH 8 9
ENDBRANCH 1 8
BRANCH 4 27
ATOM     27  C   PRO E2014       0.494 -11.975 -26.474  1.00 21.57 LIG 0.24  C 
ATOM     28 O    PRO E2014      -0.182 -12.172 -27.526  1.00 21.05 LIG-0.27  OA
ATOM     29  N   TRP E2015       1.260 -10.896 -26.293  1.00 20.29 LIG-0.34  N 
ATOM     30 H    TRP E2015       1.792 -10.782 -25.626  1.00 20.29 LIG 0.16  HD
BRANCH 29 31
ATOM     31  CA  TRP E2015       1.239  -9.795 -27.262  1.00 20.70 LIG 0.19  C 
BRANCH 31 32
ATOM     32  C   TRP E2015       2.618  -9.431 -27.798  1.00 20.18 LIG 0.20  C 
ATOM     33 O    TRP E2015       2.836  -8.396 -28.422  1.00 21.31 LIG-0.65  OA
ATOM     34 OXT  TRP E2015       3.549 -10.213 -27.636  1.00 19.23 LIG-0.65  OA
ENDBRANCH 31 32
BRANCH 31 35
ATOM     35  CB  TRP E2015       0.624  -8.536 -26.633  1.00 21.64 LIG 0.08  C 
BRANCH 35 36
ATOM     36  CG  TRP E2015      -0.680  -8.038 -27.251  1.00 22.27 LIG-0.03  A 
ATOM     37  CD2 TRP E2015      -0.779  -7.071 -28.299  1.00 22.85 LIG-0.00  A 
ATOM     38  CE2 TRP E2015      -2.153  -6.906 -28.602  1.00 23.44 LIG 0.04  A 
ATOM     39  CE3 TRP E2015       0.172  -6.331 -29.028  1.00 23.10 LIG 0.01  A 
ATOM     40  CZ2 TRP E2015      -2.600  -6.014 -29.595  1.00 22.82 LIG 0.03  A 
ATOM     41  NE1 TRP E2015      -2.866  -7.736 -27.771  1.00 23.03 LIG-0.36  N 
ATOM     42  CH2 TRP E2015      -1.656  -5.289 -30.278  1.00 23.08 LIG 0.00  A 
ATOM     43  CZ3 TRP E2015      -0.283  -5.435 -30.014  1.00 24.27 LIG 0.00  A 
ATOM     44 HE1  TRP E2015      -3.723  -7.807 -27.750  1.00 23.03 LIG 0.17  HD
ATOM     45  CD1 TRP E2015      -1.975  -8.440 -26.969  1.00 22.46 LIG 0.10  A 
ENDBRANCH 35 36
ENDBRANCH 31 35
ENDBRANCH 29 31
ENDBRANCH 4 27
TORSDOF 14
ENDMDL
MODEL 17
USER: ADFR SOLUTION from run 4
USER: SCORE 13.119356 LL:  -2.707 LR: -10.643 RR:   0.000 FEB:  -6.467
USER: RMSD 4.398383
USER: SEED 235643
USER: STATUS no improvement in best in 35 clusters for 5 generations
USER: GENES 16
USER: genes 0 Translation |==|  0.48913 0.48858 0.55778
USER: genes 1 Rotation |==|  0.31248 0.25237 0.29598 0.83450
USER: genes 2 Torsion [N]-C--CA-[N] |==|  0.49209
USER: genes 3 Torsion [C]-CA--N-[C] |==|  0.29399
USER: genes 4 Torsion [N]-C--CA-[N] |==|  0.00152
USER: genes 5 Torsion [C]-CA--N-[C] |==|  0.73078
USER: genes 6 Torsion [N]-C--CA-[N] |==|  0.86607
USER: genes 7 Torsion [C]-CA--CB-[CG2] |==|  0.05198
USER: genes 8 Torsion [C]-CA--CB-[CG] |==|  0.75395
USER: genes 9 Torsion [CA]-CB--CG-[SD] |==|  0.74995
USER: genes 10 Torsion [CB]-CG--SD-[CE] |==|  0.48715
USER: genes 11 Torsion [N]-CA--C-[O] |==|  0.59245
USER: genes 12 Torsion [C]-N--CA-[C] |==|  0.79779
USER: genes 13 Torsion [N]-CA--C-[O] |==|  0.99163
USER: genes 14 Torsion [N]-CA--CB-[CG] |==|  0.59085
USER: genes 15 Torsion [CA]-CB--CG-[CD2] |==|  0.63504
ROOT
ATOM      1  C   GLY E2013       0.304 -16.304 -27.140  1.00 21.81 LIG 0.24  C 
ATOM      2 O    GLY E2013      -0.667 -15.963 -26.447  1.00 22.84 LIG-0.27  OA
ATOM      3  N   PRO E2014       1.551 -16.342 -26.664  1.00 21.64 LIG-0.34  N 
ATOM      4  CA  PRO E2014       1.902 -16.075 -25.266  1.00 21.53 LIG 0.18  C 
ATOM      5  CB  PRO E2014       3.282 -16.730 -25.137  1.00 21.78 LIG 0.04  C 
ATOM      6  CG  PRO E2014       3.872 -16.689 -26.518  1.00 22.21 LIG 0.02  C 
ATOM      7  CD  PRO E2014       2.712 -16.737 -27.482  1.00 21.52 LIG 0.13  C 
ENDROOT
BRANCH 1 8
ATOM      8  CA  GLY E2013       0.112 -16.725 -28.592  1.00 23.09 LIG 0.23  C 
BRANCH 8 9
ATOM      9  N   GLY E2013      -1.316 -16.682 -28.902  1.00 25.21 LIG-0.35  N 
ATOM     10  C   MET E2012      -1.848 -15.719 -29.653  1.00 26.98 LIG 0.24  C 
ATOM     11 O    MET E2012      -1.231 -14.699 -29.995  1.00 24.85 LIG-0.27  OA
ATOM     12 H    GLY E2013      -1.771 -17.327 -28.559  1.00 25.21 LIG 0.16  HD
BRANCH 10 13
ATOM     13  CA  MET E2012      -3.279 -15.961 -30.118  1.00 29.83 LIG 0.18  C 
BRANCH 13 14
ATOM     14  N   MET E2012      -3.807 -17.235 -29.625  1.00 30.84 LIG-0.35  N 
ATOM     15  C   VAL E2011      -3.800 -18.342 -30.354  1.00 36.49 LIG 0.26  C 
ATOM     16 O    VAL E2011      -3.418 -18.370 -31.533  1.00 38.00 LIG-0.27  OA
ATOM     17 H    MET E2012      -4.119 -17.197 -28.824  1.00 30.84 LIG 0.16  HD
BRANCH 15 18
ATOM     18  CA  VAL E2011      -4.317 -19.610 -29.645  1.00 39.95 LIG 0.40  C 
ATOM     19  N   VAL E2011      -3.687 -19.768 -28.294  1.00 39.42 LIG 0.61  N 
BRANCH 18 20
ATOM     20  CB  VAL E2011      -5.874 -19.644 -29.562  1.00 43.12 LIG 0.03  C 
ATOM     21  CG2 VAL E2011      -6.481 -18.683 -30.581  1.00 41.73 LIG 0.01  C 
ATOM     22  CG1 VAL E2011      -6.389 -19.340 -28.153  1.00 40.75 LIG 0.01  C 
ENDBRANCH 18 20
ENDBRANCH 15 18
ENDBRANCH 13 14
BRANCH 13 23
ATOM     23  CB  MET E2012      -4.137 -14.788 -29.602  1.00 32.11 LIG 0.04  C 
BRANCH 23 24
ATOM     24  CG  MET E2012      -4.754 -14.935 -28.206  1.00 37.34 LIG 0.08  C 
BRANCH 24 25
ATOM     25 SD   MET E2012      -6.392 -15.691 -28.173  1.00 39.45 LIG-0.17  SA
ATOM     26  CE  MET E2012      -6.656 -15.794 -26.396  1.00 39.28 LIG 0.09  C 
ENDBRANCH 24 25
ENDBRANCH 23 24
ENDBRANCH 13 23
ENDBRANCH 10 13
ENDBRANCH 8 9
ENDBRANCH 1 8
BRANCH 4 27
ATOM     27  C   PRO E2014       1.990 -14.574 -24.920  1.00 21.57 LIG 0.24  C 
ATOM     28 O    PRO E2014       2.820 -14.147 -24.064  1.00 21.05 LIG-0.27  OA
ATOM     29  N   TRP E2015       1.158 -13.771 -25.590  1.00 20.29 LIG-0.34  N 
ATOM     30 H    TRP E2015       0.531 -14.045 -26.112  1.00 20.29 LIG 0.16  HD
BRANCH 29 31
ATOM     31  CA  TRP E2015       1.270 -12.314 -25.469  1.00 20.70 LIG 0.19  C 
BRANCH 31 32
ATOM     32  C   TRP E2015       0.786 -11.776 -24.129  1.00 20.18 LIG 0.20  C 
ATOM     33 O    TRP E2015       0.296 -12.495 -23.262  1.00 21.31 LIG-0.65  OA
ATOM     34 OXT  TRP E2015       0.850 -10.571 -23.908  1.00 19.23 LIG-0.65  OA
ENDBRANCH 31 32
BRANCH 31 35
ATOM     35  CB  TRP E2015       0.467 -11.619 -26.579  1.00 21.64 LIG 0.08  C 
BRANCH 35 36
ATOM     36  CG  TRP E2015       1.029 -10.295 -27.093  1.00 22.27 LIG-0.03  A 
ATOM     37  CD2 TRP E2015       0.278  -9.090 -27.259  1.00 22.85 LIG-0.00  A 
ATOM     38  CE2 TRP E2015       1.166  -8.092 -27.729  1.00 23.44 LIG 0.04  A 
ATOM     39  CE3 TRP E2015      -1.071  -8.750 -27.038  1.00 23.10 LIG 0.01  A 
ATOM     40  CZ2 TRP E2015       0.742  -6.777 -28.001  1.00 22.82 LIG 0.03  A 
ATOM     41  NE1 TRP E2015       2.409  -8.664 -27.851  1.00 23.03 LIG-0.36  N 
ATOM     42  CH2 TRP E2015      -0.582  -6.477 -27.797  1.00 23.08 LIG 0.00  A 
ATOM     43  CZ3 TRP E2015      -1.491  -7.436 -27.318  1.00 24.27 LIG 0.00  A 
ATOM     44 HE1  TRP E2015       3.117  -8.267 -28.133  1.00 23.03 LIG 0.17  HD
ATOM     45  CD1 TRP E2015       2.333  -9.992 -27.443  1.00 22.46 LIG 0.10  A 
ENDBRANCH 35 36
ENDBRANCH 31 35
ENDBRANCH 29 31
ENDBRANCH 4 27
TORSDOF 14
ENDMDL
MODEL 18
USER: ADFR SOLUTION from run 71
USER: SCORE 13.555758 LL:  -3.091 LR: -10.620 RR:   0.000 FEB:  -6.444
USER: RMSD 4.787376
USER: SEED 70
USER: STATUS no improvement in best in 30 clusters for 5 generations
USER: GENES 16
USER: genes 0 Translation |==|  0.45941 0.53584 0.61020
USER: genes 1 Rotation |==|  0.22850 0.11183 0.41712 0.63689
USER: genes 2 Torsion [N]-C--CA-[N] |==|  0.56156
USER: genes 3 Torsion [C]-CA--N-[C] |==|  0.22777
USER: genes 4 Torsion [N]-C--CA-[N] |==|  0.00756
USER: genes 5 Torsion [C]-CA--N-[C] |==|  0.73409
USER: genes 6 Torsion [N]-C--CA-[N] |==|  0.01527
USER: genes 7 Torsion [C]-CA--CB-[CG2] |==|  0.22389
USER: genes 8 Torsion [C]-CA--CB-[CG] |==|  0.92743
USER: genes 9 Torsion [CA]-CB--CG-[SD] |==|  0.29382
USER: genes 10 Torsion [CB]-CG--SD-[CE] |==|  0.60652
USER: genes 11 Torsion [N]-CA--C-[O] |==|  0.41525
USER: genes 12 Torsion [C]-N--CA-[C] |==|  0.47067
USER: genes 13 Torsion [N]-CA--C-[O] |==|  0.04391
USER: genes 14 Torsion [N]-CA--CB-[CG] |==|  0.60982
USER: genes 15 Torsion [CA]-CB--CG-[CD2] |==|  0.26115
ROOT
ATOM      1  C   GLY E2013      -0.164 -15.099 -26.236  1.00 21.81 LIG 0.24  C 
ATOM      2 O    GLY E2013      -1.251 -14.610 -26.583  1.00 22.84 LIG-0.27  OA
ATOM      3  N   PRO E2014       0.759 -14.402 -25.569  1.00 21.64 LIG-0.34  N 
ATOM      4  CA  PRO E2014       0.565 -13.027 -25.097  1.00 21.53 LIG 0.18  C 
ATOM      5  CB  PRO E2014       1.632 -12.895 -24.006  1.00 21.78 LIG 0.04  C 
ATOM      6  CG  PRO E2014       2.721 -13.853 -24.396  1.00 22.21 LIG 0.02  C 
ATOM      7  CD  PRO E2014       2.056 -14.971 -25.159  1.00 21.52 LIG 0.13  C 
ENDROOT
BRANCH 1 8
ATOM      8  CA  GLY E2013       0.165 -16.555 -26.543  1.00 23.09 LIG 0.23  C 
BRANCH 8 9
ATOM      9  N   GLY E2013      -0.650 -16.985 -27.677  1.00 25.21 LIG-0.35  N 
ATOM     10  C   MET E2012      -0.306 -16.720 -28.937  1.00 26.98 LIG 0.24  C 
ATOM     11 O    MET E2012       0.613 -15.948 -29.246  1.00 24.85 LIG-0.27  OA
ATOM     12 H    GLY E2013      -1.360 -17.418 -27.457  1.00 25.21 LIG 0.16  HD
BRANCH 10 13
ATOM     13  CA  MET E2012      -1.094 -17.468 -30.006  1.00 29.83 LIG 0.18  C 
BRANCH 13 14
ATOM     14  N   MET E2012      -2.144 -18.307 -29.425  1.00 30.84 LIG-0.35  N 
ATOM     15  C   VAL E2011      -1.972 -19.598 -29.177  1.00 36.49 LIG 0.26  C 
ATOM     16 O    VAL E2011      -0.941 -20.212 -29.486  1.00 38.00 LIG-0.27  OA
ATOM     17 H    MET E2012      -2.877 -17.886 -29.262  1.00 30.84 LIG 0.16  HD
BRANCH 15 18
ATOM     18  CA  VAL E2011      -3.155 -20.307 -28.486  1.00 39.95 LIG 0.40  C 
ATOM     19  N   VAL E2011      -4.332 -19.388 -28.355  1.00 39.42 LIG 0.61  N 
BRANCH 18 20
ATOM     20  CB  VAL E2011      -3.541 -21.639 -29.199  1.00 43.12 LIG 0.03  C 
ATOM     21  CG2 VAL E2011      -2.598 -22.761 -28.772  1.00 41.73 LIG 0.01  C 
ATOM     22  CG1 VAL E2011      -3.565 -21.499 -30.723  1.00 40.75 LIG 0.01  C 
ENDBRANCH 18 20
ENDBRANCH 15 18
ENDBRANCH 13 14
BRANCH 13 23
ATOM     23  CB  MET E2012      -1.709 -16.413 -30.948  1.00 32.11 LIG 0.04  C 
BRANCH 23 24
ATOM     24  CG  MET E2012      -1.967 -15.020 -30.363  1.00 37.34 LIG 0.08  C 
BRANCH 24 25
ATOM     25 SD   MET E2012      -0.813 -13.742 -30.901  1.00 39.45 LIG-0.17  SA
ATOM     26  CE  MET E2012      -0.628 -12.818 -29.367  1.00 39.28 LIG 0.09  C 
ENDBRANCH 24 25
ENDBRANCH 23 24
ENDBRANCH 13 23
ENDBRANCH 10 13
ENDBRANCH 8 9
ENDBRANCH 1 8
BRANCH 4 27
ATOM     27  C   PRO E2014       0.782 -11.957 -26.189  1.00 21.57 LIG 0.24  C 
ATOM     28 O    PRO E2014       0.148 -10.862 -26.165  1.00 21.05 LIG-0.27  OA
ATOM     29  N   TRP E2015       1.681 -12.258 -27.130  1.00 20.29 LIG-0.34  N 
ATOM     30 H    TRP E2015       2.060 -13.025 -27.215  1.00 20.29 LIG 0.16  HD
BRANCH 29 31
ATOM     31  CA  TRP E2015       2.092 -11.252 -28.115  1.00 20.70 LIG 0.19  C 
BRANCH 31 32
ATOM     32  C   TRP E2015       3.297 -11.673 -28.947  1.00 20.18 LIG 0.20  C 
ATOM     33 O    TRP E2015       3.690 -12.835 -29.007  1.00 21.31 LIG-0.65  OA
ATOM     34 OXT  TRP E2015       3.932 -10.819 -29.557  1.00 19.23 LIG-0.65  OA
ENDBRANCH 31 32
BRANCH 31 35
ATOM     35  CB  TRP E2015       2.434  -9.926 -27.420  1.00 21.64 LIG 0.08  C 
BRANCH 35 36
ATOM     36  CG  TRP E2015       1.984  -8.652 -28.133  1.00 22.27 LIG-0.03  A 
ATOM     37  CD2 TRP E2015       0.758  -7.959 -27.885  1.00 22.85 LIG-0.00  A 
ATOM     38  CE2 TRP E2015       0.732  -6.820 -28.727  1.00 23.44 LIG 0.04  A 
ATOM     39  CE3 TRP E2015      -0.324  -8.184 -27.012  1.00 23.10 LIG 0.01  A 
ATOM     40  CZ2 TRP E2015      -0.348  -5.917 -28.735  1.00 22.82 LIG 0.03  A 
ATOM     41  NE1 TRP E2015       1.892  -6.820 -29.464  1.00 23.03 LIG-0.36  N 
ATOM     42  CH2 TRP E2015      -1.400  -6.170 -27.890  1.00 23.08 LIG 0.00  A 
ATOM     43  CZ3 TRP E2015      -1.404  -7.281 -27.030  1.00 24.27 LIG 0.00  A 
ATOM     44 HE1  TRP E2015       2.106  -6.238 -30.060  1.00 23.03 LIG 0.17  HD
ATOM     45  CD1 TRP E2015       2.662  -7.915 -29.087  1.00 22.46 LIG 0.10  A 
ENDBRANCH 35 36
ENDBRANCH 31 35
ENDBRANCH 29 31
ENDBRANCH 4 27
TORSDOF 14
ENDMDL
MODEL 19
USER: ADFR SOLUTION from run 169
USER: SCORE 13.741785 LL:  -3.842 LR: -10.518 RR:   0.000 FEB:  -6.342
USER: RMSD 6.292855
USER: SEED 168
USER: STATUS no improvement in best in 22 clusters for 5 generations
USER: GENES 16
USER: genes 0 Translation |==|  0.43442 0.51526 0.55504
USER: genes 1 Rotation |==|  0.27809 0.29821 0.20517 0.77039
USER: genes 2 Torsion [N]-C--CA-[N] |==|  0.43473
USER: genes 3 Torsion [C]-CA--N-[C] |==|  0.34763
USER: genes 4 Torsion [N]-C--CA-[N] |==|  0.10445
USER: genes 5 Torsion [C]-CA--N-[C] |==|  0.68926
USER: genes 6 Torsion [N]-C--CA-[N] |==|  0.61210
USER: genes 7 Torsion [C]-CA--CB-[CG2] |==|  0.56830
USER: genes 8 Torsion [C]-CA--CB-[CG] |==|  0.74204
USER: genes 9 Torsion [CA]-CB--CG-[SD] |==|  0.73786
USER: genes 10 Torsion [CB]-CG--SD-[CE] |==|  0.51777
USER: genes 11 Torsion [N]-CA--C-[O] |==|  0.66675
USER: genes 12 Torsion [C]-N--CA-[C] |==|  0.61430
USER: genes 13 Torsion [N]-CA--C-[O] |==|  0.57743
USER: genes 14 Torsion [N]-CA--CB-[CG] |==|  0.14928
USER: genes 15 Torsion [CA]-CB--CG-[CD2] |==|  0.26076
ROOT
ATOM      1  C   GLY E2013      -0.558 -15.624 -27.188  1.00 21.81 LIG 0.24  C 
ATOM      2 O    GLY E2013      -1.320 -14.895 -26.533  1.00 22.84 LIG-0.27  OA
ATOM      3  N   PRO E2014       0.474 -16.267 -26.635  1.00 21.64 LIG-0.34  N 
ATOM      4  CA  PRO E2014       0.771 -16.260 -25.199  1.00 21.53 LIG 0.18  C 
ATOM      5  CB  PRO E2014       1.665 -17.493 -25.037  1.00 21.78 LIG 0.04  C 
ATOM      6  CG  PRO E2014       2.338 -17.675 -26.367  1.00 22.21 LIG 0.02  C 
ATOM      7  CD  PRO E2014       1.391 -17.127 -27.405  1.00 21.52 LIG 0.13  C 
ENDROOT
BRANCH 1 8
ATOM      8  CA  GLY E2013      -0.781 -15.840 -28.679  1.00 23.09 LIG 0.23  C 
BRANCH 8 9
ATOM      9  N   GLY E2013      -2.183 -15.560 -28.983  1.00 25.21 LIG-0.35  N 
ATOM     10  C   MET E2012      -2.543 -14.679 -29.916  1.00 26.98 LIG 0.24  C 
ATOM     11 O    MET E2012      -1.747 -13.904 -30.466  1.00 24.85 LIG-0.27  OA
ATOM     12 H    GLY E2013      -2.743 -16.011 -28.511  1.00 25.21 LIG 0.16  HD
BRANCH 10 13
ATOM     13  CA  MET E2012      -4.014 -14.703 -30.312  1.00 29.83 LIG 0.18  C 
BRANCH 13 14
ATOM     14  N   MET E2012      -4.886 -14.953 -29.163  1.00 30.84 LIG-0.35  N 
ATOM     15  C   VAL E2011      -5.582 -16.074 -29.024  1.00 36.49 LIG 0.26  C 
ATOM     16 O    VAL E2011      -5.609 -16.962 -29.888  1.00 38.00 LIG-0.27  OA
ATOM     17 H    MET E2012      -4.905 -14.310 -28.592  1.00 30.84 LIG 0.16  HD
BRANCH 15 18
ATOM     18  CA  VAL E2011      -6.382 -16.202 -27.711  1.00 39.95 LIG 0.40  C 
ATOM     19  N   VAL E2011      -6.303 -17.597 -27.167  1.00 39.42 LIG 0.61  N 
BRANCH 18 20
ATOM     20  CB  VAL E2011      -5.947 -15.144 -26.651  1.00 43.12 LIG 0.03  C 
ATOM     21  CG2 VAL E2011      -6.268 -15.641 -25.244  1.00 41.73 LIG 0.01  C 
ATOM     22  CG1 VAL E2011      -6.581 -13.774 -26.903  1.00 40.75 LIG 0.01  C 
ENDBRANCH 18 20
ENDBRANCH 15 18
ENDBRANCH 13 14
BRANCH 13 23
ATOM     23  CB  MET E2012      -4.343 -13.338 -30.949  1.00 32.11 LIG 0.04  C 
BRANCH 23 24
ATOM     24  CG  MET E2012      -4.894 -12.249 -30.022  1.00 37.34 LIG 0.08  C 
BRANCH 24 25
ATOM     25 SD   MET E2012      -6.694 -12.138 -29.964  1.00 39.45 LIG-0.17  SA
ATOM     26  CE  MET E2012      -6.886 -10.660 -28.954  1.00 39.28 LIG 0.09  C 
ENDBRANCH 24 25
ENDBRANCH 23 24
ENDBRANCH 13 23
ENDBRANCH 10 13
ENDBRANCH 8 9
ENDBRANCH 1 8
BRANCH 4 27
ATOM     27  C   PRO E2014       1.515 -14.994 -24.723  1.00 21.57 LIG 0.24  C 
ATOM     28 O    PRO E2014       2.657 -15.072 -24.183  1.00 21.05 LIG-0.27  OA
ATOM     29  N   TRP E2015       0.887 -13.834 -24.934  1.00 20.29 LIG-0.34  N 
ATOM     30 H    TRP E2015       0.079 -13.761 -25.219  1.00 20.29 LIG 0.16  HD
BRANCH 29 31
ATOM     31  CA  TRP E2015       1.569 -12.560 -24.679  1.00 20.70 LIG 0.19  C 
BRANCH 31 32
ATOM     32  C   TRP E2015       0.682 -11.520 -24.007  1.00 20.18 LIG 0.20  C 
ATOM     33 O    TRP E2015       0.850 -10.312 -24.149  1.00 21.31 LIG-0.65  OA
ATOM     34 OXT  TRP E2015      -0.219 -11.892 -23.262  1.00 19.23 LIG-0.65  OA
ENDBRANCH 31 32
BRANCH 31 35
ATOM     35  CB  TRP E2015       2.096 -11.961 -25.991  1.00 21.64 LIG 0.08  C 
BRANCH 35 36
ATOM     36  CG  TRP E2015       1.077 -11.790 -27.115  1.00 22.27 LIG-0.03  A 
ATOM     37  CD2 TRP E2015       0.333 -10.598 -27.379  1.00 22.85 LIG-0.00  A 
ATOM     38  CE2 TRP E2015      -0.478 -10.841 -28.515  1.00 23.44 LIG 0.04  A 
ATOM     39  CE3 TRP E2015       0.286  -9.330 -26.768  1.00 23.10 LIG 0.01  A 
ATOM     40  CZ2 TRP E2015      -1.343  -9.864 -29.041  1.00 22.82 LIG 0.03  A 
ATOM     41  NE1 TRP E2015      -0.244 -12.131 -28.925  1.00 23.03 LIG-0.36  N 
ATOM     42  CH2 TRP E2015      -1.387  -8.643 -28.416  1.00 23.08 LIG 0.00  A 
ATOM     43  CZ3 TRP E2015      -0.587  -8.360 -27.296  1.00 24.27 LIG 0.00  A 
ATOM     44 HE1  TRP E2015      -0.628 -12.523 -29.588  1.00 23.03 LIG 0.17  HD
ATOM     45  CD1 TRP E2015       0.715 -12.700 -28.094  1.00 22.46 LIG 0.10  A 
ENDBRANCH 35 36
ENDBRANCH 31 35
ENDBRANCH 29 31
ENDBRANCH 4 27
TORSDOF 14
ENDMDL
MODEL 20
USER: ADFR SOLUTION from run 161
USER: SCORE 13.907073 LL:  -4.246 LR: -10.502 RR:   0.000 FEB:  -6.325
USER: RMSD 6.114828
USER: SEED 160
USER: STATUS no improvement in best in 5 clusters for 5 generations
USER: GENES 16
USER: genes 0 Translation |==|  0.53476 0.55662 0.68621
USER: genes 1 Rotation |==|  0.26801 0.27263 0.63657 0.85473
USER: genes 2 Torsion [N]-C--CA-[N] |==|  0.84284
USER: genes 3 Torsion [C]-CA--N-[C] |==|  0.87222
USER: genes 4 Torsion [N]-C--CA-[N] |==|  0.36275
USER: genes 5 Torsion [C]-CA--N-[C] |==|  0.55181
USER: genes 6 Torsion [N]-C--CA-[N] |==|  0.83918
USER: genes 7 Torsion [C]-CA--CB-[CG2] |==|  0.10676
USER: genes 8 Torsion [C]-CA--CB-[CG] |==|  0.41591
USER: genes 9 Torsion [CA]-CB--CG-[SD] |==|  0.78002
USER: genes 10 Torsion [CB]-CG--SD-[CE] |==|  0.72936
USER: genes 11 Torsion [N]-CA--C-[O] |==|  0.32684
USER: genes 12 Torsion [C]-N--CA-[C] |==|  0.49561
USER: genes 13 Torsion [N]-CA--C-[O] |==|  0.40929
USER: genes 14 Torsion [N]-CA--CB-[CG] |==|  0.25063
USER: genes 15 Torsion [CA]-CB--CG-[CD2] |==|  0.79959
ROOT
ATOM      1  C   GLY E2013       1.023 -14.569 -24.925  1.00 21.81 LIG 0.24  C 
ATOM      2 O    GLY E2013       0.455 -14.226 -23.875  1.00 22.84 LIG-0.27  OA
ATOM      3  N   PRO E2014       1.693 -13.709 -25.695  1.00 21.64 LIG-0.34  N 
ATOM      4  CA  PRO E2014       1.911 -12.300 -25.353  1.00 21.53 LIG 0.18  C 
ATOM      5  CB  PRO E2014       3.105 -11.923 -26.235  1.00 21.78 LIG 0.04  C 
ATOM      6  CG  PRO E2014       3.026 -12.836 -27.424  1.00 22.21 LIG 0.02  C 
ATOM      7  CD  PRO E2014       2.363 -14.104 -26.948  1.00 21.52 LIG 0.13  C 
ENDROOT
BRANCH 1 8
ATOM      8  CA  GLY E2013       0.997 -16.023 -25.382  1.00 23.09 LIG 0.23  C 
BRANCH 8 9
ATOM      9  N   GLY E2013       0.449 -16.073 -26.736  1.00 25.21 LIG-0.35  N 
ATOM     10  C   MET E2012      -0.649 -15.400 -27.081  1.00 26.98 LIG 0.24  C 
ATOM     11 O    MET E2012      -1.388 -14.834 -26.262  1.00 24.85 LIG-0.27  OA
ATOM     12 H    GLY E2013       0.895 -16.569 -27.279  1.00 25.21 LIG 0.16  HD
BRANCH 10 13
ATOM     13  CA  MET E2012      -0.932 -15.325 -28.576  1.00 29.83 LIG 0.18  C 
BRANCH 13 14
ATOM     14  N   MET E2012      -2.314 -15.693 -28.890  1.00 30.84 LIG-0.35  N 
ATOM     15  C   VAL E2011      -2.699 -16.050 -30.108  1.00 36.49 LIG 0.26  C 
ATOM     16 O    VAL E2011      -1.941 -16.026 -31.089  1.00 38.00 LIG-0.27  OA
ATOM     17 H    MET E2012      -2.847 -15.656 -28.216  1.00 30.84 LIG 0.16  HD
BRANCH 15 18
ATOM     18  CA  VAL E2011      -4.172 -16.487 -30.239  1.00 39.95 LIG 0.40  C 
ATOM     19  N   VAL E2011      -4.476 -17.639 -29.329  1.00 39.42 LIG 0.61  N 
BRANCH 18 20
ATOM     20  CB  VAL E2011      -5.160 -15.301 -30.018  1.00 43.12 LIG 0.03  C 
ATOM     21  CG2 VAL E2011      -4.606 -14.025 -30.645  1.00 41.73 LIG 0.01  C 
ATOM     22  CG1 VAL E2011      -5.486 -15.083 -28.539  1.00 40.75 LIG 0.01  C 
ENDBRANCH 18 20
ENDBRANCH 15 18
ENDBRANCH 13 14
BRANCH 13 23
ATOM     23  CB  MET E2012      -0.647 -13.878 -29.027  1.00 32.11 LIG 0.04  C 
BRANCH 23 24
ATOM     24  CG  MET E2012      -0.162 -13.678 -30.468  1.00 37.34 LIG 0.08  C 
BRANCH 24 25
ATOM     25 SD   MET E2012       1.586 -14.029 -30.739  1.00 39.45 LIG-0.17  SA
ATOM     26  CE  MET E2012       2.261 -12.362 -30.644  1.00 39.28 LIG 0.09  C 
ENDBRANCH 24 25
ENDBRANCH 23 24
ENDBRANCH 13 23
ENDBRANCH 10 13
ENDBRANCH 8 9
ENDBRANCH 1 8
BRANCH 4 27
ATOM     27  C   PRO E2014       0.706 -11.389 -25.666  1.00 21.57 LIG 0.24  C 
ATOM     28 O    PRO E2014       0.101 -10.765 -24.745  1.00 21.05 LIG-0.27  OA
ATOM     29  N   TRP E2015       0.366 -11.293 -26.955  1.00 20.29 LIG-0.34  N 
ATOM     30 H    TRP E2015       0.705 -11.770 -27.585  1.00 20.29 LIG 0.16  HD
BRANCH 29 31
ATOM     31  CA  TRP E2015      -0.650 -10.328 -27.388  1.00 20.70 LIG 0.19  C 
BRANCH 31 32
ATOM     32  C   TRP E2015      -0.886 -10.328 -28.893  1.00 20.18 LIG 0.20  C 
ATOM     33 O    TRP E2015      -1.981 -10.092 -29.394  1.00 21.31 LIG-0.65  OA
ATOM     34 OXT  TRP E2015       0.043 -10.609 -29.645  1.00 19.23 LIG-0.65  OA
ENDBRANCH 31 32
BRANCH 31 35
ATOM     35  CB  TRP E2015      -0.253  -8.905 -26.968  1.00 21.64 LIG 0.08  C 
BRANCH 35 36
ATOM     36  CG  TRP E2015       0.580  -8.111 -27.972  1.00 22.27 LIG-0.03  A 
ATOM     37  CD2 TRP E2015       1.955  -8.356 -28.279  1.00 22.85 LIG-0.00  A 
ATOM     38  CE2 TRP E2015       2.345  -7.425 -29.272  1.00 23.44 LIG 0.04  A 
ATOM     39  CE3 TRP E2015       2.899  -9.294 -27.817  1.00 23.10 LIG 0.01  A 
ATOM     40  CZ2 TRP E2015       3.651  -7.392 -29.799  1.00 22.82 LIG 0.03  A 
ATOM     41  NE1 TRP E2015       1.255  -6.638 -29.557  1.00 23.03 LIG-0.36  N 
ATOM     42  CH2 TRP E2015       4.558  -8.302 -29.317  1.00 23.08 LIG 0.00  A 
ATOM     43  CZ3 TRP E2015       4.204  -9.251 -28.342  1.00 24.27 LIG 0.00  A 
ATOM     44 HE1  TRP E2015       1.242  -5.987 -30.119  1.00 23.03 LIG 0.17  HD
ATOM     45  CD1 TRP E2015       0.179  -7.068 -28.789  1.00 22.46 LIG 0.10  A 
ENDBRANCH 35 36
ENDBRANCH 31 35
ENDBRANCH 29 31
ENDBRANCH 4 27
TORSDOF 14
ENDMDL
MODEL 21
USER: ADFR SOLUTION from run 19
USER: SCORE 12.954396 LL:  -3.108 LR: -10.369 RR:   0.000 FEB:  -6.193
USER: RMSD 5.296754
USER: SEED 18
USER: STATUS no improvement in best in 16 clusters for 5 generations
USER: GENES 16
USER: genes 0 Translation |==|  0.47575 0.57079 0.57233
USER: genes 1 Rotation |==|  0.11297 0.20772 0.37867 0.50757
USER: genes 2 Torsion [N]-C--CA-[N] |==|  0.49444
USER: genes 3 Torsion [C]-CA--N-[C] |==|  0.20620
USER: genes 4 Torsion [N]-C--CA-[N] |==|  0.86372
USER: genes 5 Torsion [C]-CA--N-[C] |==|  0.68578
USER: genes 6 Torsion [N]-C--CA-[N] |==|  0.80719
USER: genes 7 Torsion [C]-CA--CB-[CG2] |==|  0.57144
USER: genes 8 Torsion [C]-CA--CB-[CG] |==|  0.54853
USER: genes 9 Torsion [CA]-CB--CG-[SD] |==|  0.21381
USER: genes 10 Torsion [CB]-CG--SD-[CE] |==|  0.15717
USER: genes 11 Torsion [N]-CA--C-[O] |==|  0.97280
USER: genes 12 Torsion [C]-N--CA-[C] |==|  0.55236
USER: genes 13 Torsion [N]-CA--C-[O] |==|  0.06709
USER: genes 14 Torsion [N]-CA--CB-[CG] |==|  0.20302
USER: genes 15 Torsion [CA]-CB--CG-[CD2] |==|  0.81012
ROOT
ATOM      1  C   GLY E2013       0.093 -14.208 -26.889  1.00 21.81 LIG 0.24  C 
ATOM      2 O    GLY E2013      -0.282 -13.301 -27.649  1.00 22.84 LIG-0.27  OA
ATOM      3  N   PRO E2014       1.085 -14.046 -26.011  1.00 21.64 LIG-0.34  N 
ATOM      4  CA  PRO E2014       1.777 -12.774 -25.780  1.00 21.53 LIG 0.18  C 
ATOM      5  CB  PRO E2014       2.407 -12.982 -24.399  1.00 21.78 LIG 0.04  C 
ATOM      6  CG  PRO E2014       2.617 -14.464 -24.276  1.00 22.21 LIG 0.02  C 
ATOM      7  CD  PRO E2014       1.545 -15.120 -25.110  1.00 21.52 LIG 0.13  C 
ENDROOT
BRANCH 1 8
ATOM      8  CA  GLY E2013      -0.589 -15.571 -26.911  1.00 23.09 LIG 0.23  C 
BRANCH 8 9
ATOM      9  N   GLY E2013      -1.669 -15.533 -27.895  1.00 25.21 LIG-0.35  N 
ATOM     10  C   MET E2012      -1.432 -15.557 -29.206  1.00 26.98 LIG 0.24  C 
ATOM     11 O    MET E2012      -0.301 -15.430 -29.698  1.00 24.85 LIG-0.27  OA
ATOM     12 H    GLY E2013      -2.456 -15.495 -27.553  1.00 25.21 LIG 0.16  HD
BRANCH 10 13
ATOM     13  CA  MET E2012      -2.649 -15.796 -30.091  1.00 29.83 LIG 0.18  C 
BRANCH 13 14
ATOM     14  N   MET E2012      -3.438 -16.944 -29.637  1.00 30.84 LIG-0.35  N 
ATOM     15  C   VAL E2011      -3.548 -18.060 -30.345  1.00 36.49 LIG 0.26  C 
ATOM     16 O    VAL E2011      -3.057 -18.193 -31.476  1.00 38.00 LIG-0.27  OA
ATOM     17 H    MET E2012      -3.820 -16.826 -28.876  1.00 30.84 LIG 0.16  HD
BRANCH 15 18
ATOM     18  CA  VAL E2011      -4.348 -19.196 -29.676  1.00 39.95 LIG 0.40  C 
ATOM     19  N   VAL E2011      -3.604 -19.762 -28.504  1.00 39.42 LIG 0.61  N 
BRANCH 18 20
ATOM     20  CB  VAL E2011      -5.789 -18.749 -29.283  1.00 43.12 LIG 0.03  C 
ATOM     21  CG2 VAL E2011      -6.308 -19.592 -28.122  1.00 41.73 LIG 0.01  C 
ATOM     22  CG1 VAL E2011      -6.758 -18.799 -30.467  1.00 40.75 LIG 0.01  C 
ENDBRANCH 18 20
ENDBRANCH 15 18
ENDBRANCH 13 14
BRANCH 13 23
ATOM     23  CB  MET E2012      -3.502 -14.512 -30.059  1.00 32.11 LIG 0.04  C 
BRANCH 23 24
ATOM     24  CG  MET E2012      -4.959 -14.630 -30.523  1.00 37.34 LIG 0.08  C 
BRANCH 24 25
ATOM     25 SD   MET E2012      -6.080 -15.381 -29.326  1.00 39.45 LIG-0.17  SA
ATOM     26  CE  MET E2012      -5.824 -14.284 -27.922  1.00 39.28 LIG 0.09  C 
ENDBRANCH 24 25
ENDBRANCH 23 24
ENDBRANCH 13 23
ENDBRANCH 10 13
ENDBRANCH 8 9
ENDBRANCH 1 8
BRANCH 4 27
ATOM     27  C   PRO E2014       2.870 -12.461 -26.824  1.00 21.57 LIG 0.24  C 
ATOM     28 O    PRO E2014       3.240 -13.332 -27.665  1.00 21.05 LIG-0.27  OA
ATOM     29  N   TRP E2015       3.373 -11.223 -26.789  1.00 20.29 LIG-0.34  N 
ATOM     30 H    TRP E2015       3.200 -10.644 -26.177  1.00 20.29 LIG 0.16  HD
BRANCH 29 31
ATOM     31  CA  TRP E2015       4.289 -10.762 -27.837  1.00 20.70 LIG 0.19  C 
BRANCH 31 32
ATOM     32  C   TRP E2015       5.110  -9.544 -27.433  1.00 20.18 LIG 0.20  C 
ATOM     33 O    TRP E2015       5.349  -9.262 -26.262  1.00 21.31 LIG-0.65  OA
ATOM     34 OXT  TRP E2015       5.525  -8.785 -28.303  1.00 19.23 LIG-0.65  OA
ENDBRANCH 31 32
BRANCH 31 35
ATOM     35  CB  TRP E2015       3.511 -10.409 -29.114  1.00 21.64 LIG 0.08  C 
BRANCH 35 36
ATOM     36  CG  TRP E2015       2.692  -9.121 -29.073  1.00 22.27 LIG-0.03  A 
ATOM     37  CD2 TRP E2015       1.522  -8.914 -28.278  1.00 22.85 LIG-0.00  A 
ATOM     38  CE2 TRP E2015       1.079  -7.588 -28.504  1.00 23.44 LIG 0.04  A 
ATOM     39  CE3 TRP E2015       0.807  -9.725 -27.375  1.00 23.10 LIG 0.01  A 
ATOM     40  CZ2 TRP E2015      -0.063  -7.060 -27.871  1.00 22.82 LIG 0.03  A 
ATOM     41  NE1 TRP E2015       1.939  -7.009 -29.405  1.00 23.03 LIG-0.36  N 
ATOM     42  CH2 TRP E2015      -0.754  -7.876 -27.012  1.00 23.08 LIG 0.00  A 
ATOM     43  CZ3 TRP E2015      -0.337  -9.193 -26.751  1.00 24.27 LIG 0.00  A 
ATOM     44 HE1  TRP E2015       1.875  -6.209 -29.716  1.00 23.03 LIG 0.17  HD
ATOM     45  CD1 TRP E2015       2.931  -7.927 -29.732  1.00 22.46 LIG 0.10  A 
ENDBRANCH 35 36
ENDBRANCH 31 35
ENDBRANCH 29 31
ENDBRANCH 4 27
TORSDOF 14
ENDMDL
MODEL 22
USER: ADFR SOLUTION from run 58
USER: SCORE 12.997988 LL:  -2.861 LR: -10.371 RR:   0.000 FEB:  -6.195
USER: RMSD 4.992269
USER: SEED 57
USER: STATUS no improvement in best in 27 clusters for 5 generations
USER: GENES 16
USER: genes 0 Translation |==|  0.46082 0.53411 0.58148
USER: genes 1 Rotation |==|  0.26235 0.18116 0.31805 0.74241
USER: genes 2 Torsion [N]-C--CA-[N] |==|  0.48115
USER: genes 3 Torsion [C]-CA--N-[C] |==|  0.20581
USER: genes 4 Torsion [N]-C--CA-[N] |==|  0.02453
USER: genes 5 Torsion [C]-CA--N-[C] |==|  0.69488
USER: genes 6 Torsion [N]-C--CA-[N] |==|  0.84075
USER: genes 7 Torsion [C]-CA--CB-[CG2] |==|  0.07565
USER: genes 8 Torsion [C]-CA--CB-[CG] |==|  0.58046
USER: genes 9 Torsion [CA]-CB--CG-[SD] |==|  0.25355
USER: genes 10 Torsion [CB]-CG--SD-[CE] |==|  0.04249
USER: genes 11 Torsion [N]-CA--C-[O] |==|  0.49166
USER: genes 12 Torsion [C]-N--CA-[C] |==|  0.77429
USER: genes 13 Torsion [N]-CA--C-[O] |==|  0.87306
USER: genes 14 Torsion [N]-CA--CB-[CG] |==|  0.55771
USER: genes 15 Torsion [CA]-CB--CG-[CD2] |==|  0.68968
ROOT
ATOM      1  C   GLY E2013      -0.142 -15.143 -26.732  1.00 21.81 LIG 0.24  C 
ATOM      2 O    GLY E2013      -1.191 -14.513 -26.525  1.00 22.84 LIG-0.27  OA
ATOM      3  N   PRO E2014       0.944 -15.004 -25.967  1.00 21.64 LIG-0.34  N 
ATOM      4  CA  PRO E2014       0.995 -14.173 -24.760  1.00 21.53 LIG 0.18  C 
ATOM      5  CB  PRO E2014       2.204 -14.744 -24.012  1.00 21.78 LIG 0.04  C 
ATOM      6  CG  PRO E2014       3.098 -15.314 -25.076  1.00 22.21 LIG 0.02  C 
ATOM      7  CD  PRO E2014       2.198 -15.741 -26.209  1.00 21.52 LIG 0.13  C 
ENDROOT
BRANCH 1 8
ATOM      8  CA  GLY E2013      -0.049 -16.141 -27.880  1.00 23.09 LIG 0.23  C 
BRANCH 8 9
ATOM      9  N   GLY E2013      -1.371 -16.269 -28.490  1.00 25.21 LIG-0.35  N 
ATOM     10  C   MET E2012      -1.886 -15.318 -29.267  1.00 26.98 LIG 0.24  C 
ATOM     11 O    MET E2012      -1.385 -14.191 -29.391  1.00 24.85 LIG-0.27  OA
ATOM     12 H    GLY E2013      -1.775 -17.005 -28.303  1.00 25.21 LIG 0.16  HD
BRANCH 10 13
ATOM     13  CA  MET E2012      -3.133 -15.711 -30.051  1.00 29.83 LIG 0.18  C 
BRANCH 13 14
ATOM     14  N   MET E2012      -3.650 -17.017 -29.637  1.00 30.84 LIG-0.35  N 
ATOM     15  C   VAL E2011      -3.581 -18.092 -30.412  1.00 36.49 LIG 0.26  C 
ATOM     16 O    VAL E2011      -3.145 -18.060 -31.571  1.00 38.00 LIG-0.27  OA
ATOM     17 H    MET E2012      -4.000 -17.021 -28.851  1.00 30.84 LIG 0.16  HD
BRANCH 15 18
ATOM     18  CA  VAL E2011      -4.098 -19.401 -29.782  1.00 39.95 LIG 0.40  C 
ATOM     19  N   VAL E2011      -3.365 -19.715 -28.513  1.00 39.42 LIG 0.61  N 
BRANCH 18 20
ATOM     20  CB  VAL E2011      -5.642 -19.380 -29.565  1.00 43.12 LIG 0.03  C 
ATOM     21  CG2 VAL E2011      -6.307 -18.453 -30.579  1.00 41.73 LIG 0.01  C 
ATOM     22  CG1 VAL E2011      -6.025 -18.989 -28.136  1.00 40.75 LIG 0.01  C 
ENDBRANCH 18 20
ENDBRANCH 15 18
ENDBRANCH 13 14
BRANCH 13 23
ATOM     23  CB  MET E2012      -4.191 -14.615 -29.815  1.00 32.11 LIG 0.04  C 
BRANCH 23 24
ATOM     24  CG  MET E2012      -5.663 -15.039 -29.883  1.00 37.34 LIG 0.08  C 
BRANCH 24 25
ATOM     25 SD   MET E2012      -6.385 -15.541 -28.308  1.00 39.45 LIG-0.17  SA
ATOM     26  CE  MET E2012      -5.150 -14.888 -27.172  1.00 39.28 LIG 0.09  C 
ENDBRANCH 24 25
ENDBRANCH 23 24
ENDBRANCH 13 23
ENDBRANCH 10 13
ENDBRANCH 8 9
ENDBRANCH 1 8
BRANCH 4 27
ATOM     27  C   PRO E2014       1.205 -12.671 -25.046  1.00 21.57 LIG 0.24  C 
ATOM     28 O    PRO E2014       1.214 -11.822 -24.107  1.00 21.05 LIG-0.27  OA
ATOM     29  N   TRP E2015       1.391 -12.342 -26.328  1.00 20.29 LIG-0.34  N 
ATOM     30 H    TRP E2015       1.304 -12.885 -26.989  1.00 20.29 LIG 0.16  HD
BRANCH 29 31
ATOM     31  CA  TRP E2015       1.768 -10.973 -26.698  1.00 20.70 LIG 0.19  C 
BRANCH 31 32
ATOM     32  C   TRP E2015       0.588 -10.011 -26.752  1.00 20.18 LIG 0.20  C 
ATOM     33 O    TRP E2015      -0.474 -10.292 -27.302  1.00 21.31 LIG-0.65  OA
ATOM     34 OXT  TRP E2015       0.704  -8.893 -26.261  1.00 19.23 LIG-0.65  OA
ENDBRANCH 31 32
BRANCH 31 35
ATOM     35  CB  TRP E2015       2.458 -10.958 -28.070  1.00 21.64 LIG 0.08  C 
BRANCH 35 36
ATOM     36  CG  TRP E2015       3.329  -9.742 -28.377  1.00 22.27 LIG-0.03  A 
ATOM     37  CD2 TRP E2015       3.035  -8.743 -29.356  1.00 22.85 LIG-0.00  A 
ATOM     38  CE2 TRP E2015       4.072  -7.779 -29.310  1.00 23.44 LIG 0.04  A 
ATOM     39  CE3 TRP E2015       1.976  -8.561 -30.266  1.00 23.10 LIG 0.01  A 
ATOM     40  CZ2 TRP E2015       4.089  -6.655 -30.157  1.00 22.82 LIG 0.03  A 
ATOM     41  NE1 TRP E2015       4.966  -8.175 -28.346  1.00 23.03 LIG-0.36  N 
ATOM     42  CH2 TRP E2015       3.056  -6.510 -31.050  1.00 23.08 LIG 0.00  A 
ATOM     43  CZ3 TRP E2015       2.003  -7.438 -31.115  1.00 24.27 LIG 0.00  A 
ATOM     44 HE1  TRP E2015       5.692  -7.763 -28.137  1.00 23.03 LIG 0.17  HD
ATOM     45  CD1 TRP E2015       4.506  -9.350 -27.762  1.00 22.46 LIG 0.10  A 
ENDBRANCH 35 36
ENDBRANCH 31 35
ENDBRANCH 29 31
ENDBRANCH 4 27
TORSDOF 14
ENDMDL
MODEL 23
USER: ADFR SOLUTION from run 174
USER: SCORE 12.882310 LL:  -4.051 LR: -10.338 RR:   0.000 FEB:  -6.162
USER: RMSD 6.874578
USER: SEED 173
USER: STATUS no improvement in best in 11 clusters for 5 generations
USER: GENES 16
USER: genes 0 Translation |==|  0.56622 0.65846 0.69107
USER: genes 1 Rotation |==|  0.21797 0.26267 0.79555 0.66366
USER: genes 2 Torsion [N]-C--CA-[N] |==|  0.80029
USER: genes 3 Torsion [C]-CA--N-[C] |==|  0.81644
USER: genes 4 Torsion [N]-C--CA-[N] |==|  0.78615
USER: genes 5 Torsion [C]-CA--N-[C] |==|  0.83513
USER: genes 6 Torsion [N]-C--CA-[N] |==|  0.91052
USER: genes 7 Torsion [C]-CA--CB-[CG2] |==|  0.18962
USER: genes 8 Torsion [C]-CA--CB-[CG] |==|  0.69746
USER: genes 9 Torsion [CA]-CB--CG-[SD] |==|  0.17760
USER: genes 10 Torsion [CB]-CG--SD-[CE] |==|  0.44685
USER: genes 11 Torsion [N]-CA--C-[O] |==|  0.03429
USER: genes 12 Torsion [C]-N--CA-[C] |==|  0.65252
USER: genes 13 Torsion [N]-CA--C-[O] |==|  0.69675
USER: genes 14 Torsion [N]-CA--CB-[CG] |==|  0.09912
USER: genes 15 Torsion [CA]-CB--CG-[CD2] |==|  0.33585
ROOT
ATOM      1  C   GLY E2013       1.518 -11.972 -24.841  1.00 21.81 LIG 0.24  C 
ATOM      2 O    GLY E2013       0.534 -11.445 -24.299  1.00 22.84 LIG-0.27  OA
ATOM      3  N   PRO E2014       1.938 -11.630 -26.062  1.00 21.64 LIG-0.34  N 
ATOM      4  CA  PRO E2014       1.351 -10.546 -26.856  1.00 21.53 LIG 0.18  C 
ATOM      5  CB  PRO E2014       2.459 -10.234 -27.866  1.00 21.78 LIG 0.04  C 
ATOM      6  CG  PRO E2014       3.225 -11.516 -28.026  1.00 22.21 LIG 0.02  C 
ATOM      7  CD  PRO E2014       3.100 -12.256 -26.718  1.00 21.52 LIG 0.13  C 
ENDROOT
BRANCH 1 8
ATOM      8  CA  GLY E2013       2.322 -13.044 -24.115  1.00 23.09 LIG 0.23  C 
BRANCH 8 9
ATOM      9  N   GLY E2013       2.066 -14.331 -24.758  1.00 25.21 LIG-0.35  N 
ATOM     10  C   MET E2012       0.867 -14.911 -24.725  1.00 26.98 LIG 0.24  C 
ATOM     11 O    MET E2012      -0.066 -14.513 -24.012  1.00 24.85 LIG-0.27  OA
ATOM     12 H    GLY E2013       2.751 -14.671 -25.151  1.00 25.21 LIG 0.16  HD
BRANCH 10 13
ATOM     13  CA  MET E2012       0.683 -16.095 -25.667  1.00 29.83 LIG 0.18  C 
BRANCH 13 14
ATOM     14  N   MET E2012       0.481 -15.665 -27.053  1.00 30.84 LIG-0.35  N 
ATOM     15  C   VAL E2011      -0.524 -14.881 -27.419  1.00 36.49 LIG 0.26  C 
ATOM     16 O    VAL E2011      -1.412 -14.514 -26.637  1.00 38.00 LIG-0.27  OA
ATOM     17 H    MET E2012       1.071 -15.968 -27.601  1.00 30.84 LIG 0.16  HD
BRANCH 15 18
ATOM     18  CA  VAL E2011      -0.533 -14.460 -28.903  1.00 39.95 LIG 0.40  C 
ATOM     19  N   VAL E2011       0.863 -14.333 -29.436  1.00 39.42 LIG 0.61  N 
BRANCH 18 20
ATOM     20  CB  VAL E2011      -1.400 -15.414 -29.780  1.00 43.12 LIG 0.03  C 
ATOM     21  CG2 VAL E2011      -2.877 -15.263 -29.427  1.00 41.73 LIG 0.01  C 
ATOM     22  CG1 VAL E2011      -0.959 -16.875 -29.664  1.00 40.75 LIG 0.01  C 
ENDBRANCH 18 20
ENDBRANCH 15 18
ENDBRANCH 13 14
BRANCH 13 23
ATOM     23  CB  MET E2012       1.944 -16.974 -25.556  1.00 32.11 LIG 0.04  C 
BRANCH 23 24
ATOM     24  CG  MET E2012       2.900 -16.981 -26.755  1.00 37.34 LIG 0.08  C 
BRANCH 24 25
ATOM     25 SD   MET E2012       3.680 -15.395 -27.116  1.00 39.45 LIG-0.17  SA
ATOM     26  CE  MET E2012       5.071 -15.948 -28.116  1.00 39.28 LIG 0.09  C 
ENDBRANCH 24 25
ENDBRANCH 23 24
ENDBRANCH 13 23
ENDBRANCH 10 13
ENDBRANCH 8 9
ENDBRANCH 1 8
BRANCH 4 27
ATOM     27  C   PRO E2014       0.054 -10.945 -27.592  1.00 21.57 LIG 0.24  C 
ATOM     28 O    PRO E2014      -0.549 -12.023 -27.316  1.00 21.05 LIG-0.27  OA
ATOM     29  N   TRP E2015      -0.386 -10.079 -28.510  1.00 20.29 LIG-0.34  N 
ATOM     30 H    TRP E2015       0.049  -9.385 -28.774  1.00 20.29 LIG 0.16  HD
BRANCH 29 31
ATOM     31  CA  TRP E2015      -1.693 -10.270 -29.148  1.00 20.70 LIG 0.19  C 
BRANCH 31 32
ATOM     32  C   TRP E2015      -1.627 -10.305 -30.669  1.00 20.18 LIG 0.20  C 
ATOM     33 O    TRP E2015      -2.062  -9.399 -31.374  1.00 21.31 LIG-0.65  OA
ATOM     34 OXT  TRP E2015      -1.154 -11.291 -31.226  1.00 19.23 LIG-0.65  OA
ENDBRANCH 31 32
BRANCH 31 35
ATOM     35  CB  TRP E2015      -2.660  -9.149 -28.739  1.00 21.64 LIG 0.08  C 
BRANCH 35 36
ATOM     36  CG  TRP E2015      -2.048  -7.761 -28.556  1.00 22.27 LIG-0.03  A 
ATOM     37  CD2 TRP E2015      -2.431  -6.590 -29.281  1.00 22.85 LIG-0.00  A 
ATOM     38  CE2 TRP E2015      -1.648  -5.512 -28.800  1.00 23.44 LIG 0.04  A 
ATOM     39  CE3 TRP E2015      -3.382  -6.343 -30.291  1.00 23.10 LIG 0.01  A 
ATOM     40  CZ2 TRP E2015      -1.775  -4.206 -29.310  1.00 22.82 LIG 0.03  A 
ATOM     41  NE1 TRP E2015      -0.817  -6.005 -27.824  1.00 23.03 LIG-0.36  N 
ATOM     42  CH2 TRP E2015      -2.693  -3.995 -30.308  1.00 23.08 LIG 0.00  A 
ATOM     43  CZ3 TRP E2015      -3.498  -5.036 -30.802  1.00 24.27 LIG 0.00  A 
ATOM     44 HE1  TRP E2015      -0.233  -5.549 -27.387  1.00 23.03 LIG 0.17  HD
ATOM     45  CD1 TRP E2015      -1.075  -7.361 -27.657  1.00 22.46 LIG 0.10  A 
ENDBRANCH 35 36
ENDBRANCH 31 35
ENDBRANCH 29 31
ENDBRANCH 4 27
TORSDOF 14
ENDMDL
MODEL 24
USER: ADFR SOLUTION from run 59
USER: SCORE 13.966398 LL:  -4.126 LR: -10.329 RR:   0.000 FEB:  -6.153
USER: RMSD 6.821709
USER: SEED 58
USER: STATUS no improvement in best in 6 clusters for 5 generations
USER: GENES 16
USER: genes 0 Translation |==|  0.48953 0.65753 0.57338
USER: genes 1 Rotation |==|  0.59325 0.98154 0.42345 0.55966
USER: genes 2 Torsion [N]-C--CA-[N] |==|  0.48932
USER: genes 3 Torsion [C]-CA--N-[C] |==|  0.73795
USER: genes 4 Torsion [N]-C--CA-[N] |==|  0.86278
USER: genes 5 Torsion [C]-CA--N-[C] |==|  0.87778
USER: genes 6 Torsion [N]-C--CA-[N] |==|  0.41822
USER: genes 7 Torsion [C]-CA--CB-[CG2] |==|  0.07995
USER: genes 8 Torsion [C]-CA--CB-[CG] |==|  0.71246
USER: genes 9 Torsion [CA]-CB--CG-[SD] |==|  0.25162
USER: genes 10 Torsion [CB]-CG--SD-[CE] |==|  0.34865
USER: genes 11 Torsion [N]-CA--C-[O] |==|  0.46489
USER: genes 12 Torsion [C]-N--CA-[C] |==|  0.58985
USER: genes 13 Torsion [N]-CA--C-[O] |==|  0.07832
USER: genes 14 Torsion [N]-CA--CB-[CG] |==|  0.95982
USER: genes 15 Torsion [CA]-CB--CG-[CD2] |==|  0.75961
ROOT
ATOM      1  C   GLY E2013       0.310 -11.996 -26.871  1.00 21.81 LIG 0.24  C 
ATOM      2 O    GLY E2013      -0.274 -12.861 -27.543  1.00 22.84 LIG-0.27  OA
ATOM      3  N   PRO E2014       0.054 -10.692 -26.998  1.00 21.64 LIG-0.34  N 
ATOM      4  CA  PRO E2014      -0.992 -10.142 -27.865  1.00 21.53 LIG 0.18  C 
ATOM      5  CB  PRO E2014      -1.213  -8.744 -27.278  1.00 21.78 LIG 0.04  C 
ATOM      6  CG  PRO E2014       0.095  -8.367 -26.644  1.00 22.21 LIG 0.02  C 
ATOM      7  CD  PRO E2014       0.749  -9.656 -26.211  1.00 21.52 LIG 0.13  C 
ENDROOT
BRANCH 1 8
ATOM      8  CA  GLY E2013       1.354 -12.393 -25.834  1.00 23.09 LIG 0.23  C 
BRANCH 8 9
ATOM      9  N   GLY E2013       1.424 -13.852 -25.782  1.00 25.21 LIG-0.35  N 
ATOM     10  C   MET E2012       0.723 -14.562 -24.900  1.00 26.98 LIG 0.24  C 
ATOM     11 O    MET E2012       0.107 -14.057 -23.950  1.00 24.85 LIG-0.27  OA
ATOM     12 H    GLY E2013       1.952 -14.200 -26.365  1.00 25.21 LIG 0.16  HD
BRANCH 10 13
ATOM     13  CA  MET E2012       0.681 -16.065 -25.149  1.00 29.83 LIG 0.18  C 
BRANCH 13 14
ATOM     14  N   MET E2012       0.323 -16.380 -26.534  1.00 30.84 LIG-0.35  N 
ATOM     15  C   VAL E2011      -0.657 -15.761 -27.177  1.00 36.49 LIG 0.26  C 
ATOM     16 O    VAL E2011      -1.396 -14.925 -26.637  1.00 38.00 LIG-0.27  OA
ATOM     17 H    MET E2012       0.805 -16.999 -26.887  1.00 30.84 LIG 0.16  HD
BRANCH 15 18
ATOM     18  CA  VAL E2011      -0.840 -16.160 -28.656  1.00 39.95 LIG 0.40  C 
ATOM     19  N   VAL E2011      -2.270 -16.015 -29.081  1.00 39.42 LIG 0.61  N 
BRANCH 18 20
ATOM     20  CB  VAL E2011       0.125 -15.379 -29.600  1.00 43.12 LIG 0.03  C 
ATOM     21  CG2 VAL E2011       1.403 -15.001 -28.857  1.00 41.73 LIG 0.01  C 
ATOM     22  CG1 VAL E2011      -0.535 -14.141 -30.212  1.00 40.75 LIG 0.01  C 
ENDBRANCH 18 20
ENDBRANCH 15 18
ENDBRANCH 13 14
BRANCH 13 23
ATOM     23  CB  MET E2012       2.077 -16.628 -24.814  1.00 32.11 LIG 0.04  C 
BRANCH 23 24
ATOM     24  CG  MET E2012       2.991 -16.978 -25.994  1.00 37.34 LIG 0.08  C 
BRANCH 24 25
ATOM     25 SD   MET E2012       4.064 -15.638 -26.550  1.00 39.45 LIG-0.17  SA
ATOM     26  CE  MET E2012       5.665 -16.455 -26.453  1.00 39.28 LIG 0.09  C 
ENDBRANCH 24 25
ENDBRANCH 23 24
ENDBRANCH 13 23
ENDBRANCH 10 13
ENDBRANCH 8 9
ENDBRANCH 1 8
BRANCH 4 27
ATOM     27  C   PRO E2014      -0.580 -10.038 -29.349  1.00 21.57 LIG 0.24  C 
ATOM     28 O    PRO E2014      -1.439  -9.811 -30.252  1.00 21.05 LIG-0.27  OA
ATOM     29  N   TRP E2015       0.723 -10.184 -29.605  1.00 20.29 LIG-0.34  N 
ATOM     30 H    TRP E2015       1.311 -10.423 -29.024  1.00 20.29 LIG 0.16  HD
BRANCH 29 31
ATOM     31  CA  TRP E2015       1.250  -9.937 -30.951  1.00 20.70 LIG 0.19  C 
BRANCH 31 32
ATOM     32  C   TRP E2015       2.440 -10.819 -31.309  1.00 20.18 LIG 0.20  C 
ATOM     33 O    TRP E2015       2.607 -11.936 -30.829  1.00 21.31 LIG-0.65  OA
ATOM     34 OXT  TRP E2015       3.292 -10.392 -32.082  1.00 19.23 LIG-0.65  OA
ENDBRANCH 31 32
BRANCH 31 35
ATOM     35  CB  TRP E2015       1.684  -8.471 -31.098  1.00 21.64 LIG 0.08  C 
BRANCH 35 36
ATOM     36  CG  TRP E2015       1.192  -7.509 -30.019  1.00 22.27 LIG-0.03  A 
ATOM     37  CD2 TRP E2015      -0.062  -6.823 -30.035  1.00 22.85 LIG-0.00  A 
ATOM     38  CE2 TRP E2015      -0.146  -6.054 -28.849  1.00 23.44 LIG 0.04  A 
ATOM     39  CE3 TRP E2015      -1.141  -6.797 -30.941  1.00 23.10 LIG 0.01  A 
ATOM     40  CZ2 TRP E2015      -1.264  -5.250 -28.554  1.00 22.82 LIG 0.03  A 
ATOM     41  NE1 TRP E2015       1.011  -6.257 -28.138  1.00 23.03 LIG-0.36  N 
ATOM     42  CH2 TRP E2015      -2.293  -5.225 -29.462  1.00 23.08 LIG 0.00  A 
ATOM     43  CZ3 TRP E2015      -2.251  -5.985 -30.643  1.00 24.27 LIG 0.00  A 
ATOM     44 HE1  TRP E2015       1.208  -5.888 -27.386  1.00 23.03 LIG 0.17  HD
ATOM     45  CD1 TRP E2015       1.813  -7.157 -28.832  1.00 22.46 LIG 0.10  A 
ENDBRANCH 35 36
ENDBRANCH 31 35
ENDBRANCH 29 31
ENDBRANCH 4 27
TORSDOF 14
ENDMDL
MODEL 25
USER: ADFR SOLUTION from run 160
USER: SCORE 13.668583 LL:  -3.590 LR: -10.331 RR:   0.000 FEB:  -6.155
USER: RMSD 6.692461
USER: SEED 159
USER: STATUS no improvement in best in 36 clusters for 5 generations
USER: GENES 16
USER: genes 0 Translation |==|  0.44631 0.53561 0.59497
USER: genes 1 Rotation |==|  0.25172 0.17080 0.35384 0.74212
USER: genes 2 Torsion [N]-C--CA-[N] |==|  0.57050
USER: genes 3 Torsion [C]-CA--N-[C] |==|  0.17319
USER: genes 4 Torsion [N]-C--CA-[N] |==|  0.46111
USER: genes 5 Torsion [C]-CA--N-[C] |==|  0.74123
USER: genes 6 Torsion [N]-C--CA-[N] |==|  0.38680
USER: genes 7 Torsion [C]-CA--CB-[CG2] |==|  0.09076
USER: genes 8 Torsion [C]-CA--CB-[CG] |==|  0.29863
USER: genes 9 Torsion [CA]-CB--CG-[SD] |==|  0.96522
USER: genes 10 Torsion [CB]-CG--SD-[CE] |==|  0.65508
USER: genes 11 Torsion [N]-CA--C-[O] |==|  0.53738
USER: genes 12 Torsion [C]-N--CA-[C] |==|  0.20488
USER: genes 13 Torsion [N]-CA--C-[O] |==|  0.06456
USER: genes 14 Torsion [N]-CA--CB-[CG] |==|  0.64868
USER: genes 15 Torsion [CA]-CB--CG-[CD2] |==|  0.82269
ROOT
ATOM      1  C   GLY E2013      -0.371 -15.105 -26.499  1.00 21.81 LIG 0.24  C 
ATOM      2 O    GLY E2013      -1.445 -14.514 -26.303  1.00 22.84 LIG-0.27  OA
ATOM      3  N   PRO E2014       0.746 -14.806 -25.831  1.00 21.64 LIG-0.34  N 
ATOM      4  CA  PRO E2014       0.814 -13.825 -24.744  1.00 21.53 LIG 0.18  C 
ATOM      5  CB  PRO E2014       2.100 -14.224 -24.012  1.00 21.78 LIG 0.04  C 
ATOM      6  CG  PRO E2014       2.965 -14.874 -25.054  1.00 22.21 LIG 0.02  C 
ATOM      7  CD  PRO E2014       2.030 -15.495 -26.062  1.00 21.52 LIG 0.13  C 
ENDROOT
BRANCH 1 8
ATOM      8  CA  GLY E2013      -0.280 -16.236 -27.516  1.00 23.09 LIG 0.23  C 
BRANCH 8 9
ATOM      9  N   GLY E2013      -1.316 -16.033 -28.528  1.00 25.21 LIG-0.35  N 
ATOM     10  C   MET E2012      -1.335 -14.959 -29.315  1.00 26.98 LIG 0.24  C 
ATOM     11 O    MET E2012      -0.605 -13.972 -29.143  1.00 24.85 LIG-0.27  OA
ATOM     12 H    GLY E2013      -1.900 -16.663 -28.564  1.00 25.21 LIG 0.16  HD
BRANCH 10 13
ATOM     13  CA  MET E2012      -2.297 -15.024 -30.495  1.00 29.83 LIG 0.18  C 
BRANCH 13 14
ATOM     14  N   MET E2012      -2.503 -13.711 -31.107  1.00 30.84 LIG-0.35  N 
ATOM     15  C   VAL E2011      -3.499 -12.907 -30.759  1.00 36.49 LIG 0.26  C 
ATOM     16 O    VAL E2011      -4.376 -13.234 -29.946  1.00 38.00 LIG-0.27  OA
ATOM     17 H    MET E2012      -1.922 -13.511 -31.709  1.00 30.84 LIG 0.16  HD
BRANCH 15 18
ATOM     18  CA  VAL E2011      -3.513 -11.527 -31.447  1.00 39.95 LIG 0.40  C 
ATOM     19  N   VAL E2011      -4.907 -11.128 -31.827  1.00 39.42 LIG 0.61  N 
BRANCH 18 20
ATOM     20  CB  VAL E2011      -2.815 -10.432 -30.584  1.00 43.12 LIG 0.03  C 
ATOM     21  CG2 VAL E2011      -1.672 -11.041 -29.777  1.00 41.73 LIG 0.01  C 
ATOM     22  CG1 VAL E2011      -3.798  -9.699 -29.667  1.00 40.75 LIG 0.01  C 
ENDBRANCH 18 20
ENDBRANCH 15 18
ENDBRANCH 13 14
BRANCH 13 23
ATOM     23  CB  MET E2012      -1.702 -16.009 -31.522  1.00 32.11 LIG 0.04  C 
BRANCH 23 24
ATOM     24  CG  MET E2012      -2.388 -17.372 -31.662  1.00 37.34 LIG 0.08  C 
BRANCH 24 25
ATOM     25 SD   MET E2012      -3.575 -17.765 -30.361  1.00 39.45 LIG-0.17  SA
ATOM     26  CE  MET E2012      -2.899 -19.329 -29.779  1.00 39.28 LIG 0.09  C 
ENDBRANCH 24 25
ENDBRANCH 23 24
ENDBRANCH 13 23
ENDBRANCH 10 13
ENDBRANCH 8 9
ENDBRANCH 1 8
BRANCH 4 27
ATOM     27  C   PRO E2014       0.908 -12.363 -25.230  1.00 21.57 LIG 0.24  C 
ATOM     28 O    PRO E2014       1.225 -11.429 -24.435  1.00 21.05 LIG-0.27  OA
ATOM     29  N   TRP E2015       0.655 -12.161 -26.526  1.00 20.29 LIG-0.34  N 
ATOM     30 H    TRP E2015       0.356 -12.762 -27.064  1.00 20.29 LIG 0.16  HD
BRANCH 29 31
ATOM     31  CA  TRP E2015       0.880 -10.844 -27.132  1.00 20.70 LIG 0.19  C 
BRANCH 31 32
ATOM     32  C   TRP E2015       2.353 -10.515 -27.340  1.00 20.18 LIG 0.20  C 
ATOM     33 O    TRP E2015       3.221 -11.378 -27.430  1.00 21.31 LIG-0.65  OA
ATOM     34 OXT  TRP E2015       2.703  -9.340 -27.385  1.00 19.23 LIG-0.65  OA
ENDBRANCH 31 32
BRANCH 31 35
ATOM     35  CB  TRP E2015       0.263  -9.739 -26.262  1.00 21.64 LIG 0.08  C 
BRANCH 35 36
ATOM     36  CG  TRP E2015      -0.701  -8.784 -26.964  1.00 22.27 LIG-0.03  A 
ATOM     37  CD2 TRP E2015      -0.350  -7.889 -28.022  1.00 22.85 LIG-0.00  A 
ATOM     38  CE2 TRP E2015      -1.526  -7.204 -28.412  1.00 23.44 LIG 0.04  A 
ATOM     39  CE3 TRP E2015       0.855  -7.610 -28.696  1.00 23.10 LIG 0.01  A 
ATOM     40  CZ2 TRP E2015      -1.527  -6.238 -29.437  1.00 22.82 LIG 0.03  A 
ATOM     41  NE1 TRP E2015      -2.554  -7.656 -27.620  1.00 23.03 LIG-0.36  N 
ATOM     42  CH2 TRP E2015      -0.337  -5.969 -30.064  1.00 23.08 LIG 0.00  A 
ATOM     43  CZ3 TRP E2015       0.848  -6.639 -29.715  1.00 24.27 LIG 0.00  A 
ATOM     44 HE1  TRP E2015      -3.369  -7.382 -27.652  1.00 23.03 LIG 0.17  HD
ATOM     45  CD1 TRP E2015      -2.061  -8.631 -26.760  1.00 22.46 LIG 0.10  A 
ENDBRANCH 35 36
ENDBRANCH 31 35
ENDBRANCH 29 31
ENDBRANCH 4 27
TORSDOF 14
ENDMDL
MODEL 26
USER: ADFR SOLUTION from run 123
USER: SCORE 13.505518 LL:  -3.969 LR: -10.299 RR:   0.000 FEB:  -6.123
USER: RMSD 8.278994
USER: SEED 122
USER: STATUS no improvement in best in 4 clusters for 5 generations
USER: GENES 16
USER: genes 0 Translation |==|  0.67570 0.77708 0.47866
USER: genes 1 Rotation |==|  0.17170 0.22871 0.69237 0.67781
USER: genes 2 Torsion [N]-C--CA-[N] |==|  0.60555
USER: genes 3 Torsion [C]-CA--N-[C] |==|  0.49819
USER: genes 4 Torsion [N]-C--CA-[N] |==|  0.44886
USER: genes 5 Torsion [C]-CA--N-[C] |==|  0.52805
USER: genes 6 Torsion [N]-C--CA-[N] |==|  0.67583
USER: genes 7 Torsion [C]-CA--CB-[CG2] |==|  0.71207
USER: genes 8 Torsion [C]-CA--CB-[CG] |==|  0.82787
USER: genes 9 Torsion [CA]-CB--CG-[SD] |==|  0.80162
USER: genes 10 Torsion [CB]-CG--SD-[CE] |==|  0.27990
USER: genes 11 Torsion [N]-CA--C-[O] |==|  0.89105
USER: genes 12 Torsion [C]-N--CA-[C] |==|  0.56839
USER: genes 13 Torsion [N]-CA--C-[O] |==|  0.57520
USER: genes 14 Torsion [N]-CA--CB-[CG] |==|  0.08226
USER: genes 15 Torsion [CA]-CB--CG-[CD2] |==|  0.66237
ROOT
ATOM      1  C   GLY E2013       3.242  -8.948 -28.505  1.00 21.81 LIG 0.24  C 
ATOM      2 O    GLY E2013       2.205  -8.341 -28.193  1.00 22.84 LIG-0.27  OA
ATOM      3  N   PRO E2014       4.126  -8.459 -29.378  1.00 21.64 LIG-0.34  N 
ATOM      4  CA  PRO E2014       4.023  -7.132 -29.994  1.00 21.53 LIG 0.18  C 
ATOM      5  CB  PRO E2014       5.459  -6.867 -30.459  1.00 21.78 LIG 0.04  C 
ATOM      6  CG  PRO E2014       6.055  -8.224 -30.703  1.00 22.21 LIG 0.02  C 
ATOM      7  CD  PRO E2014       5.357  -9.174 -29.762  1.00 21.52 LIG 0.13  C 
ENDROOT
BRANCH 1 8
ATOM      8  CA  GLY E2013       3.572 -10.296 -27.877  1.00 23.09 LIG 0.23  C 
BRANCH 8 9
ATOM      9  N   GLY E2013       2.334 -11.063 -27.749  1.00 25.21 LIG-0.35  N 
ATOM     10  C   MET E2012       2.315 -12.295 -27.241  1.00 26.98 LIG 0.24  C 
ATOM     11 O    MET E2012       3.338 -12.954 -27.009  1.00 24.85 LIG-0.27  OA
ATOM     12 H    GLY E2013       1.634 -10.650 -28.028  1.00 25.21 LIG 0.16  HD
BRANCH 10 13
ATOM     13  CA  MET E2012       0.934 -12.849 -26.913  1.00 29.83 LIG 0.18  C 
BRANCH 13 14
ATOM     14  N   MET E2012       0.947 -14.307 -26.779  1.00 30.84 LIG-0.35  N 
ATOM     15  C   VAL E2011      -0.164 -15.027 -26.690  1.00 36.49 LIG 0.26  C 
ATOM     16 O    VAL E2011      -1.293 -14.519 -26.635  1.00 38.00 LIG-0.27  OA
ATOM     17 H    MET E2012       1.736 -14.649 -26.764  1.00 30.84 LIG 0.16  HD
BRANCH 15 18
ATOM     18  CA  VAL E2011       0.036 -16.555 -26.640  1.00 39.95 LIG 0.40  C 
ATOM     19  N   VAL E2011      -0.585 -17.219 -27.833  1.00 39.42 LIG 0.61  N 
BRANCH 18 20
ATOM     20  CB  VAL E2011       1.536 -16.948 -26.478  1.00 43.12 LIG 0.03  C 
ATOM     21  CG2 VAL E2011       2.103 -17.435 -27.809  1.00 41.73 LIG 0.01  C 
ATOM     22  CG1 VAL E2011       1.749 -17.994 -25.381  1.00 40.75 LIG 0.01  C 
ENDBRANCH 18 20
ENDBRANCH 15 18
ENDBRANCH 13 14
BRANCH 13 23
ATOM     23  CB  MET E2012       0.475 -12.193 -25.595  1.00 32.11 LIG 0.04  C 
BRANCH 23 24
ATOM     24  CG  MET E2012       1.325 -12.463 -24.347  1.00 37.34 LIG 0.08  C 
BRANCH 24 25
ATOM     25 SD   MET E2012       1.205 -14.139 -23.692  1.00 39.45 LIG-0.17  SA
ATOM     26  CE  MET E2012       2.726 -14.844 -24.348  1.00 39.28 LIG 0.09  C 
ENDBRANCH 24 25
ENDBRANCH 23 24
ENDBRANCH 13 23
ENDBRANCH 10 13
ENDBRANCH 8 9
ENDBRANCH 1 8
BRANCH 4 27
ATOM     27  C   PRO E2014       3.054  -7.075 -31.193  1.00 21.57 LIG 0.24  C 
ATOM     28 O    PRO E2014       2.990  -8.024 -32.028  1.00 21.05 LIG-0.27  OA
ATOM     29  N   TRP E2015       2.289  -5.981 -31.274  1.00 20.29 LIG-0.34  N 
ATOM     30 H    TRP E2015       2.374  -5.289 -30.771  1.00 20.29 LIG 0.16  HD
BRANCH 29 31
ATOM     31  CA  TRP E2015       1.216  -5.895 -32.270  1.00 20.70 LIG 0.19  C 
BRANCH 31 32
ATOM     32  C   TRP E2015       0.849  -4.465 -32.645  1.00 20.18 LIG 0.20  C 
ATOM     33 O    TRP E2015      -0.267  -4.148 -33.046  1.00 21.31 LIG-0.65  OA
ATOM     34 OXT  TRP E2015       1.707  -3.590 -32.582  1.00 19.23 LIG-0.65  OA
ENDBRANCH 31 32
BRANCH 31 35
ATOM     35  CB  TRP E2015      -0.052  -6.592 -31.755  1.00 21.64 LIG 0.08  C 
BRANCH 35 36
ATOM     36  CG  TRP E2015      -0.256  -6.594 -30.241  1.00 22.27 LIG-0.03  A 
ATOM     37  CD2 TRP E2015      -0.390  -7.763 -29.429  1.00 22.85 LIG-0.00  A 
ATOM     38  CE2 TRP E2015      -0.535  -7.337 -28.086  1.00 23.44 LIG 0.04  A 
ATOM     39  CE3 TRP E2015      -0.386  -9.143 -29.709  1.00 23.10 LIG 0.01  A 
ATOM     40  CZ2 TRP E2015      -0.694  -8.248 -27.024  1.00 22.82 LIG 0.03  A 
ATOM     41  NE1 TRP E2015      -0.497  -5.964 -28.077  1.00 23.03 LIG-0.36  N 
ATOM     42  CH2 TRP E2015      -0.707  -9.587 -27.324  1.00 23.08 LIG 0.00  A 
ATOM     43  CZ3 TRP E2015      -0.552 -10.048 -28.643  1.00 24.27 LIG 0.00  A 
ATOM     44 HE1  TRP E2015      -0.579  -5.466 -27.381  1.00 23.03 LIG 0.17  HD
ATOM     45  CD1 TRP E2015      -0.303  -5.513 -29.378  1.00 22.46 LIG 0.10  A 
ENDBRANCH 35 36
ENDBRANCH 31 35
ENDBRANCH 29 31
ENDBRANCH 4 27
TORSDOF 14
ENDMDL
MODEL 27
USER: ADFR SOLUTION from run 52
USER: SCORE 13.241056 LL:  -3.246 LR: -10.206 RR:   0.000 FEB:  -6.030
USER: RMSD 5.118902
USER: SEED 51
USER: STATUS no improvement in best in 16 clusters for 5 generations
USER: GENES 16
USER: genes 0 Translation |==|  0.46374 0.55717 0.56386
USER: genes 1 Rotation |==|  0.32011 0.20467 0.45471 0.85829
USER: genes 2 Torsion [N]-C--CA-[N] |==|  0.56857
USER: genes 3 Torsion [C]-CA--N-[C] |==|  0.22778
USER: genes 4 Torsion [N]-C--CA-[N] |==|  0.97472
USER: genes 5 Torsion [C]-CA--N-[C] |==|  0.74252
USER: genes 6 Torsion [N]-C--CA-[N] |==|  0.83753
USER: genes 7 Torsion [C]-CA--CB-[CG2] |==|  0.07495
USER: genes 8 Torsion [C]-CA--CB-[CG] |==|  0.71440
USER: genes 9 Torsion [CA]-CB--CG-[SD] |==|  0.38855
USER: genes 10 Torsion [CB]-CG--SD-[CE] |==|  0.53395
USER: genes 11 Torsion [N]-CA--C-[O] |==|  0.46303
USER: genes 12 Torsion [C]-N--CA-[C] |==|  0.47326
USER: genes 13 Torsion [N]-CA--C-[O] |==|  0.43766
USER: genes 14 Torsion [N]-CA--CB-[CG] |==|  0.27112
USER: genes 15 Torsion [CA]-CB--CG-[CD2] |==|  0.74554
ROOT
ATOM      1  C   GLY E2013      -0.096 -14.555 -27.035  1.00 21.81 LIG 0.24  C 
ATOM      2 O    GLY E2013      -1.065 -14.518 -26.260  1.00 22.84 LIG-0.27  OA
ATOM      3  N   PRO E2014       0.991 -13.798 -26.867  1.00 21.64 LIG-0.34  N 
ATOM      4  CA  PRO E2014       1.203 -12.913 -25.717  1.00 21.53 LIG 0.18  C 
ATOM      5  CB  PRO E2014       2.720 -12.703 -25.732  1.00 21.78 LIG 0.04  C 
ATOM      6  CG  PRO E2014       3.131 -12.872 -27.166  1.00 22.21 LIG 0.02  C 
ATOM      7  CD  PRO E2014       2.143 -13.828 -27.786  1.00 21.52 LIG 0.13  C 
ENDROOT
BRANCH 1 8
ATOM      8  CA  GLY E2013      -0.093 -15.502 -28.229  1.00 23.09 LIG 0.23  C 
BRANCH 8 9
ATOM      9  N   GLY E2013      -1.478 -15.783 -28.602  1.00 25.21 LIG-0.35  N 
ATOM     10  C   MET E2012      -2.189 -14.950 -29.361  1.00 26.98 LIG 0.24  C 
ATOM     11 O    MET E2012      -1.812 -13.807 -29.659  1.00 24.85 LIG-0.27  OA
ATOM     12 H    GLY E2013      -1.784 -16.523 -28.290  1.00 25.21 LIG 0.16  HD
BRANCH 10 13
ATOM     13  CA  MET E2012      -3.504 -15.505 -29.893  1.00 29.83 LIG 0.18  C 
BRANCH 13 14
ATOM     14  N   MET E2012      -3.637 -16.940 -29.637  1.00 30.84 LIG-0.35  N 
ATOM     15  C   VAL E2011      -3.260 -17.861 -30.514  1.00 36.49 LIG 0.26  C 
ATOM     16 O    VAL E2011      -2.839 -17.581 -31.646  1.00 38.00 LIG-0.27  OA
ATOM     17 H    MET E2012      -3.980 -17.128 -28.871  1.00 30.84 LIG 0.16  HD
BRANCH 15 18
ATOM     18  CA  VAL E2011      -3.394 -19.323 -30.044  1.00 39.95 LIG 0.40  C 
ATOM     19  N   VAL E2011      -2.592 -19.565 -28.800  1.00 39.42 LIG 0.61  N 
BRANCH 18 20
ATOM     20  CB  VAL E2011      -4.883 -19.749 -29.862  1.00 43.12 LIG 0.03  C 
ATOM     21  CG2 VAL E2011      -5.785 -18.927 -30.778  1.00 41.73 LIG 0.01  C 
ATOM     22  CG1 VAL E2011      -5.345 -19.645 -28.406  1.00 40.75 LIG 0.01  C 
ENDBRANCH 18 20
ENDBRANCH 15 18
ENDBRANCH 13 14
BRANCH 13 23
ATOM     23  CB  MET E2012      -4.645 -14.729 -29.204  1.00 32.11 LIG 0.04  C 
BRANCH 23 24
ATOM     24  CG  MET E2012      -5.384 -15.439 -28.064  1.00 37.34 LIG 0.08  C 
BRANCH 24 25
ATOM     25 SD   MET E2012      -5.793 -14.392 -26.653  1.00 39.45 LIG-0.17  SA
ATOM     26  CE  MET E2012      -6.274 -15.648 -25.456  1.00 39.28 LIG 0.09  C 
ENDBRANCH 24 25
ENDBRANCH 23 24
ENDBRANCH 13 23
ENDBRANCH 10 13
ENDBRANCH 8 9
ENDBRANCH 1 8
BRANCH 4 27
ATOM     27  C   PRO E2014       0.475 -11.557 -25.832  1.00 21.57 LIG 0.24  C 
ATOM     28 O    PRO E2014       0.353 -10.794 -24.829  1.00 21.05 LIG-0.27  OA
ATOM     29  N   TRP E2015       0.009 -11.245 -27.045  1.00 20.29 LIG-0.34  N 
ATOM     30 H    TRP E2015       0.004 -11.780 -27.718  1.00 20.29 LIG 0.16  HD
BRANCH 29 31
ATOM     31  CA  TRP E2015      -0.546  -9.913 -27.309  1.00 20.70 LIG 0.19  C 
BRANCH 31 32
ATOM     32  C   TRP E2015      -0.814  -9.650 -28.786  1.00 20.18 LIG 0.20  C 
ATOM     33 O    TRP E2015      -1.616  -8.806 -29.175  1.00 21.31 LIG-0.65  OA
ATOM     34 OXT  TRP E2015      -0.236 -10.327 -29.630  1.00 19.23 LIG-0.65  OA
ENDBRANCH 31 32
BRANCH 31 35
ATOM     35  CB  TRP E2015       0.406  -8.822 -26.796  1.00 21.64 LIG 0.08  C 
BRANCH 35 36
ATOM     36  CG  TRP E2015       1.335  -8.193 -27.832  1.00 22.27 LIG-0.03  A 
ATOM     37  CD2 TRP E2015       2.656  -8.646 -28.137  1.00 22.85 LIG-0.00  A 
ATOM     38  CE2 TRP E2015       3.167  -7.816 -29.165  1.00 23.44 LIG 0.04  A 
ATOM     39  CE3 TRP E2015       3.458  -9.695 -27.646  1.00 23.10 LIG 0.01  A 
ATOM     40  CZ2 TRP E2015       4.458  -7.992 -29.698  1.00 22.82 LIG 0.03  A 
ATOM     41  NE1 TRP E2015       2.201  -6.890 -29.472  1.00 23.03 LIG-0.36  N 
ATOM     42  CH2 TRP E2015       5.229  -9.007 -29.189  1.00 23.08 LIG 0.00  A 
ATOM     43  CZ3 TRP E2015       4.751  -9.861 -28.179  1.00 24.27 LIG 0.00  A 
ATOM     44 HE1  TRP E2015       2.276  -6.263 -30.056  1.00 23.03 LIG 0.17  HD
ATOM     45  CD1 TRP E2015       1.081  -7.131 -28.683  1.00 22.46 LIG 0.10  A 
ENDBRANCH 35 36
ENDBRANCH 31 35
ENDBRANCH 29 31
ENDBRANCH 4 27
TORSDOF 14
ENDMDL
MODEL 28
USER: ADFR SOLUTION from run 90
USER: SCORE 12.405803 LL:  -3.078 LR: -10.195 RR:   0.000 FEB:  -6.018
USER: RMSD 5.445527
USER: SEED 89
USER: STATUS no improvement in best in 24 clusters for 5 generations
USER: GENES 16
USER: genes 0 Translation |==|  0.53635 0.55740 0.69531
USER: genes 1 Rotation |==|  0.25335 0.27429 0.64854 0.84082
USER: genes 2 Torsion [N]-C--CA-[N] |==|  0.85246
USER: genes 3 Torsion [C]-CA--N-[C] |==|  0.87778
USER: genes 4 Torsion [N]-C--CA-[N] |==|  0.24004
USER: genes 5 Torsion [C]-CA--N-[C] |==|  0.69180
USER: genes 6 Torsion [N]-C--CA-[N] |==|  0.38060
USER: genes 7 Torsion [C]-CA--CB-[CG2] |==|  0.37028
USER: genes 8 Torsion [C]-CA--CB-[CG] |==|  0.63367
USER: genes 9 Torsion [CA]-CB--CG-[SD] |==|  0.55223
USER: genes 10 Torsion [CB]-CG--SD-[CE] |==|  0.15608
USER: genes 11 Torsion [N]-CA--C-[O] |==|  0.32347
USER: genes 12 Torsion [C]-N--CA-[C] |==|  0.45673
USER: genes 13 Torsion [N]-CA--C-[O] |==|  0.94688
USER: genes 14 Torsion [N]-CA--CB-[CG] |==|  0.31011
USER: genes 15 Torsion [CA]-CB--CG-[CD2] |==|  0.27159
ROOT
ATOM      1  C   GLY E2013       1.048 -14.549 -24.768  1.00 21.81 LIG 0.24  C 
ATOM      2 O    GLY E2013       0.458 -14.124 -23.762  1.00 22.84 LIG-0.27  OA
ATOM      3  N   PRO E2014       1.714 -13.749 -25.604  1.00 21.64 LIG-0.34  N 
ATOM      4  CA  PRO E2014       1.900 -12.311 -25.388  1.00 21.53 LIG 0.18  C 
ATOM      5  CB  PRO E2014       3.100 -11.991 -26.285  1.00 21.78 LIG 0.04  C 
ATOM      6  CG  PRO E2014       3.056 -13.010 -27.388  1.00 22.21 LIG 0.02  C 
ATOM      7  CD  PRO E2014       2.409 -14.243 -26.807  1.00 21.52 LIG 0.13  C 
ENDROOT
BRANCH 1 8
ATOM      8  CA  GLY E2013       1.056 -16.038 -25.091  1.00 23.09 LIG 0.23  C 
BRANCH 8 9
ATOM      9  N   GLY E2013       0.608 -16.216 -26.471  1.00 25.21 LIG-0.35  N 
ATOM     10  C   MET E2012      -0.438 -15.556 -26.965  1.00 26.98 LIG 0.24  C 
ATOM     11 O    MET E2012      -1.217 -14.889 -26.268  1.00 24.85 LIG-0.27  OA
ATOM     12 H    GLY E2013       1.077 -16.776 -26.924  1.00 25.21 LIG 0.16  HD
BRANCH 10 13
ATOM     13  CA  MET E2012      -0.608 -15.629 -28.478  1.00 29.83 LIG 0.18  C 
BRANCH 13 14
ATOM     14  N   MET E2012      -1.366 -16.813 -28.887  1.00 30.84 LIG-0.35  N 
ATOM     15  C   VAL E2011      -0.812 -17.824 -29.543  1.00 36.49 LIG 0.26  C 
ATOM     16 O    VAL E2011       0.366 -17.814 -29.928  1.00 38.00 LIG-0.27  OA
ATOM     17 H    MET E2012      -2.196 -16.791 -28.664  1.00 30.84 LIG 0.16  HD
BRANCH 15 18
ATOM     18  CA  VAL E2011      -1.738 -19.026 -29.819  1.00 39.95 LIG 0.40  C 
ATOM     19  N   VAL E2011      -1.558 -19.536 -31.217  1.00 39.42 LIG 0.61  N 
BRANCH 18 20
ATOM     20  CB  VAL E2011      -1.561 -20.160 -28.764  1.00 43.12 LIG 0.03  C 
ATOM     21  CG2 VAL E2011      -2.923 -20.646 -28.274  1.00 41.73 LIG 0.01  C 
ATOM     22  CG1 VAL E2011      -0.682 -19.729 -27.588  1.00 40.75 LIG 0.01  C 
ENDBRANCH 18 20
ENDBRANCH 15 18
ENDBRANCH 13 14
BRANCH 13 23
ATOM     23  CB  MET E2012      -1.338 -14.345 -28.923  1.00 32.11 LIG 0.04  C 
BRANCH 23 24
ATOM     24  CG  MET E2012      -2.534 -14.512 -29.867  1.00 37.34 LIG 0.08  C 
BRANCH 24 25
ATOM     25 SD   MET E2012      -3.010 -13.022 -30.765  1.00 39.45 LIG-0.17  SA
ATOM     26  CE  MET E2012      -1.451 -12.630 -31.575  1.00 39.28 LIG 0.09  C 
ENDBRANCH 24 25
ENDBRANCH 23 24
ENDBRANCH 13 23
ENDBRANCH 10 13
ENDBRANCH 8 9
ENDBRANCH 1 8
BRANCH 4 27
ATOM     27  C   PRO E2014       0.683 -11.456 -25.800  1.00 21.57 LIG 0.24  C 
ATOM     28 O    PRO E2014       0.038 -10.781 -24.944  1.00 21.05 LIG-0.27  OA
ATOM     29  N   TRP E2015       0.376 -11.465 -27.101  1.00 20.29 LIG-0.34  N 
ATOM     30 H    TRP E2015       0.743 -11.979 -27.685  1.00 20.29 LIG 0.16  HD
BRANCH 29 31
ATOM     31  CA  TRP E2015      -0.650 -10.560 -27.630  1.00 20.70 LIG 0.19  C 
BRANCH 31 32
ATOM     32  C   TRP E2015      -0.616 -10.425 -29.147  1.00 20.18 LIG 0.20  C 
ATOM     33 O    TRP E2015       0.367 -10.724 -29.819  1.00 21.31 LIG-0.65  OA
ATOM     34 OXT  TRP E2015      -1.593  -9.965 -29.730  1.00 19.23 LIG-0.65  OA
ENDBRANCH 31 32
BRANCH 31 35
ATOM     35  CB  TRP E2015      -0.495  -9.158 -27.023  1.00 21.64 LIG 0.08  C 
BRANCH 35 36
ATOM     36  CG  TRP E2015      -0.044  -8.054 -27.978  1.00 22.27 LIG-0.03  A 
ATOM     37  CD2 TRP E2015      -0.911  -7.122 -28.628  1.00 22.85 LIG-0.00  A 
ATOM     38  CE2 TRP E2015      -0.103  -6.252 -29.401  1.00 23.44 LIG 0.04  A 
ATOM     39  CE3 TRP E2015      -2.306  -6.927 -28.619  1.00 23.10 LIG 0.01  A 
ATOM     40  CZ2 TRP E2015      -0.650  -5.211 -30.176  1.00 22.82 LIG 0.03  A 
ATOM     41  NE1 TRP E2015       1.204  -6.639 -29.234  1.00 23.03 LIG-0.36  N 
ATOM     42  CH2 TRP E2015      -2.013  -5.054 -30.167  1.00 23.08 LIG 0.00  A 
ATOM     43  CZ3 TRP E2015      -2.846  -5.889 -29.402  1.00 24.27 LIG 0.00  A 
ATOM     44 HE1  TRP E2015       1.886  -6.276 -29.613  1.00 23.03 LIG 0.17  HD
ATOM     45  CD1 TRP E2015       1.245  -7.715 -28.353  1.00 22.46 LIG 0.10  A 
ENDBRANCH 35 36
ENDBRANCH 31 35
ENDBRANCH 29 31
ENDBRANCH 4 27
TORSDOF 14
ENDMDL
MODEL 29
USER: ADFR SOLUTION from run 177
USER: SCORE 13.807361 LL:  -3.900 LR: -10.185 RR:   0.000 FEB:  -6.008
USER: RMSD 6.980581
USER: SEED 176
USER: STATUS no improvement in best in 6 clusters for 5 generations
USER: GENES 16
USER: genes 0 Translation |==|  0.44618 0.53412 0.59600
USER: genes 1 Rotation |==|  0.25390 0.16892 0.35742 0.74391
USER: genes 2 Torsion [N]-C--CA-[N] |==|  0.57535
USER: genes 3 Torsion [C]-CA--N-[C] |==|  0.15755
USER: genes 4 Torsion [N]-C--CA-[N] |==|  0.45536
USER: genes 5 Torsion [C]-CA--N-[C] |==|  0.75841
USER: genes 6 Torsion [N]-C--CA-[N] |==|  0.51506
USER: genes 7 Torsion [C]-CA--CB-[CG2] |==|  0.26247
USER: genes 8 Torsion [C]-CA--CB-[CG] |==|  0.88179
USER: genes 9 Torsion [CA]-CB--CG-[SD] |==|  0.85125
USER: genes 10 Torsion [CB]-CG--SD-[CE] |==|  0.36115
USER: genes 11 Torsion [N]-CA--C-[O] |==|  0.54283
USER: genes 12 Torsion [C]-N--CA-[C] |==|  0.18982
USER: genes 13 Torsion [N]-CA--C-[O] |==|  0.52118
USER: genes 14 Torsion [N]-CA--CB-[CG] |==|  0.54625
USER: genes 15 Torsion [CA]-CB--CG-[CD2] |==|  0.25027
ROOT
ATOM      1  C   GLY E2013      -0.373 -15.143 -26.481  1.00 21.81 LIG 0.24  C 
ATOM      2 O    GLY E2013      -1.457 -14.572 -26.282  1.00 22.84 LIG-0.27  OA
ATOM      3  N   PRO E2014       0.742 -14.821 -25.821  1.00 21.64 LIG-0.34  N 
ATOM      4  CA  PRO E2014       0.798 -13.834 -24.738  1.00 21.53 LIG 0.18  C 
ATOM      5  CB  PRO E2014       2.095 -14.207 -24.012  1.00 21.78 LIG 0.04  C 
ATOM      6  CG  PRO E2014       2.966 -14.845 -25.056  1.00 22.21 LIG 0.02  C 
ATOM      7  CD  PRO E2014       2.037 -15.487 -26.056  1.00 21.52 LIG 0.13  C 
ENDROOT
BRANCH 1 8
ATOM      8  CA  GLY E2013      -0.267 -16.276 -27.495  1.00 23.09 LIG 0.23  C 
BRANCH 8 9
ATOM      9  N   GLY E2013      -1.285 -16.073 -28.524  1.00 25.21 LIG-0.35  N 
ATOM     10  C   MET E2012      -1.355 -14.951 -29.239  1.00 26.98 LIG 0.24  C 
ATOM     11 O    MET E2012      -0.698 -13.933 -28.978  1.00 24.85 LIG-0.27  OA
ATOM     12 H    GLY E2013      -1.824 -16.736 -28.621  1.00 25.21 LIG 0.16  HD
BRANCH 10 13
ATOM     13  CA  MET E2012      -2.277 -15.000 -30.451  1.00 29.83 LIG 0.18  C 
BRANCH 13 14
ATOM     14  N   MET E2012      -2.592 -13.661 -30.952  1.00 30.84 LIG-0.35  N 
ATOM     15  C   VAL E2011      -3.601 -12.940 -30.481  1.00 36.49 LIG 0.26  C 
ATOM     16 O    VAL E2011      -4.400 -13.371 -29.637  1.00 38.00 LIG-0.27  OA
ATOM     17 H    MET E2012      -2.066 -13.388 -31.576  1.00 30.84 LIG 0.16  HD
BRANCH 15 18
ATOM     18  CA  VAL E2011      -3.735 -11.519 -31.065  1.00 39.95 LIG 0.40  C 
ATOM     19  N   VAL E2011      -4.820 -10.751 -30.373  1.00 39.42 LIG 0.61  N 
BRANCH 18 20
ATOM     20  CB  VAL E2011      -2.381 -10.746 -31.049  1.00 43.12 LIG 0.03  C 
ATOM     21  CG2 VAL E2011      -1.666 -10.900 -32.388  1.00 41.73 LIG 0.01  C 
ATOM     22  CG1 VAL E2011      -1.475 -11.183 -29.895  1.00 40.75 LIG 0.01  C 
ENDBRANCH 18 20
ENDBRANCH 15 18
ENDBRANCH 13 14
BRANCH 13 23
ATOM     23  CB  MET E2012      -1.564 -15.827 -31.540  1.00 32.11 LIG 0.04  C 
BRANCH 23 24
ATOM     24  CG  MET E2012      -0.067 -15.568 -31.746  1.00 37.34 LIG 0.08  C 
BRANCH 24 25
ATOM     25 SD   MET E2012       0.376 -13.843 -32.033  1.00 39.45 LIG-0.17  SA
ATOM     26  CE  MET E2012       1.702 -13.653 -30.831  1.00 39.28 LIG 0.09  C 
ENDBRANCH 24 25
ENDBRANCH 23 24
ENDBRANCH 13 23
ENDBRANCH 10 13
ENDBRANCH 8 9
ENDBRANCH 1 8
BRANCH 4 27
ATOM     27  C   PRO E2014       0.863 -12.373 -25.229  1.00 21.57 LIG 0.24  C 
ATOM     28 O    PRO E2014       1.202 -11.435 -24.449  1.00 21.05 LIG-0.27  OA
ATOM     29  N   TRP E2015       0.558 -12.175 -26.516  1.00 20.29 LIG-0.34  N 
ATOM     30 H    TRP E2015       0.244 -12.780 -27.041  1.00 20.29 LIG 0.16  HD
BRANCH 29 31
ATOM     31  CA  TRP E2015       0.750 -10.859 -27.133  1.00 20.70 LIG 0.19  C 
BRANCH 31 32
ATOM     32  C   TRP E2015       2.214 -10.463 -27.277  1.00 20.18 LIG 0.20  C 
ATOM     33 O    TRP E2015       2.567  -9.346 -27.644  1.00 21.31 LIG-0.65  OA
ATOM     34 OXT  TRP E2015       3.085 -11.298 -27.055  1.00 19.23 LIG-0.65  OA
ENDBRANCH 31 32
BRANCH 31 35
ATOM     35  CB  TRP E2015       0.042  -9.772 -26.311  1.00 21.64 LIG 0.08  C 
BRANCH 35 36
ATOM     36  CG  TRP E2015      -0.187  -8.434 -27.012  1.00 22.27 LIG-0.03  A 
ATOM     37  CD2 TRP E2015      -1.346  -8.093 -27.777  1.00 22.85 LIG-0.00  A 
ATOM     38  CE2 TRP E2015      -1.182  -6.762 -28.233  1.00 23.44 LIG 0.04  A 
ATOM     39  CE3 TRP E2015      -2.526  -8.786 -28.110  1.00 23.10 LIG 0.01  A 
ATOM     40  CZ2 TRP E2015      -2.150  -6.115 -29.024  1.00 22.82 LIG 0.03  A 
ATOM     41  NE1 TRP E2015       0.030  -6.309 -27.771  1.00 23.03 LIG-0.36  N 
ATOM     42  CH2 TRP E2015      -3.282  -6.818 -29.354  1.00 23.08 LIG 0.00  A 
ATOM     43  CZ3 TRP E2015      -3.487  -8.135 -28.908  1.00 24.27 LIG 0.00  A 
ATOM     44 HE1  TRP E2015       0.367  -5.533 -27.926  1.00 23.03 LIG 0.17  HD
ATOM     45  CD1 TRP E2015       0.623  -7.312 -27.010  1.00 22.46 LIG 0.10  A 
ENDBRANCH 35 36
ENDBRANCH 31 35
ENDBRANCH 29 31
ENDBRANCH 4 27
TORSDOF 14
ENDMDL
