MODEL 1
USER: ADFR SOLUTION from run 11
USER: SCORE 20.535586 LL:  -4.040 LR: -17.295 RR:   0.000 FEB: -10.136
USER: RMSD 10.396205
USER: SEED 234552
USER: STATUS no improvement in best in 4 clusters for 5 generations
USER: GENES 26
USER: genes 0 Translation |==|  0.58754 0.65477 0.51133
USER: genes 1 Rotation |==|  0.94685 0.66750 0.42900 0.63124
USER: genes 2 Torsion [C]-CA--N-[C] |==|  0.82802
USER: genes 3 Torsion [N]-C--CA-[N] |==|  0.10368
USER: genes 4 Torsion [C]-CA--CB-[CG] |==|  0.89350
USER: genes 5 Torsion [CA]-CB--CG-[CD2] |==|  0.35276
USER: genes 6 Torsion [CE2]-CZ--OH-[HH] |==|  0.97336
USER: genes 7 Torsion [C]-CA--N-[C] |==|  0.63041
USER: genes 8 Torsion [N]-C--CA-[N] |==|  0.98603
USER: genes 9 Torsion [C]-CA--CB-[CG] |==|  0.86248
USER: genes 10 Torsion [CA]-CB--CG-[OD1] |==|  0.91466
USER: genes 11 Torsion [C]-CA--N-[H1] |==|  0.88624
USER: genes 12 Torsion [N]-CA--CB-[CG] |==|  0.85872
USER: genes 13 Torsion [CA]-CB--CG-[CD] |==|  0.72825
USER: genes 14 Torsion [CB]-CG--CD-[OE1] |==|  0.96852
USER: genes 15 Torsion [N]-CA--C-[N] |==|  0.38398
USER: genes 16 Torsion [C]-N--CA-[C] |==|  0.65000
USER: genes 17 Torsion [N]-CA--CB-[CG] |==|  0.31026
USER: genes 18 Torsion [CA]-CB--CG-[CD] |==|  0.58586
USER: genes 19 Torsion [CB]-CG--CD-[NE] |==|  0.52290
USER: genes 20 Torsion [CG]-CD--NE-[CZ] |==|  0.59708
USER: genes 21 Torsion [N]-CA--C-[N] |==|  0.89912
USER: genes 22 Torsion [C]-N--CA-[CB] |==|  0.23881
USER: genes 23 Torsion [N]-CA--CB-[CG] |==|  0.47620
USER: genes 24 Torsion [CA]-CB--CG-[CD1] |==|  0.37423
USER: genes 25 Torsion [N]-CA--C-[O] |==|  0.77944
ROOT
ATOM      1  CA  GLN B   3     -12.134  -2.165   6.398  1.00 33.56 LIG 0.18  C 
ENDROOT
BRANCH 1 2
ATOM      2  N   GLN B   3     -12.811  -1.613   7.546  1.00 33.33 LIG-0.35  N 
ATOM      3  C   TYR B   2     -14.137  -1.517   7.599  1.00 35.73 LIG 0.24  C 
ATOM      4 O    TYR B   2     -14.857  -1.713   6.616  1.00 36.38 LIG-0.27  OA
ATOM      5 H    GLN B   3     -12.287  -1.357   8.178  1.00 33.33 LIG 0.16  HD
BRANCH 3 6
ATOM      6  CA  TYR B   2     -14.773  -1.139   8.935  1.00 35.98 LIG 0.18  C 
BRANCH 6 7
ATOM      7  CB  TYR B   2     -16.177  -0.529   8.746  1.00 34.22 LIG 0.07  C 
BRANCH 7 8
ATOM      8  CG  TYR B   2     -16.229   0.355   7.541  1.00 30.67 LIG-0.06  A 
ATOM      9  CD2 TYR B   2     -17.201   0.186   6.537  1.00 29.09 LIG 0.01  A 
ATOM     10  CE2 TYR B   2     -17.182   1.010   5.364  1.00 27.51 LIG 0.04  A 
ATOM     11  CZ  TYR B   2     -16.217   1.964   5.275  1.00 25.86 LIG 0.07  A 
ATOM     12  CE1 TYR B   2     -15.269   2.154   6.298  1.00 26.16 LIG 0.04  A 
ATOM     13  CD1 TYR B   2     -15.282   1.360   7.388  1.00 21.15 LIG 0.01  A 
BRANCH 11 14
ATOM     14 OH   TYR B   2     -16.158   2.835   4.222  1.00 29.83 LIG-0.36  OA
ATOM     15 HH   TYR B   2     -16.700   2.593   3.627  1.00 29.83 LIG 0.22  HD
ENDBRANCH 11 14
ENDBRANCH 7 8
ENDBRANCH 6 7
BRANCH 6 16
ATOM     16  N   TYR B   2     -13.905  -0.154   9.586  1.00 39.83 LIG-0.35  N 
ATOM     17  C   ASP B   1     -13.564  -0.264  10.865  1.00 42.84 LIG 0.25  C 
ATOM     18 O    ASP B   1     -14.063  -1.126  11.614  1.00 42.82 LIG-0.27  OA
ATOM     19 H    TYR B   2     -13.645   0.486   9.073  1.00 39.83 LIG 0.16  HD
BRANCH 17 20
ATOM     20  CA  ASP B   1     -12.553   0.794  11.387  1.00 44.92 LIG 0.28  C 
BRANCH 20 21
ATOM     21  CB  ASP B   1     -13.228   1.611  12.491  1.00 46.02 LIG 0.15  C 
BRANCH 21 22
ATOM     22  CG  ASP B   1     -14.604   2.126  12.073  1.00 51.60 LIG 0.17  C 
ATOM     23 OD1  ASP B   1     -14.844   2.397  10.843  1.00 55.22 LIG-0.65  OA
ATOM     24 OD2  ASP B   1     -15.453   2.239  12.996  1.00 56.25 LIG-0.65  OA
ENDBRANCH 21 22
ENDBRANCH 20 21
BRANCH 20 25
ATOM     25  N   ASP B   1     -12.034   1.710  10.289  1.00 44.71 LIG-0.07  N 
ATOM     26 H1   ASP B   1     -11.875   1.233   9.555  1.00 44.71 LIG 0.28  HD
ATOM     27 H2   ASP B   1     -12.643   2.334  10.111  1.00 44.71 LIG 0.28  HD
ATOM     28 H3   ASP B   1     -11.281   2.099  10.558  1.00 44.71 LIG 0.28  HD
ENDBRANCH 20 25
ENDBRANCH 17 20
ENDBRANCH 6 16
ENDBRANCH 3 6
ENDBRANCH 1 2
BRANCH 1 29
ATOM     29  CB  GLN B   3     -10.623  -2.115   6.588  1.00 34.45 LIG 0.04  C 
BRANCH 29 30
ATOM     30  CG  GLN B   3     -10.047  -0.751   7.003  1.00 38.50 LIG 0.10  C 
BRANCH 30 31
ATOM     31  CD  GLN B   3      -9.475   0.077   5.826  1.00 47.01 LIG 0.21  C 
ATOM     32  NE2 GLN B   3      -9.201   1.384   6.061  1.00 44.49 LIG-0.37  N 
ATOM     33 21HE GLN B   3      -9.325   1.715   6.845  1.00 44.49 LIG 0.16  HD
ATOM     34 22HE GLN B   3      -8.903   1.881   5.427  1.00 44.49 LIG 0.16  HD
ATOM     35 OE1  GLN B   3      -9.313  -0.456   4.707  1.00 47.46 LIG-0.27  OA
ENDBRANCH 30 31
ENDBRANCH 29 30
ENDBRANCH 1 29
BRANCH 1 36
ATOM     36  C   GLN B   3     -12.599  -3.627   6.264  1.00 32.58 LIG 0.24  C 
ATOM     37 O    GLN B   3     -12.686  -4.335   7.274  1.00 27.04 LIG-0.27  OA
ATOM     38  N   ARG B   4     -12.863  -4.064   5.021  1.00 32.15 LIG-0.35  N 
ATOM     39 H    ARG B   4     -12.769  -3.583   4.314  1.00 32.15 LIG 0.16  HD
BRANCH 38 40
ATOM     40  CA  ARG B   4     -13.350  -5.444   4.760  1.00 32.56 LIG 0.18  C 
BRANCH 40 41
ATOM     41  CB  ARG B   4     -14.861  -5.409   4.342  1.00 33.81 LIG 0.04  C 
BRANCH 41 42
ATOM     42  CG  ARG B   4     -15.154  -5.790   2.894  1.00 39.16 LIG 0.02  C 
BRANCH 42 43
ATOM     43  CD  ARG B   4     -16.409  -5.047   2.325  1.00 48.45 LIG 0.14  C 
BRANCH 43 44
ATOM     44  NE  ARG B   4     -16.771  -5.586   1.004  1.00 55.69 LIG-0.23  N 
ATOM     45  CZ  ARG B   4     -17.274  -4.856  -0.009  1.00 58.57 LIG 0.67  C 
ATOM     46  NH1 ARG B   4     -17.582  -5.432  -1.172  1.00 57.02 LIG-0.23  N 
ATOM     47  NH2 ARG B   4     -17.455  -3.540   0.131  1.00 58.84 LIG-0.23  N 
ATOM     48 2HH1 ARG B   4     -17.903  -4.959  -1.814  1.00 57.02 LIG 0.17  HD
ATOM     49 1HH1 ARG B   4     -17.460  -6.277  -1.279  1.00 57.02 LIG 0.17  HD
ATOM     50 2HH2 ARG B   4     -17.776  -3.079  -0.520  1.00 58.84 LIG 0.17  HD
ATOM     51 1HH2 ARG B   4     -17.249  -3.154   0.871  1.00 58.84 LIG 0.17  HD
ATOM     52 HE   ARG B   4     -16.653  -6.427   0.869  1.00 55.69 LIG 0.18  HD
ENDBRANCH 43 44
ENDBRANCH 42 43
ENDBRANCH 41 42
ENDBRANCH 40 41
BRANCH 40 53
ATOM     53  C   ARG B   4     -12.484  -6.207   3.732  1.00 31.57 LIG 0.24  C 
ATOM     54  N   LEU B   5     -11.987  -5.501   2.728  1.00 29.97 LIG-0.34  N 
ATOM     55 H    LEU B   5     -12.188  -4.682   2.557  1.00 29.97 LIG 0.16  HD
ATOM     56 O    ARG B   4     -12.239  -7.403   3.861  1.00 31.05 LIG-0.27  OA
BRANCH 54 57
ATOM     57  CA  LEU B   5     -11.029  -6.104   1.817  1.00 29.37 LIG 0.18  C 
BRANCH 57 58
ATOM     58  CB  LEU B   5     -11.766  -6.845   0.703  1.00 29.49 LIG 0.04  C 
BRANCH 58 59
ATOM     59  CG  LEU B   5     -10.853  -7.360  -0.456  1.00 26.43 LIG-0.02  C 
ATOM     60  CD1 LEU B   5     -11.201  -8.879  -0.874  1.00 22.49 LIG 0.01  C 
ATOM     61  CD2 LEU B   5     -10.774  -6.342  -1.659  1.00 25.84 LIG 0.01  C 
ENDBRANCH 58 59
ENDBRANCH 57 58
BRANCH 57 62
ATOM     62  C   LEU B   5     -10.070  -5.007   1.276  1.00 31.79 LIG 0.20  C 
ATOM     63 O    LEU B   5     -10.404  -4.225   0.347  1.00 32.21 LIG-0.65  OA
ATOM     64 OXT  LEU B   5      -8.937  -4.913   1.764  1.00 32.71 LIG-0.65  OA
ENDBRANCH 57 62
ENDBRANCH 54 57
ENDBRANCH 40 53
ENDBRANCH 38 40
ENDBRANCH 1 36
TORSDOF 24
ENDMDL
MODEL 2
USER: ADFR SOLUTION from run 173
USER: SCORE 19.101398 LL:  -4.640 LR: -16.706 RR:   0.000 FEB:  -9.547
USER: RMSD 11.835612
USER: SEED 172
USER: STATUS no improvement in best in 11 clusters for 5 generations
USER: GENES 26
USER: genes 0 Translation |==|  0.51770 0.77997 0.54702
USER: genes 1 Rotation |==|  0.54482 0.96719 0.52684 0.67031
USER: genes 2 Torsion [C]-CA--N-[C] |==|  0.20208
USER: genes 3 Torsion [N]-C--CA-[N] |==|  0.48881
USER: genes 4 Torsion [C]-CA--CB-[CG] |==|  0.30906
USER: genes 5 Torsion [CA]-CB--CG-[CD2] |==|  0.89339
USER: genes 6 Torsion [CE2]-CZ--OH-[HH] |==|  0.99720
USER: genes 7 Torsion [C]-CA--N-[C] |==|  0.18410
USER: genes 8 Torsion [N]-C--CA-[N] |==|  0.52414
USER: genes 9 Torsion [C]-CA--CB-[CG] |==|  0.82941
USER: genes 10 Torsion [CA]-CB--CG-[OD1] |==|  0.74890
USER: genes 11 Torsion [C]-CA--N-[H1] |==|  0.10537
USER: genes 12 Torsion [N]-CA--CB-[CG] |==|  0.68938
USER: genes 13 Torsion [CA]-CB--CG-[CD] |==|  0.21983
USER: genes 14 Torsion [CB]-CG--CD-[OE1] |==|  0.02665
USER: genes 15 Torsion [N]-CA--C-[N] |==|  0.31056
USER: genes 16 Torsion [C]-N--CA-[C] |==|  0.53429
USER: genes 17 Torsion [N]-CA--CB-[CG] |==|  0.51766
USER: genes 18 Torsion [CA]-CB--CG-[CD] |==|  0.16121
USER: genes 19 Torsion [CB]-CG--CD-[NE] |==|  0.14928
USER: genes 20 Torsion [CG]-CD--NE-[CZ] |==|  0.28176
USER: genes 21 Torsion [N]-CA--C-[N] |==|  0.45885
USER: genes 22 Torsion [C]-N--CA-[CB] |==|  0.32510
USER: genes 23 Torsion [N]-CA--CB-[CG] |==|  0.59557
USER: genes 24 Torsion [CA]-CB--CG-[CD1] |==|  0.51117
USER: genes 25 Torsion [N]-CA--C-[O] |==|  0.24873
ROOT
ATOM      1  CA  GLN B   3     -13.443   0.464   7.255  1.00 33.56 LIG 0.18  C 
ENDROOT
BRANCH 1 2
ATOM      2  N   GLN B   3     -13.742  -0.097   8.550  1.00 33.33 LIG-0.35  N 
ATOM      3  C   TYR B   2     -13.822   0.660   9.641  1.00 35.73 LIG 0.24  C 
ATOM      4 O    TYR B   2     -13.466   1.842   9.657  1.00 36.38 LIG-0.27  OA
ATOM      5 H    GLN B   3     -13.860  -0.949   8.548  1.00 33.33 LIG 0.16  HD
BRANCH 3 6
ATOM      6  CA  TYR B   2     -14.366   0.020  10.916  1.00 35.98 LIG 0.18  C 
BRANCH 6 7
ATOM      7  CB  TYR B   2     -15.840  -0.408  10.755  1.00 34.22 LIG 0.07  C 
BRANCH 7 8
ATOM      8  CG  TYR B   2     -15.978  -1.896  10.753  1.00 30.67 LIG-0.06  A 
ATOM      9  CD2 TYR B   2     -15.037  -2.728  10.118  1.00 29.09 LIG 0.01  A 
ATOM     10  CE2 TYR B   2     -15.235  -4.148  10.079  1.00 27.51 LIG 0.04  A 
ATOM     11  CZ  TYR B   2     -16.338  -4.652  10.694  1.00 25.86 LIG 0.07  A 
ATOM     12  CE1 TYR B   2     -17.258  -3.819  11.358  1.00 26.16 LIG 0.04  A 
ATOM     13  CD1 TYR B   2     -17.075  -2.483  11.372  1.00 21.15 LIG 0.01  A 
BRANCH 11 14
ATOM     14 OH   TYR B   2     -16.577  -5.997  10.760  1.00 29.83 LIG-0.36  OA
ATOM     15 HH   TYR B   2     -15.963  -6.410  10.364  1.00 29.83 LIG 0.22  HD
ENDBRANCH 11 14
ENDBRANCH 7 8
ENDBRANCH 6 7
BRANCH 6 16
ATOM     16  N   TYR B   2     -14.268   1.008  11.995  1.00 39.83 LIG-0.35  N 
ATOM     17  C   ASP B   1     -14.990   2.124  11.984  1.00 42.84 LIG 0.25  C 
ATOM     18 O    ASP B   1     -15.684   2.457  11.004  1.00 42.82 LIG-0.27  OA
ATOM     19 H    TYR B   2     -13.713   0.801  12.618  1.00 39.83 LIG 0.16  HD
BRANCH 17 20
ATOM     20  CA  ASP B   1     -14.861   3.022  13.245  1.00 44.92 LIG 0.28  C 
BRANCH 20 21
ATOM     21  CB  ASP B   1     -15.028   2.145  14.488  1.00 46.02 LIG 0.15  C 
BRANCH 21 22
ATOM     22  CG  ASP B   1     -16.400   1.474  14.544  1.00 51.60 LIG 0.17  C 
ATOM     23 OD1  ASP B   1     -17.378   2.056  15.133  1.00 55.22 LIG-0.65  OA
ATOM     24 OD2  ASP B   1     -16.489   0.356  13.970  1.00 56.25 LIG-0.65  OA
ENDBRANCH 21 22
ENDBRANCH 20 21
BRANCH 20 25
ATOM     25  N   ASP B   1     -15.863   4.166  13.263  1.00 44.71 LIG-0.07  N 
ATOM     26 H1   ASP B   1     -16.640   3.885  12.935  1.00 44.71 LIG 0.28  HD
ATOM     27 H2   ASP B   1     -15.978   4.447  14.099  1.00 44.71 LIG 0.28  HD
ATOM     28 H3   ASP B   1     -15.556   4.837  12.765  1.00 44.71 LIG 0.28  HD
ENDBRANCH 20 25
ENDBRANCH 17 20
ENDBRANCH 6 16
ENDBRANCH 3 6
ENDBRANCH 1 2
BRANCH 1 29
ATOM     29  CB  GLN B   3     -14.293   1.702   6.994  1.00 34.45 LIG 0.04  C 
BRANCH 29 30
ATOM     30  CG  GLN B   3     -15.354   1.562   5.889  1.00 38.50 LIG 0.10  C 
BRANCH 30 31
ATOM     31  CD  GLN B   3     -16.636   0.816   6.336  1.00 47.01 LIG 0.21  C 
ATOM     32  NE2 GLN B   3     -17.543   0.510   5.376  1.00 44.49 LIG-0.37  N 
ATOM     33 21HE GLN B   3     -17.384   0.710   4.555  1.00 44.49 LIG 0.16  HD
ATOM     34 22HE GLN B   3     -18.277   0.117   5.588  1.00 44.49 LIG 0.16  HD
ATOM     35 OE1  GLN B   3     -16.816   0.549   7.544  1.00 47.46 LIG-0.27  OA
ENDBRANCH 30 31
ENDBRANCH 29 30
ENDBRANCH 1 29
BRANCH 1 36
ATOM     36  C   GLN B   3     -11.951   0.845   7.265  1.00 32.58 LIG 0.24  C 
ATOM     37 O    GLN B   3     -11.566   1.788   7.965  1.00 27.04 LIG-0.27  OA
ATOM     38  N   ARG B   4     -11.140   0.126   6.470  1.00 32.15 LIG-0.35  N 
ATOM     39 H    ARG B   4     -11.412  -0.508   5.956  1.00 32.15 LIG 0.16  HD
BRANCH 38 40
ATOM     40  CA  ARG B   4      -9.675   0.372   6.414  1.00 32.56 LIG 0.18  C 
BRANCH 40 41
ATOM     41  CB  ARG B   4      -9.016  -0.000   7.787  1.00 33.81 LIG 0.04  C 
BRANCH 41 42
ATOM     42  CG  ARG B   4      -7.537   0.344   7.925  1.00 39.16 LIG 0.02  C 
BRANCH 42 43
ATOM     43  CD  ARG B   4      -7.256   1.868   7.710  1.00 48.45 LIG 0.14  C 
BRANCH 43 44
ATOM     44  NE  ARG B   4      -8.103   2.679   8.602  1.00 55.69 LIG-0.23  N 
ATOM     45  CZ  ARG B   4      -7.683   3.248   9.747  1.00 58.57 LIG 0.67  C 
ATOM     46  NH1 ARG B   4      -8.525   3.960  10.498  1.00 57.02 LIG-0.23  N 
ATOM     47  NH2 ARG B   4      -6.412   3.124  10.138  1.00 58.84 LIG-0.23  N 
ATOM     48 2HH1 ARG B   4      -8.250   4.321  11.228  1.00 57.02 LIG 0.17  HD
ATOM     49 1HH1 ARG B   4      -9.344   4.058  10.252  1.00 57.02 LIG 0.17  HD
ATOM     50 2HH2 ARG B   4      -6.150   3.490  10.870  1.00 58.84 LIG 0.17  HD
ATOM     51 1HH2 ARG B   4      -5.857   2.677   9.657  1.00 58.84 LIG 0.17  HD
ATOM     52 HE   ARG B   4      -8.924   2.796   8.375  1.00 55.69 LIG 0.18  HD
ENDBRANCH 43 44
ENDBRANCH 42 43
ENDBRANCH 41 42
ENDBRANCH 40 41
BRANCH 40 53
ATOM     53  C   ARG B   4      -8.987  -0.346   5.231  1.00 31.57 LIG 0.24  C 
ATOM     54  N   LEU B   5      -7.761   0.048   4.922  1.00 29.97 LIG-0.34  N 
ATOM     55 H    LEU B   5      -7.364   0.729   5.265  1.00 29.97 LIG 0.16  HD
ATOM     56 O    ARG B   4      -9.538  -1.263   4.629  1.00 31.05 LIG-0.27  OA
BRANCH 54 57
ATOM     57  CA  LEU B   5      -6.985  -0.687   3.938  1.00 29.37 LIG 0.18  C 
BRANCH 57 58
ATOM     58  CB  LEU B   5      -6.683   0.210   2.739  1.00 29.49 LIG 0.04  C 
BRANCH 58 59
ATOM     59  CG  LEU B   5      -6.650  -0.528   1.361  1.00 26.43 LIG-0.02  C 
ATOM     60  CD1 LEU B   5      -6.225   0.457   0.156  1.00 22.49 LIG 0.01  C 
ATOM     61  CD2 LEU B   5      -5.849  -1.886   1.422  1.00 25.84 LIG 0.01  C 
ENDBRANCH 58 59
ENDBRANCH 57 58
BRANCH 57 62
ATOM     62  C   LEU B   5      -5.698  -1.245   4.607  1.00 31.79 LIG 0.20  C 
ATOM     63 O    LEU B   5      -5.668  -2.377   5.160  1.00 32.21 LIG-0.65  OA
ATOM     64 OXT  LEU B   5      -4.677  -0.546   4.610  1.00 32.71 LIG-0.65  OA
ENDBRANCH 57 62
ENDBRANCH 54 57
ENDBRANCH 40 53
ENDBRANCH 38 40
ENDBRANCH 1 36
TORSDOF 24
ENDMDL
MODEL 3
USER: ADFR SOLUTION from run 1
USER: SCORE 21.125818 LL:  -4.993 LR: -16.388 RR:   0.000 FEB:  -9.228
USER: RMSD 2.391689
USER: SEED 989245
USER: STATUS 1 or 2 clusters left
USER: GENES 26
USER: genes 0 Translation |==|  0.58136 0.53117 0.49232
USER: genes 1 Rotation |==|  0.49830 0.46304 0.45889 0.99693
USER: genes 2 Torsion [C]-CA--N-[C] |==|  0.78648
USER: genes 3 Torsion [N]-C--CA-[N] |==|  0.26861
USER: genes 4 Torsion [C]-CA--CB-[CG] |==|  0.42063
USER: genes 5 Torsion [CA]-CB--CG-[CD2] |==|  0.34484
USER: genes 6 Torsion [CE2]-CZ--OH-[HH] |==|  0.67197
USER: genes 7 Torsion [C]-CA--N-[C] |==|  0.74484
USER: genes 8 Torsion [N]-C--CA-[N] |==|  0.09800
USER: genes 9 Torsion [C]-CA--CB-[CG] |==|  0.56222
USER: genes 10 Torsion [CA]-CB--CG-[OD1] |==|  0.40678
USER: genes 11 Torsion [C]-CA--N-[H1] |==|  0.79165
USER: genes 12 Torsion [N]-CA--CB-[CG] |==|  0.08772
USER: genes 13 Torsion [CA]-CB--CG-[CD] |==|  0.71661
USER: genes 14 Torsion [CB]-CG--CD-[OE1] |==|  0.75463
USER: genes 15 Torsion [N]-CA--C-[N] |==|  0.42234
USER: genes 16 Torsion [C]-N--CA-[C] |==|  0.83975
USER: genes 17 Torsion [N]-CA--CB-[CG] |==|  0.66388
USER: genes 18 Torsion [CA]-CB--CG-[CD] |==|  0.87473
USER: genes 19 Torsion [CB]-CG--CD-[NE] |==|  0.48207
USER: genes 20 Torsion [CG]-CD--NE-[CZ] |==|  0.41802
USER: genes 21 Torsion [N]-CA--C-[N] |==|  0.38889
USER: genes 22 Torsion [C]-N--CA-[CB] |==|  0.36536
USER: genes 23 Torsion [N]-CA--CB-[CG] |==|  0.68790
USER: genes 24 Torsion [CA]-CB--CG-[CD1] |==|  0.03450
USER: genes 25 Torsion [N]-CA--C-[O] |==|  0.45341
ROOT
ATOM      1  CA  GLN B   3     -12.249  -4.761   5.942  1.00 33.56 LIG 0.18  C 
ENDROOT
BRANCH 1 2
ATOM      2  N   GLN B   3     -12.821  -5.043   4.647  1.00 33.33 LIG-0.35  N 
ATOM      3  C   TYR B   2     -13.701  -6.023   4.467  1.00 35.73 LIG 0.24  C 
ATOM      4 O    TYR B   2     -13.944  -6.866   5.337  1.00 36.38 LIG-0.27  OA
ATOM      5 H    GLN B   3     -12.542  -4.527   4.017  1.00 33.33 LIG 0.16  HD
BRANCH 3 6
ATOM      6  CA  TYR B   2     -14.422  -6.100   3.123  1.00 35.98 LIG 0.18  C 
BRANCH 6 7
ATOM      7  CB  TYR B   2     -15.887  -6.554   3.286  1.00 34.22 LIG 0.07  C 
BRANCH 7 8
ATOM      8  CG  TYR B   2     -16.753  -6.002   2.199  1.00 30.67 LIG-0.06  A 
ATOM      9  CD2 TYR B   2     -17.529  -6.836   1.373  1.00 29.09 LIG 0.01  A 
ATOM     10  CE2 TYR B   2     -18.297  -6.278   0.298  1.00 27.51 LIG 0.04  A 
ATOM     11  CZ  TYR B   2     -18.266  -4.929   0.130  1.00 25.86 LIG 0.07  A 
ATOM     12  CE1 TYR B   2     -17.517  -4.096   0.981  1.00 26.16 LIG 0.04  A 
ATOM     13  CD1 TYR B   2     -16.781  -4.631   1.976  1.00 21.15 LIG 0.01  A 
BRANCH 11 14
ATOM     14 OH   TYR B   2     -19.015  -4.304  -0.829  1.00 29.83 LIG-0.36  OA
ATOM     15 HH   TYR B   2     -18.506  -3.915  -1.373  1.00 29.83 LIG 0.22  HD
ENDBRANCH 11 14
ENDBRANCH 7 8
ENDBRANCH 6 7
BRANCH 6 16
ATOM     16  N   TYR B   2     -13.710  -7.067   2.283  1.00 39.83 LIG-0.35  N 
ATOM     17  C   ASP B   1     -12.739  -6.691   1.458  1.00 42.84 LIG 0.25  C 
ATOM     18 O    ASP B   1     -12.470  -5.492   1.252  1.00 42.82 LIG-0.27  OA
ATOM     19 H    TYR B   2     -13.975  -7.881   2.374  1.00 39.83 LIG 0.16  HD
BRANCH 17 20
ATOM     20  CA  ASP B   1     -12.003  -7.840   0.714  1.00 44.92 LIG 0.28  C 
BRANCH 20 21
ATOM     21  CB  ASP B   1     -11.344  -7.263  -0.541  1.00 46.02 LIG 0.15  C 
BRANCH 21 22
ATOM     22  CG  ASP B   1     -11.077  -8.333  -1.600  1.00 51.60 LIG 0.17  C 
ATOM     23 OD1  ASP B   1     -11.153  -8.040  -2.845  1.00 55.22 LIG-0.65  OA
ATOM     24 OD2  ASP B   1     -10.772  -9.474  -1.163  1.00 56.25 LIG-0.65  OA
ENDBRANCH 21 22
ENDBRANCH 20 21
BRANCH 20 25
ATOM     25  N   ASP B   1     -12.924  -8.994   0.349  1.00 44.71 LIG-0.07  N 
ATOM     26 H1   ASP B   1     -13.107  -9.470   1.078  1.00 44.71 LIG 0.28  HD
ATOM     27 H2   ASP B   1     -13.681  -8.673   0.006  1.00 44.71 LIG 0.28  HD
ATOM     28 H3   ASP B   1     -12.525  -9.514  -0.252  1.00 44.71 LIG 0.28  HD
ENDBRANCH 20 25
ENDBRANCH 17 20
ENDBRANCH 6 16
ENDBRANCH 3 6
ENDBRANCH 1 2
BRANCH 1 29
ATOM     29  CB  GLN B   3     -11.003  -3.895   5.804  1.00 34.45 LIG 0.04  C 
BRANCH 29 30
ATOM     30  CG  GLN B   3     -11.000  -2.913   4.621  1.00 38.50 LIG 0.10  C 
BRANCH 30 31
ATOM     31  CD  GLN B   3     -10.150  -3.380   3.414  1.00 47.01 LIG 0.21  C 
ATOM     32  NE2 GLN B   3     -10.772  -4.123   2.466  1.00 44.49 LIG-0.37  N 
ATOM     33 21HE GLN B   3     -11.611  -4.298   2.539  1.00 44.49 LIG 0.16  HD
ATOM     34 22HE GLN B   3     -10.328  -4.420   1.793  1.00 44.49 LIG 0.16  HD
ATOM     35 OE1  GLN B   3      -8.933  -3.096   3.359  1.00 47.46 LIG-0.27  OA
ENDBRANCH 30 31
ENDBRANCH 29 30
ENDBRANCH 1 29
BRANCH 1 36
ATOM     36  C   GLN B   3     -13.324  -4.010   6.750  1.00 32.58 LIG 0.24  C 
ATOM     37 O    GLN B   3     -14.151  -3.306   6.160  1.00 27.04 LIG-0.27  OA
ATOM     38  N   ARG B   4     -13.278  -4.146   8.087  1.00 32.15 LIG-0.35  N 
ATOM     39 H    ARG B   4     -12.681  -4.607   8.500  1.00 32.15 LIG 0.16  HD
BRANCH 38 40
ATOM     40  CA  ARG B   4     -14.277  -3.499   8.978  1.00 32.56 LIG 0.18  C 
BRANCH 40 41
ATOM     41  CB  ARG B   4     -14.016  -3.915  10.466  1.00 33.81 LIG 0.04  C 
BRANCH 41 42
ATOM     42  CG  ARG B   4     -15.172  -4.619  11.169  1.00 39.16 LIG 0.02  C 
BRANCH 42 43
ATOM     43  CD  ARG B   4     -16.545  -3.915  10.909  1.00 48.45 LIG 0.14  C 
BRANCH 43 44
ATOM     44  NE  ARG B   4     -17.647  -4.711  11.475  1.00 55.69 LIG-0.23  N 
ATOM     45  CZ  ARG B   4     -18.804  -4.199  11.933  1.00 58.57 LIG 0.67  C 
ATOM     46  NH1 ARG B   4     -19.746  -4.997  12.438  1.00 57.02 LIG-0.23  N 
ATOM     47  NH2 ARG B   4     -19.034  -2.884  11.871  1.00 58.84 LIG-0.23  N 
ATOM     48 2HH1 ARG B   4     -20.483  -4.662  12.729  1.00 57.02 LIG 0.17  HD
ATOM     49 1HH1 ARG B   4     -19.616  -5.847  12.473  1.00 57.02 LIG 0.17  HD
ATOM     50 2HH2 ARG B   4     -19.775  -2.563  12.165  1.00 58.84 LIG 0.17  HD
ATOM     51 1HH2 ARG B   4     -18.440  -2.360  11.537  1.00 58.84 LIG 0.17  HD
ATOM     52 HE   ARG B   4     -17.544  -5.563  11.516  1.00 55.69 LIG 0.18  HD
ENDBRANCH 43 44
ENDBRANCH 42 43
ENDBRANCH 41 42
ENDBRANCH 40 41
BRANCH 40 53
ATOM     53  C   ARG B   4     -14.332  -1.964   8.808  1.00 31.57 LIG 0.24  C 
ATOM     54  N   LEU B   5     -15.531  -1.401   8.836  1.00 29.97 LIG-0.34  N 
ATOM     55 H    LEU B   5     -16.275  -1.833   8.845  1.00 29.97 LIG 0.16  HD
ATOM     56 O    ARG B   4     -13.310  -1.294   8.690  1.00 31.05 LIG-0.27  OA
BRANCH 54 57
ATOM     57  CA  LEU B   5     -15.656   0.046   8.854  1.00 29.37 LIG 0.18  C 
BRANCH 57 58
ATOM     58  CB  LEU B   5     -16.669   0.492   7.801  1.00 29.49 LIG 0.04  C 
BRANCH 58 59
ATOM     59  CG  LEU B   5     -16.061   1.293   6.605  1.00 26.43 LIG-0.02  C 
ATOM     60  CD1 LEU B   5     -14.450   1.205   6.572  1.00 22.49 LIG 0.01  C 
ATOM     61  CD2 LEU B   5     -16.771   0.966   5.235  1.00 25.84 LIG 0.01  C 
ENDBRANCH 58 59
ENDBRANCH 57 58
BRANCH 57 62
ATOM     62  C   LEU B   5     -16.035   0.514  10.286  1.00 31.79 LIG 0.20  C 
ATOM     63 O    LEU B   5     -15.905   1.711  10.656  1.00 32.21 LIG-0.65  OA
ATOM     64 OXT  LEU B   5     -16.461  -0.323  11.093  1.00 32.71 LIG-0.65  OA
ENDBRANCH 57 62
ENDBRANCH 54 57
ENDBRANCH 40 53
ENDBRANCH 38 40
ENDBRANCH 1 36
TORSDOF 24
ENDMDL
MODEL 4
USER: ADFR SOLUTION from run 113
USER: SCORE 21.516415 LL:  -5.822 LR: -16.385 RR:   0.000 FEB:  -9.226
USER: RMSD 10.413467
USER: SEED 112
USER: STATUS no improvement in best in 3 clusters for 5 generations
USER: GENES 26
USER: genes 0 Translation |==|  0.43072 0.54839 0.67099
USER: genes 1 Rotation |==|  0.76358 0.24451 0.83921 0.51355
USER: genes 2 Torsion [C]-CA--N-[C] |==|  0.68859
USER: genes 3 Torsion [N]-C--CA-[N] |==|  0.44576
USER: genes 4 Torsion [C]-CA--CB-[CG] |==|  0.32471
USER: genes 5 Torsion [CA]-CB--CG-[CD2] |==|  0.45394
USER: genes 6 Torsion [CE2]-CZ--OH-[HH] |==|  0.28330
USER: genes 7 Torsion [C]-CA--N-[C] |==|  0.54619
USER: genes 8 Torsion [N]-C--CA-[N] |==|  0.56284
USER: genes 9 Torsion [C]-CA--CB-[CG] |==|  0.75822
USER: genes 10 Torsion [CA]-CB--CG-[OD1] |==|  0.82119
USER: genes 11 Torsion [C]-CA--N-[H1] |==|  0.41680
USER: genes 12 Torsion [N]-CA--CB-[CG] |==|  0.80166
USER: genes 13 Torsion [CA]-CB--CG-[CD] |==|  0.24870
USER: genes 14 Torsion [CB]-CG--CD-[OE1] |==|  0.89233
USER: genes 15 Torsion [N]-CA--C-[N] |==|  0.83691
USER: genes 16 Torsion [C]-N--CA-[C] |==|  0.75097
USER: genes 17 Torsion [N]-CA--CB-[CG] |==|  0.41095
USER: genes 18 Torsion [CA]-CB--CG-[CD] |==|  0.53226
USER: genes 19 Torsion [CB]-CG--CD-[NE] |==|  0.37826
USER: genes 20 Torsion [CG]-CD--NE-[CZ] |==|  0.44330
USER: genes 21 Torsion [N]-CA--C-[N] |==|  0.37003
USER: genes 22 Torsion [C]-N--CA-[CB] |==|  0.25192
USER: genes 23 Torsion [N]-CA--CB-[CG] |==|  0.79924
USER: genes 24 Torsion [CA]-CB--CG-[CD1] |==|  0.29397
USER: genes 25 Torsion [N]-CA--C-[O] |==|  0.50746
ROOT
ATOM      1  CA  GLN B   3     -15.074  -4.399  10.230  1.00 33.56 LIG 0.18  C 
ENDROOT
BRANCH 1 2
ATOM      2  N   GLN B   3     -15.372  -2.998  10.054  1.00 33.33 LIG-0.35  N 
ATOM      3  C   TYR B   2     -14.832  -2.063  10.831  1.00 35.73 LIG 0.24  C 
ATOM      4 O    TYR B   2     -14.201  -2.335  11.857  1.00 36.38 LIG-0.27  OA
ATOM      5 H    GLN B   3     -15.920  -2.830   9.412  1.00 33.33 LIG 0.16  HD
BRANCH 3 6
ATOM      6  CA  TYR B   2     -15.020  -0.602  10.428  1.00 35.98 LIG 0.18  C 
BRANCH 6 7
ATOM      7  CB  TYR B   2     -14.039  -0.187   9.312  1.00 34.22 LIG 0.07  C 
BRANCH 7 8
ATOM      8  CG  TYR B   2     -14.766   0.197   8.063  1.00 30.67 LIG-0.06  A 
ATOM      9  CD2 TYR B   2     -14.140   0.927   7.035  1.00 29.09 LIG 0.01  A 
ATOM     10  CE2 TYR B   2     -14.885   1.335   5.880  1.00 27.51 LIG 0.04  A 
ATOM     11  CZ  TYR B   2     -16.193   0.971   5.807  1.00 25.86 LIG 0.07  A 
ATOM     12  CE1 TYR B   2     -16.805   0.210   6.821  1.00 26.16 LIG 0.04  A 
ATOM     13  CD1 TYR B   2     -16.102  -0.152   7.914  1.00 21.15 LIG 0.01  A 
BRANCH 11 14
ATOM     14 OH   TYR B   2     -16.964   1.263   4.716  1.00 29.83 LIG-0.36  OA
ATOM     15 HH   TYR B   2     -17.046   0.577   4.239  1.00 29.83 LIG 0.22  HD
ENDBRANCH 11 14
ENDBRANCH 7 8
ENDBRANCH 6 7
BRANCH 6 16
ATOM     16  N   TYR B   2     -14.779   0.228  11.612  1.00 39.83 LIG-0.35  N 
ATOM     17  C   ASP B   1     -15.177   1.494  11.667  1.00 42.84 LIG 0.25  C 
ATOM     18 O    ASP B   1     -15.653   2.085  10.678  1.00 42.82 LIG-0.27  OA
ATOM     19 H    TYR B   2     -14.366  -0.174  12.251  1.00 39.83 LIG 0.16  HD
BRANCH 17 20
ATOM     20  CA  ASP B   1     -14.949   2.214  13.025  1.00 44.92 LIG 0.28  C 
BRANCH 20 21
ATOM     21  CB  ASP B   1     -15.138   1.198  14.153  1.00 46.02 LIG 0.15  C 
BRANCH 21 22
ATOM     22  CG  ASP B   1     -16.597   1.082  14.592  1.00 51.60 LIG 0.17  C 
ATOM     23 OD1  ASP B   1     -17.190   2.085  15.126  1.00 55.22 LIG-0.65  OA
ATOM     24 OD2  ASP B   1     -17.149  -0.029  14.376  1.00 56.25 LIG-0.65  OA
ENDBRANCH 21 22
ENDBRANCH 20 21
BRANCH 20 25
ATOM     25  N   ASP B   1     -15.870   3.408  13.224  1.00 44.71 LIG-0.07  N 
ATOM     26 H1   ASP B   1     -16.032   3.516  14.093  1.00 44.71 LIG 0.28  HD
ATOM     27 H2   ASP B   1     -15.480   4.141  12.902  1.00 44.71 LIG 0.28  HD
ATOM     28 H3   ASP B   1     -16.636   3.267  12.795  1.00 44.71 LIG 0.28  HD
ENDBRANCH 20 25
ENDBRANCH 17 20
ENDBRANCH 6 16
ENDBRANCH 3 6
ENDBRANCH 1 2
BRANCH 1 29
ATOM     29  CB  GLN B   3     -16.357  -5.214  10.335  1.00 34.45 LIG 0.04  C 
BRANCH 29 30
ATOM     30  CG  GLN B   3     -17.155  -5.037  11.638  1.00 38.50 LIG 0.10  C 
BRANCH 30 31
ATOM     31  CD  GLN B   3     -18.198  -3.893  11.589  1.00 47.01 LIG 0.21  C 
ATOM     32  NE2 GLN B   3     -19.400  -4.124  12.172  1.00 44.49 LIG-0.37  N 
ATOM     33 21HE GLN B   3     -19.550  -4.872  12.566  1.00 44.49 LIG 0.16  HD
ATOM     34 22HE GLN B   3     -20.013  -3.521  12.146  1.00 44.49 LIG 0.16  HD
ATOM     35 OE1  GLN B   3     -17.926  -2.824  11.001  1.00 47.46 LIG-0.27  OA
ENDBRANCH 30 31
ENDBRANCH 29 30
ENDBRANCH 1 29
BRANCH 1 36
ATOM     36  C   GLN B   3     -14.269  -4.843   8.995  1.00 32.58 LIG 0.24  C 
ATOM     37 O    GLN B   3     -13.126  -5.293   9.140  1.00 27.04 LIG-0.27  OA
ATOM     38  N   ARG B   4     -14.862  -4.685   7.799  1.00 32.15 LIG-0.35  N 
ATOM     39 H    ARG B   4     -15.642  -4.339   7.694  1.00 32.15 LIG 0.16  HD
BRANCH 38 40
ATOM     40  CA  ARG B   4     -14.203  -5.104   6.534  1.00 32.56 LIG 0.18  C 
BRANCH 40 41
ATOM     41  CB  ARG B   4     -15.274  -5.654   5.529  1.00 33.81 LIG 0.04  C 
BRANCH 41 42
ATOM     42  CG  ARG B   4     -14.979  -5.415   4.052  1.00 39.16 LIG 0.02  C 
BRANCH 42 43
ATOM     43  CD  ARG B   4     -16.212  -5.726   3.140  1.00 48.45 LIG 0.14  C 
BRANCH 43 44
ATOM     44  NE  ARG B   4     -16.380  -4.673   2.124  1.00 55.69 LIG-0.23  N 
ATOM     45  CZ  ARG B   4     -17.067  -4.820   0.976  1.00 58.57 LIG 0.67  C 
ATOM     46  NH1 ARG B   4     -17.159  -3.812   0.107  1.00 57.02 LIG-0.23  N 
ATOM     47  NH2 ARG B   4     -17.682  -5.973   0.699  1.00 58.84 LIG-0.23  N 
ATOM     48 2HH1 ARG B   4     -17.600  -3.913  -0.624  1.00 57.02 LIG 0.17  HD
ATOM     49 1HH1 ARG B   4     -16.777  -3.061   0.279  1.00 57.02 LIG 0.17  HD
ATOM     50 2HH2 ARG B   4     -18.119  -6.061  -0.036  1.00 58.84 LIG 0.17  HD
ATOM     51 1HH2 ARG B   4     -17.640  -6.627   1.255  1.00 58.84 LIG 0.17  HD
ATOM     52 HE   ARG B   4     -16.013  -3.911   2.274  1.00 55.69 LIG 0.18  HD
ENDBRANCH 43 44
ENDBRANCH 42 43
ENDBRANCH 41 42
ENDBRANCH 40 41
BRANCH 40 53
ATOM     53  C   ARG B   4     -13.341  -3.988   5.903  1.00 31.57 LIG 0.24  C 
ATOM     54  N   LEU B   5     -12.126  -4.326   5.497  1.00 29.97 LIG-0.34  N 
ATOM     55 H    LEU B   5     -11.754  -5.087   5.645  1.00 29.97 LIG 0.16  HD
ATOM     56 O    ARG B   4     -13.774  -2.849   5.753  1.00 31.05 LIG-0.27  OA
BRANCH 54 57
ATOM     57  CA  LEU B   5     -11.319  -3.382   4.744  1.00 29.37 LIG 0.18  C 
BRANCH 57 58
ATOM     58  CB  LEU B   5     -10.467  -2.548   5.700  1.00 29.49 LIG 0.04  C 
BRANCH 58 59
ATOM     59  CG  LEU B   5     -11.261  -1.489   6.531  1.00 26.43 LIG-0.02  C 
ATOM     60  CD1 LEU B   5     -11.435  -1.934   8.072  1.00 22.49 LIG 0.01  C 
ATOM     61  CD2 LEU B   5     -10.716  -0.024   6.321  1.00 25.84 LIG 0.01  C 
ENDBRANCH 58 59
ENDBRANCH 57 58
BRANCH 57 62
ATOM     62  C   LEU B   5     -10.468  -4.150   3.697  1.00 31.79 LIG 0.20  C 
ATOM     63 O    LEU B   5      -9.642  -3.566   2.946  1.00 32.21 LIG-0.65  OA
ATOM     64 OXT  LEU B   5     -10.620  -5.373   3.588  1.00 32.71 LIG-0.65  OA
ENDBRANCH 57 62
ENDBRANCH 54 57
ENDBRANCH 40 53
ENDBRANCH 38 40
ENDBRANCH 1 36
TORSDOF 24
ENDMDL
MODEL 5
USER: ADFR SOLUTION from run 112
USER: SCORE 21.226311 LL:  -5.709 LR: -16.082 RR:   0.000 FEB:  -8.923
USER: RMSD 9.023095
USER: SEED 111
USER: STATUS no improvement in best in 2 clusters for 5 generations
USER: GENES 26
USER: genes 0 Translation |==|  0.63683 0.45641 0.28098
USER: genes 1 Rotation |==|  0.84118 0.44157 0.14381 0.55749
USER: genes 2 Torsion [C]-CA--N-[C] |==|  0.63041
USER: genes 3 Torsion [N]-C--CA-[N] |==|  0.04811
USER: genes 4 Torsion [C]-CA--CB-[CG] |==|  0.34485
USER: genes 5 Torsion [CA]-CB--CG-[CD2] |==|  0.62179
USER: genes 6 Torsion [CE2]-CZ--OH-[HH] |==|  0.16985
USER: genes 7 Torsion [C]-CA--N-[C] |==|  0.64444
USER: genes 8 Torsion [N]-C--CA-[N] |==|  0.85981
USER: genes 9 Torsion [C]-CA--CB-[CG] |==|  0.83558
USER: genes 10 Torsion [CA]-CB--CG-[OD1] |==|  0.36356
USER: genes 11 Torsion [C]-CA--N-[H1] |==|  0.53905
USER: genes 12 Torsion [N]-CA--CB-[CG] |==|  0.61705
USER: genes 13 Torsion [CA]-CB--CG-[CD] |==|  0.20657
USER: genes 14 Torsion [CB]-CG--CD-[OE1] |==|  0.39858
USER: genes 15 Torsion [N]-CA--C-[N] |==|  0.31999
USER: genes 16 Torsion [C]-N--CA-[C] |==|  0.13905
USER: genes 17 Torsion [N]-CA--CB-[CG] |==|  0.73190
USER: genes 18 Torsion [CA]-CB--CG-[CD] |==|  0.14810
USER: genes 19 Torsion [CB]-CG--CD-[NE] |==|  0.70454
USER: genes 20 Torsion [CG]-CD--NE-[CZ] |==|  0.58323
USER: genes 21 Torsion [N]-CA--C-[N] |==|  0.11175
USER: genes 22 Torsion [C]-N--CA-[CB] |==|  0.87187
USER: genes 23 Torsion [N]-CA--CB-[CG] |==|  0.64215
USER: genes 24 Torsion [CA]-CB--CG-[CD1] |==|  0.08994
USER: genes 25 Torsion [N]-CA--C-[O] |==|  0.10079
ROOT
ATOM      1  CA  GLN B   3     -11.209  -6.330   0.870  1.00 33.56 LIG 0.18  C 
ENDROOT
BRANCH 1 2
ATOM      2  N   GLN B   3      -9.980  -5.756   1.361  1.00 33.33 LIG-0.35  N 
ATOM      3  C   TYR B   2      -9.406  -4.713   0.767  1.00 35.73 LIG 0.24  C 
ATOM      4 O    TYR B   2      -9.773  -4.291  -0.334  1.00 36.38 LIG-0.27  OA
ATOM      5 H    GLN B   3      -9.662  -6.145   2.059  1.00 33.33 LIG 0.16  HD
BRANCH 3 6
ATOM      6  CA  TYR B   2      -8.243  -4.033   1.485  1.00 35.98 LIG 0.18  C 
BRANCH 6 7
ATOM      7  CB  TYR B   2      -7.095  -3.690   0.514  1.00 34.22 LIG 0.07  C 
BRANCH 7 8
ATOM      8  CG  TYR B   2      -6.757  -2.235   0.560  1.00 30.67 LIG-0.06  A 
ATOM      9  CD2 TYR B   2      -6.528  -1.488  -0.611  1.00 29.09 LIG 0.01  A 
ATOM     10  CE2 TYR B   2      -6.143  -0.110  -0.527  1.00 27.51 LIG 0.04  A 
ATOM     11  CZ  TYR B   2      -6.036   0.445   0.710  1.00 25.86 LIG 0.07  A 
ATOM     12  CE1 TYR B   2      -6.301  -0.296   1.877  1.00 26.16 LIG 0.04  A 
ATOM     13  CD1 TYR B   2      -6.642  -1.597   1.789  1.00 21.15 LIG 0.01  A 
BRANCH 11 14
ATOM     14 OH   TYR B   2      -5.733   1.767   0.885  1.00 29.83 LIG-0.36  OA
ATOM     15 HH   TYR B   2      -6.329   2.241   0.530  1.00 29.83 LIG 0.22  HD
ENDBRANCH 11 14
ENDBRANCH 7 8
ENDBRANCH 6 7
BRANCH 6 16
ATOM     16  N   TYR B   2      -7.745  -4.953   2.512  1.00 39.83 LIG-0.35  N 
ATOM     17  C   ASP B   1      -7.597  -4.571   3.776  1.00 42.84 LIG 0.25  C 
ATOM     18 O    ASP B   1      -7.742  -3.387   4.134  1.00 42.82 LIG-0.27  OA
ATOM     19 H    TYR B   2      -7.563  -5.743   2.224  1.00 39.83 LIG 0.16  HD
BRANCH 17 20
ATOM     20  CA  ASP B   1      -7.164  -5.685   4.770  1.00 44.92 LIG 0.28  C 
BRANCH 20 21
ATOM     21  CB  ASP B   1      -5.696  -6.027   4.508  1.00 46.02 LIG 0.15  C 
BRANCH 21 22
ATOM     22  CG  ASP B   1      -5.459  -6.512   3.078  1.00 51.60 LIG 0.17  C 
ATOM     23 OD1  ASP B   1      -4.512  -6.008   2.376  1.00 55.22 LIG-0.65  OA
ATOM     24 OD2  ASP B   1      -6.228  -7.422   2.672  1.00 56.25 LIG-0.65  OA
ENDBRANCH 21 22
ENDBRANCH 20 21
BRANCH 20 25
ATOM     25  N   ASP B   1      -8.027  -6.933   4.674  1.00 44.71 LIG-0.07  N 
ATOM     26 H1   ASP B   1      -7.880  -7.451   5.382  1.00 44.71 LIG 0.28  HD
ATOM     27 H2   ASP B   1      -8.886  -6.699   4.650  1.00 44.71 LIG 0.28  HD
ATOM     28 H3   ASP B   1      -7.822  -7.380   3.932  1.00 44.71 LIG 0.28  HD
ENDBRANCH 20 25
ENDBRANCH 17 20
ENDBRANCH 6 16
ENDBRANCH 3 6
ENDBRANCH 1 2
BRANCH 1 29
ATOM     29  CB  GLN B   3     -10.948  -7.675   0.202  1.00 34.45 LIG 0.04  C 
BRANCH 29 30
ATOM     30  CG  GLN B   3     -11.711  -7.928  -1.109  1.00 38.50 LIG 0.10  C 
BRANCH 30 31
ATOM     31  CD  GLN B   3     -11.160  -7.138  -2.323  1.00 47.01 LIG 0.21  C 
ATOM     32  NE2 GLN B   3     -10.734  -5.871  -2.098  1.00 44.49 LIG-0.37  N 
ATOM     33 21HE GLN B   3     -10.755  -5.545  -1.303  1.00 44.49 LIG 0.16  HD
ATOM     34 22HE GLN B   3     -10.442  -5.394  -2.751  1.00 44.49 LIG 0.16  HD
ATOM     35 OE1  GLN B   3     -11.151  -7.662  -3.458  1.00 47.46 LIG-0.27  OA
ENDBRANCH 30 31
ENDBRANCH 29 30
ENDBRANCH 1 29
BRANCH 1 36
ATOM     36  C   GLN B   3     -12.133  -6.520   2.087  1.00 32.58 LIG 0.24  C 
ATOM     37 O    GLN B   3     -11.825  -7.333   2.967  1.00 27.04 LIG-0.27  OA
ATOM     38  N   ARG B   4     -13.262  -5.790   2.107  1.00 32.15 LIG-0.35  N 
ATOM     39 H    ARG B   4     -13.494  -5.251   1.479  1.00 32.15 LIG 0.16  HD
BRANCH 38 40
ATOM     40  CA  ARG B   4     -14.220  -5.857   3.242  1.00 32.56 LIG 0.18  C 
BRANCH 40 41
ATOM     41  CB  ARG B   4     -15.051  -7.184   3.163  1.00 33.81 LIG 0.04  C 
BRANCH 41 42
ATOM     42  CG  ARG B   4     -16.420  -7.069   2.501  1.00 39.16 LIG 0.02  C 
BRANCH 42 43
ATOM     43  CD  ARG B   4     -16.342  -6.418   1.080  1.00 48.45 LIG 0.14  C 
BRANCH 43 44
ATOM     44  NE  ARG B   4     -16.862  -5.041   1.114  1.00 55.69 LIG-0.23  N 
ATOM     45  CZ  ARG B   4     -17.462  -4.423   0.080  1.00 58.57 LIG 0.67  C 
ATOM     46  NH1 ARG B   4     -17.895  -3.167   0.199  1.00 57.02 LIG-0.23  N 
ATOM     47  NH2 ARG B   4     -17.648  -5.066  -1.076  1.00 58.84 LIG-0.23  N 
ATOM     48 2HH1 ARG B   4     -18.277  -2.779  -0.467  1.00 57.02 LIG 0.17  HD
ATOM     49 1HH1 ARG B   4     -17.791  -2.745   0.942  1.00 57.02 LIG 0.17  HD
ATOM     50 2HH2 ARG B   4     -18.032  -4.666  -1.733  1.00 58.84 LIG 0.17  HD
ATOM     51 1HH2 ARG B   4     -17.384  -5.880  -1.163  1.00 58.84 LIG 0.17  HD
ATOM     52 HE   ARG B   4     -16.776  -4.600   1.847  1.00 55.69 LIG 0.18  HD
ENDBRANCH 43 44
ENDBRANCH 42 43
ENDBRANCH 41 42
ENDBRANCH 40 41
BRANCH 40 53
ATOM     53  C   ARG B   4     -13.540  -5.683   4.618  1.00 31.57 LIG 0.24  C 
ATOM     54  N   LEU B   5     -12.581  -4.774   4.702  1.00 29.97 LIG-0.34  N 
ATOM     55 H    LEU B   5     -12.249  -4.348   4.032  1.00 29.97 LIG 0.16  HD
ATOM     56 O    ARG B   4     -13.897  -6.332   5.597  1.00 31.05 LIG-0.27  OA
BRANCH 54 57
ATOM     57  CA  LEU B   5     -12.011  -4.431   5.993  1.00 29.37 LIG 0.18  C 
BRANCH 57 58
ATOM     58  CB  LEU B   5     -13.127  -4.221   7.014  1.00 29.49 LIG 0.04  C 
BRANCH 58 59
ATOM     59  CG  LEU B   5     -13.041  -2.880   7.812  1.00 26.43 LIG-0.02  C 
ATOM     60  CD1 LEU B   5     -12.403  -1.689   6.931  1.00 22.49 LIG 0.01  C 
ATOM     61  CD2 LEU B   5     -14.397  -2.518   8.534  1.00 25.84 LIG 0.01  C 
ENDBRANCH 58 59
ENDBRANCH 57 58
BRANCH 57 62
ATOM     62  C   LEU B   5     -11.005  -5.535   6.423  1.00 31.79 LIG 0.20  C 
ATOM     63 O    LEU B   5     -10.266  -6.128   5.593  1.00 32.21 LIG-0.65  OA
ATOM     64 OXT  LEU B   5     -10.942  -5.850   7.618  1.00 32.71 LIG-0.65  OA
ENDBRANCH 57 62
ENDBRANCH 54 57
ENDBRANCH 40 53
ENDBRANCH 38 40
ENDBRANCH 1 36
TORSDOF 24
ENDMDL
MODEL 6
USER: ADFR SOLUTION from run 98
USER: SCORE 20.452126 LL:  -5.065 LR: -16.026 RR:   0.000 FEB:  -8.867
USER: RMSD 8.916036
USER: SEED 97
USER: STATUS no improvement in best in 14 clusters for 5 generations
USER: GENES 26
USER: genes 0 Translation |==|  0.64179 0.45166 0.29091
USER: genes 1 Rotation |==|  0.81767 0.47008 0.11650 0.53346
USER: genes 2 Torsion [C]-CA--N-[C] |==|  0.62145
USER: genes 3 Torsion [N]-C--CA-[N] |==|  0.05997
USER: genes 4 Torsion [C]-CA--CB-[CG] |==|  0.33001
USER: genes 5 Torsion [CA]-CB--CG-[CD2] |==|  0.59526
USER: genes 6 Torsion [CE2]-CZ--OH-[HH] |==|  0.20227
USER: genes 7 Torsion [C]-CA--N-[C] |==|  0.71716
USER: genes 8 Torsion [N]-C--CA-[N] |==|  0.85501
USER: genes 9 Torsion [C]-CA--CB-[CG] |==|  0.79524
USER: genes 10 Torsion [CA]-CB--CG-[OD1] |==|  0.80041
USER: genes 11 Torsion [C]-CA--N-[H1] |==|  0.94392
USER: genes 12 Torsion [N]-CA--CB-[CG] |==|  0.63211
USER: genes 13 Torsion [CA]-CB--CG-[CD] |==|  0.24223
USER: genes 14 Torsion [CB]-CG--CD-[OE1] |==|  0.36804
USER: genes 15 Torsion [N]-CA--C-[N] |==|  0.25233
USER: genes 16 Torsion [C]-N--CA-[C] |==|  0.76903
USER: genes 17 Torsion [N]-CA--CB-[CG] |==|  0.60395
USER: genes 18 Torsion [CA]-CB--CG-[CD] |==|  0.83825
USER: genes 19 Torsion [CB]-CG--CD-[NE] |==|  0.66562
USER: genes 20 Torsion [CG]-CD--NE-[CZ] |==|  0.63969
USER: genes 21 Torsion [N]-CA--C-[N] |==|  0.94167
USER: genes 22 Torsion [C]-N--CA-[CB] |==|  0.34617
USER: genes 23 Torsion [N]-CA--CB-[CG] |==|  0.11361
USER: genes 24 Torsion [CA]-CB--CG-[CD1] |==|  0.32088
USER: genes 25 Torsion [N]-CA--C-[O] |==|  0.42327
ROOT
ATOM      1  CA  GLN B   3     -11.116  -6.430   1.108  1.00 33.56 LIG 0.18  C 
ENDROOT
BRANCH 1 2
ATOM      2  N   GLN B   3      -9.816  -5.940   1.496  1.00 33.33 LIG-0.35  N 
ATOM      3  C   TYR B   2      -9.279  -4.857   0.940  1.00 35.73 LIG 0.24  C 
ATOM      4 O    TYR B   2      -9.760  -4.317  -0.060  1.00 36.38 LIG-0.27  OA
ATOM      5 H    GLN B   3      -9.431  -6.405   2.109  1.00 33.33 LIG 0.16  HD
BRANCH 3 6
ATOM      6  CA  TYR B   2      -8.013  -4.282   1.571  1.00 35.98 LIG 0.18  C 
BRANCH 6 7
ATOM      7  CB  TYR B   2      -7.023  -3.775   0.503  1.00 34.22 LIG 0.07  C 
BRANCH 7 8
ATOM      8  CG  TYR B   2      -6.766  -2.310   0.649  1.00 30.67 LIG-0.06  A 
ATOM      9  CD2 TYR B   2      -6.539  -1.481  -0.466  1.00 29.09 LIG 0.01  A 
ATOM     10  CE2 TYR B   2      -6.231  -0.093  -0.285  1.00 27.51 LIG 0.04  A 
ATOM     11  CZ  TYR B   2      -6.196   0.389   0.986  1.00 25.86 LIG 0.07  A 
ATOM     12  CE1 TYR B   2      -6.459  -0.435   2.096  1.00 26.16 LIG 0.04  A 
ATOM     13  CD1 TYR B   2      -6.727  -1.745   1.918  1.00 21.15 LIG 0.01  A 
BRANCH 11 14
ATOM     14 OH   TYR B   2      -5.971   1.712   1.251  1.00 29.83 LIG-0.36  OA
ATOM     15 HH   TYR B   2      -6.653   2.159   1.047  1.00 29.83 LIG 0.22  HD
ENDBRANCH 11 14
ENDBRANCH 7 8
ENDBRANCH 6 7
BRANCH 6 16
ATOM     16  N   TYR B   2      -7.375  -5.346   2.352  1.00 39.83 LIG-0.35  N 
ATOM     17  C   ASP B   1      -7.485  -5.400   3.675  1.00 42.84 LIG 0.25  C 
ATOM     18 O    ASP B   1      -8.017  -4.487   4.336  1.00 42.82 LIG-0.27  OA
ATOM     19 H    TYR B   2      -6.933  -5.916   1.883  1.00 39.83 LIG 0.16  HD
BRANCH 17 20
ATOM     20  CA  ASP B   1      -6.846  -6.643   4.354  1.00 44.92 LIG 0.28  C 
BRANCH 20 21
ATOM     21  CB  ASP B   1      -5.323  -6.519   4.264  1.00 46.02 LIG 0.15  C 
BRANCH 21 22
ATOM     22  CG  ASP B   1      -4.802  -6.784   2.852  1.00 51.60 LIG 0.17  C 
ATOM     23 OD1  ASP B   1      -4.808  -7.974   2.376  1.00 55.22 LIG-0.65  OA
ATOM     24 OD2  ASP B   1      -4.400  -5.774   2.217  1.00 56.25 LIG-0.65  OA
ENDBRANCH 21 22
ENDBRANCH 20 21
BRANCH 20 25
ATOM     25  N   ASP B   1      -7.310  -7.956   3.743  1.00 44.71 LIG-0.07  N 
ATOM     26 H1   ASP B   1      -8.073  -7.826   3.305  1.00 44.71 LIG 0.28  HD
ATOM     27 H2   ASP B   1      -6.691  -8.256   3.178  1.00 44.71 LIG 0.28  HD
ATOM     28 H3   ASP B   1      -7.437  -8.555   4.388  1.00 44.71 LIG 0.28  HD
ENDBRANCH 20 25
ENDBRANCH 17 20
ENDBRANCH 6 16
ENDBRANCH 3 6
ENDBRANCH 1 2
BRANCH 1 29
ATOM     29  CB  GLN B   3     -10.985  -7.661   0.219  1.00 34.45 LIG 0.04  C 
BRANCH 29 30
ATOM     30  CG  GLN B   3     -11.838  -7.653  -1.061  1.00 38.50 LIG 0.10  C 
BRANCH 30 31
ATOM     31  CD  GLN B   3     -11.155  -6.968  -2.271  1.00 47.01 LIG 0.21  C 
ATOM     32  NE2 GLN B   3     -10.611  -5.744  -2.066  1.00 44.49 LIG-0.37  N 
ATOM     33 21HE GLN B   3     -10.635  -5.389  -1.283  1.00 44.49 LIG 0.16  HD
ATOM     34 22HE GLN B   3     -10.243  -5.323  -2.719  1.00 44.49 LIG 0.16  HD
ATOM     35 OE1  GLN B   3     -11.150  -7.532  -3.387  1.00 47.46 LIG-0.27  OA
ENDBRANCH 30 31
ENDBRANCH 29 30
ENDBRANCH 1 29
BRANCH 1 36
ATOM     36  C   GLN B   3     -11.862  -6.796   2.405  1.00 32.58 LIG 0.24  C 
ATOM     37 O    GLN B   3     -11.773  -7.942   2.858  1.00 27.04 LIG-0.27  OA
ATOM     38  N   ARG B   4     -12.608  -5.827   2.965  1.00 32.15 LIG-0.35  N 
ATOM     39 H    ARG B   4     -12.699  -5.040   2.631  1.00 32.15 LIG 0.16  HD
BRANCH 38 40
ATOM     40  CA  ARG B   4     -13.351  -6.043   4.234  1.00 32.56 LIG 0.18  C 
BRANCH 40 41
ATOM     41  CB  ARG B   4     -13.490  -4.688   5.010  1.00 33.81 LIG 0.04  C 
BRANCH 41 42
ATOM     42  CG  ARG B   4     -13.374  -4.780   6.528  1.00 39.16 LIG 0.02  C 
BRANCH 42 43
ATOM     43  CD  ARG B   4     -14.441  -5.741   7.150  1.00 48.45 LIG 0.14  C 
BRANCH 43 44
ATOM     44  NE  ARG B   4     -15.295  -5.014   8.105  1.00 55.69 LIG-0.23  N 
ATOM     45  CZ  ARG B   4     -15.559  -5.423   9.360  1.00 58.57 LIG 0.67  C 
ATOM     46  NH1 ARG B   4     -16.353  -4.703  10.154  1.00 57.02 LIG-0.23  N 
ATOM     47  NH2 ARG B   4     -15.016  -6.547   9.834  1.00 58.84 LIG-0.23  N 
ATOM     48 2HH1 ARG B   4     -16.518  -4.970  10.954  1.00 57.02 LIG 0.17  HD
ATOM     49 1HH1 ARG B   4     -16.701  -3.971   9.865  1.00 57.02 LIG 0.17  HD
ATOM     50 2HH2 ARG B   4     -15.188  -6.802  10.636  1.00 58.84 LIG 0.17  HD
ATOM     51 1HH2 ARG B   4     -14.493  -7.014   9.336  1.00 58.84 LIG 0.17  HD
ATOM     52 HE   ARG B   4     -15.649  -4.277   7.843  1.00 55.69 LIG 0.18  HD
ENDBRANCH 43 44
ENDBRANCH 42 43
ENDBRANCH 41 42
ENDBRANCH 40 41
BRANCH 40 53
ATOM     53  C   ARG B   4     -14.718  -6.731   4.025  1.00 31.57 LIG 0.24  C 
ATOM     54  N   LEU B   5     -15.248  -6.654   2.813  1.00 29.97 LIG-0.34  N 
ATOM     55 H    LEU B   5     -14.936  -6.174   2.171  1.00 29.97 LIG 0.16  HD
ATOM     56 O    ARG B   4     -15.270  -7.351   4.929  1.00 31.05 LIG-0.27  OA
BRANCH 54 57
ATOM     57  CA  LEU B   5     -16.443  -7.415   2.490  1.00 29.37 LIG 0.18  C 
BRANCH 57 58
ATOM     58  CB  LEU B   5     -17.530  -6.477   1.969  1.00 29.49 LIG 0.04  C 
BRANCH 58 59
ATOM     59  CG  LEU B   5     -17.023  -5.361   0.999  1.00 26.43 LIG-0.02  C 
ATOM     60  CD1 LEU B   5     -17.630  -5.525  -0.486  1.00 22.49 LIG 0.01  C 
ATOM     61  CD2 LEU B   5     -17.161  -3.916   1.616  1.00 25.84 LIG 0.01  C 
ENDBRANCH 58 59
ENDBRANCH 57 58
BRANCH 57 62
ATOM     62  C   LEU B   5     -16.083  -8.537   1.478  1.00 31.79 LIG 0.20  C 
ATOM     63 O    LEU B   5     -16.735  -9.613   1.411  1.00 32.21 LIG-0.65  OA
ATOM     64 OXT  LEU B   5     -15.114  -8.372   0.726  1.00 32.71 LIG-0.65  OA
ENDBRANCH 57 62
ENDBRANCH 54 57
ENDBRANCH 40 53
ENDBRANCH 38 40
ENDBRANCH 1 36
TORSDOF 24
ENDMDL
MODEL 7
USER: ADFR SOLUTION from run 5
USER: SCORE 21.277469 LL:  -5.833 LR: -15.978 RR:   0.000 FEB:  -8.819
USER: RMSD 7.273702
USER: SEED 489994
USER: STATUS 1 or 2 clusters left
USER: GENES 26
USER: genes 0 Translation |==|  0.51352 0.58427 0.49986
USER: genes 1 Rotation |==|  0.60046 0.32126 0.09135 0.70240
USER: genes 2 Torsion [C]-CA--N-[C] |==|  0.18577
USER: genes 3 Torsion [N]-C--CA-[N] |==|  0.38386
USER: genes 4 Torsion [C]-CA--CB-[CG] |==|  0.36628
USER: genes 5 Torsion [CA]-CB--CG-[CD2] |==|  0.66242
USER: genes 6 Torsion [CE2]-CZ--OH-[HH] |==|  0.50832
USER: genes 7 Torsion [C]-CA--N-[C] |==|  0.81908
USER: genes 8 Torsion [N]-C--CA-[N] |==|  0.92088
USER: genes 9 Torsion [C]-CA--CB-[CG] |==|  0.61284
USER: genes 10 Torsion [CA]-CB--CG-[OD1] |==|  0.35517
USER: genes 11 Torsion [C]-CA--N-[H1] |==|  0.21550
USER: genes 12 Torsion [N]-CA--CB-[CG] |==|  0.76081
USER: genes 13 Torsion [CA]-CB--CG-[CD] |==|  0.06948
USER: genes 14 Torsion [CB]-CG--CD-[OE1] |==|  0.69877
USER: genes 15 Torsion [N]-CA--C-[N] |==|  0.04513
USER: genes 16 Torsion [C]-N--CA-[C] |==|  0.76667
USER: genes 17 Torsion [N]-CA--CB-[CG] |==|  0.70675
USER: genes 18 Torsion [CA]-CB--CG-[CD] |==|  0.72212
USER: genes 19 Torsion [CB]-CG--CD-[NE] |==|  0.08394
USER: genes 20 Torsion [CG]-CD--NE-[CZ] |==|  0.21218
USER: genes 21 Torsion [N]-CA--C-[N] |==|  0.16412
USER: genes 22 Torsion [C]-N--CA-[CB] |==|  0.35621
USER: genes 23 Torsion [N]-CA--CB-[CG] |==|  0.85184
USER: genes 24 Torsion [CA]-CB--CG-[CD1] |==|  0.50919
USER: genes 25 Torsion [N]-CA--C-[O] |==|  0.28885
ROOT
ATOM      1  CA  GLN B   3     -13.521  -3.645   6.123  1.00 33.56 LIG 0.18  C 
ENDROOT
BRANCH 1 2
ATOM      2  N   GLN B   3     -12.560  -3.429   5.069  1.00 33.33 LIG-0.35  N 
ATOM      3  C   TYR B   2     -11.265  -3.682   5.238  1.00 35.73 LIG 0.24  C 
ATOM      4 O    TYR B   2     -10.776  -3.933   6.344  1.00 36.38 LIG-0.27  OA
ATOM      5 H    GLN B   3     -12.898  -3.127   4.338  1.00 33.33 LIG 0.16  HD
BRANCH 3 6
ATOM      6  CA  TYR B   2     -10.362  -3.644   4.007  1.00 35.98 LIG 0.18  C 
BRANCH 6 7
ATOM      7  CB  TYR B   2     -10.031  -5.063   3.499  1.00 34.22 LIG 0.07  C 
BRANCH 7 8
ATOM      8  CG  TYR B   2     -10.239  -5.175   2.023  1.00 30.67 LIG-0.06  A 
ATOM      9  CD2 TYR B   2     -11.131  -6.112   1.468  1.00 29.09 LIG 0.01  A 
ATOM     10  CE2 TYR B   2     -11.257  -6.238   0.045  1.00 27.51 LIG 0.04  A 
ATOM     11  CZ  TYR B   2     -10.511  -5.409  -0.734  1.00 25.86 LIG 0.07  A 
ATOM     12  CE1 TYR B   2      -9.647  -4.449  -0.174  1.00 26.16 LIG 0.04  A 
ATOM     13  CD1 TYR B   2      -9.519  -4.352   1.165  1.00 21.15 LIG 0.01  A 
BRANCH 11 14
ATOM     14 OH   TYR B   2     -10.611  -5.415  -2.098  1.00 29.83 LIG-0.36  OA
ATOM     15 HH   TYR B   2     -10.055  -4.876  -2.422  1.00 29.83 LIG 0.22  HD
ENDBRANCH 11 14
ENDBRANCH 7 8
ENDBRANCH 6 7
BRANCH 6 16
ATOM     16  N   TYR B   2      -9.118  -2.965   4.379  1.00 39.83 LIG-0.35  N 
ATOM     17  C   ASP B   1      -9.102  -1.683   4.725  1.00 42.84 LIG 0.25  C 
ATOM     18 O    ASP B   1     -10.108  -0.955   4.626  1.00 42.82 LIG-0.27  OA
ATOM     19 H    TYR B   2      -8.418  -3.465   4.353  1.00 39.83 LIG 0.16  HD
BRANCH 17 20
ATOM     20  CA  ASP B   1      -7.729  -1.129   5.199  1.00 44.92 LIG 0.28  C 
BRANCH 20 21
ATOM     21  CB  ASP B   1      -7.021  -0.492   4.001  1.00 46.02 LIG 0.15  C 
BRANCH 21 22
ATOM     22  CG  ASP B   1      -5.525  -0.806   3.977  1.00 51.60 LIG 0.17  C 
ATOM     23 OD1  ASP B   1      -4.986  -1.292   2.920  1.00 55.22 LIG-0.65  OA
ATOM     24 OD2  ASP B   1      -4.891  -0.540   5.032  1.00 56.25 LIG-0.65  OA
ENDBRANCH 21 22
ENDBRANCH 20 21
BRANCH 20 25
ATOM     25  N   ASP B   1      -6.848  -2.195   5.833  1.00 44.71 LIG-0.07  N 
ATOM     26 H1   ASP B   1      -6.483  -2.696   5.195  1.00 44.71 LIG 0.28  HD
ATOM     27 H2   ASP B   1      -6.204  -1.804   6.307  1.00 44.71 LIG 0.28  HD
ATOM     28 H3   ASP B   1      -7.340  -2.707   6.368  1.00 44.71 LIG 0.28  HD
ENDBRANCH 20 25
ENDBRANCH 17 20
ENDBRANCH 6 16
ENDBRANCH 3 6
ENDBRANCH 1 2
BRANCH 1 29
ATOM     29  CB  GLN B   3     -13.411  -5.063   6.671  1.00 34.45 LIG 0.04  C 
BRANCH 29 30
ATOM     30  CG  GLN B   3     -14.218  -6.134   5.917  1.00 38.50 LIG 0.10  C 
BRANCH 30 31
ATOM     31  CD  GLN B   3     -14.507  -5.781   4.437  1.00 47.01 LIG 0.21  C 
ATOM     32  NE2 GLN B   3     -13.457  -5.790   3.580  1.00 44.49 LIG-0.37  N 
ATOM     33 21HE GLN B   3     -12.674  -6.007   3.862  1.00 44.49 LIG 0.16  HD
ATOM     34 22HE GLN B   3     -13.574  -5.578   2.755  1.00 44.49 LIG 0.16  HD
ATOM     35 OE1  GLN B   3     -15.666  -5.473   4.082  1.00 47.46 LIG-0.27  OA
ENDBRANCH 30 31
ENDBRANCH 29 30
ENDBRANCH 1 29
BRANCH 1 36
ATOM     36  C   GLN B   3     -13.205  -2.627   7.233  1.00 32.58 LIG 0.24  C 
ATOM     37 O    GLN B   3     -13.697  -2.775   8.357  1.00 27.04 LIG-0.27  OA
ATOM     38  N   ARG B   4     -12.413  -1.594   6.896  1.00 32.15 LIG-0.35  N 
ATOM     39 H    ARG B   4     -12.099  -1.470   6.105  1.00 32.15 LIG 0.16  HD
BRANCH 38 40
ATOM     40  CA  ARG B   4     -12.007  -0.560   7.884  1.00 32.56 LIG 0.18  C 
BRANCH 40 41
ATOM     41  CB  ARG B   4     -10.600   0.019   7.507  1.00 33.81 LIG 0.04  C 
BRANCH 41 42
ATOM     42  CG  ARG B   4      -9.438  -0.447   8.378  1.00 39.16 LIG 0.02  C 
BRANCH 42 43
ATOM     43  CD  ARG B   4      -9.042   0.612   9.460  1.00 48.45 LIG 0.14  C 
BRANCH 43 44
ATOM     44  NE  ARG B   4     -10.218   1.400   9.864  1.00 55.69 LIG-0.23  N 
ATOM     45  CZ  ARG B   4     -11.189   0.960  10.685  1.00 58.57 LIG 0.67  C 
ATOM     46  NH1 ARG B   4     -12.225   1.742  10.991  1.00 57.02 LIG-0.23  N 
ATOM     47  NH2 ARG B   4     -11.120  -0.262  11.220  1.00 58.84 LIG-0.23  N 
ATOM     48 2HH1 ARG B   4     -12.842   1.453  11.516  1.00 57.02 LIG 0.17  HD
ATOM     49 1HH1 ARG B   4     -12.277   2.535  10.662  1.00 57.02 LIG 0.17  HD
ATOM     50 2HH2 ARG B   4     -11.743  -0.538  11.744  1.00 58.84 LIG 0.17  HD
ATOM     51 1HH2 ARG B   4     -10.451  -0.773  11.041  1.00 58.84 LIG 0.17  HD
ATOM     52 HE   ARG B   4     -10.290   2.198   9.554  1.00 55.69 LIG 0.18  HD
ENDBRANCH 43 44
ENDBRANCH 42 43
ENDBRANCH 41 42
ENDBRANCH 40 41
BRANCH 40 53
ATOM     53  C   ARG B   4     -13.062   0.556   8.058  1.00 31.57 LIG 0.24  C 
ATOM     54  N   LEU B   5     -14.269   0.183   8.456  1.00 29.97 LIG-0.34  N 
ATOM     55 H    LEU B   5     -14.530  -0.633   8.530  1.00 29.97 LIG 0.16  HD
ATOM     56 O    ARG B   4     -12.783   1.737   7.871  1.00 31.05 LIG-0.27  OA
BRANCH 54 57
ATOM     57  CA  LEU B   5     -15.263   1.183   8.806  1.00 29.37 LIG 0.18  C 
BRANCH 57 58
ATOM     58  CB  LEU B   5     -16.560   0.914   8.045  1.00 29.49 LIG 0.04  C 
BRANCH 58 59
ATOM     59  CG  LEU B   5     -16.396   0.783   6.497  1.00 26.43 LIG-0.02  C 
ATOM     60  CD1 LEU B   5     -17.813   0.585   5.751  1.00 22.49 LIG 0.01  C 
ATOM     61  CD2 LEU B   5     -15.480   1.914   5.889  1.00 25.84 LIG 0.01  C 
ENDBRANCH 58 59
ENDBRANCH 57 58
BRANCH 57 62
ATOM     62  C   LEU B   5     -15.463   1.197  10.346  1.00 31.79 LIG 0.20  C 
ATOM     63 O    LEU B   5     -14.977   2.101  11.077  1.00 32.21 LIG-0.65  OA
ATOM     64 OXT  LEU B   5     -16.106   0.279  10.871  1.00 32.71 LIG-0.65  OA
ENDBRANCH 57 62
ENDBRANCH 54 57
ENDBRANCH 40 53
ENDBRANCH 38 40
ENDBRANCH 1 36
TORSDOF 24
ENDMDL
MODEL 8
USER: ADFR SOLUTION from run 158
USER: SCORE 18.348107 LL:  -4.913 LR: -15.813 RR:   0.000 FEB:  -8.654
USER: RMSD 8.309533
USER: SEED 157
USER: STATUS no improvement in best in 8 clusters for 5 generations
USER: GENES 26
USER: genes 0 Translation |==|  0.59941 0.43079 0.31823
USER: genes 1 Rotation |==|  0.41913 0.73680 0.21863 0.82896
USER: genes 2 Torsion [C]-CA--N-[C] |==|  0.50602
USER: genes 3 Torsion [N]-C--CA-[N] |==|  0.45556
USER: genes 4 Torsion [C]-CA--CB-[CG] |==|  0.83707
USER: genes 5 Torsion [CA]-CB--CG-[CD2] |==|  0.26030
USER: genes 6 Torsion [CE2]-CZ--OH-[HH] |==|  0.98928
USER: genes 7 Torsion [C]-CA--N-[C] |==|  0.56209
USER: genes 8 Torsion [N]-C--CA-[N] |==|  0.67956
USER: genes 9 Torsion [C]-CA--CB-[CG] |==|  0.68669
USER: genes 10 Torsion [CA]-CB--CG-[OD1] |==|  0.83232
USER: genes 11 Torsion [C]-CA--N-[H1] |==|  0.12356
USER: genes 12 Torsion [N]-CA--CB-[CG] |==|  0.66426
USER: genes 13 Torsion [CA]-CB--CG-[CD] |==|  0.48167
USER: genes 14 Torsion [CB]-CG--CD-[OE1] |==|  0.24953
USER: genes 15 Torsion [N]-CA--C-[N] |==|  0.95021
USER: genes 16 Torsion [C]-N--CA-[C] |==|  0.20181
USER: genes 17 Torsion [N]-CA--CB-[CG] |==|  0.65213
USER: genes 18 Torsion [CA]-CB--CG-[CD] |==|  0.12948
USER: genes 19 Torsion [CB]-CG--CD-[NE] |==|  0.08671
USER: genes 20 Torsion [CG]-CD--NE-[CZ] |==|  0.21693
USER: genes 21 Torsion [N]-CA--C-[N] |==|  0.52572
USER: genes 22 Torsion [C]-N--CA-[CB] |==|  0.41248
USER: genes 23 Torsion [N]-CA--CB-[CG] |==|  0.76387
USER: genes 24 Torsion [CA]-CB--CG-[CD1] |==|  0.93177
USER: genes 25 Torsion [N]-CA--C-[O] |==|  0.33286
ROOT
ATOM      1  CA  GLN B   3     -11.911  -6.868   1.764  1.00 33.56 LIG 0.18  C 
ENDROOT
BRANCH 1 2
ATOM      2  N   GLN B   3     -13.044  -5.975   1.756  1.00 33.33 LIG-0.35  N 
ATOM      3  C   TYR B   2     -14.257  -6.383   1.393  1.00 35.73 LIG 0.24  C 
ATOM      4 O    TYR B   2     -14.458  -7.481   0.865  1.00 36.38 LIG-0.27  OA
ATOM      5 H    GLN B   3     -12.863  -5.171   2.004  1.00 33.33 LIG 0.16  HD
BRANCH 3 6
ATOM      6  CA  TYR B   2     -15.432  -5.438   1.636  1.00 35.98 LIG 0.18  C 
BRANCH 6 7
ATOM      7  CB  TYR B   2     -15.844  -5.411   3.122  1.00 34.22 LIG 0.07  C 
BRANCH 7 8
ATOM      8  CG  TYR B   2     -16.226  -6.772   3.607  1.00 30.67 LIG-0.06  A 
ATOM      9  CD2 TYR B   2     -15.299  -7.624   4.235  1.00 29.09 LIG 0.01  A 
ATOM     10  CE2 TYR B   2     -15.683  -8.948   4.629  1.00 27.51 LIG 0.04  A 
ATOM     11  CZ  TYR B   2     -16.967  -9.332   4.398  1.00 25.86 LIG 0.07  A 
ATOM     12  CE1 TYR B   2     -17.900  -8.464   3.801  1.00 26.16 LIG 0.04  A 
ATOM     13  CD1 TYR B   2     -17.525  -7.227   3.415  1.00 21.15 LIG 0.01  A 
BRANCH 11 14
ATOM     14 OH   TYR B   2     -17.438 -10.553   4.794  1.00 29.83 LIG-0.36  OA
ATOM     15 HH   TYR B   2     -16.811 -11.000   5.129  1.00 29.83 LIG 0.22  HD
ENDBRANCH 11 14
ENDBRANCH 7 8
ENDBRANCH 6 7
BRANCH 6 16
ATOM     16  N   TYR B   2     -16.564  -5.909   0.832  1.00 39.83 LIG-0.35  N 
ATOM     17  C   ASP B   1     -17.555  -5.097   0.484  1.00 42.84 LIG 0.25  C 
ATOM     18 O    ASP B   1     -17.650  -3.935   0.926  1.00 42.82 LIG-0.27  OA
ATOM     19 H    TYR B   2     -16.524  -6.740   0.614  1.00 39.83 LIG 0.16  HD
BRANCH 17 20
ATOM     20  CA  ASP B   1     -18.629  -5.709  -0.458  1.00 44.92 LIG 0.28  C 
BRANCH 20 21
ATOM     21  CB  ASP B   1     -18.353  -7.207  -0.604  1.00 46.02 LIG 0.15  C 
BRANCH 21 22
ATOM     22  CG  ASP B   1     -17.916  -7.582  -2.019  1.00 51.60 LIG 0.17  C 
ATOM     23 OD1  ASP B   1     -18.695  -7.361  -3.013  1.00 55.22 LIG-0.65  OA
ATOM     24 OD2  ASP B   1     -16.767  -8.087  -2.124  1.00 56.25 LIG-0.65  OA
ENDBRANCH 21 22
ENDBRANCH 20 21
BRANCH 20 25
ATOM     25  N   ASP B   1     -18.670  -5.040  -1.824  1.00 44.71 LIG-0.07  N 
ATOM     26 H1   ASP B   1     -17.840  -4.928  -2.124  1.00 44.71 LIG 0.28  HD
ATOM     27 H2   ASP B   1     -19.124  -5.553  -2.392  1.00 44.71 LIG 0.28  HD
ATOM     28 H3   ASP B   1     -19.070  -4.248  -1.755  1.00 44.71 LIG 0.28  HD
ENDBRANCH 20 25
ENDBRANCH 17 20
ENDBRANCH 6 16
ENDBRANCH 3 6
ENDBRANCH 1 2
BRANCH 1 29
ATOM     29  CB  GLN B   3     -11.620  -7.382   0.359  1.00 34.45 LIG 0.04  C 
BRANCH 29 30
ATOM     30  CG  GLN B   3     -11.675  -8.909   0.183  1.00 38.50 LIG 0.10  C 
BRANCH 30 31
ATOM     31  CD  GLN B   3     -11.534  -9.381  -1.286  1.00 47.01 LIG 0.21  C 
ATOM     32  NE2 GLN B   3     -12.675  -9.548  -1.997  1.00 44.49 LIG-0.37  N 
ATOM     33 21HE GLN B   3     -13.435  -9.372  -1.637  1.00 44.49 LIG 0.16  HD
ATOM     34 22HE GLN B   3     -12.638  -9.830  -2.808  1.00 44.49 LIG 0.16  HD
ATOM     35 OE1  GLN B   3     -10.401  -9.621  -1.759  1.00 47.46 LIG-0.27  OA
ENDBRANCH 30 31
ENDBRANCH 29 30
ENDBRANCH 1 29
BRANCH 1 36
ATOM     36  C   GLN B   3     -10.709  -6.061   2.287  1.00 32.58 LIG 0.24  C 
ATOM     37 O    GLN B   3      -9.719  -6.656   2.729  1.00 27.04 LIG-0.27  OA
ATOM     38  N   ARG B   4     -10.823  -4.722   2.259  1.00 32.15 LIG-0.35  N 
ATOM     39 H    ARG B   4     -11.525  -4.308   1.985  1.00 32.15 LIG 0.16  HD
BRANCH 38 40
ATOM     40  CA  ARG B   4      -9.721  -3.830   2.706  1.00 32.56 LIG 0.18  C 
BRANCH 40 41
ATOM     41  CB  ARG B   4      -9.263  -4.227   4.151  1.00 33.81 LIG 0.04  C 
BRANCH 41 42
ATOM     42  CG  ARG B   4      -9.281  -3.104   5.183  1.00 39.16 LIG 0.02  C 
BRANCH 42 43
ATOM     43  CD  ARG B   4     -10.609  -2.276   5.140  1.00 48.45 LIG 0.14  C 
BRANCH 43 44
ATOM     44  NE  ARG B   4     -11.735  -3.130   4.728  1.00 55.69 LIG-0.23  N 
ATOM     45  CZ  ARG B   4     -12.369  -4.002   5.533  1.00 58.57 LIG 0.67  C 
ATOM     46  NH1 ARG B   4     -13.377  -4.743   5.070  1.00 57.02 LIG-0.23  N 
ATOM     47  NH2 ARG B   4     -12.008  -4.126   6.813  1.00 58.84 LIG-0.23  N 
ATOM     48 2HH1 ARG B   4     -13.777  -5.299   5.591  1.00 57.02 LIG 0.17  HD
ATOM     49 1HH1 ARG B   4     -13.627  -4.665   4.251  1.00 57.02 LIG 0.17  HD
ATOM     50 2HH2 ARG B   4     -12.417  -4.685   7.323  1.00 58.84 LIG 0.17  HD
ATOM     51 1HH2 ARG B   4     -11.367  -3.646   7.127  1.00 58.84 LIG 0.17  HD
ATOM     52 HE   ARG B   4     -12.008  -3.067   3.915  1.00 55.69 LIG 0.18  HD
ENDBRANCH 43 44
ENDBRANCH 42 43
ENDBRANCH 41 42
ENDBRANCH 40 41
BRANCH 40 53
ATOM     53  C   ARG B   4      -8.536  -3.791   1.715  1.00 31.57 LIG 0.24  C 
ATOM     54  N   LEU B   5      -7.436  -3.174   2.120  1.00 29.97 LIG-0.34  N 
ATOM     55 H    LEU B   5      -7.370  -2.717   2.846  1.00 29.97 LIG 0.16  HD
ATOM     56 O    ARG B   4      -8.598  -4.338   0.618  1.00 31.05 LIG-0.27  OA
BRANCH 54 57
ATOM     57  CA  LEU B   5      -6.226  -3.240   1.320  1.00 29.37 LIG 0.18  C 
BRANCH 57 58
ATOM     58  CB  LEU B   5      -5.420  -1.953   1.489  1.00 29.49 LIG 0.04  C 
BRANCH 58 59
ATOM     59  CG  LEU B   5      -5.851  -0.783   0.547  1.00 26.43 LIG-0.02  C 
ATOM     60  CD1 LEU B   5      -6.576  -1.316  -0.791  1.00 22.49 LIG 0.01  C 
ATOM     61  CD2 LEU B   5      -6.628   0.355   1.315  1.00 25.84 LIG 0.01  C 
ENDBRANCH 58 59
ENDBRANCH 57 58
BRANCH 57 62
ATOM     62  C   LEU B   5      -5.417  -4.509   1.710  1.00 31.79 LIG 0.20  C 
ATOM     63 O    LEU B   5      -5.150  -5.415   0.877  1.00 32.21 LIG-0.65  OA
ATOM     64 OXT  LEU B   5      -5.040  -4.638   2.881  1.00 32.71 LIG-0.65  OA
ENDBRANCH 57 62
ENDBRANCH 54 57
ENDBRANCH 40 53
ENDBRANCH 38 40
ENDBRANCH 1 36
TORSDOF 24
ENDMDL
MODEL 9
USER: ADFR SOLUTION from run 122
USER: SCORE 20.887071 LL:  -6.503 LR: -15.767 RR:   0.000 FEB:  -8.608
USER: RMSD 10.436246
USER: SEED 121
USER: STATUS no improvement in best in 2 clusters for 5 generations
USER: GENES 26
USER: genes 0 Translation |==|  0.38689 0.56381 0.70011
USER: genes 1 Rotation |==|  0.29158 0.76153 0.12833 0.49476
USER: genes 2 Torsion [C]-CA--N-[C] |==|  0.68889
USER: genes 3 Torsion [N]-C--CA-[N] |==|  0.46638
USER: genes 4 Torsion [C]-CA--CB-[CG] |==|  0.32644
USER: genes 5 Torsion [CA]-CB--CG-[CD2] |==|  0.31514
USER: genes 6 Torsion [CE2]-CZ--OH-[HH] |==|  0.67922
USER: genes 7 Torsion [C]-CA--N-[C] |==|  0.50447
USER: genes 8 Torsion [N]-C--CA-[N] |==|  0.63148
USER: genes 9 Torsion [C]-CA--CB-[CG] |==|  0.77596
USER: genes 10 Torsion [CA]-CB--CG-[OD1] |==|  0.83777
USER: genes 11 Torsion [C]-CA--N-[H1] |==|  0.41758
USER: genes 12 Torsion [N]-CA--CB-[CG] |==|  0.73501
USER: genes 13 Torsion [CA]-CB--CG-[CD] |==|  0.23917
USER: genes 14 Torsion [CB]-CG--CD-[OE1] |==|  0.99516
USER: genes 15 Torsion [N]-CA--C-[N] |==|  0.87525
USER: genes 16 Torsion [C]-N--CA-[C] |==|  0.63705
USER: genes 17 Torsion [N]-CA--CB-[CG] |==|  0.58296
USER: genes 18 Torsion [CA]-CB--CG-[CD] |==|  0.67594
USER: genes 19 Torsion [CB]-CG--CD-[NE] |==|  0.21062
USER: genes 20 Torsion [CG]-CD--NE-[CZ] |==|  0.19526
USER: genes 21 Torsion [N]-CA--C-[N] |==|  0.18830
USER: genes 22 Torsion [C]-N--CA-[CB] |==|  0.46674
USER: genes 23 Torsion [N]-CA--CB-[CG] |==|  0.59076
USER: genes 24 Torsion [CA]-CB--CG-[CD1] |==|  0.41251
USER: genes 25 Torsion [N]-CA--C-[O] |==|  0.88191
ROOT
ATOM      1  CA  GLN B   3     -15.896  -4.075  10.929  1.00 33.56 LIG 0.18  C 
ENDROOT
BRANCH 1 2
ATOM      2  N   GLN B   3     -15.998  -2.663  10.651  1.00 33.33 LIG-0.35  N 
ATOM      3  C   TYR B   2     -15.558  -1.745  11.507  1.00 35.73 LIG 0.24  C 
ATOM      4 O    TYR B   2     -15.212  -2.024  12.659  1.00 36.38 LIG-0.27  OA
ATOM      5 H    GLN B   3     -16.364  -2.477   9.894  1.00 33.33 LIG 0.16  HD
BRANCH 3 6
ATOM      6  CA  TYR B   2     -15.497  -0.295  11.032  1.00 35.98 LIG 0.18  C 
BRANCH 6 7
ATOM      7  CB  TYR B   2     -14.354  -0.074  10.020  1.00 34.22 LIG 0.07  C 
BRANCH 7 8
ATOM      8  CG  TYR B   2     -14.881   0.354   8.688  1.00 30.67 LIG-0.06  A 
ATOM      9  CD2 TYR B   2     -14.627   1.636   8.167  1.00 29.09 LIG 0.01  A 
ATOM     10  CE2 TYR B   2     -15.202   2.036   6.915  1.00 27.51 LIG 0.04  A 
ATOM     11  CZ  TYR B   2     -15.969   1.130   6.251  1.00 25.86 LIG 0.07  A 
ATOM     12  CE1 TYR B   2     -16.191  -0.164   6.760  1.00 26.16 LIG 0.04  A 
ATOM     13  CD1 TYR B   2     -15.663  -0.524   7.947  1.00 21.15 LIG 0.01  A 
BRANCH 11 14
ATOM     14 OH   TYR B   2     -16.508   1.402   5.024  1.00 29.83 LIG-0.36  OA
ATOM     15 HH   TYR B   2     -17.346   1.412   5.082  1.00 29.83 LIG 0.22  HD
ENDBRANCH 11 14
ENDBRANCH 7 8
ENDBRANCH 6 7
BRANCH 6 16
ATOM     16  N   TYR B   2     -15.270   0.555  12.205  1.00 39.83 LIG-0.35  N 
ATOM     17  C   ASP B   1     -15.203   1.878  12.103  1.00 42.84 LIG 0.25  C 
ATOM     18 O    ASP B   1     -15.193   2.460  11.001  1.00 42.82 LIG-0.27  OA
ATOM     19 H    TYR B   2     -15.188   0.125  12.946  1.00 39.83 LIG 0.16  HD
BRANCH 17 20
ATOM     20  CA  ASP B   1     -15.068   2.651  13.444  1.00 44.92 LIG 0.28  C 
BRANCH 20 21
ATOM     21  CB  ASP B   1     -15.292   1.670  14.597  1.00 46.02 LIG 0.15  C 
BRANCH 21 22
ATOM     22  CG  ASP B   1     -16.775   1.411  14.858  1.00 51.60 LIG 0.17  C 
ATOM     23 OD1  ASP B   1     -17.558   2.384  15.145  1.00 55.22 LIG-0.65  OA
ATOM     24 OD2  ASP B   1     -17.150   0.213  14.753  1.00 56.25 LIG-0.65  OA
ENDBRANCH 21 22
ENDBRANCH 20 21
BRANCH 20 25
ATOM     25  N   ASP B   1     -16.029   3.826  13.550  1.00 44.71 LIG-0.07  N 
ATOM     26 H1   ASP B   1     -16.237   3.962  14.404  1.00 44.71 LIG 0.28  HD
ATOM     27 H2   ASP B   1     -15.642   4.556  13.218  1.00 44.71 LIG 0.28  HD
ATOM     28 H3   ASP B   1     -16.768   3.647  13.089  1.00 44.71 LIG 0.28  HD
ENDBRANCH 20 25
ENDBRANCH 17 20
ENDBRANCH 6 16
ENDBRANCH 3 6
ENDBRANCH 1 2
BRANCH 1 29
ATOM     29  CB  GLN B   3     -17.245  -4.760  10.749  1.00 34.45 LIG 0.04  C 
BRANCH 29 30
ATOM     30  CG  GLN B   3     -18.080  -4.934  12.030  1.00 38.50 LIG 0.10  C 
BRANCH 30 31
ATOM     31  CD  GLN B   3     -18.959  -3.709  12.382  1.00 47.01 LIG 0.21  C 
ATOM     32  NE2 GLN B   3     -19.775  -3.819  13.458  1.00 44.49 LIG-0.37  N 
ATOM     33 21HE GLN B   3     -19.773  -4.539  13.927  1.00 44.49 LIG 0.16  HD
ATOM     34 22HE GLN B   3     -20.295  -3.168  13.672  1.00 44.49 LIG 0.16  HD
ATOM     35 OE1  GLN B   3     -18.921  -2.685  11.665  1.00 47.46 LIG-0.27  OA
ENDBRANCH 30 31
ENDBRANCH 29 30
ENDBRANCH 1 29
BRANCH 1 36
ATOM     36  C   GLN B   3     -14.876  -4.654   9.931  1.00 32.58 LIG 0.24  C 
ATOM     37 O    GLN B   3     -13.992  -5.418  10.334  1.00 27.04 LIG-0.27  OA
ATOM     38  N   ARG B   4     -14.996  -4.262   8.650  1.00 32.15 LIG-0.35  N 
ATOM     39 H    ARG B   4     -15.589  -3.703   8.375  1.00 32.15 LIG 0.16  HD
BRANCH 38 40
ATOM     40  CA  ARG B   4     -14.094  -4.773   7.584  1.00 32.56 LIG 0.18  C 
BRANCH 40 41
ATOM     41  CB  ARG B   4     -14.841  -5.848   6.721  1.00 33.81 LIG 0.04  C 
BRANCH 41 42
ATOM     42  CG  ARG B   4     -13.961  -6.932   6.109  1.00 39.16 LIG 0.02  C 
BRANCH 42 43
ATOM     43  CD  ARG B   4     -13.974  -6.897   4.544  1.00 48.45 LIG 0.14  C 
BRANCH 43 44
ATOM     44  NE  ARG B   4     -13.149  -5.784   4.047  1.00 55.69 LIG-0.23  N 
ATOM     45  CZ  ARG B   4     -11.806  -5.734   4.118  1.00 58.57 LIG 0.67  C 
ATOM     46  NH1 ARG B   4     -11.141  -4.678   3.649  1.00 57.02 LIG-0.23  N 
ATOM     47  NH2 ARG B   4     -11.119  -6.751   4.646  1.00 58.84 LIG-0.23  N 
ATOM     48 2HH1 ARG B   4     -10.283  -4.653   3.698  1.00 57.02 LIG 0.17  HD
ATOM     49 1HH1 ARG B   4     -11.570  -4.021   3.296  1.00 57.02 LIG 0.17  HD
ATOM     50 2HH2 ARG B   4     -10.262  -6.713   4.689  1.00 58.84 LIG 0.17  HD
ATOM     51 1HH2 ARG B   4     -11.535  -7.443   4.943  1.00 58.84 LIG 0.17  HD
ATOM     52 HE   ARG B   4     -13.554  -5.117   3.684  1.00 55.69 LIG 0.18  HD
ENDBRANCH 43 44
ENDBRANCH 42 43
ENDBRANCH 41 42
ENDBRANCH 40 41
BRANCH 40 53
ATOM     53  C   ARG B   4     -13.493  -3.649   6.711  1.00 31.57 LIG 0.24  C 
ATOM     54  N   LEU B   5     -12.629  -2.833   7.297  1.00 29.97 LIG-0.34  N 
ATOM     55 H    LEU B   5     -12.456  -2.825   8.139  1.00 29.97 LIG 0.16  HD
ATOM     56 O    ARG B   4     -13.775  -3.539   5.522  1.00 31.05 LIG-0.27  OA
BRANCH 54 57
ATOM     57  CA  LEU B   5     -11.894  -1.860   6.507  1.00 29.37 LIG 0.18  C 
BRANCH 57 58
ATOM     58  CB  LEU B   5     -11.202  -0.858   7.429  1.00 29.49 LIG 0.04  C 
BRANCH 58 59
ATOM     59  CG  LEU B   5     -11.078   0.588   6.850  1.00 26.43 LIG-0.02  C 
ATOM     60  CD1 LEU B   5     -11.130   1.712   8.006  1.00 22.49 LIG 0.01  C 
ATOM     61  CD2 LEU B   5      -9.876   0.732   5.838  1.00 25.84 LIG 0.01  C 
ENDBRANCH 58 59
ENDBRANCH 57 58
BRANCH 57 62
ATOM     62  C   LEU B   5     -10.899  -2.601   5.572  1.00 31.79 LIG 0.20  C 
ATOM     63 O    LEU B   5     -10.208  -3.577   5.967  1.00 32.21 LIG-0.65  OA
ATOM     64 OXT  LEU B   5     -10.771  -2.206   4.406  1.00 32.71 LIG-0.65  OA
ENDBRANCH 57 62
ENDBRANCH 54 57
ENDBRANCH 40 53
ENDBRANCH 38 40
ENDBRANCH 1 36
TORSDOF 24
ENDMDL
MODEL 10
USER: ADFR SOLUTION from run 82
USER: SCORE 20.333990 LL:  -5.201 LR: -15.620 RR:   0.000 FEB:  -8.460
USER: RMSD 10.741138
USER: SEED 81
USER: STATUS no improvement in best in 5 clusters for 5 generations
USER: GENES 26
USER: genes 0 Translation |==|  0.42142 0.53718 0.67083
USER: genes 1 Rotation |==|  0.76266 0.24820 0.84265 0.51414
USER: genes 2 Torsion [C]-CA--N-[C] |==|  0.78924
USER: genes 3 Torsion [N]-C--CA-[N] |==|  0.42081
USER: genes 4 Torsion [C]-CA--CB-[CG] |==|  0.74486
USER: genes 5 Torsion [CA]-CB--CG-[CD2] |==|  0.70405
USER: genes 6 Torsion [CE2]-CZ--OH-[HH] |==|  0.01409
USER: genes 7 Torsion [C]-CA--N-[C] |==|  0.59645
USER: genes 8 Torsion [N]-C--CA-[N] |==|  0.20166
USER: genes 9 Torsion [C]-CA--CB-[CG] |==|  0.26815
USER: genes 10 Torsion [CA]-CB--CG-[OD1] |==|  0.77081
USER: genes 11 Torsion [C]-CA--N-[H1] |==|  0.01147
USER: genes 12 Torsion [N]-CA--CB-[CG] |==|  0.78409
USER: genes 13 Torsion [CA]-CB--CG-[CD] |==|  0.26373
USER: genes 14 Torsion [CB]-CG--CD-[OE1] |==|  0.90589
USER: genes 15 Torsion [N]-CA--C-[N] |==|  0.86158
USER: genes 16 Torsion [C]-N--CA-[C] |==|  0.72782
USER: genes 17 Torsion [N]-CA--CB-[CG] |==|  0.39649
USER: genes 18 Torsion [CA]-CB--CG-[CD] |==|  0.54003
USER: genes 19 Torsion [CB]-CG--CD-[NE] |==|  0.39726
USER: genes 20 Torsion [CG]-CD--NE-[CZ] |==|  0.44366
USER: genes 21 Torsion [N]-CA--C-[N] |==|  0.39078
USER: genes 22 Torsion [C]-N--CA-[CB] |==|  0.22338
USER: genes 23 Torsion [N]-CA--CB-[CG] |==|  0.40702
USER: genes 24 Torsion [CA]-CB--CG-[CD1] |==|  0.34845
USER: genes 25 Torsion [N]-CA--C-[O] |==|  0.43092
ROOT
ATOM      1  CA  GLN B   3     -15.248  -4.634  10.226  1.00 33.56 LIG 0.18  C 
ENDROOT
BRANCH 1 2
ATOM      2  N   GLN B   3     -15.551  -3.239  10.022  1.00 33.33 LIG-0.35  N 
ATOM      3  C   TYR B   2     -14.636  -2.289  10.198  1.00 35.73 LIG 0.24  C 
ATOM      4 O    TYR B   2     -13.541  -2.511  10.722  1.00 36.38 LIG-0.27  OA
ATOM      5 H    GLN B   3     -16.362  -3.084   9.780  1.00 33.33 LIG 0.16  HD
BRANCH 3 6
ATOM      6  CA  TYR B   2     -14.977  -0.873   9.739  1.00 35.98 LIG 0.18  C 
BRANCH 6 7
ATOM      7  CB  TYR B   2     -14.589  -0.643   8.264  1.00 34.22 LIG 0.07  C 
BRANCH 7 8
ATOM      8  CG  TYR B   2     -13.207  -0.087   8.144  1.00 30.67 LIG-0.06  A 
ATOM      9  CD2 TYR B   2     -12.976   1.258   7.800  1.00 29.09 LIG 0.01  A 
ATOM     10  CE2 TYR B   2     -11.637   1.742   7.630  1.00 27.51 LIG 0.04  A 
ATOM     11  CZ  TYR B   2     -10.615   0.869   7.837  1.00 25.86 LIG 0.07  A 
ATOM     12  CE1 TYR B   2     -10.851  -0.466   8.216  1.00 26.16 LIG 0.04  A 
ATOM     13  CD1 TYR B   2     -12.114  -0.918   8.354  1.00 21.15 LIG 0.01  A 
BRANCH 11 14
ATOM     14 OH   TYR B   2      -9.306   1.256   7.757  1.00 29.83 LIG-0.36  OA
ATOM     15 HH   TYR B   2      -9.266   2.087   7.639  1.00 29.83 LIG 0.22  HD
ENDBRANCH 11 14
ENDBRANCH 7 8
ENDBRANCH 6 7
BRANCH 6 16
ATOM     16  N   TYR B   2     -14.234   0.067  10.583  1.00 39.83 LIG-0.35  N 
ATOM     17  C   ASP B   1     -14.745   1.243  10.931  1.00 42.84 LIG 0.25  C 
ATOM     18 O    ASP B   1     -15.816   1.669  10.458  1.00 42.82 LIG-0.27  OA
ATOM     19 H    TYR B   2     -13.456  -0.209  10.824  1.00 39.83 LIG 0.16  HD
BRANCH 17 20
ATOM     20  CA  ASP B   1     -13.887   2.085  11.916  1.00 44.92 LIG 0.28  C 
BRANCH 20 21
ATOM     21  CB  ASP B   1     -14.767   3.191  12.505  1.00 46.02 LIG 0.15  C 
BRANCH 21 22
ATOM     22  CG  ASP B   1     -15.345   2.809  13.867  1.00 51.60 LIG 0.17  C 
ATOM     23 OD1  ASP B   1     -16.400   2.085  13.939  1.00 55.22 LIG-0.65  OA
ATOM     24 OD2  ASP B   1     -14.712   3.232  14.871  1.00 56.25 LIG-0.65  OA
ENDBRANCH 21 22
ENDBRANCH 20 21
BRANCH 20 25
ATOM     25  N   ASP B   1     -12.649   2.681  11.264  1.00 44.71 LIG-0.07  N 
ATOM     26 H1   ASP B   1     -12.652   2.492  10.394  1.00 44.71 LIG 0.28  HD
ATOM     27 H2   ASP B   1     -12.650   3.563  11.376  1.00 44.71 LIG 0.28  HD
ATOM     28 H3   ASP B   1     -11.920   2.335  11.639  1.00 44.71 LIG 0.28  HD
ENDBRANCH 20 25
ENDBRANCH 17 20
ENDBRANCH 6 16
ENDBRANCH 3 6
ENDBRANCH 1 2
BRANCH 1 29
ATOM     29  CB  GLN B   3     -16.528  -5.453  10.335  1.00 34.45 LIG 0.04  C 
BRANCH 29 30
ATOM     30  CG  GLN B   3     -17.258  -5.373  11.687  1.00 38.50 LIG 0.10  C 
BRANCH 30 31
ATOM     31  CD  GLN B   3     -18.388  -4.315  11.733  1.00 47.01 LIG 0.21  C 
ATOM     32  NE2 GLN B   3     -19.490  -4.614  12.462  1.00 44.49 LIG-0.37  N 
ATOM     33 21HE GLN B   3     -19.532  -5.357  12.892  1.00 44.49 LIG 0.16  HD
ATOM     34 22HE GLN B   3     -20.148  -4.061  12.493  1.00 44.49 LIG 0.16  HD
ATOM     35 OE1  GLN B   3     -18.274  -3.250  11.087  1.00 47.46 LIG-0.27  OA
ENDBRANCH 30 31
ENDBRANCH 29 30
ENDBRANCH 1 29
BRANCH 1 36
ATOM     36  C   GLN B   3     -14.431  -5.097   9.006  1.00 32.58 LIG 0.24  C 
ATOM     37 O    GLN B   3     -13.359  -5.689   9.178  1.00 27.04 LIG-0.27  OA
ATOM     38  N   ARG B   4     -14.932  -4.797   7.795  1.00 32.15 LIG-0.35  N 
ATOM     39 H    ARG B   4     -15.659  -4.355   7.675  1.00 32.15 LIG 0.16  HD
BRANCH 38 40
ATOM     40  CA  ARG B   4     -14.255  -5.216   6.539  1.00 32.56 LIG 0.18  C 
BRANCH 40 41
ATOM     41  CB  ARG B   4     -15.311  -5.773   5.522  1.00 33.81 LIG 0.04  C 
BRANCH 41 42
ATOM     42  CG  ARG B   4     -15.062  -5.429   4.057  1.00 39.16 LIG 0.02  C 
BRANCH 42 43
ATOM     43  CD  ARG B   4     -16.316  -5.698   3.161  1.00 48.45 LIG 0.14  C 
BRANCH 43 44
ATOM     44  NE  ARG B   4     -16.435  -4.665   2.118  1.00 55.69 LIG-0.23  N 
ATOM     45  CZ  ARG B   4     -17.139  -4.804   0.979  1.00 58.57 LIG 0.67  C 
ATOM     46  NH1 ARG B   4     -17.184  -3.816   0.085  1.00 57.02 LIG-0.23  N 
ATOM     47  NH2 ARG B   4     -17.819  -5.929   0.738  1.00 58.84 LIG-0.23  N 
ATOM     48 2HH1 ARG B   4     -17.636  -3.913  -0.641  1.00 57.02 LIG 0.17  HD
ATOM     49 1HH1 ARG B   4     -16.760  -3.082   0.233  1.00 57.02 LIG 0.17  HD
ATOM     50 2HH2 ARG B   4     -18.267  -6.012   0.009  1.00 58.84 LIG 0.17  HD
ATOM     51 1HH2 ARG B   4     -17.808  -6.569   1.312  1.00 58.84 LIG 0.17  HD
ATOM     52 HE   ARG B   4     -16.026  -3.920   2.245  1.00 55.69 LIG 0.18  HD
ENDBRANCH 43 44
ENDBRANCH 42 43
ENDBRANCH 41 42
ENDBRANCH 40 41
BRANCH 40 53
ATOM     53  C   ARG B   4     -13.390  -4.097   5.918  1.00 31.57 LIG 0.24  C 
ATOM     54  N   LEU B   5     -12.230  -4.460   5.390  1.00 29.97 LIG-0.34  N 
ATOM     55 H    LEU B   5     -11.887  -5.246   5.454  1.00 29.97 LIG 0.16  HD
ATOM     56 O    ARG B   4     -13.775  -2.932   5.882  1.00 31.05 LIG-0.27  OA
BRANCH 54 57
ATOM     57  CA  LEU B   5     -11.439  -3.501   4.640  1.00 29.37 LIG 0.18  C 
BRANCH 57 58
ATOM     58  CB  LEU B   5     -10.659  -2.605   5.601  1.00 29.49 LIG 0.04  C 
BRANCH 58 59
ATOM     59  CG  LEU B   5      -9.260  -2.145   5.078  1.00 26.43 LIG-0.02  C 
ATOM     60  CD1 LEU B   5      -9.099  -0.540   5.106  1.00 22.49 LIG 0.01  C 
ATOM     61  CD2 LEU B   5      -8.074  -2.942   5.747  1.00 25.84 LIG 0.01  C 
ENDBRANCH 58 59
ENDBRANCH 57 58
BRANCH 57 62
ATOM     62  C   LEU B   5     -10.516  -4.258   3.645  1.00 31.79 LIG 0.20  C 
ATOM     63 O    LEU B   5     -10.082  -3.721   2.591  1.00 32.21 LIG-0.65  OA
ATOM     64 OXT  LEU B   5     -10.213  -5.432   3.891  1.00 32.71 LIG-0.65  OA
ENDBRANCH 57 62
ENDBRANCH 54 57
ENDBRANCH 40 53
ENDBRANCH 38 40
ENDBRANCH 1 36
TORSDOF 24
ENDMDL
MODEL 11
USER: ADFR SOLUTION from run 34
USER: SCORE 18.526337 LL:  -4.516 LR: -15.591 RR:   0.000 FEB:  -8.431
USER: RMSD 10.059486
USER: SEED 33
USER: STATUS no improvement in best in 12 clusters for 5 generations
USER: GENES 26
USER: genes 0 Translation |==|  0.53881 0.65737 0.51708
USER: genes 1 Rotation |==|  0.91319 0.71337 0.53209 0.68088
USER: genes 2 Torsion [C]-CA--N-[C] |==|  0.22354
USER: genes 3 Torsion [N]-C--CA-[N] |==|  0.47767
USER: genes 4 Torsion [C]-CA--CB-[CG] |==|  0.17046
USER: genes 5 Torsion [CA]-CB--CG-[CD2] |==|  0.69376
USER: genes 6 Torsion [CE2]-CZ--OH-[HH] |==|  0.07531
USER: genes 7 Torsion [C]-CA--N-[C] |==|  0.61662
USER: genes 8 Torsion [N]-C--CA-[N] |==|  0.98637
USER: genes 9 Torsion [C]-CA--CB-[CG] |==|  0.80709
USER: genes 10 Torsion [CA]-CB--CG-[OD1] |==|  0.94048
USER: genes 11 Torsion [C]-CA--N-[H1] |==|  0.92167
USER: genes 12 Torsion [N]-CA--CB-[CG] |==|  0.77121
USER: genes 13 Torsion [CA]-CB--CG-[CD] |==|  0.71096
USER: genes 14 Torsion [CB]-CG--CD-[OE1] |==|  0.10052
USER: genes 15 Torsion [N]-CA--C-[N] |==|  0.32006
USER: genes 16 Torsion [C]-N--CA-[C] |==|  0.65398
USER: genes 17 Torsion [N]-CA--CB-[CG] |==|  0.21906
USER: genes 18 Torsion [CA]-CB--CG-[CD] |==|  0.58160
USER: genes 19 Torsion [CB]-CG--CD-[NE] |==|  0.37183
USER: genes 20 Torsion [CG]-CD--NE-[CZ] |==|  0.31347
USER: genes 21 Torsion [N]-CA--C-[N] |==|  0.95287
USER: genes 22 Torsion [C]-N--CA-[CB] |==|  0.33019
USER: genes 23 Torsion [N]-CA--CB-[CG] |==|  0.71604
USER: genes 24 Torsion [CA]-CB--CG-[CD1] |==|  0.19972
USER: genes 25 Torsion [N]-CA--C-[O] |==|  0.02052
ROOT
ATOM      1  CA  GLN B   3     -13.047  -2.110   6.536  1.00 33.56 LIG 0.18  C 
ENDROOT
BRANCH 1 2
ATOM      2  N   GLN B   3     -14.236  -1.843   7.308  1.00 33.33 LIG-0.35  N 
ATOM      3  C   TYR B   2     -14.244  -1.927   8.636  1.00 35.73 LIG 0.24  C 
ATOM      4 O    TYR B   2     -13.307  -2.413   9.276  1.00 36.38 LIG-0.27  OA
ATOM      5 H    GLN B   3     -14.924  -1.630   6.838  1.00 33.33 LIG 0.16  HD
BRANCH 3 6
ATOM      6  CA  TYR B   2     -15.473  -1.406   9.378  1.00 35.98 LIG 0.18  C 
BRANCH 6 7
ATOM      7  CB  TYR B   2     -15.598   0.128   9.268  1.00 34.22 LIG 0.07  C 
BRANCH 7 8
ATOM      8  CG  TYR B   2     -15.754   0.561   7.845  1.00 30.67 LIG-0.06  A 
ATOM      9  CD2 TYR B   2     -14.736   1.255   7.165  1.00 29.09 LIG 0.01  A 
ATOM     10  CE2 TYR B   2     -14.944   1.713   5.823  1.00 27.51 LIG 0.04  A 
ATOM     11  CZ  TYR B   2     -16.136   1.430   5.233  1.00 25.86 LIG 0.07  A 
ATOM     12  CE1 TYR B   2     -17.138   0.705   5.905  1.00 26.16 LIG 0.04  A 
ATOM     13  CD1 TYR B   2     -16.941   0.296   7.175  1.00 21.15 LIG 0.01  A 
BRANCH 11 14
ATOM     14 OH   TYR B   2     -16.400   1.774   3.936  1.00 29.83 LIG-0.36  OA
ATOM     15 HH   TYR B   2     -15.681   1.809   3.503  1.00 29.83 LIG 0.22  HD
ENDBRANCH 11 14
ENDBRANCH 7 8
ENDBRANCH 6 7
BRANCH 6 16
ATOM     16  N   TYR B   2     -15.339  -1.776  10.790  1.00 39.83 LIG-0.35  N 
ATOM     17  C   ASP B   1     -16.371  -2.233  11.490  1.00 42.84 LIG 0.25  C 
ATOM     18 O    ASP B   1     -17.530  -2.248  11.034  1.00 42.82 LIG-0.27  OA
ATOM     19 H    TYR B   2     -14.548  -1.671  11.112  1.00 39.83 LIG 0.16  HD
BRANCH 17 20
ATOM     20  CA  ASP B   1     -16.052  -2.687  12.942  1.00 44.92 LIG 0.28  C 
BRANCH 20 21
ATOM     21  CB  ASP B   1     -16.845  -1.808  13.913  1.00 46.02 LIG 0.15  C 
BRANCH 21 22
ATOM     22  CG  ASP B   1     -16.331  -0.369  13.943  1.00 51.60 LIG 0.17  C 
ATOM     23 OD1  ASP B   1     -15.139  -0.102  13.556  1.00 55.22 LIG-0.65  OA
ATOM     24 OD2  ASP B   1     -17.150   0.498  14.347  1.00 56.25 LIG-0.65  OA
ENDBRANCH 21 22
ENDBRANCH 20 21
BRANCH 20 25
ATOM     25  N   ASP B   1     -14.567  -2.634  13.267  1.00 44.71 LIG-0.07  N 
ATOM     26 H1   ASP B   1     -14.096  -2.752  12.522  1.00 44.71 LIG 0.28  HD
ATOM     27 H2   ASP B   1     -14.369  -1.841  13.621  1.00 44.71 LIG 0.28  HD
ATOM     28 H3   ASP B   1     -14.368  -3.276  13.849  1.00 44.71 LIG 0.28  HD
ENDBRANCH 20 25
ENDBRANCH 17 20
ENDBRANCH 6 16
ENDBRANCH 3 6
ENDBRANCH 1 2
BRANCH 1 29
ATOM     29  CB  GLN B   3     -11.814  -1.549   7.233  1.00 34.45 LIG 0.04  C 
BRANCH 29 30
ATOM     30  CG  GLN B   3     -11.546  -0.051   7.008  1.00 38.50 LIG 0.10  C 
BRANCH 30 31
ATOM     31  CD  GLN B   3     -10.396   0.243   6.012  1.00 47.01 LIG 0.21  C 
ATOM     32  NE2 GLN B   3      -9.627   1.332   6.255  1.00 44.49 LIG-0.37  N 
ATOM     33 21HE GLN B   3      -9.773   1.815   6.951  1.00 44.49 LIG 0.16  HD
ATOM     34 22HE GLN B   3      -8.993   1.540   5.713  1.00 44.49 LIG 0.16  HD
ATOM     35 OE1  GLN B   3     -10.229  -0.494   5.016  1.00 47.46 LIG-0.27  OA
ENDBRANCH 30 31
ENDBRANCH 29 30
ENDBRANCH 1 29
BRANCH 1 36
ATOM     36  C   GLN B   3     -12.929  -3.641   6.412  1.00 32.58 LIG 0.24  C 
ATOM     37 O    GLN B   3     -12.715  -4.321   7.421  1.00 27.04 LIG-0.27  OA
ATOM     38  N   ARG B   4     -13.041  -4.155   5.175  1.00 32.15 LIG-0.35  N 
ATOM     39 H    ARG B   4     -13.155  -3.680   4.467  1.00 32.15 LIG 0.16  HD
BRANCH 38 40
ATOM     40  CA  ARG B   4     -12.978  -5.620   4.924  1.00 32.56 LIG 0.18  C 
BRANCH 40 41
ATOM     41  CB  ARG B   4     -14.392  -6.154   4.512  1.00 33.81 LIG 0.04  C 
BRANCH 41 42
ATOM     42  CG  ARG B   4     -14.799  -5.901   3.065  1.00 39.16 LIG 0.02  C 
BRANCH 42 43
ATOM     43  CD  ARG B   4     -16.349  -5.760   2.896  1.00 48.45 LIG 0.14  C 
BRANCH 43 44
ATOM     44  NE  ARG B   4     -16.672  -4.597   2.053  1.00 55.69 LIG-0.23  N 
ATOM     45  CZ  ARG B   4     -17.223  -4.669   0.828  1.00 58.57 LIG 0.67  C 
ATOM     46  NH1 ARG B   4     -17.473  -3.560   0.130  1.00 57.02 LIG-0.23  N 
ATOM     47  NH2 ARG B   4     -17.542  -5.853   0.298  1.00 58.84 LIG-0.23  N 
ATOM     48 2HH1 ARG B   4     -17.825  -3.614  -0.652  1.00 57.02 LIG 0.17  HD
ATOM     49 1HH1 ARG B   4     -17.283  -2.790   0.464  1.00 57.02 LIG 0.17  HD
ATOM     50 2HH2 ARG B   4     -17.893  -5.893  -0.485  1.00 58.84 LIG 0.17  HD
ATOM     51 1HH2 ARG B   4     -17.396  -6.576   0.742  1.00 58.84 LIG 0.17  HD
ATOM     52 HE   ARG B   4     -16.497  -3.815   2.366  1.00 55.69 LIG 0.18  HD
ENDBRANCH 43 44
ENDBRANCH 42 43
ENDBRANCH 41 42
ENDBRANCH 40 41
BRANCH 40 53
ATOM     53  C   ARG B   4     -11.891  -6.010   3.897  1.00 31.57 LIG 0.24  C 
ATOM     54  N   LEU B   5     -11.415  -5.040   3.131  1.00 29.97 LIG-0.34  N 
ATOM     55 H    LEU B   5     -11.731  -4.241   3.099  1.00 29.97 LIG 0.16  HD
ATOM     56 O    ARG B   4     -11.465  -7.158   3.819  1.00 31.05 LIG-0.27  OA
BRANCH 54 57
ATOM     57  CA  LEU B   5     -10.278  -5.289   2.262  1.00 29.37 LIG 0.18  C 
BRANCH 57 58
ATOM     58  CB  LEU B   5     -10.679  -5.067   0.805  1.00 29.49 LIG 0.04  C 
BRANCH 58 59
ATOM     59  CG  LEU B   5     -10.942  -6.376  -0.008  1.00 26.43 LIG-0.02  C 
ATOM     60  CD1 LEU B   5     -12.313  -7.101   0.434  1.00 22.49 LIG 0.01  C 
ATOM     61  CD2 LEU B   5     -10.775  -6.164  -1.563  1.00 25.84 LIG 0.01  C 
ENDBRANCH 58 59
ENDBRANCH 57 58
BRANCH 57 62
ATOM     62  C   LEU B   5      -9.088  -4.391   2.699  1.00 31.79 LIG 0.20  C 
ATOM     63 O    LEU B   5      -9.123  -3.695   3.749  1.00 32.21 LIG-0.65  OA
ATOM     64 OXT  LEU B   5      -8.080  -4.348   1.983  1.00 32.71 LIG-0.65  OA
ENDBRANCH 57 62
ENDBRANCH 54 57
ENDBRANCH 40 53
ENDBRANCH 38 40
ENDBRANCH 1 36
TORSDOF 24
ENDMDL
MODEL 12
USER: ADFR SOLUTION from run 188
USER: SCORE 19.608750 LL:  -4.807 LR: -15.575 RR:   0.000 FEB:  -8.416
USER: RMSD 11.044486
USER: SEED 187
USER: STATUS no improvement in best in 8 clusters for 5 generations
USER: GENES 26
USER: genes 0 Translation |==|  0.49824 0.48588 0.44061
USER: genes 1 Rotation |==|  0.46793 0.84733 0.14673 0.55946
USER: genes 2 Torsion [C]-CA--N-[C] |==|  0.64766
USER: genes 3 Torsion [N]-C--CA-[N] |==|  0.45556
USER: genes 4 Torsion [C]-CA--CB-[CG] |==|  0.39937
USER: genes 5 Torsion [CA]-CB--CG-[CD2] |==|  0.18029
USER: genes 6 Torsion [CE2]-CZ--OH-[HH] |==|  0.95293
USER: genes 7 Torsion [C]-CA--N-[C] |==|  0.70706
USER: genes 8 Torsion [N]-C--CA-[N] |==|  0.90965
USER: genes 9 Torsion [C]-CA--CB-[CG] |==|  0.49036
USER: genes 10 Torsion [CA]-CB--CG-[OD1] |==|  0.60112
USER: genes 11 Torsion [C]-CA--N-[H1] |==|  0.32791
USER: genes 12 Torsion [N]-CA--CB-[CG] |==|  0.55713
USER: genes 13 Torsion [CA]-CB--CG-[CD] |==|  0.32097
USER: genes 14 Torsion [CB]-CG--CD-[OE1] |==|  0.01851
USER: genes 15 Torsion [N]-CA--C-[N] |==|  0.87104
USER: genes 16 Torsion [C]-N--CA-[C] |==|  0.57861
USER: genes 17 Torsion [N]-CA--CB-[CG] |==|  0.17590
USER: genes 18 Torsion [CA]-CB--CG-[CD] |==|  0.20601
USER: genes 19 Torsion [CB]-CG--CD-[NE] |==|  0.41699
USER: genes 20 Torsion [CG]-CD--NE-[CZ] |==|  0.84885
USER: genes 21 Torsion [N]-CA--C-[N] |==|  0.45793
USER: genes 22 Torsion [C]-N--CA-[CB] |==|  0.17504
USER: genes 23 Torsion [N]-CA--CB-[CG] |==|  0.63805
USER: genes 24 Torsion [CA]-CB--CG-[CD1] |==|  0.55173
USER: genes 25 Torsion [N]-CA--C-[O] |==|  0.51664
ROOT
ATOM      1  CA  GLN B   3     -13.808  -5.712   4.701  1.00 33.56 LIG 0.18  C 
ENDROOT
BRANCH 1 2
ATOM      2  N   GLN B   3     -13.469  -4.367   5.099  1.00 33.33 LIG-0.35  N 
ATOM      3  C   TYR B   2     -13.802  -3.883   6.293  1.00 35.73 LIG 0.24  C 
ATOM      4 O    TYR B   2     -14.574  -4.472   7.056  1.00 36.38 LIG-0.27  OA
ATOM      5 H    GLN B   3     -13.041  -3.918   4.503  1.00 33.33 LIG 0.16  HD
BRANCH 3 6
ATOM      6  CA  TYR B   2     -13.205  -2.542   6.713  1.00 35.98 LIG 0.18  C 
BRANCH 6 7
ATOM      7  CB  TYR B   2     -11.729  -2.683   7.139  1.00 34.22 LIG 0.07  C 
BRANCH 7 8
ATOM      8  CG  TYR B   2     -10.926  -1.493   6.723  1.00 30.67 LIG-0.06  A 
ATOM      9  CD2 TYR B   2     -11.167  -0.212   7.253  1.00 29.09 LIG 0.01  A 
ATOM     10  CE2 TYR B   2     -10.421   0.919   6.783  1.00 27.51 LIG 0.04  A 
ATOM     11  CZ  TYR B   2      -9.468   0.702   5.838  1.00 25.86 LIG 0.07  A 
ATOM     12  CE1 TYR B   2      -9.205  -0.587   5.337  1.00 26.16 LIG 0.04  A 
ATOM     13  CD1 TYR B   2      -9.926  -1.641   5.769  1.00 21.15 LIG 0.01  A 
BRANCH 11 14
ATOM     14 OH   TYR B   2      -8.667   1.709   5.376  1.00 29.83 LIG-0.36  OA
ATOM     15 HH   TYR B   2      -9.006   2.451   5.576  1.00 29.83 LIG 0.22  HD
ENDBRANCH 11 14
ENDBRANCH 7 8
ENDBRANCH 6 7
BRANCH 6 16
ATOM     16  N   TYR B   2     -13.985  -2.035   7.845  1.00 39.83 LIG-0.35  N 
ATOM     17  C   ASP B   1     -14.849  -1.036   7.704  1.00 42.84 LIG 0.25  C 
ATOM     18 O    ASP B   1     -14.948  -0.388   6.644  1.00 42.82 LIG-0.27  OA
ATOM     19 H    TYR B   2     -13.834  -2.437   8.591  1.00 39.83 LIG 0.16  HD
BRANCH 17 20
ATOM     20  CA  ASP B   1     -15.681  -0.680   8.967  1.00 44.92 LIG 0.28  C 
BRANCH 20 21
ATOM     21  CB  ASP B   1     -14.922   0.381   9.768  1.00 46.02 LIG 0.15  C 
BRANCH 21 22
ATOM     22  CG  ASP B   1     -15.707   0.857  10.989  1.00 51.60 LIG 0.17  C 
ATOM     23 OD1  ASP B   1     -15.650   2.085  11.353  1.00 55.22 LIG-0.65  OA
ATOM     24 OD2  ASP B   1     -16.400  -0.018  11.572  1.00 56.25 LIG-0.65  OA
ENDBRANCH 21 22
ENDBRANCH 20 21
BRANCH 20 25
ATOM     25  N   ASP B   1     -15.983  -1.889   9.838  1.00 44.71 LIG-0.07  N 
ATOM     26 H1   ASP B   1     -15.613  -1.778  10.639  1.00 44.71 LIG 0.28  HD
ATOM     27 H2   ASP B   1     -16.864  -1.978   9.928  1.00 44.71 LIG 0.28  HD
ATOM     28 H3   ASP B   1     -15.649  -2.620   9.456  1.00 44.71 LIG 0.28  HD
ENDBRANCH 20 25
ENDBRANCH 17 20
ENDBRANCH 6 16
ENDBRANCH 3 6
ENDBRANCH 1 2
BRANCH 1 29
ATOM     29  CB  GLN B   3     -14.818  -5.698   3.560  1.00 34.45 LIG 0.04  C 
BRANCH 29 30
ATOM     30  CG  GLN B   3     -15.625  -6.993   3.369  1.00 38.50 LIG 0.10  C 
BRANCH 30 31
ATOM     31  CD  GLN B   3     -17.146  -6.833   3.617  1.00 47.01 LIG 0.21  C 
ATOM     32  NE2 GLN B   3     -17.905  -7.954   3.569  1.00 44.49 LIG-0.37  N 
ATOM     33 21HE GLN B   3     -17.536  -8.717   3.427  1.00 44.49 LIG 0.16  HD
ATOM     34 22HE GLN B   3     -18.756  -7.902   3.680  1.00 44.49 LIG 0.16  HD
ATOM     35 OE1  GLN B   3     -17.630  -5.698   3.820  1.00 47.46 LIG-0.27  OA
ENDBRANCH 30 31
ENDBRANCH 29 30
ENDBRANCH 1 29
BRANCH 1 36
ATOM     36  C   GLN B   3     -12.502  -6.383   4.238  1.00 32.58 LIG 0.24  C 
ATOM     37 O    GLN B   3     -12.214  -7.511   4.655  1.00 27.04 LIG-0.27  OA
ATOM     38  N   ARG B   4     -11.720  -5.672   3.408  1.00 32.15 LIG-0.35  N 
ATOM     39 H    ARG B   4     -11.902  -4.874   3.145  1.00 32.15 LIG 0.16  HD
BRANCH 38 40
ATOM     40  CA  ARG B   4     -10.449  -6.220   2.863  1.00 32.56 LIG 0.18  C 
BRANCH 40 41
ATOM     41  CB  ARG B   4     -10.746  -7.124   1.618  1.00 33.81 LIG 0.04  C 
BRANCH 41 42
ATOM     42  CG  ARG B   4     -11.368  -6.415   0.419  1.00 39.16 LIG 0.02  C 
BRANCH 42 43
ATOM     43  CD  ARG B   4     -10.334  -5.526  -0.350  1.00 48.45 LIG 0.14  C 
BRANCH 43 44
ATOM     44  NE  ARG B   4     -10.685  -5.447  -1.778  1.00 55.69 LIG-0.23  N 
ATOM     45  CZ  ARG B   4     -10.875  -6.510  -2.580  1.00 58.57 LIG 0.67  C 
ATOM     46  NH1 ARG B   4     -11.182  -6.343  -3.867  1.00 57.02 LIG-0.23  N 
ATOM     47  NH2 ARG B   4     -10.775  -7.751  -2.093  1.00 58.84 LIG-0.23  N 
ATOM     48 2HH1 ARG B   4     -11.302  -7.028  -4.373  1.00 57.02 LIG 0.17  HD
ATOM     49 1HH1 ARG B   4     -11.260  -5.550  -4.190  1.00 57.02 LIG 0.17  HD
ATOM     50 2HH2 ARG B   4     -10.897  -8.426  -2.610  1.00 58.84 LIG 0.17  HD
ATOM     51 1HH2 ARG B   4     -10.588  -7.872  -1.262  1.00 58.84 LIG 0.17  HD
ATOM     52 HE   ARG B   4     -10.775  -4.665  -2.124  1.00 55.69 LIG 0.18  HD
ENDBRANCH 43 44
ENDBRANCH 42 43
ENDBRANCH 41 42
ENDBRANCH 40 41
BRANCH 40 53
ATOM     53  C   ARG B   4      -9.406  -5.125   2.546  1.00 31.57 LIG 0.24  C 
ATOM     54  N   LEU B   5      -8.157  -5.524   2.356  1.00 29.97 LIG-0.34  N 
ATOM     55 H    LEU B   5      -7.873  -6.325   2.489  1.00 29.97 LIG 0.16  HD
ATOM     56 O    ARG B   4      -9.727  -3.945   2.440  1.00 31.05 LIG-0.27  OA
BRANCH 54 57
ATOM     57  CA  LEU B   5      -7.155  -4.583   1.888  1.00 29.37 LIG 0.18  C 
BRANCH 57 58
ATOM     58  CB  LEU B   5      -6.964  -3.472   2.920  1.00 29.49 LIG 0.04  C 
BRANCH 58 59
ATOM     59  CG  LEU B   5      -7.022  -2.022   2.339  1.00 26.43 LIG-0.02  C 
ATOM     60  CD1 LEU B   5      -6.354  -0.943   3.335  1.00 22.49 LIG 0.01  C 
ATOM     61  CD2 LEU B   5      -6.518  -1.948   0.846  1.00 25.84 LIG 0.01  C 
ENDBRANCH 58 59
ENDBRANCH 57 58
BRANCH 57 62
ATOM     62  C   LEU B   5      -5.837  -5.344   1.577  1.00 31.79 LIG 0.20  C 
ATOM     63 O    LEU B   5      -4.775  -4.745   1.261  1.00 32.21 LIG-0.65  OA
ATOM     64 OXT  LEU B   5      -5.838  -6.581   1.626  1.00 32.71 LIG-0.65  OA
ENDBRANCH 57 62
ENDBRANCH 54 57
ENDBRANCH 40 53
ENDBRANCH 38 40
ENDBRANCH 1 36
TORSDOF 24
ENDMDL
MODEL 13
USER: ADFR SOLUTION from run 92
USER: SCORE 19.959763 LL:  -5.041 LR: -15.513 RR:   0.000 FEB:  -8.354
USER: RMSD 5.794124
USER: SEED 91
USER: STATUS 1 or 2 clusters left
USER: GENES 26
USER: genes 0 Translation |==|  0.43384 0.49370 0.39591
USER: genes 1 Rotation |==|  0.40592 0.76121 0.84589 0.73082
USER: genes 2 Torsion [C]-CA--N-[C] |==|  0.57778
USER: genes 3 Torsion [N]-C--CA-[N] |==|  0.37552
USER: genes 4 Torsion [C]-CA--CB-[CG] |==|  0.87321
USER: genes 5 Torsion [CA]-CB--CG-[CD2] |==|  0.77280
USER: genes 6 Torsion [CE2]-CZ--OH-[HH] |==|  0.21910
USER: genes 7 Torsion [C]-CA--N-[C] |==|  0.83570
USER: genes 8 Torsion [N]-C--CA-[N] |==|  0.53742
USER: genes 9 Torsion [C]-CA--CB-[CG] |==|  0.70173
USER: genes 10 Torsion [CA]-CB--CG-[OD1] |==|  0.14293
USER: genes 11 Torsion [C]-CA--N-[H1] |==|  0.86020
USER: genes 12 Torsion [N]-CA--CB-[CG] |==|  0.82119
USER: genes 13 Torsion [CA]-CB--CG-[CD] |==|  0.69234
USER: genes 14 Torsion [CB]-CG--CD-[OE1] |==|  0.97678
USER: genes 15 Torsion [N]-CA--C-[N] |==|  0.32626
USER: genes 16 Torsion [C]-N--CA-[C] |==|  0.69192
USER: genes 17 Torsion [N]-CA--CB-[CG] |==|  0.41196
USER: genes 18 Torsion [CA]-CB--CG-[CD] |==|  0.73843
USER: genes 19 Torsion [CB]-CG--CD-[NE] |==|  0.41668
USER: genes 20 Torsion [CG]-CD--NE-[CZ] |==|  0.48069
USER: genes 21 Torsion [N]-CA--C-[N] |==|  0.31918
USER: genes 22 Torsion [C]-N--CA-[CB] |==|  0.20643
USER: genes 23 Torsion [N]-CA--CB-[CG] |==|  0.63924
USER: genes 24 Torsion [CA]-CB--CG-[CD1] |==|  0.02892
USER: genes 25 Torsion [N]-CA--C-[O] |==|  0.01527
ROOT
ATOM      1  CA  GLN B   3     -15.015  -5.547   3.628  1.00 33.56 LIG 0.18  C 
ENDROOT
BRANCH 1 2
ATOM      2  N   GLN B   3     -14.613  -6.925   3.480  1.00 33.33 LIG-0.35  N 
ATOM      3  C   TYR B   2     -14.194  -7.413   2.316  1.00 35.73 LIG 0.24  C 
ATOM      4 O    TYR B   2     -14.299  -6.786   1.257  1.00 36.38 LIG-0.27  OA
ATOM      5 H    GLN B   3     -14.668  -7.389   4.202  1.00 33.33 LIG 0.16  HD
BRANCH 3 6
ATOM      6  CA  TYR B   2     -13.573  -8.808   2.307  1.00 35.98 LIG 0.18  C 
BRANCH 6 7
ATOM      7  CB  TYR B   2     -12.039  -8.748   2.157  1.00 34.22 LIG 0.07  C 
BRANCH 7 8
ATOM      8  CG  TYR B   2     -11.632  -7.791   1.083  1.00 30.67 LIG-0.06  A 
ATOM      9  CD2 TYR B   2     -11.638  -8.155  -0.276  1.00 29.09 LIG 0.01  A 
ATOM     10  CE2 TYR B   2     -11.180  -7.233  -1.275  1.00 27.51 LIG 0.04  A 
ATOM     11  CZ  TYR B   2     -10.771  -6.003  -0.863  1.00 25.86 LIG 0.07  A 
ATOM     12  CE1 TYR B   2     -10.801  -5.632   0.494  1.00 26.16 LIG 0.04  A 
ATOM     13  CD1 TYR B   2     -11.214  -6.512   1.429  1.00 21.15 LIG 0.01  A 
BRANCH 11 14
ATOM     14 OH   TYR B   2     -10.376  -5.040  -1.749  1.00 29.83 LIG-0.36  OA
ATOM     15 HH   TYR B   2     -11.052  -4.680  -2.092  1.00 29.83 LIG 0.22  HD
ENDBRANCH 11 14
ENDBRANCH 7 8
ENDBRANCH 6 7
BRANCH 6 16
ATOM     16  N   TYR B   2     -14.137  -9.546   1.173  1.00 39.83 LIG-0.35  N 
ATOM     17  C   ASP B   1     -15.444  -9.758   1.062  1.00 42.84 LIG 0.25  C 
ATOM     18 O    ASP B   1     -16.245  -9.462   1.970  1.00 42.82 LIG-0.27  OA
ATOM     19 H    TYR B   2     -13.555  -9.822   0.602  1.00 39.83 LIG 0.16  HD
BRANCH 17 20
ATOM     20  CA  ASP B   1     -15.904 -10.460  -0.246  1.00 44.92 LIG 0.28  C 
BRANCH 20 21
ATOM     21  CB  ASP B   1     -15.159  -9.830  -1.425  1.00 46.02 LIG 0.15  C 
BRANCH 21 22
ATOM     22  CG  ASP B   1     -16.065  -8.943  -2.278  1.00 51.60 LIG 0.17  C 
ATOM     23 OD1  ASP B   1     -16.775  -8.029  -1.727  1.00 55.22 LIG-0.65  OA
ATOM     24 OD2  ASP B   1     -16.043  -9.165  -3.517  1.00 56.25 LIG-0.65  OA
ENDBRANCH 21 22
ENDBRANCH 20 21
BRANCH 20 25
ATOM     25  N   ASP B   1     -17.407 -10.381  -0.463  1.00 44.71 LIG-0.07  N 
ATOM     26 H1   ASP B   1     -17.828 -10.645   0.275  1.00 44.71 LIG 0.28  HD
ATOM     27 H2   ASP B   1     -17.636  -9.542  -0.652  1.00 44.71 LIG 0.28  HD
ATOM     28 H3   ASP B   1     -17.638 -10.910  -1.141  1.00 44.71 LIG 0.28  HD
ENDBRANCH 20 25
ENDBRANCH 17 20
ENDBRANCH 6 16
ENDBRANCH 3 6
ENDBRANCH 1 2
BRANCH 1 29
ATOM     29  CB  GLN B   3     -16.496  -5.381   3.309  1.00 34.45 LIG 0.04  C 
BRANCH 29 30
ATOM     30  CG  GLN B   3     -16.904  -5.685   1.857  1.00 38.50 LIG 0.10  C 
BRANCH 30 31
ATOM     31  CD  GLN B   3     -17.336  -4.436   1.049  1.00 47.01 LIG 0.21  C 
ATOM     32  NE2 GLN B   3     -17.508  -4.590  -0.287  1.00 44.49 LIG-0.37  N 
ATOM     33 21HE GLN B   3     -17.398  -5.362  -0.648  1.00 44.49 LIG 0.16  HD
ATOM     34 22HE GLN B   3     -17.726  -3.915  -0.773  1.00 44.49 LIG 0.16  HD
ATOM     35 OE1  GLN B   3     -17.482  -3.337   1.626  1.00 47.46 LIG-0.27  OA
ENDBRANCH 30 31
ENDBRANCH 29 30
ENDBRANCH 1 29
BRANCH 1 36
ATOM     36  C   GLN B   3     -14.747  -5.157   5.093  1.00 32.58 LIG 0.24  C 
ATOM     37 O    GLN B   3     -15.367  -5.724   6.000  1.00 27.04 LIG-0.27  OA
ATOM     38  N   ARG B   4     -13.849  -4.179   5.301  1.00 32.15 LIG-0.35  N 
ATOM     39 H    ARG B   4     -13.443  -3.760   4.670  1.00 32.15 LIG 0.16  HD
BRANCH 38 40
ATOM     40  CA  ARG B   4     -13.477  -3.732   6.670  1.00 32.56 LIG 0.18  C 
BRANCH 40 41
ATOM     41  CB  ARG B   4     -11.928  -3.866   6.874  1.00 33.81 LIG 0.04  C 
BRANCH 41 42
ATOM     42  CG  ARG B   4     -11.293  -2.839   7.806  1.00 39.16 LIG 0.02  C 
BRANCH 42 43
ATOM     43  CD  ARG B   4     -10.727  -1.602   7.033  1.00 48.45 LIG 0.14  C 
BRANCH 43 44
ATOM     44  NE  ARG B   4     -10.789  -0.395   7.875  1.00 55.69 LIG-0.23  N 
ATOM     45  CZ  ARG B   4     -10.257   0.796   7.545  1.00 58.57 LIG 0.67  C 
ATOM     46  NH1 ARG B   4     -10.354   1.835   8.376  1.00 57.02 LIG-0.23  N 
ATOM     47  NH2 ARG B   4      -9.639   0.960   6.373  1.00 58.84 LIG-0.23  N 
ATOM     48 2HH1 ARG B   4     -10.012   2.593   8.159  1.00 57.02 LIG 0.17  HD
ATOM     49 1HH1 ARG B   4     -10.760   1.746   9.130  1.00 57.02 LIG 0.17  HD
ATOM     50 2HH2 ARG B   4      -9.301   1.723   6.168  1.00 58.84 LIG 0.17  HD
ATOM     51 1HH2 ARG B   4      -9.579   0.301   5.823  1.00 58.84 LIG 0.17  HD
ATOM     52 HE   ARG B   4     -11.194  -0.456   8.631  1.00 55.69 LIG 0.18  HD
ENDBRANCH 43 44
ENDBRANCH 42 43
ENDBRANCH 41 42
ENDBRANCH 40 41
BRANCH 40 53
ATOM     53  C   ARG B   4     -13.981  -2.309   6.999  1.00 31.57 LIG 0.24  C 
ATOM     54  N   LEU B   5     -14.885  -2.201   7.961  1.00 29.97 LIG-0.34  N 
ATOM     55 H    LEU B   5     -15.275  -2.866   8.344  1.00 29.97 LIG 0.16  HD
ATOM     56 O    ARG B   4     -13.539  -1.321   6.420  1.00 31.05 LIG-0.27  OA
BRANCH 54 57
ATOM     57  CA  LEU B   5     -15.283  -0.891   8.445  1.00 29.37 LIG 0.18  C 
BRANCH 57 58
ATOM     58  CB  LEU B   5     -16.186  -0.210   7.417  1.00 29.49 LIG 0.04  C 
BRANCH 58 59
ATOM     59  CG  LEU B   5     -15.769   1.249   7.043  1.00 26.43 LIG-0.02  C 
ATOM     60  CD1 LEU B   5     -14.314   1.633   7.626  1.00 22.49 LIG 0.01  C 
ATOM     61  CD2 LEU B   5     -15.974   1.562   5.511  1.00 25.84 LIG 0.01  C 
ENDBRANCH 58 59
ENDBRANCH 57 58
BRANCH 57 62
ATOM     62  C   LEU B   5     -15.961  -1.037   9.835  1.00 31.79 LIG 0.20  C 
ATOM     63 O    LEU B   5     -16.017  -2.140  10.441  1.00 32.21 LIG-0.65  OA
ATOM     64 OXT  LEU B   5     -16.475  -0.038  10.354  1.00 32.71 LIG-0.65  OA
ENDBRANCH 57 62
ENDBRANCH 54 57
ENDBRANCH 40 53
ENDBRANCH 38 40
ENDBRANCH 1 36
TORSDOF 24
ENDMDL
MODEL 14
USER: ADFR SOLUTION from run 134
USER: SCORE 19.588744 LL:  -5.531 LR: -15.500 RR:   0.000 FEB:  -8.341
USER: RMSD 9.592072
USER: SEED 133
USER: STATUS no improvement in best in 5 clusters for 5 generations
USER: GENES 26
USER: genes 0 Translation |==|  0.52874 0.78882 0.55824
USER: genes 1 Rotation |==|  0.62072 0.93700 0.70020 0.56613
USER: genes 2 Torsion [C]-CA--N-[C] |==|  0.52781
USER: genes 3 Torsion [N]-C--CA-[N] |==|  0.89629
USER: genes 4 Torsion [C]-CA--CB-[CG] |==|  0.25816
USER: genes 5 Torsion [CA]-CB--CG-[CD2] |==|  0.24303
USER: genes 6 Torsion [CE2]-CZ--OH-[HH] |==|  0.64973
USER: genes 7 Torsion [C]-CA--N-[C] |==|  0.79090
USER: genes 8 Torsion [N]-C--CA-[N] |==|  0.56787
USER: genes 9 Torsion [C]-CA--CB-[CG] |==|  0.51875
USER: genes 10 Torsion [CA]-CB--CG-[OD1] |==|  0.00109
USER: genes 11 Torsion [C]-CA--N-[H1] |==|  0.44152
USER: genes 12 Torsion [N]-CA--CB-[CG] |==|  0.06181
USER: genes 13 Torsion [CA]-CB--CG-[CD] |==|  0.57814
USER: genes 14 Torsion [CB]-CG--CD-[OE1] |==|  0.67739
USER: genes 15 Torsion [N]-CA--C-[N] |==|  0.11266
USER: genes 16 Torsion [C]-N--CA-[C] |==|  0.60981
USER: genes 17 Torsion [N]-CA--CB-[CG] |==|  0.96169
USER: genes 18 Torsion [CA]-CB--CG-[CD] |==|  0.74586
USER: genes 19 Torsion [CB]-CG--CD-[NE] |==|  0.03997
USER: genes 20 Torsion [CG]-CD--NE-[CZ] |==|  0.75667
USER: genes 21 Torsion [N]-CA--C-[N] |==|  0.51390
USER: genes 22 Torsion [C]-N--CA-[CB] |==|  0.24087
USER: genes 23 Torsion [N]-CA--CB-[CG] |==|  0.53895
USER: genes 24 Torsion [CA]-CB--CG-[CD1] |==|  0.65832
USER: genes 25 Torsion [N]-CA--C-[O] |==|  0.67712
ROOT
ATOM      1  CA  GLN B   3     -13.236   0.650   7.524  1.00 33.56 LIG 0.18  C 
ENDROOT
BRANCH 1 2
ATOM      2  N   GLN B   3     -13.271  -0.698   8.035  1.00 33.33 LIG-0.35  N 
ATOM      3  C   TYR B   2     -14.401  -1.398   8.095  1.00 35.73 LIG 0.24  C 
ATOM      4 O    TYR B   2     -15.508  -0.888   7.900  1.00 36.38 LIG-0.27  OA
ATOM      5 H    GLN B   3     -12.507  -0.999   8.292  1.00 33.33 LIG 0.16  HD
BRANCH 3 6
ATOM      6  CA  TYR B   2     -14.305  -2.884   8.431  1.00 35.98 LIG 0.18  C 
BRANCH 6 7
ATOM      7  CB  TYR B   2     -14.201  -3.121   9.952  1.00 34.22 LIG 0.07  C 
BRANCH 7 8
ATOM      8  CG  TYR B   2     -15.548  -3.345  10.561  1.00 30.67 LIG-0.06  A 
ATOM      9  CD2 TYR B   2     -16.129  -4.625  10.627  1.00 29.09 LIG 0.01  A 
ATOM     10  CE2 TYR B   2     -17.450  -4.795  11.158  1.00 27.51 LIG 0.04  A 
ATOM     11  CZ  TYR B   2     -18.097  -3.689  11.614  1.00 25.86 LIG 0.07  A 
ATOM     12  CE1 TYR B   2     -17.498  -2.416  11.579  1.00 26.16 LIG 0.04  A 
ATOM     13  CD1 TYR B   2     -16.263  -2.263  11.058  1.00 21.15 LIG 0.01  A 
BRANCH 11 14
ATOM     14 OH   TYR B   2     -19.334  -3.764  12.193  1.00 29.83 LIG-0.36  OA
ATOM     15 HH   TYR B   2     -19.859  -3.240  11.800  1.00 29.83 LIG 0.22  HD
ENDBRANCH 11 14
ENDBRANCH 7 8
ENDBRANCH 6 7
BRANCH 6 16
ATOM     16  N   TYR B   2     -13.105  -3.418   7.779  1.00 39.83 LIG-0.35  N 
ATOM     17  C   ASP B   1     -13.068  -3.650   6.472  1.00 42.84 LIG 0.25  C 
ATOM     18 O    ASP B   1     -14.080  -3.556   5.751  1.00 42.82 LIG-0.27  OA
ATOM     19 H    TYR B   2     -12.445  -3.562   8.312  1.00 39.83 LIG 0.16  HD
BRANCH 17 20
ATOM     20  CA  ASP B   1     -11.695  -4.111   5.908  1.00 44.92 LIG 0.28  C 
BRANCH 20 21
ATOM     21  CB  ASP B   1     -10.584  -3.447   6.725  1.00 46.02 LIG 0.15  C 
BRANCH 21 22
ATOM     22  CG  ASP B   1      -9.197  -3.712   6.140  1.00 51.60 LIG 0.17  C 
ATOM     23 OD1  ASP B   1      -9.070  -4.415   5.076  1.00 55.22 LIG-0.65  OA
ATOM     24 OD2  ASP B   1      -8.232  -3.187   6.755  1.00 56.25 LIG-0.65  OA
ENDBRANCH 21 22
ENDBRANCH 20 21
BRANCH 20 25
ATOM     25  N   ASP B   1     -11.527  -3.799   4.428  1.00 44.71 LIG-0.07  N 
ATOM     26 H1   ASP B   1     -10.661  -3.791   4.223  1.00 44.71 LIG 0.28  HD
ATOM     27 H2   ASP B   1     -11.941  -4.422   3.945  1.00 44.71 LIG 0.28  HD
ATOM     28 H3   ASP B   1     -11.882  -3.003   4.251  1.00 44.71 LIG 0.28  HD
ENDBRANCH 20 25
ENDBRANCH 17 20
ENDBRANCH 6 16
ENDBRANCH 3 6
ENDBRANCH 1 2
BRANCH 1 29
ATOM     29  CB  GLN B   3     -13.925   1.610   8.486  1.00 34.45 LIG 0.04  C 
BRANCH 29 30
ATOM     30  CG  GLN B   3     -14.023   1.136   9.946  1.00 38.50 LIG 0.10  C 
BRANCH 30 31
ATOM     31  CD  GLN B   3     -15.238   1.710  10.716  1.00 47.01 LIG 0.21  C 
ATOM     32  NE2 GLN B   3     -16.472   1.391  10.256  1.00 44.49 LIG-0.37  N 
ATOM     33 21HE GLN B   3     -16.556   0.872   9.577  1.00 44.49 LIG 0.16  HD
ATOM     34 22HE GLN B   3     -17.170   1.709  10.644  1.00 44.49 LIG 0.16  HD
ATOM     35 OE1  GLN B   3     -15.056   2.460  11.700  1.00 47.46 LIG-0.27  OA
ENDBRANCH 30 31
ENDBRANCH 29 30
ENDBRANCH 1 29
BRANCH 1 36
ATOM     36  C   GLN B   3     -11.752   1.033   7.373  1.00 32.58 LIG 0.24  C 
ATOM     37 O    GLN B   3     -11.384   2.177   7.663  1.00 27.04 LIG-0.27  OA
ATOM     38  N   ARG B   4     -10.930   0.083   6.894  1.00 32.15 LIG-0.35  N 
ATOM     39 H    ARG B   4     -11.192  -0.701   6.658  1.00 32.15 LIG 0.16  HD
BRANCH 38 40
ATOM     40  CA  ARG B   4      -9.471   0.316   6.731  1.00 32.56 LIG 0.18  C 
BRANCH 40 41
ATOM     41  CB  ARG B   4      -8.704  -0.177   8.007  1.00 33.81 LIG 0.04  C 
BRANCH 41 42
ATOM     42  CG  ARG B   4      -9.570  -0.463   9.229  1.00 39.16 LIG 0.02  C 
BRANCH 42 43
ATOM     43  CD  ARG B   4      -9.718   0.786  10.160  1.00 48.45 LIG 0.14  C 
BRANCH 43 44
ATOM     44  NE  ARG B   4      -9.277   2.005   9.462  1.00 55.69 LIG-0.23  N 
ATOM     45  CZ  ARG B   4      -8.010   2.456   9.436  1.00 58.57 LIG 0.67  C 
ATOM     46  NH1 ARG B   4      -7.702   3.578   8.783  1.00 57.02 LIG-0.23  N 
ATOM     47  NH2 ARG B   4      -7.037   1.777  10.049  1.00 58.84 LIG-0.23  N 
ATOM     48 2HH1 ARG B   4      -6.890   3.860   8.771  1.00 57.02 LIG 0.17  HD
ATOM     49 1HH1 ARG B   4      -8.317   4.020   8.374  1.00 57.02 LIG 0.17  HD
ATOM     50 2HH2 ARG B   4      -6.229   2.070  10.029  1.00 58.84 LIG 0.17  HD
ATOM     51 1HH2 ARG B   4      -7.220   1.046  10.464  1.00 58.84 LIG 0.17  HD
ATOM     52 HE   ARG B   4      -9.872   2.462   9.040  1.00 55.69 LIG 0.18  HD
ENDBRANCH 43 44
ENDBRANCH 42 43
ENDBRANCH 41 42
ENDBRANCH 40 41
BRANCH 40 53
ATOM     53  C   ARG B   4      -8.900  -0.308   5.438  1.00 31.57 LIG 0.24  C 
ATOM     54  N   LEU B   5      -7.589  -0.235   5.265  1.00 29.97 LIG-0.34  N 
ATOM     55 H    LEU B   5      -7.053   0.212   5.767  1.00 29.97 LIG 0.16  HD
ATOM     56 O    ARG B   4      -9.624  -0.876   4.626  1.00 31.05 LIG-0.27  OA
BRANCH 54 57
ATOM     57  CA  LEU B   5      -6.958  -0.943   4.165  1.00 29.37 LIG 0.18  C 
BRANCH 57 58
ATOM     58  CB  LEU B   5      -6.980  -0.074   2.908  1.00 29.49 LIG 0.04  C 
BRANCH 58 59
ATOM     59  CG  LEU B   5      -6.650  -0.833   1.582  1.00 26.43 LIG-0.02  C 
ATOM     60  CD1 LEU B   5      -5.397  -0.179   0.804  1.00 22.49 LIG 0.01  C 
ATOM     61  CD2 LEU B   5      -6.563  -2.395   1.785  1.00 25.84 LIG 0.01  C 
ENDBRANCH 58 59
ENDBRANCH 57 58
BRANCH 57 62
ATOM     62  C   LEU B   5      -5.520  -1.363   4.578  1.00 31.79 LIG 0.20  C 
ATOM     63 O    LEU B   5      -4.498  -0.915   3.995  1.00 32.21 LIG-0.65  OA
ATOM     64 OXT  LEU B   5      -5.380  -2.178   5.499  1.00 32.71 LIG-0.65  OA
ENDBRANCH 57 62
ENDBRANCH 54 57
ENDBRANCH 40 53
ENDBRANCH 38 40
ENDBRANCH 1 36
TORSDOF 24
ENDMDL
MODEL 15
USER: ADFR SOLUTION from run 184
USER: SCORE 20.365890 LL:  -5.813 LR: -15.455 RR:   0.000 FEB:  -8.295
USER: RMSD 4.976441
USER: SEED 183
USER: STATUS no improvement in best in 4 clusters for 5 generations
USER: GENES 26
USER: genes 0 Translation |==|  0.42868 0.46398 0.35865
USER: genes 1 Rotation |==|  0.37571 0.71744 0.83604 0.77267
USER: genes 2 Torsion [C]-CA--N-[C] |==|  0.51778
USER: genes 3 Torsion [N]-C--CA-[N] |==|  0.40170
USER: genes 4 Torsion [C]-CA--CB-[CG] |==|  0.89783
USER: genes 5 Torsion [CA]-CB--CG-[CD2] |==|  0.76932
USER: genes 6 Torsion [CE2]-CZ--OH-[HH] |==|  0.95829
USER: genes 7 Torsion [C]-CA--N-[C] |==|  0.81155
USER: genes 8 Torsion [N]-C--CA-[N] |==|  0.57027
USER: genes 9 Torsion [C]-CA--CB-[CG] |==|  0.70239
USER: genes 10 Torsion [CA]-CB--CG-[OD1] |==|  0.10284
USER: genes 11 Torsion [C]-CA--N-[H1] |==|  0.48508
USER: genes 12 Torsion [N]-CA--CB-[CG] |==|  0.53274
USER: genes 13 Torsion [CA]-CB--CG-[CD] |==|  0.38501
USER: genes 14 Torsion [CB]-CG--CD-[OE1] |==|  0.42796
USER: genes 15 Torsion [N]-CA--C-[N] |==|  0.31524
USER: genes 16 Torsion [C]-N--CA-[C] |==|  0.62471
USER: genes 17 Torsion [N]-CA--CB-[CG] |==|  0.57069
USER: genes 18 Torsion [CA]-CB--CG-[CD] |==|  0.12135
USER: genes 19 Torsion [CB]-CG--CD-[NE] |==|  0.72535
USER: genes 20 Torsion [CG]-CD--NE-[CZ] |==|  0.64927
USER: genes 21 Torsion [N]-CA--C-[N] |==|  0.39011
USER: genes 22 Torsion [C]-N--CA-[CB] |==|  0.24007
USER: genes 23 Torsion [N]-CA--CB-[CG] |==|  0.62654
USER: genes 24 Torsion [CA]-CB--CG-[CD1] |==|  0.48049
USER: genes 25 Torsion [N]-CA--C-[O] |==|  0.49646
ROOT
ATOM      1  CA  GLN B   3     -15.112  -6.171   2.734  1.00 33.56 LIG 0.18  C 
ENDROOT
BRANCH 1 2
ATOM      2  N   GLN B   3     -14.723  -7.553   2.583  1.00 33.33 LIG-0.35  N 
ATOM      3  C   TYR B   2     -14.422  -8.072   1.396  1.00 35.73 LIG 0.24  C 
ATOM      4 O    TYR B   2     -14.634  -7.474   0.337  1.00 36.38 LIG-0.27  OA
ATOM      5 H    GLN B   3     -14.706  -7.998   3.320  1.00 33.33 LIG 0.16  HD
BRANCH 3 6
ATOM      6  CA  TYR B   2     -13.802  -9.467   1.363  1.00 35.98 LIG 0.18  C 
BRANCH 6 7
ATOM      7  CB  TYR B   2     -12.262  -9.406   1.293  1.00 34.22 LIG 0.07  C 
BRANCH 7 8
ATOM      8  CG  TYR B   2     -11.801  -8.267   0.442  1.00 30.67 LIG-0.06  A 
ATOM      9  CD2 TYR B   2     -11.724  -8.370  -0.960  1.00 29.09 LIG 0.01  A 
ATOM     10  CE2 TYR B   2     -11.215  -7.280  -1.740  1.00 27.51 LIG 0.04  A 
ATOM     11  CZ  TYR B   2     -10.840  -6.150  -1.083  1.00 25.86 LIG 0.07  A 
ATOM     12  CE1 TYR B   2     -10.951  -6.038   0.316  1.00 26.16 LIG 0.04  A 
ATOM     13  CD1 TYR B   2     -11.412  -7.076   1.044  1.00 21.15 LIG 0.01  A 
BRANCH 11 14
ATOM     14 OH   TYR B   2     -10.400  -5.040  -1.749  1.00 29.83 LIG-0.36  OA
ATOM     15 HH   TYR B   2     -10.213  -5.244  -2.542  1.00 29.83 LIG 0.22  HD
ENDBRANCH 11 14
ENDBRANCH 7 8
ENDBRANCH 6 7
BRANCH 6 16
ATOM     16  N   TYR B   2     -14.310 -10.158   0.174  1.00 39.83 LIG-0.35  N 
ATOM     17  C   ASP B   1     -15.585 -10.513   0.067  1.00 42.84 LIG 0.25  C 
ATOM     18 O    ASP B   1     -16.388 -10.402   1.013  1.00 42.82 LIG-0.27  OA
ATOM     19 H    TYR B   2     -13.717 -10.308  -0.431  1.00 39.83 LIG 0.16  HD
BRANCH 17 20
ATOM     20  CA  ASP B   1     -15.999 -11.140  -1.294  1.00 44.92 LIG 0.28  C 
BRANCH 20 21
ATOM     21  CB  ASP B   1     -15.143 -10.515  -2.399  1.00 46.02 LIG 0.15  C 
BRANCH 21 22
ATOM     22  CG  ASP B   1     -15.939  -9.541  -3.267  1.00 51.60 LIG 0.17  C 
ATOM     23 OD1  ASP B   1     -16.833  -8.790  -2.739  1.00 55.22 LIG-0.65  OA
ATOM     24 OD2  ASP B   1     -15.641  -9.527  -4.491  1.00 56.25 LIG-0.65  OA
ENDBRANCH 21 22
ENDBRANCH 20 21
BRANCH 20 25
ATOM     25  N   ASP B   1     -17.478 -10.964  -1.602  1.00 44.71 LIG-0.07  N 
ATOM     26 H1   ASP B   1     -17.648 -11.268  -2.421  1.00 44.71 LIG 0.28  HD
ATOM     27 H2   ASP B   1     -17.961 -11.420  -1.010  1.00 44.71 LIG 0.28  HD
ATOM     28 H3   ASP B   1     -17.690 -10.101  -1.556  1.00 44.71 LIG 0.28  HD
ENDBRANCH 20 25
ENDBRANCH 17 20
ENDBRANCH 6 16
ENDBRANCH 3 6
ENDBRANCH 1 2
BRANCH 1 29
ATOM     29  CB  GLN B   3     -16.455  -5.913   2.062  1.00 34.45 LIG 0.04  C 
BRANCH 29 30
ATOM     30  CG  GLN B   3     -16.848  -4.435   1.903  1.00 38.50 LIG 0.10  C 
BRANCH 30 31
ATOM     31  CD  GLN B   3     -17.495  -4.096   0.537  1.00 47.01 LIG 0.21  C 
ATOM     32  NE2 GLN B   3     -17.150  -4.869  -0.522  1.00 44.49 LIG-0.37  N 
ATOM     33 21HE GLN B   3     -16.610  -5.529  -0.415  1.00 44.49 LIG 0.16  HD
ATOM     34 22HE GLN B   3     -17.471  -4.698  -1.301  1.00 44.49 LIG 0.16  HD
ATOM     35 OE1  GLN B   3     -18.275  -3.124   0.438  1.00 47.46 LIG-0.27  OA
ENDBRANCH 30 31
ENDBRANCH 29 30
ENDBRANCH 1 29
BRANCH 1 36
ATOM     36  C   GLN B   3     -15.220  -5.899   4.245  1.00 32.58 LIG 0.24  C 
ATOM     37 O    GLN B   3     -16.117  -6.442   4.901  1.00 27.04 LIG-0.27  OA
ATOM     38  N   ARG B   4     -14.326  -5.043   4.769  1.00 32.15 LIG-0.35  N 
ATOM     39 H    ARG B   4     -13.725  -4.637   4.307  1.00 32.15 LIG 0.16  HD
BRANCH 38 40
ATOM     40  CA  ARG B   4     -14.304  -4.721   6.220  1.00 32.56 LIG 0.18  C 
BRANCH 40 41
ATOM     41  CB  ARG B   4     -13.195  -5.565   6.939  1.00 33.81 LIG 0.04  C 
BRANCH 41 42
ATOM     42  CG  ARG B   4     -13.420  -5.821   8.426  1.00 39.16 LIG 0.02  C 
BRANCH 42 43
ATOM     43  CD  ARG B   4     -14.899  -6.220   8.746  1.00 48.45 LIG 0.14  C 
BRANCH 43 44
ATOM     44  NE  ARG B   4     -15.652  -5.053   9.236  1.00 55.69 LIG-0.23  N 
ATOM     45  CZ  ARG B   4     -16.344  -5.019  10.390  1.00 58.57 LIG 0.67  C 
ATOM     46  NH1 ARG B   4     -17.006  -3.919  10.752  1.00 57.02 LIG-0.23  N 
ATOM     47  NH2 ARG B   4     -16.363  -6.082  11.199  1.00 58.84 LIG-0.23  N 
ATOM     48 2HH1 ARG B   4     -17.446  -3.905  11.490  1.00 57.02 LIG 0.17  HD
ATOM     49 1HH1 ARG B   4     -16.992  -3.224  10.245  1.00 57.02 LIG 0.17  HD
ATOM     50 2HH2 ARG B   4     -16.807  -6.054  11.935  1.00 58.84 LIG 0.17  HD
ATOM     51 1HH2 ARG B   4     -15.931  -6.794  10.983  1.00 58.84 LIG 0.17  HD
ATOM     52 HE   ARG B   4     -15.650  -4.343   8.752  1.00 55.69 LIG 0.18  HD
ENDBRANCH 43 44
ENDBRANCH 42 43
ENDBRANCH 41 42
ENDBRANCH 40 41
BRANCH 40 53
ATOM     53  C   ARG B   4     -14.150  -3.209   6.501  1.00 31.57 LIG 0.24  C 
ATOM     54  N   LEU B   5     -14.862  -2.709   7.500  1.00 29.97 LIG-0.34  N 
ATOM     55 H    LEU B   5     -15.467  -3.141   7.934  1.00 29.97 LIG 0.16  HD
ATOM     56 O    ARG B   4     -13.377  -2.511   5.851  1.00 31.05 LIG-0.27  OA
BRANCH 54 57
ATOM     57  CA  LEU B   5     -14.648  -1.340   7.935  1.00 29.37 LIG 0.18  C 
BRANCH 57 58
ATOM     58  CB  LEU B   5     -15.500  -0.389   7.096  1.00 29.49 LIG 0.04  C 
BRANCH 58 59
ATOM     59  CG  LEU B   5     -14.750   0.883   6.585  1.00 26.43 LIG-0.02  C 
ATOM     60  CD1 LEU B   5     -15.649   1.747   5.561  1.00 22.49 LIG 0.01  C 
ATOM     61  CD2 LEU B   5     -14.099   1.713   7.758  1.00 25.84 LIG 0.01  C 
ENDBRANCH 58 59
ENDBRANCH 57 58
BRANCH 57 62
ATOM     62  C   LEU B   5     -14.947  -1.229   9.456  1.00 31.79 LIG 0.20  C 
ATOM     63 O    LEU B   5     -14.814  -0.147  10.087  1.00 32.21 LIG-0.65  OA
ATOM     64 OXT  LEU B   5     -15.311  -2.241  10.067  1.00 32.71 LIG-0.65  OA
ENDBRANCH 57 62
ENDBRANCH 54 57
ENDBRANCH 40 53
ENDBRANCH 38 40
ENDBRANCH 1 36
TORSDOF 24
ENDMDL
MODEL 16
USER: ADFR SOLUTION from run 44
USER: SCORE 19.518862 LL:  -4.859 LR: -15.420 RR:   0.000 FEB:  -8.261
USER: RMSD 5.744061
USER: SEED 43
USER: STATUS no improvement in best in 3 clusters for 5 generations
USER: GENES 26
USER: genes 0 Translation |==|  0.42991 0.47100 0.37451
USER: genes 1 Rotation |==|  0.39561 0.73045 0.86352 0.73205
USER: genes 2 Torsion [C]-CA--N-[C] |==|  0.59542
USER: genes 3 Torsion [N]-C--CA-[N] |==|  0.33057
USER: genes 4 Torsion [C]-CA--CB-[CG] |==|  0.83552
USER: genes 5 Torsion [CA]-CB--CG-[CD2] |==|  0.32167
USER: genes 6 Torsion [CE2]-CZ--OH-[HH] |==|  0.01985
USER: genes 7 Torsion [C]-CA--N-[C] |==|  0.83254
USER: genes 8 Torsion [N]-C--CA-[N] |==|  0.54465
USER: genes 9 Torsion [C]-CA--CB-[CG] |==|  0.69705
USER: genes 10 Torsion [CA]-CB--CG-[OD1] |==|  0.14532
USER: genes 11 Torsion [C]-CA--N-[H1] |==|  0.85761
USER: genes 12 Torsion [N]-CA--CB-[CG] |==|  0.75878
USER: genes 13 Torsion [CA]-CB--CG-[CD] |==|  0.67733
USER: genes 14 Torsion [CB]-CG--CD-[OE1] |==|  0.00578
USER: genes 15 Torsion [N]-CA--C-[N] |==|  0.33487
USER: genes 16 Torsion [C]-N--CA-[C] |==|  0.61851
USER: genes 17 Torsion [N]-CA--CB-[CG] |==|  0.85826
USER: genes 18 Torsion [CA]-CB--CG-[CD] |==|  0.34109
USER: genes 19 Torsion [CB]-CG--CD-[NE] |==|  0.75880
USER: genes 20 Torsion [CG]-CD--NE-[CZ] |==|  0.21442
USER: genes 21 Torsion [N]-CA--C-[N] |==|  0.35191
USER: genes 22 Torsion [C]-N--CA-[CB] |==|  0.20798
USER: genes 23 Torsion [N]-CA--CB-[CG] |==|  0.54965
USER: genes 24 Torsion [CA]-CB--CG-[CD1] |==|  0.07387
USER: genes 25 Torsion [N]-CA--C-[O] |==|  0.06243
ROOT
ATOM      1  CA  GLN B   3     -15.089  -6.024   3.114  1.00 33.56 LIG 0.18  C 
ENDROOT
BRANCH 1 2
ATOM      2  N   GLN B   3     -14.571  -7.346   2.861  1.00 33.33 LIG-0.35  N 
ATOM      3  C   TYR B   2     -13.924  -7.643   1.737  1.00 35.73 LIG 0.24  C 
ATOM      4 O    TYR B   2     -13.888  -6.877   0.769  1.00 36.38 LIG-0.27  OA
ATOM      5 H    GLN B   3     -14.719  -7.912   3.492  1.00 33.33 LIG 0.16  HD
BRANCH 3 6
ATOM      6  CA  TYR B   2     -13.215  -8.993   1.655  1.00 35.98 LIG 0.18  C 
BRANCH 6 7
ATOM      7  CB  TYR B   2     -11.704  -8.828   1.393  1.00 34.22 LIG 0.07  C 
BRANCH 7 8
ATOM      8  CG  TYR B   2     -11.449  -8.096   0.115  1.00 30.67 LIG-0.06  A 
ATOM      9  CD2 TYR B   2     -10.819  -6.838   0.093  1.00 29.09 LIG 0.01  A 
ATOM     10  CE2 TYR B   2     -10.650  -6.135  -1.146  1.00 27.51 LIG 0.04  A 
ATOM     11  CZ  TYR B   2     -11.092  -6.736  -2.283  1.00 25.86 LIG 0.07  A 
ATOM     12  CE1 TYR B   2     -11.689  -8.010  -2.260  1.00 26.16 LIG 0.04  A 
ATOM     13  CD1 TYR B   2     -11.863  -8.656  -1.088  1.00 21.15 LIG 0.01  A 
BRANCH 11 14
ATOM     14 OH   TYR B   2     -10.918  -6.168  -3.514  1.00 29.83 LIG-0.36  OA
ATOM     15 HH   TYR B   2     -10.433  -5.486  -3.443  1.00 29.83 LIG 0.22  HD
ENDBRANCH 11 14
ENDBRANCH 7 8
ENDBRANCH 6 7
BRANCH 6 16
ATOM     16  N   TYR B   2     -13.813  -9.752   0.554  1.00 39.83 LIG-0.35  N 
ATOM     17  C   ASP B   1     -15.104 -10.069   0.547  1.00 42.84 LIG 0.25  C 
ATOM     18 O    ASP B   1     -15.844  -9.860   1.527  1.00 42.82 LIG-0.27  OA
ATOM     19 H    TYR B   2     -13.263  -9.967  -0.071  1.00 39.83 LIG 0.16  HD
BRANCH 17 20
ATOM     20  CA  ASP B   1     -15.617 -10.780  -0.736  1.00 44.92 LIG 0.28  C 
BRANCH 20 21
ATOM     21  CB  ASP B   1     -14.978 -10.108  -1.954  1.00 46.02 LIG 0.15  C 
BRANCH 21 22
ATOM     22  CG  ASP B   1     -15.985  -9.288  -2.759  1.00 51.60 LIG 0.17  C 
ATOM     23 OD1  ASP B   1     -16.713  -8.409  -2.176  1.00 55.22 LIG-0.65  OA
ATOM     24 OD2  ASP B   1     -16.025  -9.527  -3.995  1.00 56.25 LIG-0.65  OA
ENDBRANCH 21 22
ENDBRANCH 20 21
BRANCH 20 25
ATOM     25  N   ASP B   1     -17.133 -10.766  -0.855  1.00 44.71 LIG-0.07  N 
ATOM     26 H1   ASP B   1     -17.493 -11.067  -0.098  1.00 44.71 LIG 0.28  HD
ATOM     27 H2   ASP B   1     -17.411  -9.934  -1.005  1.00 44.71 LIG 0.28  HD
ATOM     28 H3   ASP B   1     -17.383 -11.288  -1.530  1.00 44.71 LIG 0.28  HD
ENDBRANCH 20 25
ENDBRANCH 17 20
ENDBRANCH 6 16
ENDBRANCH 3 6
ENDBRANCH 1 2
BRANCH 1 29
ATOM     29  CB  GLN B   3     -16.552  -5.929   2.699  1.00 34.45 LIG 0.04  C 
BRANCH 29 30
ATOM     30  CG  GLN B   3     -16.805  -5.565   1.226  1.00 38.50 LIG 0.10  C 
BRANCH 30 31
ATOM     31  CD  GLN B   3     -17.530  -4.211   1.025  1.00 47.01 LIG 0.21  C 
ATOM     32  NE2 GLN B   3     -17.793  -3.831  -0.249  1.00 44.49 LIG-0.37  N 
ATOM     33 21HE GLN B   3     -17.579  -4.345  -0.904  1.00 44.49 LIG 0.16  HD
ATOM     34 22HE GLN B   3     -18.174  -3.076  -0.402  1.00 44.49 LIG 0.16  HD
ATOM     35 OE1  GLN B   3     -17.819  -3.504   2.015  1.00 47.46 LIG-0.27  OA
ENDBRANCH 30 31
ENDBRANCH 29 30
ENDBRANCH 1 29
BRANCH 1 36
ATOM     36  C   GLN B   3     -14.955  -5.774   4.628  1.00 32.58 LIG 0.24  C 
ATOM     37 O    GLN B   3     -15.548  -6.512   5.424  1.00 27.04 LIG-0.27  OA
ATOM     38  N   ARG B   4     -14.205  -4.723   5.001  1.00 32.15 LIG-0.35  N 
ATOM     39 H    ARG B   4     -13.821  -4.188   4.448  1.00 32.15 LIG 0.16  HD
BRANCH 38 40
ATOM     40  CA  ARG B   4     -13.971  -4.394   6.432  1.00 32.56 LIG 0.18  C 
BRANCH 40 41
ATOM     41  CB  ARG B   4     -12.599  -4.990   6.901  1.00 33.81 LIG 0.04  C 
BRANCH 41 42
ATOM     42  CG  ARG B   4     -12.381  -6.468   6.596  1.00 39.16 LIG 0.02  C 
BRANCH 42 43
ATOM     43  CD  ARG B   4     -11.094  -6.717   5.741  1.00 48.45 LIG 0.14  C 
BRANCH 43 44
ATOM     44  NE  ARG B   4     -11.398  -6.596   4.305  1.00 55.69 LIG-0.23  N 
ATOM     45  CZ  ARG B   4     -11.560  -5.430   3.653  1.00 58.57 LIG 0.67  C 
ATOM     46  NH1 ARG B   4     -11.844  -5.415   2.350  1.00 57.02 LIG-0.23  N 
ATOM     47  NH2 ARG B   4     -11.422  -4.268   4.299  1.00 58.84 LIG-0.23  N 
ATOM     48 2HH1 ARG B   4     -11.946  -4.666   1.940  1.00 57.02 LIG 0.17  HD
ATOM     49 1HH1 ARG B   4     -11.925  -6.156   1.920  1.00 57.02 LIG 0.17  HD
ATOM     50 2HH2 ARG B   4     -11.526  -3.527   3.877  1.00 58.84 LIG 0.17  HD
ATOM     51 1HH2 ARG B   4     -11.228  -4.264   5.137  1.00 58.84 LIG 0.17  HD
ATOM     52 HE   ARG B   4     -11.478  -7.321   3.851  1.00 55.69 LIG 0.18  HD
ENDBRANCH 43 44
ENDBRANCH 42 43
ENDBRANCH 41 42
ENDBRANCH 40 41
BRANCH 40 53
ATOM     53  C   ARG B   4     -14.075  -2.881   6.729  1.00 31.57 LIG 0.24  C 
ATOM     54  N   LEU B   5     -14.900  -2.516   7.698  1.00 29.97 LIG-0.34  N 
ATOM     55 H    LEU B   5     -15.445  -3.044   8.102  1.00 29.97 LIG 0.16  HD
ATOM     56 O    ARG B   4     -13.397  -2.060   6.118  1.00 31.05 LIG-0.27  OA
BRANCH 54 57
ATOM     57  CA  LEU B   5     -14.928  -1.136   8.150  1.00 29.37 LIG 0.18  C 
BRANCH 57 58
ATOM     58  CB  LEU B   5     -15.649  -0.266   7.122  1.00 29.49 LIG 0.04  C 
BRANCH 58 59
ATOM     59  CG  LEU B   5     -15.377   1.267   7.254  1.00 26.43 LIG-0.02  C 
ATOM     60  CD1 LEU B   5     -13.946   1.573   7.935  1.00 22.49 LIG 0.01  C 
ATOM     61  CD2 LEU B   5     -15.653   2.048   5.912  1.00 25.84 LIG 0.01  C 
ENDBRANCH 58 59
ENDBRANCH 57 58
BRANCH 57 62
ATOM     62  C   LEU B   5     -15.582  -1.066   9.558  1.00 31.79 LIG 0.20  C 
ATOM     63 O    LEU B   5     -15.625  -2.063  10.327  1.00 32.21 LIG-0.65  OA
ATOM     64 OXT  LEU B   5     -16.092  -0.000   9.925  1.00 32.71 LIG-0.65  OA
ENDBRANCH 57 62
ENDBRANCH 54 57
ENDBRANCH 40 53
ENDBRANCH 38 40
ENDBRANCH 1 36
TORSDOF 24
ENDMDL
MODEL 17
USER: ADFR SOLUTION from run 173
USER: SCORE 19.658592 LL:  -5.547 LR: -15.407 RR:   0.000 FEB:  -8.248
USER: RMSD 11.325444
USER: SEED 172
USER: STATUS no improvement in best in 11 clusters for 5 generations
USER: GENES 26
USER: genes 0 Translation |==|  0.46261 0.77617 0.58125
USER: genes 1 Rotation |==|  0.32621 0.07183 0.69077 0.50881
USER: genes 2 Torsion [C]-CA--N-[C] |==|  0.53978
USER: genes 3 Torsion [N]-C--CA-[N] |==|  0.50218
USER: genes 4 Torsion [C]-CA--CB-[CG] |==|  0.89819
USER: genes 5 Torsion [CA]-CB--CG-[CD2] |==|  0.82312
USER: genes 6 Torsion [CE2]-CZ--OH-[HH] |==|  0.42321
USER: genes 7 Torsion [C]-CA--N-[C] |==|  0.63630
USER: genes 8 Torsion [N]-C--CA-[N] |==|  0.85066
USER: genes 9 Torsion [C]-CA--CB-[CG] |==|  0.71084
USER: genes 10 Torsion [CA]-CB--CG-[OD1] |==|  0.81070
USER: genes 11 Torsion [C]-CA--N-[H1] |==|  0.77073
USER: genes 12 Torsion [N]-CA--CB-[CG] |==|  0.55275
USER: genes 13 Torsion [CA]-CB--CG-[CD] |==|  0.08436
USER: genes 14 Torsion [CB]-CG--CD-[OE1] |==|  0.07316
USER: genes 15 Torsion [N]-CA--C-[N] |==|  0.25783
USER: genes 16 Torsion [C]-N--CA-[C] |==|  0.58417
USER: genes 17 Torsion [N]-CA--CB-[CG] |==|  0.93082
USER: genes 18 Torsion [CA]-CB--CG-[CD] |==|  0.74567
USER: genes 19 Torsion [CB]-CG--CD-[NE] |==|  0.43207
USER: genes 20 Torsion [CG]-CD--NE-[CZ] |==|  0.57441
USER: genes 21 Torsion [N]-CA--C-[N] |==|  0.37659
USER: genes 22 Torsion [C]-N--CA-[CB] |==|  0.43069
USER: genes 23 Torsion [N]-CA--CB-[CG] |==|  0.68467
USER: genes 24 Torsion [CA]-CB--CG-[CD1] |==|  0.98423
USER: genes 25 Torsion [N]-CA--C-[O] |==|  0.44845
ROOT
ATOM      1  CA  GLN B   3     -14.476   0.385   8.076  1.00 33.56 LIG 0.18  C 
ENDROOT
BRANCH 1 2
ATOM      2  N   GLN B   3     -13.810   0.551   9.345  1.00 33.33 LIG-0.35  N 
ATOM      3  C   TYR B   2     -14.412   1.122  10.384  1.00 35.73 LIG 0.24  C 
ATOM      4 O    TYR B   2     -15.493   1.710  10.285  1.00 36.38 LIG-0.27  OA
ATOM      5 H    GLN B   3     -13.003   0.252   9.363  1.00 33.33 LIG 0.16  HD
BRANCH 3 6
ATOM      6  CA  TYR B   2     -13.718   1.047  11.743  1.00 35.98 LIG 0.18  C 
BRANCH 6 7
ATOM      7  CB  TYR B   2     -13.493  -0.413  12.188  1.00 34.22 LIG 0.07  C 
BRANCH 7 8
ATOM      8  CG  TYR B   2     -14.634  -1.289  11.783  1.00 30.67 LIG-0.06  A 
ATOM      9  CD2 TYR B   2     -15.933  -1.098  12.291  1.00 29.09 LIG 0.01  A 
ATOM     10  CE2 TYR B   2     -16.990  -1.997  11.931  1.00 27.51 LIG 0.04  A 
ATOM     11  CZ  TYR B   2     -16.698  -3.010  11.072  1.00 25.86 LIG 0.07  A 
ATOM     12  CE1 TYR B   2     -15.406  -3.175  10.538  1.00 26.16 LIG 0.04  A 
ATOM     13  CD1 TYR B   2     -14.412  -2.337  10.898  1.00 21.15 LIG 0.01  A 
BRANCH 11 14
ATOM     14 OH   TYR B   2     -17.656  -3.878  10.626  1.00 29.83 LIG-0.36  OA
ATOM     15 HH   TYR B   2     -17.438  -4.172   9.870  1.00 29.83 LIG 0.22  HD
ENDBRANCH 11 14
ENDBRANCH 7 8
ENDBRANCH 6 7
BRANCH 6 16
ATOM     16  N   TYR B   2     -14.572   1.722  12.724  1.00 39.83 LIG-0.35  N 
ATOM     17  C   ASP B   1     -14.085   2.632  13.560  1.00 42.84 LIG 0.25  C 
ATOM     18 O    ASP B   1     -12.865   2.867  13.651  1.00 42.82 LIG-0.27  OA
ATOM     19 H    TYR B   2     -15.396   1.478  12.706  1.00 39.83 LIG 0.16  HD
BRANCH 17 20
ATOM     20  CA  ASP B   1     -15.129   3.340  14.468  1.00 44.92 LIG 0.28  C 
BRANCH 20 21
ATOM     21  CB  ASP B   1     -15.662   2.324  15.481  1.00 46.02 LIG 0.15  C 
BRANCH 21 22
ATOM     22  CG  ASP B   1     -17.065   1.833  15.126  1.00 51.60 LIG 0.17  C 
ATOM     23 OD1  ASP B   1     -18.064   2.633  15.195  1.00 55.22 LIG-0.65  OA
ATOM     24 OD2  ASP B   1     -17.150   0.632  14.758  1.00 56.25 LIG-0.65  OA
ENDBRANCH 21 22
ENDBRANCH 20 21
BRANCH 20 25
ATOM     25  N   ASP B   1     -16.274   3.960  13.683  1.00 44.71 LIG-0.07  N 
ATOM     26 H1   ASP B   1     -16.025   4.757  13.374  1.00 44.71 LIG 0.28  HD
ATOM     27 H2   ASP B   1     -16.486   3.430  13.000  1.00 44.71 LIG 0.28  HD
ATOM     28 H3   ASP B   1     -16.981   4.056  14.214  1.00 44.71 LIG 0.28  HD
ENDBRANCH 20 25
ENDBRANCH 17 20
ENDBRANCH 6 16
ENDBRANCH 3 6
ENDBRANCH 1 2
BRANCH 1 29
ATOM     29  CB  GLN B   3     -14.571   1.714   7.338  1.00 34.45 LIG 0.04  C 
BRANCH 29 30
ATOM     30  CG  GLN B   3     -15.626   1.783   6.221  1.00 38.50 LIG 0.10  C 
BRANCH 30 31
ATOM     31  CD  GLN B   3     -16.863   0.883   6.465  1.00 47.01 LIG 0.21  C 
ATOM     32  NE2 GLN B   3     -17.563   0.481   5.376  1.00 44.49 LIG-0.37  N 
ATOM     33 21HE GLN B   3     -17.302   0.709   4.589  1.00 44.49 LIG 0.16  HD
ATOM     34 22HE GLN B   3     -18.269  -0.000   5.472  1.00 44.49 LIG 0.16  HD
ATOM     35 OE1  GLN B   3     -17.198   0.583   7.632  1.00 47.46 LIG-0.27  OA
ENDBRANCH 30 31
ENDBRANCH 29 30
ENDBRANCH 1 29
BRANCH 1 36
ATOM     36  C   GLN B   3     -13.635  -0.612   7.257  1.00 32.58 LIG 0.24  C 
ATOM     37 O    GLN B   3     -12.714  -0.194   6.546  1.00 27.04 LIG-0.27  OA
ATOM     38  N   ARG B   4     -13.981  -1.908   7.345  1.00 32.15 LIG-0.35  N 
ATOM     39 H    ARG B   4     -14.644  -2.195   7.811  1.00 32.15 LIG 0.16  HD
BRANCH 38 40
ATOM     40  CA  ARG B   4     -13.230  -2.972   6.629  1.00 32.56 LIG 0.18  C 
BRANCH 40 41
ATOM     41  CB  ARG B   4     -11.988  -3.414   7.477  1.00 33.81 LIG 0.04  C 
BRANCH 41 42
ATOM     42  CG  ARG B   4     -11.453  -2.375   8.457  1.00 39.16 LIG 0.02  C 
BRANCH 42 43
ATOM     43  CD  ARG B   4     -10.334  -1.481   7.827  1.00 48.45 LIG 0.14  C 
BRANCH 43 44
ATOM     44  NE  ARG B   4     -10.256  -0.185   8.523  1.00 55.69 LIG-0.23  N 
ATOM     45  CZ  ARG B   4      -9.813   0.957   7.967  1.00 58.57 LIG 0.67  C 
ATOM     46  NH1 ARG B   4      -9.769   2.085   8.678  1.00 57.02 LIG-0.23  N 
ATOM     47  NH2 ARG B   4      -9.428   0.982   6.688  1.00 58.84 LIG-0.23  N 
ATOM     48 2HH1 ARG B   4      -9.485   2.811   8.316  1.00 57.02 LIG 0.17  HD
ATOM     49 1HH1 ARG B   4     -10.025   2.085   9.500  1.00 57.02 LIG 0.17  HD
ATOM     50 2HH2 ARG B   4      -9.146   1.715   6.339  1.00 58.84 LIG 0.17  HD
ATOM     51 1HH2 ARG B   4      -9.462   0.264   6.215  1.00 58.84 LIG 0.17  HD
ATOM     52 HE   ARG B   4     -10.511  -0.157   9.344  1.00 55.69 LIG 0.18  HD
ENDBRANCH 43 44
ENDBRANCH 42 43
ENDBRANCH 41 42
ENDBRANCH 40 41
BRANCH 40 53
ATOM     53  C   ARG B   4     -14.115  -4.175   6.233  1.00 31.57 LIG 0.24  C 
ATOM     54  N   LEU B   5     -13.963  -4.655   5.008  1.00 29.97 LIG-0.34  N 
ATOM     55 H    LEU B   5     -13.482  -4.289   4.395  1.00 29.97 LIG 0.16  HD
ATOM     56 O    ARG B   4     -14.898  -4.685   7.030  1.00 31.05 LIG-0.27  OA
BRANCH 54 57
ATOM     57  CA  LEU B   5     -14.631  -5.883   4.617  1.00 29.37 LIG 0.18  C 
BRANCH 57 58
ATOM     58  CB  LEU B   5     -14.829  -5.908   3.103  1.00 29.49 LIG 0.04  C 
BRANCH 58 59
ATOM     59  CG  LEU B   5     -16.319  -5.842   2.635  1.00 26.43 LIG-0.02  C 
ATOM     60  CD1 LEU B   5     -17.348  -5.907   3.876  1.00 22.49 LIG 0.01  C 
ATOM     61  CD2 LEU B   5     -16.581  -4.665   1.618  1.00 25.84 LIG 0.01  C 
ENDBRANCH 58 59
ENDBRANCH 57 58
BRANCH 57 62
ATOM     62  C   LEU B   5     -13.818  -7.102   5.136  1.00 31.79 LIG 0.20  C 
ATOM     63 O    LEU B   5     -14.325  -8.250   5.241  1.00 32.21 LIG-0.65  OA
ATOM     64 OXT  LEU B   5     -12.639  -6.931   5.471  1.00 32.71 LIG-0.65  OA
ENDBRANCH 57 62
ENDBRANCH 54 57
ENDBRANCH 40 53
ENDBRANCH 38 40
ENDBRANCH 1 36
TORSDOF 24
ENDMDL
MODEL 18
USER: ADFR SOLUTION from run 159
USER: SCORE 19.535875 LL:  -4.814 LR: -15.327 RR:   0.000 FEB:  -8.168
USER: RMSD 10.806646
USER: SEED 158
USER: STATUS no improvement in best in 10 clusters for 5 generations
USER: GENES 26
USER: genes 0 Translation |==|  0.61802 0.77064 0.51016
USER: genes 1 Rotation |==|  0.85209 0.81785 0.48131 0.65702
USER: genes 2 Torsion [C]-CA--N-[C] |==|  0.82222
USER: genes 3 Torsion [N]-C--CA-[N] |==|  0.01319
USER: genes 4 Torsion [C]-CA--CB-[CG] |==|  0.94062
USER: genes 5 Torsion [CA]-CB--CG-[CD2] |==|  0.35521
USER: genes 6 Torsion [CE2]-CZ--OH-[HH] |==|  0.59433
USER: genes 7 Torsion [C]-CA--N-[C] |==|  0.65666
USER: genes 8 Torsion [N]-C--CA-[N] |==|  0.93024
USER: genes 9 Torsion [C]-CA--CB-[CG] |==|  0.85094
USER: genes 10 Torsion [CA]-CB--CG-[OD1] |==|  0.91096
USER: genes 11 Torsion [C]-CA--N-[H1] |==|  0.90353
USER: genes 12 Torsion [N]-CA--CB-[CG] |==|  0.22235
USER: genes 13 Torsion [CA]-CB--CG-[CD] |==|  0.71476
USER: genes 14 Torsion [CB]-CG--CD-[OE1] |==|  0.26783
USER: genes 15 Torsion [N]-CA--C-[N] |==|  0.44332
USER: genes 16 Torsion [C]-N--CA-[C] |==|  0.63622
USER: genes 17 Torsion [N]-CA--CB-[CG] |==|  0.38770
USER: genes 18 Torsion [CA]-CB--CG-[CD] |==|  0.55287
USER: genes 19 Torsion [CB]-CG--CD-[NE] |==|  0.34376
USER: genes 20 Torsion [CG]-CD--NE-[CZ] |==|  0.39324
USER: genes 21 Torsion [N]-CA--C-[N] |==|  0.97860
USER: genes 22 Torsion [C]-N--CA-[CB] |==|  0.40681
USER: genes 23 Torsion [N]-CA--CB-[CG] |==|  0.65441
USER: genes 24 Torsion [CA]-CB--CG-[CD1] |==|  0.14324
USER: genes 25 Torsion [N]-CA--C-[O] |==|  0.95687
ROOT
ATOM      1  CA  GLN B   3     -11.562   0.269   6.370  1.00 33.56 LIG 0.18  C 
ENDROOT
BRANCH 1 2
ATOM      2  N   GLN B   3     -12.460   0.243   7.499  1.00 33.33 LIG-0.35  N 
ATOM      3  C   TYR B   2     -13.518  -0.562   7.537  1.00 35.73 LIG 0.24  C 
ATOM      4 O    TYR B   2     -13.907  -1.193   6.550  1.00 36.38 LIG-0.27  OA
ATOM      5 H    GLN B   3     -12.249   0.787   8.131  1.00 33.33 LIG 0.16  HD
BRANCH 3 6
ATOM      6  CA  TYR B   2     -14.274  -0.689   8.858  1.00 35.98 LIG 0.18  C 
BRANCH 6 7
ATOM      7  CB  TYR B   2     -15.772  -0.361   8.692  1.00 34.22 LIG 0.07  C 
BRANCH 7 8
ATOM      8  CG  TYR B   2     -16.016   0.469   7.472  1.00 30.67 LIG-0.06  A 
ATOM      9  CD2 TYR B   2     -16.972   0.104   6.506  1.00 29.09 LIG 0.01  A 
ATOM     10  CE2 TYR B   2     -17.134   0.888   5.316  1.00 27.51 LIG 0.04  A 
ATOM     11  CZ  TYR B   2     -16.358   1.996   5.175  1.00 25.86 LIG 0.07  A 
ATOM     12  CE1 TYR B   2     -15.429   2.376   6.161  1.00 26.16 LIG 0.04  A 
ATOM     13  CD1 TYR B   2     -15.268   1.622   7.267  1.00 21.15 LIG 0.01  A 
BRANCH 11 14
ATOM     14 OH   TYR B   2     -16.487   2.836   4.104  1.00 29.83 LIG-0.36  OA
ATOM     15 HH   TYR B   2     -15.734   3.149   3.901  1.00 29.83 LIG 0.22  HD
ENDBRANCH 11 14
ENDBRANCH 7 8
ENDBRANCH 6 7
BRANCH 6 16
ATOM     16  N   TYR B   2     -13.678   0.253   9.810  1.00 39.83 LIG-0.35  N 
ATOM     17  C   ASP B   1     -13.200  -0.152  10.982  1.00 42.84 LIG 0.25  C 
ATOM     18 O    ASP B   1     -13.348  -1.319  11.393  1.00 42.82 LIG-0.27  OA
ATOM     19 H    TYR B   2     -13.669   1.071   9.544  1.00 39.83 LIG 0.16  HD
BRANCH 17 20
ATOM     20  CA  ASP B   1     -12.503   0.940  11.839  1.00 44.92 LIG 0.28  C 
BRANCH 20 21
ATOM     21  CB  ASP B   1     -13.505   1.465  12.870  1.00 46.02 LIG 0.15  C 
BRANCH 21 22
ATOM     22  CG  ASP B   1     -14.808   1.936  12.224  1.00 51.60 LIG 0.17  C 
ATOM     23 OD1  ASP B   1     -14.796   2.446  11.049  1.00 55.22 LIG-0.65  OA
ATOM     24 OD2  ASP B   1     -15.851   1.771  12.909  1.00 56.25 LIG-0.65  OA
ENDBRANCH 21 22
ENDBRANCH 20 21
BRANCH 20 25
ATOM     25  N   ASP B   1     -11.949   2.085  11.004  1.00 44.71 LIG-0.07  N 
ATOM     26 H1   ASP B   1     -11.656   1.769  10.226  1.00 44.71 LIG 0.28  HD
ATOM     27 H2   ASP B   1     -12.592   2.683  10.858  1.00 44.71 LIG 0.28  HD
ATOM     28 H3   ASP B   1     -11.277   2.472  11.440  1.00 44.71 LIG 0.28  HD
ENDBRANCH 20 25
ENDBRANCH 17 20
ENDBRANCH 6 16
ENDBRANCH 3 6
ENDBRANCH 1 2
BRANCH 1 29
ATOM     29  CB  GLN B   3     -10.496   1.342   6.552  1.00 34.45 LIG 0.04  C 
BRANCH 29 30
ATOM     30  CG  GLN B   3      -9.318   0.964   7.465  1.00 38.50 LIG 0.10  C 
BRANCH 30 31
ATOM     31  CD  GLN B   3      -9.393   1.584   8.882  1.00 47.01 LIG 0.21  C 
ATOM     32  NE2 GLN B   3      -8.901   2.837   9.039  1.00 44.49 LIG-0.37  N 
ATOM     33 21HE GLN B   3      -8.584   3.262   8.362  1.00 44.49 LIG 0.16  HD
ATOM     34 22HE GLN B   3      -8.904   3.206   9.816  1.00 44.49 LIG 0.16  HD
ATOM     35 OE1  GLN B   3      -9.864   0.919   9.831  1.00 47.46 LIG-0.27  OA
ENDBRANCH 30 31
ENDBRANCH 29 30
ENDBRANCH 1 29
BRANCH 1 36
ATOM     36  C   GLN B   3     -10.901  -1.120   6.293  1.00 32.58 LIG 0.24  C 
ATOM     37 O    GLN B   3     -10.863  -1.836   7.300  1.00 27.04 LIG-0.27  OA
ATOM     38  N   ARG B   4     -10.366  -1.469   5.109  1.00 32.15 LIG-0.35  N 
ATOM     39 H    ARG B   4     -10.361  -0.957   4.418  1.00 32.15 LIG 0.16  HD
BRANCH 38 40
ATOM     40  CA  ARG B   4      -9.728  -2.794   4.896  1.00 32.56 LIG 0.18  C 
BRANCH 40 41
ATOM     41  CB  ARG B   4     -10.694  -3.729   4.089  1.00 33.81 LIG 0.04  C 
BRANCH 41 42
ATOM     42  CG  ARG B   4     -10.035  -4.596   3.021  1.00 39.16 LIG 0.02  C 
BRANCH 42 43
ATOM     43  CD  ARG B   4     -11.062  -5.124   1.964  1.00 48.45 LIG 0.14  C 
BRANCH 43 44
ATOM     44  NE  ARG B   4     -10.653  -4.731   0.606  1.00 55.69 LIG-0.23  N 
ATOM     45  CZ  ARG B   4     -10.776  -5.508  -0.486  1.00 58.57 LIG 0.67  C 
ATOM     46  NH1 ARG B   4     -10.369  -5.071  -1.679  1.00 57.02 LIG-0.23  N 
ATOM     47  NH2 ARG B   4     -11.325  -6.722  -0.393  1.00 58.84 LIG-0.23  N 
ATOM     48 2HH1 ARG B   4     -10.451  -5.574  -2.372  1.00 57.02 LIG 0.17  HD
ATOM     49 1HH1 ARG B   4     -10.024  -4.287  -1.754  1.00 57.02 LIG 0.17  HD
ATOM     50 2HH2 ARG B   4     -11.401  -7.214  -1.094  1.00 58.84 LIG 0.17  HD
ATOM     51 1HH2 ARG B   4     -11.602  -7.012   0.368  1.00 58.84 LIG 0.17  HD
ATOM     52 HE   ARG B   4     -10.310  -3.949   0.502  1.00 55.69 LIG 0.18  HD
ENDBRANCH 43 44
ENDBRANCH 42 43
ENDBRANCH 41 42
ENDBRANCH 40 41
BRANCH 40 53
ATOM     53  C   ARG B   4      -8.336  -2.694   4.234  1.00 31.57 LIG 0.24  C 
ATOM     54  N   LEU B   5      -7.961  -1.499   3.804  1.00 29.97 LIG-0.34  N 
ATOM     55 H    LEU B   5      -8.469  -0.805   3.781  1.00 29.97 LIG 0.16  HD
ATOM     56 O    ARG B   4      -7.596  -3.670   4.143  1.00 31.05 LIG-0.27  OA
BRANCH 54 57
ATOM     57  CA  LEU B   5      -6.605  -1.287   3.327  1.00 29.37 LIG 0.18  C 
BRANCH 57 58
ATOM     58  CB  LEU B   5      -6.606  -0.255   2.200  1.00 29.49 LIG 0.04  C 
BRANCH 58 59
ATOM     59  CG  LEU B   5      -5.953  -0.742   0.866  1.00 26.43 LIG-0.02  C 
ATOM     60  CD1 LEU B   5      -6.560  -2.154   0.373  1.00 22.49 LIG 0.01  C 
ATOM     61  CD2 LEU B   5      -5.919   0.386  -0.236  1.00 25.84 LIG 0.01  C 
ENDBRANCH 58 59
ENDBRANCH 57 58
BRANCH 57 62
ATOM     62  C   LEU B   5      -5.697  -0.874   4.517  1.00 31.79 LIG 0.20  C 
ATOM     63 O    LEU B   5      -6.170  -0.483   5.617  1.00 32.21 LIG-0.65  OA
ATOM     64 OXT  LEU B   5      -4.469  -0.915   4.371  1.00 32.71 LIG-0.65  OA
ENDBRANCH 57 62
ENDBRANCH 54 57
ENDBRANCH 40 53
ENDBRANCH 38 40
ENDBRANCH 1 36
TORSDOF 24
ENDMDL
