MODEL 1
USER: ADFR SOLUTION from run 135
USER: SCORE 22.427269 LL:  -5.939 LR: -17.913 RR:   0.000 FEB: -10.157
USER: RMSD 7.051153
USER: SEED 134
USER: STATUS 1 or 2 clusters left
USER: GENES 28
USER: genes 0 Translation |==|  0.37518 0.44115 0.48760
USER: genes 1 Rotation |==|  0.99692 0.49515 0.55440 0.50936
USER: genes 2 Torsion [C]-N--CA-[CB] |==|  0.78042
USER: genes 3 Torsion [N]-CA--CB-[CG] |==|  0.59362
USER: genes 4 Torsion [CA]-CB--CG-[CD2] |==|  0.31260
USER: genes 5 Torsion [CE2]-CZ--OH-[HH] |==|  0.43727
USER: genes 6 Torsion [N]-CA--C-[N] |==|  0.14502
USER: genes 7 Torsion [C]-N--CA-[CB] |==|  0.87764
USER: genes 8 Torsion [N]-CA--CB-[CG] |==|  0.42660
USER: genes 9 Torsion [CA]-CB--CG-[SD] |==|  0.70199
USER: genes 10 Torsion [CB]-CG--SD-[CE] |==|  0.91542
USER: genes 11 Torsion [N]-CA--C-[N] |==|  0.85556
USER: genes 12 Torsion [C]-N--CA-[C] |==|  0.59522
USER: genes 13 Torsion [N]-CA--C-[O] |==|  0.85170
USER: genes 14 Torsion [N]-CA--CB-[CG] |==|  0.64894
USER: genes 15 Torsion [CA]-CB--CG-[CD1] |==|  0.21719
USER: genes 16 Torsion [N]-C--CA-[N] |==|  0.90292
USER: genes 17 Torsion [C]-CA--CB-[CG] |==|  0.02502
USER: genes 18 Torsion [CA]-CB--CG-[CD2] |==|  0.61695
USER: genes 19 Torsion [C]-CA--N-[C] |==|  0.86964
USER: genes 20 Torsion [N]-C--CA-[N] |==|  0.51268
USER: genes 21 Torsion [C]-CA--N-[C] |==|  0.73925
USER: genes 22 Torsion [N]-C--CA-[N] |==|  0.32861
USER: genes 23 Torsion [C]-CA--CB-[CG2] |==|  0.26937
USER: genes 24 Torsion [CA]-CB--OG1-[HG1] |==|  0.68759
USER: genes 25 Torsion [C]-CA--N-[H2] |==|  0.20938
USER: genes 26 Torsion [C]-CA--CB-[CG] |==|  0.69199
USER: genes 27 Torsion [CA]-CB--CG-[OD1] |==|  0.86708
ROOT
ATOM      1  C   LEU B   3      -1.333  19.470  13.071  1.00 37.56 LIG 0.24  C 
ATOM      2 O    LEU B   3      -0.310  20.053  12.664  1.00 36.01 LIG-0.27  OA
ATOM      3  N   TYR B   4      -1.972  18.478  12.387  1.00 34.90 LIG-0.35  N 
ATOM      4 H    TYR B   4      -2.673  18.094  12.704  1.00 34.90 LIG 0.16  HD
ENDROOT
BRANCH 3 5
ATOM      5  CA  TYR B   4      -1.594  17.937  11.079  1.00 36.24 LIG 0.18  C 
BRANCH 5 6
ATOM      6  CB  TYR B   4      -2.058  18.873   9.943  1.00 36.37 LIG 0.07  C 
BRANCH 6 7
ATOM      7  CG  TYR B   4      -2.440  18.074   8.724  1.00 36.28 LIG-0.06  A 
ATOM      8  CD2 TYR B   4      -3.763  18.011   8.287  1.00 36.38 LIG 0.01  A 
ATOM      9  CE2 TYR B   4      -4.131  17.228   7.199  1.00 36.34 LIG 0.04  A 
ATOM     10  CZ  TYR B   4      -3.172  16.463   6.556  1.00 42.86 LIG 0.07  A 
ATOM     11  CE1 TYR B   4      -1.853  16.496   6.980  1.00 38.54 LIG 0.04  A 
ATOM     12  CD1 TYR B   4      -1.495  17.292   8.061  1.00 37.84 LIG 0.01  A 
BRANCH 10 13
ATOM     13 OH   TYR B   4      -3.518  15.672   5.494  1.00 44.02 LIG-0.36  OA
ATOM     14 HH   TYR B   4      -2.837  15.520   5.024  1.00 44.02 LIG 0.22  HD
ENDBRANCH 10 13
ENDBRANCH 6 7
ENDBRANCH 5 6
BRANCH 5 15
ATOM     15  C   TYR B   4      -0.099  17.649  11.003  1.00 47.41 LIG 0.24  C 
ATOM     16  N   MET B   5       0.387  16.898  11.987  1.00 49.29 LIG-0.35  N 
ATOM     17 H    MET B   5      -0.075  16.618  12.655  1.00 49.29 LIG 0.16  HD
ATOM     18 O    TYR B   4       0.596  18.075  10.077  1.00 47.26 LIG-0.27  OA
BRANCH 16 19
ATOM     19  CA  MET B   5       1.779  16.488  11.997  1.00 52.16 LIG 0.18  C 
BRANCH 19 20
ATOM     20  CB  MET B   5       2.223  16.014  10.614  1.00 55.77 LIG 0.04  C 
BRANCH 20 21
ATOM     21  CG  MET B   5       3.724  16.186  10.390  1.00 61.00 LIG 0.08  C 
BRANCH 21 22
ATOM     22 SD   MET B   5       4.113  17.529   9.257  1.00 67.05 LIG-0.17  SA
ATOM     23  CE  MET B   5       2.670  17.485   8.218  1.00 63.64 LIG 0.09  C 
ENDBRANCH 21 22
ENDBRANCH 20 21
ENDBRANCH 19 20
BRANCH 19 24
ATOM     24  C   MET B   5       2.568  17.672  12.516  1.00 55.98 LIG 0.24  C 
ATOM     25 O    MET B   5       3.433  17.491  13.374  1.00 56.32 LIG-0.27  OA
ATOM     26  N   LEU B   6       2.367  18.851  11.917  1.00 51.23 LIG-0.35  N 
ATOM     27 H    LEU B   6       1.783  18.978  11.298  1.00 51.23 LIG 0.16  HD
BRANCH 26 28
ATOM     28  CA  LEU B   6       3.134  20.045  12.268  1.00 69.26 LIG 0.16  C 
BRANCH 28 29
ATOM     29  C   LEU B   6       2.281  21.307  12.155  1.00 97.67 LIG 0.22  C 
ATOM     30 O    LEU B   6       1.671  21.567  11.119  1.00 61.20 LIG-0.29  OA
ENDBRANCH 28 29
BRANCH 28 31
ATOM     31  CB  LEU B   6       4.389  20.144  11.377  1.00 69.14 LIG 0.04  C 
BRANCH 31 32
ATOM     32  CG  LEU B   6       5.716  20.288  12.120  1.00 73.60 LIG-0.02  C 
ATOM     33  CD2 LEU B   6       6.760  20.945  11.250  1.00 75.76 LIG 0.01  C 
ATOM     34  CD1 LEU B   6       6.184  18.961  12.671  1.00 73.41 LIG 0.01  C 
ENDBRANCH 31 32
ENDBRANCH 28 31
ENDBRANCH 26 28
ENDBRANCH 19 24
ENDBRANCH 16 19
ENDBRANCH 5 15
ENDBRANCH 3 5
BRANCH 1 35
ATOM     35  CA  LEU B   3      -1.978  19.907  14.388  1.00 32.52 LIG 0.18  C 
BRANCH 35 36
ATOM     36  CB  LEU B   3      -1.452  19.074  15.574  1.00 32.14 LIG 0.04  C 
BRANCH 36 37
ATOM     37  CG  LEU B   3      -0.263  18.154  15.245  1.00 34.99 LIG-0.02  C 
ATOM     38  CD2 LEU B   3      -0.426  16.765  15.913  1.00 35.91 LIG 0.01  C 
ATOM     39  CD1 LEU B   3       1.074  18.844  15.606  1.00 33.16 LIG 0.01  C 
ENDBRANCH 36 37
ENDBRANCH 35 36
BRANCH 35 40
ATOM     40  N   LEU B   3      -3.435  19.850  14.322  1.00 32.48 LIG-0.35  N 
ATOM     41  C   ASN B   2      -4.098  20.366  13.270  1.00 36.40 LIG 0.24  C 
ATOM     42 O    ASN B   2      -3.528  20.933  12.330  1.00 34.95 LIG-0.27  OA
ATOM     43 H    LEU B   3      -3.812  19.469  14.994  1.00 32.48 LIG 0.16  HD
BRANCH 41 44
ATOM     44  CA  ASN B   2      -5.628  20.313  13.307  1.00 32.65 LIG 0.18  C 
BRANCH 44 45
ATOM     45  N   ASN B   2      -6.090  20.827  12.022  1.00 32.45 LIG-0.34  N 
ATOM     46 H    ASN B   2      -6.125  20.216  11.418  1.00 32.45 LIG 0.16  HD
ATOM     47  C   THR B   1      -6.431  22.094  11.765  1.00 35.22 LIG 0.25  C 
ATOM     48 O    THR B   1      -6.524  22.983  12.634  1.00 34.61 LIG-0.27  OA
BRANCH 47 49
ATOM     49  CA  THR B   1      -6.722  22.361  10.309  1.00 32.53 LIG 0.30  C 
BRANCH 49 50
ATOM     50  CB  THR B   1      -5.709  23.365   9.736  1.00 31.51 LIG 0.15  C 
ATOM     51  CG2 THR B   1      -4.524  22.685   8.983  1.00 30.77 LIG 0.04  C 
BRANCH 50 52
ATOM     52 OG1  THR B   1      -6.396  24.269   8.870  1.00 21.64 LIG-0.39  OA
ATOM     53 HG1  THR B   1      -6.147  24.142   8.078  1.00 21.64 LIG 0.21  HD
ENDBRANCH 50 52
ENDBRANCH 49 50
BRANCH 49 54
ATOM     54  N   THR B   1      -8.100  22.799  10.107  1.00 34.33 LIG-0.06  N 
ATOM     55 H2   THR B   1      -8.184  23.646  10.370  1.00 34.33 LIG 0.28  HD
ATOM     56 H1   THR B   1      -8.648  22.285  10.584  1.00 34.33 LIG 0.28  HD
ATOM     57 H3   THR B   1      -8.309  22.735   9.245  1.00 34.33 LIG 0.28  HD
ENDBRANCH 49 54
ENDBRANCH 47 49
ENDBRANCH 44 45
BRANCH 44 58
ATOM     58  CB  ASN B   2      -6.159  18.891  13.565  1.00 33.77 LIG 0.14  C 
BRANCH 58 59
ATOM     59  CG  ASN B   2      -6.857  18.276  12.368  1.00 47.71 LIG 0.22  C 
ATOM     60 OD1  ASN B   2      -7.712  18.890  11.721  1.00 37.59 LIG-0.27  OA
ATOM     61  ND2 ASN B   2      -6.531  17.029  12.063  1.00 40.38 LIG-0.37  N 
ATOM     62 22HD ASN B   2      -5.934  16.616  12.523  1.00 40.38 LIG 0.16  HD
ATOM     63 21HD ASN B   2      -6.916  16.633  11.404  1.00 40.38 LIG 0.16  HD
ENDBRANCH 58 59
ENDBRANCH 44 58
ENDBRANCH 41 44
ENDBRANCH 35 40
ENDBRANCH 1 35
TORSDOF 26
ENDMDL
MODEL 2
USER: ADFR SOLUTION from run 170
USER: SCORE 22.542006 LL:  -5.347 LR: -17.758 RR:   0.000 FEB: -10.002
USER: RMSD 5.403048
USER: SEED 169
USER: STATUS no improvement in best in 6 clusters for 5 generations
USER: GENES 28
USER: genes 0 Translation |==|  0.40231 0.31473 0.42383
USER: genes 1 Rotation |==|  0.54500 0.65267 0.31643 0.93700
USER: genes 2 Torsion [C]-N--CA-[CB] |==|  0.80292
USER: genes 3 Torsion [N]-CA--CB-[CG] |==|  0.59930
USER: genes 4 Torsion [CA]-CB--CG-[CD2] |==|  0.48345
USER: genes 5 Torsion [CE2]-CZ--OH-[HH] |==|  0.49241
USER: genes 6 Torsion [N]-CA--C-[N] |==|  0.33479
USER: genes 7 Torsion [C]-N--CA-[CB] |==|  0.17305
USER: genes 8 Torsion [N]-CA--CB-[CG] |==|  0.16404
USER: genes 9 Torsion [CA]-CB--CG-[SD] |==|  0.55761
USER: genes 10 Torsion [CB]-CG--SD-[CE] |==|  0.14951
USER: genes 11 Torsion [N]-CA--C-[N] |==|  0.05640
USER: genes 12 Torsion [C]-N--CA-[C] |==|  0.55618
USER: genes 13 Torsion [N]-CA--C-[O] |==|  0.03974
USER: genes 14 Torsion [N]-CA--CB-[CG] |==|  0.68090
USER: genes 15 Torsion [CA]-CB--CG-[CD1] |==|  0.94315
USER: genes 16 Torsion [N]-C--CA-[N] |==|  0.89511
USER: genes 17 Torsion [C]-CA--CB-[CG] |==|  0.38168
USER: genes 18 Torsion [CA]-CB--CG-[CD2] |==|  0.03698
USER: genes 19 Torsion [C]-CA--N-[C] |==|  0.75376
USER: genes 20 Torsion [N]-C--CA-[N] |==|  0.13164
USER: genes 21 Torsion [C]-CA--N-[C] |==|  0.13889
USER: genes 22 Torsion [N]-C--CA-[N] |==|  0.79351
USER: genes 23 Torsion [C]-CA--CB-[CG2] |==|  0.25642
USER: genes 24 Torsion [CA]-CB--OG1-[HG1] |==|  0.36538
USER: genes 25 Torsion [C]-CA--N-[H2] |==|  0.91685
USER: genes 26 Torsion [C]-CA--CB-[CG] |==|  0.77857
USER: genes 27 Torsion [CA]-CB--CG-[OD1] |==|  0.73507
ROOT
ATOM      1  C   LEU B   3      -0.763  17.289  11.541  1.00 37.56 LIG 0.24  C 
ATOM      2 O    LEU B   3      -0.427  16.089  11.516  1.00 36.01 LIG-0.27  OA
ATOM      3  N   TYR B   4      -0.225  18.218  12.383  1.00 34.90 LIG-0.35  N 
ATOM      4 H    TYR B   4      -0.478  19.039  12.365  1.00 34.90 LIG 0.16  HD
ENDROOT
BRANCH 3 5
ATOM      5  CA  TYR B   4       0.810  17.983  13.393  1.00 36.24 LIG 0.18  C 
BRANCH 5 6
ATOM      6  CB  TYR B   4       0.248  17.163  14.573  1.00 36.37 LIG 0.07  C 
BRANCH 6 7
ATOM      7  CG  TYR B   4       0.864  17.617  15.872  1.00 36.28 LIG-0.06  A 
ATOM      8  CD2 TYR B   4       0.426  17.110  17.095  1.00 36.38 LIG 0.01  A 
ATOM      9  CE2 TYR B   4       0.949  17.568  18.298  1.00 36.34 LIG 0.04  A 
ATOM     10  CZ  TYR B   4       1.899  18.576  18.289  1.00 42.86 LIG 0.07  A 
ATOM     11  CE1 TYR B   4       2.340  19.107  17.087  1.00 38.54 LIG 0.04  A 
ATOM     12  CD1 TYR B   4       1.819  18.632  15.890  1.00 37.84 LIG 0.01  A 
BRANCH 10 13
ATOM     13 OH   TYR B   4       2.413  19.052  19.464  1.00 44.02 LIG-0.36  OA
ATOM     14 HH   TYR B   4       3.000  19.630  19.300  1.00 44.02 LIG 0.22  HD
ENDBRANCH 10 13
ENDBRANCH 6 7
ENDBRANCH 5 6
BRANCH 5 15
ATOM     15  C   TYR B   4       2.048  17.332  12.787  1.00 47.41 LIG 0.24  C 
ATOM     16  N   MET B   5       3.176  18.022  12.917  1.00 49.29 LIG-0.35  N 
ATOM     17 H    MET B   5       3.227  18.803  13.273  1.00 49.29 LIG 0.16  HD
ATOM     18 O    TYR B   4       1.994  16.232  12.232  1.00 47.26 LIG-0.27  OA
BRANCH 16 19
ATOM     19  CA  MET B   5       4.440  17.484  12.451  1.00 52.16 LIG 0.18  C 
BRANCH 19 20
ATOM     20  CB  MET B   5       4.418  17.259  10.939  1.00 55.77 LIG 0.04  C 
BRANCH 20 21
ATOM     21  CG  MET B   5       4.142  18.543  10.160  1.00 61.00 LIG 0.08  C 
BRANCH 21 22
ATOM     22 SD   MET B   5       3.530  18.232   8.495  1.00 67.05 LIG-0.17  SA
ATOM     23  CE  MET B   5       2.153  17.170   8.865  1.00 63.64 LIG 0.09  C 
ENDBRANCH 21 22
ENDBRANCH 20 21
ENDBRANCH 19 20
BRANCH 19 24
ATOM     24  C   MET B   5       5.509  18.458  12.904  1.00 55.98 LIG 0.24  C 
ATOM     25 O    MET B   5       6.562  18.537  12.269  1.00 56.32 LIG-0.27  OA
ATOM     26  N   LEU B   6       5.199  19.282  13.911  1.00 51.23 LIG-0.35  N 
ATOM     27 H    LEU B   6       4.455  19.250  14.341  1.00 51.23 LIG 0.16  HD
BRANCH 26 28
ATOM     28  CA  LEU B   6       6.113  20.324  14.376  1.00 69.26 LIG 0.16  C 
BRANCH 28 29
ATOM     29  C   LEU B   6       5.767  20.776  15.793  1.00 97.67 LIG 0.22  C 
ATOM     30 O    LEU B   6       5.006  20.115  16.498  1.00 61.20 LIG-0.29  OA
ENDBRANCH 28 29
BRANCH 28 31
ATOM     31  CB  LEU B   6       6.094  21.514  13.396  1.00 69.14 LIG 0.04  C 
BRANCH 31 32
ATOM     32  CG  LEU B   6       7.403  21.778  12.652  1.00 73.60 LIG-0.02  C 
ATOM     33  CD2 LEU B   6       7.312  21.334  11.212  1.00 75.76 LIG 0.01  C 
ATOM     34  CD1 LEU B   6       8.577  21.153  13.369  1.00 73.41 LIG 0.01  C 
ENDBRANCH 31 32
ENDBRANCH 28 31
ENDBRANCH 26 28
ENDBRANCH 19 24
ENDBRANCH 16 19
ENDBRANCH 5 15
ENDBRANCH 3 5
BRANCH 1 35
ATOM     35  CA  LEU B   3      -1.890  17.776  10.628  1.00 32.52 LIG 0.18  C 
BRANCH 35 36
ATOM     36  CB  LEU B   3      -1.332  18.382   9.324  1.00 32.14 LIG 0.04  C 
BRANCH 36 37
ATOM     37  CG  LEU B   3      -2.088  17.981   8.045  1.00 34.99 LIG-0.02  C 
ATOM     38  CD2 LEU B   3      -3.448  17.318   8.381  1.00 35.91 LIG 0.01  C 
ATOM     39  CD1 LEU B   3      -1.196  17.101   7.139  1.00 33.16 LIG 0.01  C 
ENDBRANCH 36 37
ENDBRANCH 35 36
BRANCH 35 40
ATOM     40  N   LEU B   3      -2.764  18.727  11.307  1.00 32.48 LIG-0.35  N 
ATOM     41  C   ASN B   2      -3.830  18.303  12.011  1.00 36.40 LIG 0.24  C 
ATOM     42 O    ASN B   2      -4.144  17.110  12.099  1.00 34.95 LIG-0.27  OA
ATOM     43 H    LEU B   3      -2.539  19.553  11.217  1.00 32.48 LIG 0.16  HD
BRANCH 41 44
ATOM     44  CA  ASN B   2      -4.726  19.371  12.646  1.00 32.65 LIG 0.18  C 
BRANCH 44 45
ATOM     45  N   ASN B   2      -4.983  20.364  11.609  1.00 32.45 LIG-0.34  N 
ATOM     46 H    ASN B   2      -4.832  21.166  11.878  1.00 32.45 LIG 0.16  HD
ATOM     47  C   THR B   1      -5.407  20.103  10.367  1.00 35.22 LIG 0.25  C 
ATOM     48 O    THR B   1      -5.512  18.956   9.891  1.00 34.61 LIG-0.27  OA
BRANCH 47 49
ATOM     49  CA  THR B   1      -5.733  21.339   9.565  1.00 32.53 LIG 0.30  C 
BRANCH 49 50
ATOM     50  CB  THR B   1      -4.566  22.337   9.622  1.00 31.51 LIG 0.15  C 
ATOM     51  CG2 THR B   1      -3.553  22.170   8.447  1.00 30.77 LIG 0.04  C 
BRANCH 50 52
ATOM     52 OG1  THR B   1      -5.094  23.663   9.639  1.00 21.64 LIG-0.39  OA
ATOM     53 HG1  THR B   1      -4.727  24.103  10.253  1.00 21.64 LIG 0.21  HD
ENDBRANCH 50 52
ENDBRANCH 49 50
BRANCH 49 54
ATOM     54  N   THR B   1      -6.990  21.943   9.995  1.00 34.33 LIG-0.06  N 
ATOM     55 H2   THR B   1      -7.533  21.310  10.306  1.00 34.33 LIG 0.28  HD
ATOM     56 H1   THR B   1      -7.375  22.351   9.304  1.00 34.33 LIG 0.28  HD
ATOM     57 H3   THR B   1      -6.830  22.537  10.638  1.00 34.33 LIG 0.28  HD
ENDBRANCH 49 54
ENDBRANCH 47 49
ENDBRANCH 44 45
BRANCH 44 58
ATOM     58  CB  ASN B   2      -6.038  18.783  13.197  1.00 33.77 LIG 0.14  C 
BRANCH 58 59
ATOM     59  CG  ASN B   2      -7.089  18.539  12.132  1.00 47.71 LIG 0.22  C 
ATOM     60 OD1  ASN B   2      -7.976  19.364  11.885  1.00 37.59 LIG-0.27  OA
ATOM     61  ND2 ASN B   2      -7.034  17.379  11.494  1.00 40.38 LIG-0.37  N 
ATOM     62 22HD ASN B   2      -6.410  16.817  11.677  1.00 40.38 LIG 0.16  HD
ATOM     63 21HD ASN B   2      -7.622  17.190  10.896  1.00 40.38 LIG 0.16  HD
ENDBRANCH 58 59
ENDBRANCH 44 58
ENDBRANCH 41 44
ENDBRANCH 35 40
ENDBRANCH 1 35
TORSDOF 26
ENDMDL
MODEL 3
USER: ADFR SOLUTION from run 185
USER: SCORE 20.866012 LL:  -6.262 LR: -17.062 RR:   0.000 FEB:  -9.307
USER: RMSD 5.769035
USER: SEED 184
USER: STATUS 1 or 2 clusters left
USER: GENES 28
USER: genes 0 Translation |==|  0.48944 0.41064 0.40989
USER: genes 1 Rotation |==|  0.84184 0.58950 0.67739 0.80606
USER: genes 2 Torsion [C]-N--CA-[CB] |==|  0.76738
USER: genes 3 Torsion [N]-CA--CB-[CG] |==|  0.02607
USER: genes 4 Torsion [CA]-CB--CG-[CD2] |==|  0.76263
USER: genes 5 Torsion [CE2]-CZ--OH-[HH] |==|  0.40106
USER: genes 6 Torsion [N]-CA--C-[N] |==|  0.14448
USER: genes 7 Torsion [C]-N--CA-[CB] |==|  0.26111
USER: genes 8 Torsion [N]-CA--CB-[CG] |==|  0.78623
USER: genes 9 Torsion [CA]-CB--CG-[SD] |==|  0.76568
USER: genes 10 Torsion [CB]-CG--SD-[CE] |==|  0.63531
USER: genes 11 Torsion [N]-CA--C-[N] |==|  0.02058
USER: genes 12 Torsion [C]-N--CA-[C] |==|  0.60748
USER: genes 13 Torsion [N]-CA--C-[O] |==|  0.89842
USER: genes 14 Torsion [N]-CA--CB-[CG] |==|  0.72605
USER: genes 15 Torsion [CA]-CB--CG-[CD1] |==|  0.91686
USER: genes 16 Torsion [N]-C--CA-[N] |==|  0.86354
USER: genes 17 Torsion [C]-CA--CB-[CG] |==|  0.14995
USER: genes 18 Torsion [CA]-CB--CG-[CD2] |==|  0.08704
USER: genes 19 Torsion [C]-CA--N-[C] |==|  0.57857
USER: genes 20 Torsion [N]-C--CA-[N] |==|  0.31883
USER: genes 21 Torsion [C]-CA--N-[C] |==|  0.87003
USER: genes 22 Torsion [N]-C--CA-[N] |==|  0.90354
USER: genes 23 Torsion [C]-CA--CB-[CG2] |==|  0.07134
USER: genes 24 Torsion [CA]-CB--OG1-[HG1] |==|  0.25420
USER: genes 25 Torsion [C]-CA--N-[H2] |==|  0.51132
USER: genes 26 Torsion [C]-CA--CB-[CG] |==|  0.41396
USER: genes 27 Torsion [CA]-CB--CG-[OD1] |==|  0.20022
ROOT
ATOM      1  C   LEU B   3       1.066  18.944  11.206  1.00 37.56 LIG 0.24  C 
ATOM      2 O    LEU B   3       2.220  19.250  10.848  1.00 36.01 LIG-0.27  OA
ATOM      3  N   TYR B   4       0.763  17.842  11.952  1.00 34.90 LIG-0.35  N 
ATOM      4 H    TYR B   4      -0.046  17.669  12.186  1.00 34.90 LIG 0.16  HD
ENDROOT
BRANCH 3 5
ATOM      5  CA  TYR B   4       1.706  16.836  12.447  1.00 36.24 LIG 0.18  C 
BRANCH 5 6
ATOM      6  CB  TYR B   4       1.994  15.776  11.365  1.00 36.37 LIG 0.07  C 
BRANCH 6 7
ATOM      7  CG  TYR B   4       1.408  16.199  10.043  1.00 36.28 LIG-0.06  A 
ATOM      8  CD2 TYR B   4       0.079  15.926   9.722  1.00 36.38 LIG 0.01  A 
ATOM      9  CE2 TYR B   4      -0.451  16.261   8.481  1.00 36.34 LIG 0.04  A 
ATOM     10  CZ  TYR B   4       0.366  16.843   7.526  1.00 42.86 LIG 0.07  A 
ATOM     11  CE1 TYR B   4       1.695  17.110   7.815  1.00 38.54 LIG 0.04  A 
ATOM     12  CD1 TYR B   4       2.210  16.783   9.063  1.00 37.84 LIG 0.01  A 
BRANCH 10 13
ATOM     13 OH   TYR B   4      -0.132  17.163   6.293  1.00 44.02 LIG-0.36  OA
ATOM     14 HH   TYR B   4       0.227  17.873   6.021  1.00 44.02 LIG 0.22  HD
ENDBRANCH 10 13
ENDBRANCH 6 7
ENDBRANCH 5 6
BRANCH 5 15
ATOM     15  C   TYR B   4       2.987  17.479  12.969  1.00 47.41 LIG 0.24  C 
ATOM     16  N   MET B   5       2.814  18.451  13.858  1.00 49.29 LIG-0.35  N 
ATOM     17 H    MET B   5       2.047  18.749  14.107  1.00 49.29 LIG 0.16  HD
ATOM     18 O    TYR B   4       4.100  17.099  12.596  1.00 47.26 LIG-0.27  OA
BRANCH 16 19
ATOM     19  CA  MET B   5       3.949  19.098  14.490  1.00 52.16 LIG 0.18  C 
BRANCH 19 20
ATOM     20  CB  MET B   5       4.352  20.364  13.735  1.00 55.77 LIG 0.04  C 
BRANCH 20 21
ATOM     21  CG  MET B   5       5.128  20.060  12.455  1.00 61.00 LIG 0.08  C 
BRANCH 21 22
ATOM     22 SD   MET B   5       6.888  19.814  12.745  1.00 67.05 LIG-0.17  SA
ATOM     23  CE  MET B   5       7.560  20.876  11.486  1.00 63.64 LIG 0.09  C 
ENDBRANCH 21 22
ENDBRANCH 20 21
ENDBRANCH 19 20
BRANCH 19 24
ATOM     24  C   MET B   5       3.547  19.351  15.929  1.00 55.98 LIG 0.24  C 
ATOM     25 O    MET B   5       4.227  20.111  16.620  1.00 56.32 LIG-0.27  OA
ATOM     26  N   LEU B   6       2.388  18.827  16.342  1.00 51.23 LIG-0.35  N 
ATOM     27 H    LEU B   6       1.895  18.318  15.855  1.00 51.23 LIG 0.16  HD
BRANCH 26 28
ATOM     28  CA  LEU B   6       1.850  19.078  17.678  1.00 69.26 LIG 0.16  C 
BRANCH 28 29
ATOM     29  C   LEU B   6       1.198  17.825  18.259  1.00 97.67 LIG 0.22  C 
ATOM     30 O    LEU B   6       0.571  17.048  17.540  1.00 61.20 LIG-0.29  OA
ENDBRANCH 28 29
BRANCH 28 31
ATOM     31  CB  LEU B   6       0.851  20.251  17.630  1.00 69.14 LIG 0.04  C 
BRANCH 31 32
ATOM     32  CG  LEU B   6       1.406  21.609  18.056  1.00 73.60 LIG-0.02  C 
ATOM     33  CD2 LEU B   6       1.845  22.420  16.861  1.00 75.76 LIG 0.01  C 
ATOM     34  CD1 LEU B   6       2.508  21.455  19.079  1.00 73.41 LIG 0.01  C 
ENDBRANCH 31 32
ENDBRANCH 28 31
ENDBRANCH 26 28
ENDBRANCH 19 24
ENDBRANCH 16 19
ENDBRANCH 5 15
ENDBRANCH 3 5
BRANCH 1 35
ATOM     35  CA  LEU B   3      -0.117  19.798  10.749  1.00 32.52 LIG 0.18  C 
BRANCH 35 36
ATOM     36  CB  LEU B   3      -0.681  20.642  11.911  1.00 32.14 LIG 0.04  C 
BRANCH 36 37
ATOM     37  CG  LEU B   3       0.352  21.518  12.639  1.00 34.99 LIG-0.02  C 
ATOM     38  CD2 LEU B   3       1.473  21.984  11.675  1.00 35.91 LIG 0.01  C 
ATOM     39  CD1 LEU B   3       0.897  20.790  13.890  1.00 33.16 LIG 0.01  C 
ENDBRANCH 36 37
ENDBRANCH 35 36
BRANCH 35 40
ATOM     40  N   LEU B   3      -1.167  18.987  10.142  1.00 32.48 LIG-0.35  N 
ATOM     41  C   ASN B   2      -1.984  19.505   9.205  1.00 36.40 LIG 0.24  C 
ATOM     42 O    ASN B   2      -1.915  20.682   8.831  1.00 34.95 LIG-0.27  OA
ATOM     43 H    LEU B   3      -1.211  18.178  10.430  1.00 32.48 LIG 0.16  HD
BRANCH 41 44
ATOM     44  CA  ASN B   2      -3.095  18.601   8.660  1.00 32.65 LIG 0.18  C 
BRANCH 44 45
ATOM     45  N   ASN B   2      -4.357  19.204   9.074  1.00 32.45 LIG-0.34  N 
ATOM     46 H    ASN B   2      -4.925  19.249   8.430  1.00 32.45 LIG 0.16  HD
ATOM     47  C   THR B   1      -4.643  19.651  10.301  1.00 35.22 LIG 0.25  C 
ATOM     48 O    THR B   1      -3.906  19.490  11.294  1.00 34.61 LIG-0.27  OA
BRANCH 47 49
ATOM     49  CA  THR B   1      -5.970  20.363  10.394  1.00 32.53 LIG 0.30  C 
BRANCH 49 50
ATOM     50  CB  THR B   1      -7.088  19.369  10.742  1.00 31.51 LIG 0.15  C 
ATOM     51  CG2 THR B   1      -6.578  18.111  11.511  1.00 30.77 LIG 0.04  C 
BRANCH 50 52
ATOM     52 OG1  THR B   1      -8.088  20.047  11.504  1.00 21.64 LIG-0.39  OA
ATOM     53 HG1  THR B   1      -8.673  20.354  10.987  1.00 21.64 LIG 0.21  HD
ENDBRANCH 50 52
ENDBRANCH 49 50
BRANCH 49 54
ATOM     54  N   THR B   1      -6.265  21.112   9.175  1.00 34.33 LIG-0.06  N 
ATOM     55 H2   THR B   1      -7.022  21.567   9.282  1.00 34.33 LIG 0.28  HD
ATOM     56 H1   THR B   1      -6.352  20.547   8.493  1.00 34.33 LIG 0.28  HD
ATOM     57 H3   THR B   1      -5.600  21.679   9.007  1.00 34.33 LIG 0.28  HD
ENDBRANCH 49 54
ENDBRANCH 47 49
ENDBRANCH 44 45
BRANCH 44 58
ATOM     58  CB  ASN B   2      -3.024  18.444   7.131  1.00 33.77 LIG 0.14  C 
BRANCH 58 59
ATOM     59  CG  ASN B   2      -3.526  17.103   6.633  1.00 47.71 LIG 0.22  C 
ATOM     60 OD1  ASN B   2      -4.727  16.810   6.640  1.00 37.59 LIG-0.27  OA
ATOM     61  ND2 ASN B   2      -2.612  16.240   6.216  1.00 40.38 LIG-0.37  N 
ATOM     62 22HD ASN B   2      -1.781  16.460   6.216  1.00 40.38 LIG 0.16  HD
ATOM     63 21HD ASN B   2      -2.851  15.460   5.943  1.00 40.38 LIG 0.16  HD
ENDBRANCH 58 59
ENDBRANCH 44 58
ENDBRANCH 41 44
ENDBRANCH 35 40
ENDBRANCH 1 35
TORSDOF 26
ENDMDL
MODEL 4
USER: ADFR SOLUTION from run 43
USER: SCORE 21.398063 LL:  -6.381 LR: -16.872 RR:   0.000 FEB:  -9.116
USER: RMSD 10.473771
USER: SEED 42
USER: STATUS no improvement in best in 2 clusters for 5 generations
USER: GENES 28
USER: genes 0 Translation |==|  0.58568 0.44567 0.54815
USER: genes 1 Rotation |==|  0.33162 0.96146 0.45128 0.57958
USER: genes 2 Torsion [C]-N--CA-[CB] |==|  0.85552
USER: genes 3 Torsion [N]-CA--CB-[CG] |==|  0.81760
USER: genes 4 Torsion [CA]-CB--CG-[CD2] |==|  0.32498
USER: genes 5 Torsion [CE2]-CZ--OH-[HH] |==|  0.20905
USER: genes 6 Torsion [N]-CA--C-[N] |==|  0.90224
USER: genes 7 Torsion [C]-N--CA-[CB] |==|  0.90721
USER: genes 8 Torsion [N]-CA--CB-[CG] |==|  0.53682
USER: genes 9 Torsion [CA]-CB--CG-[SD] |==|  0.64492
USER: genes 10 Torsion [CB]-CG--SD-[CE] |==|  0.32915
USER: genes 11 Torsion [N]-CA--C-[N] |==|  0.06805
USER: genes 12 Torsion [C]-N--CA-[C] |==|  0.82967
USER: genes 13 Torsion [N]-CA--C-[O] |==|  0.79963
USER: genes 14 Torsion [N]-CA--CB-[CG] |==|  0.81471
USER: genes 15 Torsion [CA]-CB--CG-[CD1] |==|  0.96383
USER: genes 16 Torsion [N]-C--CA-[N] |==|  0.91783
USER: genes 17 Torsion [C]-CA--CB-[CG] |==|  0.41592
USER: genes 18 Torsion [CA]-CB--CG-[CD2] |==|  0.13913
USER: genes 19 Torsion [C]-CA--N-[C] |==|  0.80963
USER: genes 20 Torsion [N]-C--CA-[N] |==|  0.40972
USER: genes 21 Torsion [C]-CA--N-[C] |==|  0.77796
USER: genes 22 Torsion [N]-C--CA-[N] |==|  0.68159
USER: genes 23 Torsion [C]-CA--CB-[CG2] |==|  0.39514
USER: genes 24 Torsion [CA]-CB--OG1-[HG1] |==|  0.40271
USER: genes 25 Torsion [C]-CA--N-[H2] |==|  0.68939
USER: genes 26 Torsion [C]-CA--CB-[CG] |==|  0.31603
USER: genes 27 Torsion [CA]-CB--CG-[OD1] |==|  0.77156
ROOT
ATOM      1  C   LEU B   3       3.087  19.548  14.525  1.00 37.56 LIG 0.24  C 
ATOM      2 O    LEU B   3       3.016  18.448  13.944  1.00 36.01 LIG-0.27  OA
ATOM      3  N   TYR B   4       3.259  20.741  13.886  1.00 34.90 LIG-0.35  N 
ATOM      4 H    TYR B   4       3.296  21.481  14.322  1.00 34.90 LIG 0.16  HD
ENDROOT
BRANCH 3 5
ATOM      5  CA  TYR B   4       3.400  20.946  12.442  1.00 36.24 LIG 0.18  C 
BRANCH 5 6
ATOM      6  CB  TYR B   4       4.504  20.037  11.864  1.00 36.37 LIG 0.07  C 
BRANCH 6 7
ATOM      7  CG  TYR B   4       5.851  20.429  12.413  1.00 36.28 LIG-0.06  A 
ATOM      8  CD2 TYR B   4       6.596  19.548  13.196  1.00 36.38 LIG 0.01  A 
ATOM      9  CE2 TYR B   4       7.812  19.924  13.754  1.00 36.34 LIG 0.04  A 
ATOM     10  CZ  TYR B   4       8.279  21.215  13.563  1.00 42.86 LIG 0.07  A 
ATOM     11  CE1 TYR B   4       7.549  22.114  12.802  1.00 38.54 LIG 0.04  A 
ATOM     12  CD1 TYR B   4       6.342  21.722  12.238  1.00 37.84 LIG 0.01  A 
BRANCH 10 13
ATOM     13 OH   TYR B   4       9.465  21.610  14.119  1.00 44.02 LIG-0.36  OA
ATOM     14 HH   TYR B   4      10.103  21.280  13.683  1.00 44.02 LIG 0.22  HD
ENDBRANCH 10 13
ENDBRANCH 6 7
ENDBRANCH 5 6
BRANCH 5 15
ATOM     15  C   TYR B   4       2.071  20.758  11.718  1.00 47.41 LIG 0.24  C 
ATOM     16  N   MET B   5       1.276  19.820  12.221  1.00 49.29 LIG-0.35  N 
ATOM     17 H    MET B   5       1.488  19.309  12.880  1.00 49.29 LIG 0.16  HD
ATOM     18 O    TYR B   4       1.762  21.449  10.744  1.00 47.26 LIG-0.27  OA
BRANCH 16 19
ATOM     19  CA  MET B   5      -0.048  19.587  11.674  1.00 52.16 LIG 0.18  C 
BRANCH 19 20
ATOM     20  CB  MET B   5      -0.672  20.889  11.173  1.00 55.77 LIG 0.04  C 
BRANCH 20 21
ATOM     21  CG  MET B   5      -2.166  20.752  10.892  1.00 61.00 LIG 0.08  C 
BRANCH 21 22
ATOM     22 SD   MET B   5      -2.623  21.316   9.244  1.00 67.05 LIG-0.17  SA
ATOM     23  CE  MET B   5      -3.266  19.802   8.566  1.00 63.64 LIG 0.09  C 
ENDBRANCH 21 22
ENDBRANCH 20 21
ENDBRANCH 19 20
BRANCH 19 24
ATOM     24  C   MET B   5       0.117  18.538  10.595  1.00 55.98 LIG 0.24  C 
ATOM     25 O    MET B   5      -0.641  18.547   9.624  1.00 56.32 LIG-0.27  OA
ATOM     26  N   LEU B   6       1.171  17.719  10.692  1.00 51.23 LIG-0.35  N 
ATOM     27 H    LEU B   6       1.720  17.726  11.354  1.00 51.23 LIG 0.16  HD
BRANCH 26 28
ATOM     28  CA  LEU B   6       1.486  16.728   9.665  1.00 69.26 LIG 0.16  C 
BRANCH 28 29
ATOM     29  C   LEU B   6       0.356  15.713   9.507  1.00 97.67 LIG 0.22  C 
ATOM     30 O    LEU B   6       0.148  14.860  10.369  1.00 61.20 LIG-0.29  OA
ENDBRANCH 28 29
BRANCH 28 31
ATOM     31  CB  LEU B   6       2.817  16.027  10.002  1.00 69.14 LIG 0.04  C 
BRANCH 31 32
ATOM     32  CG  LEU B   6       4.062  16.910   9.940  1.00 73.60 LIG-0.02  C 
ATOM     33  CD2 LEU B   6       4.663  17.103  11.312  1.00 75.76 LIG 0.01  C 
ATOM     34  CD1 LEU B   6       3.770  18.224   9.253  1.00 73.41 LIG 0.01  C 
ENDBRANCH 31 32
ENDBRANCH 28 31
ENDBRANCH 26 28
ENDBRANCH 19 24
ENDBRANCH 16 19
ENDBRANCH 5 15
ENDBRANCH 3 5
BRANCH 1 35
ATOM     35  CA  LEU B   3       3.045  19.598  16.053  1.00 32.52 LIG 0.18  C 
BRANCH 35 36
ATOM     36  CB  LEU B   3       1.595  19.677  16.571  1.00 32.14 LIG 0.04  C 
BRANCH 36 37
ATOM     37  CG  LEU B   3       1.359  19.026  17.945  1.00 34.99 LIG-0.02  C 
ATOM     38  CD2 LEU B   3       2.397  19.518  18.985  1.00 35.91 LIG 0.01  C 
ATOM     39  CD1 LEU B   3       1.317  17.486  17.818  1.00 33.16 LIG 0.01  C 
ENDBRANCH 36 37
ENDBRANCH 35 36
BRANCH 35 40
ATOM     40  N   LEU B   3       3.843  20.700  16.580  1.00 32.48 LIG-0.35  N 
ATOM     41  C   ASN B   2       5.185  20.690  16.480  1.00 36.40 LIG 0.24  C 
ATOM     42 O    ASN B   2       5.813  19.752  15.972  1.00 34.95 LIG-0.27  OA
ATOM     43 H    LEU B   3       3.389  21.332  16.946  1.00 32.48 LIG 0.16  HD
BRANCH 41 44
ATOM     44  CA  ASN B   2       5.949  21.859  17.109  1.00 32.65 LIG 0.18  C 
BRANCH 44 45
ATOM     45  N   ASN B   2       7.220  21.318  17.576  1.00 32.45 LIG-0.34  N 
ATOM     46 H    ASN B   2       7.866  21.484  17.034  1.00 32.45 LIG 0.16  HD
ATOM     47  C   THR B   1       7.407  20.636  18.711  1.00 35.22 LIG 0.25  C 
ATOM     48 O    THR B   1       6.535  20.486  19.589  1.00 34.61 LIG-0.27  OA
BRANCH 47 49
ATOM     49  CA  THR B   1       8.798  20.070  18.856  1.00 32.53 LIG 0.30  C 
BRANCH 49 50
ATOM     50  CB  THR B   1       9.726  20.646  17.775  1.00 31.51 LIG 0.15  C 
ATOM     51  CG2 THR B   1      11.172  20.927  18.290  1.00 30.77 LIG 0.04  C 
BRANCH 50 52
ATOM     52 OG1  THR B   1       9.758  19.747  16.667  1.00 21.64 LIG-0.39  OA
ATOM     53 HG1  THR B   1       9.820  20.184  15.953  1.00 21.64 LIG 0.21  HD
ENDBRANCH 50 52
ENDBRANCH 49 50
BRANCH 49 54
ATOM     54  N   THR B   1       8.789  18.610  18.846  1.00 34.33 LIG-0.06  N 
ATOM     55 H2   THR B   1       9.014  18.305  19.651  1.00 34.33 LIG 0.28  HD
ATOM     56 H1   THR B   1       9.372  18.313  18.242  1.00 34.33 LIG 0.28  HD
ATOM     57 H3   THR B   1       7.974  18.319  18.637  1.00 34.33 LIG 0.28  HD
ENDBRANCH 49 54
ENDBRANCH 47 49
ENDBRANCH 44 45
BRANCH 44 58
ATOM     58  CB  ASN B   2       6.164  23.019  16.119  1.00 33.77 LIG 0.14  C 
BRANCH 58 59
ATOM     59  CG  ASN B   2       5.419  24.285  16.492  1.00 47.71 LIG 0.22  C 
ATOM     60 OD1  ASN B   2       4.225  24.448  16.217  1.00 37.59 LIG-0.27  OA
ATOM     61  ND2 ASN B   2       6.116  25.230  17.105  1.00 40.38 LIG-0.37  N 
ATOM     62 22HD ASN B   2       6.946  25.100  17.290  1.00 40.38 LIG 0.16  HD
ATOM     63 21HD ASN B   2       5.739  25.972  17.318  1.00 40.38 LIG 0.16  HD
ENDBRANCH 58 59
ENDBRANCH 44 58
ENDBRANCH 41 44
ENDBRANCH 35 40
ENDBRANCH 1 35
TORSDOF 26
ENDMDL
MODEL 5
USER: ADFR SOLUTION from run 32
USER: SCORE 20.026208 LL:  -6.034 LR: -16.841 RR:   0.000 FEB:  -9.085
USER: RMSD 5.749362
USER: SEED 31
USER: STATUS no improvement in best in 6 clusters for 5 generations
USER: GENES 28
USER: genes 0 Translation |==|  0.40811 0.41833 0.41332
USER: genes 1 Rotation |==|  0.54311 0.74882 0.92680 0.56380
USER: genes 2 Torsion [C]-N--CA-[CB] |==|  0.25340
USER: genes 3 Torsion [N]-CA--CB-[CG] |==|  0.12793
USER: genes 4 Torsion [CA]-CB--CG-[CD2] |==|  0.70566
USER: genes 5 Torsion [CE2]-CZ--OH-[HH] |==|  0.32368
USER: genes 6 Torsion [N]-CA--C-[N] |==|  0.40377
USER: genes 7 Torsion [C]-N--CA-[CB] |==|  0.80510
USER: genes 8 Torsion [N]-CA--CB-[CG] |==|  0.85480
USER: genes 9 Torsion [CA]-CB--CG-[SD] |==|  0.34905
USER: genes 10 Torsion [CB]-CG--SD-[CE] |==|  0.04760
USER: genes 11 Torsion [N]-CA--C-[N] |==|  0.15456
USER: genes 12 Torsion [C]-N--CA-[C] |==|  0.73707
USER: genes 13 Torsion [N]-CA--C-[O] |==|  0.77649
USER: genes 14 Torsion [N]-CA--CB-[CG] |==|  0.73840
USER: genes 15 Torsion [CA]-CB--CG-[CD1] |==|  0.63402
USER: genes 16 Torsion [N]-C--CA-[N] |==|  0.46468
USER: genes 17 Torsion [C]-CA--CB-[CG] |==|  0.40776
USER: genes 18 Torsion [CA]-CB--CG-[CD2] |==|  0.24328
USER: genes 19 Torsion [C]-CA--N-[C] |==|  0.76111
USER: genes 20 Torsion [N]-C--CA-[N] |==|  0.73752
USER: genes 21 Torsion [C]-CA--N-[C] |==|  0.80531
USER: genes 22 Torsion [N]-C--CA-[N] |==|  0.47688
USER: genes 23 Torsion [C]-CA--CB-[CG2] |==|  0.25483
USER: genes 24 Torsion [CA]-CB--OG1-[HG1] |==|  0.57798
USER: genes 25 Torsion [C]-CA--N-[H2] |==|  0.67493
USER: genes 26 Torsion [C]-CA--CB-[CG] |==|  0.32493
USER: genes 27 Torsion [CA]-CB--CG-[OD1] |==|  0.18333
ROOT
ATOM      1  C   LEU B   3      -0.642  19.076  11.289  1.00 37.56 LIG 0.24  C 
ATOM      2 O    LEU B   3      -1.256  20.136  11.057  1.00 36.01 LIG-0.27  OA
ATOM      3  N   TYR B   4       0.106  18.854  12.408  1.00 34.90 LIG-0.35  N 
ATOM      4 H    TYR B   4       0.509  18.105  12.535  1.00 34.90 LIG 0.16  HD
ENDROOT
BRANCH 3 5
ATOM      5  CA  TYR B   4       0.330  19.794  13.509  1.00 36.24 LIG 0.18  C 
BRANCH 5 6
ATOM      6  CB  TYR B   4      -0.734  19.611  14.611  1.00 36.37 LIG 0.07  C 
BRANCH 6 7
ATOM      7  CG  TYR B   4      -0.919  18.150  14.928  1.00 36.28 LIG-0.06  A 
ATOM      8  CD2 TYR B   4      -2.053  17.457  14.503  1.00 36.38 LIG 0.01  A 
ATOM      9  CE2 TYR B   4      -2.258  16.125  14.842  1.00 36.34 LIG 0.04  A 
ATOM     10  CZ  TYR B   4      -1.339  15.479  15.652  1.00 42.86 LIG 0.07  A 
ATOM     11  CE1 TYR B   4      -0.212  16.150  16.100  1.00 38.54 LIG 0.04  A 
ATOM     12  CD1 TYR B   4      -0.010  17.477  15.744  1.00 37.84 LIG 0.01  A 
BRANCH 10 13
ATOM     13 OH   TYR B   4      -1.532  14.173  16.012  1.00 44.02 LIG-0.36  OA
ATOM     14 HH   TYR B   4      -0.913  13.700  15.696  1.00 44.02 LIG 0.22  HD
ENDBRANCH 10 13
ENDBRANCH 6 7
ENDBRANCH 5 6
BRANCH 5 15
ATOM     15  C   TYR B   4       1.747  19.681  14.062  1.00 47.41 LIG 0.24  C 
ATOM     16  N   MET B   5       2.288  20.821  14.479  1.00 49.29 LIG-0.35  N 
ATOM     17 H    MET B   5       1.907  21.589  14.413  1.00 49.29 LIG 0.16  HD
ATOM     18 O    TYR B   4       2.331  18.597  14.127  1.00 47.26 LIG-0.27  OA
BRANCH 16 19
ATOM     19  CA  MET B   5       3.601  20.845  15.095  1.00 52.16 LIG 0.18  C 
BRANCH 19 20
ATOM     20  CB  MET B   5       3.571  20.200  16.480  1.00 55.77 LIG 0.04  C 
BRANCH 20 21
ATOM     21  CG  MET B   5       2.483  20.788  17.376  1.00 61.00 LIG 0.08  C 
BRANCH 21 22
ATOM     22 SD   MET B   5       1.379  19.535  18.050  1.00 67.05 LIG-0.17  SA
ATOM     23  CE  MET B   5       2.360  18.078  17.774  1.00 63.64 LIG 0.09  C 
ENDBRANCH 21 22
ENDBRANCH 20 21
ENDBRANCH 19 20
BRANCH 19 24
ATOM     24  C   MET B   5       4.538  20.156  14.125  1.00 55.98 LIG 0.24  C 
ATOM     25 O    MET B   5       5.119  19.127  14.474  1.00 56.32 LIG-0.27  OA
ATOM     26  N   LEU B   6       4.592  20.639  12.878  1.00 51.23 LIG-0.35  N 
ATOM     27 H    LEU B   6       4.168  21.341  12.620  1.00 51.23 LIG 0.16  HD
BRANCH 26 28
ATOM     28  CA  LEU B   6       5.389  20.004  11.829  1.00 69.26 LIG 0.16  C 
BRANCH 28 29
ATOM     29  C   LEU B   6       6.770  20.646  11.715  1.00 97.67 LIG 0.22  C 
ATOM     30 O    LEU B   6       6.927  21.701  11.102  1.00 61.20 LIG-0.29  OA
ENDBRANCH 28 29
BRANCH 28 31
ATOM     31  CB  LEU B   6       4.635  20.067  10.486  1.00 69.14 LIG 0.04  C 
BRANCH 31 32
ATOM     32  CG  LEU B   6       3.792  18.840  10.143  1.00 73.60 LIG-0.02  C 
ATOM     33  CD2 LEU B   6       3.991  17.739  11.158  1.00 75.76 LIG 0.01  C 
ATOM     34  CD1 LEU B   6       4.055  18.370   8.731  1.00 73.41 LIG 0.01  C 
ENDBRANCH 31 32
ENDBRANCH 28 31
ENDBRANCH 26 28
ENDBRANCH 19 24
ENDBRANCH 16 19
ENDBRANCH 5 15
ENDBRANCH 3 5
BRANCH 1 35
ATOM     35  CA  LEU B   3      -0.653  17.955  10.248  1.00 32.52 LIG 0.18  C 
BRANCH 35 36
ATOM     36  CB  LEU B   3       0.726  17.801   9.575  1.00 32.14 LIG 0.04  C 
BRANCH 36 37
ATOM     37  CG  LEU B   3       1.099  16.363   9.176  1.00 34.99 LIG-0.02  C 
ATOM     38  CD2 LEU B   3       0.573  16.019   7.759  1.00 35.91 LIG 0.01  C 
ATOM     39  CD1 LEU B   3       0.627  15.360  10.254  1.00 33.16 LIG 0.01  C 
ENDBRANCH 36 37
ENDBRANCH 35 36
BRANCH 35 40
ATOM     40  N   LEU B   3      -1.697  18.155   9.248  1.00 32.48 LIG-0.35  N 
ATOM     41  C   ASN B   2      -2.952  17.720   9.465  1.00 36.40 LIG 0.24  C 
ATOM     42 O    ASN B   2      -3.283  17.111  10.490  1.00 34.95 LIG-0.27  OA
ATOM     43 H    LEU B   3      -1.441  18.562   8.535  1.00 32.48 LIG 0.16  HD
BRANCH 41 44
ATOM     44  CA  ASN B   2      -3.972  17.922   8.341  1.00 32.65 LIG 0.18  C 
BRANCH 44 45
ATOM     45  N   ASN B   2      -4.664  19.173   8.631  1.00 32.45 LIG-0.34  N 
ATOM     46 H    ASN B   2      -4.459  19.797   8.078  1.00 32.45 LIG 0.16  HD
ATOM     47  C   THR B   1      -5.527  19.373   9.634  1.00 35.22 LIG 0.25  C 
ATOM     48 O    THR B   1      -5.955  18.470  10.378  1.00 34.61 LIG-0.27  OA
BRANCH 47 49
ATOM     49  CA  THR B   1      -5.966  20.809   9.778  1.00 32.53 LIG 0.30  C 
BRANCH 49 50
ATOM     50  CB  THR B   1      -4.765  21.704  10.125  1.00 31.51 LIG 0.15  C 
ATOM     51  CG2 THR B   1      -4.067  22.312   8.869  1.00 30.77 LIG 0.04  C 
BRANCH 50 52
ATOM     52 OG1  THR B   1      -5.202  22.741  11.004  1.00 21.64 LIG-0.39  OA
ATOM     53 HG1  THR B   1      -4.714  23.417  10.902  1.00 21.64 LIG 0.21  HD
ENDBRANCH 50 52
ENDBRANCH 49 50
BRANCH 49 54
ATOM     54  N   THR B   1      -7.047  20.946  10.750  1.00 34.33 LIG-0.06  N 
ATOM     55 H2   THR B   1      -7.777  21.251  10.341  1.00 34.33 LIG 0.28  HD
ATOM     56 H1   THR B   1      -6.803  21.517  11.388  1.00 34.33 LIG 0.28  HD
ATOM     57 H3   THR B   1      -7.222  20.153  11.114  1.00 34.33 LIG 0.28  HD
ENDBRANCH 49 54
ENDBRANCH 47 49
ENDBRANCH 44 45
BRANCH 44 58
ATOM     58  CB  ASN B   2      -3.313  17.956   6.950  1.00 33.77 LIG 0.14  C 
BRANCH 58 59
ATOM     59  CG  ASN B   2      -3.753  16.828   6.039  1.00 47.71 LIG 0.22  C 
ATOM     60 OD1  ASN B   2      -4.915  16.735   5.627  1.00 37.59 LIG-0.27  OA
ATOM     61  ND2 ASN B   2      -2.840  15.921   5.726  1.00 40.38 LIG-0.37  N 
ATOM     62 22HD ASN B   2      -2.037  16.001   6.021  1.00 40.38 LIG 0.16  HD
ATOM     63 21HD ASN B   2      -3.051  15.253   5.228  1.00 40.38 LIG 0.16  HD
ENDBRANCH 58 59
ENDBRANCH 44 58
ENDBRANCH 41 44
ENDBRANCH 35 40
ENDBRANCH 1 35
TORSDOF 26
ENDMDL
MODEL 6
USER: ADFR SOLUTION from run 69
USER: SCORE 19.670742 LL:  -5.016 LR: -16.829 RR:   0.000 FEB:  -9.073
USER: RMSD 7.484509
USER: SEED 68
USER: STATUS no improvement in best in 2 clusters for 5 generations
USER: GENES 28
USER: genes 0 Translation |==|  0.30218 0.36439 0.44232
USER: genes 1 Rotation |==|  0.61671 0.89178 0.34897 0.74510
USER: genes 2 Torsion [C]-N--CA-[CB] |==|  0.23266
USER: genes 3 Torsion [N]-CA--CB-[CG] |==|  0.74620
USER: genes 4 Torsion [CA]-CB--CG-[CD2] |==|  0.27518
USER: genes 5 Torsion [CE2]-CZ--OH-[HH] |==|  0.33066
USER: genes 6 Torsion [N]-CA--C-[N] |==|  0.88128
USER: genes 7 Torsion [C]-N--CA-[CB] |==|  0.81471
USER: genes 8 Torsion [N]-CA--CB-[CG] |==|  0.56557
USER: genes 9 Torsion [CA]-CB--CG-[SD] |==|  0.38442
USER: genes 10 Torsion [CB]-CG--SD-[CE] |==|  0.60174
USER: genes 11 Torsion [N]-CA--C-[N] |==|  0.15757
USER: genes 12 Torsion [C]-N--CA-[C] |==|  0.69722
USER: genes 13 Torsion [N]-CA--C-[O] |==|  0.79902
USER: genes 14 Torsion [N]-CA--CB-[CG] |==|  0.81047
USER: genes 15 Torsion [CA]-CB--CG-[CD1] |==|  0.50867
USER: genes 16 Torsion [N]-C--CA-[N] |==|  0.20696
USER: genes 17 Torsion [C]-CA--CB-[CG] |==|  0.29734
USER: genes 18 Torsion [CA]-CB--CG-[CD2] |==|  0.62789
USER: genes 19 Torsion [C]-CA--N-[C] |==|  0.59524
USER: genes 20 Torsion [N]-C--CA-[N] |==|  0.10000
USER: genes 21 Torsion [C]-CA--N-[C] |==|  0.16408
USER: genes 22 Torsion [N]-C--CA-[N] |==|  0.62063
USER: genes 23 Torsion [C]-CA--CB-[CG2] |==|  0.23797
USER: genes 24 Torsion [CA]-CB--OG1-[HG1] |==|  0.48060
USER: genes 25 Torsion [C]-CA--N-[H2] |==|  0.82955
USER: genes 26 Torsion [C]-CA--CB-[CG] |==|  0.48973
USER: genes 27 Torsion [CA]-CB--CG-[OD1] |==|  0.75778
ROOT
ATOM      1  C   LEU B   3      -2.866  18.146  11.985  1.00 37.56 LIG 0.24  C 
ATOM      2 O    LEU B   3      -3.274  17.351  11.116  1.00 36.01 LIG-0.27  OA
ATOM      3  N   TYR B   4      -1.549  18.389  12.241  1.00 34.90 LIG-0.35  N 
ATOM      4 H    TYR B   4      -1.306  18.951  12.845  1.00 34.90 LIG 0.16  HD
ENDROOT
BRANCH 3 5
ATOM      5  CA  TYR B   4      -0.401  17.772  11.572  1.00 36.24 LIG 0.18  C 
BRANCH 5 6
ATOM      6  CB  TYR B   4      -0.073  18.507  10.256  1.00 36.37 LIG 0.07  C 
BRANCH 6 7
ATOM      7  CG  TYR B   4      -0.806  17.874   9.102  1.00 36.28 LIG-0.06  A 
ATOM      8  CD2 TYR B   4      -1.990  18.424   8.611  1.00 36.38 LIG 0.01  A 
ATOM      9  CE2 TYR B   4      -2.703  17.812   7.586  1.00 36.34 LIG 0.04  A 
ATOM     10  CZ  TYR B   4      -2.251  16.611   7.064  1.00 42.86 LIG 0.07  A 
ATOM     11  CE1 TYR B   4      -1.085  16.037   7.546  1.00 38.54 LIG 0.04  A 
ATOM     12  CD1 TYR B   4      -0.374  16.664   8.561  1.00 37.84 LIG 0.01  A 
BRANCH 10 13
ATOM     13 OH   TYR B   4      -2.948  15.985   6.067  1.00 44.02 LIG-0.36  OA
ATOM     14 HH   TYR B   4      -2.462  15.918   5.385  1.00 44.02 LIG 0.22  HD
ENDBRANCH 10 13
ENDBRANCH 6 7
ENDBRANCH 5 6
BRANCH 5 15
ATOM     15  C   TYR B   4       0.810  17.693  12.496  1.00 47.41 LIG 0.24  C 
ATOM     16  N   MET B   5       1.039  18.778  13.227  1.00 49.29 LIG-0.35  N 
ATOM     17 H    MET B   5       0.582  19.504  13.172  1.00 49.29 LIG 0.16  HD
ATOM     18 O    TYR B   4       1.508  16.678  12.563  1.00 47.26 LIG-0.27  OA
BRANCH 16 19
ATOM     19  CA  MET B   5       2.114  18.811  14.202  1.00 52.16 LIG 0.18  C 
BRANCH 19 20
ATOM     20  CB  MET B   5       1.839  17.847  15.356  1.00 55.77 LIG 0.04  C 
BRANCH 20 21
ATOM     21  CG  MET B   5       2.583  18.235  16.632  1.00 61.00 LIG 0.08  C 
BRANCH 21 22
ATOM     22 SD   MET B   5       1.574  18.053  18.112  1.00 67.05 LIG-0.17  SA
ATOM     23  CE  MET B   5       2.144  19.455  19.048  1.00 63.64 LIG 0.09  C 
ENDBRANCH 21 22
ENDBRANCH 20 21
ENDBRANCH 19 20
BRANCH 19 24
ATOM     24  C   MET B   5       3.387  18.500  13.441  1.00 55.98 LIG 0.24  C 
ATOM     25 O    MET B   5       4.025  17.485  13.723  1.00 56.32 LIG-0.27  OA
ATOM     26  N   LEU B   6       3.689  19.290  12.405  1.00 51.23 LIG-0.35  N 
ATOM     27 H    LEU B   6       3.232  19.985  12.186  1.00 51.23 LIG 0.16  HD
BRANCH 26 28
ATOM     28  CA  LEU B   6       4.840  19.036  11.540  1.00 69.26 LIG 0.16  C 
BRANCH 28 29
ATOM     29  C   LEU B   6       5.941  20.072  11.762  1.00 97.67 LIG 0.22  C 
ATOM     30 O    LEU B   6       5.809  21.228  11.363  1.00 61.20 LIG-0.29  OA
ENDBRANCH 28 29
BRANCH 28 31
ATOM     31  CB  LEU B   6       4.394  19.010  10.065  1.00 69.14 LIG 0.04  C 
BRANCH 31 32
ATOM     32  CG  LEU B   6       3.508  17.831   9.664  1.00 73.60 LIG-0.02  C 
ATOM     33  CD2 LEU B   6       4.119  16.518  10.091  1.00 75.76 LIG 0.01  C 
ATOM     34  CD1 LEU B   6       3.191  17.860   8.186  1.00 73.41 LIG 0.01  C 
ENDBRANCH 31 32
ENDBRANCH 28 31
ENDBRANCH 26 28
ENDBRANCH 19 24
ENDBRANCH 16 19
ENDBRANCH 5 15
ENDBRANCH 3 5
BRANCH 1 35
ATOM     35  CA  LEU B   3      -3.875  18.867  12.881  1.00 32.52 LIG 0.18  C 
BRANCH 35 36
ATOM     36  CB  LEU B   3      -5.258  18.186  12.829  1.00 32.14 LIG 0.04  C 
BRANCH 36 37
ATOM     37  CG  LEU B   3      -5.639  17.392  14.090  1.00 34.99 LIG-0.02  C 
ATOM     38  CD2 LEU B   3      -6.220  16.002  13.725  1.00 35.91 LIG 0.01  C 
ATOM     39  CD1 LEU B   3      -6.585  18.222  14.990  1.00 33.16 LIG 0.01  C 
ENDBRANCH 36 37
ENDBRANCH 35 36
BRANCH 35 40
ATOM     40  N   LEU B   3      -3.982  20.283  12.544  1.00 32.48 LIG-0.35  N 
ATOM     41  C   ASN B   2      -4.208  21.204  13.500  1.00 36.40 LIG 0.24  C 
ATOM     42 O    ASN B   2      -4.363  20.910  14.691  1.00 34.95 LIG-0.27  OA
ATOM     43 H    LEU B   3      -3.891  20.463  11.708  1.00 32.48 LIG 0.16  HD
BRANCH 41 44
ATOM     44  CA  ASN B   2      -4.363  22.660  13.052  1.00 32.65 LIG 0.18  C 
BRANCH 44 45
ATOM     45  N   ASN B   2      -5.060  22.627  11.772  1.00 32.45 LIG-0.34  N 
ATOM     46 H    ASN B   2      -4.604  22.991  11.140  1.00 32.45 LIG 0.16  HD
ATOM     47  C   THR B   1      -6.271  22.101  11.556  1.00 35.22 LIG 0.25  C 
ATOM     48 O    THR B   1      -6.911  21.449  12.404  1.00 34.61 LIG-0.27  OA
BRANCH 47 49
ATOM     49  CA  THR B   1      -6.801  22.348  10.166  1.00 32.53 LIG 0.30  C 
BRANCH 49 50
ATOM     50  CB  THR B   1      -5.931  23.385   9.438  1.00 31.51 LIG 0.15  C 
ATOM     51  CG2 THR B   1      -4.689  22.761   8.730  1.00 30.77 LIG 0.04  C 
BRANCH 50 52
ATOM     52 OG1  THR B   1      -6.742  24.086   8.494  1.00 21.64 LIG-0.39  OA
ATOM     53 HG1  THR B   1      -6.300  24.718   8.160  1.00 21.64 LIG 0.21  HD
ENDBRANCH 50 52
ENDBRANCH 49 50
BRANCH 49 54
ATOM     54  N   THR B   1      -8.209  22.735  10.187  1.00 34.33 LIG-0.06  N 
ATOM     55 H2   THR B   1      -8.692  22.077  10.541  1.00 34.33 LIG 0.28  HD
ATOM     56 H1   THR B   1      -8.486  22.893   9.356  1.00 34.33 LIG 0.28  HD
ATOM     57 H3   THR B   1      -8.307  23.471  10.677  1.00 34.33 LIG 0.28  HD
ENDBRANCH 49 54
ENDBRANCH 47 49
ENDBRANCH 44 45
BRANCH 44 58
ATOM     58  CB  ASN B   2      -5.126  23.512  14.083  1.00 33.77 LIG 0.14  C 
BRANCH 58 59
ATOM     59  CG  ASN B   2      -5.219  24.979  13.712  1.00 47.71 LIG 0.22  C 
ATOM     60 OD1  ASN B   2      -4.337  25.789  14.018  1.00 37.59 LIG-0.27  OA
ATOM     61  ND2 ASN B   2      -6.310  25.364  13.067  1.00 40.38 LIG-0.37  N 
ATOM     62 22HD ASN B   2      -6.913  24.787  12.861  1.00 40.38 LIG 0.16  HD
ATOM     63 21HD ASN B   2      -6.414  26.190  12.854  1.00 40.38 LIG 0.16  HD
ENDBRANCH 58 59
ENDBRANCH 44 58
ENDBRANCH 41 44
ENDBRANCH 35 40
ENDBRANCH 1 35
TORSDOF 26
ENDMDL
MODEL 7
USER: ADFR SOLUTION from run 76
USER: SCORE 20.837732 LL:  -5.097 LR: -16.817 RR:   0.000 FEB:  -9.061
USER: RMSD 5.904957
USER: SEED 75
USER: STATUS no improvement in best in 3 clusters for 5 generations
USER: GENES 28
USER: genes 0 Translation |==|  0.45664 0.54339 0.43712
USER: genes 1 Rotation |==|  0.88401 0.64979 0.69550 0.70464
USER: genes 2 Torsion [C]-N--CA-[CB] |==|  0.82709
USER: genes 3 Torsion [N]-CA--CB-[CG] |==|  0.63724
USER: genes 4 Torsion [CA]-CB--CG-[CD2] |==|  0.22673
USER: genes 5 Torsion [CE2]-CZ--OH-[HH] |==|  0.73790
USER: genes 6 Torsion [N]-CA--C-[N] |==|  0.42194
USER: genes 7 Torsion [C]-N--CA-[CB] |==|  0.79737
USER: genes 8 Torsion [N]-CA--CB-[CG] |==|  0.92935
USER: genes 9 Torsion [CA]-CB--CG-[SD] |==|  0.48816
USER: genes 10 Torsion [CB]-CG--SD-[CE] |==|  0.00184
USER: genes 11 Torsion [N]-CA--C-[N] |==|  0.17222
USER: genes 12 Torsion [C]-N--CA-[C] |==|  0.79168
USER: genes 13 Torsion [N]-CA--C-[O] |==|  0.69345
USER: genes 14 Torsion [N]-CA--CB-[CG] |==|  0.03020
USER: genes 15 Torsion [CA]-CB--CG-[CD1] |==|  0.40654
USER: genes 16 Torsion [N]-C--CA-[N] |==|  0.87631
USER: genes 17 Torsion [C]-CA--CB-[CG] |==|  0.06523
USER: genes 18 Torsion [CA]-CB--CG-[CD2] |==|  0.72131
USER: genes 19 Torsion [C]-CA--N-[C] |==|  0.80218
USER: genes 20 Torsion [N]-C--CA-[N] |==|  0.23731
USER: genes 21 Torsion [C]-CA--N-[C] |==|  0.79856
USER: genes 22 Torsion [N]-C--CA-[N] |==|  0.41934
USER: genes 23 Torsion [C]-CA--CB-[CG2] |==|  0.46483
USER: genes 24 Torsion [CA]-CB--OG1-[HG1] |==|  0.29325
USER: genes 25 Torsion [C]-CA--N-[H2] |==|  0.34654
USER: genes 26 Torsion [C]-CA--CB-[CG] |==|  0.47106
USER: genes 27 Torsion [CA]-CB--CG-[OD1] |==|  0.65683
ROOT
ATOM      1  C   LEU B   3       0.378  21.234  11.860  1.00 37.56 LIG 0.24  C 
ATOM      2 O    LEU B   3       1.258  22.004  11.431  1.00 36.01 LIG-0.27  OA
ATOM      3  N   TYR B   4       0.607  19.942  12.234  1.00 34.90 LIG-0.35  N 
ATOM      4 H    TYR B   4      -0.026  19.443  12.532  1.00 34.90 LIG 0.16  HD
ENDROOT
BRANCH 3 5
ATOM      5  CA  TYR B   4       1.890  19.235  12.191  1.00 36.24 LIG 0.18  C 
BRANCH 5 6
ATOM      6  CB  TYR B   4       2.411  19.133  10.743  1.00 36.37 LIG 0.07  C 
BRANCH 6 7
ATOM      7  CG  TYR B   4       2.815  17.716  10.426  1.00 36.28 LIG-0.06  A 
ATOM      8  CD2 TYR B   4       1.868  16.761  10.057  1.00 36.38 LIG 0.01  A 
ATOM      9  CE2 TYR B   4       2.226  15.439   9.822  1.00 36.34 LIG 0.04  A 
ATOM     10  CZ  TYR B   4       3.544  15.049   9.994  1.00 42.86 LIG 0.07  A 
ATOM     11  CE1 TYR B   4       4.501  15.976  10.376  1.00 38.54 LIG 0.04  A 
ATOM     12  CD1 TYR B   4       4.134  17.298  10.595  1.00 37.84 LIG 0.01  A 
BRANCH 10 13
ATOM     13 OH   TYR B   4       3.913  13.748   9.784  1.00 44.02 LIG-0.36  OA
ATOM     14 HH   TYR B   4       3.898  13.331  10.514  1.00 44.02 LIG 0.22  HD
ENDBRANCH 10 13
ENDBRANCH 6 7
ENDBRANCH 5 6
BRANCH 5 15
ATOM     15  C   TYR B   4       2.914  19.878  13.121  1.00 47.41 LIG 0.24  C 
ATOM     16  N   MET B   5       3.841  19.056  13.601  1.00 49.29 LIG-0.35  N 
ATOM     17 H    MET B   5       3.861  18.209  13.452  1.00 49.29 LIG 0.16  HD
ATOM     18 O    TYR B   4       2.881  21.082  13.385  1.00 47.26 LIG-0.27  OA
BRANCH 16 19
ATOM     19  CA  MET B   5       4.918  19.550  14.438  1.00 52.16 LIG 0.18  C 
BRANCH 19 20
ATOM     20  CB  MET B   5       5.937  20.338  13.615  1.00 55.77 LIG 0.04  C 
BRANCH 20 21
ATOM     21  CG  MET B   5       5.952  19.920  12.146  1.00 61.00 LIG 0.08  C 
BRANCH 21 22
ATOM     22 SD   MET B   5       7.060  20.925  11.144  1.00 67.05 LIG-0.17  SA
ATOM     23  CE  MET B   5       7.700  22.018  12.393  1.00 63.64 LIG 0.09  C 
ENDBRANCH 21 22
ENDBRANCH 20 21
ENDBRANCH 19 20
BRANCH 19 24
ATOM     24  C   MET B   5       4.265  20.364  15.536  1.00 55.98 LIG 0.24  C 
ATOM     25 O    MET B   5       4.429  21.584  15.562  1.00 56.32 LIG-0.27  OA
ATOM     26  N   LEU B   6       3.430  19.720  16.360  1.00 51.23 LIG-0.35  N 
ATOM     27 H    LEU B   6       3.289  18.873  16.329  1.00 51.23 LIG 0.16  HD
BRANCH 26 28
ATOM     28  CA  LEU B   6       2.671  20.415  17.399  1.00 69.26 LIG 0.16  C 
BRANCH 28 29
ATOM     29  C   LEU B   6       3.564  20.797  18.577  1.00 97.67 LIG 0.22  C 
ATOM     30 O    LEU B   6       3.444  20.239  19.667  1.00 61.20 LIG-0.29  OA
ENDBRANCH 28 29
BRANCH 28 31
ATOM     31  CB  LEU B   6       1.489  19.539  17.860  1.00 69.14 LIG 0.04  C 
BRANCH 31 32
ATOM     32  CG  LEU B   6       1.505  18.094  17.364  1.00 73.60 LIG-0.02  C 
ATOM     33  CD2 LEU B   6       0.830  17.970  16.020  1.00 75.76 LIG 0.01  C 
ATOM     34  CD1 LEU B   6       0.913  17.155  18.390  1.00 73.41 LIG 0.01  C 
ENDBRANCH 31 32
ENDBRANCH 28 31
ENDBRANCH 26 28
ENDBRANCH 19 24
ENDBRANCH 16 19
ENDBRANCH 5 15
ENDBRANCH 3 5
BRANCH 1 35
ATOM     35  CA  LEU B   3      -1.075  21.711  11.928  1.00 32.52 LIG 0.18  C 
BRANCH 35 36
ATOM     36  CB  LEU B   3      -1.476  22.080  13.371  1.00 32.14 LIG 0.04  C 
BRANCH 36 37
ATOM     37  CG  LEU B   3      -0.304  22.449  14.297  1.00 34.99 LIG-0.02  C 
ATOM     38  CD2 LEU B   3       0.084  21.261  15.213  1.00 35.91 LIG 0.01  C 
ATOM     39  CD1 LEU B   3      -0.621  23.740  15.086  1.00 33.16 LIG 0.01  C 
ENDBRANCH 36 37
ENDBRANCH 35 36
BRANCH 35 40
ATOM     40  N   LEU B   3      -1.995  20.724  11.372  1.00 32.48 LIG-0.35  N 
ATOM     41  C   ASN B   2      -2.038  20.491  10.047  1.00 36.40 LIG 0.24  C 
ATOM     42 O    ASN B   2      -1.337  21.107   9.234  1.00 34.95 LIG-0.27  OA
ATOM     43 H    LEU B   3      -2.486  20.321  11.952  1.00 32.48 LIG 0.16  HD
BRANCH 41 44
ATOM     44  CA  ASN B   2      -3.071  19.480   9.542  1.00 32.65 LIG 0.18  C 
BRANCH 44 45
ATOM     45  N   ASN B   2      -4.317  20.217   9.361  1.00 32.45 LIG-0.34  N 
ATOM     46 H    ASN B   2      -4.508  20.340   8.532  1.00 32.45 LIG 0.16  HD
ATOM     47  C   THR B   1      -5.104  20.671  10.343  1.00 35.22 LIG 0.25  C 
ATOM     48 O    THR B   1      -4.940  20.407  11.550  1.00 34.61 LIG-0.27  OA
BRANCH 47 49
ATOM     49  CA  THR B   1      -6.244  21.531   9.857  1.00 32.53 LIG 0.30  C 
BRANCH 49 50
ATOM     50  CB  THR B   1      -5.776  22.982   9.661  1.00 31.51 LIG 0.15  C 
ATOM     51  CG2 THR B   1      -6.796  23.859   8.871  1.00 30.77 LIG 0.04  C 
BRANCH 50 52
ATOM     52 OG1  THR B   1      -5.511  23.557  10.941  1.00 21.64 LIG-0.39  OA
ATOM     53 HG1  THR B   1      -4.681  23.613  11.056  1.00 21.64 LIG 0.21  HD
ENDBRANCH 50 52
ENDBRANCH 49 50
BRANCH 49 54
ATOM     54  N   THR B   1      -7.399  21.446  10.745  1.00 34.33 LIG-0.06  N 
ATOM     55 H2   THR B   1      -7.630  22.263  11.012  1.00 34.33 LIG 0.28  HD
ATOM     56 H1   THR B   1      -7.192  20.949  11.455  1.00 34.33 LIG 0.28  HD
ATOM     57 H3   THR B   1      -8.081  21.073  10.312  1.00 34.33 LIG 0.28  HD
ENDBRANCH 49 54
ENDBRANCH 47 49
ENDBRANCH 44 45
BRANCH 44 58
ATOM     58  CB  ASN B   2      -2.631  18.796   8.235  1.00 33.77 LIG 0.14  C 
BRANCH 58 59
ATOM     59  CG  ASN B   2      -3.501  17.619   7.841  1.00 47.71 LIG 0.22  C 
ATOM     60 OD1  ASN B   2      -3.032  16.490   7.654  1.00 37.59 LIG-0.27  OA
ATOM     61  ND2 ASN B   2      -4.793  17.860   7.672  1.00 40.38 LIG-0.37  N 
ATOM     62 22HD ASN B   2      -5.103  18.650   7.807  1.00 40.38 LIG 0.16  HD
ATOM     63 21HD ASN B   2      -5.321  17.226   7.430  1.00 40.38 LIG 0.16  HD
ENDBRANCH 58 59
ENDBRANCH 44 58
ENDBRANCH 41 44
ENDBRANCH 35 40
ENDBRANCH 1 35
TORSDOF 26
ENDMDL
MODEL 8
USER: ADFR SOLUTION from run 9
USER: SCORE 20.388358 LL:  -5.103 LR: -16.779 RR:   0.000 FEB:  -9.023
USER: RMSD 6.452125
USER: SEED 554572
USER: STATUS searching
USER: GENES 28
USER: genes 0 Translation |==|  0.41282 0.41402 0.40397
USER: genes 1 Rotation |==|  0.52688 0.71502 0.68048 0.91288
USER: genes 2 Torsion [C]-N--CA-[CB] |==|  0.55816
USER: genes 3 Torsion [N]-CA--CB-[CG] |==|  0.14500
USER: genes 4 Torsion [CA]-CB--CG-[CD2] |==|  0.76207
USER: genes 5 Torsion [CE2]-CZ--OH-[HH] |==|  0.43795
USER: genes 6 Torsion [N]-CA--C-[N] |==|  0.30996
USER: genes 7 Torsion [C]-N--CA-[CB] |==|  0.78888
USER: genes 8 Torsion [N]-CA--CB-[CG] |==|  0.53572
USER: genes 9 Torsion [CA]-CB--CG-[SD] |==|  0.07734
USER: genes 10 Torsion [CB]-CG--SD-[CE] |==|  0.48449
USER: genes 11 Torsion [N]-CA--C-[N] |==|  0.21836
USER: genes 12 Torsion [C]-N--CA-[C] |==|  0.57760
USER: genes 13 Torsion [N]-CA--C-[O] |==|  0.69885
USER: genes 14 Torsion [N]-CA--CB-[CG] |==|  0.68155
USER: genes 15 Torsion [CA]-CB--CG-[CD1] |==|  0.48330
USER: genes 16 Torsion [N]-C--CA-[N] |==|  0.09700
USER: genes 17 Torsion [C]-CA--CB-[CG] |==|  0.35704
USER: genes 18 Torsion [CA]-CB--CG-[CD2] |==|  0.66217
USER: genes 19 Torsion [C]-CA--N-[C] |==|  0.20550
USER: genes 20 Torsion [N]-C--CA-[N] |==|  0.49998
USER: genes 21 Torsion [C]-CA--N-[C] |==|  0.55779
USER: genes 22 Torsion [N]-C--CA-[N] |==|  0.24430
USER: genes 23 Torsion [C]-CA--CB-[CG2] |==|  0.20278
USER: genes 24 Torsion [CA]-CB--OG1-[HG1] |==|  0.84595
USER: genes 25 Torsion [C]-CA--N-[H2] |==|  0.87922
USER: genes 26 Torsion [C]-CA--CB-[CG] |==|  0.34787
USER: genes 27 Torsion [CA]-CB--CG-[OD1] |==|  0.17689
ROOT
ATOM      1  C   LEU B   3      -0.543  19.002  11.064  1.00 37.56 LIG 0.24  C 
ATOM      2 O    LEU B   3       0.578  19.258  10.582  1.00 36.01 LIG-0.27  OA
ATOM      3  N   TYR B   4      -0.936  19.362  12.320  1.00 34.90 LIG-0.35  N 
ATOM      4 H    TYR B   4      -1.721  19.174  12.614  1.00 34.90 LIG 0.16  HD
ENDROOT
BRANCH 3 5
ATOM      5  CA  TYR B   4      -0.136  20.085  13.312  1.00 36.24 LIG 0.18  C 
BRANCH 5 6
ATOM      6  CB  TYR B   4      -0.690  19.857  14.734  1.00 36.37 LIG 0.07  C 
BRANCH 6 7
ATOM      7  CG  TYR B   4      -0.841  18.384  15.011  1.00 36.28 LIG-0.06  A 
ATOM      8  CD2 TYR B   4      -1.992  17.693  14.635  1.00 36.38 LIG 0.01  A 
ATOM      9  CE2 TYR B   4      -2.163  16.348  14.941  1.00 36.34 LIG 0.04  A 
ATOM     10  CZ  TYR B   4      -1.188  15.686  15.669  1.00 42.86 LIG 0.07  A 
ATOM     11  CE1 TYR B   4      -0.042  16.354  16.068  1.00 38.54 LIG 0.04  A 
ATOM     12  CD1 TYR B   4       0.124  17.695  15.745  1.00 37.84 LIG 0.01  A 
BRANCH 10 13
ATOM     13 OH   TYR B   4      -1.346  14.366  15.995  1.00 44.02 LIG-0.36  OA
ATOM     14 HH   TYR B   4      -0.595  14.024  16.149  1.00 44.02 LIG 0.22  HD
ENDBRANCH 10 13
ENDBRANCH 6 7
ENDBRANCH 5 6
BRANCH 5 15
ATOM     15  C   TYR B   4       1.341  19.721  13.212  1.00 47.41 LIG 0.24  C 
ATOM     16  N   MET B   5       2.138  20.691  12.777  1.00 49.29 LIG-0.35  N 
ATOM     17 H    MET B   5       1.864  21.464  12.521  1.00 49.29 LIG 0.16  HD
ATOM     18 O    TYR B   4       1.756  18.604  13.532  1.00 47.26 LIG-0.27  OA
BRANCH 16 19
ATOM     19  CA  MET B   5       3.576  20.503  12.704  1.00 52.16 LIG 0.18  C 
BRANCH 19 20
ATOM     20  CB  MET B   5       4.212  20.586  14.092  1.00 55.77 LIG 0.04  C 
BRANCH 20 21
ATOM     21  CG  MET B   5       5.732  20.707  14.032  1.00 61.00 LIG 0.08  C 
BRANCH 21 22
ATOM     22 SD   MET B   5       6.313  21.498  12.522  1.00 67.05 LIG-0.17  SA
ATOM     23  CE  MET B   5       8.051  21.614  12.882  1.00 63.64 LIG 0.09  C 
ENDBRANCH 21 22
ENDBRANCH 20 21
ENDBRANCH 19 20
BRANCH 19 24
ATOM     24  C   MET B   5       3.796  19.174  12.013  1.00 55.98 LIG 0.24  C 
ATOM     25 O    MET B   5       3.964  18.161  12.694  1.00 56.32 LIG-0.27  OA
ATOM     26  N   LEU B   6       3.671  19.148  10.681  1.00 51.23 LIG-0.35  N 
ATOM     27 H    LEU B   6       3.527  19.847  10.203  1.00 51.23 LIG 0.16  HD
BRANCH 26 28
ATOM     28  CA  LEU B   6       3.770  17.908   9.913  1.00 69.26 LIG 0.16  C 
BRANCH 28 29
ATOM     29  C   LEU B   6       4.273  18.172   8.495  1.00 97.67 LIG 0.22  C 
ATOM     30 O    LEU B   6       3.518  18.073   7.529  1.00 61.20 LIG-0.29  OA
ENDBRANCH 28 29
BRANCH 28 31
ATOM     31  CB  LEU B   6       2.406  17.192   9.892  1.00 69.14 LIG 0.04  C 
BRANCH 31 32
ATOM     32  CG  LEU B   6       2.357  15.842  10.608  1.00 73.60 LIG-0.02  C 
ATOM     33  CD2 LEU B   6       3.328  14.863   9.993  1.00 75.76 LIG 0.01  C 
ATOM     34  CD1 LEU B   6       0.949  15.296  10.655  1.00 73.41 LIG 0.01  C 
ENDBRANCH 31 32
ENDBRANCH 28 31
ENDBRANCH 26 28
ENDBRANCH 19 24
ENDBRANCH 16 19
ENDBRANCH 5 15
ENDBRANCH 3 5
BRANCH 1 35
ATOM     35  CA  LEU B   3      -1.545  18.181  10.250  1.00 32.52 LIG 0.18  C 
BRANCH 35 36
ATOM     36  CB  LEU B   3      -1.245  18.268   8.740  1.00 32.14 LIG 0.04  C 
BRANCH 36 37
ATOM     37  CG  LEU B   3      -1.145  16.914   8.018  1.00 34.99 LIG-0.02  C 
ATOM     38  CD2 LEU B   3       0.238  16.740   7.339  1.00 35.91 LIG 0.01  C 
ATOM     39  CD1 LEU B   3      -2.325  16.733   7.035  1.00 33.16 LIG 0.01  C 
ENDBRANCH 36 37
ENDBRANCH 35 36
BRANCH 35 40
ATOM     40  N   LEU B   3      -2.921  18.579  10.528  1.00 32.48 LIG-0.35  N 
ATOM     41  C   ASN B   2      -3.416  19.735  10.047  1.00 36.40 LIG 0.24  C 
ATOM     42 O    ASN B   2      -2.739  20.527   9.380  1.00 34.95 LIG-0.27  OA
ATOM     43 H    LEU B   3      -3.368  18.023  11.009  1.00 32.48 LIG 0.16  HD
BRANCH 41 44
ATOM     44  CA  ASN B   2      -4.852  20.102  10.432  1.00 32.65 LIG 0.18  C 
BRANCH 44 45
ATOM     45  N   ASN B   2      -5.137  21.381   9.791  1.00 32.45 LIG-0.34  N 
ATOM     46 H    ASN B   2      -4.613  21.539   9.128  1.00 32.45 LIG 0.16  HD
ATOM     47  C   THR B   1      -6.092  22.242  10.158  1.00 35.22 LIG 0.25  C 
ATOM     48 O    THR B   1      -6.957  22.000  11.023  1.00 34.61 LIG-0.27  OA
BRANCH 47 49
ATOM     49  CA  THR B   1      -6.051  23.550   9.407  1.00 32.53 LIG 0.30  C 
BRANCH 49 50
ATOM     50  CB  THR B   1      -6.512  24.702  10.313  1.00 31.51 LIG 0.15  C 
ATOM     51  CG2 THR B   1      -5.462  25.089  11.401  1.00 30.77 LIG 0.04  C 
BRANCH 50 52
ATOM     52 OG1  THR B   1      -6.824  25.833   9.499  1.00 21.64 LIG-0.39  OA
ATOM     53 HG1  THR B   1      -6.160  26.027   9.022  1.00 21.64 LIG 0.21  HD
ENDBRANCH 50 52
ENDBRANCH 49 50
BRANCH 49 54
ATOM     54  N   THR B   1      -6.824  23.485   8.170  1.00 34.33 LIG-0.06  N 
ATOM     55 H2   THR B   1      -6.658  22.715   7.756  1.00 34.33 LIG 0.28  HD
ATOM     56 H1   THR B   1      -6.595  24.163   7.640  1.00 34.33 LIG 0.28  HD
ATOM     57 H3   THR B   1      -7.692  23.537   8.359  1.00 34.33 LIG 0.28  HD
ENDBRANCH 49 54
ENDBRANCH 47 49
ENDBRANCH 44 45
BRANCH 44 58
ATOM     58  CB  ASN B   2      -5.866  19.025  10.007  1.00 33.77 LIG 0.14  C 
BRANCH 58 59
ATOM     59  CG  ASN B   2      -6.727  18.516  11.146  1.00 47.71 LIG 0.22  C 
ATOM     60 OD1  ASN B   2      -7.516  19.252  11.750  1.00 37.59 LIG-0.27  OA
ATOM     61  ND2 ASN B   2      -6.575  17.246  11.489  1.00 40.38 LIG-0.37  N 
ATOM     62 22HD ASN B   2      -6.023  16.748  11.058  1.00 40.38 LIG 0.16  HD
ATOM     63 21HD ASN B   2      -7.028  16.920  12.143  1.00 40.38 LIG 0.16  HD
ENDBRANCH 58 59
ENDBRANCH 44 58
ENDBRANCH 41 44
ENDBRANCH 35 40
ENDBRANCH 1 35
TORSDOF 26
ENDMDL
MODEL 9
USER: ADFR SOLUTION from run 187
USER: SCORE 21.113038 LL:  -5.690 LR: -16.735 RR:   0.000 FEB:  -8.979
USER: RMSD 5.047374
USER: SEED 186
USER: STATUS no improvement in best in 4 clusters for 5 generations
USER: GENES 28
USER: genes 0 Translation |==|  0.51525 0.29874 0.45667
USER: genes 1 Rotation |==|  0.51625 0.70334 0.33154 0.92428
USER: genes 2 Torsion [C]-N--CA-[CB] |==|  0.13783
USER: genes 3 Torsion [N]-CA--CB-[CG] |==|  0.10234
USER: genes 4 Torsion [CA]-CB--CG-[CD2] |==|  0.13618
USER: genes 5 Torsion [CE2]-CZ--OH-[HH] |==|  0.22971
USER: genes 6 Torsion [N]-CA--C-[N] |==|  0.58892
USER: genes 7 Torsion [C]-N--CA-[CB] |==|  0.87114
USER: genes 8 Torsion [N]-CA--CB-[CG] |==|  0.65721
USER: genes 9 Torsion [CA]-CB--CG-[SD] |==|  0.07922
USER: genes 10 Torsion [CB]-CG--SD-[CE] |==|  0.23442
USER: genes 11 Torsion [N]-CA--C-[N] |==|  0.35617
USER: genes 12 Torsion [C]-N--CA-[C] |==|  0.68217
USER: genes 13 Torsion [N]-CA--C-[O] |==|  0.43635
USER: genes 14 Torsion [N]-CA--CB-[CG] |==|  0.11010
USER: genes 15 Torsion [CA]-CB--CG-[CD1] |==|  0.18724
USER: genes 16 Torsion [N]-C--CA-[N] |==|  0.09030
USER: genes 17 Torsion [C]-CA--CB-[CG] |==|  0.70040
USER: genes 18 Torsion [CA]-CB--CG-[CD2] |==|  0.69634
USER: genes 19 Torsion [C]-CA--N-[C] |==|  0.62859
USER: genes 20 Torsion [N]-C--CA-[N] |==|  0.40702
USER: genes 21 Torsion [C]-CA--N-[C] |==|  0.80291
USER: genes 22 Torsion [N]-C--CA-[N] |==|  0.53606
USER: genes 23 Torsion [C]-CA--CB-[CG2] |==|  0.85732
USER: genes 24 Torsion [CA]-CB--OG1-[HG1] |==|  0.09450
USER: genes 25 Torsion [C]-CA--N-[H2] |==|  0.96810
USER: genes 26 Torsion [C]-CA--CB-[CG] |==|  0.21038
USER: genes 27 Torsion [CA]-CB--CG-[OD1] |==|  0.10922
ROOT
ATOM      1  C   LEU B   3       1.608  17.013  12.329  1.00 37.56 LIG 0.24  C 
ATOM      2 O    LEU B   3       2.033  15.847  12.220  1.00 36.01 LIG-0.27  OA
ATOM      3  N   TYR B   4       2.241  17.996  13.033  1.00 34.90 LIG-0.35  N 
ATOM      4 H    TYR B   4       1.920  18.792  13.079  1.00 34.90 LIG 0.16  HD
ENDROOT
BRANCH 3 5
ATOM      5  CA  TYR B   4       3.495  17.865  13.779  1.00 36.24 LIG 0.18  C 
BRANCH 5 6
ATOM      6  CB  TYR B   4       4.582  17.197  12.912  1.00 36.37 LIG 0.07  C 
BRANCH 6 7
ATOM      7  CG  TYR B   4       4.467  17.651  11.480  1.00 36.28 LIG-0.06  A 
ATOM      8  CD2 TYR B   4       4.360  19.004  11.158  1.00 36.38 LIG 0.01  A 
ATOM      9  CE2 TYR B   4       4.194  19.426   9.844  1.00 36.34 LIG 0.04  A 
ATOM     10  CZ  TYR B   4       4.094  18.483   8.834  1.00 42.86 LIG 0.07  A 
ATOM     11  CE1 TYR B   4       4.182  17.132   9.130  1.00 38.54 LIG 0.04  A 
ATOM     12  CD1 TYR B   4       4.361  16.723  10.445  1.00 37.84 LIG 0.01  A 
BRANCH 10 13
ATOM     13 OH   TYR B   4       3.913  18.878   7.536  1.00 44.02 LIG-0.36  OA
ATOM     14 HH   TYR B   4       4.655  19.080   7.199  1.00 44.02 LIG 0.22  HD
ENDBRANCH 10 13
ENDBRANCH 6 7
ENDBRANCH 5 6
BRANCH 5 15
ATOM     15  C   TYR B   4       3.957  19.207  14.337  1.00 47.41 LIG 0.24  C 
ATOM     16  N   MET B   5       5.274  19.365  14.422  1.00 49.29 LIG-0.35  N 
ATOM     17 H    MET B   5       5.848  18.756  14.226  1.00 49.29 LIG 0.16  HD
ATOM     18 O    TYR B   4       3.153  20.083  14.665  1.00 47.26 LIG-0.27  OA
BRANCH 16 19
ATOM     19  CA  MET B   5       5.850  20.621  14.865  1.00 52.16 LIG 0.18  C 
BRANCH 19 20
ATOM     20  CB  MET B   5       5.189  21.807  14.164  1.00 55.77 LIG 0.04  C 
BRANCH 20 21
ATOM     21  CG  MET B   5       6.196  22.686  13.426  1.00 61.00 LIG 0.08  C 
BRANCH 21 22
ATOM     22 SD   MET B   5       7.644  21.774  12.867  1.00 67.05 LIG-0.17  SA
ATOM     23  CE  MET B   5       7.025  21.126  11.330  1.00 63.64 LIG 0.09  C 
ENDBRANCH 21 22
ENDBRANCH 20 21
ENDBRANCH 19 20
BRANCH 19 24
ATOM     24  C   MET B   5       5.703  20.647  16.373  1.00 55.98 LIG 0.24  C 
ATOM     25 O    MET B   5       4.628  20.324  16.880  1.00 56.32 LIG-0.27  OA
ATOM     26  N   LEU B   6       6.802  20.904  17.091  1.00 51.23 LIG-0.35  N 
ATOM     27 H    LEU B   6       7.563  21.104  16.743  1.00 51.23 LIG 0.16  HD
BRANCH 26 28
ATOM     28  CA  LEU B   6       6.805  20.867  18.552  1.00 69.26 LIG 0.16  C 
BRANCH 28 29
ATOM     29  C   LEU B   6       7.062  22.252  19.143  1.00 97.67 LIG 0.22  C 
ATOM     30 O    LEU B   6       6.702  22.527  20.287  1.00 61.20 LIG-0.29  OA
ENDBRANCH 28 29
BRANCH 28 31
ATOM     31  CB  LEU B   6       7.852  19.850  19.050  1.00 69.14 LIG 0.04  C 
BRANCH 31 32
ATOM     32  CG  LEU B   6       9.168  19.824  18.273  1.00 73.60 LIG-0.02  C 
ATOM     33  CD2 LEU B   6       9.981  18.600  18.619  1.00 75.76 LIG 0.01  C 
ATOM     34  CD1 LEU B   6       9.947  21.103  18.471  1.00 73.41 LIG 0.01  C 
ENDBRANCH 31 32
ENDBRANCH 28 31
ENDBRANCH 26 28
ENDBRANCH 19 24
ENDBRANCH 16 19
ENDBRANCH 5 15
ENDBRANCH 3 5
BRANCH 1 35
ATOM     35  CA  LEU B   3       0.265  17.389  11.700  1.00 32.52 LIG 0.18  C 
BRANCH 35 36
ATOM     36  CB  LEU B   3      -0.072  16.470  10.509  1.00 32.14 LIG 0.04  C 
BRANCH 36 37
ATOM     37  CG  LEU B   3       0.039  17.132   9.125  1.00 34.99 LIG-0.02  C 
ATOM     38  CD2 LEU B   3      -1.359  17.343   8.489  1.00 35.91 LIG 0.01  C 
ATOM     39  CD1 LEU B   3       1.000  16.332   8.215  1.00 33.16 LIG 0.01  C 
ENDBRANCH 36 37
ENDBRANCH 35 36
BRANCH 35 40
ATOM     40  N   LEU B   3       0.230  18.791  11.297  1.00 32.48 LIG-0.35  N 
ATOM     41  C   ASN B   2      -0.828  19.569  11.595  1.00 36.40 LIG 0.24  C 
ATOM     42 O    ASN B   2      -1.826  19.143  12.190  1.00 34.95 LIG-0.27  OA
ATOM     43 H    LEU B   3       0.925  19.061  10.868  1.00 32.48 LIG 0.16  HD
BRANCH 41 44
ATOM     44  CA  ASN B   2      -0.807  21.013  11.086  1.00 32.65 LIG 0.18  C 
BRANCH 44 45
ATOM     45  N   ASN B   2      -2.191  21.366  10.790  1.00 32.45 LIG-0.34  N 
ATOM     46 H    ASN B   2      -2.514  21.930  11.352  1.00 32.45 LIG 0.16  HD
ATOM     47  C   THR B   1      -2.916  20.891   9.771  1.00 35.22 LIG 0.25  C 
ATOM     48 O    THR B   1      -2.456  20.177   8.858  1.00 34.61 LIG-0.27  OA
BRANCH 47 49
ATOM     49  CA  THR B   1      -4.363  21.317   9.806  1.00 32.53 LIG 0.30  C 
BRANCH 49 50
ATOM     50  CB  THR B   1      -4.910  21.238  11.240  1.00 31.51 LIG 0.15  C 
ATOM     51  CG2 THR B   1      -4.648  19.861  11.925  1.00 30.77 LIG 0.04  C 
BRANCH 50 52
ATOM     52 OG1  THR B   1      -4.336  22.295  12.010  1.00 21.64 LIG-0.39  OA
ATOM     53 HG1  THR B   1      -4.224  22.968  11.521  1.00 21.64 LIG 0.21  HD
ENDBRANCH 50 52
ENDBRANCH 49 50
BRANCH 49 54
ATOM     54  N   THR B   1      -5.174  20.544   8.869  1.00 34.33 LIG-0.06  N 
ATOM     55 H2   THR B   1      -4.641  20.078   8.329  1.00 34.33 LIG 0.28  HD
ATOM     56 H1   THR B   1      -5.676  21.098   8.385  1.00 34.33 LIG 0.28  HD
ATOM     57 H3   THR B   1      -5.700  19.986   9.320  1.00 34.33 LIG 0.28  HD
ENDBRANCH 49 54
ENDBRANCH 47 49
ENDBRANCH 44 45
BRANCH 44 58
ATOM     58  CB  ASN B   2      -0.188  21.985  12.108  1.00 33.77 LIG 0.14  C 
BRANCH 58 59
ATOM     59  CG  ASN B   2       1.323  21.902  12.189  1.00 47.71 LIG 0.22  C 
ATOM     60 OD1  ASN B   2       2.026  21.752  11.183  1.00 37.59 LIG-0.27  OA
ATOM     61  ND2 ASN B   2       1.861  21.966  13.397  1.00 40.38 LIG-0.37  N 
ATOM     62 22HD ASN B   2       1.358  22.071  14.087  1.00 40.38 LIG 0.16  HD
ATOM     63 21HD ASN B   2       2.713  21.903  13.493  1.00 40.38 LIG 0.16  HD
ENDBRANCH 58 59
ENDBRANCH 44 58
ENDBRANCH 41 44
ENDBRANCH 35 40
ENDBRANCH 1 35
TORSDOF 26
ENDMDL
MODEL 10
USER: ADFR SOLUTION from run 77
USER: SCORE 19.753569 LL:  -6.690 LR: -16.727 RR:   0.000 FEB:  -8.971
USER: RMSD 6.461377
USER: SEED 76
USER: STATUS no improvement in best in 4 clusters for 5 generations
USER: GENES 28
USER: genes 0 Translation |==|  0.37180 0.48495 0.43309
USER: genes 1 Rotation |==|  0.58835 0.86854 0.77731 0.67167
USER: genes 2 Torsion [C]-N--CA-[CB] |==|  0.42486
USER: genes 3 Torsion [N]-CA--CB-[CG] |==|  0.09787
USER: genes 4 Torsion [CA]-CB--CG-[CD2] |==|  0.75433
USER: genes 5 Torsion [CE2]-CZ--OH-[HH] |==|  0.61186
USER: genes 6 Torsion [N]-CA--C-[N] |==|  0.74106
USER: genes 7 Torsion [C]-N--CA-[CB] |==|  0.41282
USER: genes 8 Torsion [N]-CA--CB-[CG] |==|  0.70792
USER: genes 9 Torsion [CA]-CB--CG-[SD] |==|  0.71138
USER: genes 10 Torsion [CB]-CG--SD-[CE] |==|  0.11699
USER: genes 11 Torsion [N]-CA--C-[N] |==|  0.22794
USER: genes 12 Torsion [C]-N--CA-[C] |==|  0.66015
USER: genes 13 Torsion [N]-CA--C-[O] |==|  0.99710
USER: genes 14 Torsion [N]-CA--CB-[CG] |==|  0.55621
USER: genes 15 Torsion [CA]-CB--CG-[CD1] |==|  0.72161
USER: genes 16 Torsion [N]-C--CA-[N] |==|  0.47222
USER: genes 17 Torsion [C]-CA--CB-[CG] |==|  0.27492
USER: genes 18 Torsion [CA]-CB--CG-[CD2] |==|  0.06507
USER: genes 19 Torsion [C]-CA--N-[C] |==|  0.54673
USER: genes 20 Torsion [N]-C--CA-[N] |==|  0.88650
USER: genes 21 Torsion [C]-CA--N-[C] |==|  0.80278
USER: genes 22 Torsion [N]-C--CA-[N] |==|  0.44149
USER: genes 23 Torsion [C]-CA--CB-[CG2] |==|  0.23081
USER: genes 24 Torsion [CA]-CB--OG1-[HG1] |==|  0.46164
USER: genes 25 Torsion [C]-CA--N-[H2] |==|  0.95313
USER: genes 26 Torsion [C]-CA--CB-[CG] |==|  0.84570
USER: genes 27 Torsion [CA]-CB--CG-[OD1] |==|  0.31861
ROOT
ATOM      1  C   LEU B   3      -1.404  20.225  11.763  1.00 37.56 LIG 0.24  C 
ATOM      2 O    LEU B   3      -1.545  21.018  10.812  1.00 36.01 LIG-0.27  OA
ATOM      3  N   TYR B   4      -0.592  20.453  12.835  1.00 34.90 LIG-0.35  N 
ATOM      4 H    TYR B   4      -0.527  19.884  13.477  1.00 34.90 LIG 0.16  HD
ENDROOT
BRANCH 3 5
ATOM      5  CA  TYR B   4       0.252  21.630  13.057  1.00 36.24 LIG 0.18  C 
BRANCH 5 6
ATOM      6  CB  TYR B   4       0.477  21.867  14.565  1.00 36.37 LIG 0.07  C 
BRANCH 6 7
ATOM      7  CG  TYR B   4       0.571  20.553  15.297  1.00 36.28 LIG-0.06  A 
ATOM      8  CD2 TYR B   4      -0.569  19.921  15.794  1.00 36.38 LIG 0.01  A 
ATOM      9  CE2 TYR B   4      -0.483  18.740  16.522  1.00 36.34 LIG 0.04  A 
ATOM     10  CZ  TYR B   4       0.761  18.197  16.794  1.00 42.86 LIG 0.07  A 
ATOM     11  CE1 TYR B   4       1.910  18.814  16.325  1.00 38.54 LIG 0.04  A 
ATOM     12  CD1 TYR B   4       1.811  19.988  15.588  1.00 37.84 LIG 0.01  A 
BRANCH 10 13
ATOM     13 OH   TYR B   4       0.867  17.044  17.524  1.00 44.02 LIG-0.36  OA
ATOM     14 HH   TYR B   4       1.517  17.106  18.054  1.00 44.02 LIG 0.22  HD
ENDBRANCH 10 13
ENDBRANCH 6 7
ENDBRANCH 5 6
BRANCH 5 15
ATOM     15  C   TYR B   4       1.569  21.526  12.295  1.00 47.41 LIG 0.24  C 
ATOM     16  N   MET B   5       2.583  21.008  12.980  1.00 49.29 LIG-0.35  N 
ATOM     17 H    MET B   5       2.542  20.780  13.808  1.00 49.29 LIG 0.16  HD
ATOM     18 O    TYR B   4       1.666  21.886  11.119  1.00 47.26 LIG-0.27  OA
BRANCH 16 19
ATOM     19  CA  MET B   5       3.873  20.784  12.353  1.00 52.16 LIG 0.18  C 
BRANCH 19 20
ATOM     20  CB  MET B   5       5.009  20.942  13.363  1.00 55.77 LIG 0.04  C 
BRANCH 20 21
ATOM     21  CG  MET B   5       5.774  22.251  13.185  1.00 61.00 LIG 0.08  C 
BRANCH 21 22
ATOM     22 SD   MET B   5       7.371  22.026  12.385  1.00 67.05 LIG-0.17  SA
ATOM     23  CE  MET B   5       6.921  20.860  11.119  1.00 63.64 LIG 0.09  C 
ENDBRANCH 21 22
ENDBRANCH 20 21
ENDBRANCH 19 20
BRANCH 19 24
ATOM     24  C   MET B   5       3.806  19.409  11.723  1.00 55.98 LIG 0.24  C 
ATOM     25 O    MET B   5       4.178  18.429  12.372  1.00 56.32 LIG-0.27  OA
ATOM     26  N   LEU B   6       3.222  19.312  10.523  1.00 51.23 LIG-0.35  N 
ATOM     27 H    LEU B   6       2.936  19.989  10.077  1.00 51.23 LIG 0.16  HD
BRANCH 26 28
ATOM     28  CA  LEU B   6       3.017  18.027   9.857  1.00 69.26 LIG 0.16  C 
BRANCH 28 29
ATOM     29  C   LEU B   6       3.688  18.000   8.485  1.00 97.67 LIG 0.22  C 
ATOM     30 O    LEU B   6       4.288  18.984   8.055  1.00 61.20 LIG-0.29  OA
ENDBRANCH 28 29
BRANCH 28 31
ATOM     31  CB  LEU B   6       1.509  17.729   9.742  1.00 69.14 LIG 0.04  C 
BRANCH 31 32
ATOM     32  CG  LEU B   6       1.141  16.263   9.524  1.00 73.60 LIG-0.02  C 
ATOM     33  CD2 LEU B   6       2.208  15.344  10.067  1.00 75.76 LIG 0.01  C 
ATOM     34  CD1 LEU B   6       0.833  15.985   8.070  1.00 73.41 LIG 0.01  C 
ENDBRANCH 31 32
ENDBRANCH 28 31
ENDBRANCH 26 28
ENDBRANCH 19 24
ENDBRANCH 16 19
ENDBRANCH 5 15
ENDBRANCH 3 5
BRANCH 1 35
ATOM     35  CA  LEU B   3      -2.125  18.876  11.734  1.00 32.52 LIG 0.18  C 
BRANCH 35 36
ATOM     36  CB  LEU B   3      -1.125  17.711  11.586  1.00 32.14 LIG 0.04  C 
BRANCH 36 37
ATOM     37  CG  LEU B   3      -0.764  16.993  12.897  1.00 34.99 LIG-0.02  C 
ATOM     38  CD2 LEU B   3      -1.872  17.182  13.965  1.00 35.91 LIG 0.01  C 
ATOM     39  CD1 LEU B   3       0.632  17.435  13.393  1.00 33.16 LIG 0.01  C 
ENDBRANCH 36 37
ENDBRANCH 35 36
BRANCH 35 40
ATOM     40  N   LEU B   3      -3.137  18.826  10.684  1.00 32.48 LIG-0.35  N 
ATOM     41  C   ASN B   2      -4.098  17.884  10.697  1.00 36.40 LIG 0.24  C 
ATOM     42 O    ASN B   2      -4.164  17.005  11.565  1.00 34.95 LIG-0.27  OA
ATOM     43 H    LEU B   3      -3.061  19.434  10.080  1.00 32.48 LIG 0.16  HD
BRANCH 41 44
ATOM     44  CA  ASN B   2      -5.087  17.869   9.527  1.00 32.65 LIG 0.18  C 
BRANCH 44 45
ATOM     45  N   ASN B   2      -5.407  19.263   9.241  1.00 32.45 LIG-0.34  N 
ATOM     46 H    ASN B   2      -5.064  19.534   8.501  1.00 32.45 LIG 0.16  HD
ATOM     47  C   THR B   1      -6.147  20.068  10.012  1.00 35.22 LIG 0.25  C 
ATOM     48 O    THR B   1      -6.773  19.688  11.021  1.00 34.61 LIG-0.27  OA
BRANCH 47 49
ATOM     49  CA  THR B   1      -6.180  21.500   9.537  1.00 32.53 LIG 0.30  C 
BRANCH 49 50
ATOM     50  CB  THR B   1      -4.860  22.208   9.879  1.00 31.51 LIG 0.15  C 
ATOM     51  CG2 THR B   1      -3.731  21.944   8.835  1.00 30.77 LIG 0.04  C 
BRANCH 50 52
ATOM     52 OG1  THR B   1      -5.107  23.609  10.003  1.00 21.64 LIG-0.39  OA
ATOM     53 HG1  THR B   1      -4.447  23.978  10.369  1.00 21.64 LIG 0.21  HD
ENDBRANCH 50 52
ENDBRANCH 49 50
BRANCH 49 54
ATOM     54  N   THR B   1      -7.337  22.215  10.068  1.00 34.33 LIG-0.06  N 
ATOM     55 H2   THR B   1      -7.936  21.630  10.369  1.00 34.33 LIG 0.28  HD
ATOM     56 H1   THR B   1      -7.702  22.709   9.423  1.00 34.33 LIG 0.28  HD
ATOM     57 H3   THR B   1      -7.079  22.744  10.735  1.00 34.33 LIG 0.28  HD
ENDBRANCH 49 54
ENDBRANCH 47 49
ENDBRANCH 44 45
BRANCH 44 58
ATOM     58  CB  ASN B   2      -4.516  17.160   8.286  1.00 33.77 LIG 0.14  C 
BRANCH 58 59
ATOM     59  CG  ASN B   2      -3.196  17.733   7.811  1.00 47.71 LIG 0.22  C 
ATOM     60 OD1  ASN B   2      -2.147  17.079   7.843  1.00 37.59 LIG-0.27  OA
ATOM     61  ND2 ASN B   2      -3.208  18.987   7.385  1.00 40.38 LIG-0.37  N 
ATOM     62 22HD ASN B   2      -3.946  19.428   7.368  1.00 40.38 LIG 0.16  HD
ATOM     63 21HD ASN B   2      -2.479  19.360   7.124  1.00 40.38 LIG 0.16  HD
ENDBRANCH 58 59
ENDBRANCH 44 58
ENDBRANCH 41 44
ENDBRANCH 35 40
ENDBRANCH 1 35
TORSDOF 26
ENDMDL
MODEL 11
USER: ADFR SOLUTION from run 78
USER: SCORE 21.307732 LL:  -5.554 LR: -16.721 RR:   0.000 FEB:  -8.965
USER: RMSD 6.472293
USER: SEED 77
USER: STATUS no improvement in best in 5 clusters for 5 generations
USER: GENES 28
USER: genes 0 Translation |==|  0.39801 0.35755 0.36246
USER: genes 1 Rotation |==|  0.80811 0.65542 0.82317 0.66270
USER: genes 2 Torsion [C]-N--CA-[CB] |==|  0.83183
USER: genes 3 Torsion [N]-CA--CB-[CG] |==|  0.41833
USER: genes 4 Torsion [CA]-CB--CG-[CD2] |==|  0.19595
USER: genes 5 Torsion [CE2]-CZ--OH-[HH] |==|  0.76546
USER: genes 6 Torsion [N]-CA--C-[N] |==|  0.84444
USER: genes 7 Torsion [C]-N--CA-[CB] |==|  0.84634
USER: genes 8 Torsion [N]-CA--CB-[CG] |==|  0.39587
USER: genes 9 Torsion [CA]-CB--CG-[SD] |==|  0.61431
USER: genes 10 Torsion [CB]-CG--SD-[CE] |==|  0.99655
USER: genes 11 Torsion [N]-CA--C-[N] |==|  0.31793
USER: genes 12 Torsion [C]-N--CA-[C] |==|  0.74972
USER: genes 13 Torsion [N]-CA--C-[O] |==|  0.16976
USER: genes 14 Torsion [N]-CA--CB-[CG] |==|  0.56357
USER: genes 15 Torsion [CA]-CB--CG-[CD1] |==|  0.31353
USER: genes 16 Torsion [N]-C--CA-[N] |==|  0.32995
USER: genes 17 Torsion [C]-CA--CB-[CG] |==|  0.27289
USER: genes 18 Torsion [CA]-CB--CG-[CD2] |==|  0.23596
USER: genes 19 Torsion [C]-CA--N-[C] |==|  0.81569
USER: genes 20 Torsion [N]-C--CA-[N] |==|  0.04638
USER: genes 21 Torsion [C]-CA--N-[C] |==|  0.68437
USER: genes 22 Torsion [N]-C--CA-[N] |==|  0.24867
USER: genes 23 Torsion [C]-CA--CB-[CG2] |==|  0.23891
USER: genes 24 Torsion [CA]-CB--OG1-[HG1] |==|  0.58938
USER: genes 25 Torsion [C]-CA--N-[H2] |==|  0.80425
USER: genes 26 Torsion [C]-CA--CB-[CG] |==|  0.73611
USER: genes 27 Torsion [CA]-CB--CG-[OD1] |==|  0.79356
ROOT
ATOM      1  C   LEU B   3      -0.854  18.028  10.068  1.00 37.56 LIG 0.24  C 
ATOM      2 O    LEU B   3      -0.262  19.123  10.134  1.00 36.01 LIG-0.27  OA
ATOM      3  N   TYR B   4      -0.301  16.835  10.433  1.00 34.90 LIG-0.35  N 
ATOM      4 H    TYR B   4      -0.744  16.101  10.380  1.00 34.90 LIG 0.16  HD
ENDROOT
BRANCH 3 5
ATOM      5  CA  TYR B   4       1.056  16.623  10.945  1.00 36.24 LIG 0.18  C 
BRANCH 5 6
ATOM      6  CB  TYR B   4       2.108  17.072   9.910  1.00 36.37 LIG 0.07  C 
BRANCH 6 7
ATOM      7  CG  TYR B   4       3.364  17.536  10.602  1.00 36.28 LIG-0.06  A 
ATOM      8  CD2 TYR B   4       4.208  16.632  11.247  1.00 36.38 LIG 0.01  A 
ATOM      9  CE2 TYR B   4       5.336  17.060  11.938  1.00 36.34 LIG 0.04  A 
ATOM     10  CZ  TYR B   4       5.610  18.415  12.022  1.00 42.86 LIG 0.07  A 
ATOM     11  CE1 TYR B   4       4.778  19.334  11.403  1.00 38.54 LIG 0.04  A 
ATOM     12  CD1 TYR B   4       3.661  18.894  10.704  1.00 37.84 LIG 0.01  A 
BRANCH 10 13
ATOM     13 OH   TYR B   4       6.706  18.857  12.712  1.00 44.02 LIG-0.36  OA
ATOM     14 HH   TYR B   4       6.516  18.921  13.529  1.00 44.02 LIG 0.22  HD
ENDBRANCH 10 13
ENDBRANCH 6 7
ENDBRANCH 5 6
BRANCH 5 15
ATOM     15  C   TYR B   4       1.259  17.303  12.294  1.00 47.41 LIG 0.24  C 
ATOM     16  N   MET B   5       1.005  18.607  12.318  1.00 49.29 LIG-0.35  N 
ATOM     17 H    MET B   5       0.784  19.070  11.628  1.00 49.29 LIG 0.16  HD
ATOM     18 O    TYR B   4       1.616  16.670  13.291  1.00 47.26 LIG-0.27  OA
BRANCH 16 19
ATOM     19  CA  MET B   5       1.087  19.364  13.554  1.00 52.16 LIG 0.18  C 
BRANCH 19 20
ATOM     20  CB  MET B   5       0.194  18.751  14.632  1.00 55.77 LIG 0.04  C 
BRANCH 20 21
ATOM     21  CG  MET B   5       0.823  18.821  16.022  1.00 61.00 LIG 0.08  C 
BRANCH 21 22
ATOM     22 SD   MET B   5       0.576  17.315  16.978  1.00 67.05 LIG-0.17  SA
ATOM     23  CE  MET B   5      -0.383  16.367  15.818  1.00 63.64 LIG 0.09  C 
ENDBRANCH 21 22
ENDBRANCH 20 21
ENDBRANCH 19 20
BRANCH 19 24
ATOM     24  C   MET B   5       2.553  19.405  13.931  1.00 55.98 LIG 0.24  C 
ATOM     25 O    MET B   5       3.158  18.349  14.120  1.00 56.32 LIG-0.27  OA
ATOM     26  N   LEU B   6       3.155  20.600  13.917  1.00 51.23 LIG-0.35  N 
ATOM     27 H    LEU B   6       2.744  21.339  13.759  1.00 51.23 LIG 0.16  HD
BRANCH 26 28
ATOM     28  CA  LEU B   6       4.586  20.756  14.173  1.00 69.26 LIG 0.16  C 
BRANCH 28 29
ATOM     29  C   LEU B   6       4.864  20.967  15.660  1.00 97.67 LIG 0.22  C 
ATOM     30 O    LEU B   6       4.558  20.110  16.488  1.00 61.20 LIG-0.29  OA
ENDBRANCH 28 29
BRANCH 28 31
ATOM     31  CB  LEU B   6       5.146  21.921  13.334  1.00 69.14 LIG 0.04  C 
BRANCH 31 32
ATOM     32  CG  LEU B   6       6.649  21.876  13.062  1.00 73.60 LIG-0.02  C 
ATOM     33  CD2 LEU B   6       7.338  23.109  13.593  1.00 75.76 LIG 0.01  C 
ATOM     34  CD1 LEU B   6       6.935  21.649  11.595  1.00 73.41 LIG 0.01  C 
ENDBRANCH 31 32
ENDBRANCH 28 31
ENDBRANCH 26 28
ENDBRANCH 19 24
ENDBRANCH 16 19
ENDBRANCH 5 15
ENDBRANCH 3 5
BRANCH 1 35
ATOM     35  CA  LEU B   3      -2.269  17.968   9.489  1.00 32.52 LIG 0.18  C 
BRANCH 35 36
ATOM     36  CB  LEU B   3      -2.297  18.456   8.026  1.00 32.14 LIG 0.04  C 
BRANCH 36 37
ATOM     37  CG  LEU B   3      -2.274  17.339   6.969  1.00 34.99 LIG-0.02  C 
ATOM     38  CD2 LEU B   3      -3.700  16.801   6.688  1.00 35.91 LIG 0.01  C 
ATOM     39  CD1 LEU B   3      -1.279  16.226   7.374  1.00 33.16 LIG 0.01  C 
ENDBRANCH 36 37
ENDBRANCH 35 36
BRANCH 35 40
ATOM     40  N   LEU B   3      -3.218  18.721  10.303  1.00 32.48 LIG-0.35  N 
ATOM     41  C   ASN B   2      -3.523  18.323  11.553  1.00 36.40 LIG 0.24  C 
ATOM     42 O    ASN B   2      -3.049  17.301  12.065  1.00 34.95 LIG-0.27  OA
ATOM     43 H    LEU B   3      -3.550  19.416   9.921  1.00 32.48 LIG 0.16  HD
BRANCH 41 44
ATOM     44  CA  ASN B   2      -4.570  19.138  12.317  1.00 32.65 LIG 0.18  C 
BRANCH 44 45
ATOM     45  N   ASN B   2      -5.276  19.938  11.323  1.00 32.45 LIG-0.34  N 
ATOM     46 H    ASN B   2      -5.736  19.456  10.780  1.00 32.45 LIG 0.16  HD
ATOM     47  C   THR B   1      -5.241  21.272  11.226  1.00 35.22 LIG 0.25  C 
ATOM     48 O    THR B   1      -4.698  22.019  12.063  1.00 34.61 LIG-0.27  OA
BRANCH 47 49
ATOM     49  CA  THR B   1      -5.946  21.811  10.006  1.00 32.53 LIG 0.30  C 
BRANCH 49 50
ATOM     50  CB  THR B   1      -5.220  23.056   9.475  1.00 31.51 LIG 0.15  C 
ATOM     51  CG2 THR B   1      -4.049  22.719   8.499  1.00 30.77 LIG 0.04  C 
BRANCH 50 52
ATOM     52 OG1  THR B   1      -6.171  23.907   8.835  1.00 21.64 LIG-0.39  OA
ATOM     53 HG1  THR B   1      -5.801  24.314   8.201  1.00 21.64 LIG 0.21  HD
ENDBRANCH 50 52
ENDBRANCH 49 50
BRANCH 49 54
ATOM     54  N   THR B   1      -7.357  22.074  10.273  1.00 34.33 LIG-0.06  N 
ATOM     55 H2   THR B   1      -7.790  21.302  10.369  1.00 34.33 LIG 0.28  HD
ATOM     56 H1   THR B   1      -7.708  22.528   9.592  1.00 34.33 LIG 0.28  HD
ATOM     57 H3   THR B   1      -7.435  22.551  11.019  1.00 34.33 LIG 0.28  HD
ENDBRANCH 49 54
ENDBRANCH 47 49
ENDBRANCH 44 45
BRANCH 44 58
ATOM     58  CB  ASN B   2      -5.542  18.246  13.111  1.00 33.77 LIG 0.14  C 
BRANCH 58 59
ATOM     59  CG  ASN B   2      -6.827  17.936  12.369  1.00 47.71 LIG 0.22  C 
ATOM     60 OD1  ASN B   2      -7.721  18.779  12.227  1.00 37.59 LIG-0.27  OA
ATOM     61  ND2 ASN B   2      -6.965  16.704  11.903  1.00 40.38 LIG-0.37  N 
ATOM     62 22HD ASN B   2      -6.334  16.131  12.009  1.00 40.38 LIG 0.16  HD
ATOM     63 21HD ASN B   2      -7.687  16.479  11.493  1.00 40.38 LIG 0.16  HD
ENDBRANCH 58 59
ENDBRANCH 44 58
ENDBRANCH 41 44
ENDBRANCH 35 40
ENDBRANCH 1 35
TORSDOF 26
ENDMDL
MODEL 12
USER: ADFR SOLUTION from run 82
USER: SCORE 20.708160 LL:  -5.909 LR: -16.665 RR:   0.000 FEB:  -8.909
USER: RMSD 5.730111
USER: SEED 81
USER: STATUS no improvement in best in 1 clusters for 5 generations
USER: GENES 28
USER: genes 0 Translation |==|  0.46983 0.24894 0.38934
USER: genes 1 Rotation |==|  0.53309 0.40664 0.43900 0.98628
USER: genes 2 Torsion [C]-N--CA-[CB] |==|  0.82948
USER: genes 3 Torsion [N]-CA--CB-[CG] |==|  0.71756
USER: genes 4 Torsion [CA]-CB--CG-[CD2] |==|  0.43940
USER: genes 5 Torsion [CE2]-CZ--OH-[HH] |==|  0.91745
USER: genes 6 Torsion [N]-CA--C-[N] |==|  0.36117
USER: genes 7 Torsion [C]-N--CA-[CB] |==|  0.84115
USER: genes 8 Torsion [N]-CA--CB-[CG] |==|  0.81936
USER: genes 9 Torsion [CA]-CB--CG-[SD] |==|  0.24628
USER: genes 10 Torsion [CB]-CG--SD-[CE] |==|  0.65826
USER: genes 11 Torsion [N]-CA--C-[N] |==|  0.24444
USER: genes 12 Torsion [C]-N--CA-[C] |==|  0.19948
USER: genes 13 Torsion [N]-CA--C-[O] |==|  0.09055
USER: genes 14 Torsion [N]-CA--CB-[CG] |==|  0.35742
USER: genes 15 Torsion [CA]-CB--CG-[CD1] |==|  0.36204
USER: genes 16 Torsion [N]-C--CA-[N] |==|  0.84454
USER: genes 17 Torsion [C]-CA--CB-[CG] |==|  0.11535
USER: genes 18 Torsion [CA]-CB--CG-[CD2] |==|  0.48166
USER: genes 19 Torsion [C]-CA--N-[C] |==|  0.20081
USER: genes 20 Torsion [N]-C--CA-[N] |==|  0.47944
USER: genes 21 Torsion [C]-CA--N-[C] |==|  0.76827
USER: genes 22 Torsion [N]-C--CA-[N] |==|  0.36151
USER: genes 23 Torsion [C]-CA--CB-[CG2] |==|  0.02763
USER: genes 24 Torsion [CA]-CB--OG1-[HG1] |==|  0.33667
USER: genes 25 Torsion [C]-CA--N-[H2] |==|  0.72554
USER: genes 26 Torsion [C]-CA--CB-[CG] |==|  0.48294
USER: genes 27 Torsion [CA]-CB--CG-[OD1] |==|  0.03658
ROOT
ATOM      1  C   LEU B   3       0.654  16.154  10.713  1.00 37.56 LIG 0.24  C 
ATOM      2 O    LEU B   3       1.109  15.271  11.466  1.00 36.01 LIG-0.27  OA
ATOM      3  N   TYR B   4      -0.034  17.249  11.146  1.00 34.90 LIG-0.35  N 
ATOM      4 H    TYR B   4      -0.326  17.841  10.595  1.00 34.90 LIG 0.16  HD
ENDROOT
BRANCH 3 5
ATOM      5  CA  TYR B   4      -0.370  17.577  12.534  1.00 36.24 LIG 0.18  C 
BRANCH 5 6
ATOM      6  CB  TYR B   4      -1.265  16.485  13.154  1.00 36.37 LIG 0.07  C 
BRANCH 6 7
ATOM      7  CG  TYR B   4      -2.703  16.934  13.181  1.00 36.28 LIG-0.06  A 
ATOM      8  CD2 TYR B   4      -3.746  16.011  13.260  1.00 36.38 LIG 0.01  A 
ATOM      9  CE2 TYR B   4      -5.076  16.415  13.225  1.00 36.34 LIG 0.04  A 
ATOM     10  CZ  TYR B   4      -5.375  17.758  13.069  1.00 42.86 LIG 0.07  A 
ATOM     11  CE1 TYR B   4      -4.357  18.694  12.973  1.00 38.54 LIG 0.04  A 
ATOM     12  CD1 TYR B   4      -3.032  18.279  13.022  1.00 37.84 LIG 0.01  A 
BRANCH 10 13
ATOM     13 OH   TYR B   4      -6.678  18.174  13.015  1.00 44.02 LIG-0.36  OA
ATOM     14 HH   TYR B   4      -7.154  17.564  12.687  1.00 44.02 LIG 0.22  HD
ENDBRANCH 10 13
ENDBRANCH 6 7
ENDBRANCH 5 6
BRANCH 5 15
ATOM     15  C   TYR B   4       0.882  17.828  13.368  1.00 47.41 LIG 0.24  C 
ATOM     16  N   MET B   5       0.876  18.950  14.080  1.00 49.29 LIG-0.35  N 
ATOM     17 H    MET B   5       0.246  19.534  14.058  1.00 49.29 LIG 0.16  HD
ATOM     18 O    TYR B   4       1.820  17.027  13.384  1.00 47.26 LIG-0.27  OA
BRANCH 16 19
ATOM     19  CA  MET B   5       1.972  19.275  14.974  1.00 52.16 LIG 0.18  C 
BRANCH 19 20
ATOM     20  CB  MET B   5       2.183  18.171  16.009  1.00 55.77 LIG 0.04  C 
BRANCH 20 21
ATOM     21  CG  MET B   5       0.996  18.023  16.958  1.00 61.00 LIG 0.08  C 
BRANCH 21 22
ATOM     22 SD   MET B   5      -0.255  16.885  16.342  1.00 67.05 LIG-0.17  SA
ATOM     23  CE  MET B   5      -1.675  17.957  16.341  1.00 63.64 LIG 0.09  C 
ENDBRANCH 21 22
ENDBRANCH 20 21
ENDBRANCH 19 20
BRANCH 19 24
ATOM     24  C   MET B   5       3.180  19.521  14.094  1.00 55.98 LIG 0.24  C 
ATOM     25 O    MET B   5       3.875  18.566  13.742  1.00 56.32 LIG-0.27  OA
ATOM     26  N   LEU B   6       3.360  20.765  13.635  1.00 51.23 LIG-0.35  N 
ATOM     27 H    LEU B   6       2.862  21.431  13.855  1.00 51.23 LIG 0.16  HD
BRANCH 26 28
ATOM     28  CA  LEU B   6       4.436  21.105  12.705  1.00 69.26 LIG 0.16  C 
BRANCH 28 29
ATOM     29  C   LEU B   6       4.163  20.545  11.311  1.00 97.67 LIG 0.22  C 
ATOM     30 O    LEU B   6       3.013  20.443  10.885  1.00 61.20 LIG-0.29  OA
ENDBRANCH 28 29
BRANCH 28 31
ATOM     31  CB  LEU B   6       5.784  20.595  13.252  1.00 69.14 LIG 0.04  C 
BRANCH 31 32
ATOM     32  CG  LEU B   6       6.616  19.758  12.282  1.00 73.60 LIG-0.02  C 
ATOM     33  CD2 LEU B   6       6.537  18.289  12.622  1.00 75.76 LIG 0.01  C 
ATOM     34  CD1 LEU B   6       8.042  20.253  12.214  1.00 73.41 LIG 0.01  C 
ENDBRANCH 31 32
ENDBRANCH 28 31
ENDBRANCH 26 28
ENDBRANCH 19 24
ENDBRANCH 16 19
ENDBRANCH 5 15
ENDBRANCH 3 5
BRANCH 1 35
ATOM     35  CA  LEU B   3       0.805  16.005   9.198  1.00 32.52 LIG 0.18  C 
BRANCH 35 36
ATOM     36  CB  LEU B   3       1.727  17.096   8.616  1.00 32.14 LIG 0.04  C 
BRANCH 36 37
ATOM     37  CG  LEU B   3       2.980  17.402   9.454  1.00 34.99 LIG-0.02  C 
ATOM     38  CD2 LEU B   3       3.924  18.385   8.715  1.00 35.91 LIG 0.01  C 
ATOM     39  CD1 LEU B   3       3.685  16.092   9.877  1.00 33.16 LIG 0.01  C 
ENDBRANCH 36 37
ENDBRANCH 35 36
BRANCH 35 40
ATOM     40  N   LEU B   3      -0.489  16.007   8.523  1.00 32.48 LIG-0.35  N 
ATOM     41  C   ASN B   2      -1.207  17.141   8.411  1.00 36.40 LIG 0.24  C 
ATOM     42 O    ASN B   2      -0.834  18.220   8.889  1.00 34.95 LIG-0.27  OA
ATOM     43 H    LEU B   3      -0.738  15.243   8.216  1.00 32.48 LIG 0.16  HD
BRANCH 41 44
ATOM     44  CA  ASN B   2      -2.578  17.043   7.738  1.00 32.65 LIG 0.18  C 
BRANCH 44 45
ATOM     45  N   ASN B   2      -3.212  18.346   7.903  1.00 32.45 LIG-0.34  N 
ATOM     46 H    ASN B   2      -3.111  18.851   7.215  1.00 32.45 LIG 0.16  HD
ATOM     47  C   THR B   1      -3.886  18.755   8.985  1.00 35.22 LIG 0.25  C 
ATOM     48 O    THR B   1      -4.172  18.019   9.949  1.00 34.61 LIG-0.27  OA
BRANCH 47 49
ATOM     49  CA  THR B   1      -4.298  20.205   8.931  1.00 32.53 LIG 0.30  C 
BRANCH 49 50
ATOM     50  CB  THR B   1      -3.401  21.051   9.848  1.00 31.51 LIG 0.15  C 
ATOM     51  CG2 THR B   1      -2.167  20.269  10.396  1.00 30.77 LIG 0.04  C 
BRANCH 50 52
ATOM     52 OG1  THR B   1      -2.978  22.214   9.135  1.00 21.64 LIG-0.39  OA
ATOM     53 HG1  THR B   1      -3.228  22.901   9.547  1.00 21.64 LIG 0.21  HD
ENDBRANCH 50 52
ENDBRANCH 49 50
BRANCH 49 54
ATOM     54  N   THR B   1      -5.714  20.374   9.244  1.00 34.33 LIG-0.06  N 
ATOM     55 H2   THR B   1      -6.178  20.452   8.489  1.00 34.33 LIG 0.28  HD
ATOM     56 H1   THR B   1      -5.823  21.107   9.737  1.00 34.33 LIG 0.28  HD
ATOM     57 H3   THR B   1      -6.004  19.666   9.698  1.00 34.33 LIG 0.28  HD
ENDBRANCH 49 54
ENDBRANCH 47 49
ENDBRANCH 44 45
BRANCH 44 58
ATOM     58  CB  ASN B   2      -2.475  16.656   6.251  1.00 33.77 LIG 0.14  C 
BRANCH 58 59
ATOM     59  CG  ASN B   2      -3.817  16.407   5.592  1.00 47.71 LIG 0.22  C 
ATOM     60 OD1  ASN B   2      -4.881  16.737   6.128  1.00 37.59 LIG-0.27  OA
ATOM     61  ND2 ASN B   2      -3.802  15.788   4.421  1.00 40.38 LIG-0.37  N 
ATOM     62 22HD ASN B   2      -3.053  15.566   4.062  1.00 40.38 LIG 0.16  HD
ATOM     63 21HD ASN B   2      -4.541  15.608   4.020  1.00 40.38 LIG 0.16  HD
ENDBRANCH 58 59
ENDBRANCH 44 58
ENDBRANCH 41 44
ENDBRANCH 35 40
ENDBRANCH 1 35
TORSDOF 26
ENDMDL
MODEL 13
USER: ADFR SOLUTION from run 25
USER: SCORE 19.040905 LL:  -5.603 LR: -16.632 RR:   0.000 FEB:  -8.876
USER: RMSD 6.725786
USER: SEED 24
USER: STATUS no improvement in best in 1 clusters for 5 generations
USER: GENES 28
USER: genes 0 Translation |==|  0.32111 0.51168 0.48587
USER: genes 1 Rotation |==|  0.06189 0.34705 0.32153 0.55307
USER: genes 2 Torsion [C]-N--CA-[CB] |==|  0.73117
USER: genes 3 Torsion [N]-CA--CB-[CG] |==|  0.77031
USER: genes 4 Torsion [CA]-CB--CG-[CD2] |==|  0.84675
USER: genes 5 Torsion [CE2]-CZ--OH-[HH] |==|  0.91499
USER: genes 6 Torsion [N]-CA--C-[N] |==|  0.14244
USER: genes 7 Torsion [C]-N--CA-[CB] |==|  0.39662
USER: genes 8 Torsion [N]-CA--CB-[CG] |==|  0.12248
USER: genes 9 Torsion [CA]-CB--CG-[SD] |==|  0.28205
USER: genes 10 Torsion [CB]-CG--SD-[CE] |==|  0.07844
USER: genes 11 Torsion [N]-CA--C-[N] |==|  0.47323
USER: genes 12 Torsion [C]-N--CA-[C] |==|  0.79876
USER: genes 13 Torsion [N]-CA--C-[O] |==|  0.95304
USER: genes 14 Torsion [N]-CA--CB-[CG] |==|  0.57978
USER: genes 15 Torsion [CA]-CB--CG-[CD1] |==|  0.72960
USER: genes 16 Torsion [N]-C--CA-[N] |==|  0.79866
USER: genes 17 Torsion [C]-CA--CB-[CG] |==|  0.70672
USER: genes 18 Torsion [CA]-CB--CG-[CD2] |==|  0.61698
USER: genes 19 Torsion [C]-CA--N-[C] |==|  0.65757
USER: genes 20 Torsion [N]-C--CA-[N] |==|  0.82778
USER: genes 21 Torsion [C]-CA--N-[C] |==|  0.70148
USER: genes 22 Torsion [N]-C--CA-[N] |==|  0.45756
USER: genes 23 Torsion [C]-CA--CB-[CG2] |==|  0.34850
USER: genes 24 Torsion [CA]-CB--OG1-[HG1] |==|  0.50689
USER: genes 25 Torsion [C]-CA--N-[H2] |==|  0.07700
USER: genes 26 Torsion [C]-CA--CB-[CG] |==|  0.79546
USER: genes 27 Torsion [CA]-CB--CG-[OD1] |==|  0.95896
ROOT
ATOM      1  C   LEU B   3      -2.469  20.686  13.030  1.00 37.56 LIG 0.24  C 
ATOM      2 O    LEU B   3      -2.012  21.833  13.202  1.00 36.01 LIG-0.27  OA
ATOM      3  N   TYR B   4      -1.971  19.792  12.128  1.00 34.90 LIG-0.35  N 
ATOM      4 H    TYR B   4      -2.310  19.007  12.043  1.00 34.90 LIG 0.16  HD
ENDROOT
BRANCH 3 5
ATOM      5  CA  TYR B   4      -0.848  20.009  11.212  1.00 36.24 LIG 0.18  C 
BRANCH 5 6
ATOM      6  CB  TYR B   4      -1.353  20.429   9.816  1.00 36.37 LIG 0.07  C 
BRANCH 6 7
ATOM      7  CG  TYR B   4      -1.750  19.218   9.012  1.00 36.28 LIG-0.06  A 
ATOM      8  CD2 TYR B   4      -0.857  18.169   8.799  1.00 36.38 LIG 0.01  A 
ATOM      9  CE2 TYR B   4      -1.196  17.077   8.009  1.00 36.34 LIG 0.04  A 
ATOM     10  CZ  TYR B   4      -2.433  17.045   7.386  1.00 42.86 LIG 0.07  A 
ATOM     11  CE1 TYR B   4      -3.333  18.083   7.569  1.00 38.54 LIG 0.04  A 
ATOM     12  CD1 TYR B   4      -2.987  19.163   8.372  1.00 37.84 LIG 0.01  A 
BRANCH 10 13
ATOM     13 OH   TYR B   4      -2.779  15.987   6.591  1.00 44.02 LIG-0.36  OA
ATOM     14 HH   TYR B   4      -2.089  15.669   6.230  1.00 44.02 LIG 0.22  HD
ENDBRANCH 10 13
ENDBRANCH 6 7
ENDBRANCH 5 6
BRANCH 5 15
ATOM     15  C   TYR B   4       0.152  21.009  11.780  1.00 47.41 LIG 0.24  C 
ATOM     16  N   MET B   5       0.570  20.757  13.016  1.00 49.29 LIG-0.35  N 
ATOM     17 H    MET B   5       0.281  20.109  13.501  1.00 49.29 LIG 0.16  HD
ATOM     18 O    TYR B   4       0.551  21.972  11.119  1.00 47.26 LIG-0.27  OA
BRANCH 16 19
ATOM     19  CA  MET B   5       1.578  21.587  13.650  1.00 52.16 LIG 0.18  C 
BRANCH 19 20
ATOM     20  CB  MET B   5       1.282  21.770  15.138  1.00 55.77 LIG 0.04  C 
BRANCH 20 21
ATOM     21  CG  MET B   5       0.871  20.467  15.818  1.00 61.00 LIG 0.08  C 
BRANCH 21 22
ATOM     22 SD   MET B   5       2.207  19.719  16.766  1.00 67.05 LIG-0.17  SA
ATOM     23  CE  MET B   5       3.133  21.176  17.195  1.00 63.64 LIG 0.09  C 
ENDBRANCH 21 22
ENDBRANCH 20 21
ENDBRANCH 19 20
BRANCH 19 24
ATOM     24  C   MET B   5       2.911  20.923  13.372  1.00 55.98 LIG 0.24  C 
ATOM     25 O    MET B   5       2.936  19.848  12.772  1.00 56.32 LIG-0.27  OA
ATOM     26  N   LEU B   6       4.015  21.610  13.689  1.00 51.23 LIG-0.35  N 
ATOM     27 H    LEU B   6       4.003  22.374  14.084  1.00 51.23 LIG 0.16  HD
BRANCH 26 28
ATOM     28  CA  LEU B   6       5.356  21.114  13.386  1.00 69.26 LIG 0.16  C 
BRANCH 28 29
ATOM     29  C   LEU B   6       5.737  19.950  14.299  1.00 97.67 LIG 0.22  C 
ATOM     30 O    LEU B   6       5.117  19.735  15.340  1.00 61.20 LIG-0.29  OA
ENDBRANCH 28 29
BRANCH 28 31
ATOM     31  CB  LEU B   6       6.378  22.262  13.497  1.00 69.14 LIG 0.04  C 
BRANCH 31 32
ATOM     32  CG  LEU B   6       7.613  22.135  12.606  1.00 73.60 LIG-0.02  C 
ATOM     33  CD2 LEU B   6       7.305  21.351  11.353  1.00 75.76 LIG 0.01  C 
ATOM     34  CD1 LEU B   6       8.783  21.556  13.369  1.00 73.41 LIG 0.01  C 
ENDBRANCH 31 32
ENDBRANCH 28 31
ENDBRANCH 26 28
ENDBRANCH 19 24
ENDBRANCH 16 19
ENDBRANCH 5 15
ENDBRANCH 3 5
BRANCH 1 35
ATOM     35  CA  LEU B   3      -3.702  20.239  13.817  1.00 32.52 LIG 0.18  C 
BRANCH 35 36
ATOM     36  CB  LEU B   3      -3.477  18.864  14.477  1.00 32.14 LIG 0.04  C 
BRANCH 36 37
ATOM     37  CG  LEU B   3      -4.208  17.691  13.802  1.00 34.99 LIG-0.02  C 
ATOM     38  CD2 LEU B   3      -4.833  16.738  14.853  1.00 35.91 LIG 0.01  C 
ATOM     39  CD1 LEU B   3      -3.270  16.964  12.811  1.00 33.16 LIG 0.01  C 
ENDBRANCH 36 37
ENDBRANCH 35 36
BRANCH 35 40
ATOM     40  N   LEU B   3      -4.899  20.222  12.982  1.00 32.48 LIG-0.35  N 
ATOM     41  C   ASN B   2      -5.988  20.937  13.323  1.00 36.40 LIG 0.24  C 
ATOM     42 O    ASN B   2      -6.049  21.614  14.357  1.00 34.95 LIG-0.27  OA
ATOM     43 H    LEU B   3      -4.842  19.731  12.278  1.00 32.48 LIG 0.16  HD
BRANCH 41 44
ATOM     44  CA  ASN B   2      -7.220  20.819  12.420  1.00 32.65 LIG 0.18  C 
BRANCH 44 45
ATOM     45  N   ASN B   2      -6.819  21.315  11.109  1.00 32.45 LIG-0.34  N 
ATOM     46 H    ASN B   2      -6.296  20.770  10.697  1.00 32.45 LIG 0.16  HD
ATOM     47  C   THR B   1      -7.196  22.478  10.566  1.00 35.22 LIG 0.25  C 
ATOM     48 O    THR B   1      -8.052  23.236  11.062  1.00 34.61 LIG-0.27  OA
BRANCH 47 49
ATOM     49  CA  THR B   1      -6.501  22.793   9.264  1.00 32.53 LIG 0.30  C 
BRANCH 49 50
ATOM     50  CB  THR B   1      -5.020  23.119   9.512  1.00 31.51 LIG 0.15  C 
ATOM     51  CG2 THR B   1      -4.045  22.241   8.668  1.00 30.77 LIG 0.04  C 
BRANCH 50 52
ATOM     52 OG1  THR B   1      -4.803  24.505   9.244  1.00 21.64 LIG-0.39  OA
ATOM     53 HG1  THR B   1      -3.988  24.684   9.345  1.00 21.64 LIG 0.21  HD
ENDBRANCH 50 52
ENDBRANCH 49 50
BRANCH 49 54
ATOM     54  N   THR B   1      -7.181  23.860   8.536  1.00 34.33 LIG-0.06  N 
ATOM     55 H2   THR B   1      -7.603  24.391   9.113  1.00 34.33 LIG 0.28  HD
ATOM     56 H1   THR B   1      -7.772  23.506   7.972  1.00 34.33 LIG 0.28  HD
ATOM     57 H3   THR B   1      -6.584  24.336   8.079  1.00 34.33 LIG 0.28  HD
ENDBRANCH 49 54
ENDBRANCH 47 49
ENDBRANCH 44 45
BRANCH 44 58
ATOM     58  CB  ASN B   2      -7.748  19.375  12.336  1.00 33.77 LIG 0.14  C 
BRANCH 58 59
ATOM     59  CG  ASN B   2      -6.881  18.459  11.494  1.00 47.71 LIG 0.22  C 
ATOM     60 OD1  ASN B   2      -6.016  18.897  10.728  1.00 37.59 LIG-0.27  OA
ATOM     61  ND2 ASN B   2      -7.115  17.159  11.593  1.00 40.38 LIG-0.37  N 
ATOM     62 22HD ASN B   2      -7.720  16.870  12.131  1.00 40.38 LIG 0.16  HD
ATOM     63 21HD ASN B   2      -6.661  16.603  11.119  1.00 40.38 LIG 0.16  HD
ENDBRANCH 58 59
ENDBRANCH 44 58
ENDBRANCH 41 44
ENDBRANCH 35 40
ENDBRANCH 1 35
TORSDOF 26
ENDMDL
MODEL 14
USER: ADFR SOLUTION from run 9
USER: SCORE 21.147567 LL:  -5.327 LR: -16.634 RR:   0.000 FEB:  -8.878
USER: RMSD 5.648527
USER: SEED 554572
USER: STATUS searching
USER: GENES 28
USER: genes 0 Translation |==|  0.40250 0.44458 0.39379
USER: genes 1 Rotation |==|  0.46699 0.75129 0.55612 0.92733
USER: genes 2 Torsion [C]-N--CA-[CB] |==|  0.64435
USER: genes 3 Torsion [N]-CA--CB-[CG] |==|  0.15011
USER: genes 4 Torsion [CA]-CB--CG-[CD2] |==|  0.78668
USER: genes 5 Torsion [CE2]-CZ--OH-[HH] |==|  0.13647
USER: genes 6 Torsion [N]-CA--C-[N] |==|  0.81838
USER: genes 7 Torsion [C]-N--CA-[CB] |==|  0.86667
USER: genes 8 Torsion [N]-CA--CB-[CG] |==|  0.65003
USER: genes 9 Torsion [CA]-CB--CG-[SD] |==|  0.25931
USER: genes 10 Torsion [CB]-CG--SD-[CE] |==|  0.75248
USER: genes 11 Torsion [N]-CA--C-[N] |==|  0.35194
USER: genes 12 Torsion [C]-N--CA-[C] |==|  0.13566
USER: genes 13 Torsion [N]-CA--C-[O] |==|  0.16172
USER: genes 14 Torsion [N]-CA--CB-[CG] |==|  0.22065
USER: genes 15 Torsion [CA]-CB--CG-[CD1] |==|  0.31570
USER: genes 16 Torsion [N]-C--CA-[N] |==|  0.01600
USER: genes 17 Torsion [C]-CA--CB-[CG] |==|  0.45983
USER: genes 18 Torsion [CA]-CB--CG-[CD2] |==|  0.55823
USER: genes 19 Torsion [C]-CA--N-[C] |==|  0.72582
USER: genes 20 Torsion [N]-C--CA-[N] |==|  0.06003
USER: genes 21 Torsion [C]-CA--N-[C] |==|  0.72209
USER: genes 22 Torsion [N]-C--CA-[N] |==|  0.24749
USER: genes 23 Torsion [C]-CA--CB-[CG2] |==|  0.25726
USER: genes 24 Torsion [CA]-CB--OG1-[HG1] |==|  0.63164
USER: genes 25 Torsion [C]-CA--N-[H2] |==|  0.80430
USER: genes 26 Torsion [C]-CA--CB-[CG] |==|  0.71967
USER: genes 27 Torsion [CA]-CB--CG-[OD1] |==|  0.80246
ROOT
ATOM      1  C   LEU B   3      -0.759  19.529  10.820  1.00 37.56 LIG 0.24  C 
ATOM      2 O    LEU B   3       0.327  19.177  10.321  1.00 36.01 LIG-0.27  OA
ATOM      3  N   TYR B   4      -0.888  20.511  11.758  1.00 34.90 LIG-0.35  N 
ATOM      4 H    TYR B   4      -1.657  20.731  12.073  1.00 34.90 LIG 0.16  HD
ENDROOT
BRANCH 3 5
ATOM      5  CA  TYR B   4       0.195  21.304  12.346  1.00 36.24 LIG 0.18  C 
BRANCH 5 6
ATOM      6  CB  TYR B   4       0.126  21.268  13.887  1.00 36.37 LIG 0.07  C 
BRANCH 6 7
ATOM      7  CG  TYR B   4       0.104  19.844  14.381  1.00 36.28 LIG-0.06  A 
ATOM      8  CD2 TYR B   4      -1.055  19.072  14.308  1.00 36.38 LIG 0.01  A 
ATOM      9  CE2 TYR B   4      -1.098  17.779  14.816  1.00 36.34 LIG 0.04  A 
ATOM     10  CZ  TYR B   4       0.021  17.256  15.443  1.00 42.86 LIG 0.07  A 
ATOM     11  CE1 TYR B   4       1.181  18.009  15.542  1.00 38.54 LIG 0.04  A 
ATOM     12  CD1 TYR B   4       1.216  19.295  15.019  1.00 37.84 LIG 0.01  A 
BRANCH 10 13
ATOM     13 OH   TYR B   4      -0.007  15.991  15.964  1.00 44.02 LIG-0.36  OA
ATOM     14 HH   TYR B   4      -0.314  15.458  15.392  1.00 44.02 LIG 0.22  HD
ENDBRANCH 10 13
ENDBRANCH 6 7
ENDBRANCH 5 6
BRANCH 5 15
ATOM     15  C   TYR B   4       1.558  20.860  11.828  1.00 47.41 LIG 0.24  C 
ATOM     16  N   MET B   5       1.925  19.630  12.171  1.00 49.29 LIG-0.35  N 
ATOM     17 H    MET B   5       1.468  19.114  12.684  1.00 49.29 LIG 0.16  HD
ATOM     18 O    TYR B   4       2.254  21.597  11.124  1.00 47.26 LIG-0.27  OA
BRANCH 16 19
ATOM     19  CA  MET B   5       3.166  19.056  11.684  1.00 52.16 LIG 0.18  C 
BRANCH 19 20
ATOM     20  CB  MET B   5       3.308  19.254  10.175  1.00 55.77 LIG 0.04  C 
BRANCH 20 21
ATOM     21  CG  MET B   5       3.561  17.943   9.434  1.00 61.00 LIG 0.08  C 
BRANCH 21 22
ATOM     22 SD   MET B   5       2.048  17.179   8.828  1.00 67.05 LIG-0.17  SA
ATOM     23  CE  MET B   5       1.616  16.186  10.240  1.00 63.64 LIG 0.09  C 
ENDBRANCH 21 22
ENDBRANCH 20 21
ENDBRANCH 19 20
BRANCH 19 24
ATOM     24  C   MET B   5       4.277  19.698  12.488  1.00 55.98 LIG 0.24  C 
ATOM     25 O    MET B   5       4.281  20.921  12.642  1.00 56.32 LIG-0.27  OA
ATOM     26  N   LEU B   6       5.139  18.881  13.104  1.00 51.23 LIG-0.35  N 
ATOM     27 H    LEU B   6       5.125  18.025  13.022  1.00 51.23 LIG 0.16  HD
BRANCH 26 28
ATOM     28  CA  LEU B   6       6.196  19.380  13.981  1.00 69.26 LIG 0.16  C 
BRANCH 28 29
ATOM     29  C   LEU B   6       5.648  20.379  14.998  1.00 97.67 LIG 0.22  C 
ATOM     30 O    LEU B   6       4.753  20.059  15.779  1.00 61.20 LIG-0.29  OA
ENDBRANCH 28 29
BRANCH 28 31
ATOM     31  CB  LEU B   6       7.324  20.010  13.140  1.00 69.14 LIG 0.04  C 
BRANCH 31 32
ATOM     32  CG  LEU B   6       7.058  21.426  12.633  1.00 73.60 LIG-0.02  C 
ATOM     33  CD2 LEU B   6       7.101  21.485  11.125  1.00 75.76 LIG 0.01  C 
ATOM     34  CD1 LEU B   6       7.998  22.423  13.271  1.00 73.41 LIG 0.01  C 
ENDBRANCH 31 32
ENDBRANCH 28 31
ENDBRANCH 26 28
ENDBRANCH 19 24
ENDBRANCH 16 19
ENDBRANCH 5 15
ENDBRANCH 3 5
BRANCH 1 35
ATOM     35  CA  LEU B   3      -2.044  18.797  10.426  1.00 32.52 LIG 0.18  C 
BRANCH 35 36
ATOM     36  CB  LEU B   3      -2.209  18.740   8.894  1.00 32.14 LIG 0.04  C 
BRANCH 36 37
ATOM     37  CG  LEU B   3      -3.264  17.740   8.390  1.00 34.99 LIG-0.02  C 
ATOM     38  CD2 LEU B   3      -3.016  17.360   6.908  1.00 35.91 LIG 0.01  C 
ATOM     39  CD1 LEU B   3      -4.690  18.282   8.643  1.00 33.16 LIG 0.01  C 
ENDBRANCH 36 37
ENDBRANCH 35 36
BRANCH 35 40
ATOM     40  N   LEU B   3      -3.220  19.393  11.051  1.00 32.48 LIG-0.35  N 
ATOM     41  C   ASN B   2      -3.755  18.859  12.165  1.00 36.40 LIG 0.24  C 
ATOM     42 O    ASN B   2      -3.309  17.835  12.699  1.00 34.95 LIG-0.27  OA
ATOM     43 H    LEU B   3      -3.525  20.092  10.654  1.00 32.48 LIG 0.16  HD
BRANCH 41 44
ATOM     44  CA  ASN B   2      -5.021  19.515  12.724  1.00 32.65 LIG 0.18  C 
BRANCH 44 45
ATOM     45  N   ASN B   2      -5.627  20.249  11.619  1.00 32.45 LIG-0.34  N 
ATOM     46 H    ASN B   2      -6.075  19.738  11.092  1.00 32.45 LIG 0.16  HD
ATOM     47  C   THR B   1      -5.525  21.565  11.408  1.00 35.22 LIG 0.25  C 
ATOM     48 O    THR B   1      -5.000  22.364  12.210  1.00 34.61 LIG-0.27  OA
BRANCH 47 49
ATOM     49  CA  THR B   1      -6.129  22.019  10.102  1.00 32.53 LIG 0.30  C 
BRANCH 49 50
ATOM     50  CB  THR B   1      -5.321  23.188   9.516  1.00 31.51 LIG 0.15  C 
ATOM     51  CG2 THR B   1      -4.207  22.731   8.524  1.00 30.77 LIG 0.04  C 
BRANCH 50 52
ATOM     52 OG1  THR B   1      -6.219  24.093   8.874  1.00 21.64 LIG-0.39  OA
ATOM     53 HG1  THR B   1      -5.921  24.292   8.115  1.00 21.64 LIG 0.21  HD
ENDBRANCH 50 52
ENDBRANCH 49 50
BRANCH 49 54
ATOM     54  N   THR B   1      -7.542  22.352  10.250  1.00 34.33 LIG-0.06  N 
ATOM     55 H2   THR B   1      -8.011  21.607  10.383  1.00 34.33 LIG 0.28  HD
ATOM     56 H1   THR B   1      -7.831  22.757   9.511  1.00 34.33 LIG 0.28  HD
ATOM     57 H3   THR B   1      -7.649  22.896  10.946  1.00 34.33 LIG 0.28  HD
ENDBRANCH 49 54
ENDBRANCH 47 49
ENDBRANCH 44 45
BRANCH 44 58
ATOM     58  CB  ASN B   2      -6.001  18.485  13.317  1.00 33.77 LIG 0.14  C 
BRANCH 58 59
ATOM     59  CG  ASN B   2      -7.157  18.146  12.397  1.00 47.71 LIG 0.22  C 
ATOM     60 OD1  ASN B   2      -8.067  18.950  12.165  1.00 37.59 LIG-0.27  OA
ATOM     61  ND2 ASN B   2      -7.166  16.929  11.874  1.00 40.38 LIG-0.37  N 
ATOM     62 22HD ASN B   2      -6.525  16.382  12.046  1.00 40.38 LIG 0.16  HD
ATOM     63 21HD ASN B   2      -7.813  16.686  11.363  1.00 40.38 LIG 0.16  HD
ENDBRANCH 58 59
ENDBRANCH 44 58
ENDBRANCH 41 44
ENDBRANCH 35 40
ENDBRANCH 1 35
TORSDOF 26
ENDMDL
MODEL 15
USER: ADFR SOLUTION from run 107
USER: SCORE 19.212112 LL:  -5.419 LR: -16.618 RR:   0.000 FEB:  -8.862
USER: RMSD 5.163024
USER: SEED 106
USER: STATUS no improvement in best in 1 clusters for 5 generations
USER: GENES 28
USER: genes 0 Translation |==|  0.38791 0.40543 0.41956
USER: genes 1 Rotation |==|  0.44139 0.22377 0.08828 0.52726
USER: genes 2 Torsion [C]-N--CA-[CB] |==|  0.20386
USER: genes 3 Torsion [N]-CA--CB-[CG] |==|  0.12026
USER: genes 4 Torsion [CA]-CB--CG-[CD2] |==|  0.19732
USER: genes 5 Torsion [CE2]-CZ--OH-[HH] |==|  0.84310
USER: genes 6 Torsion [N]-CA--C-[N] |==|  0.00923
USER: genes 7 Torsion [C]-N--CA-[CB] |==|  0.43993
USER: genes 8 Torsion [N]-CA--CB-[CG] |==|  0.23571
USER: genes 9 Torsion [CA]-CB--CG-[SD] |==|  0.81633
USER: genes 10 Torsion [CB]-CG--SD-[CE] |==|  0.40226
USER: genes 11 Torsion [N]-CA--C-[N] |==|  0.50585
USER: genes 12 Torsion [C]-N--CA-[C] |==|  0.71128
USER: genes 13 Torsion [N]-CA--C-[O] |==|  0.82692
USER: genes 14 Torsion [N]-CA--CB-[CG] |==|  0.06286
USER: genes 15 Torsion [CA]-CB--CG-[CD1] |==|  0.80324
USER: genes 16 Torsion [N]-C--CA-[N] |==|  0.46330
USER: genes 17 Torsion [C]-CA--CB-[CG] |==|  0.38240
USER: genes 18 Torsion [CA]-CB--CG-[CD2] |==|  0.31418
USER: genes 19 Torsion [C]-CA--N-[C] |==|  0.19328
USER: genes 20 Torsion [N]-C--CA-[N] |==|  0.33333
USER: genes 21 Torsion [C]-CA--N-[C] |==|  0.78803
USER: genes 22 Torsion [N]-C--CA-[N] |==|  0.43186
USER: genes 23 Torsion [C]-CA--CB-[CG2] |==|  0.34656
USER: genes 24 Torsion [CA]-CB--OG1-[HG1] |==|  0.49951
USER: genes 25 Torsion [C]-CA--N-[H2] |==|  0.28389
USER: genes 26 Torsion [C]-CA--CB-[CG] |==|  0.19208
USER: genes 27 Torsion [CA]-CB--CG-[OD1] |==|  0.30691
ROOT
ATOM      1  C   LEU B   3      -1.066  18.854  11.438  1.00 37.56 LIG 0.24  C 
ATOM      2 O    LEU B   3      -1.995  19.677  11.325  1.00 36.01 LIG-0.27  OA
ATOM      3  N   TYR B   4      -0.043  18.972  12.334  1.00 34.90 LIG-0.35  N 
ATOM      4 H    TYR B   4       0.576  18.378  12.386  1.00 34.90 LIG 0.16  HD
ENDROOT
BRANCH 3 5
ATOM      5  CA  TYR B   4       0.156  20.061  13.293  1.00 36.24 LIG 0.18  C 
BRANCH 5 6
ATOM      6  CB  TYR B   4      -0.855  19.961  14.454  1.00 36.37 LIG 0.07  C 
BRANCH 6 7
ATOM      7  CG  TYR B   4      -0.982  18.534  14.920  1.00 36.28 LIG-0.06  A 
ATOM      8  CD2 TYR B   4       0.051  17.908  15.618  1.00 36.38 LIG 0.01  A 
ATOM      9  CE2 TYR B   4      -0.036  16.574  15.999  1.00 36.34 LIG 0.04  A 
ATOM     10  CZ  TYR B   4      -1.154  15.836  15.647  1.00 42.86 LIG 0.07  A 
ATOM     11  CE1 TYR B   4      -2.187  16.431  14.940  1.00 38.54 LIG 0.04  A 
ATOM     12  CD1 TYR B   4      -2.095  17.769  14.576  1.00 37.84 LIG 0.01  A 
BRANCH 10 13
ATOM     13 OH   TYR B   4      -1.250  14.517  15.998  1.00 44.02 LIG-0.36  OA
ATOM     14 HH   TYR B   4      -0.587  14.098  15.697  1.00 44.02 LIG 0.22  HD
ENDBRANCH 10 13
ENDBRANCH 6 7
ENDBRANCH 5 6
BRANCH 5 15
ATOM     15  C   TYR B   4       1.595  20.110  13.794  1.00 47.41 LIG 0.24  C 
ATOM     16  N   MET B   5       2.420  19.228  13.241  1.00 49.29 LIG-0.35  N 
ATOM     17 H    MET B   5       2.179  18.630  12.672  1.00 49.29 LIG 0.16  HD
ATOM     18 O    TYR B   4       1.957  20.929  14.642  1.00 47.26 LIG-0.27  OA
BRANCH 16 19
ATOM     19  CA  MET B   5       3.833  19.214  13.573  1.00 52.16 LIG 0.18  C 
BRANCH 19 20
ATOM     20  CB  MET B   5       4.457  17.853  13.265  1.00 55.77 LIG 0.04  C 
BRANCH 20 21
ATOM     21  CG  MET B   5       4.893  17.725  11.808  1.00 61.00 LIG 0.08  C 
BRANCH 21 22
ATOM     22 SD   MET B   5       3.507  17.746  10.658  1.00 67.05 LIG-0.17  SA
ATOM     23  CE  MET B   5       4.249  18.617   9.296  1.00 63.64 LIG 0.09  C 
ENDBRANCH 21 22
ENDBRANCH 20 21
ENDBRANCH 19 20
BRANCH 19 24
ATOM     24  C   MET B   5       4.461  20.358  12.805  1.00 55.98 LIG 0.24  C 
ATOM     25 O    MET B   5       3.736  21.153  12.206  1.00 56.32 LIG-0.27  OA
ATOM     26  N   LEU B   6       5.785  20.519  12.920  1.00 51.23 LIG-0.35  N 
ATOM     27 H    LEU B   6       6.294  19.983  13.359  1.00 51.23 LIG 0.16  HD
BRANCH 26 28
ATOM     28  CA  LEU B   6       6.491  21.639  12.300  1.00 69.26 LIG 0.16  C 
BRANCH 28 29
ATOM     29  C   LEU B   6       7.247  21.196  11.049  1.00 97.67 LIG 0.22  C 
ATOM     30 O    LEU B   6       8.153  20.367  11.119  1.00 61.20 LIG-0.29  OA
ENDBRANCH 28 29
BRANCH 28 31
ATOM     31  CB  LEU B   6       7.444  22.289  13.322  1.00 69.14 LIG 0.04  C 
BRANCH 31 32
ATOM     32  CG  LEU B   6       7.872  21.397  14.486  1.00 73.60 LIG-0.02  C 
ATOM     33  CD2 LEU B   6       8.487  20.110  13.991  1.00 75.76 LIG 0.01  C 
ATOM     34  CD1 LEU B   6       6.726  21.152  15.441  1.00 73.41 LIG 0.01  C 
ENDBRANCH 31 32
ENDBRANCH 28 31
ENDBRANCH 26 28
ENDBRANCH 19 24
ENDBRANCH 16 19
ENDBRANCH 5 15
ENDBRANCH 3 5
BRANCH 1 35
ATOM     35  CA  LEU B   3      -1.000  17.654  10.490  1.00 32.52 LIG 0.18  C 
BRANCH 35 36
ATOM     36  CB  LEU B   3       0.157  17.801   9.481  1.00 32.14 LIG 0.04  C 
BRANCH 36 37
ATOM     37  CG  LEU B   3       0.966  16.517   9.230  1.00 34.99 LIG-0.02  C 
ATOM     38  CD2 LEU B   3       0.769  16.002   7.782  1.00 35.91 LIG 0.01  C 
ATOM     39  CD1 LEU B   3       0.637  15.449  10.299  1.00 33.16 LIG 0.01  C 
ENDBRANCH 36 37
ENDBRANCH 35 36
BRANCH 35 40
ATOM     40  N   LEU B   3      -2.267  17.443   9.797  1.00 32.48 LIG-0.35  N 
ATOM     41  C   ASN B   2      -2.695  18.312   8.862  1.00 36.40 LIG 0.24  C 
ATOM     42 O    ASN B   2      -2.067  19.334   8.559  1.00 34.95 LIG-0.27  OA
ATOM     43 H    LEU B   3      -2.696  16.737  10.037  1.00 32.48 LIG 0.16  HD
BRANCH 41 44
ATOM     44  CA  ASN B   2      -4.061  18.044   8.224  1.00 32.65 LIG 0.18  C 
BRANCH 44 45
ATOM     45  N   ASN B   2      -4.888  19.210   8.516  1.00 32.45 LIG-0.34  N 
ATOM     46 H    ASN B   2      -4.978  19.728   7.836  1.00 32.45 LIG 0.16  HD
ATOM     47  C   THR B   1      -5.462  19.484   9.693  1.00 35.22 LIG 0.25  C 
ATOM     48 O    THR B   1      -5.471  18.703  10.665  1.00 34.61 LIG-0.27  OA
BRANCH 47 49
ATOM     49  CA  THR B   1      -6.130  20.836   9.742  1.00 32.53 LIG 0.30  C 
BRANCH 49 50
ATOM     50  CB  THR B   1      -5.086  21.942   9.961  1.00 31.51 LIG 0.15  C 
ATOM     51  CG2 THR B   1      -5.128  23.055   8.868  1.00 30.77 LIG 0.04  C 
BRANCH 50 52
ATOM     52 OG1  THR B   1      -5.279  22.508  11.257  1.00 21.64 LIG-0.39  OA
ATOM     53 HG1  THR B   1      -4.710  23.113  11.386  1.00 21.64 LIG 0.21  HD
ENDBRANCH 50 52
ENDBRANCH 49 50
BRANCH 49 54
ATOM     54  N   THR B   1      -7.188  20.877  10.747  1.00 34.33 LIG-0.06  N 
ATOM     55 H2   THR B   1      -6.893  21.302  11.472  1.00 34.33 LIG 0.28  HD
ATOM     56 H1   THR B   1      -7.422  20.046  10.966  1.00 34.33 LIG 0.28  HD
ATOM     57 H3   THR B   1      -7.894  21.306  10.419  1.00 34.33 LIG 0.28  HD
ENDBRANCH 49 54
ENDBRANCH 47 49
ENDBRANCH 44 45
BRANCH 44 58
ATOM     58  CB  ASN B   2      -3.961  17.796   6.707  1.00 33.77 LIG 0.14  C 
BRANCH 58 59
ATOM     59  CG  ASN B   2      -3.285  16.487   6.349  1.00 47.71 LIG 0.22  C 
ATOM     60 OD1  ASN B   2      -3.909  15.541   5.854  1.00 37.59 LIG-0.27  OA
ATOM     61  ND2 ASN B   2      -1.992  16.389   6.619  1.00 40.38 LIG-0.37  N 
ATOM     62 22HD ASN B   2      -1.573  17.056   6.963  1.00 40.38 LIG 0.16  HD
ATOM     63 21HD ASN B   2      -1.572  15.658   6.451  1.00 40.38 LIG 0.16  HD
ENDBRANCH 58 59
ENDBRANCH 44 58
ENDBRANCH 41 44
ENDBRANCH 35 40
ENDBRANCH 1 35
TORSDOF 26
ENDMDL
MODEL 16
USER: ADFR SOLUTION from run 4
USER: SCORE 20.316822 LL:  -5.892 LR: -16.614 RR:   0.000 FEB:  -8.858
USER: RMSD 5.426652
USER: SEED 239789
USER: STATUS 1 or 2 clusters left
USER: GENES 28
USER: genes 0 Translation |==|  0.42013 0.44407 0.40300
USER: genes 1 Rotation |==|  0.33793 0.68642 0.68432 0.89370
USER: genes 2 Torsion [C]-N--CA-[CB] |==|  0.56932
USER: genes 3 Torsion [N]-CA--CB-[CG] |==|  0.05698
USER: genes 4 Torsion [CA]-CB--CG-[CD2] |==|  0.23033
USER: genes 5 Torsion [CE2]-CZ--OH-[HH] |==|  0.91169
USER: genes 6 Torsion [N]-CA--C-[N] |==|  0.79256
USER: genes 7 Torsion [C]-N--CA-[CB] |==|  0.45556
USER: genes 8 Torsion [N]-CA--CB-[CG] |==|  0.29628
USER: genes 9 Torsion [CA]-CB--CG-[SD] |==|  0.76515
USER: genes 10 Torsion [CB]-CG--SD-[CE] |==|  0.72891
USER: genes 11 Torsion [N]-CA--C-[N] |==|  0.38043
USER: genes 12 Torsion [C]-N--CA-[C] |==|  0.88205
USER: genes 13 Torsion [N]-CA--C-[O] |==|  0.74817
USER: genes 14 Torsion [N]-CA--CB-[CG] |==|  0.12706
USER: genes 15 Torsion [CA]-CB--CG-[CD1] |==|  0.35487
USER: genes 16 Torsion [N]-C--CA-[N] |==|  0.08923
USER: genes 17 Torsion [C]-CA--CB-[CG] |==|  0.23864
USER: genes 18 Torsion [CA]-CB--CG-[CD2] |==|  0.61163
USER: genes 19 Torsion [C]-CA--N-[C] |==|  0.16104
USER: genes 20 Torsion [N]-C--CA-[N] |==|  0.39358
USER: genes 21 Torsion [C]-CA--N-[C] |==|  0.67575
USER: genes 22 Torsion [N]-C--CA-[N] |==|  0.45358
USER: genes 23 Torsion [C]-CA--CB-[CG2] |==|  0.22568
USER: genes 24 Torsion [CA]-CB--OG1-[HG1] |==|  0.41548
USER: genes 25 Torsion [C]-CA--N-[H2] |==|  0.61930
USER: genes 26 Torsion [C]-CA--CB-[CG] |==|  0.92353
USER: genes 27 Torsion [CA]-CB--CG-[OD1] |==|  0.36040
ROOT
ATOM      1  C   LEU B   3      -0.389  19.520  11.041  1.00 37.56 LIG 0.24  C 
ATOM      2 O    LEU B   3       0.734  19.971  10.747  1.00 36.01 LIG-0.27  OA
ATOM      3  N   TYR B   4      -1.340  20.219  11.726  1.00 34.90 LIG-0.35  N 
ATOM      4 H    TYR B   4      -2.107  19.876  11.904  1.00 34.90 LIG 0.16  HD
ENDROOT
BRANCH 3 5
ATOM      5  CA  TYR B   4      -1.217  21.586  12.240  1.00 36.24 LIG 0.18  C 
BRANCH 5 6
ATOM      6  CB  TYR B   4      -2.167  21.810  13.435  1.00 36.37 LIG 0.07  C 
BRANCH 6 7
ATOM      7  CG  TYR B   4      -2.565  20.492  14.047  1.00 36.28 LIG-0.06  A 
ATOM      8  CD2 TYR B   4      -1.742  19.847  14.970  1.00 36.38 LIG 0.01  A 
ATOM      9  CE2 TYR B   4      -2.074  18.603  15.493  1.00 36.34 LIG 0.04  A 
ATOM     10  CZ  TYR B   4      -3.228  17.969  15.062  1.00 42.86 LIG 0.07  A 
ATOM     11  CE1 TYR B   4      -4.054  18.582  14.133  1.00 38.54 LIG 0.04  A 
ATOM     12  CD1 TYR B   4      -3.718  19.831  13.627  1.00 37.84 LIG 0.01  A 
BRANCH 10 13
ATOM     13 OH   TYR B   4      -3.564  16.737  15.552  1.00 44.02 LIG-0.36  OA
ATOM     14 HH   TYR B   4      -2.864  16.305  15.728  1.00 44.02 LIG 0.22  HD
ENDBRANCH 10 13
ENDBRANCH 6 7
ENDBRANCH 5 6
BRANCH 5 15
ATOM     15  C   TYR B   4       0.228  21.924  12.591  1.00 47.41 LIG 0.24  C 
ATOM     16  N   MET B   5       0.687  21.371  13.709  1.00 49.29 LIG-0.35  N 
ATOM     17 H    MET B   5       0.213  20.888  14.240  1.00 49.29 LIG 0.16  HD
ATOM     18 O    TYR B   4       0.917  22.649  11.869  1.00 47.26 LIG-0.27  OA
BRANCH 16 19
ATOM     19  CA  MET B   5       2.066  21.550  14.122  1.00 52.16 LIG 0.18  C 
BRANCH 19 20
ATOM     20  CB  MET B   5       2.254  21.171  15.590  1.00 55.77 LIG 0.04  C 
BRANCH 20 21
ATOM     21  CG  MET B   5       2.993  19.846  15.763  1.00 61.00 LIG 0.08  C 
BRANCH 21 22
ATOM     22 SD   MET B   5       1.900  18.418  15.662  1.00 67.05 LIG-0.17  SA
ATOM     23  CE  MET B   5       1.633  18.110  17.394  1.00 63.64 LIG 0.09  C 
ENDBRANCH 21 22
ENDBRANCH 20 21
ENDBRANCH 19 20
BRANCH 19 24
ATOM     24  C   MET B   5       2.905  20.723  13.169  1.00 55.98 LIG 0.24  C 
ATOM     25 O    MET B   5       2.476  19.639  12.772  1.00 56.32 LIG-0.27  OA
ATOM     26  N   LEU B   6       4.031  21.279  12.705  1.00 51.23 LIG-0.35  N 
ATOM     27 H    LEU B   6       4.322  22.047  12.958  1.00 51.23 LIG 0.16  HD
BRANCH 26 28
ATOM     28  CA  LEU B   6       4.875  20.617  11.712  1.00 69.26 LIG 0.16  C 
BRANCH 28 29
ATOM     29  C   LEU B   6       5.033  19.129  12.020  1.00 97.67 LIG 0.22  C 
ATOM     30 O    LEU B   6       5.958  18.724  12.722  1.00 61.20 LIG-0.29  OA
ENDBRANCH 28 29
BRANCH 28 31
ATOM     31  CB  LEU B   6       6.247  21.316  11.639  1.00 69.14 LIG 0.04  C 
BRANCH 31 32
ATOM     32  CG  LEU B   6       6.900  21.630  12.984  1.00 73.60 LIG-0.02  C 
ATOM     33  CD2 LEU B   6       6.830  23.106  13.294  1.00 75.76 LIG 0.01  C 
ATOM     34  CD1 LEU B   6       8.314  21.099  13.045  1.00 73.41 LIG 0.01  C 
ENDBRANCH 31 32
ENDBRANCH 28 31
ENDBRANCH 26 28
ENDBRANCH 19 24
ENDBRANCH 16 19
ENDBRANCH 5 15
ENDBRANCH 3 5
BRANCH 1 35
ATOM     35  CA  LEU B   3      -0.740  18.075  10.682  1.00 32.52 LIG 0.18  C 
BRANCH 35 36
ATOM     36  CB  LEU B   3       0.078  17.585   9.470  1.00 32.14 LIG 0.04  C 
BRANCH 36 37
ATOM     37  CG  LEU B   3       1.465  17.012   9.811  1.00 34.99 LIG-0.02  C 
ATOM     38  CD2 LEU B   3       2.527  17.457   8.773  1.00 35.91 LIG 0.01  C 
ATOM     39  CD1 LEU B   3       1.392  15.476   9.979  1.00 33.16 LIG 0.01  C 
ENDBRANCH 36 37
ENDBRANCH 35 36
BRANCH 35 40
ATOM     40  N   LEU B   3      -2.170  17.909  10.442  1.00 32.48 LIG-0.35  N 
ATOM     41  C   ASN B   2      -2.798  18.629   9.494  1.00 36.40 LIG 0.24  C 
ATOM     42 O    ASN B   2      -2.221  19.477   8.803  1.00 34.95 LIG-0.27  OA
ATOM     43 H    LEU B   3      -2.556  17.329  10.946  1.00 32.48 LIG 0.16  HD
BRANCH 41 44
ATOM     44  CA  ASN B   2      -4.310  18.433   9.346  1.00 32.65 LIG 0.18  C 
BRANCH 44 45
ATOM     45  N   ASN B   2      -4.871  19.750   9.065  1.00 32.45 LIG-0.34  N 
ATOM     46 H    ASN B   2      -4.587  20.076   8.322  1.00 32.45 LIG 0.16  HD
ATOM     47  C   THR B   1      -5.732  20.414   9.844  1.00 35.22 LIG 0.25  C 
ATOM     48 O    THR B   1      -6.272  19.932  10.859  1.00 34.61 LIG-0.27  OA
BRANCH 47 49
ATOM     49  CA  THR B   1      -6.019  21.818   9.372  1.00 32.53 LIG 0.30  C 
BRANCH 49 50
ATOM     50  CB  THR B   1      -4.797  22.721   9.603  1.00 31.51 LIG 0.15  C 
ATOM     51  CG2 THR B   1      -3.708  22.581   8.494  1.00 30.77 LIG 0.04  C 
BRANCH 50 52
ATOM     52 OG1  THR B   1      -5.237  24.076   9.702  1.00 21.64 LIG-0.39  OA
ATOM     53 HG1  THR B   1      -4.721  24.501  10.210  1.00 21.64 LIG 0.21  HD
ENDBRANCH 50 52
ENDBRANCH 49 50
BRANCH 49 54
ATOM     54  N   THR B   1      -7.223  22.359   9.994  1.00 34.33 LIG-0.06  N 
ATOM     55 H2   THR B   1      -7.708  22.785   9.381  1.00 34.33 LIG 0.28  HD
ATOM     56 H1   THR B   1      -6.994  22.928  10.639  1.00 34.33 LIG 0.28  HD
ATOM     57 H3   THR B   1      -7.703  21.695  10.342  1.00 34.33 LIG 0.28  HD
ENDBRANCH 49 54
ENDBRANCH 47 49
ENDBRANCH 44 45
BRANCH 44 58
ATOM     58  CB  ASN B   2      -4.664  17.425   8.238  1.00 33.77 LIG 0.14  C 
BRANCH 58 59
ATOM     59  CG  ASN B   2      -3.627  17.343   7.135  1.00 47.71 LIG 0.22  C 
ATOM     60 OD1  ASN B   2      -3.163  16.263   6.751  1.00 37.59 LIG-0.27  OA
ATOM     61  ND2 ASN B   2      -3.212  18.490   6.619  1.00 40.38 LIG-0.37  N 
ATOM     62 22HD ASN B   2      -3.545  19.232   6.897  1.00 40.38 LIG 0.16  HD
ATOM     63 21HD ASN B   2      -2.610  18.492   6.005  1.00 40.38 LIG 0.16  HD
ENDBRANCH 58 59
ENDBRANCH 44 58
ENDBRANCH 41 44
ENDBRANCH 35 40
ENDBRANCH 1 35
TORSDOF 26
ENDMDL
MODEL 17
USER: ADFR SOLUTION from run 129
USER: SCORE 20.716642 LL:  -5.777 LR: -16.534 RR:   0.000 FEB:  -8.778
USER: RMSD 6.683569
USER: SEED 128
USER: STATUS no improvement in best in 2 clusters for 5 generations
USER: GENES 28
USER: genes 0 Translation |==|  0.41467 0.33645 0.40947
USER: genes 1 Rotation |==|  0.61723 0.66479 0.22484 0.86523
USER: genes 2 Torsion [C]-N--CA-[CB] |==|  0.15998
USER: genes 3 Torsion [N]-CA--CB-[CG] |==|  0.12207
USER: genes 4 Torsion [CA]-CB--CG-[CD2] |==|  0.19619
USER: genes 5 Torsion [CE2]-CZ--OH-[HH] |==|  0.93918
USER: genes 6 Torsion [N]-CA--C-[N] |==|  0.09152
USER: genes 7 Torsion [C]-N--CA-[CB] |==|  0.78689
USER: genes 8 Torsion [N]-CA--CB-[CG] |==|  0.97690
USER: genes 9 Torsion [CA]-CB--CG-[SD] |==|  0.81594
USER: genes 10 Torsion [CB]-CG--SD-[CE] |==|  0.39529
USER: genes 11 Torsion [N]-CA--C-[N] |==|  0.11825
USER: genes 12 Torsion [C]-N--CA-[C] |==|  0.15681
USER: genes 13 Torsion [N]-CA--C-[O] |==|  0.36730
USER: genes 14 Torsion [N]-CA--CB-[CG] |==|  0.62045
USER: genes 15 Torsion [CA]-CB--CG-[CD1] |==|  0.58643
USER: genes 16 Torsion [N]-C--CA-[N] |==|  0.60000
USER: genes 17 Torsion [C]-CA--CB-[CG] |==|  0.84655
USER: genes 18 Torsion [CA]-CB--CG-[CD2] |==|  0.77719
USER: genes 19 Torsion [C]-CA--N-[C] |==|  0.58350
USER: genes 20 Torsion [N]-C--CA-[N] |==|  0.34659
USER: genes 21 Torsion [C]-CA--N-[C] |==|  0.77698
USER: genes 22 Torsion [N]-C--CA-[N] |==|  0.37771
USER: genes 23 Torsion [C]-CA--CB-[CG2] |==|  0.14225
USER: genes 24 Torsion [CA]-CB--OG1-[HG1] |==|  0.65780
USER: genes 25 Torsion [C]-CA--N-[H2] |==|  0.95980
USER: genes 26 Torsion [C]-CA--CB-[CG] |==|  0.05653
USER: genes 27 Torsion [CA]-CB--CG-[OD1] |==|  0.13967
ROOT
ATOM      1  C   LEU B   3      -0.504  17.664  11.196  1.00 37.56 LIG 0.24  C 
ATOM      2 O    LEU B   3      -0.806  16.482  10.942  1.00 36.01 LIG-0.27  OA
ATOM      3  N   TYR B   4       0.430  18.033  12.119  1.00 34.90 LIG-0.35  N 
ATOM      4 H    TYR B   4       0.617  18.860  12.261  1.00 34.90 LIG 0.16  HD
ENDROOT
BRANCH 3 5
ATOM      5  CA  TYR B   4       1.221  17.138  12.968  1.00 36.24 LIG 0.18  C 
BRANCH 5 6
ATOM      6  CB  TYR B   4       2.031  16.144  12.110  1.00 36.37 LIG 0.07  C 
BRANCH 6 7
ATOM      7  CG  TYR B   4       2.672  16.853  10.945  1.00 36.28 LIG-0.06  A 
ATOM      8  CD2 TYR B   4       3.732  17.739  11.133  1.00 36.38 LIG 0.01  A 
ATOM      9  CE2 TYR B   4       4.288  18.441  10.070  1.00 36.34 LIG 0.04  A 
ATOM     10  CZ  TYR B   4       3.755  18.289   8.801  1.00 42.86 LIG 0.07  A 
ATOM     11  CE1 TYR B   4       2.691  17.427   8.590  1.00 38.54 LIG 0.04  A 
ATOM     12  CD1 TYR B   4       2.152  16.720   9.658  1.00 37.84 LIG 0.01  A 
BRANCH 10 13
ATOM     13 OH   TYR B   4       4.277  18.985   7.744  1.00 44.02 LIG-0.36  OA
ATOM     14 HH   TYR B   4       4.687  19.661   8.029  1.00 44.02 LIG 0.22  HD
ENDBRANCH 10 13
ENDBRANCH 6 7
ENDBRANCH 5 6
BRANCH 5 15
ATOM     15  C   TYR B   4       2.112  17.918  13.928  1.00 47.41 LIG 0.24  C 
ATOM     16  N   MET B   5       1.614  19.074  14.354  1.00 49.29 LIG-0.35  N 
ATOM     17 H    MET B   5       0.866  19.406  14.090  1.00 49.29 LIG 0.16  HD
ATOM     18 O    TYR B   4       3.209  17.486  14.289  1.00 47.26 LIG-0.27  OA
BRANCH 16 19
ATOM     19  CA  MET B   5       2.325  19.882  15.328  1.00 52.16 LIG 0.18  C 
BRANCH 19 20
ATOM     20  CB  MET B   5       2.177  19.303  16.735  1.00 55.77 LIG 0.04  C 
BRANCH 20 21
ATOM     21  CG  MET B   5       1.169  18.158  16.794  1.00 61.00 LIG 0.08  C 
BRANCH 21 22
ATOM     22 SD   MET B   5      -0.518  18.693  16.458  1.00 67.05 LIG-0.17  SA
ATOM     23  CE  MET B   5      -1.104  17.297  15.524  1.00 63.64 LIG 0.09  C 
ENDBRANCH 21 22
ENDBRANCH 20 21
ENDBRANCH 19 20
BRANCH 19 24
ATOM     24  C   MET B   5       3.760  19.959  14.850  1.00 55.98 LIG 0.24  C 
ATOM     25 O    MET B   5       4.673  19.725  15.643  1.00 56.32 LIG-0.27  OA
ATOM     26  N   LEU B   6       3.960  20.157  13.542  1.00 51.23 LIG-0.35  N 
ATOM     27 H    LEU B   6       3.325  20.294  12.979  1.00 51.23 LIG 0.16  HD
BRANCH 26 28
ATOM     28  CA  LEU B   6       5.297  20.159  12.949  1.00 69.26 LIG 0.16  C 
BRANCH 28 29
ATOM     29  C   LEU B   6       6.035  18.854  13.242  1.00 97.67 LIG 0.22  C 
ATOM     30 O    LEU B   6       6.612  18.241  12.345  1.00 61.20 LIG-0.29  OA
ENDBRANCH 28 29
BRANCH 28 31
ATOM     31  CB  LEU B   6       6.096  21.374  13.459  1.00 69.14 LIG 0.04  C 
BRANCH 31 32
ATOM     32  CG  LEU B   6       6.902  22.125  12.401  1.00 73.60 LIG-0.02  C 
ATOM     33  CD2 LEU B   6       7.204  21.241  11.214  1.00 75.76 LIG 0.01  C 
ATOM     34  CD1 LEU B   6       8.153  22.734  12.992  1.00 73.41 LIG 0.01  C 
ENDBRANCH 31 32
ENDBRANCH 28 31
ENDBRANCH 26 28
ENDBRANCH 19 24
ENDBRANCH 16 19
ENDBRANCH 5 15
ENDBRANCH 3 5
BRANCH 1 35
ATOM     35  CA  LEU B   3      -1.248  18.801  10.494  1.00 32.52 LIG 0.18  C 
BRANCH 35 36
ATOM     36  CB  LEU B   3      -1.149  20.115  11.296  1.00 32.14 LIG 0.04  C 
BRANCH 36 37
ATOM     37  CG  LEU B   3      -1.628  20.024  12.755  1.00 34.99 LIG-0.02  C 
ATOM     38  CD2 LEU B   3      -3.173  20.103  12.845  1.00 35.91 LIG 0.01  C 
ATOM     39  CD1 LEU B   3      -0.918  21.085  13.628  1.00 33.16 LIG 0.01  C 
ENDBRANCH 36 37
ENDBRANCH 35 36
BRANCH 35 40
ATOM     40  N   LEU B   3      -2.643  18.457  10.236  1.00 32.48 LIG-0.35  N 
ATOM     41  C   ASN B   2      -3.295  18.969   9.176  1.00 36.40 LIG 0.24  C 
ATOM     42 O    ASN B   2      -2.773  19.768   8.389  1.00 34.95 LIG-0.27  OA
ATOM     43 H    LEU B   3      -2.992  17.915  10.806  1.00 32.48 LIG 0.16  HD
BRANCH 41 44
ATOM     44  CA  ASN B   2      -4.772  18.599   9.011  1.00 32.65 LIG 0.18  C 
BRANCH 44 45
ATOM     45  N   ASN B   2      -5.506  19.857   8.930  1.00 32.45 LIG-0.34  N 
ATOM     46 H    ASN B   2      -5.699  20.073   8.121  1.00 32.45 LIG 0.16  HD
ATOM     47  C   THR B   1      -5.860  20.622   9.968  1.00 35.22 LIG 0.25  C 
ATOM     48 O    THR B   1      -5.721  20.290  11.162  1.00 34.61 LIG-0.27  OA
BRANCH 47 49
ATOM     49  CA  THR B   1      -6.475  21.941   9.569  1.00 32.53 LIG 0.30  C 
BRANCH 49 50
ATOM     50  CB  THR B   1      -5.427  23.063   9.636  1.00 31.51 LIG 0.15  C 
ATOM     51  CG2 THR B   1      -4.112  22.726   8.867  1.00 30.77 LIG 0.04  C 
BRANCH 50 52
ATOM     52 OG1  THR B   1      -6.006  24.266   9.130  1.00 21.64 LIG-0.39  OA
ATOM     53 HG1  THR B   1      -5.540  24.554   8.493  1.00 21.64 LIG 0.21  HD
ENDBRANCH 50 52
ENDBRANCH 49 50
BRANCH 49 54
ATOM     54  N   THR B   1      -7.657  22.248  10.369  1.00 34.33 LIG-0.06  N 
ATOM     55 H2   THR B   1      -7.922  21.515  10.800  1.00 34.33 LIG 0.28  HD
ATOM     56 H1   THR B   1      -8.311  22.532   9.836  1.00 34.33 LIG 0.28  HD
ATOM     57 H3   THR B   1      -7.459  22.883  10.960  1.00 34.33 LIG 0.28  HD
ENDBRANCH 49 54
ENDBRANCH 47 49
ENDBRANCH 44 45
BRANCH 44 58
ATOM     58  CB  ASN B   2      -5.022  17.724   7.769  1.00 33.77 LIG 0.14  C 
BRANCH 58 59
ATOM     59  CG  ASN B   2      -3.781  17.017   7.263  1.00 47.71 LIG 0.22  C 
ATOM     60 OD1  ASN B   2      -3.049  16.360   8.013  1.00 37.59 LIG-0.27  OA
ATOM     61  ND2 ASN B   2      -3.493  17.160   5.978  1.00 40.38 LIG-0.37  N 
ATOM     62 22HD ASN B   2      -4.013  17.620   5.470  1.00 40.38 LIG 0.16  HD
ATOM     63 21HD ASN B   2      -2.788  16.793   5.652  1.00 40.38 LIG 0.16  HD
ENDBRANCH 58 59
ENDBRANCH 44 58
ENDBRANCH 41 44
ENDBRANCH 35 40
ENDBRANCH 1 35
TORSDOF 26
ENDMDL
MODEL 18
USER: ADFR SOLUTION from run 106
USER: SCORE 22.240019 LL:  -7.208 LR: -16.509 RR:   0.000 FEB:  -8.754
USER: RMSD 6.758462
USER: SEED 105
USER: STATUS 1 or 2 clusters left
USER: GENES 28
USER: genes 0 Translation |==|  0.42563 0.33983 0.42833
USER: genes 1 Rotation |==|  0.01347 0.40648 0.43318 0.50877
USER: genes 2 Torsion [C]-N--CA-[CB] |==|  0.86369
USER: genes 3 Torsion [N]-CA--CB-[CG] |==|  0.77267
USER: genes 4 Torsion [CA]-CB--CG-[CD2] |==|  0.27845
USER: genes 5 Torsion [CE2]-CZ--OH-[HH] |==|  0.44395
USER: genes 6 Torsion [N]-CA--C-[N] |==|  0.86306
USER: genes 7 Torsion [C]-N--CA-[CB] |==|  0.21422
USER: genes 8 Torsion [N]-CA--CB-[CG] |==|  0.11871
USER: genes 9 Torsion [CA]-CB--CG-[SD] |==|  0.20129
USER: genes 10 Torsion [CB]-CG--SD-[CE] |==|  0.69027
USER: genes 11 Torsion [N]-CA--C-[N] |==|  0.02419
USER: genes 12 Torsion [C]-N--CA-[C] |==|  0.65052
USER: genes 13 Torsion [N]-CA--C-[O] |==|  0.05087
USER: genes 14 Torsion [N]-CA--CB-[CG] |==|  0.25135
USER: genes 15 Torsion [CA]-CB--CG-[CD1] |==|  0.27635
USER: genes 16 Torsion [N]-C--CA-[N] |==|  0.83446
USER: genes 17 Torsion [C]-CA--CB-[CG] |==|  0.44208
USER: genes 18 Torsion [CA]-CB--CG-[CD2] |==|  0.25575
USER: genes 19 Torsion [C]-CA--N-[C] |==|  0.82325
USER: genes 20 Torsion [N]-C--CA-[N] |==|  0.49927
USER: genes 21 Torsion [C]-CA--N-[C] |==|  0.52783
USER: genes 22 Torsion [N]-C--CA-[N] |==|  0.58852
USER: genes 23 Torsion [C]-CA--CB-[CG2] |==|  0.30760
USER: genes 24 Torsion [CA]-CB--OG1-[HG1] |==|  0.48721
USER: genes 25 Torsion [C]-CA--N-[H2] |==|  0.92269
USER: genes 26 Torsion [C]-CA--CB-[CG] |==|  0.30690
USER: genes 27 Torsion [CA]-CB--CG-[OD1] |==|  0.78032
ROOT
ATOM      1  C   LEU B   3      -0.274  17.722  11.649  1.00 37.56 LIG 0.24  C 
ATOM      2 O    LEU B   3       0.455  18.673  11.306  1.00 36.01 LIG-0.27  OA
ATOM      3  N   TYR B   4      -0.444  16.585  10.914  1.00 34.90 LIG-0.35  N 
ATOM      4 H    TYR B   4      -0.951  15.947  11.188  1.00 34.90 LIG 0.16  HD
ENDROOT
BRANCH 3 5
ATOM      5  CA  TYR B   4       0.168  16.283   9.618  1.00 36.24 LIG 0.18  C 
BRANCH 5 6
ATOM      6  CB  TYR B   4      -0.012  17.462   8.639  1.00 36.37 LIG 0.07  C 
BRANCH 6 7
ATOM      7  CG  TYR B   4      -1.377  17.416   8.004  1.00 36.28 LIG-0.06  A 
ATOM      8  CD2 TYR B   4      -2.414  18.229   8.462  1.00 36.38 LIG 0.01  A 
ATOM      9  CE2 TYR B   4      -3.691  18.149   7.920  1.00 36.34 LIG 0.04  A 
ATOM     10  CZ  TYR B   4      -3.954  17.216   6.930  1.00 42.86 LIG 0.07  A 
ATOM     11  CE1 TYR B   4      -2.945  16.386   6.469  1.00 38.54 LIG 0.04  A 
ATOM     12  CD1 TYR B   4      -1.669  16.484   7.009  1.00 37.84 LIG 0.01  A 
BRANCH 10 13
ATOM     13 OH   TYR B   4      -5.210  17.110   6.396  1.00 44.02 LIG-0.36  OA
ATOM     14 HH   TYR B   4      -5.166  16.726   5.650  1.00 44.02 LIG 0.22  HD
ENDBRANCH 10 13
ENDBRANCH 6 7
ENDBRANCH 5 6
BRANCH 5 15
ATOM     15  C   TYR B   4       1.633  15.889   9.770  1.00 47.41 LIG 0.24  C 
ATOM     16  N   MET B   5       2.369  16.708  10.514  1.00 49.29 LIG-0.35  N 
ATOM     17 H    MET B   5       2.079  17.438  10.861  1.00 49.29 LIG 0.16  HD
ATOM     18 O    TYR B   4       2.086  14.868   9.247  1.00 47.26 LIG-0.27  OA
BRANCH 16 19
ATOM     19  CA  MET B   5       3.761  16.412  10.801  1.00 52.16 LIG 0.18  C 
BRANCH 19 20
ATOM     20  CB  MET B   5       4.649  16.726   9.598  1.00 55.77 LIG 0.04  C 
BRANCH 20 21
ATOM     21  CG  MET B   5       4.280  18.046   8.927  1.00 61.00 LIG 0.08  C 
BRANCH 21 22
ATOM     22 SD   MET B   5       4.758  19.484   9.900  1.00 67.05 LIG-0.17  SA
ATOM     23  CE  MET B   5       3.152  20.092  10.362  1.00 63.64 LIG 0.09  C 
ENDBRANCH 21 22
ENDBRANCH 20 21
ENDBRANCH 19 20
BRANCH 19 24
ATOM     24  C   MET B   5       4.117  17.204  12.042  1.00 55.98 LIG 0.24  C 
ATOM     25 O    MET B   5       5.302  17.353  12.343  1.00 56.32 LIG-0.27  OA
ATOM     26  N   LEU B   6       3.116  17.816  12.686  1.00 51.23 LIG-0.35  N 
ATOM     27 H    LEU B   6       2.289  17.738  12.464  1.00 51.23 LIG 0.16  HD
BRANCH 26 28
ATOM     28  CA  LEU B   6       3.346  18.682  13.841  1.00 69.26 LIG 0.16  C 
BRANCH 28 29
ATOM     29  C   LEU B   6       2.511  18.241  15.041  1.00 97.67 LIG 0.22  C 
ATOM     30 O    LEU B   6       2.030  17.110  15.095  1.00 61.20 LIG-0.29  OA
ENDBRANCH 28 29
BRANCH 28 31
ATOM     31  CB  LEU B   6       3.046  20.147  13.466  1.00 69.14 LIG 0.04  C 
BRANCH 31 32
ATOM     32  CG  LEU B   6       1.609  20.608  13.705  1.00 73.60 LIG-0.02  C 
ATOM     33  CD2 LEU B   6       1.080  21.384  12.522  1.00 75.76 LIG 0.01  C 
ATOM     34  CD1 LEU B   6       1.489  21.384  14.997  1.00 73.41 LIG 0.01  C 
ENDBRANCH 31 32
ENDBRANCH 28 31
ENDBRANCH 26 28
ENDBRANCH 19 24
ENDBRANCH 16 19
ENDBRANCH 5 15
ENDBRANCH 3 5
BRANCH 1 35
ATOM     35  CA  LEU B   3      -1.092  17.824  12.938  1.00 32.52 LIG 0.18  C 
BRANCH 35 36
ATOM     36  CB  LEU B   3      -0.672  16.743  13.955  1.00 32.14 LIG 0.04  C 
BRANCH 36 37
ATOM     37  CG  LEU B   3      -1.042  17.047  15.416  1.00 34.99 LIG-0.02  C 
ATOM     38  CD2 LEU B   3      -2.424  16.447  15.782  1.00 35.91 LIG 0.01  C 
ATOM     39  CD1 LEU B   3      -0.951  18.565  15.697  1.00 33.16 LIG 0.01  C 
ENDBRANCH 36 37
ENDBRANCH 35 36
BRANCH 35 40
ATOM     40  N   LEU B   3      -2.525  17.758  12.675  1.00 32.48 LIG-0.35  N 
ATOM     41  C   ASN B   2      -3.138  18.711  11.948  1.00 36.40 LIG 0.24  C 
ATOM     42 O    ASN B   2      -2.541  19.694  11.493  1.00 34.95 LIG-0.27  OA
ATOM     43 H    LEU B   3      -2.924  17.077  13.017  1.00 32.48 LIG 0.16  HD
BRANCH 41 44
ATOM     44  CA  ASN B   2      -4.655  18.594  11.767  1.00 32.65 LIG 0.18  C 
BRANCH 44 45
ATOM     45  N   ASN B   2      -5.063  19.737  10.958  1.00 32.45 LIG-0.34  N 
ATOM     46 H    ASN B   2      -4.392  20.163  10.630  1.00 32.45 LIG 0.16  HD
ATOM     47  C   THR B   1      -6.324  20.118  10.726  1.00 35.22 LIG 0.25  C 
ATOM     48 O    THR B   1      -7.327  19.461  11.067  1.00 34.61 LIG-0.27  OA
BRANCH 47 49
ATOM     49  CA  THR B   1      -6.435  21.425   9.981  1.00 32.53 LIG 0.30  C 
BRANCH 49 50
ATOM     50  CB  THR B   1      -5.157  22.259  10.168  1.00 31.51 LIG 0.15  C 
ATOM     51  CG2 THR B   1      -4.307  22.386   8.866  1.00 30.77 LIG 0.04  C 
BRANCH 50 52
ATOM     52 OG1  THR B   1      -5.518  23.552  10.656  1.00 21.64 LIG-0.39  OA
ATOM     53 HG1  THR B   1      -4.822  23.992  10.821  1.00 21.64 LIG 0.21  HD
ENDBRANCH 50 52
ENDBRANCH 49 50
BRANCH 49 54
ATOM     54  N   THR B   1      -7.632  22.166  10.369  1.00 34.33 LIG-0.06  N 
ATOM     55 H2   THR B   1      -8.260  21.595  10.637  1.00 34.33 LIG 0.28  HD
ATOM     56 H1   THR B   1      -7.932  22.632   9.672  1.00 34.33 LIG 0.28  HD
ATOM     57 H3   THR B   1      -7.435  22.722  11.035  1.00 34.33 LIG 0.28  HD
ENDBRANCH 49 54
ENDBRANCH 47 49
ENDBRANCH 44 45
BRANCH 44 58
ATOM     58  CB  ASN B   2      -5.065  17.266  11.106  1.00 33.77 LIG 0.14  C 
BRANCH 58 59
ATOM     59  CG  ASN B   2      -5.791  16.319  12.041  1.00 47.71 LIG 0.22  C 
ATOM     60 OD1  ASN B   2      -5.189  15.627  12.870  1.00 37.59 LIG-0.27  OA
ATOM     61  ND2 ASN B   2      -7.107  16.242  11.909  1.00 40.38 LIG-0.37  N 
ATOM     62 22HD ASN B   2      -7.510  16.731  11.329  1.00 40.38 LIG 0.16  HD
ATOM     63 21HD ASN B   2      -7.558  15.704  12.406  1.00 40.38 LIG 0.16  HD
ENDBRANCH 58 59
ENDBRANCH 44 58
ENDBRANCH 41 44
ENDBRANCH 35 40
ENDBRANCH 1 35
TORSDOF 26
ENDMDL
MODEL 19
USER: ADFR SOLUTION from run 118
USER: SCORE 20.103379 LL:  -5.314 LR: -16.485 RR:   0.000 FEB:  -8.729
USER: RMSD 3.451431
USER: SEED 117
USER: STATUS no improvement in best in 3 clusters for 5 generations
USER: GENES 28
USER: genes 0 Translation |==|  0.55939 0.37134 0.47535
USER: genes 1 Rotation |==|  0.32834 0.54020 0.31318 0.92897
USER: genes 2 Torsion [C]-N--CA-[CB] |==|  0.76968
USER: genes 3 Torsion [N]-CA--CB-[CG] |==|  0.16434
USER: genes 4 Torsion [CA]-CB--CG-[CD2] |==|  0.75515
USER: genes 5 Torsion [CE2]-CZ--OH-[HH] |==|  0.36189
USER: genes 6 Torsion [N]-CA--C-[N] |==|  0.50897
USER: genes 7 Torsion [C]-N--CA-[CB] |==|  0.24963
USER: genes 8 Torsion [N]-CA--CB-[CG] |==|  0.90744
USER: genes 9 Torsion [CA]-CB--CG-[SD] |==|  0.24931
USER: genes 10 Torsion [CB]-CG--SD-[CE] |==|  0.03991
USER: genes 11 Torsion [N]-CA--C-[N] |==|  0.47882
USER: genes 12 Torsion [C]-N--CA-[C] |==|  0.53497
USER: genes 13 Torsion [N]-CA--C-[O] |==|  0.90048
USER: genes 14 Torsion [N]-CA--CB-[CG] |==|  0.67639
USER: genes 15 Torsion [CA]-CB--CG-[CD1] |==|  0.97405
USER: genes 16 Torsion [N]-C--CA-[N] |==|  0.96678
USER: genes 17 Torsion [C]-CA--CB-[CG] |==|  0.54103
USER: genes 18 Torsion [CA]-CB--CG-[CD2] |==|  0.25004
USER: genes 19 Torsion [C]-CA--N-[C] |==|  0.76422
USER: genes 20 Torsion [N]-C--CA-[N] |==|  0.33144
USER: genes 21 Torsion [C]-CA--N-[C] |==|  0.59677
USER: genes 22 Torsion [N]-C--CA-[N] |==|  0.38537
USER: genes 23 Torsion [C]-CA--CB-[CG2] |==|  0.99749
USER: genes 24 Torsion [CA]-CB--OG1-[HG1] |==|  0.22795
USER: genes 25 Torsion [C]-CA--N-[H2] |==|  0.00546
USER: genes 26 Torsion [C]-CA--CB-[CG] |==|  0.07455
USER: genes 27 Torsion [CA]-CB--CG-[OD1] |==|  0.19459
ROOT
ATOM      1  C   LEU B   3       2.535  18.266  12.777  1.00 37.56 LIG 0.24  C 
ATOM      2 O    LEU B   3       3.045  17.651  13.735  1.00 36.01 LIG-0.27  OA
ATOM      3  N   TYR B   4       2.799  19.570  12.478  1.00 34.90 LIG-0.35  N 
ATOM      4 H    TYR B   4       2.433  19.957  11.803  1.00 34.90 LIG 0.16  HD
ENDROOT
BRANCH 3 5
ATOM      5  CA  TYR B   4       3.695  20.470  13.209  1.00 36.24 LIG 0.18  C 
BRANCH 5 6
ATOM      6  CB  TYR B   4       2.976  21.087  14.427  1.00 36.37 LIG 0.07  C 
BRANCH 6 7
ATOM      7  CG  TYR B   4       2.498  20.006  15.362  1.00 36.28 LIG-0.06  A 
ATOM      8  CD2 TYR B   4       1.247  19.412  15.199  1.00 36.38 LIG 0.01  A 
ATOM      9  CE2 TYR B   4       0.777  18.456  16.092  1.00 36.34 LIG 0.04  A 
ATOM     10  CZ  TYR B   4       1.548  18.112  17.190  1.00 42.86 LIG 0.07  A 
ATOM     11  CE1 TYR B   4       2.788  18.700  17.383  1.00 38.54 LIG 0.04  A 
ATOM     12  CD1 TYR B   4       3.254  19.644  16.476  1.00 37.84 LIG 0.01  A 
BRANCH 10 13
ATOM     13 OH   TYR B   4       1.094  17.187  18.090  1.00 44.02 LIG-0.36  OA
ATOM     14 HH   TYR B   4       1.692  16.612  18.227  1.00 44.02 LIG 0.22  HD
ENDBRANCH 10 13
ENDBRANCH 6 7
ENDBRANCH 5 6
BRANCH 5 15
ATOM     15  C   TYR B   4       4.989  19.769  13.608  1.00 47.41 LIG 0.24  C 
ATOM     16  N   MET B   5       5.830  20.498  14.335  1.00 49.29 LIG-0.35  N 
ATOM     17 H    MET B   5       5.700  21.321  14.543  1.00 49.29 LIG 0.16  HD
ATOM     18 O    TYR B   4       5.218  18.601  13.285  1.00 47.26 LIG-0.27  OA
BRANCH 16 19
ATOM     19  CA  MET B   5       7.065  19.930  14.844  1.00 52.16 LIG 0.18  C 
BRANCH 19 20
ATOM     20  CB  MET B   5       8.208  20.118  13.847  1.00 55.77 LIG 0.04  C 
BRANCH 20 21
ATOM     21  CG  MET B   5       7.735  20.061  12.396  1.00 61.00 LIG 0.08  C 
BRANCH 21 22
ATOM     22 SD   MET B   5       7.257  21.673  11.752  1.00 67.05 LIG-0.17  SA
ATOM     23  CE  MET B   5       7.964  22.726  13.000  1.00 63.64 LIG 0.09  C 
ENDBRANCH 21 22
ENDBRANCH 20 21
ENDBRANCH 19 20
BRANCH 19 24
ATOM     24  C   MET B   5       7.314  20.589  16.185  1.00 55.98 LIG 0.24  C 
ATOM     25 O    MET B   5       6.527  21.444  16.592  1.00 56.32 LIG-0.27  OA
ATOM     26  N   LEU B   6       8.322  20.110  16.924  1.00 51.23 LIG-0.35  N 
ATOM     27 H    LEU B   6       8.858  19.493  16.656  1.00 51.23 LIG 0.16  HD
BRANCH 26 28
ATOM     28  CA  LEU B   6       8.602  20.602  18.272  1.00 69.26 LIG 0.16  C 
BRANCH 28 29
ATOM     29  C   LEU B   6       9.966  20.123  18.765  1.00 97.67 LIG 0.22  C 
ATOM     30 O    LEU B   6      10.388  19.006  18.470  1.00 61.20 LIG-0.29  OA
ENDBRANCH 28 29
BRANCH 28 31
ATOM     31  CB  LEU B   6       7.480  20.165  19.234  1.00 69.14 LIG 0.04  C 
BRANCH 31 32
ATOM     32  CG  LEU B   6       6.669  21.298  19.861  1.00 73.60 LIG-0.02  C 
ATOM     33  CD2 LEU B   6       5.222  21.236  19.434  1.00 75.76 LIG 0.01  C 
ATOM     34  CD1 LEU B   6       7.292  22.645  19.571  1.00 73.41 LIG 0.01  C 
ENDBRANCH 31 32
ENDBRANCH 28 31
ENDBRANCH 26 28
ENDBRANCH 19 24
ENDBRANCH 16 19
ENDBRANCH 5 15
ENDBRANCH 3 5
BRANCH 1 35
ATOM     35  CA  LEU B   3       1.498  17.565  11.897  1.00 32.52 LIG 0.18  C 
BRANCH 35 36
ATOM     36  CB  LEU B   3       2.147  16.462  11.036  1.00 32.14 LIG 0.04  C 
BRANCH 36 37
ATOM     37  CG  LEU B   3       1.278  15.948   9.876  1.00 34.99 LIG-0.02  C 
ATOM     38  CD2 LEU B   3       1.523  16.768   8.584  1.00 35.91 LIG 0.01  C 
ATOM     39  CD1 LEU B   3      -0.212  15.905  10.290  1.00 33.16 LIG 0.01  C 
ENDBRANCH 36 37
ENDBRANCH 35 36
BRANCH 35 40
ATOM     40  N   LEU B   3       0.770  18.514  11.060  1.00 32.48 LIG-0.35  N 
ATOM     41  C   ASN B   2      -0.308  19.166  11.534  1.00 36.40 LIG 0.24  C 
ATOM     42 O    ASN B   2      -0.755  18.984  12.673  1.00 34.95 LIG-0.27  OA
ATOM     43 H    LEU B   3       1.086  18.611  10.266  1.00 32.48 LIG 0.16  HD
BRANCH 41 44
ATOM     44  CA  ASN B   2      -1.045  20.102  10.572  1.00 32.65 LIG 0.18  C 
BRANCH 44 45
ATOM     45  N   ASN B   2      -2.405  19.586  10.456  1.00 32.45 LIG-0.34  N 
ATOM     46 H    ASN B   2      -2.691  19.245  11.192  1.00 32.45 LIG 0.16  HD
ATOM     47  C   THR B   1      -3.160  19.616   9.352  1.00 35.22 LIG 0.25  C 
ATOM     48 O    THR B   1      -2.843  20.213   8.304  1.00 34.61 LIG-0.27  OA
BRANCH 47 49
ATOM     49  CA  THR B   1      -4.464  18.871   9.489  1.00 32.53 LIG 0.30  C 
BRANCH 49 50
ATOM     50  CB  THR B   1      -4.329  17.447   8.927  1.00 31.51 LIG 0.15  C 
ATOM     51  CG2 THR B   1      -2.912  17.144   8.349  1.00 30.77 LIG 0.04  C 
BRANCH 50 52
ATOM     52 OG1  THR B   1      -4.657  16.513   9.956  1.00 21.64 LIG-0.39  OA
ATOM     53 HG1  THR B   1      -5.491  16.429  10.003  1.00 21.64 LIG 0.21  HD
ENDBRANCH 50 52
ENDBRANCH 49 50
BRANCH 49 54
ATOM     54  N   THR B   1      -5.567  19.600   8.869  1.00 34.33 LIG-0.06  N 
ATOM     55 H2   THR B   1      -5.258  20.346   8.495  1.00 34.33 LIG 0.28  HD
ATOM     56 H1   THR B   1      -6.172  19.807   9.489  1.00 34.33 LIG 0.28  HD
ATOM     57 H3   THR B   1      -5.946  19.092   8.245  1.00 34.33 LIG 0.28  HD
ENDBRANCH 49 54
ENDBRANCH 47 49
ENDBRANCH 44 45
BRANCH 44 58
ATOM     58  CB  ASN B   2      -1.041  21.563  11.056  1.00 33.77 LIG 0.14  C 
BRANCH 58 59
ATOM     59  CG  ASN B   2       0.143  21.908  11.939  1.00 47.71 LIG 0.22  C 
ATOM     60 OD1  ASN B   2       1.293  21.984  11.492  1.00 37.59 LIG-0.27  OA
ATOM     61  ND2 ASN B   2      -0.107  22.094  13.226  1.00 40.38 LIG-0.37  N 
ATOM     62 22HD ASN B   2      -0.913  22.038  13.520  1.00 40.38 LIG 0.16  HD
ATOM     63 21HD ASN B   2       0.537  22.272  13.767  1.00 40.38 LIG 0.16  HD
ENDBRANCH 58 59
ENDBRANCH 44 58
ENDBRANCH 41 44
ENDBRANCH 35 40
ENDBRANCH 1 35
TORSDOF 26
ENDMDL
MODEL 20
USER: ADFR SOLUTION from run 170
USER: SCORE 21.679588 LL:  -5.790 LR: -16.472 RR:   0.000 FEB:  -8.716
USER: RMSD 5.223273
USER: SEED 169
USER: STATUS no improvement in best in 6 clusters for 5 generations
USER: GENES 28
USER: genes 0 Translation |==|  0.40282 0.30366 0.43170
USER: genes 1 Rotation |==|  0.53922 0.65841 0.33136 0.94151
USER: genes 2 Torsion [C]-N--CA-[CB] |==|  0.79532
USER: genes 3 Torsion [N]-CA--CB-[CG] |==|  0.60279
USER: genes 4 Torsion [CA]-CB--CG-[CD2] |==|  0.48907
USER: genes 5 Torsion [CE2]-CZ--OH-[HH] |==|  0.49149
USER: genes 6 Torsion [N]-CA--C-[N] |==|  0.33595
USER: genes 7 Torsion [C]-N--CA-[CB] |==|  0.17432
USER: genes 8 Torsion [N]-CA--CB-[CG] |==|  0.14807
USER: genes 9 Torsion [CA]-CB--CG-[SD] |==|  0.55112
USER: genes 10 Torsion [CB]-CG--SD-[CE] |==|  0.18654
USER: genes 11 Torsion [N]-CA--C-[N] |==|  0.07503
USER: genes 12 Torsion [C]-N--CA-[C] |==|  0.53239
USER: genes 13 Torsion [N]-CA--C-[O] |==|  0.04237
USER: genes 14 Torsion [N]-CA--CB-[CG] |==|  0.67468
USER: genes 15 Torsion [CA]-CB--CG-[CD1] |==|  0.98280
USER: genes 16 Torsion [N]-C--CA-[N] |==|  0.01689
USER: genes 17 Torsion [C]-CA--CB-[CG] |==|  0.50297
USER: genes 18 Torsion [CA]-CB--CG-[CD2] |==|  0.87020
USER: genes 19 Torsion [C]-CA--N-[C] |==|  0.18333
USER: genes 20 Torsion [N]-C--CA-[N] |==|  0.92153
USER: genes 21 Torsion [C]-CA--N-[C] |==|  0.84443
USER: genes 22 Torsion [N]-C--CA-[N] |==|  0.36963
USER: genes 23 Torsion [C]-CA--CB-[CG2] |==|  0.15619
USER: genes 24 Torsion [CA]-CB--OG1-[HG1] |==|  0.23333
USER: genes 25 Torsion [C]-CA--N-[H2] |==|  0.49747
USER: genes 26 Torsion [C]-CA--CB-[CG] |==|  0.14096
USER: genes 27 Torsion [CA]-CB--CG-[OD1] |==|  0.15447
ROOT
ATOM      1  C   LEU B   3      -0.753  17.098  11.730  1.00 37.56 LIG 0.24  C 
ATOM      2 O    LEU B   3      -0.336  15.924  11.692  1.00 36.01 LIG-0.27  OA
ATOM      3  N   TYR B   4      -0.264  18.057  12.567  1.00 34.90 LIG-0.35  N 
ATOM      4 H    TYR B   4      -0.572  18.859  12.559  1.00 34.90 LIG 0.16  HD
ENDROOT
BRANCH 3 5
ATOM      5  CA  TYR B   4       0.802  17.890  13.559  1.00 36.24 LIG 0.18  C 
BRANCH 5 6
ATOM      6  CB  TYR B   4       0.298  17.086  14.775  1.00 36.37 LIG 0.07  C 
BRANCH 6 7
ATOM      7  CG  TYR B   4       0.905  17.619  16.047  1.00 36.28 LIG-0.06  A 
ATOM      8  CD2 TYR B   4       0.539  17.107  17.292  1.00 36.38 LIG 0.01  A 
ATOM      9  CE2 TYR B   4       1.050  17.634  18.472  1.00 36.34 LIG 0.04  A 
ATOM     10  CZ  TYR B   4       1.913  18.717  18.417  1.00 42.86 LIG 0.07  A 
ATOM     11  CE1 TYR B   4       2.280  19.253  17.193  1.00 38.54 LIG 0.04  A 
ATOM     12  CD1 TYR B   4       1.773  18.710  16.020  1.00 37.84 LIG 0.01  A 
BRANCH 10 13
ATOM     13 OH   TYR B   4       2.413  19.261  19.568  1.00 44.02 LIG-0.36  OA
ATOM     14 HH   TYR B   4       2.950  19.878  19.376  1.00 44.02 LIG 0.22  HD
ENDBRANCH 10 13
ENDBRANCH 6 7
ENDBRANCH 5 6
BRANCH 5 15
ATOM     15  C   TYR B   4       2.048  17.264  12.941  1.00 47.41 LIG 0.24  C 
ATOM     16  N   MET B   5       3.155  17.993  13.031  1.00 49.29 LIG-0.35  N 
ATOM     17 H    MET B   5       3.189  18.783  13.368  1.00 49.29 LIG 0.16  HD
ATOM     18 O    TYR B   4       2.018  16.150  12.412  1.00 47.26 LIG-0.27  OA
BRANCH 16 19
ATOM     19  CA  MET B   5       4.427  17.485  12.550  1.00 52.16 LIG 0.18  C 
BRANCH 19 20
ATOM     20  CB  MET B   5       4.384  17.234  11.043  1.00 55.77 LIG 0.04  C 
BRANCH 20 21
ATOM     21  CG  MET B   5       3.920  18.459  10.258  1.00 61.00 LIG 0.08  C 
BRANCH 21 22
ATOM     22 SD   MET B   5       3.361  18.054   8.595  1.00 67.05 LIG-0.17  SA
ATOM     23  CE  MET B   5       1.901  17.114   8.980  1.00 63.64 LIG 0.09  C 
ENDBRANCH 21 22
ENDBRANCH 20 21
ENDBRANCH 19 20
BRANCH 19 24
ATOM     24  C   MET B   5       5.474  18.497  12.967  1.00 55.98 LIG 0.24  C 
ATOM     25 O    MET B   5       6.453  18.685  12.244  1.00 56.32 LIG-0.27  OA
ATOM     26  N   LEU B   6       5.214  19.235  14.053  1.00 51.23 LIG-0.35  N 
ATOM     27 H    LEU B   6       4.518  19.127  14.547  1.00 51.23 LIG 0.16  HD
BRANCH 26 28
ATOM     28  CA  LEU B   6       6.104  20.305  14.500  1.00 69.26 LIG 0.16  C 
BRANCH 28 29
ATOM     29  C   LEU B   6       5.732  20.788  15.900  1.00 97.67 LIG 0.22  C 
ATOM     30 O    LEU B   6       4.986  20.125  16.620  1.00 61.20 LIG-0.29  OA
ENDBRANCH 28 29
BRANCH 28 31
ATOM     31  CB  LEU B   6       6.079  21.467  13.488  1.00 69.14 LIG 0.04  C 
BRANCH 31 32
ATOM     32  CG  LEU B   6       7.406  21.768  12.793  1.00 73.60 LIG-0.02  C 
ATOM     33  CD2 LEU B   6       7.287  21.610  11.297  1.00 75.76 LIG 0.01  C 
ATOM     34  CD1 LEU B   6       8.528  20.934  13.369  1.00 73.41 LIG 0.01  C 
ENDBRANCH 31 32
ENDBRANCH 28 31
ENDBRANCH 26 28
ENDBRANCH 19 24
ENDBRANCH 16 19
ENDBRANCH 5 15
ENDBRANCH 3 5
BRANCH 1 35
ATOM     35  CA  LEU B   3      -1.926  17.511  10.839  1.00 32.52 LIG 0.18  C 
BRANCH 35 36
ATOM     36  CB  LEU B   3      -1.675  17.126   9.367  1.00 32.14 LIG 0.04  C 
BRANCH 36 37
ATOM     37  CG  LEU B   3      -2.793  17.527   8.390  1.00 34.99 LIG-0.02  C 
ATOM     38  CD2 LEU B   3      -4.188  17.141   8.944  1.00 35.91 LIG 0.01  C 
ATOM     39  CD1 LEU B   3      -2.521  16.944   6.983  1.00 33.16 LIG 0.01  C 
ENDBRANCH 36 37
ENDBRANCH 35 36
BRANCH 35 40
ATOM     40  N   LEU B   3      -2.220  18.936  10.958  1.00 32.48 LIG-0.35  N 
ATOM     41  C   ASN B   2      -1.337  19.860  10.535  1.00 36.40 LIG 0.24  C 
ATOM     42 O    ASN B   2      -0.235  19.564  10.056  1.00 34.95 LIG-0.27  OA
ATOM     43 H    LEU B   3      -2.982  19.119  11.311  1.00 32.48 LIG 0.16  HD
BRANCH 41 44
ATOM     44  CA  ASN B   2      -1.700  21.332  10.748  1.00 32.65 LIG 0.18  C 
BRANCH 44 45
ATOM     45  N   ASN B   2      -3.157  21.403  10.739  1.00 32.45 LIG-0.34  N 
ATOM     46 H    ASN B   2      -3.473  21.761  11.454  1.00 32.45 LIG 0.16  HD
ATOM     47  C   THR B   1      -3.953  20.972   9.754  1.00 35.22 LIG 0.25  C 
ATOM     48 O    THR B   1      -3.541  20.570   8.648  1.00 34.61 LIG-0.27  OA
BRANCH 47 49
ATOM     49  CA  THR B   1      -5.422  21.036  10.089  1.00 32.53 LIG 0.30  C 
BRANCH 49 50
ATOM     50  CB  THR B   1      -5.946  19.641  10.466  1.00 31.51 LIG 0.15  C 
ATOM     51  CG2 THR B   1      -5.160  18.984  11.643  1.00 30.77 LIG 0.04  C 
BRANCH 50 52
ATOM     52 OG1  THR B   1      -7.334  19.742  10.789  1.00 21.64 LIG-0.39  OA
ATOM     53 HG1  THR B   1      -7.788  19.709  10.084  1.00 21.64 LIG 0.21  HD
ENDBRANCH 50 52
ENDBRANCH 49 50
BRANCH 49 54
ATOM     54  N   THR B   1      -6.196  21.636   9.006  1.00 34.33 LIG-0.06  N 
ATOM     55 H2   THR B   1      -7.058  21.648   9.228  1.00 34.33 LIG 0.28  HD
ATOM     56 H1   THR B   1      -6.087  21.158   8.263  1.00 34.33 LIG 0.28  HD
ATOM     57 H3   THR B   1      -5.916  22.469   8.866  1.00 34.33 LIG 0.28  HD
ENDBRANCH 49 54
ENDBRANCH 47 49
ENDBRANCH 44 45
BRANCH 44 58
ATOM     58  CB  ASN B   2      -1.120  21.895  12.059  1.00 33.77 LIG 0.14  C 
BRANCH 58 59
ATOM     59  CG  ASN B   2       0.362  21.632  12.231  1.00 47.71 LIG 0.22  C 
ATOM     60 OD1  ASN B   2       1.193  21.983  11.385  1.00 37.59 LIG-0.27  OA
ATOM     61  ND2 ASN B   2       0.730  20.976  13.322  1.00 40.38 LIG-0.37  N 
ATOM     62 22HD ASN B   2       0.140  20.739  13.900  1.00 40.38 LIG 0.16  HD
ATOM     63 21HD ASN B   2       1.559  20.787  13.451  1.00 40.38 LIG 0.16  HD
ENDBRANCH 58 59
ENDBRANCH 44 58
ENDBRANCH 41 44
ENDBRANCH 35 40
ENDBRANCH 1 35
TORSDOF 26
ENDMDL
MODEL 21
USER: ADFR SOLUTION from run 142
USER: SCORE 20.733846 LL:  -6.744 LR: -16.466 RR:   0.000 FEB:  -8.710
USER: RMSD 6.503948
USER: SEED 141
USER: STATUS 1 or 2 clusters left
USER: GENES 28
USER: genes 0 Translation |==|  0.41322 0.45489 0.41486
USER: genes 1 Rotation |==|  0.50485 0.75041 0.58803 0.92370
USER: genes 2 Torsion [C]-N--CA-[CB] |==|  0.70997
USER: genes 3 Torsion [N]-CA--CB-[CG] |==|  0.01919
USER: genes 4 Torsion [CA]-CB--CG-[CD2] |==|  0.23645
USER: genes 5 Torsion [CE2]-CZ--OH-[HH] |==|  0.13615
USER: genes 6 Torsion [N]-CA--C-[N] |==|  0.73191
USER: genes 7 Torsion [C]-N--CA-[CB] |==|  0.34548
USER: genes 8 Torsion [N]-CA--CB-[CG] |==|  0.51465
USER: genes 9 Torsion [CA]-CB--CG-[SD] |==|  0.49242
USER: genes 10 Torsion [CB]-CG--SD-[CE] |==|  0.04220
USER: genes 11 Torsion [N]-CA--C-[N] |==|  0.91528
USER: genes 12 Torsion [C]-N--CA-[C] |==|  0.17897
USER: genes 13 Torsion [N]-CA--C-[O] |==|  0.12419
USER: genes 14 Torsion [N]-CA--CB-[CG] |==|  0.72566
USER: genes 15 Torsion [CA]-CB--CG-[CD1] |==|  0.62998
USER: genes 16 Torsion [N]-C--CA-[N] |==|  0.04496
USER: genes 17 Torsion [C]-CA--CB-[CG] |==|  0.42623
USER: genes 18 Torsion [CA]-CB--CG-[CD2] |==|  0.54042
USER: genes 19 Torsion [C]-CA--N-[C] |==|  0.68993
USER: genes 20 Torsion [N]-C--CA-[N] |==|  0.11103
USER: genes 21 Torsion [C]-CA--N-[C] |==|  0.69357
USER: genes 22 Torsion [N]-C--CA-[N] |==|  0.27255
USER: genes 23 Torsion [C]-CA--CB-[CG2] |==|  0.26035
USER: genes 24 Torsion [CA]-CB--OG1-[HG1] |==|  0.53762
USER: genes 25 Torsion [C]-CA--N-[H2] |==|  0.80669
USER: genes 26 Torsion [C]-CA--CB-[CG] |==|  0.73188
USER: genes 27 Torsion [CA]-CB--CG-[OD1] |==|  0.78213
ROOT
ATOM      1  C   LEU B   3      -0.534  19.707  11.326  1.00 37.56 LIG 0.24  C 
ATOM      2 O    LEU B   3       0.546  19.498  10.740  1.00 36.01 LIG-0.27  OA
ATOM      3  N   TYR B   4      -0.663  20.486  12.438  1.00 34.90 LIG-0.35  N 
ATOM      4 H    TYR B   4      -1.428  20.612  12.810  1.00 34.90 LIG 0.16  HD
ENDROOT
BRANCH 3 5
ATOM      5  CA  TYR B   4       0.413  21.191  13.140  1.00 36.24 LIG 0.18  C 
BRANCH 5 6
ATOM      6  CB  TYR B   4       0.785  20.461  14.447  1.00 36.37 LIG 0.07  C 
BRANCH 6 7
ATOM      7  CG  TYR B   4       0.055  19.146  14.544  1.00 36.28 LIG-0.06  A 
ATOM      8  CD2 TYR B   4       0.562  17.994  13.942  1.00 36.38 LIG 0.01  A 
ATOM      9  CE2 TYR B   4      -0.136  16.792  13.977  1.00 36.34 LIG 0.04  A 
ATOM     10  CZ  TYR B   4      -1.378  16.743  14.588  1.00 42.86 LIG 0.07  A 
ATOM     11  CE1 TYR B   4      -1.910  17.878  15.179  1.00 38.54 LIG 0.04  A 
ATOM     12  CD1 TYR B   4      -1.198  19.071  15.149  1.00 37.84 LIG 0.01  A 
BRANCH 10 13
ATOM     13 OH   TYR B   4      -2.088  15.574  14.617  1.00 44.02 LIG-0.36  OA
ATOM     14 HH   TYR B   4      -1.591  14.950  14.883  1.00 44.02 LIG 0.22  HD
ENDBRANCH 10 13
ENDBRANCH 6 7
ENDBRANCH 5 6
BRANCH 5 15
ATOM     15  C   TYR B   4       1.625  21.399  12.239  1.00 47.41 LIG 0.24  C 
ATOM     16  N   MET B   5       2.591  20.495  12.367  1.00 49.29 LIG-0.35  N 
ATOM     17 H    MET B   5       2.581  19.854  12.940  1.00 49.29 LIG 0.16  HD
ATOM     18 O    TYR B   4       1.684  22.336  11.439  1.00 47.26 LIG-0.27  OA
BRANCH 16 19
ATOM     19  CA  MET B   5       3.768  20.532  11.519  1.00 52.16 LIG 0.18  C 
BRANCH 19 20
ATOM     20  CB  MET B   5       5.047  20.586  12.355  1.00 55.77 LIG 0.04  C 
BRANCH 20 21
ATOM     21  CG  MET B   5       6.299  20.755  11.499  1.00 61.00 LIG 0.08  C 
BRANCH 21 22
ATOM     22 SD   MET B   5       7.803  20.898  12.479  1.00 67.05 LIG-0.17  SA
ATOM     23  CE  MET B   5       7.203  20.320  14.051  1.00 63.64 LIG 0.09  C 
ENDBRANCH 21 22
ENDBRANCH 20 21
ENDBRANCH 19 20
BRANCH 19 24
ATOM     24  C   MET B   5       3.682  19.317  10.619  1.00 55.98 LIG 0.24  C 
ATOM     25 O    MET B   5       4.268  19.326   9.536  1.00 56.32 LIG-0.27  OA
ATOM     26  N   LEU B   6       3.068  18.234  11.110  1.00 51.23 LIG-0.35  N 
ATOM     27 H    LEU B   6       2.681  18.213  11.878  1.00 51.23 LIG 0.16  HD
BRANCH 26 28
ATOM     28  CA  LEU B   6       3.002  16.974  10.372  1.00 69.26 LIG 0.16  C 
BRANCH 28 29
ATOM     29  C   LEU B   6       4.392  16.372  10.175  1.00 97.67 LIG 0.22  C 
ATOM     30 O    LEU B   6       5.200  16.332  11.102  1.00 61.20 LIG-0.29  OA
ENDBRANCH 28 29
BRANCH 28 31
ATOM     31  CB  LEU B   6       2.297  17.193   9.019  1.00 69.14 LIG 0.04  C 
BRANCH 31 32
ATOM     32  CG  LEU B   6       0.819  16.807   8.975  1.00 73.60 LIG-0.02  C 
ATOM     33  CD2 LEU B   6       0.397  16.114  10.248  1.00 75.76 LIG 0.01  C 
ATOM     34  CD1 LEU B   6       0.503  15.986   7.745  1.00 73.41 LIG 0.01  C 
ENDBRANCH 31 32
ENDBRANCH 28 31
ENDBRANCH 26 28
ENDBRANCH 19 24
ENDBRANCH 16 19
ENDBRANCH 5 15
ENDBRANCH 3 5
BRANCH 1 35
ATOM     35  CA  LEU B   3      -1.807  19.016  10.832  1.00 32.52 LIG 0.18  C 
BRANCH 35 36
ATOM     36  CB  LEU B   3      -1.888  19.025   9.292  1.00 32.14 LIG 0.04  C 
BRANCH 36 37
ATOM     37  CG  LEU B   3      -2.707  17.876   8.677  1.00 34.99 LIG-0.02  C 
ATOM     38  CD2 LEU B   3      -2.440  17.748   7.156  1.00 35.91 LIG 0.01  C 
ATOM     39  CD1 LEU B   3      -4.207  18.037   9.015  1.00 33.16 LIG 0.01  C 
ENDBRANCH 36 37
ENDBRANCH 35 36
BRANCH 35 40
ATOM     40  N   LEU B   3      -3.006  19.608  11.416  1.00 32.48 LIG-0.35  N 
ATOM     41  C   ASN B   2      -3.757  18.921  12.297  1.00 36.40 LIG 0.24  C 
ATOM     42 O    ASN B   2      -3.498  17.759  12.635  1.00 34.95 LIG-0.27  OA
ATOM     43 H    LEU B   3      -3.178  20.409  11.153  1.00 32.48 LIG 0.16  HD
BRANCH 41 44
ATOM     44  CA  ASN B   2      -5.028  19.596  12.819  1.00 32.65 LIG 0.18  C 
BRANCH 44 45
ATOM     45  N   ASN B   2      -5.627  20.284  11.680  1.00 32.45 LIG-0.34  N 
ATOM     46 H    ASN B   2      -5.948  19.738  11.099  1.00 32.45 LIG 0.16  HD
ATOM     47  C   THR B   1      -5.691  21.609  11.515  1.00 35.22 LIG 0.25  C 
ATOM     48 O    THR B   1      -5.360  22.439  12.384  1.00 34.61 LIG-0.27  OA
BRANCH 47 49
ATOM     49  CA  THR B   1      -6.230  22.028  10.169  1.00 32.53 LIG 0.30  C 
BRANCH 49 50
ATOM     50  CB  THR B   1      -5.394  23.182   9.593  1.00 31.51 LIG 0.15  C 
ATOM     51  CG2 THR B   1      -4.249  22.702   8.648  1.00 30.77 LIG 0.04  C 
BRANCH 50 52
ATOM     52 OG1  THR B   1      -6.264  24.082   8.906  1.00 21.64 LIG-0.39  OA
ATOM     53 HG1  THR B   1      -5.807  24.608   8.436  1.00 21.64 LIG 0.21  HD
ENDBRANCH 50 52
ENDBRANCH 49 50
BRANCH 49 54
ATOM     54  N   THR B   1      -7.649  22.362  10.238  1.00 34.33 LIG-0.06  N 
ATOM     55 H2   THR B   1      -8.122  21.622  10.379  1.00 34.33 LIG 0.28  HD
ATOM     56 H1   THR B   1      -7.904  22.735   9.471  1.00 34.33 LIG 0.28  HD
ATOM     57 H3   THR B   1      -7.788  22.934  10.905  1.00 34.33 LIG 0.28  HD
ENDBRANCH 49 54
ENDBRANCH 47 49
ENDBRANCH 44 45
BRANCH 44 58
ATOM     58  CB  ASN B   2      -6.011  18.591  13.446  1.00 33.77 LIG 0.14  C 
BRANCH 58 59
ATOM     59  CG  ASN B   2      -7.099  18.131  12.496  1.00 47.71 LIG 0.22  C 
ATOM     60 OD1  ASN B   2      -8.087  18.831  12.244  1.00 37.59 LIG-0.27  OA
ATOM     61  ND2 ASN B   2      -6.962  16.924  11.969  1.00 40.38 LIG-0.37  N 
ATOM     62 22HD ASN B   2      -6.269  16.451  12.154  1.00 40.38 LIG 0.16  HD
ATOM     63 21HD ASN B   2      -7.565  16.615  11.440  1.00 40.38 LIG 0.16  HD
ENDBRANCH 58 59
ENDBRANCH 44 58
ENDBRANCH 41 44
ENDBRANCH 35 40
ENDBRANCH 1 35
TORSDOF 26
ENDMDL
MODEL 22
USER: ADFR SOLUTION from run 178
USER: SCORE 19.874276 LL:  -5.839 LR: -16.460 RR:   0.000 FEB:  -8.705
USER: RMSD 7.086769
USER: SEED 177
USER: STATUS searching
USER: GENES 28
USER: genes 0 Translation |==|  0.40762 0.44168 0.40399
USER: genes 1 Rotation |==|  0.55691 0.75859 0.57099 0.91816
USER: genes 2 Torsion [C]-N--CA-[CB] |==|  0.73480
USER: genes 3 Torsion [N]-CA--CB-[CG] |==|  0.45948
USER: genes 4 Torsion [CA]-CB--CG-[CD2] |==|  0.16126
USER: genes 5 Torsion [CE2]-CZ--OH-[HH] |==|  0.25490
USER: genes 6 Torsion [N]-CA--C-[N] |==|  0.74263
USER: genes 7 Torsion [C]-N--CA-[CB] |==|  0.30000
USER: genes 8 Torsion [N]-CA--CB-[CG] |==|  0.51715
USER: genes 9 Torsion [CA]-CB--CG-[SD] |==|  0.46616
USER: genes 10 Torsion [CB]-CG--SD-[CE] |==|  0.85688
USER: genes 11 Torsion [N]-CA--C-[N] |==|  0.98070
USER: genes 12 Torsion [C]-N--CA-[C] |==|  0.72430
USER: genes 13 Torsion [N]-CA--C-[O] |==|  0.30410
USER: genes 14 Torsion [N]-CA--CB-[CG] |==|  0.13079
USER: genes 15 Torsion [CA]-CB--CG-[CD1] |==|  0.79539
USER: genes 16 Torsion [N]-C--CA-[N] |==|  0.06364
USER: genes 17 Torsion [C]-CA--CB-[CG] |==|  0.33238
USER: genes 18 Torsion [CA]-CB--CG-[CD2] |==|  0.60577
USER: genes 19 Torsion [C]-CA--N-[C] |==|  0.67965
USER: genes 20 Torsion [N]-C--CA-[N] |==|  0.10573
USER: genes 21 Torsion [C]-CA--N-[C] |==|  0.12492
USER: genes 22 Torsion [N]-C--CA-[N] |==|  0.82882
USER: genes 23 Torsion [C]-CA--CB-[CG2] |==|  0.20108
USER: genes 24 Torsion [CA]-CB--OG1-[HG1] |==|  0.75223
USER: genes 25 Torsion [C]-CA--N-[H2] |==|  0.57828
USER: genes 26 Torsion [C]-CA--CB-[CG] |==|  0.80326
USER: genes 27 Torsion [CA]-CB--CG-[OD1] |==|  0.75569
ROOT
ATOM      1  C   LEU B   3      -0.652  19.479  11.065  1.00 37.56 LIG 0.24  C 
ATOM      2 O    LEU B   3       0.339  19.194  10.366  1.00 36.01 LIG-0.27  OA
ATOM      3  N   TYR B   4      -0.581  20.102  12.276  1.00 34.90 LIG-0.35  N 
ATOM      4 H    TYR B   4      -1.289  20.289  12.726  1.00 34.90 LIG 0.16  HD
ENDROOT
BRANCH 3 5
ATOM      5  CA  TYR B   4       0.639  20.530  12.967  1.00 36.24 LIG 0.18  C 
BRANCH 5 6
ATOM      6  CB  TYR B   4       1.096  19.461  13.982  1.00 36.37 LIG 0.07  C 
BRANCH 6 7
ATOM      7  CG  TYR B   4       2.512  19.727  14.425  1.00 36.28 LIG-0.06  A 
ATOM      8  CD2 TYR B   4       2.866  20.936  15.023  1.00 36.38 LIG 0.01  A 
ATOM      9  CE2 TYR B   4       4.182  21.211  15.379  1.00 36.34 LIG 0.04  A 
ATOM     10  CZ  TYR B   4       5.171  20.281  15.101  1.00 42.86 LIG 0.07  A 
ATOM     11  CE1 TYR B   4       4.846  19.078  14.494  1.00 38.54 LIG 0.04  A 
ATOM     12  CD1 TYR B   4       3.526  18.810  14.154  1.00 37.84 LIG 0.01  A 
BRANCH 10 13
ATOM     13 OH   TYR B   4       6.474  20.540  15.429  1.00 44.02 LIG-0.36  OA
ATOM     14 HH   TYR B   4       6.635  20.240  16.197  1.00 44.02 LIG 0.22  HD
ENDBRANCH 10 13
ENDBRANCH 6 7
ENDBRANCH 5 6
BRANCH 5 15
ATOM     15  C   TYR B   4       1.745  20.888  11.981  1.00 47.41 LIG 0.24  C 
ATOM     16  N   MET B   5       2.578  19.899  11.676  1.00 49.29 LIG-0.35  N 
ATOM     17 H    MET B   5       2.547  19.115  12.027  1.00 49.29 LIG 0.16  HD
ATOM     18 O    TYR B   4       1.837  22.018  11.495  1.00 47.26 LIG-0.27  OA
BRANCH 16 19
ATOM     19  CA  MET B   5       3.631  20.082  10.695  1.00 52.16 LIG 0.18  C 
BRANCH 19 20
ATOM     20  CB  MET B   5       5.003  20.143  11.365  1.00 55.77 LIG 0.04  C 
BRANCH 20 21
ATOM     21  CG  MET B   5       6.120  20.485  10.383  1.00 61.00 LIG 0.08  C 
BRANCH 21 22
ATOM     22 SD   MET B   5       7.669  20.901  11.201  1.00 67.05 LIG-0.17  SA
ATOM     23  CE  MET B   5       7.091  22.133  12.348  1.00 63.64 LIG 0.09  C 
ENDBRANCH 21 22
ENDBRANCH 20 21
ENDBRANCH 19 20
BRANCH 19 24
ATOM     24  C   MET B   5       3.490  18.947   9.702  1.00 55.98 LIG 0.24  C 
ATOM     25 O    MET B   5       4.266  18.880   8.748  1.00 56.32 LIG-0.27  OA
ATOM     26  N   LEU B   6       2.596  17.993   9.987  1.00 51.23 LIG-0.35  N 
ATOM     27 H    LEU B   6       2.070  18.020  10.666  1.00 51.23 LIG 0.16  HD
BRANCH 26 28
ATOM     28  CA  LEU B   6       2.434  16.802   9.153  1.00 69.26 LIG 0.16  C 
BRANCH 28 29
ATOM     29  C   LEU B   6       1.245  16.946   8.205  1.00 97.67 LIG 0.22  C 
ATOM     30 O    LEU B   6       1.416  17.085   6.994  1.00 61.20 LIG-0.29  OA
ENDBRANCH 28 29
BRANCH 28 31
ATOM     31  CB  LEU B   6       2.283  15.554  10.044  1.00 69.14 LIG 0.04  C 
BRANCH 31 32
ATOM     32  CG  LEU B   6       1.295  15.684  11.202  1.00 73.60 LIG-0.02  C 
ATOM     33  CD2 LEU B   6      -0.051  16.170  10.720  1.00 75.76 LIG 0.01  C 
ATOM     34  CD1 LEU B   6       1.854  16.553  12.306  1.00 73.41 LIG 0.01  C 
ENDBRANCH 31 32
ENDBRANCH 28 31
ENDBRANCH 26 28
ENDBRANCH 19 24
ENDBRANCH 16 19
ENDBRANCH 5 15
ENDBRANCH 3 5
BRANCH 1 35
ATOM     35  CA  LEU B   3      -2.049  19.066  10.598  1.00 32.52 LIG 0.18  C 
BRANCH 35 36
ATOM     36  CB  LEU B   3      -2.173  19.147   9.062  1.00 32.14 LIG 0.04  C 
BRANCH 36 37
ATOM     37  CG  LEU B   3      -2.509  17.818   8.366  1.00 34.99 LIG-0.02  C 
ATOM     38  CD2 LEU B   3      -1.748  17.678   7.023  1.00 35.91 LIG 0.01  C 
ATOM     39  CD1 LEU B   3      -4.040  17.657   8.211  1.00 33.16 LIG 0.01  C 
ENDBRANCH 36 37
ENDBRANCH 35 36
BRANCH 35 40
ATOM     40  N   LEU B   3      -3.091  19.857  11.243  1.00 32.48 LIG-0.35  N 
ATOM     41  C   ASN B   2      -3.981  19.281  12.073  1.00 36.40 LIG 0.24  C 
ATOM     42 O    ASN B   2      -3.987  18.067  12.310  1.00 34.95 LIG-0.27  OA
ATOM     43 H    LEU B   3      -3.081  20.695  11.049  1.00 32.48 LIG 0.16  HD
BRANCH 41 44
ATOM     44  CA  ASN B   2      -5.075  20.174  12.664  1.00 32.65 LIG 0.18  C 
BRANCH 44 45
ATOM     45  N   ASN B   2      -5.468  21.100  11.608  1.00 32.45 LIG-0.34  N 
ATOM     46 H    ASN B   2      -5.540  21.909  11.890  1.00 32.45 LIG 0.16  HD
ATOM     47  C   THR B   1      -5.701  20.774  10.332  1.00 35.22 LIG 0.25  C 
ATOM     48 O    THR B   1      -5.484  19.646   9.847  1.00 34.61 LIG-0.27  OA
BRANCH 47 49
ATOM     49  CA  THR B   1      -6.240  21.914   9.503  1.00 32.53 LIG 0.30  C 
BRANCH 49 50
ATOM     50  CB  THR B   1      -5.205  23.047   9.414  1.00 31.51 LIG 0.15  C 
ATOM     51  CG2 THR B   1      -3.990  22.701   8.498  1.00 30.77 LIG 0.04  C 
BRANCH 50 52
ATOM     52 OG1  THR B   1      -5.856  24.230   8.952  1.00 21.64 LIG-0.39  OA
ATOM     53 HG1  THR B   1      -5.834  24.253   8.113  1.00 21.64 LIG 0.21  HD
ENDBRANCH 50 52
ENDBRANCH 49 50
BRANCH 49 54
ATOM     54  N   THR B   1      -7.525  22.386  10.009  1.00 34.33 LIG-0.06  N 
ATOM     55 H2   THR B   1      -8.000  22.730   9.339  1.00 34.33 LIG 0.28  HD
ATOM     56 H1   THR B   1      -7.389  23.012  10.627  1.00 34.33 LIG 0.28  HD
ATOM     57 H3   THR B   1      -7.971  21.706  10.369  1.00 34.33 LIG 0.28  HD
ENDBRANCH 49 54
ENDBRANCH 47 49
ENDBRANCH 44 45
BRANCH 44 58
ATOM     58  CB  ASN B   2      -6.281  19.364  13.175  1.00 33.77 LIG 0.14  C 
BRANCH 58 59
ATOM     59  CG  ASN B   2      -7.115  18.750  12.068  1.00 47.71 LIG 0.22  C 
ATOM     60 OD1  ASN B   2      -8.045  19.362  11.532  1.00 37.59 LIG-0.27  OA
ATOM     61  ND2 ASN B   2      -6.820  17.507  11.718  1.00 40.38 LIG-0.37  N 
ATOM     62 22HD ASN B   2      -6.170  17.095  12.100  1.00 40.38 LIG 0.16  HD
ATOM     63 21HD ASN B   2      -7.280  17.112  11.108  1.00 40.38 LIG 0.16  HD
ENDBRANCH 58 59
ENDBRANCH 44 58
ENDBRANCH 41 44
ENDBRANCH 35 40
ENDBRANCH 1 35
TORSDOF 26
ENDMDL
MODEL 23
USER: ADFR SOLUTION from run 23
USER: SCORE 20.261733 LL:  -5.918 LR: -16.439 RR:   0.000 FEB:  -8.684
USER: RMSD 4.820481
USER: SEED 22
USER: STATUS no improvement in best in 2 clusters for 5 generations
USER: GENES 28
USER: genes 0 Translation |==|  0.42752 0.32971 0.42791
USER: genes 1 Rotation |==|  0.52955 0.69257 0.41094 0.95179
USER: genes 2 Torsion [C]-N--CA-[CB] |==|  0.75779
USER: genes 3 Torsion [N]-CA--CB-[CG] |==|  0.93457
USER: genes 4 Torsion [CA]-CB--CG-[CD2] |==|  0.77194
USER: genes 5 Torsion [CE2]-CZ--OH-[HH] |==|  0.28898
USER: genes 6 Torsion [N]-CA--C-[N] |==|  0.19628
USER: genes 7 Torsion [C]-N--CA-[CB] |==|  0.38017
USER: genes 8 Torsion [N]-CA--CB-[CG] |==|  0.72266
USER: genes 9 Torsion [CA]-CB--CG-[SD] |==|  0.93315
USER: genes 10 Torsion [CB]-CG--SD-[CE] |==|  0.31159
USER: genes 11 Torsion [N]-CA--C-[N] |==|  0.84659
USER: genes 12 Torsion [C]-N--CA-[C] |==|  0.11577
USER: genes 13 Torsion [N]-CA--C-[O] |==|  0.61783
USER: genes 14 Torsion [N]-CA--CB-[CG] |==|  0.15017
USER: genes 15 Torsion [CA]-CB--CG-[CD1] |==|  0.35342
USER: genes 16 Torsion [N]-C--CA-[N] |==|  0.95293
USER: genes 17 Torsion [C]-CA--CB-[CG] |==|  0.23589
USER: genes 18 Torsion [CA]-CB--CG-[CD2] |==|  0.71302
USER: genes 19 Torsion [C]-CA--N-[C] |==|  0.68600
USER: genes 20 Torsion [N]-C--CA-[N] |==|  0.15556
USER: genes 21 Torsion [C]-CA--N-[C] |==|  0.12877
USER: genes 22 Torsion [N]-C--CA-[N] |==|  0.80402
USER: genes 23 Torsion [C]-CA--CB-[CG2] |==|  0.25648
USER: genes 24 Torsion [CA]-CB--OG1-[HG1] |==|  0.41530
USER: genes 25 Torsion [C]-CA--N-[H2] |==|  0.89143
USER: genes 26 Torsion [C]-CA--CB-[CG] |==|  0.79644
USER: genes 27 Torsion [CA]-CB--CG-[OD1] |==|  0.75042
ROOT
ATOM      1  C   LEU B   3      -0.234  17.547  11.639  1.00 37.56 LIG 0.24  C 
ATOM      2 O    LEU B   3       0.517  16.576  11.425  1.00 36.01 LIG-0.27  OA
ATOM      3  N   TYR B   4       0.026  18.531  12.548  1.00 34.90 LIG-0.35  N 
ATOM      4 H    TYR B   4      -0.513  19.190  12.662  1.00 34.90 LIG 0.16  HD
ENDROOT
BRANCH 3 5
ATOM      5  CA  TYR B   4       1.196  18.620  13.426  1.00 36.24 LIG 0.18  C 
BRANCH 5 6
ATOM      6  CB  TYR B   4       0.957  17.844  14.738  1.00 36.37 LIG 0.07  C 
BRANCH 6 7
ATOM      7  CG  TYR B   4      -0.519  17.714  15.012  1.00 36.28 LIG-0.06  A 
ATOM      8  CD2 TYR B   4      -1.237  18.749  15.609  1.00 36.38 LIG 0.01  A 
ATOM      9  CE2 TYR B   4      -2.586  18.613  15.919  1.00 36.34 LIG 0.04  A 
ATOM     10  CZ  TYR B   4      -3.224  17.410  15.664  1.00 42.86 LIG 0.07  A 
ATOM     11  CE1 TYR B   4      -2.529  16.360  15.085  1.00 38.54 LIG 0.04  A 
ATOM     12  CD1 TYR B   4      -1.185  16.513  14.769  1.00 37.84 LIG 0.01  A 
BRANCH 10 13
ATOM     13 OH   TYR B   4      -4.546  17.250  15.978  1.00 44.02 LIG-0.36  OA
ATOM     14 HH   TYR B   4      -5.008  17.289  15.276  1.00 44.02 LIG 0.22  HD
ENDBRANCH 10 13
ENDBRANCH 6 7
ENDBRANCH 5 6
BRANCH 5 15
ATOM     15  C   TYR B   4       2.465  18.160  12.717  1.00 47.41 LIG 0.24  C 
ATOM     16  N   MET B   5       2.914  18.974  11.768  1.00 49.29 LIG-0.35  N 
ATOM     17 H    MET B   5       2.514  19.693  11.519  1.00 49.29 LIG 0.16  HD
ATOM     18 O    TYR B   4       3.034  17.110  13.026  1.00 47.26 LIG-0.27  OA
BRANCH 16 19
ATOM     19  CA  MET B   5       4.152  18.694  11.065  1.00 52.16 LIG 0.18  C 
BRANCH 19 20
ATOM     20  CB  MET B   5       4.002  18.946   9.565  1.00 55.77 LIG 0.04  C 
BRANCH 20 21
ATOM     21  CG  MET B   5       3.772  17.660   8.775  1.00 61.00 LIG 0.08  C 
BRANCH 21 22
ATOM     22 SD   MET B   5       4.403  16.199   9.619  1.00 67.05 LIG-0.17  SA
ATOM     23  CE  MET B   5       2.872  15.375   9.995  1.00 63.64 LIG 0.09  C 
ENDBRANCH 21 22
ENDBRANCH 20 21
ENDBRANCH 19 20
BRANCH 19 24
ATOM     24  C   MET B   5       5.216  19.550  11.721  1.00 55.98 LIG 0.24  C 
ATOM     25 O    MET B   5       6.282  19.033  12.059  1.00 56.32 LIG-0.27  OA
ATOM     26  N   LEU B   6       4.989  20.867  11.785  1.00 51.23 LIG-0.35  N 
ATOM     27 H    LEU B   6       4.258  21.237  11.525  1.00 51.23 LIG 0.16  HD
BRANCH 26 28
ATOM     28  CA  LEU B   6       5.980  21.804  12.312  1.00 69.26 LIG 0.16  C 
BRANCH 28 29
ATOM     29  C   LEU B   6       7.385  21.458  11.825  1.00 97.67 LIG 0.22  C 
ATOM     30 O    LEU B   6       8.348  21.501  12.590  1.00 61.20 LIG-0.29  OA
ENDBRANCH 28 29
BRANCH 28 31
ATOM     31  CB  LEU B   6       5.917  21.824  13.852  1.00 69.14 LIG 0.04  C 
BRANCH 31 32
ATOM     32  CG  LEU B   6       6.050  20.465  14.536  1.00 73.60 LIG-0.02  C 
ATOM     33  CD2 LEU B   6       4.725  20.001  15.093  1.00 75.76 LIG 0.01  C 
ATOM     34  CD1 LEU B   6       7.136  20.482  15.587  1.00 73.41 LIG 0.01  C 
ENDBRANCH 31 32
ENDBRANCH 28 31
ENDBRANCH 26 28
ENDBRANCH 19 24
ENDBRANCH 16 19
ENDBRANCH 5 15
ENDBRANCH 3 5
BRANCH 1 35
ATOM     35  CA  LEU B   3      -1.569  17.647  10.899  1.00 32.52 LIG 0.18  C 
BRANCH 35 36
ATOM     36  CB  LEU B   3      -1.365  18.070   9.430  1.00 32.14 LIG 0.04  C 
BRANCH 36 37
ATOM     37  CG  LEU B   3      -1.051  16.920   8.459  1.00 34.99 LIG-0.02  C 
ATOM     38  CD2 LEU B   3       0.455  16.888   8.093  1.00 35.91 LIG 0.01  C 
ATOM     39  CD1 LEU B   3      -1.971  16.989   7.218  1.00 33.16 LIG 0.01  C 
ENDBRANCH 36 37
ENDBRANCH 35 36
BRANCH 35 40
ATOM     40  N   LEU B   3      -2.496  18.549  11.573  1.00 32.48 LIG-0.35  N 
ATOM     41  C   ASN B   2      -3.622  18.082  12.145  1.00 36.40 LIG 0.24  C 
ATOM     42 O    ASN B   2      -3.947  16.889  12.108  1.00 34.95 LIG-0.27  OA
ATOM     43 H    LEU B   3      -2.261  19.377  11.570  1.00 32.48 LIG 0.16  HD
BRANCH 41 44
ATOM     44  CA  ASN B   2      -4.566  19.105  12.783  1.00 32.65 LIG 0.18  C 
BRANCH 44 45
ATOM     45  N   ASN B   2      -4.893  20.071  11.741  1.00 32.45 LIG-0.34  N 
ATOM     46 H    ASN B   2      -4.831  20.884  12.015  1.00 32.45 LIG 0.16  HD
ATOM     47  C   THR B   1      -5.253  19.775  10.487  1.00 35.22 LIG 0.25  C 
ATOM     48 O    THR B   1      -5.229  18.625  10.006  1.00 34.61 LIG-0.27  OA
BRANCH 47 49
ATOM     49  CA  THR B   1      -5.679  20.975   9.678  1.00 32.53 LIG 0.30  C 
BRANCH 49 50
ATOM     50  CB  THR B   1      -4.579  22.048   9.693  1.00 31.51 LIG 0.15  C 
ATOM     51  CG2 THR B   1      -3.587  21.931   8.494  1.00 30.77 LIG 0.04  C 
BRANCH 50 52
ATOM     52 OG1  THR B   1      -5.192  23.337   9.707  1.00 21.64 LIG-0.39  OA
ATOM     53 HG1  THR B   1      -4.697  23.878  10.116  1.00 21.64 LIG 0.21  HD
ENDBRANCH 50 52
ENDBRANCH 49 50
BRANCH 49 54
ATOM     54  N   THR B   1      -6.962  21.502  10.133  1.00 34.33 LIG-0.06  N 
ATOM     55 H2   THR B   1      -7.504  20.827  10.342  1.00 34.33 LIG 0.28  HD
ATOM     56 H1   THR B   1      -7.330  21.989   9.484  1.00 34.33 LIG 0.28  HD
ATOM     57 H3   THR B   1      -6.836  22.013  10.850  1.00 34.33 LIG 0.28  HD
ENDBRANCH 49 54
ENDBRANCH 47 49
ENDBRANCH 44 45
BRANCH 44 58
ATOM     58  CB  ASN B   2      -5.836  18.451  13.359  1.00 33.77 LIG 0.14  C 
BRANCH 58 59
ATOM     59  CG  ASN B   2      -6.820  17.998  12.299  1.00 47.71 LIG 0.22  C 
ATOM     60 OD1  ASN B   2      -7.712  18.740  11.872  1.00 37.59 LIG-0.27  OA
ATOM     61  ND2 ASN B   2      -6.703  16.750  11.869  1.00 40.38 LIG-0.37  N 
ATOM     62 22HD ASN B   2      -6.077  16.247  12.175  1.00 40.38 LIG 0.16  HD
ATOM     63 21HD ASN B   2      -7.252  16.444  11.283  1.00 40.38 LIG 0.16  HD
ENDBRANCH 58 59
ENDBRANCH 44 58
ENDBRANCH 41 44
ENDBRANCH 35 40
ENDBRANCH 1 35
TORSDOF 26
ENDMDL
MODEL 24
USER: ADFR SOLUTION from run 99
USER: SCORE 20.400685 LL:  -6.449 LR: -16.416 RR:   0.000 FEB:  -8.660
USER: RMSD 5.531534
USER: SEED 98
USER: STATUS no improvement in best in 3 clusters for 5 generations
USER: GENES 28
USER: genes 0 Translation |==|  0.41529 0.30195 0.41771
USER: genes 1 Rotation |==|  0.55788 0.60225 0.29423 0.94029
USER: genes 2 Torsion [C]-N--CA-[CB] |==|  0.17759
USER: genes 3 Torsion [N]-CA--CB-[CG] |==|  0.08160
USER: genes 4 Torsion [CA]-CB--CG-[CD2] |==|  0.66538
USER: genes 5 Torsion [CE2]-CZ--OH-[HH] |==|  0.43011
USER: genes 6 Torsion [N]-CA--C-[N] |==|  0.64379
USER: genes 7 Torsion [C]-N--CA-[CB] |==|  0.20100
USER: genes 8 Torsion [N]-CA--CB-[CG] |==|  0.16061
USER: genes 9 Torsion [CA]-CB--CG-[SD] |==|  0.62436
USER: genes 10 Torsion [CB]-CG--SD-[CE] |==|  0.19322
USER: genes 11 Torsion [N]-CA--C-[N] |==|  0.30666
USER: genes 12 Torsion [C]-N--CA-[C] |==|  0.67186
USER: genes 13 Torsion [N]-CA--C-[O] |==|  0.79657
USER: genes 14 Torsion [N]-CA--CB-[CG] |==|  0.70291
USER: genes 15 Torsion [CA]-CB--CG-[CD1] |==|  0.14908
USER: genes 16 Torsion [N]-C--CA-[N] |==|  0.94661
USER: genes 17 Torsion [C]-CA--CB-[CG] |==|  0.26181
USER: genes 18 Torsion [CA]-CB--CG-[CD2] |==|  0.61175
USER: genes 19 Torsion [C]-CA--N-[C] |==|  0.19830
USER: genes 20 Torsion [N]-C--CA-[N] |==|  0.94437
USER: genes 21 Torsion [C]-CA--N-[C] |==|  0.82083
USER: genes 22 Torsion [N]-C--CA-[N] |==|  0.33533
USER: genes 23 Torsion [C]-CA--CB-[CG2] |==|  0.00912
USER: genes 24 Torsion [CA]-CB--OG1-[HG1] |==|  0.50215
USER: genes 25 Torsion [C]-CA--N-[H2] |==|  0.24459
USER: genes 26 Torsion [C]-CA--CB-[CG] |==|  0.19408
USER: genes 27 Torsion [CA]-CB--CG-[OD1] |==|  0.03079
ROOT
ATOM      1  C   LEU B   3      -0.491  17.069  11.394  1.00 37.56 LIG 0.24  C 
ATOM      2 O    LEU B   3      -0.292  15.842  11.490  1.00 36.01 LIG-0.27  OA
ATOM      3  N   TYR B   4      -0.019  17.993  12.280  1.00 34.90 LIG-0.35  N 
ATOM      4 H    TYR B   4      -0.172  18.832  12.175  1.00 34.90 LIG 0.16  HD
ENDROOT
BRANCH 3 5
ATOM      5  CA  TYR B   4       0.776  17.724  13.481  1.00 36.24 LIG 0.18  C 
BRANCH 5 6
ATOM      6  CB  TYR B   4       2.143  17.114  13.108  1.00 36.37 LIG 0.07  C 
BRANCH 6 7
ATOM      7  CG  TYR B   4       2.584  17.597  11.751  1.00 36.28 LIG-0.06  A 
ATOM      8  CD2 TYR B   4       2.825  16.701  10.709  1.00 36.38 LIG 0.01  A 
ATOM      9  CE2 TYR B   4       3.289  17.135   9.473  1.00 36.34 LIG 0.04  A 
ATOM     10  CZ  TYR B   4       3.555  18.481   9.279  1.00 42.86 LIG 0.07  A 
ATOM     11  CE1 TYR B   4       3.338  19.389  10.303  1.00 38.54 LIG 0.04  A 
ATOM     12  CD1 TYR B   4       2.862  18.945  11.531  1.00 37.84 LIG 0.01  A 
BRANCH 10 13
ATOM     13 OH   TYR B   4       4.028  18.925   8.075  1.00 44.02 LIG-0.36  OA
ATOM     14 HH   TYR B   4       3.824  19.734   7.974  1.00 44.02 LIG 0.22  HD
ENDBRANCH 10 13
ENDBRANCH 6 7
ENDBRANCH 5 6
BRANCH 5 15
ATOM     15  C   TYR B   4       0.926  18.973  14.343  1.00 47.41 LIG 0.24  C 
ATOM     16  N   MET B   5       2.172  19.281  14.686  1.00 49.29 LIG-0.35  N 
ATOM     17 H    MET B   5       2.860  18.805  14.488  1.00 49.29 LIG 0.16  HD
ATOM     18 O    TYR B   4      -0.049  19.649  14.678  1.00 47.26 LIG-0.27  OA
BRANCH 16 19
ATOM     19  CA  MET B   5       2.465  20.484  15.443  1.00 52.16 LIG 0.18  C 
BRANCH 19 20
ATOM     20  CB  MET B   5       2.009  20.345  16.895  1.00 55.77 LIG 0.04  C 
BRANCH 20 21
ATOM     21  CG  MET B   5       2.653  19.153  17.599  1.00 61.00 LIG 0.08  C 
BRANCH 21 22
ATOM     22 SD   MET B   5       1.477  18.191  18.564  1.00 67.05 LIG-0.17  SA
ATOM     23  CE  MET B   5       0.520  17.466  17.252  1.00 63.64 LIG 0.09  C 
ENDBRANCH 21 22
ENDBRANCH 20 21
ENDBRANCH 19 20
BRANCH 19 24
ATOM     24  C   MET B   5       3.953  20.728  15.295  1.00 55.98 LIG 0.24  C 
ATOM     25 O    MET B   5       4.747  19.901  15.743  1.00 56.32 LIG-0.27  OA
ATOM     26  N   LEU B   6       4.330  21.784  14.564  1.00 51.23 LIG-0.35  N 
ATOM     27 H    LEU B   6       3.779  22.350  14.225  1.00 51.23 LIG 0.16  HD
BRANCH 26 28
ATOM     28  CA  LEU B   6       5.734  22.069  14.274  1.00 69.26 LIG 0.16  C 
BRANCH 28 29
ATOM     29  C   LEU B   6       6.159  23.416  14.857  1.00 97.67 LIG 0.22  C 
ATOM     30 O    LEU B   6       5.783  24.471  14.348  1.00 61.20 LIG-0.29  OA
ENDBRANCH 28 29
BRANCH 28 31
ATOM     31  CB  LEU B   6       5.977  22.023  12.752  1.00 69.14 LIG 0.04  C 
BRANCH 31 32
ATOM     32  CG  LEU B   6       6.747  20.806  12.243  1.00 73.60 LIG-0.02  C 
ATOM     33  CD2 LEU B   6       6.919  20.856  10.744  1.00 75.76 LIG 0.01  C 
ATOM     34  CD1 LEU B   6       6.103  19.517  12.701  1.00 73.41 LIG 0.01  C 
ENDBRANCH 31 32
ENDBRANCH 28 31
ENDBRANCH 26 28
ENDBRANCH 19 24
ENDBRANCH 16 19
ENDBRANCH 5 15
ENDBRANCH 3 5
BRANCH 1 35
ATOM     35  CA  LEU B   3      -1.366  17.604  10.259  1.00 32.52 LIG 0.18  C 
BRANCH 35 36
ATOM     36  CB  LEU B   3      -0.596  17.628   8.922  1.00 32.14 LIG 0.04  C 
BRANCH 36 37
ATOM     37  CG  LEU B   3      -0.790  16.385   8.038  1.00 34.99 LIG-0.02  C 
ATOM     38  CD2 LEU B   3       0.541  15.957   7.369  1.00 35.91 LIG 0.01  C 
ATOM     39  CD1 LEU B   3      -1.930  16.616   7.018  1.00 33.16 LIG 0.01  C 
ENDBRANCH 36 37
ENDBRANCH 35 36
BRANCH 35 40
ATOM     40  N   LEU B   3      -1.905  18.924  10.569  1.00 32.48 LIG-0.35  N 
ATOM     41  C   ASN B   2      -1.109  20.009  10.584  1.00 36.40 LIG 0.24  C 
ATOM     42 O    ASN B   2       0.108  19.950  10.369  1.00 34.95 LIG-0.27  OA
ATOM     43 H    LEU B   3      -2.749  18.939  10.734  1.00 32.48 LIG 0.16  HD
BRANCH 41 44
ATOM     44  CA  ASN B   2      -1.746  21.346  10.973  1.00 32.65 LIG 0.18  C 
BRANCH 44 45
ATOM     45  N   ASN B   2      -3.182  21.192  10.775  1.00 32.45 LIG-0.34  N 
ATOM     46 H    ASN B   2      -3.624  21.249  11.510  1.00 32.45 LIG 0.16  HD
ATOM     47  C   THR B   1      -3.790  20.983   9.602  1.00 35.22 LIG 0.25  C 
ATOM     48 O    THR B   1      -3.212  21.023   8.498  1.00 34.61 LIG-0.27  OA
BRANCH 47 49
ATOM     49  CA  THR B   1      -5.269  20.710   9.724  1.00 32.53 LIG 0.30  C 
BRANCH 49 50
ATOM     50  CB  THR B   1      -5.585  19.271   9.286  1.00 31.51 LIG 0.15  C 
ATOM     51  CG2 THR B   1      -4.315  18.447   8.911  1.00 30.77 LIG 0.04  C 
BRANCH 50 52
ATOM     52 OG1  THR B   1      -6.312  18.621  10.329  1.00 21.64 LIG-0.39  OA
ATOM     53 HG1  THR B   1      -6.480  17.830  10.102  1.00 21.64 LIG 0.21  HD
ENDBRANCH 50 52
ENDBRANCH 49 50
BRANCH 49 54
ATOM     54  N   THR B   1      -6.060  21.692   8.989  1.00 34.33 LIG-0.06  N 
ATOM     55 H2   THR B   1      -6.164  21.419   8.148  1.00 34.33 LIG 0.28  HD
ATOM     56 H1   THR B   1      -5.641  22.477   8.997  1.00 34.33 LIG 0.28  HD
ATOM     57 H3   THR B   1      -6.858  21.778   9.373  1.00 34.33 LIG 0.28  HD
ENDBRANCH 49 54
ENDBRANCH 47 49
ENDBRANCH 44 45
BRANCH 44 58
ATOM     58  CB  ASN B   2      -1.421  21.750  12.423  1.00 33.77 LIG 0.14  C 
BRANCH 58 59
ATOM     59  CG  ASN B   2       0.029  22.137  12.637  1.00 47.71 LIG 0.22  C 
ATOM     60 OD1  ASN B   2       0.805  22.317  11.692  1.00 37.59 LIG-0.27  OA
ATOM     61  ND2 ASN B   2       0.439  22.244  13.892  1.00 40.38 LIG-0.37  N 
ATOM     62 22HD ASN B   2      -0.114  22.116  14.538  1.00 40.38 LIG 0.16  HD
ATOM     63 21HD ASN B   2       1.259  22.443  14.061  1.00 40.38 LIG 0.16  HD
ENDBRANCH 58 59
ENDBRANCH 44 58
ENDBRANCH 41 44
ENDBRANCH 35 40
ENDBRANCH 1 35
TORSDOF 26
ENDMDL
MODEL 25
USER: ADFR SOLUTION from run 152
USER: SCORE 19.094161 LL:  -5.379 LR: -16.406 RR:   0.000 FEB:  -8.651
USER: RMSD 5.917082
USER: SEED 151
USER: STATUS no improvement in best in 7 clusters for 5 generations
USER: GENES 28
USER: genes 0 Translation |==|  0.32722 0.42746 0.33774
USER: genes 1 Rotation |==|  0.58748 0.81657 0.68901 0.82620
USER: genes 2 Torsion [C]-N--CA-[CB] |==|  0.44444
USER: genes 3 Torsion [N]-CA--CB-[CG] |==|  0.10707
USER: genes 4 Torsion [CA]-CB--CG-[CD2] |==|  0.15699
USER: genes 5 Torsion [CE2]-CZ--OH-[HH] |==|  0.19609
USER: genes 6 Torsion [N]-CA--C-[N] |==|  0.44839
USER: genes 7 Torsion [C]-N--CA-[CB] |==|  0.23165
USER: genes 8 Torsion [N]-CA--CB-[CG] |==|  0.62692
USER: genes 9 Torsion [CA]-CB--CG-[SD] |==|  0.02669
USER: genes 10 Torsion [CB]-CG--SD-[CE] |==|  0.29534
USER: genes 11 Torsion [N]-CA--C-[N] |==|  0.59182
USER: genes 12 Torsion [C]-N--CA-[C] |==|  0.55130
USER: genes 13 Torsion [N]-CA--C-[O] |==|  0.72841
USER: genes 14 Torsion [N]-CA--CB-[CG] |==|  0.56132
USER: genes 15 Torsion [CA]-CB--CG-[CD1] |==|  0.14118
USER: genes 16 Torsion [N]-C--CA-[N] |==|  0.14493
USER: genes 17 Torsion [C]-CA--CB-[CG] |==|  0.19159
USER: genes 18 Torsion [CA]-CB--CG-[CD2] |==|  0.38775
USER: genes 19 Torsion [C]-CA--N-[C] |==|  0.78021
USER: genes 20 Torsion [N]-C--CA-[N] |==|  0.94823
USER: genes 21 Torsion [C]-CA--N-[C] |==|  0.75573
USER: genes 22 Torsion [N]-C--CA-[N] |==|  0.23325
USER: genes 23 Torsion [C]-CA--CB-[CG2] |==|  0.20340
USER: genes 24 Torsion [CA]-CB--OG1-[HG1] |==|  0.67692
USER: genes 25 Torsion [C]-CA--N-[H2] |==|  0.52605
USER: genes 26 Torsion [C]-CA--CB-[CG] |==|  0.11654
USER: genes 27 Torsion [CA]-CB--CG-[OD1] |==|  0.25736
ROOT
ATOM      1  C   LEU B   3      -2.340  19.234   9.475  1.00 37.56 LIG 0.24  C 
ATOM      2 O    LEU B   3      -1.680  19.622   8.491  1.00 36.01 LIG-0.27  OA
ATOM      3  N   TYR B   4      -1.996  19.476  10.772  1.00 34.90 LIG-0.35  N 
ATOM      4 H    TYR B   4      -2.481  19.198  11.424  1.00 34.90 LIG 0.16  HD
ENDROOT
BRANCH 3 5
ATOM      5  CA  TYR B   4      -0.814  20.206  11.240  1.00 36.24 LIG 0.18  C 
BRANCH 5 6
ATOM      6  CB  TYR B   4      -1.012  20.700  12.688  1.00 36.37 LIG 0.07  C 
BRANCH 6 7
ATOM      7  CG  TYR B   4      -1.742  19.664  13.503  1.00 36.28 LIG-0.06  A 
ATOM      8  CD2 TYR B   4      -1.251  18.364  13.625  1.00 36.38 LIG 0.01  A 
ATOM      9  CE2 TYR B   4      -1.950  17.388  14.326  1.00 36.34 LIG 0.04  A 
ATOM     10  CZ  TYR B   4      -3.179  17.699  14.884  1.00 42.86 LIG 0.07  A 
ATOM     11  CE1 TYR B   4      -3.696  18.980  14.763  1.00 38.54 LIG 0.04  A 
ATOM     12  CD1 TYR B   4      -2.983  19.950  14.072  1.00 37.84 LIG 0.01  A 
BRANCH 10 13
ATOM     13 OH   TYR B   4      -3.891  16.748  15.563  1.00 44.02 LIG-0.36  OA
ATOM     14 HH   TYR B   4      -3.507  16.577  16.291  1.00 44.02 LIG 0.22  HD
ENDBRANCH 10 13
ENDBRANCH 6 7
ENDBRANCH 5 6
BRANCH 5 15
ATOM     15  C   TYR B   4       0.454  19.372  11.092  1.00 47.41 LIG 0.24  C 
ATOM     16  N   MET B   5       1.592  20.058  11.119  1.00 49.29 LIG-0.35  N 
ATOM     17 H    MET B   5       1.640  20.914  11.170  1.00 49.29 LIG 0.16  HD
ATOM     18 O    TYR B   4       0.411  18.145  10.974  1.00 47.26 LIG-0.27  OA
BRANCH 16 19
ATOM     19  CA  MET B   5       2.875  19.381  11.062  1.00 52.16 LIG 0.18  C 
BRANCH 19 20
ATOM     20  CB  MET B   5       3.266  19.065   9.619  1.00 55.77 LIG 0.04  C 
BRANCH 20 21
ATOM     21  CG  MET B   5       3.785  17.638   9.453  1.00 61.00 LIG 0.08  C 
BRANCH 21 22
ATOM     22 SD   MET B   5       3.542  16.629  10.924  1.00 67.05 LIG-0.17  SA
ATOM     23  CE  MET B   5       2.205  15.594  10.371  1.00 63.64 LIG 0.09  C 
ENDBRANCH 21 22
ENDBRANCH 20 21
ENDBRANCH 19 20
BRANCH 19 24
ATOM     24  C   MET B   5       3.862  20.282  11.776  1.00 55.98 LIG 0.24  C 
ATOM     25 O    MET B   5       3.508  20.876  12.795  1.00 56.32 LIG-0.27  OA
ATOM     26  N   LEU B   6       5.122  20.287  11.326  1.00 51.23 LIG-0.35  N 
ATOM     27 H    LEU B   6       5.381  19.852  10.631  1.00 51.23 LIG 0.16  HD
BRANCH 26 28
ATOM     28  CA  LEU B   6       6.183  21.044  11.988  1.00 69.26 LIG 0.16  C 
BRANCH 28 29
ATOM     29  C   LEU B   6       7.377  21.254  11.059  1.00 97.67 LIG 0.22  C 
ATOM     30 O    LEU B   6       8.362  20.520  11.121  1.00 61.20 LIG-0.29  OA
ENDBRANCH 28 29
BRANCH 28 31
ATOM     31  CB  LEU B   6       6.609  20.327  13.284  1.00 69.14 LIG 0.04  C 
BRANCH 31 32
ATOM     32  CG  LEU B   6       7.294  21.206  14.330  1.00 73.60 LIG-0.02  C 
ATOM     33  CD2 LEU B   6       7.597  20.425  15.586  1.00 75.76 LIG 0.01  C 
ATOM     34  CD1 LEU B   6       6.487  22.453  14.613  1.00 73.41 LIG 0.01  C 
ENDBRANCH 31 32
ENDBRANCH 28 31
ENDBRANCH 26 28
ENDBRANCH 19 24
ENDBRANCH 16 19
ENDBRANCH 5 15
ENDBRANCH 3 5
BRANCH 1 35
ATOM     35  CA  LEU B   3      -3.588  18.377   9.255  1.00 32.52 LIG 0.18  C 
BRANCH 35 36
ATOM     36  CB  LEU B   3      -3.921  18.245   7.755  1.00 32.14 LIG 0.04  C 
BRANCH 36 37
ATOM     37  CG  LEU B   3      -2.921  17.409   6.938  1.00 34.99 LIG-0.02  C 
ATOM     38  CD2 LEU B   3      -3.650  16.508   5.909  1.00 35.91 LIG 0.01  C 
ATOM     39  CD1 LEU B   3      -1.982  16.616   7.876  1.00 33.16 LIG 0.01  C 
ENDBRANCH 36 37
ENDBRANCH 35 36
BRANCH 35 40
ATOM     40  N   LEU B   3      -4.735  18.892   9.996  1.00 32.48 LIG-0.35  N 
ATOM     41  C   ASN B   2      -4.869  18.653  11.314  1.00 36.40 LIG 0.24  C 
ATOM     42 O    ASN B   2      -4.059  17.974  11.958  1.00 34.95 LIG-0.27  OA
ATOM     43 H    LEU B   3      -5.295  19.344   9.526  1.00 32.48 LIG 0.16  HD
BRANCH 41 44
ATOM     44  CA  ASN B   2      -6.130  19.183  12.003  1.00 32.65 LIG 0.18  C 
BRANCH 44 45
ATOM     45  N   ASN B   2      -6.677  20.212  11.125  1.00 32.45 LIG-0.34  N 
ATOM     46 H    ASN B   2      -7.256  19.898  10.573  1.00 32.45 LIG 0.16  HD
ATOM     47  C   THR B   1      -6.347  21.508  11.141  1.00 35.22 LIG 0.25  C 
ATOM     48 O    THR B   1      -5.616  22.032  12.004  1.00 34.61 LIG-0.27  OA
BRANCH 47 49
ATOM     49  CA  THR B   1      -6.961  22.305  10.017  1.00 32.53 LIG 0.30  C 
BRANCH 49 50
ATOM     50  CB  THR B   1      -6.056  23.489   9.644  1.00 31.51 LIG 0.15  C 
ATOM     51  CG2 THR B   1      -4.770  23.062   8.870  1.00 30.77 LIG 0.04  C 
BRANCH 50 52
ATOM     52 OG1  THR B   1      -6.814  24.423   8.874  1.00 21.64 LIG-0.39  OA
ATOM     53 HG1  THR B   1      -6.488  24.478   8.102  1.00 21.64 LIG 0.21  HD
ENDBRANCH 50 52
ENDBRANCH 49 50
BRANCH 49 54
ATOM     54  N   THR B   1      -8.318  22.735  10.343  1.00 34.33 LIG-0.06  N 
ATOM     55 H2   THR B   1      -8.701  23.082   9.617  1.00 34.33 LIG 0.28  HD
ATOM     56 H1   THR B   1      -8.288  23.351  10.985  1.00 34.33 LIG 0.28  HD
ATOM     57 H3   THR B   1      -8.792  22.037  10.623  1.00 34.33 LIG 0.28  HD
ENDBRANCH 49 54
ENDBRANCH 47 49
ENDBRANCH 44 45
BRANCH 44 58
ATOM     58  CB  ASN B   2      -7.161  18.071  12.273  1.00 33.77 LIG 0.14  C 
BRANCH 58 59
ATOM     59  CG  ASN B   2      -6.546  16.782  12.782  1.00 47.71 LIG 0.22  C 
ATOM     60 OD1  ASN B   2      -6.431  16.543  13.989  1.00 37.59 LIG-0.27  OA
ATOM     61  ND2 ASN B   2      -6.106  15.930  11.869  1.00 40.38 LIG-0.37  N 
ATOM     62 22HD ASN B   2      -6.194  16.111  11.033  1.00 40.38 LIG 0.16  HD
ATOM     63 21HD ASN B   2      -5.732  15.195  12.112  1.00 40.38 LIG 0.16  HD
ENDBRANCH 58 59
ENDBRANCH 44 58
ENDBRANCH 41 44
ENDBRANCH 35 40
ENDBRANCH 1 35
TORSDOF 26
ENDMDL
MODEL 26
USER: ADFR SOLUTION from run 15
USER: SCORE 18.937036 LL:  -5.081 LR: -16.399 RR:   0.000 FEB:  -8.644
USER: RMSD 6.419253
USER: SEED 88926
USER: STATUS no improvement in best in 4 clusters for 5 generations
USER: GENES 28
USER: genes 0 Translation |==|  0.38290 0.43164 0.41309
USER: genes 1 Rotation |==|  0.36437 0.58949 0.27541 0.91612
USER: genes 2 Torsion [C]-N--CA-[CB] |==|  0.85824
USER: genes 3 Torsion [N]-CA--CB-[CG] |==|  0.40816
USER: genes 4 Torsion [CA]-CB--CG-[CD2] |==|  0.69864
USER: genes 5 Torsion [CE2]-CZ--OH-[HH] |==|  0.72834
USER: genes 6 Torsion [N]-CA--C-[N] |==|  0.85556
USER: genes 7 Torsion [C]-N--CA-[CB] |==|  0.79904
USER: genes 8 Torsion [N]-CA--CB-[CG] |==|  0.75982
USER: genes 9 Torsion [CA]-CB--CG-[SD] |==|  0.91530
USER: genes 10 Torsion [CB]-CG--SD-[CE] |==|  0.28305
USER: genes 11 Torsion [N]-CA--C-[N] |==|  0.71247
USER: genes 12 Torsion [C]-N--CA-[C] |==|  0.13034
USER: genes 13 Torsion [N]-CA--C-[O] |==|  0.63538
USER: genes 14 Torsion [N]-CA--CB-[CG] |==|  0.60166
USER: genes 15 Torsion [CA]-CB--CG-[CD1] |==|  0.55366
USER: genes 16 Torsion [N]-C--CA-[N] |==|  0.82381
USER: genes 17 Torsion [C]-CA--CB-[CG] |==|  0.34235
USER: genes 18 Torsion [CA]-CB--CG-[CD2] |==|  0.63930
USER: genes 19 Torsion [C]-CA--N-[C] |==|  0.65139
USER: genes 20 Torsion [N]-C--CA-[N] |==|  0.12232
USER: genes 21 Torsion [C]-CA--N-[C] |==|  0.57941
USER: genes 22 Torsion [N]-C--CA-[N] |==|  0.24731
USER: genes 23 Torsion [C]-CA--CB-[CG2] |==|  0.71499
USER: genes 24 Torsion [CA]-CB--OG1-[HG1] |==|  0.27782
USER: genes 25 Torsion [C]-CA--N-[H2] |==|  0.43624
USER: genes 26 Torsion [C]-CA--CB-[CG] |==|  0.15931
USER: genes 27 Torsion [CA]-CB--CG-[OD1] |==|  0.23284
ROOT
ATOM      1  C   LEU B   3      -1.171  19.306  11.283  1.00 37.56 LIG 0.24  C 
ATOM      2 O    LEU B   3      -0.773  18.438  12.084  1.00 36.01 LIG-0.27  OA
ATOM      3  N   TYR B   4      -0.627  20.552  11.172  1.00 34.90 LIG-0.35  N 
ATOM      4 H    TYR B   4      -0.926  21.121  10.601  1.00 34.90 LIG 0.16  HD
ENDROOT
BRANCH 3 5
ATOM      5  CA  TYR B   4       0.486  21.092  11.957  1.00 36.24 LIG 0.18  C 
BRANCH 5 6
ATOM      6  CB  TYR B   4       0.238  20.895  13.467  1.00 36.37 LIG 0.07  C 
BRANCH 6 7
ATOM      7  CG  TYR B   4       1.540  20.668  14.190  1.00 36.28 LIG-0.06  A 
ATOM      8  CD2 TYR B   4       1.872  19.414  14.702  1.00 36.38 LIG 0.01  A 
ATOM      9  CE2 TYR B   4       3.044  19.212  15.421  1.00 36.34 LIG 0.04  A 
ATOM     10  CZ  TYR B   4       3.884  20.285  15.671  1.00 42.86 LIG 0.07  A 
ATOM     11  CE1 TYR B   4       3.569  21.544  15.186  1.00 38.54 LIG 0.04  A 
ATOM     12  CD1 TYR B   4       2.401  21.731  14.457  1.00 37.84 LIG 0.01  A 
BRANCH 10 13
ATOM     13 OH   TYR B   4       5.034  20.110  16.392  1.00 44.02 LIG-0.36  OA
ATOM     14 HH   TYR B   4       4.900  20.331  17.191  1.00 44.02 LIG 0.22  HD
ENDBRANCH 10 13
ENDBRANCH 6 7
ENDBRANCH 5 6
BRANCH 5 15
ATOM     15  C   TYR B   4       1.820  20.498  11.518  1.00 47.41 LIG 0.24  C 
ATOM     16  N   MET B   5       1.866  19.171  11.473  1.00 49.29 LIG-0.35  N 
ATOM     17 H    MET B   5       1.220  18.657  11.711  1.00 49.29 LIG 0.16  HD
ATOM     18 O    TYR B   4       2.777  21.214  11.212  1.00 47.26 LIG-0.27  OA
BRANCH 16 19
ATOM     19  CA  MET B   5       3.050  18.478  11.001  1.00 52.16 LIG 0.18  C 
BRANCH 19 20
ATOM     20  CB  MET B   5       3.205  18.622   9.488  1.00 55.77 LIG 0.04  C 
BRANCH 20 21
ATOM     21  CG  MET B   5       2.433  17.555   8.716  1.00 61.00 LIG 0.08  C 
BRANCH 21 22
ATOM     22 SD   MET B   5       2.295  16.002   9.617  1.00 67.05 LIG-0.17  SA
ATOM     23  CE  MET B   5       0.623  16.135  10.210  1.00 63.64 LIG 0.09  C 
ENDBRANCH 21 22
ENDBRANCH 20 21
ENDBRANCH 19 20
BRANCH 19 24
ATOM     24  C   MET B   5       4.215  19.044  11.787  1.00 55.98 LIG 0.24  C 
ATOM     25 O    MET B   5       4.452  18.605  12.914  1.00 56.32 LIG-0.27  OA
ATOM     26  N   LEU B   6       5.012  19.916  11.159  1.00 51.23 LIG-0.35  N 
ATOM     27 H    LEU B   6       4.867  20.205  10.362  1.00 51.23 LIG 0.16  HD
BRANCH 26 28
ATOM     28  CA  LEU B   6       6.218  20.460  11.782  1.00 69.26 LIG 0.16  C 
BRANCH 28 29
ATOM     29  C   LEU B   6       7.052  19.358  12.432  1.00 97.67 LIG 0.22  C 
ATOM     30 O    LEU B   6       7.469  19.477  13.583  1.00 61.20 LIG-0.29  OA
ENDBRANCH 28 29
BRANCH 28 31
ATOM     31  CB  LEU B   6       5.835  21.543  12.809  1.00 69.14 LIG 0.04  C 
BRANCH 31 32
ATOM     32  CG  LEU B   6       6.786  22.736  12.897  1.00 73.60 LIG-0.02  C 
ATOM     33  CD2 LEU B   6       8.216  22.312  12.666  1.00 75.76 LIG 0.01  C 
ATOM     34  CD1 LEU B   6       6.614  23.481  14.200  1.00 73.41 LIG 0.01  C 
ENDBRANCH 31 32
ENDBRANCH 28 31
ENDBRANCH 26 28
ENDBRANCH 19 24
ENDBRANCH 16 19
ENDBRANCH 5 15
ENDBRANCH 3 5
BRANCH 1 35
ATOM     35  CA  LEU B   3      -2.383  19.014  10.396  1.00 32.52 LIG 0.18  C 
BRANCH 35 36
ATOM     36  CB  LEU B   3      -2.025  19.138   8.901  1.00 32.14 LIG 0.04  C 
BRANCH 36 37
ATOM     37  CG  LEU B   3      -2.304  17.880   8.060  1.00 34.99 LIG-0.02  C 
ATOM     38  CD2 LEU B   3      -1.068  17.485   7.213  1.00 35.91 LIG 0.01  C 
ATOM     39  CD1 LEU B   3      -3.582  18.067   7.209  1.00 33.16 LIG 0.01  C 
ENDBRANCH 36 37
ENDBRANCH 35 36
BRANCH 35 40
ATOM     40  N   LEU B   3      -3.516  19.872  10.729  1.00 32.48 LIG-0.35  N 
ATOM     41  C   ASN B   2      -4.717  19.343  11.028  1.00 36.40 LIG 0.24  C 
ATOM     42 O    ASN B   2      -4.937  18.126  11.010  1.00 34.95 LIG-0.27  OA
ATOM     43 H    LEU B   3      -3.346  20.715  10.716  1.00 32.48 LIG 0.16  HD
BRANCH 41 44
ATOM     44  CA  ASN B   2      -5.865  20.316  11.311  1.00 32.65 LIG 0.18  C 
BRANCH 44 45
ATOM     45  N   ASN B   2      -5.788  21.354  10.288  1.00 32.45 LIG-0.34  N 
ATOM     46 H    ASN B   2      -5.444  21.067   9.555  1.00 32.45 LIG 0.16  HD
ATOM     47  C   THR B   1      -6.195  22.620  10.430  1.00 35.22 LIG 0.25  C 
ATOM     48 O    THR B   1      -6.818  23.048  11.421  1.00 34.61 LIG-0.27  OA
BRANCH 47 49
ATOM     49  CA  THR B   1      -5.849  23.503   9.256  1.00 32.53 LIG 0.30  C 
BRANCH 49 50
ATOM     50  CB  THR B   1      -5.535  24.929   9.733  1.00 31.51 LIG 0.15  C 
ATOM     51  CG2 THR B   1      -6.705  25.933   9.490  1.00 30.77 LIG 0.04  C 
BRANCH 50 52
ATOM     52 OG1  THR B   1      -5.195  24.887  11.119  1.00 21.64 LIG-0.39  OA
ATOM     53 HG1  THR B   1      -4.360  24.913  11.203  1.00 21.64 LIG 0.21  HD
ENDBRANCH 50 52
ENDBRANCH 49 50
BRANCH 49 54
ATOM     54  N   THR B   1      -6.899  23.485   8.241  1.00 34.33 LIG-0.06  N 
ATOM     55 H2   THR B   1      -6.848  24.225   7.748  1.00 34.33 LIG 0.28  HD
ATOM     56 H1   THR B   1      -7.695  23.447   8.639  1.00 34.33 LIG 0.28  HD
ATOM     57 H3   THR B   1      -6.795  22.773   7.718  1.00 34.33 LIG 0.28  HD
ENDBRANCH 49 54
ENDBRANCH 47 49
ENDBRANCH 44 45
BRANCH 44 58
ATOM     58  CB  ASN B   2      -7.239  19.621  11.300  1.00 33.77 LIG 0.14  C 
BRANCH 58 59
ATOM     59  CG  ASN B   2      -7.349  18.477  12.289  1.00 47.71 LIG 0.22  C 
ATOM     60 OD1  ASN B   2      -7.632  18.664  13.478  1.00 37.59 LIG-0.27  OA
ATOM     61  ND2 ASN B   2      -7.097  17.262  11.827  1.00 40.38 LIG-0.37  N 
ATOM     62 22HD ASN B   2      -6.903  17.149  10.997  1.00 40.38 LIG 0.16  HD
ATOM     63 21HD ASN B   2      -7.129  16.585  12.357  1.00 40.38 LIG 0.16  HD
ENDBRANCH 58 59
ENDBRANCH 44 58
ENDBRANCH 41 44
ENDBRANCH 35 40
ENDBRANCH 1 35
TORSDOF 26
ENDMDL
MODEL 27
USER: ADFR SOLUTION from run 101
USER: SCORE 20.754544 LL:  -6.119 LR: -16.371 RR:   0.000 FEB:  -8.615
USER: RMSD 7.049690
USER: SEED 100
USER: STATUS no improvement in best in 3 clusters for 5 generations
USER: GENES 28
USER: genes 0 Translation |==|  0.37167 0.42872 0.48685
USER: genes 1 Rotation |==|  0.99345 0.44906 0.56248 0.50333
USER: genes 2 Torsion [C]-N--CA-[CB] |==|  0.75426
USER: genes 3 Torsion [N]-CA--CB-[CG] |==|  0.60563
USER: genes 4 Torsion [CA]-CB--CG-[CD2] |==|  0.78402
USER: genes 5 Torsion [CE2]-CZ--OH-[HH] |==|  0.79534
USER: genes 6 Torsion [N]-CA--C-[N] |==|  0.13412
USER: genes 7 Torsion [C]-N--CA-[CB] |==|  0.88420
USER: genes 8 Torsion [N]-CA--CB-[CG] |==|  0.47137
USER: genes 9 Torsion [CA]-CB--CG-[SD] |==|  0.72502
USER: genes 10 Torsion [CB]-CG--SD-[CE] |==|  0.92754
USER: genes 11 Torsion [N]-CA--C-[N] |==|  0.84444
USER: genes 12 Torsion [C]-N--CA-[C] |==|  0.64571
USER: genes 13 Torsion [N]-CA--C-[O] |==|  0.77529
USER: genes 14 Torsion [N]-CA--CB-[CG] |==|  0.68472
USER: genes 15 Torsion [CA]-CB--CG-[CD1] |==|  0.72779
USER: genes 16 Torsion [N]-C--CA-[N] |==|  0.81867
USER: genes 17 Torsion [C]-CA--CB-[CG] |==|  0.08342
USER: genes 18 Torsion [CA]-CB--CG-[CD2] |==|  0.58331
USER: genes 19 Torsion [C]-CA--N-[C] |==|  0.82948
USER: genes 20 Torsion [N]-C--CA-[N] |==|  0.88910
USER: genes 21 Torsion [C]-CA--N-[C] |==|  0.77833
USER: genes 22 Torsion [N]-C--CA-[N] |==|  0.33553
USER: genes 23 Torsion [C]-CA--CB-[CG2] |==|  0.23173
USER: genes 24 Torsion [CA]-CB--OG1-[HG1] |==|  0.49967
USER: genes 25 Torsion [C]-CA--N-[H2] |==|  0.70419
USER: genes 26 Torsion [C]-CA--CB-[CG] |==|  0.39020
USER: genes 27 Torsion [CA]-CB--CG-[OD1] |==|  0.79872
ROOT
ATOM      1  C   LEU B   3      -1.407  19.255  13.053  1.00 37.56 LIG 0.24  C 
ATOM      2 O    LEU B   3      -0.280  19.661  12.708  1.00 36.01 LIG-0.27  OA
ATOM      3  N   TYR B   4      -2.184  18.423  12.303  1.00 34.90 LIG-0.35  N 
ATOM      4 H    TYR B   4      -2.954  18.159  12.578  1.00 34.90 LIG 0.16  HD
ENDROOT
BRANCH 3 5
ATOM      5  CA  TYR B   4      -1.855  17.875  10.984  1.00 36.24 LIG 0.18  C 
BRANCH 5 6
ATOM      6  CB  TYR B   4      -2.315  18.830   9.863  1.00 36.37 LIG 0.07  C 
BRANCH 6 7
ATOM      7  CG  TYR B   4      -2.850  18.050   8.691  1.00 36.28 LIG-0.06  A 
ATOM      8  CD2 TYR B   4      -1.991  17.426   7.786  1.00 36.38 LIG 0.01  A 
ATOM      9  CE2 TYR B   4      -2.477  16.755   6.670  1.00 36.34 LIG 0.04  A 
ATOM     10  CZ  TYR B   4      -3.841  16.735   6.427  1.00 42.86 LIG 0.07  A 
ATOM     11  CE1 TYR B   4      -4.714  17.360   7.303  1.00 38.54 LIG 0.04  A 
ATOM     12  CD1 TYR B   4      -4.218  18.017   8.422  1.00 37.84 LIG 0.01  A 
BRANCH 10 13
ATOM     13 OH   TYR B   4      -4.337  16.094   5.325  1.00 44.02 LIG-0.36  OA
ATOM     14 HH   TYR B   4      -4.170  16.548   4.638  1.00 44.02 LIG 0.22  HD
ENDBRANCH 10 13
ENDBRANCH 6 7
ENDBRANCH 5 6
BRANCH 5 15
ATOM     15  C   TYR B   4      -0.373  17.538  10.872  1.00 47.41 LIG 0.24  C 
ATOM     16  N   MET B   5       0.130  16.837  11.882  1.00 49.29 LIG-0.35  N 
ATOM     17 H    MET B   5      -0.314  16.613  12.584  1.00 49.29 LIG 0.16  HD
ATOM     18 O    TYR B   4       0.298  17.884   9.896  1.00 47.26 LIG-0.27  OA
BRANCH 16 19
ATOM     19  CA  MET B   5       1.509  16.385  11.868  1.00 52.16 LIG 0.18  C 
BRANCH 19 20
ATOM     20  CB  MET B   5       1.904  15.867  10.485  1.00 55.77 LIG 0.04  C 
BRANCH 20 21
ATOM     21  CG  MET B   5       3.405  15.620  10.359  1.00 61.00 LIG 0.08  C 
BRANCH 21 22
ATOM     22 SD   MET B   5       4.270  16.969   9.539  1.00 67.05 LIG-0.17  SA
ATOM     23  CE  MET B   5       2.945  17.633   8.556  1.00 63.64 LIG 0.09  C 
ENDBRANCH 21 22
ENDBRANCH 20 21
ENDBRANCH 19 20
BRANCH 19 24
ATOM     24  C   MET B   5       2.345  17.558  12.338  1.00 55.98 LIG 0.24  C 
ATOM     25 O    MET B   5       3.176  17.387  13.231  1.00 56.32 LIG-0.27  OA
ATOM     26  N   LEU B   6       2.222  18.707  11.663  1.00 51.23 LIG-0.35  N 
ATOM     27 H    LEU B   6       1.663  18.825  11.020  1.00 51.23 LIG 0.16  HD
BRANCH 26 28
ATOM     28  CA  LEU B   6       3.042  19.880  11.964  1.00 69.26 LIG 0.16  C 
BRANCH 28 29
ATOM     29  C   LEU B   6       2.177  21.119  12.188  1.00 97.67 LIG 0.22  C 
ATOM     30 O    LEU B   6       1.738  21.763  11.237  1.00 61.20 LIG-0.29  OA
ENDBRANCH 28 29
BRANCH 28 31
ATOM     31  CB  LEU B   6       4.061  20.113  10.831  1.00 69.14 LIG 0.04  C 
BRANCH 31 32
ATOM     32  CG  LEU B   6       5.528  19.915  11.212  1.00 73.60 LIG-0.02  C 
ATOM     33  CD2 LEU B   6       5.670  18.922  12.340  1.00 75.76 LIG 0.01  C 
ATOM     34  CD1 LEU B   6       6.197  21.234  11.523  1.00 73.41 LIG 0.01  C 
ENDBRANCH 31 32
ENDBRANCH 28 31
ENDBRANCH 26 28
ENDBRANCH 19 24
ENDBRANCH 16 19
ENDBRANCH 5 15
ENDBRANCH 3 5
BRANCH 1 35
ATOM     35  CA  LEU B   3      -2.017  19.749  14.367  1.00 32.52 LIG 0.18  C 
BRANCH 35 36
ATOM     36  CB  LEU B   3      -2.378  18.571  15.295  1.00 32.14 LIG 0.04  C 
BRANCH 36 37
ATOM     37  CG  LEU B   3      -1.487  17.327  15.141  1.00 34.99 LIG-0.02  C 
ATOM     38  CD2 LEU B   3      -2.270  16.030  15.471  1.00 35.91 LIG 0.01  C 
ATOM     39  CD1 LEU B   3      -0.193  17.477  15.976  1.00 33.16 LIG 0.01  C 
ENDBRANCH 36 37
ENDBRANCH 35 36
BRANCH 35 40
ATOM     40  N   LEU B   3      -3.179  20.601  14.137  1.00 32.48 LIG-0.35  N 
ATOM     41  C   ASN B   2      -3.064  21.756  13.455  1.00 36.40 LIG 0.24  C 
ATOM     42 O    ASN B   2      -1.984  22.170  13.016  1.00 34.95 LIG-0.27  OA
ATOM     43 H    LEU B   3      -3.916  20.304  14.467  1.00 32.48 LIG 0.16  HD
BRANCH 41 44
ATOM     44  CA  ASN B   2      -4.322  22.616  13.307  1.00 32.65 LIG 0.18  C 
BRANCH 44 45
ATOM     45  N   ASN B   2      -5.426  21.694  13.064  1.00 32.45 LIG-0.34  N 
ATOM     46 H    ASN B   2      -5.890  21.542  13.771  1.00 32.45 LIG 0.16  HD
ATOM     47  C   THR B   1      -5.722  21.123  11.891  1.00 35.22 LIG 0.25  C 
ATOM     48 O    THR B   1      -5.165  21.410  10.813  1.00 34.61 LIG-0.27  OA
BRANCH 47 49
ATOM     49  CA  THR B   1      -6.824  20.096  11.976  1.00 32.53 LIG 0.30  C 
BRANCH 49 50
ATOM     50  CB  THR B   1      -6.276  18.695  11.663  1.00 31.51 LIG 0.15  C 
ATOM     51  CG2 THR B   1      -5.617  18.001  12.895  1.00 30.77 LIG 0.04  C 
BRANCH 50 52
ATOM     52 OG1  THR B   1      -7.336  17.890  11.146  1.00 21.64 LIG-0.39  OA
ATOM     53 HG1  THR B   1      -7.045  17.123  10.970  1.00 21.64 LIG 0.21  HD
ENDBRANCH 50 52
ENDBRANCH 49 50
BRANCH 49 54
ATOM     54  N   THR B   1      -7.953  20.446  11.119  1.00 34.33 LIG-0.06  N 
ATOM     55 H2   THR B   1      -8.631  20.729  11.621  1.00 34.33 LIG 0.28  HD
ATOM     56 H1   THR B   1      -8.206  19.729  10.655  1.00 34.33 LIG 0.28  HD
ATOM     57 H3   THR B   1      -7.711  21.092  10.557  1.00 34.33 LIG 0.28  HD
ENDBRANCH 49 54
ENDBRANCH 47 49
ENDBRANCH 44 45
BRANCH 44 58
ATOM     58  CB  ASN B   2      -4.585  23.488  14.548  1.00 33.77 LIG 0.14  C 
BRANCH 58 59
ATOM     59  CG  ASN B   2      -5.080  24.882  14.218  1.00 47.71 LIG 0.22  C 
ATOM     60 OD1  ASN B   2      -4.337  25.745  13.737  1.00 37.59 LIG-0.27  OA
ATOM     61  ND2 ASN B   2      -6.347  25.149  14.500  1.00 40.38 LIG-0.37  N 
ATOM     62 22HD ASN B   2      -6.851  24.537  14.834  1.00 40.38 LIG 0.16  HD
ATOM     63 21HD ASN B   2      -6.665  25.933  14.348  1.00 40.38 LIG 0.16  HD
ENDBRANCH 58 59
ENDBRANCH 44 58
ENDBRANCH 41 44
ENDBRANCH 35 40
ENDBRANCH 1 35
TORSDOF 26
ENDMDL
MODEL 28
USER: ADFR SOLUTION from run 167
USER: SCORE 20.776771 LL:  -5.826 LR: -16.354 RR:   0.000 FEB:  -8.598
USER: RMSD 7.229408
USER: SEED 166
USER: STATUS no improvement in best in 9 clusters for 5 generations
USER: GENES 28
USER: genes 0 Translation |==|  0.28750 0.35537 0.44850
USER: genes 1 Rotation |==|  0.68208 0.91842 0.33332 0.61826
USER: genes 2 Torsion [C]-N--CA-[CB] |==|  0.22595
USER: genes 3 Torsion [N]-CA--CB-[CG] |==|  0.67775
USER: genes 4 Torsion [CA]-CB--CG-[CD2] |==|  0.72215
USER: genes 5 Torsion [CE2]-CZ--OH-[HH] |==|  0.80510
USER: genes 6 Torsion [N]-CA--C-[N] |==|  0.86207
USER: genes 7 Torsion [C]-N--CA-[CB] |==|  0.20428
USER: genes 8 Torsion [N]-CA--CB-[CG] |==|  0.22145
USER: genes 9 Torsion [CA]-CB--CG-[SD] |==|  0.64200
USER: genes 10 Torsion [CB]-CG--SD-[CE] |==|  0.09927
USER: genes 11 Torsion [N]-CA--C-[N] |==|  0.99705
USER: genes 12 Torsion [C]-N--CA-[C] |==|  0.79810
USER: genes 13 Torsion [N]-CA--C-[O] |==|  0.15125
USER: genes 14 Torsion [N]-CA--CB-[CG] |==|  0.87212
USER: genes 15 Torsion [CA]-CB--CG-[CD1] |==|  0.90823
USER: genes 16 Torsion [N]-C--CA-[N] |==|  0.32983
USER: genes 17 Torsion [C]-CA--CB-[CG] |==|  0.79035
USER: genes 18 Torsion [CA]-CB--CG-[CD2] |==|  0.68416
USER: genes 19 Torsion [C]-CA--N-[C] |==|  0.70128
USER: genes 20 Torsion [N]-C--CA-[N] |==|  0.98492
USER: genes 21 Torsion [C]-CA--N-[C] |==|  0.72222
USER: genes 22 Torsion [N]-C--CA-[N] |==|  0.38097
USER: genes 23 Torsion [C]-CA--CB-[CG2] |==|  0.97098
USER: genes 24 Torsion [CA]-CB--OG1-[HG1] |==|  0.13459
USER: genes 25 Torsion [C]-CA--N-[H2] |==|  0.52715
USER: genes 26 Torsion [C]-CA--CB-[CG] |==|  0.38886
USER: genes 27 Torsion [CA]-CB--CG-[OD1] |==|  0.12087
ROOT
ATOM      1  C   LEU B   3      -3.174  17.990  12.133  1.00 37.56 LIG 0.24  C 
ATOM      2 O    LEU B   3      -4.122  17.645  11.400  1.00 36.01 LIG-0.27  OA
ATOM      3  N   TYR B   4      -1.862  17.736  11.859  1.00 34.90 LIG-0.35  N 
ATOM      4 H    TYR B   4      -1.236  17.997  12.386  1.00 34.90 LIG 0.16  HD
ENDROOT
BRANCH 3 5
ATOM      5  CA  TYR B   4      -1.337  17.020  10.693  1.00 36.24 LIG 0.18  C 
BRANCH 5 6
ATOM      6  CB  TYR B   4      -1.254  17.955   9.468  1.00 36.37 LIG 0.07  C 
BRANCH 6 7
ATOM      7  CG  TYR B   4      -2.181  17.480   8.379  1.00 36.28 LIG-0.06  A 
ATOM      8  CD2 TYR B   4      -1.702  16.750   7.291  1.00 36.38 LIG 0.01  A 
ATOM      9  CE2 TYR B   4      -2.541  16.361   6.254  1.00 36.34 LIG 0.04  A 
ATOM     10  CZ  TYR B   4      -3.874  16.738   6.278  1.00 42.86 LIG 0.07  A 
ATOM     11  CE1 TYR B   4      -4.371  17.476   7.341  1.00 38.54 LIG 0.04  A 
ATOM     12  CD1 TYR B   4      -3.525  17.848   8.378  1.00 37.84 LIG 0.01  A 
BRANCH 10 13
ATOM     13 OH   TYR B   4      -4.712  16.379   5.258  1.00 44.02 LIG-0.36  OA
ATOM     14 HH   TYR B   4      -4.510  16.809   4.564  1.00 44.02 LIG 0.22  HD
ENDBRANCH 10 13
ENDBRANCH 6 7
ENDBRANCH 5 6
BRANCH 5 15
ATOM     15  C   TYR B   4       0.004  16.362  10.998  1.00 47.41 LIG 0.24  C 
ATOM     16  N   MET B   5       0.909  17.150  11.568  1.00 49.29 LIG-0.35  N 
ATOM     17 H    MET B   5       0.791  17.987  11.725  1.00 49.29 LIG 0.16  HD
ATOM     18 O    TYR B   4       0.213  15.173  10.744  1.00 47.26 LIG-0.27  OA
BRANCH 16 19
ATOM     19  CA  MET B   5       2.201  16.632  11.979  1.00 52.16 LIG 0.18  C 
BRANCH 19 20
ATOM     20  CB  MET B   5       3.098  16.372  10.769  1.00 55.77 LIG 0.04  C 
BRANCH 20 21
ATOM     21  CG  MET B   5       3.750  17.646  10.239  1.00 61.00 LIG 0.08  C 
BRANCH 21 22
ATOM     22 SD   MET B   5       3.520  17.865   8.466  1.00 67.05 LIG-0.17  SA
ATOM     23  CE  MET B   5       1.879  17.203   8.284  1.00 63.64 LIG 0.09  C 
ENDBRANCH 21 22
ENDBRANCH 20 21
ENDBRANCH 19 20
BRANCH 19 24
ATOM     24  C   MET B   5       2.773  17.641  12.953  1.00 55.98 LIG 0.24  C 
ATOM     25 O    MET B   5       3.917  17.484  13.383  1.00 56.32 LIG-0.27  OA
ATOM     26  N   LEU B   6       2.042  18.734  13.203  1.00 51.23 LIG-0.35  N 
ATOM     27 H    LEU B   6       1.254  18.863  12.885  1.00 51.23 LIG 0.16  HD
BRANCH 26 28
ATOM     28  CA  LEU B   6       2.528  19.819  14.054  1.00 69.26 LIG 0.16  C 
BRANCH 28 29
ATOM     29  C   LEU B   6       2.535  19.411  15.525  1.00 97.67 LIG 0.22  C 
ATOM     30 O    LEU B   6       3.123  18.397  15.897  1.00 61.20 LIG-0.29  OA
ENDBRANCH 28 29
BRANCH 28 31
ATOM     31  CB  LEU B   6       1.671  21.082  13.834  1.00 69.14 LIG 0.04  C 
BRANCH 31 32
ATOM     32  CG  LEU B   6       1.388  21.442  12.376  1.00 73.60 LIG-0.02  C 
ATOM     33  CD2 LEU B   6       0.084  20.843  11.908  1.00 75.76 LIG 0.01  C 
ATOM     34  CD1 LEU B   6       2.546  21.061  11.481  1.00 73.41 LIG 0.01  C 
ENDBRANCH 31 32
ENDBRANCH 28 31
ENDBRANCH 26 28
ENDBRANCH 19 24
ENDBRANCH 16 19
ENDBRANCH 5 15
ENDBRANCH 3 5
BRANCH 1 35
ATOM     35  CA  LEU B   3      -3.465  18.691  13.462  1.00 32.52 LIG 0.18  C 
BRANCH 35 36
ATOM     36  CB  LEU B   3      -4.306  17.796  14.395  1.00 32.14 LIG 0.04  C 
BRANCH 36 37
ATOM     37  CG  LEU B   3      -5.795  17.688  14.023  1.00 34.99 LIG-0.02  C 
ATOM     38  CD2 LEU B   3      -6.693  18.343  15.103  1.00 35.91 LIG 0.01  C 
ATOM     39  CD1 LEU B   3      -6.177  16.218  13.731  1.00 33.16 LIG 0.01  C 
ENDBRANCH 36 37
ENDBRANCH 35 36
BRANCH 35 40
ATOM     40  N   LEU B   3      -4.113  19.983  13.261  1.00 32.48 LIG-0.35  N 
ATOM     41  C   ASN B   2      -3.441  21.131  13.469  1.00 36.40 LIG 0.24  C 
ATOM     42 O    ASN B   2      -2.269  21.160  13.862  1.00 34.95 LIG-0.27  OA
ATOM     43 H    LEU B   3      -4.933  19.940  13.007  1.00 32.48 LIG 0.16  HD
BRANCH 41 44
ATOM     44  CA  ASN B   2      -4.213  22.442  13.289  1.00 32.65 LIG 0.18  C 
BRANCH 44 45
ATOM     45  N   ASN B   2      -5.533  22.078  12.786  1.00 32.45 LIG-0.34  N 
ATOM     46 H    ASN B   2      -6.059  21.807  13.409  1.00 32.45 LIG 0.16  HD
ATOM     47  C   THR B   1      -5.925  22.140  11.509  1.00 35.22 LIG 0.25  C 
ATOM     48 O    THR B   1      -5.248  22.647  10.593  1.00 34.61 LIG-0.27  OA
BRANCH 47 49
ATOM     49  CA  THR B   1      -7.294  21.555  11.265  1.00 32.53 LIG 0.30  C 
BRANCH 49 50
ATOM     50  CB  THR B   1      -7.175  20.112  10.749  1.00 31.51 LIG 0.15  C 
ATOM     51  CG2 THR B   1      -5.716  19.713  10.363  1.00 30.77 LIG 0.04  C 
BRANCH 50 52
ATOM     52 OG1  THR B   1      -7.689  19.223  11.741  1.00 21.64 LIG-0.39  OA
ATOM     53 HG1  THR B   1      -8.436  19.500  12.005  1.00 21.64 LIG 0.21  HD
ENDBRANCH 50 52
ENDBRANCH 49 50
BRANCH 49 54
ATOM     54  N   THR B   1      -8.086  22.392  10.369  1.00 34.33 LIG-0.06  N 
ATOM     55 H2   THR B   1      -8.927  22.101  10.356  1.00 34.33 LIG 0.28  HD
ATOM     56 H1   THR B   1      -7.746  22.352   9.547  1.00 34.33 LIG 0.28  HD
ATOM     57 H3   THR B   1      -8.069  23.234  10.656  1.00 34.33 LIG 0.28  HD
ENDBRANCH 49 54
ENDBRANCH 47 49
ENDBRANCH 44 45
BRANCH 44 58
ATOM     58  CB  ASN B   2      -4.316  23.246  14.598  1.00 33.77 LIG 0.14  C 
BRANCH 58 59
ATOM     59  CG  ASN B   2      -4.145  24.740  14.410  1.00 47.71 LIG 0.22  C 
ATOM     60 OD1  ASN B   2      -4.690  25.350  13.483  1.00 37.59 LIG-0.27  OA
ATOM     61  ND2 ASN B   2      -3.354  25.364  15.270  1.00 40.38 LIG-0.37  N 
ATOM     62 22HD ASN B   2      -2.983  24.925  15.909  1.00 40.38 LIG 0.16  HD
ATOM     63 21HD ASN B   2      -3.213  26.208  15.189  1.00 40.38 LIG 0.16  HD
ENDBRANCH 58 59
ENDBRANCH 44 58
ENDBRANCH 41 44
ENDBRANCH 35 40
ENDBRANCH 1 35
TORSDOF 26
ENDMDL
MODEL 29
USER: ADFR SOLUTION from run 100
USER: SCORE 19.427127 LL:  -6.198 LR: -16.269 RR:   0.000 FEB:  -8.513
USER: RMSD 10.073066
USER: SEED 99
USER: STATUS no improvement in best in 6 clusters for 5 generations
USER: GENES 28
USER: genes 0 Translation |==|  0.56726 0.47391 0.53709
USER: genes 1 Rotation |==|  0.28873 0.05440 0.51966 0.58010
USER: genes 2 Torsion [C]-N--CA-[CB] |==|  0.55150
USER: genes 3 Torsion [N]-CA--CB-[CG] |==|  0.85577
USER: genes 4 Torsion [CA]-CB--CG-[CD2] |==|  0.24074
USER: genes 5 Torsion [CE2]-CZ--OH-[HH] |==|  0.91560
USER: genes 6 Torsion [N]-CA--C-[N] |==|  0.79851
USER: genes 7 Torsion [C]-N--CA-[CB] |==|  0.36068
USER: genes 8 Torsion [N]-CA--CB-[CG] |==|  0.05079
USER: genes 9 Torsion [CA]-CB--CG-[SD] |==|  0.19942
USER: genes 10 Torsion [CB]-CG--SD-[CE] |==|  0.61500
USER: genes 11 Torsion [N]-CA--C-[N] |==|  0.17235
USER: genes 12 Torsion [C]-N--CA-[C] |==|  0.19336
USER: genes 13 Torsion [N]-CA--C-[O] |==|  0.01528
USER: genes 14 Torsion [N]-CA--CB-[CG] |==|  0.66100
USER: genes 15 Torsion [CA]-CB--CG-[CD1] |==|  0.46670
USER: genes 16 Torsion [N]-C--CA-[N] |==|  0.22128
USER: genes 17 Torsion [C]-CA--CB-[CG] |==|  0.60051
USER: genes 18 Torsion [CA]-CB--CG-[CD2] |==|  0.59442
USER: genes 19 Torsion [C]-CA--N-[C] |==|  0.74770
USER: genes 20 Torsion [N]-C--CA-[N] |==|  0.41860
USER: genes 21 Torsion [C]-CA--N-[C] |==|  0.66404
USER: genes 22 Torsion [N]-C--CA-[N] |==|  0.74752
USER: genes 23 Torsion [C]-CA--CB-[CG2] |==|  0.35440
USER: genes 24 Torsion [CA]-CB--OG1-[HG1] |==|  0.46617
USER: genes 25 Torsion [C]-CA--N-[H2] |==|  0.70718
USER: genes 26 Torsion [C]-CA--CB-[CG] |==|  0.95739
USER: genes 27 Torsion [CA]-CB--CG-[OD1] |==|  0.69159
ROOT
ATOM      1  C   LEU B   3       2.700  20.035  14.259  1.00 37.56 LIG 0.24  C 
ATOM      2 O    LEU B   3       1.517  20.367  14.052  1.00 36.01 LIG-0.27  OA
ATOM      3  N   TYR B   4       3.694  20.121  13.328  1.00 34.90 LIG-0.35  N 
ATOM      4 H    TYR B   4       4.501  19.888  13.512  1.00 34.90 LIG 0.16  HD
ENDROOT
BRANCH 3 5
ATOM      5  CA  TYR B   4       3.559  20.594  11.948  1.00 36.24 LIG 0.18  C 
BRANCH 5 6
ATOM      6  CB  TYR B   4       4.750  20.123  11.088  1.00 36.37 LIG 0.07  C 
BRANCH 6 7
ATOM      7  CG  TYR B   4       6.054  20.486  11.750  1.00 36.28 LIG-0.06  A 
ATOM      8  CD2 TYR B   4       6.645  19.644  12.692  1.00 36.38 LIG 0.01  A 
ATOM      9  CE2 TYR B   4       7.816  20.000  13.349  1.00 36.34 LIG 0.04  A 
ATOM     10  CZ  TYR B   4       8.392  21.234  13.094  1.00 42.86 LIG 0.07  A 
ATOM     11  CE1 TYR B   4       7.817  22.095  12.173  1.00 38.54 LIG 0.04  A 
ATOM     12  CD1 TYR B   4       6.653  21.722  11.513  1.00 37.84 LIG 0.01  A 
BRANCH 10 13
ATOM     13 OH   TYR B   4       9.536  21.610  13.744  1.00 44.02 LIG-0.36  OA
ATOM     14 HH   TYR B   4       9.556  21.255  14.506  1.00 44.02 LIG 0.22  HD
ENDBRANCH 10 13
ENDBRANCH 6 7
ENDBRANCH 5 6
BRANCH 5 15
ATOM     15  C   TYR B   4       2.222  20.180  11.343  1.00 47.41 LIG 0.24  C 
ATOM     16  N   MET B   5       2.106  18.890  11.046  1.00 49.29 LIG-0.35  N 
ATOM     17 H    MET B   5       2.738  18.314  11.136  1.00 49.29 LIG 0.16  HD
ATOM     18 O    TYR B   4       1.313  20.995  11.164  1.00 47.26 LIG-0.27  OA
BRANCH 16 19
ATOM     19  CA  MET B   5       0.861  18.348  10.534  1.00 52.16 LIG 0.18  C 
BRANCH 19 20
ATOM     20  CB  MET B   5       1.101  17.519   9.273  1.00 55.77 LIG 0.04  C 
BRANCH 20 21
ATOM     21  CG  MET B   5       2.560  17.095   9.119  1.00 61.00 LIG 0.08  C 
BRANCH 21 22
ATOM     22 SD   MET B   5       3.048  15.827  10.302  1.00 67.05 LIG-0.17  SA
ATOM     23  CE  MET B   5       4.662  16.426  10.748  1.00 63.64 LIG 0.09  C 
ENDBRANCH 21 22
ENDBRANCH 20 21
ENDBRANCH 19 20
BRANCH 19 24
ATOM     24  C   MET B   5       0.240  17.562  11.669  1.00 55.98 LIG 0.24  C 
ATOM     25 O    MET B   5       0.166  16.335  11.583  1.00 56.32 LIG-0.27  OA
ATOM     26  N   LEU B   6      -0.086  18.238  12.776  1.00 51.23 LIG-0.35  N 
ATOM     27 H    LEU B   6      -0.011  19.092  12.852  1.00 51.23 LIG 0.16  HD
BRANCH 26 28
ATOM     28  CA  LEU B   6      -0.607  17.575  13.970  1.00 69.26 LIG 0.16  C 
BRANCH 28 29
ATOM     29  C   LEU B   6       0.470  16.735  14.653  1.00 97.67 LIG 0.22  C 
ATOM     30 O    LEU B   6       1.633  16.753  14.254  1.00 61.20 LIG-0.29  OA
ENDBRANCH 28 29
BRANCH 28 31
ATOM     31  CB  LEU B   6      -1.831  16.713  13.601  1.00 69.14 LIG 0.04  C 
BRANCH 31 32
ATOM     32  CG  LEU B   6      -3.124  17.051  14.341  1.00 73.60 LIG-0.02  C 
ATOM     33  CD2 LEU B   6      -3.005  16.749  15.816  1.00 75.76 LIG 0.01  C 
ATOM     34  CD1 LEU B   6      -4.313  16.363  13.711  1.00 73.41 LIG 0.01  C 
ENDBRANCH 31 32
ENDBRANCH 28 31
ENDBRANCH 26 28
ENDBRANCH 19 24
ENDBRANCH 16 19
ENDBRANCH 5 15
ENDBRANCH 3 5
BRANCH 1 35
ATOM     35  CA  LEU B   3       3.089  19.432  15.611  1.00 32.52 LIG 0.18  C 
BRANCH 35 36
ATOM     36  CB  LEU B   3       1.862  18.840  16.334  1.00 32.14 LIG 0.04  C 
BRANCH 36 37
ATOM     37  CG  LEU B   3       1.864  19.009  17.862  1.00 34.99 LIG-0.02  C 
ATOM     38  CD2 LEU B   3       1.198  17.797  18.563  1.00 35.91 LIG 0.01  C 
ATOM     39  CD1 LEU B   3       1.228  20.361  18.262  1.00 33.16 LIG 0.01  C 
ENDBRANCH 36 37
ENDBRANCH 35 36
BRANCH 35 40
ATOM     40  N   LEU B   3       3.772  20.402  16.460  1.00 32.48 LIG-0.35  N 
ATOM     41  C   ASN B   2       5.113  20.519  16.433  1.00 36.40 LIG 0.24  C 
ATOM     42 O    ASN B   2       5.834  19.807  15.724  1.00 34.95 LIG-0.27  OA
ATOM     43 H    LEU B   3       3.253  20.873  16.959  1.00 32.48 LIG 0.16  HD
BRANCH 41 44
ATOM     44  CA  ASN B   2       5.752  21.523  17.397  1.00 32.65 LIG 0.18  C 
BRANCH 44 45
ATOM     45  N   ASN B   2       7.081  21.008  17.707  1.00 32.45 LIG-0.34  N 
ATOM     46 H    ASN B   2       7.569  20.915  17.005  1.00 32.45 LIG 0.16  HD
ATOM     47  C   THR B   1       7.534  20.703  18.928  1.00 35.22 LIG 0.25  C 
ATOM     48 O    THR B   1       6.916  20.943  19.984  1.00 34.61 LIG-0.27  OA
BRANCH 47 49
ATOM     49  CA  THR B   1       8.893  20.047  18.924  1.00 32.53 LIG 0.30  C 
BRANCH 49 50
ATOM     50  CB  THR B   1       9.758  20.615  17.788  1.00 31.51 LIG 0.15  C 
ATOM     51  CG2 THR B   1      11.153  21.123  18.269  1.00 30.77 LIG 0.04  C 
BRANCH 50 52
ATOM     52 OG1  THR B   1       9.913  19.613  16.782  1.00 21.64 LIG-0.39  OA
ATOM     53 HG1  THR B   1      10.238  19.960  16.089  1.00 21.64 LIG 0.21  HD
ENDBRANCH 50 52
ENDBRANCH 49 50
BRANCH 49 54
ATOM     54  N   THR B   1       8.789  18.593  18.857  1.00 34.33 LIG-0.06  N 
ATOM     55 H2   THR B   1       8.975  18.244  19.655  1.00 34.33 LIG 0.28  HD
ATOM     56 H1   THR B   1       9.366  18.281  18.255  1.00 34.33 LIG 0.28  HD
ATOM     57 H3   THR B   1       7.962  18.364  18.619  1.00 34.33 LIG 0.28  HD
ENDBRANCH 49 54
ENDBRANCH 47 49
ENDBRANCH 44 45
BRANCH 44 58
ATOM     58  CB  ASN B   2       5.826  22.941  16.801  1.00 33.77 LIG 0.14  C 
BRANCH 58 59
ATOM     59  CG  ASN B   2       5.608  22.983  15.302  1.00 47.71 LIG 0.22  C 
ATOM     60 OD1  ASN B   2       6.519  23.265  14.515  1.00 37.59 LIG-0.27  OA
ATOM     61  ND2 ASN B   2       4.381  22.734  14.869  1.00 40.38 LIG-0.37  N 
ATOM     62 22HD ASN B   2       3.759  22.539  15.429  1.00 40.38 LIG 0.16  HD
ATOM     63 21HD ASN B   2       4.207  22.766  14.027  1.00 40.38 LIG 0.16  HD
ENDBRANCH 58 59
ENDBRANCH 44 58
ENDBRANCH 41 44
ENDBRANCH 35 40
ENDBRANCH 1 35
TORSDOF 26
ENDMDL
MODEL 30
USER: ADFR SOLUTION from run 7
USER: SCORE 19.725567 LL:  -5.048 LR: -16.274 RR:   0.000 FEB:  -8.518
USER: RMSD 5.952481
USER: SEED 290028
USER: STATUS no improvement in best in 6 clusters for 5 generations
USER: GENES 28
USER: genes 0 Translation |==|  0.38928 0.39406 0.34687
USER: genes 1 Rotation |==|  0.47586 0.74007 0.48246 0.93758
USER: genes 2 Torsion [C]-N--CA-[CB] |==|  0.57430
USER: genes 3 Torsion [N]-CA--CB-[CG] |==|  0.38814
USER: genes 4 Torsion [CA]-CB--CG-[CD2] |==|  0.20993
USER: genes 5 Torsion [CE2]-CZ--OH-[HH] |==|  0.30654
USER: genes 6 Torsion [N]-CA--C-[N] |==|  0.35556
USER: genes 7 Torsion [C]-N--CA-[CB] |==|  0.26552
USER: genes 8 Torsion [N]-CA--CB-[CG] |==|  0.57190
USER: genes 9 Torsion [CA]-CB--CG-[SD] |==|  0.31457
USER: genes 10 Torsion [CB]-CG--SD-[CE] |==|  0.88167
USER: genes 11 Torsion [N]-CA--C-[N] |==|  0.30138
USER: genes 12 Torsion [C]-N--CA-[C] |==|  0.87536
USER: genes 13 Torsion [N]-CA--C-[O] |==|  0.32149
USER: genes 14 Torsion [N]-CA--CB-[CG] |==|  0.62081
USER: genes 15 Torsion [CA]-CB--CG-[CD1] |==|  0.15628
USER: genes 16 Torsion [N]-C--CA-[N] |==|  0.95430
USER: genes 17 Torsion [C]-CA--CB-[CG] |==|  0.27914
USER: genes 18 Torsion [CA]-CB--CG-[CD2] |==|  0.27556
USER: genes 19 Torsion [C]-CA--N-[C] |==|  0.82705
USER: genes 20 Torsion [N]-C--CA-[N] |==|  0.00978
USER: genes 21 Torsion [C]-CA--N-[C] |==|  0.70988
USER: genes 22 Torsion [N]-C--CA-[N] |==|  0.28684
USER: genes 23 Torsion [C]-CA--CB-[CG2] |==|  0.73928
USER: genes 24 Torsion [CA]-CB--OG1-[HG1] |==|  0.70477
USER: genes 25 Torsion [C]-CA--N-[H2] |==|  0.09897
USER: genes 26 Torsion [C]-CA--CB-[CG] |==|  0.83986
USER: genes 27 Torsion [CA]-CB--CG-[OD1] |==|  0.24460
ROOT
ATOM      1  C   LEU B   3      -1.037  18.657   9.694  1.00 37.56 LIG 0.24  C 
ATOM      2 O    LEU B   3      -0.061  17.974   9.330  1.00 36.01 LIG-0.27  OA
ATOM      3  N   TYR B   4      -0.948  19.743  10.515  1.00 34.90 LIG-0.35  N 
ATOM      4 H    TYR B   4      -1.645  20.194  10.738  1.00 34.90 LIG 0.16  HD
ENDROOT
BRANCH 3 5
ATOM      5  CA  TYR B   4       0.273  20.285  11.116  1.00 36.24 LIG 0.18  C 
BRANCH 5 6
ATOM      6  CB  TYR B   4      -0.045  21.026  12.431  1.00 36.37 LIG 0.07  C 
BRANCH 6 7
ATOM      7  CG  TYR B   4       1.007  20.734  13.470  1.00 36.28 LIG-0.06  A 
ATOM      8  CD2 TYR B   4       2.266  21.329  13.409  1.00 36.38 LIG 0.01  A 
ATOM      9  CE2 TYR B   4       3.261  21.018  14.329  1.00 36.34 LIG 0.04  A 
ATOM     10  CZ  TYR B   4       3.011  20.068  15.306  1.00 42.86 LIG 0.07  A 
ATOM     11  CE1 TYR B   4       1.772  19.450  15.378  1.00 38.54 LIG 0.04  A 
ATOM     12  CD1 TYR B   4       0.782  19.779  14.461  1.00 37.84 LIG 0.01  A 
BRANCH 10 13
ATOM     13 OH   TYR B   4       3.983  19.735  16.210  1.00 44.02 LIG-0.36  OA
ATOM     14 HH   TYR B   4       3.768  20.020  16.971  1.00 44.02 LIG 0.22  HD
ENDBRANCH 10 13
ENDBRANCH 6 7
ENDBRANCH 5 6
BRANCH 5 15
ATOM     15  C   TYR B   4       1.328  19.203  11.315  1.00 47.41 LIG 0.24  C 
ATOM     16  N   MET B   5       2.527  19.478  10.814  1.00 49.29 LIG-0.35  N 
ATOM     17 H    MET B   5       2.713  20.188  10.366  1.00 49.29 LIG 0.16  HD
ATOM     18 O    TYR B   4       1.075  18.156  11.916  1.00 47.26 LIG-0.27  OA
BRANCH 16 19
ATOM     19  CA  MET B   5       3.642  18.567  10.996  1.00 52.16 LIG 0.18  C 
BRANCH 19 20
ATOM     20  CB  MET B   5       3.798  17.640   9.791  1.00 55.77 LIG 0.04  C 
BRANCH 20 21
ATOM     21  CG  MET B   5       4.475  16.320  10.152  1.00 61.00 LIG 0.08  C 
BRANCH 21 22
ATOM     22 SD   MET B   5       3.376  14.903   9.993  1.00 67.05 LIG-0.17  SA
ATOM     23  CE  MET B   5       1.897  15.577  10.716  1.00 63.64 LIG 0.09  C 
ENDBRANCH 21 22
ENDBRANCH 20 21
ENDBRANCH 19 20
BRANCH 19 24
ATOM     24  C   MET B   5       4.858  19.431  11.259  1.00 55.98 LIG 0.24  C 
ATOM     25 O    MET B   5       5.273  20.176  10.369  1.00 56.32 LIG-0.27  OA
ATOM     26  N   LEU B   6       5.351  19.433  12.503  1.00 51.23 LIG-0.35  N 
ATOM     27 H    LEU B   6       5.049  18.935  13.136  1.00 51.23 LIG 0.16  HD
BRANCH 26 28
ATOM     28  CA  LEU B   6       6.464  20.294  12.900  1.00 69.26 LIG 0.16  C 
BRANCH 28 29
ATOM     29  C   LEU B   6       7.581  20.273  11.858  1.00 97.67 LIG 0.22  C 
ATOM     30 O    LEU B   6       7.880  21.289  11.233  1.00 61.20 LIG-0.29  OA
ENDBRANCH 28 29
BRANCH 28 31
ATOM     31  CB  LEU B   6       6.990  19.868  14.285  1.00 69.14 LIG 0.04  C 
BRANCH 31 32
ATOM     32  CG  LEU B   6       7.291  21.009  15.256  1.00 73.60 LIG-0.02  C 
ATOM     33  CD2 LEU B   6       7.849  20.485  16.557  1.00 75.76 LIG 0.01  C 
ATOM     34  CD1 LEU B   6       6.079  21.886  15.466  1.00 73.41 LIG 0.01  C 
ENDBRANCH 31 32
ENDBRANCH 28 31
ENDBRANCH 26 28
ENDBRANCH 19 24
ENDBRANCH 16 19
ENDBRANCH 5 15
ENDBRANCH 3 5
BRANCH 1 35
ATOM     35  CA  LEU B   3      -2.447  18.249   9.262  1.00 32.52 LIG 0.18  C 
BRANCH 35 36
ATOM     36  CB  LEU B   3      -2.697  18.582   7.777  1.00 32.14 LIG 0.04  C 
BRANCH 36 37
ATOM     37  CG  LEU B   3      -2.569  17.391   6.813  1.00 34.99 LIG-0.02  C 
ATOM     38  CD2 LEU B   3      -3.959  16.808   6.452  1.00 35.91 LIG 0.01  C 
ATOM     39  CD1 LEU B   3      -1.601  16.329   7.386  1.00 33.16 LIG 0.01  C 
ENDBRANCH 36 37
ENDBRANCH 35 36
BRANCH 35 40
ATOM     40  N   LEU B   3      -3.469  18.857  10.108  1.00 32.48 LIG-0.35  N 
ATOM     41  C   ASN B   2      -3.528  18.582  11.425  1.00 36.40 LIG 0.24  C 
ATOM     42 O    ASN B   2      -2.753  17.793  11.980  1.00 34.95 LIG-0.27  OA
ATOM     43 H    LEU B   3      -4.009  19.387   9.698  1.00 32.48 LIG 0.16  HD
BRANCH 41 44
ATOM     44  CA  ASN B   2      -4.665  19.219  12.228  1.00 32.65 LIG 0.18  C 
BRANCH 44 45
ATOM     45  N   ASN B   2      -5.491  19.945  11.269  1.00 32.45 LIG-0.34  N 
ATOM     46 H    ASN B   2      -5.985  19.422  10.799  1.00 32.45 LIG 0.16  HD
ATOM     47  C   THR B   1      -5.511  21.272  11.104  1.00 35.22 LIG 0.25  C 
ATOM     48 O    THR B   1      -4.916  22.078  11.846  1.00 34.61 LIG-0.27  OA
BRANCH 47 49
ATOM     49  CA  THR B   1      -6.349  21.725   9.934  1.00 32.53 LIG 0.30  C 
BRANCH 49 50
ATOM     50  CB  THR B   1      -5.566  22.728   9.071  1.00 31.51 LIG 0.15  C 
ATOM     51  CG2 THR B   1      -5.842  24.216   9.452  1.00 30.77 LIG 0.04  C 
BRANCH 50 52
ATOM     52 OG1  THR B   1      -4.172  22.437   9.177  1.00 21.64 LIG-0.39  OA
ATOM     53 HG1  THR B   1      -3.800  23.019   9.656  1.00 21.64 LIG 0.21  HD
ENDBRANCH 50 52
ENDBRANCH 49 50
BRANCH 49 54
ATOM     54  N   THR B   1      -7.633  22.265  10.369  1.00 34.33 LIG-0.06  N 
ATOM     55 H2   THR B   1      -7.527  22.701  11.138  1.00 34.33 LIG 0.28  HD
ATOM     56 H1   THR B   1      -8.213  21.599  10.483  1.00 34.33 LIG 0.28  HD
ATOM     57 H3   THR B   1      -7.945  22.826   9.752  1.00 34.33 LIG 0.28  HD
ENDBRANCH 49 54
ENDBRANCH 47 49
ENDBRANCH 44 45
BRANCH 44 58
ATOM     58  CB  ASN B   2      -5.492  18.176  13.002  1.00 33.77 LIG 0.14  C 
BRANCH 58 59
ATOM     59  CG  ASN B   2      -6.102  17.106  12.119  1.00 47.71 LIG 0.22  C 
ATOM     60 OD1  ASN B   2      -5.493  16.069  11.830  1.00 37.59 LIG-0.27  OA
ATOM     61  ND2 ASN B   2      -7.313  17.346  11.640  1.00 40.38 LIG-0.37  N 
ATOM     62 22HD ASN B   2      -7.723  18.071  11.851  1.00 40.38 LIG 0.16  HD
ATOM     63 21HD ASN B   2      -7.690  16.775  11.118  1.00 40.38 LIG 0.16  HD
ENDBRANCH 58 59
ENDBRANCH 44 58
ENDBRANCH 41 44
ENDBRANCH 35 40
ENDBRANCH 1 35
TORSDOF 26
ENDMDL
MODEL 31
USER: ADFR SOLUTION from run 102
USER: SCORE 21.453367 LL:  -6.131 LR: -16.249 RR:   0.000 FEB:  -8.493
USER: RMSD 6.006359
USER: SEED 101
USER: STATUS no improvement in best in 3 clusters for 5 generations
USER: GENES 28
USER: genes 0 Translation |==|  0.42991 0.27696 0.37138
USER: genes 1 Rotation |==|  0.60404 0.68952 0.32400 0.91507
USER: genes 2 Torsion [C]-N--CA-[CB] |==|  0.18290
USER: genes 3 Torsion [N]-CA--CB-[CG] |==|  0.23748
USER: genes 4 Torsion [CA]-CB--CG-[CD2] |==|  0.28521
USER: genes 5 Torsion [CE2]-CZ--OH-[HH] |==|  0.80261
USER: genes 6 Torsion [N]-CA--C-[N] |==|  0.88486
USER: genes 7 Torsion [C]-N--CA-[CB] |==|  0.85442
USER: genes 8 Torsion [N]-CA--CB-[CG] |==|  0.46780
USER: genes 9 Torsion [CA]-CB--CG-[SD] |==|  0.73179
USER: genes 10 Torsion [CB]-CG--SD-[CE] |==|  0.88568
USER: genes 11 Torsion [N]-CA--C-[N] |==|  0.35556
USER: genes 12 Torsion [C]-N--CA-[C] |==|  0.74334
USER: genes 13 Torsion [N]-CA--C-[O] |==|  0.22840
USER: genes 14 Torsion [N]-CA--CB-[CG] |==|  0.63401
USER: genes 15 Torsion [CA]-CB--CG-[CD1] |==|  0.55503
USER: genes 16 Torsion [N]-C--CA-[N] |==|  0.05978
USER: genes 17 Torsion [C]-CA--CB-[CG] |==|  0.42187
USER: genes 18 Torsion [CA]-CB--CG-[CD2] |==|  0.57140
USER: genes 19 Torsion [C]-CA--N-[C] |==|  0.68605
USER: genes 20 Torsion [N]-C--CA-[N] |==|  0.39078
USER: genes 21 Torsion [C]-CA--N-[C] |==|  0.81132
USER: genes 22 Torsion [N]-C--CA-[N] |==|  0.46913
USER: genes 23 Torsion [C]-CA--CB-[CG2] |==|  0.85893
USER: genes 24 Torsion [CA]-CB--OG1-[HG1] |==|  0.43618
USER: genes 25 Torsion [C]-CA--N-[H2] |==|  0.10166
USER: genes 26 Torsion [C]-CA--CB-[CG] |==|  0.28773
USER: genes 27 Torsion [CA]-CB--CG-[OD1] |==|  0.96812
ROOT
ATOM      1  C   LEU B   3      -0.184  16.638  10.282  1.00 37.56 LIG 0.24  C 
ATOM      2 O    LEU B   3       0.062  15.475   9.906  1.00 36.01 LIG-0.27  OA
ATOM      3  N   TYR B   4       0.468  17.266  11.303  1.00 34.90 LIG-0.35  N 
ATOM      4 H    TYR B   4       0.274  18.072  11.528  1.00 34.90 LIG 0.16  HD
ENDROOT
BRANCH 3 5
ATOM      5  CA  TYR B   4       1.538  16.705  12.131  1.00 36.24 LIG 0.18  C 
BRANCH 5 6
ATOM      6  CB  TYR B   4       2.803  16.442  11.289  1.00 36.37 LIG 0.07  C 
BRANCH 6 7
ATOM      7  CG  TYR B   4       3.643  17.689  11.195  1.00 36.28 LIG-0.06  A 
ATOM      8  CD2 TYR B   4       4.796  17.842  11.966  1.00 36.38 LIG 0.01  A 
ATOM      9  CE2 TYR B   4       5.542  19.014  11.929  1.00 36.34 LIG 0.04  A 
ATOM     10  CZ  TYR B   4       5.115  20.069  11.140  1.00 42.86 LIG 0.07  A 
ATOM     11  CE1 TYR B   4       3.964  19.948  10.377  1.00 38.54 LIG 0.04  A 
ATOM     12  CD1 TYR B   4       3.234  18.767  10.412  1.00 37.84 LIG 0.01  A 
BRANCH 10 13
ATOM     13 OH   TYR B   4       5.826  21.238  11.104  1.00 44.02 LIG-0.36  OA
ATOM     14 HH   TYR B   4       5.738  21.643  11.835  1.00 44.02 LIG 0.22  HD
ENDBRANCH 10 13
ENDBRANCH 6 7
ENDBRANCH 5 6
BRANCH 5 15
ATOM     15  C   TYR B   4       1.833  17.588  13.339  1.00 47.41 LIG 0.24  C 
ATOM     16  N   MET B   5       1.844  18.895  13.099  1.00 49.29 LIG-0.35  N 
ATOM     17 H    MET B   5       1.740  19.245  12.320  1.00 49.29 LIG 0.16  HD
ATOM     18 O    TYR B   4       2.028  17.109  14.459  1.00 47.26 LIG-0.27  OA
BRANCH 16 19
ATOM     19  CA  MET B   5       2.038  19.852  14.172  1.00 52.16 LIG 0.18  C 
BRANCH 19 20
ATOM     20  CB  MET B   5       1.056  19.601  15.316  1.00 55.77 LIG 0.04  C 
BRANCH 20 21
ATOM     21  CG  MET B   5       1.407  20.394  16.573  1.00 61.00 LIG 0.08  C 
BRANCH 21 22
ATOM     22 SD   MET B   5       2.353  19.432  17.766  1.00 67.05 LIG-0.17  SA
ATOM     23  CE  MET B   5       1.498  17.876  17.656  1.00 63.64 LIG 0.09  C 
ENDBRANCH 21 22
ENDBRANCH 20 21
ENDBRANCH 19 20
BRANCH 19 24
ATOM     24  C   MET B   5       3.491  19.740  14.584  1.00 55.98 LIG 0.24  C 
ATOM     25 O    MET B   5       3.988  18.625  14.746  1.00 56.32 LIG-0.27  OA
ATOM     26  N   LEU B   6       4.204  20.872  14.629  1.00 51.23 LIG-0.35  N 
ATOM     27 H    LEU B   6       3.869  21.651  14.490  1.00 51.23 LIG 0.16  HD
BRANCH 26 28
ATOM     28  CA  LEU B   6       5.636  20.880  14.923  1.00 69.26 LIG 0.16  C 
BRANCH 28 29
ATOM     29  C   LEU B   6       5.895  21.067  16.416  1.00 97.67 LIG 0.22  C 
ATOM     30 O    LEU B   6       5.840  20.114  17.191  1.00 61.20 LIG-0.29  OA
ENDBRANCH 28 29
BRANCH 28 31
ATOM     31  CB  LEU B   6       6.335  21.979  14.098  1.00 69.14 LIG 0.04  C 
BRANCH 31 32
ATOM     32  CG  LEU B   6       7.600  21.545  13.359  1.00 73.60 LIG-0.02  C 
ATOM     33  CD2 LEU B   6       8.365  20.509  14.146  1.00 75.76 LIG 0.01  C 
ATOM     34  CD1 LEU B   6       8.458  22.734  12.994  1.00 73.41 LIG 0.01  C 
ENDBRANCH 31 32
ENDBRANCH 28 31
ENDBRANCH 26 28
ENDBRANCH 19 24
ENDBRANCH 16 19
ENDBRANCH 5 15
ENDBRANCH 3 5
BRANCH 1 35
ATOM     35  CA  LEU B   3      -1.322  17.419   9.623  1.00 32.52 LIG 0.18  C 
BRANCH 35 36
ATOM     36  CB  LEU B   3      -1.414  17.109   8.115  1.00 32.14 LIG 0.04  C 
BRANCH 36 37
ATOM     37  CG  LEU B   3      -2.819  17.254   7.506  1.00 34.99 LIG-0.02  C 
ATOM     38  CD2 LEU B   3      -2.983  16.360   6.251  1.00 35.91 LIG 0.01  C 
ATOM     39  CD1 LEU B   3      -3.143  18.742   7.233  1.00 33.16 LIG 0.01  C 
ENDBRANCH 36 37
ENDBRANCH 35 36
BRANCH 35 40
ATOM     40  N   LEU B   3      -1.193  18.855   9.848  1.00 32.48 LIG-0.35  N 
ATOM     41  C   ASN B   2      -2.086  19.517  10.607  1.00 36.40 LIG 0.24  C 
ATOM     42 O    ASN B   2      -3.066  18.966  11.125  1.00 34.95 LIG-0.27  OA
ATOM     43 H    LEU B   3      -0.517  19.222   9.464  1.00 32.48 LIG 0.16  HD
BRANCH 41 44
ATOM     44  CA  ASN B   2      -1.908  21.032  10.747  1.00 32.65 LIG 0.18  C 
BRANCH 44 45
ATOM     45  N   ASN B   2      -3.247  21.610  10.708  1.00 32.45 LIG-0.34  N 
ATOM     46 H    ASN B   2      -3.479  21.951  11.462  1.00 32.45 LIG 0.16  HD
ATOM     47  C   THR B   1      -4.057  21.630   9.644  1.00 35.22 LIG 0.25  C 
ATOM     48 O    THR B   1      -3.719  21.270   8.500  1.00 34.61 LIG-0.27  OA
BRANCH 47 49
ATOM     49  CA  THR B   1      -5.439  22.158   9.944  1.00 32.53 LIG 0.30  C 
BRANCH 49 50
ATOM     50  CB  THR B   1      -6.180  21.206  10.897  1.00 31.51 LIG 0.15  C 
ATOM     51  CG2 THR B   1      -6.157  19.719  10.425  1.00 30.77 LIG 0.04  C 
BRANCH 50 52
ATOM     52 OG1  THR B   1      -5.610  21.324  12.201  1.00 21.64 LIG-0.39  OA
ATOM     53 HG1  THR B   1      -6.170  21.074  12.775  1.00 21.64 LIG 0.21  HD
ENDBRANCH 50 52
ENDBRANCH 49 50
BRANCH 49 54
ATOM     54  N   THR B   1      -6.197  22.406   8.722  1.00 34.33 LIG-0.06  N 
ATOM     55 H2   THR B   1      -6.002  21.780   8.119  1.00 34.33 LIG 0.28  HD
ATOM     56 H1   THR B   1      -5.984  23.207   8.397  1.00 34.33 LIG 0.28  HD
ATOM     57 H3   THR B   1      -7.068  22.382   8.902  1.00 34.33 LIG 0.28  HD
ENDBRANCH 49 54
ENDBRANCH 47 49
ENDBRANCH 44 45
BRANCH 44 58
ATOM     58  CB  ASN B   2      -1.169  21.418  12.041  1.00 33.77 LIG 0.14  C 
BRANCH 58 59
ATOM     59  CG  ASN B   2       0.280  21.807  11.822  1.00 47.71 LIG 0.22  C 
ATOM     60 OD1  ASN B   2       0.855  21.610  10.745  1.00 37.59 LIG-0.27  OA
ATOM     61  ND2 ASN B   2       0.917  22.342  12.852  1.00 40.38 LIG-0.37  N 
ATOM     62 22HD ASN B   2       0.502  22.473  13.594  1.00 40.38 LIG 0.16  HD
ATOM     63 21HD ASN B   2       1.746  22.560  12.779  1.00 40.38 LIG 0.16  HD
ENDBRANCH 58 59
ENDBRANCH 44 58
ENDBRANCH 41 44
ENDBRANCH 35 40
ENDBRANCH 1 35
TORSDOF 26
ENDMDL
MODEL 32
USER: ADFR SOLUTION from run 56
USER: SCORE 19.189699 LL:  -5.146 LR: -16.245 RR:   0.000 FEB:  -8.490
USER: RMSD 7.008745
USER: SEED 55
USER: STATUS no improvement in best in 1 clusters for 5 generations
USER: GENES 28
USER: genes 0 Translation |==|  0.34038 0.42743 0.33947
USER: genes 1 Rotation |==|  0.73707 0.72020 0.81378 0.71645
USER: genes 2 Torsion [C]-N--CA-[CB] |==|  0.82579
USER: genes 3 Torsion [N]-CA--CB-[CG] |==|  0.70321
USER: genes 4 Torsion [CA]-CB--CG-[CD2] |==|  0.55952
USER: genes 5 Torsion [CE2]-CZ--OH-[HH] |==|  0.36979
USER: genes 6 Torsion [N]-CA--C-[N] |==|  0.34688
USER: genes 7 Torsion [C]-N--CA-[CB] |==|  0.36564
USER: genes 8 Torsion [N]-CA--CB-[CG] |==|  0.73480
USER: genes 9 Torsion [CA]-CB--CG-[SD] |==|  0.90772
USER: genes 10 Torsion [CB]-CG--SD-[CE] |==|  0.29558
USER: genes 11 Torsion [N]-CA--C-[N] |==|  0.88920
USER: genes 12 Torsion [C]-N--CA-[C] |==|  0.15812
USER: genes 13 Torsion [N]-CA--C-[O] |==|  0.46316
USER: genes 14 Torsion [N]-CA--CB-[CG] |==|  0.80750
USER: genes 15 Torsion [CA]-CB--CG-[CD1] |==|  0.93973
USER: genes 16 Torsion [N]-C--CA-[N] |==|  0.31111
USER: genes 17 Torsion [C]-CA--CB-[CG] |==|  0.28143
USER: genes 18 Torsion [CA]-CB--CG-[CD2] |==|  0.24495
USER: genes 19 Torsion [C]-CA--N-[C] |==|  0.85987
USER: genes 20 Torsion [N]-C--CA-[N] |==|  0.88324
USER: genes 21 Torsion [C]-CA--N-[C] |==|  0.68885
USER: genes 22 Torsion [N]-C--CA-[N] |==|  0.10918
USER: genes 23 Torsion [C]-CA--CB-[CG2] |==|  0.81149
USER: genes 24 Torsion [CA]-CB--OG1-[HG1] |==|  0.95787
USER: genes 25 Torsion [C]-CA--N-[H2] |==|  0.80857
USER: genes 26 Torsion [C]-CA--CB-[CG] |==|  0.17970
USER: genes 27 Torsion [CA]-CB--CG-[OD1] |==|  0.22039
ROOT
ATOM      1  C   LEU B   3      -2.064  19.233   9.516  1.00 37.56 LIG 0.24  C 
ATOM      2 O    LEU B   3      -1.563  20.332   9.208  1.00 36.01 LIG-0.27  OA
ATOM      3  N   TYR B   4      -1.499  18.354  10.393  1.00 34.90 LIG-0.35  N 
ATOM      4 H    TYR B   4      -1.879  17.608  10.586  1.00 34.90 LIG 0.16  HD
ENDROOT
BRANCH 3 5
ATOM      5  CA  TYR B   4      -0.230  18.525  11.105  1.00 36.24 LIG 0.18  C 
BRANCH 5 6
ATOM      6  CB  TYR B   4       0.948  18.610  10.113  1.00 36.37 LIG 0.07  C 
BRANCH 6 7
ATOM      7  CG  TYR B   4       1.759  17.340  10.146  1.00 36.28 LIG-0.06  A 
ATOM      8  CD2 TYR B   4       3.081  17.316   9.704  1.00 36.38 LIG 0.01  A 
ATOM      9  CE2 TYR B   4       3.815  16.136   9.676  1.00 36.34 LIG 0.04  A 
ATOM     10  CZ  TYR B   4       3.211  14.950  10.059  1.00 42.86 LIG 0.07  A 
ATOM     11  CE1 TYR B   4       1.893  14.944  10.488  1.00 38.54 LIG 0.04  A 
ATOM     12  CD1 TYR B   4       1.174  16.132  10.524  1.00 37.84 LIG 0.01  A 
BRANCH 10 13
ATOM     13 OH   TYR B   4       3.912  13.775  10.023  1.00 44.02 LIG-0.36  OA
ATOM     14 HH   TYR B   4       3.794  13.355  10.742  1.00 44.02 LIG 0.22  HD
ENDBRANCH 10 13
ENDBRANCH 6 7
ENDBRANCH 5 6
BRANCH 5 15
ATOM     15  C   TYR B   4      -0.272  19.726  12.043  1.00 47.41 LIG 0.24  C 
ATOM     16  N   MET B   5       0.029  19.470  13.311  1.00 49.29 LIG-0.35  N 
ATOM     17 H    MET B   5       0.196  18.685  13.619  1.00 49.29 LIG 0.16  HD
ATOM     18 O    TYR B   4      -0.551  20.857  11.634  1.00 47.26 LIG-0.27  OA
BRANCH 16 19
ATOM     19  CA  MET B   5       0.099  20.534  14.295  1.00 52.16 LIG 0.18  C 
BRANCH 19 20
ATOM     20  CB  MET B   5      -0.685  20.171  15.555  1.00 55.77 LIG 0.04  C 
BRANCH 20 21
ATOM     21  CG  MET B   5      -2.105  20.734  15.543  1.00 61.00 LIG 0.08  C 
BRANCH 21 22
ATOM     22 SD   MET B   5      -2.222  22.319  14.697  1.00 67.05 LIG-0.17  SA
ATOM     23  CE  MET B   5      -3.031  21.810  13.197  1.00 63.64 LIG 0.09  C 
ENDBRANCH 21 22
ENDBRANCH 20 21
ENDBRANCH 19 20
BRANCH 19 24
ATOM     24  C   MET B   5       1.572  20.784  14.547  1.00 55.98 LIG 0.24  C 
ATOM     25 O    MET B   5       1.956  21.927  14.797  1.00 56.32 LIG-0.27  OA
ATOM     26  N   LEU B   6       2.372  19.713  14.610  1.00 51.23 LIG-0.35  N 
ATOM     27 H    LEU B   6       2.105  18.909  14.463  1.00 51.23 LIG 0.16  HD
BRANCH 26 28
ATOM     28  CA  LEU B   6       3.793  19.820  14.938  1.00 69.26 LIG 0.16  C 
BRANCH 28 29
ATOM     29  C   LEU B   6       4.002  20.505  16.286  1.00 97.67 LIG 0.22  C 
ATOM     30 O    LEU B   6       5.095  20.474  16.848  1.00 61.20 LIG-0.29  OA
ENDBRANCH 28 29
BRANCH 28 31
ATOM     31  CB  LEU B   6       4.537  20.569  13.815  1.00 69.14 LIG 0.04  C 
BRANCH 31 32
ATOM     32  CG  LEU B   6       4.659  19.819  12.489  1.00 73.60 LIG-0.02  C 
ATOM     33  CD2 LEU B   6       3.696  20.364  11.462  1.00 75.76 LIG 0.01  C 
ATOM     34  CD1 LEU B   6       4.504  18.329  12.685  1.00 73.41 LIG 0.01  C 
ENDBRANCH 31 32
ENDBRANCH 28 31
ENDBRANCH 26 28
ENDBRANCH 19 24
ENDBRANCH 16 19
ENDBRANCH 5 15
ENDBRANCH 3 5
BRANCH 1 35
ATOM     35  CA  LEU B   3      -3.362  18.780   8.845  1.00 32.52 LIG 0.18  C 
BRANCH 35 36
ATOM     36  CB  LEU B   3      -3.240  18.817   7.308  1.00 32.14 LIG 0.04  C 
BRANCH 36 37
ATOM     37  CG  LEU B   3      -2.998  17.452   6.642  1.00 34.99 LIG-0.02  C 
ATOM     38  CD2 LEU B   3      -4.336  16.737   6.322  1.00 35.91 LIG 0.01  C 
ATOM     39  CD1 LEU B   3      -2.045  16.589   7.502  1.00 33.16 LIG 0.01  C 
ENDBRANCH 36 37
ENDBRANCH 35 36
BRANCH 35 40
ATOM     40  N   LEU B   3      -4.506  19.569   9.292  1.00 32.48 LIG-0.35  N 
ATOM     41  C   ASN B   2      -4.745  19.755  10.604  1.00 36.40 LIG 0.24  C 
ATOM     42 O    ASN B   2      -4.041  19.256  11.491  1.00 34.95 LIG-0.27  OA
ATOM     43 H    LEU B   3      -4.993  19.890   8.660  1.00 32.48 LIG 0.16  HD
BRANCH 41 44
ATOM     44  CA  ASN B   2      -5.997  20.548  10.987  1.00 32.65 LIG 0.18  C 
BRANCH 44 45
ATOM     45  N   ASN B   2      -6.072  21.673  10.062  1.00 32.45 LIG-0.34  N 
ATOM     46 H    ASN B   2      -6.239  21.425   9.256  1.00 32.45 LIG 0.16  HD
ATOM     47  C   THR B   1      -5.905  22.961  10.384  1.00 35.22 LIG 0.25  C 
ATOM     48 O    THR B   1      -5.792  23.381  11.552  1.00 34.61 LIG-0.27  OA
BRANCH 47 49
ATOM     49  CA  THR B   1      -5.886  23.887   9.192  1.00 32.53 LIG 0.30  C 
BRANCH 49 50
ATOM     50  CB  THR B   1      -6.079  25.343   9.643  1.00 31.51 LIG 0.15  C 
ATOM     51  CG2 THR B   1      -7.504  25.629  10.212  1.00 30.77 LIG 0.04  C 
BRANCH 50 52
ATOM     52 OG1  THR B   1      -5.082  25.661  10.615  1.00 21.64 LIG-0.39  OA
ATOM     53 HG1  THR B   1      -4.730  24.952  10.897  1.00 21.64 LIG 0.21  HD
ENDBRANCH 50 52
ENDBRANCH 49 50
BRANCH 49 54
ATOM     54  N   THR B   1      -6.868  23.491   8.188  1.00 34.33 LIG-0.06  N 
ATOM     55 H2   THR B   1      -6.617  22.724   7.812  1.00 34.33 LIG 0.28  HD
ATOM     56 H1   THR B   1      -6.925  24.123   7.563  1.00 34.33 LIG 0.28  HD
ATOM     57 H3   THR B   1      -7.663  23.385   8.574  1.00 34.33 LIG 0.28  HD
ENDBRANCH 49 54
ENDBRANCH 47 49
ENDBRANCH 44 45
BRANCH 44 58
ATOM     58  CB  ASN B   2      -7.274  19.691  10.929  1.00 33.77 LIG 0.14  C 
BRANCH 58 59
ATOM     59  CG  ASN B   2      -7.294  18.560  11.938  1.00 47.71 LIG 0.22  C 
ATOM     60 OD1  ASN B   2      -7.577  18.747  13.127  1.00 37.59 LIG-0.27  OA
ATOM     61  ND2 ASN B   2      -6.962  17.357  11.494  1.00 40.38 LIG-0.37  N 
ATOM     62 22HD ASN B   2      -6.769  17.243  10.664  1.00 40.38 LIG 0.16  HD
ATOM     63 21HD ASN B   2      -6.941  16.689  12.036  1.00 40.38 LIG 0.16  HD
ENDBRANCH 58 59
ENDBRANCH 44 58
ENDBRANCH 41 44
ENDBRANCH 35 40
ENDBRANCH 1 35
TORSDOF 26
ENDMDL
MODEL 33
USER: ADFR SOLUTION from run 97
USER: SCORE 19.881042 LL:  -6.470 LR: -16.230 RR:   0.000 FEB:  -8.475
USER: RMSD 5.542707
USER: SEED 96
USER: STATUS 1 or 2 clusters left
USER: GENES 28
USER: genes 0 Translation |==|  0.43075 0.41140 0.39472
USER: genes 1 Rotation |==|  0.34602 0.51954 0.56553 0.97076
USER: genes 2 Torsion [C]-N--CA-[CB] |==|  0.72743
USER: genes 3 Torsion [N]-CA--CB-[CG] |==|  0.07533
USER: genes 4 Torsion [CA]-CB--CG-[CD2] |==|  0.68416
USER: genes 5 Torsion [CE2]-CZ--OH-[HH] |==|  0.25407
USER: genes 6 Torsion [N]-CA--C-[N] |==|  0.70167
USER: genes 7 Torsion [C]-N--CA-[CB] |==|  0.49617
USER: genes 8 Torsion [N]-CA--CB-[CG] |==|  0.46419
USER: genes 9 Torsion [CA]-CB--CG-[SD] |==|  0.60163
USER: genes 10 Torsion [CB]-CG--SD-[CE] |==|  0.07573
USER: genes 11 Torsion [N]-CA--C-[N] |==|  0.74747
USER: genes 12 Torsion [C]-N--CA-[C] |==|  0.59970
USER: genes 13 Torsion [N]-CA--C-[O] |==|  0.00316
USER: genes 14 Torsion [N]-CA--CB-[CG] |==|  0.78918
USER: genes 15 Torsion [CA]-CB--CG-[CD1] |==|  0.48976
USER: genes 16 Torsion [N]-C--CA-[N] |==|  0.01111
USER: genes 17 Torsion [C]-CA--CB-[CG] |==|  0.17268
USER: genes 18 Torsion [CA]-CB--CG-[CD2] |==|  0.59565
USER: genes 19 Torsion [C]-CA--N-[C] |==|  0.76496
USER: genes 20 Torsion [N]-C--CA-[N] |==|  0.66084
USER: genes 21 Torsion [C]-CA--N-[C] |==|  0.16104
USER: genes 22 Torsion [N]-C--CA-[N] |==|  0.71716
USER: genes 23 Torsion [C]-CA--CB-[CG2] |==|  0.16334
USER: genes 24 Torsion [CA]-CB--OG1-[HG1] |==|  0.17816
USER: genes 25 Torsion [C]-CA--N-[H2] |==|  0.78113
USER: genes 26 Torsion [C]-CA--CB-[CG] |==|  0.28371
USER: genes 27 Torsion [CA]-CB--CG-[OD1] |==|  0.26051
ROOT
ATOM      1  C   LEU B   3      -0.166  18.957  10.842  1.00 37.56 LIG 0.24  C 
ATOM      2 O    LEU B   3       0.866  19.027  11.537  1.00 36.01 LIG-0.27  OA
ATOM      3  N   TYR B   4      -1.165  19.886  10.859  1.00 34.90 LIG-0.35  N 
ATOM      4 H    TYR B   4      -1.859  19.806  10.359  1.00 34.90 LIG 0.16  HD
ENDROOT
BRANCH 3 5
ATOM      5  CA  TYR B   4      -1.216  21.098  11.681  1.00 36.24 LIG 0.18  C 
BRANCH 5 6
ATOM      6  CB  TYR B   4      -2.077  20.870  12.941  1.00 36.37 LIG 0.07  C 
BRANCH 6 7
ATOM      7  CG  TYR B   4      -2.068  19.414  13.329  1.00 36.28 LIG-0.06  A 
ATOM      8  CD2 TYR B   4      -3.227  18.641  13.257  1.00 36.38 LIG 0.01  A 
ATOM      9  CE2 TYR B   4      -3.240  17.314  13.669  1.00 36.34 LIG 0.04  A 
ATOM     10  CZ  TYR B   4      -2.089  16.754  14.199  1.00 42.86 LIG 0.07  A 
ATOM     11  CE1 TYR B   4      -0.929  17.505  14.296  1.00 38.54 LIG 0.04  A 
ATOM     12  CD1 TYR B   4      -0.925  18.827  13.868  1.00 37.84 LIG 0.01  A 
BRANCH 10 13
ATOM     13 OH   TYR B   4      -2.087  15.454  14.627  1.00 44.02 LIG-0.36  OA
ATOM     14 HH   TYR B   4      -1.849  14.952  13.997  1.00 44.02 LIG 0.22  HD
ENDBRANCH 10 13
ENDBRANCH 6 7
ENDBRANCH 5 6
BRANCH 5 15
ATOM     15  C   TYR B   4       0.182  21.597  12.030  1.00 47.41 LIG 0.24  C 
ATOM     16  N   MET B   5       0.553  21.413  13.292  1.00 49.29 LIG-0.35  N 
ATOM     17 H    MET B   5       0.047  21.080  13.902  1.00 49.29 LIG 0.16  HD
ATOM     18 O    TYR B   4       0.913  22.117  11.184  1.00 47.26 LIG-0.27  OA
BRANCH 16 19
ATOM     19  CA  MET B   5       1.885  21.774  13.741  1.00 52.16 LIG 0.18  C 
BRANCH 19 20
ATOM     20  CB  MET B   5       2.056  21.498  15.235  1.00 55.77 LIG 0.04  C 
BRANCH 20 21
ATOM     21  CG  MET B   5       3.515  21.563  15.679  1.00 61.00 LIG 0.08  C 
BRANCH 21 22
ATOM     22 SD   MET B   5       3.917  20.344  16.942  1.00 67.05 LIG-0.17  SA
ATOM     23  CE  MET B   5       2.716  19.090  16.554  1.00 63.64 LIG 0.09  C 
ENDBRANCH 21 22
ENDBRANCH 20 21
ENDBRANCH 19 20
BRANCH 19 24
ATOM     24  C   MET B   5       2.852  21.002  12.867  1.00 55.98 LIG 0.24  C 
ATOM     25 O    MET B   5       3.328  21.545  11.869  1.00 56.32 LIG-0.27  OA
ATOM     26  N   LEU B   6       3.240  19.797  13.299  1.00 51.23 LIG-0.35  N 
ATOM     27 H    LEU B   6       2.932  19.423  14.010  1.00 51.23 LIG 0.16  HD
BRANCH 26 28
ATOM     28  CA  LEU B   6       4.238  18.998  12.589  1.00 69.26 LIG 0.16  C 
BRANCH 28 29
ATOM     29  C   LEU B   6       3.911  17.507  12.662  1.00 97.67 LIG 0.22  C 
ATOM     30 O    LEU B   6       2.903  17.110  13.245  1.00 61.20 LIG-0.29  OA
ENDBRANCH 28 29
BRANCH 28 31
ATOM     31  CB  LEU B   6       5.642  19.285  13.157  1.00 69.14 LIG 0.04  C 
BRANCH 31 32
ATOM     32  CG  LEU B   6       6.268  20.612  12.731  1.00 73.60 LIG-0.02  C 
ATOM     33  CD2 LEU B   6       6.372  20.709  11.228  1.00 75.76 LIG 0.01  C 
ATOM     34  CD1 LEU B   6       7.599  20.835  13.412  1.00 73.41 LIG 0.01  C 
ENDBRANCH 31 32
ENDBRANCH 28 31
ENDBRANCH 26 28
ENDBRANCH 19 24
ENDBRANCH 16 19
ENDBRANCH 5 15
ENDBRANCH 3 5
BRANCH 1 35
ATOM     35  CA  LEU B   3      -0.392  17.736   9.947  1.00 32.52 LIG 0.18  C 
BRANCH 35 36
ATOM     36  CB  LEU B   3       0.807  17.503   9.006  1.00 32.14 LIG 0.04  C 
BRANCH 36 37
ATOM     37  CG  LEU B   3       2.140  17.203   9.713  1.00 34.99 LIG-0.02  C 
ATOM     38  CD2 LEU B   3       3.337  17.801   8.932  1.00 35.91 LIG 0.01  C 
ATOM     39  CD1 LEU B   3       2.287  15.685   9.973  1.00 33.16 LIG 0.01  C 
ENDBRANCH 36 37
ENDBRANCH 35 36
BRANCH 35 40
ATOM     40  N   LEU B   3      -1.633  17.845   9.187  1.00 32.48 LIG-0.35  N 
ATOM     41  C   ASN B   2      -2.808  17.472   9.728  1.00 36.40 LIG 0.24  C 
ATOM     42 O    ASN B   2      -2.902  16.998  10.867  1.00 34.95 LIG-0.27  OA
ATOM     43 H    LEU B   3      -1.543  18.159   8.392  1.00 32.48 LIG 0.16  HD
BRANCH 41 44
ATOM     44  CA  ASN B   2      -4.054  17.567   8.842  1.00 32.65 LIG 0.18  C 
BRANCH 44 45
ATOM     45  N   ASN B   2      -4.987  18.447   9.537  1.00 32.45 LIG-0.34  N 
ATOM     46 H    ASN B   2      -5.741  18.066   9.696  1.00 32.45 LIG 0.16  HD
ATOM     47  C   THR B   1      -4.743  19.710   9.903  1.00 35.22 LIG 0.25  C 
ATOM     48 O    THR B   1      -3.629  20.262   9.814  1.00 34.61 LIG-0.27  OA
BRANCH 47 49
ATOM     49  CA  THR B   1      -5.949  20.422  10.467  1.00 32.53 LIG 0.30  C 
BRANCH 49 50
ATOM     50  CB  THR B   1      -6.964  19.405  11.013  1.00 31.51 LIG 0.15  C 
ATOM     51  CG2 THR B   1      -6.378  18.489  12.133  1.00 30.77 LIG 0.04  C 
BRANCH 50 52
ATOM     52 OG1  THR B   1      -8.109  20.110  11.494  1.00 21.64 LIG-0.39  OA
ATOM     53 HG1  THR B   1      -8.486  20.501  10.854  1.00 21.64 LIG 0.21  HD
ENDBRANCH 50 52
ENDBRANCH 49 50
BRANCH 49 54
ATOM     54  N   THR B   1      -6.550  21.321   9.487  1.00 34.33 LIG-0.06  N 
ATOM     55 H2   THR B   1      -6.074  22.073   9.442  1.00 34.33 LIG 0.28  HD
ATOM     56 H1   THR B   1      -7.384  21.512   9.731  1.00 34.33 LIG 0.28  HD
ATOM     57 H3   THR B   1      -6.558  20.929   8.689  1.00 34.33 LIG 0.28  HD
ENDBRANCH 49 54
ENDBRANCH 47 49
ENDBRANCH 44 45
BRANCH 44 58
ATOM     58  CB  ASN B   2      -3.731  18.095   7.432  1.00 33.77 LIG 0.14  C 
BRANCH 58 59
ATOM     59  CG  ASN B   2      -3.678  17.011   6.374  1.00 47.71 LIG 0.22  C 
ATOM     60 OD1  ASN B   2      -4.662  16.720   5.684  1.00 37.59 LIG-0.27  OA
ATOM     61  ND2 ASN B   2      -2.532  16.361   6.242  1.00 40.38 LIG-0.37  N 
ATOM     62 22HD ASN B   2      -1.857  16.575   6.729  1.00 40.38 LIG 0.16  HD
ATOM     63 21HD ASN B   2      -2.462  15.724   5.668  1.00 40.38 LIG 0.16  HD
ENDBRANCH 58 59
ENDBRANCH 44 58
ENDBRANCH 41 44
ENDBRANCH 35 40
ENDBRANCH 1 35
TORSDOF 26
ENDMDL
MODEL 34
USER: ADFR SOLUTION from run 195
USER: SCORE 19.004209 LL:  -4.980 LR: -16.187 RR:   0.000 FEB:  -8.431
USER: RMSD 7.598073
USER: SEED 194
USER: STATUS no improvement in best in 8 clusters for 5 generations
USER: GENES 28
USER: genes 0 Translation |==|  0.44280 0.32543 0.33084
USER: genes 1 Rotation |==|  0.60441 0.79530 0.62976 0.86751
USER: genes 2 Torsion [C]-N--CA-[CB] |==|  0.25000
USER: genes 3 Torsion [N]-CA--CB-[CG] |==|  0.54563
USER: genes 4 Torsion [CA]-CB--CG-[CD2] |==|  0.16590
USER: genes 5 Torsion [CE2]-CZ--OH-[HH] |==|  0.64491
USER: genes 6 Torsion [N]-CA--C-[N] |==|  0.88601
USER: genes 7 Torsion [C]-N--CA-[CB] |==|  0.18621
USER: genes 8 Torsion [N]-CA--CB-[CG] |==|  0.17699
USER: genes 9 Torsion [CA]-CB--CG-[SD] |==|  0.38388
USER: genes 10 Torsion [CB]-CG--SD-[CE] |==|  0.94206
USER: genes 11 Torsion [N]-CA--C-[N] |==|  0.07751
USER: genes 12 Torsion [C]-N--CA-[C] |==|  0.58853
USER: genes 13 Torsion [N]-CA--C-[O] |==|  0.55811
USER: genes 14 Torsion [N]-CA--CB-[CG] |==|  0.61360
USER: genes 15 Torsion [CA]-CB--CG-[CD1] |==|  0.74550
USER: genes 16 Torsion [N]-C--CA-[N] |==|  0.09297
USER: genes 17 Torsion [C]-CA--CB-[CG] |==|  0.50509
USER: genes 18 Torsion [CA]-CB--CG-[CD2] |==|  0.58536
USER: genes 19 Torsion [C]-CA--N-[C] |==|  0.18274
USER: genes 20 Torsion [N]-C--CA-[N] |==|  0.64217
USER: genes 21 Torsion [C]-CA--N-[C] |==|  0.60134
USER: genes 22 Torsion [N]-C--CA-[N] |==|  0.36069
USER: genes 23 Torsion [C]-CA--CB-[CG2] |==|  0.75029
USER: genes 24 Torsion [CA]-CB--OG1-[HG1] |==|  0.76030
USER: genes 25 Torsion [C]-CA--N-[H2] |==|  0.14485
USER: genes 26 Torsion [C]-CA--CB-[CG] |==|  0.79272
USER: genes 27 Torsion [CA]-CB--CG-[OD1] |==|  0.22238
ROOT
ATOM      1  C   LEU B   3       0.087  17.474   9.309  1.00 37.56 LIG 0.24  C 
ATOM      2 O    LEU B   3       0.903  17.557   8.371  1.00 36.01 LIG-0.27  OA
ATOM      3  N   TYR B   4       0.383  17.762  10.609  1.00 34.90 LIG-0.35  N 
ATOM      4 H    TYR B   4      -0.210  17.699  11.228  1.00 34.90 LIG 0.16  HD
ENDROOT
BRANCH 3 5
ATOM      5  CA  TYR B   4       1.680  18.198  11.133  1.00 36.24 LIG 0.18  C 
BRANCH 5 6
ATOM      6  CB  TYR B   4       1.791  19.737  11.109  1.00 36.37 LIG 0.07  C 
BRANCH 6 7
ATOM      7  CG  TYR B   4       3.228  20.165  11.258  1.00 36.28 LIG-0.06  A 
ATOM      8  CD2 TYR B   4       4.198  19.769  10.338  1.00 36.38 LIG 0.01  A 
ATOM      9  CE2 TYR B   4       5.536  20.110  10.503  1.00 36.34 LIG 0.04  A 
ATOM     10  CZ  TYR B   4       5.923  20.826  11.624  1.00 42.86 LIG 0.07  A 
ATOM     11  CE1 TYR B   4       4.980  21.218  12.561  1.00 38.54 LIG 0.04  A 
ATOM     12  CD1 TYR B   4       3.644  20.883  12.379  1.00 37.84 LIG 0.01  A 
BRANCH 10 13
ATOM     13 OH   TYR B   4       7.237  21.156  11.812  1.00 44.02 LIG-0.36  OA
ATOM     14 HH   TYR B   4       7.481  20.911  12.578  1.00 44.02 LIG 0.22  HD
ENDBRANCH 10 13
ENDBRANCH 6 7
ENDBRANCH 5 6
BRANCH 5 15
ATOM     15  C   TYR B   4       1.942  17.631  12.524  1.00 47.41 LIG 0.24  C 
ATOM     16  N   MET B   5       0.896  17.628  13.344  1.00 49.29 LIG-0.35  N 
ATOM     17 H    MET B   5       0.127  17.957  13.147  1.00 49.29 LIG 0.16  HD
ATOM     18 O    TYR B   4       3.049  17.192  12.845  1.00 47.26 LIG-0.27  OA
BRANCH 16 19
ATOM     19  CA  MET B   5       0.987  17.049  14.671  1.00 52.16 LIG 0.18  C 
BRANCH 19 20
ATOM     20  CB  MET B   5       1.928  17.860  15.561  1.00 55.77 LIG 0.04  C 
BRANCH 20 21
ATOM     21  CG  MET B   5       1.422  19.279  15.808  1.00 61.00 LIG 0.08  C 
BRANCH 21 22
ATOM     22 SD   MET B   5       1.640  19.813  17.514  1.00 67.05 LIG-0.17  SA
ATOM     23  CE  MET B   5       1.785  18.231  18.316  1.00 63.64 LIG 0.09  C 
ENDBRANCH 21 22
ENDBRANCH 20 21
ENDBRANCH 19 20
BRANCH 19 24
ATOM     24  C   MET B   5      -0.430  16.971  15.199  1.00 55.98 LIG 0.24  C 
ATOM     25 O    MET B   5      -0.636  17.134  16.402  1.00 56.32 LIG-0.27  OA
ATOM     26  N   LEU B   6      -1.413  16.851  14.298  1.00 51.23 LIG-0.35  N 
ATOM     27 H    LEU B   6      -1.277  16.764  13.454  1.00 51.23 LIG 0.16  HD
BRANCH 26 28
ATOM     28  CA  LEU B   6      -2.824  16.857  14.679  1.00 69.26 LIG 0.16  C 
BRANCH 28 29
ATOM     29  C   LEU B   6      -3.656  15.981  13.744  1.00 97.67 LIG 0.22  C 
ATOM     30 O    LEU B   6      -4.871  16.141  13.644  1.00 61.20 LIG-0.29  OA
ENDBRANCH 28 29
BRANCH 28 31
ATOM     31  CB  LEU B   6      -3.356  18.304  14.702  1.00 69.14 LIG 0.04  C 
BRANCH 31 32
ATOM     32  CG  LEU B   6      -4.289  18.647  15.862  1.00 73.60 LIG-0.02  C 
ATOM     33  CD2 LEU B   6      -3.893  17.907  17.118  1.00 75.76 LIG 0.01  C 
ATOM     34  CD1 LEU B   6      -5.735  18.412  15.492  1.00 73.41 LIG 0.01  C 
ENDBRANCH 31 32
ENDBRANCH 28 31
ENDBRANCH 26 28
ENDBRANCH 19 24
ENDBRANCH 16 19
ENDBRANCH 5 15
ENDBRANCH 3 5
BRANCH 1 35
ATOM     35  CA  LEU B   3      -1.329  16.961   9.035  1.00 32.52 LIG 0.18  C 
BRANCH 35 36
ATOM     36  CB  LEU B   3      -1.731  17.188   7.564  1.00 32.14 LIG 0.04  C 
BRANCH 36 37
ATOM     37  CG  LEU B   3      -3.159  16.743   7.205  1.00 34.99 LIG-0.02  C 
ATOM     38  CD2 LEU B   3      -3.249  16.278   5.729  1.00 35.91 LIG 0.01  C 
ATOM     39  CD1 LEU B   3      -4.178  17.855   7.549  1.00 33.16 LIG 0.01  C 
ENDBRANCH 36 37
ENDBRANCH 35 36
BRANCH 35 40
ATOM     40  N   LEU B   3      -2.305  17.562   9.938  1.00 32.48 LIG-0.35  N 
ATOM     41  C   ASN B   2      -2.573  18.881   9.886  1.00 36.40 LIG 0.24  C 
ATOM     42 O    ASN B   2      -1.999  19.651   9.106  1.00 34.95 LIG-0.27  OA
ATOM     43 H    LEU B   3      -2.678  17.013  10.484  1.00 32.48 LIG 0.16  HD
BRANCH 41 44
ATOM     44  CA  ASN B   2      -3.570  19.439  10.905  1.00 32.65 LIG 0.18  C 
BRANCH 44 45
ATOM     45  N   ASN B   2      -4.557  20.197  10.145  1.00 32.45 LIG-0.34  N 
ATOM     46 H    ASN B   2      -4.736  19.835   9.386  1.00 32.45 LIG 0.16  HD
ATOM     47  C   THR B   1      -5.142  21.333  10.541  1.00 35.22 LIG 0.25  C 
ATOM     48 O    THR B   1      -5.015  21.825  11.679  1.00 34.61 LIG-0.27  OA
BRANCH 47 49
ATOM     49  CA  THR B   1      -6.005  21.972   9.481  1.00 32.53 LIG 0.30  C 
BRANCH 49 50
ATOM     50  CB  THR B   1      -5.298  23.199   8.883  1.00 31.51 LIG 0.15  C 
ATOM     51  CG2 THR B   1      -5.617  24.525   9.641  1.00 30.77 LIG 0.04  C 
BRANCH 50 52
ATOM     52 OG1  THR B   1      -3.890  22.959   8.871  1.00 21.64 LIG-0.39  OA
ATOM     53 HG1  THR B   1      -3.562  23.183   9.611  1.00 21.64 LIG 0.21  HD
ENDBRANCH 50 52
ENDBRANCH 49 50
BRANCH 49 54
ATOM     54  N   THR B   1      -7.331  22.302   9.994  1.00 34.33 LIG-0.06  N 
ATOM     55 H2   THR B   1      -7.250  22.779  10.742  1.00 34.33 LIG 0.28  HD
ATOM     56 H1   THR B   1      -7.778  21.552  10.167  1.00 34.33 LIG 0.28  HD
ATOM     57 H3   THR B   1      -7.775  22.777   9.387  1.00 34.33 LIG 0.28  HD
ENDBRANCH 49 54
ENDBRANCH 47 49
ENDBRANCH 44 45
BRANCH 44 58
ATOM     58  CB  ASN B   2      -4.238  18.330  11.739  1.00 33.77 LIG 0.14  C 
BRANCH 58 59
ATOM     59  CG  ASN B   2      -5.288  17.545  10.978  1.00 47.71 LIG 0.22  C 
ATOM     60 OD1  ASN B   2      -4.987  16.639  10.193  1.00 37.59 LIG-0.27  OA
ATOM     61  ND2 ASN B   2      -6.551  17.896  11.169  1.00 40.38 LIG-0.37  N 
ATOM     62 22HD ASN B   2      -6.743  18.528  11.719  1.00 40.38 LIG 0.16  HD
ATOM     63 21HD ASN B   2      -7.178  17.492  10.743  1.00 40.38 LIG 0.16  HD
ENDBRANCH 58 59
ENDBRANCH 44 58
ENDBRANCH 41 44
ENDBRANCH 35 40
ENDBRANCH 1 35
TORSDOF 26
ENDMDL
MODEL 35
USER: ADFR SOLUTION from run 65
USER: SCORE 21.257360 LL:  -6.512 LR: -16.156 RR:   0.000 FEB:  -8.400
USER: RMSD 3.720607
USER: SEED 64
USER: STATUS 1 or 2 clusters left
USER: GENES 28
USER: genes 0 Translation |==|  0.55107 0.36052 0.51224
USER: genes 1 Rotation |==|  0.45724 0.49848 0.44812 0.99546
USER: genes 2 Torsion [C]-N--CA-[CB] |==|  0.81689
USER: genes 3 Torsion [N]-CA--CB-[CG] |==|  0.91416
USER: genes 4 Torsion [CA]-CB--CG-[CD2] |==|  0.33197
USER: genes 5 Torsion [CE2]-CZ--OH-[HH] |==|  0.81232
USER: genes 6 Torsion [N]-CA--C-[N] |==|  0.35676
USER: genes 7 Torsion [C]-N--CA-[CB] |==|  0.86228
USER: genes 8 Torsion [N]-CA--CB-[CG] |==|  0.45243
USER: genes 9 Torsion [CA]-CB--CG-[SD] |==|  0.48891
USER: genes 10 Torsion [CB]-CG--SD-[CE] |==|  0.47206
USER: genes 11 Torsion [N]-CA--C-[N] |==|  0.76125
USER: genes 12 Torsion [C]-N--CA-[C] |==|  0.16053
USER: genes 13 Torsion [N]-CA--C-[O] |==|  0.74068
USER: genes 14 Torsion [N]-CA--CB-[CG] |==|  0.79864
USER: genes 15 Torsion [CA]-CB--CG-[CD1] |==|  0.97816
USER: genes 16 Torsion [N]-C--CA-[N] |==|  0.02539
USER: genes 17 Torsion [C]-CA--CB-[CG] |==|  0.47509
USER: genes 18 Torsion [CA]-CB--CG-[CD2] |==|  0.25995
USER: genes 19 Torsion [C]-CA--N-[C] |==|  0.70933
USER: genes 20 Torsion [N]-C--CA-[N] |==|  0.41876
USER: genes 21 Torsion [C]-CA--N-[C] |==|  0.54068
USER: genes 22 Torsion [N]-C--CA-[N] |==|  0.35789
USER: genes 23 Torsion [C]-CA--CB-[CG2] |==|  0.18378
USER: genes 24 Torsion [CA]-CB--OG1-[HG1] |==|  0.68026
USER: genes 25 Torsion [C]-CA--N-[H2] |==|  0.39629
USER: genes 26 Torsion [C]-CA--CB-[CG] |==|  0.18310
USER: genes 27 Torsion [CA]-CB--CG-[OD1] |==|  0.15579
ROOT
ATOM      1  C   LEU B   3       2.360  18.079  13.663  1.00 37.56 LIG 0.24  C 
ATOM      2 O    LEU B   3       3.122  17.397  14.375  1.00 36.01 LIG-0.27  OA
ATOM      3  N   TYR B   4       1.829  19.278  14.040  1.00 34.90 LIG-0.35  N 
ATOM      4 H    TYR B   4       1.313  19.723  13.516  1.00 34.90 LIG 0.16  HD
ENDROOT
BRANCH 3 5
ATOM      5  CA  TYR B   4       2.037  19.961  15.319  1.00 36.24 LIG 0.18  C 
BRANCH 5 6
ATOM      6  CB  TYR B   4       1.417  19.155  16.479  1.00 36.37 LIG 0.07  C 
BRANCH 6 7
ATOM      7  CG  TYR B   4       0.209  18.390  16.002  1.00 36.28 LIG-0.06  A 
ATOM      8  CD2 TYR B   4       0.161  16.998  16.077  1.00 36.38 LIG 0.01  A 
ATOM      9  CE2 TYR B   4      -0.924  16.282  15.585  1.00 36.34 LIG 0.04  A 
ATOM     10  CZ  TYR B   4      -1.965  16.960  14.972  1.00 42.86 LIG 0.07  A 
ATOM     11  CE1 TYR B   4      -1.933  18.342  14.870  1.00 38.54 LIG 0.04  A 
ATOM     12  CD1 TYR B   4      -0.849  19.047  15.378  1.00 37.84 LIG 0.01  A 
BRANCH 10 13
ATOM     13 OH   TYR B   4      -3.033  16.272  14.465  1.00 44.02 LIG-0.36  OA
ATOM     14 HH   TYR B   4      -2.785  15.813  13.807  1.00 44.02 LIG 0.22  HD
ENDBRANCH 10 13
ENDBRANCH 6 7
ENDBRANCH 5 6
BRANCH 5 15
ATOM     15  C   TYR B   4       3.513  20.261  15.560  1.00 47.41 LIG 0.24  C 
ATOM     16  N   MET B   5       3.794  21.520  15.875  1.00 49.29 LIG-0.35  N 
ATOM     17 H    MET B   5       3.213  22.153  15.905  1.00 49.29 LIG 0.16  HD
ATOM     18 O    TYR B   4       4.373  19.380  15.481  1.00 47.26 LIG-0.27  OA
BRANCH 16 19
ATOM     19  CA  MET B   5       5.148  21.926  16.202  1.00 52.16 LIG 0.18  C 
BRANCH 19 20
ATOM     20  CB  MET B   5       5.766  20.992  17.242  1.00 55.77 LIG 0.04  C 
BRANCH 20 21
ATOM     21  CG  MET B   5       7.287  21.113  17.308  1.00 61.00 LIG 0.08  C 
BRANCH 21 22
ATOM     22 SD   MET B   5       8.014  20.101  18.608  1.00 67.05 LIG-0.17  SA
ATOM     23  CE  MET B   5       9.736  20.252  18.190  1.00 63.64 LIG 0.09  C 
ENDBRANCH 21 22
ENDBRANCH 20 21
ENDBRANCH 19 20
BRANCH 19 24
ATOM     24  C   MET B   5       5.908  21.965  14.892  1.00 55.98 LIG 0.24  C 
ATOM     25 O    MET B   5       6.096  23.047  14.335  1.00 56.32 LIG-0.27  OA
ATOM     26  N   LEU B   6       6.452  20.819  14.466  1.00 51.23 LIG-0.35  N 
ATOM     27 H    LEU B   6       6.348  20.064  14.865  1.00 51.23 LIG 0.16  HD
BRANCH 26 28
ATOM     28  CA  LEU B   6       7.284  20.750  13.266  1.00 69.26 LIG 0.16  C 
BRANCH 28 29
ATOM     29  C   LEU B   6       8.487  21.685  13.369  1.00 97.67 LIG 0.22  C 
ATOM     30 O    LEU B   6       8.438  22.829  12.919  1.00 61.20 LIG-0.29  OA
ENDBRANCH 28 29
BRANCH 28 31
ATOM     31  CB  LEU B   6       6.436  21.073  12.020  1.00 69.14 LIG 0.04  C 
BRANCH 31 32
ATOM     32  CG  LEU B   6       5.445  19.990  11.596  1.00 73.60 LIG-0.02  C 
ATOM     33  CD2 LEU B   6       4.024  20.494  11.663  1.00 75.76 LIG 0.01  C 
ATOM     34  CD1 LEU B   6       5.641  18.723  12.397  1.00 73.41 LIG 0.01  C 
ENDBRANCH 31 32
ENDBRANCH 28 31
ENDBRANCH 26 28
ENDBRANCH 19 24
ENDBRANCH 16 19
ENDBRANCH 5 15
ENDBRANCH 3 5
BRANCH 1 35
ATOM     35  CA  LEU B   3       1.923  17.543  12.298  1.00 32.52 LIG 0.18  C 
BRANCH 35 36
ATOM     36  CB  LEU B   3       3.130  17.044  11.479  1.00 32.14 LIG 0.04  C 
BRANCH 36 37
ATOM     37  CG  LEU B   3       2.772  16.292  10.186  1.00 34.99 LIG-0.02  C 
ATOM     38  CD2 LEU B   3       2.748  17.249   8.967  1.00 35.91 LIG 0.01  C 
ATOM     39  CD1 LEU B   3       1.451  15.507  10.361  1.00 33.16 LIG 0.01  C 
ENDBRANCH 36 37
ENDBRANCH 35 36
BRANCH 35 40
ATOM     40  N   LEU B   3       1.163  18.537  11.546  1.00 32.48 LIG-0.35  N 
ATOM     41  C   ASN B   2      -0.174  18.435  11.424  1.00 36.40 LIG 0.24  C 
ATOM     42 O    ASN B   2      -0.822  17.498  11.907  1.00 34.95 LIG-0.27  OA
ATOM     43 H    LEU B   3       1.634  19.168  11.202  1.00 32.48 LIG 0.16  HD
BRANCH 41 44
ATOM     44  CA  ASN B   2      -0.887  19.489  10.572  1.00 32.65 LIG 0.18  C 
BRANCH 44 45
ATOM     45  N   ASN B   2      -2.069  18.839  10.017  1.00 32.45 LIG-0.34  N 
ATOM     46 H    ASN B   2      -2.253  18.098  10.412  1.00 32.45 LIG 0.16  HD
ATOM     47  C   THR B   1      -2.815  19.306   9.009  1.00 35.22 LIG 0.25  C 
ATOM     48 O    THR B   1      -2.669  20.432   8.494  1.00 34.61 LIG-0.27  OA
BRANCH 47 49
ATOM     49  CA  THR B   1      -3.884  18.345   8.550  1.00 32.53 LIG 0.30  C 
BRANCH 49 50
ATOM     50  CB  THR B   1      -3.494  17.714   7.203  1.00 31.51 LIG 0.15  C 
ATOM     51  CG2 THR B   1      -2.240  16.790   7.295  1.00 30.77 LIG 0.04  C 
BRANCH 50 52
ATOM     52 OG1  THR B   1      -4.613  16.986   6.695  1.00 21.64 LIG-0.39  OA
ATOM     53 HG1  THR B   1      -4.425  16.168   6.666  1.00 21.64 LIG 0.21  HD
ENDBRANCH 50 52
ENDBRANCH 49 50
BRANCH 49 54
ATOM     54  N   THR B   1      -5.195  18.985   8.494  1.00 34.33 LIG-0.06  N 
ATOM     55 H2   THR B   1      -5.646  18.677   7.791  1.00 34.33 LIG 0.28  HD
ATOM     56 H1   THR B   1      -5.092  19.866   8.418  1.00 34.33 LIG 0.28  HD
ATOM     57 H3   THR B   1      -5.646  18.803   9.238  1.00 34.33 LIG 0.28  HD
ENDBRANCH 49 54
ENDBRANCH 47 49
ENDBRANCH 44 45
BRANCH 44 58
ATOM     58  CB  ASN B   2      -1.265  20.741  11.384  1.00 33.77 LIG 0.14  C 
BRANCH 58 59
ATOM     59  CG  ASN B   2      -0.069  21.528  11.882  1.00 47.71 LIG 0.22  C 
ATOM     60 OD1  ASN B   2       0.801  21.953  11.114  1.00 37.59 LIG-0.27  OA
ATOM     61  ND2 ASN B   2       0.021  21.714  13.190  1.00 40.38 LIG-0.37  N 
ATOM     62 22HD ASN B   2      -0.593  21.412  13.710  1.00 40.38 LIG 0.16  HD
ATOM     63 21HD ASN B   2       0.693  22.137  13.519  1.00 40.38 LIG 0.16  HD
ENDBRANCH 58 59
ENDBRANCH 44 58
ENDBRANCH 41 44
ENDBRANCH 35 40
ENDBRANCH 1 35
TORSDOF 26
ENDMDL
MODEL 36
USER: ADFR SOLUTION from run 61
USER: SCORE 18.176618 LL:  -5.150 LR: -16.157 RR:   0.000 FEB:  -8.402
USER: RMSD 6.703830
USER: SEED 60
USER: STATUS no improvement in best in 6 clusters for 5 generations
USER: GENES 28
USER: genes 0 Translation |==|  0.35170 0.33419 0.49717
USER: genes 1 Rotation |==|  0.21396 0.83341 0.28372 0.60122
USER: genes 2 Torsion [C]-N--CA-[CB] |==|  0.52425
USER: genes 3 Torsion [N]-CA--CB-[CG] |==|  0.70756
USER: genes 4 Torsion [CA]-CB--CG-[CD2] |==|  0.21581
USER: genes 5 Torsion [CE2]-CZ--OH-[HH] |==|  0.07837
USER: genes 6 Torsion [N]-CA--C-[N] |==|  0.77967
USER: genes 7 Torsion [C]-N--CA-[CB] |==|  0.15556
USER: genes 8 Torsion [N]-CA--CB-[CG] |==|  0.23353
USER: genes 9 Torsion [CA]-CB--CG-[SD] |==|  0.80026
USER: genes 10 Torsion [CB]-CG--SD-[CE] |==|  0.86796
USER: genes 11 Torsion [N]-CA--C-[N] |==|  0.54116
USER: genes 12 Torsion [C]-N--CA-[C] |==|  0.64771
USER: genes 13 Torsion [N]-CA--C-[O] |==|  0.47690
USER: genes 14 Torsion [N]-CA--CB-[CG] |==|  0.45803
USER: genes 15 Torsion [CA]-CB--CG-[CD1] |==|  0.29869
USER: genes 16 Torsion [N]-C--CA-[N] |==|  0.14739
USER: genes 17 Torsion [C]-CA--CB-[CG] |==|  0.25750
USER: genes 18 Torsion [CA]-CB--CG-[CD2] |==|  0.12298
USER: genes 19 Torsion [C]-CA--N-[C] |==|  0.76478
USER: genes 20 Torsion [N]-C--CA-[N] |==|  0.59444
USER: genes 21 Torsion [C]-CA--N-[C] |==|  0.62122
USER: genes 22 Torsion [N]-C--CA-[N] |==|  0.49228
USER: genes 23 Torsion [C]-CA--CB-[CG2] |==|  0.30373
USER: genes 24 Torsion [CA]-CB--OG1-[HG1] |==|  0.43525
USER: genes 25 Torsion [C]-CA--N-[H2] |==|  0.93536
USER: genes 26 Torsion [C]-CA--CB-[CG] |==|  0.80378
USER: genes 27 Torsion [CA]-CB--CG-[OD1] |==|  0.94458
ROOT
ATOM      1  C   LEU B   3      -1.826  17.625  13.301  1.00 37.56 LIG 0.24  C 
ATOM      2 O    LEU B   3      -1.244  16.591  13.683  1.00 36.01 LIG-0.27  OA
ATOM      3  N   TYR B   4      -1.769  18.110  12.028  1.00 34.90 LIG-0.35  N 
ATOM      4 H    TYR B   4      -2.191  18.824  11.801  1.00 34.90 LIG 0.16  HD
ENDROOT
BRANCH 3 5
ATOM      5  CA  TYR B   4      -1.025  17.532  10.906  1.00 36.24 LIG 0.18  C 
BRANCH 5 6
ATOM      6  CB  TYR B   4      -1.034  18.485   9.692  1.00 36.37 LIG 0.07  C 
BRANCH 6 7
ATOM      7  CG  TYR B   4      -1.975  17.977   8.631  1.00 36.28 LIG-0.06  A 
ATOM      8  CD2 TYR B   4      -3.355  18.141   8.751  1.00 36.38 LIG 0.01  A 
ATOM      9  CE2 TYR B   4      -4.232  17.623   7.805  1.00 36.34 LIG 0.04  A 
ATOM     10  CZ  TYR B   4      -3.730  16.896   6.738  1.00 42.86 LIG 0.07  A 
ATOM     11  CE1 TYR B   4      -2.364  16.706   6.604  1.00 38.54 LIG 0.04  A 
ATOM     12  CD1 TYR B   4      -1.497  17.239   7.549  1.00 37.84 LIG 0.01  A 
BRANCH 10 13
ATOM     13 OH   TYR B   4      -4.578  16.363   5.806  1.00 44.02 LIG-0.36  OA
ATOM     14 HH   TYR B   4      -5.273  16.834   5.757  1.00 44.02 LIG 0.22  HD
ENDBRANCH 10 13
ENDBRANCH 6 7
ENDBRANCH 5 6
BRANCH 5 15
ATOM     15  C   TYR B   4       0.393  17.145  11.314  1.00 47.41 LIG 0.24  C 
ATOM     16  N   MET B   5       1.262  18.148  11.372  1.00 49.29 LIG-0.35  N 
ATOM     17 H    MET B   5       1.079  18.960  11.156  1.00 49.29 LIG 0.16  HD
ATOM     18 O    TYR B   4       0.692  15.980  11.587  1.00 47.26 LIG-0.27  OA
BRANCH 16 19
ATOM     19  CA  MET B   5       2.626  17.932  11.818  1.00 52.16 LIG 0.18  C 
BRANCH 19 20
ATOM     20  CB  MET B   5       3.314  16.855  10.981  1.00 55.77 LIG 0.04  C 
BRANCH 20 21
ATOM     21  CG  MET B   5       3.905  17.407   9.686  1.00 61.00 LIG 0.08  C 
BRANCH 21 22
ATOM     22 SD   MET B   5       2.647  17.841   8.472  1.00 67.05 LIG-0.17  SA
ATOM     23  CE  MET B   5       1.642  16.375   8.531  1.00 63.64 LIG 0.09  C 
ENDBRANCH 21 22
ENDBRANCH 20 21
ENDBRANCH 19 20
BRANCH 19 24
ATOM     24  C   MET B   5       3.313  19.281  11.754  1.00 55.98 LIG 0.24  C 
ATOM     25 O    MET B   5       2.630  20.306  11.758  1.00 56.32 LIG-0.27  OA
ATOM     26  N   LEU B   6       4.649  19.292  11.824  1.00 51.23 LIG-0.35  N 
ATOM     27 H    LEU B   6       5.130  18.580  11.850  1.00 51.23 LIG 0.16  HD
BRANCH 26 28
ATOM     28  CA  LEU B   6       5.418  20.535  11.865  1.00 69.26 LIG 0.16  C 
BRANCH 28 29
ATOM     29  C   LEU B   6       6.493  20.558  10.781  1.00 97.67 LIG 0.22  C 
ATOM     30 O    LEU B   6       7.142  21.579  10.556  1.00 61.20 LIG-0.29  OA
ENDBRANCH 28 29
BRANCH 28 31
ATOM     31  CB  LEU B   6       6.037  20.724  13.264  1.00 69.14 LIG 0.04  C 
BRANCH 31 32
ATOM     32  CG  LEU B   6       7.146  21.771  13.359  1.00 73.60 LIG-0.02  C 
ATOM     33  CD2 LEU B   6       8.395  21.190  13.977  1.00 75.76 LIG 0.01  C 
ATOM     34  CD1 LEU B   6       6.672  23.009  14.084  1.00 73.41 LIG 0.01  C 
ENDBRANCH 31 32
ENDBRANCH 28 31
ENDBRANCH 26 28
ENDBRANCH 19 24
ENDBRANCH 16 19
ENDBRANCH 5 15
ENDBRANCH 3 5
BRANCH 1 35
ATOM     35  CA  LEU B   3      -2.615  18.462  14.310  1.00 32.52 LIG 0.18  C 
BRANCH 35 36
ATOM     36  CB  LEU B   3      -2.659  17.780  15.692  1.00 32.14 LIG 0.04  C 
BRANCH 36 37
ATOM     37  CG  LEU B   3      -1.544  18.204  16.662  1.00 34.99 LIG-0.02  C 
ATOM     38  CD2 LEU B   3      -1.340  19.741  16.647  1.00 35.91 LIG 0.01  C 
ATOM     39  CD1 LEU B   3      -0.242  17.421  16.371  1.00 33.16 LIG 0.01  C 
ENDBRANCH 36 37
ENDBRANCH 35 36
BRANCH 35 40
ATOM     40  N   LEU B   3      -3.963  18.754  13.834  1.00 32.48 LIG-0.35  N 
ATOM     41  C   ASN B   2      -4.196  19.800  13.019  1.00 36.40 LIG 0.24  C 
ATOM     42 O    ASN B   2      -3.306  20.578  12.656  1.00 34.95 LIG-0.27  OA
ATOM     43 H    LEU B   3      -4.570  18.212  14.114  1.00 32.48 LIG 0.16  HD
BRANCH 41 44
ATOM     44  CA  ASN B   2      -5.648  20.067  12.612  1.00 32.65 LIG 0.18  C 
BRANCH 44 45
ATOM     45  N   ASN B   2      -5.605  20.585  11.249  1.00 32.45 LIG-0.34  N 
ATOM     46 H    ASN B   2      -5.061  20.146  10.748  1.00 32.45 LIG 0.16  HD
ATOM     47  C   THR B   1      -6.313  21.621  10.785  1.00 35.22 LIG 0.25  C 
ATOM     48 O    THR B   1      -7.207  22.202  11.431  1.00 34.61 LIG-0.27  OA
BRANCH 47 49
ATOM     49  CA  THR B   1      -5.948  22.024   9.378  1.00 32.53 LIG 0.30  C 
BRANCH 49 50
ATOM     50  CB  THR B   1      -4.453  22.370   9.291  1.00 31.51 LIG 0.15  C 
ATOM     51  CG2 THR B   1      -3.620  21.315   8.498  1.00 30.77 LIG 0.04  C 
BRANCH 50 52
ATOM     52 OG1  THR B   1      -4.313  23.662   8.699  1.00 21.64 LIG-0.39  OA
ATOM     53 HG1  THR B   1      -3.577  23.996   8.927  1.00 21.64 LIG 0.21  HD
ENDBRANCH 50 52
ENDBRANCH 49 50
BRANCH 49 54
ATOM     54  N   THR B   1      -6.790  23.114   8.894  1.00 34.33 LIG-0.06  N 
ATOM     55 H2   THR B   1      -7.556  23.122   9.349  1.00 34.33 LIG 0.28  HD
ATOM     56 H1   THR B   1      -6.961  22.996   8.028  1.00 34.33 LIG 0.28  HD
ATOM     57 H3   THR B   1      -6.369  23.889   9.010  1.00 34.33 LIG 0.28  HD
ENDBRANCH 49 54
ENDBRANCH 47 49
ENDBRANCH 44 45
BRANCH 44 58
ATOM     58  CB  ASN B   2      -6.524  18.804  12.704  1.00 33.77 LIG 0.14  C 
BRANCH 58 59
ATOM     59  CG  ASN B   2      -6.212  17.768  11.642  1.00 47.71 LIG 0.22  C 
ATOM     60 OD1  ASN B   2      -5.616  18.059  10.598  1.00 37.59 LIG-0.27  OA
ATOM     61  ND2 ASN B   2      -6.636  16.534  11.868  1.00 40.38 LIG-0.37  N 
ATOM     62 22HD ASN B   2      -7.048  16.349  12.599  1.00 40.38 LIG 0.16  HD
ATOM     63 21HD ASN B   2      -6.499  15.918  11.284  1.00 40.38 LIG 0.16  HD
ENDBRANCH 58 59
ENDBRANCH 44 58
ENDBRANCH 41 44
ENDBRANCH 35 40
ENDBRANCH 1 35
TORSDOF 26
ENDMDL
MODEL 37
USER: ADFR SOLUTION from run 11
USER: SCORE 20.172192 LL:  -5.473 LR: -16.142 RR:   0.000 FEB:  -8.386
USER: RMSD 9.947883
USER: SEED 123341
USER: STATUS no improvement in best in 12 clusters for 5 generations
USER: GENES 28
USER: genes 0 Translation |==|  0.54941 0.49545 0.41696
USER: genes 1 Rotation |==|  0.27804 0.50207 0.90923 0.68237
USER: genes 2 Torsion [C]-N--CA-[CB] |==|  0.82568
USER: genes 3 Torsion [N]-CA--CB-[CG] |==|  0.75970
USER: genes 4 Torsion [CA]-CB--CG-[CD2] |==|  0.20855
USER: genes 5 Torsion [CE2]-CZ--OH-[HH] |==|  0.91402
USER: genes 6 Torsion [N]-CA--C-[N] |==|  0.35864
USER: genes 7 Torsion [C]-N--CA-[CB] |==|  0.85950
USER: genes 8 Torsion [N]-CA--CB-[CG] |==|  0.51919
USER: genes 9 Torsion [CA]-CB--CG-[SD] |==|  0.06373
USER: genes 10 Torsion [CB]-CG--SD-[CE] |==|  0.24999
USER: genes 11 Torsion [N]-CA--C-[N] |==|  0.28925
USER: genes 12 Torsion [C]-N--CA-[C] |==|  0.60761
USER: genes 13 Torsion [N]-CA--C-[O] |==|  0.66026
USER: genes 14 Torsion [N]-CA--CB-[CG] |==|  0.83151
USER: genes 15 Torsion [CA]-CB--CG-[CD1] |==|  0.29490
USER: genes 16 Torsion [N]-C--CA-[N] |==|  0.64864
USER: genes 17 Torsion [C]-CA--CB-[CG] |==|  0.30014
USER: genes 18 Torsion [CA]-CB--CG-[CD2] |==|  0.00067
USER: genes 19 Torsion [C]-CA--N-[C] |==|  0.16789
USER: genes 20 Torsion [N]-C--CA-[N] |==|  0.44363
USER: genes 21 Torsion [C]-CA--N-[C] |==|  0.60816
USER: genes 22 Torsion [N]-C--CA-[N] |==|  0.40559
USER: genes 23 Torsion [C]-CA--CB-[CG2] |==|  0.29239
USER: genes 24 Torsion [CA]-CB--OG1-[HG1] |==|  0.70114
USER: genes 25 Torsion [C]-CA--N-[H2] |==|  0.61123
USER: genes 26 Torsion [C]-CA--CB-[CG] |==|  0.14195
USER: genes 27 Torsion [CA]-CB--CG-[OD1] |==|  0.62899
ROOT
ATOM      1  C   LEU B   3       2.326  20.407  11.376  1.00 37.56 LIG 0.24  C 
ATOM      2 O    LEU B   3       1.962  21.594  11.275  1.00 36.01 LIG-0.27  OA
ATOM      3  N   TYR B   4       1.581  19.425  11.962  1.00 34.90 LIG-0.35  N 
ATOM      4 H    TYR B   4       1.864  18.614  12.006  1.00 34.90 LIG 0.16  HD
ENDROOT
BRANCH 3 5
ATOM      5  CA  TYR B   4       0.259  19.580  12.574  1.00 36.24 LIG 0.18  C 
BRANCH 5 6
ATOM      6  CB  TYR B   4       0.325  20.535  13.784  1.00 36.37 LIG 0.07  C 
BRANCH 6 7
ATOM      7  CG  TYR B   4       0.697  19.779  15.034  1.00 36.28 LIG-0.06  A 
ATOM      8  CD2 TYR B   4       2.005  19.352  15.256  1.00 36.38 LIG 0.01  A 
ATOM      9  CE2 TYR B   4       2.343  18.603  16.377  1.00 36.34 LIG 0.04  A 
ATOM     10  CZ  TYR B   4       1.354  18.239  17.276  1.00 42.86 LIG 0.07  A 
ATOM     11  CE1 TYR B   4       0.043  18.638  17.070  1.00 38.54 LIG 0.04  A 
ATOM     12  CD1 TYR B   4      -0.280  19.398  15.952  1.00 37.84 LIG 0.01  A 
BRANCH 10 13
ATOM     13 OH   TYR B   4       1.663  17.487  18.377  1.00 44.02 LIG-0.36  OA
ATOM     14 HH   TYR B   4       2.310  16.981  18.198  1.00 44.02 LIG 0.22  HD
ENDBRANCH 10 13
ENDBRANCH 6 7
ENDBRANCH 5 6
BRANCH 5 15
ATOM     15  C   TYR B   4      -0.782  20.025  11.554  1.00 47.41 LIG 0.24  C 
ATOM     16  N   MET B   5      -1.895  19.299  11.522  1.00 49.29 LIG-0.35  N 
ATOM     17 H    MET B   5      -2.028  18.597  11.999  1.00 49.29 LIG 0.16  HD
ATOM     18 O    TYR B   4      -0.598  21.005  10.827  1.00 47.26 LIG-0.27  OA
BRANCH 16 19
ATOM     19  CA  MET B   5      -2.998  19.657  10.650  1.00 52.16 LIG 0.18  C 
BRANCH 19 20
ATOM     20  CB  MET B   5      -3.375  21.129  10.816  1.00 55.77 LIG 0.04  C 
BRANCH 20 21
ATOM     21  CG  MET B   5      -4.637  21.501  10.041  1.00 61.00 LIG 0.08  C 
BRANCH 21 22
ATOM     22 SD   MET B   5      -5.692  20.082   9.698  1.00 67.05 LIG-0.17  SA
ATOM     23  CE  MET B   5      -6.721  20.105  11.149  1.00 63.64 LIG 0.09  C 
ENDBRANCH 21 22
ENDBRANCH 20 21
ENDBRANCH 19 20
BRANCH 19 24
ATOM     24  C   MET B   5      -2.562  19.297   9.244  1.00 55.98 LIG 0.24  C 
ATOM     25 O    MET B   5      -1.672  19.954   8.702  1.00 56.32 LIG-0.27  OA
ATOM     26  N   LEU B   6      -3.087  18.191   8.705  1.00 51.23 LIG-0.35  N 
ATOM     27 H    LEU B   6      -3.689  17.713   9.090  1.00 51.23 LIG 0.16  HD
BRANCH 26 28
ATOM     28  CA  LEU B   6      -2.676  17.692   7.393  1.00 69.26 LIG 0.16  C 
BRANCH 28 29
ATOM     29  C   LEU B   6      -3.867  17.147   6.608  1.00 97.67 LIG 0.22  C 
ATOM     30 O    LEU B   6      -3.879  15.985   6.205  1.00 61.20 LIG-0.29  OA
ENDBRANCH 28 29
BRANCH 28 31
ATOM     31  CB  LEU B   6      -1.583  16.618   7.559  1.00 69.14 LIG 0.04  C 
BRANCH 31 32
ATOM     32  CG  LEU B   6      -0.298  17.083   8.242  1.00 73.60 LIG-0.02  C 
ATOM     33  CD2 LEU B   6       0.917  16.734   7.416  1.00 75.76 LIG 0.01  C 
ATOM     34  CD1 LEU B   6      -0.202  16.551   9.653  1.00 73.41 LIG 0.01  C 
ENDBRANCH 31 32
ENDBRANCH 28 31
ENDBRANCH 26 28
ENDBRANCH 19 24
ENDBRANCH 16 19
ENDBRANCH 5 15
ENDBRANCH 3 5
BRANCH 1 35
ATOM     35  CA  LEU B   3       3.713  19.998  10.878  1.00 32.52 LIG 0.18  C 
BRANCH 35 36
ATOM     36  CB  LEU B   3       4.011  18.519  11.200  1.00 32.14 LIG 0.04  C 
BRANCH 36 37
ATOM     37  CG  LEU B   3       4.001  17.575   9.985  1.00 34.99 LIG-0.02  C 
ATOM     38  CD2 LEU B   3       3.692  18.346   8.677  1.00 35.91 LIG 0.01  C 
ATOM     39  CD1 LEU B   3       3.039  16.388  10.227  1.00 33.16 LIG 0.01  C 
ENDBRANCH 36 37
ENDBRANCH 35 36
BRANCH 35 40
ATOM     40  N   LEU B   3       4.757  20.864  11.416  1.00 32.48 LIG-0.35  N 
ATOM     41  C   ASN B   2       4.959  20.959  12.744  1.00 36.40 LIG 0.24  C 
ATOM     42 O    ASN B   2       4.268  20.352  13.572  1.00 34.95 LIG-0.27  OA
ATOM     43 H    LEU B   3       5.213  21.291  10.825  1.00 32.48 LIG 0.16  HD
BRANCH 41 44
ATOM     44  CA  ASN B   2       6.038  21.933  13.226  1.00 32.65 LIG 0.18  C 
BRANCH 44 45
ATOM     45  N   ASN B   2       5.740  22.220  14.624  1.00 32.45 LIG-0.34  N 
ATOM     46 H    ASN B   2       5.466  21.526  15.051  1.00 32.45 LIG 0.16  HD
ATOM     47  C   THR B   1       5.862  23.412  15.219  1.00 35.22 LIG 0.25  C 
ATOM     48 O    THR B   1       6.376  24.412  14.682  1.00 34.61 LIG-0.27  OA
BRANCH 47 49
ATOM     49  CA  THR B   1       5.335  23.441  16.632  1.00 32.53 LIG 0.30  C 
BRANCH 49 50
ATOM     50  CB  THR B   1       3.840  23.801  16.639  1.00 31.51 LIG 0.15  C 
ATOM     51  CG2 THR B   1       2.913  22.579  16.925  1.00 30.77 LIG 0.04  C 
BRANCH 50 52
ATOM     52 OG1  THR B   1       3.619  24.831  17.603  1.00 21.64 LIG-0.39  OA
ATOM     53 HG1  THR B   1       3.219  24.511  18.268  1.00 21.64 LIG 0.21  HD
ENDBRANCH 50 52
ENDBRANCH 49 50
BRANCH 49 54
ATOM     54  N   THR B   1       6.116  24.337  17.480  1.00 34.33 LIG-0.06  N 
ATOM     55 H2   THR B   1       6.224  23.968  18.282  1.00 34.33 LIG 0.28  HD
ATOM     56 H1   THR B   1       5.688  25.113  17.565  1.00 34.33 LIG 0.28  HD
ATOM     57 H3   THR B   1       6.912  24.479  17.109  1.00 34.33 LIG 0.28  HD
ENDBRANCH 49 54
ENDBRANCH 47 49
ENDBRANCH 44 45
BRANCH 44 58
ATOM     58  CB  ASN B   2       7.458  21.361  13.062  1.00 33.77 LIG 0.14  C 
BRANCH 58 59
ATOM     59  CG  ASN B   2       7.744  20.829  11.672  1.00 47.71 LIG 0.22  C 
ATOM     60 OD1  ASN B   2       8.284  19.732  11.489  1.00 37.59 LIG-0.27  OA
ATOM     61  ND2 ASN B   2       7.416  21.610  10.654  1.00 40.38 LIG-0.37  N 
ATOM     62 22HD ASN B   2       7.041  22.370  10.799  1.00 40.38 LIG 0.16  HD
ATOM     63 21HD ASN B   2       7.578  21.357   9.849  1.00 40.38 LIG 0.16  HD
ENDBRANCH 58 59
ENDBRANCH 44 58
ENDBRANCH 41 44
ENDBRANCH 35 40
ENDBRANCH 1 35
TORSDOF 26
ENDMDL
MODEL 38
USER: ADFR SOLUTION from run 128
USER: SCORE 20.568428 LL:  -6.612 LR: -16.132 RR:   0.000 FEB:  -8.376
USER: RMSD 5.731597
USER: SEED 127
USER: STATUS no improvement in best in 3 clusters for 5 generations
USER: GENES 28
USER: genes 0 Translation |==|  0.53359 0.32777 0.43493
USER: genes 1 Rotation |==|  0.32061 0.59153 0.22409 0.86513
USER: genes 2 Torsion [C]-N--CA-[CB] |==|  0.50674
USER: genes 3 Torsion [N]-CA--CB-[CG] |==|  0.49637
USER: genes 4 Torsion [CA]-CB--CG-[CD2] |==|  0.58833
USER: genes 5 Torsion [CE2]-CZ--OH-[HH] |==|  0.44815
USER: genes 6 Torsion [N]-CA--C-[N] |==|  0.85366
USER: genes 7 Torsion [C]-N--CA-[CB] |==|  0.81099
USER: genes 8 Torsion [N]-CA--CB-[CG] |==|  0.86099
USER: genes 9 Torsion [CA]-CB--CG-[SD] |==|  0.52322
USER: genes 10 Torsion [CB]-CG--SD-[CE] |==|  0.05898
USER: genes 11 Torsion [N]-CA--C-[N] |==|  0.16183
USER: genes 12 Torsion [C]-N--CA-[C] |==|  0.50574
USER: genes 13 Torsion [N]-CA--C-[O] |==|  0.12370
USER: genes 14 Torsion [N]-CA--CB-[CG] |==|  0.70460
USER: genes 15 Torsion [CA]-CB--CG-[CD1] |==|  0.57871
USER: genes 16 Torsion [N]-C--CA-[N] |==|  0.90497
USER: genes 17 Torsion [C]-CA--CB-[CG] |==|  0.62880
USER: genes 18 Torsion [CA]-CB--CG-[CD2] |==|  0.82131
USER: genes 19 Torsion [C]-CA--N-[C] |==|  0.80037
USER: genes 20 Torsion [N]-C--CA-[N] |==|  0.26669
USER: genes 21 Torsion [C]-CA--N-[C] |==|  0.72782
USER: genes 22 Torsion [N]-C--CA-[N] |==|  0.38248
USER: genes 23 Torsion [C]-CA--CB-[CG2] |==|  0.34996
USER: genes 24 Torsion [CA]-CB--OG1-[HG1] |==|  0.40214
USER: genes 25 Torsion [C]-CA--N-[H2] |==|  0.97944
USER: genes 26 Torsion [C]-CA--CB-[CG] |==|  0.13344
USER: genes 27 Torsion [CA]-CB--CG-[OD1] |==|  0.13592
ROOT
ATOM      1  C   LEU B   3       1.993  17.514  11.807  1.00 37.56 LIG 0.24  C 
ATOM      2 O    LEU B   3       2.261  16.777  12.776  1.00 36.01 LIG-0.27  OA
ATOM      3  N   TYR B   4       2.788  18.538  11.381  1.00 34.90 LIG-0.35  N 
ATOM      4 H    TYR B   4       2.572  19.020  10.703  1.00 34.90 LIG 0.16  HD
ENDROOT
BRANCH 3 5
ATOM      5  CA  TYR B   4       4.061  18.959  11.972  1.00 36.24 LIG 0.18  C 
BRANCH 5 6
ATOM      6  CB  TYR B   4       4.624  20.194  11.239  1.00 36.37 LIG 0.07  C 
BRANCH 6 7
ATOM      7  CG  TYR B   4       5.916  20.640  11.873  1.00 36.28 LIG-0.06  A 
ATOM      8  CD2 TYR B   4       6.285  21.985  11.891  1.00 36.38 LIG 0.01  A 
ATOM      9  CE2 TYR B   4       7.503  22.395  12.420  1.00 36.34 LIG 0.04  A 
ATOM     10  CZ  TYR B   4       8.389  21.447  12.906  1.00 42.86 LIG 0.07  A 
ATOM     11  CE1 TYR B   4       8.052  20.103  12.885  1.00 38.54 LIG 0.04  A 
ATOM     12  CD1 TYR B   4       6.827  19.706  12.366  1.00 37.84 LIG 0.01  A 
BRANCH 10 13
ATOM     13 OH   TYR B   4       9.600  21.830  13.415  1.00 44.02 LIG-0.36  OA
ATOM     14 HH   TYR B   4       9.912  21.212  13.892  1.00 44.02 LIG 0.22  HD
ENDBRANCH 10 13
ENDBRANCH 6 7
ENDBRANCH 5 6
BRANCH 5 15
ATOM     15  C   TYR B   4       3.930  19.199  13.472  1.00 47.41 LIG 0.24  C 
ATOM     16  N   MET B   5       2.951  20.022  13.834  1.00 49.29 LIG-0.35  N 
ATOM     17 H    MET B   5       2.441  20.439  13.282  1.00 49.29 LIG 0.16  HD
ATOM     18 O    TYR B   4       4.677  18.646  14.284  1.00 47.26 LIG-0.27  OA
BRANCH 16 19
ATOM     19  CA  MET B   5       2.669  20.280  15.234  1.00 52.16 LIG 0.18  C 
BRANCH 19 20
ATOM     20  CB  MET B   5       2.109  19.034  15.920  1.00 55.77 LIG 0.04  C 
BRANCH 20 21
ATOM     21  CG  MET B   5       0.953  18.407  15.144  1.00 61.00 LIG 0.08  C 
BRANCH 21 22
ATOM     22 SD   MET B   5       0.133  17.088  16.055  1.00 67.05 LIG-0.17  SA
ATOM     23  CE  MET B   5       0.621  17.508  17.713  1.00 63.64 LIG 0.09  C 
ENDBRANCH 21 22
ENDBRANCH 20 21
ENDBRANCH 19 20
BRANCH 19 24
ATOM     24  C   MET B   5       3.962  20.780  15.843  1.00 55.98 LIG 0.24  C 
ATOM     25 O    MET B   5       4.516  20.110  16.716  1.00 56.32 LIG-0.27  OA
ATOM     26  N   LEU B   6       4.507  21.878  15.307  1.00 51.23 LIG-0.35  N 
ATOM     27 H    LEU B   6       4.138  22.335  14.678  1.00 51.23 LIG 0.16  HD
BRANCH 26 28
ATOM     28  CA  LEU B   6       5.798  22.403  15.749  1.00 69.26 LIG 0.16  C 
BRANCH 28 29
ATOM     29  C   LEU B   6       6.158  23.688  15.006  1.00 97.67 LIG 0.22  C 
ATOM     30 O    LEU B   6       5.323  24.574  14.835  1.00 61.20 LIG-0.29  OA
ENDBRANCH 28 29
BRANCH 28 31
ATOM     31  CB  LEU B   6       6.892  21.332  15.565  1.00 69.14 LIG 0.04  C 
BRANCH 31 32
ATOM     32  CG  LEU B   6       7.389  20.669  16.848  1.00 73.60 LIG-0.02  C 
ATOM     33  CD2 LEU B   6       7.198  21.575  18.041  1.00 75.76 LIG 0.01  C 
ATOM     34  CD1 LEU B   6       8.821  20.204  16.707  1.00 73.41 LIG 0.01  C 
ENDBRANCH 31 32
ENDBRANCH 28 31
ENDBRANCH 26 28
ENDBRANCH 19 24
ENDBRANCH 16 19
ENDBRANCH 5 15
ENDBRANCH 3 5
BRANCH 1 35
ATOM     35  CA  LEU B   3       0.670  17.329  11.062  1.00 32.52 LIG 0.18  C 
BRANCH 35 36
ATOM     36  CB  LEU B   3       0.831  16.370   9.865  1.00 32.14 LIG 0.04  C 
BRANCH 36 37
ATOM     37  CG  LEU B   3       0.194  16.856   8.552  1.00 34.99 LIG-0.02  C 
ATOM     38  CD2 LEU B   3      -1.347  16.965   8.682  1.00 35.91 LIG 0.01  C 
ATOM     39  CD1 LEU B   3       0.637  15.964   7.369  1.00 33.16 LIG 0.01  C 
ENDBRANCH 36 37
ENDBRANCH 35 36
BRANCH 35 40
ATOM     40  N   LEU B   3       0.110  18.605  10.630  1.00 32.48 LIG-0.35  N 
ATOM     41  C   ASN B   2      -0.422  19.462  11.522  1.00 36.40 LIG 0.24  C 
ATOM     42 O    ASN B   2      -0.492  19.213  12.732  1.00 34.95 LIG-0.27  OA
ATOM     43 H    LEU B   3       0.151  18.750   9.783  1.00 32.48 LIG 0.16  HD
BRANCH 41 44
ATOM     44  CA  ASN B   2      -1.038  20.754  10.978  1.00 32.65 LIG 0.18  C 
BRANCH 44 45
ATOM     45  N   ASN B   2      -2.470  20.505  10.847  1.00 32.45 LIG-0.34  N 
ATOM     46 H    ASN B   2      -2.889  20.602  11.591  1.00 32.45 LIG 0.16  HD
ATOM     47  C   THR B   1      -3.102  20.161   9.720  1.00 35.22 LIG 0.25  C 
ATOM     48 O    THR B   1      -2.563  20.137   8.596  1.00 34.61 LIG-0.27  OA
BRANCH 47 49
ATOM     49  CA  THR B   1      -4.558  19.820   9.921  1.00 32.53 LIG 0.30  C 
BRANCH 49 50
ATOM     50  CB  THR B   1      -4.739  18.298  10.037  1.00 31.51 LIG 0.15  C 
ATOM     51  CG2 THR B   1      -5.501  17.865  11.329  1.00 30.77 LIG 0.04  C 
BRANCH 50 52
ATOM     52 OG1  THR B   1      -5.421  17.825   8.875  1.00 21.64 LIG-0.39  OA
ATOM     53 HG1  THR B   1      -5.129  17.065   8.670  1.00 21.64 LIG 0.21  HD
ENDBRANCH 50 52
ENDBRANCH 49 50
BRANCH 49 54
ATOM     54  N   THR B   1      -5.394  20.391   8.869  1.00 34.33 LIG-0.06  N 
ATOM     55 H2   THR B   1      -4.903  20.928   8.357  1.00 34.33 LIG 0.28  HD
ATOM     56 H1   THR B   1      -6.058  20.856   9.237  1.00 34.33 LIG 0.28  HD
ATOM     57 H3   THR B   1      -5.733  19.737   8.371  1.00 34.33 LIG 0.28  HD
ENDBRANCH 49 54
ENDBRANCH 47 49
ENDBRANCH 44 45
BRANCH 44 58
ATOM     58  CB  ASN B   2      -0.762  21.964  11.889  1.00 33.77 LIG 0.14  C 
BRANCH 58 59
ATOM     59  CG  ASN B   2       0.689  22.090  12.310  1.00 47.71 LIG 0.22  C 
ATOM     60 OD1  ASN B   2       1.616  22.025  11.494  1.00 37.59 LIG-0.27  OA
ATOM     61  ND2 ASN B   2       0.924  22.244  13.604  1.00 40.38 LIG-0.37  N 
ATOM     62 22HD ASN B   2       0.269  22.288  14.158  1.00 40.38 LIG 0.16  HD
ATOM     63 21HD ASN B   2       1.733  22.300  13.890  1.00 40.38 LIG 0.16  HD
ENDBRANCH 58 59
ENDBRANCH 44 58
ENDBRANCH 41 44
ENDBRANCH 35 40
ENDBRANCH 1 35
TORSDOF 26
ENDMDL
MODEL 39
USER: ADFR SOLUTION from run 59
USER: SCORE 20.247748 LL:  -6.787 LR: -16.066 RR:   0.000 FEB:  -8.310
USER: RMSD 6.807127
USER: SEED 58
USER: STATUS no improvement in best in 6 clusters for 5 generations
USER: GENES 28
USER: genes 0 Translation |==|  0.35359 0.46691 0.46711
USER: genes 1 Rotation |==|  0.56252 0.90187 0.69786 0.71317
USER: genes 2 Torsion [C]-N--CA-[CB] |==|  0.48448
USER: genes 3 Torsion [N]-CA--CB-[CG] |==|  0.13805
USER: genes 4 Torsion [CA]-CB--CG-[CD2] |==|  0.74916
USER: genes 5 Torsion [CE2]-CZ--OH-[HH] |==|  0.89327
USER: genes 6 Torsion [N]-CA--C-[N] |==|  0.85698
USER: genes 7 Torsion [C]-N--CA-[CB] |==|  0.23743
USER: genes 8 Torsion [N]-CA--CB-[CG] |==|  0.56175
USER: genes 9 Torsion [CA]-CB--CG-[SD] |==|  0.50467
USER: genes 10 Torsion [CB]-CG--SD-[CE] |==|  0.93414
USER: genes 11 Torsion [N]-CA--C-[N] |==|  0.31667
USER: genes 12 Torsion [C]-N--CA-[C] |==|  0.71850
USER: genes 13 Torsion [N]-CA--C-[O] |==|  0.07304
USER: genes 14 Torsion [N]-CA--CB-[CG] |==|  0.06998
USER: genes 15 Torsion [CA]-CB--CG-[CD1] |==|  0.38528
USER: genes 16 Torsion [N]-C--CA-[N] |==|  0.38774
USER: genes 17 Torsion [C]-CA--CB-[CG] |==|  0.28855
USER: genes 18 Torsion [CA]-CB--CG-[CD2] |==|  0.11878
USER: genes 19 Torsion [C]-CA--N-[C] |==|  0.67273
USER: genes 20 Torsion [N]-C--CA-[N] |==|  0.90119
USER: genes 21 Torsion [C]-CA--N-[C] |==|  0.79392
USER: genes 22 Torsion [N]-C--CA-[N] |==|  0.36935
USER: genes 23 Torsion [C]-CA--CB-[CG2] |==|  0.28221
USER: genes 24 Torsion [CA]-CB--OG1-[HG1] |==|  0.36596
USER: genes 25 Torsion [C]-CA--N-[H2] |==|  0.23930
USER: genes 26 Torsion [C]-CA--CB-[CG] |==|  0.98270
USER: genes 27 Torsion [CA]-CB--CG-[OD1] |==|  0.17538
ROOT
ATOM      1  C   LEU B   3      -1.787  19.914  12.580  1.00 37.56 LIG 0.24  C 
ATOM      2 O    LEU B   3      -1.781  20.308  11.397  1.00 36.01 LIG-0.27  OA
ATOM      3  N   TYR B   4      -1.016  20.452  13.569  1.00 34.90 LIG-0.35  N 
ATOM      4 H    TYR B   4      -1.053  20.157  14.376  1.00 34.90 LIG 0.16  HD
ENDROOT
BRANCH 3 5
ATOM      5  CA  TYR B   4      -0.058  21.551  13.429  1.00 36.24 LIG 0.18  C 
BRANCH 5 6
ATOM      6  CB  TYR B   4       0.512  21.960  14.803  1.00 36.37 LIG 0.07  C 
BRANCH 6 7
ATOM      7  CG  TYR B   4       0.995  20.747  15.556  1.00 36.28 LIG-0.06  A 
ATOM      8  CD2 TYR B   4       0.146  20.041  16.408  1.00 36.38 LIG 0.01  A 
ATOM      9  CE2 TYR B   4       0.601  18.958  17.151  1.00 36.34 LIG 0.04  A 
ATOM     10  CZ  TYR B   4       1.935  18.592  17.074  1.00 42.86 LIG 0.07  A 
ATOM     11  CE1 TYR B   4       2.802  19.287  16.247  1.00 38.54 LIG 0.04  A 
ATOM     12  CD1 TYR B   4       2.333  20.360  15.499  1.00 37.84 LIG 0.01  A 
BRANCH 10 13
ATOM     13 OH   TYR B   4       2.406  17.539  17.811  1.00 44.02 LIG-0.36  OA
ATOM     14 HH   TYR B   4       2.040  17.540  18.568  1.00 44.02 LIG 0.22  HD
ENDBRANCH 10 13
ENDBRANCH 6 7
ENDBRANCH 5 6
BRANCH 5 15
ATOM     15  C   TYR B   4       1.046  21.208  12.435  1.00 47.41 LIG 0.24  C 
ATOM     16  N   MET B   5       1.662  20.050  12.646  1.00 49.29 LIG-0.35  N 
ATOM     17 H    MET B   5       1.502  19.531  13.312  1.00 49.29 LIG 0.16  HD
ATOM     18 O    TYR B   4       1.326  21.956  11.495  1.00 47.26 LIG-0.27  OA
BRANCH 16 19
ATOM     19  CA  MET B   5       2.682  19.566  11.733  1.00 52.16 LIG 0.18  C 
BRANCH 19 20
ATOM     20  CB  MET B   5       4.052  20.144  12.084  1.00 55.77 LIG 0.04  C 
BRANCH 20 21
ATOM     21  CG  MET B   5       5.016  20.124  10.900  1.00 61.00 LIG 0.08  C 
BRANCH 21 22
ATOM     22 SD   MET B   5       6.649  20.759  11.316  1.00 67.05 LIG-0.17  SA
ATOM     23  CE  MET B   5       6.237  21.778  12.715  1.00 63.64 LIG 0.09  C 
ENDBRANCH 21 22
ENDBRANCH 20 21
ENDBRANCH 19 20
BRANCH 19 24
ATOM     24  C   MET B   5       2.626  18.054  11.796  1.00 55.98 LIG 0.24  C 
ATOM     25 O    MET B   5       2.824  17.487  12.871  1.00 56.32 LIG-0.27  OA
ATOM     26  N   LEU B   6       2.236  17.409  10.690  1.00 51.23 LIG-0.35  N 
ATOM     27 H    LEU B   6       2.070  17.802   9.943  1.00 51.23 LIG 0.16  HD
BRANCH 26 28
ATOM     28  CA  LEU B   6       2.056  15.959  10.655  1.00 69.26 LIG 0.16  C 
BRANCH 28 29
ATOM     29  C   LEU B   6       3.246  15.267   9.994  1.00 97.67 LIG 0.22  C 
ATOM     30 O    LEU B   6       4.362  15.785  10.001  1.00 61.20 LIG-0.29  OA
ENDBRANCH 28 29
BRANCH 28 31
ATOM     31  CB  LEU B   6       0.741  15.610   9.932  1.00 69.14 LIG 0.04  C 
BRANCH 31 32
ATOM     32  CG  LEU B   6       0.242  16.650   8.930  1.00 73.60 LIG-0.02  C 
ATOM     33  CD2 LEU B   6      -0.767  17.578   9.562  1.00 75.76 LIG 0.01  C 
ATOM     34  CD1 LEU B   6      -0.290  15.995   7.676  1.00 73.41 LIG 0.01  C 
ENDBRANCH 31 32
ENDBRANCH 28 31
ENDBRANCH 26 28
ENDBRANCH 19 24
ENDBRANCH 16 19
ENDBRANCH 5 15
ENDBRANCH 3 5
BRANCH 1 35
ATOM     35  CA  LEU B   3      -2.653  18.716  12.972  1.00 32.52 LIG 0.18  C 
BRANCH 35 36
ATOM     36  CB  LEU B   3      -1.957  17.384  12.626  1.00 32.14 LIG 0.04  C 
BRANCH 36 37
ATOM     37  CG  LEU B   3      -1.348  16.637  13.825  1.00 34.99 LIG-0.02  C 
ATOM     38  CD2 LEU B   3      -2.305  16.658  15.044  1.00 35.91 LIG 0.01  C 
ATOM     39  CD1 LEU B   3       0.058  17.191  14.153  1.00 33.16 LIG 0.01  C 
ENDBRANCH 36 37
ENDBRANCH 35 36
BRANCH 35 40
ATOM     40  N   LEU B   3      -3.976  18.782  12.361  1.00 32.48 LIG-0.35  N 
ATOM     41  C   ASN B   2      -5.084  18.866  13.121  1.00 36.40 LIG 0.24  C 
ATOM     42 O    ASN B   2      -5.050  18.863  14.358  1.00 34.95 LIG-0.27  OA
ATOM     43 H    LEU B   3      -3.978  18.763  11.501  1.00 32.48 LIG 0.16  HD
BRANCH 41 44
ATOM     44  CA  ASN B   2      -6.435  18.875  12.400  1.00 32.65 LIG 0.18  C 
BRANCH 44 45
ATOM     45  N   ASN B   2      -6.235  19.613  11.158  1.00 32.45 LIG-0.34  N 
ATOM     46 H    ASN B   2      -6.211  19.098  10.470  1.00 32.45 LIG 0.16  HD
ATOM     47  C   THR B   1      -6.097  20.939  11.052  1.00 35.22 LIG 0.25  C 
ATOM     48 O    THR B   1      -6.255  21.736  11.997  1.00 34.61 LIG-0.27  OA
BRANCH 47 49
ATOM     49  CA  THR B   1      -5.750  21.404   9.659  1.00 32.53 LIG 0.30  C 
BRANCH 49 50
ATOM     50  CB  THR B   1      -4.252  21.730   9.562  1.00 31.51 LIG 0.15  C 
ATOM     51  CG2 THR B   1      -3.419  20.607   8.869  1.00 30.77 LIG 0.04  C 
BRANCH 50 52
ATOM     52 OG1  THR B   1      -4.094  22.968   8.866  1.00 21.64 LIG-0.39  OA
ATOM     53 HG1  THR B   1      -3.570  23.465   9.295  1.00 21.64 LIG 0.21  HD
ENDBRANCH 50 52
ENDBRANCH 49 50
BRANCH 49 54
ATOM     54  N   THR B   1      -6.582  22.529   9.244  1.00 34.33 LIG-0.06  N 
ATOM     55 H2   THR B   1      -6.216  23.290   9.527  1.00 34.33 LIG 0.28  HD
ATOM     56 H1   THR B   1      -7.396  22.442   9.595  1.00 34.33 LIG 0.28  HD
ATOM     57 H3   THR B   1      -6.643  22.543   8.357  1.00 34.33 LIG 0.28  HD
ENDBRANCH 49 54
ENDBRANCH 47 49
ENDBRANCH 44 45
BRANCH 44 58
ATOM     58  CB  ASN B   2      -6.964  17.455  12.128  1.00 33.77 LIG 0.14  C 
BRANCH 58 59
ATOM     59  CG  ASN B   2      -5.980  16.359  12.490  1.00 47.71 LIG 0.22  C 
ATOM     60 OD1  ASN B   2      -5.598  16.180  13.652  1.00 37.59 LIG-0.27  OA
ATOM     61  ND2 ASN B   2      -5.520  15.617  11.494  1.00 40.38 LIG-0.37  N 
ATOM     62 22HD ASN B   2      -5.796  15.755  10.692  1.00 40.38 LIG 0.16  HD
ATOM     63 21HD ASN B   2      -4.945  14.997  11.650  1.00 40.38 LIG 0.16  HD
ENDBRANCH 58 59
ENDBRANCH 44 58
ENDBRANCH 41 44
ENDBRANCH 35 40
ENDBRANCH 1 35
TORSDOF 26
ENDMDL
MODEL 40
USER: ADFR SOLUTION from run 1
USER: SCORE 19.356361 LL:  -6.000 LR: -16.046 RR:   0.000 FEB:  -8.290
USER: RMSD 5.497910
USER: SEED 797214
USER: STATUS no improvement in best in 12 clusters for 5 generations
USER: GENES 28
USER: genes 0 Translation |==|  0.40329 0.38169 0.43800
USER: genes 1 Rotation |==|  0.69793 0.58748 0.33544 0.91963
USER: genes 2 Torsion [C]-N--CA-[CB] |==|  0.84999
USER: genes 3 Torsion [N]-CA--CB-[CG] |==|  0.88415
USER: genes 4 Torsion [CA]-CB--CG-[CD2] |==|  0.82713
USER: genes 5 Torsion [CE2]-CZ--OH-[HH] |==|  0.64356
USER: genes 6 Torsion [N]-CA--C-[N] |==|  0.90311
USER: genes 7 Torsion [C]-N--CA-[CB] |==|  0.45780
USER: genes 8 Torsion [N]-CA--CB-[CG] |==|  0.06694
USER: genes 9 Torsion [CA]-CB--CG-[SD] |==|  0.67925
USER: genes 10 Torsion [CB]-CG--SD-[CE] |==|  0.55001
USER: genes 11 Torsion [N]-CA--C-[N] |==|  0.42851
USER: genes 12 Torsion [C]-N--CA-[C] |==|  0.18755
USER: genes 13 Torsion [N]-CA--C-[O] |==|  0.96764
USER: genes 14 Torsion [N]-CA--CB-[CG] |==|  0.63676
USER: genes 15 Torsion [CA]-CB--CG-[CD1] |==|  0.66979
USER: genes 16 Torsion [N]-C--CA-[N] |==|  0.70822
USER: genes 17 Torsion [C]-CA--CB-[CG] |==|  0.20354
USER: genes 18 Torsion [CA]-CB--CG-[CD2] |==|  0.98090
USER: genes 19 Torsion [C]-CA--N-[C] |==|  0.84449
USER: genes 20 Torsion [N]-C--CA-[N] |==|  0.05348
USER: genes 21 Torsion [C]-CA--N-[C] |==|  0.64780
USER: genes 22 Torsion [N]-C--CA-[N] |==|  0.48494
USER: genes 23 Torsion [C]-CA--CB-[CG2] |==|  0.88326
USER: genes 24 Torsion [CA]-CB--OG1-[HG1] |==|  0.45106
USER: genes 25 Torsion [C]-CA--N-[H2] |==|  0.63013
USER: genes 26 Torsion [C]-CA--CB-[CG] |==|  0.93017
USER: genes 27 Torsion [CA]-CB--CG-[OD1] |==|  0.32444
ROOT
ATOM      1  C   LEU B   3      -0.743  18.444  11.881  1.00 37.56 LIG 0.24  C 
ATOM      2 O    LEU B   3      -0.501  17.315  11.412  1.00 36.01 LIG-0.27  OA
ATOM      3  N   TYR B   4      -0.592  18.775  13.196  1.00 34.90 LIG-0.35  N 
ATOM      4 H    TYR B   4      -0.763  19.568  13.480  1.00 34.90 LIG 0.16  HD
ENDROOT
BRANCH 3 5
ATOM      5  CA  TYR B   4      -0.143  17.890  14.273  1.00 36.24 LIG 0.18  C 
BRANCH 5 6
ATOM      6  CB  TYR B   4      -1.004  16.611  14.326  1.00 36.37 LIG 0.07  C 
BRANCH 6 7
ATOM      7  CG  TYR B   4      -2.459  16.946  14.124  1.00 36.28 LIG-0.06  A 
ATOM      8  CD2 TYR B   4      -3.142  17.767  15.021  1.00 36.38 LIG 0.01  A 
ATOM      9  CE2 TYR B   4      -4.499  18.032  14.873  1.00 36.34 LIG 0.04  A 
ATOM     10  CZ  TYR B   4      -5.199  17.439  13.835  1.00 42.86 LIG 0.07  A 
ATOM     11  CE1 TYR B   4      -4.546  16.607  12.939  1.00 38.54 LIG 0.04  A 
ATOM     12  CD1 TYR B   4      -3.188  16.360  13.090  1.00 37.84 LIG 0.01  A 
BRANCH 10 13
ATOM     13 OH   TYR B   4      -6.539  17.673  13.683  1.00 44.02 LIG-0.36  OA
ATOM     14 HH   TYR B   4      -6.946  16.941  13.622  1.00 44.02 LIG 0.22  HD
ENDBRANCH 10 13
ENDBRANCH 6 7
ENDBRANCH 5 6
BRANCH 5 15
ATOM     15  C   TYR B   4       1.343  17.570  14.152  1.00 47.41 LIG 0.24  C 
ATOM     16  N   MET B   5       1.803  17.462  12.910  1.00 49.29 LIG-0.35  N 
ATOM     17 H    MET B   5       1.312  17.519  12.206  1.00 49.29 LIG 0.16  HD
ATOM     18 O    TYR B   4       2.060  17.441  15.147  1.00 47.26 LIG-0.27  OA
BRANCH 16 19
ATOM     19  CA  MET B   5       3.212  17.234  12.650  1.00 52.16 LIG 0.18  C 
BRANCH 19 20
ATOM     20  CB  MET B   5       3.438  16.778  11.209  1.00 55.77 LIG 0.04  C 
BRANCH 20 21
ATOM     21  CG  MET B   5       2.318  17.222  10.271  1.00 61.00 LIG 0.08  C 
BRANCH 21 22
ATOM     22 SD   MET B   5       1.395  15.839   9.580  1.00 67.05 LIG-0.17  SA
ATOM     23  CE  MET B   5       0.612  16.648   8.203  1.00 63.64 LIG 0.09  C 
ENDBRANCH 21 22
ENDBRANCH 20 21
ENDBRANCH 19 20
BRANCH 19 24
ATOM     24  C   MET B   5       3.923  18.525  12.997  1.00 55.98 LIG 0.24  C 
ATOM     25 O    MET B   5       3.278  19.573  13.054  1.00 56.32 LIG-0.27  OA
ATOM     26  N   LEU B   6       5.210  18.439  13.352  1.00 51.23 LIG-0.35  N 
ATOM     27 H    LEU B   6       5.660  17.706  13.340  1.00 51.23 LIG 0.16  HD
BRANCH 26 28
ATOM     28  CA  LEU B   6       5.977  19.602  13.796  1.00 69.26 LIG 0.16  C 
BRANCH 28 29
ATOM     29  C   LEU B   6       5.471  20.120  15.141  1.00 97.67 LIG 0.22  C 
ATOM     30 O    LEU B   6       4.410  19.716  15.614  1.00 61.20 LIG-0.29  OA
ENDBRANCH 28 29
BRANCH 28 31
ATOM     31  CB  LEU B   6       5.924  20.707  12.722  1.00 69.14 LIG 0.04  C 
BRANCH 31 32
ATOM     32  CG  LEU B   6       7.271  21.315  12.333  1.00 73.60 LIG-0.02  C 
ATOM     33  CD2 LEU B   6       8.414  20.568  12.978  1.00 75.76 LIG 0.01  C 
ATOM     34  CD1 LEU B   6       7.313  22.795  12.634  1.00 73.41 LIG 0.01  C 
ENDBRANCH 31 32
ENDBRANCH 28 31
ENDBRANCH 26 28
ENDBRANCH 19 24
ENDBRANCH 16 19
ENDBRANCH 5 15
ENDBRANCH 3 5
BRANCH 1 35
ATOM     35  CA  LEU B   3      -1.304  19.536  10.968  1.00 32.52 LIG 0.18  C 
BRANCH 35 36
ATOM     36  CB  LEU B   3      -1.145  20.933  11.602  1.00 32.14 LIG 0.04  C 
BRANCH 36 37
ATOM     37  CG  LEU B   3       0.291  21.484  11.610  1.00 34.99 LIG-0.02  C 
ATOM     38  CD2 LEU B   3       1.304  20.418  11.119  1.00 35.91 LIG 0.01  C 
ATOM     39  CD1 LEU B   3       0.646  22.058  13.001  1.00 33.16 LIG 0.01  C 
ENDBRANCH 36 37
ENDBRANCH 35 36
BRANCH 35 40
ATOM     40  N   LEU B   3      -2.697  19.284  10.616  1.00 32.48 LIG-0.35  N 
ATOM     41  C   ASN B   2      -3.063  18.126  10.034  1.00 36.40 LIG 0.24  C 
ATOM     42 O    ASN B   2      -2.253  17.237   9.743  1.00 34.95 LIG-0.27  OA
ATOM     43 H    LEU B   3      -3.240  19.922  10.809  1.00 32.48 LIG 0.16  HD
BRANCH 41 44
ATOM     44  CA  ASN B   2      -4.536  17.965   9.647  1.00 32.65 LIG 0.18  C 
BRANCH 44 45
ATOM     45  N   ASN B   2      -5.098  19.310   9.598  1.00 32.45 LIG-0.34  N 
ATOM     46 H    ASN B   2      -4.645  19.837   9.092  1.00 32.45 LIG 0.16  HD
ATOM     47  C   THR B   1      -6.192  19.723  10.248  1.00 35.22 LIG 0.25  C 
ATOM     48 O    THR B   1      -6.954  18.968  10.883  1.00 34.61 LIG-0.27  OA
BRANCH 47 49
ATOM     49  CA  THR B   1      -6.446  21.205  10.128  1.00 32.53 LIG 0.30  C 
BRANCH 49 50
ATOM     50  CB  THR B   1      -5.264  21.999  10.707  1.00 31.51 LIG 0.15  C 
ATOM     51  CG2 THR B   1      -4.715  21.404  12.041  1.00 30.77 LIG 0.04  C 
BRANCH 50 52
ATOM     52 OG1  THR B   1      -4.228  22.063   9.727  1.00 21.64 LIG-0.39  OA
ATOM     53 HG1  THR B   1      -3.692  22.679   9.926  1.00 21.64 LIG 0.21  HD
ENDBRANCH 50 52
ENDBRANCH 49 50
BRANCH 49 54
ATOM     54  N   THR B   1      -7.713  21.586  10.744  1.00 34.33 LIG-0.06  N 
ATOM     55 H2   THR B   1      -8.164  22.118  10.191  1.00 34.33 LIG 0.28  HD
ATOM     56 H1   THR B   1      -7.555  22.016  11.508  1.00 34.33 LIG 0.28  HD
ATOM     57 H3   THR B   1      -8.195  20.856  10.910  1.00 34.33 LIG 0.28  HD
ENDBRANCH 49 54
ENDBRANCH 47 49
ENDBRANCH 44 45
BRANCH 44 58
ATOM     58  CB  ASN B   2      -4.712  17.235   8.303  1.00 33.77 LIG 0.14  C 
BRANCH 58 59
ATOM     59  CG  ASN B   2      -3.516  17.360   7.381  1.00 47.71 LIG 0.22  C 
ATOM     60 OD1  ASN B   2      -2.853  16.378   7.030  1.00 37.59 LIG-0.27  OA
ATOM     61  ND2 ASN B   2      -3.191  18.583   6.988  1.00 40.38 LIG-0.37  N 
ATOM     62 22HD ASN B   2      -3.663  19.255   7.240  1.00 40.38 LIG 0.16  HD
ATOM     63 21HD ASN B   2      -2.507  18.703   6.480  1.00 40.38 LIG 0.16  HD
ENDBRANCH 58 59
ENDBRANCH 44 58
ENDBRANCH 41 44
ENDBRANCH 35 40
ENDBRANCH 1 35
TORSDOF 26
ENDMDL
MODEL 41
USER: ADFR SOLUTION from run 187
USER: SCORE 20.798885 LL:  -6.476 LR: -16.048 RR:   0.000 FEB:  -8.292
USER: RMSD 4.960123
USER: SEED 186
USER: STATUS no improvement in best in 4 clusters for 5 generations
USER: GENES 28
USER: genes 0 Translation |==|  0.50788 0.30362 0.45537
USER: genes 1 Rotation |==|  0.51955 0.67553 0.33941 0.93934
USER: genes 2 Torsion [C]-N--CA-[CB] |==|  0.14751
USER: genes 3 Torsion [N]-CA--CB-[CG] |==|  0.08507
USER: genes 4 Torsion [CA]-CB--CG-[CD2] |==|  0.14625
USER: genes 5 Torsion [CE2]-CZ--OH-[HH] |==|  0.22641
USER: genes 6 Torsion [N]-CA--C-[N] |==|  0.57025
USER: genes 7 Torsion [C]-N--CA-[CB] |==|  0.79702
USER: genes 8 Torsion [N]-CA--CB-[CG] |==|  0.71520
USER: genes 9 Torsion [CA]-CB--CG-[SD] |==|  0.34322
USER: genes 10 Torsion [CB]-CG--SD-[CE] |==|  0.73206
USER: genes 11 Torsion [N]-CA--C-[N] |==|  0.13472
USER: genes 12 Torsion [C]-N--CA-[C] |==|  0.73647
USER: genes 13 Torsion [N]-CA--C-[O] |==|  0.67246
USER: genes 14 Torsion [N]-CA--CB-[CG] |==|  0.76424
USER: genes 15 Torsion [CA]-CB--CG-[CD1] |==|  0.96864
USER: genes 16 Torsion [N]-C--CA-[N] |==|  0.08212
USER: genes 17 Torsion [C]-CA--CB-[CG] |==|  0.67699
USER: genes 18 Torsion [CA]-CB--CG-[CD2] |==|  0.72172
USER: genes 19 Torsion [C]-CA--N-[C] |==|  0.65007
USER: genes 20 Torsion [N]-C--CA-[N] |==|  0.40885
USER: genes 21 Torsion [C]-CA--N-[C] |==|  0.80999
USER: genes 22 Torsion [N]-C--CA-[N] |==|  0.54287
USER: genes 23 Torsion [C]-CA--CB-[CG2] |==|  0.85549
USER: genes 24 Torsion [CA]-CB--OG1-[HG1] |==|  0.09368
USER: genes 25 Torsion [C]-CA--N-[H2] |==|  0.96871
USER: genes 26 Torsion [C]-CA--CB-[CG] |==|  0.20519
USER: genes 27 Torsion [CA]-CB--CG-[OD1] |==|  0.10551
ROOT
ATOM      1  C   LEU B   3       1.453  17.097  12.298  1.00 37.56 LIG 0.24  C 
ATOM      2 O    LEU B   3       1.932  15.947  12.263  1.00 36.01 LIG-0.27  OA
ATOM      3  N   TYR B   4       1.957  18.113  13.057  1.00 34.90 LIG-0.35  N 
ATOM      4 H    TYR B   4       1.603  18.896  13.049  1.00 34.90 LIG 0.16  HD
ENDROOT
BRANCH 3 5
ATOM      5  CA  TYR B   4       3.112  18.041  13.955  1.00 36.24 LIG 0.18  C 
BRANCH 5 6
ATOM      6  CB  TYR B   4       4.347  17.485  13.217  1.00 36.37 LIG 0.07  C 
BRANCH 6 7
ATOM      7  CG  TYR B   4       4.303  17.860  11.758  1.00 36.28 LIG-0.06  A 
ATOM      8  CD2 TYR B   4       4.129  19.185  11.358  1.00 36.38 LIG 0.01  A 
ATOM      9  CE2 TYR B   4       4.027  19.530  10.016  1.00 36.34 LIG 0.04  A 
ATOM     10  CZ  TYR B   4       4.060  18.536   9.053  1.00 42.86 LIG 0.07  A 
ATOM     11  CE1 TYR B   4       4.217  17.210   9.425  1.00 38.54 LIG 0.04  A 
ATOM     12  CD1 TYR B   4       4.331  16.878  10.769  1.00 37.84 LIG 0.01  A 
BRANCH 10 13
ATOM     13 OH   TYR B   4       3.944  18.853   7.727  1.00 44.02 LIG-0.36  OA
ATOM     14 HH   TYR B   4       4.689  19.106   7.433  1.00 44.02 LIG 0.22  HD
ENDBRANCH 10 13
ENDBRANCH 6 7
ENDBRANCH 5 6
BRANCH 5 15
ATOM     15  C   TYR B   4       3.399  19.389  14.608  1.00 47.41 LIG 0.24  C 
ATOM     16  N   MET B   5       4.656  19.579  14.994  1.00 49.29 LIG-0.35  N 
ATOM     17 H    MET B   5       5.275  18.985  14.934  1.00 49.29 LIG 0.16  HD
ATOM     18 O    TYR B   4       2.519  20.242  14.744  1.00 47.26 LIG-0.27  OA
BRANCH 16 19
ATOM     19  CA  MET B   5       5.083  20.844  15.561  1.00 52.16 LIG 0.18  C 
BRANCH 19 20
ATOM     20  CB  MET B   5       5.174  21.926  14.486  1.00 55.77 LIG 0.04  C 
BRANCH 20 21
ATOM     21  CG  MET B   5       6.612  22.204  14.055  1.00 61.00 LIG 0.08  C 
BRANCH 21 22
ATOM     22 SD   MET B   5       6.865  21.997  12.284  1.00 67.05 LIG-0.17  SA
ATOM     23  CE  MET B   5       7.496  20.335  12.254  1.00 63.64 LIG 0.09  C 
ENDBRANCH 21 22
ENDBRANCH 20 21
ENDBRANCH 19 20
BRANCH 19 24
ATOM     24  C   MET B   5       4.098  21.168  16.666  1.00 55.98 LIG 0.24  C 
ATOM     25 O    MET B   5       3.510  22.250  16.652  1.00 56.32 LIG-0.27  OA
ATOM     26  N   LEU B   6       3.822  20.196  17.544  1.00 51.23 LIG-0.35  N 
ATOM     27 H    LEU B   6       4.209  19.429  17.543  1.00 51.23 LIG 0.16  HD
BRANCH 26 28
ATOM     28  CA  LEU B   6       2.821  20.359  18.598  1.00 69.26 LIG 0.16  C 
BRANCH 28 29
ATOM     29  C   LEU B   6       3.463  20.812  19.908  1.00 97.67 LIG 0.22  C 
ATOM     30 O    LEU B   6       3.403  20.110  20.916  1.00 61.20 LIG-0.29  OA
ENDBRANCH 28 29
BRANCH 28 31
ATOM     31  CB  LEU B   6       2.042  19.043  18.789  1.00 69.14 LIG 0.04  C 
BRANCH 31 32
ATOM     32  CG  LEU B   6       0.856  18.835  17.847  1.00 73.60 LIG-0.02  C 
ATOM     33  CD2 LEU B   6       1.091  17.665  16.923  1.00 75.76 LIG 0.01  C 
ATOM     34  CD1 LEU B   6       0.526  20.103  17.092  1.00 73.41 LIG 0.01  C 
ENDBRANCH 31 32
ENDBRANCH 28 31
ENDBRANCH 26 28
ENDBRANCH 19 24
ENDBRANCH 16 19
ENDBRANCH 5 15
ENDBRANCH 3 5
BRANCH 1 35
ATOM     35  CA  LEU B   3       0.186  17.413  11.501  1.00 32.52 LIG 0.18  C 
BRANCH 35 36
ATOM     36  CB  LEU B   3       0.071  16.514  10.253  1.00 32.14 LIG 0.04  C 
BRANCH 36 37
ATOM     37  CG  LEU B   3       0.123  17.259   8.908  1.00 34.99 LIG-0.02  C 
ATOM     38  CD2 LEU B   3      -1.297  17.454   8.319  1.00 35.91 LIG 0.01  C 
ATOM     39  CD1 LEU B   3       1.089  16.550   7.930  1.00 33.16 LIG 0.01  C 
ENDBRANCH 36 37
ENDBRANCH 35 36
BRANCH 35 40
ATOM     40  N   LEU B   3       0.116  18.823  11.131  1.00 32.48 LIG-0.35  N 
ATOM     41  C   ASN B   2      -0.964  19.564  11.440  1.00 36.40 LIG 0.24  C 
ATOM     42 O    ASN B   2      -1.953  19.099  12.019  1.00 34.95 LIG-0.27  OA
ATOM     43 H    LEU B   3       0.806  19.121  10.713  1.00 32.48 LIG 0.16  HD
BRANCH 41 44
ATOM     44  CA  ASN B   2      -0.978  21.020  10.966  1.00 32.65 LIG 0.18  C 
BRANCH 44 45
ATOM     45  N   ASN B   2      -2.371  21.349  10.685  1.00 32.45 LIG-0.34  N 
ATOM     46 H    ASN B   2      -2.693  21.919  11.241  1.00 32.45 LIG 0.16  HD
ATOM     47  C   THR B   1      -3.105  20.845   9.686  1.00 35.22 LIG 0.25  C 
ATOM     48 O    THR B   1      -2.649  20.120   8.780  1.00 34.61 LIG-0.27  OA
BRANCH 47 49
ATOM     49  CA  THR B   1      -4.557  21.251   9.736  1.00 32.53 LIG 0.30  C 
BRANCH 49 50
ATOM     50  CB  THR B   1      -5.064  21.251  11.186  1.00 31.51 LIG 0.15  C 
ATOM     51  CG2 THR B   1      -4.777  19.915  11.940  1.00 30.77 LIG 0.04  C 
BRANCH 50 52
ATOM     52 OG1  THR B   1      -4.475  22.351  11.881  1.00 21.64 LIG-0.39  OA
ATOM     53 HG1  THR B   1      -4.376  22.995  11.351  1.00 21.64 LIG 0.21  HD
ENDBRANCH 50 52
ENDBRANCH 49 50
BRANCH 49 54
ATOM     54  N   THR B   1      -5.380  20.413   8.869  1.00 34.33 LIG-0.06  N 
ATOM     55 H2   THR B   1      -4.855  19.920   8.346  1.00 34.33 LIG 0.28  HD
ATOM     56 H1   THR B   1      -5.902  20.929   8.364  1.00 34.33 LIG 0.28  HD
ATOM     57 H3   THR B   1      -5.887  19.878   9.367  1.00 34.33 LIG 0.28  HD
ENDBRANCH 49 54
ENDBRANCH 47 49
ENDBRANCH 44 45
BRANCH 44 58
ATOM     58  CB  ASN B   2      -0.376  21.982  12.008  1.00 33.77 LIG 0.14  C 
BRANCH 58 59
ATOM     59  CG  ASN B   2       1.134  21.899  12.111  1.00 47.71 LIG 0.22  C 
ATOM     60 OD1  ASN B   2       1.851  21.736  11.117  1.00 37.59 LIG-0.27  OA
ATOM     61  ND2 ASN B   2       1.654  21.978  13.327  1.00 40.38 LIG-0.37  N 
ATOM     62 22HD ASN B   2       1.142  22.092  14.007  1.00 40.38 LIG 0.16  HD
ATOM     63 21HD ASN B   2       2.505  21.916  13.435  1.00 40.38 LIG 0.16  HD
ENDBRANCH 58 59
ENDBRANCH 44 58
ENDBRANCH 41 44
ENDBRANCH 35 40
ENDBRANCH 1 35
TORSDOF 26
ENDMDL
MODEL 42
USER: ADFR SOLUTION from run 11
USER: SCORE 20.035505 LL:  -5.766 LR: -16.044 RR:   0.000 FEB:  -8.289
USER: RMSD 9.524997
USER: SEED 123341
USER: STATUS no improvement in best in 12 clusters for 5 generations
USER: GENES 28
USER: genes 0 Translation |==|  0.50856 0.53643 0.43081
USER: genes 1 Rotation |==|  0.24135 0.51187 0.87476 0.70619
USER: genes 2 Torsion [C]-N--CA-[CB] |==|  0.87738
USER: genes 3 Torsion [N]-CA--CB-[CG] |==|  0.79898
USER: genes 4 Torsion [CA]-CB--CG-[CD2] |==|  0.32848
USER: genes 5 Torsion [CE2]-CZ--OH-[HH] |==|  0.05378
USER: genes 6 Torsion [N]-CA--C-[N] |==|  0.31695
USER: genes 7 Torsion [C]-N--CA-[CB] |==|  0.84988
USER: genes 8 Torsion [N]-CA--CB-[CG] |==|  0.62890
USER: genes 9 Torsion [CA]-CB--CG-[SD] |==|  0.06733
USER: genes 10 Torsion [CB]-CG--SD-[CE] |==|  0.33887
USER: genes 11 Torsion [N]-CA--C-[N] |==|  0.30892
USER: genes 12 Torsion [C]-N--CA-[C] |==|  0.62162
USER: genes 13 Torsion [N]-CA--C-[O] |==|  0.71591
USER: genes 14 Torsion [N]-CA--CB-[CG] |==|  0.78448
USER: genes 15 Torsion [CA]-CB--CG-[CD1] |==|  0.30899
USER: genes 16 Torsion [N]-C--CA-[N] |==|  0.80000
USER: genes 17 Torsion [C]-CA--CB-[CG] |==|  0.47979
USER: genes 18 Torsion [CA]-CB--CG-[CD2] |==|  0.66641
USER: genes 19 Torsion [C]-CA--N-[C] |==|  0.21192
USER: genes 20 Torsion [N]-C--CA-[N] |==|  0.95281
USER: genes 21 Torsion [C]-CA--N-[C] |==|  0.78603
USER: genes 22 Torsion [N]-C--CA-[N] |==|  0.29553
USER: genes 23 Torsion [C]-CA--CB-[CG2] |==|  0.11863
USER: genes 24 Torsion [CA]-CB--OG1-[HG1] |==|  0.66176
USER: genes 25 Torsion [C]-CA--N-[H2] |==|  0.37421
USER: genes 26 Torsion [C]-CA--CB-[CG] |==|  0.25708
USER: genes 27 Torsion [CA]-CB--CG-[OD1] |==|  0.83583
ROOT
ATOM      1  C   LEU B   3       1.468  21.113  11.709  1.00 37.56 LIG 0.24  C 
ATOM      2 O    LEU B   3       1.305  22.333  11.510  1.00 36.01 LIG-0.27  OA
ATOM      3  N   TYR B   4       0.501  20.280  12.190  1.00 34.90 LIG-0.35  N 
ATOM      4 H    TYR B   4       0.650  19.442  12.307  1.00 34.90 LIG 0.16  HD
ENDROOT
BRANCH 3 5
ATOM      5  CA  TYR B   4      -0.865  20.653  12.565  1.00 36.24 LIG 0.18  C 
BRANCH 5 6
ATOM      6  CB  TYR B   4      -0.872  21.960  13.384  1.00 36.37 LIG 0.07  C 
BRANCH 6 7
ATOM      7  CG  TYR B   4      -0.331  21.717  14.770  1.00 36.28 LIG-0.06  A 
ATOM      8  CD2 TYR B   4       0.821  22.363  15.219  1.00 36.38 LIG 0.01  A 
ATOM      9  CE2 TYR B   4       1.358  22.099  16.473  1.00 36.34 LIG 0.04  A 
ATOM     10  CZ  TYR B   4       0.762  21.145  17.282  1.00 42.86 LIG 0.07  A 
ATOM     11  CE1 TYR B   4      -0.374  20.477  16.852  1.00 38.54 LIG 0.04  A 
ATOM     12  CD1 TYR B   4      -0.909  20.760  15.602  1.00 37.84 LIG 0.01  A 
BRANCH 10 13
ATOM     13 OH   TYR B   4       1.287  20.857  18.512  1.00 44.02 LIG-0.36  OA
ATOM     14 HH   TYR B   4       1.783  21.488  18.760  1.00 44.02 LIG 0.22  HD
ENDBRANCH 10 13
ENDBRANCH 6 7
ENDBRANCH 5 6
BRANCH 5 15
ATOM     15  C   TYR B   4      -1.776  20.743  11.345  1.00 47.41 LIG 0.24  C 
ATOM     16  N   MET B   5      -2.749  19.840  11.294  1.00 49.29 LIG-0.35  N 
ATOM     17 H    MET B   5      -2.856  19.211  11.869  1.00 49.29 LIG 0.16  HD
ATOM     18 O    TYR B   4      -1.618  21.610  10.482  1.00 47.26 LIG-0.27  OA
BRANCH 16 19
ATOM     19  CA  MET B   5      -3.732  19.858  10.226  1.00 52.16 LIG 0.18  C 
BRANCH 19 20
ATOM     20  CB  MET B   5      -4.403  21.226  10.119  1.00 55.77 LIG 0.04  C 
BRANCH 20 21
ATOM     21  CG  MET B   5      -5.922  21.125   9.995  1.00 61.00 LIG 0.08  C 
BRANCH 21 22
ATOM     22 SD   MET B   5      -6.579  19.595  10.679  1.00 67.05 LIG-0.17  SA
ATOM     23  CE  MET B   5      -7.703  20.256  11.890  1.00 63.64 LIG 0.09  C 
ENDBRANCH 21 22
ENDBRANCH 20 21
ENDBRANCH 19 20
BRANCH 19 24
ATOM     24  C   MET B   5      -2.999  19.441   8.967  1.00 55.98 LIG 0.24  C 
ATOM     25 O    MET B   5      -2.077  20.142   8.546  1.00 56.32 LIG-0.27  OA
ATOM     26  N   LEU B   6      -3.312  18.252   8.441  1.00 51.23 LIG-0.35  N 
ATOM     27 H    LEU B   6      -3.936  17.745   8.747  1.00 51.23 LIG 0.16  HD
BRANCH 26 28
ATOM     28  CA  LEU B   6      -2.610  17.702   7.282  1.00 69.26 LIG 0.16  C 
BRANCH 28 29
ATOM     29  C   LEU B   6      -3.587  17.093   6.278  1.00 97.67 LIG 0.22  C 
ATOM     30 O    LEU B   6      -3.743  15.875   6.208  1.00 61.20 LIG-0.29  OA
ENDBRANCH 28 29
BRANCH 28 31
ATOM     31  CB  LEU B   6      -1.570  16.662   7.743  1.00 69.14 LIG 0.04  C 
BRANCH 31 32
ATOM     32  CG  LEU B   6      -0.277  17.234   8.323  1.00 73.60 LIG-0.02  C 
ATOM     33  CD2 LEU B   6       0.930  16.735   7.565  1.00 75.76 LIG 0.01  C 
ATOM     34  CD1 LEU B   6      -0.173  16.962   9.806  1.00 73.41 LIG 0.01  C 
ENDBRANCH 31 32
ENDBRANCH 28 31
ENDBRANCH 26 28
ENDBRANCH 19 24
ENDBRANCH 16 19
ENDBRANCH 5 15
ENDBRANCH 3 5
BRANCH 1 35
ATOM     35  CA  LEU B   3       2.842  20.487  11.467  1.00 32.52 LIG 0.18  C 
BRANCH 35 36
ATOM     36  CB  LEU B   3       2.735  19.223  10.589  1.00 32.14 LIG 0.04  C 
BRANCH 36 37
ATOM     37  CG  LEU B   3       4.080  18.623  10.146  1.00 34.99 LIG-0.02  C 
ATOM     38  CD2 LEU B   3       4.202  18.594   8.601  1.00 35.91 LIG 0.01  C 
ATOM     39  CD1 LEU B   3       4.296  17.235  10.794  1.00 33.16 LIG 0.01  C 
ENDBRANCH 36 37
ENDBRANCH 35 36
BRANCH 35 40
ATOM     40  N   LEU B   3       3.530  20.190  12.719  1.00 32.48 LIG-0.35  N 
ATOM     41  C   ASN B   2       3.177  19.126  13.464  1.00 36.40 LIG 0.24  C 
ATOM     42 O    ASN B   2       2.250  18.367  13.154  1.00 34.95 LIG-0.27  OA
ATOM     43 H    LEU B   3       4.157  20.741  12.926  1.00 32.48 LIG 0.16  HD
BRANCH 41 44
ATOM     44  CA  ASN B   2       3.912  18.919  14.792  1.00 32.65 LIG 0.18  C 
BRANCH 44 45
ATOM     45  N   ASN B   2       5.119  19.735  14.726  1.00 32.45 LIG-0.34  N 
ATOM     46 H    ASN B   2       5.051  20.461  15.181  1.00 32.45 LIG 0.16  HD
ATOM     47  C   THR B   1       6.231  19.430  14.047  1.00 35.22 LIG 0.25  C 
ATOM     48 O    THR B   1       6.428  18.335  13.484  1.00 34.61 LIG-0.27  OA
BRANCH 47 49
ATOM     49  CA  THR B   1       7.259  20.534  14.037  1.00 32.53 LIG 0.30  C 
BRANCH 49 50
ATOM     50  CB  THR B   1       7.708  20.835  12.599  1.00 31.51 LIG 0.15  C 
ATOM     51  CG2 THR B   1       6.528  20.869  11.578  1.00 30.77 LIG 0.04  C 
BRANCH 50 52
ATOM     52 OG1  THR B   1       8.413  22.077  12.586  1.00 21.64 LIG-0.39  OA
ATOM     53 HG1  THR B   1       8.032  22.609  12.061  1.00 21.64 LIG 0.21  HD
ENDBRANCH 50 52
ENDBRANCH 49 50
BRANCH 49 54
ATOM     54  N   THR B   1       8.388  20.226  14.909  1.00 34.33 LIG-0.06  N 
ATOM     55 H2   THR B   1       9.149  20.413  14.487  1.00 34.33 LIG 0.28  HD
ATOM     56 H1   THR B   1       8.372  19.361  15.122  1.00 34.33 LIG 0.28  HD
ATOM     57 H3   THR B   1       8.334  20.714  15.651  1.00 34.33 LIG 0.28  HD
ENDBRANCH 49 54
ENDBRANCH 47 49
ENDBRANCH 44 45
BRANCH 44 58
ATOM     58  CB  ASN B   2       3.046  19.300  16.007  1.00 33.77 LIG 0.14  C 
BRANCH 58 59
ATOM     59  CG  ASN B   2       2.269  18.135  16.589  1.00 47.71 LIG 0.22  C 
ATOM     60 OD1  ASN B   2       1.455  17.490  15.918  1.00 37.59 LIG-0.27  OA
ATOM     61  ND2 ASN B   2       2.479  17.856  17.866  1.00 40.38 LIG-0.37  N 
ATOM     62 22HD ASN B   2       3.049  18.314  18.318  1.00 40.38 LIG 0.16  HD
ATOM     63 21HD ASN B   2       2.046  17.216  18.244  1.00 40.38 LIG 0.16  HD
ENDBRANCH 58 59
ENDBRANCH 44 58
ENDBRANCH 41 44
ENDBRANCH 35 40
ENDBRANCH 1 35
TORSDOF 26
ENDMDL
MODEL 43
USER: ADFR SOLUTION from run 81
USER: SCORE 20.133129 LL:  -6.366 LR: -16.002 RR:   0.000 FEB:  -8.247
USER: RMSD 7.404474
USER: SEED 80
USER: STATUS no improvement in best in 4 clusters for 5 generations
USER: GENES 28
USER: genes 0 Translation |==|  0.26829 0.32661 0.38212
USER: genes 1 Rotation |==|  0.68223 0.90714 0.36669 0.68237
USER: genes 2 Torsion [C]-N--CA-[CB] |==|  0.23889
USER: genes 3 Torsion [N]-CA--CB-[CG] |==|  0.98036
USER: genes 4 Torsion [CA]-CB--CG-[CD2] |==|  0.21699
USER: genes 5 Torsion [CE2]-CZ--OH-[HH] |==|  0.12419
USER: genes 6 Torsion [N]-CA--C-[N] |==|  0.81535
USER: genes 7 Torsion [C]-N--CA-[CB] |==|  0.18591
USER: genes 8 Torsion [N]-CA--CB-[CG] |==|  0.31025
USER: genes 9 Torsion [CA]-CB--CG-[SD] |==|  0.71230
USER: genes 10 Torsion [CB]-CG--SD-[CE] |==|  0.05299
USER: genes 11 Torsion [N]-CA--C-[N] |==|  0.89615
USER: genes 12 Torsion [C]-N--CA-[C] |==|  0.66364
USER: genes 13 Torsion [N]-CA--C-[O] |==|  0.75543
USER: genes 14 Torsion [N]-CA--CB-[CG] |==|  0.76589
USER: genes 15 Torsion [CA]-CB--CG-[CD1] |==|  0.60008
USER: genes 16 Torsion [N]-C--CA-[N] |==|  0.20656
USER: genes 17 Torsion [C]-CA--CB-[CG] |==|  0.31551
USER: genes 18 Torsion [CA]-CB--CG-[CD2] |==|  0.23742
USER: genes 19 Torsion [C]-CA--N-[C] |==|  0.58337
USER: genes 20 Torsion [N]-C--CA-[N] |==|  0.11626
USER: genes 21 Torsion [C]-CA--N-[C] |==|  0.16647
USER: genes 22 Torsion [N]-C--CA-[N] |==|  0.48328
USER: genes 23 Torsion [C]-CA--CB-[CG2] |==|  0.37376
USER: genes 24 Torsion [CA]-CB--OG1-[HG1] |==|  0.37522
USER: genes 25 Torsion [C]-CA--N-[H2] |==|  0.21578
USER: genes 26 Torsion [C]-CA--CB-[CG] |==|  0.49451
USER: genes 27 Torsion [CA]-CB--CG-[OD1] |==|  0.15920
ROOT
ATOM      1  C   LEU B   3      -3.578  17.494  10.540  1.00 37.56 LIG 0.24  C 
ATOM      2 O    LEU B   3      -4.252  17.070   9.581  1.00 36.01 LIG-0.27  OA
ATOM      3  N   TYR B   4      -2.222  17.375  10.635  1.00 34.90 LIG-0.35  N 
ATOM      4 H    TYR B   4      -1.791  17.688  11.309  1.00 34.90 LIG 0.16  HD
ENDROOT
BRANCH 3 5
ATOM      5  CA  TYR B   4      -1.332  16.735   9.663  1.00 36.24 LIG 0.18  C 
BRANCH 5 6
ATOM      6  CB  TYR B   4      -0.920  17.730   8.558  1.00 36.37 LIG 0.07  C 
BRANCH 6 7
ATOM      7  CG  TYR B   4      -1.686  19.021   8.699  1.00 36.28 LIG-0.06  A 
ATOM      8  CD2 TYR B   4      -1.329  19.970   9.656  1.00 36.38 LIG 0.01  A 
ATOM      9  CE2 TYR B   4      -2.067  21.135   9.831  1.00 36.34 LIG 0.04  A 
ATOM     10  CZ  TYR B   4      -3.203  21.343   9.066  1.00 42.86 LIG 0.07  A 
ATOM     11  CE1 TYR B   4      -3.587  20.408   8.119  1.00 38.54 LIG 0.04  A 
ATOM     12  CD1 TYR B   4      -2.834  19.253   7.944  1.00 37.84 LIG 0.01  A 
BRANCH 10 13
ATOM     13 OH   TYR B   4      -3.952  22.476   9.236  1.00 44.02 LIG-0.36  OA
ATOM     14 HH   TYR B   4      -3.444  23.143   9.286  1.00 44.02 LIG 0.22  HD
ENDBRANCH 10 13
ENDBRANCH 6 7
ENDBRANCH 5 6
BRANCH 5 15
ATOM     15  C   TYR B   4      -0.121  16.106  10.342  1.00 47.41 LIG 0.24  C 
ATOM     16  N   MET B   5       0.723  16.963  10.907  1.00 49.29 LIG-0.35  N 
ATOM     17 H    MET B   5       0.642  17.818  10.870  1.00 49.29 LIG 0.16  HD
ATOM     18 O    TYR B   4       0.043  14.884  10.372  1.00 47.26 LIG-0.27  OA
BRANCH 16 19
ATOM     19  CA  MET B   5       1.878  16.496  11.651  1.00 52.16 LIG 0.18  C 
BRANCH 19 20
ATOM     20  CB  MET B   5       2.886  15.811  10.729  1.00 55.77 LIG 0.04  C 
BRANCH 20 21
ATOM     21  CG  MET B   5       4.179  16.607  10.580  1.00 61.00 LIG 0.08  C 
BRANCH 21 22
ATOM     22 SD   MET B   5       4.287  17.480   9.008  1.00 67.05 LIG-0.17  SA
ATOM     23  CE  MET B   5       2.570  17.485   8.540  1.00 63.64 LIG 0.09  C 
ENDBRANCH 21 22
ENDBRANCH 20 21
ENDBRANCH 19 20
BRANCH 19 24
ATOM     24  C   MET B   5       2.439  17.706  12.370  1.00 55.98 LIG 0.24  C 
ATOM     25 O    MET B   5       2.999  17.557  13.457  1.00 56.32 LIG-0.27  OA
ATOM     26  N   LEU B   6       2.407  18.875  11.718  1.00 51.23 LIG-0.35  N 
ATOM     27 H    LEU B   6       2.042  18.980  10.947  1.00 51.23 LIG 0.16  HD
BRANCH 26 28
ATOM     28  CA  LEU B   6       2.999  20.092  12.270  1.00 69.26 LIG 0.16  C 
BRANCH 28 29
ATOM     29  C   LEU B   6       1.957  21.198  12.421  1.00 97.67 LIG 0.22  C 
ATOM     30 O    LEU B   6       1.717  21.971  11.494  1.00 61.20 LIG-0.29  OA
ENDBRANCH 28 29
BRANCH 28 31
ATOM     31  CB  LEU B   6       4.173  20.554  11.384  1.00 69.14 LIG 0.04  C 
BRANCH 31 32
ATOM     32  CG  LEU B   6       5.517  19.886  11.668  1.00 73.60 LIG-0.02  C 
ATOM     33  CD2 LEU B   6       5.527  19.235  13.030  1.00 75.76 LIG 0.01  C 
ATOM     34  CD1 LEU B   6       6.661  20.857  11.490  1.00 73.41 LIG 0.01  C 
ENDBRANCH 31 32
ENDBRANCH 28 31
ENDBRANCH 26 28
ENDBRANCH 19 24
ENDBRANCH 16 19
ENDBRANCH 5 15
ENDBRANCH 3 5
BRANCH 1 35
ATOM     35  CA  LEU B   3      -4.286  18.140  11.733  1.00 32.52 LIG 0.18  C 
BRANCH 35 36
ATOM     36  CB  LEU B   3      -5.792  17.810  11.736  1.00 32.14 LIG 0.04  C 
BRANCH 36 37
ATOM     37  CG  LEU B   3      -6.261  16.927  12.905  1.00 34.99 LIG-0.02  C 
ATOM     38  CD2 LEU B   3      -6.583  17.779  14.159  1.00 35.91 LIG 0.01  C 
ATOM     39  CD1 LEU B   3      -5.234  15.805  13.186  1.00 33.16 LIG 0.01  C 
ENDBRANCH 36 37
ENDBRANCH 35 36
BRANCH 35 40
ATOM     40  N   LEU B   3      -4.073  19.583  11.771  1.00 32.48 LIG-0.35  N 
ATOM     41  C   ASN B   2      -4.056  20.247  12.942  1.00 36.40 LIG 0.24  C 
ATOM     42 O    ASN B   2      -4.244  19.691  14.031  1.00 34.95 LIG-0.27  OA
ATOM     43 H    LEU B   3      -3.963  19.953  11.002  1.00 32.48 LIG 0.16  HD
BRANCH 41 44
ATOM     44  CA  ASN B   2      -3.882  21.768  12.888  1.00 32.65 LIG 0.18  C 
BRANCH 44 45
ATOM     45  N   ASN B   2      -4.715  22.239  11.787  1.00 32.45 LIG-0.34  N 
ATOM     46 H    ASN B   2      -4.259  22.644  11.180  1.00 32.45 LIG 0.16  HD
ATOM     47  C   THR B   1      -6.040  22.084  11.689  1.00 35.22 LIG 0.25  C 
ATOM     48 O    THR B   1      -6.723  21.394  12.472  1.00 34.61 LIG-0.27  OA
BRANCH 47 49
ATOM     49  CA  THR B   1      -6.651  22.809  10.516  1.00 32.53 LIG 0.30  C 
BRANCH 49 50
ATOM     50  CB  THR B   1      -6.405  24.322  10.634  1.00 31.51 LIG 0.15  C 
ATOM     51  CG2 THR B   1      -5.926  24.975   9.301  1.00 30.77 LIG 0.04  C 
BRANCH 50 52
ATOM     52 OG1  THR B   1      -7.603  24.949  11.094  1.00 21.64 LIG-0.39  OA
ATOM     53 HG1  THR B   1      -7.415  25.502  11.698  1.00 21.64 LIG 0.21  HD
ENDBRANCH 50 52
ENDBRANCH 49 50
BRANCH 49 54
ATOM     54  N   THR B   1      -8.069  22.496  10.369  1.00 34.33 LIG-0.06  N 
ATOM     55 H2   THR B   1      -8.538  22.955  10.970  1.00 34.33 LIG 0.28  HD
ATOM     56 H1   THR B   1      -8.196  21.624  10.496  1.00 34.33 LIG 0.28  HD
ATOM     57 H3   THR B   1      -8.340  22.718   9.551  1.00 34.33 LIG 0.28  HD
ENDBRANCH 49 54
ENDBRANCH 47 49
ENDBRANCH 44 45
BRANCH 44 58
ATOM     58  CB  ASN B   2      -4.268  22.449  14.213  1.00 33.77 LIG 0.14  C 
BRANCH 58 59
ATOM     59  CG  ASN B   2      -4.062  23.951  14.208  1.00 47.71 LIG 0.22  C 
ATOM     60 OD1  ASN B   2      -4.607  24.684  13.376  1.00 37.59 LIG-0.27  OA
ATOM     61  ND2 ASN B   2      -3.240  24.444  15.123  1.00 40.38 LIG-0.37  N 
ATOM     62 22HD ASN B   2      -2.869  23.920  15.695  1.00 40.38 LIG 0.16  HD
ATOM     63 21HD ASN B   2      -3.078  25.288  15.145  1.00 40.38 LIG 0.16  HD
ENDBRANCH 58 59
ENDBRANCH 44 58
ENDBRANCH 41 44
ENDBRANCH 35 40
ENDBRANCH 1 35
TORSDOF 26
ENDMDL
MODEL 44
USER: ADFR SOLUTION from run 168
USER: SCORE 21.178191 LL:  -5.845 LR: -15.988 RR:   0.000 FEB:  -8.232
USER: RMSD 6.323256
USER: SEED 167
USER: STATUS no improvement in best in 2 clusters for 5 generations
USER: GENES 28
USER: genes 0 Translation |==|  0.39333 0.51398 0.49162
USER: genes 1 Rotation |==|  0.01452 0.40711 0.42619 0.51514
USER: genes 2 Torsion [C]-N--CA-[CB] |==|  0.76716
USER: genes 3 Torsion [N]-CA--CB-[CG] |==|  0.65790
USER: genes 4 Torsion [CA]-CB--CG-[CD2] |==|  0.39891
USER: genes 5 Torsion [CE2]-CZ--OH-[HH] |==|  0.37862
USER: genes 6 Torsion [N]-CA--C-[N] |==|  0.26472
USER: genes 7 Torsion [C]-N--CA-[CB] |==|  0.85104
USER: genes 8 Torsion [N]-CA--CB-[CG] |==|  0.74947
USER: genes 9 Torsion [CA]-CB--CG-[SD] |==|  0.17668
USER: genes 10 Torsion [CB]-CG--SD-[CE] |==|  0.73177
USER: genes 11 Torsion [N]-CA--C-[N] |==|  0.39227
USER: genes 12 Torsion [C]-N--CA-[C] |==|  0.13654
USER: genes 13 Torsion [N]-CA--C-[O] |==|  0.27763
USER: genes 14 Torsion [N]-CA--CB-[CG] |==|  0.80502
USER: genes 15 Torsion [CA]-CB--CG-[CD1] |==|  0.88605
USER: genes 16 Torsion [N]-C--CA-[N] |==|  0.90157
USER: genes 17 Torsion [C]-CA--CB-[CG] |==|  0.88775
USER: genes 18 Torsion [CA]-CB--CG-[CD2] |==|  0.78332
USER: genes 19 Torsion [C]-CA--N-[C] |==|  0.86111
USER: genes 20 Torsion [N]-C--CA-[N] |==|  0.49856
USER: genes 21 Torsion [C]-CA--N-[C] |==|  0.75924
USER: genes 22 Torsion [N]-C--CA-[N] |==|  0.41195
USER: genes 23 Torsion [C]-CA--CB-[CG2] |==|  0.22702
USER: genes 24 Torsion [CA]-CB--OG1-[HG1] |==|  0.83594
USER: genes 25 Torsion [C]-CA--N-[H2] |==|  0.78788
USER: genes 26 Torsion [C]-CA--CB-[CG] |==|  0.79257
USER: genes 27 Torsion [CA]-CB--CG-[OD1] |==|  0.21194
ROOT
ATOM      1  C   LEU B   3      -0.952  20.726  13.168  1.00 37.56 LIG 0.24  C 
ATOM      2 O    LEU B   3      -0.217  21.688  12.871  1.00 36.01 LIG-0.27  OA
ATOM      3  N   TYR B   4      -1.104  19.612  12.395  1.00 34.90 LIG-0.35  N 
ATOM      4 H    TYR B   4      -1.615  18.965  12.638  1.00 34.90 LIG 0.16  HD
ENDROOT
BRANCH 3 5
ATOM      5  CA  TYR B   4      -0.461  19.350  11.105  1.00 36.24 LIG 0.18  C 
BRANCH 5 6
ATOM      6  CB  TYR B   4      -1.252  20.008   9.955  1.00 36.37 LIG 0.07  C 
BRANCH 6 7
ATOM      7  CG  TYR B   4      -1.653  18.976   8.933  1.00 36.28 LIG-0.06  A 
ATOM      8  CD2 TYR B   4      -2.879  19.052   8.273  1.00 36.38 LIG 0.01  A 
ATOM      9  CE2 TYR B   4      -3.280  18.072   7.373  1.00 36.34 LIG 0.04  A 
ATOM     10  CZ  TYR B   4      -2.464  16.975   7.153  1.00 42.86 LIG 0.07  A 
ATOM     11  CE1 TYR B   4      -1.247  16.868   7.807  1.00 38.54 LIG 0.04  A 
ATOM     12  CD1 TYR B   4      -0.851  17.861   8.695  1.00 37.84 LIG 0.01  A 
BRANCH 10 13
ATOM     13 OH   TYR B   4      -2.848  15.991   6.284  1.00 44.02 LIG-0.36  OA
ATOM     14 HH   TYR B   4      -2.196  15.770   5.802  1.00 44.02 LIG 0.22  HD
ENDBRANCH 10 13
ENDBRANCH 6 7
ENDBRANCH 5 6
BRANCH 5 15
ATOM     15  C   TYR B   4       1.001  19.783  11.110  1.00 47.41 LIG 0.24  C 
ATOM     16  N   MET B   5       1.877  18.823  11.387  1.00 49.29 LIG-0.35  N 
ATOM     17 H    MET B   5       1.663  18.018  11.596  1.00 49.29 LIG 0.16  HD
ATOM     18 O    TYR B   4       1.333  20.943  10.855  1.00 47.26 LIG-0.27  OA
BRANCH 16 19
ATOM     19  CA  MET B   5       3.305  19.081  11.353  1.00 52.16 LIG 0.18  C 
BRANCH 19 20
ATOM     20  CB  MET B   5       3.723  19.686  10.013  1.00 55.77 LIG 0.04  C 
BRANCH 20 21
ATOM     21  CG  MET B   5       4.108  18.624   8.986  1.00 61.00 LIG 0.08  C 
BRANCH 21 22
ATOM     22 SD   MET B   5       2.734  17.548   8.542  1.00 67.05 LIG-0.17  SA
ATOM     23  CE  MET B   5       3.054  16.176   9.628  1.00 63.64 LIG 0.09  C 
ENDBRANCH 21 22
ENDBRANCH 20 21
ENDBRANCH 19 20
BRANCH 19 24
ATOM     24  C   MET B   5       3.605  19.971  12.541  1.00 55.98 LIG 0.24  C 
ATOM     25 O    MET B   5       2.757  20.782  12.916  1.00 56.32 LIG-0.27  OA
ATOM     26  N   LEU B   6       4.742  19.740  13.207  1.00 51.23 LIG-0.35  N 
ATOM     27 H    LEU B   6       5.326  19.156  12.966  1.00 51.23 LIG 0.16  HD
BRANCH 26 28
ATOM     28  CA  LEU B   6       5.096  20.472  14.423  1.00 69.26 LIG 0.16  C 
BRANCH 28 29
ATOM     29  C   LEU B   6       3.938  20.488  15.418  1.00 97.67 LIG 0.22  C 
ATOM     30 O    LEU B   6       3.915  19.712  16.373  1.00 61.20 LIG-0.29  OA
ENDBRANCH 28 29
BRANCH 28 31
ATOM     31  CB  LEU B   6       5.538  21.904  14.064  1.00 69.14 LIG 0.04  C 
BRANCH 31 32
ATOM     32  CG  LEU B   6       6.881  22.020  13.345  1.00 73.60 LIG-0.02  C 
ATOM     33  CD2 LEU B   6       6.723  21.829  11.856  1.00 75.76 LIG 0.01  C 
ATOM     34  CD1 LEU B   6       7.904  21.078  13.937  1.00 73.41 LIG 0.01  C 
ENDBRANCH 31 32
ENDBRANCH 28 31
ENDBRANCH 26 28
ENDBRANCH 19 24
ENDBRANCH 16 19
ENDBRANCH 5 15
ENDBRANCH 3 5
BRANCH 1 35
ATOM     35  CA  LEU B   3      -1.799  20.788  14.440  1.00 32.52 LIG 0.18  C 
BRANCH 35 36
ATOM     36  CB  LEU B   3      -1.069  20.137  15.632  1.00 32.14 LIG 0.04  C 
BRANCH 36 37
ATOM     37  CG  LEU B   3      -0.305  18.844  15.298  1.00 34.99 LIG-0.02  C 
ATOM     38  CD2 LEU B   3      -1.268  17.636  15.184  1.00 35.91 LIG 0.01  C 
ATOM     39  CD1 LEU B   3       0.838  18.610  16.314  1.00 33.16 LIG 0.01  C 
ENDBRANCH 36 37
ENDBRANCH 35 36
BRANCH 35 40
ATOM     40  N   LEU B   3      -3.113  20.183  14.245  1.00 32.48 LIG-0.35  N 
ATOM     41  C   ASN B   2      -3.881  20.525  13.194  1.00 36.40 LIG 0.24  C 
ATOM     42 O    ASN B   2      -3.540  21.376  12.364  1.00 34.95 LIG-0.27  OA
ATOM     43 H    LEU B   3      -3.338  19.608  14.845  1.00 32.48 LIG 0.16  HD
BRANCH 41 44
ATOM     44  CA  ASN B   2      -5.268  19.883  13.096  1.00 32.65 LIG 0.18  C 
BRANCH 44 45
ATOM     45  N   ASN B   2      -5.889  20.425  11.892  1.00 32.45 LIG-0.34  N 
ATOM     46 H    ASN B   2      -5.760  19.926  11.204  1.00 32.45 LIG 0.16  HD
ATOM     47  C   THR B   1      -6.587  21.563  11.819  1.00 35.22 LIG 0.25  C 
ATOM     48 O    THR B   1      -6.912  22.249  12.809  1.00 34.61 LIG-0.27  OA
BRANCH 47 49
ATOM     49  CA  THR B   1      -6.978  21.946  10.413  1.00 32.53 LIG 0.30  C 
BRANCH 49 50
ATOM     50  CB  THR B   1      -5.852  22.752   9.746  1.00 31.51 LIG 0.15  C 
ATOM     51  CG2 THR B   1      -4.715  21.857   9.163  1.00 30.77 LIG 0.04  C 
BRANCH 50 52
ATOM     52 OG1  THR B   1      -6.417  23.571   8.721  1.00 21.64 LIG-0.39  OA
ATOM     53 HG1  THR B   1      -6.806  23.085   8.157  1.00 21.64 LIG 0.21  HD
ENDBRANCH 50 52
ENDBRANCH 49 50
BRANCH 49 54
ATOM     54  N   THR B   1      -8.251  22.659  10.384  1.00 34.33 LIG-0.06  N 
ATOM     55 H2   THR B   1      -8.919  22.080  10.491  1.00 34.33 LIG 0.28  HD
ATOM     56 H1   THR B   1      -8.342  23.074   9.602  1.00 34.33 LIG 0.28  HD
ATOM     57 H3   THR B   1      -8.272  23.259  11.041  1.00 34.33 LIG 0.28  HD
ENDBRANCH 49 54
ENDBRANCH 47 49
ENDBRANCH 44 45
BRANCH 44 58
ATOM     58  CB  ASN B   2      -5.200  18.346  13.047  1.00 33.77 LIG 0.14  C 
BRANCH 58 59
ATOM     59  CG  ASN B   2      -4.733  17.799  11.712  1.00 47.71 LIG 0.22  C 
ATOM     60 OD1  ASN B   2      -3.545  17.827  11.372  1.00 37.59 LIG-0.27  OA
ATOM     61  ND2 ASN B   2      -5.666  17.315  10.906  1.00 40.38 LIG-0.37  N 
ATOM     62 22HD ASN B   2      -6.487  17.302  11.158  1.00 40.38 LIG 0.16  HD
ATOM     63 21HD ASN B   2      -5.449  17.013  10.131  1.00 40.38 LIG 0.16  HD
ENDBRANCH 58 59
ENDBRANCH 44 58
ENDBRANCH 41 44
ENDBRANCH 35 40
ENDBRANCH 1 35
TORSDOF 26
ENDMDL
MODEL 45
USER: ADFR SOLUTION from run 179
USER: SCORE 21.284260 LL:  -5.881 LR: -15.981 RR:   0.000 FEB:  -8.226
USER: RMSD 6.900420
USER: SEED 178
USER: STATUS searching
USER: GENES 28
USER: genes 0 Translation |==|  0.43429 0.52020 0.45940
USER: genes 1 Rotation |==|  0.92524 0.53732 0.66247 0.70342
USER: genes 2 Torsion [C]-N--CA-[CB] |==|  0.84944
USER: genes 3 Torsion [N]-CA--CB-[CG] |==|  0.75180
USER: genes 4 Torsion [CA]-CB--CG-[CD2] |==|  0.61031
USER: genes 5 Torsion [CE2]-CZ--OH-[HH] |==|  0.94035
USER: genes 6 Torsion [N]-CA--C-[N] |==|  0.92574
USER: genes 7 Torsion [C]-N--CA-[CB] |==|  0.87696
USER: genes 8 Torsion [N]-CA--CB-[CG] |==|  0.67260
USER: genes 9 Torsion [CA]-CB--CG-[SD] |==|  0.32475
USER: genes 10 Torsion [CB]-CG--SD-[CE] |==|  0.98488
USER: genes 11 Torsion [N]-CA--C-[N] |==|  0.89966
USER: genes 12 Torsion [C]-N--CA-[C] |==|  0.80664
USER: genes 13 Torsion [N]-CA--C-[O] |==|  0.41421
USER: genes 14 Torsion [N]-CA--CB-[CG] |==|  0.11109
USER: genes 15 Torsion [CA]-CB--CG-[CD1] |==|  0.21058
USER: genes 16 Torsion [N]-C--CA-[N] |==|  0.98889
USER: genes 17 Torsion [C]-CA--CB-[CG] |==|  0.85601
USER: genes 18 Torsion [CA]-CB--CG-[CD2] |==|  0.64411
USER: genes 19 Torsion [C]-CA--N-[C] |==|  0.79323
USER: genes 20 Torsion [N]-C--CA-[N] |==|  0.35078
USER: genes 21 Torsion [C]-CA--N-[C] |==|  0.74224
USER: genes 22 Torsion [N]-C--CA-[N] |==|  0.37283
USER: genes 23 Torsion [C]-CA--CB-[CG2] |==|  0.18384
USER: genes 24 Torsion [CA]-CB--OG1-[HG1] |==|  0.83242
USER: genes 25 Torsion [C]-CA--N-[H2] |==|  0.49182
USER: genes 26 Torsion [C]-CA--CB-[CG] |==|  0.66918
USER: genes 27 Torsion [CA]-CB--CG-[OD1] |==|  0.25021
ROOT
ATOM      1  C   LEU B   3      -0.092  20.833  12.395  1.00 37.56 LIG 0.24  C 
ATOM      2 O    LEU B   3       1.060  21.212  12.106  1.00 36.01 LIG-0.27  OA
ATOM      3  N   TYR B   4      -0.467  19.525  12.489  1.00 34.90 LIG-0.35  N 
ATOM      4 H    TYR B   4      -1.270  19.303  12.698  1.00 34.90 LIG 0.16  HD
ENDROOT
BRANCH 3 5
ATOM      5  CA  TYR B   4       0.386  18.355  12.264  1.00 36.24 LIG 0.18  C 
BRANCH 5 6
ATOM      6  CB  TYR B   4       1.062  18.427  10.879  1.00 36.37 LIG 0.07  C 
BRANCH 6 7
ATOM      7  CG  TYR B   4       0.192  17.779   9.833  1.00 36.28 LIG-0.06  A 
ATOM      8  CD2 TYR B   4       0.744  16.993   8.821  1.00 36.38 LIG 0.01  A 
ATOM      9  CE2 TYR B   4      -0.046  16.442   7.819  1.00 36.34 LIG 0.04  A 
ATOM     10  CZ  TYR B   4      -1.405  16.708   7.800  1.00 42.86 LIG 0.07  A 
ATOM     11  CE1 TYR B   4      -1.975  17.499   8.785  1.00 38.54 LIG 0.04  A 
ATOM     12  CD1 TYR B   4      -1.178  18.034   9.789  1.00 37.84 LIG 0.01  A 
BRANCH 10 13
ATOM     13 OH   TYR B   4      -2.197  16.189   6.812  1.00 44.02 LIG-0.36  OA
ATOM     14 HH   TYR B   4      -1.722  15.990   6.147  1.00 44.02 LIG 0.22  HD
ENDBRANCH 10 13
ENDBRANCH 6 7
ENDBRANCH 5 6
BRANCH 5 15
ATOM     15  C   TYR B   4       1.404  18.180  13.385  1.00 47.41 LIG 0.24  C 
ATOM     16  N   MET B   5       1.747  19.294  14.021  1.00 49.29 LIG-0.35  N 
ATOM     17 H    MET B   5       1.466  20.079  13.809  1.00 49.29 LIG 0.16  HD
ATOM     18 O    TYR B   4       1.855  17.071  13.682  1.00 47.26 LIG-0.27  OA
BRANCH 16 19
ATOM     19  CA  MET B   5       2.651  19.261  15.156  1.00 52.16 LIG 0.18  C 
BRANCH 19 20
ATOM     20  CB  MET B   5       2.292  18.123  16.111  1.00 55.77 LIG 0.04  C 
BRANCH 20 21
ATOM     21  CG  MET B   5       1.895  18.625  17.497  1.00 61.00 LIG 0.08  C 
BRANCH 21 22
ATOM     22 SD   MET B   5       0.191  18.228  17.924  1.00 67.05 LIG-0.17  SA
ATOM     23  CE  MET B   5      -0.356  17.520  16.386  1.00 63.64 LIG 0.09  C 
ENDBRANCH 21 22
ENDBRANCH 20 21
ENDBRANCH 19 20
BRANCH 19 24
ATOM     24  C   MET B   5       4.049  19.155  14.584  1.00 55.98 LIG 0.24  C 
ATOM     25 O    MET B   5       4.994  19.644  15.205  1.00 56.32 LIG-0.27  OA
ATOM     26  N   LEU B   6       4.204  18.416  13.479  1.00 51.23 LIG-0.35  N 
ATOM     27 H    LEU B   6       3.551  18.049  13.056  1.00 51.23 LIG 0.16  HD
BRANCH 26 28
ATOM     28  CA  LEU B   6       5.517  18.164  12.887  1.00 69.26 LIG 0.16  C 
BRANCH 28 29
ATOM     29  C   LEU B   6       6.099  19.434  12.268  1.00 97.67 LIG 0.22  C 
ATOM     30 O    LEU B   6       7.315  19.619  12.234  1.00 61.20 LIG-0.29  OA
ENDBRANCH 28 29
BRANCH 28 31
ATOM     31  CB  LEU B   6       5.414  17.036  11.842  1.00 69.14 LIG 0.04  C 
BRANCH 31 32
ATOM     32  CG  LEU B   6       4.167  17.065  10.960  1.00 73.60 LIG-0.02  C 
ATOM     33  CD2 LEU B   6       3.884  15.704  10.369  1.00 75.76 LIG 0.01  C 
ATOM     34  CD1 LEU B   6       4.268  18.138   9.900  1.00 73.41 LIG 0.01  C 
ENDBRANCH 31 32
ENDBRANCH 28 31
ENDBRANCH 26 28
ENDBRANCH 19 24
ENDBRANCH 16 19
ENDBRANCH 5 15
ENDBRANCH 3 5
BRANCH 1 35
ATOM     35  CA  LEU B   3      -1.197  21.871  12.603  1.00 32.52 LIG 0.18  C 
BRANCH 35 36
ATOM     36  CB  LEU B   3      -0.875  22.802  13.789  1.00 32.14 LIG 0.04  C 
BRANCH 36 37
ATOM     37  CG  LEU B   3      -0.517  22.084  15.101  1.00 34.99 LIG-0.02  C 
ATOM     38  CD2 LEU B   3      -1.373  22.609  16.282  1.00 35.91 LIG 0.01  C 
ATOM     39  CD1 LEU B   3       1.003  22.173  15.373  1.00 33.16 LIG 0.01  C 
ENDBRANCH 36 37
ENDBRANCH 35 36
BRANCH 35 40
ATOM     40  N   LEU B   3      -2.502  21.242  12.779  1.00 32.48 LIG-0.35  N 
ATOM     41  C   ASN B   2      -3.157  20.707  11.732  1.00 36.40 LIG 0.24  C 
ATOM     42 O    ASN B   2      -2.715  20.740  10.577  1.00 34.95 LIG-0.27  OA
ATOM     43 H    LEU B   3      -2.800  21.247  13.586  1.00 32.48 LIG 0.16  HD
BRANCH 41 44
ATOM     44  CA  ASN B   2      -4.546  20.117  11.995  1.00 32.65 LIG 0.18  C 
BRANCH 44 45
ATOM     45  N   ASN B   2      -5.452  20.755  11.047  1.00 32.45 LIG-0.34  N 
ATOM     46 H    ASN B   2      -5.481  20.343  10.293  1.00 32.45 LIG 0.16  HD
ATOM     47  C   THR B   1      -6.175  21.856  11.279  1.00 35.22 LIG 0.25  C 
ATOM     48 O    THR B   1      -6.268  22.410  12.391  1.00 34.61 LIG-0.27  OA
BRANCH 47 49
ATOM     49  CA  THR B   1      -6.902  22.372  10.062  1.00 32.53 LIG 0.30  C 
BRANCH 49 50
ATOM     50  CB  THR B   1      -6.142  23.556   9.445  1.00 31.51 LIG 0.15  C 
ATOM     51  CG2 THR B   1      -4.754  23.158   8.853  1.00 30.77 LIG 0.04  C 
BRANCH 50 52
ATOM     52 OG1  THR B   1      -6.959  24.155   8.439  1.00 21.64 LIG-0.39  OA
ATOM     53 HG1  THR B   1      -7.128  23.589   7.842  1.00 21.64 LIG 0.21  HD
ENDBRANCH 50 52
ENDBRANCH 49 50
BRANCH 49 54
ATOM     54  N   THR B   1      -8.289  22.712  10.368  1.00 34.33 LIG-0.06  N 
ATOM     55 H2   THR B   1      -8.678  23.052   9.643  1.00 34.33 LIG 0.28  HD
ATOM     56 H1   THR B   1      -8.309  23.313  11.025  1.00 34.33 LIG 0.28  HD
ATOM     57 H3   THR B   1      -8.726  21.980  10.622  1.00 34.33 LIG 0.28  HD
ENDBRANCH 49 54
ENDBRANCH 47 49
ENDBRANCH 44 45
BRANCH 44 58
ATOM     58  CB  ASN B   2      -4.569  18.584  11.847  1.00 33.77 LIG 0.14  C 
BRANCH 58 59
ATOM     59  CG  ASN B   2      -5.509  18.092  10.764  1.00 47.71 LIG 0.22  C 
ATOM     60 OD1  ASN B   2      -5.137  17.934   9.596  1.00 37.59 LIG-0.27  OA
ATOM     61  ND2 ASN B   2      -6.764  17.866  11.121  1.00 40.38 LIG-0.37  N 
ATOM     62 22HD ASN B   2      -7.006  17.980  11.938  1.00 40.38 LIG 0.16  HD
ATOM     63 21HD ASN B   2      -7.337  17.605  10.535  1.00 40.38 LIG 0.16  HD
ENDBRANCH 58 59
ENDBRANCH 44 58
ENDBRANCH 41 44
ENDBRANCH 35 40
ENDBRANCH 1 35
TORSDOF 26
ENDMDL
MODEL 46
USER: ADFR SOLUTION from run 133
USER: SCORE 19.884399 LL:  -5.697 LR: -15.971 RR:   0.000 FEB:  -8.215
USER: RMSD 6.819256
USER: SEED 132
USER: STATUS no improvement in best in 6 clusters for 5 generations
USER: GENES 28
USER: genes 0 Translation |==|  0.35226 0.36655 0.43675
USER: genes 1 Rotation |==|  0.87066 0.68714 0.77651 0.53366
USER: genes 2 Torsion [C]-N--CA-[CB] |==|  0.78087
USER: genes 3 Torsion [N]-CA--CB-[CG] |==|  0.90562
USER: genes 4 Torsion [CA]-CB--CG-[CD2] |==|  0.77902
USER: genes 5 Torsion [CE2]-CZ--OH-[HH] |==|  0.39337
USER: genes 6 Torsion [N]-CA--C-[N] |==|  0.14228
USER: genes 7 Torsion [C]-N--CA-[CB] |==|  0.51273
USER: genes 8 Torsion [N]-CA--CB-[CG] |==|  0.79477
USER: genes 9 Torsion [CA]-CB--CG-[SD] |==|  0.17599
USER: genes 10 Torsion [CB]-CG--SD-[CE] |==|  0.18914
USER: genes 11 Torsion [N]-CA--C-[N] |==|  0.34742
USER: genes 12 Torsion [C]-N--CA-[C] |==|  0.68195
USER: genes 13 Torsion [N]-CA--C-[O] |==|  0.03160
USER: genes 14 Torsion [N]-CA--CB-[CG] |==|  0.68073
USER: genes 15 Torsion [CA]-CB--CG-[CD1] |==|  0.29639
USER: genes 16 Torsion [N]-C--CA-[N] |==|  0.48681
USER: genes 17 Torsion [C]-CA--CB-[CG] |==|  0.71724
USER: genes 18 Torsion [CA]-CB--CG-[CD2] |==|  0.49554
USER: genes 19 Torsion [C]-CA--N-[C] |==|  0.61853
USER: genes 20 Torsion [N]-C--CA-[N] |==|  0.08758
USER: genes 21 Torsion [C]-CA--N-[C] |==|  0.20299
USER: genes 22 Torsion [N]-C--CA-[N] |==|  0.73381
USER: genes 23 Torsion [C]-CA--CB-[CG2] |==|  0.38009
USER: genes 24 Torsion [CA]-CB--OG1-[HG1] |==|  0.51533
USER: genes 25 Torsion [C]-CA--N-[H2] |==|  0.90286
USER: genes 26 Torsion [C]-CA--CB-[CG] |==|  0.25912
USER: genes 27 Torsion [CA]-CB--CG-[OD1] |==|  0.77194
ROOT
ATOM      1  C   LEU B   3      -1.815  18.183  11.851  1.00 37.56 LIG 0.24  C 
ATOM      2 O    LEU B   3      -1.498  19.379  12.000  1.00 36.01 LIG-0.27  OA
ATOM      3  N   TYR B   4      -0.929  17.187  11.557  1.00 34.90 LIG-0.35  N 
ATOM      4 H    TYR B   4      -1.186  16.372  11.469  1.00 34.90 LIG 0.16  HD
ENDROOT
BRANCH 3 5
ATOM      5  CA  TYR B   4       0.514  17.334  11.356  1.00 36.24 LIG 0.18  C 
BRANCH 5 6
ATOM      6  CB  TYR B   4       0.819  17.880   9.946  1.00 36.37 LIG 0.07  C 
BRANCH 6 7
ATOM      7  CG  TYR B   4      -0.187  17.360   8.951  1.00 36.28 LIG-0.06  A 
ATOM      8  CD2 TYR B   4      -0.081  16.074   8.422  1.00 36.38 LIG 0.01  A 
ATOM      9  CE2 TYR B   4      -0.971  15.610   7.460  1.00 36.34 LIG 0.04  A 
ATOM     10  CZ  TYR B   4      -1.962  16.453   6.986  1.00 42.86 LIG 0.07  A 
ATOM     11  CE1 TYR B   4      -2.079  17.741   7.485  1.00 38.54 LIG 0.04  A 
ATOM     12  CD1 TYR B   4      -1.192  18.189   8.455  1.00 37.84 LIG 0.01  A 
BRANCH 10 13
ATOM     13 OH   TYR B   4      -2.837  16.021   6.027  1.00 44.02 LIG-0.36  OA
ATOM     14 HH   TYR B   4      -3.604  16.324   6.189  1.00 44.02 LIG 0.22  HD
ENDBRANCH 10 13
ENDBRANCH 6 7
ENDBRANCH 5 6
BRANCH 5 15
ATOM     15  C   TYR B   4       1.147  18.193  12.446  1.00 47.41 LIG 0.24  C 
ATOM     16  N   MET B   5       0.859  17.833  13.693  1.00 49.29 LIG-0.35  N 
ATOM     17 H    MET B   5       0.323  17.194  13.900  1.00 49.29 LIG 0.16  HD
ATOM     18 O    TYR B   4       1.887  19.142  12.175  1.00 47.26 LIG-0.27  OA
BRANCH 16 19
ATOM     19  CA  MET B   5       1.453  18.518  14.826  1.00 52.16 LIG 0.18  C 
BRANCH 19 20
ATOM     20  CB  MET B   5       1.056  17.850  16.142  1.00 55.77 LIG 0.04  C 
BRANCH 20 21
ATOM     21  CG  MET B   5      -0.393  18.137  16.530  1.00 61.00 LIG 0.08  C 
BRANCH 21 22
ATOM     22 SD   MET B   5      -1.578  17.473  15.348  1.00 67.05 LIG-0.17  SA
ATOM     23  CE  MET B   5      -1.343  15.731  15.620  1.00 63.64 LIG 0.09  C 
ENDBRANCH 21 22
ENDBRANCH 20 21
ENDBRANCH 19 20
BRANCH 19 24
ATOM     24  C   MET B   5       2.948  18.531  14.579  1.00 55.98 LIG 0.24  C 
ATOM     25 O    MET B   5       3.516  17.485  14.260  1.00 56.32 LIG-0.27  OA
ATOM     26  N   LEU B   6       3.561  19.719  14.599  1.00 51.23 LIG-0.35  N 
ATOM     27 H    LEU B   6       3.165  20.457  14.794  1.00 51.23 LIG 0.16  HD
BRANCH 26 28
ATOM     28  CA  LEU B   6       4.981  19.869  14.285  1.00 69.26 LIG 0.16  C 
BRANCH 28 29
ATOM     29  C   LEU B   6       5.774  20.335  15.505  1.00 97.67 LIG 0.22  C 
ATOM     30 O    LEU B   6       5.265  20.339  16.625  1.00 61.20 LIG-0.29  OA
ENDBRANCH 28 29
BRANCH 28 31
ATOM     31  CB  LEU B   6       5.158  20.845  13.105  1.00 69.14 LIG 0.04  C 
BRANCH 31 32
ATOM     32  CG  LEU B   6       5.734  20.237  11.827  1.00 73.60 LIG-0.02  C 
ATOM     33  CD2 LEU B   6       6.929  21.021  11.339  1.00 75.76 LIG 0.01  C 
ATOM     34  CD1 LEU B   6       4.672  20.092  10.761  1.00 73.41 LIG 0.01  C 
ENDBRANCH 31 32
ENDBRANCH 28 31
ENDBRANCH 26 28
ENDBRANCH 19 24
ENDBRANCH 16 19
ENDBRANCH 5 15
ENDBRANCH 3 5
BRANCH 1 35
ATOM     35  CA  LEU B   3      -3.287  17.777  11.934  1.00 32.52 LIG 0.18  C 
BRANCH 35 36
ATOM     36  CB  LEU B   3      -3.784  17.196  10.595  1.00 32.14 LIG 0.04  C 
BRANCH 36 37
ATOM     37  CG  LEU B   3      -4.620  18.161   9.738  1.00 34.99 LIG-0.02  C 
ATOM     38  CD2 LEU B   3      -5.040  17.504   8.398  1.00 35.91 LIG 0.01  C 
ATOM     39  CD1 LEU B   3      -3.874  19.502   9.544  1.00 33.16 LIG 0.01  C 
ENDBRANCH 36 37
ENDBRANCH 35 36
BRANCH 35 40
ATOM     40  N   LEU B   3      -4.131  18.888  12.361  1.00 32.48 LIG-0.35  N 
ATOM     41  C   ASN B   2      -5.115  18.701  13.262  1.00 36.40 LIG 0.24  C 
ATOM     42 O    ASN B   2      -5.375  17.594  13.750  1.00 34.95 LIG-0.27  OA
ATOM     43 H    LEU B   3      -3.946  19.644  11.996  1.00 32.48 LIG 0.16  HD
BRANCH 41 44
ATOM     44  CA  ASN B   2      -5.989  19.908  13.612  1.00 32.65 LIG 0.18  C 
BRANCH 44 45
ATOM     45  N   ASN B   2      -6.057  20.731  12.410  1.00 32.45 LIG-0.34  N 
ATOM     46 H    ASN B   2      -5.589  21.449  12.477  1.00 32.45 LIG 0.16  HD
ATOM     47  C   THR B   1      -6.754  20.442  11.305  1.00 35.22 LIG 0.25  C 
ATOM     48 O    THR B   1      -7.337  19.358  11.110  1.00 34.61 LIG-0.27  OA
BRANCH 47 49
ATOM     49  CA  THR B   1      -6.758  21.552  10.283  1.00 32.53 LIG 0.30  C 
BRANCH 49 50
ATOM     50  CB  THR B   1      -5.465  22.377  10.383  1.00 31.51 LIG 0.15  C 
ATOM     51  CG2 THR B   1      -4.846  22.724   8.994  1.00 30.77 LIG 0.04  C 
BRANCH 50 52
ATOM     52 OG1  THR B   1      -5.735  23.570  11.120  1.00 21.64 LIG-0.39  OA
ATOM     53 HG1  THR B   1      -5.055  24.062  11.115  1.00 21.64 LIG 0.21  HD
ENDBRANCH 50 52
ENDBRANCH 49 50
BRANCH 49 54
ATOM     54  N   THR B   1      -7.950  22.388  10.402  1.00 34.33 LIG-0.06  N 
ATOM     55 H2   THR B   1      -8.644  21.884  10.640  1.00 34.33 LIG 0.28  HD
ATOM     56 H1   THR B   1      -8.119  22.776   9.619  1.00 34.33 LIG 0.28  HD
ATOM     57 H3   THR B   1      -7.814  23.014  11.019  1.00 34.33 LIG 0.28  HD
ENDBRANCH 49 54
ENDBRANCH 47 49
ENDBRANCH 44 45
BRANCH 44 58
ATOM     58  CB  ASN B   2      -7.394  19.496  14.089  1.00 33.77 LIG 0.14  C 
BRANCH 58 59
ATOM     59  CG  ASN B   2      -7.511  19.361  15.594  1.00 47.71 LIG 0.22  C 
ATOM     60 OD1  ASN B   2      -7.152  18.339  16.190  1.00 37.59 LIG-0.27  OA
ATOM     61  ND2 ASN B   2      -8.047  20.382  16.245  1.00 40.38 LIG-0.37  N 
ATOM     62 22HD ASN B   2      -8.291  21.086  15.816  1.00 40.38 LIG 0.16  HD
ATOM     63 21HD ASN B   2      -8.151  20.341  17.098  1.00 40.38 LIG 0.16  HD
ENDBRANCH 58 59
ENDBRANCH 44 58
ENDBRANCH 41 44
ENDBRANCH 35 40
ENDBRANCH 1 35
TORSDOF 26
ENDMDL
MODEL 47
USER: ADFR SOLUTION from run 42
USER: SCORE 20.147477 LL:  -6.286 LR: -15.961 RR:   0.000 FEB:  -8.205
USER: RMSD 5.662724
USER: SEED 41
USER: STATUS no improvement in best in 2 clusters for 5 generations
USER: GENES 28
USER: genes 0 Translation |==|  0.52023 0.32262 0.44654
USER: genes 1 Rotation |==|  0.40953 0.52392 0.20527 0.89291
USER: genes 2 Torsion [C]-N--CA-[CB] |==|  0.56671
USER: genes 3 Torsion [N]-CA--CB-[CG] |==|  0.65768
USER: genes 4 Torsion [CA]-CB--CG-[CD2] |==|  0.89443
USER: genes 5 Torsion [CE2]-CZ--OH-[HH] |==|  0.89594
USER: genes 6 Torsion [N]-CA--C-[N] |==|  0.81623
USER: genes 7 Torsion [C]-N--CA-[CB] |==|  0.83834
USER: genes 8 Torsion [N]-CA--CB-[CG] |==|  0.73649
USER: genes 9 Torsion [CA]-CB--CG-[SD] |==|  0.00682
USER: genes 10 Torsion [CB]-CG--SD-[CE] |==|  0.48082
USER: genes 11 Torsion [N]-CA--C-[N] |==|  0.12111
USER: genes 12 Torsion [C]-N--CA-[C] |==|  0.80296
USER: genes 13 Torsion [N]-CA--C-[O] |==|  0.33560
USER: genes 14 Torsion [N]-CA--CB-[CG] |==|  0.79988
USER: genes 15 Torsion [CA]-CB--CG-[CD1] |==|  0.43192
USER: genes 16 Torsion [N]-C--CA-[N] |==|  0.87887
USER: genes 17 Torsion [C]-CA--CB-[CG] |==|  0.93050
USER: genes 18 Torsion [CA]-CB--CG-[CD2] |==|  0.67388
USER: genes 19 Torsion [C]-CA--N-[C] |==|  0.79524
USER: genes 20 Torsion [N]-C--CA-[N] |==|  0.36267
USER: genes 21 Torsion [C]-CA--N-[C] |==|  0.73384
USER: genes 22 Torsion [N]-C--CA-[N] |==|  0.38408
USER: genes 23 Torsion [C]-CA--CB-[CG2] |==|  0.10648
USER: genes 24 Torsion [CA]-CB--OG1-[HG1] |==|  0.40317
USER: genes 25 Torsion [C]-CA--N-[H2] |==|  0.28942
USER: genes 26 Torsion [C]-CA--CB-[CG] |==|  0.11052
USER: genes 27 Torsion [CA]-CB--CG-[OD1] |==|  0.22751
ROOT
ATOM      1  C   LEU B   3       1.713  17.425  12.086  1.00 37.56 LIG 0.24  C 
ATOM      2 O    LEU B   3       1.591  16.561  12.975  1.00 36.01 LIG-0.27  OA
ATOM      3  N   TYR B   4       2.542  18.505  12.176  1.00 34.90 LIG-0.35  N 
ATOM      4 H    TYR B   4       2.604  19.076  11.537  1.00 34.90 LIG 0.16  HD
ENDROOT
BRANCH 3 5
ATOM      5  CA  TYR B   4       3.410  18.847  13.306  1.00 36.24 LIG 0.18  C 
BRANCH 5 6
ATOM      6  CB  TYR B   4       3.719  20.358  13.322  1.00 36.37 LIG 0.07  C 
BRANCH 6 7
ATOM      7  CG  TYR B   4       5.207  20.593  13.288  1.00 36.28 LIG-0.06  A 
ATOM      8  CD2 TYR B   4       6.084  19.765  13.989  1.00 36.38 LIG 0.01  A 
ATOM      9  CE2 TYR B   4       7.452  20.012  14.010  1.00 36.34 LIG 0.04  A 
ATOM     10  CZ  TYR B   4       7.954  21.125  13.355  1.00 42.86 LIG 0.07  A 
ATOM     11  CE1 TYR B   4       7.101  21.971  12.665  1.00 38.54 LIG 0.04  A 
ATOM     12  CD1 TYR B   4       5.737  21.707  12.640  1.00 37.84 LIG 0.01  A 
BRANCH 10 13
ATOM     13 OH   TYR B   4       9.295  21.394  13.379  1.00 44.02 LIG-0.36  OA
ATOM     14 HH   TYR B   4       9.607  21.199  14.135  1.00 44.02 LIG 0.22  HD
ENDBRANCH 10 13
ENDBRANCH 6 7
ENDBRANCH 5 6
BRANCH 5 15
ATOM     15  C   TYR B   4       2.819  18.373  14.629  1.00 47.41 LIG 0.24  C 
ATOM     16  N   MET B   5       1.693  18.974  14.997  1.00 49.29 LIG-0.35  N 
ATOM     17 H    MET B   5       1.325  19.619  14.564  1.00 49.29 LIG 0.16  HD
ATOM     18 O    TYR B   4       3.352  17.479  15.292  1.00 47.26 LIG-0.27  OA
BRANCH 16 19
ATOM     19  CA  MET B   5       0.986  18.569  16.198  1.00 52.16 LIG 0.18  C 
BRANCH 19 20
ATOM     20  CB  MET B   5       0.601  17.091  16.136  1.00 55.77 LIG 0.04  C 
BRANCH 20 21
ATOM     21  CG  MET B   5      -0.818  16.876  15.617  1.00 61.00 LIG 0.08  C 
BRANCH 21 22
ATOM     22 SD   MET B   5      -1.632  18.413  15.150  1.00 67.05 LIG-0.17  SA
ATOM     23  CE  MET B   5      -3.121  17.766  14.422  1.00 63.64 LIG 0.09  C 
ENDBRANCH 21 22
ENDBRANCH 20 21
ENDBRANCH 19 20
BRANCH 19 24
ATOM     24  C   MET B   5       1.892  18.912  17.362  1.00 55.98 LIG 0.24  C 
ATOM     25 O    MET B   5       2.123  18.058  18.219  1.00 56.32 LIG-0.27  OA
ATOM     26  N   LEU B   6       2.502  20.103  17.332  1.00 51.23 LIG-0.35  N 
ATOM     27 H    LEU B   6       2.366  20.693  16.722  1.00 51.23 LIG 0.16  HD
BRANCH 26 28
ATOM     28  CA  LEU B   6       3.469  20.509  18.351  1.00 69.26 LIG 0.16  C 
BRANCH 28 29
ATOM     29  C   LEU B   6       2.784  20.785  19.688  1.00 97.67 LIG 0.22  C 
ATOM     30 O    LEU B   6       3.094  20.155  20.698  1.00 61.20 LIG-0.29  OA
ENDBRANCH 28 29
BRANCH 28 31
ATOM     31  CB  LEU B   6       4.255  21.743  17.866  1.00 69.14 LIG 0.04  C 
BRANCH 31 32
ATOM     32  CG  LEU B   6       5.272  21.484  16.755  1.00 73.60 LIG-0.02  C 
ATOM     33  CD2 LEU B   6       6.538  20.874  17.304  1.00 75.76 LIG 0.01  C 
ATOM     34  CD1 LEU B   6       5.541  22.738  15.954  1.00 73.41 LIG 0.01  C 
ENDBRANCH 31 32
ENDBRANCH 28 31
ENDBRANCH 26 28
ENDBRANCH 19 24
ENDBRANCH 16 19
ENDBRANCH 5 15
ENDBRANCH 3 5
BRANCH 1 35
ATOM     35  CA  LEU B   3       0.850  17.338  10.826  1.00 32.52 LIG 0.18  C 
BRANCH 35 36
ATOM     36  CB  LEU B   3       1.651  16.769   9.637  1.00 32.14 LIG 0.04  C 
BRANCH 36 37
ATOM     37  CG  LEU B   3       3.173  16.971   9.723  1.00 34.99 LIG-0.02  C 
ATOM     38  CD2 LEU B   3       3.690  17.854   8.558  1.00 35.91 LIG 0.01  C 
ATOM     39  CD1 LEU B   3       3.898  15.608   9.813  1.00 33.16 LIG 0.01  C 
ENDBRANCH 36 37
ENDBRANCH 35 36
BRANCH 35 40
ATOM     40  N   LEU B   3       0.262  18.629  10.483  1.00 32.48 LIG-0.35  N 
ATOM     41  C   ASN B   2      -0.758  19.135  11.201  1.00 36.40 LIG 0.24  C 
ATOM     42 O    ASN B   2      -1.266  18.536  12.157  1.00 34.95 LIG-0.27  OA
ATOM     43 H    LEU B   3       0.617  19.018   9.803  1.00 32.48 LIG 0.16  HD
BRANCH 41 44
ATOM     44  CA  ASN B   2      -1.353  20.468  10.739  1.00 32.65 LIG 0.18  C 
BRANCH 44 45
ATOM     45  N   ASN B   2      -2.798  20.280  10.689  1.00 32.45 LIG-0.34  N 
ATOM     46 H    ASN B   2      -3.171  20.397  11.455  1.00 32.45 LIG 0.16  HD
ATOM     47  C   THR B   1      -3.506  19.962   9.600  1.00 35.22 LIG 0.25  C 
ATOM     48 O    THR B   1      -3.033  19.912   8.448  1.00 34.61 LIG-0.27  OA
BRANCH 47 49
ATOM     49  CA  THR B   1      -4.962  19.683   9.882  1.00 32.53 LIG 0.30  C 
BRANCH 49 50
ATOM     50  CB  THR B   1      -5.198  18.171  10.030  1.00 31.51 LIG 0.15  C 
ATOM     51  CG2 THR B   1      -4.043  17.436  10.777  1.00 30.77 LIG 0.04  C 
BRANCH 50 52
ATOM     52 OG1  THR B   1      -6.440  17.963  10.704  1.00 21.64 LIG-0.39  OA
ATOM     53 HG1  THR B   1      -6.811  17.274  10.400  1.00 21.64 LIG 0.21  HD
ENDBRANCH 50 52
ENDBRANCH 49 50
BRANCH 49 54
ATOM     54  N   THR B   1      -5.830  20.275   8.869  1.00 34.33 LIG-0.06  N 
ATOM     55 H2   THR B   1      -6.126  19.638   8.322  1.00 34.33 LIG 0.28  HD
ATOM     56 H1   THR B   1      -5.372  20.879   8.401  1.00 34.33 LIG 0.28  HD
ATOM     57 H3   THR B   1      -6.522  20.670   9.264  1.00 34.33 LIG 0.28  HD
ENDBRANCH 49 54
ENDBRANCH 47 49
ENDBRANCH 44 45
BRANCH 44 58
ATOM     58  CB  ASN B   2      -0.972  21.634  11.671  1.00 33.77 LIG 0.14  C 
BRANCH 58 59
ATOM     59  CG  ASN B   2       0.460  21.576  12.163  1.00 47.71 LIG 0.22  C 
ATOM     60 OD1  ASN B   2       1.406  21.983  11.479  1.00 37.59 LIG-0.27  OA
ATOM     61  ND2 ASN B   2       0.660  21.036  13.356  1.00 40.38 LIG-0.37  N 
ATOM     62 22HD ASN B   2      -0.008  20.759  13.820  1.00 40.38 LIG 0.16  HD
ATOM     63 21HD ASN B   2       1.459  20.965  13.668  1.00 40.38 LIG 0.16  HD
ENDBRANCH 58 59
ENDBRANCH 44 58
ENDBRANCH 41 44
ENDBRANCH 35 40
ENDBRANCH 1 35
TORSDOF 26
ENDMDL
MODEL 48
USER: ADFR SOLUTION from run 1
USER: SCORE 19.820425 LL:  -6.455 LR: -15.954 RR:   0.000 FEB:  -8.198
USER: RMSD 5.097848
USER: SEED 797214
USER: STATUS no improvement in best in 12 clusters for 5 generations
USER: GENES 28
USER: genes 0 Translation |==|  0.42847 0.46960 0.44458
USER: genes 1 Rotation |==|  0.87758 0.57409 0.47457 0.81828
USER: genes 2 Torsion [C]-N--CA-[CB] |==|  0.81790
USER: genes 3 Torsion [N]-CA--CB-[CG] |==|  0.83156
USER: genes 4 Torsion [CA]-CB--CG-[CD2] |==|  0.85877
USER: genes 5 Torsion [CE2]-CZ--OH-[HH] |==|  0.56423
USER: genes 6 Torsion [N]-CA--C-[N] |==|  0.79651
USER: genes 7 Torsion [C]-N--CA-[CB] |==|  0.43942
USER: genes 8 Torsion [N]-CA--CB-[CG] |==|  0.13254
USER: genes 9 Torsion [CA]-CB--CG-[SD] |==|  0.73522
USER: genes 10 Torsion [CB]-CG--SD-[CE] |==|  0.99173
USER: genes 11 Torsion [N]-CA--C-[N] |==|  0.40228
USER: genes 12 Torsion [C]-N--CA-[C] |==|  0.19042
USER: genes 13 Torsion [N]-CA--C-[O] |==|  0.20380
USER: genes 14 Torsion [N]-CA--CB-[CG] |==|  0.71599
USER: genes 15 Torsion [CA]-CB--CG-[CD1] |==|  0.94695
USER: genes 16 Torsion [N]-C--CA-[N] |==|  0.66970
USER: genes 17 Torsion [C]-CA--CB-[CG] |==|  0.22916
USER: genes 18 Torsion [CA]-CB--CG-[CD2] |==|  0.01935
USER: genes 19 Torsion [C]-CA--N-[C] |==|  0.16463
USER: genes 20 Torsion [N]-C--CA-[N] |==|  0.37863
USER: genes 21 Torsion [C]-CA--N-[C] |==|  0.85000
USER: genes 22 Torsion [N]-C--CA-[N] |==|  0.05178
USER: genes 23 Torsion [C]-CA--CB-[CG2] |==|  0.20128
USER: genes 24 Torsion [CA]-CB--OG1-[HG1] |==|  0.45959
USER: genes 25 Torsion [C]-CA--N-[H2] |==|  0.35144
USER: genes 26 Torsion [C]-CA--CB-[CG] |==|  0.93881
USER: genes 27 Torsion [CA]-CB--CG-[OD1] |==|  0.78771
ROOT
ATOM      1  C   LEU B   3      -0.214  19.961  12.039  1.00 37.56 LIG 0.24  C 
ATOM      2 O    LEU B   3       0.531  19.614  11.102  1.00 36.01 LIG-0.27  OA
ATOM      3  N   TYR B   4      -0.587  19.142  13.064  1.00 34.90 LIG-0.35  N 
ATOM      4 H    TYR B   4      -1.097  19.420  13.697  1.00 34.90 LIG 0.16  HD
ENDROOT
BRANCH 3 5
ATOM      5  CA  TYR B   4      -0.203  17.739  13.245  1.00 36.24 LIG 0.18  C 
BRANCH 5 6
ATOM      6  CB  TYR B   4      -0.795  16.860  12.124  1.00 36.37 LIG 0.07  C 
BRANCH 6 7
ATOM      7  CG  TYR B   4      -2.301  16.930  12.138  1.00 36.28 LIG-0.06  A 
ATOM      8  CD2 TYR B   4      -3.022  16.715  13.312  1.00 36.38 LIG 0.01  A 
ATOM      9  CE2 TYR B   4      -4.412  16.719  13.320  1.00 36.34 LIG 0.04  A 
ATOM     10  CZ  TYR B   4      -5.099  16.903  12.132  1.00 42.86 LIG 0.07  A 
ATOM     11  CE1 TYR B   4      -4.405  17.104  10.949  1.00 38.54 LIG 0.04  A 
ATOM     12  CD1 TYR B   4      -3.016  17.110  10.956  1.00 37.84 LIG 0.01  A 
BRANCH 10 13
ATOM     13 OH   TYR B   4      -6.467  16.893  12.116  1.00 44.02 LIG-0.36  OA
ATOM     14 HH   TYR B   4      -6.738  16.699  11.345  1.00 44.02 LIG 0.22  HD
ENDBRANCH 10 13
ENDBRANCH 6 7
ENDBRANCH 5 6
BRANCH 5 15
ATOM     15  C   TYR B   4       1.310  17.582  13.351  1.00 47.41 LIG 0.24  C 
ATOM     16  N   MET B   5       1.979  17.737  12.214  1.00 49.29 LIG-0.35  N 
ATOM     17 H    MET B   5       1.610  17.872  11.450  1.00 49.29 LIG 0.16  HD
ATOM     18 O    TYR B   4       1.861  17.345  14.429  1.00 47.26 LIG-0.27  OA
BRANCH 16 19
ATOM     19  CA  MET B   5       3.429  17.687  12.186  1.00 52.16 LIG 0.18  C 
BRANCH 19 20
ATOM     20  CB  MET B   5       3.941  17.352  10.786  1.00 55.77 LIG 0.04  C 
BRANCH 20 21
ATOM     21  CG  MET B   5       3.274  18.196   9.702  1.00 61.00 LIG 0.08  C 
BRANCH 21 22
ATOM     22 SD   MET B   5       1.869  17.370   8.938  1.00 67.05 LIG-0.17  SA
ATOM     23  CE  MET B   5       1.936  15.804   9.779  1.00 63.64 LIG 0.09  C 
ENDBRANCH 21 22
ENDBRANCH 20 21
ENDBRANCH 19 20
BRANCH 19 24
ATOM     24  C   MET B   5       3.911  19.026  12.705  1.00 55.98 LIG 0.24  C 
ATOM     25 O    MET B   5       3.210  20.025  12.539  1.00 56.32 LIG-0.27  OA
ATOM     26  N   LEU B   6       5.031  19.032  13.437  1.00 51.23 LIG-0.35  N 
ATOM     27 H    LEU B   6       5.511  18.333  13.579  1.00 51.23 LIG 0.16  HD
BRANCH 26 28
ATOM     28  CA  LEU B   6       5.545  20.247  14.067  1.00 69.26 LIG 0.16  C 
BRANCH 28 29
ATOM     29  C   LEU B   6       4.631  20.714  15.199  1.00 97.67 LIG 0.22  C 
ATOM     30 O    LEU B   6       4.595  20.111  16.270  1.00 61.20 LIG-0.29  OA
ENDBRANCH 28 29
BRANCH 28 31
ATOM     31  CB  LEU B   6       5.723  21.353  13.008  1.00 69.14 LIG 0.04  C 
BRANCH 31 32
ATOM     32  CG  LEU B   6       7.158  21.592  12.539  1.00 73.60 LIG-0.02  C 
ATOM     33  CD2 LEU B   6       7.371  21.061  11.142  1.00 75.76 LIG 0.01  C 
ATOM     34  CD1 LEU B   6       8.158  21.030  13.523  1.00 73.41 LIG 0.01  C 
ENDBRANCH 31 32
ENDBRANCH 28 31
ENDBRANCH 26 28
ENDBRANCH 19 24
ENDBRANCH 16 19
ENDBRANCH 5 15
ENDBRANCH 3 5
BRANCH 1 35
ATOM     35  CA  LEU B   3      -0.818  21.367  12.042  1.00 32.52 LIG 0.18  C 
BRANCH 35 36
ATOM     36  CB  LEU B   3      -1.646  21.618  13.318  1.00 32.14 LIG 0.04  C 
BRANCH 36 37
ATOM     37  CG  LEU B   3      -0.829  22.038  14.552  1.00 34.99 LIG-0.02  C 
ATOM     38  CD2 LEU B   3       0.656  22.285  14.185  1.00 35.91 LIG 0.01  C 
ATOM     39  CD1 LEU B   3      -1.005  21.012  15.696  1.00 33.16 LIG 0.01  C 
ENDBRANCH 36 37
ENDBRANCH 35 36
BRANCH 35 40
ATOM     40  N   LEU B   3      -1.619  21.614  10.848  1.00 32.48 LIG-0.35  N 
ATOM     41  C   ASN B   2      -2.681  20.839  10.558  1.00 36.40 LIG 0.24  C 
ATOM     42 O    ASN B   2      -3.018  19.875  11.255  1.00 34.95 LIG-0.27  OA
ATOM     43 H    LEU B   3      -1.356  22.277  10.367  1.00 32.48 LIG 0.16  HD
BRANCH 41 44
ATOM     44  CA  ASN B   2      -3.434  21.133   9.256  1.00 32.65 LIG 0.18  C 
BRANCH 44 45
ATOM     45  N   ASN B   2      -3.701  19.841   8.634  1.00 32.45 LIG-0.34  N 
ATOM     46 H    ASN B   2      -4.534  19.729   8.454  1.00 32.45 LIG 0.16  HD
ATOM     47  C   THR B   1      -2.786  18.906   8.355  1.00 35.22 LIG 0.25  C 
ATOM     48 O    THR B   1      -1.557  19.072   8.474  1.00 34.61 LIG-0.27  OA
BRANCH 47 49
ATOM     49  CA  THR B   1      -3.377  17.611   7.853  1.00 32.53 LIG 0.30  C 
BRANCH 49 50
ATOM     50  CB  THR B   1      -2.468  16.988   6.782  1.00 31.51 LIG 0.15  C 
ATOM     51  CG2 THR B   1      -1.152  16.384   7.365  1.00 30.77 LIG 0.04  C 
BRANCH 50 52
ATOM     52 OG1  THR B   1      -3.205  15.989   6.077  1.00 21.64 LIG-0.39  OA
ATOM     53 HG1  THR B   1      -2.795  15.785   5.372  1.00 21.64 LIG 0.21  HD
ENDBRANCH 50 52
ENDBRANCH 49 50
BRANCH 49 54
ATOM     54  N   THR B   1      -4.743  17.794   7.371  1.00 34.33 LIG-0.06  N 
ATOM     55 H2   THR B   1      -4.810  17.477   6.542  1.00 34.33 LIG 0.28  HD
ATOM     56 H1   THR B   1      -4.946  18.661   7.376  1.00 34.33 LIG 0.28  HD
ATOM     57 H3   THR B   1      -5.306  17.355   7.902  1.00 34.33 LIG 0.28  HD
ENDBRANCH 49 54
ENDBRANCH 47 49
ENDBRANCH 44 45
BRANCH 44 58
ATOM     58  CB  ASN B   2      -4.736  21.918   9.497  1.00 33.77 LIG 0.14  C 
BRANCH 58 59
ATOM     59  CG  ASN B   2      -5.276  21.784  10.907  1.00 47.71 LIG 0.22  C 
ATOM     60 OD1  ASN B   2      -5.864  20.766  11.289  1.00 37.59 LIG-0.27  OA
ATOM     61  ND2 ASN B   2      -5.117  22.826  11.709  1.00 40.38 LIG-0.37  N 
ATOM     62 22HD ASN B   2      -4.705  23.526  11.428  1.00 40.38 LIG 0.16  HD
ATOM     63 21HD ASN B   2      -5.425  22.801  12.512  1.00 40.38 LIG 0.16  HD
ENDBRANCH 58 59
ENDBRANCH 44 58
ENDBRANCH 41 44
ENDBRANCH 35 40
ENDBRANCH 1 35
TORSDOF 26
ENDMDL
MODEL 49
USER: ADFR SOLUTION from run 170
USER: SCORE 21.357208 LL:  -6.015 LR: -15.944 RR:   0.000 FEB:  -8.188
USER: RMSD 4.929295
USER: SEED 169
USER: STATUS no improvement in best in 6 clusters for 5 generations
USER: GENES 28
USER: genes 0 Translation |==|  0.40092 0.29660 0.42635
USER: genes 1 Rotation |==|  0.55392 0.66180 0.33801 0.94122
USER: genes 2 Torsion [C]-N--CA-[CB] |==|  0.80033
USER: genes 3 Torsion [N]-CA--CB-[CG] |==|  0.89077
USER: genes 4 Torsion [CA]-CB--CG-[CD2] |==|  0.26001
USER: genes 5 Torsion [CE2]-CZ--OH-[HH] |==|  0.59500
USER: genes 6 Torsion [N]-CA--C-[N] |==|  0.33058
USER: genes 7 Torsion [C]-N--CA-[CB] |==|  0.17265
USER: genes 8 Torsion [N]-CA--CB-[CG] |==|  0.14797
USER: genes 9 Torsion [CA]-CB--CG-[SD] |==|  0.55313
USER: genes 10 Torsion [CB]-CG--SD-[CE] |==|  0.18709
USER: genes 11 Torsion [N]-CA--C-[N] |==|  0.06815
USER: genes 12 Torsion [C]-N--CA-[C] |==|  0.52428
USER: genes 13 Torsion [N]-CA--C-[O] |==|  0.04191
USER: genes 14 Torsion [N]-CA--CB-[CG] |==|  0.67381
USER: genes 15 Torsion [CA]-CB--CG-[CD1] |==|  0.98412
USER: genes 16 Torsion [N]-C--CA-[N] |==|  0.02224
USER: genes 17 Torsion [C]-CA--CB-[CG] |==|  0.50292
USER: genes 18 Torsion [CA]-CB--CG-[CD2] |==|  0.87050
USER: genes 19 Torsion [C]-CA--N-[C] |==|  0.18383
USER: genes 20 Torsion [N]-C--CA-[N] |==|  0.92177
USER: genes 21 Torsion [C]-CA--N-[C] |==|  0.84444
USER: genes 22 Torsion [N]-C--CA-[N] |==|  0.36966
USER: genes 23 Torsion [C]-CA--CB-[CG2] |==|  0.16199
USER: genes 24 Torsion [CA]-CB--OG1-[HG1] |==|  0.23529
USER: genes 25 Torsion [C]-CA--N-[H2] |==|  0.49507
USER: genes 26 Torsion [C]-CA--CB-[CG] |==|  0.15065
USER: genes 27 Torsion [CA]-CB--CG-[OD1] |==|  0.15471
ROOT
ATOM      1  C   LEU B   3      -0.793  16.976  11.601  1.00 37.56 LIG 0.24  C 
ATOM      2 O    LEU B   3      -0.369  15.809  11.492  1.00 36.01 LIG-0.27  OA
ATOM      3  N   TYR B   4      -0.317  17.882  12.504  1.00 34.90 LIG-0.35  N 
ATOM      4 H    TYR B   4      -0.630  18.681  12.544  1.00 34.90 LIG 0.16  HD
ENDROOT
BRANCH 3 5
ATOM      5  CA  TYR B   4       0.741  17.656  13.493  1.00 36.24 LIG 0.18  C 
BRANCH 5 6
ATOM      6  CB  TYR B   4       0.243  16.735  14.627  1.00 36.37 LIG 0.07  C 
BRANCH 6 7
ATOM      7  CG  TYR B   4      -1.180  17.069  14.991  1.00 36.28 LIG-0.06  A 
ATOM      8  CD2 TYR B   4      -2.252  16.392  14.410  1.00 36.38 LIG 0.01  A 
ATOM      9  CE2 TYR B   4      -3.568  16.735  14.697  1.00 36.34 LIG 0.04  A 
ATOM     10  CZ  TYR B   4      -3.825  17.798  15.548  1.00 42.86 LIG 0.07  A 
ATOM     11  CE1 TYR B   4      -2.777  18.497  16.126  1.00 38.54 LIG 0.04  A 
ATOM     12  CD1 TYR B   4      -1.466  18.136  15.842  1.00 37.84 LIG 0.01  A 
BRANCH 10 13
ATOM     13 OH   TYR B   4      -5.113  18.162  15.829  1.00 44.02 LIG-0.36  OA
ATOM     14 HH   TYR B   4      -5.154  18.996  15.927  1.00 44.02 LIG 0.22  HD
ENDBRANCH 10 13
ENDBRANCH 6 7
ENDBRANCH 5 6
BRANCH 5 15
ATOM     15  C   TYR B   4       2.011  17.119  12.841  1.00 47.41 LIG 0.24  C 
ATOM     16  N   MET B   5       3.087  17.886  12.977  1.00 49.29 LIG-0.35  N 
ATOM     17 H    MET B   5       3.088  18.655  13.361  1.00 49.29 LIG 0.16  HD
ATOM     18 O    TYR B   4       2.026  16.038  12.247  1.00 47.26 LIG-0.27  OA
BRANCH 16 19
ATOM     19  CA  MET B   5       4.379  17.461  12.469  1.00 52.16 LIG 0.18  C 
BRANCH 19 20
ATOM     20  CB  MET B   5       4.342  17.284  10.952  1.00 55.77 LIG 0.04  C 
BRANCH 20 21
ATOM     21  CG  MET B   5       3.819  18.525  10.231  1.00 61.00 LIG 0.08  C 
BRANCH 21 22
ATOM     22 SD   MET B   5       3.255  18.176   8.557  1.00 67.05 LIG-0.17  SA
ATOM     23  CE  MET B   5       1.833  17.168   8.915  1.00 63.64 LIG 0.09  C 
ENDBRANCH 21 22
ENDBRANCH 20 21
ENDBRANCH 19 20
BRANCH 19 24
ATOM     24  C   MET B   5       5.381  18.496  12.936  1.00 55.98 LIG 0.24  C 
ATOM     25 O    MET B   5       6.373  18.730  12.244  1.00 56.32 LIG-0.27  OA
ATOM     26  N   LEU B   6       5.069  19.201  14.030  1.00 51.23 LIG-0.35  N 
ATOM     27 H    LEU B   6       4.364  19.060  14.502  1.00 51.23 LIG 0.16  HD
BRANCH 26 28
ATOM     28  CA  LEU B   6       5.912  20.288  14.523  1.00 69.26 LIG 0.16  C 
BRANCH 28 29
ATOM     29  C   LEU B   6       5.443  20.777  15.892  1.00 97.67 LIG 0.22  C 
ATOM     30 O    LEU B   6       4.661  20.110  16.567  1.00 61.20 LIG-0.29  OA
ENDBRANCH 28 29
BRANCH 28 31
ATOM     31  CB  LEU B   6       5.934  21.442  13.501  1.00 69.14 LIG 0.04  C 
BRANCH 31 32
ATOM     32  CG  LEU B   6       7.300  21.762  12.896  1.00 73.60 LIG-0.02  C 
ATOM     33  CD2 LEU B   6       7.284  21.601  11.395  1.00 75.76 LIG 0.01  C 
ATOM     34  CD1 LEU B   6       8.394  20.946  13.547  1.00 73.41 LIG 0.01  C 
ENDBRANCH 31 32
ENDBRANCH 28 31
ENDBRANCH 26 28
ENDBRANCH 19 24
ENDBRANCH 16 19
ENDBRANCH 5 15
ENDBRANCH 3 5
BRANCH 1 35
ATOM     35  CA  LEU B   3      -1.960  17.441  10.728  1.00 32.52 LIG 0.18  C 
BRANCH 35 36
ATOM     36  CB  LEU B   3      -1.713  17.110   9.242  1.00 32.14 LIG 0.04  C 
BRANCH 36 37
ATOM     37  CG  LEU B   3      -2.826  17.564   8.282  1.00 34.99 LIG-0.02  C 
ATOM     38  CD2 LEU B   3      -4.227  17.178   8.822  1.00 35.91 LIG 0.01  C 
ATOM     39  CD1 LEU B   3      -2.563  17.031   6.854  1.00 33.16 LIG 0.01  C 
ENDBRANCH 36 37
ENDBRANCH 35 36
BRANCH 35 40
ATOM     40  N   LEU B   3      -2.234  18.863  10.903  1.00 32.48 LIG-0.35  N 
ATOM     41  C   ASN B   2      -1.339  19.791  10.513  1.00 36.40 LIG 0.24  C 
ATOM     42 O    ASN B   2      -0.243  19.499  10.019  1.00 34.95 LIG-0.27  OA
ATOM     43 H    LEU B   3      -2.993  19.043  11.265  1.00 32.48 LIG 0.16  HD
BRANCH 41 44
ATOM     44  CA  ASN B   2      -1.682  21.259  10.784  1.00 32.65 LIG 0.18  C 
BRANCH 44 45
ATOM     45  N   ASN B   2      -3.138  21.349  10.784  1.00 32.45 LIG-0.34  N 
ATOM     46 H    ASN B   2      -3.446  21.684  11.514  1.00 32.45 LIG 0.16  HD
ATOM     47  C   THR B   1      -3.944  20.967   9.787  1.00 35.22 LIG 0.25  C 
ATOM     48 O    THR B   1      -3.543  20.601   8.665  1.00 34.61 LIG-0.27  OA
BRANCH 47 49
ATOM     49  CA  THR B   1      -5.411  21.037  10.132  1.00 32.53 LIG 0.30  C 
BRANCH 49 50
ATOM     50  CB  THR B   1      -5.952  19.636  10.458  1.00 31.51 LIG 0.15  C 
ATOM     51  CG2 THR B   1      -5.202  18.945  11.640  1.00 30.77 LIG 0.04  C 
BRANCH 50 52
ATOM     52 OG1  THR B   1      -7.347  19.736  10.744  1.00 21.64 LIG-0.39  OA
ATOM     53 HG1  THR B   1      -7.782  19.714  10.026  1.00 21.64 LIG 0.21  HD
ENDBRANCH 50 52
ENDBRANCH 49 50
BRANCH 49 54
ATOM     54  N   THR B   1      -6.181  21.688   9.077  1.00 34.33 LIG-0.06  N 
ATOM     55 H2   THR B   1      -7.044  21.691   9.297  1.00 34.33 LIG 0.28  HD
ATOM     56 H1   THR B   1      -6.072  21.245   8.312  1.00 34.33 LIG 0.28  HD
ATOM     57 H3   THR B   1      -5.899  22.526   8.976  1.00 34.33 LIG 0.28  HD
ENDBRANCH 49 54
ENDBRANCH 47 49
ENDBRANCH 44 45
BRANCH 44 58
ATOM     58  CB  ASN B   2      -1.089  21.763  12.112  1.00 33.77 LIG 0.14  C 
BRANCH 58 59
ATOM     59  CG  ASN B   2       0.406  21.549  12.232  1.00 47.71 LIG 0.22  C 
ATOM     60 OD1  ASN B   2       1.200  21.985  11.390  1.00 37.59 LIG-0.27  OA
ATOM     61  ND2 ASN B   2       0.828  20.841  13.269  1.00 40.38 LIG-0.37  N 
ATOM     62 22HD ASN B   2       0.263  20.546  13.846  1.00 40.38 LIG 0.16  HD
ATOM     63 21HD ASN B   2       1.666  20.678  13.366  1.00 40.38 LIG 0.16  HD
ENDBRANCH 58 59
ENDBRANCH 44 58
ENDBRANCH 41 44
ENDBRANCH 35 40
ENDBRANCH 1 35
TORSDOF 26
ENDMDL
MODEL 50
USER: ADFR SOLUTION from run 84
USER: SCORE 18.739732 LL:  -5.671 LR: -15.928 RR:   0.000 FEB:  -8.172
USER: RMSD 9.804105
USER: SEED 83
USER: STATUS no improvement in best in 18 clusters for 5 generations
USER: GENES 28
USER: genes 0 Translation |==|  0.51154 0.46532 0.40743
USER: genes 1 Rotation |==|  0.23380 0.42312 0.84710 0.72968
USER: genes 2 Torsion [C]-N--CA-[CB] |==|  0.18806
USER: genes 3 Torsion [N]-CA--CB-[CG] |==|  0.25283
USER: genes 4 Torsion [CA]-CB--CG-[CD2] |==|  0.31636
USER: genes 5 Torsion [CE2]-CZ--OH-[HH] |==|  0.46562
USER: genes 6 Torsion [N]-CA--C-[N] |==|  0.44616
USER: genes 7 Torsion [C]-N--CA-[CB] |==|  0.27148
USER: genes 8 Torsion [N]-CA--CB-[CG] |==|  0.80444
USER: genes 9 Torsion [CA]-CB--CG-[SD] |==|  0.34674
USER: genes 10 Torsion [CB]-CG--SD-[CE] |==|  0.67851
USER: genes 11 Torsion [N]-CA--C-[N] |==|  0.00254
USER: genes 12 Torsion [C]-N--CA-[C] |==|  0.50927
USER: genes 13 Torsion [N]-CA--C-[O] |==|  0.03982
USER: genes 14 Torsion [N]-CA--CB-[CG] |==|  0.16406
USER: genes 15 Torsion [CA]-CB--CG-[CD1] |==|  0.34119
USER: genes 16 Torsion [N]-C--CA-[N] |==|  0.56925
USER: genes 17 Torsion [C]-CA--CB-[CG] |==|  0.29462
USER: genes 18 Torsion [CA]-CB--CG-[CD2] |==|  0.05192
USER: genes 19 Torsion [C]-CA--N-[C] |==|  0.59374
USER: genes 20 Torsion [N]-C--CA-[N] |==|  0.03833
USER: genes 21 Torsion [C]-CA--N-[C] |==|  0.21059
USER: genes 22 Torsion [N]-C--CA-[N] |==|  0.14675
USER: genes 23 Torsion [C]-CA--CB-[CG2] |==|  0.43885
USER: genes 24 Torsion [CA]-CB--OG1-[HG1] |==|  0.42426
USER: genes 25 Torsion [C]-CA--N-[H2] |==|  0.20218
USER: genes 26 Torsion [C]-CA--CB-[CG] |==|  0.52797
USER: genes 27 Torsion [CA]-CB--CG-[OD1] |==|  0.89401
ROOT
ATOM      1  C   LEU B   3       1.530  19.887  11.147  1.00 37.56 LIG 0.24  C 
ATOM      2 O    LEU B   3       1.291  21.103  11.274  1.00 36.01 LIG-0.27  OA
ATOM      3  N   TYR B   4       0.572  18.916  11.130  1.00 34.90 LIG-0.35  N 
ATOM      4 H    TYR B   4       0.777  18.087  11.033  1.00 34.90 LIG 0.16  HD
ENDROOT
BRANCH 3 5
ATOM      5  CA  TYR B   4      -0.873  19.113  11.264  1.00 36.24 LIG 0.18  C 
BRANCH 5 6
ATOM      6  CB  TYR B   4      -1.442  19.855  10.036  1.00 36.37 LIG 0.07  C 
BRANCH 6 7
ATOM      7  CG  TYR B   4      -1.887  18.872   8.985  1.00 36.28 LIG-0.06  A 
ATOM      8  CD2 TYR B   4      -3.233  18.741   8.643  1.00 36.38 LIG 0.01  A 
ATOM      9  CE2 TYR B   4      -3.658  17.795   7.718  1.00 36.34 LIG 0.04  A 
ATOM     10  CZ  TYR B   4      -2.732  16.935   7.150  1.00 42.86 LIG 0.07  A 
ATOM     11  CE1 TYR B   4      -1.391  17.034   7.485  1.00 38.54 LIG 0.04  A 
ATOM     12  CD1 TYR B   4      -0.977  17.992   8.401  1.00 37.84 LIG 0.01  A 
BRANCH 10 13
ATOM     13 OH   TYR B   4      -3.133  15.985   6.250  1.00 44.02 LIG-0.36  OA
ATOM     14 HH   TYR B   4      -2.459  15.658   5.869  1.00 44.02 LIG 0.22  HD
ENDBRANCH 10 13
ENDBRANCH 6 7
ENDBRANCH 5 6
BRANCH 5 15
ATOM     15  C   TYR B   4      -1.597  17.795  11.517  1.00 47.41 LIG 0.24  C 
ATOM     16  N   MET B   5      -2.813  17.906  12.042  1.00 49.29 LIG-0.35  N 
ATOM     17 H    MET B   5      -3.174  18.650  12.274  1.00 49.29 LIG 0.16  HD
ATOM     18 O    TYR B   4      -1.084  16.710  11.233  1.00 47.26 LIG-0.27  OA
BRANCH 16 19
ATOM     19  CA  MET B   5      -3.641  16.735  12.265  1.00 52.16 LIG 0.18  C 
BRANCH 19 20
ATOM     20  CB  MET B   5      -3.547  16.264  13.716  1.00 55.77 LIG 0.04  C 
BRANCH 20 21
ATOM     21  CG  MET B   5      -2.188  15.652  14.046  1.00 61.00 LIG 0.08  C 
BRANCH 21 22
ATOM     22 SD   MET B   5      -1.389  16.439  15.455  1.00 67.05 LIG-0.17  SA
ATOM     23  CE  MET B   5       0.040  17.131  14.652  1.00 63.64 LIG 0.09  C 
ENDBRANCH 21 22
ENDBRANCH 20 21
ENDBRANCH 19 20
BRANCH 19 24
ATOM     24  C   MET B   5      -5.044  17.119  11.841  1.00 55.98 LIG 0.24  C 
ATOM     25 O    MET B   5      -5.973  16.339  12.053  1.00 56.32 LIG-0.27  OA
ATOM     26  N   LEU B   6      -5.222  18.356  11.364  1.00 51.23 LIG-0.35  N 
ATOM     27 H    LEU B   6      -4.581  18.916  11.239  1.00 51.23 LIG 0.16  HD
BRANCH 26 28
ATOM     28  CA  LEU B   6      -6.543  18.873  11.008  1.00 69.26 LIG 0.16  C 
BRANCH 28 29
ATOM     29  C   LEU B   6      -6.449  20.277  10.415  1.00 97.67 LIG 0.22  C 
ATOM     30 O    LEU B   6      -5.370  20.734  10.042  1.00 61.20 LIG-0.29  OA
ENDBRANCH 28 29
BRANCH 28 31
ATOM     31  CB  LEU B   6      -7.464  18.854  12.244  1.00 69.14 LIG 0.04  C 
BRANCH 31 32
ATOM     32  CG  LEU B   6      -6.979  19.670  13.441  1.00 73.60 LIG-0.02  C 
ATOM     33  CD2 LEU B   6      -6.584  18.774  14.590  1.00 75.76 LIG 0.01  C 
ATOM     34  CD1 LEU B   6      -8.001  20.706  13.850  1.00 73.41 LIG 0.01  C 
ENDBRANCH 31 32
ENDBRANCH 28 31
ENDBRANCH 26 28
ENDBRANCH 19 24
ENDBRANCH 16 19
ENDBRANCH 5 15
ENDBRANCH 3 5
BRANCH 1 35
ATOM     35  CA  LEU B   3       2.981  19.408  11.065  1.00 32.52 LIG 0.18  C 
BRANCH 35 36
ATOM     36  CB  LEU B   3       3.150  18.020  11.716  1.00 32.14 LIG 0.04  C 
BRANCH 36 37
ATOM     37  CG  LEU B   3       3.338  16.857  10.727  1.00 34.99 LIG-0.02  C 
ATOM     38  CD2 LEU B   3       3.778  17.371   9.332  1.00 35.91 LIG 0.01  C 
ATOM     39  CD1 LEU B   3       2.067  15.978  10.672  1.00 33.16 LIG 0.01  C 
ENDBRANCH 36 37
ENDBRANCH 35 36
BRANCH 35 40
ATOM     40  N   LEU B   3       3.903  20.372  11.657  1.00 32.48 LIG-0.35  N 
ATOM     41  C   ASN B   2       5.141  20.540  11.156  1.00 36.40 LIG 0.24  C 
ATOM     42 O    ASN B   2       5.573  19.880  10.202  1.00 34.95 LIG-0.27  OA
ATOM     43 H    LEU B   3       3.589  20.805  12.330  1.00 32.48 LIG 0.16  HD
BRANCH 41 44
ATOM     44  CA  ASN B   2       6.063  21.532  11.871  1.00 32.65 LIG 0.18  C 
BRANCH 44 45
ATOM     45  N   ASN B   2       5.440  21.819  13.158  1.00 32.45 LIG-0.34  N 
ATOM     46 H    ASN B   2       5.062  22.591  13.174  1.00 32.45 LIG 0.16  HD
ATOM     47  C   THR B   1       5.433  21.007  14.220  1.00 35.22 LIG 0.25  C 
ATOM     48 O    THR B   1       5.850  19.832  14.205  1.00 34.61 LIG-0.27  OA
BRANCH 47 49
ATOM     49  CA  THR B   1       4.846  21.634  15.460  1.00 32.53 LIG 0.30  C 
BRANCH 49 50
ATOM     50  CB  THR B   1       4.831  20.622  16.617  1.00 31.51 LIG 0.15  C 
ATOM     51  CG2 THR B   1       4.768  21.294  18.024  1.00 30.77 LIG 0.04  C 
BRANCH 50 52
ATOM     52 OG1  THR B   1       3.726  19.735  16.438  1.00 21.64 LIG-0.39  OA
ATOM     53 HG1  THR B   1       3.899  18.997  16.800  1.00 21.64 LIG 0.21  HD
ENDBRANCH 50 52
ENDBRANCH 49 50
BRANCH 49 54
ATOM     54  N   THR B   1       3.521  22.192  15.206  1.00 34.33 LIG-0.06  N 
ATOM     55 H2   THR B   1       2.933  21.530  15.114  1.00 34.33 LIG 0.28  HD
ATOM     56 H1   THR B   1       3.542  22.677  14.459  1.00 34.33 LIG 0.28  HD
ATOM     57 H3   THR B   1       3.280  22.710  15.888  1.00 34.33 LIG 0.28  HD
ENDBRANCH 49 54
ENDBRANCH 47 49
ENDBRANCH 44 45
BRANCH 44 58
ATOM     58  CB  ASN B   2       7.490  20.981  12.050  1.00 33.77 LIG 0.14  C 
BRANCH 58 59
ATOM     59  CG  ASN B   2       8.359  21.827  12.959  1.00 47.71 LIG 0.22  C 
ATOM     60 OD1  ASN B   2       8.305  23.062  12.954  1.00 37.59 LIG-0.27  OA
ATOM     61  ND2 ASN B   2       9.208  21.181  13.744  1.00 40.38 LIG-0.37  N 
ATOM     62 22HD ASN B   2       9.232  20.322  13.736  1.00 40.38 LIG 0.16  HD
ATOM     63 21HD ASN B   2       9.734  21.622  14.262  1.00 40.38 LIG 0.16  HD
ENDBRANCH 58 59
ENDBRANCH 44 58
ENDBRANCH 41 44
ENDBRANCH 35 40
ENDBRANCH 1 35
TORSDOF 26
ENDMDL
