MODEL 1
USER: ADFR SOLUTION from run 120
USER: SCORE 12.644053 LL:  -2.611 LR: -12.061 RR:   0.000 FEB:  -8.780
USER: RMSD 3.015993
USER: SEED 119
USER: STATUS no improvement in best in 3 clusters for 5 generations
USER: GENES 13
USER: genes 0 Translation |==|  0.49396 0.54379 0.50687
USER: genes 1 Rotation |==|  0.30110 0.72770 0.33419 0.86207
USER: genes 2 Torsion [N]-C--CA-[N] |==|  0.41837
USER: genes 3 Torsion [C]-CA--CB-[CG1] |==|  0.14348
USER: genes 4 Torsion [CA]-CB--CG1-[CD1] |==|  0.19062
USER: genes 5 Torsion [C]-CA--N-[C] |==|  0.53352
USER: genes 6 Torsion [N]-C--CA-[N] |==|  0.43047
USER: genes 7 Torsion [C]-CA--N-[H1] |==|  0.54287
USER: genes 8 Torsion [C]-N--CA-[CB] |==|  0.28615
USER: genes 9 Torsion [N]-CA--C-[N] |==|  0.77242
USER: genes 10 Torsion [C]-N--CA-[CB] |==|  0.22769
USER: genes 11 Torsion [N]-CA--CB-[CG2] |==|  0.07927
USER: genes 12 Torsion [N]-CA--C-[O] |==|  0.23071
ROOT
ATOM      1  C   ILE B   2      28.092  35.409  12.447  1.00 15.80 LIG 0.24  C 
ATOM      2 O    ILE B   2      28.867  36.362  12.470  1.00 15.82 LIG-0.27  OA
ATOM      3  N   ALA B   3      28.009  34.516  13.427  1.00 15.83 LIG-0.35  N 
ATOM      4 H    ALA B   3      27.443  33.869  13.441  1.00 15.83 LIG 0.16  HD
ENDROOT
BRANCH 1 5
ATOM      5  CA  ILE B   2      27.184  35.138  11.262  1.00 17.33 LIG 0.18  C 
BRANCH 5 6
ATOM      6  CB  ILE B   2      27.811  34.115  10.299  1.00 21.75 LIG 0.01  C 
ATOM      7  CG2 ILE B   2      28.972  34.738   9.537  1.00 23.79 LIG 0.01  C 
BRANCH 6 8
ATOM      8  CG1 ILE B   2      28.247  32.880  11.034  1.00 23.11 LIG 0.00  C 
ATOM      9  CD1 ILE B   2      27.073  32.063  11.563  1.00 27.15 LIG 0.01  C 
ENDBRANCH 6 8
ENDBRANCH 5 6
BRANCH 5 10
ATOM     10  N   ILE B   2      26.808  36.391  10.619  1.00 15.33 LIG-0.35  N 
ATOM     11  C   ALA B   1      25.836  36.421   9.715  1.00 14.45 LIG 0.25  C 
ATOM     12 O    ALA B   1      25.239  35.436   9.302  1.00 16.00 LIG-0.27  OA
ATOM     13 H    ILE B   2      27.259  37.078  10.872  1.00 15.33 LIG 0.16  HD
BRANCH 11 14
ATOM     14  CA  ALA B   1      25.432  37.800   9.189  1.00 14.39 LIG 0.27  C 
ATOM     15  CB  ALA B   1      24.437  38.465  10.140  1.00 14.30 LIG 0.05  C 
BRANCH 14 16
ATOM     16  N   ALA B   1      24.841  37.624   7.850  1.00 15.51 LIG-0.07  N 
ATOM     17 H3   ALA B   1      24.019  37.293   7.929  1.00 15.51 LIG 0.28  HD
ATOM     18 H2   ALA B   1      25.342  37.062   7.376  1.00 15.51 LIG 0.28  HD
ATOM     19 H1   ALA B   1      24.805  38.411   7.435  1.00 15.51 LIG 0.28  HD
ENDBRANCH 14 16
ENDBRANCH 11 14
ENDBRANCH 5 10
ENDBRANCH 1 5
BRANCH 3 20
ATOM     20  CA  ALA B   3      28.902  34.569  14.593  1.00 17.37 LIG 0.17  C 
ATOM     21  CB  ALA B   3      28.188  35.138  15.812  1.00 18.86 LIG 0.04  C 
BRANCH 20 22
ATOM     22  C   ALA B   3      29.410  33.213  14.910  1.00 19.46 LIG 0.24  C 
ATOM     23  N   VAL B   4      28.613  32.433  15.617  1.00 19.29 LIG-0.34  N 
ATOM     24 H    VAL B   4      27.836  32.678  15.891  1.00 19.29 LIG 0.16  HD
ATOM     25 O    ALA B   3      30.519  32.855  14.516  1.00 22.03 LIG-0.27  OA
BRANCH 23 26
ATOM     26  CA  VAL B   4      28.972  31.068  16.008  1.00 21.21 LIG 0.19  C 
BRANCH 26 27
ATOM     27  CB  VAL B   4      29.864  31.072  17.262  1.00 21.09 LIG 0.01  C 
ATOM     28  CG2 VAL B   4      29.555  32.301  18.116  1.00 23.07 LIG 0.01  C 
ATOM     29  CG1 VAL B   4      31.349  31.014  16.916  1.00 23.35 LIG 0.01  C 
ENDBRANCH 26 27
BRANCH 26 30
ATOM     30  C   VAL B   4      27.681  30.305  16.254  1.00 22.92 LIG 0.20  C 
ATOM     31 O    VAL B   4      27.062  29.801  15.313  1.00 22.82 LIG-0.65  OA
ATOM     32 OXT  VAL B   4      27.257  30.130  17.418  1.00 22.76 LIG-0.65  OA
ENDBRANCH 26 30
ENDBRANCH 23 26
ENDBRANCH 20 22
ENDBRANCH 3 20
TORSDOF 11
ENDMDL
MODEL 2
USER: ADFR SOLUTION from run 190
USER: SCORE 12.844602 LL:  -2.291 LR: -11.906 RR:   0.000 FEB:  -8.624
USER: RMSD 5.410985
USER: SEED 189
USER: STATUS no improvement in best in 8 clusters for 5 generations
USER: GENES 13
USER: genes 0 Translation |==|  0.46960 0.73748 0.26536
USER: genes 1 Rotation |==|  0.21599 0.81799 0.26674 0.61751
USER: genes 2 Torsion [N]-C--CA-[N] |==|  0.50629
USER: genes 3 Torsion [C]-CA--CB-[CG1] |==|  0.27209
USER: genes 4 Torsion [CA]-CB--CG1-[CD1] |==|  0.39610
USER: genes 5 Torsion [C]-CA--N-[C] |==|  0.15593
USER: genes 6 Torsion [N]-C--CA-[N] |==|  0.80531
USER: genes 7 Torsion [C]-CA--N-[H1] |==|  0.43595
USER: genes 8 Torsion [C]-N--CA-[CB] |==|  0.19712
USER: genes 9 Torsion [N]-CA--C-[N] |==|  0.11945
USER: genes 10 Torsion [C]-N--CA-[CB] |==|  0.47722
USER: genes 11 Torsion [N]-CA--CB-[CG2] |==|  0.44892
USER: genes 12 Torsion [N]-CA--C-[O] |==|  0.89923
ROOT
ATOM      1  C   ILE B   2      27.708  38.604   7.738  1.00 15.80 LIG 0.24  C 
ATOM      2 O    ILE B   2      28.394  38.741   6.727  1.00 15.82 LIG-0.27  OA
ATOM      3  N   ALA B   3      28.225  38.412   8.946  1.00 15.83 LIG-0.35  N 
ATOM      4 H    ALA B   3      27.757  38.356   9.665  1.00 15.83 LIG 0.16  HD
ENDROOT
BRANCH 1 5
ATOM      5  CA  ILE B   2      26.192  38.597   7.686  1.00 17.33 LIG 0.18  C 
BRANCH 5 6
ATOM      6  CB  ILE B   2      25.615  37.353   8.382  1.00 21.75 LIG 0.01  C 
ATOM      7  CG2 ILE B   2      26.620  36.211   8.358  1.00 23.79 LIG 0.01  C 
BRANCH 6 8
ATOM      8  CG1 ILE B   2      25.189  37.670   9.787  1.00 23.11 LIG 0.00  C 
ATOM      9  CD1 ILE B   2      23.915  36.939  10.196  1.00 27.15 LIG 0.01  C 
ENDBRANCH 6 8
ENDBRANCH 5 6
BRANCH 5 10
ATOM     10  N   ILE B   2      25.734  38.763   6.312  1.00 15.33 LIG-0.35  N 
ATOM     11  C   ALA B   1      26.136  37.926   5.361  1.00 14.45 LIG 0.25  C 
ATOM     12 O    ALA B   1      26.945  37.023   5.525  1.00 16.00 LIG-0.27  OA
ATOM     13 H    ILE B   2      25.202  39.426   6.184  1.00 15.33 LIG 0.16  HD
BRANCH 11 14
ATOM     14  CA  ALA B   1      25.504  38.106   3.980  1.00 14.39 LIG 0.27  C 
ATOM     15  CB  ALA B   1      25.613  39.561   3.527  1.00 14.30 LIG 0.05  C 
BRANCH 14 16
ATOM     16  N   ALA B   1      24.093  37.686   4.064  1.00 15.51 LIG-0.07  N 
ATOM     17 H3   ALA B   1      23.758  37.927   4.853  1.00 15.51 LIG 0.28  HD
ATOM     18 H2   ALA B   1      24.040  36.802   3.978  1.00 15.51 LIG 0.28  HD
ATOM     19 H1   ALA B   1      23.628  38.075   3.412  1.00 15.51 LIG 0.28  HD
ENDBRANCH 14 16
ENDBRANCH 11 14
ENDBRANCH 5 10
ENDBRANCH 1 5
BRANCH 3 20
ATOM     20  CA  ALA B   3      29.674  38.278   9.150  1.00 17.37 LIG 0.17  C 
ATOM     21  CB  ALA B   3      30.388  39.607   8.940  1.00 18.86 LIG 0.04  C 
BRANCH 20 22
ATOM     22  C   ALA B   3      29.954  37.781  10.518  1.00 19.46 LIG 0.24  C 
ATOM     23  N   VAL B   4      29.186  36.803  10.962  1.00 19.29 LIG-0.34  N 
ATOM     24 H    VAL B   4      28.550  36.456  10.498  1.00 19.29 LIG 0.16  HD
ATOM     25 O    ALA B   3      30.866  38.269  11.184  1.00 22.03 LIG-0.27  OA
BRANCH 23 26
ATOM     26  CA  VAL B   4      29.339  36.207  12.291  1.00 21.21 LIG 0.19  C 
BRANCH 26 27
ATOM     27  CB  VAL B   4      28.181  35.240  12.596  1.00 21.09 LIG 0.01  C 
ATOM     28  CG2 VAL B   4      28.571  34.304  13.739  1.00 23.07 LIG 0.01  C 
ATOM     29  CG1 VAL B   4      27.754  34.442  11.367  1.00 23.35 LIG 0.01  C 
ENDBRANCH 26 27
BRANCH 26 30
ATOM     30  C   VAL B   4      30.678  35.488  12.321  1.00 22.92 LIG 0.20  C 
ATOM     31 O    VAL B   4      31.098  34.903  11.319  1.00 22.82 LIG-0.65  OA
ATOM     32 OXT  VAL B   4      31.398  35.526  13.343  1.00 22.76 LIG-0.65  OA
ENDBRANCH 26 30
ENDBRANCH 23 26
ENDBRANCH 20 22
ENDBRANCH 3 20
TORSDOF 11
ENDMDL
MODEL 3
USER: ADFR SOLUTION from run 90
USER: SCORE 12.705692 LL:  -2.578 LR: -11.895 RR:   0.000 FEB:  -8.613
USER: RMSD 4.697480
USER: SEED 89
USER: STATUS no improvement in best in 10 clusters for 5 generations
USER: GENES 13
USER: genes 0 Translation |==|  0.41891 0.63790 0.30355
USER: genes 1 Rotation |==|  0.67669 0.21749 0.85985 0.59735
USER: genes 2 Torsion [N]-C--CA-[N] |==|  0.44040
USER: genes 3 Torsion [C]-CA--CB-[CG1] |==|  0.23574
USER: genes 4 Torsion [CA]-CB--CG1-[CD1] |==|  0.64457
USER: genes 5 Torsion [C]-CA--N-[C] |==|  0.76667
USER: genes 6 Torsion [N]-C--CA-[N] |==|  0.09723
USER: genes 7 Torsion [C]-CA--N-[H1] |==|  0.98692
USER: genes 8 Torsion [C]-N--CA-[CB] |==|  0.38385
USER: genes 9 Torsion [N]-CA--C-[N] |==|  0.52563
USER: genes 10 Torsion [C]-N--CA-[CB] |==|  0.31174
USER: genes 11 Torsion [N]-CA--CB-[CG2] |==|  0.78736
USER: genes 12 Torsion [N]-CA--C-[O] |==|  0.87451
ROOT
ATOM      1  C   ILE B   2      26.910  36.961   8.482  1.00 15.80 LIG 0.24  C 
ATOM      2 O    ILE B   2      27.202  35.943   7.860  1.00 15.82 LIG-0.27  OA
ATOM      3  N   ALA B   3      27.540  37.344   9.587  1.00 15.83 LIG-0.35  N 
ATOM      4 H    ALA B   3      27.372  38.074  10.008  1.00 15.83 LIG 0.16  HD
ENDROOT
BRANCH 1 5
ATOM      5  CA  ILE B   2      25.759  37.858   8.065  1.00 17.33 LIG 0.18  C 
BRANCH 5 6
ATOM      6  CB  ILE B   2      24.534  37.653   8.972  1.00 21.75 LIG 0.01  C 
ATOM      7  CG2 ILE B   2      24.364  36.182   9.320  1.00 23.79 LIG 0.01  C 
BRANCH 6 8
ATOM      8  CG1 ILE B   2      24.635  38.495  10.213  1.00 23.11 LIG 0.00  C 
ATOM      9  CD1 ILE B   2      24.437  37.687  11.491  1.00 27.15 LIG 0.01  C 
ENDBRANCH 6 8
ENDBRANCH 5 6
BRANCH 5 10
ATOM     10  N   ILE B   2      25.471  37.680   6.647  1.00 15.33 LIG-0.35  N 
ATOM     11  C   ALA B   1      26.164  38.346   5.729  1.00 14.45 LIG 0.25  C 
ATOM     12 O    ALA B   1      27.019  39.185   5.975  1.00 16.00 LIG-0.27  OA
ATOM     13 H    ILE B   2      24.837  37.127   6.472  1.00 15.33 LIG 0.16  HD
BRANCH 11 14
ATOM     14  CA  ALA B   1      25.873  37.999   4.267  1.00 14.39 LIG 0.27  C 
ATOM     15  CB  ALA B   1      26.255  39.164   3.355  1.00 14.30 LIG 0.05  C 
BRANCH 14 16
ATOM     16  N   ALA B   1      24.437  37.688   4.149  1.00 15.51 LIG-0.07  N 
ATOM     17 H3   ALA B   1      24.336  36.880   3.788  1.00 15.51 LIG 0.28  HD
ATOM     18 H2   ALA B   1      24.043  38.294   3.630  1.00 15.51 LIG 0.28  HD
ATOM     19 H1   ALA B   1      24.062  37.700   4.956  1.00 15.51 LIG 0.28  HD
ENDBRANCH 14 16
ENDBRANCH 11 14
ENDBRANCH 5 10
ENDBRANCH 1 5
BRANCH 3 20
ATOM     20  CA  ALA B   3      28.602  36.524  10.188  1.00 17.37 LIG 0.17  C 
ATOM     21  CB  ALA B   3      29.768  37.386  10.657  1.00 18.86 LIG 0.04  C 
BRANCH 20 22
ATOM     22  C   ALA B   3      28.066  35.757  11.338  1.00 19.46 LIG 0.24  C 
ATOM     23  N   VAL B   4      28.946  35.123  12.090  1.00 19.29 LIG-0.34  N 
ATOM     24 H    VAL B   4      29.793  35.139  11.939  1.00 19.29 LIG 0.16  HD
ATOM     25 O    ALA B   3      26.856  35.735  11.562  1.00 22.03 LIG-0.27  OA
BRANCH 23 26
ATOM     26  CA  VAL B   4      28.571  34.326  13.260  1.00 21.21 LIG 0.19  C 
BRANCH 26 27
ATOM     27  CB  VAL B   4      28.837  32.830  13.013  1.00 21.09 LIG 0.01  C 
ATOM     28  CG2 VAL B   4      27.748  32.250  12.111  1.00 23.07 LIG 0.01  C 
ATOM     29  CG1 VAL B   4      28.938  32.038  14.314  1.00 23.35 LIG 0.01  C 
ENDBRANCH 26 27
BRANCH 26 30
ATOM     30  C   VAL B   4      29.374  34.839  14.443  1.00 22.92 LIG 0.20  C 
ATOM     31 O    VAL B   4      30.581  35.067  14.330  1.00 22.82 LIG-0.65  OA
ATOM     32 OXT  VAL B   4      28.813  35.090  15.533  1.00 22.76 LIG-0.65  OA
ENDBRANCH 26 30
ENDBRANCH 23 26
ENDBRANCH 20 22
ENDBRANCH 3 20
TORSDOF 11
ENDMDL
MODEL 4
USER: ADFR SOLUTION from run 187
USER: SCORE 13.808008 LL:  -2.774 LR: -11.747 RR:   0.000 FEB:  -8.466
USER: RMSD 1.395845
USER: SEED 186
USER: STATUS no improvement in best in 3 clusters for 5 generations
USER: GENES 13
USER: genes 0 Translation |==|  0.47086 0.49715 0.44896
USER: genes 1 Rotation |==|  0.55715 0.53207 0.44524 0.99265
USER: genes 2 Torsion [N]-C--CA-[N] |==|  0.35617
USER: genes 3 Torsion [C]-CA--CB-[CG1] |==|  0.87243
USER: genes 4 Torsion [CA]-CB--CG1-[CD1] |==|  0.30748
USER: genes 5 Torsion [C]-CA--N-[C] |==|  0.67511
USER: genes 6 Torsion [N]-C--CA-[N] |==|  0.52675
USER: genes 7 Torsion [C]-CA--N-[H1] |==|  0.62401
USER: genes 8 Torsion [C]-N--CA-[CB] |==|  0.48485
USER: genes 9 Torsion [N]-CA--C-[N] |==|  0.43438
USER: genes 10 Torsion [C]-N--CA-[CB] |==|  0.15821
USER: genes 11 Torsion [N]-CA--CB-[CG2] |==|  0.53012
USER: genes 12 Torsion [N]-CA--C-[O] |==|  0.06319
ROOT
ATOM      1  C   ILE B   2      27.728  34.639  11.318  1.00 15.80 LIG 0.24  C 
ATOM      2 O    ILE B   2      27.434  34.998  12.455  1.00 15.82 LIG-0.27  OA
ATOM      3  N   ALA B   3      27.749  33.366  10.940  1.00 15.83 LIG-0.35  N 
ATOM      4 H    ALA B   3      27.914  33.106  10.137  1.00 15.83 LIG 0.16  HD
ENDROOT
BRANCH 1 5
ATOM      5  CA  ILE B   2      28.143  35.628  10.244  1.00 17.33 LIG 0.18  C 
BRANCH 5 6
ATOM      6  CB  ILE B   2      29.561  36.167  10.499  1.00 21.75 LIG 0.01  C 
ATOM      7  CG2 ILE B   2      29.866  37.332   9.569  1.00 23.79 LIG 0.01  C 
BRANCH 6 8
ATOM      8  CG1 ILE B   2      29.738  36.561  11.938  1.00 23.11 LIG 0.00  C 
ATOM      9  CD1 ILE B   2      30.687  35.635  12.691  1.00 27.15 LIG 0.01  C 
ENDBRANCH 6 8
ENDBRANCH 5 6
BRANCH 5 10
ATOM     10  N   ILE B   2      27.136  36.674  10.107  1.00 15.33 LIG-0.35  N 
ATOM     11  C   ALA B   1      26.469  36.822   8.968  1.00 14.45 LIG 0.25  C 
ATOM     12 O    ALA B   1      26.674  36.174   7.951  1.00 16.00 LIG-0.27  OA
ATOM     13 H    ILE B   2      27.024  37.162  10.805  1.00 15.33 LIG 0.16  HD
BRANCH 11 14
ATOM     14  CA  ALA B   1      25.348  37.864   8.963  1.00 14.39 LIG 0.27  C 
ATOM     15  CB  ALA B   1      24.437  37.676  10.176  1.00 14.30 LIG 0.05  C 
BRANCH 14 16
ATOM     16  N   ALA B   1      24.590  37.713   7.708  1.00 15.51 LIG-0.07  N 
ATOM     17 H3   ALA B   1      23.814  37.311   7.876  1.00 15.51 LIG 0.28  HD
ATOM     18 H2   ALA B   1      25.060  37.222   7.134  1.00 15.51 LIG 0.28  HD
ATOM     19 H1   ALA B   1      24.437  38.516   7.355  1.00 15.51 LIG 0.28  HD
ENDBRANCH 14 16
ENDBRANCH 11 14
ENDBRANCH 5 10
ENDBRANCH 1 5
BRANCH 3 20
ATOM     20  CA  ALA B   3      27.486  32.277  11.892  1.00 17.37 LIG 0.17  C 
ATOM     21  CB  ALA B   3      27.437  30.927  11.188  1.00 18.86 LIG 0.04  C 
BRANCH 20 22
ATOM     22  C   ALA B   3      28.537  32.248  12.938  1.00 19.46 LIG 0.24  C 
ATOM     23  N   VAL B   4      28.212  31.686  14.088  1.00 19.29 LIG-0.34  N 
ATOM     24 H    VAL B   4      27.437  31.348  14.245  1.00 19.29 LIG 0.16  HD
ATOM     25 O    ALA B   3      29.649  32.725  12.716  1.00 22.03 LIG-0.27  OA
BRANCH 23 26
ATOM     26  CA  VAL B   4      29.141  31.580  15.215  1.00 21.21 LIG 0.19  C 
BRANCH 26 27
ATOM     27  CB  VAL B   4      29.662  32.968  15.629  1.00 21.09 LIG 0.01  C 
ATOM     28  CG2 VAL B   4      30.820  32.817  16.615  1.00 23.07 LIG 0.01  C 
ATOM     29  CG1 VAL B   4      28.562  33.846  16.219  1.00 23.35 LIG 0.01  C 
ENDBRANCH 26 27
BRANCH 26 30
ATOM     30  C   VAL B   4      28.401  30.906  16.359  1.00 22.92 LIG 0.20  C 
ATOM     31 O    VAL B   4      27.417  30.197  16.137  1.00 22.82 LIG-0.65  OA
ATOM     32 OXT  VAL B   4      28.813  31.016  17.535  1.00 22.76 LIG-0.65  OA
ENDBRANCH 26 30
ENDBRANCH 23 26
ENDBRANCH 20 22
ENDBRANCH 3 20
TORSDOF 11
ENDMDL
MODEL 5
USER: ADFR SOLUTION from run 46
USER: SCORE 13.391958 LL:  -2.655 LR: -11.417 RR:   0.000 FEB:  -8.136
USER: RMSD 1.696473
USER: SEED 45
USER: STATUS no improvement in best in 16 clusters for 5 generations
USER: GENES 13
USER: genes 0 Translation |==|  0.53936 0.56885 0.39745
USER: genes 1 Rotation |==|  0.57837 0.81836 0.13551 0.59824
USER: genes 2 Torsion [N]-C--CA-[N] |==|  0.95556
USER: genes 3 Torsion [C]-CA--CB-[CG1] |==|  0.88135
USER: genes 4 Torsion [CA]-CB--CG1-[CD1] |==|  0.35727
USER: genes 5 Torsion [C]-CA--N-[C] |==|  0.79093
USER: genes 6 Torsion [N]-C--CA-[N] |==|  0.38908
USER: genes 7 Torsion [C]-CA--N-[H1] |==|  0.46281
USER: genes 8 Torsion [C]-N--CA-[CB] |==|  0.87194
USER: genes 9 Torsion [N]-CA--C-[N] |==|  0.48134
USER: genes 10 Torsion [C]-N--CA-[CB] |==|  0.26602
USER: genes 11 Torsion [N]-CA--CB-[CG2] |==|  0.37235
USER: genes 12 Torsion [N]-CA--C-[O] |==|  0.91041
ROOT
ATOM      1  C   ILE B   2      28.807  35.822  10.313  1.00 15.80 LIG 0.24  C 
ATOM      2 O    ILE B   2      29.540  34.837  10.259  1.00 15.82 LIG-0.27  OA
ATOM      3  N   ALA B   3      27.890  35.994  11.258  1.00 15.83 LIG-0.35  N 
ATOM      4 H    ALA B   3      27.400  36.697  11.330  1.00 15.83 LIG 0.16  HD
ENDROOT
BRANCH 1 5
ATOM      5  CA  ILE B   2      28.854  36.918   9.266  1.00 17.33 LIG 0.18  C 
BRANCH 5 6
ATOM      6  CB  ILE B   2      30.145  37.748   9.383  1.00 21.75 LIG 0.01  C 
ATOM      7  CG2 ILE B   2      30.036  39.026   8.565  1.00 23.79 LIG 0.01  C 
BRANCH 6 8
ATOM      8  CG1 ILE B   2      30.463  38.050  10.819  1.00 23.11 LIG 0.00  C 
ATOM      9  CD1 ILE B   2      31.894  37.682  11.196  1.00 27.15 LIG 0.01  C 
ENDBRANCH 6 8
ENDBRANCH 5 6
BRANCH 5 10
ATOM     10  N   ILE B   2      27.638  37.720   9.321  1.00 15.33 LIG-0.35  N 
ATOM     11  C   ALA B   1      26.496  37.248   8.833  1.00 14.45 LIG 0.25  C 
ATOM     12 O    ALA B   1      26.376  36.176   8.255  1.00 16.00 LIG-0.27  OA
ATOM     13 H    ILE B   2      27.730  38.494   9.684  1.00 15.33 LIG 0.16  HD
BRANCH 11 14
ATOM     14  CA  ALA B   1      25.251  38.111   9.049  1.00 14.39 LIG 0.27  C 
ATOM     15  CB  ALA B   1      24.450  37.604  10.248  1.00 14.30 LIG 0.05  C 
BRANCH 14 16
ATOM     16  N   ALA B   1      24.441  38.061   7.818  1.00 15.51 LIG-0.07  N 
ATOM     17 H3   ALA B   1      24.369  37.217   7.543  1.00 15.51 LIG 0.28  HD
ATOM     18 H2   ALA B   1      24.834  38.546   7.184  1.00 15.51 LIG 0.28  HD
ATOM     19 H1   ALA B   1      23.630  38.390   7.982  1.00 15.51 LIG 0.28  HD
ENDBRANCH 14 16
ENDBRANCH 11 14
ENDBRANCH 5 10
ENDBRANCH 1 5
BRANCH 3 20
ATOM     20  CA  ALA B   3      27.638  34.968  12.281  1.00 17.37 LIG 0.17  C 
ATOM     21  CB  ALA B   3      27.533  33.582  11.659  1.00 18.86 LIG 0.04  C 
BRANCH 20 22
ATOM     22  C   ALA B   3      28.725  34.974  13.288  1.00 19.46 LIG 0.24  C 
ATOM     23  N   VAL B   4      28.560  34.196  14.342  1.00 19.29 LIG-0.34  N 
ATOM     24 H    VAL B   4      27.865  33.703  14.459  1.00 19.29 LIG 0.16  HD
ATOM     25 O    ALA B   3      29.724  35.673  13.123  1.00 22.03 LIG-0.27  OA
BRANCH 23 26
ATOM     26  CA  VAL B   4      29.545  34.092  15.421  1.00 21.21 LIG 0.19  C 
BRANCH 26 27
ATOM     27  CB  VAL B   4      29.185  35.032  16.585  1.00 21.09 LIG 0.01  C 
ATOM     28  CG2 VAL B   4      29.316  34.288  17.914  1.00 23.07 LIG 0.01  C 
ATOM     29  CG1 VAL B   4      27.790  35.630  16.436  1.00 23.35 LIG 0.01  C 
ENDBRANCH 26 27
BRANCH 26 30
ATOM     30  C   VAL B   4      29.580  32.642  15.874  1.00 22.92 LIG 0.20  C 
ATOM     31 O    VAL B   4      28.561  31.948  15.833  1.00 22.82 LIG-0.65  OA
ATOM     32 OXT  VAL B   4      30.653  32.116  16.244  1.00 22.76 LIG-0.65  OA
ENDBRANCH 26 30
ENDBRANCH 23 26
ENDBRANCH 20 22
ENDBRANCH 3 20
TORSDOF 11
ENDMDL
MODEL 6
USER: ADFR SOLUTION from run 84
USER: SCORE 12.524997 LL:  -2.373 LR: -11.333 RR:   0.000 FEB:  -8.052
USER: RMSD 3.580834
USER: SEED 83
USER: STATUS no improvement in best in 18 clusters for 5 generations
USER: GENES 13
USER: genes 0 Translation |==|  0.50100 0.52581 0.51180
USER: genes 1 Rotation |==|  0.31070 0.76966 0.43849 0.87104
USER: genes 2 Torsion [N]-C--CA-[N] |==|  0.49940
USER: genes 3 Torsion [C]-CA--CB-[CG1] |==|  0.22552
USER: genes 4 Torsion [CA]-CB--CG1-[CD1] |==|  0.64716
USER: genes 5 Torsion [C]-CA--N-[C] |==|  0.50251
USER: genes 6 Torsion [N]-C--CA-[N] |==|  0.42687
USER: genes 7 Torsion [C]-CA--N-[H1] |==|  0.51316
USER: genes 8 Torsion [C]-N--CA-[CB] |==|  0.85556
USER: genes 9 Torsion [N]-CA--C-[N] |==|  0.49889
USER: genes 10 Torsion [C]-N--CA-[CB] |==|  0.27880
USER: genes 11 Torsion [N]-CA--CB-[CG2] |==|  0.32708
USER: genes 12 Torsion [N]-CA--C-[O] |==|  0.92761
ROOT
ATOM      1  C   ILE B   2      28.203  35.112  12.543  1.00 15.80 LIG 0.24  C 
ATOM      2 O    ILE B   2      28.760  36.197  12.690  1.00 15.82 LIG-0.27  OA
ATOM      3  N   ALA B   3      28.570  34.012  13.191  1.00 15.83 LIG-0.35  N 
ATOM      4 H    ALA B   3      28.163  33.258  13.127  1.00 15.83 LIG 0.16  HD
ENDROOT
BRANCH 1 5
ATOM      5  CA  ILE B   2      27.062  34.920  11.562  1.00 17.33 LIG 0.18  C 
BRANCH 5 6
ATOM      6  CB  ILE B   2      27.361  33.779  10.574  1.00 21.75 LIG 0.01  C 
ATOM      7  CG2 ILE B   2      28.802  33.853  10.090  1.00 23.79 LIG 0.01  C 
BRANCH 6 8
ATOM      8  CG1 ILE B   2      27.063  32.441  11.188  1.00 23.11 LIG 0.00  C 
ATOM      9  CD1 ILE B   2      28.240  31.476  11.099  1.00 27.15 LIG 0.01  C 
ENDBRANCH 6 8
ENDBRANCH 5 6
BRANCH 5 10
ATOM     10  N   ILE B   2      26.737  36.184  10.913  1.00 15.33 LIG-0.35  N 
ATOM     11  C   ALA B   1      25.752  36.254  10.024  1.00 14.45 LIG 0.25  C 
ATOM     12 O    ALA B   1      25.101  35.296   9.631  1.00 16.00 LIG-0.27  OA
ATOM     13 H    ILE B   2      27.226  36.850  11.152  1.00 15.33 LIG 0.16  HD
BRANCH 11 14
ATOM     14  CA  ALA B   1      25.407  37.646   9.493  1.00 14.39 LIG 0.27  C 
ATOM     15  CB  ALA B   1      24.437  38.354  10.437  1.00 14.30 LIG 0.05  C 
BRANCH 14 16
ATOM     16  N   ALA B   1      24.815  37.489   8.152  1.00 15.51 LIG-0.07  N 
ATOM     17 H3   ALA B   1      24.043  37.050   8.217  1.00 15.51 LIG 0.28  HD
ATOM     18 H2   ALA B   1      25.373  37.031   7.632  1.00 15.51 LIG 0.28  HD
ATOM     19 H1   ALA B   1      24.670  38.292   7.795  1.00 15.51 LIG 0.28  HD
ENDBRANCH 14 16
ENDBRANCH 11 14
ENDBRANCH 5 10
ENDBRANCH 1 5
BRANCH 3 20
ATOM     20  CA  ALA B   3      29.733  34.003  14.091  1.00 17.37 LIG 0.17  C 
ATOM     21  CB  ALA B   3      30.971  34.561  13.401  1.00 18.86 LIG 0.04  C 
BRANCH 20 22
ATOM     22  C   ALA B   3      29.445  34.803  15.305  1.00 19.46 LIG 0.24  C 
ATOM     23  N   VAL B   4      30.404  34.875  16.209  1.00 19.29 LIG-0.34  N 
ATOM     24 H    VAL B   4      31.166  34.485  16.120  1.00 19.29 LIG 0.16  HD
ATOM     25 O    ALA B   3      28.359  35.368  15.436  1.00 22.03 LIG-0.27  OA
BRANCH 23 26
ATOM     26  CA  VAL B   4      30.271  35.627  17.459  1.00 21.21 LIG 0.19  C 
BRANCH 26 27
ATOM     27  CB  VAL B   4      29.945  34.687  18.633  1.00 21.09 LIG 0.01  C 
ATOM     28  CG2 VAL B   4      31.066  34.742  19.671  1.00 23.07 LIG 0.01  C 
ATOM     29  CG1 VAL B   4      29.702  33.252  18.176  1.00 23.35 LIG 0.01  C 
ENDBRANCH 26 27
BRANCH 26 30
ATOM     30  C   VAL B   4      31.578  36.367  17.692  1.00 22.92 LIG 0.20  C 
ATOM     31 O    VAL B   4      32.633  35.939  17.219  1.00 22.82 LIG-0.65  OA
ATOM     32 OXT  VAL B   4      31.593  37.449  18.321  1.00 22.76 LIG-0.65  OA
ENDBRANCH 26 30
ENDBRANCH 23 26
ENDBRANCH 20 22
ENDBRANCH 3 20
TORSDOF 11
ENDMDL
MODEL 7
USER: ADFR SOLUTION from run 46
USER: SCORE 13.197161 LL:  -2.435 LR: -11.245 RR:   0.000 FEB:  -7.964
USER: RMSD 3.033893
USER: SEED 45
USER: STATUS no improvement in best in 16 clusters for 5 generations
USER: GENES 13
USER: genes 0 Translation |==|  0.51260 0.56346 0.44091
USER: genes 1 Rotation |==|  0.46828 0.44833 0.65620 0.97109
USER: genes 2 Torsion [N]-C--CA-[N] |==|  0.48278
USER: genes 3 Torsion [C]-CA--CB-[CG1] |==|  0.90974
USER: genes 4 Torsion [CA]-CB--CG1-[CD1] |==|  0.33649
USER: genes 5 Torsion [C]-CA--N-[C] |==|  0.81496
USER: genes 6 Torsion [N]-C--CA-[N] |==|  0.28746
USER: genes 7 Torsion [C]-CA--N-[H1] |==|  0.36129
USER: genes 8 Torsion [C]-N--CA-[CB] |==|  0.86111
USER: genes 9 Torsion [N]-CA--C-[N] |==|  0.43312
USER: genes 10 Torsion [C]-N--CA-[CB] |==|  0.26259
USER: genes 11 Torsion [N]-CA--CB-[CG2] |==|  0.13622
USER: genes 12 Torsion [N]-CA--C-[O] |==|  0.94605
ROOT
ATOM      1  C   ILE B   2      28.385  35.733  11.161  1.00 15.80 LIG 0.24  C 
ATOM      2 O    ILE B   2      27.445  35.877  11.938  1.00 15.82 LIG-0.27  OA
ATOM      3  N   ALA B   3      29.400  34.908  11.393  1.00 15.83 LIG-0.35  N 
ATOM      4 H    ALA B   3      30.042  34.768  10.839  1.00 15.83 LIG 0.16  HD
ENDROOT
BRANCH 1 5
ATOM      5  CA  ILE B   2      28.495  36.529   9.874  1.00 17.33 LIG 0.18  C 
BRANCH 5 6
ATOM      6  CB  ILE B   2      29.767  37.393   9.858  1.00 21.75 LIG 0.01  C 
ATOM      7  CG2 ILE B   2      29.603  38.572   8.910  1.00 23.79 LIG 0.01  C 
BRANCH 6 8
ATOM      8  CG1 ILE B   2      30.122  37.856  11.242  1.00 23.11 LIG 0.00  C 
ATOM      9  CD1 ILE B   2      31.512  37.403  11.677  1.00 27.15 LIG 0.01  C 
ENDBRANCH 6 8
ENDBRANCH 5 6
BRANCH 5 10
ATOM     10  N   ILE B   2      27.271  37.287   9.645  1.00 15.33 LIG-0.35  N 
ATOM     11  C   ALA B   1      26.127  36.662   9.388  1.00 14.45 LIG 0.25  C 
ATOM     12 O    ALA B   1      26.011  35.451   9.255  1.00 16.00 LIG-0.27  OA
ATOM     13 H    ILE B   2      27.360  38.141   9.690  1.00 15.33 LIG 0.16  HD
BRANCH 11 14
ATOM     14  CA  ALA B   1      24.877  37.537   9.287  1.00 14.39 LIG 0.27  C 
ATOM     15  CB  ALA B   1      23.718  36.906  10.058  1.00 14.30 LIG 0.05  C 
BRANCH 14 16
ATOM     16  N   ALA B   1      24.538  37.686   7.860  1.00 15.51 LIG-0.07  N 
ATOM     17 H3   ALA B   1      25.034  37.127   7.376  1.00 15.51 LIG 0.28  HD
ATOM     18 H2   ALA B   1      24.699  38.522   7.602  1.00 15.51 LIG 0.28  HD
ATOM     19 H1   ALA B   1      23.676  37.499   7.737  1.00 15.51 LIG 0.28  HD
ENDBRANCH 14 16
ENDBRANCH 11 14
ENDBRANCH 5 10
ENDBRANCH 1 5
BRANCH 3 20
ATOM     20  CA  ALA B   3      29.503  34.151  12.648  1.00 17.37 LIG 0.17  C 
ATOM     21  CB  ALA B   3      29.326  35.059  13.858  1.00 18.86 LIG 0.04  C 
BRANCH 20 22
ATOM     22  C   ALA B   3      28.478  33.080  12.685  1.00 19.46 LIG 0.24  C 
ATOM     23  N   VAL B   4      28.733  32.042  13.461  1.00 19.29 LIG-0.34  N 
ATOM     24 H    VAL B   4      29.449  31.970  13.931  1.00 19.29 LIG 0.16  HD
ATOM     25 O    ALA B   3      27.448  33.181  12.019  1.00 22.03 LIG-0.27  OA
BRANCH 23 26
ATOM     26  CA  VAL B   4      27.818  30.908  13.603  1.00 21.21 LIG 0.19  C 
BRANCH 26 27
ATOM     27  CB  VAL B   4      28.196  29.773  12.634  1.00 21.09 LIG 0.01  C 
ATOM     28  CG2 VAL B   4      29.692  29.476  12.739  1.00 23.07 LIG 0.01  C 
ATOM     29  CG1 VAL B   4      27.808  30.089  11.193  1.00 23.35 LIG 0.01  C 
ENDBRANCH 26 27
BRANCH 26 30
ATOM     30  C   VAL B   4      27.883  30.442  15.048  1.00 22.92 LIG 0.20  C 
ATOM     31 O    VAL B   4      28.842  30.745  15.762  1.00 22.82 LIG-0.65  OA
ATOM     32 OXT  VAL B   4      26.940  29.791  15.551  1.00 22.76 LIG-0.65  OA
ENDBRANCH 26 30
ENDBRANCH 23 26
ENDBRANCH 20 22
ENDBRANCH 3 20
TORSDOF 11
ENDMDL
MODEL 8
USER: ADFR SOLUTION from run 59
USER: SCORE 12.413959 LL:  -2.011 LR: -11.240 RR:   0.000 FEB:  -7.959
USER: RMSD 5.881258
USER: SEED 58
USER: STATUS no improvement in best in 6 clusters for 5 generations
USER: GENES 13
USER: genes 0 Translation |==|  0.47007 0.62179 0.33349
USER: genes 1 Rotation |==|  0.69815 0.26314 0.84937 0.68049
USER: genes 2 Torsion [N]-C--CA-[N] |==|  0.38762
USER: genes 3 Torsion [C]-CA--CB-[CG1] |==|  0.81758
USER: genes 4 Torsion [CA]-CB--CG1-[CD1] |==|  0.58100
USER: genes 5 Torsion [C]-CA--N-[C] |==|  0.75013
USER: genes 6 Torsion [N]-C--CA-[N] |==|  0.13916
USER: genes 7 Torsion [C]-CA--N-[H1] |==|  0.09209
USER: genes 8 Torsion [C]-N--CA-[CB] |==|  0.13334
USER: genes 9 Torsion [N]-CA--C-[N] |==|  0.61706
USER: genes 10 Torsion [C]-N--CA-[CB] |==|  0.84965
USER: genes 11 Torsion [N]-CA--CB-[CG2] |==|  0.87912
USER: genes 12 Torsion [N]-CA--C-[O] |==|  0.09031
ROOT
ATOM      1  C   ILE B   2      27.716  36.696   9.066  1.00 15.80 LIG 0.24  C 
ATOM      2 O    ILE B   2      27.697  35.546   8.632  1.00 15.82 LIG-0.27  OA
ATOM      3  N   ALA B   3      28.691  37.167   9.834  1.00 15.83 LIG-0.35  N 
ATOM      4 H    ALA B   3      28.736  37.980  10.110  1.00 15.83 LIG 0.16  HD
ENDROOT
BRANCH 1 5
ATOM      5  CA  ILE B   2      26.589  37.675   8.798  1.00 17.33 LIG 0.18  C 
BRANCH 5 6
ATOM      6  CB  ILE B   2      25.446  37.504   9.813  1.00 21.75 LIG 0.01  C 
ATOM      7  CG2 ILE B   2      24.438  38.636   9.681  1.00 23.79 LIG 0.01  C 
BRANCH 6 8
ATOM      8  CG1 ILE B   2      24.781  36.166   9.656  1.00 23.11 LIG 0.00  C 
ATOM      9  CD1 ILE B   2      23.312  36.186  10.063  1.00 27.15 LIG 0.01  C 
ENDBRANCH 6 8
ENDBRANCH 5 6
BRANCH 5 10
ATOM     10  N   ILE B   2      26.156  37.576   7.409  1.00 15.33 LIG-0.35  N 
ATOM     11  C   ALA B   1      26.720  38.328   6.471  1.00 14.45 LIG 0.25  C 
ATOM     12 O    ALA B   1      27.567  39.186   6.682  1.00 16.00 LIG-0.27  OA
ATOM     13 H    ILE B   2      25.527  37.008   7.265  1.00 15.33 LIG 0.16  HD
BRANCH 11 14
ATOM     14  CA  ALA B   1      26.286  38.063   5.028  1.00 14.39 LIG 0.27  C 
ATOM     15  CB  ALA B   1      26.854  39.131   4.093  1.00 14.30 LIG 0.05  C 
BRANCH 14 16
ATOM     16  N   ALA B   1      24.812  38.060   4.988  1.00 15.51 LIG-0.07  N 
ATOM     17 H3   ALA B   1      24.511  37.244   5.177  1.00 15.51 LIG 0.28  HD
ATOM     18 H2   ALA B   1      24.536  38.296   4.176  1.00 15.51 LIG 0.28  HD
ATOM     19 H1   ALA B   1      24.497  38.638   5.587  1.00 15.51 LIG 0.28  HD
ENDBRANCH 14 16
ENDBRANCH 11 14
ENDBRANCH 5 10
ENDBRANCH 1 5
BRANCH 3 20
ATOM     20  CA  ALA B   3      29.799  36.310  10.282  1.00 17.37 LIG 0.17  C 
ATOM     21  CB  ALA B   3      30.387  35.515   9.124  1.00 18.86 LIG 0.04  C 
BRANCH 20 22
ATOM     22  C   ALA B   3      30.863  37.135  10.903  1.00 19.46 LIG 0.24  C 
ATOM     23  N   VAL B   4      32.109  36.824  10.594  1.00 19.29 LIG-0.34  N 
ATOM     24 H    VAL B   4      32.316  36.180  10.063  1.00 19.29 LIG 0.16  HD
ATOM     25 O    ALA B   3      30.573  38.061  11.658  1.00 22.03 LIG-0.27  OA
BRANCH 23 26
ATOM     26  CA  VAL B   4      33.267  37.546  11.125  1.00 21.21 LIG 0.19  C 
BRANCH 26 27
ATOM     27  CB  VAL B   4      33.145  39.056  10.852  1.00 21.09 LIG 0.01  C 
ATOM     28  CG2 VAL B   4      32.659  39.289   9.422  1.00 23.07 LIG 0.01  C 
ATOM     29  CG1 VAL B   4      34.455  39.797  11.105  1.00 23.35 LIG 0.01  C 
ENDBRANCH 26 27
BRANCH 26 30
ATOM     30  C   VAL B   4      33.343  37.260  12.616  1.00 22.92 LIG 0.20  C 
ATOM     31 O    VAL B   4      32.976  36.172  13.065  1.00 22.82 LIG-0.65  OA
ATOM     32 OXT  VAL B   4      33.831  38.104  13.401  1.00 22.76 LIG-0.65  OA
ENDBRANCH 26 30
ENDBRANCH 23 26
ENDBRANCH 20 22
ENDBRANCH 3 20
TORSDOF 11
ENDMDL
MODEL 9
USER: ADFR SOLUTION from run 166
USER: SCORE 12.221372 LL:  -2.384 LR: -11.126 RR:   0.000 FEB:  -7.845
USER: RMSD 5.912652
USER: SEED 165
USER: STATUS no improvement in best in 10 clusters for 5 generations
USER: GENES 13
USER: genes 0 Translation |==|  0.50274 0.66173 0.32060
USER: genes 1 Rotation |==|  0.76492 0.44019 0.89265 0.64853
USER: genes 2 Torsion [N]-C--CA-[N] |==|  0.27803
USER: genes 3 Torsion [C]-CA--CB-[CG1] |==|  0.40600
USER: genes 4 Torsion [CA]-CB--CG1-[CD1] |==|  0.08135
USER: genes 5 Torsion [C]-CA--N-[C] |==|  0.83209
USER: genes 6 Torsion [N]-C--CA-[N] |==|  0.15900
USER: genes 7 Torsion [C]-CA--N-[H1] |==|  0.09689
USER: genes 8 Torsion [C]-N--CA-[CB] |==|  0.46667
USER: genes 9 Torsion [N]-CA--C-[N] |==|  0.45073
USER: genes 10 Torsion [C]-N--CA-[CB] |==|  0.34087
USER: genes 11 Torsion [N]-CA--CB-[CG2] |==|  0.93373
USER: genes 12 Torsion [N]-CA--C-[O] |==|  0.53515
ROOT
ATOM      1  C   ILE B   2      28.230  37.355   8.815  1.00 15.80 LIG 0.24  C 
ATOM      2 O    ILE B   2      28.813  36.273   8.805  1.00 15.82 LIG-0.27  OA
ATOM      3  N   ALA B   3      28.860  38.518   8.930  1.00 15.83 LIG-0.35  N 
ATOM      4 H    ALA B   3      28.468  39.282   8.897  1.00 15.83 LIG 0.16  HD
ENDROOT
BRANCH 1 5
ATOM      5  CA  ILE B   2      26.718  37.455   8.742  1.00 17.33 LIG 0.18  C 
BRANCH 5 6
ATOM      6  CB  ILE B   2      26.045  36.447   9.690  1.00 21.75 LIG 0.01  C 
ATOM      7  CG2 ILE B   2      27.001  36.033  10.799  1.00 23.79 LIG 0.01  C 
BRANCH 6 8
ATOM      8  CG1 ILE B   2      24.770  37.005  10.254  1.00 23.11 LIG 0.00  C 
ATOM      9  CD1 ILE B   2      24.094  37.997   9.315  1.00 27.15 LIG 0.01  C 
ENDBRANCH 6 8
ENDBRANCH 5 6
BRANCH 5 10
ATOM     10  N   ILE B   2      26.272  37.344   7.359  1.00 15.33 LIG-0.35  N 
ATOM     11  C   ALA B   1      26.671  38.225   6.448  1.00 14.45 LIG 0.25  C 
ATOM     12 O    ALA B   1      27.361  39.207   6.685  1.00 16.00 LIG-0.27  OA
ATOM     13 H    ILE B   2      25.748  36.682   7.200  1.00 15.33 LIG 0.16  HD
BRANCH 11 14
ATOM     14  CA  ALA B   1      26.250  37.953   5.003  1.00 14.39 LIG 0.27  C 
ATOM     15  CB  ALA B   1      26.754  39.063   4.081  1.00 14.30 LIG 0.05  C 
BRANCH 14 16
ATOM     16  N   ALA B   1      24.779  37.865   4.964  1.00 15.51 LIG-0.07  N 
ATOM     17 H3   ALA B   1      24.525  37.037   5.168  1.00 15.51 LIG 0.28  HD
ATOM     18 H2   ALA B   1      24.491  38.070   4.148  1.00 15.51 LIG 0.28  HD
ATOM     19 H1   ALA B   1      24.432  38.435   5.553  1.00 15.51 LIG 0.28  HD
ENDBRANCH 14 16
ENDBRANCH 11 14
ENDBRANCH 5 10
ENDBRANCH 1 5
BRANCH 3 20
ATOM     20  CA  ALA B   3      30.316  38.588   9.126  1.00 17.37 LIG 0.17  C 
ATOM     21  CB  ALA B   3      30.832  40.008   8.935  1.00 18.86 LIG 0.04  C 
BRANCH 20 22
ATOM     22  C   ALA B   3      30.670  38.115  10.486  1.00 19.46 LIG 0.24  C 
ATOM     23  N   VAL B   4      31.931  37.779  10.686  1.00 19.29 LIG-0.34  N 
ATOM     24 H    VAL B   4      32.534  37.824  10.074  1.00 19.29 LIG 0.16  HD
ATOM     25 O    ALA B   3      29.814  38.055  11.367  1.00 22.03 LIG-0.27  OA
BRANCH 23 26
ATOM     26  CA  VAL B   4      32.435  37.297  11.974  1.00 21.21 LIG 0.19  C 
BRANCH 26 27
ATOM     27  CB  VAL B   4      33.084  35.909  11.824  1.00 21.09 LIG 0.01  C 
ATOM     28  CG2 VAL B   4      32.520  35.200  10.594  1.00 23.07 LIG 0.01  C 
ATOM     29  CG1 VAL B   4      32.907  35.050  13.073  1.00 23.35 LIG 0.01  C 
ENDBRANCH 26 27
BRANCH 26 30
ATOM     30  C   VAL B   4      33.434  38.319  12.490  1.00 22.92 LIG 0.20  C 
ATOM     31 O    VAL B   4      34.175  38.048  13.438  1.00 22.82 LIG-0.65  OA
ATOM     32 OXT  VAL B   4      33.557  39.430  11.926  1.00 22.76 LIG-0.65  OA
ENDBRANCH 26 30
ENDBRANCH 23 26
ENDBRANCH 20 22
ENDBRANCH 3 20
TORSDOF 11
ENDMDL
MODEL 10
USER: ADFR SOLUTION from run 70
USER: SCORE 11.828489 LL:  -2.439 LR: -11.097 RR:   0.000 FEB:  -7.816
USER: RMSD 4.886293
USER: SEED 69
USER: STATUS no improvement in best in 2 clusters for 5 generations
USER: GENES 13
USER: genes 0 Translation |==|  0.48100 0.64273 0.30505
USER: genes 1 Rotation |==|  0.78490 0.29689 0.85275 0.55606
USER: genes 2 Torsion [N]-C--CA-[N] |==|  0.38088
USER: genes 3 Torsion [C]-CA--CB-[CG1] |==|  0.38065
USER: genes 4 Torsion [CA]-CB--CG1-[CD1] |==|  0.00396
USER: genes 5 Torsion [C]-CA--N-[C] |==|  0.81997
USER: genes 6 Torsion [N]-C--CA-[N] |==|  0.11998
USER: genes 7 Torsion [C]-CA--N-[H1] |==|  0.09402
USER: genes 8 Torsion [C]-N--CA-[CB] |==|  0.36536
USER: genes 9 Torsion [N]-CA--C-[N] |==|  0.22035
USER: genes 10 Torsion [C]-N--CA-[CB] |==|  0.85850
USER: genes 11 Torsion [N]-CA--CB-[CG2] |==|  0.86851
USER: genes 12 Torsion [N]-CA--C-[O] |==|  0.11312
ROOT
ATOM      1  C   ILE B   2      27.888  37.041   8.511  1.00 15.80 LIG 0.24  C 
ATOM      2 O    ILE B   2      28.442  36.182   7.830  1.00 15.82 LIG-0.27  OA
ATOM      3  N   ALA B   3      28.535  37.808   9.381  1.00 15.83 LIG-0.35  N 
ATOM      4 H    ALA B   3      28.166  38.439   9.834  1.00 15.83 LIG 0.16  HD
ENDROOT
BRANCH 1 5
ATOM      5  CA  ILE B   2      26.390  37.272   8.453  1.00 17.33 LIG 0.18  C 
BRANCH 5 6
ATOM      6  CB  ILE B   2      25.634  36.266   9.340  1.00 21.75 LIG 0.01  C 
ATOM      7  CG2 ILE B   2      26.598  35.541  10.268  1.00 23.79 LIG 0.01  C 
BRANCH 6 8
ATOM      8  CG1 ILE B   2      24.543  36.946  10.116  1.00 23.11 LIG 0.00  C 
ATOM      9  CD1 ILE B   2      24.437  38.435   9.806  1.00 27.15 LIG 0.01  C 
ENDBRANCH 6 8
ENDBRANCH 5 6
BRANCH 5 10
ATOM     10  N   ILE B   2      25.936  37.284   7.067  1.00 15.33 LIG-0.35  N 
ATOM     11  C   ALA B   1      26.341  38.235   6.233  1.00 14.45 LIG 0.25  C 
ATOM     12 O    ALA B   1      27.043  39.186   6.549  1.00 16.00 LIG-0.27  OA
ATOM     13 H    ILE B   2      25.403  36.644   6.855  1.00 15.33 LIG 0.16  HD
BRANCH 11 14
ATOM     14  CA  ALA B   1      25.911  38.092   4.772  1.00 14.39 LIG 0.27  C 
ATOM     15  CB  ALA B   1      26.112  39.409   4.023  1.00 14.30 LIG 0.05  C 
BRANCH 14 16
ATOM     16  N   ALA B   1      24.494  37.686   4.750  1.00 15.51 LIG-0.07  N 
ATOM     17 H3   ALA B   1      24.437  36.800   4.813  1.00 15.51 LIG 0.28  HD
ATOM     18 H2   ALA B   1      24.120  37.953   3.989  1.00 15.51 LIG 0.28  HD
ATOM     19 H1   ALA B   1      24.067  38.060   5.437  1.00 15.51 LIG 0.28  HD
ENDBRANCH 14 16
ENDBRANCH 11 14
ENDBRANCH 5 10
ENDBRANCH 1 5
BRANCH 3 20
ATOM     20  CA  ALA B   3      29.971  37.631   9.642  1.00 17.37 LIG 0.17  C 
ATOM     21  CB  ALA B   3      30.712  38.961   9.584  1.00 18.86 LIG 0.04  C 
BRANCH 20 22
ATOM     22  C   ALA B   3      30.176  37.012  10.974  1.00 19.46 LIG 0.24  C 
ATOM     23  N   VAL B   4      29.999  35.706  11.054  1.00 19.29 LIG-0.34  N 
ATOM     24 H    VAL B   4      29.776  35.219  10.381  1.00 19.29 LIG 0.16  HD
ATOM     25 O    ALA B   3      30.500  37.704  11.938  1.00 22.03 LIG-0.27  OA
BRANCH 23 26
ATOM     26  CA  VAL B   4      30.166  34.953  12.298  1.00 21.21 LIG 0.19  C 
BRANCH 26 27
ATOM     27  CB  VAL B   4      31.518  35.276  12.959  1.00 21.09 LIG 0.01  C 
ATOM     28  CG2 VAL B   4      32.635  35.210  11.918  1.00 23.07 LIG 0.01  C 
ATOM     29  CG1 VAL B   4      31.822  34.353  14.136  1.00 23.35 LIG 0.01  C 
ENDBRANCH 26 27
BRANCH 26 30
ATOM     30  C   VAL B   4      29.007  35.313  13.213  1.00 22.92 LIG 0.20  C 
ATOM     31 O    VAL B   4      27.866  35.436  12.760  1.00 22.82 LIG-0.65  OA
ATOM     32 OXT  VAL B   4      29.183  35.436  14.446  1.00 22.76 LIG-0.65  OA
ENDBRANCH 26 30
ENDBRANCH 23 26
ENDBRANCH 20 22
ENDBRANCH 3 20
TORSDOF 11
ENDMDL
MODEL 11
USER: ADFR SOLUTION from run 92
USER: SCORE 13.071912 LL:  -2.537 LR: -11.026 RR:   0.000 FEB:  -7.745
USER: RMSD 2.184282
USER: SEED 91
USER: STATUS no improvement in best in 3 clusters for 5 generations
USER: GENES 13
USER: genes 0 Translation |==|  0.50146 0.52104 0.45997
USER: genes 1 Rotation |==|  0.45797 0.54821 0.64484 0.97427
USER: genes 2 Torsion [N]-C--CA-[N] |==|  0.49663
USER: genes 3 Torsion [C]-CA--CB-[CG1] |==|  0.75372
USER: genes 4 Torsion [CA]-CB--CG1-[CD1] |==|  0.70048
USER: genes 5 Torsion [C]-CA--N-[C] |==|  0.57561
USER: genes 6 Torsion [N]-C--CA-[N] |==|  0.46291
USER: genes 7 Torsion [C]-CA--N-[H1] |==|  0.81772
USER: genes 8 Torsion [C]-N--CA-[CB] |==|  0.52239
USER: genes 9 Torsion [N]-CA--C-[N] |==|  0.43163
USER: genes 10 Torsion [C]-N--CA-[CB] |==|  0.36159
USER: genes 11 Torsion [N]-CA--CB-[CG2] |==|  0.18988
USER: genes 12 Torsion [N]-CA--C-[O] |==|  0.91217
ROOT
ATOM      1  C   ILE B   2      28.210  35.033  11.532  1.00 15.80 LIG 0.24  C 
ATOM      2 O    ILE B   2      27.621  35.382  12.553  1.00 15.82 LIG-0.27  OA
ATOM      3  N   ALA B   3      29.200  34.148  11.532  1.00 15.83 LIG-0.35  N 
ATOM      4 H    ALA B   3      29.592  33.866  10.821  1.00 15.83 LIG 0.16  HD
ENDROOT
BRANCH 1 5
ATOM      5  CA  ILE B   2      27.885  35.624  10.173  1.00 17.33 LIG 0.18  C 
BRANCH 5 6
ATOM      6  CB  ILE B   2      29.135  36.233   9.515  1.00 21.75 LIG 0.01  C 
ATOM      7  CG2 ILE B   2      29.068  36.087   8.002  1.00 23.79 LIG 0.01  C 
BRANCH 6 8
ATOM      8  CG1 ILE B   2      29.308  37.670   9.914  1.00 23.11 LIG 0.00  C 
ATOM      9  CD1 ILE B   2      28.993  38.639   8.779  1.00 27.15 LIG 0.01  C 
ENDBRANCH 6 8
ENDBRANCH 5 6
BRANCH 5 10
ATOM     10  N   ILE B   2      26.769  36.556  10.283  1.00 15.33 LIG-0.35  N 
ATOM     11  C   ALA B   1      25.971  36.779   9.245  1.00 14.45 LIG 0.25  C 
ATOM     12 O    ALA B   1      26.129  36.302   8.130  1.00 16.00 LIG-0.27  OA
ATOM     13 H    ILE B   2      26.685  36.930  11.053  1.00 15.33 LIG 0.16  HD
BRANCH 11 14
ATOM     14  CA  ALA B   1      24.758  37.677   9.496  1.00 14.39 LIG 0.27  C 
ATOM     15  CB  ALA B   1      23.717  36.946  10.343  1.00 14.30 LIG 0.05  C 
BRANCH 14 16
ATOM     16  N   ALA B   1      24.196  38.061   8.188  1.00 15.51 LIG-0.07  N 
ATOM     17 H3   ALA B   1      23.441  38.517   8.311  1.00 15.51 LIG 0.28  HD
ATOM     18 H2   ALA B   1      24.025  37.329   7.712  1.00 15.51 LIG 0.28  HD
ATOM     19 H1   ALA B   1      24.781  38.570   7.750  1.00 15.51 LIG 0.28  HD
ENDBRANCH 14 16
ENDBRANCH 11 14
ENDBRANCH 5 10
ENDBRANCH 1 5
BRANCH 3 20
ATOM     20  CA  ALA B   3      29.714  33.569  12.782  1.00 17.37 LIG 0.17  C 
ATOM     21  CB  ALA B   3      30.968  32.741  12.532  1.00 18.86 LIG 0.04  C 
BRANCH 20 22
ATOM     22  C   ALA B   3      30.022  34.645  13.754  1.00 19.46 LIG 0.24  C 
ATOM     23  N   VAL B   4      30.005  34.312  15.032  1.00 19.29 LIG-0.34  N 
ATOM     24 H    VAL B   4      29.826  33.518  15.309  1.00 19.29 LIG 0.16  HD
ATOM     25 O    ALA B   3      30.284  35.782  13.363  1.00 22.03 LIG-0.27  OA
BRANCH 23 26
ATOM     26  CA  VAL B   4      30.289  35.262  16.109  1.00 21.21 LIG 0.19  C 
BRANCH 26 27
ATOM     27  CB  VAL B   4      29.197  35.206  17.193  1.00 21.09 LIG 0.01  C 
ATOM     28  CG2 VAL B   4      29.266  33.870  17.932  1.00 23.07 LIG 0.01  C 
ATOM     29  CG1 VAL B   4      27.802  35.435  16.620  1.00 23.35 LIG 0.01  C 
ENDBRANCH 26 27
BRANCH 26 30
ATOM     30  C   VAL B   4      31.652  34.913  16.683  1.00 22.92 LIG 0.20  C 
ATOM     31 O    VAL B   4      32.046  33.744  16.696  1.00 22.82 LIG-0.65  OA
ATOM     32 OXT  VAL B   4      32.417  35.812  17.100  1.00 22.76 LIG-0.65  OA
ENDBRANCH 26 30
ENDBRANCH 23 26
ENDBRANCH 20 22
ENDBRANCH 3 20
TORSDOF 11
ENDMDL
MODEL 12
USER: ADFR SOLUTION from run 113
USER: SCORE 12.469441 LL:  -2.361 LR: -11.015 RR:   0.000 FEB:  -7.734
USER: RMSD 4.457980
USER: SEED 112
USER: STATUS no improvement in best in 10 clusters for 5 generations
USER: GENES 13
USER: genes 0 Translation |==|  0.46523 0.63255 0.33379
USER: genes 1 Rotation |==|  0.68066 0.24083 0.86306 0.63558
USER: genes 2 Torsion [N]-C--CA-[N] |==|  0.43310
USER: genes 3 Torsion [C]-CA--CB-[CG1] |==|  0.88012
USER: genes 4 Torsion [CA]-CB--CG1-[CD1] |==|  0.67929
USER: genes 5 Torsion [C]-CA--N-[C] |==|  0.73413
USER: genes 6 Torsion [N]-C--CA-[N] |==|  0.15033
USER: genes 7 Torsion [C]-CA--N-[H1] |==|  0.37558
USER: genes 8 Torsion [C]-N--CA-[CB] |==|  0.45556
USER: genes 9 Torsion [N]-CA--C-[N] |==|  0.44632
USER: genes 10 Torsion [C]-N--CA-[CB] |==|  0.83857
USER: genes 11 Torsion [N]-CA--CB-[CG2] |==|  0.90598
USER: genes 12 Torsion [N]-CA--C-[O] |==|  0.03043
ROOT
ATOM      1  C   ILE B   2      27.639  36.873   9.072  1.00 15.80 LIG 0.24  C 
ATOM      2 O    ILE B   2      27.798  35.768   8.558  1.00 15.82 LIG-0.27  OA
ATOM      3  N   ALA B   3      28.414  37.340  10.044  1.00 15.83 LIG-0.35  N 
ATOM      4 H    ALA B   3      28.339  38.126  10.383  1.00 15.83 LIG 0.16  HD
ENDROOT
BRANCH 1 5
ATOM      5  CA  ILE B   2      26.503  37.793   8.668  1.00 17.33 LIG 0.18  C 
BRANCH 5 6
ATOM      6  CB  ILE B   2      25.352  37.740   9.688  1.00 21.75 LIG 0.01  C 
ATOM      7  CG2 ILE B   2      24.105  38.405   9.123  1.00 23.79 LIG 0.01  C 
BRANCH 6 8
ATOM      8  CG1 ILE B   2      25.068  36.326  10.108  1.00 23.11 LIG 0.00  C 
ATOM      9  CD1 ILE B   2      23.681  35.852   9.688  1.00 27.15 LIG 0.01  C 
ENDBRANCH 6 8
ENDBRANCH 5 6
BRANCH 5 10
ATOM     10  N   ILE B   2      26.085  37.507   7.301  1.00 15.33 LIG-0.35  N 
ATOM     11  C   ALA B   1      26.566  38.217   6.286  1.00 14.45 LIG 0.25  C 
ATOM     12 O    ALA B   1      27.314  39.178   6.401  1.00 16.00 LIG-0.27  OA
ATOM     13 H    ILE B   2      25.522  36.863   7.221  1.00 15.33 LIG 0.16  HD
BRANCH 11 14
ATOM     14  CA  ALA B   1      26.165  37.761   4.881  1.00 14.39 LIG 0.27  C 
ATOM     15  CB  ALA B   1      26.701  38.732   3.830  1.00 14.30 LIG 0.05  C 
BRANCH 14 16
ATOM     16  N   ALA B   1      24.694  37.688   4.828  1.00 15.51 LIG-0.07  N 
ATOM     17 H3   ALA B   1      24.348  38.124   5.523  1.00 15.51 LIG 0.28  HD
ATOM     18 H2   ALA B   1      24.437  36.837   4.855  1.00 15.51 LIG 0.28  HD
ATOM     19 H1   ALA B   1      24.405  38.061   4.072  1.00 15.51 LIG 0.28  HD
ENDBRANCH 14 16
ENDBRANCH 11 14
ENDBRANCH 5 10
ENDBRANCH 1 5
BRANCH 3 20
ATOM     20  CA  ALA B   3      29.488  36.525  10.629  1.00 17.37 LIG 0.17  C 
ATOM     21  CB  ALA B   3      30.465  37.384  11.422  1.00 18.86 LIG 0.04  C 
BRANCH 20 22
ATOM     22  C   ALA B   3      28.915  35.486  11.519  1.00 19.46 LIG 0.24  C 
ATOM     23  N   VAL B   4      29.688  34.453  11.799  1.00 19.29 LIG-0.34  N 
ATOM     24 H    VAL B   4      30.487  34.366  11.492  1.00 19.29 LIG 0.16  HD
ATOM     25 O    ALA B   3      27.775  35.609  11.964  1.00 22.03 LIG-0.27  OA
BRANCH 23 26
ATOM     26  CA  VAL B   4      29.264  33.349  12.662  1.00 21.21 LIG 0.19  C 
BRANCH 26 27
ATOM     27  CB  VAL B   4      28.870  33.864  14.058  1.00 21.09 LIG 0.01  C 
ATOM     28  CG2 VAL B   4      29.745  35.058  14.439  1.00 23.07 LIG 0.01  C 
ATOM     29  CG1 VAL B   4      28.953  32.773  15.122  1.00 23.35 LIG 0.01  C 
ENDBRANCH 26 27
BRANCH 26 30
ATOM     30  C   VAL B   4      28.095  32.655  11.982  1.00 22.92 LIG 0.20  C 
ATOM     31 O    VAL B   4      27.804  32.920  10.812  1.00 22.82 LIG-0.65  OA
ATOM     32 OXT  VAL B   4      27.447  31.767  12.579  1.00 22.76 LIG-0.65  OA
ENDBRANCH 26 30
ENDBRANCH 23 26
ENDBRANCH 20 22
ENDBRANCH 3 20
TORSDOF 11
ENDMDL
MODEL 13
USER: ADFR SOLUTION from run 97
USER: SCORE 12.397500 LL:  -2.364 LR: -10.924 RR:   0.000 FEB:  -7.643
USER: RMSD 5.387691
USER: SEED 96
USER: STATUS no improvement in best in 11 clusters for 5 generations
USER: GENES 13
USER: genes 0 Translation |==|  0.43530 0.59702 0.36861
USER: genes 1 Rotation |==|  0.43025 0.86988 0.17102 0.50984
USER: genes 2 Torsion [N]-C--CA-[N] |==|  0.56931
USER: genes 3 Torsion [C]-CA--CB-[CG1] |==|  0.87962
USER: genes 4 Torsion [CA]-CB--CG1-[CD1] |==|  0.80020
USER: genes 5 Torsion [C]-CA--N-[C] |==|  0.65809
USER: genes 6 Torsion [N]-C--CA-[N] |==|  0.23272
USER: genes 7 Torsion [C]-CA--N-[H1] |==|  0.02453
USER: genes 8 Torsion [C]-N--CA-[CB] |==|  0.88862
USER: genes 9 Torsion [N]-CA--C-[N] |==|  0.90512
USER: genes 10 Torsion [C]-N--CA-[CB] |==|  0.34870
USER: genes 11 Torsion [N]-CA--CB-[CG2] |==|  0.15416
USER: genes 12 Torsion [N]-CA--C-[O] |==|  0.91305
ROOT
ATOM      1  C   ILE B   2      27.168  36.287   9.751  1.00 15.80 LIG 0.24  C 
ATOM      2 O    ILE B   2      27.792  35.507   9.036  1.00 15.82 LIG-0.27  OA
ATOM      3  N   ALA B   3      27.067  36.143  11.067  1.00 15.83 LIG-0.35  N 
ATOM      4 H    ALA B   3      26.667  36.703  11.582  1.00 15.83 LIG 0.16  HD
ENDROOT
BRANCH 1 5
ATOM      5  CA  ILE B   2      26.410  37.471   9.180  1.00 17.33 LIG 0.18  C 
BRANCH 5 6
ATOM      6  CB  ILE B   2      25.188  37.822  10.047  1.00 21.75 LIG 0.01  C 
ATOM      7  CG2 ILE B   2      24.270  38.788   9.313  1.00 23.79 LIG 0.01  C 
BRANCH 6 8
ATOM      8  CG1 ILE B   2      24.449  36.583  10.465  1.00 23.11 LIG 0.00  C 
ATOM      9  CD1 ILE B   2      23.690  35.933   9.313  1.00 27.15 LIG 0.01  C 
ENDBRANCH 6 8
ENDBRANCH 5 6
BRANCH 5 10
ATOM     10  N   ILE B   2      26.083  37.232   7.780  1.00 15.33 LIG-0.35  N 
ATOM     11  C   ALA B   1      26.479  38.082   6.840  1.00 14.45 LIG 0.25  C 
ATOM     12 O    ALA B   1      27.066  39.134   7.055  1.00 16.00 LIG-0.27  OA
ATOM     13 H    ILE B   2      25.628  36.518   7.631  1.00 15.33 LIG 0.16  HD
BRANCH 11 14
ATOM     14  CA  ALA B   1      26.195  37.681   5.391  1.00 14.39 LIG 0.27  C 
ATOM     15  CB  ALA B   1      27.188  38.355   4.445  1.00 14.30 LIG 0.05  C 
BRANCH 14 16
ATOM     16  N   ALA B   1      24.812  38.077   5.069  1.00 15.51 LIG-0.07  N 
ATOM     17 H3   ALA B   1      24.310  37.349   4.967  1.00 15.51 LIG 0.28  HD
ATOM     18 H2   ALA B   1      24.806  38.549   4.315  1.00 15.51 LIG 0.28  HD
ATOM     19 H1   ALA B   1      24.483  38.574   5.732  1.00 15.51 LIG 0.28  HD
ENDBRANCH 14 16
ENDBRANCH 11 14
ENDBRANCH 5 10
ENDBRANCH 1 5
BRANCH 3 20
ATOM     20  CA  ALA B   3      27.646  34.984  11.761  1.00 17.37 LIG 0.17  C 
ATOM     21  CB  ALA B   3      27.440  33.702  10.963  1.00 18.86 LIG 0.04  C 
BRANCH 20 22
ATOM     22  C   ALA B   3      29.096  35.195  11.985  1.00 19.46 LIG 0.24  C 
ATOM     23  N   VAL B   4      29.748  35.867  11.053  1.00 19.29 LIG-0.34  N 
ATOM     24 H    VAL B   4      29.371  36.175  10.345  1.00 19.29 LIG 0.16  HD
ATOM     25 O    ALA B   3      29.639  34.760  13.000  1.00 22.03 LIG-0.27  OA
BRANCH 23 26
ATOM     26  CA  VAL B   4      31.181  36.157  11.133  1.00 21.21 LIG 0.19  C 
BRANCH 26 27
ATOM     27  CB  VAL B   4      31.912  35.664   9.871  1.00 21.09 LIG 0.01  C 
ATOM     28  CG2 VAL B   4      31.270  36.275   8.626  1.00 23.07 LIG 0.01  C 
ATOM     29  CG1 VAL B   4      31.936  34.142   9.774  1.00 23.35 LIG 0.01  C 
ENDBRANCH 26 27
BRANCH 26 30
ATOM     30  C   VAL B   4      31.338  37.658  11.309  1.00 22.92 LIG 0.20  C 
ATOM     31 O    VAL B   4      30.518  38.436  10.815  1.00 22.82 LIG-0.65  OA
ATOM     32 OXT  VAL B   4      32.270  38.124  12.002  1.00 22.76 LIG-0.65  OA
ENDBRANCH 26 30
ENDBRANCH 23 26
ENDBRANCH 20 22
ENDBRANCH 3 20
TORSDOF 11
ENDMDL
MODEL 14
USER: ADFR SOLUTION from run 97
USER: SCORE 12.242502 LL:  -2.203 LR: -10.921 RR:   0.000 FEB:  -7.639
USER: RMSD 3.771887
USER: SEED 96
USER: STATUS no improvement in best in 11 clusters for 5 generations
USER: GENES 13
USER: genes 0 Translation |==|  0.43461 0.61284 0.37676
USER: genes 1 Rotation |==|  0.43374 0.88381 0.28133 0.72469
USER: genes 2 Torsion [N]-C--CA-[N] |==|  0.69320
USER: genes 3 Torsion [C]-CA--CB-[CG1] |==|  0.68361
USER: genes 4 Torsion [CA]-CB--CG1-[CD1] |==|  0.23115
USER: genes 5 Torsion [C]-CA--N-[C] |==|  0.68543
USER: genes 6 Torsion [N]-C--CA-[N] |==|  0.23947
USER: genes 7 Torsion [C]-CA--N-[H1] |==|  0.02180
USER: genes 8 Torsion [C]-N--CA-[CB] |==|  0.87825
USER: genes 9 Torsion [N]-CA--C-[N] |==|  0.36667
USER: genes 10 Torsion [C]-N--CA-[CB] |==|  0.39243
USER: genes 11 Torsion [N]-CA--CB-[CG2] |==|  0.73739
USER: genes 12 Torsion [N]-CA--C-[O] |==|  0.89966
ROOT
ATOM      1  C   ILE B   2      27.157  36.548   9.910  1.00 15.80 LIG 0.24  C 
ATOM      2 O    ILE B   2      28.343  36.619   9.598  1.00 15.82 LIG-0.27  OA
ATOM      3  N   ALA B   3      26.680  35.633  10.745  1.00 15.83 LIG-0.35  N 
ATOM      4 H    ALA B   3      25.860  35.598  11.003  1.00 15.83 LIG 0.16  HD
ENDROOT
BRANCH 1 5
ATOM      5  CA  ILE B   2      26.114  37.481   9.324  1.00 17.33 LIG 0.18  C 
BRANCH 5 6
ATOM      6  CB  ILE B   2      24.803  37.428  10.129  1.00 21.75 LIG 0.01  C 
ATOM      7  CG2 ILE B   2      24.437  38.811  10.648  1.00 23.79 LIG 0.01  C 
BRANCH 6 8
ATOM      8  CG1 ILE B   2      23.689  36.845   9.307  1.00 23.11 LIG 0.00  C 
ATOM      9  CD1 ILE B   2      23.687  35.320   9.313  1.00 27.15 LIG 0.01  C 
ENDBRANCH 6 8
ENDBRANCH 5 6
BRANCH 5 10
ATOM     10  N   ILE B   2      25.937  37.210   7.903  1.00 15.33 LIG-0.35  N 
ATOM     11  C   ALA B   1      26.297  38.111   6.995  1.00 14.45 LIG 0.25  C 
ATOM     12 O    ALA B   1      26.723  39.228   7.253  1.00 16.00 LIG-0.27  OA
ATOM     13 H    ILE B   2      25.593  36.444   7.720  1.00 15.33 LIG 0.16  HD
BRANCH 11 14
ATOM     14  CA  ALA B   1      26.188  37.686   5.529  1.00 14.39 LIG 0.27  C 
ATOM     15  CB  ALA B   1      27.203  38.446   4.675  1.00 14.30 LIG 0.05  C 
BRANCH 14 16
ATOM     16  N   ALA B   1      24.812  37.957   5.075  1.00 15.51 LIG-0.07  N 
ATOM     17 H3   ALA B   1      24.393  37.187   4.919  1.00 15.51 LIG 0.28  HD
ATOM     18 H2   ALA B   1      24.835  38.438   4.327  1.00 15.51 LIG 0.28  HD
ATOM     19 H1   ALA B   1      24.375  38.409   5.705  1.00 15.51 LIG 0.28  HD
ENDBRANCH 14 16
ENDBRANCH 11 14
ENDBRANCH 5 10
ENDBRANCH 1 5
BRANCH 3 20
ATOM     20  CA  ALA B   3      27.540  34.583  11.309  1.00 17.37 LIG 0.17  C 
ATOM     21  CB  ALA B   3      28.450  33.983  10.245  1.00 18.86 LIG 0.04  C 
BRANCH 20 22
ATOM     22  C   ALA B   3      28.368  35.136  12.408  1.00 19.46 LIG 0.24  C 
ATOM     23  N   VAL B   4      28.401  34.444  13.531  1.00 19.29 LIG-0.34  N 
ATOM     24 H    VAL B   4      27.973  33.707  13.643  1.00 19.29 LIG 0.16  HD
ATOM     25 O    ALA B   3      28.988  36.187  12.251  1.00 22.03 LIG-0.27  OA
BRANCH 23 26
ATOM     26  CA  VAL B   4      29.174  34.860  14.703  1.00 21.21 LIG 0.19  C 
BRANCH 26 27
ATOM     27  CB  VAL B   4      28.402  34.566  16.002  1.00 21.09 LIG 0.01  C 
ATOM     28  CG2 VAL B   4      27.625  35.808  16.438  1.00 23.07 LIG 0.01  C 
ATOM     29  CG1 VAL B   4      29.318  34.081  17.122  1.00 23.35 LIG 0.01  C 
ENDBRANCH 26 27
BRANCH 26 30
ATOM     30  C   VAL B   4      30.498  34.114  14.670  1.00 22.92 LIG 0.20  C 
ATOM     31 O    VAL B   4      30.553  32.952  14.262  1.00 22.82 LIG-0.65  OA
ATOM     32 OXT  VAL B   4      31.560  34.687  15.004  1.00 22.76 LIG-0.65  OA
ENDBRANCH 26 30
ENDBRANCH 23 26
ENDBRANCH 20 22
ENDBRANCH 3 20
TORSDOF 11
ENDMDL
MODEL 15
USER: ADFR SOLUTION from run 189
USER: SCORE 11.998064 LL:  -2.893 LR: -10.872 RR:   0.000 FEB:  -7.590
USER: RMSD 1.856861
USER: SEED 188
USER: STATUS no improvement in best in 4 clusters for 5 generations
USER: GENES 13
USER: genes 0 Translation |==|  0.47184 0.54003 0.43371
USER: genes 1 Rotation |==|  0.49788 0.41642 0.53352 0.99182
USER: genes 2 Torsion [N]-C--CA-[N] |==|  0.44283
USER: genes 3 Torsion [C]-CA--CB-[CG1] |==|  0.23440
USER: genes 4 Torsion [CA]-CB--CG1-[CD1] |==|  0.70087
USER: genes 5 Torsion [C]-CA--N-[C] |==|  0.77215
USER: genes 6 Torsion [N]-C--CA-[N] |==|  0.45247
USER: genes 7 Torsion [C]-CA--N-[H1] |==|  0.64057
USER: genes 8 Torsion [C]-N--CA-[CB] |==|  0.42335
USER: genes 9 Torsion [N]-CA--C-[N] |==|  0.10357
USER: genes 10 Torsion [C]-N--CA-[CB] |==|  0.83819
USER: genes 11 Torsion [N]-CA--CB-[CG2] |==|  0.79704
USER: genes 12 Torsion [N]-CA--C-[O] |==|  0.27440
ROOT
ATOM      1  C   ILE B   2      27.744  35.347  11.020  1.00 15.80 LIG 0.24  C 
ATOM      2 O    ILE B   2      26.858  35.771  11.759  1.00 15.82 LIG-0.27  OA
ATOM      3  N   ALA B   3      28.242  34.119  11.115  1.00 15.83 LIG-0.35  N 
ATOM      4 H    ALA B   3      28.833  33.798  10.579  1.00 15.83 LIG 0.16  HD
ENDROOT
BRANCH 1 5
ATOM      5  CA  ILE B   2      28.385  36.213   9.953  1.00 17.33 LIG 0.18  C 
BRANCH 5 6
ATOM      6  CB  ILE B   2      29.791  36.673  10.377  1.00 21.75 LIG 0.01  C 
ATOM      7  CG2 ILE B   2      29.815  37.026  11.857  1.00 23.79 LIG 0.01  C 
BRANCH 6 8
ATOM      8  CG1 ILE B   2      30.820  35.629  10.052  1.00 23.11 LIG 0.00  C 
ATOM      9  CD1 ILE B   2      31.349  34.915  11.291  1.00 27.15 LIG 0.01  C 
ENDBRANCH 6 8
ENDBRANCH 5 6
BRANCH 5 10
ATOM     10  N   ILE B   2      27.495  37.311   9.594  1.00 15.33 LIG-0.35  N 
ATOM     11  C   ALA B   1      26.507  37.122   8.727  1.00 14.45 LIG 0.25  C 
ATOM     12 O    ALA B   1      26.301  36.079   8.121  1.00 16.00 LIG-0.27  OA
ATOM     13 H    ILE B   2      27.667  38.058   9.982  1.00 15.33 LIG 0.16  HD
BRANCH 11 14
ATOM     14  CA  ALA B   1      25.553  38.299   8.509  1.00 14.39 LIG 0.27  C 
ATOM     15  CB  ALA B   1      24.595  38.436   9.692  1.00 14.30 LIG 0.05  C 
BRANCH 14 16
ATOM     16  N   ALA B   1      24.812  38.061   7.257  1.00 15.51 LIG-0.07  N 
ATOM     17 H3   ALA B   1      23.959  37.889   7.444  1.00 15.51 LIG 0.28  HD
ATOM     18 H2   ALA B   1      25.167  37.366   6.829  1.00 15.51 LIG 0.28  HD
ATOM     19 H1   ALA B   1      24.862  38.784   6.740  1.00 15.51 LIG 0.28  HD
ENDBRANCH 14 16
ENDBRANCH 11 14
ENDBRANCH 5 10
ENDBRANCH 1 5
BRANCH 3 20
ATOM     20  CA  ALA B   3      27.811  33.193  12.172  1.00 17.37 LIG 0.17  C 
ATOM     21  CB  ALA B   3      27.952  31.743  11.727  1.00 18.86 LIG 0.04  C 
BRANCH 20 22
ATOM     22  C   ALA B   3      28.613  33.411  13.400  1.00 19.46 LIG 0.24  C 
ATOM     23  N   VAL B   4      28.935  34.659  13.683  1.00 19.29 LIG-0.34  N 
ATOM     24 H    VAL B   4      28.704  35.328  13.195  1.00 19.29 LIG 0.16  HD
ATOM     25 O    ALA B   3      28.942  32.458  14.105  1.00 22.03 LIG-0.27  OA
BRANCH 23 26
ATOM     26  CA  VAL B   4      29.721  35.033  14.861  1.00 21.21 LIG 0.19  C 
BRANCH 26 27
ATOM     27  CB  VAL B   4      29.030  34.564  16.154  1.00 21.09 LIG 0.01  C 
ATOM     28  CG2 VAL B   4      27.808  35.436  16.438  1.00 23.07 LIG 0.01  C 
ATOM     29  CG1 VAL B   4      29.980  34.559  17.348  1.00 23.35 LIG 0.01  C 
ENDBRANCH 26 27
BRANCH 26 30
ATOM     30  C   VAL B   4      31.098  34.406  14.714  1.00 22.92 LIG 0.20  C 
ATOM     31 O    VAL B   4      32.049  35.071  14.296  1.00 22.82 LIG-0.65  OA
ATOM     32 OXT  VAL B   4      31.298  33.221  15.066  1.00 22.76 LIG-0.65  OA
ENDBRANCH 26 30
ENDBRANCH 23 26
ENDBRANCH 20 22
ENDBRANCH 3 20
TORSDOF 11
ENDMDL
MODEL 16
USER: ADFR SOLUTION from run 46
USER: SCORE 12.549632 LL:  -2.918 LR: -10.862 RR:   0.000 FEB:  -7.580
USER: RMSD 3.858953
USER: SEED 45
USER: STATUS no improvement in best in 16 clusters for 5 generations
USER: GENES 13
USER: genes 0 Translation |==|  0.50014 0.54374 0.50425
USER: genes 1 Rotation |==|  0.29776 0.73441 0.32460 0.85126
USER: genes 2 Torsion [N]-C--CA-[N] |==|  0.40617
USER: genes 3 Torsion [C]-CA--CB-[CG1] |==|  0.13621
USER: genes 4 Torsion [CA]-CB--CG1-[CD1] |==|  0.19255
USER: genes 5 Torsion [C]-CA--N-[C] |==|  0.53381
USER: genes 6 Torsion [N]-C--CA-[N] |==|  0.43499
USER: genes 7 Torsion [C]-CA--N-[H1] |==|  0.52012
USER: genes 8 Torsion [C]-N--CA-[CB] |==|  0.47261
USER: genes 9 Torsion [N]-CA--C-[N] |==|  0.34765
USER: genes 10 Torsion [C]-N--CA-[CB] |==|  0.20473
USER: genes 11 Torsion [N]-CA--CB-[CG2] |==|  0.08881
USER: genes 12 Torsion [N]-CA--C-[O] |==|  0.68919
ROOT
ATOM      1  C   ILE B   2      28.189  35.408  12.396  1.00 15.80 LIG 0.24  C 
ATOM      2 O    ILE B   2      29.008  36.323  12.363  1.00 15.82 LIG-0.27  OA
ATOM      3  N   ALA B   3      28.094  34.555  13.409  1.00 15.83 LIG-0.35  N 
ATOM      4 H    ALA B   3      27.499  33.936  13.462  1.00 15.83 LIG 0.16  HD
ENDROOT
BRANCH 1 5
ATOM      5  CA  ILE B   2      27.235  35.139  11.247  1.00 17.33 LIG 0.18  C 
BRANCH 5 6
ATOM      6  CB  ILE B   2      27.834  34.135  10.247  1.00 21.75 LIG 0.01  C 
ATOM      7  CG2 ILE B   2      28.910  34.800   9.399  1.00 23.79 LIG 0.01  C 
BRANCH 6 8
ATOM      8  CG1 ILE B   2      28.373  32.925  10.954  1.00 23.11 LIG 0.00  C 
ATOM      9  CD1 ILE B   2      27.274  32.056  11.556  1.00 27.15 LIG 0.01  C 
ENDBRANCH 6 8
ENDBRANCH 5 6
BRANCH 5 10
ATOM     10  N   ILE B   2      26.818  36.395  10.635  1.00 15.33 LIG-0.35  N 
ATOM     11  C   ALA B   1      25.807  36.423   9.774  1.00 14.45 LIG 0.25  C 
ATOM     12 O    ALA B   1      25.204  35.436   9.376  1.00 16.00 LIG-0.27  OA
ATOM     13 H    ILE B   2      27.272  37.084  10.876  1.00 15.33 LIG 0.16  HD
BRANCH 11 14
ATOM     14  CA  ALA B   1      25.365  37.803   9.282  1.00 14.39 LIG 0.27  C 
ATOM     15  CB  ALA B   1      24.437  38.462  10.302  1.00 14.30 LIG 0.05  C 
BRANCH 14 16
ATOM     16  N   ALA B   1      24.684  37.630   7.987  1.00 15.51 LIG-0.07  N 
ATOM     17 H3   ALA B   1      23.920  37.189   8.109  1.00 15.51 LIG 0.28  HD
ATOM     18 H2   ALA B   1      25.207  37.168   7.435  1.00 15.51 LIG 0.28  HD
ATOM     19 H1   ALA B   1      24.511  38.428   7.632  1.00 15.51 LIG 0.28  HD
ENDBRANCH 14 16
ENDBRANCH 11 14
ENDBRANCH 5 10
ENDBRANCH 1 5
BRANCH 3 20
ATOM     20  CA  ALA B   3      29.022  34.606  14.548  1.00 17.37 LIG 0.17  C 
ATOM     21  CB  ALA B   3      28.562  33.695  15.678  1.00 18.86 LIG 0.04  C 
BRANCH 20 22
ATOM     22  C   ALA B   3      30.382  34.204  14.116  1.00 19.46 LIG 0.24  C 
ATOM     23  N   VAL B   4      31.360  35.056  14.367  1.00 19.29 LIG-0.34  N 
ATOM     24 H    VAL B   4      31.237  35.811  14.760  1.00 19.29 LIG 0.16  HD
ATOM     25 O    ALA B   3      30.564  33.122  13.559  1.00 22.03 LIG-0.27  OA
BRANCH 23 26
ATOM     26  CA  VAL B   4      32.755  34.800  14.003  1.00 21.21 LIG 0.19  C 
BRANCH 26 27
ATOM     27  CB  VAL B   4      32.962  34.950  12.485  1.00 21.09 LIG 0.01  C 
ATOM     28  CG2 VAL B   4      32.012  36.011  11.932  1.00 23.07 LIG 0.01  C 
ATOM     29  CG1 VAL B   4      32.786  33.628  11.744  1.00 23.35 LIG 0.01  C 
ENDBRANCH 26 27
BRANCH 26 30
ATOM     30  C   VAL B   4      33.619  35.783  14.776  1.00 22.92 LIG 0.20  C 
ATOM     31 O    VAL B   4      34.226  36.681  14.188  1.00 22.82 LIG-0.65  OA
ATOM     32 OXT  VAL B   4      33.684  35.728  16.025  1.00 22.76 LIG-0.65  OA
ENDBRANCH 26 30
ENDBRANCH 23 26
ENDBRANCH 20 22
ENDBRANCH 3 20
TORSDOF 11
ENDMDL
MODEL 17
USER: ADFR SOLUTION from run 37
USER: SCORE 12.806496 LL:  -2.406 LR: -10.740 RR:   0.000 FEB:  -7.458
USER: RMSD 2.104969
USER: SEED 36
USER: STATUS no improvement in best in 2 clusters for 5 generations
USER: GENES 13
USER: genes 0 Translation |==|  0.48517 0.50460 0.46153
USER: genes 1 Rotation |==|  0.49546 0.51315 0.52006 0.99940
USER: genes 2 Torsion [N]-C--CA-[N] |==|  0.42321
USER: genes 3 Torsion [C]-CA--CB-[CG1] |==|  0.70711
USER: genes 4 Torsion [CA]-CB--CG1-[CD1] |==|  0.74789
USER: genes 5 Torsion [C]-CA--N-[C] |==|  0.64798
USER: genes 6 Torsion [N]-C--CA-[N] |==|  0.51132
USER: genes 7 Torsion [C]-CA--N-[H1] |==|  0.62405
USER: genes 8 Torsion [C]-N--CA-[CB] |==|  0.51825
USER: genes 9 Torsion [N]-CA--C-[N] |==|  0.42778
USER: genes 10 Torsion [C]-N--CA-[CB] |==|  0.83522
USER: genes 11 Torsion [N]-CA--CB-[CG2] |==|  0.84395
USER: genes 12 Torsion [N]-CA--C-[O] |==|  0.70745
ROOT
ATOM      1  C   ILE B   2      27.953  34.762  11.563  1.00 15.80 LIG 0.24  C 
ATOM      2 O    ILE B   2      27.436  35.251  12.564  1.00 15.82 LIG-0.27  OA
ATOM      3  N   ALA B   3      28.386  33.508  11.508  1.00 15.83 LIG-0.35  N 
ATOM      4 H    ALA B   3      28.712  33.142  10.801  1.00 15.83 LIG 0.16  HD
ENDROOT
BRANCH 1 5
ATOM      5  CA  ILE B   2      28.188  35.571  10.301  1.00 17.33 LIG 0.18  C 
BRANCH 5 6
ATOM      6  CB  ILE B   2      29.632  36.097  10.235  1.00 21.75 LIG 0.01  C 
ATOM      7  CG2 ILE B   2      30.253  35.791   8.880  1.00 23.79 LIG 0.01  C 
BRANCH 6 8
ATOM      8  CG1 ILE B   2      29.685  37.568  10.535  1.00 23.11 LIG 0.00  C 
ATOM      9  CD1 ILE B   2      29.558  38.430   9.284  1.00 27.15 LIG 0.01  C 
ENDBRANCH 6 8
ENDBRANCH 5 6
BRANCH 5 10
ATOM     10  N   ILE B   2      27.179  36.617  10.179  1.00 15.33 LIG-0.35  N 
ATOM     11  C   ALA B   1      26.460  36.735   9.069  1.00 14.45 LIG 0.25  C 
ATOM     12 O    ALA B   1      26.616  36.056   8.063  1.00 16.00 LIG-0.27  OA
ATOM     13 H    ILE B   2      27.101  37.127  10.867  1.00 15.33 LIG 0.16  HD
BRANCH 11 14
ATOM     14  CA  ALA B   1      25.344  37.781   9.084  1.00 14.39 LIG 0.27  C 
ATOM     15  CB  ALA B   1      24.408  37.548  10.270  1.00 14.30 LIG 0.05  C 
BRANCH 14 16
ATOM     16  N   ALA B   1      24.611  37.686   7.809  1.00 15.51 LIG-0.07  N 
ATOM     17 H3   ALA B   1      23.830  37.281   7.945  1.00 15.51 LIG 0.28  HD
ATOM     18 H2   ALA B   1      25.090  37.216   7.225  1.00 15.51 LIG 0.28  HD
ATOM     19 H1   ALA B   1      24.468  38.503   7.486  1.00 15.51 LIG 0.28  HD
ENDBRANCH 14 16
ENDBRANCH 11 14
ENDBRANCH 5 10
ENDBRANCH 1 5
BRANCH 3 20
ATOM     20  CA  ALA B   3      28.339  32.626  12.683  1.00 17.37 LIG 0.17  C 
ATOM     21  CB  ALA B   3      29.037  31.300  12.408  1.00 18.86 LIG 0.04  C 
BRANCH 20 22
ATOM     22  C   ALA B   3      28.981  33.287  13.844  1.00 19.46 LIG 0.24  C 
ATOM     23  N   VAL B   4      28.578  32.905  15.042  1.00 19.29 LIG-0.34  N 
ATOM     24 H    VAL B   4      27.974  32.305  15.166  1.00 19.29 LIG 0.16  HD
ATOM     25 O    ALA B   3      29.849  34.142  13.672  1.00 22.03 LIG-0.27  OA
BRANCH 23 26
ATOM     26  CA  VAL B   4      29.118  33.464  16.283  1.00 21.21 LIG 0.19  C 
BRANCH 26 27
ATOM     27  CB  VAL B   4      30.637  33.233  16.373  1.00 21.09 LIG 0.01  C 
ATOM     28  CG2 VAL B   4      30.946  31.741  16.248  1.00 23.07 LIG 0.01  C 
ATOM     29  CG1 VAL B   4      31.233  33.802  17.657  1.00 23.35 LIG 0.01  C 
ENDBRANCH 26 27
BRANCH 26 30
ATOM     30  C   VAL B   4      28.785  34.947  16.303  1.00 22.92 LIG 0.20  C 
ATOM     31 O    VAL B   4      29.659  35.788  16.083  1.00 22.82 LIG-0.65  OA
ATOM     32 OXT  VAL B   4      27.609  35.332  16.489  1.00 22.76 LIG-0.65  OA
ENDBRANCH 26 30
ENDBRANCH 23 26
ENDBRANCH 20 22
ENDBRANCH 3 20
TORSDOF 11
ENDMDL
MODEL 18
USER: ADFR SOLUTION from run 108
USER: SCORE 12.404745 LL:  -2.828 LR: -10.734 RR:   0.000 FEB:  -7.452
USER: RMSD 4.155658
USER: SEED 107
USER: STATUS no improvement in best in 12 clusters for 5 generations
USER: GENES 13
USER: genes 0 Translation |==|  0.58773 0.68271 0.31480
USER: genes 1 Rotation |==|  0.41210 0.82407 0.14710 0.61277
USER: genes 2 Torsion [N]-C--CA-[N] |==|  0.94953
USER: genes 3 Torsion [C]-CA--CB-[CG1] |==|  0.29944
USER: genes 4 Torsion [CA]-CB--CG1-[CD1] |==|  0.08920
USER: genes 5 Torsion [C]-CA--N-[C] |==|  0.80700
USER: genes 6 Torsion [N]-C--CA-[N] |==|  0.26753
USER: genes 7 Torsion [C]-CA--N-[H1] |==|  0.55489
USER: genes 8 Torsion [C]-N--CA-[CB] |==|  0.27758
USER: genes 9 Torsion [N]-CA--C-[N] |==|  0.51719
USER: genes 10 Torsion [C]-N--CA-[CB] |==|  0.28886
USER: genes 11 Torsion [N]-CA--CB-[CG2] |==|  0.14363
USER: genes 12 Torsion [N]-CA--C-[O] |==|  0.92324
ROOT
ATOM      1  C   ILE B   2      29.569  37.701   8.702  1.00 15.80 LIG 0.24  C 
ATOM      2 O    ILE B   2      30.589  37.138   8.311  1.00 15.82 LIG-0.27  OA
ATOM      3  N   ALA B   3      29.142  37.641   9.958  1.00 15.83 LIG-0.35  N 
ATOM      4 H    ALA B   3      28.453  38.063  10.251  1.00 15.83 LIG 0.16  HD
ENDROOT
BRANCH 1 5
ATOM      5  CA  ILE B   2      28.671  38.483   7.761  1.00 17.33 LIG 0.18  C 
BRANCH 5 6
ATOM      6  CB  ILE B   2      29.318  39.818   7.353  1.00 21.75 LIG 0.01  C 
ATOM      7  CG2 ILE B   2      30.467  40.165   8.289  1.00 23.79 LIG 0.01  C 
BRANCH 6 8
ATOM      8  CG1 ILE B   2      29.777  39.780   5.923  1.00 23.11 LIG 0.00  C 
ATOM      9  CD1 ILE B   2      28.893  38.902   5.044  1.00 27.15 LIG 0.01  C 
ENDBRANCH 6 8
ENDBRANCH 5 6
BRANCH 5 10
ATOM     10  N   ILE B   2      27.342  38.631   8.341  1.00 15.33 LIG-0.35  N 
ATOM     11  C   ALA B   1      26.538  37.581   8.465  1.00 14.45 LIG 0.25  C 
ATOM     12 O    ALA B   1      26.796  36.456   8.059  1.00 16.00 LIG-0.27  OA
ATOM     13 H    ILE B   2      27.140  39.431   8.584  1.00 15.33 LIG 0.16  HD
BRANCH 11 14
ATOM     14  CA  ALA B   1      25.216  37.814   9.198  1.00 14.39 LIG 0.27  C 
ATOM     15  CB  ALA B   1      24.862  36.604  10.062  1.00 14.30 LIG 0.05  C 
BRANCH 14 16
ATOM     16  N   ALA B   1      24.171  38.061   8.188  1.00 15.51 LIG-0.07  N 
ATOM     17 H3   ALA B   1      23.901  37.286   7.843  1.00 15.51 LIG 0.28  HD
ATOM     18 H2   ALA B   1      24.500  38.574   7.540  1.00 15.51 LIG 0.28  HD
ATOM     19 H1   ALA B   1      23.479  38.472   8.569  1.00 15.51 LIG 0.28  HD
ENDBRANCH 14 16
ENDBRANCH 11 14
ENDBRANCH 5 10
ENDBRANCH 1 5
BRANCH 3 20
ATOM     20  CA  ALA B   3      29.835  36.828  10.967  1.00 17.37 LIG 0.17  C 
ATOM     21  CB  ALA B   3      30.740  37.686  11.842  1.00 18.86 LIG 0.04  C 
BRANCH 20 22
ATOM     22  C   ALA B   3      28.848  36.126  11.823  1.00 19.46 LIG 0.24  C 
ATOM     23  N   VAL B   4      29.328  35.457  12.855  1.00 19.29 LIG-0.34  N 
ATOM     24 H    VAL B   4      30.167  35.416  13.040  1.00 19.29 LIG 0.16  HD
ATOM     25 O    ALA B   3      27.646  36.186  11.564  1.00 22.03 LIG-0.27  OA
BRANCH 23 26
ATOM     26  CA  VAL B   4      28.480  34.715  13.790  1.00 21.21 LIG 0.19  C 
BRANCH 26 27
ATOM     27  CB  VAL B   4      28.564  33.201  13.525  1.00 21.09 LIG 0.01  C 
ATOM     28  CG2 VAL B   4      30.026  32.759  13.489  1.00 23.07 LIG 0.01  C 
ATOM     29  CG1 VAL B   4      27.846  32.798  12.241  1.00 23.35 LIG 0.01  C 
ENDBRANCH 26 27
BRANCH 26 30
ATOM     30  C   VAL B   4      28.942  35.054  15.198  1.00 22.92 LIG 0.20  C 
ATOM     31 O    VAL B   4      30.112  35.382  15.411  1.00 22.82 LIG-0.65  OA
ATOM     32 OXT  VAL B   4      28.131  35.057  16.151  1.00 22.76 LIG-0.65  OA
ENDBRANCH 26 30
ENDBRANCH 23 26
ENDBRANCH 20 22
ENDBRANCH 3 20
TORSDOF 11
ENDMDL
MODEL 19
USER: ADFR SOLUTION from run 12
USER: SCORE 11.826644 LL:  -1.994 LR: -10.681 RR:   0.000 FEB:  -7.399
USER: RMSD 3.877202
USER: SEED 154880
USER: STATUS no improvement in best in 10 clusters for 5 generations
USER: GENES 13
USER: genes 0 Translation |==|  0.45841 0.60821 0.38129
USER: genes 1 Rotation |==|  0.46835 0.87492 0.19502 0.62419
USER: genes 2 Torsion [N]-C--CA-[N] |==|  0.42962
USER: genes 3 Torsion [C]-CA--CB-[CG1] |==|  0.56488
USER: genes 4 Torsion [CA]-CB--CG1-[CD1] |==|  0.24959
USER: genes 5 Torsion [C]-CA--N-[C] |==|  0.86657
USER: genes 6 Torsion [N]-C--CA-[N] |==|  0.18164
USER: genes 7 Torsion [C]-CA--N-[H1] |==|  0.66103
USER: genes 8 Torsion [C]-N--CA-[CB] |==|  0.89444
USER: genes 9 Torsion [N]-CA--C-[N] |==|  0.39440
USER: genes 10 Torsion [C]-N--CA-[CB] |==|  0.42212
USER: genes 11 Torsion [N]-CA--CB-[CG2] |==|  0.87302
USER: genes 12 Torsion [N]-CA--C-[O] |==|  0.90584
ROOT
ATOM      1  C   ILE B   2      27.532  36.471   9.998  1.00 15.80 LIG 0.24  C 
ATOM      2 O    ILE B   2      28.540  35.941   9.539  1.00 15.82 LIG-0.27  OA
ATOM      3  N   ALA B   3      26.949  36.071  11.122  1.00 15.83 LIG-0.35  N 
ATOM      4 H    ALA B   3      26.268  36.460  11.475  1.00 15.83 LIG 0.16  HD
ENDROOT
BRANCH 1 5
ATOM      5  CA  ILE B   2      26.830  37.614   9.289  1.00 17.33 LIG 0.18  C 
BRANCH 5 6
ATOM      6  CB  ILE B   2      25.601  37.116   8.508  1.00 21.75 LIG 0.01  C 
ATOM      7  CG2 ILE B   2      24.420  36.906   9.444  1.00 23.79 LIG 0.01  C 
BRANCH 6 8
ATOM      8  CG1 ILE B   2      25.250  38.061   7.395  1.00 23.11 LIG 0.00  C 
ATOM      9  CD1 ILE B   2      25.957  37.722   6.087  1.00 27.15 LIG 0.01  C 
ENDBRANCH 6 8
ENDBRANCH 5 6
BRANCH 5 10
ATOM     10  N   ILE B   2      27.779  38.359   8.471  1.00 15.33 LIG-0.35  N 
ATOM     11  C   ALA B   1      28.946  38.745   8.974  1.00 14.45 LIG 0.25  C 
ATOM     12 O    ALA B   1      29.290  38.583  10.137  1.00 16.00 LIG-0.27  OA
ATOM     13 H    ILE B   2      27.519  38.516   7.667  1.00 15.33 LIG 0.16  HD
BRANCH 11 14
ATOM     14  CA  ALA B   1      29.923  39.410   8.003  1.00 14.39 LIG 0.27  C 
ATOM     15  CB  ALA B   1      31.274  39.643   8.679  1.00 14.30 LIG 0.05  C 
BRANCH 14 16
ATOM     16  N   ALA B   1      29.331  40.685   7.560  1.00 15.51 LIG-0.07  N 
ATOM     17 H3   ALA B   1      29.853  41.360   7.814  1.00 15.51 LIG 0.28  HD
ATOM     18 H2   ALA B   1      28.526  40.782   7.926  1.00 15.51 LIG 0.28  HD
ATOM     19 H1   ALA B   1      29.256  40.686   6.673  1.00 15.51 LIG 0.28  HD
ENDBRANCH 14 16
ENDBRANCH 11 14
ENDBRANCH 5 10
ENDBRANCH 1 5
BRANCH 3 20
ATOM     20  CA  ALA B   3      27.438  34.903  11.868  1.00 17.37 LIG 0.17  C 
ATOM     21  CB  ALA B   3      27.893  33.796  10.926  1.00 18.86 LIG 0.04  C 
BRANCH 20 22
ATOM     22  C   ALA B   3      28.565  35.294  12.748  1.00 19.46 LIG 0.24  C 
ATOM     23  N   VAL B   4      28.617  34.720  13.936  1.00 19.29 LIG-0.34  N 
ATOM     24 H    VAL B   4      28.037  34.146  14.207  1.00 19.29 LIG 0.16  HD
ATOM     25 O    ALA B   3      29.401  36.111  12.363  1.00 22.03 LIG-0.27  OA
BRANCH 23 26
ATOM     26  CA  VAL B   4      29.670  35.002  14.914  1.00 21.21 LIG 0.19  C 
BRANCH 26 27
ATOM     27  CB  VAL B   4      29.156  34.790  16.350  1.00 21.09 LIG 0.01  C 
ATOM     28  CG2 VAL B   4      27.783  35.442  16.513  1.00 23.07 LIG 0.01  C 
ATOM     29  CG1 VAL B   4      30.132  35.316  17.397  1.00 23.35 LIG 0.01  C 
ENDBRANCH 26 27
BRANCH 26 30
ATOM     30  C   VAL B   4      30.841  34.083  14.607  1.00 22.92 LIG 0.20  C 
ATOM     31 O    VAL B   4      30.648  32.946  14.169  1.00 22.82 LIG-0.65  OA
ATOM     32 OXT  VAL B   4      32.018  34.485  14.743  1.00 22.76 LIG-0.65  OA
ENDBRANCH 26 30
ENDBRANCH 23 26
ENDBRANCH 20 22
ENDBRANCH 3 20
TORSDOF 11
ENDMDL
MODEL 20
USER: ADFR SOLUTION from run 28
USER: SCORE 12.804760 LL:  -2.794 LR: -10.677 RR:   0.000 FEB:  -7.396
USER: RMSD 3.472625
USER: SEED 27
USER: STATUS no improvement in best in 5 clusters for 5 generations
USER: GENES 13
USER: genes 0 Translation |==|  0.49109 0.53980 0.51181
USER: genes 1 Rotation |==|  0.30324 0.71475 0.34504 0.87570
USER: genes 2 Torsion [N]-C--CA-[N] |==|  0.42778
USER: genes 3 Torsion [C]-CA--CB-[CG1] |==|  0.14994
USER: genes 4 Torsion [CA]-CB--CG1-[CD1] |==|  0.18682
USER: genes 5 Torsion [C]-CA--N-[C] |==|  0.55506
USER: genes 6 Torsion [N]-C--CA-[N] |==|  0.42229
USER: genes 7 Torsion [C]-CA--N-[H1] |==|  0.84886
USER: genes 8 Torsion [C]-N--CA-[CB] |==|  0.22209
USER: genes 9 Torsion [N]-CA--C-[N] |==|  0.09269
USER: genes 10 Torsion [C]-N--CA-[CB] |==|  0.36921
USER: genes 11 Torsion [N]-CA--CB-[CG2] |==|  0.60478
USER: genes 12 Torsion [N]-CA--C-[O] |==|  0.95978
ROOT
ATOM      1  C   ILE B   2      28.047  35.343  12.543  1.00 15.80 LIG 0.24  C 
ATOM      2 O    ILE B   2      28.754  36.343  12.632  1.00 15.82 LIG-0.27  OA
ATOM      3  N   ALA B   3      27.978  34.416  13.492  1.00 15.83 LIG-0.35  N 
ATOM      4 H    ALA B   3      27.456  33.733  13.459  1.00 15.83 LIG 0.16  HD
ENDROOT
BRANCH 1 5
ATOM      5  CA  ILE B   2      27.215  35.052  11.308  1.00 17.33 LIG 0.18  C 
BRANCH 5 6
ATOM      6  CB  ILE B   2      27.918  34.038  10.388  1.00 21.75 LIG 0.01  C 
ATOM      7  CG2 ILE B   2      29.142  34.664   9.737  1.00 23.79 LIG 0.01  C 
BRANCH 6 8
ATOM      8  CG1 ILE B   2      28.282  32.790  11.140  1.00 23.11 LIG 0.00  C 
ATOM      9  CD1 ILE B   2      27.062  31.990  11.583  1.00 27.15 LIG 0.01  C 
ENDBRANCH 6 8
ENDBRANCH 5 6
BRANCH 5 10
ATOM     10  N   ILE B   2      26.855  36.296  10.639  1.00 15.33 LIG-0.35  N 
ATOM     11  C   ALA B   1      25.834  36.334   9.790  1.00 14.45 LIG 0.25  C 
ATOM     12 O    ALA B   1      25.174  35.361   9.450  1.00 16.00 LIG-0.27  OA
ATOM     13 H    ILE B   2      27.347  36.971  10.840  1.00 15.33 LIG 0.16  HD
BRANCH 11 14
ATOM     14  CA  ALA B   1      25.456  37.709   9.235  1.00 14.39 LIG 0.27  C 
ATOM     15  CB  ALA B   1      24.488  38.420  10.180  1.00 14.30 LIG 0.05  C 
BRANCH 14 16
ATOM     16  N   ALA B   1      24.847  37.514   7.907  1.00 15.51 LIG-0.07  N 
ATOM     17 H3   ALA B   1      24.693  38.307   7.531  1.00 15.51 LIG 0.28  HD
ATOM     18 H2   ALA B   1      24.078  37.075   7.995  1.00 15.51 LIG 0.28  HD
ATOM     19 H1   ALA B   1      25.400  37.044   7.392  1.00 15.51 LIG 0.28  HD
ENDBRANCH 14 16
ENDBRANCH 11 14
ENDBRANCH 5 10
ENDBRANCH 1 5
BRANCH 3 20
ATOM     20  CA  ALA B   3      28.810  34.490  14.701  1.00 17.37 LIG 0.17  C 
ATOM     21  CB  ALA B   3      28.223  35.461  15.717  1.00 18.86 LIG 0.04  C 
BRANCH 20 22
ATOM     22  C   ALA B   3      28.933  33.148  15.319  1.00 19.46 LIG 0.24  C 
ATOM     23  N   VAL B   4      28.948  32.116  14.496  1.00 19.29 LIG-0.34  N 
ATOM     24 H    VAL B   4      28.889  32.193  13.642  1.00 19.29 LIG 0.16  HD
ATOM     25 O    ALA B   3      29.023  33.031  16.541  1.00 22.03 LIG-0.27  OA
BRANCH 23 26
ATOM     26  CA  VAL B   4      29.066  30.730  14.955  1.00 21.21 LIG 0.19  C 
BRANCH 26 27
ATOM     27  CB  VAL B   4      28.022  29.833  14.265  1.00 21.09 LIG 0.01  C 
ATOM     28  CG2 VAL B   4      27.490  28.797  15.255  1.00 23.07 LIG 0.01  C 
ATOM     29  CG1 VAL B   4      28.579  29.152  13.018  1.00 23.35 LIG 0.01  C 
ENDBRANCH 26 27
BRANCH 26 30
ATOM     30  C   VAL B   4      30.480  30.263  14.652  1.00 22.92 LIG 0.20  C 
ATOM     31 O    VAL B   4      31.201  30.906  13.884  1.00 22.82 LIG-0.65  OA
ATOM     32 OXT  VAL B   4      30.951  29.252  15.217  1.00 22.76 LIG-0.65  OA
ENDBRANCH 26 30
ENDBRANCH 23 26
ENDBRANCH 20 22
ENDBRANCH 3 20
TORSDOF 11
ENDMDL
MODEL 21
USER: ADFR SOLUTION from run 98
USER: SCORE 12.245210 LL:  -2.388 LR: -10.644 RR:   0.000 FEB:  -7.363
USER: RMSD 5.676523
USER: SEED 97
USER: STATUS no improvement in best in 4 clusters for 5 generations
USER: GENES 13
USER: genes 0 Translation |==|  0.59996 0.69470 0.32276
USER: genes 1 Rotation |==|  0.41745 0.78982 0.11623 0.60913
USER: genes 2 Torsion [N]-C--CA-[N] |==|  0.94215
USER: genes 3 Torsion [C]-CA--CB-[CG1] |==|  0.29061
USER: genes 4 Torsion [CA]-CB--CG1-[CD1] |==|  0.55996
USER: genes 5 Torsion [C]-CA--N-[C] |==|  0.81641
USER: genes 6 Torsion [N]-C--CA-[N] |==|  0.26686
USER: genes 7 Torsion [C]-CA--N-[H1] |==|  0.54906
USER: genes 8 Torsion [C]-N--CA-[CB] |==|  0.80150
USER: genes 9 Torsion [N]-CA--C-[N] |==|  0.58886
USER: genes 10 Torsion [C]-N--CA-[CB] |==|  0.87806
USER: genes 11 Torsion [N]-CA--CB-[CG2] |==|  0.80595
USER: genes 12 Torsion [N]-CA--C-[O] |==|  0.33700
ROOT
ATOM      1  C   ILE B   2      29.761  37.899   8.857  1.00 15.80 LIG 0.24  C 
ATOM      2 O    ILE B   2      30.783  37.254   8.632  1.00 15.82 LIG-0.27  OA
ATOM      3  N   ALA B   3      29.264  38.069  10.076  1.00 15.83 LIG-0.35  N 
ATOM      4 H    ALA B   3      28.573  38.551  10.250  1.00 15.83 LIG 0.16  HD
ENDROOT
BRANCH 1 5
ATOM      5  CA  ILE B   2      28.944  38.525   7.743  1.00 17.33 LIG 0.18  C 
BRANCH 5 6
ATOM      6  CB  ILE B   2      29.624  39.791   7.194  1.00 21.75 LIG 0.01  C 
ATOM      7  CG2 ILE B   2      30.640  40.328   8.192  1.00 23.79 LIG 0.01  C 
BRANCH 6 8
ATOM      8  CG1 ILE B   2      30.262  39.526   5.861  1.00 23.11 LIG 0.00  C 
ATOM      9  CD1 ILE B   2      31.359  40.529   5.521  1.00 27.15 LIG 0.01  C 
ENDBRANCH 6 8
ENDBRANCH 5 6
BRANCH 5 10
ATOM     10  N   ILE B   2      27.573  38.745   8.187  1.00 15.33 LIG-0.35  N 
ATOM     11  C   ALA B   1      26.780  37.716   8.465  1.00 14.45 LIG 0.25  C 
ATOM     12 O    ALA B   1      27.086  36.541   8.315  1.00 16.00 LIG-0.27  OA
ATOM     13 H    ILE B   2      27.340  39.570   8.248  1.00 15.33 LIG 0.16  HD
BRANCH 11 14
ATOM     14  CA  ALA B   1      25.403  38.049   9.042  1.00 14.39 LIG 0.27  C 
ATOM     15  CB  ALA B   1      25.004  37.023  10.103  1.00 14.30 LIG 0.05  C 
BRANCH 14 16
ATOM     16  N   ALA B   1      24.433  38.061   7.932  1.00 15.51 LIG-0.07  N 
ATOM     17 H3   ALA B   1      24.225  37.225   7.710  1.00 15.51 LIG 0.28  HD
ATOM     18 H2   ALA B   1      24.791  38.473   7.229  1.00 15.51 LIG 0.28  HD
ATOM     19 H1   ALA B   1      23.696  38.493   8.185  1.00 15.51 LIG 0.28  HD
ENDBRANCH 14 16
ENDBRANCH 11 14
ENDBRANCH 5 10
ENDBRANCH 1 5
BRANCH 3 20
ATOM     20  CA  ALA B   3      29.872  37.429  11.251  1.00 17.37 LIG 0.17  C 
ATOM     21  CB  ALA B   3      29.621  35.927  11.255  1.00 18.86 LIG 0.04  C 
BRANCH 20 22
ATOM     22  C   ALA B   3      31.333  37.683  11.272  1.00 19.46 LIG 0.24  C 
ATOM     23  N   VAL B   4      32.091  36.737  11.794  1.00 19.29 LIG-0.34  N 
ATOM     24 H    VAL B   4      31.776  36.003  12.113  1.00 19.29 LIG 0.16  HD
ATOM     25 O    ALA B   3      31.789  38.729  10.812  1.00 22.03 LIG-0.27  OA
BRANCH 23 26
ATOM     26  CA  VAL B   4      33.549  36.841  11.884  1.00 21.21 LIG 0.19  C 
BRANCH 26 27
ATOM     27  CB  VAL B   4      34.143  37.386  10.573  1.00 21.09 LIG 0.01  C 
ATOM     28  CG2 VAL B   4      34.008  36.342   9.466  1.00 23.07 LIG 0.01  C 
ATOM     29  CG1 VAL B   4      35.597  37.820  10.733  1.00 23.35 LIG 0.01  C 
ENDBRANCH 26 27
BRANCH 26 30
ATOM     30  C   VAL B   4      33.874  37.752  13.057  1.00 22.92 LIG 0.20  C 
ATOM     31 O    VAL B   4      34.564  37.345  13.994  1.00 22.82 LIG-0.65  OA
ATOM     32 OXT  VAL B   4      33.492  38.944  13.061  1.00 22.76 LIG-0.65  OA
ENDBRANCH 26 30
ENDBRANCH 23 26
ENDBRANCH 20 22
ENDBRANCH 3 20
TORSDOF 11
ENDMDL
MODEL 22
USER: ADFR SOLUTION from run 176
USER: SCORE 12.697932 LL:  -2.544 LR: -10.605 RR:   0.000 FEB:  -7.324
USER: RMSD 4.298227
USER: SEED 175
USER: STATUS no improvement in best in 6 clusters for 5 generations
USER: GENES 13
USER: genes 0 Translation |==|  0.42982 0.59327 0.38138
USER: genes 1 Rotation |==|  0.67920 0.30011 0.85098 0.73397
USER: genes 2 Torsion [N]-C--CA-[N] |==|  0.33113
USER: genes 3 Torsion [C]-CA--CB-[CG1] |==|  0.69089
USER: genes 4 Torsion [CA]-CB--CG1-[CD1] |==|  0.21386
USER: genes 5 Torsion [C]-CA--N-[C] |==|  0.74029
USER: genes 6 Torsion [N]-C--CA-[N] |==|  0.16653
USER: genes 7 Torsion [C]-CA--N-[H1] |==|  0.71506
USER: genes 8 Torsion [C]-N--CA-[CB] |==|  0.50556
USER: genes 9 Torsion [N]-CA--C-[N] |==|  0.43353
USER: genes 10 Torsion [C]-N--CA-[CB] |==|  0.27917
USER: genes 11 Torsion [N]-CA--CB-[CG2] |==|  0.21074
USER: genes 12 Torsion [N]-CA--C-[O] |==|  0.00012
ROOT
ATOM      1  C   ILE B   2      27.082  36.225  10.000  1.00 15.80 LIG 0.24  C 
ATOM      2 O    ILE B   2      26.886  35.023   9.836  1.00 15.82 LIG-0.27  OA
ATOM      3  N   ALA B   3      28.184  36.712  10.558  1.00 15.83 LIG-0.35  N 
ATOM      4 H    ALA B   3      28.350  37.551  10.641  1.00 15.83 LIG 0.16  HD
ENDROOT
BRANCH 1 5
ATOM      5  CA  ILE B   2      26.049  37.268   9.616  1.00 17.33 LIG 0.18  C 
BRANCH 5 6
ATOM      6  CB  ILE B   2      24.770  37.124  10.459  1.00 21.75 LIG 0.01  C 
ATOM      7  CG2 ILE B   2      24.437  38.436  11.156  1.00 23.79 LIG 0.01  C 
BRANCH 6 8
ATOM      8  CG1 ILE B   2      23.620  36.651   9.618  1.00 23.11 LIG 0.00  C 
ATOM      9  CD1 ILE B   2      23.687  35.158   9.313  1.00 27.15 LIG 0.01  C 
ENDBRANCH 6 8
ENDBRANCH 5 6
BRANCH 5 10
ATOM     10  N   ILE B   2      25.808  37.233   8.179  1.00 15.33 LIG-0.35  N 
ATOM     11  C   ALA B   1      26.482  38.035   7.362  1.00 14.45 LIG 0.25  C 
ATOM     12 O    ALA B   1      27.281  38.888   7.726  1.00 16.00 LIG-0.27  OA
ATOM     13 H    ILE B   2      25.213  36.668   7.925  1.00 15.33 LIG 0.16  HD
BRANCH 11 14
ATOM     14  CA  ALA B   1      26.249  37.837   5.863  1.00 14.39 LIG 0.27  C 
ATOM     15  CB  ALA B   1      27.116  38.802   5.055  1.00 14.30 LIG 0.05  C 
BRANCH 14 16
ATOM     16  N   ALA B   1      24.818  38.061   5.589  1.00 15.51 LIG-0.07  N 
ATOM     17 H3   ALA B   1      24.729  38.543   4.846  1.00 15.51 LIG 0.28  HD
ATOM     18 H2   ALA B   1      24.450  38.498   6.271  1.00 15.51 LIG 0.28  HD
ATOM     19 H1   ALA B   1      24.409  37.277   5.485  1.00 15.51 LIG 0.28  HD
ENDBRANCH 14 16
ENDBRANCH 11 14
ENDBRANCH 5 10
ENDBRANCH 1 5
BRANCH 3 20
ATOM     20  CA  ALA B   3      29.231  35.828  11.091  1.00 17.37 LIG 0.17  C 
ATOM     21  CB  ALA B   3      30.364  36.629  11.720  1.00 18.86 LIG 0.04  C 
BRANCH 20 22
ATOM     22  C   ALA B   3      28.658  34.909  12.104  1.00 19.46 LIG 0.24  C 
ATOM     23  N   VAL B   4      29.305  33.777  12.310  1.00 19.29 LIG-0.34  N 
ATOM     24 H    VAL B   4      30.024  33.562  11.890  1.00 19.29 LIG 0.16  HD
ATOM     25 O    ALA B   3      27.632  35.215  12.711  1.00 22.03 LIG-0.27  OA
BRANCH 23 26
ATOM     26  CA  VAL B   4      28.864  32.771  13.278  1.00 21.21 LIG 0.19  C 
BRANCH 26 27
ATOM     27  CB  VAL B   4      28.129  31.616  12.573  1.00 21.09 LIG 0.01  C 
ATOM     28  CG2 VAL B   4      29.138  30.707  11.873  1.00 23.07 LIG 0.01  C 
ATOM     29  CG1 VAL B   4      27.077  32.116  11.588  1.00 23.35 LIG 0.01  C 
ENDBRANCH 26 27
BRANCH 26 30
ATOM     30  C   VAL B   4      30.096  32.270  14.015  1.00 22.92 LIG 0.20  C 
ATOM     31 O    VAL B   4      31.212  32.720  13.746  1.00 22.82 LIG-0.65  OA
ATOM     32 OXT  VAL B   4      29.988  31.436  14.942  1.00 22.76 LIG-0.65  OA
ENDBRANCH 26 30
ENDBRANCH 23 26
ENDBRANCH 20 22
ENDBRANCH 3 20
TORSDOF 11
ENDMDL
MODEL 23
USER: ADFR SOLUTION from run 157
USER: SCORE 12.303418 LL:  -2.902 LR: -10.534 RR:   0.000 FEB:  -7.252
USER: RMSD 4.175288
USER: SEED 156
USER: STATUS searching
USER: GENES 13
USER: genes 0 Translation |==|  0.51071 0.53223 0.47226
USER: genes 1 Rotation |==|  0.41799 0.47631 0.77323 0.90995
USER: genes 2 Torsion [N]-C--CA-[N] |==|  0.61109
USER: genes 3 Torsion [C]-CA--CB-[CG1] |==|  0.74148
USER: genes 4 Torsion [CA]-CB--CG1-[CD1] |==|  0.21078
USER: genes 5 Torsion [C]-CA--N-[C] |==|  0.58057
USER: genes 6 Torsion [N]-C--CA-[N] |==|  0.47156
USER: genes 7 Torsion [C]-CA--N-[H1] |==|  0.96892
USER: genes 8 Torsion [C]-N--CA-[CB] |==|  0.17418
USER: genes 9 Torsion [N]-CA--C-[N] |==|  0.09759
USER: genes 10 Torsion [C]-N--CA-[CB] |==|  0.37131
USER: genes 11 Torsion [N]-CA--CB-[CG2] |==|  0.12365
USER: genes 12 Torsion [N]-CA--C-[O] |==|  0.84563
ROOT
ATOM      1  C   ILE B   2      28.356  35.218  11.772  1.00 15.80 LIG 0.24  C 
ATOM      2 O    ILE B   2      27.441  35.128  12.587  1.00 15.82 LIG-0.27  OA
ATOM      3  N   ALA B   3      29.634  35.062  12.095  1.00 15.83 LIG-0.35  N 
ATOM      4 H    ALA B   3      30.279  35.082  11.528  1.00 15.83 LIG 0.16  HD
ENDROOT
BRANCH 1 5
ATOM      5  CA  ILE B   2      28.106  35.565  10.317  1.00 17.33 LIG 0.18  C 
BRANCH 5 6
ATOM      6  CB  ILE B   2      29.409  35.974   9.608  1.00 21.75 LIG 0.01  C 
ATOM      7  CG2 ILE B   2      29.424  35.462   8.175  1.00 23.79 LIG 0.01  C 
BRANCH 6 8
ATOM      8  CG1 ILE B   2      29.603  37.463   9.653  1.00 23.11 LIG 0.00  C 
ATOM      9  CD1 ILE B   2      30.063  37.957  11.020  1.00 27.15 LIG 0.01  C 
ENDBRANCH 6 8
ENDBRANCH 5 6
BRANCH 5 10
ATOM     10  N   ILE B   2      27.046  36.561  10.211  1.00 15.33 LIG-0.35  N 
ATOM     11  C   ALA B   1      26.270  36.610   9.134  1.00 14.45 LIG 0.25  C 
ATOM     12 O    ALA B   1      26.409  35.904   8.144  1.00 16.00 LIG-0.27  OA
ATOM     13 H    ILE B   2      26.978  37.090  10.885  1.00 15.33 LIG 0.16  HD
BRANCH 11 14
ATOM     14  CA  ALA B   1      25.110  37.606   9.171  1.00 14.39 LIG 0.27  C 
ATOM     15  CB  ALA B   1      24.057  37.164  10.187  1.00 14.30 LIG 0.05  C 
BRANCH 14 16
ATOM     16  N   ALA B   1      24.533  37.686   7.817  1.00 15.51 LIG-0.07  N 
ATOM     17 H3   ALA B   1      24.444  38.540   7.581  1.00 15.51 LIG 0.28  HD
ATOM     18 H2   ALA B   1      23.735  37.293   7.810  1.00 15.51 LIG 0.28  HD
ATOM     19 H1   ALA B   1      25.071  37.274   7.240  1.00 15.51 LIG 0.28  HD
ENDBRANCH 14 16
ENDBRANCH 11 14
ENDBRANCH 5 10
ENDBRANCH 1 5
BRANCH 3 20
ATOM     20  CA  ALA B   3      30.053  34.836  13.486  1.00 17.37 LIG 0.17  C 
ATOM     21  CB  ALA B   3      29.480  33.535  14.032  1.00 18.86 LIG 0.04  C 
BRANCH 20 22
ATOM     22  C   ALA B   3      31.533  34.796  13.573  1.00 19.46 LIG 0.24  C 
ATOM     23  N   VAL B   4      32.196  35.599  12.762  1.00 19.29 LIG-0.34  N 
ATOM     24 H    VAL B   4      31.811  36.126  12.203  1.00 19.29 LIG 0.16  HD
ATOM     25 O    ALA B   3      32.089  34.047  14.376  1.00 22.03 LIG-0.27  OA
BRANCH 23 26
ATOM     26  CA  VAL B   4      33.659  35.673  12.732  1.00 21.21 LIG 0.19  C 
BRANCH 26 27
ATOM     27  CB  VAL B   4      34.180  35.640  11.284  1.00 21.09 LIG 0.01  C 
ATOM     28  CG2 VAL B   4      33.342  36.570  10.407  1.00 23.07 LIG 0.01  C 
ATOM     29  CG1 VAL B   4      34.200  34.227  10.709  1.00 23.35 LIG 0.01  C 
ENDBRANCH 26 27
BRANCH 26 30
ATOM     30  C   VAL B   4      34.068  36.957  13.435  1.00 22.92 LIG 0.20  C 
ATOM     31 O    VAL B   4      33.622  38.045  13.063  1.00 22.82 LIG-0.65  OA
ATOM     32 OXT  VAL B   4      34.821  36.923  14.434  1.00 22.76 LIG-0.65  OA
ENDBRANCH 26 30
ENDBRANCH 23 26
ENDBRANCH 20 22
ENDBRANCH 3 20
TORSDOF 11
ENDMDL
MODEL 24
USER: ADFR SOLUTION from run 142
USER: SCORE 12.375770 LL:  -2.675 LR: -10.519 RR:   0.000 FEB:  -7.238
USER: RMSD 6.896173
USER: SEED 141
USER: STATUS no improvement in best in 11 clusters for 5 generations
USER: GENES 13
USER: genes 0 Translation |==|  0.41169 0.63410 0.29700
USER: genes 1 Rotation |==|  0.68513 0.22932 0.84918 0.64328
USER: genes 2 Torsion [N]-C--CA-[N] |==|  0.40846
USER: genes 3 Torsion [C]-CA--CB-[CG1] |==|  0.25127
USER: genes 4 Torsion [CA]-CB--CG1-[CD1] |==|  0.64677
USER: genes 5 Torsion [C]-CA--N-[C] |==|  0.81614
USER: genes 6 Torsion [N]-C--CA-[N] |==|  0.03201
USER: genes 7 Torsion [C]-CA--N-[H1] |==|  0.68732
USER: genes 8 Torsion [C]-N--CA-[CB] |==|  0.83303
USER: genes 9 Torsion [N]-CA--C-[N] |==|  0.77379
USER: genes 10 Torsion [C]-N--CA-[CB] |==|  0.27932
USER: genes 11 Torsion [N]-CA--CB-[CG2] |==|  0.06813
USER: genes 12 Torsion [N]-CA--C-[O] |==|  0.69041
ROOT
ATOM      1  C   ILE B   2      26.796  36.899   8.354  1.00 15.80 LIG 0.24  C 
ATOM      2 O    ILE B   2      26.886  35.819   7.775  1.00 15.82 LIG-0.27  OA
ATOM      3  N   ALA B   3      27.625  37.275   9.321  1.00 15.83 LIG-0.35  N 
ATOM      4 H    ALA B   3      27.598  38.043   9.706  1.00 15.83 LIG 0.16  HD
ENDROOT
BRANCH 1 5
ATOM      5  CA  ILE B   2      25.689  37.889   8.045  1.00 17.33 LIG 0.18  C 
BRANCH 5 6
ATOM      6  CB  ILE B   2      24.478  37.679   8.970  1.00 21.75 LIG 0.01  C 
ATOM      7  CG2 ILE B   2      24.314  36.206   9.314  1.00 23.79 LIG 0.01  C 
BRANCH 6 8
ATOM      8  CG1 ILE B   2      24.596  38.516  10.212  1.00 23.11 LIG 0.00  C 
ATOM      9  CD1 ILE B   2      24.437  37.700  11.490  1.00 27.15 LIG 0.01  C 
ENDBRANCH 6 8
ENDBRANCH 5 6
BRANCH 5 10
ATOM     10  N   ILE B   2      25.356  37.844   6.626  1.00 15.33 LIG-0.35  N 
ATOM     11  C   ALA B   1      26.237  38.237   5.713  1.00 14.45 LIG 0.25  C 
ATOM     12 O    ALA B   1      27.333  38.718   5.965  1.00 16.00 LIG-0.27  OA
ATOM     13 H    ILE B   2      24.567  37.552   6.449  1.00 15.33 LIG 0.16  HD
BRANCH 11 14
ATOM     14  CA  ALA B   1      25.841  38.036   4.249  1.00 14.39 LIG 0.27  C 
ATOM     15  CB  ALA B   1      26.116  39.304   3.442  1.00 14.30 LIG 0.05  C 
BRANCH 14 16
ATOM     16  N   ALA B   1      24.409  37.686   4.207  1.00 15.51 LIG-0.07  N 
ATOM     17 H3   ALA B   1      23.986  38.230   3.644  1.00 15.51 LIG 0.28  HD
ATOM     18 H2   ALA B   1      24.058  37.771   5.020  1.00 15.51 LIG 0.28  HD
ATOM     19 H1   ALA B   1      24.317  36.844   3.931  1.00 15.51 LIG 0.28  HD
ENDBRANCH 14 16
ENDBRANCH 11 14
ENDBRANCH 5 10
ENDBRANCH 1 5
BRANCH 3 20
ATOM     20  CA  ALA B   3      28.681  36.382   9.819  1.00 17.37 LIG 0.17  C 
ATOM     21  CB  ALA B   3      28.095  35.098  10.392  1.00 18.86 LIG 0.04  C 
BRANCH 20 22
ATOM     22  C   ALA B   3      29.624  36.046   8.726  1.00 19.46 LIG 0.24  C 
ATOM     23  N   VAL B   4      29.256  35.085   7.900  1.00 19.29 LIG-0.34  N 
ATOM     24 H    VAL B   4      28.511  34.661   7.973  1.00 19.29 LIG 0.16  HD
ATOM     25 O    ALA B   3      30.688  36.654   8.613  1.00 22.03 LIG-0.27  OA
BRANCH 23 26
ATOM     26  CA  VAL B   4      30.078  34.642   6.772  1.00 21.21 LIG 0.19  C 
BRANCH 26 27
ATOM     27  CB  VAL B   4      30.829  33.343   7.116  1.00 21.09 LIG 0.01  C 
ATOM     28  CG2 VAL B   4      30.083  32.586   8.214  1.00 23.07 LIG 0.01  C 
ATOM     29  CG1 VAL B   4      32.275  33.603   7.527  1.00 23.35 LIG 0.01  C 
ENDBRANCH 26 27
BRANCH 26 30
ATOM     30  C   VAL B   4      29.156  34.445   5.580  1.00 22.92 LIG 0.20  C 
ATOM     31 O    VAL B   4      28.937  33.314   5.137  1.00 22.82 LIG-0.65  OA
ATOM     32 OXT  VAL B   4      28.563  35.419   5.065  1.00 22.76 LIG-0.65  OA
ENDBRANCH 26 30
ENDBRANCH 23 26
ENDBRANCH 20 22
ENDBRANCH 3 20
TORSDOF 11
ENDMDL
MODEL 25
USER: ADFR SOLUTION from run 177
USER: SCORE 12.315147 LL:  -2.769 LR: -10.512 RR:   0.000 FEB:  -7.231
USER: RMSD 6.324618
USER: SEED 176
USER: STATUS no improvement in best in 7 clusters for 5 generations
USER: GENES 13
USER: genes 0 Translation |==|  0.41237 0.63004 0.31547
USER: genes 1 Rotation |==|  0.36792 0.84878 0.16706 0.50784
USER: genes 2 Torsion [N]-C--CA-[N] |==|  0.51547
USER: genes 3 Torsion [C]-CA--CB-[CG1] |==|  0.24352
USER: genes 4 Torsion [CA]-CB--CG1-[CD1] |==|  0.68448
USER: genes 5 Torsion [C]-CA--N-[C] |==|  0.75854
USER: genes 6 Torsion [N]-C--CA-[N] |==|  0.16614
USER: genes 7 Torsion [C]-CA--N-[H1] |==|  0.82547
USER: genes 8 Torsion [C]-N--CA-[CB] |==|  0.82520
USER: genes 9 Torsion [N]-CA--C-[N] |==|  0.11667
USER: genes 10 Torsion [C]-N--CA-[CB] |==|  0.33718
USER: genes 11 Torsion [N]-CA--CB-[CG2] |==|  0.08248
USER: genes 12 Torsion [N]-CA--C-[O] |==|  0.09756
ROOT
ATOM      1  C   ILE B   2      26.807  36.832   8.715  1.00 15.80 LIG 0.24  C 
ATOM      2 O    ILE B   2      27.451  36.119   7.949  1.00 15.82 LIG-0.27  OA
ATOM      3  N   ALA B   3      26.944  36.789  10.035  1.00 15.83 LIG-0.35  N 
ATOM      4 H    ALA B   3      26.530  37.310  10.578  1.00 15.83 LIG 0.16  HD
ENDROOT
BRANCH 1 5
ATOM      5  CA  ILE B   2      25.752  37.802   8.217  1.00 17.33 LIG 0.18  C 
BRANCH 5 6
ATOM      6  CB  ILE B   2      24.436  37.646   8.998  1.00 21.75 LIG 0.01  C 
ATOM      7  CG2 ILE B   2      24.188  36.185   9.346  1.00 23.79 LIG 0.01  C 
BRANCH 6 8
ATOM      8  CG1 ILE B   2      24.437  38.504  10.232  1.00 23.11 LIG 0.00  C 
ATOM      9  CD1 ILE B   2      24.437  37.686  11.519  1.00 27.15 LIG 0.01  C 
ENDBRANCH 6 8
ENDBRANCH 5 6
BRANCH 5 10
ATOM     10  N   ILE B   2      25.592  37.674   6.773  1.00 15.33 LIG-0.35  N 
ATOM     11  C   ALA B   1      26.367  38.366   5.945  1.00 14.45 LIG 0.25  C 
ATOM     12 O    ALA B   1      27.200  39.190   6.295  1.00 16.00 LIG-0.27  OA
ATOM     13 H    ILE B   2      24.974  37.131   6.524  1.00 15.33 LIG 0.16  HD
BRANCH 11 14
ATOM     14  CA  ALA B   1      26.207  38.071   4.452  1.00 14.39 LIG 0.27  C 
ATOM     15  CB  ALA B   1      27.181  38.916   3.632  1.00 14.30 LIG 0.05  C 
BRANCH 14 16
ATOM     16  N   ALA B   1      24.812  38.363   4.075  1.00 15.51 LIG-0.07  N 
ATOM     17 H3   ALA B   1      24.707  38.237   3.200  1.00 15.51 LIG 0.28  HD
ATOM     18 H2   ALA B   1      24.621  39.208   4.277  1.00 15.51 LIG 0.28  HD
ATOM     19 H1   ALA B   1      24.264  37.821   4.520  1.00 15.51 LIG 0.28  HD
ENDBRANCH 14 16
ENDBRANCH 11 14
ENDBRANCH 5 10
ENDBRANCH 1 5
BRANCH 3 20
ATOM     20  CA  ALA B   3      27.841  35.821  10.683  1.00 17.37 LIG 0.17  C 
ATOM     21  CB  ALA B   3      27.392  34.389  10.421  1.00 18.86 LIG 0.04  C 
BRANCH 20 22
ATOM     22  C   ALA B   3      29.227  35.999  10.190  1.00 19.46 LIG 0.24  C 
ATOM     23  N   VAL B   4      29.653  37.241  10.053  1.00 19.29 LIG-0.34  N 
ATOM     24 H    VAL B   4      29.168  37.928  10.234  1.00 19.29 LIG 0.16  HD
ATOM     25 O    ALA B   3      29.928  35.020   9.934  1.00 22.03 LIG-0.27  OA
BRANCH 23 26
ATOM     26  CA  VAL B   4      30.997  37.578   9.578  1.00 21.21 LIG 0.19  C 
BRANCH 26 27
ATOM     27  CB  VAL B   4      30.929  38.447   8.309  1.00 21.09 LIG 0.01  C 
ATOM     28  CG2 VAL B   4      29.654  39.289   8.322  1.00 23.07 LIG 0.01  C 
ATOM     29  CG1 VAL B   4      31.013  37.614   7.033  1.00 23.35 LIG 0.01  C 
ENDBRANCH 26 27
BRANCH 26 30
ATOM     30  C   VAL B   4      31.714  38.304  10.704  1.00 22.92 LIG 0.20  C 
ATOM     31 O    VAL B   4      31.512  37.992  11.880  1.00 22.82 LIG-0.65  OA
ATOM     32 OXT  VAL B   4      32.560  39.191  10.452  1.00 22.76 LIG-0.65  OA
ENDBRANCH 26 30
ENDBRANCH 23 26
ENDBRANCH 20 22
ENDBRANCH 3 20
TORSDOF 11
ENDMDL
MODEL 26
USER: ADFR SOLUTION from run 68
USER: SCORE 11.687951 LL:  -2.336 LR: -10.513 RR:   0.000 FEB:  -7.231
USER: RMSD 4.277091
USER: SEED 67
USER: STATUS no improvement in best in 11 clusters for 5 generations
USER: GENES 13
USER: genes 0 Translation |==|  0.44340 0.61543 0.33810
USER: genes 1 Rotation |==|  0.56473 0.09112 0.76780 0.58313
USER: genes 2 Torsion [N]-C--CA-[N] |==|  0.31667
USER: genes 3 Torsion [C]-CA--CB-[CG1] |==|  0.12664
USER: genes 4 Torsion [CA]-CB--CG1-[CD1] |==|  0.18590
USER: genes 5 Torsion [C]-CA--N-[C] |==|  0.85342
USER: genes 6 Torsion [N]-C--CA-[N] |==|  0.12636
USER: genes 7 Torsion [C]-CA--N-[H1] |==|  0.04205
USER: genes 8 Torsion [C]-N--CA-[CB] |==|  0.16578
USER: genes 9 Torsion [N]-CA--C-[N] |==|  0.56435
USER: genes 10 Torsion [C]-N--CA-[CB] |==|  0.39170
USER: genes 11 Torsion [N]-CA--CB-[CG2] |==|  0.91798
USER: genes 12 Torsion [N]-CA--C-[O] |==|  0.85263
ROOT
ATOM      1  C   ILE B   2      27.295  36.591   9.156  1.00 15.80 LIG 0.24  C 
ATOM      2 O    ILE B   2      27.447  35.906   8.147  1.00 15.82 LIG-0.27  OA
ATOM      3  N   ALA B   3      27.499  36.128  10.384  1.00 15.83 LIG-0.35  N 
ATOM      4 H    ALA B   3      27.436  36.608  11.095  1.00 15.83 LIG 0.16  HD
ENDROOT
BRANCH 1 5
ATOM      5  CA  ILE B   2      26.812  38.027   9.090  1.00 17.33 LIG 0.18  C 
BRANCH 5 6
ATOM      6  CB  ILE B   2      25.431  38.121   8.418  1.00 21.75 LIG 0.01  C 
ATOM      7  CG2 ILE B   2      25.561  38.017   6.906  1.00 23.79 LIG 0.01  C 
BRANCH 6 8
ATOM      8  CG1 ILE B   2      24.498  37.073   8.955  1.00 23.11 LIG 0.00  C 
ATOM      9  CD1 ILE B   2      24.138  37.298  10.420  1.00 27.15 LIG 0.01  C 
ENDBRANCH 6 8
ENDBRANCH 5 6
BRANCH 5 10
ATOM     10  N   ILE B   2      27.823  38.871   8.464  1.00 15.33 LIG-0.35  N 
ATOM     11  C   ALA B   1      29.073  38.872   8.915  1.00 14.45 LIG 0.25  C 
ATOM     12 O    ALA B   1      29.461  38.251   9.895  1.00 16.00 LIG-0.27  OA
ATOM     13 H    ILE B   2      27.542  39.345   7.805  1.00 15.33 LIG 0.16  HD
BRANCH 11 14
ATOM     14  CA  ALA B   1      30.087  39.694   8.117  1.00 14.39 LIG 0.27  C 
ATOM     15  CB  ALA B   1      31.380  39.867   8.912  1.00 14.30 LIG 0.05  C 
BRANCH 14 16
ATOM     16  N   ALA B   1      29.478  41.002   7.813  1.00 15.51 LIG-0.07  N 
ATOM     17 H3   ALA B   1      29.234  41.025   6.957  1.00 15.51 LIG 0.28  HD
ATOM     18 H2   ALA B   1      30.069  41.648   7.969  1.00 15.51 LIG 0.28  HD
ATOM     19 H1   ALA B   1      28.762  41.123   8.329  1.00 15.51 LIG 0.28  HD
ENDBRANCH 14 16
ENDBRANCH 11 14
ENDBRANCH 5 10
ENDBRANCH 1 5
BRANCH 3 20
ATOM     20  CA  ALA B   3      27.858  34.724  10.627  1.00 17.37 LIG 0.17  C 
ATOM     21  CB  ALA B   3      29.159  34.356   9.925  1.00 18.86 LIG 0.04  C 
BRANCH 20 22
ATOM     22  C   ALA B   3      27.999  34.477  12.082  1.00 19.46 LIG 0.24  C 
ATOM     23  N   VAL B   4      28.750  33.451  12.440  1.00 19.29 LIG-0.34  N 
ATOM     24 H    VAL B   4      29.146  32.938  11.875  1.00 19.29 LIG 0.16  HD
ATOM     25 O    ALA B   3      27.438  35.211  12.895  1.00 22.03 LIG-0.27  OA
BRANCH 23 26
ATOM     26  CA  VAL B   4      28.985  33.082  13.837  1.00 21.21 LIG 0.19  C 
BRANCH 26 27
ATOM     27  CB  VAL B   4      28.988  31.552  14.007  1.00 21.09 LIG 0.01  C 
ATOM     28  CG2 VAL B   4      28.077  30.910  12.961  1.00 23.07 LIG 0.01  C 
ATOM     29  CG1 VAL B   4      28.579  31.126  15.414  1.00 23.35 LIG 0.01  C 
ENDBRANCH 26 27
BRANCH 26 30
ATOM     30  C   VAL B   4      30.316  33.684  14.254  1.00 22.92 LIG 0.20  C 
ATOM     31 O    VAL B   4      31.334  33.477  13.589  1.00 22.82 LIG-0.65  OA
ATOM     32 OXT  VAL B   4      30.388  34.444  15.247  1.00 22.76 LIG-0.65  OA
ENDBRANCH 26 30
ENDBRANCH 23 26
ENDBRANCH 20 22
ENDBRANCH 3 20
TORSDOF 11
ENDMDL
MODEL 27
USER: ADFR SOLUTION from run 7
USER: SCORE 12.604541 LL:  -2.753 LR: -10.445 RR:   0.000 FEB:  -7.163
USER: RMSD 2.905603
USER: SEED 392228
USER: STATUS no improvement in best in 4 clusters for 5 generations
USER: GENES 13
USER: genes 0 Translation |==|  0.54297 0.59112 0.39813
USER: genes 1 Rotation |==|  0.60683 0.83898 0.16851 0.61746
USER: genes 2 Torsion [N]-C--CA-[N] |==|  0.93120
USER: genes 3 Torsion [C]-CA--CB-[CG1] |==|  0.40460
USER: genes 4 Torsion [CA]-CB--CG1-[CD1] |==|  0.17029
USER: genes 5 Torsion [C]-CA--N-[C] |==|  0.80439
USER: genes 6 Torsion [N]-C--CA-[N] |==|  0.40908
USER: genes 7 Torsion [C]-CA--N-[H1] |==|  0.06151
USER: genes 8 Torsion [C]-N--CA-[CB] |==|  0.88872
USER: genes 9 Torsion [N]-CA--C-[N] |==|  0.82570
USER: genes 10 Torsion [C]-N--CA-[CB] |==|  0.20801
USER: genes 11 Torsion [N]-CA--CB-[CG2] |==|  0.07865
USER: genes 12 Torsion [N]-CA--C-[O] |==|  0.93086
ROOT
ATOM      1  C   ILE B   2      28.864  36.189  10.327  1.00 15.80 LIG 0.24  C 
ATOM      2 O    ILE B   2      29.629  35.234  10.225  1.00 15.82 LIG-0.27  OA
ATOM      3  N   ALA B   3      27.823  36.202  11.152  1.00 15.83 LIG-0.35  N 
ATOM      4 H    ALA B   3      27.305  36.879  11.261  1.00 15.83 LIG 0.16  HD
ENDROOT
BRANCH 1 5
ATOM      5  CA  ILE B   2      29.015  37.436   9.475  1.00 17.33 LIG 0.18  C 
BRANCH 5 6
ATOM      6  CB  ILE B   2      30.114  38.360  10.027  1.00 21.75 LIG 0.01  C 
ATOM      7  CG2 ILE B   2      31.082  37.578  10.903  1.00 23.79 LIG 0.01  C 
BRANCH 6 8
ATOM      8  CG1 ILE B   2      30.837  39.063   8.914  1.00 23.11 LIG 0.00  C 
ATOM      9  CD1 ILE B   2      29.919  39.953   8.083  1.00 27.15 LIG 0.01  C 
ENDBRANCH 6 8
ENDBRANCH 5 6
BRANCH 5 10
ATOM     10  N   ILE B   2      27.724  38.095   9.313  1.00 15.33 LIG-0.35  N 
ATOM     11  C   ALA B   1      26.775  37.544   8.565  1.00 14.45 LIG 0.25  C 
ATOM     12 O    ALA B   1      26.909  36.517   7.914  1.00 16.00 LIG-0.27  OA
ATOM     13 H    ILE B   2      27.644  38.841   9.731  1.00 15.33 LIG 0.16  HD
BRANCH 11 14
ATOM     14  CA  ALA B   1      25.416  38.247   8.558  1.00 14.39 LIG 0.27  C 
ATOM     15  CB  ALA B   1      24.512  37.677   9.650  1.00 14.30 LIG 0.05  C 
BRANCH 14 16
ATOM     16  N   ALA B   1      24.812  38.061   7.226  1.00 15.51 LIG-0.07  N 
ATOM     17 H3   ALA B   1      24.962  38.783   6.727  1.00 15.51 LIG 0.28  HD
ATOM     18 H2   ALA B   1      23.935  37.938   7.312  1.00 15.51 LIG 0.28  HD
ATOM     19 H1   ALA B   1      25.174  37.349   6.832  1.00 15.51 LIG 0.28  HD
ENDBRANCH 14 16
ENDBRANCH 11 14
ENDBRANCH 5 10
ENDBRANCH 1 5
BRANCH 3 20
ATOM     20  CA  ALA B   3      27.470  35.027  11.962  1.00 17.37 LIG 0.17  C 
ATOM     21  CB  ALA B   3      27.638  33.738  11.168  1.00 18.86 LIG 0.04  C 
BRANCH 20 22
ATOM     22  C   ALA B   3      28.318  34.971  13.176  1.00 19.46 LIG 0.24  C 
ATOM     23  N   VAL B   4      29.617  34.828  12.986  1.00 19.29 LIG-0.34  N 
ATOM     24 H    VAL B   4      29.975  34.769  12.206  1.00 19.29 LIG 0.16  HD
ATOM     25 O    ALA B   3      27.812  35.061  14.294  1.00 22.03 LIG-0.27  OA
BRANCH 23 26
ATOM     26  CA  VAL B   4      30.582  34.757  14.084  1.00 21.21 LIG 0.19  C 
BRANCH 26 27
ATOM     27  CB  VAL B   4      30.520  33.387  14.783  1.00 21.09 LIG 0.01  C 
ATOM     28  CG2 VAL B   4      30.057  32.319  13.793  1.00 23.07 LIG 0.01  C 
ATOM     29  CG1 VAL B   4      29.620  33.407  16.016  1.00 23.35 LIG 0.01  C 
ENDBRANCH 26 27
BRANCH 26 30
ATOM     30  C   VAL B   4      31.962  35.015  13.502  1.00 22.92 LIG 0.20  C 
ATOM     31 O    VAL B   4      32.194  34.784  12.312  1.00 22.82 LIG-0.65  OA
ATOM     32 OXT  VAL B   4      32.867  35.516  14.206  1.00 22.76 LIG-0.65  OA
ENDBRANCH 26 30
ENDBRANCH 23 26
ENDBRANCH 20 22
ENDBRANCH 3 20
TORSDOF 11
ENDMDL
MODEL 28
USER: ADFR SOLUTION from run 35
USER: SCORE 11.892169 LL:  -2.295 LR: -10.405 RR:   0.000 FEB:  -7.124
USER: RMSD 7.670401
USER: SEED 34
USER: STATUS no improvement in best in 8 clusters for 5 generations
USER: GENES 13
USER: genes 0 Translation |==|  0.49014 0.60829 0.32670
USER: genes 1 Rotation |==|  0.56678 0.82288 0.65319 0.84325
USER: genes 2 Torsion [N]-C--CA-[N] |==|  0.91293
USER: genes 3 Torsion [C]-CA--CB-[CG1] |==|  0.45892
USER: genes 4 Torsion [CA]-CB--CG1-[CD1] |==|  0.96949
USER: genes 5 Torsion [C]-CA--N-[C] |==|  0.83814
USER: genes 6 Torsion [N]-C--CA-[N] |==|  0.11584
USER: genes 7 Torsion [C]-CA--N-[H1] |==|  0.73785
USER: genes 8 Torsion [C]-N--CA-[CB] |==|  0.21667
USER: genes 9 Torsion [N]-CA--C-[N] |==|  0.55076
USER: genes 10 Torsion [C]-N--CA-[CB] |==|  0.52647
USER: genes 11 Torsion [N]-CA--CB-[CG2] |==|  0.43799
USER: genes 12 Torsion [N]-CA--C-[O] |==|  0.86724
ROOT
ATOM      1  C   ILE B   2      28.032  36.473   8.934  1.00 15.80 LIG 0.24  C 
ATOM      2 O    ILE B   2      28.868  36.766   9.785  1.00 15.82 LIG-0.27  OA
ATOM      3  N   ALA B   3      28.287  35.661   7.914  1.00 15.83 LIG-0.35  N 
ATOM      4 H    ALA B   3      27.700  35.417   7.336  1.00 15.83 LIG 0.16  HD
ENDROOT
BRANCH 1 5
ATOM      5  CA  ILE B   2      26.631  37.055   8.947  1.00 17.33 LIG 0.18  C 
BRANCH 5 6
ATOM      6  CB  ILE B   2      25.691  36.228   9.841  1.00 21.75 LIG 0.01  C 
ATOM      7  CG2 ILE B   2      26.398  35.811  11.122  1.00 23.79 LIG 0.01  C 
BRANCH 6 8
ATOM      8  CG1 ILE B   2      24.428  36.985  10.142  1.00 23.11 LIG 0.00  C 
ATOM      9  CD1 ILE B   2      24.505  38.450   9.724  1.00 27.15 LIG 0.01  C 
ENDBRANCH 6 8
ENDBRANCH 5 6
BRANCH 5 10
ATOM     10  N   ILE B   2      26.142  37.224   7.584  1.00 15.33 LIG-0.35  N 
ATOM     11  C   ALA B   1      26.807  37.980   6.718  1.00 14.45 LIG 0.25  C 
ATOM     12 O    ALA B   1      27.806  38.633   6.986  1.00 16.00 LIG-0.27  OA
ATOM     13 H    ILE B   2      25.414  36.804   7.406  1.00 15.33 LIG 0.16  HD
BRANCH 11 14
ATOM     14  CA  ALA B   1      26.284  37.994   5.280  1.00 14.39 LIG 0.27  C 
ATOM     15  CB  ALA B   1      26.857  39.186   4.514  1.00 14.30 LIG 0.05  C 
BRANCH 14 16
ATOM     16  N   ALA B   1      24.812  38.061   5.330  1.00 15.51 LIG-0.07  N 
ATOM     17 H3   ALA B   1      24.513  38.545   4.645  1.00 15.51 LIG 0.28  HD
ATOM     18 H2   ALA B   1      24.558  38.440   6.093  1.00 15.51 LIG 0.28  HD
ATOM     19 H1   ALA B   1      24.475  37.238   5.281  1.00 15.51 LIG 0.28  HD
ENDBRANCH 14 16
ENDBRANCH 11 14
ENDBRANCH 5 10
ENDBRANCH 1 5
BRANCH 3 20
ATOM     20  CA  ALA B   3      29.629  35.105   7.691  1.00 17.37 LIG 0.17  C 
ATOM     21  CB  ALA B   3      29.910  33.944   8.636  1.00 18.86 LIG 0.04  C 
BRANCH 20 22
ATOM     22  C   ALA B   3      29.764  34.641   6.289  1.00 19.46 LIG 0.24  C 
ATOM     23  N   VAL B   4      30.748  33.798   6.036  1.00 19.29 LIG-0.34  N 
ATOM     24 H    VAL B   4      31.295  33.519   6.638  1.00 19.29 LIG 0.16  HD
ATOM     25 O    ALA B   3      28.980  35.033   5.426  1.00 22.03 LIG-0.27  OA
BRANCH 23 26
ATOM     26  CA  VAL B   4      31.007  33.250   4.703  1.00 21.21 LIG 0.19  C 
BRANCH 26 27
ATOM     27  CB  VAL B   4      32.057  32.126   4.766  1.00 21.09 LIG 0.01  C 
ATOM     28  CG2 VAL B   4      31.921  31.218   3.545  1.00 23.07 LIG 0.01  C 
ATOM     29  CG1 VAL B   4      31.961  31.316   6.056  1.00 23.35 LIG 0.01  C 
ENDBRANCH 26 27
BRANCH 26 30
ATOM     30  C   VAL B   4      29.687  32.739   4.151  1.00 22.92 LIG 0.20  C 
ATOM     31 O    VAL B   4      28.953  32.026   4.839  1.00 22.82 LIG-0.65  OA
ATOM     32 OXT  VAL B   4      29.300  33.079   3.010  1.00 22.76 LIG-0.65  OA
ENDBRANCH 26 30
ENDBRANCH 23 26
ENDBRANCH 20 22
ENDBRANCH 3 20
TORSDOF 11
ENDMDL
MODEL 29
USER: ADFR SOLUTION from run 69
USER: SCORE 12.174880 LL:  -2.604 LR: -10.404 RR:   0.000 FEB:  -7.123
USER: RMSD 5.968913
USER: SEED 68
USER: STATUS no improvement in best in 6 clusters for 5 generations
USER: GENES 13
USER: genes 0 Translation |==|  0.36262 0.68550 0.26977
USER: genes 1 Rotation |==|  0.38248 0.19247 0.86649 0.58542
USER: genes 2 Torsion [N]-C--CA-[N] |==|  0.17010
USER: genes 3 Torsion [C]-CA--CB-[CG1] |==|  0.54044
USER: genes 4 Torsion [CA]-CB--CG1-[CD1] |==|  0.66138
USER: genes 5 Torsion [C]-CA--N-[C] |==|  0.17778
USER: genes 6 Torsion [N]-C--CA-[N] |==|  0.00842
USER: genes 7 Torsion [C]-CA--N-[H1] |==|  0.13740
USER: genes 8 Torsion [C]-N--CA-[CB] |==|  0.79586
USER: genes 9 Torsion [N]-CA--C-[N] |==|  0.21816
USER: genes 10 Torsion [C]-N--CA-[CB] |==|  0.36643
USER: genes 11 Torsion [N]-CA--CB-[CG2] |==|  0.12172
USER: genes 12 Torsion [N]-CA--C-[O] |==|  0.35822
ROOT
ATOM      1  C   ILE B   2      26.023  37.747   7.824  1.00 15.80 LIG 0.24  C 
ATOM      2 O    ILE B   2      25.938  36.559   7.522  1.00 15.82 LIG-0.27  OA
ATOM      3  N   ALA B   3      25.728  38.212   9.032  1.00 15.83 LIG-0.35  N 
ATOM      4 H    ALA B   3      25.823  39.034   9.267  1.00 15.83 LIG 0.16  HD
ENDROOT
BRANCH 1 5
ATOM      5  CA  ILE B   2      26.434  38.805   6.817  1.00 17.33 LIG 0.18  C 
BRANCH 5 6
ATOM      6  CB  ILE B   2      26.560  38.213   5.403  1.00 21.75 LIG 0.01  C 
ATOM      7  CG2 ILE B   2      25.188  37.864   4.844  1.00 23.79 LIG 0.01  C 
BRANCH 6 8
ATOM      8  CG1 ILE B   2      27.294  39.151   4.489  1.00 23.11 LIG 0.00  C 
ATOM      9  CD1 ILE B   2      26.473  39.546   3.266  1.00 27.15 LIG 0.01  C 
ENDBRANCH 6 8
ENDBRANCH 5 6
BRANCH 5 10
ATOM     10  N   ILE B   2      27.637  39.492   7.272  1.00 15.33 LIG-0.35  N 
ATOM     11  C   ALA B   1      28.782  38.832   7.403  1.00 14.45 LIG 0.25  C 
ATOM     12 O    ALA B   1      28.915  37.628   7.232  1.00 16.00 LIG-0.27  OA
ATOM     13 H    ILE B   2      27.535  40.329   7.439  1.00 15.33 LIG 0.16  HD
BRANCH 11 14
ATOM     14  CA  ALA B   1      30.014  39.664   7.765  1.00 14.39 LIG 0.27  C 
ATOM     15  CB  ALA B   1      30.674  39.120   9.031  1.00 14.30 LIG 0.05  C 
BRANCH 14 16
ATOM     16  N   ALA B   1      29.582  41.061   7.956  1.00 15.51 LIG-0.07  N 
ATOM     17 H3   ALA B   1      29.360  41.413   7.169  1.00 15.51 LIG 0.28  HD
ATOM     18 H2   ALA B   1      30.248  41.531   8.313  1.00 15.51 LIG 0.28  HD
ATOM     19 H1   ALA B   1      28.878  41.082   8.500  1.00 15.51 LIG 0.28  HD
ENDBRANCH 14 16
ENDBRANCH 11 14
ENDBRANCH 5 10
ENDBRANCH 1 5
BRANCH 3 20
ATOM     20  CA  ALA B   3      25.204  37.333  10.087  1.00 17.37 LIG 0.17  C 
ATOM     21  CB  ALA B   3      23.753  36.953   9.819  1.00 18.86 LIG 0.04  C 
BRANCH 20 22
ATOM     22  C   ALA B   3      26.025  36.103  10.182  1.00 19.46 LIG 0.24  C 
ATOM     23  N   VAL B   4      27.177  36.206  10.818  1.00 19.29 LIG-0.34  N 
ATOM     24 H    VAL B   4      27.457  36.940  11.168  1.00 19.29 LIG 0.16  HD
ATOM     25 O    ALA B   3      25.626  35.048   9.688  1.00 22.03 LIG-0.27  OA
BRANCH 23 26
ATOM     26  CA  VAL B   4      28.096  35.080  10.995  1.00 21.21 LIG 0.19  C 
BRANCH 26 27
ATOM     27  CB  VAL B   4      29.534  35.481  10.619  1.00 21.09 LIG 0.01  C 
ATOM     28  CG2 VAL B   4      29.860  36.856  11.200  1.00 23.07 LIG 0.01  C 
ATOM     29  CG1 VAL B   4      29.763  35.463   9.111  1.00 23.35 LIG 0.01  C 
ENDBRANCH 26 27
BRANCH 26 30
ATOM     30  C   VAL B   4      28.010  34.640  12.447  1.00 22.92 LIG 0.20  C 
ATOM     31 O    VAL B   4      27.820  33.455  12.732  1.00 22.82 LIG-0.65  OA
ATOM     32 OXT  VAL B   4      28.185  35.462  13.374  1.00 22.76 LIG-0.65  OA
ENDBRANCH 26 30
ENDBRANCH 23 26
ENDBRANCH 20 22
ENDBRANCH 3 20
TORSDOF 11
ENDMDL
MODEL 30
USER: ADFR SOLUTION from run 81
USER: SCORE 12.161869 LL:  -2.658 LR: -10.307 RR:   0.000 FEB:  -7.025
USER: RMSD 5.358710
USER: SEED 80
USER: STATUS no improvement in best in 6 clusters for 5 generations
USER: GENES 13
USER: genes 0 Translation |==|  0.46859 0.70591 0.31225
USER: genes 1 Rotation |==|  0.61245 0.63298 0.12774 0.78477
USER: genes 2 Torsion [N]-C--CA-[N] |==|  0.98531
USER: genes 3 Torsion [C]-CA--CB-[CG1] |==|  0.50757
USER: genes 4 Torsion [CA]-CB--CG1-[CD1] |==|  0.85560
USER: genes 5 Torsion [C]-CA--N-[C] |==|  0.72650
USER: genes 6 Torsion [N]-C--CA-[N] |==|  0.81202
USER: genes 7 Torsion [C]-CA--N-[H1] |==|  0.51964
USER: genes 8 Torsion [C]-N--CA-[CB] |==|  0.51241
USER: genes 9 Torsion [N]-CA--C-[N] |==|  0.26169
USER: genes 10 Torsion [C]-N--CA-[CB] |==|  0.15410
USER: genes 11 Torsion [N]-CA--CB-[CG2] |==|  0.51207
USER: genes 12 Torsion [N]-CA--C-[O] |==|  0.93710
ROOT
ATOM      1  C   ILE B   2      27.692  38.083   8.652  1.00 15.80 LIG 0.24  C 
ATOM      2 O    ILE B   2      28.290  37.720   9.662  1.00 15.82 LIG-0.27  OA
ATOM      3  N   ALA B   3      26.368  38.147   8.575  1.00 15.83 LIG-0.35  N 
ATOM      4 H    ALA B   3      25.940  38.438   7.888  1.00 15.83 LIG 0.16  HD
ENDROOT
BRANCH 1 5
ATOM      5  CA  ILE B   2      28.422  38.451   7.374  1.00 17.33 LIG 0.18  C 
BRANCH 5 6
ATOM      6  CB  ILE B   2      29.386  39.628   7.600  1.00 21.75 LIG 0.01  C 
ATOM      7  CG2 ILE B   2      30.412  39.284   8.670  1.00 23.79 LIG 0.01  C 
BRANCH 6 8
ATOM      8  CG1 ILE B   2      30.057  40.030   6.317  1.00 23.11 LIG 0.00  C 
ATOM      9  CD1 ILE B   2      30.710  38.854   5.599  1.00 27.15 LIG 0.01  C 
ENDBRANCH 6 8
ENDBRANCH 5 6
BRANCH 5 10
ATOM     10  N   ILE B   2      27.467  38.677   6.296  1.00 15.33 LIG-0.35  N 
ATOM     11  C   ALA B   1      27.211  37.721   5.410  1.00 14.45 LIG 0.25  C 
ATOM     12 O    ALA B   1      27.776  36.636   5.373  1.00 16.00 LIG-0.27  OA
ATOM     13 H    ILE B   2      27.104  39.456   6.291  1.00 15.33 LIG 0.16  HD
BRANCH 11 14
ATOM     14  CA  ALA B   1      26.104  38.009   4.393  1.00 14.39 LIG 0.27  C 
ATOM     15  CB  ALA B   1      26.375  39.327   3.667  1.00 14.30 LIG 0.05  C 
BRANCH 14 16
ATOM     16  N   ALA B   1      24.821  38.061   5.116  1.00 15.51 LIG-0.07  N 
ATOM     17 H3   ALA B   1      24.812  38.769   5.656  1.00 15.51 LIG 0.28  HD
ATOM     18 H2   ALA B   1      24.722  37.320   5.599  1.00 15.51 LIG 0.28  HD
ATOM     19 H1   ALA B   1      24.153  38.126   4.532  1.00 15.51 LIG 0.28  HD
ENDBRANCH 14 16
ENDBRANCH 11 14
ENDBRANCH 5 10
ENDBRANCH 1 5
BRANCH 3 20
ATOM     20  CA  ALA B   3      25.511  37.714   9.688  1.00 17.37 LIG 0.17  C 
ATOM     21  CB  ALA B   3      24.037  37.784   9.311  1.00 18.86 LIG 0.04  C 
BRANCH 20 22
ATOM     22  C   ALA B   3      25.851  36.326  10.083  1.00 19.46 LIG 0.24  C 
ATOM     23  N   VAL B   4      26.715  36.186  11.071  1.00 19.29 LIG-0.34  N 
ATOM     24 H    VAL B   4      27.076  36.852  11.479  1.00 19.29 LIG 0.16  HD
ATOM     25 O    ALA B   3      25.333  35.370   9.507  1.00 22.03 LIG-0.27  OA
BRANCH 23 26
ATOM     26  CA  VAL B   4      27.149  34.881  11.575  1.00 21.21 LIG 0.19  C 
BRANCH 26 27
ATOM     27  CB  VAL B   4      27.722  34.017  10.438  1.00 21.09 LIG 0.01  C 
ATOM     28  CG2 VAL B   4      28.067  32.625  10.966  1.00 23.07 LIG 0.01  C 
ATOM     29  CG1 VAL B   4      28.938  34.661   9.779  1.00 23.35 LIG 0.01  C 
ENDBRANCH 26 27
BRANCH 26 30
ATOM     30  C   VAL B   4      28.187  35.128  12.657  1.00 22.92 LIG 0.20  C 
ATOM     31 O    VAL B   4      28.820  36.186  12.689  1.00 22.82 LIG-0.65  OA
ATOM     32 OXT  VAL B   4      28.376  34.284  13.562  1.00 22.76 LIG-0.65  OA
ENDBRANCH 26 30
ENDBRANCH 23 26
ENDBRANCH 20 22
ENDBRANCH 3 20
TORSDOF 11
ENDMDL
MODEL 31
USER: ADFR SOLUTION from run 97
USER: SCORE 12.977164 LL:  -2.898 LR: -10.302 RR:   0.000 FEB:  -7.021
USER: RMSD 4.414859
USER: SEED 96
USER: STATUS no improvement in best in 11 clusters for 5 generations
USER: GENES 13
USER: genes 0 Translation |==|  0.54589 0.60068 0.38351
USER: genes 1 Rotation |==|  0.51283 0.83408 0.12939 0.52961
USER: genes 2 Torsion [N]-C--CA-[N] |==|  0.89764
USER: genes 3 Torsion [C]-CA--CB-[CG1] |==|  0.48251
USER: genes 4 Torsion [CA]-CB--CG1-[CD1] |==|  0.93939
USER: genes 5 Torsion [C]-CA--N-[C] |==|  0.80739
USER: genes 6 Torsion [N]-C--CA-[N] |==|  0.32190
USER: genes 7 Torsion [C]-CA--N-[H1] |==|  0.51706
USER: genes 8 Torsion [C]-N--CA-[CB] |==|  0.87106
USER: genes 9 Torsion [N]-CA--C-[N] |==|  0.92778
USER: genes 10 Torsion [C]-N--CA-[CB] |==|  0.33157
USER: genes 11 Torsion [N]-CA--CB-[CG2] |==|  0.23196
USER: genes 12 Torsion [N]-CA--C-[O] |==|  0.92950
ROOT
ATOM      1  C   ILE B   2      28.910  36.347  10.041  1.00 15.80 LIG 0.24  C 
ATOM      2 O    ILE B   2      29.537  35.348   9.701  1.00 15.82 LIG-0.27  OA
ATOM      3  N   ALA B   3      28.419  36.516  11.264  1.00 15.83 LIG-0.35  N 
ATOM      4 H    ALA B   3      28.014  37.227  11.526  1.00 15.83 LIG 0.16  HD
ENDROOT
BRANCH 1 5
ATOM      5  CA  ILE B   2      28.596  37.470   9.071  1.00 17.33 LIG 0.18  C 
BRANCH 5 6
ATOM      6  CB  ILE B   2      29.686  38.556   9.101  1.00 21.75 LIG 0.01  C 
ATOM      7  CG2 ILE B   2      31.067  37.932   8.967  1.00 23.79 LIG 0.01  C 
BRANCH 6 8
ATOM      8  CG1 ILE B   2      29.450  39.585   8.033  1.00 23.11 LIG 0.00  C 
ATOM      9  CD1 ILE B   2      28.577  39.067   6.895  1.00 27.15 LIG 0.01  C 
ENDBRANCH 6 8
ENDBRANCH 5 6
BRANCH 5 10
ATOM     10  N   ILE B   2      27.253  37.984   9.312  1.00 15.33 LIG-0.35  N 
ATOM     11  C   ALA B   1      26.187  37.244   9.029  1.00 14.45 LIG 0.25  C 
ATOM     12 O    ALA B   1      26.224  36.142   8.498  1.00 16.00 LIG-0.27  OA
ATOM     13 H    ILE B   2      27.222  38.777   9.640  1.00 15.33 LIG 0.16  HD
BRANCH 11 14
ATOM     14  CA  ALA B   1      24.828  37.820   9.432  1.00 14.39 LIG 0.27  C 
ATOM     15  CB  ALA B   1      24.092  36.855  10.362  1.00 14.30 LIG 0.05  C 
BRANCH 14 16
ATOM     16  N   ALA B   1      24.050  38.061   8.203  1.00 15.51 LIG-0.07  N 
ATOM     17 H3   ALA B   1      23.864  37.284   7.812  1.00 15.51 LIG 0.28  HD
ATOM     18 H2   ALA B   1      24.525  38.566   7.646  1.00 15.51 LIG 0.28  HD
ATOM     19 H1   ALA B   1      23.291  38.479   8.409  1.00 15.51 LIG 0.28  HD
ENDBRANCH 14 16
ENDBRANCH 11 14
ENDBRANCH 5 10
ENDBRANCH 1 5
BRANCH 3 20
ATOM     20  CA  ALA B   3      28.536  35.469  12.290  1.00 17.37 LIG 0.17  C 
ATOM     21  CB  ALA B   3      28.155  34.104  11.733  1.00 18.86 LIG 0.04  C 
BRANCH 20 22
ATOM     22  C   ALA B   3      29.924  35.417  12.810  1.00 19.46 LIG 0.24  C 
ATOM     23  N   VAL B   4      30.876  35.842  12.001  1.00 19.29 LIG-0.34  N 
ATOM     24 H    VAL B   4      30.724  36.138  11.208  1.00 19.29 LIG 0.16  HD
ATOM     25 O    ALA B   3      30.147  34.999  13.946  1.00 22.03 LIG-0.27  OA
BRANCH 23 26
ATOM     26  CA  VAL B   4      32.293  35.853  12.372  1.00 21.21 LIG 0.19  C 
BRANCH 26 27
ATOM     27  CB  VAL B   4      33.116  34.965  11.422  1.00 21.09 LIG 0.01  C 
ATOM     28  CG2 VAL B   4      33.476  35.747  10.159  1.00 23.07 LIG 0.01  C 
ATOM     29  CG1 VAL B   4      32.392  33.670  11.068  1.00 23.35 LIG 0.01  C 
ENDBRANCH 26 27
BRANCH 26 30
ATOM     30  C   VAL B   4      32.769  37.296  12.327  1.00 22.92 LIG 0.20  C 
ATOM     31 O    VAL B   4      32.201  38.121  11.607  1.00 22.82 LIG-0.65  OA
ATOM     32 OXT  VAL B   4      33.707  37.680  13.060  1.00 22.76 LIG-0.65  OA
ENDBRANCH 26 30
ENDBRANCH 23 26
ENDBRANCH 20 22
ENDBRANCH 3 20
TORSDOF 11
ENDMDL
MODEL 32
USER: ADFR SOLUTION from run 129
USER: SCORE 11.736253 LL:  -2.272 LR: -10.256 RR:   0.000 FEB:  -6.975
USER: RMSD 4.006221
USER: SEED 128
USER: STATUS no improvement in best in 6 clusters for 5 generations
USER: GENES 13
USER: genes 0 Translation |==|  0.53016 0.59370 0.38895
USER: genes 1 Rotation |==|  0.39101 0.85989 0.17045 0.50102
USER: genes 2 Torsion [N]-C--CA-[N] |==|  0.35099
USER: genes 3 Torsion [C]-CA--CB-[CG1] |==|  0.43684
USER: genes 4 Torsion [CA]-CB--CG1-[CD1] |==|  0.73774
USER: genes 5 Torsion [C]-CA--N-[C] |==|  0.84680
USER: genes 6 Torsion [N]-C--CA-[N] |==|  0.17185
USER: genes 7 Torsion [C]-CA--N-[H1] |==|  0.30755
USER: genes 8 Torsion [C]-N--CA-[CB] |==|  0.18586
USER: genes 9 Torsion [N]-CA--C-[N] |==|  0.58717
USER: genes 10 Torsion [C]-N--CA-[CB] |==|  0.27348
USER: genes 11 Torsion [N]-CA--CB-[CG2] |==|  0.89974
USER: genes 12 Torsion [N]-CA--C-[O] |==|  0.86648
ROOT
ATOM      1  C   ILE B   2      28.662  36.232  10.148  1.00 15.80 LIG 0.24  C 
ATOM      2 O    ILE B   2      29.267  35.486   9.381  1.00 15.82 LIG-0.27  OA
ATOM      3  N   ALA B   3      28.742  36.135  11.470  1.00 15.83 LIG-0.35  N 
ATOM      4 H    ALA B   3      28.357  36.676  12.015  1.00 15.83 LIG 0.16  HD
ENDROOT
BRANCH 1 5
ATOM      5  CA  ILE B   2      27.723  37.313   9.645  1.00 17.33 LIG 0.18  C 
BRANCH 5 6
ATOM      6  CB  ILE B   2      26.431  36.707   9.069  1.00 21.75 LIG 0.01  C 
ATOM      7  CG2 ILE B   2      26.049  35.443   9.825  1.00 23.79 LIG 0.01  C 
BRANCH 6 8
ATOM      8  CG1 ILE B   2      25.312  37.708   9.086  1.00 23.11 LIG 0.00  C 
ATOM      9  CD1 ILE B   2      24.438  37.595  10.331  1.00 27.15 LIG 0.01  C 
ENDBRANCH 6 8
ENDBRANCH 5 6
BRANCH 5 10
ATOM     10  N   ILE B   2      28.420  38.194   8.716  1.00 15.33 LIG-0.35  N 
ATOM     11  C   ALA B   1      29.543  38.804   9.078  1.00 14.45 LIG 0.25  C 
ATOM     12 O    ALA B   1      30.039  38.745  10.195  1.00 16.00 LIG-0.27  OA
ATOM     13 H    ILE B   2      28.047  38.275   7.946  1.00 15.33 LIG 0.16  HD
BRANCH 11 14
ATOM     14  CA  ALA B   1      30.265  39.607   7.994  1.00 14.39 LIG 0.27  C 
ATOM     15  CB  ALA B   1      31.575  40.179   8.535  1.00 14.30 LIG 0.05  C 
BRANCH 14 16
ATOM     16  N   ALA B   1      29.365  40.686   7.549  1.00 15.51 LIG-0.07  N 
ATOM     17 H3   ALA B   1      28.556  40.562   7.899  1.00 15.51 LIG 0.28  HD
ATOM     18 H2   ALA B   1      29.307  40.677   6.661  1.00 15.51 LIG 0.28  HD
ATOM     19 H1   ALA B   1      29.687  41.472   7.817  1.00 15.51 LIG 0.28  HD
ENDBRANCH 14 16
ENDBRANCH 11 14
ENDBRANCH 5 10
ENDBRANCH 1 5
BRANCH 3 20
ATOM     20  CA  ALA B   3      29.518  35.067  12.116  1.00 17.37 LIG 0.17  C 
ATOM     21  CB  ALA B   3      31.009  35.228  11.851  1.00 18.86 LIG 0.04  C 
BRANCH 20 22
ATOM     22  C   ALA B   3      29.276  35.073  13.579  1.00 19.46 LIG 0.24  C 
ATOM     23  N   VAL B   4      30.276  34.682  14.347  1.00 19.29 LIG-0.34  N 
ATOM     24 H    VAL B   4      31.038  34.432  14.037  1.00 19.29 LIG 0.16  HD
ATOM     25 O    ALA B   3      28.189  35.436  14.028  1.00 22.03 LIG-0.27  OA
BRANCH 23 26
ATOM     26  CA  VAL B   4      30.190  34.636  15.808  1.00 21.21 LIG 0.19  C 
BRANCH 26 27
ATOM     27  CB  VAL B   4      29.887  33.207  16.295  1.00 21.09 LIG 0.01  C 
ATOM     28  CG2 VAL B   4      28.940  32.513  15.316  1.00 23.07 LIG 0.01  C 
ATOM     29  CG1 VAL B   4      29.312  33.187  17.708  1.00 23.35 LIG 0.01  C 
ENDBRANCH 26 27
BRANCH 26 30
ATOM     30  C   VAL B   4      31.513  35.137  16.363  1.00 22.92 LIG 0.20  C 
ATOM     31 O    VAL B   4      32.581  34.703  15.924  1.00 22.82 LIG-0.65  OA
ATOM     32 OXT  VAL B   4      31.539  36.035  17.234  1.00 22.76 LIG-0.65  OA
ENDBRANCH 26 30
ENDBRANCH 23 26
ENDBRANCH 20 22
ENDBRANCH 3 20
TORSDOF 11
ENDMDL
MODEL 33
USER: ADFR SOLUTION from run 44
USER: SCORE 11.686924 LL:  -2.378 LR: -10.158 RR:   0.000 FEB:  -6.877
USER: RMSD 4.655385
USER: SEED 43
USER: STATUS no improvement in best in 9 clusters for 5 generations
USER: GENES 13
USER: genes 0 Translation |==|  0.48682 0.59065 0.37670
USER: genes 1 Rotation |==|  0.59216 0.14697 0.84168 0.51170
USER: genes 2 Torsion [N]-C--CA-[N] |==|  0.34167
USER: genes 3 Torsion [C]-CA--CB-[CG1] |==|  0.44171
USER: genes 4 Torsion [CA]-CB--CG1-[CD1] |==|  0.83770
USER: genes 5 Torsion [C]-CA--N-[C] |==|  0.84277
USER: genes 6 Torsion [N]-C--CA-[N] |==|  0.20878
USER: genes 7 Torsion [C]-CA--N-[H1] |==|  0.98290
USER: genes 8 Torsion [C]-N--CA-[CB] |==|  0.47797
USER: genes 9 Torsion [N]-CA--C-[N] |==|  0.52219
USER: genes 10 Torsion [C]-N--CA-[CB] |==|  0.20292
USER: genes 11 Torsion [N]-CA--CB-[CG2] |==|  0.46172
USER: genes 12 Torsion [N]-CA--C-[O] |==|  0.79051
ROOT
ATOM      1  C   ILE B   2      27.979  36.182   9.909  1.00 15.80 LIG 0.24  C 
ATOM      2 O    ILE B   2      28.537  35.344   9.204  1.00 15.82 LIG-0.27  OA
ATOM      3  N   ALA B   3      28.031  36.164  11.236  1.00 15.83 LIG-0.35  N 
ATOM      4 H    ALA B   3      27.679  36.767  11.738  1.00 15.83 LIG 0.16  HD
ENDROOT
BRANCH 1 5
ATOM      5  CA  ILE B   2      27.134  37.295   9.320  1.00 17.33 LIG 0.18  C 
BRANCH 5 6
ATOM      6  CB  ILE B   2      25.847  36.743   8.683  1.00 21.75 LIG 0.01  C 
ATOM      7  CG2 ILE B   2      25.326  35.552   9.473  1.00 23.79 LIG 0.01  C 
BRANCH 6 8
ATOM      8  CG1 ILE B   2      24.801  37.814   8.564  1.00 23.11 LIG 0.00  C 
ATOM      9  CD1 ILE B   2      24.437  38.434   9.908  1.00 27.15 LIG 0.01  C 
ENDBRANCH 6 8
ENDBRANCH 5 6
BRANCH 5 10
ATOM     10  N   ILE B   2      27.934  38.108   8.411  1.00 15.33 LIG-0.35  N 
ATOM     11  C   ALA B   1      29.050  38.691   8.832  1.00 14.45 LIG 0.25  C 
ATOM     12 O    ALA B   1      29.459  38.663   9.985  1.00 16.00 LIG-0.27  OA
ATOM     13 H    ILE B   2      27.623  38.169   7.612  1.00 15.33 LIG 0.16  HD
BRANCH 11 14
ATOM     14  CA  ALA B   1      29.883  39.418   7.775  1.00 14.39 LIG 0.27  C 
ATOM     15  CB  ALA B   1      31.299  39.674   8.292  1.00 14.30 LIG 0.05  C 
BRANCH 14 16
ATOM     16  N   ALA B   1      29.205  40.686   7.451  1.00 15.51 LIG-0.07  N 
ATOM     17 H3   ALA B   1      29.077  40.739   6.572  1.00 15.51 LIG 0.28  HD
ATOM     18 H2   ALA B   1      29.709  41.369   7.718  1.00 15.51 LIG 0.28  HD
ATOM     19 H1   ALA B   1      28.418  40.717   7.867  1.00 15.51 LIG 0.28  HD
ENDBRANCH 14 16
ENDBRANCH 11 14
ENDBRANCH 5 10
ENDBRANCH 1 5
BRANCH 3 20
ATOM     20  CA  ALA B   3      28.712  35.085  11.964  1.00 17.37 LIG 0.17  C 
ATOM     21  CB  ALA B   3      28.800  35.392  13.454  1.00 18.86 LIG 0.04  C 
BRANCH 20 22
ATOM     22  C   ALA B   3      27.992  33.803  11.769  1.00 19.46 LIG 0.24  C 
ATOM     23  N   VAL B   4      28.397  32.779  12.497  1.00 19.29 LIG-0.34  N 
ATOM     24 H    VAL B   4      29.045  32.829  13.061  1.00 19.29 LIG 0.16  HD
ATOM     25 O    ALA B   3      27.062  33.728  10.967  1.00 22.03 LIG-0.27  OA
BRANCH 23 26
ATOM     26  CA  VAL B   4      27.785  31.451  12.418  1.00 21.21 LIG 0.19  C 
BRANCH 26 27
ATOM     27  CB  VAL B   4      28.177  30.743  11.109  1.00 21.09 LIG 0.01  C 
ATOM     28  CG2 VAL B   4      27.824  29.259  11.193  1.00 23.07 LIG 0.01  C 
ATOM     29  CG1 VAL B   4      29.654  30.928  10.771  1.00 23.35 LIG 0.01  C 
ENDBRANCH 26 27
BRANCH 26 30
ATOM     30  C   VAL B   4      28.246  30.659  13.631  1.00 22.92 LIG 0.20  C 
ATOM     31 O    VAL B   4      29.390  30.201  13.683  1.00 22.82 LIG-0.65  OA
ATOM     32 OXT  VAL B   4      27.490  30.508  14.617  1.00 22.76 LIG-0.65  OA
ENDBRANCH 26 30
ENDBRANCH 23 26
ENDBRANCH 20 22
ENDBRANCH 3 20
TORSDOF 11
ENDMDL
MODEL 34
USER: ADFR SOLUTION from run 32
USER: SCORE 11.421681 LL:  -2.534 LR: -10.141 RR:   0.000 FEB:  -6.859
USER: RMSD 4.839643
USER: SEED 31
USER: STATUS no improvement in best in 5 clusters for 5 generations
USER: GENES 13
USER: genes 0 Translation |==|  0.48635 0.51008 0.43343
USER: genes 1 Rotation |==|  0.54817 0.51109 0.53438 0.99636
USER: genes 2 Torsion [N]-C--CA-[N] |==|  0.42544
USER: genes 3 Torsion [C]-CA--CB-[CG1] |==|  0.84075
USER: genes 4 Torsion [CA]-CB--CG1-[CD1] |==|  0.30428
USER: genes 5 Torsion [C]-CA--N-[C] |==|  0.65550
USER: genes 6 Torsion [N]-C--CA-[N] |==|  0.36875
USER: genes 7 Torsion [C]-CA--N-[H1] |==|  0.14643
USER: genes 8 Torsion [C]-N--CA-[CB] |==|  0.18969
USER: genes 9 Torsion [N]-CA--C-[N] |==|  0.81831
USER: genes 10 Torsion [C]-N--CA-[CB] |==|  0.34912
USER: genes 11 Torsion [N]-CA--CB-[CG2] |==|  0.24500
USER: genes 12 Torsion [N]-CA--C-[O] |==|  0.48118
ROOT
ATOM      1  C   ILE B   2      27.972  34.852  11.015  1.00 15.80 LIG 0.24  C 
ATOM      2 O    ILE B   2      27.437  35.091  12.095  1.00 15.82 LIG-0.27  OA
ATOM      3  N   ALA B   3      28.469  33.662  10.698  1.00 15.83 LIG-0.35  N 
ATOM      4 H    ALA B   3      28.809  33.472   9.932  1.00 15.83 LIG 0.16  HD
ENDROOT
BRANCH 1 5
ATOM      5  CA  ILE B   2      28.156  35.921   9.954  1.00 17.33 LIG 0.18  C 
BRANCH 5 6
ATOM      6  CB  ILE B   2      29.577  36.509   9.994  1.00 21.75 LIG 0.01  C 
ATOM      7  CG2 ILE B   2      29.754  37.557   8.904  1.00 23.79 LIG 0.01  C 
BRANCH 6 8
ATOM      8  CG1 ILE B   2      29.887  37.078  11.348  1.00 23.11 LIG 0.00  C 
ATOM      9  CD1 ILE B   2      30.913  36.251  12.115  1.00 27.15 LIG 0.01  C 
ENDBRANCH 6 8
ENDBRANCH 5 6
BRANCH 5 10
ATOM     10  N   ILE B   2      27.105  36.925  10.063  1.00 15.33 LIG-0.35  N 
ATOM     11  C   ALA B   1      26.330  37.208   9.021  1.00 14.45 LIG 0.25  C 
ATOM     12 O    ALA B   1      26.464  36.728   7.904  1.00 16.00 LIG-0.27  OA
ATOM     13 H    ILE B   2      27.040  37.299  10.834  1.00 15.33 LIG 0.16  HD
BRANCH 11 14
ATOM     14  CA  ALA B   1      25.178  38.183   9.270  1.00 14.39 LIG 0.27  C 
ATOM     15  CB  ALA B   1      23.845  37.437   9.309  1.00 14.30 LIG 0.05  C 
BRANCH 14 16
ATOM     16  N   ALA B   1      25.187  39.186   8.189  1.00 15.51 LIG-0.07  N 
ATOM     17 H3   ALA B   1      25.916  39.692   8.259  1.00 15.51 LIG 0.28  HD
ATOM     18 H2   ALA B   1      24.464  39.700   8.255  1.00 15.51 LIG 0.28  HD
ATOM     19 H1   ALA B   1      25.187  38.773   7.400  1.00 15.51 LIG 0.28  HD
ENDBRANCH 14 16
ENDBRANCH 11 14
ENDBRANCH 5 10
ENDBRANCH 1 5
BRANCH 3 20
ATOM     20  CA  ALA B   3      28.475  32.551  11.661  1.00 17.37 LIG 0.17  C 
ATOM     21  CB  ALA B   3      27.062  32.061  11.948  1.00 18.86 LIG 0.04  C 
BRANCH 20 22
ATOM     22  C   ALA B   3      29.288  31.427  11.137  1.00 19.46 LIG 0.24  C 
ATOM     23  N   VAL B   4      28.836  30.825  10.052  1.00 19.29 LIG-0.34  N 
ATOM     24 H    VAL B   4      28.111  31.055   9.653  1.00 19.29 LIG 0.16  HD
ATOM     25 O    ALA B   3      30.330  31.096  11.701  1.00 22.03 LIG-0.27  OA
BRANCH 23 26
ATOM     26  CA  VAL B   4      29.527  29.701   9.416  1.00 21.21 LIG 0.19  C 
BRANCH 26 27
ATOM     27  CB  VAL B   4      28.584  28.495   9.258  1.00 21.09 LIG 0.01  C 
ATOM     28  CG2 VAL B   4      27.830  28.594   7.932  1.00 23.07 LIG 0.01  C 
ATOM     29  CG1 VAL B   4      27.610  28.366  10.425  1.00 23.35 LIG 0.01  C 
ENDBRANCH 26 27
BRANCH 26 30
ATOM     30  C   VAL B   4      30.040  30.179   8.068  1.00 22.92 LIG 0.20  C 
ATOM     31 O    VAL B   4      30.768  29.457   7.382  1.00 22.82 LIG-0.65  OA
ATOM     32 OXT  VAL B   4      29.686  31.289   7.610  1.00 22.76 LIG-0.65  OA
ENDBRANCH 26 30
ENDBRANCH 23 26
ENDBRANCH 20 22
ENDBRANCH 3 20
TORSDOF 11
ENDMDL
MODEL 35
USER: ADFR SOLUTION from run 156
USER: SCORE 12.710943 LL:  -2.911 LR: -10.066 RR:   0.000 FEB:  -6.785
USER: RMSD 5.394524
USER: SEED 155
USER: STATUS no improvement in best in 8 clusters for 5 generations
USER: GENES 13
USER: genes 0 Translation |==|  0.46239 0.60302 0.37242
USER: genes 1 Rotation |==|  0.44068 0.88083 0.18166 0.51053
USER: genes 2 Torsion [N]-C--CA-[N] |==|  0.38330
USER: genes 3 Torsion [C]-CA--CB-[CG1] |==|  0.35216
USER: genes 4 Torsion [CA]-CB--CG1-[CD1] |==|  0.84557
USER: genes 5 Torsion [C]-CA--N-[C] |==|  0.84240
USER: genes 6 Torsion [N]-C--CA-[N] |==|  0.19826
USER: genes 7 Torsion [C]-CA--N-[H1] |==|  0.33658
USER: genes 8 Torsion [C]-N--CA-[CB] |==|  0.88672
USER: genes 9 Torsion [N]-CA--C-[N] |==|  0.88343
USER: genes 10 Torsion [C]-N--CA-[CB] |==|  0.43087
USER: genes 11 Torsion [N]-CA--CB-[CG2] |==|  0.36567
USER: genes 12 Torsion [N]-CA--C-[O] |==|  0.91484
ROOT
ATOM      1  C   ILE B   2      27.595  36.386   9.825  1.00 15.80 LIG 0.24  C 
ATOM      2 O    ILE B   2      28.209  35.630   9.077  1.00 15.82 LIG-0.27  OA
ATOM      3  N   ALA B   3      27.457  36.166  11.128  1.00 15.83 LIG-0.35  N 
ATOM      4 H    ALA B   3      27.065  36.707  11.668  1.00 15.83 LIG 0.16  HD
ENDROOT
BRANCH 1 5
ATOM      5  CA  ILE B   2      26.890  37.628   9.313  1.00 17.33 LIG 0.18  C 
BRANCH 5 6
ATOM      6  CB  ILE B   2      25.498  37.290   8.754  1.00 21.75 LIG 0.01  C 
ATOM      7  CG2 ILE B   2      25.190  35.811   8.938  1.00 23.79 LIG 0.01  C 
BRANCH 6 8
ATOM      8  CG1 ILE B   2      24.439  38.146   9.389  1.00 23.11 LIG 0.00  C 
ATOM      9  CD1 ILE B   2      24.437  38.050  10.911  1.00 27.15 LIG 0.01  C 
ENDBRANCH 6 8
ENDBRANCH 5 6
BRANCH 5 10
ATOM     10  N   ILE B   2      27.743  38.336   8.366  1.00 15.33 LIG-0.35  N 
ATOM     11  C   ALA B   1      28.959  38.738   8.722  1.00 14.45 LIG 0.25  C 
ATOM     12 O    ALA B   1      29.429  38.621   9.846  1.00 16.00 LIG-0.27  OA
ATOM     13 H    ILE B   2      27.396  38.462   7.590  1.00 15.33 LIG 0.16  HD
BRANCH 11 14
ATOM     14  CA  ALA B   1      29.823  39.360   7.624  1.00 14.39 LIG 0.27  C 
ATOM     15  CB  ALA B   1      31.274  39.478   8.087  1.00 14.30 LIG 0.05  C 
BRANCH 14 16
ATOM     16  N   ALA B   1      29.265  40.686   7.300  1.00 15.51 LIG-0.07  N 
ATOM     17 H3   ALA B   1      28.561  40.848   7.820  1.00 15.51 LIG 0.28  HD
ATOM     18 H2   ALA B   1      29.013  40.702   6.447  1.00 15.51 LIG 0.28  HD
ATOM     19 H1   ALA B   1      29.885  41.311   7.438  1.00 15.51 LIG 0.28  HD
ENDBRANCH 14 16
ENDBRANCH 11 14
ENDBRANCH 5 10
ENDBRANCH 1 5
BRANCH 3 20
ATOM     20  CA  ALA B   3      27.981  34.946  11.761  1.00 17.37 LIG 0.17  C 
ATOM     21  CB  ALA B   3      27.736  33.722  10.888  1.00 18.86 LIG 0.04  C 
BRANCH 20 22
ATOM     22  C   ALA B   3      29.435  35.086  12.013  1.00 19.46 LIG 0.24  C 
ATOM     23  N   VAL B   4      30.152  35.644  11.055  1.00 19.29 LIG-0.34  N 
ATOM     24 H    VAL B   4      29.815  35.919  10.313  1.00 19.29 LIG 0.16  HD
ATOM     25 O    ALA B   3      29.923  34.700  13.075  1.00 22.03 LIG-0.27  OA
BRANCH 23 26
ATOM     26  CA  VAL B   4      31.598  35.852  11.157  1.00 21.21 LIG 0.19  C 
BRANCH 26 27
ATOM     27  CB  VAL B   4      32.243  35.921   9.761  1.00 21.09 LIG 0.01  C 
ATOM     28  CG2 VAL B   4      33.166  37.136   9.674  1.00 23.07 LIG 0.01  C 
ATOM     29  CG1 VAL B   4      31.203  35.951   8.645  1.00 23.35 LIG 0.01  C 
ENDBRANCH 26 27
BRANCH 26 30
ATOM     30  C   VAL B   4      31.824  37.139  11.933  1.00 22.92 LIG 0.20  C 
ATOM     31 O    VAL B   4      31.006  38.060  11.870  1.00 22.82 LIG-0.65  OA
ATOM     32 OXT  VAL B   4      32.814  37.262  12.688  1.00 22.76 LIG-0.65  OA
ENDBRANCH 26 30
ENDBRANCH 23 26
ENDBRANCH 20 22
ENDBRANCH 3 20
TORSDOF 11
ENDMDL
