MODEL 1
USER: ADFR SOLUTION from run 39
USER: SCORE 12.219092 LL:  -1.819 LR: -13.059 RR:   0.000 FEB: -10.076
USER: RMSD 3.347065
USER: SEED 38
USER: STATUS no improvement in best in 9 clusters for 5 generations
USER: GENES 12
USER: genes 0 Translation |==|  0.37048 0.65459 0.36204
USER: genes 1 Rotation |==|  0.56562 0.19582 0.82018 0.72506
USER: genes 2 Torsion [CB]-CA--N-[C] |==|  0.22776
USER: genes 3 Torsion [N]-C--CA-[N] |==|  0.42264
USER: genes 4 Torsion [C]-CA--N-[H3] |==|  0.29168
USER: genes 5 Torsion [N]-CA--CB-[CG2] |==|  0.20309
USER: genes 6 Torsion [CA]-CB--OG1-[HG1] |==|  0.95710
USER: genes 7 Torsion [N]-CA--C-[N] |==|  0.41487
USER: genes 8 Torsion [C]-N--CA-[CB] |==|  0.14096
USER: genes 9 Torsion [N]-CA--C-[N] |==|  0.39686
USER: genes 10 Torsion [C]-N--CA-[CB] |==|  0.27121
USER: genes 11 Torsion [N]-CA--C-[O] |==|  0.90263
ROOT
ATOM      1  CA  THR B   2      25.692  37.255   9.360  1.00 29.13 LIG 0.20  C 
ENDROOT
BRANCH 1 2
ATOM      2  N   THR B   2      25.626  37.235   7.899  1.00 25.25 LIG-0.34  N 
ATOM      3 H    THR B   2      25.472  36.452   7.576  1.00 25.25 LIG 0.16  HD
ATOM      4  C   ALA B   1      25.786  38.300   7.144  1.00 22.96 LIG 0.25  C 
ATOM      5 O    ALA B   1      26.051  39.438   7.528  1.00 26.59 LIG-0.27  OA
BRANCH 4 6
ATOM      6  CA  ALA B   1      25.769  37.969   5.645  1.00 23.15 LIG 0.27  C 
ATOM      7  CB  ALA B   1      27.207  37.612   5.162  1.00 22.78 LIG 0.05  C 
BRANCH 6 8
ATOM      8  N   ALA B   1      25.288  39.152   4.941  1.00 25.73 LIG-0.07  N 
ATOM      9 H3   ALA B   1      25.971  39.558   4.541  1.00 25.73 LIG 0.28  HD
ATOM     10 H1   ALA B   1      24.687  38.910   4.331  1.00 25.73 LIG 0.28  HD
ATOM     11 H2   ALA B   1      24.911  39.711   5.523  1.00 25.73 LIG 0.28  HD
ENDBRANCH 6 8
ENDBRANCH 4 6
ENDBRANCH 1 2
BRANCH 1 12
ATOM     12  CB  THR B   2      24.355  37.711   9.985  1.00 34.37 LIG 0.15  C 
ATOM     13  CG2 THR B   2      23.362  36.623   9.844  1.00 33.94 LIG 0.04  C 
BRANCH 12 14
ATOM     14 OG1  THR B   2      24.505  37.997  11.379  1.00 38.98 LIG-0.39  OA
ATOM     15 HG1  THR B   2      25.227  37.670  11.656  1.00 38.98 LIG 0.21  HD
ENDBRANCH 12 14
ENDBRANCH 1 12
BRANCH 1 16
ATOM     16  C   THR B   2      26.096  35.883   9.948  1.00 26.58 LIG 0.24  C 
ATOM     17  N   ALA B   3      26.782  35.924  11.102  1.00 27.81 LIG-0.35  N 
ATOM     18 H    ALA B   3      27.009  36.648  11.506  1.00 27.81 LIG 0.16  HD
ATOM     19 O    THR B   2      25.700  34.825   9.425  1.00 25.13 LIG-0.27  OA
BRANCH 17 20
ATOM     20  CA  ALA B   3      27.203  34.681  11.773  1.00 29.92 LIG 0.17  C 
ATOM     21  CB  ALA B   3      27.921  33.751  10.813  1.00 32.19 LIG 0.04  C 
BRANCH 20 22
ATOM     22  C   ALA B   3      28.127  35.104  12.866  1.00 36.50 LIG 0.24  C 
ATOM     23 O    ALA B   3      28.893  36.039  12.697  1.00 40.07 LIG-0.27  OA
ATOM     24  N   ALA B   4      28.047  34.418  13.993  1.00 42.66 LIG-0.34  N 
ATOM     25 H    ALA B   4      27.651  33.657  14.050  1.00 42.66 LIG 0.16  HD
BRANCH 24 26
ATOM     26  CA  ALA B   4      28.615  34.872  15.253  1.00 45.67 LIG 0.18  C 
ATOM     27  CB  ALA B   4      27.538  35.531  16.098  1.00 44.89 LIG 0.04  C 
BRANCH 26 28
ATOM     28  C   ALA B   4      29.197  33.675  15.976  1.00 51.09 LIG 0.20  C 
ATOM     29 O    ALA B   4      28.658  32.554  15.901  1.00 48.34 LIG-0.65  OA
ATOM     30 OXT  ALA B   4      30.220  33.837  16.649  1.00 61.57 LIG-0.65  OA
ENDBRANCH 26 28
ENDBRANCH 24 26
ENDBRANCH 20 22
ENDBRANCH 17 20
ENDBRANCH 1 16
TORSDOF 10
ENDMDL
MODEL 2
USER: ADFR SOLUTION from run 115
USER: SCORE 13.150873 LL:  -1.921 LR: -12.727 RR:   0.000 FEB:  -9.744
USER: RMSD 5.163649
USER: SEED 114
USER: STATUS no improvement in best in 4 clusters for 5 generations
USER: GENES 12
USER: genes 0 Translation |==|  0.35281 0.68137 0.35007
USER: genes 1 Rotation |==|  0.65124 0.19442 0.83172 0.65398
USER: genes 2 Torsion [CB]-CA--N-[C] |==|  0.52778
USER: genes 3 Torsion [N]-C--CA-[N] |==|  0.19500
USER: genes 4 Torsion [C]-CA--N-[H3] |==|  0.91519
USER: genes 5 Torsion [N]-CA--CB-[CG2] |==|  0.22477
USER: genes 6 Torsion [CA]-CB--OG1-[HG1] |==|  0.98529
USER: genes 7 Torsion [N]-CA--C-[N] |==|  0.49261
USER: genes 8 Torsion [C]-N--CA-[CB] |==|  0.85838
USER: genes 9 Torsion [N]-CA--C-[N] |==|  0.08042
USER: genes 10 Torsion [C]-N--CA-[CB] |==|  0.34131
USER: genes 11 Torsion [N]-CA--C-[O] |==|  0.05086
ROOT
ATOM      1  CA  THR B   2      25.441  37.677   9.126  1.00 29.13 LIG 0.20  C 
ENDROOT
BRANCH 1 2
ATOM      2  N   THR B   2      25.285  37.858   7.684  1.00 25.25 LIG-0.34  N 
ATOM      3 H    THR B   2      24.465  37.953   7.439  1.00 25.25 LIG 0.16  HD
ATOM      4  C   ALA B   1      26.289  37.877   6.835  1.00 22.96 LIG 0.25  C 
ATOM      5 O    ALA B   1      27.478  37.707   7.102  1.00 26.59 LIG-0.27  OA
BRANCH 4 6
ATOM      6  CA  ALA B   1      25.827  37.980   5.375  1.00 23.15 LIG 0.27  C 
ATOM      7  CB  ALA B   1      27.034  37.747   4.417  1.00 22.78 LIG 0.05  C 
BRANCH 6 8
ATOM      8  N   ALA B   1      25.288  39.320   5.179  1.00 25.73 LIG-0.07  N 
ATOM      9 H3   ALA B   1      24.935  39.612   5.942  1.00 25.73 LIG 0.28  HD
ATOM     10 H1   ALA B   1      25.941  39.868   4.925  1.00 25.73 LIG 0.28  HD
ATOM     11 H2   ALA B   1      24.658  39.298   4.551  1.00 25.73 LIG 0.28  HD
ENDBRANCH 6 8
ENDBRANCH 4 6
ENDBRANCH 1 2
BRANCH 1 12
ATOM     12  CB  THR B   2      24.080  37.452   9.823  1.00 34.37 LIG 0.15  C 
ATOM     13  CG2 THR B   2      23.683  36.036   9.660  1.00 33.94 LIG 0.04  C 
BRANCH 12 14
ATOM     14 OG1  THR B   2      24.163  37.730  11.225  1.00 38.98 LIG-0.39  OA
ATOM     15 HG1  THR B   2      24.960  37.897  11.431  1.00 38.98 LIG 0.21  HD
ENDBRANCH 12 14
ENDBRANCH 1 12
BRANCH 1 16
ATOM     16  C   THR B   2      26.396  36.511   9.471  1.00 26.58 LIG 0.24  C 
ATOM     17  N   ALA B   3      26.632  36.320  10.779  1.00 27.81 LIG-0.35  N 
ATOM     18 H    ALA B   3      26.301  36.804  11.409  1.00 27.81 LIG 0.16  HD
ATOM     19 O    THR B   2      26.814  35.746   8.582  1.00 25.13 LIG-0.27  OA
BRANCH 17 20
ATOM     20  CA  ALA B   3      27.508  35.225  11.235  1.00 29.92 LIG 0.17  C 
ATOM     21  CB  ALA B   3      27.101  33.899  10.619  1.00 32.19 LIG 0.04  C 
BRANCH 20 22
ATOM     22  C   ALA B   3      28.884  35.596  10.790  1.00 36.50 LIG 0.24  C 
ATOM     23 O    ALA B   3      29.702  34.728  10.531  1.00 40.07 LIG-0.27  OA
ATOM     24  N   ALA B   4      29.134  36.890  10.693  1.00 42.66 LIG-0.34  N 
ATOM     25 H    ALA B   4      28.632  37.491  11.047  1.00 42.66 LIG 0.16  HD
BRANCH 24 26
ATOM     26  CA  ALA B   4      30.279  37.436   9.982  1.00 45.67 LIG 0.18  C 
ATOM     27  CB  ALA B   4      29.807  38.399   8.905  1.00 44.89 LIG 0.04  C 
BRANCH 26 28
ATOM     28  C   ALA B   4      31.168  38.151  10.978  1.00 51.09 LIG 0.20  C 
ATOM     29 O    ALA B   4      31.071  37.928  12.201  1.00 48.34 LIG-0.65  OA
ATOM     30 OXT  ALA B   4      31.990  38.969  10.552  1.00 61.57 LIG-0.65  OA
ENDBRANCH 26 28
ENDBRANCH 24 26
ENDBRANCH 20 22
ENDBRANCH 17 20
ENDBRANCH 1 16
TORSDOF 10
ENDMDL
MODEL 3
USER: ADFR SOLUTION from run 148
USER: SCORE 13.299093 LL:  -1.864 LR: -12.454 RR:   0.000 FEB:  -9.471
USER: RMSD 3.976697
USER: SEED 147
USER: STATUS no improvement in best in 8 clusters for 5 generations
USER: GENES 12
USER: genes 0 Translation |==|  0.36218 0.69497 0.34596
USER: genes 1 Rotation |==|  0.65598 0.20460 0.83164 0.66860
USER: genes 2 Torsion [CB]-CA--N-[C] |==|  0.56844
USER: genes 3 Torsion [N]-C--CA-[N] |==|  0.17194
USER: genes 4 Torsion [C]-CA--N-[H3] |==|  0.25418
USER: genes 5 Torsion [N]-CA--CB-[CG2] |==|  0.17880
USER: genes 6 Torsion [CA]-CB--OG1-[HG1] |==|  0.93895
USER: genes 7 Torsion [N]-CA--C-[N] |==|  0.30858
USER: genes 8 Torsion [C]-N--CA-[CB] |==|  0.47262
USER: genes 9 Torsion [N]-CA--C-[N] |==|  0.47758
USER: genes 10 Torsion [C]-N--CA-[CB] |==|  0.37283
USER: genes 11 Torsion [N]-CA--C-[O] |==|  0.53238
ROOT
ATOM      1  CA  THR B   2      25.574  37.891   9.046  1.00 29.13 LIG 0.20  C 
ENDROOT
BRANCH 1 2
ATOM      2  N   THR B   2      25.332  38.020   7.610  1.00 25.25 LIG-0.34  N 
ATOM      3 H    THR B   2      24.546  38.314   7.422  1.00 25.25 LIG 0.16  HD
ATOM      4  C   ALA B   1      26.221  37.719   6.688  1.00 22.96 LIG 0.25  C 
ATOM      5 O    ALA B   1      27.345  37.255   6.876  1.00 26.59 LIG-0.27  OA
BRANCH 4 6
ATOM      6  CA  ALA B   1      25.663  37.852   5.264  1.00 23.15 LIG 0.27  C 
ATOM      7  CB  ALA B   1      26.751  37.445   4.225  1.00 22.78 LIG 0.05  C 
BRANCH 6 8
ATOM      8  N   ALA B   1      25.288  39.248   5.070  1.00 25.73 LIG-0.07  N 
ATOM      9 H3   ALA B   1      25.975  39.695   4.723  1.00 25.73 LIG 0.28  HD
ATOM     10 H1   ALA B   1      24.594  39.294   4.514  1.00 25.73 LIG 0.28  HD
ATOM     11 H2   ALA B   1      25.065  39.607   5.853  1.00 25.73 LIG 0.28  HD
ENDBRANCH 6 8
ENDBRANCH 4 6
ENDBRANCH 1 2
BRANCH 1 12
ATOM     12  CB  THR B   2      24.255  37.715   9.833  1.00 34.37 LIG 0.15  C 
ATOM     13  CG2 THR B   2      23.623  36.438   9.433  1.00 33.94 LIG 0.04  C 
BRANCH 12 14
ATOM     14 OG1  THR B   2      24.495  37.668  11.243  1.00 38.98 LIG-0.39  OA
ATOM     15 HG1  THR B   2      25.292  37.445  11.385  1.00 38.98 LIG 0.21  HD
ENDBRANCH 12 14
ENDBRANCH 1 12
BRANCH 1 16
ATOM     16  C   THR B   2      26.533  36.724   9.377  1.00 26.58 LIG 0.24  C 
ATOM     17  N   ALA B   3      27.743  37.079   9.841  1.00 27.81 LIG-0.35  N 
ATOM     18 H    ALA B   3      28.004  37.892   9.945  1.00 27.81 LIG 0.16  HD
ATOM     19 O    THR B   2      26.143  35.543   9.317  1.00 25.13 LIG-0.27  OA
BRANCH 17 20
ATOM     20  CA  ALA B   3      28.737  36.056  10.214  1.00 29.92 LIG 0.17  C 
ATOM     21  CB  ALA B   3      30.096  36.677  10.477  1.00 32.19 LIG 0.04  C 
BRANCH 20 22
ATOM     22  C   ALA B   3      28.214  35.419  11.458  1.00 36.50 LIG 0.24  C 
ATOM     23 O    ALA B   3      27.233  35.878  12.020  1.00 40.07 LIG-0.27  OA
ATOM     24  N   ALA B   4      28.869  34.353  11.883  1.00 42.66 LIG-0.34  N 
ATOM     25 H    ALA B   4      29.654  34.143  11.604  1.00 42.66 LIG 0.16  HD
BRANCH 24 26
ATOM     26  CA  ALA B   4      28.336  33.422  12.866  1.00 45.67 LIG 0.18  C 
ATOM     27  CB  ALA B   4      28.564  31.993  12.401  1.00 44.89 LIG 0.04  C 
BRANCH 26 28
ATOM     28  C   ALA B   4      29.034  33.666  14.188  1.00 51.09 LIG 0.20  C 
ATOM     29 O    ALA B   4      28.917  32.864  15.135  1.00 48.34 LIG-0.65  OA
ATOM     30 OXT  ALA B   4      29.720  34.687  14.310  1.00 61.57 LIG-0.65  OA
ENDBRANCH 26 28
ENDBRANCH 24 26
ENDBRANCH 20 22
ENDBRANCH 17 20
ENDBRANCH 1 16
TORSDOF 10
ENDMDL
MODEL 4
USER: ADFR SOLUTION from run 154
USER: SCORE 13.214782 LL:  -1.646 LR: -12.352 RR:   0.000 FEB:  -9.369
USER: RMSD 5.656604
USER: SEED 153
USER: STATUS no improvement in best in 7 clusters for 5 generations
USER: GENES 12
USER: genes 0 Translation |==|  0.41433 0.71276 0.32693
USER: genes 1 Rotation |==|  0.76999 0.25425 0.83810 0.54900
USER: genes 2 Torsion [CB]-CA--N-[C] |==|  0.75750
USER: genes 3 Torsion [N]-C--CA-[N] |==|  0.09661
USER: genes 4 Torsion [C]-CA--N-[H3] |==|  0.23302
USER: genes 5 Torsion [N]-CA--CB-[CG2] |==|  0.79159
USER: genes 6 Torsion [CA]-CB--OG1-[HG1] |==|  0.79196
USER: genes 7 Torsion [N]-CA--C-[N] |==|  0.24042
USER: genes 8 Torsion [C]-N--CA-[CB] |==|  0.47782
USER: genes 9 Torsion [N]-CA--C-[N] |==|  0.47620
USER: genes 10 Torsion [C]-N--CA-[CB] |==|  0.32853
USER: genes 11 Torsion [N]-CA--C-[O] |==|  0.52943
ROOT
ATOM      1  CA  THR B   2      26.317  38.171   8.675  1.00 29.13 LIG 0.20  C 
ENDROOT
BRANCH 1 2
ATOM      2  N   THR B   2      25.870  38.293   7.288  1.00 25.25 LIG-0.34  N 
ATOM      3 H    THR B   2      25.278  38.907   7.174  1.00 25.25 LIG 0.16  HD
ATOM      4  C   ALA B   1      26.320  37.545   6.305  1.00 22.96 LIG 0.25  C 
ATOM      5 O    ALA B   1      27.130  36.623   6.395  1.00 26.59 LIG-0.27  OA
BRANCH 4 6
ATOM      6  CA  ALA B   1      25.602  37.820   4.976  1.00 23.15 LIG 0.27  C 
ATOM      7  CB  ALA B   1      26.529  37.445   3.782  1.00 22.78 LIG 0.05  C 
BRANCH 6 8
ATOM      8  N   ALA B   1      25.288  39.243   4.935  1.00 25.73 LIG-0.07  N 
ATOM      9 H3   ALA B   1      25.996  39.695   4.641  1.00 25.73 LIG 0.28  HD
ATOM     10 H1   ALA B   1      24.600  39.380   4.387  1.00 25.73 LIG 0.28  HD
ATOM     11 H2   ALA B   1      25.075  39.525   5.753  1.00 25.73 LIG 0.28  HD
ENDBRANCH 6 8
ENDBRANCH 4 6
ENDBRANCH 1 2
BRANCH 1 12
ATOM     12  CB  THR B   2      25.494  37.117   9.449  1.00 34.37 LIG 0.15  C 
ATOM     13  CG2 THR B   2      24.162  37.681   9.762  1.00 33.94 LIG 0.04  C 
BRANCH 12 14
ATOM     14 OG1  THR B   2      25.302  35.933   8.668  1.00 38.98 LIG-0.39  OA
ATOM     15 HG1  THR B   2      24.726  36.079   8.074  1.00 38.98 LIG 0.21  HD
ENDBRANCH 12 14
ENDBRANCH 1 12
BRANCH 1 16
ATOM     16  C   THR B   2      27.821  37.829   8.778  1.00 26.58 LIG 0.24  C 
ATOM     17  N   ALA B   3      28.659  38.880   8.762  1.00 27.81 LIG-0.35  N 
ATOM     18 H    ALA B   3      28.409  39.699   8.687  1.00 27.81 LIG 0.16  HD
ATOM     19 O    THR B   2      28.197  36.659   8.976  1.00 25.13 LIG-0.27  OA
BRANCH 17 20
ATOM     20  CA  ALA B   3      30.115  38.684   8.877  1.00 29.92 LIG 0.17  C 
ATOM     21  CB  ALA B   3      30.868  39.980   8.640  1.00 32.19 LIG 0.04  C 
BRANCH 20 22
ATOM     22  C   ALA B   3      30.350  38.202  10.269  1.00 36.50 LIG 0.24  C 
ATOM     23 O    ALA B   3      29.438  38.193  11.080  1.00 40.07 LIG-0.27  OA
ATOM     24  N   ALA B   4      31.576  37.792  10.544  1.00 42.66 LIG-0.34  N 
ATOM     25 H    ALA B   4      32.252  37.969  10.042  1.00 42.66 LIG 0.16  HD
BRANCH 24 26
ATOM     26  CA  ALA B   4      31.916  37.000  11.716  1.00 45.67 LIG 0.18  C 
ATOM     27  CB  ALA B   4      32.478  35.656  11.286  1.00 44.89 LIG 0.04  C 
BRANCH 26 28
ATOM     28  C   ALA B   4      32.938  37.765  12.532  1.00 51.09 LIG 0.20  C 
ATOM     29 O    ALA B   4      33.538  37.224  13.481  1.00 48.34 LIG-0.65  OA
ATOM     30 OXT  ALA B   4      33.159  38.945  12.239  1.00 61.57 LIG-0.65  OA
ENDBRANCH 26 28
ENDBRANCH 24 26
ENDBRANCH 20 22
ENDBRANCH 17 20
ENDBRANCH 1 16
TORSDOF 10
ENDMDL
MODEL 5
USER: ADFR SOLUTION from run 88
USER: SCORE 12.410921 LL:  -1.506 LR: -12.270 RR:   0.000 FEB:  -9.287
USER: RMSD 5.133142
USER: SEED 87
USER: STATUS no improvement in best in 10 clusters for 5 generations
USER: GENES 12
USER: genes 0 Translation |==|  0.40785 0.70998 0.32356
USER: genes 1 Rotation |==|  0.75834 0.24686 0.83944 0.56292
USER: genes 2 Torsion [CB]-CA--N-[C] |==|  0.74076
USER: genes 3 Torsion [N]-C--CA-[N] |==|  0.10268
USER: genes 4 Torsion [C]-CA--N-[H3] |==|  0.53881
USER: genes 5 Torsion [N]-CA--CB-[CG2] |==|  0.81653
USER: genes 6 Torsion [CA]-CB--OG1-[HG1] |==|  0.80916
USER: genes 7 Torsion [N]-CA--C-[N] |==|  0.27033
USER: genes 8 Torsion [C]-N--CA-[CB] |==|  0.48333
USER: genes 9 Torsion [N]-CA--C-[N] |==|  0.25046
USER: genes 10 Torsion [C]-N--CA-[CB] |==|  0.83588
USER: genes 11 Torsion [N]-CA--C-[O] |==|  0.07627
ROOT
ATOM      1  CA  THR B   2      26.225  38.127   8.609  1.00 29.13 LIG 0.20  C 
ENDROOT
BRANCH 1 2
ATOM      2  N   THR B   2      25.801  38.259   7.216  1.00 25.25 LIG-0.34  N 
ATOM      3 H    THR B   2      25.196  38.860   7.099  1.00 25.25 LIG 0.16  HD
ATOM      4  C   ALA B   1      26.288  37.536   6.231  1.00 22.96 LIG 0.25  C 
ATOM      5 O    ALA B   1      27.118  36.632   6.325  1.00 26.59 LIG-0.27  OA
BRANCH 4 6
ATOM      6  CA  ALA B   1      25.588  37.812   4.893  1.00 23.15 LIG 0.27  C 
ATOM      7  CB  ALA B   1      26.526  37.425   3.711  1.00 22.78 LIG 0.05  C 
BRANCH 6 8
ATOM      8  N   ALA B   1      25.288  39.238   4.843  1.00 25.73 LIG-0.07  N 
ATOM      9 H3   ALA B   1      24.711  39.397   4.185  1.00 25.73 LIG 0.28  HD
ATOM     10 H1   ALA B   1      24.932  39.494   5.618  1.00 25.73 LIG 0.28  HD
ATOM     11 H2   ALA B   1      26.038  39.695   4.697  1.00 25.73 LIG 0.28  HD
ENDBRANCH 6 8
ENDBRANCH 4 6
ENDBRANCH 1 2
BRANCH 1 12
ATOM     12  CB  THR B   2      25.317  37.152   9.393  1.00 34.37 LIG 0.15  C 
ATOM     13  CG2 THR B   2      23.960  37.734   9.493  1.00 33.94 LIG 0.04  C 
BRANCH 12 14
ATOM     14 OG1  THR B   2      25.211  35.892   8.723  1.00 38.98 LIG-0.39  OA
ATOM     15 HG1  THR B   2      24.776  35.988   8.011  1.00 38.98 LIG 0.21  HD
ENDBRANCH 12 14
ENDBRANCH 1 12
BRANCH 1 16
ATOM     16  C   THR B   2      27.697  37.674   8.734  1.00 26.58 LIG 0.24  C 
ATOM     17  N   ALA B   3      28.593  38.656   8.935  1.00 27.81 LIG-0.35  N 
ATOM     18 H    ALA B   3      28.395  39.491   8.983  1.00 27.81 LIG 0.16  HD
ATOM     19 O    THR B   2      27.992  36.465   8.756  1.00 25.13 LIG-0.27  OA
BRANCH 17 20
ATOM     20  CA  ALA B   3      30.026  38.347   9.093  1.00 29.92 LIG 0.17  C 
ATOM     21  CB  ALA B   3      30.859  39.614   9.162  1.00 32.19 LIG 0.04  C 
BRANCH 20 22
ATOM     22  C   ALA B   3      30.138  37.590  10.374  1.00 36.50 LIG 0.24  C 
ATOM     23 O    ALA B   3      30.310  38.182  11.427  1.00 40.07 LIG-0.27  OA
ATOM     24  N   ALA B   4      30.031  36.276  10.283  1.00 42.66 LIG-0.34  N 
ATOM     25 H    ALA B   4      30.097  35.851   9.539  1.00 42.66 LIG 0.16  HD
BRANCH 24 26
ATOM     26  CA  ALA B   4      29.791  35.407  11.426  1.00 45.67 LIG 0.18  C 
ATOM     27  CB  ALA B   4      30.906  35.574  12.445  1.00 44.89 LIG 0.04  C 
BRANCH 26 28
ATOM     28  C   ALA B   4      28.455  35.776  12.037  1.00 51.09 LIG 0.20  C 
ATOM     29 O    ALA B   4      27.549  36.281  11.345  1.00 48.34 LIG-0.65  OA
ATOM     30 OXT  ALA B   4      28.284  35.570  13.243  1.00 61.57 LIG-0.65  OA
ENDBRANCH 26 28
ENDBRANCH 24 26
ENDBRANCH 20 22
ENDBRANCH 17 20
ENDBRANCH 1 16
TORSDOF 10
ENDMDL
MODEL 6
USER: ADFR SOLUTION from run 50
USER: SCORE 12.858093 LL:  -1.799 LR: -12.057 RR:   0.000 FEB:  -9.074
USER: RMSD 6.098251
USER: SEED 49
USER: STATUS no improvement in best in 7 clusters for 5 generations
USER: GENES 12
USER: genes 0 Translation |==|  0.36558 0.69593 0.33386
USER: genes 1 Rotation |==|  0.63543 0.19518 0.81692 0.69572
USER: genes 2 Torsion [CB]-CA--N-[C] |==|  0.57251
USER: genes 3 Torsion [N]-C--CA-[N] |==|  0.14491
USER: genes 4 Torsion [C]-CA--N-[H3] |==|  0.25804
USER: genes 5 Torsion [N]-CA--CB-[CG2] |==|  0.23370
USER: genes 6 Torsion [CA]-CB--OG1-[HG1] |==|  0.85661
USER: genes 7 Torsion [N]-CA--C-[N] |==|  0.39566
USER: genes 8 Torsion [C]-N--CA-[CB] |==|  0.88568
USER: genes 9 Torsion [N]-CA--C-[N] |==|  0.79478
USER: genes 10 Torsion [C]-N--CA-[CB] |==|  0.19717
USER: genes 11 Torsion [N]-CA--C-[O] |==|  0.70242
ROOT
ATOM      1  CA  THR B   2      25.622  37.906   8.810  1.00 29.13 LIG 0.20  C 
ENDROOT
BRANCH 1 2
ATOM      2  N   THR B   2      25.381  38.069   7.377  1.00 25.25 LIG-0.34  N 
ATOM      3 H    THR B   2      24.656  38.497   7.200  1.00 25.25 LIG 0.16  HD
ATOM      4  C   ALA B   1      26.186  37.612   6.442  1.00 22.96 LIG 0.25  C 
ATOM      5 O    ALA B   1      27.214  36.958   6.614  1.00 26.59 LIG-0.27  OA
BRANCH 4 6
ATOM      6  CA  ALA B   1      25.635  37.835   5.027  1.00 23.15 LIG 0.27  C 
ATOM      7  CB  ALA B   1      26.717  37.464   3.969  1.00 22.78 LIG 0.05  C 
BRANCH 6 8
ATOM      8  N   ALA B   1      25.288  39.247   4.910  1.00 25.73 LIG-0.07  N 
ATOM      9 H3   ALA B   1      25.978  39.695   4.572  1.00 25.73 LIG 0.28  HD
ATOM     10 H1   ALA B   1      24.584  39.336   4.373  1.00 25.73 LIG 0.28  HD
ATOM     11 H2   ALA B   1      25.089  39.572   5.715  1.00 25.73 LIG 0.28  HD
ENDBRANCH 6 8
ENDBRANCH 4 6
ENDBRANCH 1 2
BRANCH 1 12
ATOM     12  CB  THR B   2      24.305  37.932   9.617  1.00 34.37 LIG 0.15  C 
ATOM     13  CG2 THR B   2      23.708  36.579   9.609  1.00 33.94 LIG 0.04  C 
BRANCH 12 14
ATOM     14 OG1  THR B   2      24.538  38.306  10.979  1.00 38.98 LIG-0.39  OA
ATOM     15 HG1  THR B   2      25.144  37.823  11.302  1.00 38.98 LIG 0.21  HD
ENDBRANCH 12 14
ENDBRANCH 1 12
BRANCH 1 16
ATOM     16  C   THR B   2      26.398  36.608   9.130  1.00 26.58 LIG 0.24  C 
ATOM     17  N   ALA B   3      27.302  36.699  10.120  1.00 27.81 LIG-0.35  N 
ATOM     18 H    ALA B   3      27.472  37.419  10.558  1.00 27.81 LIG 0.16  HD
ATOM     19 O    THR B   2      26.104  35.535   8.570  1.00 25.13 LIG-0.27  OA
BRANCH 17 20
ATOM     20  CA  ALA B   3      28.088  35.522  10.534  1.00 29.92 LIG 0.17  C 
ATOM     21  CB  ALA B   3      27.230  34.271  10.574  1.00 32.19 LIG 0.04  C 
BRANCH 20 22
ATOM     22  C   ALA B   3      29.163  35.374   9.509  1.00 36.50 LIG 0.24  C 
ATOM     23 O    ALA B   3      30.317  35.668   9.780  1.00 40.07 LIG-0.27  OA
ATOM     24  N   ALA B   4      28.785  34.908   8.332  1.00 42.66 LIG-0.34  N 
ATOM     25 H    ALA B   4      27.962  34.878   8.083  1.00 42.66 LIG 0.16  HD
BRANCH 24 26
ATOM     26  CA  ALA B   4      29.711  34.395   7.334  1.00 45.67 LIG 0.18  C 
ATOM     27  CB  ALA B   4      30.281  33.064   7.793  1.00 44.89 LIG 0.04  C 
BRANCH 26 28
ATOM     28  C   ALA B   4      28.964  34.230   6.026  1.00 51.09 LIG 0.20  C 
ATOM     29 O    ALA B   4      28.664  33.098   5.597  1.00 48.34 LIG-0.65  OA
ATOM     30 OXT  ALA B   4      28.663  35.244   5.389  1.00 61.57 LIG-0.65  OA
ENDBRANCH 26 28
ENDBRANCH 24 26
ENDBRANCH 20 22
ENDBRANCH 17 20
ENDBRANCH 1 16
TORSDOF 10
ENDMDL
MODEL 7
USER: ADFR SOLUTION from run 149
USER: SCORE 11.801760 LL:  -1.777 LR: -12.057 RR:   0.000 FEB:  -9.074
USER: RMSD 5.039376
USER: SEED 148
USER: STATUS no improvement in best in 4 clusters for 5 generations
USER: GENES 12
USER: genes 0 Translation |==|  0.39435 0.63250 0.36907
USER: genes 1 Rotation |==|  0.67572 0.21747 0.86120 0.59396
USER: genes 2 Torsion [CB]-CA--N-[C] |==|  0.28889
USER: genes 3 Torsion [N]-C--CA-[N] |==|  0.45868
USER: genes 4 Torsion [C]-CA--N-[H3] |==|  0.64664
USER: genes 5 Torsion [N]-CA--CB-[CG2] |==|  0.73431
USER: genes 6 Torsion [CA]-CB--OG1-[HG1] |==|  0.90719
USER: genes 7 Torsion [N]-CA--C-[N] |==|  0.28894
USER: genes 8 Torsion [C]-N--CA-[CB] |==|  0.13377
USER: genes 9 Torsion [N]-CA--C-[N] |==|  0.62158
USER: genes 10 Torsion [C]-N--CA-[CB] |==|  0.81947
USER: genes 11 Torsion [N]-CA--C-[O] |==|  0.17628
ROOT
ATOM      1  CA  THR B   2      26.032  36.907   9.497  1.00 29.13 LIG 0.20  C 
ENDROOT
BRANCH 1 2
ATOM      2  N   THR B   2      25.966  37.012   8.040  1.00 25.25 LIG-0.34  N 
ATOM      3 H    THR B   2      26.063  36.257   7.639  1.00 25.25 LIG 0.16  HD
ATOM      4  C   ALA B   1      25.777  38.143   7.395  1.00 22.96 LIG 0.25  C 
ATOM      5 O    ALA B   1      25.674  39.263   7.893  1.00 26.59 LIG-0.27  OA
BRANCH 4 6
ATOM      6  CA  ALA B   1      25.854  37.974   5.871  1.00 23.15 LIG 0.27  C 
ATOM      7  CB  ALA B   1      27.339  37.807   5.428  1.00 22.78 LIG 0.05  C 
BRANCH 6 8
ATOM      8  N   ALA B   1      25.288  39.175   5.269  1.00 25.73 LIG-0.07  N 
ATOM      9 H3   ALA B   1      24.657  38.945   4.685  1.00 25.73 LIG 0.28  HD
ATOM     10 H1   ALA B   1      24.932  39.686   5.904  1.00 25.73 LIG 0.28  HD
ATOM     11 H2   ALA B   1      25.929  39.628   4.849  1.00 25.73 LIG 0.28  HD
ENDBRANCH 6 8
ENDBRANCH 4 6
ENDBRANCH 1 2
BRANCH 1 12
ATOM     12  CB  THR B   2      24.730  36.320  10.086  1.00 34.37 LIG 0.15  C 
ATOM     13  CG2 THR B   2      23.851  37.432  10.514  1.00 33.94 LIG 0.04  C 
BRANCH 12 14
ATOM     14 OG1  THR B   2      24.023  35.546   9.113  1.00 38.98 LIG-0.39  OA
ATOM     15 HG1  THR B   2      24.138  35.880   8.351  1.00 38.98 LIG 0.21  HD
ENDBRANCH 12 14
ENDBRANCH 1 12
BRANCH 1 16
ATOM     16  C   THR B   2      27.239  36.064   9.969  1.00 26.58 LIG 0.24  C 
ATOM     17  N   ALA B   3      28.275  36.760  10.466  1.00 27.81 LIG-0.35  N 
ATOM     18 H    ALA B   3      28.304  37.617  10.519  1.00 27.81 LIG 0.16  HD
ATOM     19 O    THR B   2      27.181  34.820   9.983  1.00 25.13 LIG-0.27  OA
BRANCH 17 20
ATOM     20  CA  ALA B   3      29.475  36.067  10.971  1.00 29.92 LIG 0.17  C 
ATOM     21  CB  ALA B   3      29.964  35.021   9.986  1.00 32.19 LIG 0.04  C 
BRANCH 20 22
ATOM     22  C   ALA B   3      30.510  37.127  11.148  1.00 36.50 LIG 0.24  C 
ATOM     23 O    ALA B   3      30.218  38.192  11.668  1.00 40.07 LIG-0.27  OA
ATOM     24  N   ALA B   4      31.725  36.831  10.722  1.00 42.66 LIG-0.34  N 
ATOM     25 H    ALA B   4      31.889  36.170  10.197  1.00 42.66 LIG 0.16  HD
BRANCH 24 26
ATOM     26  CA  ALA B   4      32.914  37.583  11.093  1.00 45.67 LIG 0.18  C 
ATOM     27  CB  ALA B   4      32.826  38.994  10.536  1.00 44.89 LIG 0.04  C 
BRANCH 26 28
ATOM     28  C   ALA B   4      33.010  37.616  12.604  1.00 51.09 LIG 0.20  C 
ATOM     29 O    ALA B   4      33.165  36.567  13.261  1.00 48.34 LIG-0.65  OA
ATOM     30 OXT  ALA B   4      32.925  38.708  13.175  1.00 61.57 LIG-0.65  OA
ENDBRANCH 26 28
ENDBRANCH 24 26
ENDBRANCH 20 22
ENDBRANCH 17 20
ENDBRANCH 1 16
TORSDOF 10
ENDMDL
MODEL 8
USER: ADFR SOLUTION from run 200
USER: SCORE 11.361051 LL:  -1.958 LR: -11.539 RR:   0.000 FEB:  -8.556
USER: RMSD 2.989892
USER: SEED 199
USER: STATUS no improvement in best in 7 clusters for 5 generations
USER: GENES 12
USER: genes 0 Translation |==|  0.44388 0.50747 0.46828
USER: genes 1 Rotation |==|  0.28296 0.75041 0.27472 0.79906
USER: genes 2 Torsion [CB]-CA--N-[C] |==|  0.17225
USER: genes 3 Torsion [N]-C--CA-[N] |==|  0.44008
USER: genes 4 Torsion [C]-CA--N-[H3] |==|  0.14230
USER: genes 5 Torsion [N]-CA--CB-[CG2] |==|  0.23560
USER: genes 6 Torsion [CA]-CB--OG1-[HG1] |==|  0.98787
USER: genes 7 Torsion [N]-CA--C-[N] |==|  0.46269
USER: genes 8 Torsion [C]-N--CA-[CB] |==|  0.27222
USER: genes 9 Torsion [N]-CA--C-[N] |==|  0.83752
USER: genes 10 Torsion [C]-N--CA-[CB] |==|  0.13638
USER: genes 11 Torsion [N]-CA--C-[O] |==|  0.22821
ROOT
ATOM      1  CA  THR B   2      26.738  34.938  11.431  1.00 29.13 LIG 0.20  C 
ENDROOT
BRANCH 1 2
ATOM      2  N   THR B   2      26.466  36.128  10.627  1.00 25.25 LIG-0.34  N 
ATOM      3 H    THR B   2      26.986  36.789  10.810  1.00 25.25 LIG 0.16  HD
ATOM      4  C   ALA B   1      25.524  36.194   9.712  1.00 22.96 LIG 0.25  C 
ATOM      5 O    ALA B   1      24.717  35.311   9.425  1.00 26.59 LIG-0.27  OA
BRANCH 4 6
ATOM      6  CA  ALA B   1      25.395  37.594   9.096  1.00 23.15 LIG 0.27  C 
ATOM      7  CB  ALA B   1      24.538  38.507  10.024  1.00 22.78 LIG 0.05  C 
BRANCH 6 8
ATOM      8  N   ALA B   1      24.740  37.445   7.802  1.00 25.73 LIG-0.07  N 
ATOM      9 H3   ALA B   1      23.995  36.968   7.899  1.00 25.73 LIG 0.28  HD
ATOM     10 H1   ALA B   1      24.537  38.249   7.478  1.00 25.73 LIG 0.28  HD
ATOM     11 H2   ALA B   1      25.288  37.028   7.238  1.00 25.73 LIG 0.28  HD
ENDBRANCH 6 8
ENDBRANCH 4 6
ENDBRANCH 1 2
BRANCH 1 12
ATOM     12  CB  THR B   2      27.170  33.742  10.553  1.00 34.37 LIG 0.15  C 
ATOM     13  CG2 THR B   2      28.625  33.830  10.301  1.00 33.94 LIG 0.04  C 
BRANCH 12 14
ATOM     14 OG1  THR B   2      26.908  32.497  11.207  1.00 38.98 LIG-0.39  OA
ATOM     15 HG1  THR B   2      26.619  32.642  11.983  1.00 38.98 LIG 0.21  HD
ENDBRANCH 12 14
ENDBRANCH 1 12
BRANCH 1 16
ATOM     16  C   THR B   2      27.809  35.195  12.516  1.00 26.58 LIG 0.24  C 
ATOM     17  N   ALA B   3      27.913  34.251  13.466  1.00 27.81 LIG-0.35  N 
ATOM     18 H    ALA B   3      27.422  33.546  13.506  1.00 27.81 LIG 0.16  HD
ATOM     19 O    THR B   2      28.587  36.163  12.426  1.00 25.13 LIG-0.27  OA
BRANCH 17 20
ATOM     20  CA  ALA B   3      28.914  34.372  14.542  1.00 29.92 LIG 0.17  C 
ATOM     21  CB  ALA B   3      28.298  34.937  15.809  1.00 32.19 LIG 0.04  C 
BRANCH 20 22
ATOM     22  C   ALA B   3      29.412  32.987  14.788  1.00 36.50 LIG 0.24  C 
ATOM     23 O    ALA B   3      30.600  32.730  14.676  1.00 40.07 LIG-0.27  OA
ATOM     24  N   ALA B   4      28.501  32.094  15.134  1.00 42.66 LIG-0.34  N 
ATOM     25 H    ALA B   4      27.657  32.224  15.033  1.00 42.66 LIG 0.16  HD
BRANCH 24 26
ATOM     26  CA  ALA B   4      28.822  30.802  15.720  1.00 45.67 LIG 0.18  C 
ATOM     27  CB  ALA B   4      29.796  30.985  16.872  1.00 44.89 LIG 0.04  C 
BRANCH 26 28
ATOM     28  C   ALA B   4      27.538  30.163  16.208  1.00 51.09 LIG 0.20  C 
ATOM     29 O    ALA B   4      26.789  29.548  15.425  1.00 48.34 LIG-0.65  OA
ATOM     30 OXT  ALA B   4      27.246  30.271  17.404  1.00 61.57 LIG-0.65  OA
ENDBRANCH 26 28
ENDBRANCH 24 26
ENDBRANCH 20 22
ENDBRANCH 17 20
ENDBRANCH 1 16
TORSDOF 10
ENDMDL
MODEL 9
USER: ADFR SOLUTION from run 18
USER: SCORE 11.647911 LL:  -2.095 LR: -11.501 RR:   0.000 FEB:  -8.518
USER: RMSD 6.879661
USER: SEED 17
USER: STATUS no improvement in best in 6 clusters for 5 generations
USER: GENES 12
USER: genes 0 Translation |==|  0.39675 0.65677 0.34913
USER: genes 1 Rotation |==|  0.73958 0.23511 0.83823 0.58963
USER: genes 2 Torsion [CB]-CA--N-[C] |==|  0.51753
USER: genes 3 Torsion [N]-C--CA-[N] |==|  0.29190
USER: genes 4 Torsion [C]-CA--N-[H3] |==|  0.25625
USER: genes 5 Torsion [N]-CA--CB-[CG2] |==|  0.73520
USER: genes 6 Torsion [CA]-CB--OG1-[HG1] |==|  0.01393
USER: genes 7 Torsion [N]-CA--C-[N] |==|  0.91908
USER: genes 8 Torsion [C]-N--CA-[CB] |==|  0.21056
USER: genes 9 Torsion [N]-CA--C-[N] |==|  0.54927
USER: genes 10 Torsion [C]-N--CA-[CB] |==|  0.50739
USER: genes 11 Torsion [N]-CA--C-[O] |==|  0.31843
ROOT
ATOM      1  CA  THR B   2      26.067  37.289   9.108  1.00 29.13 LIG 0.20  C 
ENDROOT
BRANCH 1 2
ATOM      2  N   THR B   2      25.662  37.434   7.710  1.00 25.25 LIG-0.34  N 
ATOM      3 H    THR B   2      24.875  37.125   7.550  1.00 25.25 LIG 0.16  HD
ATOM      4  C   ALA B   1      26.416  37.983   6.782  1.00 22.96 LIG 0.25  C 
ATOM      5 O    ALA B   1      27.562  38.407   6.925  1.00 26.59 LIG-0.27  OA
BRANCH 4 6
ATOM      6  CA  ALA B   1      25.782  37.909   5.386  1.00 23.15 LIG 0.27  C 
ATOM      7  CB  ALA B   1      26.848  37.466   4.340  1.00 22.78 LIG 0.05  C 
BRANCH 6 8
ATOM      8  N   ALA B   1      25.288  39.242   5.060  1.00 25.73 LIG-0.07  N 
ATOM      9 H3   ALA B   1      25.916  39.691   4.618  1.00 25.73 LIG 0.28  HD
ATOM     10 H1   ALA B   1      24.561  39.172   4.552  1.00 25.73 LIG 0.28  HD
ATOM     11 H2   ALA B   1      25.085  39.676   5.810  1.00 25.73 LIG 0.28  HD
ENDBRANCH 6 8
ENDBRANCH 4 6
ENDBRANCH 1 2
BRANCH 1 12
ATOM     12  CB  THR B   2      25.037  36.470   9.918  1.00 34.37 LIG 0.15  C 
ATOM     13  CG2 THR B   2      24.107  37.401  10.596  1.00 33.94 LIG 0.04  C 
BRANCH 12 14
ATOM     14 OG1  THR B   2      24.266  35.618   9.065  1.00 38.98 LIG-0.39  OA
ATOM     15 HG1  THR B   2      24.560  35.666   8.280  1.00 38.98 LIG 0.21  HD
ENDBRANCH 12 14
ENDBRANCH 1 12
BRANCH 1 16
ATOM     16  C   THR B   2      27.465  36.645   9.249  1.00 26.58 LIG 0.24  C 
ATOM     17  N   ALA B   3      27.819  35.801   8.266  1.00 27.81 LIG-0.35  N 
ATOM     18 H    ALA B   3      27.319  35.600   7.595  1.00 27.81 LIG 0.16  HD
ATOM     19 O    THR B   2      28.236  36.991  10.164  1.00 25.13 LIG-0.27  OA
BRANCH 17 20
ATOM     20  CA  ALA B   3      29.138  35.143   8.276  1.00 29.92 LIG 0.17  C 
ATOM     21  CB  ALA B   3      29.181  34.010   9.285  1.00 32.19 LIG 0.04  C 
BRANCH 20 22
ATOM     22  C   ALA B   3      29.334  34.608   6.897  1.00 36.50 LIG 0.24  C 
ATOM     23 O    ALA B   3      28.664  35.034   5.970  1.00 40.07 LIG-0.27  OA
ATOM     24  N   ALA B   4      30.263  33.678   6.761  1.00 42.66 LIG-0.34  N 
ATOM     25 H    ALA B   4      30.599  33.251   7.427  1.00 42.66 LIG 0.16  HD
BRANCH 24 26
ATOM     26  CA  ALA B   4      30.818  33.278   5.477  1.00 45.67 LIG 0.18  C 
ATOM     27  CB  ALA B   4      31.811  32.145   5.674  1.00 44.89 LIG 0.04  C 
BRANCH 26 28
ATOM     28  C   ALA B   4      29.680  32.835   4.579  1.00 51.09 LIG 0.20  C 
ATOM     29 O    ALA B   4      29.392  33.471   3.546  1.00 48.34 LIG-0.65  OA
ATOM     30 OXT  ALA B   4      29.038  31.829   4.897  1.00 61.57 LIG-0.65  OA
ENDBRANCH 26 28
ENDBRANCH 24 26
ENDBRANCH 20 22
ENDBRANCH 17 20
ENDBRANCH 1 16
TORSDOF 10
ENDMDL
MODEL 10
USER: ADFR SOLUTION from run 200
USER: SCORE 12.575131 LL:  -1.897 LR: -11.430 RR:   0.000 FEB:  -8.447
USER: RMSD 6.812752
USER: SEED 199
USER: STATUS no improvement in best in 7 clusters for 5 generations
USER: GENES 12
USER: genes 0 Translation |==|  0.39347 0.69793 0.33965
USER: genes 1 Rotation |==|  0.76594 0.24041 0.83323 0.52910
USER: genes 2 Torsion [CB]-CA--N-[C] |==|  0.76640
USER: genes 3 Torsion [N]-C--CA-[N] |==|  0.11026
USER: genes 4 Torsion [C]-CA--N-[H3] |==|  0.24163
USER: genes 5 Torsion [N]-CA--CB-[CG2] |==|  0.80794
USER: genes 6 Torsion [CA]-CB--OG1-[HG1] |==|  0.77311
USER: genes 7 Torsion [N]-CA--C-[N] |==|  0.16759
USER: genes 8 Torsion [C]-N--CA-[CB] |==|  0.88845
USER: genes 9 Torsion [N]-CA--C-[N] |==|  0.83448
USER: genes 10 Torsion [C]-N--CA-[CB] |==|  0.35631
USER: genes 11 Torsion [N]-CA--C-[O] |==|  0.14074
ROOT
ATOM      1  CA  THR B   2      26.020  37.937   8.923  1.00 29.13 LIG 0.20  C 
ENDROOT
BRANCH 1 2
ATOM      2  N   THR B   2      25.632  38.177   7.534  1.00 25.25 LIG-0.34  N 
ATOM      3 H    THR B   2      25.069  38.821   7.443  1.00 25.25 LIG 0.16  HD
ATOM      4  C   ALA B   1      26.093  37.483   6.515  1.00 22.96 LIG 0.25  C 
ATOM      5 O    ALA B   1      26.863  36.526   6.568  1.00 26.59 LIG-0.27  OA
BRANCH 4 6
ATOM      6  CA  ALA B   1      25.438  37.882   5.185  1.00 23.15 LIG 0.27  C 
ATOM      7  CB  ALA B   1      26.342  37.443   3.994  1.00 22.78 LIG 0.05  C 
BRANCH 6 8
ATOM      8  N   ALA B   1      25.288  39.332   5.188  1.00 25.73 LIG-0.07  N 
ATOM      9 H3   ALA B   1      26.033  39.708   4.880  1.00 25.73 LIG 0.28  HD
ATOM     10 H1   ALA B   1      24.603  39.560   4.668  1.00 25.73 LIG 0.28  HD
ATOM     11 H2   ALA B   1      25.136  39.613   6.019  1.00 25.73 LIG 0.28  HD
ENDBRANCH 6 8
ENDBRANCH 4 6
ENDBRANCH 1 2
BRANCH 1 12
ATOM     12  CB  THR B   2      25.180  36.809   9.563  1.00 34.37 LIG 0.15  C 
ATOM     13  CG2 THR B   2      23.788  37.281   9.733  1.00 33.94 LIG 0.04  C 
BRANCH 12 14
ATOM     14 OG1  THR B   2      25.155  35.646   8.731  1.00 38.98 LIG-0.39  OA
ATOM     15 HG1  THR B   2      24.576  35.743   8.130  1.00 38.98 LIG 0.21  HD
ENDBRANCH 12 14
ENDBRANCH 1 12
BRANCH 1 16
ATOM     16  C   THR B   2      27.523  37.606   9.064  1.00 26.58 LIG 0.24  C 
ATOM     17  N   ALA B   3      28.371  38.558   8.640  1.00 27.81 LIG-0.35  N 
ATOM     18 H    ALA B   3      28.127  39.308   8.295  1.00 27.81 LIG 0.16  HD
ATOM     19 O    THR B   2      27.895  36.567   9.640  1.00 25.13 LIG-0.27  OA
BRANCH 17 20
ATOM     20  CA  ALA B   3      29.829  38.369   8.743  1.00 29.92 LIG 0.17  C 
ATOM     21  CB  ALA B   3      30.208  37.703  10.053  1.00 32.19 LIG 0.04  C 
BRANCH 20 22
ATOM     22  C   ALA B   3      30.206  37.494   7.595  1.00 36.50 LIG 0.24  C 
ATOM     23 O    ALA B   3      31.010  37.881   6.763  1.00 40.07 LIG-0.27  OA
ATOM     24  N   ALA B   4      29.630  36.305   7.557  1.00 42.66 LIG-0.34  N 
ATOM     25 H    ALA B   4      28.937  36.106   8.026  1.00 42.66 LIG 0.16  HD
BRANCH 24 26
ATOM     26  CA  ALA B   4      30.099  35.210   6.722  1.00 45.67 LIG 0.18  C 
ATOM     27  CB  ALA B   4      30.278  33.958   7.565  1.00 44.89 LIG 0.04  C 
BRANCH 26 28
ATOM     28  C   ALA B   4      29.081  34.970   5.626  1.00 51.09 LIG 0.20  C 
ATOM     29 O    ALA B   4      28.662  35.910   4.922  1.00 48.34 LIG-0.65  OA
ATOM     30 OXT  ALA B   4      28.669  33.819   5.449  1.00 61.57 LIG-0.65  OA
ENDBRANCH 26 28
ENDBRANCH 24 26
ENDBRANCH 20 22
ENDBRANCH 17 20
ENDBRANCH 1 16
TORSDOF 10
ENDMDL
MODEL 11
USER: ADFR SOLUTION from run 148
USER: SCORE 11.318829 LL:  -1.862 LR: -11.240 RR:   0.000 FEB:  -8.257
USER: RMSD 3.355369
USER: SEED 147
USER: STATUS no improvement in best in 8 clusters for 5 generations
USER: GENES 12
USER: genes 0 Translation |==|  0.46823 0.45715 0.47572
USER: genes 1 Rotation |==|  0.25063 0.65316 0.24007 0.81111
USER: genes 2 Torsion [CB]-CA--N-[C] |==|  0.47223
USER: genes 3 Torsion [N]-C--CA-[N] |==|  0.18168
USER: genes 4 Torsion [C]-CA--N-[H3] |==|  0.48915
USER: genes 5 Torsion [N]-CA--CB-[CG2] |==|  0.23830
USER: genes 6 Torsion [CA]-CB--OG1-[HG1] |==|  0.97356
USER: genes 7 Torsion [N]-CA--C-[N] |==|  0.48835
USER: genes 8 Torsion [C]-N--CA-[CB] |==|  0.24620
USER: genes 9 Torsion [N]-CA--C-[N] |==|  0.54888
USER: genes 10 Torsion [C]-N--CA-[CB] |==|  0.18352
USER: genes 11 Torsion [N]-CA--C-[O] |==|  0.81082
ROOT
ATOM      1  CA  THR B   2      27.085  34.145  11.577  1.00 29.13 LIG 0.20  C 
ENDROOT
BRANCH 1 2
ATOM      2  N   THR B   2      26.897  34.989  10.397  1.00 25.25 LIG-0.34  N 
ATOM      3 H    THR B   2      27.368  34.740   9.721  1.00 25.25 LIG 0.16  HD
ATOM      4  C   ALA B   1      26.090  36.027  10.361  1.00 22.96 LIG 0.25  C 
ATOM      5 O    ALA B   1      25.419  36.468  11.294  1.00 26.59 LIG-0.27  OA
BRANCH 4 6
ATOM      6  CA  ALA B   1      26.167  36.789   9.031  1.00 23.15 LIG 0.27  C 
ATOM      7  CB  ALA B   1      25.288  38.074   9.101  1.00 22.78 LIG 0.05  C 
BRANCH 6 8
ATOM      8  N   ALA B   1      25.668  35.901   7.988  1.00 25.73 LIG-0.07  N 
ATOM      9 H3   ALA B   1      25.648  36.336   7.212  1.00 25.73 LIG 0.28  HD
ATOM     10 H1   ALA B   1      26.205  35.195   7.918  1.00 25.73 LIG 0.28  HD
ATOM     11 H2   ALA B   1      24.846  35.630   8.197  1.00 25.73 LIG 0.28  HD
ENDBRANCH 6 8
ENDBRANCH 4 6
ENDBRANCH 1 2
BRANCH 1 12
ATOM     12  CB  THR B   2      27.895  32.872  11.243  1.00 34.37 LIG 0.15  C 
ATOM     13  CG2 THR B   2      29.339  33.182  11.336  1.00 33.94 LIG 0.04  C 
BRANCH 12 14
ATOM     14 OG1  THR B   2      27.608  31.818  12.167  1.00 38.98 LIG-0.39  OA
ATOM     15 HG1  THR B   2      27.149  32.119  12.803  1.00 38.98 LIG 0.21  HD
ENDBRANCH 12 14
ENDBRANCH 1 12
BRANCH 1 16
ATOM     16  C   THR B   2      27.769  34.903  12.737  1.00 26.58 LIG 0.24  C 
ATOM     17  N   ALA B   3      27.897  34.217  13.885  1.00 27.81 LIG-0.35  N 
ATOM     18 H    ALA B   3      27.615  33.414  14.005  1.00 27.81 LIG 0.16  HD
ATOM     19 O    THR B   2      28.262  36.033  12.557  1.00 25.13 LIG-0.27  OA
BRANCH 17 20
ATOM     20  CA  ALA B   3      28.553  34.825  15.057  1.00 29.92 LIG 0.17  C 
ATOM     21  CB  ALA B   3      27.558  35.582  15.916  1.00 32.19 LIG 0.04  C 
BRANCH 20 22
ATOM     22  C   ALA B   3      29.136  33.688  15.829  1.00 36.50 LIG 0.24  C 
ATOM     23 O    ALA B   3      29.301  32.602  15.296  1.00 40.07 LIG-0.27  OA
ATOM     24  N   ALA B   4      29.457  33.943  17.085  1.00 42.66 LIG-0.34  N 
ATOM     25 H    ALA B   4      29.175  34.635  17.509  1.00 42.66 LIG 0.16  HD
BRANCH 24 26
ATOM     26  CA  ALA B   4      30.317  33.084  17.885  1.00 45.67 LIG 0.18  C 
ATOM     27  CB  ALA B   4      31.726  33.091  17.316  1.00 44.89 LIG 0.04  C 
BRANCH 26 28
ATOM     28  C   ALA B   4      30.318  33.599  19.310  1.00 51.09 LIG 0.20  C 
ATOM     29 O    ALA B   4      30.846  34.692  19.598  1.00 48.34 LIG-0.65  OA
ATOM     30 OXT  ALA B   4      29.788  32.907  20.185  1.00 61.57 LIG-0.65  OA
ENDBRANCH 26 28
ENDBRANCH 24 26
ENDBRANCH 20 22
ENDBRANCH 17 20
ENDBRANCH 1 16
TORSDOF 10
ENDMDL
MODEL 12
USER: ADFR SOLUTION from run 11
USER: SCORE 12.025201 LL:  -1.946 LR: -11.191 RR:   0.000 FEB:  -8.208
USER: RMSD 4.387168
USER: SEED 858642
USER: STATUS no improvement in best in 7 clusters for 5 generations
USER: GENES 12
USER: genes 0 Translation |==|  0.37690 0.65133 0.35639
USER: genes 1 Rotation |==|  0.68781 0.20965 0.84195 0.61617
USER: genes 2 Torsion [CB]-CA--N-[C] |==|  0.49030
USER: genes 3 Torsion [N]-C--CA-[N] |==|  0.24547
USER: genes 4 Torsion [C]-CA--N-[H3] |==|  0.26826
USER: genes 5 Torsion [N]-CA--CB-[CG2] |==|  0.65128
USER: genes 6 Torsion [CA]-CB--OG1-[HG1] |==|  0.14396
USER: genes 7 Torsion [N]-CA--C-[N] |==|  0.47219
USER: genes 8 Torsion [C]-N--CA-[CB] |==|  0.48340
USER: genes 9 Torsion [N]-CA--C-[N] |==|  0.45345
USER: genes 10 Torsion [C]-N--CA-[CB] |==|  0.44416
USER: genes 11 Torsion [N]-CA--C-[O] |==|  0.41185
ROOT
ATOM      1  CA  THR B   2      25.784  37.203   9.250  1.00 29.13 LIG 0.20  C 
ENDROOT
BRANCH 1 2
ATOM      2  N   THR B   2      25.572  37.381   7.814  1.00 25.25 LIG-0.34  N 
ATOM      3 H    THR B   2      24.795  37.122   7.549  1.00 25.25 LIG 0.16  HD
ATOM      4  C   ALA B   1      26.472  37.886   6.997  1.00 22.96 LIG 0.25  C 
ATOM      5 O    ALA B   1      27.613  38.237   7.291  1.00 26.59 LIG-0.27  OA
BRANCH 4 6
ATOM      6  CA  ALA B   1      26.019  37.859   5.531  1.00 23.15 LIG 0.27  C 
ATOM      7  CB  ALA B   1      27.260  37.773   4.592  1.00 22.78 LIG 0.05  C 
BRANCH 6 8
ATOM      8  N   ALA B   1      25.288  39.095   5.276  1.00 25.73 LIG-0.07  N 
ATOM      9 H3   ALA B   1      25.834  39.693   4.908  1.00 25.73 LIG 0.28  HD
ATOM     10 H1   ALA B   1      24.611  38.930   4.722  1.00 25.73 LIG 0.28  HD
ATOM     11 H2   ALA B   1      24.971  39.416   6.043  1.00 25.73 LIG 0.28  HD
ENDBRANCH 6 8
ENDBRANCH 4 6
ENDBRANCH 1 2
BRANCH 1 12
ATOM     12  CB  THR B   2      24.515  36.669   9.952  1.00 34.37 LIG 0.15  C 
ATOM     13  CG2 THR B   2      24.163  37.576  11.066  1.00 33.94 LIG 0.04  C 
BRANCH 12 14
ATOM     14 OG1  THR B   2      23.405  36.622   9.050  1.00 38.98 LIG-0.39  OA
ATOM     15 HG1  THR B   2      23.625  36.208   8.354  1.00 38.98 LIG 0.21  HD
ENDBRANCH 12 14
ENDBRANCH 1 12
BRANCH 1 16
ATOM     16  C   THR B   2      26.976  36.268   9.555  1.00 26.58 LIG 0.24  C 
ATOM     17  N   ALA B   3      27.364  36.222  10.841  1.00 27.81 LIG-0.35  N 
ATOM     18 H    ALA B   3      27.004  36.679  11.474  1.00 27.81 LIG 0.16  HD
ATOM     19 O    THR B   2      27.452  35.533   8.670  1.00 25.13 LIG-0.27  OA
BRANCH 17 20
ATOM     20  CA  ALA B   3      28.475  35.349  11.261  1.00 29.92 LIG 0.17  C 
ATOM     21  CB  ALA B   3      28.829  35.569  12.720  1.00 32.19 LIG 0.04  C 
BRANCH 20 22
ATOM     22  C   ALA B   3      27.992  33.952  11.056  1.00 36.50 LIG 0.24  C 
ATOM     23 O    ALA B   3      26.802  33.727  10.908  1.00 40.07 LIG-0.27  OA
ATOM     24  N   ALA B   4      28.922  33.012  11.038  1.00 42.66 LIG-0.34  N 
ATOM     25 H    ALA B   4      29.723  33.141  11.323  1.00 42.66 LIG 0.16  HD
BRANCH 24 26
ATOM     26  CA  ALA B   4      28.694  31.666  10.537  1.00 45.67 LIG 0.18  C 
ATOM     27  CB  ALA B   4      30.022  31.011  10.194  1.00 44.89 LIG 0.04  C 
BRANCH 26 28
ATOM     28  C   ALA B   4      27.971  30.871  11.605  1.00 51.09 LIG 0.20  C 
ATOM     29 O    ALA B   4      27.166  29.969  11.301  1.00 48.34 LIG-0.65  OA
ATOM     30 OXT  ALA B   4      28.194  31.142  12.790  1.00 61.57 LIG-0.65  OA
ENDBRANCH 26 28
ENDBRANCH 24 26
ENDBRANCH 20 22
ENDBRANCH 17 20
ENDBRANCH 1 16
TORSDOF 10
ENDMDL
MODEL 13
USER: ADFR SOLUTION from run 86
USER: SCORE 11.722655 LL:  -2.161 LR: -11.176 RR:   0.000 FEB:  -8.193
USER: RMSD 1.276498
USER: SEED 85
USER: STATUS no improvement in best in 8 clusters for 5 generations
USER: GENES 12
USER: genes 0 Translation |==|  0.53357 0.57277 0.40191
USER: genes 1 Rotation |==|  0.51706 0.47521 0.53812 0.99764
USER: genes 2 Torsion [CB]-CA--N-[C] |==|  0.26833
USER: genes 3 Torsion [N]-C--CA-[N] |==|  0.57641
USER: genes 4 Torsion [C]-CA--N-[H3] |==|  0.69396
USER: genes 5 Torsion [N]-CA--CB-[CG2] |==|  0.62413
USER: genes 6 Torsion [CA]-CB--OG1-[HG1] |==|  0.11109
USER: genes 7 Torsion [N]-CA--C-[N] |==|  0.32856
USER: genes 8 Torsion [C]-N--CA-[CB] |==|  0.48890
USER: genes 9 Torsion [N]-CA--C-[N] |==|  0.45490
USER: genes 10 Torsion [C]-N--CA-[CB] |==|  0.17517
USER: genes 11 Torsion [N]-CA--C-[O] |==|  0.47158
ROOT
ATOM      1  CA  THR B   2      28.016  35.966  10.137  1.00 29.13 LIG 0.20  C 
ENDROOT
BRANCH 1 2
ATOM      2  N   THR B   2      26.886  36.834   9.809  1.00 25.25 LIG-0.34  N 
ATOM      3 H    THR B   2      26.437  37.084  10.499  1.00 25.25 LIG 0.16  HD
ATOM      4  C   ALA B   1      26.577  37.202   8.584  1.00 22.96 LIG 0.25  C 
ATOM      5 O    ALA B   1      27.141  36.852   7.548  1.00 26.59 LIG-0.27  OA
BRANCH 4 6
ATOM      6  CA  ALA B   1      25.284  38.027   8.524  1.00 23.15 LIG 0.27  C 
ATOM      7  CB  ALA B   1      24.296  37.550   9.630  1.00 22.78 LIG 0.05  C 
BRANCH 6 8
ATOM      8  N   ALA B   1      24.694  37.820   7.207  1.00 25.73 LIG-0.07  N 
ATOM      9 H3   ALA B   1      24.760  38.568   6.731  1.00 25.73 LIG 0.28  HD
ATOM     10 H1   ALA B   1      25.124  37.163   6.789  1.00 25.73 LIG 0.28  HD
ATOM     11 H2   ALA B   1      23.835  37.601   7.297  1.00 25.73 LIG 0.28  HD
ENDBRANCH 6 8
ENDBRANCH 4 6
ENDBRANCH 1 2
BRANCH 1 12
ATOM     12  CB  THR B   2      29.259  36.783  10.557  1.00 34.37 LIG 0.15  C 
ATOM     13  CG2 THR B   2      30.452  36.225   9.883  1.00 33.94 LIG 0.04  C 
BRANCH 12 14
ATOM     14 OG1  THR B   2      29.133  38.155  10.170  1.00 38.98 LIG-0.39  OA
ATOM     15 HG1  THR B   2      28.344  38.412  10.300  1.00 38.98 LIG 0.21  HD
ENDBRANCH 12 14
ENDBRANCH 1 12
BRANCH 1 16
ATOM     16  C   THR B   2      27.670  34.946  11.246  1.00 26.58 LIG 0.24  C 
ATOM     17  N   ALA B   3      27.752  33.653  10.892  1.00 27.81 LIG-0.35  N 
ATOM     18 H    ALA B   3      27.966  33.376  10.107  1.00 27.81 LIG 0.16  HD
ATOM     19 O    THR B   2      27.444  35.324  12.411  1.00 25.13 LIG-0.27  OA
BRANCH 17 20
ATOM     20  CA  ALA B   3      27.468  32.585  11.869  1.00 29.92 LIG 0.17  C 
ATOM     21  CB  ALA B   3      27.528  31.214  11.222  1.00 32.19 LIG 0.04  C 
BRANCH 20 22
ATOM     22  C   ALA B   3      28.524  32.704  12.917  1.00 36.50 LIG 0.24  C 
ATOM     23 O    ALA B   3      29.532  33.359  12.705  1.00 40.07 LIG-0.27  OA
ATOM     24  N   ALA B   4      28.286  32.076  14.055  1.00 42.66 LIG-0.34  N 
ATOM     25 H    ALA B   4      27.679  31.473  14.139  1.00 42.66 LIG 0.16  HD
BRANCH 24 26
ATOM     26  CA  ALA B   4      29.021  32.334  15.284  1.00 45.67 LIG 0.18  C 
ATOM     27  CB  ALA B   4      28.790  33.767  15.733  1.00 44.89 LIG 0.04  C 
BRANCH 26 28
ATOM     28  C   ALA B   4      28.540  31.363  16.343  1.00 51.09 LIG 0.20  C 
ATOM     29 O    ALA B   4      29.140  31.249  17.430  1.00 48.34 LIG-0.65  OA
ATOM     30 OXT  ALA B   4      27.539  30.680  16.103  1.00 61.57 LIG-0.65  OA
ENDBRANCH 26 28
ENDBRANCH 24 26
ENDBRANCH 20 22
ENDBRANCH 17 20
ENDBRANCH 1 16
TORSDOF 10
ENDMDL
