MODEL 1
USER: ADFR SOLUTION from run 177
USER: SCORE 15.544793 LL:  -2.751 LR: -12.922 RR:   0.000 FEB:  -9.939
USER: RMSD 1.044641
USER: SEED 176
USER: STATUS no improvement in best in 3 clusters for 5 generations
USER: GENES 12
USER: genes 0 Translation |==|  0.48714 0.54806 0.45237
USER: genes 1 Rotation |==|  0.50155 0.48193 0.53390 0.99852
USER: genes 2 Torsion [N]-CA--C-[O] |==|  0.86639
USER: genes 3 Torsion [C]-N--CA-[CB] |==|  0.29361
USER: genes 4 Torsion [N]-CA--C-[O] |==|  0.08847
USER: genes 5 Torsion [N]-CA--CB-[CG2] |==|  0.61104
USER: genes 6 Torsion [CA]-CB--CG1-[CD1] |==|  0.27420
USER: genes 7 Torsion [N]-C--CA-[N] |==|  0.40917
USER: genes 8 Torsion [C]-CA--CB-[CG2] |==|  0.94580
USER: genes 9 Torsion [C]-CA--N-[C] |==|  0.64806
USER: genes 10 Torsion [N]-C--CA-[N] |==|  0.39428
USER: genes 11 Torsion [C]-CA--N-[H3] |==|  0.46408
ROOT
ATOM      1  C   VAL B   2      27.462  34.617  10.983  1.00 20.42 LIG 0.24  C 
ATOM      2 O    VAL B   2      26.868  34.960  12.008  1.00 19.98 LIG-0.27  OA
ATOM      3  N   PRO B   3      27.837  33.337  10.761  1.00 20.62 LIG-0.34  N 
ATOM      4  CA  PRO B   3      27.456  32.290  11.717  1.00 20.39 LIG 0.18  C 
ATOM      5  CB  PRO B   3      27.289  31.075  10.798  1.00 21.35 LIG 0.04  C 
ATOM      6  CG  PRO B   3      28.272  31.271   9.687  1.00 22.27 LIG 0.02  C 
ATOM      7  CD  PRO B   3      28.292  32.776   9.462  1.00 22.13 LIG 0.13  C 
ENDROOT
BRANCH 4 8
ATOM      8  C   PRO B   3      28.473  32.056  12.835  1.00 20.13 LIG 0.24  C 
ATOM      9  N   ILE B   4      28.053  32.084  14.077  1.00 20.03 LIG-0.34  N 
ATOM     10 H    ILE B   4      27.270  32.369  14.292  1.00 20.03 LIG 0.16  HD
ATOM     11 O    PRO B   3      29.686  31.924  12.583  1.00 24.31 LIG-0.27  OA
BRANCH 9 12
ATOM     12  CA  ILE B   4      28.842  31.642  15.245  1.00 20.48 LIG 0.19  C 
BRANCH 12 13
ATOM     13  C   ILE B   4      28.030  30.725  16.155  1.00 21.21 LIG 0.20  C 
ATOM     14 O    ILE B   4      27.184  30.002  15.643  1.00 18.53 LIG-0.65  OA
ATOM     15 OXT  ILE B   4      28.135  30.705  17.429  1.00 22.21 LIG-0.65  OA
ENDBRANCH 12 13
BRANCH 12 16
ATOM     16  CB  ILE B   4      29.353  32.834  16.068  1.00 24.00 LIG 0.01  C 
ATOM     17  CG2 ILE B   4      30.776  32.636  16.570  1.00 26.11 LIG 0.01  C 
BRANCH 16 18
ATOM     18  CG1 ILE B   4      29.254  34.127  15.277  1.00 29.43 LIG 0.00  C 
ATOM     19  CD1 ILE B   4      28.019  34.900  15.658  1.00 33.97 LIG 0.01  C 
ENDBRANCH 16 18
ENDBRANCH 12 16
ENDBRANCH 9 12
ENDBRANCH 4 8
BRANCH 1 20
ATOM     20  CA  VAL B   2      27.903  35.656   9.932  1.00 21.93 LIG 0.18  C 
BRANCH 20 21
ATOM     21  CB  VAL B   2      29.258  36.266  10.355  1.00 24.26 LIG 0.01  C 
ATOM     22  CG2 VAL B   2      29.463  36.020  11.861  1.00 26.21 LIG 0.01  C 
ATOM     23  CG1 VAL B   2      29.381  37.737   9.964  1.00 24.62 LIG 0.01  C 
ENDBRANCH 20 21
BRANCH 20 24
ATOM     24  N   VAL B   2      26.903  36.702   9.816  1.00 19.39 LIG-0.35  N 
ATOM     25  C   ALA B   1      26.320  37.109   8.707  1.00 18.41 LIG 0.25  C 
ATOM     26 O    ALA B   1      26.417  36.598   7.574  1.00 21.55 LIG-0.27  OA
ATOM     27 H    VAL B   2      26.714  37.053  10.578  1.00 19.39 LIG 0.16  HD
BRANCH 25 28
ATOM     28  CA  ALA B   1      25.329  38.250   8.899  1.00 19.20 LIG 0.27  C 
ATOM     29  CB  ALA B   1      23.899  37.653   9.060  1.00 19.41 LIG 0.05  C 
BRANCH 28 30
ATOM     30  N   ALA B   1      25.395  39.208   7.787  1.00 20.83 LIG-0.07  N 
ATOM     31 H1   ALA B   1      26.143  39.686   7.850  1.00 20.83 LIG 0.28  HD
ATOM     32 H3   ALA B   1      24.692  39.753   7.822  1.00 20.83 LIG 0.28  HD
ATOM     33 H2   ALA B   1      25.390  38.767   7.014  1.00 20.83 LIG 0.28  HD
ENDBRANCH 28 30
ENDBRANCH 25 28
ENDBRANCH 20 24
ENDBRANCH 1 20
TORSDOF 10
ENDMDL
MODEL 2
USER: ADFR SOLUTION from run 190
USER: SCORE 14.235941 LL:  -2.370 LR: -12.014 RR:   0.000 FEB:  -9.031
USER: RMSD 3.871598
USER: SEED 189
USER: STATUS searching
USER: GENES 12
USER: genes 0 Translation |==|  0.44748 0.59908 0.38226
USER: genes 1 Rotation |==|  0.59725 0.20678 0.81253 0.73851
USER: genes 2 Torsion [N]-CA--C-[O] |==|  0.22052
USER: genes 3 Torsion [C]-N--CA-[CB] |==|  0.27916
USER: genes 4 Torsion [N]-CA--C-[O] |==|  0.29807
USER: genes 5 Torsion [N]-CA--CB-[CG2] |==|  0.45742
USER: genes 6 Torsion [CA]-CB--CG1-[CD1] |==|  0.65206
USER: genes 7 Torsion [N]-C--CA-[N] |==|  0.36398
USER: genes 8 Torsion [C]-CA--CB-[CG2] |==|  0.79409
USER: genes 9 Torsion [C]-CA--N-[C] |==|  0.69689
USER: genes 10 Torsion [N]-C--CA-[N] |==|  0.23614
USER: genes 11 Torsion [C]-CA--N-[H3] |==|  0.70790
ROOT
ATOM      1  C   VAL B   2      26.897  35.535   9.616  1.00 20.42 LIG 0.24  C 
ATOM      2 O    VAL B   2      26.432  34.449   9.262  1.00 19.98 LIG-0.27  OA
ATOM      3  N   PRO B   3      27.973  35.629  10.429  1.00 20.62 LIG-0.34  N 
ATOM      4  CA  PRO B   3      28.682  34.411  10.843  1.00 20.39 LIG 0.18  C 
ATOM      5  CB  PRO B   3      30.123  34.916  10.962  1.00 21.35 LIG 0.04  C 
ATOM      6  CG  PRO B   3      30.018  36.347  11.386  1.00 22.27 LIG 0.02  C 
ATOM      7  CD  PRO B   3      28.770  36.858  10.680  1.00 22.13 LIG 0.13  C 
ENDROOT
BRANCH 4 8
ATOM      8  C   PRO B   3      28.159  33.787  12.138  1.00 20.13 LIG 0.24  C 
ATOM      9  N   ILE B   4      28.869  33.934  13.231  1.00 20.03 LIG-0.34  N 
ATOM     10 H    ILE B   4      29.674  34.236  13.220  1.00 20.03 LIG 0.16  HD
ATOM     11 O    PRO B   3      27.129  33.086  12.144  1.00 24.31 LIG-0.27  OA
BRANCH 9 12
ATOM     12  CA  ILE B   4      28.395  33.612  14.593  1.00 20.48 LIG 0.19  C 
BRANCH 12 13
ATOM     13  C   ILE B   4      28.803  34.686  15.597  1.00 21.21 LIG 0.20  C 
ATOM     14 O    ILE B   4      27.935  35.436  16.027  1.00 18.53 LIG-0.65  OA
ATOM     15 OXT  ILE B   4      30.006  34.894  15.975  1.00 22.21 LIG-0.65  OA
ENDBRANCH 12 13
BRANCH 12 16
ATOM     16  CB  ILE B   4      28.930  32.254  15.073  1.00 24.00 LIG 0.01  C 
ATOM     17  CG2 ILE B   4      28.780  32.059  16.575  1.00 26.11 LIG 0.01  C 
BRANCH 16 18
ATOM     18  CG1 ILE B   4      28.265  31.110  14.328  1.00 29.43 LIG 0.00  C 
ATOM     19  CD1 ILE B   4      27.645  30.128  15.288  1.00 33.97 LIG 0.01  C 
ENDBRANCH 16 18
ENDBRANCH 12 16
ENDBRANCH 9 12
ENDBRANCH 4 8
BRANCH 1 20
ATOM     20  CA  VAL B   2      26.209  36.861   9.229  1.00 21.93 LIG 0.18  C 
BRANCH 20 21
ATOM     21  CB  VAL B   2      24.851  36.963   9.959  1.00 24.26 LIG 0.01  C 
ATOM     22  CG2 VAL B   2      23.854  36.002   9.287  1.00 26.21 LIG 0.01  C 
ATOM     23  CG1 VAL B   2      24.341  38.401  10.039  1.00 24.62 LIG 0.01  C 
ENDBRANCH 20 21
BRANCH 20 24
ATOM     24  N   VAL B   2      26.004  36.914   7.793  1.00 19.39 LIG-0.35  N 
ATOM     25  C   ALA B   1      26.643  37.688   6.938  1.00 18.41 LIG 0.25  C 
ATOM     26 O    ALA B   1      27.621  38.423   7.175  1.00 21.55 LIG-0.27  OA
ATOM     27 H    VAL B   2      25.395  36.365   7.533  1.00 19.39 LIG 0.16  HD
BRANCH 25 28
ATOM     28  CA  ALA B   1      26.188  37.540   5.493  1.00 19.20 LIG 0.27  C 
ATOM     29  CB  ALA B   1      27.383  37.876   4.551  1.00 19.41 LIG 0.05  C 
BRANCH 28 30
ATOM     30  N   ALA B   1      25.020  38.385   5.210  1.00 20.83 LIG-0.07  N 
ATOM     31 H1   ALA B   1      24.922  38.985   5.861  1.00 20.83 LIG 0.28  HD
ATOM     32 H3   ALA B   1      24.290  37.878   5.163  1.00 20.83 LIG 0.28  HD
ATOM     33 H2   ALA B   1      25.139  38.807   4.435  1.00 20.83 LIG 0.28  HD
ENDBRANCH 28 30
ENDBRANCH 25 28
ENDBRANCH 20 24
ENDBRANCH 1 20
TORSDOF 10
ENDMDL
MODEL 3
USER: ADFR SOLUTION from run 110
USER: SCORE 14.380815 LL:  -2.390 LR: -12.001 RR:   0.000 FEB:  -9.018
USER: RMSD 2.326924
USER: SEED 109
USER: STATUS searching
USER: GENES 12
USER: genes 0 Translation |==|  0.50699 0.57352 0.45510
USER: genes 1 Rotation |==|  0.44987 0.46172 0.54183 0.99424
USER: genes 2 Torsion [N]-CA--C-[O] |==|  0.79395
USER: genes 3 Torsion [C]-N--CA-[CB] |==|  0.89105
USER: genes 4 Torsion [N]-CA--C-[O] |==|  0.88352
USER: genes 5 Torsion [N]-CA--CB-[CG2] |==|  0.51865
USER: genes 6 Torsion [CA]-CB--CG1-[CD1] |==|  0.62286
USER: genes 7 Torsion [N]-C--CA-[N] |==|  0.41727
USER: genes 8 Torsion [C]-CA--CB-[CG2] |==|  0.95632
USER: genes 9 Torsion [C]-CA--N-[C] |==|  0.80578
USER: genes 10 Torsion [N]-C--CA-[N] |==|  0.39057
USER: genes 11 Torsion [C]-CA--N-[H3] |==|  0.03909
ROOT
ATOM      1  C   VAL B   2      27.745  35.075  11.037  1.00 20.42 LIG 0.24  C 
ATOM      2 O    VAL B   2      27.049  35.595  11.912  1.00 19.98 LIG-0.27  OA
ATOM      3  N   PRO B   3      28.159  33.791  11.113  1.00 20.62 LIG-0.34  N 
ATOM      4  CA  PRO B   3      27.703  32.942  12.221  1.00 20.39 LIG 0.18  C 
ATOM      5  CB  PRO B   3      27.645  31.564  11.554  1.00 21.35 LIG 0.04  C 
ATOM      6  CG  PRO B   3      28.728  31.568  10.522  1.00 22.27 LIG 0.02  C 
ATOM      7  CD  PRO B   3      28.747  32.998  10.001  1.00 22.13 LIG 0.13  C 
ENDROOT
BRANCH 4 8
ATOM      8  C   PRO B   3      28.610  32.971  13.452  1.00 20.13 LIG 0.24  C 
ATOM      9  N   ILE B   4      28.245  33.701  14.479  1.00 20.03 LIG-0.34  N 
ATOM     10 H    ILE B   4      27.602  34.271  14.433  1.00 20.03 LIG 0.16  HD
ATOM     11 O    PRO B   3      29.709  32.384  13.455  1.00 24.31 LIG-0.27  OA
BRANCH 9 12
ATOM     12  CA  ILE B   4      28.870  33.647  15.816  1.00 20.48 LIG 0.19  C 
BRANCH 12 13
ATOM     13  C   ILE B   4      30.132  34.502  15.880  1.00 21.21 LIG 0.20  C 
ATOM     14 O    ILE B   4      30.903  34.468  14.928  1.00 18.53 LIG-0.65  OA
ATOM     15 OXT  ILE B   4      30.469  35.208  16.890  1.00 22.21 LIG-0.65  OA
ENDBRANCH 12 13
BRANCH 12 16
ATOM     16  CB  ILE B   4      29.224  32.207  16.218  1.00 24.00 LIG 0.01  C 
ATOM     17  CG2 ILE B   4      29.719  32.101  17.654  1.00 26.11 LIG 0.01  C 
BRANCH 16 18
ATOM     18  CG1 ILE B   4      28.046  31.274  16.002  1.00 29.43 LIG 0.00  C 
ATOM     19  CD1 ILE B   4      27.867  30.347  17.176  1.00 33.97 LIG 0.01  C 
ENDBRANCH 16 18
ENDBRANCH 12 16
ENDBRANCH 9 12
ENDBRANCH 4 8
BRANCH 1 20
ATOM     20  CA  VAL B   2      28.270  35.898   9.842  1.00 21.93 LIG 0.18  C 
BRANCH 20 21
ATOM     21  CB  VAL B   2      29.606  36.568  10.234  1.00 24.26 LIG 0.01  C 
ATOM     22  CG2 VAL B   2      29.755  36.519  11.765  1.00 26.21 LIG 0.01  C 
ATOM     23  CG1 VAL B   2      29.740  37.978   9.662  1.00 24.62 LIG 0.01  C 
ENDBRANCH 20 21
BRANCH 20 24
ATOM     24  N   VAL B   2      27.299  36.911   9.471  1.00 19.39 LIG-0.35  N 
ATOM     25  C   ALA B   1      26.127  36.702   8.906  1.00 18.41 LIG 0.25  C 
ATOM     26 O    ALA B   1      25.576  35.604   8.698  1.00 21.55 LIG-0.27  OA
ATOM     27 H    VAL B   2      27.570  37.705   9.662  1.00 19.39 LIG 0.16  HD
BRANCH 25 28
ATOM     28  CA  ALA B   1      25.337  37.970   8.607  1.00 19.20 LIG 0.27  C 
ATOM     29  CB  ALA B   1      24.340  38.230   9.776  1.00 19.41 LIG 0.05  C 
BRANCH 28 30
ATOM     30  N   ALA B   1      24.645  37.877   7.314  1.00 20.83 LIG-0.07  N 
ATOM     31 H1   ALA B   1      23.805  38.159   7.405  1.00 20.83 LIG 0.28  HD
ATOM     32 H3   ALA B   1      24.645  37.031   7.037  1.00 20.83 LIG 0.28  HD
ATOM     33 H2   ALA B   1      25.065  38.385   6.716  1.00 20.83 LIG 0.28  HD
ENDBRANCH 28 30
ENDBRANCH 25 28
ENDBRANCH 20 24
ENDBRANCH 1 20
TORSDOF 10
ENDMDL
MODEL 4
USER: ADFR SOLUTION from run 197
USER: SCORE 14.043897 LL:  -2.430 LR: -11.913 RR:   0.000 FEB:  -8.930
USER: RMSD 4.209197
USER: SEED 196
USER: STATUS no improvement in best in 3 clusters for 5 generations
USER: GENES 12
USER: genes 0 Translation |==|  0.44914 0.62106 0.39670
USER: genes 1 Rotation |==|  0.62261 0.32217 0.84210 0.79379
USER: genes 2 Torsion [N]-CA--C-[O] |==|  0.04806
USER: genes 3 Torsion [C]-N--CA-[CB] |==|  0.25178
USER: genes 4 Torsion [N]-CA--C-[O] |==|  0.82292
USER: genes 5 Torsion [N]-CA--CB-[CG2] |==|  0.45733
USER: genes 6 Torsion [CA]-CB--CG1-[CD1] |==|  0.82346
USER: genes 7 Torsion [N]-C--CA-[N] |==|  0.27093
USER: genes 8 Torsion [C]-CA--CB-[CG2] |==|  0.64816
USER: genes 9 Torsion [C]-CA--N-[C] |==|  0.71137
USER: genes 10 Torsion [N]-C--CA-[N] |==|  0.26683
USER: genes 11 Torsion [C]-CA--N-[H3] |==|  0.04883
ROOT
ATOM      1  C   VAL B   2      26.920  35.931   9.898  1.00 20.42 LIG 0.24  C 
ATOM      2 O    VAL B   2      26.508  34.792  10.128  1.00 19.98 LIG-0.27  OA
ATOM      3  N   PRO B   3      28.196  36.302  10.150  1.00 20.62 LIG-0.34  N 
ATOM      4  CA  PRO B   3      29.163  35.306  10.629  1.00 20.39 LIG 0.18  C 
ATOM      5  CB  PRO B   3      30.467  35.814  10.008  1.00 21.35 LIG 0.04  C 
ATOM      6  CG  PRO B   3      30.333  37.303   9.947  1.00 22.27 LIG 0.02  C 
ATOM      7  CD  PRO B   3      28.857  37.537   9.655  1.00 22.13 LIG 0.13  C 
ENDROOT
BRANCH 4 8
ATOM      8  C   PRO B   3      29.237  35.181  12.152  1.00 20.13 LIG 0.24  C 
ATOM      9  N   ILE B   4      30.239  34.517  12.675  1.00 20.03 LIG-0.34  N 
ATOM     10 H    ILE B   4      30.767  34.031  12.201  1.00 20.03 LIG 0.16  HD
ATOM     11 O    PRO B   3      28.328  35.627  12.879  1.00 24.31 LIG-0.27  OA
BRANCH 9 12
ATOM     12  CA  ILE B   4      30.589  34.511  14.110  1.00 20.48 LIG 0.19  C 
BRANCH 12 13
ATOM     13  C   ILE B   4      32.095  34.380  14.319  1.00 21.21 LIG 0.20  C 
ATOM     14 O    ILE B   4      32.645  33.352  13.942  1.00 18.53 LIG-0.65  OA
ATOM     15 OXT  ILE B   4      32.814  35.252  14.917  1.00 22.21 LIG-0.65  OA
ENDBRANCH 12 13
BRANCH 12 16
ATOM     16  CB  ILE B   4      29.882  33.372  14.862  1.00 24.00 LIG 0.01  C 
ATOM     17  CG2 ILE B   4      30.491  33.103  16.231  1.00 26.11 LIG 0.01  C 
BRANCH 16 18
ATOM     18  CG1 ILE B   4      28.395  33.647  14.996  1.00 29.43 LIG 0.00  C 
ATOM     19  CD1 ILE B   4      28.145  34.877  15.829  1.00 33.97 LIG 0.01  C 
ENDBRANCH 16 18
ENDBRANCH 12 16
ENDBRANCH 9 12
ENDBRANCH 4 8
BRANCH 1 20
ATOM     20  CA  VAL B   2      25.968  37.037   9.398  1.00 21.93 LIG 0.18  C 
BRANCH 20 21
ATOM     21  CB  VAL B   2      24.575  36.836  10.033  1.00 24.26 LIG 0.01  C 
ATOM     22  CG2 VAL B   2      23.520  36.796   8.912  1.00 26.21 LIG 0.01  C 
ATOM     23  CG1 VAL B   2      24.270  37.877  11.109  1.00 24.62 LIG 0.01  C 
ENDBRANCH 20 21
BRANCH 20 24
ATOM     24  N   VAL B   2      25.865  36.987   7.951  1.00 19.39 LIG-0.35  N 
ATOM     25  C   ALA B   1      26.443  37.806   7.095  1.00 18.41 LIG 0.25  C 
ATOM     26 O    ALA B   1      27.280  38.693   7.350  1.00 21.55 LIG-0.27  OA
ATOM     27 H    VAL B   2      25.365  36.340   7.685  1.00 19.39 LIG 0.16  HD
BRANCH 25 28
ATOM     28  CA  ALA B   1      26.123  37.519   5.634  1.00 19.20 LIG 0.27  C 
ATOM     29  CB  ALA B   1      27.414  37.721   4.786  1.00 19.41 LIG 0.05  C 
BRANCH 28 30
ATOM     30  N   ALA B   1      25.020  38.363   5.152  1.00 20.83 LIG-0.07  N 
ATOM     31 H1   ALA B   1      25.211  38.665   4.337  1.00 20.83 LIG 0.28  HD
ATOM     32 H3   ALA B   1      24.909  39.052   5.705  1.00 20.83 LIG 0.28  HD
ATOM     33 H2   ALA B   1      24.271  37.883   5.123  1.00 20.83 LIG 0.28  HD
ENDBRANCH 28 30
ENDBRANCH 25 28
ENDBRANCH 20 24
ENDBRANCH 1 20
TORSDOF 10
ENDMDL
MODEL 5
USER: ADFR SOLUTION from run 149
USER: SCORE 13.979625 LL:  -2.431 LR: -11.670 RR:   0.000 FEB:  -8.687
USER: RMSD 2.064920
USER: SEED 148
USER: STATUS no improvement in best in 4 clusters for 5 generations
USER: GENES 12
USER: genes 0 Translation |==|  0.48906 0.54127 0.45955
USER: genes 1 Rotation |==|  0.49864 0.47288 0.50995 0.99916
USER: genes 2 Torsion [N]-CA--C-[O] |==|  0.96873
USER: genes 3 Torsion [C]-N--CA-[CB] |==|  0.48855
USER: genes 4 Torsion [N]-CA--C-[O] |==|  0.42260
USER: genes 5 Torsion [N]-CA--CB-[CG2] |==|  0.23619
USER: genes 6 Torsion [CA]-CB--CG1-[CD1] |==|  0.49148
USER: genes 7 Torsion [N]-C--CA-[N] |==|  0.38785
USER: genes 8 Torsion [C]-CA--CB-[CG2] |==|  0.97059
USER: genes 9 Torsion [C]-CA--N-[C] |==|  0.72041
USER: genes 10 Torsion [N]-C--CA-[N] |==|  0.48625
USER: genes 11 Torsion [C]-CA--N-[H3] |==|  0.71532
ROOT
ATOM      1  C   VAL B   2      27.489  34.495  11.123  1.00 20.42 LIG 0.24  C 
ATOM      2 O    VAL B   2      26.895  34.901  12.124  1.00 19.98 LIG-0.27  OA
ATOM      3  N   PRO B   3      27.747  33.183  10.920  1.00 20.62 LIG-0.34  N 
ATOM      4  CA  PRO B   3      27.233  32.184  11.865  1.00 20.39 LIG 0.18  C 
ATOM      5  CB  PRO B   3      26.983  30.985  10.946  1.00 21.35 LIG 0.04  C 
ATOM      6  CG  PRO B   3      28.020  31.076   9.871  1.00 22.27 LIG 0.02  C 
ATOM      7  CD  PRO B   3      28.193  32.572   9.641  1.00 22.13 LIG 0.13  C 
ENDROOT
BRANCH 4 8
ATOM      8  C   PRO B   3      28.182  31.862  13.021  1.00 20.13 LIG 0.24  C 
ATOM      9  N   ILE B   4      27.701  31.234  14.067  1.00 20.03 LIG-0.34  N 
ATOM     10 H    ILE B   4      26.856  31.127  14.191  1.00 20.03 LIG 0.16  HD
ATOM     11 O    PRO B   3      29.364  32.257  13.012  1.00 24.31 LIG-0.27  OA
BRANCH 9 12
ATOM     12  CA  ILE B   4      28.519  30.638  15.143  1.00 20.48 LIG 0.19  C 
BRANCH 12 13
ATOM     13  C   ILE B   4      29.426  29.533  14.610  1.00 21.21 LIG 0.20  C 
ATOM     14 O    ILE B   4      30.477  29.313  15.200  1.00 18.53 LIG-0.65  OA
ATOM     15 OXT  ILE B   4      29.187  28.858  13.552  1.00 22.21 LIG-0.65  OA
ENDBRANCH 12 13
BRANCH 12 16
ATOM     16  CB  ILE B   4      27.645  30.066  16.269  1.00 24.00 LIG 0.01  C 
ATOM     17  CG2 ILE B   4      27.174  28.646  15.986  1.00 26.11 LIG 0.01  C 
BRANCH 16 18
ATOM     18  CG1 ILE B   4      28.368  30.119  17.603  1.00 29.43 LIG 0.00  C 
ATOM     19  CD1 ILE B   4      27.484  29.626  18.718  1.00 33.97 LIG 0.01  C 
ENDBRANCH 16 18
ENDBRANCH 12 16
ENDBRANCH 9 12
ENDBRANCH 4 8
BRANCH 1 20
ATOM     20  CA  VAL B   2      28.066  35.478  10.084  1.00 21.93 LIG 0.18  C 
BRANCH 20 21
ATOM     21  CB  VAL B   2      29.363  36.106  10.642  1.00 24.26 LIG 0.01  C 
ATOM     22  CG2 VAL B   2      29.488  35.741  12.133  1.00 26.21 LIG 0.01  C 
ATOM     23  CG1 VAL B   2      29.440  37.609  10.382  1.00 24.62 LIG 0.01  C 
ENDBRANCH 20 21
BRANCH 20 24
ATOM     24  N   VAL B   2      27.097  36.520   9.794  1.00 19.39 LIG-0.35  N 
ATOM     25  C   ALA B   1      26.306  36.583   8.742  1.00 18.41 LIG 0.25  C 
ATOM     26 O    ALA B   1      26.146  35.710   7.867  1.00 21.55 LIG-0.27  OA
ATOM     27 H    VAL B   2      27.083  37.127  10.403  1.00 19.39 LIG 0.16  HD
BRANCH 25 28
ATOM     28  CA  ALA B   1      25.413  37.816   8.698  1.00 19.20 LIG 0.27  C 
ATOM     29  CB  ALA B   1      24.478  37.806   9.945  1.00 19.41 LIG 0.05  C 
BRANCH 28 30
ATOM     30  N   ALA B   1      24.647  37.877   7.446  1.00 20.83 LIG-0.07  N 
ATOM     31 H1   ALA B   1      24.645  37.076   7.059  1.00 20.83 LIG 0.28  HD
ATOM     32 H3   ALA B   1      25.020  38.470   6.898  1.00 20.83 LIG 0.28  HD
ATOM     33 H2   ALA B   1      23.809  38.122   7.622  1.00 20.83 LIG 0.28  HD
ENDBRANCH 28 30
ENDBRANCH 25 28
ENDBRANCH 20 24
ENDBRANCH 1 20
TORSDOF 10
ENDMDL
MODEL 6
USER: ADFR SOLUTION from run 80
USER: SCORE 14.365496 LL:  -3.197 LR: -11.281 RR:   0.000 FEB:  -8.298
USER: RMSD 2.325713
USER: SEED 79
USER: STATUS no improvement in best in 2 clusters for 5 generations
USER: GENES 12
USER: genes 0 Translation |==|  0.49074 0.58129 0.44095
USER: genes 1 Rotation |==|  0.50014 0.42804 0.52540 0.99414
USER: genes 2 Torsion [N]-CA--C-[O] |==|  0.64211
USER: genes 3 Torsion [C]-N--CA-[CB] |==|  0.24147
USER: genes 4 Torsion [N]-CA--C-[O] |==|  0.61813
USER: genes 5 Torsion [N]-CA--CB-[CG2] |==|  0.76590
USER: genes 6 Torsion [CA]-CB--CG1-[CD1] |==|  0.71713
USER: genes 7 Torsion [N]-C--CA-[N] |==|  0.37058
USER: genes 8 Torsion [C]-CA--CB-[CG2] |==|  0.41626
USER: genes 9 Torsion [C]-CA--N-[C] |==|  0.73616
USER: genes 10 Torsion [N]-C--CA-[N] |==|  0.50979
USER: genes 11 Torsion [C]-CA--N-[H3] |==|  0.96724
ROOT
ATOM      1  C   VAL B   2      27.513  35.215  10.760  1.00 20.42 LIG 0.24  C 
ATOM      2 O    VAL B   2      26.724  35.572  11.639  1.00 19.98 LIG-0.27  OA
ATOM      3  N   PRO B   3      27.886  33.925  10.606  1.00 20.62 LIG-0.34  N 
ATOM      4  CA  PRO B   3      27.274  32.885  11.443  1.00 20.39 LIG 0.18  C 
ATOM      5  CB  PRO B   3      27.270  31.683  10.494  1.00 21.35 LIG 0.04  C 
ATOM      6  CG  PRO B   3      28.474  31.851   9.622  1.00 22.27 LIG 0.02  C 
ATOM      7  CD  PRO B   3      28.591  33.357   9.428  1.00 22.13 LIG 0.13  C 
ENDROOT
BRANCH 4 8
ATOM      8  C   PRO B   3      28.020  32.609  12.751  1.00 20.13 LIG 0.24  C 
ATOM      9  N   ILE B   4      28.395  33.630  13.482  1.00 20.03 LIG-0.34  N 
ATOM     10 H    ILE B   4      28.370  34.439  13.191  1.00 20.03 LIG 0.16  HD
ATOM     11 O    PRO B   3      28.338  31.449  13.077  1.00 24.31 LIG-0.27  OA
BRANCH 9 12
ATOM     12  CA  ILE B   4      28.898  33.535  14.868  1.00 20.48 LIG 0.19  C 
BRANCH 12 13
ATOM     13  C   ILE B   4      28.585  34.797  15.666  1.00 21.21 LIG 0.20  C 
ATOM     14 O    ILE B   4      29.457  35.252  16.396  1.00 18.53 LIG-0.65  OA
ATOM     15 OXT  ILE B   4      27.447  35.381  15.667  1.00 22.21 LIG-0.65  OA
ENDBRANCH 12 13
BRANCH 12 16
ATOM     16  CB  ILE B   4      30.414  33.286  14.906  1.00 24.00 LIG 0.01  C 
ATOM     17  CG2 ILE B   4      30.772  31.814  14.767  1.00 26.11 LIG 0.01  C 
BRANCH 16 18
ATOM     18  CG1 ILE B   4      31.127  34.100  13.840  1.00 29.43 LIG 0.00  C 
ATOM     19  CD1 ILE B   4      31.486  33.243  12.655  1.00 33.97 LIG 0.01  C 
ENDBRANCH 16 18
ENDBRANCH 12 16
ENDBRANCH 9 12
ENDBRANCH 4 8
BRANCH 1 20
ATOM     20  CA  VAL B   2      28.203  36.245   9.842  1.00 21.93 LIG 0.18  C 
BRANCH 20 21
ATOM     21  CB  VAL B   2      29.230  37.054  10.666  1.00 24.26 LIG 0.01  C 
ATOM     22  CG2 VAL B   2      30.381  37.483   9.738  1.00 26.21 LIG 0.01  C 
ATOM     23  CG1 VAL B   2      29.706  36.299  11.905  1.00 24.62 LIG 0.01  C 
ENDBRANCH 20 21
BRANCH 20 24
ATOM     24  N   VAL B   2      27.215  37.139   9.267  1.00 19.39 LIG-0.35  N 
ATOM     25  C   ALA B   1      26.633  37.012   8.092  1.00 18.41 LIG 0.25  C 
ATOM     26 O    ALA B   1      26.722  36.047   7.308  1.00 21.55 LIG-0.27  OA
ATOM     27 H    VAL B   2      27.031  37.797   9.790  1.00 19.39 LIG 0.16  HD
BRANCH 25 28
ATOM     28  CA  ALA B   1      25.655  38.128   7.749  1.00 19.20 LIG 0.27  C 
ATOM     29  CB  ALA B   1      24.631  38.276   8.913  1.00 19.41 LIG 0.05  C 
BRANCH 28 30
ATOM     30  N   ALA B   1      24.985  37.877   6.465  1.00 20.83 LIG-0.07  N 
ATOM     31 H1   ALA B   1      24.135  37.658   6.611  1.00 20.83 LIG 0.28  HD
ATOM     32 H3   ALA B   1      25.395  37.210   6.041  1.00 20.83 LIG 0.28  HD
ATOM     33 H2   ALA B   1      25.020  38.612   5.963  1.00 20.83 LIG 0.28  HD
ENDBRANCH 28 30
ENDBRANCH 25 28
ENDBRANCH 20 24
ENDBRANCH 1 20
TORSDOF 10
ENDMDL
MODEL 7
USER: ADFR SOLUTION from run 19
USER: SCORE 13.908926 LL:  -2.649 LR: -11.269 RR:   0.000 FEB:  -8.286
USER: RMSD 2.220484
USER: SEED 18
USER: STATUS no improvement in best in 5 clusters for 5 generations
USER: GENES 12
USER: genes 0 Translation |==|  0.49765 0.54866 0.46949
USER: genes 1 Rotation |==|  0.52078 0.44850 0.51733 0.99660
USER: genes 2 Torsion [N]-CA--C-[O] |==|  0.95473
USER: genes 3 Torsion [C]-N--CA-[CB] |==|  0.88391
USER: genes 4 Torsion [N]-CA--C-[O] |==|  0.38505
USER: genes 5 Torsion [N]-CA--CB-[CG2] |==|  0.43834
USER: genes 6 Torsion [CA]-CB--CG1-[CD1] |==|  0.26998
USER: genes 7 Torsion [N]-C--CA-[N] |==|  0.37004
USER: genes 8 Torsion [C]-CA--CB-[CG2] |==|  0.46800
USER: genes 9 Torsion [C]-CA--N-[C] |==|  0.82758
USER: genes 10 Torsion [N]-C--CA-[N] |==|  0.41330
USER: genes 11 Torsion [C]-CA--N-[H3] |==|  0.58893
ROOT
ATOM      1  C   VAL B   2      27.612  34.628  11.317  1.00 20.42 LIG 0.24  C 
ATOM      2 O    VAL B   2      26.910  34.924  12.287  1.00 19.98 LIG-0.27  OA
ATOM      3  N   PRO B   3      27.939  33.349  11.027  1.00 20.62 LIG-0.34  N 
ATOM      4  CA  PRO B   3      27.376  32.253  11.827  1.00 20.39 LIG 0.18  C 
ATOM      5  CB  PRO B   3      27.262  31.134  10.787  1.00 21.35 LIG 0.04  C 
ATOM      6  CG  PRO B   3      28.391  31.354   9.830  1.00 22.27 LIG 0.02  C 
ATOM      7  CD  PRO B   3      28.527  32.869   9.749  1.00 22.13 LIG 0.13  C 
ENDROOT
BRANCH 4 8
ATOM      8  C   PRO B   3      28.224  31.857  13.038  1.00 20.13 LIG 0.24  C 
ATOM      9  N   ILE B   4      27.645  31.209  14.019  1.00 20.03 LIG-0.34  N 
ATOM     10 H    ILE B   4      26.791  31.127  14.076  1.00 20.03 LIG 0.16  HD
ATOM     11 O    PRO B   3      29.415  32.211  13.132  1.00 24.31 LIG-0.27  OA
BRANCH 9 12
ATOM     12  CA  ILE B   4      28.360  30.547  15.130  1.00 20.48 LIG 0.19  C 
BRANCH 12 13
ATOM     13  C   ILE B   4      28.777  31.549  16.202  1.00 21.21 LIG 0.20  C 
ATOM     14 O    ILE B   4      28.650  31.226  17.377  1.00 18.53 LIG-0.65  OA
ATOM     15 OXT  ILE B   4      29.198  32.730  15.955  1.00 22.21 LIG-0.65  OA
ENDBRANCH 12 13
BRANCH 12 16
ATOM     16  CB  ILE B   4      29.608  29.799  14.635  1.00 24.00 LIG 0.01  C 
ATOM     17  CG2 ILE B   4      30.635  29.575  15.736  1.00 26.11 LIG 0.01  C 
BRANCH 16 18
ATOM     18  CG1 ILE B   4      29.232  28.475  13.994  1.00 29.43 LIG 0.00  C 
ATOM     19  CD1 ILE B   4      29.156  28.602  12.495  1.00 33.97 LIG 0.01  C 
ENDBRANCH 16 18
ENDBRANCH 12 16
ENDBRANCH 9 12
ENDBRANCH 4 8
BRANCH 1 20
ATOM     20  CA  VAL B   2      28.245  35.718  10.429  1.00 21.93 LIG 0.18  C 
BRANCH 20 21
ATOM     21  CB  VAL B   2      29.355  36.442  11.224  1.00 24.26 LIG 0.01  C 
ATOM     22  CG2 VAL B   2      30.169  37.318  10.254  1.00 26.21 LIG 0.01  C 
ATOM     23  CG1 VAL B   2      30.218  35.474  12.030  1.00 24.62 LIG 0.01  C 
ENDBRANCH 20 21
BRANCH 20 24
ATOM     24  N   VAL B   2      27.232  36.671  10.013  1.00 19.39 LIG-0.35  N 
ATOM     25  C   ALA B   1      26.167  36.413   9.280  1.00 18.41 LIG 0.25  C 
ATOM     26 O    ALA B   1      25.760  35.294   8.912  1.00 21.55 LIG-0.27  OA
ATOM     27 H    VAL B   2      27.396  37.464  10.303  1.00 19.39 LIG 0.16  HD
BRANCH 25 28
ATOM     28  CA  ALA B   1      25.299  37.628   8.981  1.00 19.20 LIG 0.27  C 
ATOM     29  CB  ALA B   1      24.270  37.809  10.137  1.00 19.41 LIG 0.05  C 
BRANCH 28 30
ATOM     30  N   ALA B   1      24.634  37.502   7.677  1.00 20.83 LIG-0.07  N 
ATOM     31 H1   ALA B   1      25.128  36.993   7.139  1.00 20.83 LIG 0.28  HD
ATOM     32 H3   ALA B   1      24.535  38.309   7.314  1.00 20.83 LIG 0.28  HD
ATOM     33 H2   ALA B   1      23.834  37.127   7.787  1.00 20.83 LIG 0.28  HD
ENDBRANCH 28 30
ENDBRANCH 25 28
ENDBRANCH 20 24
ENDBRANCH 1 20
TORSDOF 10
ENDMDL
MODEL 8
USER: ADFR SOLUTION from run 143
USER: SCORE 13.788053 LL:  -2.826 LR: -11.036 RR:   0.000 FEB:  -8.053
USER: RMSD 4.586476
USER: SEED 142
USER: STATUS no improvement in best in 4 clusters for 5 generations
USER: GENES 12
USER: genes 0 Translation |==|  0.48717 0.63625 0.33701
USER: genes 1 Rotation |==|  0.65796 0.24066 0.83267 0.71707
USER: genes 2 Torsion [N]-CA--C-[O] |==|  0.52713
USER: genes 3 Torsion [C]-N--CA-[CB] |==|  0.88221
USER: genes 4 Torsion [N]-CA--C-[O] |==|  0.35282
USER: genes 5 Torsion [N]-CA--CB-[CG2] |==|  0.42929
USER: genes 6 Torsion [CA]-CB--CG1-[CD1] |==|  0.24399
USER: genes 7 Torsion [N]-C--CA-[N] |==|  0.34764
USER: genes 8 Torsion [C]-CA--CB-[CG2] |==|  0.45307
USER: genes 9 Torsion [C]-CA--N-[C] |==|  0.79899
USER: genes 10 Torsion [N]-C--CA-[N] |==|  0.17212
USER: genes 11 Torsion [C]-CA--N-[H3] |==|  0.66699
ROOT
ATOM      1  C   VAL B   2      27.462  36.205   8.734  1.00 20.42 LIG 0.24  C 
ATOM      2 O    VAL B   2      27.246  35.029   8.431  1.00 19.98 LIG-0.27  OA
ATOM      3  N   PRO B   3      28.586  36.588   9.379  1.00 20.62 LIG-0.34  N 
ATOM      4  CA  PRO B   3      29.639  35.603   9.658  1.00 20.39 LIG 0.18  C 
ATOM      5  CB  PRO B   3      30.903  36.464   9.572  1.00 21.35 LIG 0.04  C 
ATOM      6  CG  PRO B   3      30.497  37.827  10.036  1.00 22.27 LIG 0.02  C 
ATOM      7  CD  PRO B   3      29.068  37.986   9.534  1.00 22.13 LIG 0.13  C 
ENDROOT
BRANCH 4 8
ATOM      8  C   PRO B   3      29.494  34.890  11.004  1.00 20.13 LIG 0.24  C 
ATOM      9  N   ILE B   4      28.422  35.125  11.723  1.00 20.03 LIG-0.34  N 
ATOM     10 H    ILE B   4      27.877  35.765  11.540  1.00 20.03 LIG 0.16  HD
ATOM     11 O    PRO B   3      30.405  34.166  11.450  1.00 24.31 LIG-0.27  OA
BRANCH 9 12
ATOM     12  CA  ILE B   4      28.016  34.347  12.910  1.00 20.48 LIG 0.19  C 
BRANCH 12 13
ATOM     13  C   ILE B   4      28.803  34.762  14.149  1.00 21.21 LIG 0.20  C 
ATOM     14 O    ILE B   4      28.177  35.074  15.155  1.00 18.53 LIG-0.65  OA
ATOM     15 OXT  ILE B   4      30.076  34.865  14.188  1.00 22.21 LIG-0.65  OA
ENDBRANCH 12 13
BRANCH 12 16
ATOM     16  CB  ILE B   4      28.199  32.837  12.688  1.00 24.00 LIG 0.01  C 
ATOM     17  CG2 ILE B   4      28.396  32.070  13.988  1.00 26.11 LIG 0.01  C 
BRANCH 16 18
ATOM     18  CG1 ILE B   4      27.033  32.254  11.909  1.00 29.43 LIG 0.00  C 
ATOM     19  CD1 ILE B   4      27.270  32.353  10.425  1.00 33.97 LIG 0.01  C 
ENDBRANCH 16 18
ENDBRANCH 12 16
ENDBRANCH 9 12
ENDBRANCH 4 8
BRANCH 1 20
ATOM     20  CA  VAL B   2      26.407  37.301   8.480  1.00 21.93 LIG 0.18  C 
BRANCH 20 21
ATOM     21  CB  VAL B   2      25.134  36.981   9.296  1.00 24.26 LIG 0.01  C 
ATOM     22  CG2 VAL B   2      24.269  38.252   9.383  1.00 26.21 LIG 0.01  C 
ATOM     23  CG1 VAL B   2      25.455  36.376  10.661  1.00 24.62 LIG 0.01  C 
ENDBRANCH 20 21
BRANCH 20 24
ATOM     24  N   VAL B   2      26.086  37.364   7.066  1.00 19.39 LIG-0.35  N 
ATOM     25  C   ALA B   1      26.857  37.838   6.108  1.00 18.41 LIG 0.25  C 
ATOM     26 O    ALA B   1      28.044  38.203   6.209  1.00 21.55 LIG-0.27  OA
ATOM     27 H    VAL B   2      25.304  37.047   6.897  1.00 19.39 LIG 0.16  HD
BRANCH 25 28
ATOM     28  CA  ALA B   1      26.233  37.798   4.719  1.00 19.20 LIG 0.27  C 
ATOM     29  CB  ALA B   1      27.296  38.252   3.675  1.00 19.41 LIG 0.05  C 
BRANCH 28 30
ATOM     30  N   ALA B   1      25.020  38.625   4.653  1.00 20.83 LIG-0.07  N 
ATOM     31 H1   ALA B   1      24.874  39.002   5.446  1.00 20.83 LIG 0.28  HD
ATOM     32 H3   ALA B   1      24.324  38.115   4.435  1.00 20.83 LIG 0.28  HD
ATOM     33 H2   ALA B   1      25.127  39.259   4.039  1.00 20.83 LIG 0.28  HD
ENDBRANCH 28 30
ENDBRANCH 25 28
ENDBRANCH 20 24
ENDBRANCH 1 20
TORSDOF 10
ENDMDL
MODEL 9
USER: ADFR SOLUTION from run 124
USER: SCORE 13.581967 LL:  -2.670 LR: -11.013 RR:   0.000 FEB:  -8.030
USER: RMSD 4.060753
USER: SEED 123
USER: STATUS no improvement in best in 2 clusters for 5 generations
USER: GENES 12
USER: genes 0 Translation |==|  0.52519 0.58533 0.48952
USER: genes 1 Rotation |==|  0.31560 0.64758 0.51972 0.94026
USER: genes 2 Torsion [N]-CA--C-[O] |==|  0.44266
USER: genes 3 Torsion [C]-N--CA-[CB] |==|  0.76212
USER: genes 4 Torsion [N]-CA--C-[O] |==|  0.16582
USER: genes 5 Torsion [N]-CA--CB-[CG2] |==|  0.53814
USER: genes 6 Torsion [CA]-CB--CG1-[CD1] |==|  0.30979
USER: genes 7 Torsion [N]-C--CA-[N] |==|  0.46073
USER: genes 8 Torsion [C]-CA--CB-[CG2] |==|  0.69286
USER: genes 9 Torsion [C]-CA--N-[C] |==|  0.63060
USER: genes 10 Torsion [N]-C--CA-[N] |==|  0.40063
USER: genes 11 Torsion [C]-CA--N-[H3] |==|  0.32985
ROOT
ATOM      1  C   VAL B   2      28.004  35.288  11.708  1.00 20.42 LIG 0.24  C 
ATOM      2 O    VAL B   2      28.020  36.377  12.287  1.00 19.98 LIG-0.27  OA
ATOM      3  N   PRO B   3      28.418  34.147  12.304  1.00 20.62 LIG-0.34  N 
ATOM      4  CA  PRO B   3      28.818  34.167  13.717  1.00 20.39 LIG 0.18  C 
ATOM      5  CB  PRO B   3      28.395  32.770  14.180  1.00 21.35 LIG 0.04  C 
ATOM      6  CG  PRO B   3      28.553  31.882  12.986  1.00 22.27 LIG 0.02  C 
ATOM      7  CD  PRO B   3      28.177  32.768  11.806  1.00 22.13 LIG 0.13  C 
ENDROOT
BRANCH 4 8
ATOM      8  C   PRO B   3      30.304  34.447  13.947  1.00 20.13 LIG 0.24  C 
ATOM      9  N   ILE B   4      31.150  34.154  12.988  1.00 20.03 LIG-0.34  N 
ATOM     10 H    ILE B   4      30.925  33.683  12.304  1.00 20.03 LIG 0.16  HD
ATOM     11 O    PRO B   3      30.717  34.866  15.045  1.00 24.31 LIG-0.27  OA
BRANCH 9 12
ATOM     12  CA  ILE B   4      32.563  34.581  12.951  1.00 20.48 LIG 0.19  C 
BRANCH 12 13
ATOM     13  C   ILE B   4      33.185  34.581  14.345  1.00 21.21 LIG 0.20  C 
ATOM     14 O    ILE B   4      33.212  33.525  14.966  1.00 18.53 LIG-0.65  OA
ATOM     15 OXT  ILE B   4      33.627  35.626  14.932  1.00 22.21 LIG-0.65  OA
ENDBRANCH 12 13
BRANCH 12 16
ATOM     16  CB  ILE B   4      32.717  35.981  12.338  1.00 24.00 LIG 0.01  C 
ATOM     17  CG2 ILE B   4      34.159  36.313  11.981  1.00 26.11 LIG 0.01  C 
BRANCH 16 18
ATOM     18  CG1 ILE B   4      31.826  36.145  11.120  1.00 29.43 LIG 0.00  C 
ATOM     19  CD1 ILE B   4      30.716  37.127  11.390  1.00 33.97 LIG 0.01  C 
ENDBRANCH 16 18
ENDBRANCH 12 16
ENDBRANCH 9 12
ENDBRANCH 4 8
BRANCH 1 20
ATOM     20  CA  VAL B   2      27.601  35.181  10.222  1.00 21.93 LIG 0.18  C 
BRANCH 20 21
ATOM     21  CB  VAL B   2      28.873  35.018   9.360  1.00 24.26 LIG 0.01  C 
ATOM     22  CG2 VAL B   2      29.083  36.303   8.539  1.00 26.21 LIG 0.01  C 
ATOM     23  CG1 VAL B   2      28.836  33.755   8.502  1.00 24.62 LIG 0.01  C 
ENDBRANCH 20 21
BRANCH 20 24
ATOM     24  N   VAL B   2      26.878  36.372   9.816  1.00 19.39 LIG-0.35  N 
ATOM     25  C   ALA B   1      25.750  36.409   9.135  1.00 18.41 LIG 0.25  C 
ATOM     26 O    ALA B   1      25.028  35.443   8.820  1.00 21.55 LIG-0.27  OA
ATOM     27 H    VAL B   2      27.271  37.092  10.073  1.00 19.39 LIG 0.16  HD
BRANCH 25 28
ATOM     28  CA  ALA B   1      25.244  37.813   8.832  1.00 19.20 LIG 0.27  C 
ATOM     29  CB  ALA B   1      24.270  38.254   9.965  1.00 19.41 LIG 0.05  C 
BRANCH 28 30
ATOM     30  N   ALA B   1      24.603  37.877   7.511  1.00 20.83 LIG-0.07  N 
ATOM     31 H1   ALA B   1      25.024  38.477   7.005  1.00 20.83 LIG 0.28  HD
ATOM     32 H3   ALA B   1      23.751  38.115   7.605  1.00 20.83 LIG 0.28  HD
ATOM     33 H2   ALA B   1      24.647  37.078   7.121  1.00 20.83 LIG 0.28  HD
ENDBRANCH 28 30
ENDBRANCH 25 28
ENDBRANCH 20 24
ENDBRANCH 1 20
TORSDOF 10
ENDMDL
