MODEL 1
USER: ADFR SOLUTION from run 1
USER: SCORE 16.189855 LL:  -2.740 LR: -13.791 RR:   0.000 FEB: -10.211
USER: RMSD 4.434178
USER: SEED 858413
USER: STATUS no improvement in best in 3 clusters for 5 generations
USER: GENES 14
USER: genes 0 Translation |==|  0.41811 0.61315 0.34701
USER: genes 1 Rotation |==|  0.69246 0.35191 0.82271 0.79477
USER: genes 2 Torsion [N]-C--CA-[N] |==|  0.26511
USER: genes 3 Torsion [C]-CA--CB-[CG1] |==|  0.81533
USER: genes 4 Torsion [C]-CA--N-[C] |==|  0.70628
USER: genes 5 Torsion [N]-C--CA-[N] |==|  0.34739
USER: genes 6 Torsion [C]-CA--N-[H3] |==|  0.60259
USER: genes 7 Torsion [C]-CA--CB-[OG] |==|  0.64142
USER: genes 8 Torsion [CA]-CB--OG-[HG] |==|  0.25156
USER: genes 9 Torsion [N]-CA--C-[O] |==|  0.08397
USER: genes 10 Torsion [C]-N--CA-[C] |==|  0.50410
USER: genes 11 Torsion [N]-CA--C-[OXT] |==|  0.45457
USER: genes 12 Torsion [N]-CA--CB-[CG1] |==|  0.51972
USER: genes 13 Torsion [CA]-CB--CG1-[CD1] |==|  0.22115
ROOT
ATOM      1  C   VAL B   2      26.495  36.507   9.378  1.00 16.87 LIG 0.24  C 
ATOM      2 O    VAL B   2      26.039  35.393   9.631  1.00 15.05 LIG-0.27  OA
ATOM      3  N   PRO B   3      27.808  36.799   9.515  1.00 17.17 LIG-0.34  N 
ATOM      4  CA  PRO B   3      28.718  35.744   9.983  1.00 17.78 LIG 0.18  C 
ATOM      5  CB  PRO B   3      30.119  36.294   9.648  1.00 18.80 LIG 0.04  C 
ATOM      6  CG  PRO B   3      29.949  37.782   9.643  1.00 20.85 LIG 0.02  C 
ATOM      7  CD  PRO B   3      28.527  38.037   9.146  1.00 18.92 LIG 0.13  C 
ENDROOT
BRANCH 1 8
ATOM      8  CA  VAL B   2      25.580  37.653   8.969  1.00 17.17 LIG 0.18  C 
BRANCH 8 9
ATOM      9  CB  VAL B   2      24.252  37.566   9.764  1.00 19.35 LIG 0.01  C 
ATOM     10  CG1 VAL B   2      23.473  36.326   9.361  1.00 20.75 LIG 0.01  C 
ATOM     11  CG2 VAL B   2      24.471  37.640  11.248  1.00 20.63 LIG 0.01  C 
ENDBRANCH 8 9
BRANCH 8 12
ATOM     12  N   VAL B   2      25.385  37.639   7.507  1.00 15.32 LIG-0.35  N 
ATOM     13  C   SER B   1      25.979  38.527   6.729  1.00 14.89 LIG 0.25  C 
ATOM     14 O    SER B   1      26.759  39.415   7.100  1.00 16.72 LIG-0.27  OA
ATOM     15 H    VAL B   2      24.864  37.018   7.220  1.00 15.32 LIG 0.16  HD
BRANCH 13 16
ATOM     16  CA  SER B   1      25.778  38.309   5.219  1.00 15.81 LIG 0.30  C 
BRANCH 16 17
ATOM     17  N   SER B   1      25.221  39.557   4.629  1.00 17.29 LIG-0.06  N 
ATOM     18 H3   SER B   1      24.634  39.349   3.994  1.00 17.29 LIG 0.28  HD
ATOM     19 H1   SER B   1      24.814  40.029   5.265  1.00 17.29 LIG 0.28  HD
ATOM     20 H2   SER B   1      25.881  40.040   4.278  1.00 17.29 LIG 0.28  HD
ENDBRANCH 16 17
BRANCH 16 21
ATOM     21  CB  SER B   1      27.129  37.933   4.549  1.00 15.46 LIG 0.21  C 
BRANCH 21 22
ATOM     22 OG   SER B   1      27.368  38.765   3.417  1.00 16.65 LIG-0.40  OA
ATOM     23 HG   SER B   1      27.797  39.447   3.655  1.00 16.65 LIG 0.21  HD
ENDBRANCH 21 22
ENDBRANCH 16 21
ENDBRANCH 13 16
ENDBRANCH 8 12
ENDBRANCH 1 8
BRANCH 4 24
ATOM     24  C   PRO B   3      28.565  35.519  11.447  1.00 20.81 LIG 0.24  C 
ATOM     25 O    PRO B   3      27.477  35.712  11.988  1.00 24.11 LIG-0.27  OA
ATOM     26  N   ILE B   4      29.630  35.086  12.101  1.00 19.75 LIG-0.34  N 
ATOM     27 H    ILE B   4      30.351  34.822  11.714  1.00 19.75 LIG 0.16  HD
BRANCH 26 28
ATOM     28  CA  ILE B   4      29.674  35.015  13.572  1.00 21.11 LIG 0.19  C 
BRANCH 28 29
ATOM     29  C   ILE B   4      31.052  34.511  13.944  1.00 24.50 LIG 0.20  C 
ATOM     30 OXT  ILE B   4      31.479  34.641  15.121  1.00 23.18 LIG-0.65  OA
ATOM     31 O    ILE B   4      31.768  33.989  13.065  1.00 23.14 LIG-0.65  OA
ENDBRANCH 28 29
BRANCH 28 32
ATOM     32  CB  ILE B   4      28.602  34.081  14.090  1.00 22.38 LIG 0.01  C 
ATOM     33  CG2 ILE B   4      28.841  32.636  13.647  1.00 23.66 LIG 0.01  C 
BRANCH 32 34
ATOM     34  CG1 ILE B   4      28.579  34.184  15.614  1.00 23.74 LIG 0.00  C 
ATOM     35  CD1 ILE B   4      27.848  35.381  16.087  1.00 25.09 LIG 0.01  C 
ENDBRANCH 32 34
ENDBRANCH 28 32
ENDBRANCH 26 28
ENDBRANCH 4 24
TORSDOF 12
ENDMDL
MODEL 2
USER: ADFR SOLUTION from run 100
USER: SCORE 16.090820 LL:  -2.864 LR: -13.390 RR:   0.000 FEB:  -9.811
USER: RMSD 1.321293
USER: SEED 99
USER: STATUS no improvement in best in 5 clusters for 5 generations
USER: GENES 14
USER: genes 0 Translation |==|  0.48786 0.49109 0.44341
USER: genes 1 Rotation |==|  0.55892 0.47382 0.50244 0.99582
USER: genes 2 Torsion [N]-C--CA-[N] |==|  0.38717
USER: genes 3 Torsion [C]-CA--CB-[CG1] |==|  0.61500
USER: genes 4 Torsion [C]-CA--N-[C] |==|  0.64444
USER: genes 5 Torsion [N]-C--CA-[N] |==|  0.49824
USER: genes 6 Torsion [C]-CA--N-[H3] |==|  0.40808
USER: genes 7 Torsion [C]-CA--CB-[OG] |==|  0.86021
USER: genes 8 Torsion [CA]-CB--OG-[HG] |==|  0.90164
USER: genes 9 Torsion [N]-CA--C-[O] |==|  0.93104
USER: genes 10 Torsion [C]-N--CA-[C] |==|  0.54460
USER: genes 11 Torsion [N]-CA--C-[OXT] |==|  0.53594
USER: genes 12 Torsion [N]-CA--CB-[CG1] |==|  0.04998
USER: genes 13 Torsion [CA]-CB--CG1-[CD1] |==|  0.39340
ROOT
ATOM      1  C   VAL B   2      27.646  34.493  11.258  1.00 16.87 LIG 0.24  C 
ATOM      2 O    VAL B   2      27.156  34.856  12.326  1.00 15.05 LIG-0.27  OA
ATOM      3  N   PRO B   3      27.932  33.197  10.997  1.00 17.17 LIG-0.34  N 
ATOM      4  CA  PRO B   3      27.645  32.192  12.030  1.00 17.78 LIG 0.18  C 
ATOM      5  CB  PRO B   3      27.719  30.854  11.269  1.00 18.80 LIG 0.04  C 
ATOM      6  CG  PRO B   3      28.637  31.125  10.117  1.00 20.85 LIG 0.02  C 
ATOM      7  CD  PRO B   3      28.406  32.587   9.737  1.00 18.92 LIG 0.13  C 
ENDROOT
BRANCH 1 8
ATOM      8  CA  VAL B   2      28.036  35.506  10.190  1.00 17.17 LIG 0.18  C 
BRANCH 8 9
ATOM      9  CB  VAL B   2      29.417  36.120  10.536  1.00 19.35 LIG 0.01  C 
ATOM     10  CG1 VAL B   2      29.415  37.614  10.266  1.00 20.75 LIG 0.01  C 
ATOM     11  CG2 VAL B   2      29.846  35.798  11.939  1.00 20.63 LIG 0.01  C 
ENDBRANCH 8 9
BRANCH 8 12
ATOM     12  N   VAL B   2      26.970  36.516  10.047  1.00 15.32 LIG-0.35  N 
ATOM     13  C   SER B   1      26.453  36.801   8.865  1.00 14.89 LIG 0.25  C 
ATOM     14 O    SER B   1      26.754  36.267   7.788  1.00 16.72 LIG-0.27  OA
ATOM     15 H    VAL B   2      26.726  36.887  10.783  1.00 15.32 LIG 0.16  HD
BRANCH 13 16
ATOM     16  CA  SER B   1      25.267  37.783   8.892  1.00 15.81 LIG 0.30  C 
BRANCH 16 17
ATOM     17  N   SER B   1      24.810  38.014   7.495  1.00 17.29 LIG-0.06  N 
ATOM     18 H3   SER B   1      23.930  38.144   7.488  1.00 17.29 LIG 0.28  HD
ATOM     19 H1   SER B   1      25.219  38.733   7.164  1.00 17.29 LIG 0.28  HD
ATOM     20 H2   SER B   1      25.009  37.304   6.996  1.00 17.29 LIG 0.28  HD
ENDBRANCH 16 17
BRANCH 16 21
ATOM     21  CB  SER B   1      24.118  37.207   9.765  1.00 15.46 LIG 0.21  C 
BRANCH 21 22
ATOM     22 OG   SER B   1      23.821  35.869   9.372  1.00 16.65 LIG-0.40  OA
ATOM     23 HG   SER B   1      23.914  35.793   8.541  1.00 16.65 LIG 0.21  HD
ENDBRANCH 21 22
ENDBRANCH 16 21
ENDBRANCH 13 16
ENDBRANCH 8 12
ENDBRANCH 1 8
BRANCH 4 24
ATOM     24  C   PRO B   3      28.656  32.247  13.122  1.00 20.81 LIG 0.24  C 
ATOM     25 O    PRO B   3      29.780  32.694  12.898  1.00 24.11 LIG-0.27  OA
ATOM     26  N   ILE B   4      28.272  31.825  14.315  1.00 19.75 LIG-0.34  N 
ATOM     27 H    ILE B   4      27.456  31.637  14.514  1.00 19.75 LIG 0.16  HD
BRANCH 26 28
ATOM     28  CA  ILE B   4      29.221  31.637  15.426  1.00 21.11 LIG 0.19  C 
BRANCH 28 29
ATOM     29  C   ILE B   4      28.518  30.788  16.464  1.00 24.50 LIG 0.20  C 
ATOM     30 OXT  ILE B   4      28.999  30.671  17.621  1.00 23.18 LIG-0.65  OA
ATOM     31 O    ILE B   4      27.470  30.187  16.150  1.00 23.14 LIG-0.65  OA
ENDBRANCH 28 29
BRANCH 28 32
ATOM     32  CB  ILE B   4      29.627  32.973  16.009  1.00 22.38 LIG 0.01  C 
ATOM     33  CG2 ILE B   4      31.036  33.382  15.573  1.00 23.66 LIG 0.01  C 
BRANCH 32 34
ATOM     34  CG1 ILE B   4      28.600  34.015  15.568  1.00 23.74 LIG 0.00  C 
ATOM     35  CD1 ILE B   4      28.297  34.994  16.635  1.00 25.09 LIG 0.01  C 
ENDBRANCH 32 34
ENDBRANCH 28 32
ENDBRANCH 26 28
ENDBRANCH 4 24
TORSDOF 12
ENDMDL
MODEL 3
USER: ADFR SOLUTION from run 6
USER: SCORE 15.251184 LL:  -2.485 LR: -12.908 RR:   0.000 FEB:  -9.328
USER: RMSD 1.622206
USER: SEED 164427
USER: STATUS no improvement in best in 5 clusters for 5 generations
USER: GENES 14
USER: genes 0 Translation |==|  0.48014 0.51592 0.42965
USER: genes 1 Rotation |==|  0.52627 0.45532 0.51142 0.99717
USER: genes 2 Torsion [N]-C--CA-[N] |==|  0.40041
USER: genes 3 Torsion [C]-CA--CB-[CG1] |==|  0.60424
USER: genes 4 Torsion [C]-CA--N-[C] |==|  0.64442
USER: genes 5 Torsion [N]-C--CA-[N] |==|  0.51182
USER: genes 6 Torsion [C]-CA--N-[H3] |==|  0.03293
USER: genes 7 Torsion [C]-CA--CB-[OG] |==|  0.89978
USER: genes 8 Torsion [CA]-CB--OG-[HG] |==|  0.87514
USER: genes 9 Torsion [N]-CA--C-[O] |==|  0.63855
USER: genes 10 Torsion [C]-N--CA-[C] |==|  0.20601
USER: genes 11 Torsion [N]-CA--C-[OXT] |==|  0.95998
USER: genes 12 Torsion [N]-CA--CB-[CG1] |==|  0.66102
USER: genes 13 Torsion [CA]-CB--CG1-[CD1] |==|  0.13015
ROOT
ATOM      1  C   VAL B   2      27.518  34.903  10.989  1.00 16.87 LIG 0.24  C 
ATOM      2 O    VAL B   2      26.940  35.390  11.960  1.00 15.05 LIG-0.27  OA
ATOM      3  N   PRO B   3      27.844  33.591  10.925  1.00 17.17 LIG-0.34  N 
ATOM      4  CA  PRO B   3      27.491  32.723  12.057  1.00 17.78 LIG 0.18  C 
ATOM      5  CB  PRO B   3      27.645  31.299  11.487  1.00 18.80 LIG 0.04  C 
ATOM      6  CG  PRO B   3      28.647  31.441  10.382  1.00 20.85 LIG 0.02  C 
ATOM      7  CD  PRO B   3      28.425  32.835   9.796  1.00 18.92 LIG 0.13  C 
ENDROOT
BRANCH 1 8
ATOM      8  CA  VAL B   2      27.976  35.777   9.831  1.00 17.17 LIG 0.18  C 
BRANCH 8 9
ATOM      9  CB  VAL B   2      29.373  36.370  10.148  1.00 19.35 LIG 0.01  C 
ATOM     10  CG1 VAL B   2      29.474  37.795   9.633  1.00 20.75 LIG 0.01  C 
ATOM     11  CG2 VAL B   2      29.715  36.269  11.607  1.00 20.63 LIG 0.01  C 
ENDBRANCH 8 9
BRANCH 8 12
ATOM     12  N   VAL B   2      26.958  36.806   9.549  1.00 15.32 LIG-0.35  N 
ATOM     13  C   SER B   1      26.482  36.982   8.329  1.00 14.89 LIG 0.25  C 
ATOM     14 O    SER B   1      26.786  36.322   7.325  1.00 16.72 LIG-0.27  OA
ATOM     15 H    VAL B   2      26.713  37.265  10.233  1.00 15.32 LIG 0.16  HD
BRANCH 13 16
ATOM     16  CA  SER B   1      25.339  38.007   8.216  1.00 15.81 LIG 0.30  C 
BRANCH 16 17
ATOM     17  N   SER B   1      24.846  38.015   6.812  1.00 17.29 LIG-0.06  N 
ATOM     18 H3   SER B   1      25.185  37.318   6.374  1.00 17.29 LIG 0.28  HD
ATOM     19 H1   SER B   1      23.957  37.962   6.809  1.00 17.29 LIG 0.28  HD
ATOM     20 H2   SER B   1      25.099  38.769   6.412  1.00 17.29 LIG 0.28  HD
ENDBRANCH 16 17
BRANCH 16 21
ATOM     21  CB  SER B   1      24.196  37.642   9.204  1.00 15.46 LIG 0.21  C 
BRANCH 21 22
ATOM     22 OG   SER B   1      24.055  36.226   9.297  1.00 16.65 LIG-0.40  OA
ATOM     23 HG   SER B   1      24.079  35.891   8.528  1.00 16.65 LIG 0.21  HD
ENDBRANCH 21 22
ENDBRANCH 16 21
ENDBRANCH 13 16
ENDBRANCH 8 12
ENDBRANCH 1 8
BRANCH 4 24
ATOM     24  C   PRO B   3      28.412  32.945  13.206  1.00 20.81 LIG 0.24  C 
ATOM     25 O    PRO B   3      28.951  31.987  13.756  1.00 24.11 LIG-0.27  OA
ATOM     26  N   ILE B   4      28.627  34.200  13.566  1.00 19.75 LIG-0.34  N 
ATOM     27 H    ILE B   4      28.363  34.878  13.108  1.00 19.75 LIG 0.16  HD
BRANCH 26 28
ATOM     28  CA  ILE B   4      29.349  34.550  14.802  1.00 21.11 LIG 0.19  C 
BRANCH 28 29
ATOM     29  C   ILE B   4      30.813  34.265  14.549  1.00 24.50 LIG 0.20  C 
ATOM     30 OXT  ILE B   4      31.164  33.572  13.559  1.00 23.18 LIG-0.65  OA
ATOM     31 O    ILE B   4      31.666  34.705  15.348  1.00 23.14 LIG-0.65  OA
ENDBRANCH 28 29
BRANCH 28 32
ATOM     32  CB  ILE B   4      28.834  33.731  15.966  1.00 22.38 LIG 0.01  C 
ATOM     33  CG2 ILE B   4      29.911  32.799  16.527  1.00 23.66 LIG 0.01  C 
BRANCH 32 34
ATOM     34  CG1 ILE B   4      28.337  34.695  17.041  1.00 23.74 LIG 0.00  C 
ATOM     35  CD1 ILE B   4      27.478  35.765  16.486  1.00 25.09 LIG 0.01  C 
ENDBRANCH 32 34
ENDBRANCH 28 32
ENDBRANCH 26 28
ENDBRANCH 4 24
TORSDOF 12
ENDMDL
MODEL 4
USER: ADFR SOLUTION from run 59
USER: SCORE 14.888623 LL:  -2.551 LR: -12.807 RR:   0.000 FEB:  -9.227
USER: RMSD 5.386341
USER: SEED 58
USER: STATUS no improvement in best in 4 clusters for 5 generations
USER: GENES 14
USER: genes 0 Translation |==|  0.47002 0.65224 0.32138
USER: genes 1 Rotation |==|  0.75057 0.43893 0.84198 0.75795
USER: genes 2 Torsion [N]-C--CA-[N] |==|  0.17214
USER: genes 3 Torsion [C]-CA--CB-[CG1] |==|  0.16554
USER: genes 4 Torsion [C]-CA--N-[C] |==|  0.10566
USER: genes 5 Torsion [N]-C--CA-[N] |==|  0.01518
USER: genes 6 Torsion [C]-CA--N-[H3] |==|  0.29423
USER: genes 7 Torsion [C]-CA--CB-[OG] |==|  0.54630
USER: genes 8 Torsion [CA]-CB--OG-[HG] |==|  0.27508
USER: genes 9 Torsion [N]-CA--C-[O] |==|  0.74759
USER: genes 10 Torsion [C]-N--CA-[C] |==|  0.79119
USER: genes 11 Torsion [N]-CA--C-[OXT] |==|  0.90289
USER: genes 12 Torsion [N]-CA--CB-[CG1] |==|  0.92627
USER: genes 13 Torsion [CA]-CB--CG1-[CD1] |==|  0.31486
ROOT
ATOM      1  C   VAL B   2      27.351  37.152   8.878  1.00 16.87 LIG 0.24  C 
ATOM      2 O    VAL B   2      27.389  35.981   9.254  1.00 15.05 LIG-0.27  OA
ATOM      3  N   PRO B   3      28.472  37.870   8.636  1.00 17.17 LIG-0.34  N 
ATOM      4  CA  PRO B   3      29.777  37.224   8.830  1.00 17.78 LIG 0.18  C 
ATOM      5  CB  PRO B   3      30.762  38.164   8.109  1.00 18.80 LIG 0.04  C 
ATOM      6  CG  PRO B   3      30.099  39.507   8.147  1.00 20.85 LIG 0.02  C 
ATOM      7  CD  PRO B   3      28.597  39.231   8.073  1.00 18.92 LIG 0.13  C 
ENDROOT
BRANCH 1 8
ATOM      8  CA  VAL B   2      26.026  37.888   8.742  1.00 17.17 LIG 0.18  C 
BRANCH 8 9
ATOM      9  CB  VAL B   2      24.871  36.972   9.220  1.00 19.35 LIG 0.01  C 
ATOM     10  CG1 VAL B   2      25.075  36.574  10.671  1.00 20.75 LIG 0.01  C 
ATOM     11  CG2 VAL B   2      23.522  37.589   8.986  1.00 20.63 LIG 0.01  C 
ENDBRANCH 8 9
BRANCH 8 12
ATOM     12  N   VAL B   2      25.858  38.360   7.354  1.00 15.32 LIG-0.35  N 
ATOM     13  C   SER B   1      26.252  37.624   6.329  1.00 14.89 LIG 0.25  C 
ATOM     14 O    SER B   1      26.755  36.494   6.393  1.00 16.72 LIG-0.27  OA
ATOM     15 H    VAL B   2      25.492  39.134   7.280  1.00 15.32 LIG 0.16  HD
BRANCH 13 16
ATOM     16  CA  SER B   1      25.898  38.194   4.944  1.00 15.81 LIG 0.30  C 
BRANCH 16 17
ATOM     17  N   SER B   1      25.294  39.542   5.125  1.00 17.29 LIG-0.06  N 
ATOM     18 H3   SER B   1      25.882  40.166   4.884  1.00 17.29 LIG 0.28  HD
ATOM     19 H1   SER B   1      24.565  39.611   4.619  1.00 17.29 LIG 0.28  HD
ATOM     20 H2   SER B   1      25.073  39.657   5.980  1.00 17.29 LIG 0.28  HD
ENDBRANCH 16 17
BRANCH 16 21
ATOM     21  CB  SER B   1      27.173  38.272   4.058  1.00 15.46 LIG 0.21  C 
BRANCH 21 22
ATOM     22 OG   SER B   1      26.950  39.133   2.944  1.00 16.65 LIG-0.40  OA
ATOM     23 HG   SER B   1      27.277  39.890   3.104  1.00 16.65 LIG 0.21  HD
ENDBRANCH 21 22
ENDBRANCH 16 21
ENDBRANCH 13 16
ENDBRANCH 8 12
ENDBRANCH 1 8
BRANCH 4 24
ATOM     24  C   PRO B   3      30.105  37.109  10.279  1.00 20.81 LIG 0.24  C 
ATOM     25 O    PRO B   3      30.730  38.006  10.841  1.00 24.11 LIG-0.27  OA
ATOM     26  N   ILE B   4      29.669  36.030  10.907  1.00 19.75 LIG-0.34  N 
ATOM     27 H    ILE B   4      29.121  35.465  10.559  1.00 19.75 LIG 0.16  HD
BRANCH 26 28
ATOM     28  CA  ILE B   4      30.090  35.695  12.278  1.00 21.11 LIG 0.19  C 
BRANCH 28 29
ATOM     29  C   ILE B   4      31.505  35.167  12.185  1.00 24.50 LIG 0.20  C 
ATOM     30 OXT  ILE B   4      31.865  34.486  11.191  1.00 23.18 LIG-0.65  OA
ATOM     31 O    ILE B   4      32.303  35.395  13.118  1.00 23.14 LIG-0.65  OA
ENDBRANCH 28 29
BRANCH 28 32
ATOM     32  CB  ILE B   4      29.167  34.656  12.877  1.00 22.38 LIG 0.01  C 
ATOM     33  CG2 ILE B   4      29.035  34.815  14.394  1.00 23.66 LIG 0.01  C 
BRANCH 32 34
ATOM     34  CG1 ILE B   4      27.805  34.783  12.199  1.00 23.74 LIG 0.00  C 
ATOM     35  CD1 ILE B   4      27.472  33.598  11.376  1.00 25.09 LIG 0.01  C 
ENDBRANCH 32 34
ENDBRANCH 28 32
ENDBRANCH 26 28
ENDBRANCH 4 24
TORSDOF 12
ENDMDL
MODEL 5
USER: ADFR SOLUTION from run 102
USER: SCORE 15.443785 LL:  -2.823 LR: -12.783 RR:   0.000 FEB:  -9.203
USER: RMSD 4.625042
USER: SEED 101
USER: STATUS no improvement in best in 7 clusters for 5 generations
USER: GENES 14
USER: genes 0 Translation |==|  0.46948 0.58010 0.34316
USER: genes 1 Rotation |==|  0.74900 0.31682 0.82787 0.71668
USER: genes 2 Torsion [N]-C--CA-[N] |==|  0.30174
USER: genes 3 Torsion [C]-CA--CB-[CG1] |==|  0.38772
USER: genes 4 Torsion [C]-CA--N-[C] |==|  0.73930
USER: genes 5 Torsion [N]-C--CA-[N] |==|  0.35598
USER: genes 6 Torsion [C]-CA--N-[H3] |==|  0.60886
USER: genes 7 Torsion [C]-CA--CB-[OG] |==|  0.61611
USER: genes 8 Torsion [CA]-CB--OG-[HG] |==|  0.24174
USER: genes 9 Torsion [N]-CA--C-[O] |==|  0.52147
USER: genes 10 Torsion [C]-N--CA-[C] |==|  0.22661
USER: genes 11 Torsion [N]-CA--C-[OXT] |==|  0.86131
USER: genes 12 Torsion [N]-CA--CB-[CG1] |==|  0.75575
USER: genes 13 Torsion [CA]-CB--CG1-[CD1] |==|  0.25762
ROOT
ATOM      1  C   VAL B   2      27.342  35.962   9.303  1.00 16.87 LIG 0.24  C 
ATOM      2 O    VAL B   2      27.153  34.757   9.143  1.00 15.05 LIG-0.27  OA
ATOM      3  N   PRO B   3      28.555  36.467   9.626  1.00 17.17 LIG-0.34  N 
ATOM      4  CA  PRO B   3      29.682  35.539   9.791  1.00 17.78 LIG 0.18  C 
ATOM      5  CB  PRO B   3      30.920  36.457   9.759  1.00 18.80 LIG 0.04  C 
ATOM      6  CG  PRO B   3      30.415  37.787  10.228  1.00 20.85 LIG 0.02  C 
ATOM      7  CD  PRO B   3      28.971  37.881   9.736  1.00 18.92 LIG 0.13  C 
ENDROOT
BRANCH 1 8
ATOM      8  CA  VAL B   2      26.190  36.952   9.224  1.00 17.17 LIG 0.18  C 
BRANCH 8 9
ATOM      9  CB  VAL B   2      25.025  36.468  10.126  1.00 19.35 LIG 0.01  C 
ATOM     10  CG1 VAL B   2      24.400  37.640  10.861  1.00 20.75 LIG 0.01  C 
ATOM     11  CG2 VAL B   2      24.008  35.671   9.361  1.00 20.63 LIG 0.01  C 
ENDBRANCH 8 9
BRANCH 8 12
ATOM     12  N   VAL B   2      25.793  37.145   7.816  1.00 15.32 LIG-0.35  N 
ATOM     13  C   SER B   1      26.292  38.134   7.094  1.00 14.89 LIG 0.25  C 
ATOM     14 O    SER B   1      27.134  38.960   7.472  1.00 16.72 LIG-0.27  OA
ATOM     15 H    VAL B   2      25.224  36.572   7.521  1.00 15.32 LIG 0.16  HD
BRANCH 13 16
ATOM     16  CA  SER B   1      25.877  38.132   5.612  1.00 15.81 LIG 0.30  C 
BRANCH 16 17
ATOM     17  N   SER B   1      25.340  39.476   5.267  1.00 17.29 LIG-0.06  N 
ATOM     18 H3   SER B   1      24.640  39.386   4.725  1.00 17.29 LIG 0.28  HD
ATOM     19 H1   SER B   1      25.085  39.893   6.012  1.00 17.29 LIG 0.28  HD
ATOM     20 H2   SER B   1      25.971  39.954   4.861  1.00 17.29 LIG 0.28  HD
ENDBRANCH 16 17
BRANCH 16 21
ATOM     21  CB  SER B   1      27.098  37.776   4.717  1.00 15.46 LIG 0.21  C 
BRANCH 21 22
ATOM     22 OG   SER B   1      27.123  38.609   3.561  1.00 16.65 LIG-0.40  OA
ATOM     23 HG   SER B   1      27.534  39.320   3.736  1.00 16.65 LIG 0.21  HD
ENDBRANCH 21 22
ENDBRANCH 16 21
ENDBRANCH 13 16
ENDBRANCH 8 12
ENDBRANCH 1 8
BRANCH 4 24
ATOM     24  C   PRO B   3      29.587  34.808  11.085  1.00 20.81 LIG 0.24  C 
ATOM     25 O    PRO B   3      30.516  34.095  11.458  1.00 24.11 LIG-0.27  OA
ATOM     26  N   ILE B   4      28.487  34.993  11.796  1.00 19.75 LIG-0.34  N 
ATOM     27 H    ILE B   4      27.895  35.589  11.610  1.00 19.75 LIG 0.16  HD
BRANCH 26 28
ATOM     28  CA  ILE B   4      28.176  34.184  12.987  1.00 21.11 LIG 0.19  C 
BRANCH 28 29
ATOM     29  C   ILE B   4      28.956  34.781  14.138  1.00 24.50 LIG 0.20  C 
ATOM     30 OXT  ILE B   4      30.186  35.015  14.018  1.00 23.18 LIG-0.65  OA
ATOM     31 O    ILE B   4      28.369  35.015  15.216  1.00 23.14 LIG-0.65  OA
ENDBRANCH 28 29
BRANCH 28 32
ATOM     32  CB  ILE B   4      28.568  32.739  12.763  1.00 22.38 LIG 0.01  C 
ATOM     33  CG2 ILE B   4      28.971  32.049  14.069  1.00 23.66 LIG 0.01  C 
BRANCH 32 34
ATOM     34  CG1 ILE B   4      27.388  32.022  12.112  1.00 23.74 LIG 0.00  C 
ATOM     35  CD1 ILE B   4      27.472  32.024  10.634  1.00 25.09 LIG 0.01  C 
ENDBRANCH 32 34
ENDBRANCH 28 32
ENDBRANCH 26 28
ENDBRANCH 4 24
TORSDOF 12
ENDMDL
MODEL 6
USER: ADFR SOLUTION from run 26
USER: SCORE 14.874631 LL:  -2.567 LR: -12.443 RR:   0.000 FEB:  -8.864
USER: RMSD 2.871554
USER: SEED 25
USER: STATUS no improvement in best in 4 clusters for 5 generations
USER: GENES 14
USER: genes 0 Translation |==|  0.46722 0.57910 0.35173
USER: genes 1 Rotation |==|  0.45987 0.40728 0.57042 0.98460
USER: genes 2 Torsion [N]-C--CA-[N] |==|  0.41111
USER: genes 3 Torsion [C]-CA--CB-[CG1] |==|  0.64270
USER: genes 4 Torsion [C]-CA--N-[C] |==|  0.60047
USER: genes 5 Torsion [N]-C--CA-[N] |==|  0.18249
USER: genes 6 Torsion [C]-CA--N-[H3] |==|  0.16950
USER: genes 7 Torsion [C]-CA--CB-[OG] |==|  0.59402
USER: genes 8 Torsion [CA]-CB--OG-[HG] |==|  0.81789
USER: genes 9 Torsion [N]-CA--C-[O] |==|  0.08360
USER: genes 10 Torsion [C]-N--CA-[C] |==|  0.72945
USER: genes 11 Torsion [N]-CA--C-[OXT] |==|  0.95608
USER: genes 12 Torsion [N]-CA--CB-[CG1] |==|  0.61500
USER: genes 13 Torsion [CA]-CB--CG1-[CD1] |==|  0.74668
ROOT
ATOM      1  C   VAL B   2      27.305  35.945   9.470  1.00 16.87 LIG 0.24  C 
ATOM      2 O    VAL B   2      26.439  36.515  10.132  1.00 15.05 LIG-0.27  OA
ATOM      3  N   PRO B   3      27.852  34.769   9.854  1.00 17.17 LIG-0.34  N 
ATOM      4  CA  PRO B   3      27.392  34.156  11.108  1.00 17.78 LIG 0.18  C 
ATOM      5  CB  PRO B   3      27.913  32.708  11.019  1.00 18.80 LIG 0.04  C 
ATOM      6  CG  PRO B   3      29.111  32.792  10.123  1.00 20.85 LIG 0.02  C 
ATOM      7  CD  PRO B   3      28.804  33.906   9.123  1.00 18.92 LIG 0.13  C 
ENDROOT
BRANCH 1 8
ATOM      8  CA  VAL B   2      27.872  36.581   8.208  1.00 17.17 LIG 0.18  C 
BRANCH 8 9
ATOM      9  CB  VAL B   2      29.095  37.461   8.575  1.00 19.35 LIG 0.01  C 
ATOM     10  CG1 VAL B   2      28.944  38.852   7.984  1.00 20.75 LIG 0.01  C 
ATOM     11  CG2 VAL B   2      29.345  37.499  10.055  1.00 20.63 LIG 0.01  C 
ENDBRANCH 8 9
BRANCH 8 12
ATOM     12  N   VAL B   2      26.810  37.326   7.504  1.00 15.32 LIG-0.35  N 
ATOM     13  C   SER B   1      26.761  37.361   6.184  1.00 14.89 LIG 0.25  C 
ATOM     14 O    SER B   1      27.534  36.782   5.409  1.00 16.72 LIG-0.27  OA
ATOM     15 H    VAL B   2      26.246  37.720   8.020  1.00 15.32 LIG 0.16  HD
BRANCH 13 16
ATOM     16  CA  SER B   1      25.528  38.073   5.598  1.00 15.81 LIG 0.30  C 
BRANCH 16 17
ATOM     17  N   SER B   1      25.596  39.515   5.960  1.00 17.29 LIG-0.06  N 
ATOM     18 H3   SER B   1      26.332  39.874   5.612  1.00 17.29 LIG 0.28  HD
ATOM     19 H1   SER B   1      24.881  39.936   5.638  1.00 17.29 LIG 0.28  HD
ATOM     20 H2   SER B   1      25.615  39.599   6.845  1.00 17.29 LIG 0.28  HD
ENDBRANCH 16 17
BRANCH 16 21
ATOM     21  CB  SER B   1      25.490  37.889   4.055  1.00 15.46 LIG 0.21  C 
BRANCH 21 22
ATOM     22 OG   SER B   1      24.941  39.048   3.432  1.00 16.65 LIG-0.40  OA
ATOM     23 HG   SER B   1      24.135  39.130   3.653  1.00 16.65 LIG 0.21  HD
ENDBRANCH 21 22
ENDBRANCH 16 21
ENDBRANCH 13 16
ENDBRANCH 8 12
ENDBRANCH 1 8
BRANCH 4 24
ATOM     24  C   PRO B   3      27.962  34.863  12.288  1.00 20.81 LIG 0.24  C 
ATOM     25 O    PRO B   3      28.221  36.063  12.220  1.00 24.11 LIG-0.27  OA
ATOM     26  N   ILE B   4      28.139  34.147  13.386  1.00 19.75 LIG-0.34  N 
ATOM     27 H    ILE B   4      27.840  33.347  13.486  1.00 19.75 LIG 0.16  HD
BRANCH 26 28
ATOM     28  CA  ILE B   4      28.875  34.665  14.552  1.00 21.11 LIG 0.19  C 
BRANCH 28 29
ATOM     29  C   ILE B   4      30.289  34.134  14.449  1.00 24.50 LIG 0.20  C 
ATOM     30 OXT  ILE B   4      30.553  33.177  13.676  1.00 23.18 LIG-0.65  OA
ATOM     31 O    ILE B   4      31.183  34.640  15.158  1.00 23.14 LIG-0.65  OA
ENDBRANCH 28 29
BRANCH 28 32
ATOM     32  CB  ILE B   4      28.221  34.208  15.838  1.00 22.38 LIG 0.01  C 
ATOM     33  CG2 ILE B   4      28.937  32.998  16.443  1.00 23.66 LIG 0.01  C 
BRANCH 32 34
ATOM     34  CG1 ILE B   4      28.221  35.382  16.814  1.00 23.74 LIG 0.00  C 
ATOM     35  CD1 ILE B   4      29.426  35.402  17.673  1.00 25.09 LIG 0.01  C 
ENDBRANCH 32 34
ENDBRANCH 28 32
ENDBRANCH 26 28
ENDBRANCH 4 24
TORSDOF 12
ENDMDL
MODEL 7
USER: ADFR SOLUTION from run 58
USER: SCORE 14.186186 LL:  -2.193 LR: -12.415 RR:   0.000 FEB:  -8.836
USER: RMSD 4.893277
USER: SEED 57
USER: STATUS no improvement in best in 4 clusters for 5 generations
USER: GENES 14
USER: genes 0 Translation |==|  0.40789 0.58373 0.34097
USER: genes 1 Rotation |==|  0.70014 0.49215 0.71264 0.90579
USER: genes 2 Torsion [N]-C--CA-[N] |==|  0.13255
USER: genes 3 Torsion [C]-CA--CB-[CG1] |==|  0.85479
USER: genes 4 Torsion [C]-CA--N-[C] |==|  0.64788
USER: genes 5 Torsion [N]-C--CA-[N] |==|  0.40276
USER: genes 6 Torsion [C]-CA--N-[H3] |==|  0.27300
USER: genes 7 Torsion [C]-CA--CB-[OG] |==|  0.84736
USER: genes 8 Torsion [CA]-CB--OG-[HG] |==|  0.75045
USER: genes 9 Torsion [N]-CA--C-[O] |==|  0.55163
USER: genes 10 Torsion [C]-N--CA-[C] |==|  0.19986
USER: genes 11 Torsion [N]-CA--C-[OXT] |==|  0.68825
USER: genes 12 Torsion [N]-CA--CB-[CG1] |==|  0.86741
USER: genes 13 Torsion [CA]-CB--CG1-[CD1] |==|  0.34541
ROOT
ATOM      1  C   VAL B   2      26.326  36.022   9.260  1.00 16.87 LIG 0.24  C 
ATOM      2 O    VAL B   2      25.970  35.300  10.190  1.00 15.05 LIG-0.27  OA
ATOM      3  N   PRO B   3      27.432  35.762   8.526  1.00 17.17 LIG-0.34  N 
ATOM      4  CA  PRO B   3      28.233  34.574   8.856  1.00 17.78 LIG 0.18  C 
ATOM      5  CB  PRO B   3      29.135  34.387   7.621  1.00 18.80 LIG 0.04  C 
ATOM      6  CG  PRO B   3      29.257  35.758   7.031  1.00 20.85 LIG 0.02  C 
ATOM      7  CD  PRO B   3      27.926  36.453   7.317  1.00 18.92 LIG 0.13  C 
ENDROOT
BRANCH 1 8
ATOM      8  CA  VAL B   2      25.577  37.306   8.934  1.00 17.17 LIG 0.18  C 
BRANCH 8 9
ATOM      9  CB  VAL B   2      24.249  37.350   9.732  1.00 19.35 LIG 0.01  C 
ATOM     10  CG1 VAL B   2      23.458  36.072   9.517  1.00 20.75 LIG 0.01  C 
ATOM     11  CG2 VAL B   2      24.471  37.640  11.189  1.00 20.63 LIG 0.01  C 
ENDBRANCH 8 9
BRANCH 8 12
ATOM     12  N   VAL B   2      25.382  37.413   7.475  1.00 15.32 LIG-0.35  N 
ATOM     13  C   SER B   1      25.758  38.493   6.813  1.00 14.89 LIG 0.25  C 
ATOM     14 O    SER B   1      26.320  39.486   7.295  1.00 16.72 LIG-0.27  OA
ATOM     15 H    VAL B   2      25.012  36.727   7.111  1.00 15.32 LIG 0.16  HD
BRANCH 13 16
ATOM     16  CA  SER B   1      25.602  38.407   5.284  1.00 15.81 LIG 0.30  C 
BRANCH 16 17
ATOM     17  N   SER B   1      25.221  39.750   4.769  1.00 17.29 LIG-0.06  N 
ATOM     18 H3   SER B   1      25.945  40.166   4.461  1.00 17.29 LIG 0.28  HD
ATOM     19 H1   SER B   1      24.629  39.659   4.110  1.00 17.29 LIG 0.28  HD
ATOM     20 H2   SER B   1      24.860  40.229   5.426  1.00 17.29 LIG 0.28  HD
ENDBRANCH 16 17
BRANCH 16 21
ATOM     21  CB  SER B   1      26.930  37.921   4.639  1.00 15.46 LIG 0.21  C 
BRANCH 21 22
ATOM     22 OG   SER B   1      28.010  38.762   5.036  1.00 16.65 LIG-0.40  OA
ATOM     23 HG   SER B   1      28.088  39.395   4.490  1.00 16.65 LIG 0.21  HD
ENDBRANCH 21 22
ENDBRANCH 16 21
ENDBRANCH 13 16
ENDBRANCH 8 12
ENDBRANCH 1 8
BRANCH 4 24
ATOM     24  C   PRO B   3      29.042  34.801  10.086  1.00 20.81 LIG 0.24  C 
ATOM     25 O    PRO B   3      30.009  34.082  10.327  1.00 24.11 LIG-0.27  OA
ATOM     26  N   ILE B   4      28.682  35.811  10.860  1.00 19.75 LIG-0.34  N 
ATOM     27 H    ILE B   4      28.095  36.399  10.635  1.00 19.75 LIG 0.16  HD
BRANCH 26 28
ATOM     28  CA  ILE B   4      29.264  36.023  12.197  1.00 21.11 LIG 0.19  C 
BRANCH 28 29
ATOM     29  C   ILE B   4      30.684  36.500  11.986  1.00 24.50 LIG 0.20  C 
ATOM     30 OXT  ILE B   4      31.655  35.770  12.315  1.00 23.18 LIG-0.65  OA
ATOM     31 O    ILE B   4      30.881  37.635  11.505  1.00 23.14 LIG-0.65  OA
ENDBRANCH 28 29
BRANCH 28 32
ATOM     32  CB  ILE B   4      29.241  34.737  12.994  1.00 22.38 LIG 0.01  C 
ATOM     33  CG2 ILE B   4      29.607  34.969  14.462  1.00 23.66 LIG 0.01  C 
BRANCH 32 34
ATOM     34  CG1 ILE B   4      27.846  34.127  12.873  1.00 23.74 LIG 0.00  C 
ATOM     35  CD1 ILE B   4      27.879  32.739  12.361  1.00 25.09 LIG 0.01  C 
ENDBRANCH 32 34
ENDBRANCH 28 32
ENDBRANCH 26 28
ENDBRANCH 4 24
TORSDOF 12
ENDMDL
MODEL 8
USER: ADFR SOLUTION from run 84
USER: SCORE 14.833620 LL:  -2.706 LR: -12.273 RR:   0.000 FEB:  -8.693
USER: RMSD 2.244023
USER: SEED 83
USER: STATUS no improvement in best in 6 clusters for 5 generations
USER: GENES 14
USER: genes 0 Translation |==|  0.48395 0.53639 0.42232
USER: genes 1 Rotation |==|  0.47727 0.42443 0.55730 0.99040
USER: genes 2 Torsion [N]-C--CA-[N] |==|  0.45275
USER: genes 3 Torsion [C]-CA--CB-[CG1] |==|  0.57161
USER: genes 4 Torsion [C]-CA--N-[C] |==|  0.66933
USER: genes 5 Torsion [N]-C--CA-[N] |==|  0.50619
USER: genes 6 Torsion [C]-CA--N-[H3] |==|  0.31982
USER: genes 7 Torsion [C]-CA--CB-[OG] |==|  0.88015
USER: genes 8 Torsion [CA]-CB--OG-[HG] |==|  0.88002
USER: genes 9 Torsion [N]-CA--C-[O] |==|  0.08068
USER: genes 10 Torsion [C]-N--CA-[C] |==|  0.22143
USER: genes 11 Torsion [N]-CA--C-[OXT] |==|  0.87035
USER: genes 12 Torsion [N]-CA--CB-[CG1] |==|  0.84361
USER: genes 13 Torsion [CA]-CB--CG1-[CD1] |==|  0.36513
ROOT
ATOM      1  C   VAL B   2      27.581  35.240  10.846  1.00 16.87 LIG 0.24  C 
ATOM      2 O    VAL B   2      26.797  35.799  11.611  1.00 15.05 LIG-0.27  OA
ATOM      3  N   PRO B   3      28.097  34.017  11.106  1.00 17.17 LIG-0.34  N 
ATOM      4  CA  PRO B   3      27.701  33.337  12.348  1.00 17.78 LIG 0.18  C 
ATOM      5  CB  PRO B   3      28.143  31.878  12.122  1.00 18.80 LIG 0.04  C 
ATOM      6  CG  PRO B   3      29.273  31.973  11.142  1.00 20.85 LIG 0.02  C 
ATOM      7  CD  PRO B   3      28.947  33.167  10.247  1.00 18.92 LIG 0.13  C 
ENDROOT
BRANCH 1 8
ATOM      8  CA  VAL B   2      28.083  35.939   9.590  1.00 17.17 LIG 0.18  C 
BRANCH 8 9
ATOM      9  CB  VAL B   2      29.543  36.414   9.808  1.00 19.35 LIG 0.01  C 
ATOM     10  CG1 VAL B   2      29.853  37.602   8.914  1.00 20.75 LIG 0.01  C 
ATOM     11  CG2 VAL B   2      29.838  36.699  11.253  1.00 20.63 LIG 0.01  C 
ENDBRANCH 8 9
BRANCH 8 12
ATOM     12  N   VAL B   2      27.163  37.034   9.227  1.00 15.32 LIG-0.35  N 
ATOM     13  C   SER B   1      26.528  37.037   8.069  1.00 14.89 LIG 0.25  C 
ATOM     14 O    SER B   1      26.591  36.157   7.199  1.00 16.72 LIG-0.27  OA
ATOM     15 H    VAL B   2      27.084  37.649   9.823  1.00 15.32 LIG 0.16  HD
BRANCH 13 16
ATOM     16  CA  SER B   1      25.512  38.179   7.886  1.00 15.81 LIG 0.30  C 
BRANCH 16 17
ATOM     17  N   SER B   1      24.846  38.015   6.565  1.00 17.29 LIG-0.06  N 
ATOM     18 H3   SER B   1      23.981  37.848   6.688  1.00 17.29 LIG 0.28  HD
ATOM     19 H1   SER B   1      24.939  38.763   6.091  1.00 17.29 LIG 0.28  HD
ATOM     20 H2   SER B   1      25.220  37.338   6.126  1.00 17.29 LIG 0.28  HD
ENDBRANCH 16 17
BRANCH 16 21
ATOM     21  CB  SER B   1      24.471  38.157   9.039  1.00 15.46 LIG 0.21  C 
BRANCH 21 22
ATOM     22 OG   SER B   1      24.051  36.820   9.302  1.00 16.65 LIG-0.40  OA
ATOM     23 HG   SER B   1      23.917  36.420   8.576  1.00 16.65 LIG 0.21  HD
ENDBRANCH 21 22
ENDBRANCH 16 21
ENDBRANCH 13 16
ENDBRANCH 8 12
ENDBRANCH 1 8
BRANCH 4 24
ATOM     24  C   PRO B   3      28.392  33.932  13.525  1.00 20.81 LIG 0.24  C 
ATOM     25 O    PRO B   3      28.722  35.117  13.510  1.00 24.11 LIG-0.27  OA
ATOM     26  N   ILE B   4      28.596  33.139  14.563  1.00 19.75 LIG-0.34  N 
ATOM     27 H    ILE B   4      28.254  32.353  14.636  1.00 19.75 LIG 0.16  HD
BRANCH 26 28
ATOM     28  CA  ILE B   4      29.440  33.538  15.704  1.00 21.11 LIG 0.19  C 
BRANCH 28 29
ATOM     29  C   ILE B   4      28.596  34.440  16.578  1.00 24.50 LIG 0.20  C 
ATOM     30 OXT  ILE B   4      27.923  35.372  16.066  1.00 23.18 LIG-0.65  OA
ATOM     31 O    ILE B   4      28.596  34.265  17.814  1.00 23.14 LIG-0.65  OA
ENDBRANCH 28 29
BRANCH 28 32
ATOM     32  CB  ILE B   4      30.677  34.262  15.219  1.00 22.38 LIG 0.01  C 
ATOM     33  CG2 ILE B   4      31.595  34.660  16.378  1.00 23.66 LIG 0.01  C 
BRANCH 32 34
ATOM     34  CG1 ILE B   4      31.409  33.348  14.238  1.00 23.74 LIG 0.00  C 
ATOM     35  CD1 ILE B   4      31.778  34.046  12.986  1.00 25.09 LIG 0.01  C 
ENDBRANCH 32 34
ENDBRANCH 28 32
ENDBRANCH 26 28
ENDBRANCH 4 24
TORSDOF 12
ENDMDL
MODEL 9
USER: ADFR SOLUTION from run 111
USER: SCORE 14.366917 LL:  -2.505 LR: -11.983 RR:   0.000 FEB:  -8.404
USER: RMSD 2.240415
USER: SEED 110
USER: STATUS no improvement in best in 7 clusters for 5 generations
USER: GENES 14
USER: genes 0 Translation |==|  0.48782 0.51778 0.42690
USER: genes 1 Rotation |==|  0.54175 0.45368 0.49361 0.99605
USER: genes 2 Torsion [N]-C--CA-[N] |==|  0.38741
USER: genes 3 Torsion [C]-CA--CB-[CG1] |==|  0.61075
USER: genes 4 Torsion [C]-CA--N-[C] |==|  0.72078
USER: genes 5 Torsion [N]-C--CA-[N] |==|  0.43870
USER: genes 6 Torsion [C]-CA--N-[H3] |==|  0.70043
USER: genes 7 Torsion [C]-CA--CB-[OG] |==|  0.20115
USER: genes 8 Torsion [CA]-CB--OG-[HG] |==|  0.92017
USER: genes 9 Torsion [N]-CA--C-[O] |==|  0.03029
USER: genes 10 Torsion [C]-N--CA-[C] |==|  0.85230
USER: genes 11 Torsion [N]-CA--C-[OXT] |==|  0.38138
USER: genes 12 Torsion [N]-CA--CB-[CG1] |==|  0.05334
USER: genes 13 Torsion [CA]-CB--CG1-[CD1] |==|  0.57374
ROOT
ATOM      1  C   VAL B   2      27.645  34.933  10.936  1.00 16.87 LIG 0.24  C 
ATOM      2 O    VAL B   2      27.096  35.390  11.937  1.00 15.05 LIG-0.27  OA
ATOM      3  N   PRO B   3      27.884  33.611  10.781  1.00 17.17 LIG-0.34  N 
ATOM      4  CA  PRO B   3      27.471  32.692  11.852  1.00 17.78 LIG 0.18  C 
ATOM      5  CB  PRO B   3      27.533  31.304  11.186  1.00 18.80 LIG 0.04  C 
ATOM      6  CG  PRO B   3      28.547  31.454  10.093  1.00 20.85 LIG 0.02  C 
ATOM      7  CD  PRO B   3      28.419  32.897   9.603  1.00 18.92 LIG 0.13  C 
ENDROOT
BRANCH 1 8
ATOM      8  CA  VAL B   2      28.164  35.853   9.839  1.00 17.17 LIG 0.18  C 
BRANCH 8 9
ATOM      9  CB  VAL B   2      29.546  36.424  10.250  1.00 19.35 LIG 0.01  C 
ATOM     10  CG1 VAL B   2      29.655  37.885   9.852  1.00 20.75 LIG 0.01  C 
ATOM     11  CG2 VAL B   2      29.838  36.209  11.707  1.00 20.63 LIG 0.01  C 
ENDBRANCH 8 9
BRANCH 8 12
ATOM     12  N   VAL B   2      27.165  36.899   9.551  1.00 15.32 LIG-0.35  N 
ATOM     13  C   SER B   1      26.362  36.809   8.505  1.00 14.89 LIG 0.25  C 
ATOM     14 O    SER B   1      26.323  35.873   7.694  1.00 16.72 LIG-0.27  OA
ATOM     15 H    VAL B   2      27.156  37.551  10.111  1.00 15.32 LIG 0.16  HD
BRANCH 13 16
ATOM     16  CA  SER B   1      25.294  37.913   8.406  1.00 15.81 LIG 0.30  C 
BRANCH 16 17
ATOM     17  N   SER B   1      24.847  38.015   6.990  1.00 17.29 LIG-0.06  N 
ATOM     18 H3   SER B   1      25.166  38.764   6.631  1.00 17.29 LIG 0.28  HD
ATOM     19 H1   SER B   1      25.150  37.315   6.532  1.00 17.29 LIG 0.28  HD
ATOM     20 H2   SER B   1      23.958  38.027   6.959  1.00 17.29 LIG 0.28  HD
ENDBRANCH 16 17
BRANCH 16 21
ATOM     21  CB  SER B   1      24.099  37.583   9.343  1.00 15.46 LIG 0.21  C 
BRANCH 21 22
ATOM     22 OG   SER B   1      24.471  37.774  10.706  1.00 16.65 LIG-0.40  OA
ATOM     23 HG   SER B   1      25.295  37.640  10.793  1.00 16.65 LIG 0.21  HD
ENDBRANCH 21 22
ENDBRANCH 16 21
ENDBRANCH 13 16
ENDBRANCH 8 12
ENDBRANCH 1 8
BRANCH 4 24
ATOM     24  C   PRO B   3      28.400  32.775  13.013  1.00 20.81 LIG 0.24  C 
ATOM     25 O    PRO B   3      29.234  33.677  13.070  1.00 24.11 LIG-0.27  OA
ATOM     26  N   ILE B   4      28.255  31.864  13.961  1.00 19.75 LIG-0.34  N 
ATOM     27 H    ILE B   4      27.594  31.314  13.996  1.00 19.75 LIG 0.16  HD
BRANCH 26 28
ATOM     28  CA  ILE B   4      29.228  31.708  15.056  1.00 21.11 LIG 0.19  C 
BRANCH 28 29
ATOM     29  C   ILE B   4      30.589  31.551  14.414  1.00 24.50 LIG 0.20  C 
ATOM     30 OXT  ILE B   4      31.588  32.151  14.887  1.00 23.18 LIG-0.65  OA
ATOM     31 O    ILE B   4      30.703  30.838  13.395  1.00 23.14 LIG-0.65  OA
ENDBRANCH 28 29
BRANCH 28 32
ATOM     32  CB  ILE B   4      28.887  30.497  15.898  1.00 22.38 LIG 0.01  C 
ATOM     33  CG2 ILE B   4      28.221  30.890  17.219  1.00 23.66 LIG 0.01  C 
BRANCH 32 34
ATOM     34  CG1 ILE B   4      27.972  29.590  15.078  1.00 23.74 LIG 0.00  C 
ATOM     35  CD1 ILE B   4      27.096  28.755  15.930  1.00 25.09 LIG 0.01  C 
ENDBRANCH 32 34
ENDBRANCH 28 32
ENDBRANCH 26 28
ENDBRANCH 4 24
TORSDOF 12
ENDMDL
MODEL 10
USER: ADFR SOLUTION from run 68
USER: SCORE 14.586552 LL:  -3.102 LR: -11.950 RR:   0.000 FEB:  -8.371
USER: RMSD 5.003219
USER: SEED 67
USER: STATUS no improvement in best in 4 clusters for 5 generations
USER: GENES 14
USER: genes 0 Translation |==|  0.43629 0.54882 0.33653
USER: genes 1 Rotation |==|  0.72433 0.47274 0.69729 0.90001
USER: genes 2 Torsion [N]-C--CA-[N] |==|  0.15551
USER: genes 3 Torsion [C]-CA--CB-[CG1] |==|  0.46145
USER: genes 4 Torsion [C]-CA--N-[C] |==|  0.62777
USER: genes 5 Torsion [N]-C--CA-[N] |==|  0.40046
USER: genes 6 Torsion [C]-CA--N-[H3] |==|  0.26144
USER: genes 7 Torsion [C]-CA--CB-[OG] |==|  0.61544
USER: genes 8 Torsion [CA]-CB--OG-[HG] |==|  0.21766
USER: genes 9 Torsion [N]-CA--C-[O] |==|  0.47505
USER: genes 10 Torsion [C]-N--CA-[C] |==|  0.74108
USER: genes 11 Torsion [N]-CA--C-[OXT] |==|  0.95092
USER: genes 12 Torsion [N]-CA--CB-[CG1] |==|  0.11653
USER: genes 13 Torsion [CA]-CB--CG1-[CD1] |==|  0.71356
ROOT
ATOM      1  C   VAL B   2      26.795  35.446   9.173  1.00 16.87 LIG 0.24  C 
ATOM      2 O    VAL B   2      26.387  34.643  10.011  1.00 15.05 LIG-0.27  OA
ATOM      3  N   PRO B   3      27.882  35.201   8.406  1.00 17.17 LIG-0.34  N 
ATOM      4  CA  PRO B   3      28.597  33.929   8.584  1.00 17.78 LIG 0.18  C 
ATOM      5  CB  PRO B   3      29.487  33.831   7.330  1.00 18.80 LIG 0.04  C 
ATOM      6  CG  PRO B   3      29.704  35.253   6.910  1.00 20.85 LIG 0.02  C 
ATOM      7  CD  PRO B   3      28.425  35.999   7.286  1.00 18.92 LIG 0.13  C 
ENDROOT
BRANCH 1 8
ATOM      8  CA  VAL B   2      26.137  36.809   9.010  1.00 17.17 LIG 0.18  C 
BRANCH 8 9
ATOM      9  CB  VAL B   2      24.930  36.922   9.976  1.00 19.35 LIG 0.01  C 
ATOM     10  CG1 VAL B   2      24.471  38.365  10.085  1.00 20.75 LIG 0.01  C 
ATOM     11  CG2 VAL B   2      23.809  35.998   9.596  1.00 20.63 LIG 0.01  C 
ENDBRANCH 8 9
BRANCH 8 12
ATOM     12  N   VAL B   2      25.773  37.021   7.597  1.00 15.32 LIG-0.35  N 
ATOM     13  C   SER B   1      26.042  38.161   6.985  1.00 14.89 LIG 0.25  C 
ATOM     14 O    SER B   1      26.630  39.133   7.479  1.00 16.72 LIG-0.27  OA
ATOM     15 H    VAL B   2      25.382  36.353   7.223  1.00 15.32 LIG 0.16  HD
BRANCH 13 16
ATOM     16  CA  SER B   1      25.713  38.188   5.481  1.00 15.81 LIG 0.30  C 
BRANCH 16 17
ATOM     17  N   SER B   1      25.221  39.547   5.127  1.00 17.29 LIG-0.06  N 
ATOM     18 H3   SER B   1      25.900  40.040   4.832  1.00 17.29 LIG 0.28  HD
ATOM     19 H1   SER B   1      24.603  39.482   4.489  1.00 17.29 LIG 0.28  HD
ATOM     20 H2   SER B   1      24.865  39.931   5.846  1.00 17.29 LIG 0.28  HD
ENDBRANCH 16 17
BRANCH 16 21
ATOM     21  CB  SER B   1      26.975  37.820   4.653  1.00 15.46 LIG 0.21  C 
BRANCH 21 22
ATOM     22 OG   SER B   1      27.079  38.664   3.509  1.00 16.65 LIG-0.40  OA
ATOM     23 HG   SER B   1      27.384  39.412   3.739  1.00 16.65 LIG 0.21  HD
ENDBRANCH 21 22
ENDBRANCH 16 21
ENDBRANCH 13 16
ENDBRANCH 8 12
ENDBRANCH 1 8
BRANCH 4 24
ATOM     24  C   PRO B   3      29.417  33.949   9.827  1.00 20.81 LIG 0.24  C 
ATOM     25 O    PRO B   3      29.953  32.917  10.226  1.00 24.11 LIG-0.27  OA
ATOM     26  N   ILE B   4      29.551  35.115  10.437  1.00 19.75 LIG-0.34  N 
ATOM     27 H    ILE B   4      29.295  35.862  10.097  1.00 19.75 LIG 0.16  HD
BRANCH 26 28
ATOM     28  CA  ILE B   4      30.162  35.238  11.772  1.00 21.11 LIG 0.19  C 
BRANCH 28 29
ATOM     29  C   ILE B   4      29.032  35.186  12.777  1.00 24.50 LIG 0.20  C 
ATOM     30 OXT  ILE B   4      27.846  35.390  12.410  1.00 23.18 LIG-0.65  OA
ATOM     31 O    ILE B   4      29.293  34.962  13.977  1.00 23.14 LIG-0.65  OA
ENDBRANCH 28 29
BRANCH 28 32
ATOM     32  CB  ILE B   4      30.925  36.540  11.888  1.00 22.38 LIG 0.01  C 
ATOM     33  CG2 ILE B   4      32.307  36.452  11.237  1.00 23.66 LIG 0.01  C 
BRANCH 32 34
ATOM     34  CG1 ILE B   4      30.089  37.640  11.236  1.00 23.74 LIG 0.00  C 
ATOM     35  CD1 ILE B   4      30.592  38.011   9.895  1.00 25.09 LIG 0.01  C 
ENDBRANCH 32 34
ENDBRANCH 28 32
ENDBRANCH 26 28
ENDBRANCH 4 24
TORSDOF 12
ENDMDL
