MODEL 1
USER: ADFR SOLUTION from run 142
USER: SCORE 21.830907 LL:  -5.869 LR: -17.896 RR:   0.000 FEB:  -9.842
USER: RMSD 7.238254
USER: SEED 141
USER: STATUS no improvement in best in 2 clusters for 5 generations
USER: GENES 29
USER: genes 0 Translation |==|  0.40874 0.46866 0.45144
USER: genes 1 Rotation |==|  0.29387 0.62398 0.88816 0.70365
USER: genes 2 Torsion [N]-C--CA-[N] |==|  0.30510
USER: genes 3 Torsion [C]-CA--N-[C] |==|  0.80555
USER: genes 4 Torsion [N]-C--CA-[N] |==|  0.25863
USER: genes 5 Torsion [C]-CA--CB-[CG] |==|  0.74176
USER: genes 6 Torsion [CA]-CB--CG-[CD] |==|  0.66637
USER: genes 7 Torsion [CB]-CG--CD-[CE] |==|  0.82113
USER: genes 8 Torsion [CG]-CD--CE-[NZ] |==|  0.40364
USER: genes 9 Torsion [CD]-CE--NZ-[HZ1] |==|  0.91374
USER: genes 10 Torsion [C]-CA--N-[C] |==|  0.56381
USER: genes 11 Torsion [N]-C--CA-[N] |==|  0.40176
USER: genes 12 Torsion [C]-CA--CB-[CG] |==|  0.85306
USER: genes 13 Torsion [CA]-CB--CG-[CD] |==|  0.82874
USER: genes 14 Torsion [CB]-CG--CD-[OE1] |==|  0.92564
USER: genes 15 Torsion [C]-CA--N-[H1] |==|  0.44801
USER: genes 16 Torsion [C]-CA--CB-[CG2] |==|  0.60705
USER: genes 17 Torsion [C]-N--CA-[CB] |==|  0.82534
USER: genes 18 Torsion [N]-CA--CB-[CG] |==|  0.86504
USER: genes 19 Torsion [CA]-CB--CG-[ND1] |==|  0.89130
USER: genes 20 Torsion [N]-CA--C-[N] |==|  0.79533
USER: genes 21 Torsion [C]-N--CA-[CB] |==|  0.83105
USER: genes 22 Torsion [N]-CA--CB-[CG1] |==|  0.32269
USER: genes 23 Torsion [N]-CA--C-[N] |==|  0.45868
USER: genes 24 Torsion [C]-N--CA-[C] |==|  0.77138
USER: genes 25 Torsion [N]-CA--C-[OXT] |==|  0.62597
USER: genes 26 Torsion [N]-CA--CB-[CG] |==|  0.86321
USER: genes 27 Torsion [CA]-CB--CG-[CD] |==|  0.73386
USER: genes 28 Torsion [CB]-CG--CD-[OE1] |==|  0.65315
ROOT
ATOM      1  C   VAL B   3       2.764 -23.339  19.390  1.00 28.64 LIG 0.24  C 
ATOM      2 O    VAL B   3       3.641 -23.094  20.229  1.00 27.24 LIG-0.27  OA
ATOM      3  N   HIS B   4       1.419 -23.826  19.740  1.00 29.63 LIG-0.35  N 
ATOM      4 H    HIS B   4       0.813 -24.087  19.187  1.00 29.63 LIG 0.16  HD
ENDROOT
BRANCH 1 5
ATOM      5  CA  VAL B   3       3.053 -23.177  17.888  1.00 30.81 LIG 0.18  C 
BRANCH 5 6
ATOM      6  N   VAL B   3       3.147 -21.761  17.561  1.00 30.70 LIG-0.35  N 
ATOM      7 H    VAL B   3       3.939 -21.491  17.362  1.00 30.70 LIG 0.16  HD
ATOM      8  C   LYS B   2       2.074 -20.977  17.579  1.00 38.89 LIG 0.24  C 
ATOM      9 O    LYS B   2       0.933 -21.402  17.800  1.00 35.72 LIG-0.27  OA
BRANCH 8 10
ATOM     10  CA  LYS B   2       2.321 -19.503  17.286  1.00 39.86 LIG 0.18  C 
BRANCH 10 11
ATOM     11  CB  LYS B   2       1.430 -18.617  18.178  1.00 33.57 LIG 0.04  C 
BRANCH 11 12
ATOM     12  CG  LYS B   2       0.097 -18.241  17.500  1.00 34.54 LIG 0.00  C 
BRANCH 12 13
ATOM     13  CD  LYS B   2      -0.099 -16.740  17.335  1.00 30.34 LIG 0.03  C 
BRANCH 13 14
ATOM     14  CE  LYS B   2      -0.200 -15.997  18.652  1.00 26.25 LIG 0.23  C 
BRANCH 14 15
ATOM     15  NZ  LYS B   2       0.429 -14.638  18.542  1.00 28.72 LIG-0.08  N 
ATOM     16 HZ2  LYS B   2      -0.180 -14.050  18.268  1.00 28.72 LIG 0.27  HD
ATOM     17 HZ3  LYS B   2       0.743 -14.390  19.337  1.00 28.72 LIG 0.27  HD
ATOM     18 HZ1  LYS B   2       1.098 -14.667  17.957  1.00 28.72 LIG 0.27  HD
ENDBRANCH 14 15
ENDBRANCH 13 14
ENDBRANCH 12 13
ENDBRANCH 11 12
ENDBRANCH 10 11
BRANCH 10 19
ATOM     19  N   LYS B   2       2.131 -19.259  15.852  1.00 40.88 LIG-0.35  N 
ATOM     20  C   GLU B   1       2.721 -18.201  15.288  1.00 50.16 LIG 0.25  C 
ATOM     21 O    GLU B   1       3.326 -17.350  15.948  1.00 45.73 LIG-0.27  OA
ATOM     22 H    LYS B   2       1.635 -19.829  15.440  1.00 40.88 LIG 0.16  HD
BRANCH 20 23
ATOM     23  CA  GLU B   1       2.609 -18.044  13.771  1.00 56.89 LIG 0.28  C 
BRANCH 23 24
ATOM     24  CB  GLU B   1       3.787 -18.736  13.088  1.00 44.84 LIG 0.05  C 
BRANCH 24 25
ATOM     25  CG  GLU B   1       5.145 -18.301  13.616  1.00 43.84 LIG 0.12  C 
BRANCH 25 26
ATOM     26  CD  GLU B   1       5.413 -16.819  13.406  1.00 58.57 LIG 0.17  C 
ATOM     27 OE1  GLU B   1       4.841 -16.240  12.454  1.00 59.35 LIG-0.65  OA
ATOM     28 OE2  GLU B   1       6.198 -16.235  14.187  1.00 59.65 LIG-0.65  OA
ENDBRANCH 25 26
ENDBRANCH 24 25
ENDBRANCH 23 24
BRANCH 23 29
ATOM     29  N   GLU B   1       2.504 -16.651  13.353  1.00 43.96 LIG-0.07  N 
ATOM     30 H1   GLU B   1       2.711 -16.584  12.490  1.00 43.96 LIG 0.28  HD
ATOM     31 H2   GLU B   1       1.671 -16.365  13.481  1.00 43.96 LIG 0.28  HD
ATOM     32 H3   GLU B   1       3.065 -16.154  13.832  1.00 43.96 LIG 0.28  HD
ENDBRANCH 23 29
ENDBRANCH 20 23
ENDBRANCH 10 19
ENDBRANCH 8 10
ENDBRANCH 5 6
BRANCH 5 33
ATOM     33  CB  VAL B   3       4.341 -23.919  17.505  1.00 34.43 LIG 0.01  C 
ATOM     34  CG2 VAL B   3       5.122 -23.118  16.493  1.00 33.75 LIG 0.01  C 
ATOM     35  CG1 VAL B   3       4.004 -25.305  16.935  1.00 37.65 LIG 0.01  C 
ENDBRANCH 5 33
ENDBRANCH 1 5
BRANCH 3 36
ATOM     36  CA  HIS B   4       1.071 -23.872  21.160  1.00 28.98 LIG 0.18  C 
BRANCH 36 37
ATOM     37  CB  HIS B   4       1.981 -24.850  21.926  1.00 26.24 LIG 0.10  C 
BRANCH 37 38
ATOM     38  CG  HIS B   4       2.107 -26.186  21.261  1.00 30.41 LIG 0.06  A 
ATOM     39 ND1  HIS B   4       1.045 -26.817  20.648  1.00 34.08 LIG-0.24  NA
ATOM     40  CE1 HIS B   4       1.451 -27.974  20.148  1.00 29.96 LIG 0.23  A 
ATOM     41 NE2  HIS B   4       2.741 -28.103  20.399  1.00 35.16 LIG-0.25  NA
ATOM     42  CD2 HIS B   4       3.179 -26.998  21.091  1.00 34.95 LIG 0.14  A 
ENDBRANCH 37 38
ENDBRANCH 36 37
BRANCH 36 43
ATOM     43  C   HIS B   4       1.095 -22.500  21.813  1.00 27.46 LIG 0.24  C 
ATOM     44 O    HIS B   4       0.056 -21.853  21.977  1.00 25.24 LIG-0.27  OA
ATOM     45  N   VAL B   5       2.213 -21.984  22.038  1.00 26.31 LIG-0.35  N 
ATOM     46 H    VAL B   5       2.965 -22.390  21.939  1.00 26.31 LIG 0.16  HD
BRANCH 45 47
ATOM     47  CA  VAL B   5       2.319 -20.595  22.505  1.00 25.23 LIG 0.18  C 
BRANCH 47 48
ATOM     48  CB  VAL B   5       1.717 -19.610  21.475  1.00 26.56 LIG 0.01  C 
ATOM     49  CG2 VAL B   5       2.768 -18.606  21.024  1.00 31.17 LIG 0.01  C 
ATOM     50  CG1 VAL B   5       0.518 -18.882  22.036  1.00 34.68 LIG 0.01  C 
ENDBRANCH 47 48
BRANCH 47 51
ATOM     51  C   VAL B   5       1.673 -20.421  23.871  1.00 27.03 LIG 0.24  C 
ATOM     52  N   GLN B   6       1.965 -19.306  24.529  1.00 26.89 LIG-0.34  N 
ATOM     53 H    GLN B   6       2.492 -18.688  24.245  1.00 26.89 LIG 0.16  HD
ATOM     54 O    VAL B   5       0.902 -21.279  24.325  1.00 28.01 LIG-0.27  OA
BRANCH 52 55
ATOM     55  CA  GLN B   6       1.366 -19.067  25.845  1.00 25.51 LIG 0.19  C 
BRANCH 55 56
ATOM     56  C   GLN B   6      -0.042 -18.495  25.721  1.00 28.77 LIG 0.20  C 
ATOM     57 OXT  GLN B   6      -0.425 -17.529  26.411  1.00 27.06 LIG-0.65  OA
ATOM     58 O    GLN B   6      -0.848 -19.019  24.931  1.00 25.73 LIG-0.65  OA
ENDBRANCH 55 56
BRANCH 55 59
ATOM     59  CB  GLN B   6       2.211 -18.089  26.658  1.00 31.03 LIG 0.04  C 
BRANCH 59 60
ATOM     60  CG  GLN B   6       3.682 -18.417  26.708  1.00 39.52 LIG 0.10  C 
BRANCH 60 61
ATOM     61  CD  GLN B   6       4.030 -19.195  27.957  1.00 49.24 LIG 0.21  C 
ATOM     62  NE2 GLN B   6       3.363 -20.326  28.150  1.00 50.05 LIG-0.37  N 
ATOM     63 21HE GLN B   6       2.759 -20.570  27.589  1.00 50.05 LIG 0.16  HD
ATOM     64 22HE GLN B   6       3.535 -20.814  28.837  1.00 50.05 LIG 0.16  HD
ATOM     65 OE1  GLN B   6       4.909 -18.796  28.731  1.00 58.78 LIG-0.27  OA
ENDBRANCH 60 61
ENDBRANCH 59 60
ENDBRANCH 55 59
ENDBRANCH 52 55
ENDBRANCH 47 51
ENDBRANCH 45 47
ENDBRANCH 36 43
ENDBRANCH 3 36
TORSDOF 27
ENDMDL
MODEL 2
USER: ADFR SOLUTION from run 168
USER: SCORE 21.001048 LL:  -5.906 LR: -17.471 RR:   0.000 FEB:  -9.417
USER: RMSD 11.117710
USER: SEED 167
USER: STATUS no improvement in best in 2 clusters for 5 generations
USER: GENES 29
USER: genes 0 Translation |==|  0.37603 0.65497 0.35073
USER: genes 1 Rotation |==|  0.92674 0.67038 0.61611 0.65933
USER: genes 2 Torsion [N]-C--CA-[N] |==|  0.78500
USER: genes 3 Torsion [C]-CA--N-[C] |==|  0.75934
USER: genes 4 Torsion [N]-C--CA-[N] |==|  0.11782
USER: genes 5 Torsion [C]-CA--CB-[CG] |==|  0.73048
USER: genes 6 Torsion [CA]-CB--CG-[CD] |==|  0.34285
USER: genes 7 Torsion [CB]-CG--CD-[CE] |==|  0.70721
USER: genes 8 Torsion [CG]-CD--CE-[NZ] |==|  0.09359
USER: genes 9 Torsion [CD]-CE--NZ-[HZ1] |==|  0.85054
USER: genes 10 Torsion [C]-CA--N-[C] |==|  0.75996
USER: genes 11 Torsion [N]-C--CA-[N] |==|  0.94319
USER: genes 12 Torsion [C]-CA--CB-[CG] |==|  0.12010
USER: genes 13 Torsion [CA]-CB--CG-[CD] |==|  0.67020
USER: genes 14 Torsion [CB]-CG--CD-[OE1] |==|  0.36195
USER: genes 15 Torsion [C]-CA--N-[H1] |==|  0.74299
USER: genes 16 Torsion [C]-CA--CB-[CG2] |==|  0.68579
USER: genes 17 Torsion [C]-N--CA-[CB] |==|  0.75001
USER: genes 18 Torsion [N]-CA--CB-[CG] |==|  0.97715
USER: genes 19 Torsion [CA]-CB--CG-[ND1] |==|  0.69773
USER: genes 20 Torsion [N]-CA--C-[N] |==|  0.13542
USER: genes 21 Torsion [C]-N--CA-[CB] |==|  0.21577
USER: genes 22 Torsion [N]-CA--CB-[CG1] |==|  0.14955
USER: genes 23 Torsion [N]-CA--C-[N] |==|  0.88287
USER: genes 24 Torsion [C]-N--CA-[C] |==|  0.52245
USER: genes 25 Torsion [N]-CA--C-[OXT] |==|  0.40340
USER: genes 26 Torsion [N]-CA--CB-[CG] |==|  0.24026
USER: genes 27 Torsion [CA]-CB--CG-[CD] |==|  0.79394
USER: genes 28 Torsion [CB]-CG--CD-[OE1] |==|  0.33117
ROOT
ATOM      1  C   VAL B   3       2.176 -19.007  17.125  1.00 28.64 LIG 0.24  C 
ATOM      2 O    VAL B   3       1.380 -19.283  16.218  1.00 27.24 LIG-0.27  OA
ATOM      3  N   HIS B   4       3.008 -20.011  17.809  1.00 29.63 LIG-0.35  N 
ATOM      4 H    HIS B   4       3.507 -19.875  18.497  1.00 29.63 LIG 0.16  HD
ENDROOT
BRANCH 1 5
ATOM      5  CA  VAL B   3       2.317 -17.559  17.626  1.00 30.81 LIG 0.18  C 
BRANCH 5 6
ATOM      6  N   VAL B   3       1.581 -17.403  18.872  1.00 30.70 LIG-0.35  N 
ATOM      7 H    VAL B   3       2.050 -17.522  19.583  1.00 30.70 LIG 0.16  HD
ATOM      8  C   LYS B   2       0.287 -17.099  18.874  1.00 38.89 LIG 0.24  C 
ATOM      9 O    LYS B   2      -0.351 -16.863  17.841  1.00 35.72 LIG-0.27  OA
BRANCH 8 10
ATOM     10  CA  LYS B   2      -0.379 -17.033  20.243  1.00 39.86 LIG 0.18  C 
BRANCH 10 11
ATOM     11  CB  LYS B   2      -1.772 -16.382  20.136  1.00 33.57 LIG 0.04  C 
BRANCH 11 12
ATOM     12  CG  LYS B   2      -1.754 -14.880  20.485  1.00 34.54 LIG 0.00  C 
BRANCH 12 13
ATOM     13  CD  LYS B   2      -2.297 -13.991  19.374  1.00 30.34 LIG 0.03  C 
BRANCH 13 14
ATOM     14  CE  LYS B   2      -1.218 -13.235  18.624  1.00 26.25 LIG 0.23  C 
BRANCH 14 15
ATOM     15  NZ  LYS B   2       0.037 -14.053  18.538  1.00 28.72 LIG-0.08  N 
ATOM     16 HZ2  LYS B   2      -0.109 -14.771  18.032  1.00 28.72 LIG 0.27  HD
ATOM     17 HZ3  LYS B   2       0.687 -13.564  18.177  1.00 28.72 LIG 0.27  HD
ATOM     18 HZ1  LYS B   2       0.280 -14.311  19.354  1.00 28.72 LIG 0.27  HD
ENDBRANCH 14 15
ENDBRANCH 13 14
ENDBRANCH 12 13
ENDBRANCH 11 12
ENDBRANCH 10 11
BRANCH 10 19
ATOM     19  N   LYS B   2       0.514 -16.342  21.179  1.00 40.88 LIG-0.35  N 
ATOM     20  C   GLU B   1       1.447 -17.046  21.828  1.00 50.16 LIG 0.25  C 
ATOM     21 O    GLU B   1       1.514 -18.277  21.761  1.00 45.73 LIG-0.27  OA
ATOM     22 H    LYS B   2       0.384 -15.496  21.262  1.00 40.88 LIG 0.16  HD
BRANCH 20 23
ATOM     23  CA  GLU B   1       2.443 -16.279  22.699  1.00 56.89 LIG 0.28  C 
BRANCH 23 24
ATOM     24  CB  GLU B   1       2.082 -16.448  24.174  1.00 44.84 LIG 0.05  C 
BRANCH 24 25
ATOM     25  CG  GLU B   1       1.702 -17.870  24.555  1.00 43.84 LIG 0.12  C 
BRANCH 25 26
ATOM     26  CD  GLU B   1       0.279 -17.980  25.079  1.00 58.57 LIG 0.17  C 
ATOM     27 OE1  GLU B   1      -0.468 -18.860  24.593  1.00 59.35 LIG-0.65  OA
ATOM     28 OE2  GLU B   1      -0.094 -17.185  25.972  1.00 59.65 LIG-0.65  OA
ENDBRANCH 25 26
ENDBRANCH 24 25
ENDBRANCH 23 24
BRANCH 23 29
ATOM     29  N   GLU B   1       2.538 -14.869  22.341  1.00 43.96 LIG-0.07  N 
ATOM     30 H1   GLU B   1       3.196 -14.756  21.752  1.00 43.96 LIG 0.28  HD
ATOM     31 H2   GLU B   1       1.769 -14.601  21.982  1.00 43.96 LIG 0.28  HD
ATOM     32 H3   GLU B   1       2.708 -14.388  23.069  1.00 43.96 LIG 0.28  HD
ENDBRANCH 23 29
ENDBRANCH 20 23
ENDBRANCH 10 19
ENDBRANCH 8 10
ENDBRANCH 5 6
BRANCH 5 33
ATOM     33  CB  VAL B   3       3.798 -17.197  17.809  1.00 34.43 LIG 0.01  C 
ATOM     34  CG2 VAL B   3       4.105 -16.986  19.271  1.00 33.75 LIG 0.01  C 
ATOM     35  CG1 VAL B   3       4.135 -15.928  17.011  1.00 37.65 LIG 0.01  C 
ENDBRANCH 5 33
ENDBRANCH 1 5
BRANCH 3 36
ATOM     36  CA  HIS B   4       2.990 -21.373  17.275  1.00 28.98 LIG 0.18  C 
BRANCH 36 37
ATOM     37  CB  HIS B   4       1.882 -22.216  17.934  1.00 26.24 LIG 0.10  C 
BRANCH 37 38
ATOM     38  CG  HIS B   4       1.220 -21.527  19.087  1.00 30.41 LIG 0.06  A 
ATOM     39 ND1  HIS B   4       1.408 -21.916  20.397  1.00 34.08 LIG-0.24  NA
ATOM     40  CE1 HIS B   4       0.703 -21.128  21.194  1.00 29.96 LIG 0.23  A 
ATOM     41 NE2  HIS B   4       0.084 -20.231  20.449  1.00 35.16 LIG-0.25  NA
ATOM     42  CD2 HIS B   4       0.391 -20.454  19.127  1.00 34.95 LIG 0.14  A 
ENDBRANCH 37 38
ENDBRANCH 36 37
BRANCH 36 43
ATOM     43  C   HIS B   4       2.854 -21.406  15.762  1.00 27.46 LIG 0.24  C 
ATOM     44 O    HIS B   4       2.129 -22.238  15.205  1.00 25.24 LIG-0.27  OA
ATOM     45  N   VAL B   5       3.614 -20.670  15.094  1.00 26.31 LIG-0.35  N 
ATOM     46 H    VAL B   5       4.138 -20.078  15.433  1.00 26.31 LIG 0.16  HD
BRANCH 45 47
ATOM     47  CA  VAL B   5       3.665 -20.773  13.630  1.00 25.23 LIG 0.18  C 
BRANCH 47 48
ATOM     48  CB  VAL B   5       2.450 -20.072  12.976  1.00 26.56 LIG 0.01  C 
ATOM     49  CG2 VAL B   5       2.567 -20.113  11.460  1.00 31.17 LIG 0.01  C 
ATOM     50  CG1 VAL B   5       2.314 -18.642  13.444  1.00 34.68 LIG 0.01  C 
ENDBRANCH 47 48
BRANCH 47 51
ATOM     51  C   VAL B   5       4.973 -20.221  13.083  1.00 27.03 LIG 0.24  C 
ATOM     52  N   GLN B   6       5.416 -19.093  13.626  1.00 26.89 LIG-0.34  N 
ATOM     53 H    GLN B   6       5.017 -18.655  14.250  1.00 26.89 LIG 0.16  HD
ATOM     54 O    VAL B   5       5.590 -20.815  12.187  1.00 28.01 LIG-0.27  OA
BRANCH 52 55
ATOM     55  CA  GLN B   6       6.677 -18.513  13.156  1.00 25.51 LIG 0.19  C 
BRANCH 55 56
ATOM     56  C   GLN B   6       7.111 -17.341  14.028  1.00 28.77 LIG 0.20  C 
ATOM     57 OXT  GLN B   6       8.313 -17.105  14.268  1.00 27.06 LIG-0.65  OA
ATOM     58 O    GLN B   6       6.247 -16.609  14.544  1.00 25.73 LIG-0.65  OA
ENDBRANCH 55 56
BRANCH 55 59
ATOM     59  CB  GLN B   6       6.546 -18.019  11.718  1.00 31.03 LIG 0.04  C 
BRANCH 59 60
ATOM     60  CG  GLN B   6       6.019 -16.613  11.579  1.00 39.52 LIG 0.10  C 
BRANCH 60 61
ATOM     61  CD  GLN B   6       4.534 -16.553  11.861  1.00 49.24 LIG 0.21  C 
ATOM     62  NE2 GLN B   6       3.757 -17.296  11.083  1.00 50.05 LIG-0.37  N 
ATOM     63 21HE GLN B   6       4.104 -17.762  10.450  1.00 50.05 LIG 0.16  HD
ATOM     64 22HE GLN B   6       2.907 -17.310  11.213  1.00 50.05 LIG 0.16  HD
ATOM     65 OE1  GLN B   6       4.090 -15.863  12.787  1.00 58.78 LIG-0.27  OA
ENDBRANCH 60 61
ENDBRANCH 59 60
ENDBRANCH 55 59
ENDBRANCH 52 55
ENDBRANCH 47 51
ENDBRANCH 45 47
ENDBRANCH 36 43
ENDBRANCH 3 36
TORSDOF 27
ENDMDL
MODEL 3
USER: ADFR SOLUTION from run 33
USER: SCORE 19.291895 LL:  -5.935 LR: -17.424 RR:   0.000 FEB:  -9.370
USER: RMSD 8.113439
USER: SEED 32
USER: STATUS no improvement in best in 5 clusters for 5 generations
USER: GENES 29
USER: genes 0 Translation |==|  0.34187 0.50981 0.65425
USER: genes 1 Rotation |==|  0.69563 0.57432 0.10414 0.72248
USER: genes 2 Torsion [N]-C--CA-[N] |==|  0.66590
USER: genes 3 Torsion [C]-CA--N-[C] |==|  0.74389
USER: genes 4 Torsion [N]-C--CA-[N] |==|  0.27281
USER: genes 5 Torsion [C]-CA--CB-[CG] |==|  0.56745
USER: genes 6 Torsion [CA]-CB--CG-[CD] |==|  0.25891
USER: genes 7 Torsion [CB]-CG--CD-[CE] |==|  0.62162
USER: genes 8 Torsion [CG]-CD--CE-[NZ] |==|  0.83472
USER: genes 9 Torsion [CD]-CE--NZ-[HZ1] |==|  0.49415
USER: genes 10 Torsion [C]-CA--N-[C] |==|  0.60838
USER: genes 11 Torsion [N]-C--CA-[N] |==|  0.36438
USER: genes 12 Torsion [C]-CA--CB-[CG] |==|  0.23101
USER: genes 13 Torsion [CA]-CB--CG-[CD] |==|  0.97418
USER: genes 14 Torsion [CB]-CG--CD-[OE1] |==|  0.68419
USER: genes 15 Torsion [C]-CA--N-[H1] |==|  0.27028
USER: genes 16 Torsion [C]-CA--CB-[CG2] |==|  0.69266
USER: genes 17 Torsion [C]-N--CA-[CB] |==|  0.42524
USER: genes 18 Torsion [N]-CA--CB-[CG] |==|  0.71147
USER: genes 19 Torsion [CA]-CB--CG-[ND1] |==|  0.02322
USER: genes 20 Torsion [N]-CA--C-[N] |==|  0.15113
USER: genes 21 Torsion [C]-N--CA-[CB] |==|  0.24727
USER: genes 22 Torsion [N]-CA--CB-[CG1] |==|  0.14435
USER: genes 23 Torsion [N]-CA--C-[N] |==|  0.88638
USER: genes 24 Torsion [C]-N--CA-[C] |==|  0.63786
USER: genes 25 Torsion [N]-CA--C-[OXT] |==|  0.80237
USER: genes 26 Torsion [N]-CA--CB-[CG] |==|  0.04471
USER: genes 27 Torsion [CA]-CB--CG-[CD] |==|  0.70877
USER: genes 28 Torsion [CB]-CG--CD-[OE1] |==|  0.02915
ROOT
ATOM      1  C   VAL B   3       1.561 -22.382  23.954  1.00 28.64 LIG 0.24  C 
ATOM      2 O    VAL B   3       1.029 -21.538  24.687  1.00 27.24 LIG-0.27  OA
ATOM      3  N   HIS B   4       2.528 -23.383  24.435  1.00 29.63 LIG-0.35  N 
ATOM      4 H    HIS B   4       2.981 -23.928  23.947  1.00 29.63 LIG 0.16  HD
ENDROOT
BRANCH 1 5
ATOM      5  CA  VAL B   3       1.258 -22.408  22.445  1.00 30.81 LIG 0.18  C 
BRANCH 5 6
ATOM      6  N   VAL B   3       1.609 -21.124  21.857  1.00 30.70 LIG-0.35  N 
ATOM      7 H    VAL B   3       2.427 -21.060  21.598  1.00 30.70 LIG 0.16  HD
ATOM      8  C   LYS B   2       0.713 -20.149  21.743  1.00 38.89 LIG 0.24  C 
ATOM      9 O    LYS B   2      -0.476 -20.288  22.057  1.00 35.72 LIG-0.27  OA
BRANCH 8 10
ATOM     10  CA  LYS B   2       1.228 -18.834  21.174  1.00 39.86 LIG 0.18  C 
BRANCH 10 11
ATOM     11  CB  LYS B   2       0.674 -17.642  21.980  1.00 33.57 LIG 0.04  C 
BRANCH 11 12
ATOM     12  CG  LYS B   2       0.641 -16.335  21.161  1.00 34.54 LIG 0.00  C 
BRANCH 12 13
ATOM     13  CD  LYS B   2      -0.691 -16.088  20.465  1.00 30.34 LIG 0.03  C 
BRANCH 13 14
ATOM     14  CE  LYS B   2      -0.544 -15.610  19.034  1.00 26.25 LIG 0.23  C 
BRANCH 14 15
ATOM     15  NZ  LYS B   2       0.230 -14.325  18.983  1.00 28.72 LIG-0.08  N 
ATOM     16 HZ2  LYS B   2      -0.213 -13.693  19.427  1.00 28.72 LIG 0.27  HD
ATOM     17 HZ3  LYS B   2       1.029 -14.443  19.357  1.00 28.72 LIG 0.27  HD
ATOM     18 HZ1  LYS B   2       0.334 -14.074  18.136  1.00 28.72 LIG 0.27  HD
ENDBRANCH 14 15
ENDBRANCH 13 14
ENDBRANCH 12 13
ENDBRANCH 11 12
ENDBRANCH 10 11
BRANCH 10 19
ATOM     19  N   LYS B   2       0.905 -18.768  19.745  1.00 40.88 LIG-0.35  N 
ATOM     20  C   GLU B   1       1.797 -18.245  18.899  1.00 50.16 LIG 0.25  C 
ATOM     21 O    GLU B   1       2.838 -17.704  19.285  1.00 45.73 LIG-0.27  OA
ATOM     22 H    LYS B   2       0.134 -19.080  19.523  1.00 40.88 LIG 0.16  HD
BRANCH 20 23
ATOM     23  CA  GLU B   1       1.485 -18.306  17.403  1.00 56.89 LIG 0.28  C 
BRANCH 23 24
ATOM     24  CB  GLU B   1       2.327 -19.394  16.740  1.00 44.84 LIG 0.05  C 
BRANCH 24 25
ATOM     25  CG  GLU B   1       1.738 -20.790  16.865  1.00 43.84 LIG 0.12  C 
BRANCH 25 26
ATOM     26  CD  GLU B   1       0.550 -20.846  17.814  1.00 58.57 LIG 0.17  C 
ATOM     27 OE1  GLU B   1       0.668 -21.496  18.878  1.00 59.35 LIG-0.65  OA
ATOM     28 OE2  GLU B   1      -0.500 -20.244  17.495  1.00 59.65 LIG-0.65  OA
ENDBRANCH 25 26
ENDBRANCH 24 25
ENDBRANCH 23 24
BRANCH 23 29
ATOM     29  N   GLU B   1       1.666 -17.022  16.735  1.00 43.96 LIG-0.07  N 
ATOM     30 H1   GLU B   1       2.468 -16.999  16.349  1.00 43.96 LIG 0.28  HD
ATOM     31 H2   GLU B   1       1.036 -16.918  16.116  1.00 43.96 LIG 0.28  HD
ATOM     32 H3   GLU B   1       1.607 -16.366  17.333  1.00 43.96 LIG 0.28  HD
ENDBRANCH 23 29
ENDBRANCH 20 23
ENDBRANCH 10 19
ENDBRANCH 8 10
ENDBRANCH 5 6
BRANCH 5 33
ATOM     33  CB  VAL B   3       2.018 -23.555  21.765  1.00 34.43 LIG 0.01  C 
ATOM     34  CG2 VAL B   3       3.104 -23.003  20.874  1.00 33.75 LIG 0.01  C 
ATOM     35  CG1 VAL B   3       1.049 -24.418  20.942  1.00 37.65 LIG 0.01  C 
ENDBRANCH 5 33
ENDBRANCH 1 5
BRANCH 3 36
ATOM     36  CA  HIS B   4       2.743 -23.466  25.879  1.00 28.98 LIG 0.18  C 
BRANCH 36 37
ATOM     37  CB  HIS B   4       3.196 -24.878  26.296  1.00 26.24 LIG 0.10  C 
BRANCH 37 38
ATOM     38  CG  HIS B   4       2.109 -25.683  26.940  1.00 30.41 LIG 0.06  A 
ATOM     39 ND1  HIS B   4       0.796 -25.263  26.984  1.00 34.08 LIG-0.24  NA
ATOM     40  CE1 HIS B   4       0.065 -26.173  27.609  1.00 29.96 LIG 0.23  A 
ATOM     41 NE2  HIS B   4       0.854 -27.174  27.952  1.00 35.16 LIG-0.25  NA
ATOM     42  CD2 HIS B   4       2.138 -26.897  27.544  1.00 34.95 LIG 0.14  A 
ENDBRANCH 37 38
ENDBRANCH 36 37
BRANCH 36 43
ATOM     43  C   HIS B   4       3.724 -22.422  26.386  1.00 27.46 LIG 0.24  C 
ATOM     44 O    HIS B   4       4.633 -22.727  27.165  1.00 25.24 LIG-0.27  OA
ATOM     45  N   VAL B   5       3.489 -21.224  26.114  1.00 26.31 LIG-0.35  N 
ATOM     46 H    VAL B   5       2.868 -20.959  25.580  1.00 26.31 LIG 0.16  HD
BRANCH 45 47
ATOM     47  CA  VAL B   5       4.289 -20.146  26.710  1.00 25.23 LIG 0.18  C 
BRANCH 47 48
ATOM     48  CB  VAL B   5       5.529 -19.822  25.843  1.00 26.56 LIG 0.01  C 
ATOM     49  CG2 VAL B   5       6.269 -18.618  26.406  1.00 31.17 LIG 0.01  C 
ATOM     50  CG1 VAL B   5       5.150 -19.568  24.403  1.00 34.68 LIG 0.01  C 
ENDBRANCH 47 48
BRANCH 47 51
ATOM     51  C   VAL B   5       3.448 -18.901  26.948  1.00 27.03 LIG 0.24  C 
ATOM     52  N   GLN B   6       2.583 -18.577  25.993  1.00 26.89 LIG-0.34  N 
ATOM     53 H    GLN B   6       2.472 -19.010  25.259  1.00 26.89 LIG 0.16  HD
ATOM     54 O    VAL B   5       3.564 -18.242  27.991  1.00 28.01 LIG-0.27  OA
BRANCH 52 55
ATOM     55  CA  GLN B   6       1.731 -17.396  26.163  1.00 25.51 LIG 0.19  C 
BRANCH 55 56
ATOM     56  C   GLN B   6       0.268 -17.721  25.883  1.00 28.77 LIG 0.20  C 
ATOM     57 OXT  GLN B   6      -0.148 -17.951  24.730  1.00 27.06 LIG-0.65  OA
ATOM     58 O    GLN B   6      -0.547 -17.730  26.823  1.00 25.73 LIG-0.65  OA
ENDBRANCH 55 56
BRANCH 55 59
ATOM     59  CB  GLN B   6       2.163 -16.274  25.223  1.00 31.03 LIG 0.04  C 
BRANCH 59 60
ATOM     60  CG  GLN B   6       3.066 -16.708  24.095  1.00 39.52 LIG 0.10  C 
BRANCH 60 61
ATOM     61  CD  GLN B   6       4.497 -16.289  24.346  1.00 49.24 LIG 0.21  C 
ATOM     62  NE2 GLN B   6       5.331 -16.400  23.320  1.00 50.05 LIG-0.37  N 
ATOM     63 21HE GLN B   6       5.050 -16.713  22.570  1.00 50.05 LIG 0.16  HD
ATOM     64 22HE GLN B   6       6.152 -16.160  23.406  1.00 50.05 LIG 0.16  HD
ATOM     65 OE1  GLN B   6       4.846 -15.846  25.448  1.00 58.78 LIG-0.27  OA
ENDBRANCH 60 61
ENDBRANCH 59 60
ENDBRANCH 55 59
ENDBRANCH 52 55
ENDBRANCH 47 51
ENDBRANCH 45 47
ENDBRANCH 36 43
ENDBRANCH 3 36
TORSDOF 27
ENDMDL
MODEL 4
USER: ADFR SOLUTION from run 90
USER: SCORE 19.579606 LL:  -5.016 LR: -17.419 RR:   0.000 FEB:  -9.365
USER: RMSD 9.555324
USER: SEED 89
USER: STATUS no improvement in best in 6 clusters for 5 generations
USER: GENES 29
USER: genes 0 Translation |==|  0.28643 0.69212 0.48330
USER: genes 1 Rotation |==|  0.27044 0.90537 0.36809 0.62481
USER: genes 2 Torsion [N]-C--CA-[N] |==|  0.39078
USER: genes 3 Torsion [C]-CA--N-[C] |==|  0.76649
USER: genes 4 Torsion [N]-C--CA-[N] |==|  0.93714
USER: genes 5 Torsion [C]-CA--CB-[CG] |==|  0.27336
USER: genes 6 Torsion [CA]-CB--CG-[CD] |==|  0.46736
USER: genes 7 Torsion [CB]-CG--CD-[CE] |==|  0.48367
USER: genes 8 Torsion [CG]-CD--CE-[NZ] |==|  0.63802
USER: genes 9 Torsion [CD]-CE--NZ-[HZ1] |==|  0.01382
USER: genes 10 Torsion [C]-CA--N-[C] |==|  0.21734
USER: genes 11 Torsion [N]-C--CA-[N] |==|  0.08032
USER: genes 12 Torsion [C]-CA--CB-[CG] |==|  0.76722
USER: genes 13 Torsion [CA]-CB--CG-[CD] |==|  0.40125
USER: genes 14 Torsion [CB]-CG--CD-[OE1] |==|  0.81755
USER: genes 15 Torsion [C]-CA--N-[H1] |==|  0.34218
USER: genes 16 Torsion [C]-CA--CB-[CG2] |==|  0.26085
USER: genes 17 Torsion [C]-N--CA-[CB] |==|  0.76656
USER: genes 18 Torsion [N]-CA--CB-[CG] |==|  0.85632
USER: genes 19 Torsion [CA]-CB--CG-[ND1] |==|  0.09246
USER: genes 20 Torsion [N]-CA--C-[N] |==|  0.16197
USER: genes 21 Torsion [C]-N--CA-[CB] |==|  0.33278
USER: genes 22 Torsion [N]-CA--CB-[CG1] |==|  0.19295
USER: genes 23 Torsion [N]-CA--C-[N] |==|  0.12661
USER: genes 24 Torsion [C]-N--CA-[C] |==|  0.68280
USER: genes 25 Torsion [N]-CA--C-[OXT] |==|  0.09921
USER: genes 26 Torsion [N]-CA--CB-[CG] |==|  0.77087
USER: genes 27 Torsion [CA]-CB--CG-[CD] |==|  0.75322
USER: genes 28 Torsion [CB]-CG--CD-[OE1] |==|  0.25715
ROOT
ATOM      1  C   VAL B   3       0.563 -18.143  20.107  1.00 28.64 LIG 0.24  C 
ATOM      2 O    VAL B   3       1.630 -17.775  20.616  1.00 27.24 LIG-0.27  OA
ATOM      3  N   HIS B   4       0.003 -17.556  18.878  1.00 29.63 LIG-0.35  N 
ATOM      4 H    HIS B   4      -0.771 -17.722  18.541  1.00 29.63 LIG 0.16  HD
ENDROOT
BRANCH 1 5
ATOM      5  CA  VAL B   3      -0.281 -19.245  20.773  1.00 30.81 LIG 0.18  C 
BRANCH 5 6
ATOM      6  N   VAL B   3       0.597 -20.295  21.270  1.00 30.70 LIG-0.35  N 
ATOM      7 H    VAL B   3       0.804 -20.225  22.101  1.00 30.70 LIG 0.16  HD
ATOM      8  C   LYS B   2       1.025 -21.270  20.474  1.00 38.89 LIG 0.24  C 
ATOM      9 O    LYS B   2       0.656 -21.390  19.299  1.00 35.72 LIG-0.27  OA
BRANCH 8 10
ATOM     10  CA  LYS B   2       1.992 -22.265  21.101  1.00 39.86 LIG 0.18  C 
BRANCH 10 11
ATOM     11  CB  LYS B   2       1.266 -23.578  21.451  1.00 33.57 LIG 0.04  C 
BRANCH 11 12
ATOM     12  CG  LYS B   2       1.469 -24.672  20.382  1.00 34.54 LIG 0.00  C 
BRANCH 12 13
ATOM     13  CD  LYS B   2       1.006 -26.053  20.830  1.00 30.34 LIG 0.03  C 
BRANCH 13 14
ATOM     14  CE  LYS B   2       1.075 -27.096  19.733  1.00 26.25 LIG 0.23  C 
BRANCH 14 15
ATOM     15  NZ  LYS B   2      -0.222 -27.846  19.635  1.00 28.72 LIG-0.08  N 
ATOM     16 HZ2  LYS B   2      -0.532 -27.797  18.802  1.00 28.72 LIG 0.27  HD
ATOM     17 HZ3  LYS B   2      -0.090 -28.699  19.852  1.00 28.72 LIG 0.27  HD
ATOM     18 HZ1  LYS B   2      -0.815 -27.488  20.193  1.00 28.72 LIG 0.27  HD
ENDBRANCH 14 15
ENDBRANCH 13 14
ENDBRANCH 12 13
ENDBRANCH 11 12
ENDBRANCH 10 11
BRANCH 10 19
ATOM     19  N   LYS B   2       2.646 -21.638  22.255  1.00 40.88 LIG-0.35  N 
ATOM     20  C   GLU B   1       1.977 -21.543  23.409  1.00 50.16 LIG 0.25  C 
ATOM     21 O    GLU B   1       0.787 -21.856  23.512  1.00 45.73 LIG-0.27  OA
ATOM     22 H    LYS B   2       3.448 -21.358  22.122  1.00 40.88 LIG 0.16  HD
BRANCH 20 23
ATOM     23  CA  GLU B   1       2.728 -21.001  24.627  1.00 56.89 LIG 0.28  C 
BRANCH 23 24
ATOM     24  CB  GLU B   1       1.743 -20.359  25.601  1.00 44.84 LIG 0.05  C 
BRANCH 24 25
ATOM     25  CG  GLU B   1       1.393 -18.918  25.261  1.00 43.84 LIG 0.12  C 
BRANCH 25 26
ATOM     26  CD  GLU B   1      -0.054 -18.573  25.580  1.00 58.57 LIG 0.17  C 
ATOM     27 OE1  GLU B   1      -0.959 -19.144  24.930  1.00 59.35 LIG-0.65  OA
ATOM     28 OE2  GLU B   1      -0.285 -17.728  26.474  1.00 59.65 LIG-0.65  OA
ENDBRANCH 25 26
ENDBRANCH 24 25
ENDBRANCH 23 24
BRANCH 23 29
ATOM     29  N   GLU B   1       3.792 -20.072  24.267  1.00 43.96 LIG-0.07  N 
ATOM     30 H1   GLU B   1       3.659 -19.295  24.679  1.00 43.96 LIG 0.28  HD
ATOM     31 H2   GLU B   1       4.577 -20.409  24.515  1.00 43.96 LIG 0.28  HD
ATOM     32 H3   GLU B   1       3.790 -19.944  23.387  1.00 43.96 LIG 0.28  HD
ENDBRANCH 23 29
ENDBRANCH 20 23
ENDBRANCH 10 19
ENDBRANCH 8 10
ENDBRANCH 5 6
BRANCH 5 33
ATOM     33  CB  VAL B   3      -1.136 -18.657  21.904  1.00 34.43 LIG 0.01  C 
ATOM     34  CG2 VAL B   3      -2.507 -18.299  21.387  1.00 33.75 LIG 0.01  C 
ATOM     35  CG1 VAL B   3      -0.453 -17.413  22.492  1.00 37.65 LIG 0.01  C 
ENDBRANCH 5 33
ENDBRANCH 1 5
BRANCH 3 36
ATOM     36  CA  HIS B   4       0.836 -16.597  18.154  1.00 28.98 LIG 0.18  C 
BRANCH 36 37
ATOM     37  CB  HIS B   4       0.701 -15.181  18.745  1.00 26.24 LIG 0.10  C 
BRANCH 37 38
ATOM     38  CG  HIS B   4      -0.722 -14.729  18.878  1.00 30.41 LIG 0.06  A 
ATOM     39 ND1  HIS B   4      -1.756 -15.596  19.162  1.00 34.08 LIG-0.24  NA
ATOM     40  CE1 HIS B   4      -2.892 -14.918  19.220  1.00 29.96 LIG 0.23  A 
ATOM     41 NE2  HIS B   4      -2.626 -13.642  19.005  1.00 35.16 LIG-0.25  NA
ATOM     42  CD2 HIS B   4      -1.275 -13.494  18.791  1.00 34.95 LIG 0.14  A 
ENDBRANCH 37 38
ENDBRANCH 36 37
BRANCH 36 43
ATOM     43  C   HIS B   4       2.297 -17.013  18.102  1.00 27.46 LIG 0.24  C 
ATOM     44 O    HIS B   4       3.196 -16.227  18.420  1.00 25.24 LIG-0.27  OA
ATOM     45  N   VAL B   5       2.568 -18.119  17.583  1.00 26.31 LIG-0.35  N 
ATOM     46 H    VAL B   5       1.981 -18.700  17.343  1.00 26.31 LIG 0.16  HD
BRANCH 45 47
ATOM     47  CA  VAL B   5       3.962 -18.513  17.339  1.00 25.23 LIG 0.18  C 
BRANCH 47 48
ATOM     48  CB  VAL B   5       4.320 -19.808  18.107  1.00 26.56 LIG 0.01  C 
ATOM     49  CG2 VAL B   5       5.824 -20.037  18.086  1.00 31.17 LIG 0.01  C 
ATOM     50  CG1 VAL B   5       3.608 -21.011  17.535  1.00 34.68 LIG 0.01  C 
ENDBRANCH 47 48
BRANCH 47 51
ATOM     51  C   VAL B   5       4.239 -18.666  15.851  1.00 27.03 LIG 0.24  C 
ATOM     52  N   GLN B   6       3.785 -17.702  15.059  1.00 26.89 LIG-0.34  N 
ATOM     53 H    GLN B   6       3.345 -17.012  15.323  1.00 26.89 LIG 0.16  HD
ATOM     54 O    VAL B   5       4.873 -19.640  15.418  1.00 28.01 LIG-0.27  OA
BRANCH 52 55
ATOM     55  CA  GLN B   6       4.030 -17.779  13.616  1.00 25.51 LIG 0.19  C 
BRANCH 55 56
ATOM     56  C   GLN B   6       4.949 -16.657  13.146  1.00 28.77 LIG 0.20  C 
ATOM     57 OXT  GLN B   6       5.888 -16.235  13.851  1.00 27.06 LIG-0.65  OA
ATOM     58 O    GLN B   6       4.747 -16.123  12.042  1.00 25.73 LIG-0.65  OA
ENDBRANCH 55 56
BRANCH 55 59
ATOM     59  CB  GLN B   6       2.721 -17.685  12.837  1.00 31.03 LIG 0.04  C 
BRANCH 59 60
ATOM     60  CG  GLN B   6       1.962 -18.983  12.719  1.00 39.52 LIG 0.10  C 
BRANCH 60 61
ATOM     61  CD  GLN B   6       2.395 -19.764  11.498  1.00 49.24 LIG 0.21  C 
ATOM     62  NE2 GLN B   6       1.782 -19.463  10.360  1.00 50.05 LIG-0.37  N 
ATOM     63 21HE GLN B   6       1.164 -18.866  10.350  1.00 50.05 LIG 0.16  HD
ATOM     64 22HE GLN B   6       2.003 -19.866   9.633  1.00 50.05 LIG 0.16  HD
ATOM     65 OE1  GLN B   6       3.291 -20.614  11.571  1.00 58.78 LIG-0.27  OA
ENDBRANCH 60 61
ENDBRANCH 59 60
ENDBRANCH 55 59
ENDBRANCH 52 55
ENDBRANCH 47 51
ENDBRANCH 45 47
ENDBRANCH 36 43
ENDBRANCH 3 36
TORSDOF 27
ENDMDL
MODEL 5
USER: ADFR SOLUTION from run 42
USER: SCORE 19.851589 LL:  -5.636 LR: -17.294 RR:   0.000 FEB:  -9.240
USER: RMSD 8.247230
USER: SEED 41
USER: STATUS searching
USER: GENES 29
USER: genes 0 Translation |==|  0.36927 0.53353 0.50539
USER: genes 1 Rotation |==|  0.74696 0.53876 0.46543 0.93164
USER: genes 2 Torsion [N]-C--CA-[N] |==|  0.88184
USER: genes 3 Torsion [C]-CA--N-[C] |==|  0.84287
USER: genes 4 Torsion [N]-C--CA-[N] |==|  0.49539
USER: genes 5 Torsion [C]-CA--CB-[CG] |==|  0.59624
USER: genes 6 Torsion [CA]-CB--CG-[CD] |==|  0.69924
USER: genes 7 Torsion [CB]-CG--CD-[CE] |==|  0.21990
USER: genes 8 Torsion [CG]-CD--CE-[NZ] |==|  0.14749
USER: genes 9 Torsion [CD]-CE--NZ-[HZ1] |==|  0.61469
USER: genes 10 Torsion [C]-CA--N-[C] |==|  0.79744
USER: genes 11 Torsion [N]-C--CA-[N] |==|  0.54501
USER: genes 12 Torsion [C]-CA--CB-[CG] |==|  0.82047
USER: genes 13 Torsion [CA]-CB--CG-[CD] |==|  0.40015
USER: genes 14 Torsion [CB]-CG--CD-[OE1] |==|  0.63747
USER: genes 15 Torsion [C]-CA--N-[H1] |==|  0.57805
USER: genes 16 Torsion [C]-CA--CB-[CG2] |==|  0.16060
USER: genes 17 Torsion [C]-N--CA-[CB] |==|  0.13007
USER: genes 18 Torsion [N]-CA--CB-[CG] |==|  0.15350
USER: genes 19 Torsion [CA]-CB--CG-[ND1] |==|  0.13660
USER: genes 20 Torsion [N]-CA--C-[N] |==|  0.94846
USER: genes 21 Torsion [C]-N--CA-[CB] |==|  0.49444
USER: genes 22 Torsion [N]-CA--CB-[CG1] |==|  0.58229
USER: genes 23 Torsion [N]-CA--C-[N] |==|  0.96058
USER: genes 24 Torsion [C]-N--CA-[C] |==|  0.69659
USER: genes 25 Torsion [N]-CA--C-[OXT] |==|  0.87877
USER: genes 26 Torsion [N]-CA--CB-[CG] |==|  0.73443
USER: genes 27 Torsion [CA]-CB--CG-[CD] |==|  0.07586
USER: genes 28 Torsion [CB]-CG--CD-[OE1] |==|  0.71019
ROOT
ATOM      1  C   VAL B   3       2.054 -21.830  20.604  1.00 28.64 LIG 0.24  C 
ATOM      2 O    VAL B   3       1.038 -22.417  20.210  1.00 27.24 LIG-0.27  OA
ATOM      3  N   HIS B   4       2.298 -21.488  22.016  1.00 29.63 LIG-0.35  N 
ATOM      4 H    HIS B   4       2.946 -21.009  22.318  1.00 29.63 LIG 0.16  HD
ENDROOT
BRANCH 1 5
ATOM      5  CA  VAL B   3       3.134 -21.381  19.605  1.00 30.81 LIG 0.18  C 
BRANCH 5 6
ATOM      6  N   VAL B   3       3.563 -20.028  19.929  1.00 30.70 LIG-0.35  N 
ATOM      7 H    VAL B   3       4.407 -19.944  20.070  1.00 30.70 LIG 0.16  HD
ATOM      8  C   LYS B   2       2.692 -19.026  19.993  1.00 38.89 LIG 0.24  C 
ATOM      9 O    LYS B   2       1.494 -19.157  19.717  1.00 35.72 LIG-0.27  OA
BRANCH 8 10
ATOM     10  CA  LYS B   2       3.261 -17.675  20.410  1.00 39.86 LIG 0.18  C 
BRANCH 10 11
ATOM     11  CB  LYS B   2       3.971 -17.786  21.773  1.00 33.57 LIG 0.04  C 
BRANCH 11 12
ATOM     12  CG  LYS B   2       3.814 -16.512  22.629  1.00 34.54 LIG 0.00  C 
BRANCH 12 13
ATOM     13  CD  LYS B   2       5.097 -15.699  22.748  1.00 30.34 LIG 0.03  C 
BRANCH 13 14
ATOM     14  CE  LYS B   2       5.385 -14.845  21.529  1.00 26.25 LIG 0.23  C 
BRANCH 14 15
ATOM     15  NZ  LYS B   2       4.201 -13.984  21.196  1.00 28.72 LIG-0.08  N 
ATOM     16 HZ2  LYS B   2       3.473 -14.315  21.587  1.00 28.72 LIG 0.27  HD
ATOM     17 HZ3  LYS B   2       4.343 -13.156  21.489  1.00 28.72 LIG 0.27  HD
ATOM     18 HZ1  LYS B   2       4.082 -13.970  20.314  1.00 28.72 LIG 0.27  HD
ENDBRANCH 14 15
ENDBRANCH 13 14
ENDBRANCH 12 13
ENDBRANCH 11 12
ENDBRANCH 10 11
BRANCH 10 19
ATOM     19  N   LYS B   2       2.188 -16.676  20.393  1.00 40.88 LIG-0.35  N 
ATOM     20  C   GLU B   1       1.721 -16.241  19.219  1.00 50.16 LIG 0.25  C 
ATOM     21 O    GLU B   1       2.237 -16.560  18.143  1.00 45.73 LIG-0.27  OA
ATOM     22 H    LYS B   2       1.909 -16.416  21.165  1.00 40.88 LIG 0.16  HD
BRANCH 20 23
ATOM     23  CA  GLU B   1       0.519 -15.296  19.232  1.00 56.89 LIG 0.28  C 
BRANCH 23 24
ATOM     24  CB  GLU B   1      -0.474 -15.733  20.308  1.00 44.84 LIG 0.05  C 
BRANCH 24 25
ATOM     25  CG  GLU B   1      -1.101 -17.095  20.049  1.00 43.84 LIG 0.12  C 
BRANCH 25 26
ATOM     26  CD  GLU B   1      -1.333 -17.889  21.326  1.00 58.57 LIG 0.17  C 
ATOM     27 OE1  GLU B   1      -0.934 -19.075  21.369  1.00 59.35 LIG-0.65  OA
ATOM     28 OE2  GLU B   1      -1.916 -17.329  22.282  1.00 59.65 LIG-0.65  OA
ENDBRANCH 25 26
ENDBRANCH 24 25
ENDBRANCH 23 24
BRANCH 23 29
ATOM     29  N   GLU B   1      -0.130 -15.189  17.931  1.00 43.96 LIG-0.07  N 
ATOM     30 H1   GLU B   1      -0.518 -14.392  17.858  1.00 43.96 LIG 0.28  HD
ATOM     31 H2   GLU B   1       0.477 -15.283  17.288  1.00 43.96 LIG 0.28  HD
ATOM     32 H3   GLU B   1      -0.746 -15.826  17.853  1.00 43.96 LIG 0.28  HD
ENDBRANCH 23 29
ENDBRANCH 20 23
ENDBRANCH 10 19
ENDBRANCH 8 10
ENDBRANCH 5 6
BRANCH 5 33
ATOM     33  CB  VAL B   3       4.320 -22.356  19.622  1.00 34.43 LIG 0.01  C 
ATOM     34  CG2 VAL B   3       3.850 -23.752  19.294  1.00 33.75 LIG 0.01  C 
ATOM     35  CG1 VAL B   3       5.001 -22.338  20.999  1.00 37.65 LIG 0.01  C 
ENDBRANCH 5 33
ENDBRANCH 1 5
BRANCH 3 36
ATOM     36  CA  HIS B   4       1.354 -22.008  23.005  1.00 28.98 LIG 0.18  C 
BRANCH 36 37
ATOM     37  CB  HIS B   4       1.071 -23.504  22.773  1.00 26.24 LIG 0.10  C 
BRANCH 37 38
ATOM     38  CG  HIS B   4       2.311 -24.345  22.750  1.00 30.41 LIG 0.06  A 
ATOM     39 ND1  HIS B   4       3.284 -24.266  23.725  1.00 34.08 LIG-0.24  NA
ATOM     40  CE1 HIS B   4       4.254 -25.122  23.446  1.00 29.96 LIG 0.23  A 
ATOM     41 NE2  HIS B   4       3.935 -25.764  22.337  1.00 35.16 LIG-0.25  NA
ATOM     42  CD2 HIS B   4       2.723 -25.301  21.882  1.00 34.95 LIG 0.14  A 
ENDBRANCH 37 38
ENDBRANCH 36 37
BRANCH 36 43
ATOM     43  C   HIS B   4       1.813 -21.770  24.434  1.00 27.46 LIG 0.24  C 
ATOM     44 O    HIS B   4       0.998 -21.680  25.358  1.00 25.24 LIG-0.27  OA
ATOM     45  N   VAL B   5       3.024 -21.514  24.621  1.00 26.31 LIG-0.35  N 
ATOM     46 H    VAL B   5       3.630 -21.561  24.012  1.00 26.31 LIG 0.16  HD
BRANCH 45 47
ATOM     47  CA  VAL B   5       3.510 -21.103  25.944  1.00 25.23 LIG 0.18  C 
BRANCH 47 48
ATOM     48  CB  VAL B   5       5.043 -20.892  25.938  1.00 26.56 LIG 0.01  C 
ATOM     49  CG2 VAL B   5       5.694 -21.771  24.880  1.00 31.17 LIG 0.01  C 
ATOM     50  CG1 VAL B   5       5.650 -21.180  27.291  1.00 34.68 LIG 0.01  C 
ENDBRANCH 47 48
BRANCH 47 51
ATOM     51  C   VAL B   5       2.789 -19.856  26.433  1.00 27.03 LIG 0.24  C 
ATOM     52  N   GLN B   6       2.089 -19.181  25.529  1.00 26.89 LIG-0.34  N 
ATOM     53 H    GLN B   6       2.021 -19.391  24.698  1.00 26.89 LIG 0.16  HD
ATOM     54 O    VAL B   5       2.850 -19.510  27.622  1.00 28.01 LIG-0.27  OA
BRANCH 52 55
ATOM     55  CA  GLN B   6       1.358 -17.977  25.936  1.00 25.51 LIG 0.19  C 
BRANCH 55 56
ATOM     56  C   GLN B   6      -0.148 -18.210  25.928  1.00 28.77 LIG 0.20  C 
ATOM     57 OXT  GLN B   6      -0.717 -18.816  24.998  1.00 27.06 LIG-0.65  OA
ATOM     58 O    GLN B   6      -0.842 -17.762  26.858  1.00 25.73 LIG-0.65  OA
ENDBRANCH 55 56
BRANCH 55 59
ATOM     59  CB  GLN B   6       1.668 -16.811  25.000  1.00 31.03 LIG 0.04  C 
BRANCH 59 60
ATOM     60  CG  GLN B   6       2.758 -15.886  25.483  1.00 39.52 LIG 0.10  C 
BRANCH 60 61
ATOM     61  CD  GLN B   6       3.733 -16.611  26.385  1.00 49.24 LIG 0.21  C 
ATOM     62  NE2 GLN B   6       4.616 -17.397  25.784  1.00 50.05 LIG-0.37  N 
ATOM     63 21HE GLN B   6       4.601 -17.486  24.929  1.00 50.05 LIG 0.16  HD
ATOM     64 22HE GLN B   6       5.203 -17.818  26.250  1.00 50.05 LIG 0.16  HD
ATOM     65 OE1  GLN B   6       3.708 -16.446  27.611  1.00 58.78 LIG-0.27  OA
ENDBRANCH 60 61
ENDBRANCH 59 60
ENDBRANCH 55 59
ENDBRANCH 52 55
ENDBRANCH 47 51
ENDBRANCH 45 47
ENDBRANCH 36 43
ENDBRANCH 3 36
TORSDOF 27
ENDMDL
MODEL 6
USER: ADFR SOLUTION from run 18
USER: SCORE 21.856457 LL:  -5.049 LR: -17.223 RR:   0.000 FEB:  -9.169
USER: RMSD 8.488167
USER: SEED 17
USER: STATUS 1 or 2 clusters left
USER: GENES 29
USER: genes 0 Translation |==|  0.35128 0.60959 0.44631
USER: genes 1 Rotation |==|  0.44537 0.38171 0.97710 0.57346
USER: genes 2 Torsion [N]-C--CA-[N] |==|  0.37875
USER: genes 3 Torsion [C]-CA--N-[C] |==|  0.82993
USER: genes 4 Torsion [N]-C--CA-[N] |==|  0.89592
USER: genes 5 Torsion [C]-CA--CB-[CG] |==|  0.95852
USER: genes 6 Torsion [CA]-CB--CG-[CD] |==|  0.64955
USER: genes 7 Torsion [CB]-CG--CD-[CE] |==|  0.05966
USER: genes 8 Torsion [CG]-CD--CE-[NZ] |==|  0.27107
USER: genes 9 Torsion [CD]-CE--NZ-[HZ1] |==|  0.01043
USER: genes 10 Torsion [C]-CA--N-[C] |==|  0.83878
USER: genes 11 Torsion [N]-C--CA-[N] |==|  0.96365
USER: genes 12 Torsion [C]-CA--CB-[CG] |==|  0.04382
USER: genes 13 Torsion [CA]-CB--CG-[CD] |==|  0.51299
USER: genes 14 Torsion [CB]-CG--CD-[OE1] |==|  0.38954
USER: genes 15 Torsion [C]-CA--N-[H1] |==|  0.99308
USER: genes 16 Torsion [C]-CA--CB-[CG2] |==|  0.44608
USER: genes 17 Torsion [C]-N--CA-[CB] |==|  0.78845
USER: genes 18 Torsion [N]-CA--CB-[CG] |==|  0.67618
USER: genes 19 Torsion [CA]-CB--CG-[ND1] |==|  0.91398
USER: genes 20 Torsion [N]-CA--C-[N] |==|  0.23857
USER: genes 21 Torsion [C]-N--CA-[CB] |==|  0.83782
USER: genes 22 Torsion [N]-CA--CB-[CG1] |==|  0.31251
USER: genes 23 Torsion [N]-CA--C-[N] |==|  0.41111
USER: genes 24 Torsion [C]-N--CA-[C] |==|  0.18230
USER: genes 25 Torsion [N]-CA--C-[OXT] |==|  0.52123
USER: genes 26 Torsion [N]-CA--CB-[CG] |==|  0.86193
USER: genes 27 Torsion [CA]-CB--CG-[CD] |==|  0.63875
USER: genes 28 Torsion [CB]-CG--CD-[OE1] |==|  0.18517
ROOT
ATOM      1  C   VAL B   3       1.730 -20.062  19.275  1.00 28.64 LIG 0.24  C 
ATOM      2 O    VAL B   3       2.681 -19.761  20.008  1.00 27.24 LIG-0.27  OA
ATOM      3  N   HIS B   4       1.346 -21.451  18.970  1.00 29.63 LIG-0.35  N 
ATOM      4 H    HIS B   4       0.750 -21.701  18.403  1.00 29.63 LIG 0.16  HD
ENDROOT
BRANCH 1 5
ATOM      5  CA  VAL B   3       0.893 -18.966  18.592  1.00 30.81 LIG 0.18  C 
BRANCH 5 6
ATOM      6  N   VAL B   3       0.583 -17.920  19.556  1.00 30.70 LIG-0.35  N 
ATOM      7 H    VAL B   3       0.892 -17.144  19.354  1.00 30.70 LIG 0.16  HD
ATOM      8  C   LYS B   2      -0.124 -18.179  20.651  1.00 38.89 LIG 0.24  C 
ATOM      9 O    LYS B   2      -0.619 -19.288  20.886  1.00 35.72 LIG-0.27  OA
BRANCH 8 10
ATOM     10  CA  LYS B   2      -0.317 -17.012  21.611  1.00 39.86 LIG 0.18  C 
BRANCH 10 11
ATOM     11  CB  LYS B   2      -1.566 -16.196  21.223  1.00 33.57 LIG 0.04  C 
BRANCH 11 12
ATOM     12  CG  LYS B   2      -2.072 -16.522  19.803  1.00 34.54 LIG 0.00  C 
BRANCH 12 13
ATOM     13  CD  LYS B   2      -2.221 -15.294  18.914  1.00 30.34 LIG 0.03  C 
BRANCH 13 14
ATOM     14  CE  LYS B   2      -1.392 -14.112  19.375  1.00 26.25 LIG 0.23  C 
BRANCH 14 15
ATOM     15  NZ  LYS B   2      -0.104 -14.039  18.608  1.00 28.72 LIG-0.08  N 
ATOM     16 HZ2  LYS B   2      -0.035 -13.241  18.219  1.00 28.72 LIG 0.27  HD
ATOM     17 HZ3  LYS B   2       0.581 -14.157  19.165  1.00 28.72 LIG 0.27  HD
ATOM     18 HZ1  LYS B   2      -0.093 -14.674  17.986  1.00 28.72 LIG 0.27  HD
ENDBRANCH 14 15
ENDBRANCH 13 14
ENDBRANCH 12 13
ENDBRANCH 11 12
ENDBRANCH 10 11
BRANCH 10 19
ATOM     19  N   LYS B   2       0.911 -16.211  21.648  1.00 40.88 LIG-0.35  N 
ATOM     20  C   GLU B   1       2.058 -16.796  22.003  1.00 50.16 LIG 0.25  C 
ATOM     21 O    GLU B   1       2.109 -17.958  22.417  1.00 45.73 LIG-0.27  OA
ATOM     22 H    LYS B   2       0.822 -15.383  21.432  1.00 40.88 LIG 0.16  HD
BRANCH 20 23
ATOM     23  CA  GLU B   1       3.341 -15.968  21.910  1.00 56.89 LIG 0.28  C 
BRANCH 23 24
ATOM     24  CB  GLU B   1       3.878 -15.681  23.311  1.00 44.84 LIG 0.05  C 
BRANCH 24 25
ATOM     25  CG  GLU B   1       3.275 -16.563  24.393  1.00 43.84 LIG 0.12  C 
BRANCH 25 26
ATOM     26  CD  GLU B   1       3.740 -16.182  25.791  1.00 58.57 LIG 0.17  C 
ATOM     27 OE1  GLU B   1       2.905 -16.210  26.724  1.00 59.35 LIG-0.65  OA
ATOM     28 OE2  GLU B   1       4.936 -15.851  25.955  1.00 59.65 LIG-0.65  OA
ENDBRANCH 25 26
ENDBRANCH 24 25
ENDBRANCH 23 24
BRANCH 23 29
ATOM     29  N   GLU B   1       3.164 -14.735  21.153  1.00 43.96 LIG-0.07  N 
ATOM     30 H1   GLU B   1       2.331 -14.696  20.841  1.00 43.96 LIG 0.28  HD
ATOM     31 H2   GLU B   1       3.315 -14.036  21.684  1.00 43.96 LIG 0.28  HD
ATOM     32 H3   GLU B   1       3.736 -14.719  20.472  1.00 43.96 LIG 0.28  HD
ENDBRANCH 23 29
ENDBRANCH 20 23
ENDBRANCH 10 19
ENDBRANCH 8 10
ENDBRANCH 5 6
BRANCH 5 33
ATOM     33  CB  VAL B   3       1.641 -18.397  17.378  1.00 34.43 LIG 0.01  C 
ATOM     34  CG2 VAL B   3       0.675 -17.699  16.453  1.00 33.75 LIG 0.01  C 
ATOM     35  CG1 VAL B   3       2.369 -19.523  16.629  1.00 37.65 LIG 0.01  C 
ENDBRANCH 5 33
ENDBRANCH 1 5
BRANCH 3 36
ATOM     36  CA  HIS B   4       2.040 -22.513  19.699  1.00 28.98 LIG 0.18  C 
BRANCH 36 37
ATOM     37  CB  HIS B   4       3.461 -22.732  19.147  1.00 26.24 LIG 0.10  C 
BRANCH 37 38
ATOM     38  CG  HIS B   4       3.663 -24.093  18.555  1.00 30.41 LIG 0.06  A 
ATOM     39 ND1  HIS B   4       2.996 -25.211  19.011  1.00 34.08 LIG-0.24  NA
ATOM     40  CE1 HIS B   4       3.371 -26.264  18.301  1.00 29.96 LIG 0.23  A 
ATOM     41 NE2  HIS B   4       4.239 -25.863  17.390  1.00 35.16 LIG-0.25  NA
ATOM     42  CD2 HIS B   4       4.438 -24.509  17.523  1.00 34.95 LIG 0.14  A 
ENDBRANCH 37 38
ENDBRANCH 36 37
BRANCH 36 43
ATOM     43  C   HIS B   4       2.084 -22.262  21.197  1.00 27.46 LIG 0.24  C 
ATOM     44 O    HIS B   4       3.109 -21.840  21.743  1.00 25.24 LIG-0.27  OA
ATOM     45  N   VAL B   5       1.106 -22.641  21.879  1.00 26.31 LIG-0.35  N 
ATOM     46 H    VAL B   5       0.371 -22.944  21.548  1.00 26.31 LIG 0.16  HD
BRANCH 45 47
ATOM     47  CA  VAL B   5       1.147 -22.593  23.346  1.00 25.23 LIG 0.18  C 
BRANCH 47 48
ATOM     48  CB  VAL B   5       2.323 -23.433  23.902  1.00 26.56 LIG 0.01  C 
ATOM     49  CG2 VAL B   5       1.814 -24.458  24.904  1.00 31.17 LIG 0.01  C 
ATOM     50  CG1 VAL B   5       3.374 -22.560  24.546  1.00 34.68 LIG 0.01  C 
ENDBRANCH 47 48
BRANCH 47 51
ATOM     51  C   VAL B   5       1.215 -21.158  23.849  1.00 27.03 LIG 0.24  C 
ATOM     52  N   GLN B   6       0.626 -20.908  25.012  1.00 26.89 LIG-0.34  N 
ATOM     53 H    GLN B   6       0.210 -21.489  25.491  1.00 26.89 LIG 0.16  HD
ATOM     54 O    VAL B   5       1.807 -20.283  23.201  1.00 28.01 LIG-0.27  OA
BRANCH 52 55
ATOM     55  CA  GLN B   6       0.665 -19.550  25.563  1.00 25.51 LIG 0.19  C 
BRANCH 55 56
ATOM     56  C   GLN B   6      -0.113 -18.572  24.690  1.00 28.77 LIG 0.20  C 
ATOM     57 OXT  GLN B   6      -0.093 -17.342  24.897  1.00 27.06 LIG-0.65  OA
ATOM     58 O    GLN B   6      -0.814 -19.007  23.759  1.00 25.73 LIG-0.65  OA
ENDBRANCH 55 56
BRANCH 55 59
ATOM     59  CB  GLN B   6       2.103 -19.051  25.678  1.00 31.03 LIG 0.04  C 
BRANCH 59 60
ATOM     60  CG  GLN B   6       3.050 -20.006  26.361  1.00 39.52 LIG 0.10  C 
BRANCH 60 61
ATOM     61  CD  GLN B   6       3.840 -19.312  27.448  1.00 49.24 LIG 0.21  C 
ATOM     62  NE2 GLN B   6       5.142 -19.172  27.231  1.00 50.05 LIG-0.37  N 
ATOM     63 21HE GLN B   6       5.493 -19.484  26.511  1.00 50.05 LIG 0.16  HD
ATOM     64 22HE GLN B   6       5.633 -18.769  27.810  1.00 50.05 LIG 0.16  HD
ATOM     65 OE1  GLN B   6       3.282 -18.884  28.466  1.00 58.78 LIG-0.27  OA
ENDBRANCH 60 61
ENDBRANCH 59 60
ENDBRANCH 55 59
ENDBRANCH 52 55
ENDBRANCH 47 51
ENDBRANCH 45 47
ENDBRANCH 36 43
ENDBRANCH 3 36
TORSDOF 27
ENDMDL
MODEL 7
USER: ADFR SOLUTION from run 16
USER: SCORE 20.812936 LL:  -6.718 LR: -17.094 RR:   0.000 FEB:  -9.040
USER: RMSD 7.539692
USER: SEED 657539
USER: STATUS no improvement in best in 3 clusters for 5 generations
USER: GENES 29
USER: genes 0 Translation |==|  0.32543 0.64137 0.41813
USER: genes 1 Rotation |==|  0.83359 0.81218 0.30121 0.54174
USER: genes 2 Torsion [N]-C--CA-[N] |==|  0.99422
USER: genes 3 Torsion [C]-CA--N-[C] |==|  0.81661
USER: genes 4 Torsion [N]-C--CA-[N] |==|  0.93804
USER: genes 5 Torsion [C]-CA--CB-[CG] |==|  0.18090
USER: genes 6 Torsion [CA]-CB--CG-[CD] |==|  0.68150
USER: genes 7 Torsion [CB]-CG--CD-[CE] |==|  0.25305
USER: genes 8 Torsion [CG]-CD--CE-[NZ] |==|  0.56090
USER: genes 9 Torsion [CD]-CE--NZ-[HZ1] |==|  0.56331
USER: genes 10 Torsion [C]-CA--N-[C] |==|  0.80052
USER: genes 11 Torsion [N]-C--CA-[N] |==|  0.00141
USER: genes 12 Torsion [C]-CA--CB-[CG] |==|  0.86716
USER: genes 13 Torsion [CA]-CB--CG-[CD] |==|  0.88334
USER: genes 14 Torsion [CB]-CG--CD-[OE1] |==|  0.84235
USER: genes 15 Torsion [C]-CA--N-[H1] |==|  0.37135
USER: genes 16 Torsion [C]-CA--CB-[CG2] |==|  0.85730
USER: genes 17 Torsion [C]-N--CA-[CB] |==|  0.54747
USER: genes 18 Torsion [N]-CA--CB-[CG] |==|  0.76909
USER: genes 19 Torsion [CA]-CB--CG-[ND1] |==|  0.00048
USER: genes 20 Torsion [N]-CA--C-[N] |==|  0.82569
USER: genes 21 Torsion [C]-N--CA-[CB] |==|  0.42179
USER: genes 22 Torsion [N]-CA--CB-[CG1] |==|  0.74331
USER: genes 23 Torsion [N]-CA--C-[N] |==|  0.73503
USER: genes 24 Torsion [C]-N--CA-[C] |==|  0.19465
USER: genes 25 Torsion [N]-CA--C-[OXT] |==|  0.53307
USER: genes 26 Torsion [N]-CA--CB-[CG] |==|  0.72542
USER: genes 27 Torsion [CA]-CB--CG-[CD] |==|  0.53382
USER: genes 28 Torsion [CB]-CG--CD-[OE1] |==|  0.02537
ROOT
ATOM      1  C   VAL B   3       1.265 -19.323  18.641  1.00 28.64 LIG 0.24  C 
ATOM      2 O    VAL B   3       0.503 -19.982  19.361  1.00 27.24 LIG-0.27  OA
ATOM      3  N   HIS B   4       2.356 -19.920  17.852  1.00 29.63 LIG-0.35  N 
ATOM      4 H    HIS B   4       2.957 -19.491  17.409  1.00 29.63 LIG 0.16  HD
ENDROOT
BRANCH 1 5
ATOM      5  CA  VAL B   3       1.131 -17.792  18.557  1.00 30.81 LIG 0.18  C 
BRANCH 5 6
ATOM      6  N   VAL B   3       2.192 -17.258  17.715  1.00 30.70 LIG-0.35  N 
ATOM      7 H    VAL B   3       1.921 -16.901  16.981  1.00 30.70 LIG 0.16  HD
ATOM      8  C   LYS B   2       3.467 -17.333  18.083  1.00 38.89 LIG 0.24  C 
ATOM      9 O    LYS B   2       3.827 -17.788  19.175  1.00 35.72 LIG-0.27  OA
BRANCH 8 10
ATOM     10  CA  LYS B   2       4.481 -16.798  17.080  1.00 39.86 LIG 0.18  C 
BRANCH 10 11
ATOM     11  CB  LYS B   2       4.988 -15.408  17.513  1.00 33.57 LIG 0.04  C 
BRANCH 11 12
ATOM     12  CG  LYS B   2       5.786 -15.451  18.832  1.00 34.54 LIG 0.00  C 
BRANCH 12 13
ATOM     13  CD  LYS B   2       5.110 -14.705  19.975  1.00 30.34 LIG 0.03  C 
BRANCH 13 14
ATOM     14  CE  LYS B   2       4.195 -15.580  20.809  1.00 26.25 LIG 0.23  C 
BRANCH 14 15
ATOM     15  NZ  LYS B   2       3.185 -14.744  21.539  1.00 28.72 LIG-0.08  N 
ATOM     16 HZ2  LYS B   2       3.565 -13.984  21.806  1.00 28.72 LIG 0.27  HD
ATOM     17 HZ3  LYS B   2       2.504 -14.559  20.997  1.00 28.72 LIG 0.27  HD
ATOM     18 HZ1  LYS B   2       2.886 -15.191  22.248  1.00 28.72 LIG 0.27  HD
ENDBRANCH 14 15
ENDBRANCH 13 14
ENDBRANCH 12 13
ENDBRANCH 11 12
ENDBRANCH 10 11
BRANCH 10 19
ATOM     19  N   LYS B   2       3.884 -16.807  15.740  1.00 40.88 LIG-0.35  N 
ATOM     20  C   GLU B   1       3.692 -17.976  15.121  1.00 50.16 LIG 0.25  C 
ATOM     21 O    GLU B   1       4.105 -19.044  15.582  1.00 45.73 LIG-0.27  OA
ATOM     22 H    LYS B   2       3.684 -16.035  15.417  1.00 40.88 LIG 0.16  HD
BRANCH 20 23
ATOM     23  CA  GLU B   1       2.953 -17.962  13.782  1.00 56.89 LIG 0.28  C 
BRANCH 23 24
ATOM     24  CB  GLU B   1       3.801 -18.648  12.713  1.00 44.84 LIG 0.05  C 
BRANCH 24 25
ATOM     25  CG  GLU B   1       5.248 -18.180  12.683  1.00 43.84 LIG 0.12  C 
BRANCH 25 26
ATOM     26  CD  GLU B   1       5.385 -16.674  12.846  1.00 58.57 LIG 0.17  C 
ATOM     27 OE1  GLU B   1       4.785 -15.931  12.037  1.00 59.35 LIG-0.65  OA
ATOM     28 OE2  GLU B   1       6.094 -16.235  13.779  1.00 59.65 LIG-0.65  OA
ENDBRANCH 25 26
ENDBRANCH 24 25
ENDBRANCH 23 24
BRANCH 23 29
ATOM     29  N   GLU B   1       2.566 -16.621  13.365  1.00 43.96 LIG-0.07  N 
ATOM     30 H1   GLU B   1       2.776 -16.504  12.508  1.00 43.96 LIG 0.28  HD
ATOM     31 H2   GLU B   1       1.688 -16.518  13.471  1.00 43.96 LIG 0.28  HD
ATOM     32 H3   GLU B   1       2.996 -16.020  13.859  1.00 43.96 LIG 0.28  HD
ENDBRANCH 23 29
ENDBRANCH 20 23
ENDBRANCH 10 19
ENDBRANCH 8 10
ENDBRANCH 5 6
BRANCH 5 33
ATOM     33  CB  VAL B   3      -0.253 -17.403  18.017  1.00 34.43 LIG 0.01  C 
ATOM     34  CG2 VAL B   3      -0.540 -18.149  16.737  1.00 33.75 LIG 0.01  C 
ATOM     35  CG1 VAL B   3      -0.318 -15.888  17.771  1.00 37.65 LIG 0.01  C 
ENDBRANCH 5 33
ENDBRANCH 1 5
BRANCH 3 36
ATOM     36  CA  HIS B   4       2.433 -21.380  17.811  1.00 28.98 LIG 0.18  C 
BRANCH 36 37
ATOM     37  CB  HIS B   4       3.817 -21.853  17.329  1.00 26.24 LIG 0.10  C 
BRANCH 37 38
ATOM     38  CG  HIS B   4       3.952 -21.865  15.837  1.00 30.41 LIG 0.06  A 
ATOM     39 ND1  HIS B   4       2.930 -21.485  14.993  1.00 34.08 LIG-0.24  NA
ATOM     40  CE1 HIS B   4       3.335 -21.595  13.737  1.00 29.96 LIG 0.23  A 
ATOM     41 NE2  HIS B   4       4.588 -22.015  13.741  1.00 35.16 LIG-0.25  NA
ATOM     42  CD2 HIS B   4       5.001 -22.188  15.041  1.00 34.95 LIG 0.14  A 
ENDBRANCH 37 38
ENDBRANCH 36 37
BRANCH 36 43
ATOM     43  C   HIS B   4       2.087 -22.021  19.144  1.00 27.46 LIG 0.24  C 
ATOM     44 O    HIS B   4       1.033 -22.648  19.296  1.00 25.24 LIG-0.27  OA
ATOM     45  N   VAL B   5       2.825 -21.765  20.122  1.00 26.31 LIG-0.35  N 
ATOM     46 H    VAL B   5       3.567 -21.332  20.070  1.00 26.31 LIG 0.16  HD
BRANCH 45 47
ATOM     47  CA  VAL B   5       2.461 -22.204  21.475  1.00 25.23 LIG 0.18  C 
BRANCH 47 48
ATOM     48  CB  VAL B   5       3.717 -22.426  22.350  1.00 26.56 LIG 0.01  C 
ATOM     49  CG2 VAL B   5       4.837 -21.492  21.916  1.00 31.17 LIG 0.01  C 
ATOM     50  CG1 VAL B   5       4.190 -23.859  22.292  1.00 34.68 LIG 0.01  C 
ENDBRANCH 47 48
BRANCH 47 51
ATOM     51  C   VAL B   5       1.502 -21.222  22.134  1.00 27.03 LIG 0.24  C 
ATOM     52  N   GLN B   6       2.043 -20.303  22.924  1.00 26.89 LIG-0.34  N 
ATOM     53 H    GLN B   6       2.883 -20.229  23.093  1.00 26.89 LIG 0.16  HD
ATOM     54 O    VAL B   5       0.282 -21.282  21.920  1.00 28.01 LIG-0.27  OA
BRANCH 52 55
ATOM     55  CA  GLN B   6       1.179 -19.317  23.580  1.00 25.51 LIG 0.19  C 
BRANCH 55 56
ATOM     56  C   GLN B   6       0.324 -19.960  24.666  1.00 28.77 LIG 0.20  C 
ATOM     57 OXT  GLN B   6      -0.631 -19.358  25.197  1.00 27.06 LIG-0.65  OA
ATOM     58 O    GLN B   6       0.597 -21.108  25.060  1.00 25.73 LIG-0.65  OA
ENDBRANCH 55 56
BRANCH 55 59
ATOM     59  CB  GLN B   6       0.250 -18.651  22.569  1.00 31.03 LIG 0.04  C 
BRANCH 59 60
ATOM     60  CG  GLN B   6       0.709 -17.299  22.084  1.00 39.52 LIG 0.10  C 
BRANCH 60 61
ATOM     61  CD  GLN B   6      -0.389 -16.584  21.329  1.00 49.24 LIG 0.21  C 
ATOM     62  NE2 GLN B   6      -0.034 -15.484  20.675  1.00 50.05 LIG-0.37  N 
ATOM     63 21HE GLN B   6       0.779 -15.207  20.711  1.00 50.05 LIG 0.16  HD
ATOM     64 22HE GLN B   6      -0.617 -15.050  20.217  1.00 50.05 LIG 0.16  HD
ATOM     65 OE1  GLN B   6      -1.543 -17.028  21.313  1.00 58.78 LIG-0.27  OA
ENDBRANCH 60 61
ENDBRANCH 59 60
ENDBRANCH 55 59
ENDBRANCH 52 55
ENDBRANCH 47 51
ENDBRANCH 45 47
ENDBRANCH 36 43
ENDBRANCH 3 36
TORSDOF 27
ENDMDL
MODEL 8
USER: ADFR SOLUTION from run 109
USER: SCORE 19.402213 LL:  -5.866 LR: -17.077 RR:   0.000 FEB:  -9.022
USER: RMSD 10.994976
USER: SEED 108
USER: STATUS no improvement in best in 14 clusters for 5 generations
USER: GENES 29
USER: genes 0 Translation |==|  0.34317 0.62591 0.41415
USER: genes 1 Rotation |==|  0.47472 0.63561 0.01944 0.50567
USER: genes 2 Torsion [N]-C--CA-[N] |==|  0.40078
USER: genes 3 Torsion [C]-CA--N-[C] |==|  0.82000
USER: genes 4 Torsion [N]-C--CA-[N] |==|  0.70257
USER: genes 5 Torsion [C]-CA--CB-[CG] |==|  0.18587
USER: genes 6 Torsion [CA]-CB--CG-[CD] |==|  0.57035
USER: genes 7 Torsion [CB]-CG--CD-[CE] |==|  0.91717
USER: genes 8 Torsion [CG]-CD--CE-[NZ] |==|  0.23810
USER: genes 9 Torsion [CD]-CE--NZ-[HZ1] |==|  0.39920
USER: genes 10 Torsion [C]-CA--N-[C] |==|  0.21527
USER: genes 11 Torsion [N]-C--CA-[N] |==|  0.69307
USER: genes 12 Torsion [C]-CA--CB-[CG] |==|  0.76147
USER: genes 13 Torsion [CA]-CB--CG-[CD] |==|  0.33332
USER: genes 14 Torsion [CB]-CG--CD-[OE1] |==|  0.47574
USER: genes 15 Torsion [C]-CA--N-[H1] |==|  0.89243
USER: genes 16 Torsion [C]-CA--CB-[CG2] |==|  0.94064
USER: genes 17 Torsion [C]-N--CA-[CB] |==|  0.38541
USER: genes 18 Torsion [N]-CA--CB-[CG] |==|  0.78679
USER: genes 19 Torsion [CA]-CB--CG-[ND1] |==|  0.09834
USER: genes 20 Torsion [N]-CA--C-[N] |==|  0.98585
USER: genes 21 Torsion [C]-N--CA-[CB] |==|  0.19168
USER: genes 22 Torsion [N]-CA--CB-[CG1] |==|  0.12084
USER: genes 23 Torsion [N]-CA--C-[N] |==|  0.24962
USER: genes 24 Torsion [C]-N--CA-[C] |==|  0.54713
USER: genes 25 Torsion [N]-CA--C-[OXT] |==|  0.46858
USER: genes 26 Torsion [N]-CA--CB-[CG] |==|  0.72843
USER: genes 27 Torsion [CA]-CB--CG-[CD] |==|  0.87486
USER: genes 28 Torsion [CB]-CG--CD-[OE1] |==|  0.38633
ROOT
ATOM      1  C   VAL B   3       1.584 -19.683  18.551  1.00 28.64 LIG 0.24  C 
ATOM      2 O    VAL B   3       2.498 -19.061  19.108  1.00 27.24 LIG-0.27  OA
ATOM      3  N   HIS B   4       1.681 -21.103  18.171  1.00 29.63 LIG-0.35  N 
ATOM      4 H    HIS B   4       1.106 -21.546  17.709  1.00 29.63 LIG 0.16  HD
ENDROOT
BRANCH 1 5
ATOM      5  CA  VAL B   3       0.269 -18.974  18.183  1.00 30.81 LIG 0.18  C 
BRANCH 5 6
ATOM      6  N   VAL B   3      -0.076 -18.017  19.224  1.00 30.70 LIG-0.35  N 
ATOM      7 H    VAL B   3      -0.069 -17.195  18.971  1.00 30.70 LIG 0.16  HD
ATOM      8  C   LYS B   2      -0.371 -18.416  20.457  1.00 38.89 LIG 0.24  C 
ATOM      9 O    LYS B   2      -0.443 -19.608  20.779  1.00 35.72 LIG-0.27  OA
BRANCH 8 10
ATOM     10  CA  LYS B   2      -0.645 -17.309  21.467  1.00 39.86 LIG 0.18  C 
BRANCH 10 11
ATOM     11  CB  LYS B   2      -0.960 -15.984  20.745  1.00 33.57 LIG 0.04  C 
BRANCH 11 12
ATOM     12  CG  LYS B   2      -2.290 -16.035  19.965  1.00 34.54 LIG 0.00  C 
BRANCH 12 13
ATOM     13  CD  LYS B   2      -2.348 -15.056  18.799  1.00 30.34 LIG 0.03  C 
BRANCH 13 14
ATOM     14  CE  LYS B   2      -1.521 -13.806  19.020  1.00 26.25 LIG 0.23  C 
BRANCH 14 15
ATOM     15  NZ  LYS B   2      -0.096 -14.036  18.608  1.00 28.72 LIG-0.08  N 
ATOM     16 HZ2  LYS B   2       0.389 -14.252  19.322  1.00 28.72 LIG 0.27  HD
ATOM     17 HZ3  LYS B   2      -0.061 -14.698  18.015  1.00 28.72 LIG 0.27  HD
ATOM     18 HZ1  LYS B   2       0.231 -13.293  18.242  1.00 28.72 LIG 0.27  HD
ENDBRANCH 14 15
ENDBRANCH 13 14
ENDBRANCH 12 13
ENDBRANCH 11 12
ENDBRANCH 10 11
BRANCH 10 19
ATOM     19  N   LYS B   2       0.489 -17.210  22.392  1.00 40.88 LIG-0.35  N 
ATOM     20  C   GLU B   1       1.607 -16.600  21.988  1.00 50.16 LIG 0.25  C 
ATOM     21 O    GLU B   1       1.769 -16.217  20.826  1.00 45.73 LIG-0.27  OA
ATOM     22 H    LYS B   2       0.368 -17.562  23.168  1.00 40.88 LIG 0.16  HD
BRANCH 20 23
ATOM     23  CA  GLU B   1       2.723 -16.400  23.015  1.00 56.89 LIG 0.28  C 
BRANCH 23 24
ATOM     24  CB  GLU B   1       2.459 -17.266  24.245  1.00 44.84 LIG 0.05  C 
BRANCH 24 25
ATOM     25  CG  GLU B   1       1.552 -16.610  25.275  1.00 43.84 LIG 0.12  C 
BRANCH 25 26
ATOM     26  CD  GLU B   1       0.282 -17.406  25.535  1.00 58.57 LIG 0.17  C 
ATOM     27 OE1  GLU B   1      -0.459 -17.052  26.480  1.00 59.35 LIG-0.65  OA
ATOM     28 OE2  GLU B   1       0.028 -18.385  24.797  1.00 59.65 LIG-0.65  OA
ENDBRANCH 25 26
ENDBRANCH 24 25
ENDBRANCH 23 24
BRANCH 23 29
ATOM     29  N   GLU B   1       2.906 -15.002  23.386  1.00 43.96 LIG-0.07  N 
ATOM     30 H1   GLU B   1       2.807 -14.489  22.666  1.00 43.96 LIG 0.28  HD
ATOM     31 H2   GLU B   1       2.300 -14.776  23.997  1.00 43.96 LIG 0.28  HD
ATOM     32 H3   GLU B   1       3.722 -14.888  23.720  1.00 43.96 LIG 0.28  HD
ENDBRANCH 23 29
ENDBRANCH 20 23
ENDBRANCH 10 19
ENDBRANCH 8 10
ENDBRANCH 5 6
BRANCH 5 33
ATOM     33  CB  VAL B   3       0.394 -18.285  16.817  1.00 34.43 LIG 0.01  C 
ATOM     34  CG2 VAL B   3       1.847 -18.049  16.486  1.00 33.75 LIG 0.01  C 
ATOM     35  CG1 VAL B   3      -0.369 -16.952  16.825  1.00 37.65 LIG 0.01  C 
ENDBRANCH 5 33
ENDBRANCH 1 5
BRANCH 3 36
ATOM     36  CA  HIS B   4       2.865 -21.836  18.617  1.00 28.98 LIG 0.18  C 
BRANCH 36 37
ATOM     37  CB  HIS B   4       2.496 -23.252  19.099  1.00 26.24 LIG 0.10  C 
BRANCH 37 38
ATOM     38  CG  HIS B   4       1.874 -23.269  20.462  1.00 30.41 LIG 0.06  A 
ATOM     39 ND1  HIS B   4       1.033 -22.271  20.911  1.00 34.08 LIG-0.24  NA
ATOM     40  CE1 HIS B   4       0.638 -22.553  22.143  1.00 29.96 LIG 0.23  A 
ATOM     41 NE2  HIS B   4       1.176 -23.706  22.498  1.00 35.16 LIG-0.25  NA
ATOM     42  CD2 HIS B   4       1.951 -24.178  21.465  1.00 34.95 LIG 0.14  A 
ENDBRANCH 37 38
ENDBRANCH 36 37
BRANCH 36 43
ATOM     43  C   HIS B   4       3.947 -21.904  17.552  1.00 27.46 LIG 0.24  C 
ATOM     44 O    HIS B   4       5.094 -22.268  17.831  1.00 25.24 LIG-0.27  OA
ATOM     45  N   VAL B   5       3.682 -21.434  16.423  1.00 26.31 LIG-0.35  N 
ATOM     46 H    VAL B   5       2.901 -21.165  16.180  1.00 26.31 LIG 0.16  HD
BRANCH 45 47
ATOM     47  CA  VAL B   5       4.725 -21.304  15.398  1.00 25.23 LIG 0.18  C 
BRANCH 47 48
ATOM     48  CB  VAL B   5       5.184 -22.690  14.886  1.00 26.56 LIG 0.01  C 
ATOM     49  CG2 VAL B   5       5.996 -22.541  13.608  1.00 31.17 LIG 0.01  C 
ATOM     50  CG1 VAL B   5       4.011 -23.611  14.646  1.00 34.68 LIG 0.01  C 
ENDBRANCH 47 48
BRANCH 47 51
ATOM     51  C   VAL B   5       4.262 -20.423  14.247  1.00 27.03 LIG 0.24  C 
ATOM     52  N   GLN B   6       4.508 -19.123  14.358  1.00 26.89 LIG-0.34  N 
ATOM     53 H    GLN B   6       4.899 -18.749  15.026  1.00 26.89 LIG 0.16  HD
ATOM     54 O    VAL B   5       3.698 -20.911  13.257  1.00 28.01 LIG-0.27  OA
BRANCH 52 55
ATOM     55  CA  GLN B   6       4.102 -18.218  13.279  1.00 25.51 LIG 0.19  C 
BRANCH 55 56
ATOM     56  C   GLN B   6       4.816 -16.875  13.379  1.00 28.77 LIG 0.20  C 
ATOM     57 OXT  GLN B   6       4.779 -16.037  12.455  1.00 27.06 LIG-0.65  OA
ATOM     58 O    GLN B   6       5.482 -16.610  14.396  1.00 25.73 LIG-0.65  OA
ENDBRANCH 55 56
BRANCH 55 59
ATOM     59  CB  GLN B   6       2.597 -17.965  13.319  1.00 31.03 LIG 0.04  C 
BRANCH 59 60
ATOM     60  CG  GLN B   6       1.788 -18.814  12.371  1.00 39.52 LIG 0.10  C 
BRANCH 60 61
ATOM     61  CD  GLN B   6       2.426 -18.867  11.001  1.00 49.24 LIG 0.21  C 
ATOM     62  NE2 GLN B   6       2.955 -17.735  10.554  1.00 50.05 LIG-0.37  N 
ATOM     63 21HE GLN B   6       2.907 -17.021  11.031  1.00 50.05 LIG 0.16  HD
ATOM     64 22HE GLN B   6       3.345 -17.716   9.788  1.00 50.05 LIG 0.16  HD
ATOM     65 OE1  GLN B   6       2.466 -19.924  10.358  1.00 58.78 LIG-0.27  OA
ENDBRANCH 60 61
ENDBRANCH 59 60
ENDBRANCH 55 59
ENDBRANCH 52 55
ENDBRANCH 47 51
ENDBRANCH 45 47
ENDBRANCH 36 43
ENDBRANCH 3 36
TORSDOF 27
ENDMDL
MODEL 9
USER: ADFR SOLUTION from run 30
USER: SCORE 20.289564 LL:  -5.698 LR: -17.010 RR:   0.000 FEB:  -8.956
USER: RMSD 7.193518
USER: SEED 29
USER: STATUS 1 or 2 clusters left
USER: GENES 29
USER: genes 0 Translation |==|  0.30145 0.62156 0.42940
USER: genes 1 Rotation |==|  0.82340 0.66956 0.65961 0.80197
USER: genes 2 Torsion [N]-C--CA-[N] |==|  0.30612
USER: genes 3 Torsion [C]-CA--N-[C] |==|  0.86094
USER: genes 4 Torsion [N]-C--CA-[N] |==|  0.95670
USER: genes 5 Torsion [C]-CA--CB-[CG] |==|  0.85089
USER: genes 6 Torsion [CA]-CB--CG-[CD] |==|  0.20383
USER: genes 7 Torsion [CB]-CG--CD-[CE] |==|  0.33036
USER: genes 8 Torsion [CG]-CD--CE-[NZ] |==|  0.42330
USER: genes 9 Torsion [CD]-CE--NZ-[HZ1] |==|  0.57237
USER: genes 10 Torsion [C]-CA--N-[C] |==|  0.76837
USER: genes 11 Torsion [N]-C--CA-[N] |==|  0.94401
USER: genes 12 Torsion [C]-CA--CB-[CG] |==|  0.91580
USER: genes 13 Torsion [CA]-CB--CG-[CD] |==|  0.82577
USER: genes 14 Torsion [CB]-CG--CD-[OE1] |==|  0.43143
USER: genes 15 Torsion [C]-CA--N-[H1] |==|  0.94327
USER: genes 16 Torsion [C]-CA--CB-[CG2] |==|  0.76698
USER: genes 17 Torsion [C]-N--CA-[CB] |==|  0.15899
USER: genes 18 Torsion [N]-CA--CB-[CG] |==|  0.55624
USER: genes 19 Torsion [CA]-CB--CG-[ND1] |==|  0.02660
USER: genes 20 Torsion [N]-CA--C-[N] |==|  0.38820
USER: genes 21 Torsion [C]-N--CA-[CB] |==|  0.77778
USER: genes 22 Torsion [N]-CA--CB-[CG1] |==|  0.86963
USER: genes 23 Torsion [N]-CA--C-[N] |==|  0.10428
USER: genes 24 Torsion [C]-N--CA-[C] |==|  0.53980
USER: genes 25 Torsion [N]-CA--C-[OXT] |==|  0.92684
USER: genes 26 Torsion [N]-CA--CB-[CG] |==|  0.58590
USER: genes 27 Torsion [CA]-CB--CG-[CD] |==|  0.20262
USER: genes 28 Torsion [CB]-CG--CD-[OE1] |==|  0.32040
ROOT
ATOM      1  C   VAL B   3       0.833 -19.784  18.894  1.00 28.64 LIG 0.24  C 
ATOM      2 O    VAL B   3       0.486 -20.620  18.051  1.00 27.24 LIG-0.27  OA
ATOM      3  N   HIS B   4       1.224 -20.132  20.272  1.00 29.63 LIG-0.35  N 
ATOM      4 H    HIS B   4       1.388 -19.578  20.909  1.00 29.63 LIG 0.16  HD
ENDROOT
BRANCH 1 5
ATOM      5  CA  VAL B   3       0.842 -18.284  18.550  1.00 30.81 LIG 0.18  C 
BRANCH 5 6
ATOM      6  N   VAL B   3       1.933 -18.004  17.628  1.00 30.70 LIG-0.35  N 
ATOM      7 H    VAL B   3       1.706 -17.554  16.931  1.00 30.70 LIG 0.16  HD
ATOM      8  C   LYS B   2       3.170 -18.424  17.875  1.00 38.89 LIG 0.24  C 
ATOM      9 O    LYS B   2       3.486 -19.007  18.919  1.00 35.72 LIG-0.27  OA
BRANCH 8 10
ATOM     10  CA  LYS B   2       4.203 -18.124  16.797  1.00 39.86 LIG 0.18  C 
BRANCH 10 11
ATOM     11  CB  LYS B   2       5.195 -17.049  17.283  1.00 33.57 LIG 0.04  C 
BRANCH 11 12
ATOM     12  CG  LYS B   2       4.488 -15.772  17.783  1.00 34.54 LIG 0.00  C 
BRANCH 12 13
ATOM     13  CD  LYS B   2       3.805 -15.945  19.133  1.00 30.34 LIG 0.03  C 
BRANCH 13 14
ATOM     14  CE  LYS B   2       4.352 -15.027  20.208  1.00 26.25 LIG 0.23  C 
BRANCH 14 15
ATOM     15  NZ  LYS B   2       3.301 -14.735  21.239  1.00 28.72 LIG-0.08  N 
ATOM     16 HZ2  LYS B   2       2.502 -14.704  20.848  1.00 28.72 LIG 0.27  HD
ATOM     17 HZ3  LYS B   2       3.304 -15.376  21.856  1.00 28.72 LIG 0.27  HD
ATOM     18 HZ1  LYS B   2       3.473 -13.952  21.625  1.00 28.72 LIG 0.27  HD
ENDBRANCH 14 15
ENDBRANCH 13 14
ENDBRANCH 12 13
ENDBRANCH 11 12
ENDBRANCH 10 11
BRANCH 10 19
ATOM     19  N   LYS B   2       3.511 -17.757  15.557  1.00 40.88 LIG-0.35  N 
ATOM     20  C   GLU B   1       3.073 -18.725  14.746  1.00 50.16 LIG 0.25  C 
ATOM     21 O    GLU B   1       3.330 -19.917  14.938  1.00 45.73 LIG-0.27  OA
ATOM     22 H    LYS B   2       3.423 -16.913  15.415  1.00 40.88 LIG 0.16  HD
BRANCH 20 23
ATOM     23  CA  GLU B   1       2.246 -18.315  13.526  1.00 56.89 LIG 0.28  C 
BRANCH 23 24
ATOM     24  CB  GLU B   1       3.098 -18.414  12.263  1.00 44.84 LIG 0.05  C 
BRANCH 24 25
ATOM     25  CG  GLU B   1       4.579 -18.158  12.497  1.00 43.84 LIG 0.12  C 
BRANCH 25 26
ATOM     26  CD  GLU B   1       4.861 -16.750  13.000  1.00 58.57 LIG 0.17  C 
ATOM     27 OE1  GLU B   1       5.907 -16.552  13.659  1.00 59.35 LIG-0.65  OA
ATOM     28 OE2  GLU B   1       4.037 -15.845  12.740  1.00 59.65 LIG-0.65  OA
ENDBRANCH 25 26
ENDBRANCH 24 25
ENDBRANCH 23 24
BRANCH 23 29
ATOM     29  N   GLU B   1       1.660 -16.987  13.661  1.00 43.96 LIG-0.07  N 
ATOM     30 H1   GLU B   1       1.631 -16.762  14.522  1.00 43.96 LIG 0.28  HD
ATOM     31 H2   GLU B   1       2.157 -16.397  13.217  1.00 43.96 LIG 0.28  HD
ATOM     32 H3   GLU B   1       0.836 -16.990  13.329  1.00 43.96 LIG 0.28  HD
ENDBRANCH 23 29
ENDBRANCH 20 23
ENDBRANCH 10 19
ENDBRANCH 8 10
ENDBRANCH 5 6
BRANCH 5 33
ATOM     33  CB  VAL B   3      -0.509 -17.862  17.954  1.00 34.43 LIG 0.01  C 
ATOM     34  CG2 VAL B   3      -0.540 -18.160  16.475  1.00 33.75 LIG 0.01  C 
ATOM     35  CG1 VAL B   3      -0.749 -16.364  18.195  1.00 37.65 LIG 0.01  C 
ENDBRANCH 5 33
ENDBRANCH 1 5
BRANCH 3 36
ATOM     36  CA  HIS B   4       1.346 -21.553  20.594  1.00 28.98 LIG 0.18  C 
BRANCH 36 37
ATOM     37  CB  HIS B   4       2.358 -22.251  19.666  1.00 26.24 LIG 0.10  C 
BRANCH 37 38
ATOM     38  CG  HIS B   4       2.182 -23.738  19.611  1.00 30.41 LIG 0.06  A 
ATOM     39 ND1  HIS B   4       1.097 -24.382  20.168  1.00 34.08 LIG-0.24  NA
ATOM     40  CE1 HIS B   4       1.209 -25.685  19.964  1.00 29.96 LIG 0.23  A 
ATOM     41 NE2  HIS B   4       2.316 -25.904  19.278  1.00 35.16 LIG-0.25  NA
ATOM     42  CD2 HIS B   4       2.943 -24.704  19.040  1.00 34.95 LIG 0.14  A 
ENDBRANCH 37 38
ENDBRANCH 36 37
BRANCH 36 43
ATOM     43  C   HIS B   4       1.708 -21.794  22.050  1.00 27.46 LIG 0.24  C 
ATOM     44 O    HIS B   4       2.634 -21.176  22.588  1.00 25.24 LIG-0.27  OA
ATOM     45  N   VAL B   5       1.144 -22.742  22.641  1.00 26.31 LIG-0.35  N 
ATOM     46 H    VAL B   5       0.497 -23.204  22.310  1.00 26.31 LIG 0.16  HD
BRANCH 45 47
ATOM     47  CA  VAL B   5       1.564 -23.146  23.988  1.00 25.23 LIG 0.18  C 
BRANCH 47 48
ATOM     48  CB  VAL B   5       2.835 -24.028  23.939  1.00 26.56 LIG 0.01  C 
ATOM     49  CG2 VAL B   5       4.063 -23.173  23.662  1.00 31.17 LIG 0.01  C 
ATOM     50  CG1 VAL B   5       2.718 -25.115  22.895  1.00 34.68 LIG 0.01  C 
ENDBRANCH 47 48
BRANCH 47 51
ATOM     51  C   VAL B   5       1.774 -21.936  24.887  1.00 27.03 LIG 0.24  C 
ATOM     52  N   GLN B   6       0.925 -20.927  24.733  1.00 26.89 LIG-0.34  N 
ATOM     53 H    GLN B   6       0.279 -20.907  24.165  1.00 26.89 LIG 0.16  HD
ATOM     54 O    VAL B   5       2.687 -21.916  25.725  1.00 28.01 LIG-0.27  OA
BRANCH 52 55
ATOM     55  CA  GLN B   6       1.060 -19.736  25.576  1.00 25.51 LIG 0.19  C 
BRANCH 55 56
ATOM     56  C   GLN B   6      -0.185 -18.859  25.506  1.00 28.77 LIG 0.20  C 
ATOM     57 OXT  GLN B   6      -0.936 -18.859  24.510  1.00 27.06 LIG-0.65  OA
ATOM     58 O    GLN B   6      -0.451 -18.097  26.452  1.00 25.73 LIG-0.65  OA
ENDBRANCH 55 56
BRANCH 55 59
ATOM     59  CB  GLN B   6       2.262 -18.899  25.146  1.00 31.03 LIG 0.04  C 
BRANCH 59 60
ATOM     60  CG  GLN B   6       2.933 -18.138  26.261  1.00 39.52 LIG 0.10  C 
BRANCH 60 61
ATOM     61  CD  GLN B   6       3.716 -19.064  27.165  1.00 49.24 LIG 0.21  C 
ATOM     62  NE2 GLN B   6       3.013 -19.974  27.827  1.00 50.05 LIG-0.37  N 
ATOM     63 21HE GLN B   6       2.158 -20.001  27.741  1.00 50.05 LIG 0.16  HD
ATOM     64 22HE GLN B   6       3.412 -20.535  28.341  1.00 50.05 LIG 0.16  HD
ATOM     65 OE1  GLN B   6       4.947 -18.978  27.251  1.00 58.78 LIG-0.27  OA
ENDBRANCH 60 61
ENDBRANCH 59 60
ENDBRANCH 55 59
ENDBRANCH 52 55
ENDBRANCH 47 51
ENDBRANCH 45 47
ENDBRANCH 36 43
ENDBRANCH 3 36
TORSDOF 27
ENDMDL
MODEL 10
USER: ADFR SOLUTION from run 200
USER: SCORE 21.199462 LL:  -5.792 LR: -16.991 RR:   0.000 FEB:  -8.937
USER: RMSD 10.361750
USER: SEED 199
USER: STATUS no improvement in best in 3 clusters for 5 generations
USER: GENES 29
USER: genes 0 Translation |==|  0.27954 0.61898 0.42980
USER: genes 1 Rotation |==|  0.77615 0.77673 0.61950 0.78789
USER: genes 2 Torsion [N]-C--CA-[N] |==|  0.90610
USER: genes 3 Torsion [C]-CA--N-[C] |==|  0.81785
USER: genes 4 Torsion [N]-C--CA-[N] |==|  0.90731
USER: genes 5 Torsion [C]-CA--CB-[CG] |==|  0.89749
USER: genes 6 Torsion [CA]-CB--CG-[CD] |==|  0.58878
USER: genes 7 Torsion [CB]-CG--CD-[CE] |==|  0.27715
USER: genes 8 Torsion [CG]-CD--CE-[NZ] |==|  0.99285
USER: genes 9 Torsion [CD]-CE--NZ-[HZ1] |==|  0.89602
USER: genes 10 Torsion [C]-CA--N-[C] |==|  0.83365
USER: genes 11 Torsion [N]-C--CA-[N] |==|  0.95643
USER: genes 12 Torsion [C]-CA--CB-[CG] |==|  0.11108
USER: genes 13 Torsion [CA]-CB--CG-[CD] |==|  0.67586
USER: genes 14 Torsion [CB]-CG--CD-[OE1] |==|  0.31284
USER: genes 15 Torsion [C]-CA--N-[H1] |==|  0.35420
USER: genes 16 Torsion [C]-CA--CB-[CG2] |==|  0.73862
USER: genes 17 Torsion [C]-N--CA-[CB] |==|  0.78872
USER: genes 18 Torsion [N]-CA--CB-[CG] |==|  0.73342
USER: genes 19 Torsion [CA]-CB--CG-[ND1] |==|  0.21704
USER: genes 20 Torsion [N]-CA--C-[N] |==|  0.09456
USER: genes 21 Torsion [C]-N--CA-[CB] |==|  0.21202
USER: genes 22 Torsion [N]-CA--CB-[CG1] |==|  0.16619
USER: genes 23 Torsion [N]-CA--C-[N] |==|  0.91830
USER: genes 24 Torsion [C]-N--CA-[C] |==|  0.63787
USER: genes 25 Torsion [N]-CA--C-[OXT] |==|  0.45774
USER: genes 26 Torsion [N]-CA--CB-[CG] |==|  0.41804
USER: genes 27 Torsion [CA]-CB--CG-[CD] |==|  0.54985
USER: genes 28 Torsion [CB]-CG--CD-[OE1] |==|  0.66055
ROOT
ATOM      1  C   VAL B   3       0.439 -19.844  18.903  1.00 28.64 LIG 0.24  C 
ATOM      2 O    VAL B   3       0.137 -20.950  18.437  1.00 27.24 LIG-0.27  OA
ATOM      3  N   HIS B   4       1.280 -19.668  20.100  1.00 29.63 LIG-0.35  N 
ATOM      4 H    HIS B   4       1.441 -18.925  20.503  1.00 29.63 LIG 0.16  HD
ENDROOT
BRANCH 1 5
ATOM      5  CA  VAL B   3      -0.095 -18.552  18.259  1.00 30.81 LIG 0.18  C 
BRANCH 5 6
ATOM      6  N   VAL B   3      -0.353 -17.563  19.295  1.00 30.70 LIG-0.35  N 
ATOM      7 H    VAL B   3       0.151 -16.867  19.259  1.00 30.70 LIG 0.16  HD
ATOM      8  C   LYS B   2      -1.300 -17.753  20.208  1.00 38.89 LIG 0.24  C 
ATOM      9 O    LYS B   2      -2.060 -18.729  20.197  1.00 35.72 LIG-0.27  OA
BRANCH 8 10
ATOM     10  CA  LYS B   2      -1.421 -16.673  21.276  1.00 39.86 LIG 0.18  C 
BRANCH 10 11
ATOM     11  CB  LYS B   2      -2.440 -15.600  20.848  1.00 33.57 LIG 0.04  C 
BRANCH 11 12
ATOM     12  CG  LYS B   2      -2.393 -15.307  19.334  1.00 34.54 LIG 0.00  C 
BRANCH 12 13
ATOM     13  CD  LYS B   2      -2.734 -13.864  18.983  1.00 30.34 LIG 0.03  C 
BRANCH 13 14
ATOM     14  CE  LYS B   2      -1.514 -13.004  18.722  1.00 26.25 LIG 0.23  C 
BRANCH 14 15
ATOM     15  NZ  LYS B   2      -0.255 -13.791  18.940  1.00 28.72 LIG-0.08  N 
ATOM     16 HZ2  LYS B   2      -0.072 -14.267  18.210  1.00 28.72 LIG 0.27  HD
ATOM     17 HZ3  LYS B   2       0.419 -13.235  19.107  1.00 28.72 LIG 0.27  HD
ATOM     18 HZ1  LYS B   2      -0.364 -14.341  19.631  1.00 28.72 LIG 0.27  HD
ENDBRANCH 14 15
ENDBRANCH 13 14
ENDBRANCH 12 13
ENDBRANCH 11 12
ENDBRANCH 10 11
BRANCH 10 19
ATOM     19  N   LYS B   2      -0.089 -16.128  21.562  1.00 40.88 LIG-0.35  N 
ATOM     20  C   GLU B   1       0.866 -16.947  22.012  1.00 50.16 LIG 0.25  C 
ATOM     21 O    GLU B   1       0.643 -18.124  22.311  1.00 45.73 LIG-0.27  OA
ATOM     22 H    LYS B   2       0.006 -15.285  21.419  1.00 40.88 LIG 0.16  HD
BRANCH 20 23
ATOM     23  CA  GLU B   1       2.276 -16.377  22.179  1.00 56.89 LIG 0.28  C 
BRANCH 23 24
ATOM     24  CB  GLU B   1       2.609 -16.240  23.663  1.00 44.84 LIG 0.05  C 
BRANCH 24 25
ATOM     25  CG  GLU B   1       2.118 -17.401  24.514  1.00 43.84 LIG 0.12  C 
BRANCH 25 26
ATOM     26  CD  GLU B   1       1.082 -16.979  25.545  1.00 58.57 LIG 0.17  C 
ATOM     27 OE1  GLU B   1      -0.092 -17.393  25.413  1.00 59.35 LIG-0.65  OA
ATOM     28 OE2  GLU B   1       1.440 -16.232  26.483  1.00 59.65 LIG-0.65  OA
ENDBRANCH 25 26
ENDBRANCH 24 25
ENDBRANCH 23 24
BRANCH 23 29
ATOM     29  N   GLU B   1       2.459 -15.110  21.481  1.00 43.96 LIG-0.07  N 
ATOM     30 H1   GLU B   1       2.782 -14.504  22.046  1.00 43.96 LIG 0.28  HD
ATOM     31 H2   GLU B   1       3.030 -15.222  20.807  1.00 43.96 LIG 0.28  HD
ATOM     32 H3   GLU B   1       1.677 -14.830  21.163  1.00 43.96 LIG 0.28  HD
ENDBRANCH 23 29
ENDBRANCH 20 23
ENDBRANCH 10 19
ENDBRANCH 8 10
ENDBRANCH 5 6
BRANCH 5 33
ATOM     33  CB  VAL B   3       0.902 -18.019  17.221  1.00 34.43 LIG 0.01  C 
ATOM     34  CG2 VAL B   3       1.814 -16.997  17.853  1.00 33.75 LIG 0.01  C 
ATOM     35  CG1 VAL B   3       0.150 -17.393  16.036  1.00 37.65 LIG 0.01  C 
ENDBRANCH 5 33
ENDBRANCH 1 5
BRANCH 3 36
ATOM     36  CA  HIS B   4       1.904 -20.865  20.662  1.00 28.98 LIG 0.18  C 
BRANCH 36 37
ATOM     37  CB  HIS B   4       0.882 -21.714  21.442  1.00 26.24 LIG 0.10  C 
BRANCH 37 38
ATOM     38  CG  HIS B   4       0.889 -21.443  22.915  1.00 30.41 LIG 0.06  A 
ATOM     39 ND1  HIS B   4       0.282 -20.337  23.473  1.00 34.08 LIG-0.24  NA
ATOM     40  CE1 HIS B   4       0.447 -20.363  24.787  1.00 29.96 LIG 0.23  A 
ATOM     41 NE2  HIS B   4       1.121 -21.455  25.099  1.00 35.16 LIG-0.25  NA
ATOM     42  CD2 HIS B   4       1.407 -22.152  23.948  1.00 34.95 LIG 0.14  A 
ENDBRANCH 37 38
ENDBRANCH 36 37
BRANCH 36 43
ATOM     43  C   HIS B   4       2.603 -21.709  19.610  1.00 27.46 LIG 0.24  C 
ATOM     44 O    HIS B   4       2.762 -22.924  19.770  1.00 25.24 LIG-0.27  OA
ATOM     45  N   VAL B   5       3.147 -21.113  18.654  1.00 26.31 LIG-0.35  N 
ATOM     46 H    VAL B   5       3.069 -20.270  18.499  1.00 26.31 LIG 0.16  HD
BRANCH 45 47
ATOM     47  CA  VAL B   5       3.987 -21.841  17.694  1.00 25.23 LIG 0.18  C 
BRANCH 47 48
ATOM     48  CB  VAL B   5       3.126 -22.658  16.702  1.00 26.56 LIG 0.01  C 
ATOM     49  CG2 VAL B   5       4.016 -23.450  15.755  1.00 31.17 LIG 0.01  C 
ATOM     50  CG1 VAL B   5       2.194 -21.770  15.911  1.00 34.68 LIG 0.01  C 
ENDBRANCH 47 48
BRANCH 47 51
ATOM     51  C   VAL B   5       4.925 -20.897  16.955  1.00 27.03 LIG 0.24  C 
ATOM     52  N   GLN B   6       4.500 -19.651  16.784  1.00 26.89 LIG-0.34  N 
ATOM     53 H    GLN B   6       3.741 -19.346  17.050  1.00 26.89 LIG 0.16  HD
ATOM     54 O    VAL B   5       6.032 -21.284  16.554  1.00 28.01 LIG-0.27  OA
BRANCH 52 55
ATOM     55  CA  GLN B   6       5.359 -18.685  16.092  1.00 25.51 LIG 0.19  C 
BRANCH 55 56
ATOM     56  C   GLN B   6       5.488 -17.388  16.882  1.00 28.77 LIG 0.20  C 
ATOM     57 OXT  GLN B   6       6.375 -16.547  16.631  1.00 27.06 LIG-0.65  OA
ATOM     58 O    GLN B   6       4.708 -17.166  17.825  1.00 25.73 LIG-0.65  OA
ENDBRANCH 55 56
BRANCH 55 59
ATOM     59  CB  GLN B   6       4.801 -18.353  14.711  1.00 31.03 LIG 0.04  C 
BRANCH 59 60
ATOM     60  CG  GLN B   6       5.128 -16.966  14.215  1.00 39.52 LIG 0.10  C 
BRANCH 60 61
ATOM     61  CD  GLN B   6       4.210 -16.557  13.085  1.00 49.24 LIG 0.21  C 
ATOM     62  NE2 GLN B   6       2.911 -16.540  13.358  1.00 50.05 LIG-0.37  N 
ATOM     63 21HE GLN B   6       2.634 -16.771  14.138  1.00 50.05 LIG 0.16  HD
ATOM     64 22HE GLN B   6       2.348 -16.298  12.755  1.00 50.05 LIG 0.16  HD
ATOM     65 OE1  GLN B   6       4.665 -16.235  11.980  1.00 58.78 LIG-0.27  OA
ENDBRANCH 60 61
ENDBRANCH 59 60
ENDBRANCH 55 59
ENDBRANCH 52 55
ENDBRANCH 47 51
ENDBRANCH 45 47
ENDBRANCH 36 43
ENDBRANCH 3 36
TORSDOF 27
ENDMDL
MODEL 11
USER: ADFR SOLUTION from run 72
USER: SCORE 20.664590 LL:  -6.244 LR: -16.964 RR:   0.000 FEB:  -8.910
USER: RMSD 8.251517
USER: SEED 71
USER: STATUS no improvement in best in 4 clusters for 5 generations
USER: GENES 29
USER: genes 0 Translation |==|  0.22210 0.72871 0.48568
USER: genes 1 Rotation |==|  0.93462 0.66495 0.53078 0.68153
USER: genes 2 Torsion [N]-C--CA-[N] |==|  0.22080
USER: genes 3 Torsion [C]-CA--N-[C] |==|  0.79444
USER: genes 4 Torsion [N]-C--CA-[N] |==|  0.41214
USER: genes 5 Torsion [C]-CA--CB-[CG] |==|  0.98129
USER: genes 6 Torsion [CA]-CB--CG-[CD] |==|  0.39638
USER: genes 7 Torsion [CB]-CG--CD-[CE] |==|  0.72007
USER: genes 8 Torsion [CG]-CD--CE-[NZ] |==|  0.18956
USER: genes 9 Torsion [CD]-CE--NZ-[HZ1] |==|  0.28304
USER: genes 10 Torsion [C]-CA--N-[C] |==|  0.59022
USER: genes 11 Torsion [N]-C--CA-[N] |==|  0.34275
USER: genes 12 Torsion [C]-CA--CB-[CG] |==|  0.86127
USER: genes 13 Torsion [CA]-CB--CG-[CD] |==|  0.81359
USER: genes 14 Torsion [CB]-CG--CD-[OE1] |==|  0.22149
USER: genes 15 Torsion [C]-CA--N-[H1] |==|  0.25183
USER: genes 16 Torsion [C]-CA--CB-[CG2] |==|  0.12104
USER: genes 17 Torsion [C]-N--CA-[CB] |==|  0.21657
USER: genes 18 Torsion [N]-CA--CB-[CG] |==|  0.30198
USER: genes 19 Torsion [CA]-CB--CG-[ND1] |==|  0.21153
USER: genes 20 Torsion [N]-CA--C-[N] |==|  0.85318
USER: genes 21 Torsion [C]-N--CA-[CB] |==|  0.47272
USER: genes 22 Torsion [N]-CA--CB-[CG1] |==|  0.12013
USER: genes 23 Torsion [N]-CA--C-[N] |==|  0.83660
USER: genes 24 Torsion [C]-N--CA-[C] |==|  0.76489
USER: genes 25 Torsion [N]-CA--C-[OXT] |==|  0.53685
USER: genes 26 Torsion [N]-CA--CB-[CG] |==|  0.79084
USER: genes 27 Torsion [CA]-CB--CG-[CD] |==|  0.87172
USER: genes 28 Torsion [CB]-CG--CD-[OE1] |==|  0.71479
ROOT
ATOM      1  C   VAL B   3      -0.595 -17.292  20.161  1.00 28.64 LIG 0.24  C 
ATOM      2 O    VAL B   3      -1.637 -17.557  19.547  1.00 27.24 LIG-0.27  OA
ATOM      3  N   HIS B   4       0.250 -18.313  20.805  1.00 29.63 LIG-0.35  N 
ATOM      4 H    HIS B   4       0.931 -18.164  21.310  1.00 29.63 LIG 0.16  HD
ENDROOT
BRANCH 1 5
ATOM      5  CA  VAL B   3      -0.131 -15.834  20.321  1.00 30.81 LIG 0.18  C 
BRANCH 5 6
ATOM      6  N   VAL B   3       0.942 -15.559  19.375  1.00 30.70 LIG-0.35  N 
ATOM      7 H    VAL B   3       0.712 -15.073  18.705  1.00 30.70 LIG 0.16  HD
ATOM      8  C   LYS B   2       2.167 -16.039  19.565  1.00 38.89 LIG 0.24  C 
ATOM      9 O    LYS B   2       2.490 -16.678  20.574  1.00 35.72 LIG-0.27  OA
BRANCH 8 10
ATOM     10  CA  LYS B   2       3.178 -15.736  18.467  1.00 39.86 LIG 0.18  C 
BRANCH 10 11
ATOM     11  CB  LYS B   2       3.101 -16.799  17.353  1.00 33.57 LIG 0.04  C 
BRANCH 11 12
ATOM     12  CG  LYS B   2       2.158 -17.966  17.710  1.00 34.54 LIG 0.00  C 
BRANCH 12 13
ATOM     13  CD  LYS B   2       1.362 -18.489  16.522  1.00 30.34 LIG 0.03  C 
BRANCH 13 14
ATOM     14  CE  LYS B   2      -0.065 -17.981  16.481  1.00 26.25 LIG 0.23  C 
BRANCH 14 15
ATOM     15  NZ  LYS B   2      -0.093 -16.508  16.194  1.00 28.72 LIG-0.08  N 
ATOM     16 HZ2  LYS B   2      -0.700 -16.115  16.714  1.00 28.72 LIG 0.27  HD
ATOM     17 HZ3  LYS B   2       0.708 -16.157  16.358  1.00 28.72 LIG 0.27  HD
ATOM     18 HZ1  LYS B   2      -0.304 -16.375  15.340  1.00 28.72 LIG 0.27  HD
ENDBRANCH 14 15
ENDBRANCH 13 14
ENDBRANCH 12 13
ENDBRANCH 11 12
ENDBRANCH 10 11
BRANCH 10 19
ATOM     19  N   LYS B   2       4.513 -15.614  19.062  1.00 40.88 LIG-0.35  N 
ATOM     20  C   GLU B   1       5.392 -14.766  18.519  1.00 50.16 LIG 0.25  C 
ATOM     21 O    GLU B   1       5.168 -14.166  17.464  1.00 45.73 LIG-0.27  OA
ATOM     22 H    LYS B   2       4.661 -16.110  19.749  1.00 40.88 LIG 0.16  HD
BRANCH 20 23
ATOM     23  CA  GLU B   1       6.729 -14.567  19.236  1.00 56.89 LIG 0.28  C 
BRANCH 23 24
ATOM     24  CB  GLU B   1       6.809 -13.152  19.803  1.00 44.84 LIG 0.05  C 
BRANCH 24 25
ATOM     25  CG  GLU B   1       6.463 -12.065  18.798  1.00 43.84 LIG 0.12  C 
BRANCH 25 26
ATOM     26  CD  GLU B   1       7.484 -11.953  17.676  1.00 58.57 LIG 0.17  C 
ATOM     27 OE1  GLU B   1       7.424 -12.775  16.733  1.00 59.35 LIG-0.65  OA
ATOM     28 OE2  GLU B   1       8.347 -11.049  17.739  1.00 59.65 LIG-0.65  OA
ENDBRANCH 25 26
ENDBRANCH 24 25
ENDBRANCH 23 24
BRANCH 23 29
ATOM     29  N   GLU B   1       7.875 -14.856  18.382  1.00 43.96 LIG-0.07  N 
ATOM     30 H1   GLU B   1       8.129 -14.112  17.965  1.00 43.96 LIG 0.28  HD
ATOM     31 H2   GLU B   1       8.547 -15.162  18.880  1.00 43.96 LIG 0.28  HD
ATOM     32 H3   GLU B   1       7.650 -15.470  17.780  1.00 43.96 LIG 0.28  HD
ENDBRANCH 23 29
ENDBRANCH 20 23
ENDBRANCH 10 19
ENDBRANCH 8 10
ENDBRANCH 5 6
BRANCH 5 33
ATOM     33  CB  VAL B   3      -1.309 -14.870  20.116  1.00 34.43 LIG 0.01  C 
ATOM     34  CG2 VAL B   3      -2.531 -15.383  20.837  1.00 33.75 LIG 0.01  C 
ATOM     35  CG1 VAL B   3      -1.608 -14.711  18.618  1.00 37.65 LIG 0.01  C 
ENDBRANCH 5 33
ENDBRANCH 1 5
BRANCH 3 36
ATOM     36  CA  HIS B   4      -0.093 -19.714  20.567  1.00 28.98 LIG 0.18  C 
BRANCH 36 37
ATOM     37  CB  HIS B   4       0.386 -20.179  19.179  1.00 26.24 LIG 0.10  C 
BRANCH 37 38
ATOM     38  CG  HIS B   4       1.545 -21.126  19.240  1.00 30.41 LIG 0.06  A 
ATOM     39 ND1  HIS B   4       1.407 -22.453  19.592  1.00 34.08 LIG-0.24  NA
ATOM     40  CE1 HIS B   4       2.592 -23.041  19.556  1.00 29.96 LIG 0.23  A 
ATOM     41 NE2  HIS B   4       3.487 -22.149  19.174  1.00 35.16 LIG-0.25  NA
ATOM     42  CD2 HIS B   4       2.860 -20.943  18.966  1.00 34.95 LIG 0.14  A 
ENDBRANCH 37 38
ENDBRANCH 36 37
BRANCH 36 43
ATOM     43  C   HIS B   4       0.439 -20.639  21.650  1.00 27.46 LIG 0.24  C 
ATOM     44 O    HIS B   4      -0.326 -21.320  22.340  1.00 25.24 LIG-0.27  OA
ATOM     45  N   VAL B   5       1.659 -20.573  21.922  1.00 26.31 LIG-0.35  N 
ATOM     46 H    VAL B   5       2.233 -20.113  21.475  1.00 26.31 LIG 0.16  HD
BRANCH 45 47
ATOM     47  CA  VAL B   5       2.214 -21.304  23.068  1.00 25.23 LIG 0.18  C 
BRANCH 47 48
ATOM     48  CB  VAL B   5       3.761 -21.269  23.061  1.00 26.56 LIG 0.01  C 
ATOM     49  CG2 VAL B   5       4.308 -21.715  24.409  1.00 31.17 LIG 0.01  C 
ATOM     50  CG1 VAL B   5       4.285 -19.893  22.722  1.00 34.68 LIG 0.01  C 
ENDBRANCH 47 48
BRANCH 47 51
ATOM     51  C   VAL B   5       1.662 -20.772  24.383  1.00 27.03 LIG 0.24  C 
ATOM     52  N   GLN B   6       1.876 -19.487  24.641  1.00 26.89 LIG-0.34  N 
ATOM     53 H    GLN B   6       2.305 -18.945  24.129  1.00 26.89 LIG 0.16  HD
ATOM     54 O    VAL B   5       1.032 -21.509  25.155  1.00 28.01 LIG-0.27  OA
BRANCH 52 55
ATOM     55  CA  GLN B   6       1.359 -18.905  25.883  1.00 25.51 LIG 0.19  C 
BRANCH 55 56
ATOM     56  C   GLN B   6      -0.093 -18.468  25.731  1.00 28.77 LIG 0.20  C 
ATOM     57 OXT  GLN B   6      -0.653 -17.735  26.571  1.00 27.06 LIG-0.65  OA
ATOM     58 O    GLN B   6      -0.755 -18.872  24.759  1.00 25.73 LIG-0.65  OA
ENDBRANCH 55 56
BRANCH 55 59
ATOM     59  CB  GLN B   6       2.186 -17.691  26.299  1.00 31.03 LIG 0.04  C 
BRANCH 59 60
ATOM     60  CG  GLN B   6       3.532 -18.017  26.894  1.00 39.52 LIG 0.10  C 
BRANCH 60 61
ATOM     61  CD  GLN B   6       3.425 -19.122  27.922  1.00 49.24 LIG 0.21  C 
ATOM     62  NE2 GLN B   6       3.328 -20.358  27.450  1.00 50.05 LIG-0.37  N 
ATOM     63 21HE GLN B   6       3.312 -20.493  26.601  1.00 50.05 LIG 0.16  HD
ATOM     64 22HE GLN B   6       3.282 -21.023  27.993  1.00 50.05 LIG 0.16  HD
ATOM     65 OE1  GLN B   6       3.452 -18.868  29.133  1.00 58.78 LIG-0.27  OA
ENDBRANCH 60 61
ENDBRANCH 59 60
ENDBRANCH 55 59
ENDBRANCH 52 55
ENDBRANCH 47 51
ENDBRANCH 45 47
ENDBRANCH 36 43
ENDBRANCH 3 36
TORSDOF 27
ENDMDL
MODEL 12
USER: ADFR SOLUTION from run 103
USER: SCORE 21.884874 LL:  -7.880 LR: -16.962 RR:   0.000 FEB:  -8.908
USER: RMSD 8.417511
USER: SEED 102
USER: STATUS 1 or 2 clusters left
USER: GENES 29
USER: genes 0 Translation |==|  0.35743 0.58896 0.38845
USER: genes 1 Rotation |==|  0.80262 0.62166 0.72227 0.80695
USER: genes 2 Torsion [N]-C--CA-[N] |==|  0.97861
USER: genes 3 Torsion [C]-CA--N-[C] |==|  0.59809
USER: genes 4 Torsion [N]-C--CA-[N] |==|  0.23528
USER: genes 5 Torsion [C]-CA--CB-[CG] |==|  0.09693
USER: genes 6 Torsion [CA]-CB--CG-[CD] |==|  0.64813
USER: genes 7 Torsion [CB]-CG--CD-[CE] |==|  0.98729
USER: genes 8 Torsion [CG]-CD--CE-[NZ] |==|  0.21492
USER: genes 9 Torsion [CD]-CE--NZ-[HZ1] |==|  0.65878
USER: genes 10 Torsion [C]-CA--N-[C] |==|  0.78638
USER: genes 11 Torsion [N]-C--CA-[N] |==|  0.10373
USER: genes 12 Torsion [C]-CA--CB-[CG] |==|  0.83961
USER: genes 13 Torsion [CA]-CB--CG-[CD] |==|  0.77103
USER: genes 14 Torsion [CB]-CG--CD-[OE1] |==|  0.96906
USER: genes 15 Torsion [C]-CA--N-[H1] |==|  0.69886
USER: genes 16 Torsion [C]-CA--CB-[CG2] |==|  0.67827
USER: genes 17 Torsion [C]-N--CA-[CB] |==|  0.17778
USER: genes 18 Torsion [N]-CA--CB-[CG] |==|  0.38732
USER: genes 19 Torsion [CA]-CB--CG-[ND1] |==|  0.72679
USER: genes 20 Torsion [N]-CA--C-[N] |==|  0.83056
USER: genes 21 Torsion [C]-N--CA-[CB] |==|  0.41120
USER: genes 22 Torsion [N]-CA--CB-[CG1] |==|  0.22840
USER: genes 23 Torsion [N]-CA--C-[N] |==|  0.96551
USER: genes 24 Torsion [C]-N--CA-[C] |==|  0.64852
USER: genes 25 Torsion [N]-CA--C-[OXT] |==|  0.96130
USER: genes 26 Torsion [N]-CA--CB-[CG] |==|  0.59673
USER: genes 27 Torsion [CA]-CB--CG-[CD] |==|  0.13222
USER: genes 28 Torsion [CB]-CG--CD-[OE1] |==|  0.61178
ROOT
ATOM      1  C   VAL B   3       1.841 -20.542  17.973  1.00 28.64 LIG 0.24  C 
ATOM      2 O    VAL B   3       1.819 -21.311  17.004  1.00 27.24 LIG-0.27  OA
ATOM      3  N   HIS B   4       1.813 -20.997  19.374  1.00 29.63 LIG-0.35  N 
ATOM      4 H    HIS B   4       1.742 -20.497  20.070  1.00 29.63 LIG 0.16  HD
ENDROOT
BRANCH 1 5
ATOM      5  CA  VAL B   3       1.862 -19.018  17.761  1.00 30.81 LIG 0.18  C 
BRANCH 5 6
ATOM      6  N   VAL B   3       1.665 -18.347  19.038  1.00 30.70 LIG-0.35  N 
ATOM      7 H    VAL B   3       2.025 -18.745  19.710  1.00 30.70 LIG 0.16  HD
ATOM      8  C   LYS B   2       0.980 -17.211  19.122  1.00 38.89 LIG 0.24  C 
ATOM      9 O    LYS B   2       0.534 -16.620  18.131  1.00 35.72 LIG-0.27  OA
BRANCH 8 10
ATOM     10  CA  LYS B   2       0.790 -16.650  20.525  1.00 39.86 LIG 0.18  C 
BRANCH 10 11
ATOM     11  CB  LYS B   2      -0.530 -15.861  20.617  1.00 33.57 LIG 0.04  C 
BRANCH 11 12
ATOM     12  CG  LYS B   2      -1.649 -16.471  19.749  1.00 34.54 LIG 0.00  C 
BRANCH 12 13
ATOM     13  CD  LYS B   2      -2.291 -15.473  18.794  1.00 30.34 LIG 0.03  C 
BRANCH 13 14
ATOM     14  CE  LYS B   2      -1.777 -14.058  18.967  1.00 26.25 LIG 0.23  C 
BRANCH 14 15
ATOM     15  NZ  LYS B   2      -0.425 -13.906  18.333  1.00 28.72 LIG-0.08  N 
ATOM     16 HZ2  LYS B   2      -0.159 -14.690  18.007  1.00 28.72 LIG 0.27  HD
ATOM     17 HZ3  LYS B   2      -0.471 -13.311  17.672  1.00 28.72 LIG 0.27  HD
ATOM     18 HZ1  LYS B   2       0.159 -13.625  18.942  1.00 28.72 LIG 0.27  HD
ENDBRANCH 14 15
ENDBRANCH 13 14
ENDBRANCH 12 13
ENDBRANCH 11 12
ENDBRANCH 10 11
BRANCH 10 19
ATOM     19  N   LYS B   2       1.968 -15.855  20.890  1.00 40.88 LIG-0.35  N 
ATOM     20  C   GLU B   1       3.090 -16.484  21.253  1.00 50.16 LIG 0.25  C 
ATOM     21 O    GLU B   1       3.142 -17.708  21.409  1.00 45.73 LIG-0.27  OA
ATOM     22 H    LYS B   2       1.868 -15.002  20.848  1.00 40.88 LIG 0.16  HD
BRANCH 20 23
ATOM     23  CA  GLU B   1       4.336 -15.634  21.504  1.00 56.89 LIG 0.28  C 
BRANCH 23 24
ATOM     24  CB  GLU B   1       5.353 -16.430  22.320  1.00 44.84 LIG 0.05  C 
BRANCH 24 25
ATOM     25  CG  GLU B   1       4.820 -16.922  23.656  1.00 43.84 LIG 0.12  C 
BRANCH 25 26
ATOM     26  CD  GLU B   1       4.884 -15.860  24.744  1.00 58.57 LIG 0.17  C 
ATOM     27 OE1  GLU B   1       5.534 -14.814  24.516  1.00 59.35 LIG-0.65  OA
ATOM     28 OE2  GLU B   1       4.289 -16.073  25.824  1.00 59.65 LIG-0.65  OA
ENDBRANCH 25 26
ENDBRANCH 24 25
ENDBRANCH 23 24
BRANCH 23 29
ATOM     29  N   GLU B   1       4.031 -14.360  22.145  1.00 43.96 LIG-0.07  N 
ATOM     30 H1   GLU B   1       4.139 -13.700  21.558  1.00 43.96 LIG 0.28  HD
ATOM     31 H2   GLU B   1       3.189 -14.366  22.432  1.00 43.96 LIG 0.28  HD
ATOM     32 H3   GLU B   1       4.579 -14.236  22.834  1.00 43.96 LIG 0.28  HD
ENDBRANCH 23 29
ENDBRANCH 20 23
ENDBRANCH 10 19
ENDBRANCH 8 10
ENDBRANCH 5 6
BRANCH 5 33
ATOM     33  CB  VAL B   3       3.181 -18.585  17.105  1.00 34.43 LIG 0.01  C 
ATOM     34  CG2 VAL B   3       3.961 -17.698  18.043  1.00 33.75 LIG 0.01  C 
ATOM     35  CG1 VAL B   3       2.899 -17.844  15.789  1.00 37.65 LIG 0.01  C 
ENDBRANCH 5 33
ENDBRANCH 1 5
BRANCH 3 36
ATOM     36  CA  HIS B   4       1.919 -22.437  19.612  1.00 28.98 LIG 0.18  C 
BRANCH 36 37
ATOM     37  CB  HIS B   4       3.280 -22.982  19.142  1.00 26.24 LIG 0.10  C 
BRANCH 37 38
ATOM     38  CG  HIS B   4       3.869 -23.992  20.078  1.00 30.41 LIG 0.06  A 
ATOM     39 ND1  HIS B   4       4.830 -23.670  21.014  1.00 34.08 LIG-0.24  NA
ATOM     40  CE1 HIS B   4       5.158 -24.756  21.697  1.00 29.96 LIG 0.23  A 
ATOM     41 NE2  HIS B   4       4.429 -25.763  21.250  1.00 35.16 LIG-0.25  NA
ATOM     42  CD2 HIS B   4       3.611 -25.313  20.240  1.00 34.95 LIG 0.14  A 
ENDBRANCH 37 38
ENDBRANCH 36 37
BRANCH 36 43
ATOM     43  C   HIS B   4       1.671 -22.809  21.064  1.00 27.46 LIG 0.24  C 
ATOM     44 O    HIS B   4       0.658 -23.433  21.398  1.00 25.24 LIG-0.27  OA
ATOM     45  N   VAL B   5       2.443 -22.334  21.927  1.00 26.31 LIG-0.35  N 
ATOM     46 H    VAL B   5       3.159 -21.892  21.747  1.00 26.31 LIG 0.16  HD
BRANCH 45 47
ATOM     47  CA  VAL B   5       2.167 -22.504  23.359  1.00 25.23 LIG 0.18  C 
BRANCH 47 48
ATOM     48  CB  VAL B   5       3.479 -22.593  24.176  1.00 26.56 LIG 0.01  C 
ATOM     49  CG2 VAL B   5       3.244 -23.350  25.474  1.00 31.17 LIG 0.01  C 
ATOM     50  CG1 VAL B   5       4.043 -21.224  24.473  1.00 34.68 LIG 0.01  C 
ENDBRANCH 47 48
BRANCH 47 51
ATOM     51  C   VAL B   5       1.270 -21.393  23.884  1.00 27.03 LIG 0.24  C 
ATOM     52  N   GLN B   6       1.093 -20.346  23.088  1.00 26.89 LIG-0.34  N 
ATOM     53 H    GLN B   6       1.450 -20.249  22.312  1.00 26.89 LIG 0.16  HD
ATOM     54 O    VAL B   5       0.727 -21.485  24.995  1.00 28.01 LIG-0.27  OA
BRANCH 52 55
ATOM     55  CA  GLN B   6       0.229 -19.245  23.526  1.00 25.51 LIG 0.19  C 
BRANCH 55 56
ATOM     56  C   GLN B   6      -0.845 -18.934  22.491  1.00 28.77 LIG 0.20  C 
ATOM     57 OXT  GLN B   6      -0.788 -19.379  21.327  1.00 27.06 LIG-0.65  OA
ATOM     58 O    GLN B   6      -1.796 -18.193  22.799  1.00 25.73 LIG-0.65  OA
ENDBRANCH 55 56
BRANCH 55 59
ATOM     59  CB  GLN B   6       1.044 -17.978  23.768  1.00 31.03 LIG 0.04  C 
BRANCH 59 60
ATOM     60  CG  GLN B   6       0.552 -17.118  24.905  1.00 39.52 LIG 0.10  C 
BRANCH 60 61
ATOM     61  CD  GLN B   6       0.284 -17.944  26.143  1.00 49.24 LIG 0.21  C 
ATOM     62  NE2 GLN B   6       1.175 -18.887  26.425  1.00 50.05 LIG-0.37  N 
ATOM     63 21HE GLN B   6       1.848 -19.011  25.905  1.00 50.05 LIG 0.16  HD
ATOM     64 22HE GLN B   6       1.078 -19.373  27.127  1.00 50.05 LIG 0.16  HD
ATOM     65 OE1  GLN B   6      -0.703 -17.722  26.855  1.00 58.78 LIG-0.27  OA
ENDBRANCH 60 61
ENDBRANCH 59 60
ENDBRANCH 55 59
ENDBRANCH 52 55
ENDBRANCH 47 51
ENDBRANCH 45 47
ENDBRANCH 36 43
ENDBRANCH 3 36
TORSDOF 27
ENDMDL
MODEL 13
USER: ADFR SOLUTION from run 40
USER: SCORE 21.707098 LL:  -6.047 LR: -16.942 RR:   0.000 FEB:  -8.888
USER: RMSD 8.412996
USER: SEED 39
USER: STATUS no improvement in best in 3 clusters for 5 generations
USER: GENES 29
USER: genes 0 Translation |==|  0.33865 0.55059 0.43017
USER: genes 1 Rotation |==|  0.42175 0.75137 0.74670 0.84617
USER: genes 2 Torsion [N]-C--CA-[N] |==|  0.06427
USER: genes 3 Torsion [C]-CA--N-[C] |==|  0.18072
USER: genes 4 Torsion [N]-C--CA-[N] |==|  0.38198
USER: genes 5 Torsion [C]-CA--CB-[CG] |==|  0.98525
USER: genes 6 Torsion [CA]-CB--CG-[CD] |==|  0.47065
USER: genes 7 Torsion [CB]-CG--CD-[CE] |==|  0.77824
USER: genes 8 Torsion [CG]-CD--CE-[NZ] |==|  0.32907
USER: genes 9 Torsion [CD]-CE--NZ-[HZ1] |==|  0.54136
USER: genes 10 Torsion [C]-CA--N-[C] |==|  0.81845
USER: genes 11 Torsion [N]-C--CA-[N] |==|  0.13128
USER: genes 12 Torsion [C]-CA--CB-[CG] |==|  0.19320
USER: genes 13 Torsion [CA]-CB--CG-[CD] |==|  0.54550
USER: genes 14 Torsion [CB]-CG--CD-[OE1] |==|  0.98383
USER: genes 15 Torsion [C]-CA--N-[H1] |==|  0.11204
USER: genes 16 Torsion [C]-CA--CB-[CG2] |==|  0.51842
USER: genes 17 Torsion [C]-N--CA-[CB] |==|  0.85359
USER: genes 18 Torsion [N]-CA--CB-[CG] |==|  0.49369
USER: genes 19 Torsion [CA]-CB--CG-[ND1] |==|  0.11614
USER: genes 20 Torsion [N]-CA--C-[N] |==|  0.39934
USER: genes 21 Torsion [C]-N--CA-[CB] |==|  0.24997
USER: genes 22 Torsion [N]-CA--CB-[CG1] |==|  0.34424
USER: genes 23 Torsion [N]-CA--C-[N] |==|  0.38432
USER: genes 24 Torsion [C]-N--CA-[C] |==|  0.72969
USER: genes 25 Torsion [N]-CA--C-[OXT] |==|  0.98539
USER: genes 26 Torsion [N]-CA--CB-[CG] |==|  0.75759
USER: genes 27 Torsion [CA]-CB--CG-[CD] |==|  0.75380
USER: genes 28 Torsion [CB]-CG--CD-[OE1] |==|  0.05606
ROOT
ATOM      1  C   VAL B   3       1.503 -21.434  18.912  1.00 28.64 LIG 0.24  C 
ATOM      2 O    VAL B   3       2.322 -22.111  19.545  1.00 27.24 LIG-0.27  OA
ATOM      3  N   HIS B   4       0.549 -20.508  19.547  1.00 29.63 LIG-0.35  N 
ATOM      4 H    HIS B   4      -0.089 -20.086  19.153  1.00 29.63 LIG 0.16  HD
ENDROOT
BRANCH 1 5
ATOM      5  CA  VAL B   3       1.409 -21.552  17.380  1.00 30.81 LIG 0.18  C 
BRANCH 5 6
ATOM      6  N   VAL B   3       0.788 -20.351  16.838  1.00 30.70 LIG-0.35  N 
ATOM      7 H    VAL B   3       0.026 -20.481  16.463  1.00 30.70 LIG 0.16  HD
ATOM      8  C   LYS B   2       1.381 -19.165  16.934  1.00 38.89 LIG 0.24  C 
ATOM      9 O    LYS B   2       2.445 -18.992  17.541  1.00 35.72 LIG-0.27  OA
BRANCH 8 10
ATOM     10  CA  LYS B   2       0.657 -18.004  16.265  1.00 39.86 LIG 0.18  C 
BRANCH 10 11
ATOM     11  CB  LYS B   2       1.244 -17.736  14.864  1.00 33.57 LIG 0.04  C 
BRANCH 11 12
ATOM     12  CG  LYS B   2       2.478 -18.611  14.560  1.00 34.54 LIG 0.00  C 
BRANCH 12 13
ATOM     13  CD  LYS B   2       2.919 -18.553  13.104  1.00 30.34 LIG 0.03  C 
BRANCH 13 14
ATOM     14  CE  LYS B   2       2.090 -19.431  12.187  1.00 26.25 LIG 0.23  C 
BRANCH 14 15
ATOM     15  NZ  LYS B   2       1.395 -18.601  11.148  1.00 28.72 LIG-0.08  N 
ATOM     16 HZ2  LYS B   2       1.033 -17.884  11.532  1.00 28.72 LIG 0.27  HD
ATOM     17 HZ3  LYS B   2       1.983 -18.342  10.532  1.00 28.72 LIG 0.27  HD
ATOM     18 HZ1  LYS B   2       0.756 -19.084  10.761  1.00 28.72 LIG 0.27  HD
ENDBRANCH 14 15
ENDBRANCH 13 14
ENDBRANCH 12 13
ENDBRANCH 11 12
ENDBRANCH 10 11
BRANCH 10 19
ATOM     19  N   LYS B   2       0.706 -16.834  17.147  1.00 40.88 LIG-0.35  N 
ATOM     20  C   GLU B   1       0.069 -16.878  18.321  1.00 50.16 LIG 0.25  C 
ATOM     21 O    GLU B   1      -0.659 -17.821  18.645  1.00 45.73 LIG-0.27  OA
ATOM     22 H    LYS B   2       1.156 -16.163  16.852  1.00 40.88 LIG 0.16  HD
BRANCH 20 23
ATOM     23  CA  GLU B   1       0.243 -15.693  19.274  1.00 56.89 LIG 0.28  C 
BRANCH 23 24
ATOM     24  CB  GLU B   1      -0.712 -15.833  20.457  1.00 44.84 LIG 0.05  C 
BRANCH 24 25
ATOM     25  CG  GLU B   1      -0.354 -16.967  21.405  1.00 43.84 LIG 0.12  C 
BRANCH 25 26
ATOM     26  CD  GLU B   1      -1.500 -17.345  22.331  1.00 58.57 LIG 0.17  C 
ATOM     27 OE1  GLU B   1      -2.539 -16.647  22.308  1.00 59.35 LIG-0.65  OA
ATOM     28 OE2  GLU B   1      -1.360 -18.336  23.084  1.00 59.65 LIG-0.65  OA
ENDBRANCH 25 26
ENDBRANCH 24 25
ENDBRANCH 23 24
BRANCH 23 29
ATOM     29  N   GLU B   1       0.072 -14.406  18.611  1.00 43.96 LIG-0.07  N 
ATOM     30 H1   GLU B   1      -0.604 -14.457  18.035  1.00 43.96 LIG 0.28  HD
ATOM     31 H2   GLU B   1      -0.103 -13.780  19.218  1.00 43.96 LIG 0.28  HD
ATOM     32 H3   GLU B   1       0.817 -14.195  18.174  1.00 43.96 LIG 0.28  HD
ENDBRANCH 23 29
ENDBRANCH 20 23
ENDBRANCH 10 19
ENDBRANCH 8 10
ENDBRANCH 5 6
BRANCH 5 33
ATOM     33  CB  VAL B   3       2.801 -21.777  16.773  1.00 34.43 LIG 0.01  C 
ATOM     34  CG2 VAL B   3       2.725 -21.730  15.267  1.00 33.75 LIG 0.01  C 
ATOM     35  CG1 VAL B   3       3.365 -23.131  17.231  1.00 37.65 LIG 0.01  C 
ENDBRANCH 5 33
ENDBRANCH 1 5
BRANCH 3 36
ATOM     36  CA  HIS B   4       0.694 -20.279  20.984  1.00 28.98 LIG 0.18  C 
BRANCH 36 37
ATOM     37  CB  HIS B   4       0.720 -21.609  21.762  1.00 26.24 LIG 0.10  C 
BRANCH 37 38
ATOM     38  CG  HIS B   4       0.922 -21.429  23.235  1.00 30.41 LIG 0.06  A 
ATOM     39 ND1  HIS B   4       0.290 -20.439  23.959  1.00 34.08 LIG-0.24  NA
ATOM     40  CE1 HIS B   4       0.655 -20.524  25.229  1.00 29.96 LIG 0.23  A 
ATOM     41 NE2  HIS B   4       1.484 -21.545  25.355  1.00 35.16 LIG-0.25  NA
ATOM     42  CD2 HIS B   4       1.666 -22.131  24.125  1.00 34.95 LIG 0.14  A 
ENDBRANCH 37 38
ENDBRANCH 36 37
BRANCH 36 43
ATOM     43  C   HIS B   4       1.915 -19.441  21.323  1.00 27.46 LIG 0.24  C 
ATOM     44 O    HIS B   4       3.006 -19.658  20.787  1.00 25.24 LIG-0.27  OA
ATOM     45  N   VAL B   5       1.818 -18.630  22.271  1.00 26.31 LIG-0.35  N 
ATOM     46 H    VAL B   5       1.083 -18.444  22.679  1.00 26.31 LIG 0.16  HD
BRANCH 45 47
ATOM     47  CA  VAL B   5       2.998 -17.912  22.771  1.00 25.23 LIG 0.18  C 
BRANCH 47 48
ATOM     48  CB  VAL B   5       3.198 -16.572  22.023  1.00 26.56 LIG 0.01  C 
ATOM     49  CG2 VAL B   5       4.472 -16.613  21.193  1.00 31.17 LIG 0.01  C 
ATOM     50  CG1 VAL B   5       3.243 -15.403  22.978  1.00 34.68 LIG 0.01  C 
ENDBRANCH 47 48
BRANCH 47 51
ATOM     51  C   VAL B   5       2.915 -17.692  24.274  1.00 27.03 LIG 0.24  C 
ATOM     52  N   GLN B   6       4.033 -17.878  24.965  1.00 26.89 LIG-0.34  N 
ATOM     53 H    GLN B   6       4.787 -18.118  24.629  1.00 26.89 LIG 0.16  HD
ATOM     54 O    VAL B   5       1.853 -17.341  24.809  1.00 28.01 LIG-0.27  OA
BRANCH 52 55
ATOM     55  CA  GLN B   6       4.027 -17.670  26.416  1.00 25.51 LIG 0.19  C 
BRANCH 55 56
ATOM     56  C   GLN B   6       4.545 -16.283  26.781  1.00 28.77 LIG 0.20  C 
ATOM     57 OXT  GLN B   6       5.004 -15.503  25.923  1.00 27.06 LIG-0.65  OA
ATOM     58 O    GLN B   6       4.539 -15.922  27.971  1.00 25.73 LIG-0.65  OA
ENDBRANCH 55 56
BRANCH 55 59
ATOM     59  CB  GLN B   6       4.899 -18.708  27.118  1.00 31.03 LIG 0.04  C 
BRANCH 59 60
ATOM     60  CG  GLN B   6       4.192 -19.994  27.465  1.00 39.52 LIG 0.10  C 
BRANCH 60 61
ATOM     61  CD  GLN B   6       3.541 -19.912  28.828  1.00 49.24 LIG 0.21  C 
ATOM     62  NE2 GLN B   6       3.282 -21.067  29.427  1.00 50.05 LIG-0.37  N 
ATOM     63 21HE GLN B   6       3.468 -21.808  29.031  1.00 50.05 LIG 0.16  HD
ATOM     64 22HE GLN B   6       2.928 -21.075  30.211  1.00 50.05 LIG 0.16  HD
ATOM     65 OE1  GLN B   6       3.295 -18.818  29.350  1.00 58.78 LIG-0.27  OA
ENDBRANCH 60 61
ENDBRANCH 59 60
ENDBRANCH 55 59
ENDBRANCH 52 55
ENDBRANCH 47 51
ENDBRANCH 45 47
ENDBRANCH 36 43
ENDBRANCH 3 36
TORSDOF 27
ENDMDL
MODEL 14
USER: ADFR SOLUTION from run 162
USER: SCORE 19.220464 LL:  -5.617 LR: -16.725 RR:   0.000 FEB:  -8.671
USER: RMSD 9.778025
USER: SEED 161
USER: STATUS no improvement in best in 3 clusters for 5 generations
USER: GENES 29
USER: genes 0 Translation |==|  0.26434 0.62447 0.46690
USER: genes 1 Rotation |==|  0.43411 0.04682 0.55719 0.69240
USER: genes 2 Torsion [N]-C--CA-[N] |==|  0.65311
USER: genes 3 Torsion [C]-CA--N-[C] |==|  0.77374
USER: genes 4 Torsion [N]-C--CA-[N] |==|  0.10358
USER: genes 5 Torsion [C]-CA--CB-[CG] |==|  0.61073
USER: genes 6 Torsion [CA]-CB--CG-[CD] |==|  0.46135
USER: genes 7 Torsion [CB]-CG--CD-[CE] |==|  0.70419
USER: genes 8 Torsion [CG]-CD--CE-[NZ] |==|  0.35874
USER: genes 9 Torsion [CD]-CE--NZ-[HZ1] |==|  0.13664
USER: genes 10 Torsion [C]-CA--N-[C] |==|  0.17658
USER: genes 11 Torsion [N]-C--CA-[N] |==|  0.82774
USER: genes 12 Torsion [C]-CA--CB-[CG] |==|  0.28039
USER: genes 13 Torsion [CA]-CB--CG-[CD] |==|  0.91201
USER: genes 14 Torsion [CB]-CG--CD-[OE1] |==|  0.35553
USER: genes 15 Torsion [C]-CA--N-[H1] |==|  0.48564
USER: genes 16 Torsion [C]-CA--CB-[CG2] |==|  0.68472
USER: genes 17 Torsion [C]-N--CA-[CB] |==|  0.44475
USER: genes 18 Torsion [N]-CA--CB-[CG] |==|  0.00003
USER: genes 19 Torsion [CA]-CB--CG-[ND1] |==|  0.24955
USER: genes 20 Torsion [N]-CA--C-[N] |==|  0.86331
USER: genes 21 Torsion [C]-N--CA-[CB] |==|  0.79303
USER: genes 22 Torsion [N]-CA--CB-[CG1] |==|  0.56701
USER: genes 23 Torsion [N]-CA--C-[N] |==|  0.14385
USER: genes 24 Torsion [C]-N--CA-[C] |==|  0.67766
USER: genes 25 Torsion [N]-CA--C-[OXT] |==|  0.10772
USER: genes 26 Torsion [N]-CA--CB-[CG] |==|  0.64805
USER: genes 27 Torsion [CA]-CB--CG-[CD] |==|  0.13397
USER: genes 28 Torsion [CB]-CG--CD-[OE1] |==|  0.11593
ROOT
ATOM      1  C   VAL B   3       0.165 -19.716  19.738  1.00 28.64 LIG 0.24  C 
ATOM      2 O    VAL B   3       0.458 -20.808  19.235  1.00 27.24 LIG-0.27  OA
ATOM      3  N   HIS B   4       0.108 -18.458  18.974  1.00 29.63 LIG-0.35  N 
ATOM      4 H    HIS B   4      -0.007 -17.670  19.299  1.00 29.63 LIG 0.16  HD
ENDROOT
BRANCH 1 5
ATOM      5  CA  VAL B   3      -0.131 -19.604  21.244  1.00 30.81 LIG 0.18  C 
BRANCH 5 6
ATOM      6  N   VAL B   3       0.977 -20.170  22.000  1.00 30.70 LIG-0.35  N 
ATOM      7 H    VAL B   3       1.537 -19.591  22.302  1.00 30.70 LIG 0.16  HD
ATOM      8  C   LYS B   2       1.083 -21.481  22.191  1.00 38.89 LIG 0.24  C 
ATOM      9 O    LYS B   2       0.226 -22.287  21.809  1.00 35.72 LIG-0.27  OA
BRANCH 8 10
ATOM     10  CA  LYS B   2       2.325 -21.946  22.940  1.00 39.86 LIG 0.18  C 
BRANCH 10 11
ATOM     11  CB  LYS B   2       2.130 -23.380  23.472  1.00 33.57 LIG 0.04  C 
BRANCH 11 12
ATOM     12  CG  LYS B   2       2.715 -23.573  24.886  1.00 34.54 LIG 0.00  C 
BRANCH 12 13
ATOM     13  CD  LYS B   2       2.251 -24.855  25.566  1.00 30.34 LIG 0.03  C 
BRANCH 13 14
ATOM     14  CE  LYS B   2       1.243 -24.618  26.673  1.00 26.25 LIG 0.23  C 
BRANCH 14 15
ATOM     15  NZ  LYS B   2       0.040 -25.497  26.489  1.00 28.72 LIG-0.08  N 
ATOM     16 HZ2  LYS B   2      -0.467 -25.464  27.220  1.00 28.72 LIG 0.27  HD
ATOM     17 HZ3  LYS B   2      -0.431 -25.213  25.789  1.00 28.72 LIG 0.27  HD
ATOM     18 HZ1  LYS B   2       0.303 -26.335  26.348  1.00 28.72 LIG 0.27  HD
ENDBRANCH 14 15
ENDBRANCH 13 14
ENDBRANCH 12 13
ENDBRANCH 11 12
ENDBRANCH 10 11
BRANCH 10 19
ATOM     19  N   LYS B   2       2.645 -20.975  23.992  1.00 40.88 LIG-0.35  N 
ATOM     20  C   GLU B   1       1.775 -20.786  24.988  1.00 50.16 LIG 0.25  C 
ATOM     21 O    GLU B   1       0.657 -21.308  25.000  1.00 45.73 LIG-0.27  OA
ATOM     22 H    LYS B   2       3.399 -20.569  23.906  1.00 40.88 LIG 0.16  HD
BRANCH 20 23
ATOM     23  CA  GLU B   1       2.193 -19.863  26.135  1.00 56.89 LIG 0.28  C 
BRANCH 23 24
ATOM     24  CB  GLU B   1       2.422 -18.448  25.606  1.00 44.84 LIG 0.05  C 
BRANCH 24 25
ATOM     25  CG  GLU B   1       1.265 -17.497  25.872  1.00 43.84 LIG 0.12  C 
BRANCH 25 26
ATOM     26  CD  GLU B   1      -0.085 -18.198  25.876  1.00 58.57 LIG 0.17  C 
ATOM     27 OE1  GLU B   1      -0.842 -18.024  26.859  1.00 59.35 LIG-0.65  OA
ATOM     28 OE2  GLU B   1      -0.387 -18.923  24.902  1.00 59.65 LIG-0.65  OA
ENDBRANCH 25 26
ENDBRANCH 24 25
ENDBRANCH 23 24
BRANCH 23 29
ATOM     29  N   GLU B   1       3.363 -20.350  26.854  1.00 43.96 LIG-0.07  N 
ATOM     30 H1   GLU B   1       3.612 -19.747  27.460  1.00 43.96 LIG 0.28  HD
ATOM     31 H2   GLU B   1       3.163 -21.115  27.263  1.00 43.96 LIG 0.28  HD
ATOM     32 H3   GLU B   1       4.029 -20.486  26.281  1.00 43.96 LIG 0.28  HD
ENDBRANCH 23 29
ENDBRANCH 20 23
ENDBRANCH 10 19
ENDBRANCH 8 10
ENDBRANCH 5 6
BRANCH 5 33
ATOM     33  CB  VAL B   3      -0.377 -18.140  21.635  1.00 34.43 LIG 0.01  C 
ATOM     34  CG2 VAL B   3       0.725 -17.651  22.542  1.00 33.75 LIG 0.01  C 
ATOM     35  CG1 VAL B   3      -1.737 -18.001  22.336  1.00 37.65 LIG 0.01  C 
ENDBRANCH 5 33
ENDBRANCH 1 5
BRANCH 3 36
ATOM     36  CA  HIS B   4       0.262 -18.549  17.522  1.00 28.98 LIG 0.18  C 
BRANCH 36 37
ATOM     37  CB  HIS B   4      -0.294 -17.294  16.823  1.00 26.24 LIG 0.10  C 
BRANCH 37 38
ATOM     38  CG  HIS B   4      -0.856 -16.285  17.776  1.00 30.41 LIG 0.06  A 
ATOM     39 ND1  HIS B   4      -0.093 -15.278  18.332  1.00 34.08 LIG-0.24  NA
ATOM     40  CE1 HIS B   4      -0.852 -14.542  19.128  1.00 29.96 LIG 0.23  A 
ATOM     41 NE2  HIS B   4      -2.081 -15.024  19.092  1.00 35.16 LIG-0.25  NA
ATOM     42  CD2 HIS B   4      -2.114 -16.111  18.252  1.00 34.95 LIG 0.14  A 
ENDBRANCH 37 38
ENDBRANCH 36 37
BRANCH 36 43
ATOM     43  C   HIS B   4       1.700 -18.799  17.100  1.00 27.46 LIG 0.24  C 
ATOM     44 O    HIS B   4       2.001 -19.781  16.414  1.00 25.24 LIG-0.27  OA
ATOM     45  N   VAL B   5       2.587 -18.068  17.595  1.00 26.31 LIG-0.35  N 
ATOM     46 H    VAL B   5       2.430 -17.375  18.080  1.00 26.31 LIG 0.16  HD
BRANCH 45 47
ATOM     47  CA  VAL B   5       4.009 -18.356  17.374  1.00 25.23 LIG 0.18  C 
BRANCH 47 48
ATOM     48  CB  VAL B   5       4.474 -19.567  18.217  1.00 26.56 LIG 0.01  C 
ATOM     49  CG2 VAL B   5       3.723 -19.612  19.539  1.00 31.17 LIG 0.01  C 
ATOM     50  CG1 VAL B   5       5.963 -19.530  18.472  1.00 34.68 LIG 0.01  C 
ENDBRANCH 47 48
BRANCH 47 51
ATOM     51  C   VAL B   5       4.304 -18.574  15.897  1.00 27.03 LIG 0.24  C 
ATOM     52  N   GLN B   6       3.881 -17.633  15.061  1.00 26.89 LIG-0.34  N 
ATOM     53 H    GLN B   6       3.452 -16.924  15.291  1.00 26.89 LIG 0.16  HD
ATOM     54 O    VAL B   5       4.924 -19.576  15.512  1.00 28.01 LIG-0.27  OA
BRANCH 52 55
ATOM     55  CA  GLN B   6       4.144 -17.772  13.626  1.00 25.51 LIG 0.19  C 
BRANCH 55 56
ATOM     56  C   GLN B   6       5.056 -16.661  13.117  1.00 28.77 LIG 0.20  C 
ATOM     57 OXT  GLN B   6       6.016 -16.235  13.790  1.00 27.06 LIG-0.65  OA
ATOM     58 O    GLN B   6       4.826 -16.140  12.011  1.00 25.73 LIG-0.65  OA
ENDBRANCH 55 56
BRANCH 55 59
ATOM     59  CB  GLN B   6       2.843 -17.729  12.828  1.00 31.03 LIG 0.04  C 
BRANCH 59 60
ATOM     60  CG  GLN B   6       2.638 -18.893  11.892  1.00 39.52 LIG 0.10  C 
BRANCH 60 61
ATOM     61  CD  GLN B   6       2.898 -20.210  12.589  1.00 49.24 LIG 0.21  C 
ATOM     62  NE2 GLN B   6       3.595 -21.110  11.906  1.00 50.05 LIG-0.37  N 
ATOM     63 21HE GLN B   6       3.856 -20.934  11.106  1.00 50.05 LIG 0.16  HD
ATOM     64 22HE GLN B   6       3.784 -21.869  12.264  1.00 50.05 LIG 0.16  HD
ATOM     65 OE1  GLN B   6       2.496 -20.409  13.742  1.00 58.78 LIG-0.27  OA
ENDBRANCH 60 61
ENDBRANCH 59 60
ENDBRANCH 55 59
ENDBRANCH 52 55
ENDBRANCH 47 51
ENDBRANCH 45 47
ENDBRANCH 36 43
ENDBRANCH 3 36
TORSDOF 27
ENDMDL
MODEL 15
USER: ADFR SOLUTION from run 138
USER: SCORE 19.144817 LL:  -4.315 LR: -16.679 RR:   0.000 FEB:  -8.625
USER: RMSD 11.620600
USER: SEED 137
USER: STATUS no improvement in best in 8 clusters for 5 generations
USER: GENES 29
USER: genes 0 Translation |==|  0.42559 0.69589 0.38825
USER: genes 1 Rotation |==|  0.40952 0.98309 0.48569 0.59074
USER: genes 2 Torsion [N]-C--CA-[N] |==|  0.84953
USER: genes 3 Torsion [C]-CA--N-[C] |==|  0.57321
USER: genes 4 Torsion [N]-C--CA-[N] |==|  0.85712
USER: genes 5 Torsion [C]-CA--CB-[CG] |==|  0.64963
USER: genes 6 Torsion [CA]-CB--CG-[CD] |==|  0.43011
USER: genes 7 Torsion [CB]-CG--CD-[CE] |==|  0.61853
USER: genes 8 Torsion [CG]-CD--CE-[NZ] |==|  0.14218
USER: genes 9 Torsion [CD]-CE--NZ-[HZ1] |==|  0.14302
USER: genes 10 Torsion [C]-CA--N-[C] |==|  0.85681
USER: genes 11 Torsion [N]-C--CA-[N] |==|  0.92690
USER: genes 12 Torsion [C]-CA--CB-[CG] |==|  0.09423
USER: genes 13 Torsion [CA]-CB--CG-[CD] |==|  0.71989
USER: genes 14 Torsion [CB]-CG--CD-[OE1] |==|  0.74319
USER: genes 15 Torsion [C]-CA--N-[H1] |==|  0.02220
USER: genes 16 Torsion [C]-CA--CB-[CG2] |==|  0.76523
USER: genes 17 Torsion [C]-N--CA-[CB] |==|  0.87197
USER: genes 18 Torsion [N]-CA--CB-[CG] |==|  0.58000
USER: genes 19 Torsion [CA]-CB--CG-[ND1] |==|  0.18750
USER: genes 20 Torsion [N]-CA--C-[N] |==|  0.85790
USER: genes 21 Torsion [C]-N--CA-[CB] |==|  0.79996
USER: genes 22 Torsion [N]-CA--CB-[CG1] |==|  0.55237
USER: genes 23 Torsion [N]-CA--C-[N] |==|  0.24409
USER: genes 24 Torsion [C]-N--CA-[C] |==|  0.17298
USER: genes 25 Torsion [N]-CA--C-[OXT] |==|  0.16853
USER: genes 26 Torsion [N]-CA--CB-[CG] |==|  0.79299
USER: genes 27 Torsion [CA]-CB--CG-[CD] |==|  0.98484
USER: genes 28 Torsion [CB]-CG--CD-[OE1] |==|  0.27957
ROOT
ATOM      1  C   VAL B   3       3.068 -18.056  17.969  1.00 28.64 LIG 0.24  C 
ATOM      2 O    VAL B   3       4.208 -18.504  18.144  1.00 27.24 LIG-0.27  OA
ATOM      3  N   HIS B   4       2.796 -16.715  17.422  1.00 29.63 LIG-0.35  N 
ATOM      4 H    HIS B   4       2.026 -16.336  17.364  1.00 29.63 LIG 0.16  HD
ENDROOT
BRANCH 1 5
ATOM      5  CA  VAL B   3       1.833 -18.887  18.357  1.00 30.81 LIG 0.18  C 
BRANCH 5 6
ATOM      6  N   VAL B   3       1.000 -18.121  19.274  1.00 30.70 LIG-0.35  N 
ATOM      7 H    VAL B   3       1.076 -17.268  19.199  1.00 30.70 LIG 0.16  HD
ATOM      8  C   LYS B   2       0.199 -18.725  20.146  1.00 38.89 LIG 0.24  C 
ATOM      9 O    LYS B   2       0.054 -19.953  20.187  1.00 35.72 LIG-0.27  OA
BRANCH 8 10
ATOM     10  CA  LYS B   2      -0.565 -17.809  21.093  1.00 39.86 LIG 0.18  C 
BRANCH 10 11
ATOM     11  CB  LYS B   2      -1.708 -17.092  20.348  1.00 33.57 LIG 0.04  C 
BRANCH 11 12
ATOM     12  CG  LYS B   2      -1.652 -15.559  20.509  1.00 34.54 LIG 0.00  C 
BRANCH 12 13
ATOM     13  CD  LYS B   2      -2.323 -14.803  19.370  1.00 30.34 LIG 0.03  C 
BRANCH 13 14
ATOM     14  CE  LYS B   2      -1.535 -13.597  18.899  1.00 26.25 LIG 0.23  C 
BRANCH 14 15
ATOM     15  NZ  LYS B   2      -0.112 -13.977  18.608  1.00 28.72 LIG-0.08  N 
ATOM     16 HZ2  LYS B   2       0.304 -13.293  18.218  1.00 28.72 LIG 0.27  HD
ATOM     17 HZ3  LYS B   2       0.303 -14.181  19.368  1.00 28.72 LIG 0.27  HD
ATOM     18 HZ1  LYS B   2      -0.098 -14.681  18.065  1.00 28.72 LIG 0.27  HD
ENDBRANCH 14 15
ENDBRANCH 13 14
ENDBRANCH 12 13
ENDBRANCH 11 12
ENDBRANCH 10 11
BRANCH 10 19
ATOM     19  N   LYS B   2       0.378 -16.887  21.735  1.00 40.88 LIG-0.35  N 
ATOM     20  C   GLU B   1       1.467 -17.381  22.332  1.00 50.16 LIG 0.25  C 
ATOM     21 O    GLU B   1       1.655 -18.594  22.468  1.00 45.73 LIG-0.27  OA
ATOM     22 H    LYS B   2       0.171 -16.053  21.691  1.00 40.88 LIG 0.16  HD
BRANCH 20 23
ATOM     23  CA  GLU B   1       2.494 -16.389  22.880  1.00 56.89 LIG 0.28  C 
BRANCH 23 24
ATOM     24  CB  GLU B   1       2.281 -16.197  24.380  1.00 44.84 LIG 0.05  C 
BRANCH 24 25
ATOM     25  CG  GLU B   1       1.802 -17.449  25.099  1.00 43.84 LIG 0.12  C 
BRANCH 25 26
ATOM     26  CD  GLU B   1       0.306 -17.435  25.374  1.00 58.57 LIG 0.17  C 
ATOM     27 OE1  GLU B   1      -0.093 -16.985  26.472  1.00 59.35 LIG-0.65  OA
ATOM     28 OE2  GLU B   1      -0.468 -17.878  24.495  1.00 59.65 LIG-0.65  OA
ENDBRANCH 25 26
ENDBRANCH 24 25
ENDBRANCH 23 24
BRANCH 23 29
ATOM     29  N   GLU B   1       2.474 -15.111  22.179  1.00 43.96 LIG-0.07  N 
ATOM     30 H1   GLU B   1       1.781 -15.089  21.622  1.00 43.96 LIG 0.28  HD
ATOM     31 H2   GLU B   1       2.400 -14.449  22.770  1.00 43.96 LIG 0.28  HD
ATOM     32 H3   GLU B   1       3.228 -15.013  21.718  1.00 43.96 LIG 0.28  HD
ENDBRANCH 23 29
ENDBRANCH 20 23
ENDBRANCH 10 19
ENDBRANCH 8 10
ENDBRANCH 5 6
BRANCH 5 33
ATOM     33  CB  VAL B   3       1.044 -19.296  17.105  1.00 34.43 LIG 0.01  C 
ATOM     34  CG2 VAL B   3       0.103 -18.190  16.699  1.00 33.75 LIG 0.01  C 
ATOM     35  CG1 VAL B   3       0.257 -20.587  17.373  1.00 37.65 LIG 0.01  C 
ENDBRANCH 5 33
ENDBRANCH 1 5
BRANCH 3 36
ATOM     36  CA  HIS B   4       3.940 -15.949  16.927  1.00 28.98 LIG 0.18  C 
BRANCH 36 37
ATOM     37  CB  HIS B   4       5.116 -15.997  17.921  1.00 26.24 LIG 0.10  C 
BRANCH 37 38
ATOM     38  CG  HIS B   4       5.989 -14.781  17.864  1.00 30.41 LIG 0.06  A 
ATOM     39 ND1  HIS B   4       5.556 -13.533  18.261  1.00 34.08 LIG-0.24  NA
ATOM     40  CE1 HIS B   4       6.537 -12.658  18.102  1.00 29.96 LIG 0.23  A 
ATOM     41 NE2  HIS B   4       7.593 -13.299  17.636  1.00 35.16 LIG-0.25  NA
ATOM     42  CD2 HIS B   4       7.281 -14.629  17.481  1.00 34.95 LIG 0.14  A 
ENDBRANCH 37 38
ENDBRANCH 36 37
BRANCH 36 43
ATOM     43  C   HIS B   4       4.392 -16.397  15.547  1.00 27.46 LIG 0.24  C 
ATOM     44 O    HIS B   4       4.407 -15.611  14.594  1.00 25.24 LIG-0.27  OA
ATOM     45  N   VAL B   5       4.600 -17.619  15.372  1.00 26.31 LIG-0.35  N 
ATOM     46 H    VAL B   5       4.600 -18.207  16.001  1.00 26.31 LIG 0.16  HD
BRANCH 45 47
ATOM     47  CA  VAL B   5       4.869 -18.152  14.031  1.00 25.23 LIG 0.18  C 
BRANCH 47 48
ATOM     48  CB  VAL B   5       3.591 -18.147  13.158  1.00 26.56 LIG 0.01  C 
ATOM     49  CG2 VAL B   5       2.378 -18.528  13.994  1.00 31.17 LIG 0.01  C 
ATOM     50  CG1 VAL B   5       3.719 -19.081  11.978  1.00 34.68 LIG 0.01  C 
ENDBRANCH 47 48
BRANCH 47 51
ATOM     51  C   VAL B   5       5.998 -17.390  13.351  1.00 27.03 LIG 0.24  C 
ATOM     52  N   GLN B   6       7.231 -17.825  13.580  1.00 26.89 LIG-0.34  N 
ATOM     53 H    GLN B   6       7.434 -18.492  14.083  1.00 26.89 LIG 0.16  HD
ATOM     54 O    VAL B   5       5.759 -16.424  12.611  1.00 28.01 LIG-0.27  OA
BRANCH 52 55
ATOM     55  CA  GLN B   6       8.364 -17.146  12.945  1.00 25.51 LIG 0.19  C 
BRANCH 55 56
ATOM     56  C   GLN B   6       8.469 -15.694  13.398  1.00 28.77 LIG 0.20  C 
ATOM     57 OXT  GLN B   6       8.642 -15.386  14.595  1.00 27.06 LIG-0.65  OA
ATOM     58 O    GLN B   6       8.350 -14.782  12.561  1.00 25.73 LIG-0.65  OA
ENDBRANCH 55 56
BRANCH 55 59
ATOM     59  CB  GLN B   6       8.229 -17.166  11.425  1.00 31.03 LIG 0.04  C 
BRANCH 59 60
ATOM     60  CG  GLN B   6       8.518 -18.500  10.783  1.00 39.52 LIG 0.10  C 
BRANCH 60 61
ATOM     61  CD  GLN B   6       9.013 -19.503  11.801  1.00 49.24 LIG 0.21  C 
ATOM     62  NE2 GLN B   6      10.283 -19.388  12.171  1.00 50.05 LIG-0.37  N 
ATOM     63 21HE GLN B   6      10.778 -18.778  11.821  1.00 50.05 LIG 0.16  HD
ATOM     64 22HE GLN B   6      10.609 -19.923  12.759  1.00 50.05 LIG 0.16  HD
ATOM     65 OE1  GLN B   6       8.255 -20.361  12.270  1.00 58.78 LIG-0.27  OA
ENDBRANCH 60 61
ENDBRANCH 59 60
ENDBRANCH 55 59
ENDBRANCH 52 55
ENDBRANCH 47 51
ENDBRANCH 45 47
ENDBRANCH 36 43
ENDBRANCH 3 36
TORSDOF 27
ENDMDL
MODEL 16
USER: ADFR SOLUTION from run 79
USER: SCORE 20.570849 LL:  -6.133 LR: -16.672 RR:   0.000 FEB:  -8.618
USER: RMSD 8.684348
USER: SEED 78
USER: STATUS no improvement in best in 5 clusters for 5 generations
USER: GENES 29
USER: genes 0 Translation |==|  0.33246 0.56229 0.48557
USER: genes 1 Rotation |==|  0.66585 0.84266 0.42529 0.81543
USER: genes 2 Torsion [N]-C--CA-[N] |==|  0.87074
USER: genes 3 Torsion [C]-CA--N-[C] |==|  0.83444
USER: genes 4 Torsion [N]-C--CA-[N] |==|  0.66522
USER: genes 5 Torsion [C]-CA--CB-[CG] |==|  0.45427
USER: genes 6 Torsion [CA]-CB--CG-[CD] |==|  0.86071
USER: genes 7 Torsion [CB]-CG--CD-[CE] |==|  0.48890
USER: genes 8 Torsion [CG]-CD--CE-[NZ] |==|  0.78944
USER: genes 9 Torsion [CD]-CE--NZ-[HZ1] |==|  0.14344
USER: genes 10 Torsion [C]-CA--N-[C] |==|  0.19313
USER: genes 11 Torsion [N]-C--CA-[N] |==|  0.77404
USER: genes 12 Torsion [C]-CA--CB-[CG] |==|  0.12878
USER: genes 13 Torsion [CA]-CB--CG-[CD] |==|  0.59178
USER: genes 14 Torsion [CB]-CG--CD-[OE1] |==|  0.37288
USER: genes 15 Torsion [C]-CA--N-[H1] |==|  0.67502
USER: genes 16 Torsion [C]-CA--CB-[CG2] |==|  0.04564
USER: genes 17 Torsion [C]-N--CA-[CB] |==|  0.26111
USER: genes 18 Torsion [N]-CA--CB-[CG] |==|  0.11896
USER: genes 19 Torsion [CA]-CB--CG-[ND1] |==|  0.08678
USER: genes 20 Torsion [N]-CA--C-[N] |==|  0.55930
USER: genes 21 Torsion [C]-N--CA-[CB] |==|  0.84382
USER: genes 22 Torsion [N]-CA--CB-[CG1] |==|  0.39340
USER: genes 23 Torsion [N]-CA--C-[N] |==|  0.40762
USER: genes 24 Torsion [C]-N--CA-[C] |==|  0.75573
USER: genes 25 Torsion [N]-CA--C-[OXT] |==|  0.56057
USER: genes 26 Torsion [N]-CA--CB-[CG] |==|  0.72011
USER: genes 27 Torsion [CA]-CB--CG-[CD] |==|  0.93359
USER: genes 28 Torsion [CB]-CG--CD-[OE1] |==|  0.82281
ROOT
ATOM      1  C   VAL B   3       1.391 -21.162  20.158  1.00 28.64 LIG 0.24  C 
ATOM      2 O    VAL B   3       1.032 -22.157  20.800  1.00 27.24 LIG-0.27  OA
ATOM      3  N   HIS B   4       2.623 -20.407  20.450  1.00 29.63 LIG-0.35  N 
ATOM      4 H    HIS B   4       2.863 -19.666  20.086  1.00 29.63 LIG 0.16  HD
ENDROOT
BRANCH 1 5
ATOM      5  CA  VAL B   3       0.526 -20.620  19.007  1.00 30.81 LIG 0.18  C 
BRANCH 5 6
ATOM      6  N   VAL B   3       0.370 -19.179  19.153  1.00 30.70 LIG-0.35  N 
ATOM      7 H    VAL B   3       0.665 -18.718  18.490  1.00 30.70 LIG 0.16  HD
ATOM      8  C   LYS B   2      -0.188 -18.653  20.239  1.00 38.89 LIG 0.24  C 
ATOM      9 O    LYS B   2      -0.670 -19.340  21.148  1.00 35.72 LIG-0.27  OA
BRANCH 8 10
ATOM     10  CA  LYS B   2      -0.227 -17.131  20.296  1.00 39.86 LIG 0.18  C 
BRANCH 10 11
ATOM     11  CB  LYS B   2       0.307 -16.527  18.982  1.00 33.57 LIG 0.04  C 
BRANCH 11 12
ATOM     12  CG  LYS B   2      -0.075 -15.043  18.813  1.00 34.54 LIG 0.00  C 
BRANCH 12 13
ATOM     13  CD  LYS B   2      -1.557 -14.768  19.032  1.00 30.34 LIG 0.03  C 
BRANCH 13 14
ATOM     14  CE  LYS B   2      -1.914 -13.296  18.960  1.00 26.25 LIG 0.23  C 
BRANCH 14 15
ATOM     15  NZ  LYS B   2      -1.488 -12.588  20.213  1.00 28.72 LIG-0.08  N 
ATOM     16 HZ2  LYS B   2      -1.593 -11.710  20.108  1.00 28.72 LIG 0.27  HD
ATOM     17 HZ3  LYS B   2      -1.987 -12.866  20.896  1.00 28.72 LIG 0.27  HD
ATOM     18 HZ1  LYS B   2      -0.633 -12.766  20.379  1.00 28.72 LIG 0.27  HD
ENDBRANCH 14 15
ENDBRANCH 13 14
ENDBRANCH 12 13
ENDBRANCH 11 12
ENDBRANCH 10 11
BRANCH 10 19
ATOM     19  N   LYS B   2       0.503 -16.676  21.483  1.00 40.88 LIG-0.35  N 
ATOM     20  C   GLU B   1       1.831 -16.816  21.524  1.00 50.16 LIG 0.25  C 
ATOM     21 O    GLU B   1       2.460 -17.421  20.650  1.00 45.73 LIG-0.27  OA
ATOM     22 H    LYS B   2       0.021 -16.333  22.108  1.00 40.88 LIG 0.16  HD
BRANCH 20 23
ATOM     23  CA  GLU B   1       2.577 -16.217  22.717  1.00 56.89 LIG 0.28  C 
BRANCH 23 24
ATOM     24  CB  GLU B   1       1.820 -16.520  24.009  1.00 44.84 LIG 0.05  C 
BRANCH 24 25
ATOM     25  CG  GLU B   1       1.364 -17.966  24.130  1.00 43.84 LIG 0.12  C 
BRANCH 25 26
ATOM     26  CD  GLU B   1       0.047 -18.108  24.878  1.00 58.57 LIG 0.17  C 
ATOM     27 OE1  GLU B   1      -0.831 -18.860  24.397  1.00 59.35 LIG-0.65  OA
ATOM     28 OE2  GLU B   1      -0.110 -17.466  25.941  1.00 59.65 LIG-0.65  OA
ENDBRANCH 25 26
ENDBRANCH 24 25
ENDBRANCH 23 24
BRANCH 23 29
ATOM     29  N   GLU B   1       2.818 -14.787  22.573  1.00 43.96 LIG-0.07  N 
ATOM     30 H1   GLU B   1       3.694 -14.634  22.546  1.00 43.96 LIG 0.28  HD
ATOM     31 H2   GLU B   1       2.443 -14.497  21.820  1.00 43.96 LIG 0.28  HD
ATOM     32 H3   GLU B   1       2.464 -14.354  23.265  1.00 43.96 LIG 0.28  HD
ENDBRANCH 23 29
ENDBRANCH 20 23
ENDBRANCH 10 19
ENDBRANCH 8 10
ENDBRANCH 5 6
BRANCH 5 33
ATOM     33  CB  VAL B   3       1.153 -20.974  17.651  1.00 34.43 LIG 0.01  C 
ATOM     34  CG2 VAL B   3       2.181 -22.064  17.823  1.00 33.75 LIG 0.01  C 
ATOM     35  CG1 VAL B   3       1.803 -19.729  17.028  1.00 37.65 LIG 0.01  C 
ENDBRANCH 5 33
ENDBRANCH 1 5
BRANCH 3 36
ATOM     36  CA  HIS B   4       3.528 -20.966  21.453  1.00 28.98 LIG 0.18  C 
BRANCH 36 37
ATOM     37  CB  HIS B   4       4.624 -21.828  20.798  1.00 26.24 LIG 0.10  C 
BRANCH 37 38
ATOM     38  CG  HIS B   4       5.202 -21.210  19.561  1.00 30.41 LIG 0.06  A 
ATOM     39 ND1  HIS B   4       5.303 -19.846  19.386  1.00 34.08 LIG-0.24  NA
ATOM     40  CE1 HIS B   4       5.852 -19.595  18.208  1.00 29.96 LIG 0.23  A 
ATOM     41 NE2  HIS B   4       6.126 -20.747  17.624  1.00 35.16 LIG-0.25  NA
ATOM     42  CD2 HIS B   4       5.734 -21.775  18.449  1.00 34.95 LIG 0.14  A 
ENDBRANCH 37 38
ENDBRANCH 36 37
BRANCH 36 43
ATOM     43  C   HIS B   4       4.151 -19.900  22.339  1.00 27.46 LIG 0.24  C 
ATOM     44 O    HIS B   4       3.711 -18.745  22.352  1.00 25.24 LIG-0.27  OA
ATOM     45  N   VAL B   5       5.213 -20.187  22.936  1.00 26.31 LIG-0.35  N 
ATOM     46 H    VAL B   5       5.561 -20.973  22.957  1.00 26.31 LIG 0.16  HD
BRANCH 45 47
ATOM     47  CA  VAL B   5       5.965 -19.160  23.669  1.00 25.23 LIG 0.18  C 
BRANCH 47 48
ATOM     48  CB  VAL B   5       6.329 -17.969  22.750  1.00 26.56 LIG 0.01  C 
ATOM     49  CG2 VAL B   5       7.736 -18.138  22.197  1.00 31.17 LIG 0.01  C 
ATOM     50  CG1 VAL B   5       6.217 -16.650  23.478  1.00 34.68 LIG 0.01  C 
ENDBRANCH 47 48
BRANCH 47 51
ATOM     51  C   VAL B   5       5.201 -18.689  24.897  1.00 27.03 LIG 0.24  C 
ATOM     52  N   GLN B   6       5.928 -18.343  25.953  1.00 26.89 LIG-0.34  N 
ATOM     53 H    GLN B   6       6.787 -18.374  25.993  1.00 26.89 LIG 0.16  HD
ATOM     54 O    VAL B   5       3.963 -18.622  24.891  1.00 28.01 LIG-0.27  OA
BRANCH 52 55
ATOM     55  CA  GLN B   6       5.258 -17.867  27.166  1.00 25.51 LIG 0.19  C 
BRANCH 55 56
ATOM     56  C   GLN B   6       5.028 -16.360  27.120  1.00 28.77 LIG 0.20  C 
ATOM     57 OXT  GLN B   6       4.853 -15.688  28.156  1.00 27.06 LIG-0.65  OA
ATOM     58 O    GLN B   6       4.984 -15.781  26.020  1.00 25.73 LIG-0.65  OA
ENDBRANCH 55 56
BRANCH 55 59
ATOM     59  CB  GLN B   6       6.086 -18.189  28.407  1.00 31.03 LIG 0.04  C 
BRANCH 59 60
ATOM     60  CG  GLN B   6       5.618 -19.394  29.183  1.00 39.52 LIG 0.10  C 
BRANCH 60 61
ATOM     61  CD  GLN B   6       4.153 -19.675  28.931  1.00 49.24 LIG 0.21  C 
ATOM     62  NE2 GLN B   6       3.866 -20.838  28.361  1.00 50.05 LIG-0.37  N 
ATOM     63 21HE GLN B   6       4.500 -21.376  28.140  1.00 50.05 LIG 0.16  HD
ATOM     64 22HE GLN B   6       3.047 -21.053  28.211  1.00 50.05 LIG 0.16  HD
ATOM     65 OE1  GLN B   6       3.283 -18.863  29.269  1.00 58.78 LIG-0.27  OA
ENDBRANCH 60 61
ENDBRANCH 59 60
ENDBRANCH 55 59
ENDBRANCH 52 55
ENDBRANCH 47 51
ENDBRANCH 45 47
ENDBRANCH 36 43
ENDBRANCH 3 36
TORSDOF 27
ENDMDL
MODEL 17
USER: ADFR SOLUTION from run 97
USER: SCORE 20.350268 LL:  -6.882 LR: -16.607 RR:   0.000 FEB:  -8.553
USER: RMSD 7.746585
USER: SEED 96
USER: STATUS no improvement in best in 2 clusters for 5 generations
USER: GENES 29
USER: genes 0 Translation |==|  0.24701 0.71029 0.47172
USER: genes 1 Rotation |==|  0.91360 0.71016 0.33080 0.57839
USER: genes 2 Torsion [N]-C--CA-[N] |==|  0.96842
USER: genes 3 Torsion [C]-CA--N-[C] |==|  0.20412
USER: genes 4 Torsion [N]-C--CA-[N] |==|  0.00413
USER: genes 5 Torsion [C]-CA--CB-[CG] |==|  0.29632
USER: genes 6 Torsion [CA]-CB--CG-[CD] |==|  0.99800
USER: genes 7 Torsion [CB]-CG--CD-[CE] |==|  0.60140
USER: genes 8 Torsion [CG]-CD--CE-[NZ] |==|  0.33120
USER: genes 9 Torsion [CD]-CE--NZ-[HZ1] |==|  0.20375
USER: genes 10 Torsion [C]-CA--N-[C] |==|  0.70017
USER: genes 11 Torsion [N]-C--CA-[N] |==|  0.74035
USER: genes 12 Torsion [C]-CA--CB-[CG] |==|  0.67748
USER: genes 13 Torsion [CA]-CB--CG-[CD] |==|  0.26616
USER: genes 14 Torsion [CB]-CG--CD-[OE1] |==|  0.90589
USER: genes 15 Torsion [C]-CA--N-[H1] |==|  0.44885
USER: genes 16 Torsion [C]-CA--CB-[CG2] |==|  0.30832
USER: genes 17 Torsion [C]-N--CA-[CB] |==|  0.31770
USER: genes 18 Torsion [N]-CA--CB-[CG] |==|  0.17683
USER: genes 19 Torsion [CA]-CB--CG-[ND1] |==|  0.22072
USER: genes 20 Torsion [N]-CA--C-[N] |==|  0.12021
USER: genes 21 Torsion [C]-N--CA-[CB] |==|  0.24444
USER: genes 22 Torsion [N]-CA--CB-[CG1] |==|  0.40293
USER: genes 23 Torsion [N]-CA--C-[N] |==|  0.84347
USER: genes 24 Torsion [C]-N--CA-[C] |==|  0.77804
USER: genes 25 Torsion [N]-CA--C-[OXT] |==|  0.02542
USER: genes 26 Torsion [N]-CA--CB-[CG] |==|  0.74399
USER: genes 27 Torsion [CA]-CB--CG-[CD] |==|  0.48992
USER: genes 28 Torsion [CB]-CG--CD-[OE1] |==|  0.34019
ROOT
ATOM      1  C   VAL B   3      -0.147 -17.721  19.847  1.00 28.64 LIG 0.24  C 
ATOM      2 O    VAL B   3      -1.284 -17.883  20.307  1.00 27.24 LIG-0.27  OA
ATOM      3  N   HIS B   4       0.775 -18.830  19.546  1.00 29.63 LIG-0.35  N 
ATOM      4 H    HIS B   4       1.598 -18.757  19.307  1.00 29.63 LIG 0.16  HD
ENDROOT
BRANCH 1 5
ATOM      5  CA  VAL B   3       0.397 -16.304  19.589  1.00 30.81 LIG 0.18  C 
BRANCH 5 6
ATOM      6  N   VAL B   3       1.831 -16.372  19.346  1.00 30.70 LIG-0.35  N 
ATOM      7 H    VAL B   3       2.318 -16.084  19.993  1.00 30.70 LIG 0.16  HD
ATOM      8  C   LYS B   2       2.315 -16.847  18.202  1.00 38.89 LIG 0.24  C 
ATOM      9 O    LYS B   2       1.597 -17.321  17.314  1.00 35.72 LIG-0.27  OA
BRANCH 8 10
ATOM     10  CA  LYS B   2       3.829 -16.798  18.049  1.00 39.86 LIG 0.18  C 
BRANCH 10 11
ATOM     11  CB  LYS B   2       4.381 -18.190  17.683  1.00 33.57 LIG 0.04  C 
BRANCH 11 12
ATOM     12  CG  LYS B   2       4.829 -18.282  16.210  1.00 34.54 LIG 0.00  C 
BRANCH 12 13
ATOM     13  CD  LYS B   2       4.617 -16.993  15.428  1.00 30.34 LIG 0.03  C 
BRANCH 13 14
ATOM     14  CE  LYS B   2       4.197 -17.222  13.990  1.00 26.25 LIG 0.23  C 
BRANCH 14 15
ATOM     15  NZ  LYS B   2       2.851 -16.610  13.728  1.00 28.72 LIG-0.08  N 
ATOM     16 HZ2  LYS B   2       2.533 -16.912  12.954  1.00 28.72 LIG 0.27  HD
ATOM     17 HZ3  LYS B   2       2.292 -16.830  14.384  1.00 28.72 LIG 0.27  HD
ATOM     18 HZ1  LYS B   2       2.930 -15.725  13.691  1.00 28.72 LIG 0.27  HD
ENDBRANCH 14 15
ENDBRANCH 13 14
ENDBRANCH 12 13
ENDBRANCH 11 12
ENDBRANCH 10 11
BRANCH 10 19
ATOM     19  N   LYS B   2       4.419 -16.243  19.272  1.00 40.88 LIG-0.35  N 
ATOM     20  C   GLU B   1       4.933 -15.009  19.245  1.00 50.16 LIG 0.25  C 
ATOM     21 O    GLU B   1       5.038 -14.358  18.201  1.00 45.73 LIG-0.27  OA
ATOM     22 H    LYS B   2       4.401 -16.758  19.960  1.00 40.88 LIG 0.16  HD
BRANCH 20 23
ATOM     23  CA  GLU B   1       5.424 -14.411  20.564  1.00 56.89 LIG 0.28  C 
BRANCH 23 24
ATOM     24  CB  GLU B   1       5.941 -15.520  21.478  1.00 44.84 LIG 0.05  C 
BRANCH 24 25
ATOM     25  CG  GLU B   1       5.140 -15.684  22.760  1.00 43.84 LIG 0.12  C 
BRANCH 25 26
ATOM     26  CD  GLU B   1       4.079 -16.768  22.659  1.00 58.57 LIG 0.17  C 
ATOM     27 OE1  GLU B   1       3.512 -16.945  21.557  1.00 59.35 LIG-0.65  OA
ATOM     28 OE2  GLU B   1       3.808 -17.439  23.681  1.00 59.65 LIG-0.65  OA
ENDBRANCH 25 26
ENDBRANCH 24 25
ENDBRANCH 23 24
BRANCH 23 29
ATOM     29  N   GLU B   1       4.408 -13.609  21.234  1.00 43.96 LIG-0.07  N 
ATOM     30 H1   GLU B   1       4.627 -13.508  22.090  1.00 43.96 LIG 0.28  HD
ATOM     31 H2   GLU B   1       4.355 -12.811  20.845  1.00 43.96 LIG 0.28  HD
ATOM     32 H3   GLU B   1       3.621 -14.020  21.177  1.00 43.96 LIG 0.28  HD
ENDBRANCH 23 29
ENDBRANCH 20 23
ENDBRANCH 10 19
ENDBRANCH 8 10
ENDBRANCH 5 6
BRANCH 5 33
ATOM     33  CB  VAL B   3      -0.335 -15.655  18.406  1.00 34.43 LIG 0.01  C 
ATOM     34  CG2 VAL B   3      -1.202 -14.520  18.891  1.00 33.75 LIG 0.01  C 
ATOM     35  CG1 VAL B   3      -1.193 -16.700  17.677  1.00 37.65 LIG 0.01  C 
ENDBRANCH 5 33
ENDBRANCH 1 5
BRANCH 3 36
ATOM     36  CA  HIS B   4       0.247 -20.189  19.661  1.00 28.98 LIG 0.18  C 
BRANCH 36 37
ATOM     37  CB  HIS B   4       0.206 -20.891  18.290  1.00 26.24 LIG 0.10  C 
BRANCH 37 38
ATOM     38  CG  HIS B   4       1.562 -21.087  17.686  1.00 30.41 LIG 0.06  A 
ATOM     39 ND1  HIS B   4       2.410 -22.106  18.069  1.00 34.08 LIG-0.24  NA
ATOM     40  CE1 HIS B   4       3.529 -22.033  17.366  1.00 29.96 LIG 0.23  A 
ATOM     41 NE2  HIS B   4       3.428 -21.017  16.529  1.00 35.16 LIG-0.25  NA
ATOM     42  CD2 HIS B   4       2.206 -20.409  16.704  1.00 34.95 LIG 0.14  A 
ENDBRANCH 37 38
ENDBRANCH 36 37
BRANCH 36 43
ATOM     43  C   HIS B   4       1.014 -21.032  20.666  1.00 27.46 LIG 0.24  C 
ATOM     44 O    HIS B   4       1.193 -22.240  20.480  1.00 25.24 LIG-0.27  OA
ATOM     45  N   VAL B   5       1.323 -20.500  21.756  1.00 26.31 LIG-0.35  N 
ATOM     46 H    VAL B   5       1.218 -19.665  21.935  1.00 26.31 LIG 0.16  HD
BRANCH 45 47
ATOM     47  CA  VAL B   5       1.909 -21.295  22.842  1.00 25.23 LIG 0.18  C 
BRANCH 47 48
ATOM     48  CB  VAL B   5       3.450 -21.364  22.719  1.00 26.56 LIG 0.01  C 
ATOM     49  CG2 VAL B   5       3.863 -22.596  21.928  1.00 31.17 LIG 0.01  C 
ATOM     50  CG1 VAL B   5       4.116 -21.375  24.075  1.00 34.68 LIG 0.01  C 
ENDBRANCH 47 48
BRANCH 47 51
ATOM     51  C   VAL B   5       1.493 -20.759  24.204  1.00 27.03 LIG 0.24  C 
ATOM     52  N   GLN B   6       1.769 -19.484  24.451  1.00 26.89 LIG-0.34  N 
ATOM     53 H    GLN B   6       2.167 -18.950  23.907  1.00 26.89 LIG 0.16  HD
ATOM     54 O    VAL B   5       0.912 -21.485  25.024  1.00 28.01 LIG-0.27  OA
BRANCH 52 55
ATOM     55  CA  GLN B   6       1.384 -18.899  25.739  1.00 25.51 LIG 0.19  C 
BRANCH 55 56
ATOM     56  C   GLN B   6      -0.093 -18.523  25.760  1.00 28.77 LIG 0.20  C 
ATOM     57 OXT  GLN B   6      -0.873 -18.860  24.846  1.00 27.06 LIG-0.65  OA
ATOM     58 O    GLN B   6      -0.536 -17.835  26.697  1.00 25.73 LIG-0.65  OA
ENDBRANCH 55 56
BRANCH 55 59
ATOM     59  CB  GLN B   6       2.203 -17.645  26.033  1.00 31.03 LIG 0.04  C 
BRANCH 59 60
ATOM     60  CG  GLN B   6       3.461 -17.886  26.830  1.00 39.52 LIG 0.10  C 
BRANCH 60 61
ATOM     61  CD  GLN B   6       4.255 -16.610  27.001  1.00 49.24 LIG 0.21  C 
ATOM     62  NE2 GLN B   6       4.600 -15.978  25.886  1.00 50.05 LIG-0.37  N 
ATOM     63 21HE GLN B   6       4.385 -16.308  25.121  1.00 50.05 LIG 0.16  HD
ATOM     64 22HE GLN B   6       5.038 -15.239  25.929  1.00 50.05 LIG 0.16  HD
ATOM     65 OE1  GLN B   6       4.537 -16.182  28.127  1.00 58.78 LIG-0.27  OA
ENDBRANCH 60 61
ENDBRANCH 59 60
ENDBRANCH 55 59
ENDBRANCH 52 55
ENDBRANCH 47 51
ENDBRANCH 45 47
ENDBRANCH 36 43
ENDBRANCH 3 36
TORSDOF 27
ENDMDL
MODEL 18
USER: ADFR SOLUTION from run 165
USER: SCORE 21.400193 LL:  -5.917 LR: -16.535 RR:   0.000 FEB:  -8.481
USER: RMSD 7.894318
USER: SEED 164
USER: STATUS no improvement in best in 4 clusters for 5 generations
USER: GENES 29
USER: genes 0 Translation |==|  0.24952 0.74450 0.49272
USER: genes 1 Rotation |==|  0.21461 0.28401 0.84434 0.55772
USER: genes 2 Torsion [N]-C--CA-[N] |==|  0.88982
USER: genes 3 Torsion [C]-CA--N-[C] |==|  0.84009
USER: genes 4 Torsion [N]-C--CA-[N] |==|  0.43342
USER: genes 5 Torsion [C]-CA--CB-[CG] |==|  0.56824
USER: genes 6 Torsion [CA]-CB--CG-[CD] |==|  0.74168
USER: genes 7 Torsion [CB]-CG--CD-[CE] |==|  0.78890
USER: genes 8 Torsion [CG]-CD--CE-[NZ] |==|  0.32850
USER: genes 9 Torsion [CD]-CE--NZ-[HZ1] |==|  0.29342
USER: genes 10 Torsion [C]-CA--N-[C] |==|  0.67446
USER: genes 11 Torsion [N]-C--CA-[N] |==|  0.84182
USER: genes 12 Torsion [C]-CA--CB-[CG] |==|  0.32075
USER: genes 13 Torsion [CA]-CB--CG-[CD] |==|  0.84644
USER: genes 14 Torsion [CB]-CG--CD-[OE1] |==|  0.18256
USER: genes 15 Torsion [C]-CA--N-[H1] |==|  0.47116
USER: genes 16 Torsion [C]-CA--CB-[CG2] |==|  0.45850
USER: genes 17 Torsion [C]-N--CA-[CB] |==|  0.48958
USER: genes 18 Torsion [N]-CA--CB-[CG] |==|  0.25523
USER: genes 19 Torsion [CA]-CB--CG-[ND1] |==|  0.28894
USER: genes 20 Torsion [N]-CA--C-[N] |==|  0.46233
USER: genes 21 Torsion [C]-N--CA-[CB] |==|  0.87048
USER: genes 22 Torsion [N]-CA--CB-[CG1] |==|  0.35641
USER: genes 23 Torsion [N]-CA--C-[N] |==|  0.87228
USER: genes 24 Torsion [C]-N--CA-[C] |==|  0.79857
USER: genes 25 Torsion [N]-CA--C-[OXT] |==|  0.02704
USER: genes 26 Torsion [N]-CA--CB-[CG] |==|  0.91186
USER: genes 27 Torsion [CA]-CB--CG-[CD] |==|  0.59067
USER: genes 28 Torsion [CB]-CG--CD-[OE1] |==|  0.18389
ROOT
ATOM      1  C   VAL B   3      -0.102 -16.925  20.319  1.00 28.64 LIG 0.24  C 
ATOM      2 O    VAL B   3      -0.307 -17.122  21.524  1.00 27.24 LIG-0.27  OA
ATOM      3  N   HIS B   4       0.011 -18.008  19.327  1.00 29.63 LIG-0.35  N 
ATOM      4 H    HIS B   4       0.236 -17.919  18.501  1.00 29.63 LIG 0.16  HD
ENDROOT
BRANCH 1 5
ATOM      5  CA  VAL B   3       0.088 -15.496  19.782  1.00 30.81 LIG 0.18  C 
BRANCH 5 6
ATOM      6  N   VAL B   3       1.162 -15.485  18.799  1.00 30.70 LIG-0.35  N 
ATOM      7 H    VAL B   3       0.934 -15.192  18.023  1.00 30.70 LIG 0.16  HD
ATOM      8  C   LYS B   2       2.385 -15.902  19.109  1.00 38.89 LIG 0.24  C 
ATOM      9 O    LYS B   2       2.707 -16.252  20.251  1.00 35.72 LIG-0.27  OA
BRANCH 8 10
ATOM     10  CA  LYS B   2       3.397 -15.904  17.970  1.00 39.86 LIG 0.18  C 
BRANCH 10 11
ATOM     11  CB  LYS B   2       3.188 -17.134  17.064  1.00 33.57 LIG 0.04  C 
BRANCH 11 12
ATOM     12  CG  LYS B   2       4.468 -17.533  16.302  1.00 34.54 LIG 0.00  C 
BRANCH 12 13
ATOM     13  CD  LYS B   2       4.570 -16.908  14.917  1.00 30.34 LIG 0.03  C 
BRANCH 13 14
ATOM     14  CE  LYS B   2       3.670 -17.567  13.890  1.00 26.25 LIG 0.23  C 
BRANCH 14 15
ATOM     15  NZ  LYS B   2       2.667 -16.584  13.358  1.00 28.72 LIG-0.08  N 
ATOM     16 HZ2  LYS B   2       1.861 -16.961  13.342  1.00 28.72 LIG 0.27  HD
ATOM     17 HZ3  LYS B   2       2.647 -15.866  13.883  1.00 28.72 LIG 0.27  HD
ATOM     18 HZ1  LYS B   2       2.898 -16.342  12.534  1.00 28.72 LIG 0.27  HD
ENDBRANCH 14 15
ENDBRANCH 13 14
ENDBRANCH 12 13
ENDBRANCH 11 12
ENDBRANCH 10 11
BRANCH 10 19
ATOM     19  N   LYS B   2       4.750 -15.818  18.529  1.00 40.88 LIG-0.35  N 
ATOM     20  C   GLU B   1       5.507 -14.755  18.239  1.00 50.16 LIG 0.25  C 
ATOM     21 O    GLU B   1       5.158 -13.896  17.424  1.00 45.73 LIG-0.27  OA
ATOM     22 H    LYS B   2       4.990 -16.477  19.028  1.00 40.88 LIG 0.16  HD
BRANCH 20 23
ATOM     23  CA  GLU B   1       6.863 -14.632  18.937  1.00 56.89 LIG 0.28  C 
BRANCH 23 24
ATOM     24  CB  GLU B   1       7.800 -15.734  18.449  1.00 44.84 LIG 0.05  C 
BRANCH 24 25
ATOM     25  CG  GLU B   1       9.014 -15.219  17.691  1.00 43.84 LIG 0.12  C 
BRANCH 25 26
ATOM     26  CD  GLU B   1       8.641 -14.334  16.512  1.00 58.57 LIG 0.17  C 
ATOM     27 OE1  GLU B   1       8.086 -13.236  16.744  1.00 59.35 LIG-0.65  OA
ATOM     28 OE2  GLU B   1       8.897 -14.738  15.355  1.00 59.65 LIG-0.65  OA
ENDBRANCH 25 26
ENDBRANCH 24 25
ENDBRANCH 23 24
BRANCH 23 29
ATOM     29  N   GLU B   1       6.753 -14.641  20.390  1.00 43.96 LIG-0.07  N 
ATOM     30 H1   GLU B   1       7.563 -14.719  20.749  1.00 43.96 LIG 0.28  HD
ATOM     31 H2   GLU B   1       6.379 -13.881  20.665  1.00 43.96 LIG 0.28  HD
ATOM     32 H3   GLU B   1       6.249 -15.328  20.646  1.00 43.96 LIG 0.28  HD
ENDBRANCH 23 29
ENDBRANCH 20 23
ENDBRANCH 10 19
ENDBRANCH 8 10
ENDBRANCH 5 6
BRANCH 5 33
ATOM     33  CB  VAL B   3      -1.222 -14.971  19.177  1.00 34.43 LIG 0.01  C 
ATOM     34  CG2 VAL B   3      -1.145 -13.476  18.989  1.00 33.75 LIG 0.01  C 
ATOM     35  CG1 VAL B   3      -2.406 -15.328  20.088  1.00 37.65 LIG 0.01  C 
ENDBRANCH 5 33
ENDBRANCH 1 5
BRANCH 3 36
ATOM     36  CA  HIS B   4      -0.287 -19.366  19.780  1.00 28.98 LIG 0.18  C 
BRANCH 36 37
ATOM     37  CB  HIS B   4      -0.217 -20.372  18.615  1.00 26.24 LIG 0.10  C 
BRANCH 37 38
ATOM     38  CG  HIS B   4       1.135 -20.998  18.455  1.00 30.41 LIG 0.06  A 
ATOM     39 ND1  HIS B   4       1.410 -22.289  18.855  1.00 34.08 LIG-0.24  NA
ATOM     40  CE1 HIS B   4       2.676 -22.570  18.587  1.00 29.96 LIG 0.23  A 
ATOM     41 NE2  HIS B   4       3.222 -21.514  18.012  1.00 35.16 LIG-0.25  NA
ATOM     42  CD2 HIS B   4       2.280 -20.517  17.912  1.00 34.95 LIG 0.14  A 
ENDBRANCH 37 38
ENDBRANCH 36 37
BRANCH 36 43
ATOM     43  C   HIS B   4       0.611 -19.813  20.922  1.00 27.46 LIG 0.24  C 
ATOM     44 O    HIS B   4       1.704 -19.273  21.121  1.00 25.24 LIG-0.27  OA
ATOM     45  N   VAL B   5       0.280 -20.841  21.554  1.00 26.31 LIG-0.35  N 
ATOM     46 H    VAL B   5      -0.467 -21.254  21.451  1.00 26.31 LIG 0.16  HD
BRANCH 45 47
ATOM     47  CA  VAL B   5       1.180 -21.433  22.551  1.00 25.23 LIG 0.18  C 
BRANCH 47 48
ATOM     48  CB  VAL B   5       2.624 -21.547  22.006  1.00 26.56 LIG 0.01  C 
ATOM     49  CG2 VAL B   5       2.978 -23.004  21.746  1.00 31.17 LIG 0.01  C 
ATOM     50  CG1 VAL B   5       3.628 -20.935  22.955  1.00 34.68 LIG 0.01  C 
ENDBRANCH 47 48
BRANCH 47 51
ATOM     51  C   VAL B   5       1.149 -20.650  23.856  1.00 27.03 LIG 0.24  C 
ATOM     52  N   GLN B   6       1.224 -19.328  23.758  1.00 26.89 LIG-0.34  N 
ATOM     53 H    GLN B   6       1.296 -18.890  23.021  1.00 26.89 LIG 0.16  HD
ATOM     54 O    VAL B   5       1.043 -21.232  24.946  1.00 28.01 LIG-0.27  OA
BRANCH 52 55
ATOM     55  CA  GLN B   6       1.186 -18.512  24.975  1.00 25.51 LIG 0.19  C 
BRANCH 55 56
ATOM     56  C   GLN B   6      -0.212 -18.485  25.584  1.00 28.77 LIG 0.20  C 
ATOM     57 OXT  GLN B   6      -1.123 -19.235  25.178  1.00 27.06 LIG-0.65  OA
ATOM     58 O    GLN B   6      -0.468 -17.675  26.492  1.00 25.73 LIG-0.65  OA
ENDBRANCH 55 56
BRANCH 55 59
ATOM     59  CB  GLN B   6       1.609 -17.075  24.679  1.00 31.03 LIG 0.04  C 
BRANCH 59 60
ATOM     60  CG  GLN B   6       2.625 -16.931  23.575  1.00 39.52 LIG 0.10  C 
BRANCH 60 61
ATOM     61  CD  GLN B   6       3.550 -15.762  23.829  1.00 49.24 LIG 0.21  C 
ATOM     62  NE2 GLN B   6       3.444 -14.735  22.995  1.00 50.05 LIG-0.37  N 
ATOM     63 21HE GLN B   6       2.883 -14.767  22.343  1.00 50.05 LIG 0.16  HD
ATOM     64 22HE GLN B   6       3.935 -14.038  23.106  1.00 50.05 LIG 0.16  HD
ATOM     65 OE1  GLN B   6       4.338 -15.770  24.782  1.00 58.78 LIG-0.27  OA
ENDBRANCH 60 61
ENDBRANCH 59 60
ENDBRANCH 55 59
ENDBRANCH 52 55
ENDBRANCH 47 51
ENDBRANCH 45 47
ENDBRANCH 36 43
ENDBRANCH 3 36
TORSDOF 27
ENDMDL
MODEL 19
USER: ADFR SOLUTION from run 72
USER: SCORE 20.821516 LL:  -7.006 LR: -16.523 RR:   0.000 FEB:  -8.469
USER: RMSD 8.194149
USER: SEED 71
USER: STATUS no improvement in best in 4 clusters for 5 generations
USER: GENES 29
USER: genes 0 Translation |==|  0.21130 0.72501 0.47971
USER: genes 1 Rotation |==|  0.92474 0.68357 0.53254 0.68666
USER: genes 2 Torsion [N]-C--CA-[N] |==|  0.17491
USER: genes 3 Torsion [C]-CA--N-[C] |==|  0.80194
USER: genes 4 Torsion [N]-C--CA-[N] |==|  0.46938
USER: genes 5 Torsion [C]-CA--CB-[CG] |==|  0.93827
USER: genes 6 Torsion [CA]-CB--CG-[CD] |==|  0.42433
USER: genes 7 Torsion [CB]-CG--CD-[CE] |==|  0.68935
USER: genes 8 Torsion [CG]-CD--CE-[NZ] |==|  0.23662
USER: genes 9 Torsion [CD]-CE--NZ-[HZ1] |==|  0.30615
USER: genes 10 Torsion [C]-CA--N-[C] |==|  0.67315
USER: genes 11 Torsion [N]-C--CA-[N] |==|  0.56791
USER: genes 12 Torsion [C]-CA--CB-[CG] |==|  0.81936
USER: genes 13 Torsion [CA]-CB--CG-[CD] |==|  0.73576
USER: genes 14 Torsion [CB]-CG--CD-[OE1] |==|  0.14617
USER: genes 15 Torsion [C]-CA--N-[H1] |==|  0.24958
USER: genes 16 Torsion [C]-CA--CB-[CG2] |==|  0.53532
USER: genes 17 Torsion [C]-N--CA-[CB] |==|  0.21027
USER: genes 18 Torsion [N]-CA--CB-[CG] |==|  0.31536
USER: genes 19 Torsion [CA]-CB--CG-[ND1] |==|  0.21087
USER: genes 20 Torsion [N]-CA--C-[N] |==|  0.85541
USER: genes 21 Torsion [C]-N--CA-[CB] |==|  0.48508
USER: genes 22 Torsion [N]-CA--CB-[CG1] |==|  0.11364
USER: genes 23 Torsion [N]-CA--C-[N] |==|  0.82145
USER: genes 24 Torsion [C]-N--CA-[C] |==|  0.75685
USER: genes 25 Torsion [N]-CA--C-[OXT] |==|  0.54685
USER: genes 26 Torsion [N]-CA--CB-[CG] |==|  0.79005
USER: genes 27 Torsion [CA]-CB--CG-[CD] |==|  0.87391
USER: genes 28 Torsion [CB]-CG--CD-[OE1] |==|  0.71764
ROOT
ATOM      1  C   VAL B   3      -0.790 -17.378  20.026  1.00 28.64 LIG 0.24  C 
ATOM      2 O    VAL B   3      -1.813 -17.746  19.435  1.00 27.24 LIG-0.27  OA
ATOM      3  N   HIS B   4       0.141 -18.306  20.694  1.00 29.63 LIG-0.35  N 
ATOM      4 H    HIS B   4       0.812 -18.087  21.185  1.00 29.63 LIG 0.16  HD
ENDROOT
BRANCH 1 5
ATOM      5  CA  VAL B   3      -0.441 -15.883  20.131  1.00 30.81 LIG 0.18  C 
BRANCH 5 6
ATOM      6  N   VAL B   3       0.832 -15.634  19.470  1.00 30.70 LIG-0.35  N 
ATOM      7 H    VAL B   3       0.773 -15.203  18.729  1.00 30.70 LIG 0.16  HD
ATOM      8  C   LYS B   2       1.977 -16.055  19.999  1.00 38.89 LIG 0.24  C 
ATOM      9 O    LYS B   2       2.044 -16.612  21.101  1.00 35.72 LIG-0.27  OA
BRANCH 8 10
ATOM     10  CA  LYS B   2       3.229 -15.790  19.172  1.00 39.86 LIG 0.18  C 
BRANCH 10 11
ATOM     11  CB  LYS B   2       3.192 -16.600  17.861  1.00 33.57 LIG 0.04  C 
BRANCH 11 12
ATOM     12  CG  LYS B   2       2.259 -17.825  17.946  1.00 34.54 LIG 0.00  C 
BRANCH 12 13
ATOM     13  CD  LYS B   2       1.685 -18.245  16.599  1.00 30.34 LIG 0.03  C 
BRANCH 13 14
ATOM     14  CE  LYS B   2       0.191 -18.015  16.482  1.00 26.25 LIG 0.23  C 
BRANCH 14 15
ATOM     15  NZ  LYS B   2      -0.094 -16.606  16.049  1.00 28.72 LIG-0.08  N 
ATOM     16 HZ2  LYS B   2      -0.696 -16.244  16.594  1.00 28.72 LIG 0.27  HD
ATOM     17 HZ3  LYS B   2       0.657 -16.128  16.078  1.00 28.72 LIG 0.27  HD
ATOM     18 HZ1  LYS B   2      -0.410 -16.610  15.218  1.00 28.72 LIG 0.27  HD
ENDBRANCH 14 15
ENDBRANCH 13 14
ENDBRANCH 12 13
ENDBRANCH 11 12
ENDBRANCH 10 11
BRANCH 10 19
ATOM     19  N   LYS B   2       4.414 -16.066  19.992  1.00 40.88 LIG-0.35  N 
ATOM     20  C   GLU B   1       5.264 -15.071  20.262  1.00 50.16 LIG 0.25  C 
ATOM     21 O    GLU B   1       5.157 -13.952  19.752  1.00 45.73 LIG-0.27  OA
ATOM     22 H    LYS B   2       4.498 -16.878  20.262  1.00 40.88 LIG 0.16  HD
BRANCH 20 23
ATOM     23  CA  GLU B   1       6.420 -15.359  21.222  1.00 56.89 LIG 0.28  C 
BRANCH 23 24
ATOM     24  CB  GLU B   1       5.996 -16.410  22.245  1.00 44.84 LIG 0.05  C 
BRANCH 24 25
ATOM     25  CG  GLU B   1       4.884 -15.950  23.176  1.00 43.84 LIG 0.12  C 
BRANCH 25 26
ATOM     26  CD  GLU B   1       5.409 -15.394  24.491  1.00 58.57 LIG 0.17  C 
ATOM     27 OE1  GLU B   1       6.277 -14.493  24.452  1.00 59.35 LIG-0.65  OA
ATOM     28 OE2  GLU B   1       4.957 -15.860  25.561  1.00 59.65 LIG-0.65  OA
ENDBRANCH 25 26
ENDBRANCH 24 25
ENDBRANCH 23 24
BRANCH 23 29
ATOM     29  N   GLU B   1       6.920 -14.158  21.879  1.00 43.96 LIG-0.07  N 
ATOM     30 H1   GLU B   1       6.473 -14.026  22.637  1.00 43.96 LIG 0.28  HD
ATOM     31 H2   GLU B   1       7.786 -14.257  22.059  1.00 43.96 LIG 0.28  HD
ATOM     32 H3   GLU B   1       6.807 -13.457  21.343  1.00 43.96 LIG 0.28  HD
ENDBRANCH 23 29
ENDBRANCH 20 23
ENDBRANCH 10 19
ENDBRANCH 8 10
ENDBRANCH 5 6
BRANCH 5 33
ATOM     33  CB  VAL B   3      -1.559 -15.027  19.518  1.00 34.43 LIG 0.01  C 
ATOM     34  CG2 VAL B   3      -1.086 -13.606  19.339  1.00 33.75 LIG 0.01  C 
ATOM     35  CG1 VAL B   3      -2.803 -15.060  20.418  1.00 37.65 LIG 0.01  C 
ENDBRANCH 5 33
ENDBRANCH 1 5
BRANCH 3 36
ATOM     36  CA  HIS B   4      -0.093 -19.738  20.508  1.00 28.98 LIG 0.18  C 
BRANCH 36 37
ATOM     37  CB  HIS B   4       0.356 -20.200  19.109  1.00 26.24 LIG 0.10  C 
BRANCH 37 38
ATOM     38  CG  HIS B   4       1.524 -21.137  19.142  1.00 30.41 LIG 0.06  A 
ATOM     39 ND1  HIS B   4       1.407 -22.463  19.504  1.00 34.08 LIG-0.24  NA
ATOM     40  CE1 HIS B   4       2.596 -23.042  19.438  1.00 29.96 LIG 0.23  A 
ATOM     41 NE2  HIS B   4       3.472 -22.143  19.028  1.00 35.16 LIG-0.25  NA
ATOM     42  CD2 HIS B   4       2.829 -20.944  18.831  1.00 34.95 LIG 0.14  A 
ENDBRANCH 37 38
ENDBRANCH 36 37
BRANCH 36 43
ATOM     43  C   HIS B   4       0.568 -20.583  21.584  1.00 27.46 LIG 0.24  C 
ATOM     44 O    HIS B   4      -0.100 -21.317  22.319  1.00 25.24 LIG-0.27  OA
ATOM     45  N   VAL B   5       1.786 -20.396  21.803  1.00 26.31 LIG-0.35  N 
ATOM     46 H    VAL B   5       2.295 -19.895  21.323  1.00 26.31 LIG 0.16  HD
BRANCH 45 47
ATOM     47  CA  VAL B   5       2.455 -21.045  22.938  1.00 25.23 LIG 0.18  C 
BRANCH 47 48
ATOM     48  CB  VAL B   5       3.978 -20.771  22.924  1.00 26.56 LIG 0.01  C 
ATOM     49  CG2 VAL B   5       4.585 -21.087  24.283  1.00 31.17 LIG 0.01  C 
ATOM     50  CG1 VAL B   5       4.282 -19.341  22.544  1.00 34.68 LIG 0.01  C 
ENDBRANCH 47 48
BRANCH 47 51
ATOM     51  C   VAL B   5       1.835 -20.619  24.261  1.00 27.03 LIG 0.24  C 
ATOM     52  N   GLN B   6       1.949 -19.336  24.585  1.00 26.89 LIG-0.34  N 
ATOM     53 H    GLN B   6       2.349 -18.740  24.111  1.00 26.89 LIG 0.16  HD
ATOM     54 O    VAL B   5       1.243 -21.437  24.980  1.00 28.01 LIG-0.27  OA
BRANCH 52 55
ATOM     55  CA  GLN B   6       1.363 -18.854  25.839  1.00 25.51 LIG 0.19  C 
BRANCH 55 56
ATOM     56  C   GLN B   6      -0.095 -18.449  25.653  1.00 28.77 LIG 0.20  C 
ATOM     57 OXT  GLN B   6      -0.693 -17.735  26.483  1.00 27.06 LIG-0.65  OA
ATOM     58 O    GLN B   6      -0.723 -18.860  24.661  1.00 25.73 LIG-0.65  OA
ENDBRANCH 55 56
BRANCH 55 59
ATOM     59  CB  GLN B   6       2.132 -17.648  26.371  1.00 31.03 LIG 0.04  C 
BRANCH 59 60
ATOM     60  CG  GLN B   6       3.459 -17.977  27.008  1.00 39.52 LIG 0.10  C 
BRANCH 60 61
ATOM     61  CD  GLN B   6       3.341 -19.161  27.942  1.00 49.24 LIG 0.21  C 
ATOM     62  NE2 GLN B   6       3.333 -20.360  27.375  1.00 50.05 LIG-0.37  N 
ATOM     63 21HE GLN B   6       3.376 -20.430  26.519  1.00 50.05 LIG 0.16  HD
ATOM     64 22HE GLN B   6       3.285 -21.066  27.863  1.00 50.05 LIG 0.16  HD
ATOM     65 OE1  GLN B   6       3.282 -19.000  29.168  1.00 58.78 LIG-0.27  OA
ENDBRANCH 60 61
ENDBRANCH 59 60
ENDBRANCH 55 59
ENDBRANCH 52 55
ENDBRANCH 47 51
ENDBRANCH 45 47
ENDBRANCH 36 43
ENDBRANCH 3 36
TORSDOF 27
ENDMDL
MODEL 20
USER: ADFR SOLUTION from run 142
USER: SCORE 21.089741 LL:  -5.464 LR: -16.488 RR:   0.000 FEB:  -8.434
USER: RMSD 7.309426
USER: SEED 141
USER: STATUS no improvement in best in 2 clusters for 5 generations
USER: GENES 29
USER: genes 0 Translation |==|  0.40651 0.48437 0.47625
USER: genes 1 Rotation |==|  0.31501 0.64850 0.91135 0.65659
USER: genes 2 Torsion [N]-C--CA-[N] |==|  0.34320
USER: genes 3 Torsion [C]-CA--N-[C] |==|  0.78730
USER: genes 4 Torsion [N]-C--CA-[N] |==|  0.24358
USER: genes 5 Torsion [C]-CA--CB-[CG] |==|  0.74710
USER: genes 6 Torsion [CA]-CB--CG-[CD] |==|  0.65790
USER: genes 7 Torsion [CB]-CG--CD-[CE] |==|  0.78982
USER: genes 8 Torsion [CG]-CD--CE-[NZ] |==|  0.39040
USER: genes 9 Torsion [CD]-CE--NZ-[HZ1] |==|  0.92132
USER: genes 10 Torsion [C]-CA--N-[C] |==|  0.56303
USER: genes 11 Torsion [N]-C--CA-[N] |==|  0.36642
USER: genes 12 Torsion [C]-CA--CB-[CG] |==|  0.87113
USER: genes 13 Torsion [CA]-CB--CG-[CD] |==|  0.78253
USER: genes 14 Torsion [CB]-CG--CD-[OE1] |==|  0.01424
USER: genes 15 Torsion [C]-CA--N-[H1] |==|  0.73516
USER: genes 16 Torsion [C]-CA--CB-[CG2] |==|  0.51045
USER: genes 17 Torsion [C]-N--CA-[CB] |==|  0.86027
USER: genes 18 Torsion [N]-CA--CB-[CG] |==|  0.50994
USER: genes 19 Torsion [CA]-CB--CG-[ND1] |==|  0.58999
USER: genes 20 Torsion [N]-CA--C-[N] |==|  0.89667
USER: genes 21 Torsion [C]-N--CA-[CB] |==|  0.82620
USER: genes 22 Torsion [N]-CA--CB-[CG1] |==|  0.40525
USER: genes 23 Torsion [N]-CA--C-[N] |==|  0.44210
USER: genes 24 Torsion [C]-N--CA-[C] |==|  0.71086
USER: genes 25 Torsion [N]-CA--C-[OXT] |==|  0.61960
USER: genes 26 Torsion [N]-CA--CB-[CG] |==|  0.72384
USER: genes 27 Torsion [CA]-CB--CG-[CD] |==|  0.65257
USER: genes 28 Torsion [CB]-CG--CD-[OE1] |==|  0.15285
ROOT
ATOM      1  C   VAL B   3       2.724 -22.973  19.949  1.00 28.64 LIG 0.24  C 
ATOM      2 O    VAL B   3       3.700 -22.543  20.577  1.00 27.24 LIG-0.27  OA
ATOM      3  N   HIS B   4       1.541 -23.569  20.593  1.00 29.63 LIG-0.35  N 
ATOM      4 H    HIS B   4       0.884 -23.954  20.193  1.00 29.63 LIG 0.16  HD
ENDROOT
BRANCH 1 5
ATOM      5  CA  VAL B   3       2.709 -22.942  18.410  1.00 30.81 LIG 0.18  C 
BRANCH 5 6
ATOM      6  N   VAL B   3       2.884 -21.571  17.951  1.00 30.70 LIG-0.35  N 
ATOM      7 H    VAL B   3       3.671 -21.390  17.656  1.00 30.70 LIG 0.16  HD
ATOM      8  C   LYS B   2       1.884 -20.697  17.997  1.00 38.89 LIG 0.24  C 
ATOM      9 O    LYS B   2       0.741 -21.000  18.359  1.00 35.72 LIG-0.27  OA
BRANCH 8 10
ATOM     10  CA  LYS B   2       2.219 -19.279  17.551  1.00 39.86 LIG 0.18  C 
BRANCH 10 11
ATOM     11  CB  LYS B   2       1.392 -18.252  18.350  1.00 33.57 LIG 0.04  C 
BRANCH 11 12
ATOM     12  CG  LYS B   2       0.056 -17.902  17.663  1.00 34.54 LIG 0.00  C 
BRANCH 12 13
ATOM     13  CD  LYS B   2      -0.114 -16.414  17.385  1.00 30.34 LIG 0.03  C 
BRANCH 13 14
ATOM     14  CE  LYS B   2      -0.450 -15.605  18.622  1.00 26.25 LIG 0.23  C 
BRANCH 14 15
ATOM     15  NZ  LYS B   2       0.275 -14.291  18.608  1.00 28.72 LIG-0.08  N 
ATOM     16 HZ2  LYS B   2      -0.236 -13.674  18.221  1.00 28.72 LIG 0.27  HD
ATOM     17 HZ3  LYS B   2       0.459 -14.044  19.443  1.00 28.72 LIG 0.27  HD
ATOM     18 HZ1  LYS B   2       1.034 -14.376  18.151  1.00 28.72 LIG 0.27  HD
ENDBRANCH 14 15
ENDBRANCH 13 14
ENDBRANCH 12 13
ENDBRANCH 11 12
ENDBRANCH 10 11
BRANCH 10 19
ATOM     19  N   LYS B   2       2.030 -19.174  16.100  1.00 40.88 LIG-0.35  N 
ATOM     20  C   GLU B   1       2.674 -18.215  15.429  1.00 50.16 LIG 0.25  C 
ATOM     21 O    GLU B   1       3.332 -17.337  15.995  1.00 45.73 LIG-0.27  OA
ATOM     22 H    LYS B   2       1.499 -19.754  15.751  1.00 40.88 LIG 0.16  HD
BRANCH 20 23
ATOM     23  CA  GLU B   1       2.558 -18.210  13.903  1.00 56.89 LIG 0.28  C 
BRANCH 23 24
ATOM     24  CB  GLU B   1       3.842 -18.755  13.282  1.00 44.84 LIG 0.05  C 
BRANCH 24 25
ATOM     25  CG  GLU B   1       5.112 -18.171  13.882  1.00 43.84 LIG 0.12  C 
BRANCH 25 26
ATOM     26  CD  GLU B   1       5.425 -16.778  13.358  1.00 58.57 LIG 0.17  C 
ATOM     27 OE1  GLU B   1       4.595 -16.228  12.598  1.00 59.35 LIG-0.65  OA
ATOM     28 OE2  GLU B   1       6.500 -16.236  13.702  1.00 59.65 LIG-0.65  OA
ENDBRANCH 25 26
ENDBRANCH 24 25
ENDBRANCH 23 24
BRANCH 23 29
ATOM     29  N   GLU B   1       2.233 -16.894  13.367  1.00 43.96 LIG-0.07  N 
ATOM     30 H1   GLU B   1       1.354 -16.831  13.246  1.00 43.96 LIG 0.28  HD
ATOM     31 H2   GLU B   1       2.499 -16.266  13.938  1.00 43.96 LIG 0.28  HD
ATOM     32 H3   GLU B   1       2.647 -16.780  12.587  1.00 43.96 LIG 0.28  HD
ENDBRANCH 23 29
ENDBRANCH 20 23
ENDBRANCH 10 19
ENDBRANCH 8 10
ENDBRANCH 5 6
BRANCH 5 33
ATOM     33  CB  VAL B   3       3.803 -23.859  17.844  1.00 34.43 LIG 0.01  C 
ATOM     34  CG2 VAL B   3       3.842 -23.752  16.339  1.00 33.75 LIG 0.01  C 
ATOM     35  CG1 VAL B   3       3.543 -25.314  18.263  1.00 37.65 LIG 0.01  C 
ENDBRANCH 5 33
ENDBRANCH 1 5
BRANCH 3 36
ATOM     36  CA  HIS B   4       1.468 -23.501  22.053  1.00 28.98 LIG 0.18  C 
BRANCH 36 37
ATOM     37  CB  HIS B   4       2.771 -24.005  22.701  1.00 26.24 LIG 0.10  C 
BRANCH 37 38
ATOM     38  CG  HIS B   4       2.714 -24.035  24.198  1.00 30.41 LIG 0.06  A 
ATOM     39 ND1  HIS B   4       3.820 -23.808  24.991  1.00 34.08 LIG-0.24  NA
ATOM     40  CE1 HIS B   4       3.470 -23.896  26.265  1.00 29.96 LIG 0.23  A 
ATOM     41 NE2  HIS B   4       2.176 -24.151  26.323  1.00 35.16 LIG-0.25  NA
ATOM     42  CD2 HIS B   4       1.676 -24.240  25.045  1.00 34.95 LIG 0.14  A 
ENDBRANCH 37 38
ENDBRANCH 36 37
BRANCH 36 43
ATOM     43  C   HIS B   4       1.127 -22.108  22.557  1.00 27.46 LIG 0.24  C 
ATOM     44 O    HIS B   4       0.282 -21.940  23.442  1.00 25.24 LIG-0.27  OA
ATOM     45  N   VAL B   5       1.615 -21.132  21.944  1.00 26.31 LIG-0.35  N 
ATOM     46 H    VAL B   5       2.204 -21.196  21.321  1.00 26.31 LIG 0.16  HD
BRANCH 45 47
ATOM     47  CA  VAL B   5       1.197 -19.761  22.261  1.00 25.23 LIG 0.18  C 
BRANCH 47 48
ATOM     48  CB  VAL B   5      -0.309 -19.552  21.973  1.00 26.56 LIG 0.01  C 
ATOM     49  CG2 VAL B   5      -0.512 -19.043  20.554  1.00 31.17 LIG 0.01  C 
ATOM     50  CG1 VAL B   5      -0.936 -18.595  22.958  1.00 34.68 LIG 0.01  C 
ENDBRANCH 47 48
BRANCH 47 51
ATOM     51  C   VAL B   5       1.534 -19.400  23.700  1.00 27.03 LIG 0.24  C 
ATOM     52  N   GLN B   6       1.609 -18.105  23.986  1.00 26.89 LIG-0.34  N 
ATOM     53 H    GLN B   6       1.490 -17.467  23.423  1.00 26.89 LIG 0.16  HD
ATOM     54 O    VAL B   5       1.711 -20.281  24.553  1.00 28.01 LIG-0.27  OA
BRANCH 52 55
ATOM     55  CA  GLN B   6       1.915 -17.687  25.357  1.00 25.51 LIG 0.19  C 
BRANCH 55 56
ATOM     56  C   GLN B   6       0.670 -17.185  26.078  1.00 28.77 LIG 0.20  C 
ATOM     57 OXT  GLN B   6       0.687 -16.159  26.789  1.00 27.06 LIG-0.65  OA
ATOM     58 O    GLN B   6      -0.393 -17.825  25.983  1.00 25.73 LIG-0.65  OA
ENDBRANCH 55 56
BRANCH 55 59
ATOM     59  CB  GLN B   6       2.957 -16.571  25.365  1.00 31.03 LIG 0.04  C 
BRANCH 59 60
ATOM     60  CG  GLN B   6       4.366 -17.025  25.653  1.00 39.52 LIG 0.10  C 
BRANCH 60 61
ATOM     61  CD  GLN B   6       4.960 -16.267  26.819  1.00 49.24 LIG 0.21  C 
ATOM     62  NE2 GLN B   6       6.100 -15.628  26.586  1.00 50.05 LIG-0.37  N 
ATOM     63 21HE GLN B   6       6.467 -15.675  25.810  1.00 50.05 LIG 0.16  HD
ATOM     64 22HE GLN B   6       6.470 -15.168  27.211  1.00 50.05 LIG 0.16  HD
ATOM     65 OE1  GLN B   6       4.387 -16.235  27.915  1.00 58.78 LIG-0.27  OA
ENDBRANCH 60 61
ENDBRANCH 59 60
ENDBRANCH 55 59
ENDBRANCH 52 55
ENDBRANCH 47 51
ENDBRANCH 45 47
ENDBRANCH 36 43
ENDBRANCH 3 36
TORSDOF 27
ENDMDL
MODEL 21
USER: ADFR SOLUTION from run 113
USER: SCORE 20.497201 LL:  -5.459 LR: -16.478 RR:   0.000 FEB:  -8.423
USER: RMSD 10.522007
USER: SEED 112
USER: STATUS searching
USER: GENES 29
USER: genes 0 Translation |==|  0.32389 0.59794 0.36895
USER: genes 1 Rotation |==|  0.74477 0.72810 0.84075 0.64815
USER: genes 2 Torsion [N]-C--CA-[N] |==|  0.97797
USER: genes 3 Torsion [C]-CA--N-[C] |==|  0.20771
USER: genes 4 Torsion [N]-C--CA-[N] |==|  0.37241
USER: genes 5 Torsion [C]-CA--CB-[CG] |==|  0.94813
USER: genes 6 Torsion [CA]-CB--CG-[CD] |==|  0.35017
USER: genes 7 Torsion [CB]-CG--CD-[CE] |==|  0.42765
USER: genes 8 Torsion [CG]-CD--CE-[NZ] |==|  0.08923
USER: genes 9 Torsion [CD]-CE--NZ-[HZ1] |==|  0.94670
USER: genes 10 Torsion [C]-CA--N-[C] |==|  0.78101
USER: genes 11 Torsion [N]-C--CA-[N] |==|  0.90183
USER: genes 12 Torsion [C]-CA--CB-[CG] |==|  0.74218
USER: genes 13 Torsion [CA]-CB--CG-[CD] |==|  0.26354
USER: genes 14 Torsion [CB]-CG--CD-[OE1] |==|  0.94576
USER: genes 15 Torsion [C]-CA--N-[H1] |==|  0.10380
USER: genes 16 Torsion [C]-CA--CB-[CG2] |==|  0.50748
USER: genes 17 Torsion [C]-N--CA-[CB] |==|  0.76667
USER: genes 18 Torsion [N]-CA--CB-[CG] |==|  0.78420
USER: genes 19 Torsion [CA]-CB--CG-[ND1] |==|  0.06742
USER: genes 20 Torsion [N]-CA--C-[N] |==|  0.11929
USER: genes 21 Torsion [C]-N--CA-[CB] |==|  0.86506
USER: genes 22 Torsion [N]-CA--CB-[CG1] |==|  0.41237
USER: genes 23 Torsion [N]-CA--C-[N] |==|  0.32810
USER: genes 24 Torsion [C]-N--CA-[C] |==|  0.57225
USER: genes 25 Torsion [N]-CA--C-[OXT] |==|  0.08703
USER: genes 26 Torsion [N]-CA--CB-[CG] |==|  0.74722
USER: genes 27 Torsion [CA]-CB--CG-[CD] |==|  0.68899
USER: genes 28 Torsion [CB]-CG--CD-[OE1] |==|  0.34439
ROOT
ATOM      1  C   VAL B   3       1.237 -20.333  17.534  1.00 28.64 LIG 0.24  C 
ATOM      2 O    VAL B   3       1.736 -20.671  16.454  1.00 27.24 LIG-0.27  OA
ATOM      3  N   HIS B   4       1.718 -20.819  18.840  1.00 29.63 LIG-0.35  N 
ATOM      4 H    HIS B   4       1.348 -20.676  19.603  1.00 29.63 LIG 0.16  HD
ENDROOT
BRANCH 1 5
ATOM      5  CA  VAL B   3       0.026 -19.384  17.573  1.00 30.81 LIG 0.18  C 
BRANCH 5 6
ATOM      6  N   VAL B   3      -0.501 -19.324  18.929  1.00 30.70 LIG-0.35  N 
ATOM      7 H    VAL B   3      -1.234 -19.758  19.048  1.00 30.70 LIG 0.16  HD
ATOM      8  C   LYS B   2       0.128 -18.644  19.883  1.00 38.89 LIG 0.24  C 
ATOM      9 O    LYS B   2       1.218 -18.087  19.705  1.00 35.72 LIG-0.27  OA
BRANCH 8 10
ATOM     10  CA  LYS B   2      -0.566 -18.605  21.239  1.00 39.86 LIG 0.18  C 
BRANCH 10 11
ATOM     11  CB  LYS B   2      -1.301 -17.264  21.431  1.00 33.57 LIG 0.04  C 
BRANCH 11 12
ATOM     12  CG  LYS B   2      -0.794 -16.166  20.473  1.00 34.54 LIG 0.00  C 
BRANCH 12 13
ATOM     13  CD  LYS B   2      -1.902 -15.515  19.655  1.00 30.34 LIG 0.03  C 
BRANCH 13 14
ATOM     14  CE  LYS B   2      -1.575 -14.102  19.215  1.00 26.25 LIG 0.23  C 
BRANCH 14 15
ATOM     15  NZ  LYS B   2      -0.100 -13.949  18.981  1.00 28.72 LIG-0.08  N 
ATOM     16 HZ2  LYS B   2       0.068 -13.989  18.108  1.00 28.72 LIG 0.27  HD
ATOM     17 HZ3  LYS B   2       0.172 -13.163  19.299  1.00 28.72 LIG 0.27  HD
ATOM     18 HZ1  LYS B   2       0.336 -14.603  19.397  1.00 28.72 LIG 0.27  HD
ENDBRANCH 14 15
ENDBRANCH 13 14
ENDBRANCH 12 13
ENDBRANCH 11 12
ENDBRANCH 10 11
BRANCH 10 19
ATOM     19  N   LYS B   2       0.418 -18.883  22.290  1.00 40.88 LIG-0.35  N 
ATOM     20  C   GLU B   1       0.788 -20.147  22.516  1.00 50.16 LIG 0.25  C 
ATOM     21 O    GLU B   1       0.249 -21.106  21.955  1.00 45.73 LIG-0.27  OA
ATOM     22 H    LYS B   2       0.711 -18.196  22.717  1.00 40.88 LIG 0.16  HD
BRANCH 20 23
ATOM     23  CA  GLU B   1       1.907 -20.394  23.530  1.00 56.89 LIG 0.28  C 
BRANCH 23 24
ATOM     24  CB  GLU B   1       1.315 -20.556  24.928  1.00 44.84 LIG 0.05  C 
BRANCH 24 25
ATOM     25  CG  GLU B   1       1.253 -19.262  25.724  1.00 43.84 LIG 0.12  C 
BRANCH 25 26
ATOM     26  CD  GLU B   1      -0.095 -18.565  25.614  1.00 58.57 LIG 0.17  C 
ATOM     27 OE1  GLU B   1      -0.843 -18.866  24.656  1.00 59.35 LIG-0.65  OA
ATOM     28 OE2  GLU B   1      -0.403 -17.717  26.481  1.00 59.65 LIG-0.65  OA
ENDBRANCH 25 26
ENDBRANCH 24 25
ENDBRANCH 23 24
BRANCH 23 29
ATOM     29  N   GLU B   1       2.927 -19.353  23.509  1.00 43.96 LIG-0.07  N 
ATOM     30 H1   GLU B   1       2.542 -18.562  23.373  1.00 43.96 LIG 0.28  HD
ATOM     31 H2   GLU B   1       3.357 -19.342  24.289  1.00 43.96 LIG 0.28  HD
ATOM     32 H3   GLU B   1       3.506 -19.517  22.854  1.00 43.96 LIG 0.28  HD
ENDBRANCH 23 29
ENDBRANCH 20 23
ENDBRANCH 10 19
ENDBRANCH 8 10
ENDBRANCH 5 6
BRANCH 5 33
ATOM     33  CB  VAL B   3       0.421 -17.989  17.070  1.00 34.43 LIG 0.01  C 
ATOM     34  CG2 VAL B   3      -0.754 -17.048  17.173  1.00 33.75 LIG 0.01  C 
ATOM     35  CG1 VAL B   3       0.907 -18.068  15.615  1.00 37.65 LIG 0.01  C 
ENDBRANCH 5 33
ENDBRANCH 1 5
BRANCH 3 36
ATOM     36  CA  HIS B   4       2.941 -21.620  18.847  1.00 28.98 LIG 0.18  C 
BRANCH 36 37
ATOM     37  CB  HIS B   4       2.641 -23.100  18.545  1.00 26.24 LIG 0.10  C 
BRANCH 37 38
ATOM     38  CG  HIS B   4       2.078 -23.841  19.718  1.00 30.41 LIG 0.06  A 
ATOM     39 ND1  HIS B   4       1.410 -23.211  20.748  1.00 34.08 LIG-0.24  NA
ATOM     40  CE1 HIS B   4       1.027 -24.113  21.638  1.00 29.96 LIG 0.23  A 
ATOM     41 NE2  HIS B   4       1.405 -25.304  21.211  1.00 35.16 LIG-0.25  NA
ATOM     42  CD2 HIS B   4       2.062 -25.165  20.011  1.00 34.95 LIG 0.14  A 
ENDBRANCH 37 38
ENDBRANCH 36 37
BRANCH 36 43
ATOM     43  C   HIS B   4       3.996 -21.086  17.892  1.00 27.46 LIG 0.24  C 
ATOM     44 O    HIS B   4       4.749 -21.852  17.281  1.00 25.24 LIG-0.27  OA
ATOM     45  N   VAL B   5       4.180 -19.849  17.861  1.00 26.31 LIG-0.35  N 
ATOM     46 H    VAL B   5       3.686 -19.274  18.269  1.00 26.31 LIG 0.16  HD
BRANCH 45 47
ATOM     47  CA  VAL B   5       5.293 -19.272  17.098  1.00 25.23 LIG 0.18  C 
BRANCH 47 48
ATOM     48  CB  VAL B   5       6.623 -20.000  17.409  1.00 26.56 LIG 0.01  C 
ATOM     49  CG2 VAL B   5       7.319 -19.347  18.594  1.00 31.17 LIG 0.01  C 
ATOM     50  CG1 VAL B   5       7.545 -20.012  16.213  1.00 34.68 LIG 0.01  C 
ENDBRANCH 47 48
BRANCH 47 51
ATOM     51  C   VAL B   5       5.002 -19.283  15.604  1.00 27.03 LIG 0.24  C 
ATOM     52  N   GLN B   6       4.949 -18.101  15.001  1.00 26.89 LIG-0.34  N 
ATOM     53 H    GLN B   6       5.058 -17.342  15.390  1.00 26.89 LIG 0.16  HD
ATOM     54 O    VAL B   5       4.841 -20.349  14.994  1.00 28.01 LIG-0.27  OA
BRANCH 52 55
ATOM     55  CA  GLN B   6       4.686 -18.038  13.560  1.00 25.51 LIG 0.19  C 
BRANCH 55 56
ATOM     56  C   GLN B   6       5.268 -16.772  12.942  1.00 28.77 LIG 0.20  C 
ATOM     57 OXT  GLN B   6       6.302 -16.235  13.388  1.00 27.06 LIG-0.65  OA
ATOM     58 O    GLN B   6       4.685 -16.236  11.983  1.00 25.73 LIG-0.65  OA
ENDBRANCH 55 56
BRANCH 55 59
ATOM     59  CB  GLN B   6       3.186 -18.065  13.279  1.00 31.03 LIG 0.04  C 
BRANCH 59 60
ATOM     60  CG  GLN B   6       2.606 -19.442  13.073  1.00 39.52 LIG 0.10  C 
BRANCH 60 61
ATOM     61  CD  GLN B   6       2.157 -19.640  11.643  1.00 49.24 LIG 0.21  C 
ATOM     62  NE2 GLN B   6       1.305 -18.743  11.164  1.00 50.05 LIG-0.37  N 
ATOM     63 21HE GLN B   6       1.026 -18.104  11.668  1.00 50.05 LIG 0.16  HD
ATOM     64 22HE GLN B   6       1.031 -18.801  10.351  1.00 50.05 LIG 0.16  HD
ATOM     65 OE1  GLN B   6       2.591 -20.580  10.965  1.00 58.78 LIG-0.27  OA
ENDBRANCH 60 61
ENDBRANCH 59 60
ENDBRANCH 55 59
ENDBRANCH 52 55
ENDBRANCH 47 51
ENDBRANCH 45 47
ENDBRANCH 36 43
ENDBRANCH 3 36
TORSDOF 27
ENDMDL
MODEL 22
USER: ADFR SOLUTION from run 147
USER: SCORE 20.505881 LL:  -5.253 LR: -16.454 RR:   0.000 FEB:  -8.399
USER: RMSD 8.861441
USER: SEED 146
USER: STATUS no improvement in best in 7 clusters for 5 generations
USER: GENES 29
USER: genes 0 Translation |==|  0.35138 0.62582 0.38874
USER: genes 1 Rotation |==|  0.48711 0.24882 0.93031 0.53965
USER: genes 2 Torsion [N]-C--CA-[N] |==|  0.40158
USER: genes 3 Torsion [C]-CA--N-[C] |==|  0.71209
USER: genes 4 Torsion [N]-C--CA-[N] |==|  0.93382
USER: genes 5 Torsion [C]-CA--CB-[CG] |==|  0.98492
USER: genes 6 Torsion [CA]-CB--CG-[CD] |==|  0.64952
USER: genes 7 Torsion [CB]-CG--CD-[CE] |==|  0.35680
USER: genes 8 Torsion [CG]-CD--CE-[NZ] |==|  0.71578
USER: genes 9 Torsion [CD]-CE--NZ-[HZ1] |==|  0.37167
USER: genes 10 Torsion [C]-CA--N-[C] |==|  0.23266
USER: genes 11 Torsion [N]-C--CA-[N] |==|  0.47077
USER: genes 12 Torsion [C]-CA--CB-[CG] |==|  0.13984
USER: genes 13 Torsion [CA]-CB--CG-[CD] |==|  0.57609
USER: genes 14 Torsion [CB]-CG--CD-[OE1] |==|  0.41648
USER: genes 15 Torsion [C]-CA--N-[H1] |==|  0.98666
USER: genes 16 Torsion [C]-CA--CB-[CG2] |==|  0.21438
USER: genes 17 Torsion [C]-N--CA-[CB] |==|  0.77778
USER: genes 18 Torsion [N]-CA--CB-[CG] |==|  0.83868
USER: genes 19 Torsion [CA]-CB--CG-[ND1] |==|  0.64576
USER: genes 20 Torsion [N]-CA--C-[N] |==|  0.21290
USER: genes 21 Torsion [C]-N--CA-[CB] |==|  0.85893
USER: genes 22 Torsion [N]-CA--CB-[CG1] |==|  0.35495
USER: genes 23 Torsion [N]-CA--C-[N] |==|  0.36275
USER: genes 24 Torsion [C]-N--CA-[C] |==|  0.18846
USER: genes 25 Torsion [N]-CA--C-[OXT] |==|  0.49822
USER: genes 26 Torsion [N]-CA--CB-[CG] |==|  0.76797
USER: genes 27 Torsion [CA]-CB--CG-[CD] |==|  0.97670
USER: genes 28 Torsion [CB]-CG--CD-[OE1] |==|  0.81294
ROOT
ATOM      1  C   VAL B   3       1.732 -19.685  17.980  1.00 28.64 LIG 0.24  C 
ATOM      2 O    VAL B   3       2.670 -19.639  18.786  1.00 27.24 LIG-0.27  OA
ATOM      3  N   HIS B   4       1.583 -20.741  16.964  1.00 29.63 LIG-0.35  N 
ATOM      4 H    HIS B   4       0.997 -20.763  16.334  1.00 29.63 LIG 0.16  HD
ENDROOT
BRANCH 1 5
ATOM      5  CA  VAL B   3       0.655 -18.585  17.971  1.00 30.81 LIG 0.18  C 
BRANCH 5 6
ATOM      6  N   VAL B   3       0.382 -18.162  19.337  1.00 30.70 LIG-0.35  N 
ATOM      7 H    VAL B   3       0.981 -17.649  19.679  1.00 30.70 LIG 0.16  HD
ATOM      8  C   LYS B   2      -0.715 -18.556  19.975  1.00 38.89 LIG 0.24  C 
ATOM      9 O    LYS B   2      -1.597 -19.237  19.438  1.00 35.72 LIG-0.27  OA
BRANCH 8 10
ATOM     10  CA  LYS B   2      -0.845 -18.098  21.422  1.00 39.86 LIG 0.18  C 
BRANCH 10 11
ATOM     11  CB  LYS B   2      -1.812 -16.902  21.525  1.00 33.57 LIG 0.04  C 
BRANCH 11 12
ATOM     12  CG  LYS B   2      -2.285 -16.400  20.146  1.00 34.54 LIG 0.00  C 
BRANCH 12 13
ATOM     13  CD  LYS B   2      -2.052 -14.910  19.929  1.00 30.34 LIG 0.03  C 
BRANCH 13 14
ATOM     14  CE  LYS B   2      -1.323 -14.596  18.638  1.00 26.25 LIG 0.23  C 
BRANCH 14 15
ATOM     15  NZ  LYS B   2       0.121 -14.287  18.908  1.00 28.72 LIG-0.08  N 
ATOM     16 HZ2  LYS B   2       0.259 -13.412  18.819  1.00 28.72 LIG 0.27  HD
ATOM     17 HZ3  LYS B   2       0.329 -14.537  19.737  1.00 28.72 LIG 0.27  HD
ATOM     18 HZ1  LYS B   2       0.633 -14.728  18.329  1.00 28.72 LIG 0.27  HD
ENDBRANCH 14 15
ENDBRANCH 13 14
ENDBRANCH 12 13
ENDBRANCH 11 12
ENDBRANCH 10 11
BRANCH 10 19
ATOM     19  N   LYS B   2       0.490 -17.813  21.958  1.00 40.88 LIG-0.35  N 
ATOM     20  C   GLU B   1       1.042 -16.618  21.728  1.00 50.16 LIG 0.25  C 
ATOM     21 O    GLU B   1       0.524 -15.782  20.981  1.00 45.73 LIG-0.27  OA
ATOM     22 H    LYS B   2       0.856 -18.451  22.405  1.00 40.88 LIG 0.16  HD
BRANCH 20 23
ATOM     23  CA  GLU B   1       2.378 -16.306  22.405  1.00 56.89 LIG 0.28  C 
BRANCH 23 24
ATOM     24  CB  GLU B   1       2.189 -16.234  23.918  1.00 44.84 LIG 0.05  C 
BRANCH 24 25
ATOM     25  CG  GLU B   1       1.456 -17.430  24.505  1.00 43.84 LIG 0.12  C 
BRANCH 25 26
ATOM     26  CD  GLU B   1       0.706 -17.093  25.784  1.00 58.57 LIG 0.17  C 
ATOM     27 OE1  GLU B   1      -0.336 -17.735  26.050  1.00 59.35 LIG-0.65  OA
ATOM     28 OE2  GLU B   1       1.155 -16.185  26.520  1.00 59.65 LIG-0.65  OA
ENDBRANCH 25 26
ENDBRANCH 24 25
ENDBRANCH 23 24
BRANCH 23 29
ATOM     29  N   GLU B   1       2.998 -15.089  21.895  1.00 43.96 LIG-0.07  N 
ATOM     30 H1   GLU B   1       2.516 -14.771  21.218  1.00 43.96 LIG 0.28  HD
ATOM     31 H2   GLU B   1       3.036 -14.480  22.543  1.00 43.96 LIG 0.28  HD
ATOM     32 H3   GLU B   1       3.821 -15.271  21.611  1.00 43.96 LIG 0.28  HD
ENDBRANCH 23 29
ENDBRANCH 20 23
ENDBRANCH 10 19
ENDBRANCH 8 10
ENDBRANCH 5 6
BRANCH 5 33
ATOM     33  CB  VAL B   3       1.104 -17.401  17.104  1.00 34.43 LIG 0.01  C 
ATOM     34  CG2 VAL B   3       0.937 -17.734  15.642  1.00 33.75 LIG 0.01  C 
ATOM     35  CG1 VAL B   3       2.571 -17.053  17.401  1.00 37.65 LIG 0.01  C 
ENDBRANCH 5 33
ENDBRANCH 1 5
BRANCH 3 36
ATOM     36  CA  HIS B   4       2.517 -21.865  17.025  1.00 28.98 LIG 0.18  C 
BRANCH 36 37
ATOM     37  CB  HIS B   4       3.874 -21.499  16.396  1.00 26.24 LIG 0.10  C 
BRANCH 37 38
ATOM     38  CG  HIS B   4       3.766 -21.064  14.967  1.00 30.41 LIG 0.06  A 
ATOM     39 ND1  HIS B   4       4.520 -21.624  13.957  1.00 34.08 LIG-0.24  NA
ATOM     40  CE1 HIS B   4       4.211 -21.046  12.807  1.00 29.96 LIG 0.23  A 
ATOM     41 NE2  HIS B   4       3.271 -20.147  13.034  1.00 35.16 LIG-0.25  NA
ATOM     42  CD2 HIS B   4       2.970 -20.139  14.375  1.00 34.95 LIG 0.14  A 
ENDBRANCH 37 38
ENDBRANCH 36 37
BRANCH 36 43
ATOM     43  C   HIS B   4       2.711 -22.389  18.439  1.00 27.46 LIG 0.24  C 
ATOM     44 O    HIS B   4       3.786 -22.247  19.029  1.00 25.24 LIG-0.27  OA
ATOM     45  N   VAL B   5       1.803 -23.100  18.924  1.00 26.31 LIG-0.35  N 
ATOM     46 H    VAL B   5       1.038 -23.232  18.553  1.00 26.31 LIG 0.16  HD
BRANCH 45 47
ATOM     47  CA  VAL B   5       1.990 -23.784  20.210  1.00 25.23 LIG 0.18  C 
BRANCH 47 48
ATOM     48  CB  VAL B   5       3.313 -24.586  20.232  1.00 26.56 LIG 0.01  C 
ATOM     49  CG2 VAL B   5       3.028 -26.080  20.209  1.00 31.17 LIG 0.01  C 
ATOM     50  CG1 VAL B   5       4.153 -24.241  21.439  1.00 34.68 LIG 0.01  C 
ENDBRANCH 47 48
BRANCH 47 51
ATOM     51  C   VAL B   5       1.927 -22.802  21.371  1.00 27.03 LIG 0.24  C 
ATOM     52  N   GLN B   6       1.130 -23.128  22.382  1.00 26.89 LIG-0.34  N 
ATOM     53 H    GLN B   6       0.649 -23.840  22.423  1.00 26.89 LIG 0.16  HD
ATOM     54 O    VAL B   5       2.603 -21.763  21.365  1.00 28.01 LIG-0.27  OA
BRANCH 52 55
ATOM     55  CA  GLN B   6       1.032 -22.234  23.540  1.00 25.51 LIG 0.19  C 
BRANCH 55 56
ATOM     56  C   GLN B   6       0.351 -20.921  23.174  1.00 28.77 LIG 0.20  C 
ATOM     57 OXT  GLN B   6       0.155 -20.022  24.016  1.00 27.06 LIG-0.65  OA
ATOM     58 O    GLN B   6      -0.051 -20.743  22.010  1.00 25.73 LIG-0.65  OA
ENDBRANCH 55 56
BRANCH 55 59
ATOM     59  CB  GLN B   6       2.416 -21.917  24.100  1.00 31.03 LIG 0.04  C 
BRANCH 59 60
ATOM     60  CG  GLN B   6       2.966 -22.953  25.049  1.00 39.52 LIG 0.10  C 
BRANCH 60 61
ATOM     61  CD  GLN B   6       1.922 -23.992  25.393  1.00 49.24 LIG 0.21  C 
ATOM     62  NE2 GLN B   6       2.156 -25.226  24.964  1.00 50.05 LIG-0.37  N 
ATOM     63 21HE GLN B   6       2.862 -25.394  24.503  1.00 50.05 LIG 0.16  HD
ATOM     64 22HE GLN B   6       1.601 -25.857  25.148  1.00 50.05 LIG 0.16  HD
ATOM     65 OE1  GLN B   6       0.923 -23.693  26.059  1.00 58.78 LIG-0.27  OA
ENDBRANCH 60 61
ENDBRANCH 59 60
ENDBRANCH 55 59
ENDBRANCH 52 55
ENDBRANCH 47 51
ENDBRANCH 45 47
ENDBRANCH 36 43
ENDBRANCH 3 36
TORSDOF 27
ENDMDL
MODEL 23
USER: ADFR SOLUTION from run 81
USER: SCORE 19.748699 LL:  -4.699 LR: -16.339 RR:   0.000 FEB:  -8.285
USER: RMSD 10.619418
USER: SEED 80
USER: STATUS no improvement in best in 12 clusters for 5 generations
USER: GENES 29
USER: genes 0 Translation |==|  0.37267 0.50376 0.45060
USER: genes 1 Rotation |==|  0.29389 0.44418 0.95087 0.53346
USER: genes 2 Torsion [N]-C--CA-[N] |==|  0.39980
USER: genes 3 Torsion [C]-CA--N-[C] |==|  0.72166
USER: genes 4 Torsion [N]-C--CA-[N] |==|  0.90568
USER: genes 5 Torsion [C]-CA--CB-[CG] |==|  0.53031
USER: genes 6 Torsion [CA]-CB--CG-[CD] |==|  0.84262
USER: genes 7 Torsion [CB]-CG--CD-[CE] |==|  0.45852
USER: genes 8 Torsion [CG]-CD--CE-[NZ] |==|  0.99999
USER: genes 9 Torsion [CD]-CE--NZ-[HZ1] |==|  0.15286
USER: genes 10 Torsion [C]-CA--N-[C] |==|  0.80727
USER: genes 11 Torsion [N]-C--CA-[N] |==|  0.94564
USER: genes 12 Torsion [C]-CA--CB-[CG] |==|  0.39363
USER: genes 13 Torsion [CA]-CB--CG-[CD] |==|  0.67982
USER: genes 14 Torsion [CB]-CG--CD-[OE1] |==|  0.65312
USER: genes 15 Torsion [C]-CA--N-[H1] |==|  0.59285
USER: genes 16 Torsion [C]-CA--CB-[CG2] |==|  0.34093
USER: genes 17 Torsion [C]-N--CA-[CB] |==|  0.19664
USER: genes 18 Torsion [N]-CA--CB-[CG] |==|  0.74346
USER: genes 19 Torsion [CA]-CB--CG-[ND1] |==|  0.33684
USER: genes 20 Torsion [N]-CA--C-[N] |==|  0.77466
USER: genes 21 Torsion [C]-N--CA-[CB] |==|  0.83889
USER: genes 22 Torsion [N]-CA--CB-[CG1] |==|  0.33197
USER: genes 23 Torsion [N]-CA--C-[N] |==|  0.42412
USER: genes 24 Torsion [C]-N--CA-[C] |==|  0.54559
USER: genes 25 Torsion [N]-CA--C-[OXT] |==|  0.89703
USER: genes 26 Torsion [N]-CA--CB-[CG] |==|  0.40255
USER: genes 27 Torsion [CA]-CB--CG-[CD] |==|  0.46746
USER: genes 28 Torsion [CB]-CG--CD-[OE1] |==|  0.72461
ROOT
ATOM      1  C   VAL B   3       2.115 -22.523  19.371  1.00 28.64 LIG 0.24  C 
ATOM      2 O    VAL B   3       2.533 -21.949  20.385  1.00 27.24 LIG-0.27  OA
ATOM      3  N   HIS B   4       1.791 -23.959  19.325  1.00 29.63 LIG-0.35  N 
ATOM      4 H    HIS B   4       1.581 -24.410  18.624  1.00 29.63 LIG 0.16  HD
ENDROOT
BRANCH 1 5
ATOM      5  CA  VAL B   3       1.939 -21.749  18.053  1.00 30.81 LIG 0.18  C 
BRANCH 5 6
ATOM      6  N   VAL B   3       1.451 -20.407  18.339  1.00 30.70 LIG-0.35  N 
ATOM      7 H    VAL B   3       2.056 -19.853  18.595  1.00 30.70 LIG 0.16  HD
ATOM      8  C   LYS B   2       0.165 -20.098  18.202  1.00 38.89 LIG 0.24  C 
ATOM      9 O    LYS B   2      -0.675 -20.892  17.763  1.00 35.72 LIG-0.27  OA
BRANCH 8 10
ATOM     10  CA  LYS B   2      -0.223 -18.680  18.600  1.00 39.86 LIG 0.18  C 
BRANCH 10 11
ATOM     11  CB  LYS B   2      -0.142 -17.736  17.384  1.00 33.57 LIG 0.04  C 
BRANCH 11 12
ATOM     12  CG  LYS B   2      -0.262 -16.249  17.777  1.00 34.54 LIG 0.00  C 
BRANCH 12 13
ATOM     13  CD  LYS B   2      -1.537 -15.925  18.545  1.00 30.34 LIG 0.03  C 
BRANCH 13 14
ATOM     14  CE  LYS B   2      -1.497 -14.577  19.236  1.00 26.25 LIG 0.23  C 
BRANCH 14 15
ATOM     15  NZ  LYS B   2      -0.186 -13.891  18.983  1.00 28.72 LIG-0.08  N 
ATOM     16 HZ2  LYS B   2      -0.205 -13.073  19.334  1.00 28.72 LIG 0.27  HD
ATOM     17 HZ3  LYS B   2       0.472 -14.359  19.358  1.00 28.72 LIG 0.27  HD
ATOM     18 HZ1  LYS B   2      -0.045 -13.834  18.106  1.00 28.72 LIG 0.27  HD
ENDBRANCH 14 15
ENDBRANCH 13 14
ENDBRANCH 12 13
ENDBRANCH 11 12
ENDBRANCH 10 11
BRANCH 10 19
ATOM     19  N   LYS B   2       0.612 -18.249  19.726  1.00 40.88 LIG-0.35  N 
ATOM     20  C   GLU B   1       0.438 -18.820  20.921  1.00 50.16 LIG 0.25  C 
ATOM     21 O    GLU B   1      -0.480 -19.614  21.148  1.00 45.73 LIG-0.27  OA
ATOM     22 H    LYS B   2       1.187 -17.634  19.549  1.00 40.88 LIG 0.16  HD
BRANCH 20 23
ATOM     23  CA  GLU B   1       1.408 -18.442  22.042  1.00 56.89 LIG 0.28  C 
BRANCH 23 24
ATOM     24  CB  GLU B   1       0.720 -17.502  23.030  1.00 44.84 LIG 0.05  C 
BRANCH 24 25
ATOM     25  CG  GLU B   1       1.089 -17.758  24.482  1.00 43.84 LIG 0.12  C 
BRANCH 25 26
ATOM     26  CD  GLU B   1      -0.093 -18.224  25.318  1.00 58.57 LIG 0.17  C 
ATOM     27 OE1  GLU B   1      -0.380 -17.581  26.354  1.00 59.35 LIG-0.65  OA
ATOM     28 OE2  GLU B   1      -0.731 -19.234  24.943  1.00 59.65 LIG-0.65  OA
ENDBRANCH 25 26
ENDBRANCH 24 25
ENDBRANCH 23 24
BRANCH 23 29
ATOM     29  N   GLU B   1       2.649 -17.863  21.543  1.00 43.96 LIG-0.07  N 
ATOM     30 H1   GLU B   1       3.321 -18.096  22.078  1.00 43.96 LIG 0.28  HD
ATOM     31 H2   GLU B   1       2.807 -18.163  20.720  1.00 43.96 LIG 0.28  HD
ATOM     32 H3   GLU B   1       2.578 -16.977  21.527  1.00 43.96 LIG 0.28  HD
ENDBRANCH 23 29
ENDBRANCH 20 23
ENDBRANCH 10 19
ENDBRANCH 8 10
ENDBRANCH 5 6
BRANCH 5 33
ATOM     33  CB  VAL B   3       3.262 -21.703  17.276  1.00 34.43 LIG 0.01  C 
ATOM     34  CG2 VAL B   3       3.079 -22.298  15.902  1.00 33.75 LIG 0.01  C 
ATOM     35  CG1 VAL B   3       4.352 -22.468  18.042  1.00 37.65 LIG 0.01  C 
ENDBRANCH 5 33
ENDBRANCH 1 5
BRANCH 3 36
ATOM     36  CA  HIS B   4       1.828 -24.695  20.588  1.00 28.98 LIG 0.18  C 
BRANCH 36 37
ATOM     37  CB  HIS B   4       0.657 -24.292  21.504  1.00 26.24 LIG 0.10  C 
BRANCH 37 38
ATOM     38  CG  HIS B   4       1.000 -23.182  22.450  1.00 30.41 LIG 0.06  A 
ATOM     39 ND1  HIS B   4       0.316 -21.985  22.474  1.00 34.08 LIG-0.24  NA
ATOM     40  CE1 HIS B   4       0.835 -21.202  23.407  1.00 29.96 LIG 0.23  A 
ATOM     41 NE2  HIS B   4       1.816 -21.858  24.000  1.00 35.16 LIG-0.25  NA
ATOM     42  CD2 HIS B   4       1.939 -23.101  23.424  1.00 34.95 LIG 0.14  A 
ENDBRANCH 37 38
ENDBRANCH 36 37
BRANCH 36 43
ATOM     43  C   HIS B   4       1.852 -26.201  20.388  1.00 27.46 LIG 0.24  C 
ATOM     44 O    HIS B   4       2.920 -26.816  20.299  1.00 25.24 LIG-0.27  OA
ATOM     45  N   VAL B   5       0.763 -26.775  20.162  1.00 26.31 LIG-0.35  N 
ATOM     46 H    VAL B   5      -0.006 -26.392  20.209  1.00 26.31 LIG 0.16  HD
BRANCH 45 47
ATOM     47  CA  VAL B   5       0.724 -28.194  19.787  1.00 25.23 LIG 0.18  C 
BRANCH 47 48
ATOM     48  CB  VAL B   5       1.553 -28.459  18.508  1.00 26.56 LIG 0.01  C 
ATOM     49  CG2 VAL B   5       0.657 -28.983  17.395  1.00 31.17 LIG 0.01  C 
ATOM     50  CG1 VAL B   5       2.678 -29.434  18.765  1.00 34.68 LIG 0.01  C 
ENDBRANCH 47 48
BRANCH 47 51
ATOM     51  C   VAL B   5       1.189 -29.080  20.933  1.00 27.03 LIG 0.24  C 
ATOM     52  N   GLN B   6       0.703 -30.315  20.964  1.00 26.89 LIG-0.34  N 
ATOM     53 H    GLN B   6       0.146 -30.642  20.396  1.00 26.89 LIG 0.16  HD
ATOM     54 O    VAL B   5       1.994 -28.660  21.778  1.00 28.01 LIG-0.27  OA
BRANCH 52 55
ATOM     55  CA  GLN B   6       1.120 -31.228  22.033  1.00 25.51 LIG 0.19  C 
BRANCH 55 56
ATOM     56  C   GLN B   6       0.793 -32.676  21.689  1.00 28.77 LIG 0.20  C 
ATOM     57 OXT  GLN B   6      -0.250 -32.990  21.080  1.00 27.06 LIG-0.65  OA
ATOM     58 O    GLN B   6       1.568 -33.580  22.046  1.00 25.73 LIG-0.65  OA
ENDBRANCH 55 56
BRANCH 55 59
ATOM     59  CB  GLN B   6       0.427 -30.878  23.348  1.00 31.03 LIG 0.04  C 
BRANCH 59 60
ATOM     60  CG  GLN B   6       0.083 -32.063  24.215  1.00 39.52 LIG 0.10  C 
BRANCH 60 61
ATOM     61  CD  GLN B   6      -0.332 -31.626  25.602  1.00 49.24 LIG 0.21  C 
ATOM     62  NE2 GLN B   6      -1.593 -31.237  25.744  1.00 50.05 LIG-0.37  N 
ATOM     63 21HE GLN B   6      -2.118 -31.226  25.063  1.00 50.05 LIG 0.16  HD
ATOM     64 22HE GLN B   6      -1.884 -30.995  26.516  1.00 50.05 LIG 0.16  HD
ATOM     65 OE1  GLN B   6       0.467 -31.661  26.546  1.00 58.78 LIG-0.27  OA
ENDBRANCH 60 61
ENDBRANCH 59 60
ENDBRANCH 55 59
ENDBRANCH 52 55
ENDBRANCH 47 51
ENDBRANCH 45 47
ENDBRANCH 36 43
ENDBRANCH 3 36
TORSDOF 27
ENDMDL
MODEL 24
USER: ADFR SOLUTION from run 165
USER: SCORE 21.606051 LL:  -6.853 LR: -16.285 RR:   0.000 FEB:  -8.231
USER: RMSD 8.741416
USER: SEED 164
USER: STATUS no improvement in best in 4 clusters for 5 generations
USER: GENES 29
USER: genes 0 Translation |==|  0.24253 0.74075 0.49430
USER: genes 1 Rotation |==|  0.83807 0.72446 0.20790 0.50255
USER: genes 2 Torsion [N]-C--CA-[N] |==|  0.87261
USER: genes 3 Torsion [C]-CA--N-[C] |==|  0.85821
USER: genes 4 Torsion [N]-C--CA-[N] |==|  0.34528
USER: genes 5 Torsion [C]-CA--CB-[CG] |==|  0.36970
USER: genes 6 Torsion [CA]-CB--CG-[CD] |==|  0.75301
USER: genes 7 Torsion [CB]-CG--CD-[CE] |==|  0.02809
USER: genes 8 Torsion [CG]-CD--CE-[NZ] |==|  0.40133
USER: genes 9 Torsion [CD]-CE--NZ-[HZ1] |==|  0.95546
USER: genes 10 Torsion [C]-CA--N-[C] |==|  0.65732
USER: genes 11 Torsion [N]-C--CA-[N] |==|  0.75333
USER: genes 12 Torsion [C]-CA--CB-[CG] |==|  0.50609
USER: genes 13 Torsion [CA]-CB--CG-[CD] |==|  0.25022
USER: genes 14 Torsion [CB]-CG--CD-[OE1] |==|  0.80868
USER: genes 15 Torsion [C]-CA--N-[H1] |==|  0.48876
USER: genes 16 Torsion [C]-CA--CB-[CG2] |==|  0.39160
USER: genes 17 Torsion [C]-N--CA-[CB] |==|  0.43987
USER: genes 18 Torsion [N]-CA--CB-[CG] |==|  0.27566
USER: genes 19 Torsion [CA]-CB--CG-[ND1] |==|  0.31296
USER: genes 20 Torsion [N]-CA--C-[N] |==|  0.45323
USER: genes 21 Torsion [C]-N--CA-[CB] |==|  0.86109
USER: genes 22 Torsion [N]-CA--CB-[CG1] |==|  0.32559
USER: genes 23 Torsion [N]-CA--C-[N] |==|  0.89208
USER: genes 24 Torsion [C]-N--CA-[C] |==|  0.79427
USER: genes 25 Torsion [N]-CA--C-[OXT] |==|  0.02703
USER: genes 26 Torsion [N]-CA--CB-[CG] |==|  0.86440
USER: genes 27 Torsion [CA]-CB--CG-[CD] |==|  0.57635
USER: genes 28 Torsion [CB]-CG--CD-[OE1] |==|  0.24966
ROOT
ATOM      1  C   VAL B   3      -0.228 -17.013  20.355  1.00 28.64 LIG 0.24  C 
ATOM      2 O    VAL B   3      -0.849 -17.183  21.412  1.00 27.24 LIG-0.27  OA
ATOM      3  N   HIS B   4       0.307 -18.117  19.539  1.00 29.63 LIG-0.35  N 
ATOM      4 H    HIS B   4       0.814 -18.039  18.848  1.00 29.63 LIG 0.16  HD
ENDROOT
BRANCH 1 5
ATOM      5  CA  VAL B   3       0.060 -15.592  19.838  1.00 30.81 LIG 0.18  C 
BRANCH 5 6
ATOM      6  N   VAL B   3       1.460 -15.491  19.450  1.00 30.70 LIG-0.35  N 
ATOM      7 H    VAL B   3       1.591 -15.173  18.662  1.00 30.70 LIG 0.16  HD
ATOM      8  C   LYS B   2       2.433 -15.869  20.273  1.00 38.89 LIG 0.24  C 
ATOM      9 O    LYS B   2       2.223 -16.257  21.429  1.00 35.72 LIG-0.27  OA
BRANCH 8 10
ATOM     10  CA  LYS B   2       3.848 -15.776  19.718  1.00 39.86 LIG 0.18  C 
BRANCH 10 11
ATOM     11  CB  LYS B   2       4.434 -17.184  19.493  1.00 33.57 LIG 0.04  C 
BRANCH 11 12
ATOM     12  CG  LYS B   2       5.107 -17.333  18.113  1.00 34.54 LIG 0.00  C 
BRANCH 12 13
ATOM     13  CD  LYS B   2       4.151 -17.784  17.017  1.00 30.34 LIG 0.03  C 
BRANCH 13 14
ATOM     14  CE  LYS B   2       2.696 -17.762  17.439  1.00 26.25 LIG 0.23  C 
BRANCH 14 15
ATOM     15  NZ  LYS B   2       1.818 -17.360  16.290  1.00 28.72 LIG-0.08  N 
ATOM     16 HZ2  LYS B   2       1.406 -18.079  15.965  1.00 28.72 LIG 0.27  HD
ATOM     17 HZ3  LYS B   2       1.211 -16.773  16.570  1.00 28.72 LIG 0.27  HD
ATOM     18 HZ1  LYS B   2       2.315 -16.990  15.652  1.00 28.72 LIG 0.27  HD
ENDBRANCH 14 15
ENDBRANCH 13 14
ENDBRANCH 12 13
ENDBRANCH 11 12
ENDBRANCH 10 11
BRANCH 10 19
ATOM     19  N   LYS B   2       4.662 -14.945  20.612  1.00 40.88 LIG-0.35  N 
ATOM     20  C   GLU B   1       5.279 -13.869  20.117  1.00 50.16 LIG 0.25  C 
ATOM     21 O    GLU B   1       5.290 -13.608  18.911  1.00 45.73 LIG-0.27  OA
ATOM     22 H    LYS B   2       4.698 -15.205  21.432  1.00 40.88 LIG 0.16  HD
BRANCH 20 23
ATOM     23  CA  GLU B   1       6.015 -12.953  21.097  1.00 56.89 LIG 0.28  C 
BRANCH 23 24
ATOM     24  CB  GLU B   1       6.653 -13.785  22.208  1.00 44.84 LIG 0.05  C 
BRANCH 24 25
ATOM     25  CG  GLU B   1       7.366 -12.957  23.265  1.00 43.84 LIG 0.12  C 
BRANCH 25 26
ATOM     26  CD  GLU B   1       6.455 -12.560  24.417  1.00 58.57 LIG 0.17  C 
ATOM     27 OE1  GLU B   1       5.539 -11.735  24.194  1.00 59.35 LIG-0.65  OA
ATOM     28 OE2  GLU B   1       6.657 -13.068  25.543  1.00 59.65 LIG-0.65  OA
ENDBRANCH 25 26
ENDBRANCH 24 25
ENDBRANCH 23 24
BRANCH 23 29
ATOM     29  N   GLU B   1       5.157 -11.911  21.649  1.00 43.96 LIG-0.07  N 
ATOM     30 H1   GLU B   1       5.611 -11.443  22.254  1.00 43.96 LIG 0.28  HD
ATOM     31 H2   GLU B   1       4.889 -11.370  20.995  1.00 43.96 LIG 0.28  HD
ATOM     32 H3   GLU B   1       4.447 -12.284  22.034  1.00 43.96 LIG 0.28  HD
ENDBRANCH 23 29
ENDBRANCH 20 23
ENDBRANCH 10 19
ENDBRANCH 8 10
ENDBRANCH 5 6
BRANCH 5 33
ATOM     33  CB  VAL B   3      -0.866 -15.250  18.662  1.00 34.43 LIG 0.01  C 
ATOM     34  CG2 VAL B   3      -1.314 -13.813  18.754  1.00 33.75 LIG 0.01  C 
ATOM     35  CG1 VAL B   3      -2.086 -16.184  18.661  1.00 37.65 LIG 0.01  C 
ENDBRANCH 5 33
ENDBRANCH 1 5
BRANCH 3 36
ATOM     36  CA  HIS B   4      -0.055 -19.478  19.934  1.00 28.98 LIG 0.18  C 
BRANCH 36 37
ATOM     37  CB  HIS B   4       0.094 -20.459  18.756  1.00 26.24 LIG 0.10  C 
BRANCH 37 38
ATOM     38  CG  HIS B   4       1.372 -21.240  18.794  1.00 30.41 LIG 0.06  A 
ATOM     39 ND1  HIS B   4       1.408 -22.602  19.011  1.00 34.08 LIG-0.24  NA
ATOM     40  CE1 HIS B   4       2.665 -23.015  18.989  1.00 29.96 LIG 0.23  A 
ATOM     41 NE2  HIS B   4       3.441 -21.974  18.746  1.00 35.16 LIG-0.25  NA
ATOM     42  CD2 HIS B   4       2.658 -20.851  18.616  1.00 34.95 LIG 0.14  A 
ENDBRANCH 37 38
ENDBRANCH 36 37
BRANCH 36 43
ATOM     43  C   HIS B   4       0.734 -19.967  21.136  1.00 27.46 LIG 0.24  C 
ATOM     44 O    HIS B   4       1.844 -19.497  21.405  1.00 25.24 LIG-0.27  OA
ATOM     45  N   VAL B   5       0.296 -20.965  21.752  1.00 26.31 LIG-0.35  N 
ATOM     46 H    VAL B   5      -0.468 -21.331  21.603  1.00 26.31 LIG 0.16  HD
BRANCH 45 47
ATOM     47  CA  VAL B   5       1.088 -21.602  22.812  1.00 25.23 LIG 0.18  C 
BRANCH 47 48
ATOM     48  CB  VAL B   5       2.532 -21.891  22.337  1.00 26.56 LIG 0.01  C 
ATOM     49  CG2 VAL B   5       2.826 -23.382  22.414  1.00 31.17 LIG 0.01  C 
ATOM     50  CG1 VAL B   5       3.549 -21.123  23.147  1.00 34.68 LIG 0.01  C 
ENDBRANCH 47 48
BRANCH 47 51
ATOM     51  C   VAL B   5       1.088 -20.761  24.081  1.00 27.03 LIG 0.24  C 
ATOM     52  N   GLN B   6       1.161 -19.445  23.922  1.00 26.89 LIG-0.34  N 
ATOM     53 H    GLN B   6       1.215 -19.041  23.165  1.00 26.89 LIG 0.16  HD
ATOM     54 O    VAL B   5       1.008 -21.294  25.198  1.00 28.01 LIG-0.27  OA
BRANCH 52 55
ATOM     55  CA  GLN B   6       1.152 -18.575  25.102  1.00 25.51 LIG 0.19  C 
BRANCH 55 56
ATOM     56  C   GLN B   6      -0.239 -18.489  25.720  1.00 28.77 LIG 0.20  C 
ATOM     57 OXT  GLN B   6      -1.170 -19.235  25.356  1.00 27.06 LIG-0.65  OA
ATOM     58 O    GLN B   6      -0.468 -17.634  26.594  1.00 25.73 LIG-0.65  OA
ENDBRANCH 55 56
BRANCH 55 59
ATOM     59  CB  GLN B   6       1.605 -17.163  24.739  1.00 31.03 LIG 0.04  C 
BRANCH 59 60
ATOM     60  CG  GLN B   6       2.877 -17.096  23.932  1.00 39.52 LIG 0.10  C 
BRANCH 60 61
ATOM     61  CD  GLN B   6       3.609 -15.794  24.169  1.00 49.24 LIG 0.21  C 
ATOM     62  NE2 GLN B   6       3.279 -14.781  23.377  1.00 50.05 LIG-0.37  N 
ATOM     63 21HE GLN B   6       2.691 -14.892  22.760  1.00 50.05 LIG 0.16  HD
ATOM     64 22HE GLN B   6       3.655 -14.014  23.482  1.00 50.05 LIG 0.16  HD
ATOM     65 OE1  GLN B   6       4.449 -15.692  25.072  1.00 58.78 LIG-0.27  OA
ENDBRANCH 60 61
ENDBRANCH 59 60
ENDBRANCH 55 59
ENDBRANCH 52 55
ENDBRANCH 47 51
ENDBRANCH 45 47
ENDBRANCH 36 43
ENDBRANCH 3 36
TORSDOF 27
ENDMDL
MODEL 25
USER: ADFR SOLUTION from run 84
USER: SCORE 21.499680 LL:  -7.023 LR: -16.285 RR:   0.000 FEB:  -8.231
USER: RMSD 9.025018
USER: SEED 83
USER: STATUS no improvement in best in 1 clusters for 5 generations
USER: GENES 29
USER: genes 0 Translation |==|  0.17435 0.75165 0.55552
USER: genes 1 Rotation |==|  0.74581 0.80346 0.34010 0.76818
USER: genes 2 Torsion [N]-C--CA-[N] |==|  0.09817
USER: genes 3 Torsion [C]-CA--N-[C] |==|  0.17744
USER: genes 4 Torsion [N]-C--CA-[N] |==|  0.13286
USER: genes 5 Torsion [C]-CA--CB-[CG] |==|  0.56793
USER: genes 6 Torsion [CA]-CB--CG-[CD] |==|  0.62792
USER: genes 7 Torsion [CB]-CG--CD-[CE] |==|  0.44490
USER: genes 8 Torsion [CG]-CD--CE-[NZ] |==|  0.78952
USER: genes 9 Torsion [CD]-CE--NZ-[HZ1] |==|  0.91811
USER: genes 10 Torsion [C]-CA--N-[C] |==|  0.15553
USER: genes 11 Torsion [N]-C--CA-[N] |==|  0.31202
USER: genes 12 Torsion [C]-CA--CB-[CG] |==|  0.19249
USER: genes 13 Torsion [CA]-CB--CG-[CD] |==|  0.13794
USER: genes 14 Torsion [CB]-CG--CD-[OE1] |==|  0.04820
USER: genes 15 Torsion [C]-CA--N-[H1] |==|  0.23822
USER: genes 16 Torsion [C]-CA--CB-[CG2] |==|  0.52675
USER: genes 17 Torsion [C]-N--CA-[CB] |==|  0.82145
USER: genes 18 Torsion [N]-CA--CB-[CG] |==|  0.59455
USER: genes 19 Torsion [CA]-CB--CG-[ND1] |==|  0.76788
USER: genes 20 Torsion [N]-CA--C-[N] |==|  0.16341
USER: genes 21 Torsion [C]-N--CA-[CB] |==|  0.50143
USER: genes 22 Torsion [N]-CA--CB-[CG1] |==|  0.78144
USER: genes 23 Torsion [N]-CA--C-[N] |==|  0.34123
USER: genes 24 Torsion [C]-N--CA-[C] |==|  0.18305
USER: genes 25 Torsion [N]-CA--C-[OXT] |==|  0.58461
USER: genes 26 Torsion [N]-CA--CB-[CG] |==|  0.77514
USER: genes 27 Torsion [CA]-CB--CG-[CD] |==|  0.19404
USER: genes 28 Torsion [CB]-CG--CD-[OE1] |==|  0.18793
ROOT
ATOM      1  C   VAL B   3      -1.455 -16.759  21.732  1.00 28.64 LIG 0.24  C 
ATOM      2 O    VAL B   3      -2.201 -17.465  22.422  1.00 27.24 LIG-0.27  OA
ATOM      3  N   HIS B   4       0.009 -16.725  21.893  1.00 29.63 LIG-0.35  N 
ATOM      4 H    HIS B   4       0.552 -16.189  21.495  1.00 29.63 LIG 0.16  HD
ENDROOT
BRANCH 1 5
ATOM      5  CA  VAL B   3      -2.037 -15.823  20.659  1.00 30.81 LIG 0.18  C 
BRANCH 5 6
ATOM      6  N   VAL B   3      -1.115 -15.742  19.534  1.00 30.70 LIG-0.35  N 
ATOM      7 H    VAL B   3      -0.783 -14.961  19.399  1.00 30.70 LIG 0.16  HD
ATOM      8  C   LYS B   2      -0.834 -16.811  18.796  1.00 38.89 LIG 0.24  C 
ATOM      9 O    LYS B   2      -1.270 -17.940  19.052  1.00 35.72 LIG-0.27  OA
BRANCH 8 10
ATOM     10  CA  LYS B   2       0.090 -16.575  17.608  1.00 39.86 LIG 0.18  C 
BRANCH 10 11
ATOM     11  CB  LYS B   2       0.471 -17.913  16.945  1.00 33.57 LIG 0.04  C 
BRANCH 11 12
ATOM     12  CG  LYS B   2       1.805 -17.836  16.175  1.00 34.54 LIG 0.00  C 
BRANCH 12 13
ATOM     13  CD  LYS B   2       1.745 -18.467  14.790  1.00 30.34 LIG 0.03  C 
BRANCH 13 14
ATOM     14  CE  LYS B   2       2.848 -17.995  13.864  1.00 26.25 LIG 0.23  C 
BRANCH 14 15
ATOM     15  NZ  LYS B   2       2.560 -16.609  13.363  1.00 28.72 LIG-0.08  N 
ATOM     16 HZ2  LYS B   2       2.922 -16.012  13.915  1.00 28.72 LIG 0.27  HD
ATOM     17 HZ3  LYS B   2       2.907 -16.509  12.549  1.00 28.72 LIG 0.27  HD
ATOM     18 HZ1  LYS B   2       1.680 -16.484  13.326  1.00 28.72 LIG 0.27  HD
ENDBRANCH 14 15
ENDBRANCH 13 14
ENDBRANCH 12 13
ENDBRANCH 11 12
ENDBRANCH 10 11
BRANCH 10 19
ATOM     19  N   LYS B   2       1.251 -15.795  18.049  1.00 40.88 LIG-0.35  N 
ATOM     20  C   GLU B   1       1.999 -16.254  19.057  1.00 50.16 LIG 0.25  C 
ATOM     21 O    GLU B   1       1.686 -17.253  19.712  1.00 45.73 LIG-0.27  OA
ATOM     22 H    LYS B   2       1.391 -15.061  17.622  1.00 40.88 LIG 0.16  HD
BRANCH 20 23
ATOM     23  CA  GLU B   1       3.273 -15.485  19.410  1.00 56.89 LIG 0.28  C 
BRANCH 23 24
ATOM     24  CB  GLU B   1       4.481 -16.416  19.331  1.00 44.84 LIG 0.05  C 
BRANCH 24 25
ATOM     25  CG  GLU B   1       4.832 -16.850  17.916  1.00 43.84 LIG 0.12  C 
BRANCH 25 26
ATOM     26  CD  GLU B   1       4.921 -15.681  16.946  1.00 58.57 LIG 0.17  C 
ATOM     27 OE1  GLU B   1       5.038 -14.526  17.415  1.00 59.35 LIG-0.65  OA
ATOM     28 OE2  GLU B   1       4.869 -15.918  15.718  1.00 59.65 LIG-0.65  OA
ENDBRANCH 25 26
ENDBRANCH 24 25
ENDBRANCH 23 24
BRANCH 23 29
ATOM     29  N   GLU B   1       3.197 -14.834  20.712  1.00 43.96 LIG-0.07  N 
ATOM     30 H1   GLU B   1       3.438 -15.410  21.346  1.00 43.96 LIG 0.28  HD
ATOM     31 H2   GLU B   1       3.743 -14.132  20.726  1.00 43.96 LIG 0.28  HD
ATOM     32 H3   GLU B   1       2.363 -14.563  20.860  1.00 43.96 LIG 0.28  HD
ENDBRANCH 23 29
ENDBRANCH 20 23
ENDBRANCH 10 19
ENDBRANCH 8 10
ENDBRANCH 5 6
BRANCH 5 33
ATOM     33  CB  VAL B   3      -3.419 -16.316  20.208  1.00 34.43 LIG 0.01  C 
ATOM     34  CG2 VAL B   3      -3.879 -15.539  18.999  1.00 33.75 LIG 0.01  C 
ATOM     35  CG1 VAL B   3      -4.434 -16.163  21.351  1.00 37.65 LIG 0.01  C 
ENDBRANCH 5 33
ENDBRANCH 1 5
BRANCH 3 36
ATOM     36  CA  HIS B   4       0.604 -17.691  22.816  1.00 28.98 LIG 0.18  C 
BRANCH 36 37
ATOM     37  CB  HIS B   4       0.139 -17.441  24.263  1.00 26.24 LIG 0.10  C 
BRANCH 37 38
ATOM     38  CG  HIS B   4       1.190 -17.752  25.284  1.00 30.41 LIG 0.06  A 
ATOM     39 ND1  HIS B   4       1.411 -19.027  25.762  1.00 34.08 LIG-0.24  NA
ATOM     40  CE1 HIS B   4       2.396 -18.999  26.647  1.00 29.96 LIG 0.23  A 
ATOM     41 NE2  HIS B   4       2.832 -17.756  26.743  1.00 35.16 LIG-0.25  NA
ATOM     42  CD2 HIS B   4       2.098 -16.955  25.899  1.00 34.95 LIG 0.14  A 
ENDBRANCH 37 38
ENDBRANCH 36 37
BRANCH 36 43
ATOM     43  C   HIS B   4       0.332 -19.131  22.412  1.00 27.46 LIG 0.24  C 
ATOM     44 O    HIS B   4      -0.124 -19.945  23.221  1.00 25.24 LIG-0.27  OA
ATOM     45  N   VAL B   5       0.727 -19.502  21.284  1.00 26.31 LIG-0.35  N 
ATOM     46 H    VAL B   5       1.053 -18.976  20.686  1.00 26.31 LIG 0.16  HD
BRANCH 45 47
ATOM     47  CA  VAL B   5       0.658 -20.915  20.890  1.00 25.23 LIG 0.18  C 
BRANCH 47 48
ATOM     48  CB  VAL B   5       1.214 -21.128  19.462  1.00 26.56 LIG 0.01  C 
ATOM     49  CG2 VAL B   5       2.503 -20.342  19.273  1.00 31.17 LIG 0.01  C 
ATOM     50  CG1 VAL B   5       0.208 -20.728  18.408  1.00 34.68 LIG 0.01  C 
ENDBRANCH 47 48
BRANCH 47 51
ATOM     51  C   VAL B   5       1.378 -21.803  21.894  1.00 27.03 LIG 0.24  C 
ATOM     52  N   GLN B   6       0.661 -22.771  22.453  1.00 26.89 LIG-0.34  N 
ATOM     53 H    GLN B   6      -0.170 -22.924  22.295  1.00 26.89 LIG 0.16  HD
ATOM     54 O    VAL B   5       2.577 -21.628  22.155  1.00 28.01 LIG-0.27  OA
BRANCH 52 55
ATOM     55  CA  GLN B   6       1.296 -23.673  23.419  1.00 25.51 LIG 0.19  C 
BRANCH 55 56
ATOM     56  C   GLN B   6       1.708 -22.931  24.685  1.00 28.77 LIG 0.20  C 
ATOM     57 OXT  GLN B   6       2.694 -23.283  25.364  1.00 27.06 LIG-0.65  OA
ATOM     58 O    GLN B   6       1.032 -21.963  25.076  1.00 25.73 LIG-0.65  OA
ENDBRANCH 55 56
BRANCH 55 59
ATOM     59  CB  GLN B   6       2.538 -24.326  22.818  1.00 31.03 LIG 0.04  C 
BRANCH 59 60
ATOM     60  CG  GLN B   6       2.260 -25.512  21.929  1.00 39.52 LIG 0.10  C 
BRANCH 60 61
ATOM     61  CD  GLN B   6       1.599 -25.087  20.637  1.00 49.24 LIG 0.21  C 
ATOM     62  NE2 GLN B   6       0.332 -25.448  20.477  1.00 50.05 LIG-0.37  N 
ATOM     63 21HE GLN B   6      -0.061 -25.913  21.083  1.00 50.05 LIG 0.16  HD
ATOM     64 22HE GLN B   6      -0.094 -25.217  19.767  1.00 50.05 LIG 0.16  HD
ATOM     65 OE1  GLN B   6       2.215 -24.418  19.798  1.00 58.78 LIG-0.27  OA
ENDBRANCH 60 61
ENDBRANCH 59 60
ENDBRANCH 55 59
ENDBRANCH 52 55
ENDBRANCH 47 51
ENDBRANCH 45 47
ENDBRANCH 36 43
ENDBRANCH 3 36
TORSDOF 27
ENDMDL
MODEL 26
USER: ADFR SOLUTION from run 42
USER: SCORE 19.776477 LL:  -6.221 LR: -16.237 RR:   0.000 FEB:  -8.182
USER: RMSD 5.878590
USER: SEED 41
USER: STATUS searching
USER: GENES 29
USER: genes 0 Translation |==|  0.36991 0.49715 0.52892
USER: genes 1 Rotation |==|  0.71865 0.58741 0.44509 0.93765
USER: genes 2 Torsion [N]-C--CA-[N] |==|  0.40820
USER: genes 3 Torsion [C]-CA--N-[C] |==|  0.67211
USER: genes 4 Torsion [N]-C--CA-[N] |==|  0.35301
USER: genes 5 Torsion [C]-CA--CB-[CG] |==|  0.46843
USER: genes 6 Torsion [CA]-CB--CG-[CD] |==|  0.66843
USER: genes 7 Torsion [CB]-CG--CD-[CE] |==|  0.11377
USER: genes 8 Torsion [CG]-CD--CE-[NZ] |==|  0.44493
USER: genes 9 Torsion [CD]-CE--NZ-[HZ1] |==|  0.24694
USER: genes 10 Torsion [C]-CA--N-[C] |==|  0.76404
USER: genes 11 Torsion [N]-C--CA-[N] |==|  0.52564
USER: genes 12 Torsion [C]-CA--CB-[CG] |==|  0.88588
USER: genes 13 Torsion [CA]-CB--CG-[CD] |==|  0.83848
USER: genes 14 Torsion [CB]-CG--CD-[OE1] |==|  0.92558
USER: genes 15 Torsion [C]-CA--N-[H1] |==|  0.77270
USER: genes 16 Torsion [C]-CA--CB-[CG2] |==|  0.99149
USER: genes 17 Torsion [C]-N--CA-[CB] |==|  0.28008
USER: genes 18 Torsion [N]-CA--CB-[CG] |==|  0.49487
USER: genes 19 Torsion [CA]-CB--CG-[ND1] |==|  0.11698
USER: genes 20 Torsion [N]-CA--C-[N] |==|  0.93744
USER: genes 21 Torsion [C]-N--CA-[CB] |==|  0.43893
USER: genes 22 Torsion [N]-CA--CB-[CG1] |==|  0.40898
USER: genes 23 Torsion [N]-CA--C-[N] |==|  0.88008
USER: genes 24 Torsion [C]-N--CA-[C] |==|  0.76541
USER: genes 25 Torsion [N]-CA--C-[OXT] |==|  0.37423
USER: genes 26 Torsion [N]-CA--CB-[CG] |==|  0.48759
USER: genes 27 Torsion [CA]-CB--CG-[CD] |==|  0.53912
USER: genes 28 Torsion [CB]-CG--CD-[OE1] |==|  0.24132
ROOT
ATOM      1  C   VAL B   3       2.065 -22.676  21.134  1.00 28.64 LIG 0.24  C 
ATOM      2 O    VAL B   3       1.018 -23.327  21.026  1.00 27.24 LIG-0.27  OA
ATOM      3  N   HIS B   4       2.585 -22.180  22.420  1.00 29.63 LIG-0.35  N 
ATOM      4 H    HIS B   4       3.259 -21.656  22.528  1.00 29.63 LIG 0.16  HD
ENDROOT
BRANCH 1 5
ATOM      5  CA  VAL B   3       2.889 -22.308  19.887  1.00 30.81 LIG 0.18  C 
BRANCH 5 6
ATOM      6  N   VAL B   3       2.798 -23.384  18.910  1.00 30.70 LIG-0.35  N 
ATOM      7 H    VAL B   3       2.003 -23.538  18.620  1.00 30.70 LIG 0.16  HD
ATOM      8  C   LYS B   2       3.878 -24.054  18.520  1.00 38.89 LIG 0.24  C 
ATOM      9 O    LYS B   2       5.020 -23.767  18.898  1.00 35.72 LIG-0.27  OA
BRANCH 8 10
ATOM     10  CA  LYS B   2       3.635 -25.200  17.546  1.00 39.86 LIG 0.18  C 
BRANCH 10 11
ATOM     11  CB  LYS B   2       3.823 -26.557  18.252  1.00 33.57 LIG 0.04  C 
BRANCH 11 12
ATOM     12  CG  LYS B   2       3.322 -27.743  17.401  1.00 34.54 LIG 0.00  C 
BRANCH 12 13
ATOM     13  CD  LYS B   2       2.204 -28.536  18.065  1.00 30.34 LIG 0.03  C 
BRANCH 13 14
ATOM     14  CE  LYS B   2       1.180 -27.665  18.765  1.00 26.25 LIG 0.23  C 
BRANCH 14 15
ATOM     15  NZ  LYS B   2      -0.102 -28.418  18.970  1.00 28.72 LIG-0.08  N 
ATOM     16 HZ2  LYS B   2      -0.785 -27.847  18.976  1.00 28.72 LIG 0.27  HD
ATOM     17 HZ3  LYS B   2      -0.212 -29.004  18.309  1.00 28.72 LIG 0.27  HD
ATOM     18 HZ1  LYS B   2      -0.072 -28.851  19.747  1.00 28.72 LIG 0.27  HD
ENDBRANCH 14 15
ENDBRANCH 13 14
ENDBRANCH 12 13
ENDBRANCH 11 12
ENDBRANCH 10 11
BRANCH 10 19
ATOM     19  N   LYS B   2       4.502 -25.029  16.376  1.00 40.88 LIG-0.35  N 
ATOM     20  C   GLU B   1       4.094 -24.245  15.373  1.00 50.16 LIG 0.25  C 
ATOM     21 O    GLU B   1       2.963 -23.750  15.337  1.00 45.73 LIG-0.27  OA
ATOM     22 H    LYS B   2       5.248 -25.456  16.400  1.00 40.88 LIG 0.16  HD
BRANCH 20 23
ATOM     23  CA  GLU B   1       5.071 -23.985  14.226  1.00 56.89 LIG 0.28  C 
BRANCH 23 24
ATOM     24  CB  GLU B   1       6.449 -23.637  14.785  1.00 44.84 LIG 0.05  C 
BRANCH 24 25
ATOM     25  CG  GLU B   1       6.407 -22.714  15.993  1.00 43.84 LIG 0.12  C 
BRANCH 25 26
ATOM     26  CD  GLU B   1       5.705 -21.395  15.703  1.00 58.57 LIG 0.17  C 
ATOM     27 OE1  GLU B   1       5.703 -20.969  14.526  1.00 59.35 LIG-0.65  OA
ATOM     28 OE2  GLU B   1       5.162 -20.785  16.652  1.00 59.65 LIG-0.65  OA
ENDBRANCH 25 26
ENDBRANCH 24 25
ENDBRANCH 23 24
BRANCH 23 29
ATOM     29  N   GLU B   1       4.602 -22.956  13.306  1.00 43.96 LIG-0.07  N 
ATOM     30 H1   GLU B   1       4.027 -23.313  12.729  1.00 43.96 LIG 0.28  HD
ATOM     31 H2   GLU B   1       4.198 -22.309  13.765  1.00 43.96 LIG 0.28  HD
ATOM     32 H3   GLU B   1       5.294 -22.616  12.863  1.00 43.96 LIG 0.28  HD
ENDBRANCH 23 29
ENDBRANCH 20 23
ENDBRANCH 10 19
ENDBRANCH 8 10
ENDBRANCH 5 6
BRANCH 5 33
ATOM     33  CB  VAL B   3       2.400 -20.979  19.293  1.00 34.43 LIG 0.01  C 
ATOM     34  CG2 VAL B   3       1.209 -20.471  20.068  1.00 33.75 LIG 0.01  C 
ATOM     35  CG1 VAL B   3       2.027 -21.165  17.815  1.00 37.65 LIG 0.01  C 
ENDBRANCH 5 33
ENDBRANCH 1 5
BRANCH 3 36
ATOM     36  CA  HIS B   4       1.897 -22.617  23.634  1.00 28.98 LIG 0.18  C 
BRANCH 36 37
ATOM     37  CB  HIS B   4       2.663 -23.757  24.331  1.00 26.24 LIG 0.10  C 
BRANCH 37 38
ATOM     38  CG  HIS B   4       2.019 -24.210  25.606  1.00 30.41 LIG 0.06  A 
ATOM     39 ND1  HIS B   4       0.656 -24.377  25.734  1.00 34.08 LIG-0.24  NA
ATOM     40  CE1 HIS B   4       0.378 -24.784  26.963  1.00 29.96 LIG 0.23  A 
ATOM     41 NE2  HIS B   4       1.514 -24.905  27.626  1.00 35.16 LIG-0.25  NA
ATOM     42  CD2 HIS B   4       2.557 -24.556  26.801  1.00 34.95 LIG 0.14  A 
ENDBRANCH 37 38
ENDBRANCH 36 37
BRANCH 36 43
ATOM     43  C   HIS B   4       1.642 -21.476  24.605  1.00 27.46 LIG 0.24  C 
ATOM     44 O    HIS B   4       0.659 -21.483  25.353  1.00 25.24 LIG-0.27  OA
ATOM     45  N   VAL B   5       2.370 -20.462  24.514  1.00 26.31 LIG-0.35  N 
ATOM     46 H    VAL B   5       3.064 -20.406  24.008  1.00 26.31 LIG 0.16  HD
BRANCH 45 47
ATOM     47  CA  VAL B   5       2.078 -19.254  25.296  1.00 25.23 LIG 0.18  C 
BRANCH 47 48
ATOM     48  CB  VAL B   5       3.339 -18.372  25.459  1.00 26.56 LIG 0.01  C 
ATOM     49  CG2 VAL B   5       4.099 -18.764  26.717  1.00 31.17 LIG 0.01  C 
ATOM     50  CG1 VAL B   5       2.990 -16.903  25.504  1.00 34.68 LIG 0.01  C 
ENDBRANCH 47 48
BRANCH 47 51
ATOM     51  C   VAL B   5       0.934 -18.462  24.680  1.00 27.03 LIG 0.24  C 
ATOM     52  N   GLN B   6       0.950 -18.323  23.359  1.00 26.89 LIG-0.34  N 
ATOM     53 H    GLN B   6       1.557 -18.637  22.837  1.00 26.89 LIG 0.16  HD
ATOM     54 O    VAL B   5       0.032 -17.990  25.387  1.00 28.01 LIG-0.27  OA
BRANCH 52 55
ATOM     55  CA  GLN B   6      -0.129 -17.583  22.699  1.00 25.51 LIG 0.19  C 
BRANCH 55 56
ATOM     56  C   GLN B   6      -1.336 -18.476  22.434  1.00 28.77 LIG 0.20  C 
ATOM     57 OXT  GLN B   6      -2.500 -18.103  22.681  1.00 27.06 LIG-0.65  OA
ATOM     58 O    GLN B   6      -1.161 -19.623  21.985  1.00 25.73 LIG-0.65  OA
ENDBRANCH 55 56
BRANCH 55 59
ATOM     59  CB  GLN B   6       0.343 -17.006  21.367  1.00 31.03 LIG 0.04  C 
BRANCH 59 60
ATOM     60  CG  GLN B   6      -0.729 -16.316  20.562  1.00 39.52 LIG 0.10  C 
BRANCH 60 61
ATOM     61  CD  GLN B   6      -0.281 -16.081  19.136  1.00 49.24 LIG 0.21  C 
ATOM     62  NE2 GLN B   6       0.305 -14.916  18.889  1.00 50.05 LIG-0.37  N 
ATOM     63 21HE GLN B   6       0.395 -14.338  19.519  1.00 50.05 LIG 0.16  HD
ATOM     64 22HE GLN B   6       0.593 -14.740  18.098  1.00 50.05 LIG 0.16  HD
ATOM     65 OE1  GLN B   6      -0.437 -16.949  18.269  1.00 58.78 LIG-0.27  OA
ENDBRANCH 60 61
ENDBRANCH 59 60
ENDBRANCH 55 59
ENDBRANCH 52 55
ENDBRANCH 47 51
ENDBRANCH 45 47
ENDBRANCH 36 43
ENDBRANCH 3 36
TORSDOF 27
ENDMDL
MODEL 27
USER: ADFR SOLUTION from run 79
USER: SCORE 20.362650 LL:  -6.615 LR: -16.178 RR:   0.000 FEB:  -8.124
USER: RMSD 8.323731
USER: SEED 78
USER: STATUS no improvement in best in 5 clusters for 5 generations
USER: GENES 29
USER: genes 0 Translation |==|  0.32787 0.56123 0.49452
USER: genes 1 Rotation |==|  0.66553 0.84828 0.39034 0.79879
USER: genes 2 Torsion [N]-C--CA-[N] |==|  0.85819
USER: genes 3 Torsion [C]-CA--N-[C] |==|  0.82604
USER: genes 4 Torsion [N]-C--CA-[N] |==|  0.65946
USER: genes 5 Torsion [C]-CA--CB-[CG] |==|  0.44600
USER: genes 6 Torsion [CA]-CB--CG-[CD] |==|  0.85927
USER: genes 7 Torsion [CB]-CG--CD-[CE] |==|  0.48568
USER: genes 8 Torsion [CG]-CD--CE-[NZ] |==|  0.79459
USER: genes 9 Torsion [CD]-CE--NZ-[HZ1] |==|  0.14617
USER: genes 10 Torsion [C]-CA--N-[C] |==|  0.17188
USER: genes 11 Torsion [N]-C--CA-[N] |==|  0.78811
USER: genes 12 Torsion [C]-CA--CB-[CG] |==|  0.14324
USER: genes 13 Torsion [CA]-CB--CG-[CD] |==|  0.60614
USER: genes 14 Torsion [CB]-CG--CD-[OE1] |==|  0.36559
USER: genes 15 Torsion [C]-CA--N-[H1] |==|  0.72036
USER: genes 16 Torsion [C]-CA--CB-[CG2] |==|  0.03207
USER: genes 17 Torsion [C]-N--CA-[CB] |==|  0.46636
USER: genes 18 Torsion [N]-CA--CB-[CG] |==|  0.01768
USER: genes 19 Torsion [CA]-CB--CG-[ND1] |==|  0.80578
USER: genes 20 Torsion [N]-CA--C-[N] |==|  0.39289
USER: genes 21 Torsion [C]-N--CA-[CB] |==|  0.50001
USER: genes 22 Torsion [N]-CA--CB-[CG1] |==|  0.93789
USER: genes 23 Torsion [N]-CA--C-[N] |==|  0.44476
USER: genes 24 Torsion [C]-N--CA-[C] |==|  0.52994
USER: genes 25 Torsion [N]-CA--C-[OXT] |==|  0.00682
USER: genes 26 Torsion [N]-CA--CB-[CG] |==|  0.67623
USER: genes 27 Torsion [CA]-CB--CG-[CD] |==|  0.69734
USER: genes 28 Torsion [CB]-CG--CD-[OE1] |==|  0.60867
ROOT
ATOM      1  C   VAL B   3       1.309 -21.186  20.360  1.00 28.64 LIG 0.24  C 
ATOM      2 O    VAL B   3       0.937 -22.099  21.108  1.00 27.24 LIG-0.27  OA
ATOM      3  N   HIS B   4       2.625 -20.533  20.466  1.00 29.63 LIG-0.35  N 
ATOM      4 H    HIS B   4       2.887 -19.843  20.024  1.00 29.63 LIG 0.16  HD
ENDROOT
BRANCH 1 5
ATOM      5  CA  VAL B   3       0.372 -20.643  19.266  1.00 30.81 LIG 0.18  C 
BRANCH 5 6
ATOM      6  N   VAL B   3       0.274 -19.196  19.386  1.00 30.70 LIG-0.35  N 
ATOM      7 H    VAL B   3       0.568 -18.759  18.706  1.00 30.70 LIG 0.16  HD
ATOM      8  C   LYS B   2      -0.236 -18.627  20.474  1.00 38.89 LIG 0.24  C 
ATOM      9 O    LYS B   2      -0.717 -19.277  21.410  1.00 35.72 LIG-0.27  OA
BRANCH 8 10
ATOM     10  CA  LYS B   2      -0.217 -17.104  20.500  1.00 39.86 LIG 0.18  C 
BRANCH 10 11
ATOM     11  CB  LYS B   2       0.353 -16.548  19.181  1.00 33.57 LIG 0.04  C 
BRANCH 11 12
ATOM     12  CG  LYS B   2      -0.032 -15.073  18.943  1.00 34.54 LIG 0.00  C 
BRANCH 12 13
ATOM     13  CD  LYS B   2      -1.523 -14.803  19.095  1.00 30.34 LIG 0.03  C 
BRANCH 13 14
ATOM     14  CE  LYS B   2      -1.884 -13.334  18.983  1.00 26.25 LIG 0.23  C 
BRANCH 14 15
ATOM     15  NZ  LYS B   2      -1.473 -12.594  20.223  1.00 28.72 LIG-0.08  N 
ATOM     16 HZ2  LYS B   2      -1.593 -11.721  20.101  1.00 28.72 LIG 0.27  HD
ATOM     17 HZ3  LYS B   2      -1.968 -12.867  20.910  1.00 28.72 LIG 0.27  HD
ATOM     18 HZ1  LYS B   2      -0.615 -12.754  20.394  1.00 28.72 LIG 0.27  HD
ENDBRANCH 14 15
ENDBRANCH 13 14
ENDBRANCH 12 13
ENDBRANCH 11 12
ENDBRANCH 10 11
BRANCH 10 19
ATOM     19  N   LYS B   2       0.519 -16.653  21.686  1.00 40.88 LIG-0.35  N 
ATOM     20  C   GLU B   1       1.809 -16.977  21.814  1.00 50.16 LIG 0.25  C 
ATOM     21 O    GLU B   1       2.380 -17.743  21.031  1.00 45.73 LIG-0.27  OA
ATOM     22 H    LYS B   2       0.066 -16.189  22.251  1.00 40.88 LIG 0.16  HD
BRANCH 20 23
ATOM     23  CA  GLU B   1       2.581 -16.386  22.995  1.00 56.89 LIG 0.28  C 
BRANCH 23 24
ATOM     24  CB  GLU B   1       1.783 -16.573  24.283  1.00 44.84 LIG 0.05  C 
BRANCH 24 25
ATOM     25  CG  GLU B   1       1.321 -18.003  24.519  1.00 43.84 LIG 0.12  C 
BRANCH 25 26
ATOM     26  CD  GLU B   1      -0.074 -18.080  25.121  1.00 58.57 LIG 0.17  C 
ATOM     27 OE1  GLU B   1      -0.904 -18.860  24.601  1.00 59.35 LIG-0.65  OA
ATOM     28 OE2  GLU B   1      -0.341 -17.358  26.108  1.00 59.65 LIG-0.65  OA
ENDBRANCH 25 26
ENDBRANCH 24 25
ENDBRANCH 23 24
BRANCH 23 29
ATOM     29  N   GLU B   1       2.935 -14.986  22.794  1.00 43.96 LIG-0.07  N 
ATOM     30 H1   GLU B   1       3.786 -14.928  22.543  1.00 43.96 LIG 0.28  HD
ATOM     31 H2   GLU B   1       2.414 -14.636  22.163  1.00 43.96 LIG 0.28  HD
ATOM     32 H3   GLU B   1       2.820 -14.539  23.555  1.00 43.96 LIG 0.28  HD
ENDBRANCH 23 29
ENDBRANCH 20 23
ENDBRANCH 10 19
ENDBRANCH 8 10
ENDBRANCH 5 6
BRANCH 5 33
ATOM     33  CB  VAL B   3       0.879 -21.050  17.875  1.00 34.43 LIG 0.01  C 
ATOM     34  CG2 VAL B   3       1.969 -22.085  18.001  1.00 33.75 LIG 0.01  C 
ATOM     35  CG1 VAL B   3       1.406 -19.818  17.123  1.00 37.65 LIG 0.01  C 
ENDBRANCH 5 33
ENDBRANCH 1 5
BRANCH 3 36
ATOM     36  CA  HIS B   4       3.583 -21.106  21.410  1.00 28.98 LIG 0.18  C 
BRANCH 36 37
ATOM     37  CB  HIS B   4       4.992 -20.520  21.200  1.00 26.24 LIG 0.10  C 
BRANCH 37 38
ATOM     38  CG  HIS B   4       5.027 -19.406  20.199  1.00 30.41 LIG 0.06  A 
ATOM     39 ND1  HIS B   4       4.832 -19.610  18.848  1.00 34.08 LIG-0.24  NA
ATOM     40  CE1 HIS B   4       4.916 -18.451  18.214  1.00 29.96 LIG 0.23  A 
ATOM     41 NE2  HIS B   4       5.137 -17.504  19.107  1.00 35.16 LIG-0.25  NA
ATOM     42  CD2 HIS B   4       5.207 -18.072  20.357  1.00 34.95 LIG 0.14  A 
ENDBRANCH 37 38
ENDBRANCH 36 37
BRANCH 36 43
ATOM     43  C   HIS B   4       3.150 -20.941  22.857  1.00 27.46 LIG 0.24  C 
ATOM     44 O    HIS B   4       2.735 -19.857  23.279  1.00 25.24 LIG-0.27  OA
ATOM     45  N   VAL B   5       3.371 -21.891  23.642  1.00 26.31 LIG-0.35  N 
ATOM     46 H    VAL B   5       3.661 -22.664  23.399  1.00 26.31 LIG 0.16  HD
BRANCH 45 47
ATOM     47  CA  VAL B   5       3.142 -21.743  25.084  1.00 25.23 LIG 0.18  C 
BRANCH 47 48
ATOM     48  CB  VAL B   5       3.485 -23.047  25.843  1.00 26.56 LIG 0.01  C 
ATOM     49  CG2 VAL B   5       4.860 -22.940  26.486  1.00 31.17 LIG 0.01  C 
ATOM     50  CG1 VAL B   5       3.435 -24.251  24.932  1.00 34.68 LIG 0.01  C 
ENDBRANCH 47 48
BRANCH 47 51
ATOM     51  C   VAL B   5       3.918 -20.562  25.648  1.00 27.03 LIG 0.24  C 
ATOM     52  N   GLN B   6       3.498 -20.075  26.810  1.00 26.89 LIG-0.34  N 
ATOM     53 H    GLN B   6       2.824 -20.371  27.255  1.00 26.89 LIG 0.16  HD
ATOM     54 O    VAL B   5       4.899 -20.100  25.049  1.00 28.01 LIG-0.27  OA
BRANCH 52 55
ATOM     55  CA  GLN B   6       4.208 -18.946  27.418  1.00 25.51 LIG 0.19  C 
BRANCH 55 56
ATOM     56  C   GLN B   6       3.749 -18.706  28.851  1.00 28.77 LIG 0.20  C 
ATOM     57 OXT  GLN B   6       2.907 -19.439  29.406  1.00 27.06 LIG-0.65  OA
ATOM     58 O    GLN B   6       4.202 -17.735  29.484  1.00 25.73 LIG-0.65  OA
ENDBRANCH 55 56
BRANCH 55 59
ATOM     59  CB  GLN B   6       3.979 -17.666  26.618  1.00 31.03 LIG 0.04  C 
BRANCH 59 60
ATOM     60  CG  GLN B   6       5.221 -17.079  25.997  1.00 39.52 LIG 0.10  C 
BRANCH 60 61
ATOM     61  CD  GLN B   6       5.632 -15.800  26.694  1.00 49.24 LIG 0.21  C 
ATOM     62  NE2 GLN B   6       5.524 -15.790  28.016  1.00 50.05 LIG-0.37  N 
ATOM     63 21HE GLN B   6       5.217 -16.480  28.427  1.00 50.05 LIG 0.16  HD
ATOM     64 22HE GLN B   6       5.760 -15.093  28.461  1.00 50.05 LIG 0.16  HD
ATOM     65 OE1  GLN B   6       6.066 -14.837  26.050  1.00 58.78 LIG-0.27  OA
ENDBRANCH 60 61
ENDBRANCH 59 60
ENDBRANCH 55 59
ENDBRANCH 52 55
ENDBRANCH 47 51
ENDBRANCH 45 47
ENDBRANCH 36 43
ENDBRANCH 3 36
TORSDOF 27
ENDMDL
MODEL 28
USER: ADFR SOLUTION from run 90
USER: SCORE 18.953168 LL:  -5.267 LR: -16.111 RR:   0.000 FEB:  -8.056
USER: RMSD 9.131344
USER: SEED 89
USER: STATUS no improvement in best in 6 clusters for 5 generations
USER: GENES 29
USER: genes 0 Translation |==|  0.25954 0.68303 0.47120
USER: genes 1 Rotation |==|  0.73629 0.07922 0.62678 0.53226
USER: genes 2 Torsion [N]-C--CA-[N] |==|  0.41924
USER: genes 3 Torsion [C]-CA--N-[C] |==|  0.81603
USER: genes 4 Torsion [N]-C--CA-[N] |==|  0.97369
USER: genes 5 Torsion [C]-CA--CB-[CG] |==|  0.24860
USER: genes 6 Torsion [CA]-CB--CG-[CD] |==|  0.50524
USER: genes 7 Torsion [CB]-CG--CD-[CE] |==|  0.49703
USER: genes 8 Torsion [CG]-CD--CE-[NZ] |==|  0.60960
USER: genes 9 Torsion [CD]-CE--NZ-[HZ1] |==|  0.04065
USER: genes 10 Torsion [C]-CA--N-[C] |==|  0.21170
USER: genes 11 Torsion [N]-C--CA-[N] |==|  0.07051
USER: genes 12 Torsion [C]-CA--CB-[CG] |==|  0.78334
USER: genes 13 Torsion [CA]-CB--CG-[CD] |==|  0.37888
USER: genes 14 Torsion [CB]-CG--CD-[OE1] |==|  0.81152
USER: genes 15 Torsion [C]-CA--N-[H1] |==|  0.14958
USER: genes 16 Torsion [C]-CA--CB-[CG2] |==|  0.20309
USER: genes 17 Torsion [C]-N--CA-[CB] |==|  0.79420
USER: genes 18 Torsion [N]-CA--CB-[CG] |==|  0.84328
USER: genes 19 Torsion [CA]-CB--CG-[ND1] |==|  0.98909
USER: genes 20 Torsion [N]-CA--C-[N] |==|  0.54443
USER: genes 21 Torsion [C]-N--CA-[CB] |==|  0.42741
USER: genes 22 Torsion [N]-CA--CB-[CG1] |==|  0.28479
USER: genes 23 Torsion [N]-CA--C-[N] |==|  0.87011
USER: genes 24 Torsion [C]-N--CA-[C] |==|  0.47243
USER: genes 25 Torsion [N]-CA--C-[OXT] |==|  0.51601
USER: genes 26 Torsion [N]-CA--CB-[CG] |==|  0.27395
USER: genes 27 Torsion [CA]-CB--CG-[CD] |==|  0.68270
USER: genes 28 Torsion [CB]-CG--CD-[OE1] |==|  0.29646
ROOT
ATOM      1  C   VAL B   3       0.079 -18.355  19.835  1.00 28.64 LIG 0.24  C 
ATOM      2 O    VAL B   3       1.279 -18.146  19.618  1.00 27.24 LIG-0.27  OA
ATOM      3  N   HIS B   4      -0.999 -17.917  18.931  1.00 29.63 LIG-0.35  N 
ATOM      4 H    HIS B   4      -1.844 -17.967  19.085  1.00 29.63 LIG 0.16  HD
ENDROOT
BRANCH 1 5
ATOM      5  CA  VAL B   3      -0.370 -19.073  21.120  1.00 30.81 LIG 0.18  C 
BRANCH 5 6
ATOM      6  N   VAL B   3       0.664 -20.009  21.538  1.00 30.70 LIG-0.35  N 
ATOM      7 H    VAL B   3       1.047 -19.810  22.282  1.00 30.70 LIG 0.16  HD
ATOM      8  C   LYS B   2       0.967 -21.076  20.805  1.00 38.89 LIG 0.24  C 
ATOM      9 O    LYS B   2       0.354 -21.379  19.775  1.00 35.72 LIG-0.27  OA
BRANCH 8 10
ATOM     10  CA  LYS B   2       2.114 -21.935  21.322  1.00 39.86 LIG 0.18  C 
BRANCH 10 11
ATOM     11  CB  LYS B   2       1.608 -23.339  21.704  1.00 33.57 LIG 0.04  C 
BRANCH 11 12
ATOM     12  CG  LYS B   2       1.658 -24.330  20.523  1.00 34.54 LIG 0.00  C 
BRANCH 12 13
ATOM     13  CD  LYS B   2       1.119 -25.713  20.867  1.00 30.34 LIG 0.03  C 
BRANCH 13 14
ATOM     14  CE  LYS B   2       1.145 -26.678  19.699  1.00 26.25 LIG 0.23  C 
BRANCH 14 15
ATOM     15  NZ  LYS B   2      -0.093 -27.527  19.686  1.00 28.72 LIG-0.08  N 
ATOM     16 HZ2  LYS B   2      -0.419 -27.565  18.859  1.00 28.72 LIG 0.27  HD
ATOM     17 HZ3  LYS B   2       0.107 -28.348  19.964  1.00 28.72 LIG 0.27  HD
ATOM     18 HZ1  LYS B   2      -0.702 -27.171  20.229  1.00 28.72 LIG 0.27  HD
ENDBRANCH 14 15
ENDBRANCH 13 14
ENDBRANCH 12 13
ENDBRANCH 11 12
ENDBRANCH 10 11
BRANCH 10 19
ATOM     19  N   LYS B   2       2.778 -21.236  22.427  1.00 40.88 LIG-0.35  N 
ATOM     20  C   GLU B   1       2.191 -21.211  23.627  1.00 50.16 LIG 0.25  C 
ATOM     21 O    GLU B   1       1.054 -21.652  23.817  1.00 45.73 LIG-0.27  OA
ATOM     22 H    LYS B   2       3.533 -20.870  22.236  1.00 40.88 LIG 0.16  HD
BRANCH 20 23
ATOM     23  CA  GLU B   1       2.965 -20.586  24.789  1.00 56.89 LIG 0.28  C 
BRANCH 23 24
ATOM     24  CB  GLU B   1       1.992 -19.975  25.794  1.00 44.84 LIG 0.05  C 
BRANCH 24 25
ATOM     25  CG  GLU B   1       1.427 -18.630  25.364  1.00 43.84 LIG 0.12  C 
BRANCH 25 26
ATOM     26  CD  GLU B   1      -0.068 -18.510  25.616  1.00 58.57 LIG 0.17  C 
ATOM     27 OE1  GLU B   1      -0.844 -19.224  24.940  1.00 59.35 LIG-0.65  OA
ATOM     28 OE2  GLU B   1      -0.467 -17.701  26.484  1.00 59.65 LIG-0.65  OA
ENDBRANCH 25 26
ENDBRANCH 24 25
ENDBRANCH 23 24
BRANCH 23 29
ATOM     29  N   GLU B   1       3.950 -19.606  24.348  1.00 43.96 LIG-0.07  N 
ATOM     30 H1   GLU B   1       3.552 -18.996  23.836  1.00 43.96 LIG 0.28  HD
ATOM     31 H2   GLU B   1       4.310 -19.207  25.058  1.00 43.96 LIG 0.28  HD
ATOM     32 H3   GLU B   1       4.588 -20.014  23.882  1.00 43.96 LIG 0.28  HD
ENDBRANCH 23 29
ENDBRANCH 20 23
ENDBRANCH 10 19
ENDBRANCH 8 10
ENDBRANCH 5 6
BRANCH 5 33
ATOM     33  CB  VAL B   3      -0.675 -18.054  22.226  1.00 34.43 LIG 0.01  C 
ATOM     34  CG2 VAL B   3      -1.970 -17.339  21.931  1.00 33.75 LIG 0.01  C 
ATOM     35  CG1 VAL B   3       0.473 -17.041  22.344  1.00 37.65 LIG 0.01  C 
ENDBRANCH 5 33
ENDBRANCH 1 5
BRANCH 3 36
ATOM     36  CA  HIS B   4      -0.603 -17.344  17.645  1.00 28.98 LIG 0.18  C 
BRANCH 36 37
ATOM     37  CB  HIS B   4      -0.042 -15.920  17.818  1.00 26.24 LIG 0.10  C 
BRANCH 37 38
ATOM     38  CG  HIS B   4      -0.993 -14.988  18.503  1.00 30.41 LIG 0.06  A 
ATOM     39 ND1  HIS B   4      -2.273 -15.358  18.861  1.00 34.08 LIG-0.24  NA
ATOM     40  CE1 HIS B   4      -2.877 -14.337  19.448  1.00 29.96 LIG 0.23  A 
ATOM     41 NE2  HIS B   4      -2.027 -13.327  19.501  1.00 35.16 LIG-0.25  NA
ATOM     42  CD2 HIS B   4      -0.840 -13.707  18.921  1.00 34.95 LIG 0.14  A 
ENDBRANCH 37 38
ENDBRANCH 36 37
BRANCH 36 43
ATOM     43  C   HIS B   4       0.388 -18.218  16.894  1.00 27.46 LIG 0.24  C 
ATOM     44 O    HIS B   4       0.671 -19.351  17.297  1.00 25.24 LIG-0.27  OA
ATOM     45  N   VAL B   5       1.021 -17.698  15.948  1.00 26.31 LIG-0.35  N 
ATOM     46 H    VAL B   5       0.864 -16.914  15.632  1.00 26.31 LIG 0.16  HD
BRANCH 45 47
ATOM     47  CA  VAL B   5       2.116 -18.421  15.289  1.00 25.23 LIG 0.18  C 
BRANCH 47 48
ATOM     48  CB  VAL B   5       2.308 -17.941  13.830  1.00 26.56 LIG 0.01  C 
ATOM     49  CG2 VAL B   5       2.476 -19.131  12.898  1.00 31.17 LIG 0.01  C 
ATOM     50  CG1 VAL B   5       3.494 -17.014  13.701  1.00 34.68 LIG 0.01  C 
ENDBRANCH 47 48
BRANCH 47 51
ATOM     51  C   VAL B   5       3.411 -18.301  16.079  1.00 27.03 LIG 0.24  C 
ATOM     52  N   GLN B   6       3.740 -17.086  16.500  1.00 26.89 LIG-0.34  N 
ATOM     53 H    GLN B   6       3.283 -16.372  16.353  1.00 26.89 LIG 0.16  HD
ATOM     54 O    VAL B   5       4.104 -19.300  16.321  1.00 28.01 LIG-0.27  OA
BRANCH 52 55
ATOM     55  CA  GLN B   6       4.967 -16.900  17.279  1.00 25.51 LIG 0.19  C 
BRANCH 55 56
ATOM     56  C   GLN B   6       5.296 -15.423  17.457  1.00 28.77 LIG 0.20  C 
ATOM     57 OXT  GLN B   6       6.354 -15.043  17.998  1.00 27.06 LIG-0.65  OA
ATOM     58 O    GLN B   6       4.478 -14.564  17.082  1.00 25.73 LIG-0.65  OA
ENDBRANCH 55 56
BRANCH 55 59
ATOM     59  CB  GLN B   6       6.153 -17.576  16.594  1.00 31.03 LIG 0.04  C 
BRANCH 59 60
ATOM     60  CG  GLN B   6       7.025 -16.651  15.783  1.00 39.52 LIG 0.10  C 
BRANCH 60 61
ATOM     61  CD  GLN B   6       6.957 -16.984  14.309  1.00 49.24 LIG 0.21  C 
ATOM     62  NE2 GLN B   6       7.564 -18.101  13.929  1.00 50.05 LIG-0.37  N 
ATOM     63 21HE GLN B   6       7.982 -18.581  14.508  1.00 50.05 LIG 0.16  HD
ATOM     64 22HE GLN B   6       7.541 -18.344  13.105  1.00 50.05 LIG 0.16  HD
ATOM     65 OE1  GLN B   6       6.342 -16.255  13.521  1.00 58.78 LIG-0.27  OA
ENDBRANCH 60 61
ENDBRANCH 59 60
ENDBRANCH 55 59
ENDBRANCH 52 55
ENDBRANCH 47 51
ENDBRANCH 45 47
ENDBRANCH 36 43
ENDBRANCH 3 36
TORSDOF 27
ENDMDL
MODEL 29
USER: ADFR SOLUTION from run 105
USER: SCORE 21.083519 LL:  -5.929 LR: -16.106 RR:   0.000 FEB:  -8.052
USER: RMSD 5.648153
USER: SEED 104
USER: STATUS searching
USER: GENES 29
USER: genes 0 Translation |==|  0.33148 0.48181 0.57771
USER: genes 1 Rotation |==|  0.23635 0.32397 0.31578 0.83995
USER: genes 2 Torsion [N]-C--CA-[N] |==|  0.86131
USER: genes 3 Torsion [C]-CA--N-[C] |==|  0.85451
USER: genes 4 Torsion [N]-C--CA-[N] |==|  0.19909
USER: genes 5 Torsion [C]-CA--CB-[CG] |==|  0.67788
USER: genes 6 Torsion [CA]-CB--CG-[CD] |==|  0.31650
USER: genes 7 Torsion [CB]-CG--CD-[CE] |==|  0.93851
USER: genes 8 Torsion [CG]-CD--CE-[NZ] |==|  0.56758
USER: genes 9 Torsion [CD]-CE--NZ-[HZ1] |==|  0.91044
USER: genes 10 Torsion [C]-CA--N-[C] |==|  0.78531
USER: genes 11 Torsion [N]-C--CA-[N] |==|  0.66738
USER: genes 12 Torsion [C]-CA--CB-[CG] |==|  0.73794
USER: genes 13 Torsion [CA]-CB--CG-[CD] |==|  0.78377
USER: genes 14 Torsion [CB]-CG--CD-[OE1] |==|  0.81683
USER: genes 15 Torsion [C]-CA--N-[H1] |==|  0.54379
USER: genes 16 Torsion [C]-CA--CB-[CG2] |==|  0.05301
USER: genes 17 Torsion [C]-N--CA-[CB] |==|  0.81566
USER: genes 18 Torsion [N]-CA--CB-[CG] |==|  0.46983
USER: genes 19 Torsion [CA]-CB--CG-[ND1] |==|  0.70225
USER: genes 20 Torsion [N]-CA--C-[N] |==|  0.35002
USER: genes 21 Torsion [C]-N--CA-[CB] |==|  0.86111
USER: genes 22 Torsion [N]-CA--CB-[CG1] |==|  0.34742
USER: genes 23 Torsion [N]-CA--C-[N] |==|  0.94366
USER: genes 24 Torsion [C]-N--CA-[C] |==|  0.18453
USER: genes 25 Torsion [N]-CA--C-[OXT] |==|  0.14025
USER: genes 26 Torsion [N]-CA--CB-[CG] |==|  0.73106
USER: genes 27 Torsion [CA]-CB--CG-[CD] |==|  0.83448
USER: genes 28 Torsion [CB]-CG--CD-[OE1] |==|  0.75311
ROOT
ATOM      1  C   VAL B   3       1.374 -23.033  22.232  1.00 28.64 LIG 0.24  C 
ATOM      2 O    VAL B   3       0.204 -22.823  21.886  1.00 27.24 LIG-0.27  OA
ATOM      3  N   HIS B   4       2.535 -22.366  21.617  1.00 29.63 LIG-0.35  N 
ATOM      4 H    HIS B   4       3.363 -22.545  21.768  1.00 29.63 LIG 0.16  HD
ENDROOT
BRANCH 1 5
ATOM      5  CA  VAL B   3       1.691 -24.061  23.332  1.00 30.81 LIG 0.18  C 
BRANCH 5 6
ATOM      6  N   VAL B   3       2.707 -24.987  22.852  1.00 30.70 LIG-0.35  N 
ATOM      7 H    VAL B   3       3.386 -25.073  23.372  1.00 30.70 LIG 0.16  HD
ATOM      8  C   LYS B   2       2.564 -25.631  21.698  1.00 38.89 LIG 0.24  C 
ATOM      9 O    LYS B   2       1.545 -25.545  21.002  1.00 35.72 LIG-0.27  OA
BRANCH 8 10
ATOM     10  CA  LYS B   2       3.731 -26.517  21.281  1.00 39.86 LIG 0.18  C 
BRANCH 10 11
ATOM     11  CB  LYS B   2       3.639 -26.860  19.781  1.00 33.57 LIG 0.04  C 
BRANCH 11 12
ATOM     12  CG  LYS B   2       3.438 -28.368  19.528  1.00 34.54 LIG 0.00  C 
BRANCH 12 13
ATOM     13  CD  LYS B   2       2.087 -28.705  18.910  1.00 30.34 LIG 0.03  C 
BRANCH 13 14
ATOM     14  CE  LYS B   2       1.033 -27.642  19.147  1.00 26.25 LIG 0.23  C 
BRANCH 14 15
ATOM     15  NZ  LYS B   2      -0.343 -28.235  19.066  1.00 28.72 LIG-0.08  N 
ATOM     16 HZ2  LYS B   2      -0.582 -28.544  19.867  1.00 28.72 LIG 0.27  HD
ATOM     17 HZ3  LYS B   2      -0.922 -27.610  18.806  1.00 28.72 LIG 0.27  HD
ATOM     18 HZ1  LYS B   2      -0.345 -28.903  18.479  1.00 28.72 LIG 0.27  HD
ENDBRANCH 14 15
ENDBRANCH 13 14
ENDBRANCH 12 13
ENDBRANCH 11 12
ENDBRANCH 10 11
BRANCH 10 19
ATOM     19  N   LYS B   2       3.770 -27.700  22.146  1.00 40.88 LIG-0.35  N 
ATOM     20  C   GLU B   1       4.261 -27.586  23.383  1.00 50.16 LIG 0.25  C 
ATOM     21 O    GLU B   1       4.794 -26.549  23.791  1.00 45.73 LIG-0.27  OA
ATOM     22 H    LYS B   2       3.465 -28.426  21.798  1.00 40.88 LIG 0.16  HD
BRANCH 20 23
ATOM     23  CA  GLU B   1       4.172 -28.805  24.303  1.00 56.89 LIG 0.28  C 
BRANCH 23 24
ATOM     24  CB  GLU B   1       3.611 -29.998  23.532  1.00 44.84 LIG 0.05  C 
BRANCH 24 25
ATOM     25  CG  GLU B   1       2.106 -30.169  23.673  1.00 43.84 LIG 0.12  C 
BRANCH 25 26
ATOM     26  CD  GLU B   1       1.706 -30.797  25.000  1.00 58.57 LIG 0.17  C 
ATOM     27 OE1  GLU B   1       2.047 -31.981  25.224  1.00 59.35 LIG-0.65  OA
ATOM     28 OE2  GLU B   1       1.048 -30.110  25.814  1.00 59.65 LIG-0.65  OA
ENDBRANCH 25 26
ENDBRANCH 24 25
ENDBRANCH 23 24
BRANCH 23 29
ATOM     29  N   GLU B   1       3.395 -28.546  25.509  1.00 43.96 LIG-0.07  N 
ATOM     30 H1   GLU B   1       3.556 -29.184  26.108  1.00 43.96 LIG 0.28  HD
ATOM     31 H2   GLU B   1       3.626 -27.756  25.848  1.00 43.96 LIG 0.28  HD
ATOM     32 H3   GLU B   1       2.529 -28.541  25.309  1.00 43.96 LIG 0.28  HD
ENDBRANCH 23 29
ENDBRANCH 20 23
ENDBRANCH 10 19
ENDBRANCH 8 10
ENDBRANCH 5 6
BRANCH 5 33
ATOM     33  CB  VAL B   3       2.149 -23.352  24.614  1.00 34.43 LIG 0.01  C 
ATOM     34  CG2 VAL B   3       1.720 -21.906  24.589  1.00 33.75 LIG 0.01  C 
ATOM     35  CG1 VAL B   3       3.676 -23.447  24.754  1.00 37.65 LIG 0.01  C 
ENDBRANCH 5 33
ENDBRANCH 1 5
BRANCH 3 36
ATOM     36  CA  HIS B   4       2.263 -21.296  20.659  1.00 28.98 LIG 0.18  C 
BRANCH 36 37
ATOM     37  CB  HIS B   4       1.581 -21.842  19.390  1.00 26.24 LIG 0.10  C 
BRANCH 37 38
ATOM     38  CG  HIS B   4       1.050 -20.766  18.494  1.00 30.41 LIG 0.06  A 
ATOM     39 ND1  HIS B   4      -0.298 -20.501  18.364  1.00 34.08 LIG-0.24  NA
ATOM     40  CE1 HIS B   4      -0.468 -19.502  17.511  1.00 29.96 LIG 0.23  A 
ATOM     41 NE2  HIS B   4       0.721 -19.099  17.102  1.00 35.16 LIG-0.25  NA
ATOM     42  CD2 HIS B   4       1.689 -19.869  17.703  1.00 34.95 LIG 0.14  A 
ENDBRANCH 37 38
ENDBRANCH 36 37
BRANCH 36 43
ATOM     43  C   HIS B   4       1.441 -20.167  21.259  1.00 27.46 LIG 0.24  C 
ATOM     44 O    HIS B   4       0.299 -20.366  21.684  1.00 25.24 LIG-0.27  OA
ATOM     45  N   VAL B   5       1.897 -19.005  21.169  1.00 26.31 LIG-0.35  N 
ATOM     46 H    VAL B   5       2.684 -18.813  20.879  1.00 26.31 LIG 0.16  HD
BRANCH 45 47
ATOM     47  CA  VAL B   5       1.087 -17.847  21.567  1.00 25.23 LIG 0.18  C 
BRANCH 47 48
ATOM     48  CB  VAL B   5      -0.317 -17.894  20.919  1.00 26.56 LIG 0.01  C 
ATOM     49  CG2 VAL B   5      -0.472 -16.770  19.906  1.00 31.17 LIG 0.01  C 
ATOM     50  CG1 VAL B   5      -1.412 -17.808  21.956  1.00 34.68 LIG 0.01  C 
ENDBRANCH 47 48
BRANCH 47 51
ATOM     51  C   VAL B   5       0.986 -17.738  23.081  1.00 27.03 LIG 0.24  C 
ATOM     52  N   GLN B   6       1.239 -18.842  23.775  1.00 26.89 LIG-0.34  N 
ATOM     53 H    GLN B   6       1.446 -19.604  23.433  1.00 26.89 LIG 0.16  HD
ATOM     54 O    VAL B   5       0.697 -16.662  23.625  1.00 28.01 LIG-0.27  OA
BRANCH 52 55
ATOM     55  CA  GLN B   6       1.174 -18.805  25.239  1.00 25.51 LIG 0.19  C 
BRANCH 55 56
ATOM     56  C   GLN B   6      -0.249 -18.560  25.727  1.00 28.77 LIG 0.20  C 
ATOM     57 OXT  GLN B   6      -1.213 -19.235  25.315  1.00 27.06 LIG-0.65  OA
ATOM     58 O    GLN B   6      -0.468 -17.643  26.539  1.00 25.73 LIG-0.65  OA
ENDBRANCH 55 56
BRANCH 55 59
ATOM     59  CB  GLN B   6       2.070 -17.701  25.795  1.00 31.03 LIG 0.04  C 
BRANCH 59 60
ATOM     60  CG  GLN B   6       3.434 -18.161  26.244  1.00 39.52 LIG 0.10  C 
BRANCH 60 61
ATOM     61  CD  GLN B   6       3.330 -19.204  27.335  1.00 49.24 LIG 0.21  C 
ATOM     62  NE2 GLN B   6       3.321 -20.470  26.939  1.00 50.05 LIG-0.37  N 
ATOM     63 21HE GLN B   6       3.356 -20.658  26.100  1.00 50.05 LIG 0.16  HD
ATOM     64 22HE GLN B   6       3.281 -21.102  27.521  1.00 50.05 LIG 0.16  HD
ATOM     65 OE1  GLN B   6       3.282 -18.875  28.527  1.00 58.78 LIG-0.27  OA
ENDBRANCH 60 61
ENDBRANCH 59 60
ENDBRANCH 55 59
ENDBRANCH 52 55
ENDBRANCH 47 51
ENDBRANCH 45 47
ENDBRANCH 36 43
ENDBRANCH 3 36
TORSDOF 27
ENDMDL
MODEL 30
USER: ADFR SOLUTION from run 136
USER: SCORE 19.924746 LL:  -6.050 LR: -16.091 RR:   0.000 FEB:  -8.037
USER: RMSD 7.821875
USER: SEED 135
USER: STATUS no improvement in best in 2 clusters for 5 generations
USER: GENES 29
USER: genes 0 Translation |==|  0.33278 0.55029 0.52062
USER: genes 1 Rotation |==|  0.71012 0.82503 0.50050 0.81655
USER: genes 2 Torsion [N]-C--CA-[N] |==|  0.93798
USER: genes 3 Torsion [C]-CA--N-[C] |==|  0.78653
USER: genes 4 Torsion [N]-C--CA-[N] |==|  0.95715
USER: genes 5 Torsion [C]-CA--CB-[CG] |==|  0.93720
USER: genes 6 Torsion [CA]-CB--CG-[CD] |==|  0.58457
USER: genes 7 Torsion [CB]-CG--CD-[CE] |==|  0.98875
USER: genes 8 Torsion [CG]-CD--CE-[NZ] |==|  0.24436
USER: genes 9 Torsion [CD]-CE--NZ-[HZ1] |==|  0.31769
USER: genes 10 Torsion [C]-CA--N-[C] |==|  0.21500
USER: genes 11 Torsion [N]-C--CA-[N] |==|  0.57397
USER: genes 12 Torsion [C]-CA--CB-[CG] |==|  0.44242
USER: genes 13 Torsion [CA]-CB--CG-[CD] |==|  0.17161
USER: genes 14 Torsion [CB]-CG--CD-[OE1] |==|  0.09616
USER: genes 15 Torsion [C]-CA--N-[H1] |==|  0.01789
USER: genes 16 Torsion [C]-CA--CB-[CG2] |==|  0.37538
USER: genes 17 Torsion [C]-N--CA-[CB] |==|  0.27693
USER: genes 18 Torsion [N]-CA--CB-[CG] |==|  0.15680
USER: genes 19 Torsion [CA]-CB--CG-[ND1] |==|  0.42839
USER: genes 20 Torsion [N]-CA--C-[N] |==|  0.36253
USER: genes 21 Torsion [C]-N--CA-[CB] |==|  0.84414
USER: genes 22 Torsion [N]-CA--CB-[CG1] |==|  0.52643
USER: genes 23 Torsion [N]-CA--C-[N] |==|  0.96921
USER: genes 24 Torsion [C]-N--CA-[C] |==|  0.70450
USER: genes 25 Torsion [N]-CA--C-[OXT] |==|  0.88023
USER: genes 26 Torsion [N]-CA--CB-[CG] |==|  0.75988
USER: genes 27 Torsion [CA]-CB--CG-[CD] |==|  0.04265
USER: genes 28 Torsion [CB]-CG--CD-[OE1] |==|  0.74200
ROOT
ATOM      1  C   VAL B   3       1.397 -21.441  20.947  1.00 28.64 LIG 0.24  C 
ATOM      2 O    VAL B   3       1.009 -22.591  21.189  1.00 27.24 LIG-0.27  OA
ATOM      3  N   HIS B   4       2.507 -20.789  21.664  1.00 29.63 LIG-0.35  N 
ATOM      4 H    HIS B   4       2.750 -19.968  21.586  1.00 29.63 LIG 0.16  HD
ENDROOT
BRANCH 1 5
ATOM      5  CA  VAL B   3       0.696 -20.589  19.874  1.00 30.81 LIG 0.18  C 
BRANCH 5 6
ATOM      6  N   VAL B   3       0.921 -19.178  20.150  1.00 30.70 LIG-0.35  N 
ATOM      7 H    VAL B   3       1.511 -18.805  19.649  1.00 30.70 LIG 0.16  HD
ATOM      8  C   LYS B   2       0.250 -18.547  21.109  1.00 38.89 LIG 0.24  C 
ATOM      9 O    LYS B   2      -0.645 -19.087  21.770  1.00 35.72 LIG-0.27  OA
BRANCH 8 10
ATOM     10  CA  LYS B   2       0.631 -17.091  21.341  1.00 39.86 LIG 0.18  C 
BRANCH 10 11
ATOM     11  CB  LYS B   2      -0.501 -16.155  20.872  1.00 33.57 LIG 0.04  C 
BRANCH 11 12
ATOM     12  CG  LYS B   2      -1.425 -16.817  19.829  1.00 34.54 LIG 0.00  C 
BRANCH 12 13
ATOM     13  CD  LYS B   2      -2.031 -15.830  18.841  1.00 30.34 LIG 0.03  C 
BRANCH 13 14
ATOM     14  CE  LYS B   2      -1.681 -14.386  19.140  1.00 26.25 LIG 0.23  C 
BRANCH 14 15
ATOM     15  NZ  LYS B   2      -0.391 -14.006  18.475  1.00 28.72 LIG-0.08  N 
ATOM     16 HZ2  LYS B   2       0.172 -13.678  19.082  1.00 28.72 LIG 0.27  HD
ATOM     17 HZ3  LYS B   2      -0.029 -14.724  18.095  1.00 28.72 LIG 0.27  HD
ATOM     18 HZ1  LYS B   2      -0.547 -13.389  17.853  1.00 28.72 LIG 0.27  HD
ENDBRANCH 14 15
ENDBRANCH 13 14
ENDBRANCH 12 13
ENDBRANCH 11 12
ENDBRANCH 10 11
BRANCH 10 19
ATOM     19  N   LYS B   2       1.916 -16.820  20.688  1.00 40.88 LIG-0.35  N 
ATOM     20  C   GLU B   1       1.949 -16.646  19.363  1.00 50.16 LIG 0.25  C 
ATOM     21 O    GLU B   1       0.958 -16.821  18.648  1.00 45.73 LIG-0.27  OA
ATOM     22 H    LYS B   2       2.599 -16.786  21.210  1.00 40.88 LIG 0.16  HD
BRANCH 20 23
ATOM     23  CA  GLU B   1       3.280 -16.240  18.728  1.00 56.89 LIG 0.28  C 
BRANCH 23 24
ATOM     24  CB  GLU B   1       4.112 -15.444  19.731  1.00 44.84 LIG 0.05  C 
BRANCH 24 25
ATOM     25  CG  GLU B   1       5.600 -15.418  19.413  1.00 43.84 LIG 0.12  C 
BRANCH 25 26
ATOM     26  CD  GLU B   1       5.906 -14.761  18.076  1.00 58.57 LIG 0.17  C 
ATOM     27 OE1  GLU B   1       5.192 -13.801  17.708  1.00 59.35 LIG-0.65  OA
ATOM     28 OE2  GLU B   1       6.856 -15.207  17.393  1.00 59.65 LIG-0.65  OA
ENDBRANCH 25 26
ENDBRANCH 24 25
ENDBRANCH 23 24
BRANCH 23 29
ATOM     29  N   GLU B   1       3.110 -15.502  17.483  1.00 43.96 LIG-0.07  N 
ATOM     30 H1   GLU B   1       2.246 -15.333  17.354  1.00 43.96 LIG 0.28  HD
ATOM     31 H2   GLU B   1       3.558 -14.734  17.529  1.00 43.96 LIG 0.28  HD
ATOM     32 H3   GLU B   1       3.421 -15.986  16.805  1.00 43.96 LIG 0.28  HD
ENDBRANCH 23 29
ENDBRANCH 20 23
ENDBRANCH 10 19
ENDBRANCH 8 10
ENDBRANCH 5 6
BRANCH 5 33
ATOM     33  CB  VAL B   3       1.201 -20.967  18.474  1.00 34.43 LIG 0.01  C 
ATOM     34  CG2 VAL B   3       0.040 -21.097  17.520  1.00 33.75 LIG 0.01  C 
ATOM     35  CG1 VAL B   3       1.986 -22.285  18.533  1.00 37.65 LIG 0.01  C 
ENDBRANCH 5 33
ENDBRANCH 1 5
BRANCH 3 36
ATOM     36  CA  HIS B   4       3.273 -21.610  22.601  1.00 28.98 LIG 0.18  C 
BRANCH 36 37
ATOM     37  CB  HIS B   4       4.591 -22.095  21.968  1.00 26.24 LIG 0.10  C 
BRANCH 37 38
ATOM     38  CG  HIS B   4       5.455 -20.977  21.470  1.00 30.41 LIG 0.06  A 
ATOM     39 ND1  HIS B   4       6.825 -21.087  21.355  1.00 34.08 LIG-0.24  NA
ATOM     40  CE1 HIS B   4       7.318 -19.950  20.889  1.00 29.96 LIG 0.23  A 
ATOM     41 NE2  HIS B   4       6.315 -19.117  20.680  1.00 35.16 LIG-0.25  NA
ATOM     42  CD2 HIS B   4       5.137 -19.734  21.031  1.00 34.95 LIG 0.14  A 
ENDBRANCH 37 38
ENDBRANCH 36 37
BRANCH 36 43
ATOM     43  C   HIS B   4       3.545 -20.900  23.916  1.00 27.46 LIG 0.24  C 
ATOM     44 O    HIS B   4       4.139 -19.817  23.945  1.00 25.24 LIG-0.27  OA
ATOM     45  N   VAL B   5       3.287 -21.516  24.974  1.00 26.31 LIG-0.35  N 
ATOM     46 H    VAL B   5       2.877 -22.272  25.008  1.00 26.31 LIG 0.16  HD
BRANCH 45 47
ATOM     47  CA  VAL B   5       3.681 -20.970  26.278  1.00 25.23 LIG 0.18  C 
BRANCH 47 48
ATOM     48  CB  VAL B   5       5.202 -20.692  26.334  1.00 26.56 LIG 0.01  C 
ATOM     49  CG2 VAL B   5       5.979 -21.894  25.816  1.00 31.17 LIG 0.01  C 
ATOM     50  CG1 VAL B   5       5.655 -20.351  27.734  1.00 34.68 LIG 0.01  C 
ENDBRANCH 47 48
BRANCH 47 51
ATOM     51  C   VAL B   5       2.885 -19.717  26.615  1.00 27.03 LIG 0.24  C 
ATOM     52  N   GLN B   6       2.160 -19.192  25.635  1.00 26.89 LIG-0.34  N 
ATOM     53 H    GLN B   6       2.115 -19.501  24.833  1.00 26.89 LIG 0.16  HD
ATOM     54 O    VAL B   5       2.910 -19.234  27.756  1.00 28.01 LIG-0.27  OA
BRANCH 52 55
ATOM     55  CA  GLN B   6       1.357 -17.993  25.894  1.00 25.51 LIG 0.19  C 
BRANCH 55 56
ATOM     56  C   GLN B   6      -0.129 -18.324  25.972  1.00 28.77 LIG 0.20  C 
ATOM     57 OXT  GLN B   6      -0.676 -19.100  25.163  1.00 27.06 LIG-0.65  OA
ATOM     58 O    GLN B   6      -0.830 -17.787  26.848  1.00 25.73 LIG-0.65  OA
ENDBRANCH 55 56
BRANCH 55 59
ATOM     59  CB  GLN B   6       1.560 -16.955  24.793  1.00 31.03 LIG 0.04  C 
BRANCH 59 60
ATOM     60  CG  GLN B   6       2.737 -16.035  25.003  1.00 39.52 LIG 0.10  C 
BRANCH 60 61
ATOM     61  CD  GLN B   6       3.674 -16.574  26.061  1.00 49.24 LIG 0.21  C 
ATOM     62  NE2 GLN B   6       4.627 -17.396  25.639  1.00 50.05 LIG-0.37  N 
ATOM     63 21HE GLN B   6       4.674 -17.607  24.807  1.00 50.05 LIG 0.16  HD
ATOM     64 22HE GLN B   6       5.196 -17.717  26.198  1.00 50.05 LIG 0.16  HD
ATOM     65 OE1  GLN B   6       3.558 -16.237  27.245  1.00 58.78 LIG-0.27  OA
ENDBRANCH 60 61
ENDBRANCH 59 60
ENDBRANCH 55 59
ENDBRANCH 52 55
ENDBRANCH 47 51
ENDBRANCH 45 47
ENDBRANCH 36 43
ENDBRANCH 3 36
TORSDOF 27
ENDMDL
MODEL 31
USER: ADFR SOLUTION from run 191
USER: SCORE 19.230902 LL:  -5.931 LR: -16.092 RR:   0.000 FEB:  -8.038
USER: RMSD 7.418091
USER: SEED 190
USER: STATUS no improvement in best in 1 clusters for 5 generations
USER: GENES 29
USER: genes 0 Translation |==|  0.61127 0.61692 0.40854
USER: genes 1 Rotation |==|  0.43157 0.46902 0.91952 0.76146
USER: genes 2 Torsion [N]-C--CA-[N] |==|  0.04590
USER: genes 3 Torsion [C]-CA--N-[C] |==|  0.14473
USER: genes 4 Torsion [N]-C--CA-[N] |==|  0.01543
USER: genes 5 Torsion [C]-CA--CB-[CG] |==|  0.52682
USER: genes 6 Torsion [CA]-CB--CG-[CD] |==|  0.74700
USER: genes 7 Torsion [CB]-CG--CD-[CE] |==|  0.10323
USER: genes 8 Torsion [CG]-CD--CE-[NZ] |==|  0.33076
USER: genes 9 Torsion [CD]-CE--NZ-[HZ1] |==|  0.96216
USER: genes 10 Torsion [C]-CA--N-[C] |==|  0.20294
USER: genes 11 Torsion [N]-C--CA-[N] |==|  0.97108
USER: genes 12 Torsion [C]-CA--CB-[CG] |==|  0.85190
USER: genes 13 Torsion [CA]-CB--CG-[CD] |==|  0.85304
USER: genes 14 Torsion [CB]-CG--CD-[OE1] |==|  0.82021
USER: genes 15 Torsion [C]-CA--N-[H1] |==|  0.16202
USER: genes 16 Torsion [C]-CA--CB-[CG2] |==|  0.56461
USER: genes 17 Torsion [C]-N--CA-[CB] |==|  0.11673
USER: genes 18 Torsion [N]-CA--CB-[CG] |==|  0.55117
USER: genes 19 Torsion [CA]-CB--CG-[ND1] |==|  0.72550
USER: genes 20 Torsion [N]-CA--C-[N] |==|  0.68098
USER: genes 21 Torsion [C]-N--CA-[CB] |==|  0.27166
USER: genes 22 Torsion [N]-CA--CB-[CG1] |==|  0.85046
USER: genes 23 Torsion [N]-CA--C-[N] |==|  0.90640
USER: genes 24 Torsion [C]-N--CA-[C] |==|  0.18842
USER: genes 25 Torsion [N]-CA--C-[OXT] |==|  0.62853
USER: genes 26 Torsion [N]-CA--CB-[CG] |==|  0.58245
USER: genes 27 Torsion [CA]-CB--CG-[CD] |==|  0.92059
USER: genes 28 Torsion [CB]-CG--CD-[OE1] |==|  0.73986
ROOT
ATOM      1  C   VAL B   3       6.410 -19.892  18.425  1.00 28.64 LIG 0.24  C 
ATOM      2 O    VAL B   3       7.419 -20.309  19.008  1.00 27.24 LIG-0.27  OA
ATOM      3  N   HIS B   4       5.097 -20.557  18.494  1.00 29.63 LIG-0.35  N 
ATOM      4 H    HIS B   4       4.397 -20.349  18.039  1.00 29.63 LIG 0.16  HD
ENDROOT
BRANCH 1 5
ATOM      5  CA  VAL B   3       6.483 -18.634  17.541  1.00 30.81 LIG 0.18  C 
BRANCH 5 6
ATOM      6  N   VAL B   3       5.136 -18.154  17.268  1.00 30.70 LIG-0.35  N 
ATOM      7 H    VAL B   3       4.962 -18.030  16.435  1.00 30.70 LIG 0.16  HD
ATOM      8  C   LYS B   2       4.269 -17.936  18.252  1.00 38.89 LIG 0.24  C 
ATOM      9 O    LYS B   2       4.519 -18.189  19.437  1.00 35.72 LIG-0.27  OA
BRANCH 8 10
ATOM     10  CA  LYS B   2       2.918 -17.368  17.836  1.00 39.86 LIG 0.18  C 
BRANCH 10 11
ATOM     11  CB  LYS B   2       1.772 -18.179  18.473  1.00 33.57 LIG 0.04  C 
BRANCH 11 12
ATOM     12  CG  LYS B   2       0.390 -17.802  17.902  1.00 34.54 LIG 0.00  C 
BRANCH 12 13
ATOM     13  CD  LYS B   2      -0.308 -16.695  18.681  1.00 30.34 LIG 0.03  C 
BRANCH 13 14
ATOM     14  CE  LYS B   2       0.640 -15.627  19.189  1.00 26.25 LIG 0.23  C 
BRANCH 14 15
ATOM     15  NZ  LYS B   2       0.287 -14.288  18.608  1.00 28.72 LIG-0.08  N 
ATOM     16 HZ2  LYS B   2      -0.095 -13.784  19.234  1.00 28.72 LIG 0.27  HD
ATOM     17 HZ3  LYS B   2       1.026 -13.887  18.315  1.00 28.72 LIG 0.27  HD
ATOM     18 HZ1  LYS B   2      -0.278 -14.399  17.930  1.00 28.72 LIG 0.27  HD
ENDBRANCH 14 15
ENDBRANCH 13 14
ENDBRANCH 12 13
ENDBRANCH 11 12
ENDBRANCH 10 11
BRANCH 10 19
ATOM     19  N   LYS B   2       2.849 -17.316  16.372  1.00 40.88 LIG-0.35  N 
ATOM     20  C   GLU B   1       2.704 -18.454  15.686  1.00 50.16 LIG 0.25  C 
ATOM     21 O    GLU B   1       2.743 -19.563  16.228  1.00 45.73 LIG-0.27  OA
ATOM     22 H    LYS B   2       2.907 -16.531  16.024  1.00 40.88 LIG 0.16  HD
BRANCH 20 23
ATOM     23  CA  GLU B   1       2.507 -18.356  14.173  1.00 56.89 LIG 0.28  C 
BRANCH 23 24
ATOM     24  CB  GLU B   1       3.705 -18.971  13.452  1.00 44.84 LIG 0.05  C 
BRANCH 24 25
ATOM     25  CG  GLU B   1       5.045 -18.403  13.892  1.00 43.84 LIG 0.12  C 
BRANCH 25 26
ATOM     26  CD  GLU B   1       5.096 -16.884  13.815  1.00 58.57 LIG 0.17  C 
ATOM     27 OE1  GLU B   1       5.005 -16.342  12.691  1.00 59.35 LIG-0.65  OA
ATOM     28 OE2  GLU B   1       5.231 -16.235  14.877  1.00 59.65 LIG-0.65  OA
ENDBRANCH 25 26
ENDBRANCH 24 25
ENDBRANCH 23 24
BRANCH 23 29
ATOM     29  N   GLU B   1       2.266 -16.991  13.721  1.00 43.96 LIG-0.07  N 
ATOM     30 H1   GLU B   1       2.951 -16.475  13.960  1.00 43.96 LIG 0.28  HD
ATOM     31 H2   GLU B   1       2.183 -16.981  12.835  1.00 43.96 LIG 0.28  HD
ATOM     32 H3   GLU B   1       1.520 -16.683  14.093  1.00 43.96 LIG 0.28  HD
ENDBRANCH 23 29
ENDBRANCH 20 23
ENDBRANCH 10 19
ENDBRANCH 8 10
ENDBRANCH 5 6
BRANCH 5 33
ATOM     33  CB  VAL B   3       7.331 -17.549  18.218  1.00 34.43 LIG 0.01  C 
ATOM     34  CG2 VAL B   3       6.957 -16.189  17.684  1.00 33.75 LIG 0.01  C 
ATOM     35  CG1 VAL B   3       8.824 -17.818  17.979  1.00 37.65 LIG 0.01  C 
ENDBRANCH 5 33
ENDBRANCH 1 5
BRANCH 3 36
ATOM     36  CA  HIS B   4       4.963 -21.679  19.422  1.00 28.98 LIG 0.18  C 
BRANCH 36 37
ATOM     37  CB  HIS B   4       5.659 -21.381  20.763  1.00 26.24 LIG 0.10  C 
BRANCH 37 38
ATOM     38  CG  HIS B   4       5.937 -22.611  21.572  1.00 30.41 LIG 0.06  A 
ATOM     39 ND1  HIS B   4       5.126 -23.020  22.610  1.00 34.08 LIG-0.24  NA
ATOM     40  CE1 HIS B   4       5.616 -24.132  23.136  1.00 29.96 LIG 0.23  A 
ATOM     41 NE2  HIS B   4       6.702 -24.467  22.463  1.00 35.16 LIG-0.25  NA
ATOM     42  CD2 HIS B   4       6.925 -23.535  21.476  1.00 34.95 LIG 0.14  A 
ENDBRANCH 37 38
ENDBRANCH 36 37
BRANCH 36 43
ATOM     43  C   HIS B   4       3.515 -22.078  19.652  1.00 27.46 LIG 0.24  C 
ATOM     44 O    HIS B   4       2.785 -22.400  18.709  1.00 25.24 LIG-0.27  OA
ATOM     45  N   VAL B   5       3.045 -21.923  20.802  1.00 26.31 LIG-0.35  N 
ATOM     46 H    VAL B   5       3.510 -21.700  21.491  1.00 26.31 LIG 0.16  HD
BRANCH 45 47
ATOM     47  CA  VAL B   5       1.613 -22.121  21.062  1.00 25.23 LIG 0.18  C 
BRANCH 47 48
ATOM     48  CB  VAL B   5       1.336 -23.531  21.635  1.00 26.56 LIG 0.01  C 
ATOM     49  CG2 VAL B   5       1.906 -23.653  23.041  1.00 31.17 LIG 0.01  C 
ATOM     50  CG1 VAL B   5       1.910 -24.614  20.751  1.00 34.68 LIG 0.01  C 
ENDBRANCH 47 48
BRANCH 47 51
ATOM     51  C   VAL B   5       1.066 -21.040  21.982  1.00 27.03 LIG 0.24  C 
ATOM     52  N   GLN B   6       1.893 -20.574  22.910  1.00 26.89 LIG-0.34  N 
ATOM     53 H    GLN B   6       2.702 -20.841  23.031  1.00 26.89 LIG 0.16  HD
ATOM     54 O    VAL B   5      -0.092 -20.616  21.849  1.00 28.01 LIG-0.27  OA
BRANCH 52 55
ATOM     55  CA  GLN B   6       1.435 -19.521  23.822  1.00 25.51 LIG 0.19  C 
BRANCH 55 56
ATOM     56  C   GLN B   6       0.355 -20.034  24.768  1.00 28.77 LIG 0.20  C 
ATOM     57 OXT  GLN B   6      -0.693 -19.392  24.983  1.00 27.06 LIG-0.65  OA
ATOM     58 O    GLN B   6       0.528 -21.110  25.368  1.00 25.73 LIG-0.65  OA
ENDBRANCH 55 56
BRANCH 55 59
ATOM     59  CB  GLN B   6       0.869 -18.337  23.044  1.00 31.03 LIG 0.04  C 
BRANCH 59 60
ATOM     60  CG  GLN B   6       1.021 -17.001  23.728  1.00 39.52 LIG 0.10  C 
BRANCH 60 61
ATOM     61  CD  GLN B   6       1.042 -17.154  25.232  1.00 49.24 LIG 0.21  C 
ATOM     62  NE2 GLN B   6       2.228 -17.381  25.783  1.00 50.05 LIG-0.37  N 
ATOM     63 21HE GLN B   6       2.926 -17.451  25.286  1.00 50.05 LIG 0.16  HD
ATOM     64 22HE GLN B   6       2.297 -17.459  26.637  1.00 50.05 LIG 0.16  HD
ATOM     65 OE1  GLN B   6       0.005 -17.045  25.897  1.00 58.78 LIG-0.27  OA
ENDBRANCH 60 61
ENDBRANCH 59 60
ENDBRANCH 55 59
ENDBRANCH 52 55
ENDBRANCH 47 51
ENDBRANCH 45 47
ENDBRANCH 36 43
ENDBRANCH 3 36
TORSDOF 27
ENDMDL
MODEL 32
USER: ADFR SOLUTION from run 71
USER: SCORE 20.429268 LL:  -4.910 LR: -16.069 RR:   0.000 FEB:  -8.015
USER: RMSD 7.147743
USER: SEED 70
USER: STATUS no improvement in best in 4 clusters for 5 generations
USER: GENES 29
USER: genes 0 Translation |==|  0.40506 0.48253 0.46285
USER: genes 1 Rotation |==|  0.38987 0.61362 0.91139 0.73605
USER: genes 2 Torsion [N]-C--CA-[N] |==|  0.24415
USER: genes 3 Torsion [C]-CA--N-[C] |==|  0.74444
USER: genes 4 Torsion [N]-C--CA-[N] |==|  0.10253
USER: genes 5 Torsion [C]-CA--CB-[CG] |==|  0.59768
USER: genes 6 Torsion [CA]-CB--CG-[CD] |==|  0.69445
USER: genes 7 Torsion [CB]-CG--CD-[CE] |==|  0.22679
USER: genes 8 Torsion [CG]-CD--CE-[NZ] |==|  0.30002
USER: genes 9 Torsion [CD]-CE--NZ-[HZ1] |==|  0.08117
USER: genes 10 Torsion [C]-CA--N-[C] |==|  0.14519
USER: genes 11 Torsion [N]-C--CA-[N] |==|  0.22575
USER: genes 12 Torsion [C]-CA--CB-[CG] |==|  0.39469
USER: genes 13 Torsion [CA]-CB--CG-[CD] |==|  0.18362
USER: genes 14 Torsion [CB]-CG--CD-[OE1] |==|  0.34064
USER: genes 15 Torsion [C]-CA--N-[H1] |==|  0.48592
USER: genes 16 Torsion [C]-CA--CB-[CG2] |==|  0.79319
USER: genes 17 Torsion [C]-N--CA-[CB] |==|  0.81077
USER: genes 18 Torsion [N]-CA--CB-[CG] |==|  0.84507
USER: genes 19 Torsion [CA]-CB--CG-[ND1] |==|  0.54254
USER: genes 20 Torsion [N]-CA--C-[N] |==|  0.47027
USER: genes 21 Torsion [C]-N--CA-[CB] |==|  0.84439
USER: genes 22 Torsion [N]-CA--CB-[CG1] |==|  0.48789
USER: genes 23 Torsion [N]-CA--C-[N] |==|  0.41666
USER: genes 24 Torsion [C]-N--CA-[C] |==|  0.18617
USER: genes 25 Torsion [N]-CA--C-[OXT] |==|  0.83425
USER: genes 26 Torsion [N]-CA--CB-[CG] |==|  0.66898
USER: genes 27 Torsion [CA]-CB--CG-[CD] |==|  0.14935
USER: genes 28 Torsion [CB]-CG--CD-[OE1] |==|  0.63340
ROOT
ATOM      1  C   VAL B   3       2.698 -23.016  19.647  1.00 28.64 LIG 0.24  C 
ATOM      2 O    VAL B   3       3.793 -23.104  20.217  1.00 27.24 LIG-0.27  OA
ATOM      3  N   HIS B   4       1.427 -23.445  20.257  1.00 29.63 LIG-0.35  N 
ATOM      4 H    HIS B   4       0.662 -23.480  19.866  1.00 29.63 LIG 0.16  HD
ENDROOT
BRANCH 1 5
ATOM      5  CA  VAL B   3       2.606 -22.470  18.211  1.00 30.81 LIG 0.18  C 
BRANCH 5 6
ATOM      6  N   VAL B   3       2.337 -21.040  18.252  1.00 30.70 LIG-0.35  N 
ATOM      7 H    VAL B   3       3.039 -20.545  18.295  1.00 30.70 LIG 0.16  HD
ATOM      8  C   LYS B   2       1.093 -20.572  18.223  1.00 38.89 LIG 0.24  C 
ATOM      9 O    LYS B   2       0.103 -21.300  18.090  1.00 35.72 LIG-0.27  OA
BRANCH 8 10
ATOM     10  CA  LYS B   2       0.949 -19.060  18.342  1.00 39.86 LIG 0.18  C 
BRANCH 10 11
ATOM     11  CB  LYS B   2      -0.445 -18.611  17.859  1.00 33.57 LIG 0.04  C 
BRANCH 11 12
ATOM     12  CG  LYS B   2      -0.414 -17.244  17.145  1.00 34.54 LIG 0.00  C 
BRANCH 12 13
ATOM     13  CD  LYS B   2      -1.076 -16.127  17.942  1.00 30.34 LIG 0.03  C 
BRANCH 13 14
ATOM     14  CE  LYS B   2      -0.176 -15.530  19.005  1.00 26.25 LIG 0.23  C 
BRANCH 14 15
ATOM     15  NZ  LYS B   2       0.268 -14.152  18.608  1.00 28.72 LIG-0.08  N 
ATOM     16 HZ2  LYS B   2       0.391 -13.657  19.338  1.00 28.72 LIG 0.27  HD
ATOM     17 HZ3  LYS B   2       1.033 -14.206  18.155  1.00 28.72 LIG 0.27  HD
ATOM     18 HZ1  LYS B   2      -0.353 -13.776  18.095  1.00 28.72 LIG 0.27  HD
ENDBRANCH 14 15
ENDBRANCH 13 14
ENDBRANCH 12 13
ENDBRANCH 11 12
ENDBRANCH 10 11
BRANCH 10 19
ATOM     19  N   LYS B   2       2.049 -18.413  17.620  1.00 40.88 LIG-0.35  N 
ATOM     20  C   GLU B   1       2.284 -18.756  16.350  1.00 50.16 LIG 0.25  C 
ATOM     21 O    GLU B   1       1.687 -19.682  15.792  1.00 45.73 LIG-0.27  OA
ATOM     22 H    LYS B   2       2.497 -17.830  18.067  1.00 40.88 LIG 0.16  HD
BRANCH 20 23
ATOM     23  CA  GLU B   1       3.355 -17.975  15.585  1.00 56.89 LIG 0.28  C 
BRANCH 23 24
ATOM     24  CB  GLU B   1       3.064 -18.025  14.087  1.00 44.84 LIG 0.05  C 
BRANCH 24 25
ATOM     25  CG  GLU B   1       3.369 -16.726  13.357  1.00 43.84 LIG 0.12  C 
BRANCH 25 26
ATOM     26  CD  GLU B   1       4.853 -16.392  13.344  1.00 58.57 LIG 0.17  C 
ATOM     27 OE1  GLU B   1       5.417 -16.235  12.237  1.00 59.35 LIG-0.65  OA
ATOM     28 OE2  GLU B   1       5.454 -16.291  14.437  1.00 59.65 LIG-0.65  OA
ENDBRANCH 25 26
ENDBRANCH 24 25
ENDBRANCH 23 24
BRANCH 23 29
ATOM     29  N   GLU B   1       4.706 -18.440  15.873  1.00 43.96 LIG-0.07  N 
ATOM     30 H1   GLU B   1       5.285 -18.009  15.353  1.00 43.96 LIG 0.28  HD
ATOM     31 H2   GLU B   1       4.899 -18.282  16.727  1.00 43.96 LIG 0.28  HD
ATOM     32 H3   GLU B   1       4.760 -19.314  15.714  1.00 43.96 LIG 0.28  HD
ENDBRANCH 23 29
ENDBRANCH 20 23
ENDBRANCH 10 19
ENDBRANCH 8 10
ENDBRANCH 5 6
BRANCH 5 33
ATOM     33  CB  VAL B   3       3.900 -22.768  17.440  1.00 34.43 LIG 0.01  C 
ATOM     34  CG2 VAL B   3       5.004 -21.852  17.904  1.00 33.75 LIG 0.01  C 
ATOM     35  CG1 VAL B   3       3.668 -22.594  15.931  1.00 37.65 LIG 0.01  C 
ENDBRANCH 5 33
ENDBRANCH 1 5
BRANCH 3 36
ATOM     36  CA  HIS B   4       1.462 -23.851  21.662  1.00 28.98 LIG 0.18  C 
BRANCH 36 37
ATOM     37  CB  HIS B   4       2.247 -25.163  21.844  1.00 26.24 LIG 0.10  C 
BRANCH 37 38
ATOM     38  CG  HIS B   4       1.724 -26.288  21.004  1.00 30.41 LIG 0.06  A 
ATOM     39 ND1  HIS B   4       2.064 -27.606  21.228  1.00 34.08 LIG-0.24  NA
ATOM     40  CE1 HIS B   4       1.453 -28.373  20.337  1.00 29.96 LIG 0.23  A 
ATOM     41 NE2  HIS B   4       0.716 -27.600  19.560  1.00 35.16 LIG-0.25  NA
ATOM     42  CD2 HIS B   4       0.863 -26.291  19.957  1.00 34.95 LIG 0.14  A 
ENDBRANCH 37 38
ENDBRANCH 36 37
BRANCH 36 43
ATOM     43  C   HIS B   4       2.018 -22.768  22.570  1.00 27.46 LIG 0.24  C 
ATOM     44 O    HIS B   4       2.693 -21.839  22.116  1.00 25.24 LIG-0.27  OA
ATOM     45  N   VAL B   5       1.903 -22.930  23.806  1.00 26.31 LIG-0.35  N 
ATOM     46 H    VAL B   5       1.446 -23.560  24.173  1.00 26.31 LIG 0.16  HD
BRANCH 45 47
ATOM     47  CA  VAL B   5       2.564 -22.019  24.749  1.00 25.23 LIG 0.18  C 
BRANCH 47 48
ATOM     48  CB  VAL B   5       4.089 -21.954  24.490  1.00 26.56 LIG 0.01  C 
ATOM     49  CG2 VAL B   5       4.720 -23.323  24.691  1.00 31.17 LIG 0.01  C 
ATOM     50  CG1 VAL B   5       4.762 -20.940  25.385  1.00 34.68 LIG 0.01  C 
ENDBRANCH 47 48
BRANCH 47 51
ATOM     51  C   VAL B   5       1.942 -20.631  24.704  1.00 27.03 LIG 0.24  C 
ATOM     52  N   GLN B   6       1.975 -19.928  25.830  1.00 26.89 LIG-0.34  N 
ATOM     53 H    GLN B   6       2.311 -20.201  26.573  1.00 26.89 LIG 0.16  HD
ATOM     54 O    VAL B   5       1.448 -20.188  23.657  1.00 28.01 LIG-0.27  OA
BRANCH 52 55
ATOM     55  CA  GLN B   6       1.406 -18.578  25.854  1.00 25.51 LIG 0.19  C 
BRANCH 55 56
ATOM     56  C   GLN B   6      -0.107 -18.607  25.671  1.00 28.77 LIG 0.20  C 
ATOM     57 OXT  GLN B   6      -0.639 -19.092  24.652  1.00 27.06 LIG-0.65  OA
ATOM     58 O    GLN B   6      -0.839 -18.110  26.545  1.00 25.73 LIG-0.65  OA
ENDBRANCH 55 56
BRANCH 55 59
ATOM     59  CB  GLN B   6       2.007 -17.715  24.747  1.00 31.03 LIG 0.04  C 
BRANCH 59 60
ATOM     60  CG  GLN B   6       2.745 -16.492  25.230  1.00 39.52 LIG 0.10  C 
BRANCH 60 61
ATOM     61  CD  GLN B   6       3.804 -16.855  26.248  1.00 49.24 LIG 0.21  C 
ATOM     62  NE2 GLN B   6       4.622 -17.846  25.917  1.00 50.05 LIG-0.37  N 
ATOM     63 21HE GLN B   6       4.523 -18.253  25.167  1.00 50.05 LIG 0.16  HD
ATOM     64 22HE GLN B   6       5.252 -18.080  26.454  1.00 50.05 LIG 0.16  HD
ATOM     65 OE1  GLN B   6       3.900 -16.235  27.314  1.00 58.78 LIG-0.27  OA
ENDBRANCH 60 61
ENDBRANCH 59 60
ENDBRANCH 55 59
ENDBRANCH 52 55
ENDBRANCH 47 51
ENDBRANCH 45 47
ENDBRANCH 36 43
ENDBRANCH 3 36
TORSDOF 27
ENDMDL
MODEL 33
USER: ADFR SOLUTION from run 90
USER: SCORE 20.022299 LL:  -6.328 LR: -16.007 RR:   0.000 FEB:  -7.953
USER: RMSD 8.741820
USER: SEED 89
USER: STATUS no improvement in best in 6 clusters for 5 generations
USER: GENES 29
USER: genes 0 Translation |==|  0.25972 0.68203 0.47124
USER: genes 1 Rotation |==|  0.73679 0.07995 0.62822 0.53242
USER: genes 2 Torsion [N]-C--CA-[N] |==|  0.41827
USER: genes 3 Torsion [C]-CA--N-[C] |==|  0.81578
USER: genes 4 Torsion [N]-C--CA-[N] |==|  0.97435
USER: genes 5 Torsion [C]-CA--CB-[CG] |==|  0.24903
USER: genes 6 Torsion [CA]-CB--CG-[CD] |==|  0.50495
USER: genes 7 Torsion [CB]-CG--CD-[CE] |==|  0.49654
USER: genes 8 Torsion [CG]-CD--CE-[NZ] |==|  0.60963
USER: genes 9 Torsion [CD]-CE--NZ-[HZ1] |==|  0.04064
USER: genes 10 Torsion [C]-CA--N-[C] |==|  0.21153
USER: genes 11 Torsion [N]-C--CA-[N] |==|  0.07042
USER: genes 12 Torsion [C]-CA--CB-[CG] |==|  0.78340
USER: genes 13 Torsion [CA]-CB--CG-[CD] |==|  0.37880
USER: genes 14 Torsion [CB]-CG--CD-[OE1] |==|  0.81156
USER: genes 15 Torsion [C]-CA--N-[H1] |==|  0.14958
USER: genes 16 Torsion [C]-CA--CB-[CG2] |==|  0.20314
USER: genes 17 Torsion [C]-N--CA-[CB] |==|  0.79412
USER: genes 18 Torsion [N]-CA--CB-[CG] |==|  0.84406
USER: genes 19 Torsion [CA]-CB--CG-[ND1] |==|  0.97467
USER: genes 20 Torsion [N]-CA--C-[N] |==|  0.53769
USER: genes 21 Torsion [C]-N--CA-[CB] |==|  0.41553
USER: genes 22 Torsion [N]-CA--CB-[CG1] |==|  0.28612
USER: genes 23 Torsion [N]-CA--C-[N] |==|  0.89803
USER: genes 24 Torsion [C]-N--CA-[C] |==|  0.18014
USER: genes 25 Torsion [N]-CA--C-[OXT] |==|  0.08755
USER: genes 26 Torsion [N]-CA--CB-[CG] |==|  0.81442
USER: genes 27 Torsion [CA]-CB--CG-[CD] |==|  0.43406
USER: genes 28 Torsion [CB]-CG--CD-[OE1] |==|  0.39375
ROOT
ATOM      1  C   VAL B   3       0.082 -18.378  19.836  1.00 28.64 LIG 0.24  C 
ATOM      2 O    VAL B   3       1.282 -18.166  19.619  1.00 27.24 LIG-0.27  OA
ATOM      3  N   HIS B   4      -0.996 -17.949  18.928  1.00 29.63 LIG-0.35  N 
ATOM      4 H    HIS B   4      -1.841 -18.001  19.081  1.00 29.63 LIG 0.16  HD
ENDROOT
BRANCH 1 5
ATOM      5  CA  VAL B   3      -0.366 -19.091  21.124  1.00 30.81 LIG 0.18  C 
BRANCH 5 6
ATOM      6  N   VAL B   3       0.667 -20.027  21.545  1.00 30.70 LIG-0.35  N 
ATOM      7 H    VAL B   3       1.052 -19.825  22.287  1.00 30.70 LIG 0.16  HD
ATOM      8  C   LYS B   2       0.965 -21.097  20.817  1.00 38.89 LIG 0.24  C 
ATOM      9 O    LYS B   2       0.349 -21.405  19.789  1.00 35.72 LIG-0.27  OA
BRANCH 8 10
ATOM     10  CA  LYS B   2       2.112 -21.956  21.335  1.00 39.86 LIG 0.18  C 
BRANCH 10 11
ATOM     11  CB  LYS B   2       1.604 -23.360  21.720  1.00 33.57 LIG 0.04  C 
BRANCH 11 12
ATOM     12  CG  LYS B   2       1.657 -24.354  20.542  1.00 34.54 LIG 0.00  C 
BRANCH 12 13
ATOM     13  CD  LYS B   2       1.120 -25.737  20.889  1.00 30.34 LIG 0.03  C 
BRANCH 13 14
ATOM     14  CE  LYS B   2       1.145 -26.704  19.723  1.00 26.25 LIG 0.23  C 
BRANCH 14 15
ATOM     15  NZ  LYS B   2      -0.093 -27.553  19.714  1.00 28.72 LIG-0.08  N 
ATOM     16 HZ2  LYS B   2      -0.420 -27.593  18.887  1.00 28.72 LIG 0.27  HD
ATOM     17 HZ3  LYS B   2       0.107 -28.374  19.992  1.00 28.72 LIG 0.27  HD
ATOM     18 HZ1  LYS B   2      -0.701 -27.197  20.256  1.00 28.72 LIG 0.27  HD
ENDBRANCH 14 15
ENDBRANCH 13 14
ENDBRANCH 12 13
ENDBRANCH 11 12
ENDBRANCH 10 11
BRANCH 10 19
ATOM     19  N   LYS B   2       2.777 -21.256  22.439  1.00 40.88 LIG-0.35  N 
ATOM     20  C   GLU B   1       2.189 -21.228  23.639  1.00 50.16 LIG 0.25  C 
ATOM     21 O    GLU B   1       1.051 -21.666  23.829  1.00 45.73 LIG-0.27  OA
ATOM     22 H    LYS B   2       3.532 -20.892  22.247  1.00 40.88 LIG 0.16  HD
BRANCH 20 23
ATOM     23  CA  GLU B   1       2.964 -20.601  24.799  1.00 56.89 LIG 0.28  C 
BRANCH 23 24
ATOM     24  CB  GLU B   1       1.990 -19.985  25.802  1.00 44.84 LIG 0.05  C 
BRANCH 24 25
ATOM     25  CG  GLU B   1       1.429 -18.640  25.368  1.00 43.84 LIG 0.12  C 
BRANCH 25 26
ATOM     26  CD  GLU B   1      -0.067 -18.517  25.618  1.00 58.57 LIG 0.17  C 
ATOM     27 OE1  GLU B   1      -0.843 -19.232  24.943  1.00 59.35 LIG-0.65  OA
ATOM     28 OE2  GLU B   1      -0.465 -17.705  26.483  1.00 59.65 LIG-0.65  OA
ENDBRANCH 25 26
ENDBRANCH 24 25
ENDBRANCH 23 24
BRANCH 23 29
ATOM     29  N   GLU B   1       3.950 -19.623  24.357  1.00 43.96 LIG-0.07  N 
ATOM     30 H1   GLU B   1       3.555 -19.015  23.843  1.00 43.96 LIG 0.28  HD
ATOM     31 H2   GLU B   1       4.311 -19.224  25.066  1.00 43.96 LIG 0.28  HD
ATOM     32 H3   GLU B   1       4.588 -20.034  23.892  1.00 43.96 LIG 0.28  HD
ENDBRANCH 23 29
ENDBRANCH 20 23
ENDBRANCH 10 19
ENDBRANCH 8 10
ENDBRANCH 5 6
BRANCH 5 33
ATOM     33  CB  VAL B   3      -0.668 -18.067  22.227  1.00 34.43 LIG 0.01  C 
ATOM     34  CG2 VAL B   3      -1.962 -17.350  21.931  1.00 33.75 LIG 0.01  C 
ATOM     35  CG1 VAL B   3       0.482 -17.054  22.339  1.00 37.65 LIG 0.01  C 
ENDBRANCH 5 33
ENDBRANCH 1 5
BRANCH 3 36
ATOM     36  CA  HIS B   4      -0.600 -17.382  17.639  1.00 28.98 LIG 0.18  C 
BRANCH 36 37
ATOM     37  CB  HIS B   4      -0.044 -15.955  17.804  1.00 26.24 LIG 0.10  C 
BRANCH 37 38
ATOM     38  CG  HIS B   4      -0.998 -15.024  18.489  1.00 30.41 LIG 0.06  A 
ATOM     39 ND1  HIS B   4      -2.307 -15.363  18.758  1.00 34.08 LIG-0.24  NA
ATOM     40  CE1 HIS B   4      -2.906 -14.352  19.368  1.00 29.96 LIG 0.23  A 
ATOM     41 NE2  HIS B   4      -2.025 -13.380  19.520  1.00 35.16 LIG-0.25  NA
ATOM     42  CD2 HIS B   4      -0.822 -13.774  18.983  1.00 34.95 LIG 0.14  A 
ENDBRANCH 37 38
ENDBRANCH 36 37
BRANCH 36 43
ATOM     43  C   HIS B   4       0.396 -18.257  16.895  1.00 27.46 LIG 0.24  C 
ATOM     44 O    HIS B   4       0.716 -19.369  17.329  1.00 25.24 LIG-0.27  OA
ATOM     45  N   VAL B   5       0.994 -17.754  15.918  1.00 26.31 LIG-0.35  N 
ATOM     46 H    VAL B   5       0.811 -16.985  15.579  1.00 26.31 LIG 0.16  HD
BRANCH 45 47
ATOM     47  CA  VAL B   5       2.092 -18.473  15.258  1.00 25.23 LIG 0.18  C 
BRANCH 47 48
ATOM     48  CB  VAL B   5       2.172 -18.116  13.754  1.00 26.56 LIG 0.01  C 
ATOM     49  CG2 VAL B   5       2.347 -19.376  12.920  1.00 31.17 LIG 0.01  C 
ATOM     50  CG1 VAL B   5       3.297 -17.150  13.470  1.00 34.68 LIG 0.01  C 
ENDBRANCH 47 48
BRANCH 47 51
ATOM     51  C   VAL B   5       3.420 -18.210  15.953  1.00 27.03 LIG 0.24  C 
ATOM     52  N   GLN B   6       3.609 -16.985  16.429  1.00 26.89 LIG-0.34  N 
ATOM     53 H    GLN B   6       3.046 -16.338  16.367  1.00 26.89 LIG 0.16  HD
ATOM     54 O    VAL B   5       4.265 -19.109  16.074  1.00 28.01 LIG-0.27  OA
BRANCH 52 55
ATOM     55  CA  GLN B   6       4.861 -16.667  17.122  1.00 25.51 LIG 0.19  C 
BRANCH 55 56
ATOM     56  C   GLN B   6       6.058 -16.759  16.183  1.00 28.77 LIG 0.20  C 
ATOM     57 OXT  GLN B   6       5.963 -16.497  14.967  1.00 27.06 LIG-0.65  OA
ATOM     58 O    GLN B   6       7.158 -17.133  16.627  1.00 25.73 LIG-0.65  OA
ENDBRANCH 55 56
BRANCH 55 59
ATOM     59  CB  GLN B   6       5.093 -17.622  18.291  1.00 31.03 LIG 0.04  C 
BRANCH 59 60
ATOM     60  CG  GLN B   6       4.105 -17.487  19.422  1.00 39.52 LIG 0.10  C 
BRANCH 60 61
ATOM     61  CD  GLN B   6       4.015 -18.764  20.228  1.00 49.24 LIG 0.21  C 
ATOM     62  NE2 GLN B   6       4.104 -19.898  19.544  1.00 50.05 LIG-0.37  N 
ATOM     63 21HE GLN B   6       4.190 -19.878  18.689  1.00 50.05 LIG 0.16  HD
ATOM     64 22HE GLN B   6       4.076 -20.652  19.957  1.00 50.05 LIG 0.16  HD
ATOM     65 OE1  GLN B   6       3.891 -18.732  21.458  1.00 58.78 LIG-0.27  OA
ENDBRANCH 60 61
ENDBRANCH 59 60
ENDBRANCH 55 59
ENDBRANCH 52 55
ENDBRANCH 47 51
ENDBRANCH 45 47
ENDBRANCH 36 43
ENDBRANCH 3 36
TORSDOF 27
ENDMDL
MODEL 34
USER: ADFR SOLUTION from run 179
USER: SCORE 20.759779 LL:  -7.100 LR: -15.975 RR:   0.000 FEB:  -7.921
USER: RMSD 8.668392
USER: SEED 178
USER: STATUS no improvement in best in 1 clusters for 5 generations
USER: GENES 29
USER: genes 0 Translation |==|  0.34039 0.47864 0.55236
USER: genes 1 Rotation |==|  0.67412 0.66737 0.38476 0.92236
USER: genes 2 Torsion [N]-C--CA-[N] |==|  0.87788
USER: genes 3 Torsion [C]-CA--N-[C] |==|  0.83151
USER: genes 4 Torsion [N]-C--CA-[N] |==|  0.42944
USER: genes 5 Torsion [C]-CA--CB-[CG] |==|  0.79401
USER: genes 6 Torsion [CA]-CB--CG-[CD] |==|  0.68029
USER: genes 7 Torsion [CB]-CG--CD-[CE] |==|  0.97765
USER: genes 8 Torsion [CG]-CD--CE-[NZ] |==|  0.39821
USER: genes 9 Torsion [CD]-CE--NZ-[HZ1] |==|  0.43786
USER: genes 10 Torsion [C]-CA--N-[C] |==|  0.54954
USER: genes 11 Torsion [N]-C--CA-[N] |==|  0.65808
USER: genes 12 Torsion [C]-CA--CB-[CG] |==|  0.25028
USER: genes 13 Torsion [CA]-CB--CG-[CD] |==|  0.67138
USER: genes 14 Torsion [CB]-CG--CD-[OE1] |==|  0.48261
USER: genes 15 Torsion [C]-CA--N-[H1] |==|  0.28971
USER: genes 16 Torsion [C]-CA--CB-[CG2] |==|  0.15619
USER: genes 17 Torsion [C]-N--CA-[CB] |==|  0.16295
USER: genes 18 Torsion [N]-CA--CB-[CG] |==|  0.55312
USER: genes 19 Torsion [CA]-CB--CG-[ND1] |==|  0.19472
USER: genes 20 Torsion [N]-CA--C-[N] |==|  0.99495
USER: genes 21 Torsion [C]-N--CA-[CB] |==|  0.48007
USER: genes 22 Torsion [N]-CA--CB-[CG1] |==|  0.11107
USER: genes 23 Torsion [N]-CA--C-[N] |==|  0.82225
USER: genes 24 Torsion [C]-N--CA-[C] |==|  0.17403
USER: genes 25 Torsion [N]-CA--C-[OXT] |==|  0.15810
USER: genes 26 Torsion [N]-CA--CB-[CG] |==|  0.90570
USER: genes 27 Torsion [CA]-CB--CG-[CD] |==|  0.80181
USER: genes 28 Torsion [CB]-CG--CD-[OE1] |==|  0.43515
ROOT
ATOM      1  C   VAL B   3       1.534 -23.107  21.661  1.00 28.64 LIG 0.24  C 
ATOM      2 O    VAL B   3       0.523 -23.686  22.078  1.00 27.24 LIG-0.27  OA
ATOM      3  N   HIS B   4       2.543 -22.496  22.544  1.00 29.63 LIG-0.35  N 
ATOM      4 H    HIS B   4       3.211 -22.014  22.296  1.00 29.63 LIG 0.16  HD
ENDROOT
BRANCH 1 5
ATOM      5  CA  VAL B   3       1.782 -22.957  20.150  1.00 30.81 LIG 0.18  C 
BRANCH 5 6
ATOM      6  N   VAL B   3       2.197 -21.592  19.859  1.00 30.70 LIG-0.35  N 
ATOM      7 H    VAL B   3       2.977 -21.523  19.504  1.00 30.70 LIG 0.16  HD
ATOM      8  C   LYS B   2       1.407 -20.558  20.133  1.00 38.89 LIG 0.24  C 
ATOM      9 O    LYS B   2       0.260 -20.687  20.577  1.00 35.72 LIG-0.27  OA
BRANCH 8 10
ATOM     10  CA  LYS B   2       1.990 -19.181  19.843  1.00 39.86 LIG 0.18  C 
BRANCH 10 11
ATOM     11  CB  LYS B   2       2.933 -18.743  20.980  1.00 33.57 LIG 0.04  C 
BRANCH 11 12
ATOM     12  CG  LYS B   2       2.173 -18.325  22.256  1.00 34.54 LIG 0.00  C 
BRANCH 12 13
ATOM     13  CD  LYS B   2       2.340 -16.853  22.608  1.00 30.34 LIG 0.03  C 
BRANCH 13 14
ATOM     14  CE  LYS B   2       3.369 -16.142  21.752  1.00 26.25 LIG 0.23  C 
BRANCH 14 15
ATOM     15  NZ  LYS B   2       2.933 -14.735  21.461  1.00 28.72 LIG-0.08  N 
ATOM     16 HZ2  LYS B   2       2.364 -14.736  20.777  1.00 28.72 LIG 0.27  HD
ATOM     17 HZ3  LYS B   2       2.532 -14.393  22.179  1.00 28.72 LIG 0.27  HD
ATOM     18 HZ1  LYS B   2       3.643 -14.240  21.256  1.00 28.72 LIG 0.27  HD
ENDBRANCH 14 15
ENDBRANCH 13 14
ENDBRANCH 12 13
ENDBRANCH 11 12
ENDBRANCH 10 11
BRANCH 10 19
ATOM     19  N   LYS B   2       0.894 -18.236  19.602  1.00 40.88 LIG-0.35  N 
ATOM     20  C   GLU B   1       1.156 -17.079  18.986  1.00 50.16 LIG 0.25  C 
ATOM     21 O    GLU B   1       2.305 -16.719  18.715  1.00 45.73 LIG-0.27  OA
ATOM     22 H    LYS B   2       0.119 -18.486  19.879  1.00 40.88 LIG 0.16  HD
BRANCH 20 23
ATOM     23  CA  GLU B   1      -0.025 -16.173  18.636  1.00 56.89 LIG 0.28  C 
BRANCH 23 24
ATOM     24  CB  GLU B   1      -1.328 -16.803  19.124  1.00 44.84 LIG 0.05  C 
BRANCH 24 25
ATOM     25  CG  GLU B   1      -1.713 -16.401  20.540  1.00 43.84 LIG 0.12  C 
BRANCH 25 26
ATOM     26  CD  GLU B   1      -1.775 -17.586  21.493  1.00 58.57 LIG 0.17  C 
ATOM     27 OE1  GLU B   1      -1.965 -17.361  22.709  1.00 59.35 LIG-0.65  OA
ATOM     28 OE2  GLU B   1      -1.628 -18.738  21.026  1.00 59.65 LIG-0.65  OA
ENDBRANCH 25 26
ENDBRANCH 24 25
ENDBRANCH 23 24
BRANCH 23 29
ATOM     29  N   GLU B   1      -0.095 -15.860  17.214  1.00 43.96 LIG-0.07  N 
ATOM     30 H1   GLU B   1      -0.745 -16.336  16.836  1.00 43.96 LIG 0.28  HD
ATOM     31 H2   GLU B   1      -0.263 -14.992  17.108  1.00 43.96 LIG 0.28  HD
ATOM     32 H3   GLU B   1       0.681 -16.060  16.827  1.00 43.96 LIG 0.28  HD
ENDBRANCH 23 29
ENDBRANCH 20 23
ENDBRANCH 10 19
ENDBRANCH 8 10
ENDBRANCH 5 6
BRANCH 5 33
ATOM     33  CB  VAL B   3       2.835 -23.968  19.675  1.00 34.43 LIG 0.01  C 
ATOM     34  CG2 VAL B   3       2.407 -25.370  20.032  1.00 33.75 LIG 0.01  C 
ATOM     35  CG1 VAL B   3       4.196 -23.654  20.314  1.00 37.65 LIG 0.01  C 
ENDBRANCH 5 33
ENDBRANCH 1 5
BRANCH 3 36
ATOM     36  CA  HIS B   4       2.403 -22.727  23.982  1.00 28.98 LIG 0.18  C 
BRANCH 36 37
ATOM     37  CB  HIS B   4       2.431 -24.232  24.310  1.00 26.24 LIG 0.10  C 
BRANCH 37 38
ATOM     38  CG  HIS B   4       1.851 -24.555  25.653  1.00 30.41 LIG 0.06  A 
ATOM     39 ND1  HIS B   4       0.503 -24.450  25.928  1.00 34.08 LIG-0.24  NA
ATOM     40  CE1 HIS B   4       0.284 -24.801  27.186  1.00 29.96 LIG 0.23  A 
ATOM     41 NE2  HIS B   4       1.438 -25.148  27.727  1.00 35.16 LIG-0.25  NA
ATOM     42  CD2 HIS B   4       2.435 -25.008  26.790  1.00 34.95 LIG 0.14  A 
ENDBRANCH 37 38
ENDBRANCH 36 37
BRANCH 36 43
ATOM     43  C   HIS B   4       3.448 -21.986  24.798  1.00 27.46 LIG 0.24  C 
ATOM     44 O    HIS B   4       3.369 -21.923  26.030  1.00 25.24 LIG-0.27  OA
ATOM     45  N   VAL B   5       4.303 -21.315  24.177  1.00 26.31 LIG-0.35  N 
ATOM     46 H    VAL B   5       4.399 -21.322  23.322  1.00 26.31 LIG 0.16  HD
BRANCH 45 47
ATOM     47  CA  VAL B   5       5.235 -20.436  24.894  1.00 25.23 LIG 0.18  C 
BRANCH 47 48
ATOM     48  CB  VAL B   5       6.304 -19.853  23.939  1.00 26.56 LIG 0.01  C 
ATOM     49  CG2 VAL B   5       6.977 -18.644  24.571  1.00 31.17 LIG 0.01  C 
ATOM     50  CG1 VAL B   5       5.709 -19.471  22.604  1.00 34.68 LIG 0.01  C 
ENDBRANCH 47 48
BRANCH 47 51
ATOM     51  C   VAL B   5       4.494 -19.327  25.627  1.00 27.03 LIG 0.24  C 
ATOM     52  N   GLN B   6       3.829 -18.458  24.874  1.00 26.89 LIG-0.34  N 
ATOM     53 H    GLN B   6       3.794 -18.474  24.015  1.00 26.89 LIG 0.16  HD
ATOM     54 O    VAL B   5       4.508 -19.261  26.865  1.00 28.01 LIG-0.27  OA
BRANCH 52 55
ATOM     55  CA  GLN B   6       3.081 -17.373  25.516  1.00 25.51 LIG 0.19  C 
BRANCH 55 56
ATOM     56  C   GLN B   6       4.006 -16.441  26.291  1.00 28.77 LIG 0.20  C 
ATOM     57 OXT  GLN B   6       4.965 -15.859  25.744  1.00 27.06 LIG-0.65  OA
ATOM     58 O    GLN B   6       3.825 -16.273  27.510  1.00 25.73 LIG-0.65  OA
ENDBRANCH 55 56
BRANCH 55 59
ATOM     59  CB  GLN B   6       2.039 -17.928  26.483  1.00 31.03 LIG 0.04  C 
BRANCH 59 60
ATOM     60  CG  GLN B   6       1.418 -19.235  26.059  1.00 39.52 LIG 0.10  C 
BRANCH 60 61
ATOM     61  CD  GLN B   6       0.487 -19.045  24.882  1.00 49.24 LIG 0.21  C 
ATOM     62  NE2 GLN B   6       0.008 -17.820  24.703  1.00 50.05 LIG-0.37  N 
ATOM     63 21HE GLN B   6       0.218 -17.193  25.251  1.00 50.05 LIG 0.16  HD
ATOM     64 22HE GLN B   6      -0.512 -17.656  24.038  1.00 50.05 LIG 0.16  HD
ATOM     65 OE1  GLN B   6       0.219 -19.986  24.125  1.00 58.78 LIG-0.27  OA
ENDBRANCH 60 61
ENDBRANCH 59 60
ENDBRANCH 55 59
ENDBRANCH 52 55
ENDBRANCH 47 51
ENDBRANCH 45 47
ENDBRANCH 36 43
ENDBRANCH 3 36
TORSDOF 27
ENDMDL
MODEL 35
USER: ADFR SOLUTION from run 138
USER: SCORE 19.600691 LL:  -4.669 LR: -15.917 RR:   0.000 FEB:  -7.863
USER: RMSD 11.808835
USER: SEED 137
USER: STATUS no improvement in best in 8 clusters for 5 generations
USER: GENES 29
USER: genes 0 Translation |==|  0.41680 0.69355 0.38026
USER: genes 1 Rotation |==|  0.45250 0.99151 0.46073 0.56798
USER: genes 2 Torsion [N]-C--CA-[N] |==|  0.84030
USER: genes 3 Torsion [C]-CA--N-[C] |==|  0.57615
USER: genes 4 Torsion [N]-C--CA-[N] |==|  0.87914
USER: genes 5 Torsion [C]-CA--CB-[CG] |==|  0.78932
USER: genes 6 Torsion [CA]-CB--CG-[CD] |==|  0.49827
USER: genes 7 Torsion [CB]-CG--CD-[CE] |==|  0.35703
USER: genes 8 Torsion [CG]-CD--CE-[NZ] |==|  0.90189
USER: genes 9 Torsion [CD]-CE--NZ-[HZ1] |==|  0.10320
USER: genes 10 Torsion [C]-CA--N-[C] |==|  0.84916
USER: genes 11 Torsion [N]-C--CA-[N] |==|  0.91314
USER: genes 12 Torsion [C]-CA--CB-[CG] |==|  0.11650
USER: genes 13 Torsion [CA]-CB--CG-[CD] |==|  0.40947
USER: genes 14 Torsion [CB]-CG--CD-[OE1] |==|  0.89290
USER: genes 15 Torsion [C]-CA--N-[H1] |==|  0.78247
USER: genes 16 Torsion [C]-CA--CB-[CG2] |==|  0.74618
USER: genes 17 Torsion [C]-N--CA-[CB] |==|  0.85552
USER: genes 18 Torsion [N]-CA--CB-[CG] |==|  0.63984
USER: genes 19 Torsion [CA]-CB--CG-[ND1] |==|  0.17712
USER: genes 20 Torsion [N]-CA--C-[N] |==|  0.92106
USER: genes 21 Torsion [C]-N--CA-[CB] |==|  0.84710
USER: genes 22 Torsion [N]-CA--CB-[CG1] |==|  0.37413
USER: genes 23 Torsion [N]-CA--C-[N] |==|  0.37252
USER: genes 24 Torsion [C]-N--CA-[C] |==|  0.70025
USER: genes 25 Torsion [N]-CA--C-[OXT] |==|  0.90369
USER: genes 26 Torsion [N]-CA--CB-[CG] |==|  0.21134
USER: genes 27 Torsion [CA]-CB--CG-[CD] |==|  0.81814
USER: genes 28 Torsion [CB]-CG--CD-[OE1] |==|  0.77791
ROOT
ATOM      1  C   VAL B   3       2.909 -18.110  17.789  1.00 28.64 LIG 0.24  C 
ATOM      2 O    VAL B   3       3.955 -18.757  17.931  1.00 27.24 LIG-0.27  OA
ATOM      3  N   HIS B   4       2.854 -16.786  17.145  1.00 29.63 LIG-0.35  N 
ATOM      4 H    HIS B   4       2.168 -16.269  17.103  1.00 29.63 LIG 0.16  HD
ENDROOT
BRANCH 1 5
ATOM      5  CA  VAL B   3       1.574 -18.655  18.325  1.00 30.81 LIG 0.18  C 
BRANCH 5 6
ATOM      6  N   VAL B   3       1.014 -17.711  19.283  1.00 30.70 LIG-0.35  N 
ATOM      7 H    VAL B   3       1.246 -16.893  19.156  1.00 30.70 LIG 0.16  HD
ATOM      8  C   LYS B   2       0.212 -18.117  20.262  1.00 38.89 LIG 0.24  C 
ATOM      9 O    LYS B   2      -0.164 -19.289  20.382  1.00 35.72 LIG-0.27  OA
BRANCH 8 10
ATOM     10  CA  LYS B   2      -0.248 -17.039  21.235  1.00 39.86 LIG 0.18  C 
BRANCH 10 11
ATOM     11  CB  LYS B   2      -1.440 -16.257  20.651  1.00 33.57 LIG 0.04  C 
BRANCH 11 12
ATOM     12  CG  LYS B   2      -1.015 -15.255  19.558  1.00 34.54 LIG 0.00  C 
BRANCH 12 13
ATOM     13  CD  LYS B   2      -2.181 -14.482  18.956  1.00 30.34 LIG 0.03  C 
BRANCH 13 14
ATOM     14  CE  LYS B   2      -1.971 -12.980  18.953  1.00 26.25 LIG 0.23  C 
BRANCH 14 15
ATOM     15  NZ  LYS B   2      -1.218 -12.550  20.178  1.00 28.72 LIG-0.08  N 
ATOM     16 HZ2  LYS B   2      -0.819 -11.770  20.023  1.00 28.72 LIG 0.27  HD
ATOM     17 HZ3  LYS B   2      -1.784 -12.463  20.859  1.00 28.72 LIG 0.27  HD
ATOM     18 HZ1  LYS B   2      -0.604 -13.162  20.380  1.00 28.72 LIG 0.27  HD
ENDBRANCH 14 15
ENDBRANCH 13 14
ENDBRANCH 12 13
ENDBRANCH 11 12
ENDBRANCH 10 11
BRANCH 10 19
ATOM     19  N   LYS B   2       0.893 -16.185  21.582  1.00 40.88 LIG-0.35  N 
ATOM     20  C   GLU B   1       2.006 -16.749  22.060  1.00 50.16 LIG 0.25  C 
ATOM     21 O    GLU B   1       2.075 -17.951  22.334  1.00 45.73 LIG-0.27  OA
ATOM     22 H    LYS B   2       0.779 -15.342  21.454  1.00 40.88 LIG 0.16  HD
BRANCH 20 23
ATOM     23  CA  GLU B   1       3.221 -15.848  22.292  1.00 56.89 LIG 0.28  C 
BRANCH 23 24
ATOM     24  CB  GLU B   1       3.231 -15.351  23.736  1.00 44.84 LIG 0.05  C 
BRANCH 24 25
ATOM     25  CG  GLU B   1       2.867 -16.418  24.756  1.00 43.84 LIG 0.12  C 
BRANCH 25 26
ATOM     26  CD  GLU B   1       3.588 -16.236  26.083  1.00 58.57 LIG 0.17  C 
ATOM     27 OE1  GLU B   1       4.782 -15.859  26.064  1.00 59.35 LIG-0.65  OA
ATOM     28 OE2  GLU B   1       2.964 -16.475  27.142  1.00 59.65 LIG-0.65  OA
ENDBRANCH 25 26
ENDBRANCH 24 25
ENDBRANCH 23 24
BRANCH 23 29
ATOM     29  N   GLU B   1       3.285 -14.734  21.353  1.00 43.96 LIG-0.07  N 
ATOM     30 H1   GLU B   1       3.596 -15.023  20.571  1.00 43.96 LIG 0.28  HD
ATOM     31 H2   GLU B   1       2.470 -14.393  21.241  1.00 43.96 LIG 0.28  HD
ATOM     32 H3   GLU B   1       3.827 -14.106  21.674  1.00 43.96 LIG 0.28  HD
ENDBRANCH 23 29
ENDBRANCH 20 23
ENDBRANCH 10 19
ENDBRANCH 8 10
ENDBRANCH 5 6
BRANCH 5 33
ATOM     33  CB  VAL B   3       0.597 -18.916  17.170  1.00 34.43 LIG 0.01  C 
ATOM     34  CG2 VAL B   3      -0.249 -17.692  16.919  1.00 33.75 LIG 0.01  C 
ATOM     35  CG1 VAL B   3      -0.300 -20.119  17.497  1.00 37.65 LIG 0.01  C 
ENDBRANCH 5 33
ENDBRANCH 1 5
BRANCH 3 36
ATOM     36  CA  HIS B   4       4.080 -16.296  16.515  1.00 28.98 LIG 0.18  C 
BRANCH 36 37
ATOM     37  CB  HIS B   4       5.273 -16.363  17.487  1.00 26.24 LIG 0.10  C 
BRANCH 37 38
ATOM     38  CG  HIS B   4       6.037 -15.078  17.575  1.00 30.41 LIG 0.06  A 
ATOM     39 ND1  HIS B   4       5.482 -13.911  18.058  1.00 34.08 LIG-0.24  NA
ATOM     40  CE1 HIS B   4       6.387 -12.946  18.021  1.00 29.96 LIG 0.23  A 
ATOM     41 NE2  HIS B   4       7.513 -13.452  17.550  1.00 35.16 LIG-0.25  NA
ATOM     42  CD2 HIS B   4       7.324 -14.784  17.266  1.00 34.95 LIG 0.14  A 
ENDBRANCH 37 38
ENDBRANCH 36 37
BRANCH 36 43
ATOM     43  C   HIS B   4       4.406 -17.026  15.223  1.00 27.46 LIG 0.24  C 
ATOM     44 O    HIS B   4       4.903 -16.430  14.262  1.00 25.24 LIG-0.27  OA
ATOM     45  N   VAL B   5       4.013 -18.209  15.109  1.00 26.31 LIG-0.35  N 
ATOM     46 H    VAL B   5       3.660 -18.667  15.745  1.00 26.31 LIG 0.16  HD
BRANCH 45 47
ATOM     47  CA  VAL B   5       4.136 -18.922  13.831  1.00 25.23 LIG 0.18  C 
BRANCH 47 48
ATOM     48  CB  VAL B   5       3.454 -18.138  12.684  1.00 26.56 LIG 0.01  C 
ATOM     49  CG2 VAL B   5       2.107 -18.760  12.345  1.00 31.17 LIG 0.01  C 
ATOM     50  CG1 VAL B   5       4.323 -18.088  11.450  1.00 34.68 LIG 0.01  C 
ENDBRANCH 47 48
BRANCH 47 51
ATOM     51  C   VAL B   5       5.592 -19.217  13.501  1.00 27.03 LIG 0.24  C 
ATOM     52  N   GLN B   6       5.869 -20.445  13.080  1.00 26.89 LIG-0.34  N 
ATOM     53 H    GLN B   6       5.293 -21.078  12.989  1.00 26.89 LIG 0.16  HD
ATOM     54 O    VAL B   5       6.460 -18.339  13.610  1.00 28.01 LIG-0.27  OA
BRANCH 52 55
ATOM     55  CA  GLN B   6       7.249 -20.794  12.731  1.00 25.51 LIG 0.19  C 
BRANCH 55 56
ATOM     56  C   GLN B   6       7.421 -20.946  11.224  1.00 28.77 LIG 0.20  C 
ATOM     57 OXT  GLN B   6       6.517 -21.408  10.500  1.00 27.06 LIG-0.65  OA
ATOM     58 O    GLN B   6       8.502 -20.628  10.697  1.00 25.73 LIG-0.65  OA
ENDBRANCH 55 56
BRANCH 55 59
ATOM     59  CB  GLN B   6       7.664 -22.104  13.396  1.00 31.03 LIG 0.04  C 
BRANCH 59 60
ATOM     60  CG  GLN B   6       7.099 -23.345  12.753  1.00 39.52 LIG 0.10  C 
BRANCH 60 61
ATOM     61  CD  GLN B   6       5.594 -23.400  12.891  1.00 49.24 LIG 0.21  C 
ATOM     62  NE2 GLN B   6       4.892 -23.050  11.821  1.00 50.05 LIG-0.37  N 
ATOM     63 21HE GLN B   6       5.296 -22.793  11.107  1.00 50.05 LIG 0.16  HD
ATOM     64 22HE GLN B   6       4.033 -23.080  11.843  1.00 50.05 LIG 0.16  HD
ATOM     65 OE1  GLN B   6       5.066 -23.777  13.945  1.00 58.78 LIG-0.27  OA
ENDBRANCH 60 61
ENDBRANCH 59 60
ENDBRANCH 55 59
ENDBRANCH 52 55
ENDBRANCH 47 51
ENDBRANCH 45 47
ENDBRANCH 36 43
ENDBRANCH 3 36
TORSDOF 27
ENDMDL
MODEL 36
USER: ADFR SOLUTION from run 189
USER: SCORE 21.800584 LL:  -7.240 LR: -15.914 RR:   0.000 FEB:  -7.860
USER: RMSD 7.597351
USER: SEED 188
USER: STATUS 1 or 2 clusters left
USER: GENES 29
USER: genes 0 Translation |==|  0.31292 0.56341 0.53121
USER: genes 1 Rotation |==|  0.12654 0.36974 0.25351 0.68112
USER: genes 2 Torsion [N]-C--CA-[N] |==|  0.94834
USER: genes 3 Torsion [C]-CA--N-[C] |==|  0.82362
USER: genes 4 Torsion [N]-C--CA-[N] |==|  0.18376
USER: genes 5 Torsion [C]-CA--CB-[CG] |==|  0.13619
USER: genes 6 Torsion [CA]-CB--CG-[CD] |==|  0.62570
USER: genes 7 Torsion [CB]-CG--CD-[CE] |==|  0.90013
USER: genes 8 Torsion [CG]-CD--CE-[NZ] |==|  0.40862
USER: genes 9 Torsion [CD]-CE--NZ-[HZ1] |==|  0.31139
USER: genes 10 Torsion [C]-CA--N-[C] |==|  0.76407
USER: genes 11 Torsion [N]-C--CA-[N] |==|  0.51778
USER: genes 12 Torsion [C]-CA--CB-[CG] |==|  0.38077
USER: genes 13 Torsion [CA]-CB--CG-[CD] |==|  0.17861
USER: genes 14 Torsion [CB]-CG--CD-[OE1] |==|  0.02256
USER: genes 15 Torsion [C]-CA--N-[H1] |==|  0.73703
USER: genes 16 Torsion [C]-CA--CB-[CG2] |==|  0.90846
USER: genes 17 Torsion [C]-N--CA-[CB] |==|  0.84500
USER: genes 18 Torsion [N]-CA--CB-[CG] |==|  0.32012
USER: genes 19 Torsion [CA]-CB--CG-[ND1] |==|  0.20399
USER: genes 20 Torsion [N]-CA--C-[N] |==|  0.85362
USER: genes 21 Torsion [C]-N--CA-[CB] |==|  0.18901
USER: genes 22 Torsion [N]-CA--CB-[CG1] |==|  0.32143
USER: genes 23 Torsion [N]-CA--C-[N] |==|  0.93450
USER: genes 24 Torsion [C]-N--CA-[C] |==|  0.68063
USER: genes 25 Torsion [N]-CA--C-[OXT] |==|  0.74538
USER: genes 26 Torsion [N]-CA--CB-[CG] |==|  0.73079
USER: genes 27 Torsion [CA]-CB--CG-[CD] |==|  0.24764
USER: genes 28 Torsion [CB]-CG--CD-[OE1] |==|  0.12329
ROOT
ATOM      1  C   VAL B   3       1.040 -21.136  21.185  1.00 28.64 LIG 0.24  C 
ATOM      2 O    VAL B   3       0.220 -20.473  20.536  1.00 27.24 LIG-0.27  OA
ATOM      3  N   HIS B   4       2.301 -21.646  20.621  1.00 29.63 LIG-0.35  N 
ATOM      4 H    HIS B   4       2.854 -22.178  21.010  1.00 29.63 LIG 0.16  HD
ENDROOT
BRANCH 1 5
ATOM      5  CA  VAL B   3       0.760 -21.505  22.653  1.00 30.81 LIG 0.18  C 
BRANCH 5 6
ATOM      6  N   VAL B   3       1.590 -22.638  23.035  1.00 30.70 LIG-0.35  N 
ATOM      7 H    VAL B   3       2.160 -22.470  23.656  1.00 30.70 LIG 0.16  HD
ATOM      8  C   LYS B   2       1.450 -23.823  22.450  1.00 38.89 LIG 0.24  C 
ATOM      9 O    LYS B   2       0.575 -24.059  21.609  1.00 35.72 LIG-0.27  OA
BRANCH 8 10
ATOM     10  CA  LYS B   2       2.428 -24.904  22.894  1.00 39.86 LIG 0.18  C 
BRANCH 10 11
ATOM     11  CB  LYS B   2       2.350 -26.123  21.954  1.00 33.57 LIG 0.04  C 
BRANCH 11 12
ATOM     12  CG  LYS B   2       2.425 -25.729  20.464  1.00 34.54 LIG 0.00  C 
BRANCH 12 13
ATOM     13  CD  LYS B   2       1.393 -26.437  19.596  1.00 30.34 LIG 0.03  C 
BRANCH 13 14
ATOM     14  CE  LYS B   2       1.123 -27.865  20.025  1.00 26.25 LIG 0.23  C 
BRANCH 14 15
ATOM     15  NZ  LYS B   2      -0.308 -28.235  19.760  1.00 28.72 LIG-0.08  N 
ATOM     16 HZ2  LYS B   2      -0.672 -28.566  20.501  1.00 28.72 LIG 0.27  HD
ATOM     17 HZ3  LYS B   2      -0.760 -27.512  19.505  1.00 28.72 LIG 0.27  HD
ATOM     18 HZ1  LYS B   2      -0.341 -28.847  19.114  1.00 28.72 LIG 0.27  HD
ENDBRANCH 14 15
ENDBRANCH 13 14
ENDBRANCH 12 13
ENDBRANCH 11 12
ENDBRANCH 10 11
BRANCH 10 19
ATOM     19  N   LYS B   2       2.170 -25.238  24.299  1.00 40.88 LIG-0.35  N 
ATOM     20  C   GLU B   1       2.734 -24.497  25.258  1.00 50.16 LIG 0.25  C 
ATOM     21 O    GLU B   1       3.560 -23.613  25.012  1.00 45.73 LIG-0.27  OA
ATOM     22 H    LYS B   2       1.654 -25.913  24.432  1.00 40.88 LIG 0.16  HD
BRANCH 20 23
ATOM     23  CA  GLU B   1       2.346 -24.790  26.708  1.00 56.89 LIG 0.28  C 
BRANCH 23 24
ATOM     24  CB  GLU B   1       0.826 -24.861  26.836  1.00 44.84 LIG 0.05  C 
BRANCH 24 25
ATOM     25  CG  GLU B   1       0.334 -26.009  27.703  1.00 43.84 LIG 0.12  C 
BRANCH 25 26
ATOM     26  CD  GLU B   1       0.768 -25.879  29.155  1.00 58.57 LIG 0.17  C 
ATOM     27 OE1  GLU B   1       1.322 -24.816  29.518  1.00 59.35 LIG-0.65  OA
ATOM     28 OE2  GLU B   1       0.561 -26.840  29.931  1.00 59.65 LIG-0.65  OA
ENDBRANCH 25 26
ENDBRANCH 24 25
ENDBRANCH 23 24
BRANCH 23 29
ATOM     29  N   GLU B   1       2.907 -23.827  27.648  1.00 43.96 LIG-0.07  N 
ATOM     30 H1   GLU B   1       3.671 -24.143  27.976  1.00 43.96 LIG 0.28  HD
ATOM     31 H2   GLU B   1       3.060 -23.057  27.229  1.00 43.96 LIG 0.28  HD
ATOM     32 H3   GLU B   1       2.333 -23.692  28.314  1.00 43.96 LIG 0.28  HD
ENDBRANCH 23 29
ENDBRANCH 20 23
ENDBRANCH 10 19
ENDBRANCH 8 10
ENDBRANCH 5 6
BRANCH 5 33
ATOM     33  CB  VAL B   3       1.014 -20.299  23.568  1.00 34.43 LIG 0.01  C 
ATOM     34  CG2 VAL B   3       2.138 -19.457  23.017  1.00 33.75 LIG 0.01  C 
ATOM     35  CG1 VAL B   3       1.357 -20.775  24.987  1.00 37.65 LIG 0.01  C 
ENDBRANCH 5 33
ENDBRANCH 1 5
BRANCH 3 36
ATOM     36  CA  HIS B   4       2.656 -21.209  19.271  1.00 28.98 LIG 0.18  C 
BRANCH 36 37
ATOM     37  CB  HIS B   4       1.536 -21.537  18.266  1.00 26.24 LIG 0.10  C 
BRANCH 37 38
ATOM     38  CG  HIS B   4       0.902 -20.318  17.668  1.00 30.41 LIG 0.06  A 
ATOM     39 ND1  HIS B   4       1.534 -19.536  16.724  1.00 34.08 LIG-0.24  NA
ATOM     40  CE1 HIS B   4       0.737 -18.536  16.380  1.00 29.96 LIG 0.23  A 
ATOM     41 NE2  HIS B   4      -0.393 -18.655  17.052  1.00 35.16 LIG-0.25  NA
ATOM     42  CD2 HIS B   4      -0.319 -19.763  17.864  1.00 34.95 LIG 0.14  A 
ENDBRANCH 37 38
ENDBRANCH 36 37
BRANCH 36 43
ATOM     43  C   HIS B   4       3.012 -19.734  19.207  1.00 27.46 LIG 0.24  C 
ATOM     44 O    HIS B   4       4.132 -19.363  18.838  1.00 25.24 LIG-0.27  OA
ATOM     45  N   VAL B   5       2.193 -18.917  19.685  1.00 26.31 LIG-0.35  N 
ATOM     46 H    VAL B   5       1.403 -19.124  19.957  1.00 26.31 LIG 0.16  HD
BRANCH 45 47
ATOM     47  CA  VAL B   5       2.538 -17.496  19.818  1.00 25.23 LIG 0.18  C 
BRANCH 47 48
ATOM     48  CB  VAL B   5       2.674 -16.819  18.433  1.00 26.56 LIG 0.01  C 
ATOM     49  CG2 VAL B   5       4.064 -16.221  18.270  1.00 31.17 LIG 0.01  C 
ATOM     50  CG1 VAL B   5       1.626 -15.750  18.231  1.00 34.68 LIG 0.01  C 
ENDBRANCH 47 48
BRANCH 47 51
ATOM     51  C   VAL B   5       1.529 -16.762  20.688  1.00 27.03 LIG 0.24  C 
ATOM     52  N   GLN B   6       0.319 -17.301  20.779  1.00 26.89 LIG-0.34  N 
ATOM     53 H    GLN B   6       0.068 -18.021  20.381  1.00 26.89 LIG 0.16  HD
ATOM     54 O    VAL B   5       1.840 -15.722  21.288  1.00 28.01 LIG-0.27  OA
BRANCH 52 55
ATOM     55  CA  GLN B   6      -0.699 -16.654  21.612  1.00 25.51 LIG 0.19  C 
BRANCH 55 56
ATOM     56  C   GLN B   6      -1.092 -17.531  22.795  1.00 28.77 LIG 0.20  C 
ATOM     57 OXT  GLN B   6      -2.043 -18.336  22.733  1.00 27.06 LIG-0.65  OA
ATOM     58 O    GLN B   6      -0.469 -17.429  23.867  1.00 25.73 LIG-0.65  OA
ENDBRANCH 55 56
BRANCH 55 59
ATOM     59  CB  GLN B   6      -1.955 -16.352  20.800  1.00 31.03 LIG 0.04  C 
BRANCH 59 60
ATOM     60  CG  GLN B   6      -2.040 -14.944  20.267  1.00 39.52 LIG 0.10  C 
BRANCH 60 61
ATOM     61  CD  GLN B   6      -1.389 -14.830  18.907  1.00 49.24 LIG 0.21  C 
ATOM     62  NE2 GLN B   6      -0.582 -13.793  18.725  1.00 50.05 LIG-0.37  N 
ATOM     63 21HE GLN B   6      -0.468 -13.222  19.358  1.00 50.05 LIG 0.16  HD
ATOM     64 22HE GLN B   6      -0.174 -13.692  17.975  1.00 50.05 LIG 0.16  HD
ATOM     65 OE1  GLN B   6      -1.591 -15.682  18.033  1.00 58.78 LIG-0.27  OA
ENDBRANCH 60 61
ENDBRANCH 59 60
ENDBRANCH 55 59
ENDBRANCH 52 55
ENDBRANCH 47 51
ENDBRANCH 45 47
ENDBRANCH 36 43
ENDBRANCH 3 36
TORSDOF 27
ENDMDL
MODEL 37
USER: ADFR SOLUTION from run 154
USER: SCORE 19.865525 LL:  -5.612 LR: -15.904 RR:   0.000 FEB:  -7.850
USER: RMSD 7.394296
USER: SEED 153
USER: STATUS no improvement in best in 1 clusters for 5 generations
USER: GENES 29
USER: genes 0 Translation |==|  0.50856 0.50169 0.44722
USER: genes 1 Rotation |==|  0.23139 0.54604 0.88335 0.66961
USER: genes 2 Torsion [N]-C--CA-[N] |==|  0.31075
USER: genes 3 Torsion [C]-CA--N-[C] |==|  0.75795
USER: genes 4 Torsion [N]-C--CA-[N] |==|  0.32538
USER: genes 5 Torsion [C]-CA--CB-[CG] |==|  0.37839
USER: genes 6 Torsion [CA]-CB--CG-[CD] |==|  0.31676
USER: genes 7 Torsion [CB]-CG--CD-[CE] |==|  0.21656
USER: genes 8 Torsion [CG]-CD--CE-[NZ] |==|  0.44972
USER: genes 9 Torsion [CD]-CE--NZ-[HZ1] |==|  0.04283
USER: genes 10 Torsion [C]-CA--N-[C] |==|  0.20180
USER: genes 11 Torsion [N]-C--CA-[N] |==|  0.81642
USER: genes 12 Torsion [C]-CA--CB-[CG] |==|  0.82790
USER: genes 13 Torsion [CA]-CB--CG-[CD] |==|  0.81334
USER: genes 14 Torsion [CB]-CG--CD-[OE1] |==|  0.93679
USER: genes 15 Torsion [C]-CA--N-[H1] |==|  0.43849
USER: genes 16 Torsion [C]-CA--CB-[CG2] |==|  0.11233
USER: genes 17 Torsion [C]-N--CA-[CB] |==|  0.86083
USER: genes 18 Torsion [N]-CA--CB-[CG] |==|  0.83554
USER: genes 19 Torsion [CA]-CB--CG-[ND1] |==|  0.36383
USER: genes 20 Torsion [N]-CA--C-[N] |==|  0.87552
USER: genes 21 Torsion [C]-N--CA-[CB] |==|  0.82962
USER: genes 22 Torsion [N]-CA--CB-[CG1] |==|  0.57052
USER: genes 23 Torsion [N]-CA--C-[N] |==|  0.32257
USER: genes 24 Torsion [C]-N--CA-[C] |==|  0.75713
USER: genes 25 Torsion [N]-CA--C-[OXT] |==|  0.61872
USER: genes 26 Torsion [N]-CA--CB-[CG] |==|  0.13158
USER: genes 27 Torsion [CA]-CB--CG-[CD] |==|  0.53556
USER: genes 28 Torsion [CB]-CG--CD-[OE1] |==|  0.72854
ROOT
ATOM      1  C   VAL B   3       4.561 -22.571  19.295  1.00 28.64 LIG 0.24  C 
ATOM      2 O    VAL B   3       5.059 -22.200  20.366  1.00 27.24 LIG-0.27  OA
ATOM      3  N   HIS B   4       3.376 -23.442  19.208  1.00 29.63 LIG-0.35  N 
ATOM      4 H    HIS B   4       3.052 -23.789  18.490  1.00 29.63 LIG 0.16  HD
ENDROOT
BRANCH 1 5
ATOM      5  CA  VAL B   3       5.194 -22.157  17.955  1.00 30.81 LIG 0.18  C 
BRANCH 5 6
ATOM      6  N   VAL B   3       4.997 -20.730  17.744  1.00 30.70 LIG-0.35  N 
ATOM      7 H    VAL B   3       5.642 -20.235  18.023  1.00 30.70 LIG 0.16  HD
ATOM      8  C   LYS B   2       3.895 -20.265  17.165  1.00 38.89 LIG 0.24  C 
ATOM      9 O    LYS B   2       3.012 -21.002  16.709  1.00 35.72 LIG-0.27  OA
BRANCH 8 10
ATOM     10  CA  LYS B   2       3.783 -18.749  17.068  1.00 39.86 LIG 0.18  C 
BRANCH 10 11
ATOM     11  CB  LYS B   2       2.565 -18.245  17.867  1.00 33.57 LIG 0.04  C 
BRANCH 11 12
ATOM     12  CG  LYS B   2       2.883 -16.991  18.707  1.00 34.54 LIG 0.00  C 
BRANCH 12 13
ATOM     13  CD  LYS B   2       2.137 -15.746  18.247  1.00 30.34 LIG 0.03  C 
BRANCH 13 14
ATOM     14  CE  LYS B   2       0.689 -15.711  18.696  1.00 26.25 LIG 0.23  C 
BRANCH 14 15
ATOM     15  NZ  LYS B   2       0.143 -14.316  18.607  1.00 28.72 LIG-0.08  N 
ATOM     16 HZ2  LYS B   2      -0.668 -14.336  18.239  1.00 28.72 LIG 0.27  HD
ATOM     17 HZ3  LYS B   2       0.088 -13.965  19.424  1.00 28.72 LIG 0.27  HD
ATOM     18 HZ1  LYS B   2       0.682 -13.816  18.107  1.00 28.72 LIG 0.27  HD
ENDBRANCH 14 15
ENDBRANCH 13 14
ENDBRANCH 12 13
ENDBRANCH 11 12
ENDBRANCH 10 11
BRANCH 10 19
ATOM     19  N   LYS B   2       3.752 -18.359  15.654  1.00 40.88 LIG-0.35  N 
ATOM     20  C   GLU B   1       2.651 -18.602  14.936  1.00 50.16 LIG 0.25  C 
ATOM     21 O    GLU B   1       1.699 -19.249  15.382  1.00 45.73 LIG-0.27  OA
ATOM     22 H    LYS B   2       4.466 -17.983  15.356  1.00 40.88 LIG 0.16  HD
BRANCH 20 23
ATOM     23  CA  GLU B   1       2.601 -18.070  13.503  1.00 56.89 LIG 0.28  C 
BRANCH 23 24
ATOM     24  CB  GLU B   1       3.766 -18.641  12.696  1.00 44.84 LIG 0.05  C 
BRANCH 24 25
ATOM     25  CG  GLU B   1       5.135 -18.246  13.227  1.00 43.84 LIG 0.12  C 
BRANCH 25 26
ATOM     26  CD  GLU B   1       5.420 -16.760  13.075  1.00 58.57 LIG 0.17  C 
ATOM     27 OE1  GLU B   1       4.789 -16.119  12.205  1.00 59.35 LIG-0.65  OA
ATOM     28 OE2  GLU B   1       6.276 -16.235  13.823  1.00 59.65 LIG-0.65  OA
ENDBRANCH 25 26
ENDBRANCH 24 25
ENDBRANCH 23 24
BRANCH 23 29
ATOM     29  N   GLU B   1       2.584 -16.614  13.441  1.00 43.96 LIG-0.07  N 
ATOM     30 H1   GLU B   1       2.873 -16.347  12.643  1.00 43.96 LIG 0.28  HD
ATOM     31 H2   GLU B   1       1.754 -16.321  13.569  1.00 43.96 LIG 0.28  HD
ATOM     32 H3   GLU B   1       3.116 -16.283  14.073  1.00 43.96 LIG 0.28  HD
ENDBRANCH 23 29
ENDBRANCH 20 23
ENDBRANCH 10 19
ENDBRANCH 8 10
ENDBRANCH 5 6
BRANCH 5 33
ATOM     33  CB  VAL B   3       6.686 -22.519  17.932  1.00 34.43 LIG 0.01  C 
ATOM     34  CG2 VAL B   3       6.904 -23.869  18.569  1.00 33.75 LIG 0.01  C 
ATOM     35  CG1 VAL B   3       7.501 -21.448  18.673  1.00 37.65 LIG 0.01  C 
ENDBRANCH 5 33
ENDBRANCH 1 5
BRANCH 3 36
ATOM     36  CA  HIS B   4       2.678 -23.750  20.455  1.00 28.98 LIG 0.18  C 
BRANCH 36 37
ATOM     37  CB  HIS B   4       3.658 -24.241  21.537  1.00 26.24 LIG 0.10  C 
BRANCH 37 38
ATOM     38  CG  HIS B   4       4.414 -25.471  21.138  1.00 30.41 LIG 0.06  A 
ATOM     39 ND1  HIS B   4       5.783 -25.579  21.263  1.00 34.08 LIG-0.24  NA
ATOM     40  CE1 HIS B   4       6.169 -26.771  20.836  1.00 29.96 LIG 0.23  A 
ATOM     41 NE2  HIS B   4       5.098 -27.444  20.459  1.00 35.16 LIG-0.25  NA
ATOM     42  CD2 HIS B   4       3.985 -26.657  20.640  1.00 34.95 LIG 0.14  A 
ENDBRANCH 37 38
ENDBRANCH 36 37
BRANCH 36 43
ATOM     43  C   HIS B   4       1.858 -22.580  20.972  1.00 27.46 LIG 0.24  C 
ATOM     44 O    HIS B   4       0.661 -22.712  21.248  1.00 25.24 LIG-0.27  OA
ATOM     45  N   VAL B   5       2.392 -21.447  20.962  1.00 26.31 LIG-0.35  N 
ATOM     46 H    VAL B   5       3.219 -21.302  20.776  1.00 26.31 LIG 0.16  HD
BRANCH 45 47
ATOM     47  CA  VAL B   5       1.611 -20.245  21.281  1.00 25.23 LIG 0.18  C 
BRANCH 47 48
ATOM     48  CB  VAL B   5       0.451 -20.047  20.275  1.00 26.56 LIG 0.01  C 
ATOM     49  CG2 VAL B   5       0.846 -20.569  18.901  1.00 31.17 LIG 0.01  C 
ATOM     50  CG1 VAL B   5       0.041 -18.597  20.177  1.00 34.68 LIG 0.01  C 
ENDBRANCH 47 48
BRANCH 47 51
ATOM     51  C   VAL B   5       1.092 -20.287  22.711  1.00 27.03 LIG 0.24  C 
ATOM     52  N   GLN B   6       1.547 -19.351  23.535  1.00 26.89 LIG-0.34  N 
ATOM     53 H    GLN B   6       2.111 -18.737  23.323  1.00 26.89 LIG 0.16  HD
ATOM     54 O    VAL B   5       0.275 -21.148  23.068  1.00 28.01 LIG-0.27  OA
BRANCH 52 55
ATOM     55  CA  GLN B   6       1.079 -19.323  24.924  1.00 25.51 LIG 0.19  C 
BRANCH 55 56
ATOM     56  C   GLN B   6      -0.204 -18.512  25.063  1.00 28.77 LIG 0.20  C 
ATOM     57 OXT  GLN B   6      -0.382 -17.714  26.006  1.00 27.06 LIG-0.65  OA
ATOM     58 O    GLN B   6      -1.118 -18.663  24.232  1.00 25.73 LIG-0.65  OA
ENDBRANCH 55 56
BRANCH 55 59
ATOM     59  CB  GLN B   6       2.135 -18.713  25.842  1.00 31.03 LIG 0.04  C 
BRANCH 59 60
ATOM     60  CG  GLN B   6       2.738 -17.425  25.342  1.00 39.52 LIG 0.10  C 
BRANCH 60 61
ATOM     61  CD  GLN B   6       3.973 -17.054  26.132  1.00 49.24 LIG 0.21  C 
ATOM     62  NE2 GLN B   6       5.108 -17.627  25.753  1.00 50.05 LIG-0.37  N 
ATOM     63 21HE GLN B   6       5.109 -18.188  25.101  1.00 50.05 LIG 0.16  HD
ATOM     64 22HE GLN B   6       5.842 -17.437  26.158  1.00 50.05 LIG 0.16  HD
ATOM     65 OE1  GLN B   6       3.913 -16.239  27.061  1.00 58.78 LIG-0.27  OA
ENDBRANCH 60 61
ENDBRANCH 59 60
ENDBRANCH 55 59
ENDBRANCH 52 55
ENDBRANCH 47 51
ENDBRANCH 45 47
ENDBRANCH 36 43
ENDBRANCH 3 36
TORSDOF 27
ENDMDL
