MODEL 1
USER: ADFR SOLUTION from run 177
USER: SCORE 20.789076 LL:  -2.826 LR: -19.031 RR:   0.000 FEB: -13.065
USER: RMSD 6.624209
USER: SEED 176
USER: STATUS 1 or 2 clusters left
USER: GENES 22
USER: genes 0 Translation |==|  0.49998 0.61489 0.64534
USER: genes 1 Rotation |==|  0.75295 0.52513 0.08716 0.62226
USER: genes 2 Torsion [C]-CA--N-[C] |==|  0.82778
USER: genes 3 Torsion [N]-C--CA-[N] |==|  0.99518
USER: genes 4 Torsion [N]-C--CA-[N] |==|  0.35369
USER: genes 5 Torsion [C]-CA--N-[H2] |==|  0.84641
USER: genes 6 Torsion [C]-CA--CB-[CG] |==|  0.19155
USER: genes 7 Torsion [CA]-CB--CG-[CD] |==|  0.44045
USER: genes 8 Torsion [CB]-CG--CD-[CE] |==|  0.18753
USER: genes 9 Torsion [CG]-CD--CE-[NZ] |==|  0.69968
USER: genes 10 Torsion [CD]-CE--NZ-[HZ1] |==|  0.21656
USER: genes 11 Torsion [N]-CA--CB-[CG] |==|  0.48584
USER: genes 12 Torsion [CA]-CB--CG-[CD2] |==|  0.61642
USER: genes 13 Torsion [N]-CA--C-[N] |==|  0.41084
USER: genes 14 Torsion [C]-N--CA-[C] |==|  0.19299
USER: genes 15 Torsion [N]-CA--CB-[OG] |==|  0.87261
USER: genes 16 Torsion [CA]-CB--OG-[HG] |==|  0.70588
USER: genes 17 Torsion [N]-CA--C-[N] |==|  0.76912
USER: genes 18 Torsion [C]-N--CA-[CB] |==|  0.47964
USER: genes 19 Torsion [N]-CA--CB-[CG] |==|  0.77227
USER: genes 20 Torsion [CA]-CB--CG-[OD2] |==|  0.28913
USER: genes 21 Torsion [N]-CA--C-[O] |==|  0.03428
ROOT
ATOM      1  CA  HIS C   3    -133.920  50.900  66.382  1.00 14.15 LIG 0.18  C 
ENDROOT
BRANCH 1 2
ATOM      2  N   HIS C   3    -134.025  52.228  66.947  1.00 14.43 LIG-0.35  N 
ATOM      3  C   PRO C   2    -133.107  53.160  66.722  1.00 20.79 LIG 0.24  C 
ATOM      4 O    PRO C   2    -132.086  52.954  66.078  1.00 15.59 LIG-0.27  OA
ATOM      5 H    HIS C   3    -134.724  52.352  67.432  1.00 14.43 LIG 0.16  HD
BRANCH 3 6
ATOM      6  CA  PRO C   2    -133.377  54.542  67.310  1.00 18.69 LIG 0.18  C 
ATOM      7  N   PRO C   2    -134.666  54.583  68.002  1.00 22.33 LIG-0.34  N 
ATOM      8  C   LYS C   1    -135.794  54.366  67.338  1.00 22.74 LIG 0.25  C 
ATOM      9  CD  PRO C   2    -134.533  55.058  69.389  1.00 22.53 LIG 0.13  C 
ATOM     10 O    LYS C   1    -135.822  54.160  66.127  1.00 19.84 LIG-0.27  OA
ATOM     11  CG  PRO C   2    -133.143  55.621  69.425  1.00 25.33 LIG 0.02  C 
ATOM     12  CB  PRO C   2    -132.372  54.836  68.424  1.00 21.74 LIG 0.04  C 
BRANCH 8 13
ATOM     13  CA  LYS C   1    -137.085  54.330  68.151  1.00 25.81 LIG 0.28  C 
BRANCH 13 14
ATOM     14  N   LYS C   1    -138.066  55.248  67.580  1.00 28.38 LIG-0.07  N 
ATOM     15 H3   LYS C   1    -138.295  54.970  66.766  1.00 28.38 LIG 0.28  HD
ATOM     16 H2   LYS C   1    -137.714  56.064  67.526  1.00 28.38 LIG 0.28  HD
ATOM     17 H1   LYS C   1    -138.788  55.271  68.100  1.00 28.38 LIG 0.28  HD
ENDBRANCH 13 14
BRANCH 13 18
ATOM     18  CB  LYS C   1    -137.650  52.910  68.175  1.00 28.10 LIG 0.04  C 
BRANCH 18 19
ATOM     19  CG  LYS C   1    -136.823  51.921  68.973  1.00 29.36 LIG 0.00  C 
BRANCH 19 20
ATOM     20  CD  LYS C   1    -137.674  50.727  69.388  1.00 23.94 LIG 0.03  C 
BRANCH 20 21
ATOM     21  CE  LYS C   1    -138.091  49.885  68.196  1.00 22.49 LIG 0.23  C 
BRANCH 21 22
ATOM     22  NZ  LYS C   1    -139.536  50.074  67.936  1.00 23.53 LIG-0.08  N 
ATOM     23 HZ1  LYS C   1    -139.664  50.849  67.516  1.00 23.53 LIG 0.27  HD
ATOM     24 HZ2  LYS C   1    -139.836  49.408  67.427  1.00 23.53 LIG 0.27  HD
ATOM     25 HZ3  LYS C   1    -139.979  50.079  68.708  1.00 23.53 LIG 0.27  HD
ENDBRANCH 21 22
ENDBRANCH 20 21
ENDBRANCH 19 20
ENDBRANCH 18 19
ENDBRANCH 13 18
ENDBRANCH 8 13
ENDBRANCH 3 6
ENDBRANCH 1 2
BRANCH 1 26
ATOM     26  CB  HIS C   3    -135.028  50.008  66.925  1.00 14.42 LIG 0.10  C 
BRANCH 26 27
ATOM     27  CG  HIS C   3    -135.063  48.643  66.294  1.00 17.65 LIG 0.06  A 
ATOM     28 ND1  HIS C   3    -133.949  47.948  66.021  1.00 19.76 LIG-0.24  NA
ATOM     29  CE1 HIS C   3    -134.283  46.778  65.450  1.00 20.53 LIG 0.23  A 
ATOM     30 NE2  HIS C   3    -135.616  46.727  65.354  1.00 17.64 LIG-0.25  NA
ATOM     31  CD2 HIS C   3    -136.129  47.862  65.863  1.00 21.96 LIG 0.14  A 
ENDBRANCH 26 27
ENDBRANCH 1 26
BRANCH 1 32
ATOM     32  C   HIS C   3    -133.936  50.890  64.886  1.00 15.49 LIG 0.24  C 
ATOM     33  N   SER C   4    -133.229  49.934  64.293  1.00 15.13 LIG-0.34  N 
ATOM     34 H    SER C   4    -132.758  49.349  64.711  1.00 15.13 LIG 0.16  HD
ATOM     35 O    HIS C   3    -134.597  51.735  64.254  1.00 14.84 LIG-0.27  OA
BRANCH 33 36
ATOM     36  CA  SER C   4    -133.205  49.811  62.842  1.00 18.69 LIG 0.20  C 
BRANCH 36 37
ATOM     37  CB  SER C   4    -134.621  49.705  62.271  1.00 23.38 LIG 0.20  C 
BRANCH 37 38
ATOM     38 OG   SER C   4    -135.401  48.788  63.008  1.00 30.32 LIG-0.40  OA
ATOM     39 HG   SER C   4    -135.497  48.081  62.564  1.00 30.32 LIG 0.21  HD
ENDBRANCH 37 38
ENDBRANCH 36 37
BRANCH 36 40
ATOM     40  C   SER C   4    -132.446  50.969  62.196  1.00 18.90 LIG 0.24  C 
ATOM     41  N   ASP C   5    -133.126  52.094  62.003  1.00 17.72 LIG-0.34  N 
ATOM     42 H    ASP C   5    -133.962  52.191  62.180  1.00 17.72 LIG 0.16  HD
ATOM     43 O    SER C   4    -131.269  50.842  61.891  1.00 16.42 LIG-0.27  OA
BRANCH 41 44
ATOM     44  CA  ASP C   5    -132.477  53.284  61.461  1.00 16.40 LIG 0.20  C 
BRANCH 44 45
ATOM     45  CB  ASP C   5    -133.503  54.386  61.164  1.00 18.53 LIG 0.15  C 
BRANCH 45 46
ATOM     46  CG  ASP C   5    -134.205  54.199  59.829  1.00 25.22 LIG 0.17  C 
ATOM     47 OD2  ASP C   5    -135.379  53.772  59.845  1.00 28.97 LIG-0.65  OA
ATOM     48 OD1  ASP C   5    -133.602  54.489  58.775  1.00 27.70 LIG-0.65  OA
ENDBRANCH 45 46
ENDBRANCH 44 45
BRANCH 44 49
ATOM     49  C   ASP C   5    -131.426  53.824  62.416  1.00 17.83 LIG 0.20  C 
ATOM     50 O    ASP C   5    -131.047  53.150  63.385  1.00 18.34 LIG-0.65  OA
ATOM     51 OXT  ASP C   5    -130.914  54.941  62.241  1.00 17.06 LIG-0.65  OA
ENDBRANCH 44 49
ENDBRANCH 41 44
ENDBRANCH 36 40
ENDBRANCH 33 36
ENDBRANCH 1 32
TORSDOF 20
ENDMDL
MODEL 2
USER: ADFR SOLUTION from run 188
USER: SCORE 20.435717 LL:  -2.778 LR: -18.665 RR:   0.000 FEB: -12.699
USER: RMSD 7.235785
USER: SEED 187
USER: STATUS no improvement in best in 1 clusters for 5 generations
USER: GENES 22
USER: genes 0 Translation |==|  0.50482 0.64055 0.61661
USER: genes 1 Rotation |==|  0.65711 0.62223 0.06676 0.65059
USER: genes 2 Torsion [C]-CA--N-[C] |==|  0.73592
USER: genes 3 Torsion [N]-C--CA-[N] |==|  0.99612
USER: genes 4 Torsion [N]-C--CA-[N] |==|  0.38567
USER: genes 5 Torsion [C]-CA--N-[H2] |==|  0.87027
USER: genes 6 Torsion [C]-CA--CB-[CG] |==|  0.21683
USER: genes 7 Torsion [CA]-CB--CG-[CD] |==|  0.55833
USER: genes 8 Torsion [CB]-CG--CD-[CE] |==|  0.78793
USER: genes 9 Torsion [CG]-CD--CE-[NZ] |==|  0.21363
USER: genes 10 Torsion [CD]-CE--NZ-[HZ1] |==|  0.52324
USER: genes 11 Torsion [N]-CA--CB-[CG] |==|  0.53682
USER: genes 12 Torsion [CA]-CB--CG-[CD2] |==|  0.02993
USER: genes 13 Torsion [N]-CA--C-[N] |==|  0.93903
USER: genes 14 Torsion [C]-N--CA-[C] |==|  0.86259
USER: genes 15 Torsion [N]-CA--CB-[OG] |==|  0.87324
USER: genes 16 Torsion [CA]-CB--OG-[HG] |==|  0.43318
USER: genes 17 Torsion [N]-CA--C-[N] |==|  0.79163
USER: genes 18 Torsion [C]-N--CA-[CB] |==|  0.82227
USER: genes 19 Torsion [N]-CA--CB-[CG] |==|  0.79827
USER: genes 20 Torsion [CA]-CB--CG-[OD2] |==|  0.80246
USER: genes 21 Torsion [N]-CA--C-[O] |==|  0.00274
ROOT
ATOM      1  CA  HIS C   3    -133.840  51.420  65.865  1.00 14.15 LIG 0.18  C 
ENDROOT
BRANCH 1 2
ATOM      2  N   HIS C   3    -133.994  52.588  66.705  1.00 14.43 LIG-0.35  N 
ATOM      3  C   PRO C   2    -133.082  53.551  66.739  1.00 20.79 LIG 0.24  C 
ATOM      4 O    PRO C   2    -132.028  53.501  66.116  1.00 15.59 LIG-0.27  OA
ATOM      5 H    HIS C   3    -134.717  52.597  67.170  1.00 14.43 LIG 0.16  HD
BRANCH 3 6
ATOM      6  CA  PRO C   2    -133.403  54.766  67.605  1.00 18.69 LIG 0.18  C 
ATOM      7  N   PRO C   2    -134.721  54.641  68.230  1.00 22.33 LIG-0.34  N 
ATOM      8  C   LYS C   1    -135.815  54.566  67.484  1.00 22.74 LIG 0.25  C 
ATOM      9  CD  PRO C   2    -134.654  54.798  69.693  1.00 22.53 LIG 0.13  C 
ATOM     10 O    LYS C   1    -135.788  54.633  66.258  1.00 19.84 LIG-0.27  OA
ATOM     11  CG  PRO C   2    -133.279  55.351  69.915  1.00 25.33 LIG 0.02  C 
ATOM     12  CB  PRO C   2    -132.452  54.815  68.801  1.00 21.74 LIG 0.04  C 
BRANCH 8 13
ATOM     13  CA  LYS C   1    -137.139  54.339  68.211  1.00 25.81 LIG 0.28  C 
BRANCH 13 14
ATOM     14  N   LYS C   1    -138.186  55.168  67.622  1.00 28.38 LIG-0.07  N 
ATOM     15 H3   LYS C   1    -138.420  54.834  66.831  1.00 28.38 LIG 0.28  HD
ATOM     16 H2   LYS C   1    -137.883  55.998  67.515  1.00 28.38 LIG 0.28  HD
ATOM     17 H1   LYS C   1    -138.894  55.179  68.161  1.00 28.38 LIG 0.28  HD
ENDBRANCH 13 14
BRANCH 13 18
ATOM     18  CB  LYS C   1    -137.533  52.864  68.132  1.00 28.10 LIG 0.04  C 
BRANCH 18 19
ATOM     19  CG  LYS C   1    -136.786  51.964  69.096  1.00 29.36 LIG 0.00  C 
BRANCH 19 20
ATOM     20  CD  LYS C   1    -136.837  50.517  68.623  1.00 23.94 LIG 0.03  C 
BRANCH 20 21
ATOM     21  CE  LYS C   1    -138.186  49.877  68.893  1.00 22.49 LIG 0.23  C 
BRANCH 21 22
ATOM     22  NZ  LYS C   1    -139.170  50.351  67.893  1.00 23.53 LIG-0.08  N 
ATOM     23 HZ1  LYS C   1    -139.984  50.073  68.122  1.00 23.53 LIG 0.27  HD
ATOM     24 HZ2  LYS C   1    -139.158  51.240  67.862  1.00 23.53 LIG 0.27  HD
ATOM     25 HZ3  LYS C   1    -138.961  50.025  67.092  1.00 23.53 LIG 0.27  HD
ENDBRANCH 21 22
ENDBRANCH 20 21
ENDBRANCH 19 20
ENDBRANCH 18 19
ENDBRANCH 13 18
ENDBRANCH 8 13
ENDBRANCH 3 6
ENDBRANCH 1 2
BRANCH 1 26
ATOM     26  CB  HIS C   3    -134.330  50.178  66.596  1.00 14.42 LIG 0.10  C 
BRANCH 26 27
ATOM     27  CG  HIS C   3    -133.921  48.891  65.932  1.00 17.65 LIG 0.06  A 
ATOM     28 ND1  HIS C   3    -134.406  47.700  66.312  1.00 19.76 LIG-0.24  NA
ATOM     29  CE1 HIS C   3    -133.856  46.733  65.557  1.00 20.53 LIG 0.23  A 
ATOM     30 NE2  HIS C   3    -133.013  47.310  64.693  1.00 17.64 LIG-0.25  NA
ATOM     31  CD2 HIS C   3    -133.026  48.639  64.898  1.00 21.96 LIG 0.14  A 
ENDBRANCH 26 27
ENDBRANCH 1 26
BRANCH 1 32
ATOM     32  C   HIS C   3    -134.530  51.546  64.543  1.00 15.49 LIG 0.24  C 
ATOM     33  N   SER C   4    -135.519  52.431  64.473  1.00 15.13 LIG-0.34  N 
ATOM     34 H    SER C   4    -135.790  52.908  65.135  1.00 15.13 LIG 0.16  HD
ATOM     35 O    HIS C   3    -134.168  50.857  63.572  1.00 14.84 LIG-0.27  OA
BRANCH 33 36
ATOM     36  CA  SER C   4    -136.233  52.659  63.224  1.00 18.69 LIG 0.20  C 
BRANCH 36 37
ATOM     37  CB  SER C   4    -137.213  53.828  63.351  1.00 23.38 LIG 0.20  C 
BRANCH 37 38
ATOM     38 OG   SER C   4    -137.959  53.740  64.547  1.00 30.32 LIG-0.40  OA
ATOM     39 HG   SER C   4    -138.230  54.504  64.765  1.00 30.32 LIG 0.21  HD
ENDBRANCH 37 38
ENDBRANCH 36 37
BRANCH 36 40
ATOM     40  C   SER C   4    -135.267  52.887  62.063  1.00 18.90 LIG 0.24  C 
ATOM     41  N   ASP C   5    -134.663  54.069  62.012  1.00 17.72 LIG-0.34  N 
ATOM     42 H    ASP C   5    -134.814  54.713  62.561  1.00 17.72 LIG 0.16  HD
ATOM     43 O    SER C   4    -135.071  52.003  61.240  1.00 16.42 LIG-0.27  OA
BRANCH 41 44
ATOM     44  CA  ASP C   5    -133.668  54.365  60.986  1.00 16.40 LIG 0.20  C 
BRANCH 44 45
ATOM     45  CB  ASP C   5    -132.437  53.460  61.131  1.00 18.53 LIG 0.15  C 
BRANCH 45 46
ATOM     46  CG  ASP C   5    -131.571  53.824  62.326  1.00 25.22 LIG 0.17  C 
ATOM     47 OD2  ASP C   5    -130.913  54.883  62.266  1.00 28.97 LIG-0.65  OA
ATOM     48 OD1  ASP C   5    -131.558  53.071  63.323  1.00 27.70 LIG-0.65  OA
ENDBRANCH 45 46
ENDBRANCH 44 45
BRANCH 44 49
ATOM     49  C   ASP C   5    -134.248  54.199  59.590  1.00 17.83 LIG 0.20  C 
ATOM     50 O    ASP C   5    -135.432  53.870  59.434  1.00 18.34 LIG-0.65  OA
ATOM     51 OXT  ASP C   5    -133.556  54.402  58.580  1.00 17.06 LIG-0.65  OA
ENDBRANCH 44 49
ENDBRANCH 41 44
ENDBRANCH 36 40
ENDBRANCH 33 36
ENDBRANCH 1 32
TORSDOF 20
ENDMDL
MODEL 3
USER: ADFR SOLUTION from run 102
USER: SCORE 20.483687 LL:  -2.842 LR: -18.662 RR:   0.000 FEB: -12.696
USER: RMSD 7.677667
USER: SEED 101
USER: STATUS 1 or 2 clusters left
USER: GENES 22
USER: genes 0 Translation |==|  0.48549 0.68267 0.67069
USER: genes 1 Rotation |==|  0.19524 0.73099 0.77017 0.67542
USER: genes 2 Torsion [C]-CA--N-[C] |==|  0.16472
USER: genes 3 Torsion [N]-C--CA-[N] |==|  0.84651
USER: genes 4 Torsion [N]-C--CA-[N] |==|  0.41890
USER: genes 5 Torsion [C]-CA--N-[H2] |==|  0.44768
USER: genes 6 Torsion [C]-CA--CB-[CG] |==|  0.76661
USER: genes 7 Torsion [CA]-CB--CG-[CD] |==|  0.27993
USER: genes 8 Torsion [CB]-CG--CD-[CE] |==|  0.23067
USER: genes 9 Torsion [CG]-CD--CE-[NZ] |==|  0.31877
USER: genes 10 Torsion [CD]-CE--NZ-[HZ1] |==|  0.77933
USER: genes 11 Torsion [N]-CA--CB-[CG] |==|  0.54873
USER: genes 12 Torsion [CA]-CB--CG-[CD2] |==|  0.65696
USER: genes 13 Torsion [N]-CA--C-[N] |==|  0.51736
USER: genes 14 Torsion [C]-N--CA-[C] |==|  0.82351
USER: genes 15 Torsion [N]-CA--CB-[OG] |==|  0.54294
USER: genes 16 Torsion [CA]-CB--OG-[HG] |==|  0.57615
USER: genes 17 Torsion [N]-CA--C-[N] |==|  0.87741
USER: genes 18 Torsion [C]-N--CA-[CB] |==|  0.43736
USER: genes 19 Torsion [N]-CA--CB-[CG] |==|  0.75925
USER: genes 20 Torsion [CA]-CB--CG-[OD2] |==|  0.23830
USER: genes 21 Torsion [N]-CA--C-[O] |==|  0.08705
ROOT
ATOM      1  CA  HIS C   3    -134.159  52.273  66.838  1.00 14.15 LIG 0.18  C 
ENDROOT
BRANCH 1 2
ATOM      2  N   HIS C   3    -133.070  52.732  67.673  1.00 14.43 LIG-0.35  N 
ATOM      3  C   PRO C   2    -132.097  53.498  67.196  1.00 20.79 LIG 0.24  C 
ATOM      4 O    PRO C   2    -132.015  53.824  66.018  1.00 15.59 LIG-0.27  OA
ATOM      5 H    HIS C   3    -133.113  52.465  68.489  1.00 14.43 LIG 0.16  HD
BRANCH 3 6
ATOM      6  CA  PRO C   2    -131.052  53.979  68.198  1.00 18.69 LIG 0.18  C 
ATOM      7  N   PRO C   2    -131.676  54.680  69.322  1.00 22.33 LIG-0.34  N 
ATOM      8  C   LYS C   1    -132.367  55.795  69.121  1.00 22.74 LIG 0.25  C 
ATOM      9  CD  PRO C   2    -131.280  54.104  70.619  1.00 22.53 LIG 0.13  C 
ATOM     10 O    LYS C   1    -132.487  56.310  68.012  1.00 19.84 LIG-0.27  OA
ATOM     11  CG  PRO C   2    -130.124  53.219  70.261  1.00 25.33 LIG 0.02  C 
ATOM     12  CB  PRO C   2    -130.381  52.778  68.864  1.00 21.74 LIG 0.04  C 
BRANCH 8 13
ATOM     13  CA  LYS C   1    -133.066  56.408  70.332  1.00 25.81 LIG 0.28  C 
BRANCH 13 14
ATOM     14  N   LYS C   1    -133.170  57.855  70.174  1.00 28.38 LIG-0.07  N 
ATOM     15 H3   LYS C   1    -132.388  58.232  70.372  1.00 28.38 LIG 0.28  HD
ATOM     16 H2   LYS C   1    -133.798  58.170  70.722  1.00 28.38 LIG 0.28  HD
ATOM     17 H1   LYS C   1    -133.388  58.047  69.333  1.00 28.38 LIG 0.28  HD
ENDBRANCH 13 14
BRANCH 13 18
ATOM     18  CB  LYS C   1    -134.458  55.798  70.496  1.00 28.10 LIG 0.04  C 
BRANCH 18 19
ATOM     19  CG  LYS C   1    -135.531  56.449  69.646  1.00 29.36 LIG 0.00  C 
BRANCH 19 20
ATOM     20  CD  LYS C   1    -135.817  55.606  68.410  1.00 23.94 LIG 0.03  C 
BRANCH 20 21
ATOM     21  CE  LYS C   1    -136.789  54.478  68.704  1.00 22.49 LIG 0.23  C 
BRANCH 21 22
ATOM     22  NZ  LYS C   1    -138.045  54.694  67.950  1.00 23.53 LIG-0.08  N 
ATOM     23 HZ1  LYS C   1    -138.546  55.297  68.373  1.00 23.53 LIG 0.27  HD
ATOM     24 HZ2  LYS C   1    -137.854  54.989  67.133  1.00 23.53 LIG 0.27  HD
ATOM     25 HZ3  LYS C   1    -138.492  53.927  67.891  1.00 23.53 LIG 0.27  HD
ENDBRANCH 21 22
ENDBRANCH 20 21
ENDBRANCH 19 20
ENDBRANCH 18 19
ENDBRANCH 13 18
ENDBRANCH 8 13
ENDBRANCH 3 6
ENDBRANCH 1 2
BRANCH 1 26
ATOM     26  CB  HIS C   3    -134.995  53.455  66.366  1.00 14.42 LIG 0.10  C 
BRANCH 26 27
ATOM     27  CG  HIS C   3    -136.356  53.063  65.858  1.00 17.65 LIG 0.06  A 
ATOM     28 ND1  HIS C   3    -137.222  52.353  66.595  1.00 19.76 LIG-0.24  NA
ATOM     29  CE1 HIS C   3    -138.343  52.140  65.884  1.00 20.53 LIG 0.23  A 
ATOM     30 NE2  HIS C   3    -138.189  52.713  64.686  1.00 17.64 LIG-0.25  NA
ATOM     31  CD2 HIS C   3    -136.975  53.289  64.633  1.00 21.96 LIG 0.14  A 
ENDBRANCH 26 27
ENDBRANCH 1 26
BRANCH 1 32
ATOM     32  C   HIS C   3    -133.707  51.460  65.667  1.00 15.49 LIG 0.24  C 
ATOM     33  N   SER C   4    -134.643  51.115  64.789  1.00 15.13 LIG-0.34  N 
ATOM     34 H    SER C   4    -135.477  51.311  64.867  1.00 15.13 LIG 0.16  HD
ATOM     35 O    HIS C   3    -132.509  51.148  65.537  1.00 14.84 LIG-0.27  OA
BRANCH 33 36
ATOM     36  CA  SER C   4    -134.305  50.353  63.594  1.00 18.69 LIG 0.20  C 
BRANCH 36 37
ATOM     37  CB  SER C   4    -135.564  49.917  62.840  1.00 23.38 LIG 0.20  C 
BRANCH 37 38
ATOM     38 OG   SER C   4    -135.271  48.904  61.902  1.00 30.32 LIG-0.40  OA
ATOM     39 HG   SER C   4    -135.825  48.936  61.272  1.00 30.32 LIG 0.21  HD
ENDBRANCH 37 38
ENDBRANCH 36 37
BRANCH 36 40
ATOM     40  C   SER C   4    -133.371  51.140  62.677  1.00 18.90 LIG 0.24  C 
ATOM     41  N   ASP C   5    -133.668  52.421  62.479  1.00 17.72 LIG-0.34  N 
ATOM     42 H    ASP C   5    -134.364  52.810  62.798  1.00 17.72 LIG 0.16  HD
ATOM     43 O    SER C   4    -132.399  50.597  62.171  1.00 16.42 LIG-0.27  OA
BRANCH 41 44
ATOM     44  CA  ASP C   5    -132.802  53.281  61.679  1.00 16.40 LIG 0.20  C 
BRANCH 44 45
ATOM     45  CB  ASP C   5    -133.575  54.489  61.132  1.00 18.53 LIG 0.15  C 
BRANCH 45 46
ATOM     46  CG  ASP C   5    -134.272  54.199  59.814  1.00 25.22 LIG 0.17  C 
ATOM     47 OD2  ASP C   5    -135.409  53.685  59.858  1.00 28.97 LIG-0.65  OA
ATOM     48 OD1  ASP C   5    -133.701  54.495  58.742  1.00 27.70 LIG-0.65  OA
ENDBRANCH 45 46
ENDBRANCH 44 45
BRANCH 44 49
ATOM     49  C   ASP C   5    -131.613  53.774  62.489  1.00 17.83 LIG 0.20  C 
ATOM     50 O    ASP C   5    -131.129  53.074  63.389  1.00 18.34 LIG-0.65  OA
ATOM     51 OXT  ASP C   5    -131.093  54.876  62.258  1.00 17.06 LIG-0.65  OA
ENDBRANCH 44 49
ENDBRANCH 41 44
ENDBRANCH 36 40
ENDBRANCH 33 36
ENDBRANCH 1 32
TORSDOF 20
ENDMDL
MODEL 4
USER: ADFR SOLUTION from run 12
USER: SCORE 21.150635 LL:  -2.888 LR: -18.585 RR:   0.000 FEB: -12.619
USER: RMSD 8.049562
USER: SEED 672557
USER: STATUS 1 or 2 clusters left
USER: GENES 22
USER: genes 0 Translation |==|  0.62208 0.76635 0.68595
USER: genes 1 Rotation |==|  0.46039 0.71046 0.16073 0.79838
USER: genes 2 Torsion [C]-CA--N-[C] |==|  0.65791
USER: genes 3 Torsion [N]-C--CA-[N] |==|  0.90147
USER: genes 4 Torsion [N]-C--CA-[N] |==|  0.47227
USER: genes 5 Torsion [C]-CA--N-[H2] |==|  0.22314
USER: genes 6 Torsion [C]-CA--CB-[CG] |==|  0.65209
USER: genes 7 Torsion [CA]-CB--CG-[CD] |==|  0.47461
USER: genes 8 Torsion [CB]-CG--CD-[CE] |==|  0.29493
USER: genes 9 Torsion [CG]-CD--CE-[NZ] |==|  0.94257
USER: genes 10 Torsion [CD]-CE--NZ-[HZ1] |==|  0.79004
USER: genes 11 Torsion [N]-CA--CB-[CG] |==|  0.96150
USER: genes 12 Torsion [CA]-CB--CG-[CD2] |==|  0.73968
USER: genes 13 Torsion [N]-CA--C-[N] |==|  0.09696
USER: genes 14 Torsion [C]-N--CA-[C] |==|  0.83808
USER: genes 15 Torsion [N]-CA--CB-[OG] |==|  0.32186
USER: genes 16 Torsion [CA]-CB--OG-[HG] |==|  0.51675
USER: genes 17 Torsion [N]-CA--C-[N] |==|  0.90671
USER: genes 18 Torsion [C]-N--CA-[CB] |==|  0.34813
USER: genes 19 Torsion [N]-CA--CB-[CG] |==|  0.67130
USER: genes 20 Torsion [CA]-CB--CG-[OD2] |==|  0.69001
USER: genes 21 Torsion [N]-CA--C-[O] |==|  0.77532
ROOT
ATOM      1  CA  HIS C   3    -131.906  53.968  67.113  1.00 14.15 LIG 0.18  C 
ENDROOT
BRANCH 1 2
ATOM      2  N   HIS C   3    -132.533  54.735  68.167  1.00 14.43 LIG-0.35  N 
ATOM      3  C   PRO C   2    -132.405  56.053  68.245  1.00 20.79 LIG 0.24  C 
ATOM      4 O    PRO C   2    -131.709  56.707  67.478  1.00 15.59 LIG-0.27  OA
ATOM      5 H    HIS C   3    -132.987  54.263  68.726  1.00 14.43 LIG 0.16  HD
BRANCH 3 6
ATOM      6  CA  PRO C   2    -133.183  56.751  69.358  1.00 18.69 LIG 0.18  C 
ATOM      7  N   PRO C   2    -134.475  56.103  69.591  1.00 22.33 LIG-0.34  N 
ATOM      8  C   LYS C   1    -135.390  56.059  68.631  1.00 22.74 LIG 0.25  C 
ATOM      9  CD  PRO C   2    -134.651  55.716  71.001  1.00 22.53 LIG 0.13  C 
ATOM     10 O    LYS C   1    -135.222  56.581  67.531  1.00 19.84 LIG-0.27  OA
ATOM     11  CG  PRO C   2    -133.544  56.449  71.697  1.00 25.33 LIG 0.02  C 
ATOM     12  CB  PRO C   2    -132.456  56.571  70.690  1.00 21.74 LIG 0.04  C 
BRANCH 8 13
ATOM     13  CA  LYS C   1    -136.670  55.281  68.923  1.00 25.81 LIG 0.28  C 
BRANCH 13 14
ATOM     14  N   LYS C   1    -137.658  55.524  67.877  1.00 28.38 LIG-0.07  N 
ATOM     15 H3   LYS C   1    -138.470  55.324  68.183  1.00 28.38 LIG 0.28  HD
ATOM     16 H2   LYS C   1    -137.474  55.015  67.169  1.00 28.38 LIG 0.28  HD
ATOM     17 H1   LYS C   1    -137.633  56.381  67.638  1.00 28.38 LIG 0.28  HD
ENDBRANCH 13 14
BRANCH 13 18
ATOM     18  CB  LYS C   1    -136.363  53.786  69.016  1.00 28.10 LIG 0.04  C 
BRANCH 18 19
ATOM     19  CG  LYS C   1    -137.194  52.917  68.092  1.00 29.36 LIG 0.00  C 
BRANCH 19 20
ATOM     20  CD  LYS C   1    -136.669  51.487  68.089  1.00 23.94 LIG 0.03  C 
BRANCH 20 21
ATOM     21  CE  LYS C   1    -137.577  50.547  68.861  1.00 22.49 LIG 0.23  C 
BRANCH 21 22
ATOM     22  NZ  LYS C   1    -138.420  51.327  69.796  1.00 23.53 LIG-0.08  N 
ATOM     23 HZ1  LYS C   1    -137.931  51.584  70.494  1.00 23.53 LIG 0.27  HD
ATOM     24 HZ2  LYS C   1    -138.741  52.044  69.379  1.00 23.53 LIG 0.27  HD
ATOM     25 HZ3  LYS C   1    -139.096  50.821  70.079  1.00 23.53 LIG 0.27  HD
ENDBRANCH 21 22
ENDBRANCH 20 21
ENDBRANCH 19 20
ENDBRANCH 18 19
ENDBRANCH 13 18
ENDBRANCH 8 13
ENDBRANCH 3 6
ENDBRANCH 1 2
BRANCH 1 26
ATOM     26  CB  HIS C   3    -130.816  53.074  67.689  1.00 14.42 LIG 0.10  C 
BRANCH 26 27
ATOM     27  CG  HIS C   3    -130.430  53.430  69.099  1.00 17.65 LIG 0.06  A 
ATOM     28 ND1  HIS C   3    -131.098  52.968  70.166  1.00 19.76 LIG-0.24  NA
ATOM     29  CE1 HIS C   3    -130.543  53.459  71.287  1.00 20.53 LIG 0.23  A 
ATOM     30 NE2  HIS C   3    -129.518  54.243  70.933  1.00 17.64 LIG-0.25  NA
ATOM     31  CD2 HIS C   3    -129.421  54.250  69.592  1.00 21.96 LIG 0.14  A 
ENDBRANCH 26 27
ENDBRANCH 1 26
BRANCH 1 32
ATOM     32  C   HIS C   3    -132.874  53.152  66.317  1.00 15.49 LIG 0.24  C 
ATOM     33  N   SER C   4    -134.076  53.683  66.122  1.00 15.13 LIG-0.34  N 
ATOM     34 H    SER C   4    -134.328  54.442  66.438  1.00 15.13 LIG 0.16  HD
ATOM     35 O    HIS C   3    -132.542  52.042  65.860  1.00 14.84 LIG-0.27  OA
BRANCH 33 36
ATOM     36  CA  SER C   4    -135.083  52.989  65.330  1.00 18.69 LIG 0.20  C 
BRANCH 36 37
ATOM     37  CB  SER C   4    -136.399  53.770  65.299  1.00 23.38 LIG 0.20  C 
BRANCH 37 38
ATOM     38 OG   SER C   4    -136.707  54.199  63.990  1.00 30.32 LIG-0.40  OA
ATOM     39 HG   SER C   4    -137.386  54.693  64.009  1.00 30.32 LIG 0.21  HD
ENDBRANCH 37 38
ENDBRANCH 36 37
BRANCH 36 40
ATOM     40  C   SER C   4    -134.585  52.712  63.914  1.00 18.90 LIG 0.24  C 
ATOM     41  N   ASP C   5    -133.771  53.616  63.378  1.00 17.72 LIG-0.34  N 
ATOM     42 H    ASP C   5    -133.548  54.353  63.762  1.00 17.72 LIG 0.16  HD
ATOM     43 O    SER C   4    -134.925  51.694  63.327  1.00 16.42 LIG-0.27  OA
BRANCH 41 44
ATOM     44  CA  ASP C   5    -133.180  53.414  62.059  1.00 16.40 LIG 0.20  C 
BRANCH 44 45
ATOM     45  CB  ASP C   5    -133.482  54.597  61.130  1.00 18.53 LIG 0.15  C 
BRANCH 45 46
ATOM     46  CG  ASP C   5    -134.291  54.199  59.907  1.00 25.22 LIG 0.17  C 
ATOM     47 OD2  ASP C   5    -133.726  54.249  58.795  1.00 28.97 LIG-0.65  OA
ATOM     48 OD1  ASP C   5    -135.474  53.824  60.052  1.00 27.70 LIG-0.65  OA
ENDBRANCH 45 46
ENDBRANCH 44 45
BRANCH 44 49
ATOM     49  C   ASP C   5    -131.675  53.223  62.152  1.00 17.83 LIG 0.20  C 
ATOM     50 O    ASP C   5    -130.920  54.199  62.261  1.00 18.34 LIG-0.65  OA
ATOM     51 OXT  ASP C   5    -131.170  52.089  62.136  1.00 17.06 LIG-0.65  OA
ENDBRANCH 44 49
ENDBRANCH 41 44
ENDBRANCH 36 40
ENDBRANCH 33 36
ENDBRANCH 1 32
TORSDOF 20
ENDMDL
MODEL 5
USER: ADFR SOLUTION from run 29
USER: SCORE 19.869730 LL:  -3.343 LR: -18.010 RR:   0.000 FEB: -12.044
USER: RMSD 5.965909
USER: SEED 28
USER: STATUS 1 or 2 clusters left
USER: GENES 22
USER: genes 0 Translation |==|  0.47982 0.56529 0.61013
USER: genes 1 Rotation |==|  0.88853 0.45373 0.21053 0.61449
USER: genes 2 Torsion [C]-CA--N-[C] |==|  0.88385
USER: genes 3 Torsion [N]-C--CA-[N] |==|  0.97158
USER: genes 4 Torsion [N]-C--CA-[N] |==|  0.38553
USER: genes 5 Torsion [C]-CA--N-[H2] |==|  0.37704
USER: genes 6 Torsion [C]-CA--CB-[CG] |==|  0.26854
USER: genes 7 Torsion [CA]-CB--CG-[CD] |==|  0.78135
USER: genes 8 Torsion [CB]-CG--CD-[CE] |==|  0.47018
USER: genes 9 Torsion [CG]-CD--CE-[NZ] |==|  0.79621
USER: genes 10 Torsion [CD]-CE--NZ-[HZ1] |==|  0.76038
USER: genes 11 Torsion [N]-CA--CB-[CG] |==|  0.70057
USER: genes 12 Torsion [CA]-CB--CG-[CD2] |==|  0.01224
USER: genes 13 Torsion [N]-CA--C-[N] |==|  0.74028
USER: genes 14 Torsion [C]-N--CA-[C] |==|  0.78986
USER: genes 15 Torsion [N]-CA--CB-[OG] |==|  0.94306
USER: genes 16 Torsion [CA]-CB--OG-[HG] |==|  0.69145
USER: genes 17 Torsion [N]-CA--C-[N] |==|  0.85123
USER: genes 18 Torsion [C]-N--CA-[CB] |==|  0.51242
USER: genes 19 Torsion [N]-CA--CB-[CG] |==|  0.75556
USER: genes 20 Torsion [CA]-CB--CG-[OD2] |==|  0.82968
USER: genes 21 Torsion [N]-CA--C-[O] |==|  0.95257
ROOT
ATOM      1  CA  HIS C   3    -134.253  49.896  65.748  1.00 14.15 LIG 0.18  C 
ENDROOT
BRANCH 1 2
ATOM      2  N   HIS C   3    -134.598  51.272  66.035  1.00 14.43 LIG-0.35  N 
ATOM      3  C   PRO C   2    -133.677  52.223  66.117  1.00 20.79 LIG 0.24  C 
ATOM      4 O    PRO C   2    -132.476  52.005  66.016  1.00 15.59 LIG-0.27  OA
ATOM      5 H    HIS C   3    -135.440  51.409  66.145  1.00 14.43 LIG 0.16  HD
BRANCH 3 6
ATOM      6  CA  PRO C   2    -134.181  53.646  66.344  1.00 18.69 LIG 0.18  C 
ATOM      7  N   PRO C   2    -135.635  53.726  66.191  1.00 22.33 LIG-0.34  N 
ATOM      8  C   LYS C   1    -136.207  53.437  65.030  1.00 22.74 LIG 0.25  C 
ATOM      9  CD  PRO C   2    -136.282  54.317  67.375  1.00 22.53 LIG 0.13  C 
ATOM     10 O    LYS C   1    -135.562  53.130  64.030  1.00 19.84 LIG-0.27  OA
ATOM     11  CG  PRO C   2    -135.130  54.901  68.137  1.00 25.33 LIG 0.02  C 
ATOM     12  CB  PRO C   2    -133.959  54.047  67.802  1.00 21.74 LIG 0.04  C 
BRANCH 8 13
ATOM     13  CA  LYS C   1    -137.733  53.450  64.983  1.00 25.81 LIG 0.28  C 
BRANCH 13 14
ATOM     14  N   LYS C   1    -138.194  54.071  63.745  1.00 28.38 LIG-0.07  N 
ATOM     15 H3   LYS C   1    -138.489  54.894  63.918  1.00 28.38 LIG 0.28  HD
ATOM     16 H2   LYS C   1    -138.854  53.587  63.397  1.00 28.38 LIG 0.28  HD
ATOM     17 H1   LYS C   1    -137.520  54.113  63.165  1.00 28.38 LIG 0.28  HD
ENDBRANCH 13 14
BRANCH 13 18
ATOM     18  CB  LYS C   1    -138.272  52.024  65.084  1.00 28.10 LIG 0.04  C 
BRANCH 18 19
ATOM     19  CG  LYS C   1    -138.684  51.608  66.483  1.00 29.36 LIG 0.00  C 
BRANCH 19 20
ATOM     20  CD  LYS C   1    -137.461  51.240  67.312  1.00 23.94 LIG 0.03  C 
BRANCH 20 21
ATOM     21  CE  LYS C   1    -137.801  51.072  68.782  1.00 22.49 LIG 0.23  C 
BRANCH 21 22
ATOM     22  NZ  LYS C   1    -138.045  52.400  69.391  1.00 23.53 LIG-0.08  N 
ATOM     23 HZ1  LYS C   1    -137.272  52.750  69.660  1.00 23.53 LIG 0.27  HD
ATOM     24 HZ2  LYS C   1    -138.421  52.937  68.790  1.00 23.53 LIG 0.27  HD
ATOM     25 HZ3  LYS C   1    -138.589  52.311  70.090  1.00 23.53 LIG 0.27  HD
ENDBRANCH 21 22
ENDBRANCH 20 21
ENDBRANCH 19 20
ENDBRANCH 18 19
ENDBRANCH 13 18
ENDBRANCH 8 13
ENDBRANCH 3 6
ENDBRANCH 1 2
BRANCH 1 26
ATOM     26  CB  HIS C   3    -135.499  49.107  65.372  1.00 14.42 LIG 0.10  C 
BRANCH 26 27
ATOM     27  CG  HIS C   3    -135.942  48.140  66.436  1.00 17.65 LIG 0.06  A 
ATOM     28 ND1  HIS C   3    -136.983  47.312  66.266  1.00 19.76 LIG-0.24  NA
ATOM     29  CE1 HIS C   3    -137.155  46.579  67.380  1.00 20.53 LIG 0.23  A 
ATOM     30 NE2  HIS C   3    -136.222  46.945  68.266  1.00 17.64 LIG-0.25  NA
ATOM     31  CD2 HIS C   3    -135.459  47.907  67.719  1.00 21.96 LIG 0.14  A 
ENDBRANCH 26 27
ENDBRANCH 1 26
BRANCH 1 32
ATOM     32  C   HIS C   3    -133.212  49.756  64.683  1.00 15.49 LIG 0.24  C 
ATOM     33  N   SER C   4    -133.655  49.586  63.441  1.00 15.13 LIG-0.34  N 
ATOM     34 H    SER C   4    -134.485  49.534  63.226  1.00 15.13 LIG 0.16  HD
ATOM     35 O    HIS C   3    -132.002  49.813  64.968  1.00 14.84 LIG-0.27  OA
BRANCH 33 36
ATOM     36  CA  SER C   4    -132.727  49.475  62.324  1.00 18.69 LIG 0.20  C 
BRANCH 36 37
ATOM     37  CB  SER C   4    -133.393  48.816  61.114  1.00 23.38 LIG 0.20  C 
BRANCH 37 38
ATOM     38 OG   SER C   4    -134.533  48.077  61.498  1.00 30.32 LIG-0.40  OA
ATOM     39 HG   SER C   4    -134.382  47.257  61.398  1.00 30.32 LIG 0.21  HD
ENDBRANCH 37 38
ENDBRANCH 36 37
BRANCH 36 40
ATOM     40  C   SER C   4    -132.143  50.835  61.946  1.00 18.90 LIG 0.24  C 
ATOM     41  N   ASP C   5    -133.011  51.810  61.700  1.00 17.72 LIG-0.34  N 
ATOM     42 H    ASP C   5    -133.865  51.709  61.700  1.00 17.72 LIG 0.16  HD
ATOM     43 O    SER C   4    -130.932  50.993  61.891  1.00 16.42 LIG-0.27  OA
BRANCH 41 44
ATOM     44  CA  ASP C   5    -132.560  53.165  61.401  1.00 16.40 LIG 0.20  C 
BRANCH 44 45
ATOM     45  CB  ASP C   5    -133.748  54.127  61.264  1.00 18.53 LIG 0.15  C 
BRANCH 45 46
ATOM     46  CG  ASP C   5    -134.305  54.182  59.851  1.00 25.22 LIG 0.17  C 
ATOM     47 OD2  ASP C   5    -133.545  54.574  58.941  1.00 28.97 LIG-0.65  OA
ATOM     48 OD1  ASP C   5    -135.484  53.824  59.645  1.00 27.70 LIG-0.65  OA
ENDBRANCH 45 46
ENDBRANCH 44 45
BRANCH 44 49
ATOM     49  C   ASP C   5    -131.619  53.684  62.477  1.00 17.83 LIG 0.20  C 
ATOM     50 O    ASP C   5    -131.566  53.135  63.587  1.00 18.34 LIG-0.65  OA
ATOM     51 OXT  ASP C   5    -130.876  54.655  62.266  1.00 17.06 LIG-0.65  OA
ENDBRANCH 44 49
ENDBRANCH 41 44
ENDBRANCH 36 40
ENDBRANCH 33 36
ENDBRANCH 1 32
TORSDOF 20
ENDMDL
MODEL 6
USER: ADFR SOLUTION from run 121
USER: SCORE 19.151887 LL:  -2.466 LR: -17.855 RR:   0.000 FEB: -11.889
USER: RMSD 6.787065
USER: SEED 120
USER: STATUS no improvement in best in 3 clusters for 5 generations
USER: GENES 22
USER: genes 0 Translation |==|  0.54369 0.40170 0.57437
USER: genes 1 Rotation |==|  0.91148 0.65623 0.38568 0.70785
USER: genes 2 Torsion [C]-CA--N-[C] |==|  0.85571
USER: genes 3 Torsion [N]-C--CA-[N] |==|  0.53523
USER: genes 4 Torsion [N]-C--CA-[N] |==|  0.26146
USER: genes 5 Torsion [C]-CA--N-[H2] |==|  0.68507
USER: genes 6 Torsion [C]-CA--CB-[CG] |==|  0.41098
USER: genes 7 Torsion [CA]-CB--CG-[CD] |==|  0.11029
USER: genes 8 Torsion [CB]-CG--CD-[CE] |==|  0.38113
USER: genes 9 Torsion [CG]-CD--CE-[NZ] |==|  0.30923
USER: genes 10 Torsion [CD]-CE--NZ-[HZ1] |==|  0.93404
USER: genes 11 Torsion [N]-CA--CB-[CG] |==|  0.61699
USER: genes 12 Torsion [CA]-CB--CG-[CD2] |==|  0.63485
USER: genes 13 Torsion [N]-CA--C-[N] |==|  0.74444
USER: genes 14 Torsion [C]-N--CA-[C] |==|  0.79176
USER: genes 15 Torsion [N]-CA--CB-[OG] |==|  0.86548
USER: genes 16 Torsion [CA]-CB--OG-[HG] |==|  0.54254
USER: genes 17 Torsion [N]-CA--C-[N] |==|  0.35892
USER: genes 18 Torsion [C]-N--CA-[CB] |==|  0.22808
USER: genes 19 Torsion [N]-CA--CB-[CG] |==|  0.14741
USER: genes 20 Torsion [CA]-CB--CG-[OD2] |==|  0.75098
USER: genes 21 Torsion [N]-CA--C-[O] |==|  0.91699
ROOT
ATOM      1  CA  HIS C   3    -133.199  46.584  65.105  1.00 14.15 LIG 0.18  C 
ENDROOT
BRANCH 1 2
ATOM      2  N   HIS C   3    -134.618  46.866  65.127  1.00 14.43 LIG-0.35  N 
ATOM      3  C   PRO C   2    -135.102  47.978  65.666  1.00 20.79 LIG 0.24  C 
ATOM      4 O    PRO C   2    -134.403  48.811  66.229  1.00 15.59 LIG-0.27  OA
ATOM      5 H    HIS C   3    -135.106  46.257  64.766  1.00 14.43 LIG 0.16  HD
BRANCH 3 6
ATOM      6  CA  PRO C   2    -136.609  48.193  65.552  1.00 18.69 LIG 0.18  C 
ATOM      7  N   PRO C   2    -136.978  49.565  65.907  1.00 22.33 LIG-0.34  N 
ATOM      8  C   LYS C   1    -136.747  50.031  67.127  1.00 22.74 LIG 0.25  C 
ATOM      9  CD  PRO C   2    -137.758  50.218  64.842  1.00 22.53 LIG 0.13  C 
ATOM     10 O    LYS C   1    -136.256  49.342  68.018  1.00 19.84 LIG-0.27  OA
ATOM     11  CG  PRO C   2    -138.135  49.077  63.946  1.00 25.33 LIG 0.02  C 
ATOM     12  CB  PRO C   2    -137.039  48.081  64.090  1.00 21.74 LIG 0.04  C 
BRANCH 8 13
ATOM     13  CA  LYS C   1    -137.072  51.500  67.385  1.00 25.81 LIG 0.28  C 
BRANCH 13 14
ATOM     14  N   LYS C   1    -138.417  51.629  67.936  1.00 28.38 LIG-0.07  N 
ATOM     15 H3   LYS C   1    -138.749  50.820  68.103  1.00 28.38 LIG 0.28  HD
ATOM     16 H2   LYS C   1    -138.940  52.048  67.349  1.00 28.38 LIG 0.28  HD
ATOM     17 H1   LYS C   1    -138.385  52.099  68.691  1.00 28.38 LIG 0.28  HD
ENDBRANCH 13 14
BRANCH 13 18
ATOM     18  CB  LYS C   1    -136.051  52.100  68.350  1.00 28.10 LIG 0.04  C 
BRANCH 18 19
ATOM     19  CG  LYS C   1    -135.761  53.570  68.121  1.00 29.36 LIG 0.00  C 
BRANCH 19 20
ATOM     20  CD  LYS C   1    -137.041  54.320  67.775  1.00 23.94 LIG 0.03  C 
BRANCH 20 21
ATOM     21  CE  LYS C   1    -137.131  55.653  68.495  1.00 22.49 LIG 0.23  C 
BRANCH 21 22
ATOM     22  NZ  LYS C   1    -137.002  56.756  67.516  1.00 23.53 LIG-0.08  N 
ATOM     23 HZ1  LYS C   1    -136.569  56.465  66.795  1.00 23.53 LIG 0.27  HD
ATOM     24 HZ2  LYS C   1    -137.811  57.041  67.281  1.00 23.53 LIG 0.27  HD
ATOM     25 HZ3  LYS C   1    -136.547  57.428  67.883  1.00 23.53 LIG 0.27  HD
ENDBRANCH 21 22
ENDBRANCH 20 21
ENDBRANCH 19 20
ENDBRANCH 18 19
ENDBRANCH 13 18
ENDBRANCH 8 13
ENDBRANCH 3 6
ENDBRANCH 1 2
BRANCH 1 26
ATOM     26  CB  HIS C   3    -132.931  45.295  64.341  1.00 14.42 LIG 0.10  C 
BRANCH 26 27
ATOM     27  CG  HIS C   3    -131.906  44.410  64.996  1.00 17.65 LIG 0.06  A 
ATOM     28 ND1  HIS C   3    -131.938  44.120  66.305  1.00 19.76 LIG-0.24  NA
ATOM     29  CE1 HIS C   3    -130.897  43.326  66.611  1.00 20.53 LIG 0.23  A 
ATOM     30 NE2  HIS C   3    -130.195  43.113  65.493  1.00 17.64 LIG-0.25  NA
ATOM     31  CD2 HIS C   3    -130.786  43.768  64.478  1.00 21.96 LIG 0.14  A 
ENDBRANCH 26 27
ENDBRANCH 1 26
BRANCH 1 32
ATOM     32  C   HIS C   3    -132.381  47.700  64.536  1.00 15.49 LIG 0.24  C 
ATOM     33  N   SER C   4    -132.134  47.648  63.232  1.00 15.13 LIG-0.34  N 
ATOM     34 H    SER C   4    -132.395  47.013  62.714  1.00 15.13 LIG 0.16  HD
ATOM     35 O    HIS C   3    -131.977  48.624  65.266  1.00 14.84 LIG-0.27  OA
BRANCH 33 36
ATOM     36  CA  SER C   4    -131.378  48.703  62.570  1.00 18.69 LIG 0.20  C 
BRANCH 36 37
ATOM     37  CB  SER C   4    -130.821  48.226  61.226  1.00 23.38 LIG 0.20  C 
BRANCH 37 38
ATOM     38 OG   SER C   4    -130.178  46.976  61.355  1.00 30.32 LIG-0.40  OA
ATOM     39 HG   SER C   4    -129.706  46.832  60.675  1.00 30.32 LIG 0.21  HD
ENDBRANCH 37 38
ENDBRANCH 36 37
BRANCH 36 40
ATOM     40  C   SER C   4    -132.220  49.964  62.391  1.00 18.90 LIG 0.24  C 
ATOM     41  N   ASP C   5    -131.682  51.106  62.807  1.00 17.72 LIG-0.34  N 
ATOM     42 H    ASP C   5    -130.920  51.166  63.201  1.00 17.72 LIG 0.16  HD
ATOM     43 O    SER C   4    -133.328  49.900  61.877  1.00 16.42 LIG-0.27  OA
BRANCH 41 44
ATOM     44  CA  ASP C   5    -132.370  52.379  62.618  1.00 16.40 LIG 0.20  C 
BRANCH 44 45
ATOM     45  CB  ASP C   5    -133.418  52.610  63.715  1.00 18.53 LIG 0.15  C 
BRANCH 45 46
ATOM     46  CG  ASP C   5    -132.848  52.473  65.117  1.00 25.22 LIG 0.17  C 
ATOM     47 OD2  ASP C   5    -132.868  51.341  65.644  1.00 28.97 LIG-0.65  OA
ATOM     48 OD1  ASP C   5    -132.369  53.478  65.683  1.00 27.70 LIG-0.65  OA
ENDBRANCH 45 46
ENDBRANCH 44 45
BRANCH 44 49
ATOM     49  C   ASP C   5    -131.390  53.541  62.610  1.00 17.83 LIG 0.20  C 
ATOM     50 O    ASP C   5    -130.337  53.482  63.260  1.00 18.34 LIG-0.65  OA
ATOM     51 OXT  ASP C   5    -131.614  54.564  61.944  1.00 17.06 LIG-0.65  OA
ENDBRANCH 44 49
ENDBRANCH 41 44
ENDBRANCH 36 40
ENDBRANCH 33 36
ENDBRANCH 1 32
TORSDOF 20
ENDMDL
MODEL 7
USER: ADFR SOLUTION from run 6
USER: SCORE 20.947478 LL:  -3.521 LR: -17.805 RR:   0.000 FEB: -11.839
USER: RMSD 7.268928
USER: SEED 814713
USER: STATUS no improvement in best in 1 clusters for 5 generations
USER: GENES 22
USER: genes 0 Translation |==|  0.50000 0.63670 0.70832
USER: genes 1 Rotation |==|  0.73379 0.52724 0.06959 0.59670
USER: genes 2 Torsion [C]-CA--N-[C] |==|  0.74368
USER: genes 3 Torsion [N]-C--CA-[N] |==|  0.99816
USER: genes 4 Torsion [N]-C--CA-[N] |==|  0.37340
USER: genes 5 Torsion [C]-CA--N-[H2] |==|  0.77492
USER: genes 6 Torsion [C]-CA--CB-[CG] |==|  0.13538
USER: genes 7 Torsion [CA]-CB--CG-[CD] |==|  0.50866
USER: genes 8 Torsion [CB]-CG--CD-[CE] |==|  0.12742
USER: genes 9 Torsion [CG]-CD--CE-[NZ] |==|  0.53819
USER: genes 10 Torsion [CD]-CE--NZ-[HZ1] |==|  0.85751
USER: genes 11 Torsion [N]-CA--CB-[CG] |==|  0.45840
USER: genes 12 Torsion [CA]-CB--CG-[CD2] |==|  0.25762
USER: genes 13 Torsion [N]-CA--C-[N] |==|  0.84449
USER: genes 14 Torsion [C]-N--CA-[C] |==|  0.81821
USER: genes 15 Torsion [N]-CA--CB-[OG] |==|  0.04129
USER: genes 16 Torsion [CA]-CB--OG-[HG] |==|  0.33887
USER: genes 17 Torsion [N]-CA--C-[N] |==|  0.37287
USER: genes 18 Torsion [C]-N--CA-[CB] |==|  0.80190
USER: genes 19 Torsion [N]-CA--CB-[CG] |==|  0.80151
USER: genes 20 Torsion [CA]-CB--CG-[OD2] |==|  0.72065
USER: genes 21 Torsion [N]-CA--C-[O] |==|  0.09702
ROOT
ATOM      1  CA  HIS C   3    -133.920  51.342  67.516  1.00 14.15 LIG 0.18  C 
ENDROOT
BRANCH 1 2
ATOM      2  N   HIS C   3    -133.838  52.649  68.130  1.00 14.43 LIG-0.35  N 
ATOM      3  C   PRO C   2    -132.676  53.255  68.337  1.00 20.79 LIG 0.24  C 
ATOM      4 O    PRO C   2    -131.595  52.738  68.083  1.00 15.59 LIG-0.27  OA
ATOM      5 H    HIS C   3    -134.600  52.988  68.343  1.00 14.43 LIG 0.16  HD
BRANCH 3 6
ATOM      6  CA  PRO C   2    -132.733  54.665  68.919  1.00 18.69 LIG 0.18  C 
ATOM      7  N   PRO C   2    -134.116  55.098  69.129  1.00 22.33 LIG-0.34  N 
ATOM      8  C   LYS C   1    -134.949  55.213  68.104  1.00 22.74 LIG 0.25  C 
ATOM      9  CD  PRO C   2    -134.351  55.535  70.516  1.00 22.53 LIG 0.13  C 
ATOM     10 O    LYS C   1    -134.605  55.004  66.943  1.00 19.84 LIG-0.27  OA
ATOM     11  CG  PRO C   2    -132.966  55.661  71.074  1.00 25.33 LIG 0.02  C 
ATOM     12  CB  PRO C   2    -132.147  54.666  70.331  1.00 21.74 LIG 0.04  C 
BRANCH 8 13
ATOM     13  CA  LYS C   1    -136.398  55.575  68.420  1.00 25.81 LIG 0.28  C 
BRANCH 13 14
ATOM     14  N   LYS C   1    -136.865  56.621  67.517  1.00 28.38 LIG-0.07  N 
ATOM     15 H3   LYS C   1    -136.543  56.474  66.700  1.00 28.38 LIG 0.28  HD
ATOM     16 H2   LYS C   1    -136.582  57.414  67.808  1.00 28.38 LIG 0.28  HD
ATOM     17 H1   LYS C   1    -137.754  56.616  67.491  1.00 28.38 LIG 0.28  HD
ENDBRANCH 13 14
BRANCH 13 18
ATOM     18  CB  LYS C   1    -137.286  54.338  68.292  1.00 28.10 LIG 0.04  C 
BRANCH 18 19
ATOM     19  CG  LYS C   1    -136.760  53.111  69.011  1.00 29.36 LIG 0.00  C 
BRANCH 19 20
ATOM     20  CD  LYS C   1    -137.671  51.915  68.762  1.00 23.94 LIG 0.03  C 
BRANCH 20 21
ATOM     21  CE  LYS C   1    -138.048  51.784  67.298  1.00 22.49 LIG 0.23  C 
BRANCH 21 22
ATOM     22  NZ  LYS C   1    -139.175  50.833  67.159  1.00 23.53 LIG-0.08  N 
ATOM     23 HZ1  LYS C   1    -138.980  50.076  67.585  1.00 23.53 LIG 0.27  HD
ATOM     24 HZ2  LYS C   1    -139.910  51.190  67.510  1.00 23.53 LIG 0.27  HD
ATOM     25 HZ3  LYS C   1    -139.312  50.659  66.297  1.00 23.53 LIG 0.27  HD
ENDBRANCH 21 22
ENDBRANCH 20 21
ENDBRANCH 19 20
ENDBRANCH 18 19
ENDBRANCH 13 18
ENDBRANCH 8 13
ENDBRANCH 3 6
ENDBRANCH 1 2
BRANCH 1 26
ATOM     26  CB  HIS C   3    -135.045  50.533  68.146  1.00 14.42 LIG 0.10  C 
BRANCH 26 27
ATOM     27  CG  HIS C   3    -135.433  49.319  67.346  1.00 17.65 LIG 0.06  A 
ATOM     28 ND1  HIS C   3    -136.360  49.363  66.379  1.00 19.76 LIG-0.24  NA
ATOM     29  CE1 HIS C   3    -136.510  48.136  65.850  1.00 20.53 LIG 0.23  A 
ATOM     30 NE2  HIS C   3    -135.678  47.305  66.486  1.00 17.64 LIG-0.25  NA
ATOM     31  CD2 HIS C   3    -135.000  48.000  67.417  1.00 21.96 LIG 0.14  A 
ENDBRANCH 26 27
ENDBRANCH 1 26
BRANCH 1 32
ATOM     32  C   HIS C   3    -134.093  51.395  66.031  1.00 15.49 LIG 0.24  C 
ATOM     33  N   SER C   4    -135.132  52.088  65.580  1.00 15.13 LIG-0.34  N 
ATOM     34 H    SER C   4    -135.708  52.481  66.083  1.00 15.13 LIG 0.16  HD
ATOM     35 O    HIS C   3    -133.283  50.822  65.278  1.00 14.84 LIG-0.27  OA
BRANCH 33 36
ATOM     36  CA  SER C   4    -135.373  52.234  64.150  1.00 18.69 LIG 0.20  C 
BRANCH 36 37
ATOM     37  CB  SER C   4    -136.741  52.864  63.879  1.00 23.38 LIG 0.20  C 
BRANCH 37 38
ATOM     38 OG   SER C   4    -137.274  53.449  65.048  1.00 30.32 LIG-0.40  OA
ATOM     39 HG   SER C   4    -137.422  54.264  64.912  1.00 30.32 LIG 0.21  HD
ENDBRANCH 37 38
ENDBRANCH 36 37
BRANCH 36 40
ATOM     40  C   SER C   4    -134.263  53.039  63.477  1.00 18.90 LIG 0.24  C 
ATOM     41  N   ASP C   5    -133.779  52.553  62.338  1.00 17.72 LIG-0.34  N 
ATOM     42 H    ASP C   5    -134.023  51.806  61.990  1.00 17.72 LIG 0.16  HD
ATOM     43 O    SER C   4    -133.865  54.081  63.978  1.00 16.42 LIG-0.27  OA
BRANCH 41 44
ATOM     44  CA  ASP C   5    -132.768  53.280  61.577  1.00 16.40 LIG 0.20  C 
BRANCH 44 45
ATOM     45  CB  ASP C   5    -133.366  54.528  60.914  1.00 18.53 LIG 0.15  C 
BRANCH 45 46
ATOM     46  CG  ASP C   5    -134.292  54.199  59.756  1.00 25.22 LIG 0.17  C 
ATOM     47 OD2  ASP C   5    -133.838  54.310  58.598  1.00 28.97 LIG-0.65  OA
ATOM     48 OD1  ASP C   5    -135.458  53.817  59.995  1.00 27.70 LIG-0.65  OA
ENDBRANCH 45 46
ENDBRANCH 44 45
BRANCH 44 49
ATOM     49  C   ASP C   5    -131.602  53.692  62.461  1.00 17.83 LIG 0.20  C 
ATOM     50 O    ASP C   5    -131.224  52.963  63.389  1.00 18.34 LIG-0.65  OA
ATOM     51 OXT  ASP C   5    -130.995  54.757  62.266  1.00 17.06 LIG-0.65  OA
ENDBRANCH 44 49
ENDBRANCH 41 44
ENDBRANCH 36 40
ENDBRANCH 33 36
ENDBRANCH 1 32
TORSDOF 20
ENDMDL
MODEL 8
USER: ADFR SOLUTION from run 165
USER: SCORE 20.926985 LL:  -3.283 LR: -17.706 RR:   0.000 FEB: -11.740
USER: RMSD 6.946191
USER: SEED 164
USER: STATUS 1 or 2 clusters left
USER: GENES 22
USER: genes 0 Translation |==|  0.49116 0.45749 0.58462
USER: genes 1 Rotation |==|  0.88437 0.53983 0.32529 0.76486
USER: genes 2 Torsion [C]-CA--N-[C] |==|  0.80316
USER: genes 3 Torsion [N]-C--CA-[N] |==|  0.44359
USER: genes 4 Torsion [N]-C--CA-[N] |==|  0.40915
USER: genes 5 Torsion [C]-CA--N-[H2] |==|  0.99166
USER: genes 6 Torsion [C]-CA--CB-[CG] |==|  0.53859
USER: genes 7 Torsion [CA]-CB--CG-[CD] |==|  0.76636
USER: genes 8 Torsion [CB]-CG--CD-[CE] |==|  0.25450
USER: genes 9 Torsion [CG]-CD--CE-[NZ] |==|  0.57257
USER: genes 10 Torsion [CD]-CE--NZ-[HZ1] |==|  0.43596
USER: genes 11 Torsion [N]-CA--CB-[CG] |==|  0.46497
USER: genes 12 Torsion [CA]-CB--CG-[CD2] |==|  0.66417
USER: genes 13 Torsion [N]-CA--C-[N] |==|  0.90558
USER: genes 14 Torsion [C]-N--CA-[C] |==|  0.76123
USER: genes 15 Torsion [N]-CA--CB-[OG] |==|  0.90390
USER: genes 16 Torsion [CA]-CB--OG-[HG] |==|  0.51719
USER: genes 17 Torsion [N]-CA--C-[N] |==|  0.98532
USER: genes 18 Torsion [C]-N--CA-[CB] |==|  0.27118
USER: genes 19 Torsion [N]-CA--CB-[CG] |==|  0.64888
USER: genes 20 Torsion [CA]-CB--CG-[OD2] |==|  0.48459
USER: genes 21 Torsion [N]-CA--C-[O] |==|  0.06224
ROOT
ATOM      1  CA  HIS C   3    -134.066  47.713  65.289  1.00 14.15 LIG 0.18  C 
ENDROOT
BRANCH 1 2
ATOM      2  N   HIS C   3    -135.260  48.486  65.027  1.00 14.43 LIG-0.35  N 
ATOM      3  C   PRO C   2    -135.360  49.762  65.377  1.00 20.79 LIG 0.24  C 
ATOM      4 O    PRO C   2    -134.485  50.360  65.992  1.00 15.59 LIG-0.27  OA
ATOM      5 H    HIS C   3    -135.886  48.048  64.631  1.00 14.43 LIG 0.16  HD
BRANCH 3 6
ATOM      6  CA  PRO C   2    -136.641  50.485  64.971  1.00 18.69 LIG 0.18  C 
ATOM      7  N   PRO C   2    -136.858  51.681  65.786  1.00 22.33 LIG-0.34  N 
ATOM      8  C   LYS C   1    -137.029  51.580  67.098  1.00 22.74 LIG 0.25  C 
ATOM      9  CD  PRO C   2    -137.036  52.887  64.960  1.00 22.53 LIG 0.13  C 
ATOM     10 O    LYS C   1    -137.052  50.500  67.683  1.00 19.84 LIG-0.27  OA
ATOM     11  CG  PRO C   2    -137.245  52.330  63.584  1.00 25.33 LIG 0.02  C 
ATOM     12  CB  PRO C   2    -136.492  51.048  63.557  1.00 21.74 LIG 0.04  C 
BRANCH 8 13
ATOM     13  CA  LYS C   1    -137.151  52.882  67.887  1.00 25.81 LIG 0.28  C 
BRANCH 13 14
ATOM     14  N   LYS C   1    -138.045  52.699  69.026  1.00 28.38 LIG-0.07  N 
ATOM     15 H3   LYS C   1    -137.592  52.823  69.782  1.00 28.38 LIG 0.28  HD
ATOM     16 H2   LYS C   1    -138.379  51.874  69.013  1.00 28.38 LIG 0.28  HD
ATOM     17 H1   LYS C   1    -138.710  53.288  68.979  1.00 28.38 LIG 0.28  HD
ENDBRANCH 13 14
BRANCH 13 18
ATOM     18  CB  LYS C   1    -135.773  53.332  68.370  1.00 28.10 LIG 0.04  C 
BRANCH 18 19
ATOM     19  CG  LYS C   1    -135.804  54.415  69.430  1.00 29.36 LIG 0.00  C 
BRANCH 19 20
ATOM     20  CD  LYS C   1    -135.930  55.790  68.785  1.00 23.94 LIG 0.03  C 
BRANCH 20 21
ATOM     21  CE  LYS C   1    -137.379  56.219  68.642  1.00 22.49 LIG 0.23  C 
BRANCH 21 22
ATOM     22  NZ  LYS C   1    -137.505  57.172  67.516  1.00 23.53 LIG-0.08  N 
ATOM     23 HZ1  LYS C   1    -138.344  57.168  67.216  1.00 23.53 LIG 0.27  HD
ATOM     24 HZ2  LYS C   1    -137.294  57.991  67.794  1.00 23.53 LIG 0.27  HD
ATOM     25 HZ3  LYS C   1    -136.955  56.932  66.859  1.00 23.53 LIG 0.27  HD
ENDBRANCH 21 22
ENDBRANCH 20 21
ENDBRANCH 19 20
ENDBRANCH 18 19
ENDBRANCH 13 18
ENDBRANCH 8 13
ENDBRANCH 3 6
ENDBRANCH 1 2
BRANCH 1 26
ATOM     26  CB  HIS C   3    -134.354  46.227  65.125  1.00 14.42 LIG 0.10  C 
BRANCH 26 27
ATOM     27  CG  HIS C   3    -133.114  45.376  65.083  1.00 17.65 LIG 0.06  A 
ATOM     28 ND1  HIS C   3    -132.215  45.365  66.078  1.00 19.76 LIG-0.24  NA
ATOM     29  CE1 HIS C   3    -131.211  44.529  65.762  1.00 20.53 LIG 0.23  A 
ATOM     30 NE2  HIS C   3    -131.467  44.009  64.557  1.00 17.64 LIG-0.25  NA
ATOM     31  CD2 HIS C   3    -132.631  44.511  64.107  1.00 21.96 LIG 0.14  A 
ENDBRANCH 26 27
ENDBRANCH 1 26
BRANCH 1 32
ATOM     32  C   HIS C   3    -132.903  48.110  64.436  1.00 15.49 LIG 0.24  C 
ATOM     33  N   SER C   4    -133.185  48.512  63.201  1.00 15.13 LIG-0.34  N 
ATOM     34 H    SER C   4    -133.977  48.535  62.867  1.00 15.13 LIG 0.16  HD
ATOM     35 O    HIS C   3    -131.744  48.072  64.887  1.00 14.84 LIG-0.27  OA
BRANCH 33 36
ATOM     36  CA  SER C   4    -132.131  48.955  62.298  1.00 18.69 LIG 0.20  C 
BRANCH 36 37
ATOM     37  CB  SER C   4    -132.491  48.663  60.839  1.00 23.38 LIG 0.20  C 
BRANCH 37 38
ATOM     38 OG   SER C   4    -133.224  47.462  60.725  1.00 30.32 LIG-0.40  OA
ATOM     39 HG   SER C   4    -133.337  47.278  59.914  1.00 30.32 LIG 0.21  HD
ENDBRANCH 37 38
ENDBRANCH 36 37
BRANCH 36 40
ATOM     40  C   SER C   4    -131.817  50.436  62.492  1.00 18.90 LIG 0.24  C 
ATOM     41  N   ASP C   5    -132.593  51.106  63.338  1.00 17.72 LIG-0.34  N 
ATOM     42 H    ASP C   5    -133.272  50.767  63.742  1.00 17.72 LIG 0.16  HD
ATOM     43 O    SER C   4    -130.885  50.954  61.893  1.00 16.42 LIG-0.27  OA
BRANCH 41 44
ATOM     44  CA  ASP C   5    -132.335  52.508  63.651  1.00 16.40 LIG 0.20  C 
BRANCH 44 45
ATOM     45  CB  ASP C   5    -133.223  53.435  62.810  1.00 18.53 LIG 0.15  C 
BRANCH 45 46
ATOM     46  CG  ASP C   5    -132.430  54.487  62.052  1.00 25.22 LIG 0.17  C 
ATOM     47 OD2  ASP C   5    -133.052  55.222  61.256  1.00 28.97 LIG-0.65  OA
ATOM     48 OD1  ASP C   5    -131.203  54.593  62.258  1.00 27.70 LIG-0.65  OA
ENDBRANCH 45 46
ENDBRANCH 44 45
BRANCH 44 49
ATOM     49  C   ASP C   5    -132.569  52.796  65.126  1.00 17.83 LIG 0.20  C 
ATOM     50 O    ASP C   5    -132.522  51.883  65.962  1.00 18.34 LIG-0.65  OA
ATOM     51 OXT  ASP C   5    -132.795  53.949  65.525  1.00 17.06 LIG-0.65  OA
ENDBRANCH 44 49
ENDBRANCH 41 44
ENDBRANCH 36 40
ENDBRANCH 33 36
ENDBRANCH 1 32
TORSDOF 20
ENDMDL
MODEL 9
USER: ADFR SOLUTION from run 87
USER: SCORE 19.921705 LL:  -2.652 LR: -17.585 RR:   0.000 FEB: -11.619
USER: RMSD 6.598564
USER: SEED 86
USER: STATUS searching
USER: GENES 22
USER: genes 0 Translation |==|  0.59630 0.53668 0.53881
USER: genes 1 Rotation |==|  0.68387 0.72506 0.33212 0.87062
USER: genes 2 Torsion [C]-CA--N-[C] |==|  0.69459
USER: genes 3 Torsion [N]-C--CA-[N] |==|  0.58070
USER: genes 4 Torsion [N]-C--CA-[N] |==|  0.29946
USER: genes 5 Torsion [C]-CA--N-[H2] |==|  0.14005
USER: genes 6 Torsion [C]-CA--CB-[CG] |==|  0.71924
USER: genes 7 Torsion [CA]-CB--CG-[CD] |==|  0.60111
USER: genes 8 Torsion [CB]-CG--CD-[CE] |==|  0.19169
USER: genes 9 Torsion [CG]-CD--CE-[NZ] |==|  0.64441
USER: genes 10 Torsion [CD]-CE--NZ-[HZ1] |==|  0.32806
USER: genes 11 Torsion [N]-CA--CB-[CG] |==|  0.11535
USER: genes 12 Torsion [CA]-CB--CG-[CD2] |==|  0.66382
USER: genes 13 Torsion [N]-CA--C-[N] |==|  0.99639
USER: genes 14 Torsion [C]-N--CA-[C] |==|  0.86289
USER: genes 15 Torsion [N]-CA--CB-[OG] |==|  0.08185
USER: genes 16 Torsion [CA]-CB--OG-[HG] |==|  0.07395
USER: genes 17 Torsion [N]-CA--C-[N] |==|  0.90758
USER: genes 18 Torsion [C]-N--CA-[CB] |==|  0.30790
USER: genes 19 Torsion [N]-CA--CB-[CG] |==|  0.81971
USER: genes 20 Torsion [CA]-CB--CG-[OD2] |==|  0.29612
USER: genes 21 Torsion [N]-CA--C-[O] |==|  0.45676
ROOT
ATOM      1  CA  HIS C   3    -132.331  49.317  64.465  1.00 14.15 LIG 0.18  C 
ENDROOT
BRANCH 1 2
ATOM      2  N   HIS C   3    -133.629  48.975  65.004  1.00 14.43 LIG-0.35  N 
ATOM      3  C   PRO C   2    -134.297  49.801  65.799  1.00 20.79 LIG 0.24  C 
ATOM      4 O    PRO C   2    -133.849  50.876  66.180  1.00 15.59 LIG-0.27  OA
ATOM      5 H    HIS C   3    -133.919  48.201  64.766  1.00 14.43 LIG 0.16  HD
BRANCH 3 6
ATOM      6  CA  PRO C   2    -135.690  49.355  66.235  1.00 18.69 LIG 0.18  C 
ATOM      7  N   PRO C   2    -136.562  50.504  66.485  1.00 22.33 LIG-0.34  N 
ATOM      8  C   LYS C   1    -136.267  51.379  67.437  1.00 22.74 LIG 0.25  C 
ATOM      9  CD  PRO C   2    -137.811  50.427  65.708  1.00 22.53 LIG 0.13  C 
ATOM     10 O    LYS C   1    -135.289  51.257  68.170  1.00 19.84 LIG-0.27  OA
ATOM     11  CG  PRO C   2    -137.818  49.012  65.212  1.00 25.33 LIG 0.02  C 
ATOM     12  CB  PRO C   2    -136.386  48.631  65.083  1.00 21.74 LIG 0.04  C 
BRANCH 8 13
ATOM     13  CA  LYS C   1    -137.175  52.599  67.567  1.00 25.81 LIG 0.28  C 
BRANCH 13 14
ATOM     14  N   LYS C   1    -138.001  52.488  68.765  1.00 28.38 LIG-0.07  N 
ATOM     15 H3   LYS C   1    -138.423  53.259  68.908  1.00 28.38 LIG 0.28  HD
ATOM     16 H2   LYS C   1    -137.485  52.298  69.466  1.00 28.38 LIG 0.28  HD
ATOM     17 H1   LYS C   1    -138.599  51.839  68.654  1.00 28.38 LIG 0.28  HD
ENDBRANCH 13 14
BRANCH 13 18
ATOM     18  CB  LYS C   1    -136.334  53.874  67.629  1.00 28.10 LIG 0.04  C 
BRANCH 18 19
ATOM     19  CG  LYS C   1    -136.154  54.439  69.024  1.00 29.36 LIG 0.00  C 
BRANCH 19 20
ATOM     20  CD  LYS C   1    -136.158  55.962  68.987  1.00 23.94 LIG 0.03  C 
BRANCH 20 21
ATOM     21  CE  LYS C   1    -137.527  56.518  68.641  1.00 22.49 LIG 0.23  C 
BRANCH 21 22
ATOM     22  NZ  LYS C   1    -137.405  57.474  67.516  1.00 23.53 LIG-0.08  N 
ATOM     23 HZ1  LYS C   1    -137.874  57.176  66.820  1.00 23.53 LIG 0.27  HD
ATOM     24 HZ2  LYS C   1    -137.718  58.269  67.766  1.00 23.53 LIG 0.27  HD
ATOM     25 HZ3  LYS C   1    -136.549  57.553  67.284  1.00 23.53 LIG 0.27  HD
ENDBRANCH 21 22
ENDBRANCH 20 21
ENDBRANCH 19 20
ENDBRANCH 18 19
ENDBRANCH 13 18
ENDBRANCH 8 13
ENDBRANCH 3 6
ENDBRANCH 1 2
BRANCH 1 26
ATOM     26  CB  HIS C   3    -131.321  48.226  64.792  1.00 14.42 LIG 0.10  C 
BRANCH 26 27
ATOM     27  CG  HIS C   3    -131.868  46.833  64.634  1.00 17.65 LIG 0.06  A 
ATOM     28 ND1  HIS C   3    -132.378  46.388  63.477  1.00 19.76 LIG-0.24  NA
ATOM     29  CE1 HIS C   3    -132.801  45.122  63.634  1.00 20.53 LIG 0.23  A 
ATOM     30 NE2  HIS C   3    -132.565  44.759  64.899  1.00 17.64 LIG-0.25  NA
ATOM     31  CD2 HIS C   3    -131.992  45.791  65.546  1.00 21.96 LIG 0.14  A 
ENDBRANCH 26 27
ENDBRANCH 1 26
BRANCH 1 32
ATOM     32  C   HIS C   3    -132.351  49.576  62.991  1.00 15.49 LIG 0.24  C 
ATOM     33  N   SER C   4    -133.524  49.436  62.381  1.00 15.13 LIG-0.34  N 
ATOM     34 H    SER C   4    -134.248  49.190  62.774  1.00 15.13 LIG 0.16  HD
ATOM     35 O    HIS C   3    -131.314  49.918  62.394  1.00 14.84 LIG-0.27  OA
BRANCH 33 36
ATOM     36  CA  SER C   4    -133.663  49.699  60.955  1.00 18.69 LIG 0.20  C 
BRANCH 36 37
ATOM     37  CB  SER C   4    -135.128  49.625  60.518  1.00 23.38 LIG 0.20  C 
BRANCH 37 38
ATOM     38 OG   SER C   4    -135.994  49.990  61.572  1.00 30.32 LIG-0.40  OA
ATOM     39 HG   SER C   4    -135.593  50.508  62.098  1.00 30.32 LIG 0.21  HD
ENDBRANCH 37 38
ENDBRANCH 36 37
BRANCH 36 40
ATOM     40  C   SER C   4    -133.051  51.045  60.574  1.00 18.90 LIG 0.24  C 
ATOM     41  N   ASP C   5    -133.126  52.014  61.481  1.00 17.72 LIG-0.34  N 
ATOM     42 H    ASP C   5    -133.528  51.937  62.237  1.00 17.72 LIG 0.16  HD
ATOM     43 O    SER C   4    -132.515  51.194  59.485  1.00 16.42 LIG-0.27  OA
BRANCH 41 44
ATOM     44  CA  ASP C   5    -132.510  53.316  61.248  1.00 16.40 LIG 0.20  C 
BRANCH 44 45
ATOM     45  CB  ASP C   5    -133.575  54.405  61.056  1.00 18.53 LIG 0.15  C 
BRANCH 45 46
ATOM     46  CG  ASP C   5    -134.415  54.197  59.807  1.00 25.22 LIG 0.17  C 
ATOM     47 OD2  ASP C   5    -135.591  53.804  59.956  1.00 28.97 LIG-0.65  OA
ATOM     48 OD1  ASP C   5    -133.916  54.439  58.687  1.00 27.70 LIG-0.65  OA
ENDBRANCH 45 46
ENDBRANCH 44 45
BRANCH 44 49
ATOM     49  C   ASP C   5    -131.597  53.708  62.398  1.00 17.83 LIG 0.20  C 
ATOM     50 O    ASP C   5    -130.773  54.624  62.266  1.00 18.34 LIG-0.65  OA
ATOM     51 OXT  ASP C   5    -131.664  53.133  63.496  1.00 17.06 LIG-0.65  OA
ENDBRANCH 44 49
ENDBRANCH 41 44
ENDBRANCH 36 40
ENDBRANCH 33 36
ENDBRANCH 1 32
TORSDOF 20
ENDMDL
MODEL 10
USER: ADFR SOLUTION from run 131
USER: SCORE 19.688910 LL:  -2.566 LR: -17.539 RR:   0.000 FEB: -11.573
USER: RMSD 6.032154
USER: SEED 130
USER: STATUS no improvement in best in 1 clusters for 5 generations
USER: GENES 22
USER: genes 0 Translation |==|  0.48812 0.70078 0.67068
USER: genes 1 Rotation |==|  0.60155 0.81866 0.52231 0.87100
USER: genes 2 Torsion [C]-CA--N-[C] |==|  0.17437
USER: genes 3 Torsion [N]-C--CA-[N] |==|  0.15063
USER: genes 4 Torsion [N]-C--CA-[N] |==|  0.48152
USER: genes 5 Torsion [C]-CA--N-[H2] |==|  0.24479
USER: genes 6 Torsion [C]-CA--CB-[CG] |==|  0.89533
USER: genes 7 Torsion [CA]-CB--CG-[CD] |==|  0.75006
USER: genes 8 Torsion [CB]-CG--CD-[CE] |==|  0.33396
USER: genes 9 Torsion [CG]-CD--CE-[NZ] |==|  0.47518
USER: genes 10 Torsion [CD]-CE--NZ-[HZ1] |==|  0.21655
USER: genes 11 Torsion [N]-CA--CB-[CG] |==|  0.63455
USER: genes 12 Torsion [CA]-CB--CG-[CD2] |==|  0.34155
USER: genes 13 Torsion [N]-CA--C-[N] |==|  0.03912
USER: genes 14 Torsion [C]-N--CA-[C] |==|  0.16725
USER: genes 15 Torsion [N]-CA--CB-[OG] |==|  0.72457
USER: genes 16 Torsion [CA]-CB--OG-[HG] |==|  0.44183
USER: genes 17 Torsion [N]-CA--C-[N] |==|  0.06513
USER: genes 18 Torsion [C]-N--CA-[CB] |==|  0.16523
USER: genes 19 Torsion [N]-CA--CB-[CG] |==|  0.16199
USER: genes 20 Torsion [CA]-CB--CG-[OD2] |==|  0.51107
USER: genes 21 Torsion [N]-CA--C-[O] |==|  0.58283
ROOT
ATOM      1  CA  HIS C   3    -134.116  52.640  66.838  1.00 14.15 LIG 0.18  C 
ENDROOT
BRANCH 1 2
ATOM      2  N   HIS C   3    -134.577  51.341  67.279  1.00 14.43 LIG-0.35  N 
ATOM      3  C   PRO C   2    -134.245  50.226  66.642  1.00 20.79 LIG 0.24  C 
ATOM      4 O    PRO C   2    -133.581  50.213  65.613  1.00 15.59 LIG-0.27  OA
ATOM      5 H    HIS C   3    -135.077  51.363  67.979  1.00 14.43 LIG 0.16  HD
BRANCH 3 6
ATOM      6  CA  PRO C   2    -134.731  48.916  67.256  1.00 18.69 LIG 0.18  C 
ATOM      7  N   PRO C   2    -136.181  48.931  67.463  1.00 22.33 LIG-0.34  N 
ATOM      8  C   LYS C   1    -136.736  49.816  68.281  1.00 22.74 LIG 0.25  C 
ATOM      9  CD  PRO C   2    -136.840  47.780  66.823  1.00 22.53 LIG 0.13  C 
ATOM     10 O    LYS C   1    -136.076  50.629  68.925  1.00 19.84 LIG-0.27  OA
ATOM     11  CG  PRO C   2    -135.694  46.873  66.488  1.00 25.33 LIG 0.02  C 
ATOM     12  CB  PRO C   2    -134.531  47.773  66.263  1.00 21.74 LIG 0.04  C 
BRANCH 8 13
ATOM     13  CA  LYS C   1    -138.260  49.828  68.364  1.00 25.81 LIG 0.28  C 
BRANCH 13 14
ATOM     14  N   LYS C   1    -138.701  50.740  69.414  1.00 28.38 LIG-0.07  N 
ATOM     15 H3   LYS C   1    -139.484  50.465  69.737  1.00 28.38 LIG 0.28  HD
ATOM     16 H2   LYS C   1    -138.790  51.560  69.078  1.00 28.38 LIG 0.28  HD
ATOM     17 H1   LYS C   1    -138.098  50.753  70.068  1.00 28.38 LIG 0.28  HD
ENDBRANCH 13 14
BRANCH 13 18
ATOM     18  CB  LYS C   1    -138.854  50.250  67.020  1.00 28.10 LIG 0.04  C 
BRANCH 18 19
ATOM     19  CG  LYS C   1    -138.072  51.331  66.301  1.00 29.36 LIG 0.00  C 
BRANCH 19 20
ATOM     20  CD  LYS C   1    -138.574  52.711  66.707  1.00 23.94 LIG 0.03  C 
BRANCH 20 21
ATOM     21  CE  LYS C   1    -137.480  53.550  67.340  1.00 22.49 LIG 0.23  C 
BRANCH 21 22
ATOM     22  NZ  LYS C   1    -137.958  54.941  67.516  1.00 23.53 LIG-0.08  N 
ATOM     23 HZ1  LYS C   1    -138.492  54.984  68.226  1.00 23.53 LIG 0.27  HD
ATOM     24 HZ2  LYS C   1    -137.261  55.481  67.636  1.00 23.53 LIG 0.27  HD
ATOM     25 HZ3  LYS C   1    -138.408  55.194  66.791  1.00 23.53 LIG 0.27  HD
ENDBRANCH 21 22
ENDBRANCH 20 21
ENDBRANCH 19 20
ENDBRANCH 18 19
ENDBRANCH 13 18
ENDBRANCH 8 13
ENDBRANCH 3 6
ENDBRANCH 1 2
BRANCH 1 26
ATOM     26  CB  HIS C   3    -132.596  52.703  66.885  1.00 14.42 LIG 0.10  C 
BRANCH 26 27
ATOM     27  CG  HIS C   3    -132.066  53.935  67.568  1.00 17.65 LIG 0.06  A 
ATOM     28 ND1  HIS C   3    -132.362  55.173  67.147  1.00 19.76 LIG-0.24  NA
ATOM     29  CE1 HIS C   3    -131.741  56.070  67.932  1.00 20.53 LIG 0.23  A 
ATOM     30 NE2  HIS C   3    -131.042  55.401  68.855  1.00 17.64 LIG-0.25  NA
ATOM     31  CD2 HIS C   3    -131.217  54.082  68.659  1.00 21.96 LIG 0.14  A 
ENDBRANCH 26 27
ENDBRANCH 1 26
BRANCH 1 32
ATOM     32  C   HIS C   3    -134.606  53.011  65.474  1.00 15.49 LIG 0.24  C 
ATOM     33  N   SER C   4    -135.597  52.277  64.981  1.00 15.13 LIG-0.34  N 
ATOM     34 H    SER C   4    -135.950  51.604  65.384  1.00 15.13 LIG 0.16  HD
ATOM     35 O    HIS C   3    -134.103  53.970  64.860  1.00 14.84 LIG-0.27  OA
BRANCH 33 36
ATOM     36  CA  SER C   4    -136.173  52.575  63.676  1.00 18.69 LIG 0.20  C 
BRANCH 36 37
ATOM     37  CB  SER C   4    -136.848  53.949  63.669  1.00 23.38 LIG 0.20  C 
BRANCH 37 38
ATOM     38 OG   SER C   4    -138.244  53.833  63.834  1.00 30.32 LIG-0.40  OA
ATOM     39 HG   SER C   4    -138.556  54.562  64.110  1.00 30.32 LIG 0.21  HD
ENDBRANCH 37 38
ENDBRANCH 36 37
BRANCH 36 40
ATOM     40  C   SER C   4    -135.125  52.480  62.570  1.00 18.90 LIG 0.24  C 
ATOM     41  N   ASP C   5    -134.063  51.720  62.816  1.00 17.72 LIG-0.34  N 
ATOM     42 H    ASP C   5    -133.917  51.322  63.563  1.00 17.72 LIG 0.16  HD
ATOM     43 O    SER C   4    -135.285  53.077  61.514  1.00 16.42 LIG-0.27  OA
BRANCH 41 44
ATOM     44  CA  ASP C   5    -133.037  51.504  61.800  1.00 16.40 LIG 0.20  C 
BRANCH 44 45
ATOM     45  CB  ASP C   5    -132.405  52.831  61.360  1.00 18.53 LIG 0.15  C 
BRANCH 45 46
ATOM     46  CG  ASP C   5    -131.775  53.598  62.510  1.00 25.22 LIG 0.17  C 
ATOM     47 OD2  ASP C   5    -131.301  54.727  62.266  1.00 28.97 LIG-0.65  OA
ATOM     48 OD1  ASP C   5    -131.766  53.089  63.651  1.00 27.70 LIG-0.65  OA
ENDBRANCH 45 46
ENDBRANCH 44 45
BRANCH 44 49
ATOM     49  C   ASP C   5    -131.946  50.575  62.308  1.00 17.83 LIG 0.20  C 
ATOM     50 O    ASP C   5    -130.784  50.679  61.891  1.00 18.34 LIG-0.65  OA
ATOM     51 OXT  ASP C   5    -132.190  49.704  63.158  1.00 17.06 LIG-0.65  OA
ENDBRANCH 44 49
ENDBRANCH 41 44
ENDBRANCH 36 40
ENDBRANCH 33 36
ENDBRANCH 1 32
TORSDOF 20
ENDMDL
MODEL 11
USER: ADFR SOLUTION from run 59
USER: SCORE 19.172597 LL:  -2.569 LR: -17.487 RR:   0.000 FEB: -11.521
USER: RMSD 6.553009
USER: SEED 58
USER: STATUS no improvement in best in 3 clusters for 5 generations
USER: GENES 22
USER: genes 0 Translation |==|  0.51055 0.40296 0.57059
USER: genes 1 Rotation |==|  0.09784 0.32736 0.74021 0.52761
USER: genes 2 Torsion [C]-CA--N-[C] |==|  0.18361
USER: genes 3 Torsion [N]-C--CA-[N] |==|  0.45374
USER: genes 4 Torsion [N]-C--CA-[N] |==|  0.18419
USER: genes 5 Torsion [C]-CA--N-[H2] |==|  0.15867
USER: genes 6 Torsion [C]-CA--CB-[CG] |==|  0.52461
USER: genes 7 Torsion [CA]-CB--CG-[CD] |==|  0.29791
USER: genes 8 Torsion [CB]-CG--CD-[CE] |==|  0.51866
USER: genes 9 Torsion [CG]-CD--CE-[NZ] |==|  0.80903
USER: genes 10 Torsion [CD]-CE--NZ-[HZ1] |==|  0.85064
USER: genes 11 Torsion [N]-CA--CB-[CG] |==|  0.85763
USER: genes 12 Torsion [CA]-CB--CG-[CD2] |==|  0.27362
USER: genes 13 Torsion [N]-CA--C-[N] |==|  0.52945
USER: genes 14 Torsion [C]-N--CA-[C] |==|  0.83191
USER: genes 15 Torsion [N]-CA--CB-[OG] |==|  0.84825
USER: genes 16 Torsion [CA]-CB--OG-[HG] |==|  0.45280
USER: genes 17 Torsion [N]-CA--C-[N] |==|  0.39444
USER: genes 18 Torsion [C]-N--CA-[CB] |==|  0.20483
USER: genes 19 Torsion [N]-CA--CB-[CG] |==|  0.16312
USER: genes 20 Torsion [CA]-CB--CG-[OD2] |==|  0.75911
USER: genes 21 Torsion [N]-CA--C-[O] |==|  0.92208
ROOT
ATOM      1  CA  HIS C   3    -133.746  46.609  65.037  1.00 14.15 LIG 0.18  C 
ENDROOT
BRANCH 1 2
ATOM      2  N   HIS C   3    -134.516  46.915  66.223  1.00 14.43 LIG-0.35  N 
ATOM      3  C   PRO C   2    -135.494  47.812  66.211  1.00 20.79 LIG 0.24  C 
ATOM      4 O    PRO C   2    -135.778  48.483  65.226  1.00 15.59 LIG-0.27  OA
ATOM      5 H    HIS C   3    -134.283  46.469  66.920  1.00 14.43 LIG 0.16  HD
BRANCH 3 6
ATOM      6  CA  PRO C   2    -136.281  47.983  67.507  1.00 18.69 LIG 0.18  C 
ATOM      7  N   PRO C   2    -137.043  49.233  67.505  1.00 22.33 LIG-0.34  N 
ATOM      8  C   LYS C   1    -136.420  50.402  67.432  1.00 22.74 LIG 0.25  C 
ATOM      9  CD  PRO C   2    -138.474  49.006  67.774  1.00 22.53 LIG 0.13  C 
ATOM     10 O    LYS C   1    -135.196  50.499  67.399  1.00 19.84 LIG-0.27  OA
ATOM     11  CG  PRO C   2    -138.509  47.591  68.267  1.00 25.33 LIG 0.02  C 
ATOM     12  CB  PRO C   2    -137.367  46.911  67.598  1.00 21.74 LIG 0.04  C 
BRANCH 8 13
ATOM     13  CA  LYS C   1    -137.292  51.651  67.336  1.00 25.81 LIG 0.28  C 
BRANCH 13 14
ATOM     14  N   LYS C   1    -138.045  51.835  68.573  1.00 28.38 LIG-0.07  N 
ATOM     15 H3   LYS C   1    -138.518  52.588  68.523  1.00 28.38 LIG 0.28  HD
ATOM     16 H2   LYS C   1    -137.481  51.884  69.260  1.00 28.38 LIG 0.28  HD
ATOM     17 H1   LYS C   1    -138.595  51.146  68.691  1.00 28.38 LIG 0.28  HD
ENDBRANCH 13 14
BRANCH 13 18
ATOM     18  CB  LYS C   1    -136.422  52.877  67.066  1.00 28.10 LIG 0.04  C 
BRANCH 18 19
ATOM     19  CG  LYS C   1    -137.156  54.200  67.162  1.00 29.36 LIG 0.00  C 
BRANCH 19 20
ATOM     20  CD  LYS C   1    -136.749  54.946  68.426  1.00 23.94 LIG 0.03  C 
BRANCH 20 21
ATOM     21  CE  LYS C   1    -137.582  56.196  68.641  1.00 22.49 LIG 0.23  C 
BRANCH 21 22
ATOM     22  NZ  LYS C   1    -137.250  57.199  67.603  1.00 23.53 LIG-0.08  N 
ATOM     23 HZ1  LYS C   1    -136.371  57.339  67.596  1.00 23.53 LIG 0.27  HD
ATOM     24 HZ2  LYS C   1    -137.508  56.899  66.806  1.00 23.53 LIG 0.27  HD
ATOM     25 HZ3  LYS C   1    -137.670  57.963  67.782  1.00 23.53 LIG 0.27  HD
ENDBRANCH 21 22
ENDBRANCH 20 21
ENDBRANCH 19 20
ENDBRANCH 18 19
ENDBRANCH 13 18
ENDBRANCH 8 13
ENDBRANCH 3 6
ENDBRANCH 1 2
BRANCH 1 26
ATOM     26  CB  HIS C   3    -134.665  46.134  63.920  1.00 14.42 LIG 0.10  C 
BRANCH 26 27
ATOM     27  CG  HIS C   3    -135.594  45.027  64.337  1.00 17.65 LIG 0.06  A 
ATOM     28 ND1  HIS C   3    -135.216  43.741  64.359  1.00 19.76 LIG-0.24  NA
ATOM     29  CE1 HIS C   3    -136.251  42.979  64.754  1.00 20.53 LIG 0.23  A 
ATOM     30 NE2  HIS C   3    -137.295  43.782  64.982  1.00 17.64 LIG-0.25  NA
ATOM     31  CD2 HIS C   3    -136.927  45.052  64.731  1.00 21.96 LIG 0.14  A 
ENDBRANCH 26 27
ENDBRANCH 1 26
BRANCH 1 32
ATOM     32  C   HIS C   3    -132.907  47.753  64.563  1.00 15.49 LIG 0.24  C 
ATOM     33  N   SER C   4    -132.345  47.621  63.366  1.00 15.13 LIG-0.34  N 
ATOM     34 H    SER C   4    -132.419  46.922  62.871  1.00 15.13 LIG 0.16  HD
ATOM     35 O    HIS C   3    -132.770  48.772  65.266  1.00 14.84 LIG-0.27  OA
BRANCH 33 36
ATOM     36  CA  SER C   4    -131.538  48.690  62.794  1.00 18.69 LIG 0.20  C 
BRANCH 36 37
ATOM     37  CB  SER C   4    -130.909  48.260  61.467  1.00 23.38 LIG 0.20  C 
BRANCH 37 38
ATOM     38 OG   SER C   4    -130.170  47.067  61.615  1.00 30.32 LIG-0.40  OA
ATOM     39 HG   SER C   4    -130.032  46.726  60.860  1.00 30.32 LIG 0.21  HD
ENDBRANCH 37 38
ENDBRANCH 36 37
BRANCH 36 40
ATOM     40  C   SER C   4    -132.353  49.970  62.618  1.00 18.90 LIG 0.24  C 
ATOM     41  N   ASP C   5    -131.727  51.115  62.868  1.00 17.72 LIG-0.34  N 
ATOM     42 H    ASP C   5    -130.920  51.172  63.158  1.00 17.72 LIG 0.16  HD
ATOM     43 O    SER C   4    -133.519  49.915  62.253  1.00 16.42 LIG-0.27  OA
BRANCH 41 44
ATOM     44  CA  ASP C   5    -132.391  52.399  62.662  1.00 16.40 LIG 0.20  C 
BRANCH 44 45
ATOM     45  CB  ASP C   5    -133.435  52.664  63.755  1.00 18.53 LIG 0.15  C 
BRANCH 45 46
ATOM     46  CG  ASP C   5    -132.841  52.669  65.153  1.00 25.22 LIG 0.17  C 
ATOM     47 OD2  ASP C   5    -132.745  51.575  65.748  1.00 28.97 LIG-0.65  OA
ATOM     48 OD1  ASP C   5    -132.458  53.749  65.651  1.00 27.70 LIG-0.65  OA
ENDBRANCH 45 46
ENDBRANCH 44 45
BRANCH 44 49
ATOM     49  C   ASP C   5    -131.388  53.541  62.641  1.00 17.83 LIG 0.20  C 
ATOM     50 O    ASP C   5    -130.321  53.457  63.266  1.00 18.34 LIG-0.65  OA
ATOM     51 OXT  ASP C   5    -131.606  54.574  61.989  1.00 17.06 LIG-0.65  OA
ENDBRANCH 44 49
ENDBRANCH 41 44
ENDBRANCH 36 40
ENDBRANCH 33 36
ENDBRANCH 1 32
TORSDOF 20
ENDMDL
MODEL 12
USER: ADFR SOLUTION from run 34
USER: SCORE 19.427668 LL:  -2.254 LR: -17.382 RR:   0.000 FEB: -11.416
USER: RMSD 7.457054
USER: SEED 33
USER: STATUS no improvement in best in 7 clusters for 5 generations
USER: GENES 22
USER: genes 0 Translation |==|  0.52378 0.70078 0.62219
USER: genes 1 Rotation |==|  0.72842 0.66408 0.09975 0.60347
USER: genes 2 Torsion [C]-CA--N-[C] |==|  0.75463
USER: genes 3 Torsion [N]-C--CA-[N] |==|  0.99663
USER: genes 4 Torsion [N]-C--CA-[N] |==|  0.46481
USER: genes 5 Torsion [C]-CA--N-[H2] |==|  0.56503
USER: genes 6 Torsion [C]-CA--CB-[CG] |==|  0.78009
USER: genes 7 Torsion [CA]-CB--CG-[CD] |==|  0.47241
USER: genes 8 Torsion [CB]-CG--CD-[CE] |==|  0.02567
USER: genes 9 Torsion [CG]-CD--CE-[NZ] |==|  0.16895
USER: genes 10 Torsion [CD]-CE--NZ-[HZ1] |==|  0.61350
USER: genes 11 Torsion [N]-CA--CB-[CG] |==|  0.59633
USER: genes 12 Torsion [CA]-CB--CG-[CD2] |==|  0.49805
USER: genes 13 Torsion [N]-CA--C-[N] |==|  0.36161
USER: genes 14 Torsion [C]-N--CA-[C] |==|  0.66075
USER: genes 15 Torsion [N]-CA--CB-[OG] |==|  0.18799
USER: genes 16 Torsion [CA]-CB--OG-[HG] |==|  0.22404
USER: genes 17 Torsion [N]-CA--C-[N] |==|  0.44388
USER: genes 18 Torsion [C]-N--CA-[CB] |==|  0.47056
USER: genes 19 Torsion [N]-CA--CB-[CG] |==|  0.03889
USER: genes 20 Torsion [CA]-CB--CG-[OD2] |==|  0.27876
USER: genes 21 Torsion [N]-CA--C-[O] |==|  0.86072
ROOT
ATOM      1  CA  HIS C   3    -133.528  52.640  65.965  1.00 14.15 LIG 0.18  C 
ENDROOT
BRANCH 1 2
ATOM      2  N   HIS C   3    -133.729  53.507  67.106  1.00 14.43 LIG-0.35  N 
ATOM      3  C   PRO C   2    -132.788  54.344  67.525  1.00 20.79 LIG 0.24  C 
ATOM      4 O    PRO C   2    -131.672  54.404  67.024  1.00 15.59 LIG-0.27  OA
ATOM      5 H    HIS C   3    -134.501  53.430  67.477  1.00 14.43 LIG 0.16  HD
BRANCH 3 6
ATOM      6  CA  PRO C   2    -133.157  55.261  68.688  1.00 18.69 LIG 0.18  C 
ATOM      7  N   PRO C   2    -134.541  55.049  69.113  1.00 22.33 LIG-0.34  N 
ATOM      8  C   LYS C   1    -135.546  55.283  68.279  1.00 22.74 LIG 0.25  C 
ATOM      9  CD  PRO C   2    -134.636  54.752  70.553  1.00 22.53 LIG 0.13  C 
ATOM     10 O    LYS C   1    -135.376  55.715  67.141  1.00 19.84 LIG-0.27  OA
ATOM     11  CG  PRO C   2    -133.274  55.111  71.066  1.00 25.33 LIG 0.02  C 
ATOM     12  CB  PRO C   2    -132.347  54.877  69.926  1.00 21.74 LIG 0.04  C 
BRANCH 8 13
ATOM     13  CA  LYS C   1    -136.951  54.944  68.769  1.00 25.81 LIG 0.28  C 
BRANCH 13 14
ATOM     14  N   LYS C   1    -137.950  55.526  67.878  1.00 28.38 LIG-0.07  N 
ATOM     15 H3   LYS C   1    -137.665  56.320  67.591  1.00 28.38 LIG 0.28  HD
ATOM     16 H2   LYS C   1    -138.718  55.628  68.317  1.00 28.38 LIG 0.28  HD
ATOM     17 H1   LYS C   1    -138.076  54.987  67.181  1.00 28.38 LIG 0.28  HD
ENDBRANCH 13 14
BRANCH 13 18
ATOM     18  CB  LYS C   1    -137.131  53.428  68.837  1.00 28.10 LIG 0.04  C 
BRANCH 18 19
ATOM     19  CG  LYS C   1    -137.407  52.769  67.500  1.00 29.36 LIG 0.00  C 
BRANCH 19 20
ATOM     20  CD  LYS C   1    -137.327  51.253  67.626  1.00 23.94 LIG 0.03  C 
BRANCH 20 21
ATOM     21  CE  LYS C   1    -137.221  50.808  69.073  1.00 22.49 LIG 0.23  C 
BRANCH 21 22
ATOM     22  NZ  LYS C   1    -138.420  51.254  69.819  1.00 23.53 LIG-0.08  N 
ATOM     23 HZ1  LYS C   1    -138.177  51.548  70.623  1.00 23.53 LIG 0.27  HD
ATOM     24 HZ2  LYS C   1    -138.821  51.910  69.372  1.00 23.53 LIG 0.27  HD
ATOM     25 HZ3  LYS C   1    -138.984  50.571  69.912  1.00 23.53 LIG 0.27  HD
ENDBRANCH 21 22
ENDBRANCH 20 21
ENDBRANCH 19 20
ENDBRANCH 18 19
ENDBRANCH 13 18
ENDBRANCH 8 13
ENDBRANCH 3 6
ENDBRANCH 1 2
BRANCH 1 26
ATOM     26  CB  HIS C   3    -134.290  51.336  66.154  1.00 14.42 LIG 0.10  C 
BRANCH 26 27
ATOM     27  CG  HIS C   3    -133.585  50.139  65.575  1.00 17.65 LIG 0.06  A 
ATOM     28 ND1  HIS C   3    -132.419  50.238  64.921  1.00 19.76 LIG-0.24  NA
ATOM     29  CE1 HIS C   3    -132.037  49.018  64.505  1.00 20.53 LIG 0.23  A 
ATOM     30 NE2  HIS C   3    -132.966  48.137  64.891  1.00 17.64 LIG-0.25  NA
ATOM     31  CD2 HIS C   3    -133.937  48.794  65.551  1.00 21.96 LIG 0.14  A 
ENDBRANCH 26 27
ENDBRANCH 1 26
BRANCH 1 32
ATOM     32  C   HIS C   3    -133.905  53.274  64.664  1.00 15.49 LIG 0.24  C 
ATOM     33  N   SER C   4    -133.008  53.200  63.687  1.00 15.13 LIG-0.34  N 
ATOM     34 H    SER C   4    -132.233  52.835  63.766  1.00 15.13 LIG 0.16  HD
ATOM     35 O    HIS C   3    -135.014  53.823  64.525  1.00 14.84 LIG-0.27  OA
BRANCH 33 36
ATOM     36  CA  SER C   4    -133.288  53.754  62.369  1.00 18.69 LIG 0.20  C 
BRANCH 36 37
ATOM     37  CB  SER C   4    -132.374  54.942  62.060  1.00 23.38 LIG 0.20  C 
BRANCH 37 38
ATOM     38 OG   SER C   4    -131.033  54.530  61.912  1.00 30.32 LIG-0.40  OA
ATOM     39 HG   SER C   4    -130.918  54.218  61.141  1.00 30.32 LIG 0.21  HD
ENDBRANCH 37 38
ENDBRANCH 36 37
BRANCH 36 40
ATOM     40  C   SER C   4    -133.175  52.688  61.281  1.00 18.90 LIG 0.24  C 
ATOM     41  N   ASP C   5    -133.791  52.940  60.131  1.00 17.72 LIG-0.34  N 
ATOM     42 H    ASP C   5    -134.274  53.636  59.984  1.00 17.72 LIG 0.16  HD
ATOM     43 O    SER C   4    -132.535  51.665  61.482  1.00 16.42 LIG-0.27  OA
BRANCH 41 44
ATOM     44  CA  ASP C   5    -133.687  52.022  59.001  1.00 16.40 LIG 0.20  C 
BRANCH 44 45
ATOM     45  CB  ASP C   5    -134.683  52.392  57.894  1.00 18.53 LIG 0.15  C 
BRANCH 45 46
ATOM     46  CG  ASP C   5    -135.279  53.779  58.072  1.00 25.22 LIG 0.17  C 
ATOM     47 OD2  ASP C   5    -134.803  54.708  57.388  1.00 28.97 LIG-0.65  OA
ATOM     48 OD1  ASP C   5    -136.223  53.939  58.874  1.00 27.70 LIG-0.65  OA
ENDBRANCH 45 46
ENDBRANCH 44 45
BRANCH 44 49
ATOM     49  C   ASP C   5    -132.280  52.013  58.425  1.00 17.83 LIG 0.20  C 
ATOM     50 O    ASP C   5    -131.707  53.074  58.142  1.00 18.34 LIG-0.65  OA
ATOM     51 OXT  ASP C   5    -131.670  50.948  58.240  1.00 17.06 LIG-0.65  OA
ENDBRANCH 44 49
ENDBRANCH 41 44
ENDBRANCH 36 40
ENDBRANCH 33 36
ENDBRANCH 1 32
TORSDOF 20
ENDMDL
MODEL 13
USER: ADFR SOLUTION from run 52
USER: SCORE 19.907468 LL:  -2.825 LR: -17.337 RR:   0.000 FEB: -11.371
USER: RMSD 6.282607
USER: SEED 51
USER: STATUS no improvement in best in 2 clusters for 5 generations
USER: GENES 22
USER: genes 0 Translation |==|  0.51954 0.50137 0.52322
USER: genes 1 Rotation |==|  0.89549 0.79899 0.43583 0.50844
USER: genes 2 Torsion [C]-CA--N-[C] |==|  0.80187
USER: genes 3 Torsion [N]-C--CA-[N] |==|  0.75962
USER: genes 4 Torsion [N]-C--CA-[N] |==|  0.21548
USER: genes 5 Torsion [C]-CA--N-[H2] |==|  0.95815
USER: genes 6 Torsion [C]-CA--CB-[CG] |==|  0.28331
USER: genes 7 Torsion [CA]-CB--CG-[CD] |==|  0.50107
USER: genes 8 Torsion [CB]-CG--CD-[CE] |==|  0.63126
USER: genes 9 Torsion [CG]-CD--CE-[NZ] |==|  0.11215
USER: genes 10 Torsion [CD]-CE--NZ-[HZ1] |==|  0.31613
USER: genes 11 Torsion [N]-CA--CB-[CG] |==|  0.65406
USER: genes 12 Torsion [CA]-CB--CG-[CD2] |==|  0.78079
USER: genes 13 Torsion [N]-CA--C-[N] |==|  0.90980
USER: genes 14 Torsion [C]-N--CA-[C] |==|  0.18483
USER: genes 15 Torsion [N]-CA--CB-[OG] |==|  0.89924
USER: genes 16 Torsion [CA]-CB--OG-[HG] |==|  0.12321
USER: genes 17 Torsion [N]-CA--C-[N] |==|  0.05000
USER: genes 18 Torsion [C]-N--CA-[CB] |==|  0.80327
USER: genes 19 Torsion [N]-CA--CB-[CG] |==|  0.70680
USER: genes 20 Torsion [CA]-CB--CG-[OD2] |==|  0.26736
USER: genes 21 Torsion [N]-CA--C-[O] |==|  0.10753
ROOT
ATOM      1  CA  HIS C   3    -133.598  48.602  64.184  1.00 14.15 LIG 0.18  C 
ENDROOT
BRANCH 1 2
ATOM      2  N   HIS C   3    -134.875  48.071  64.608  1.00 14.43 LIG-0.35  N 
ATOM      3  C   PRO C   2    -135.128  47.788  65.879  1.00 20.79 LIG 0.24  C 
ATOM      4 O    PRO C   2    -134.295  47.896  66.771  1.00 15.59 LIG-0.27  OA
ATOM      5 H    HIS C   3    -135.441  47.960  63.971  1.00 14.43 LIG 0.16  HD
BRANCH 3 6
ATOM      6  CA  PRO C   2    -136.541  47.311  66.206  1.00 18.69 LIG 0.18  C 
ATOM      7  N   PRO C   2    -137.440  48.440  66.450  1.00 22.33 LIG-0.34  N 
ATOM      8  C   LYS C   1    -137.216  49.274  67.457  1.00 22.74 LIG 0.25  C 
ATOM      9  CD  PRO C   2    -138.637  48.387  65.593  1.00 22.53 LIG 0.13  C 
ATOM     10 O    LYS C   1    -136.284  49.127  68.245  1.00 19.84 LIG-0.27  OA
ATOM     11  CG  PRO C   2    -138.596  46.996  65.035  1.00 25.33 LIG 0.02  C 
ATOM     12  CB  PRO C   2    -137.155  46.633  64.980  1.00 21.74 LIG 0.04  C 
BRANCH 8 13
ATOM     13  CA  LYS C   1    -138.144  50.479  67.583  1.00 25.81 LIG 0.28  C 
BRANCH 13 14
ATOM     14  N   LYS C   1    -139.421  50.074  68.161  1.00 28.38 LIG-0.07  N 
ATOM     15 H3   LYS C   1    -139.462  50.341  69.009  1.00 28.38 LIG 0.28  HD
ATOM     16 H2   LYS C   1    -139.496  49.187  68.126  1.00 28.38 LIG 0.28  HD
ATOM     17 H1   LYS C   1    -140.086  50.445  67.701  1.00 28.38 LIG 0.28  HD
ENDBRANCH 13 14
BRANCH 13 18
ATOM     18  CB  LYS C   1    -137.493  51.553  68.454  1.00 28.10 LIG 0.04  C 
BRANCH 18 19
ATOM     19  CG  LYS C   1    -136.892  52.709  67.679  1.00 29.36 LIG 0.00  C 
BRANCH 19 20
ATOM     20  CD  LYS C   1    -136.261  53.718  68.630  1.00 23.94 LIG 0.03  C 
BRANCH 20 21
ATOM     21  CE  LYS C   1    -136.669  55.142  68.299  1.00 22.49 LIG 0.23  C 
BRANCH 21 22
ATOM     22  NZ  LYS C   1    -138.103  55.176  67.934  1.00 23.53 LIG-0.08  N 
ATOM     23 HZ1  LYS C   1    -138.556  55.636  68.548  1.00 23.53 LIG 0.27  HD
ATOM     24 HZ2  LYS C   1    -138.199  55.568  67.141  1.00 23.53 LIG 0.27  HD
ATOM     25 HZ3  LYS C   1    -138.420  54.345  67.894  1.00 23.53 LIG 0.27  HD
ENDBRANCH 21 22
ENDBRANCH 20 21
ENDBRANCH 19 20
ENDBRANCH 18 19
ENDBRANCH 13 18
ENDBRANCH 8 13
ENDBRANCH 3 6
ENDBRANCH 1 2
BRANCH 1 26
ATOM     26  CB  HIS C   3    -133.450  48.476  62.674  1.00 14.42 LIG 0.10  C 
BRANCH 26 27
ATOM     27  CG  HIS C   3    -132.214  47.730  62.251  1.00 17.65 LIG 0.06  A 
ATOM     28 ND1  HIS C   3    -132.242  46.440  61.888  1.00 19.76 LIG-0.24  NA
ATOM     29  CE1 HIS C   3    -130.998  46.036  61.578  1.00 20.53 LIG 0.23  A 
ATOM     30 NE2  HIS C   3    -130.171  47.074  61.748  1.00 17.64 LIG-0.25  NA
ATOM     31  CD2 HIS C   3    -130.886  48.134  62.165  1.00 21.96 LIG 0.14  A 
ENDBRANCH 26 27
ENDBRANCH 1 26
BRANCH 1 32
ATOM     32  C   HIS C   3    -133.374  50.019  64.608  1.00 15.49 LIG 0.24  C 
ATOM     33  N   SER C   4    -134.451  50.794  64.676  1.00 15.13 LIG-0.34  N 
ATOM     34 H    SER C   4    -135.247  50.537  64.474  1.00 15.13 LIG 0.16  HD
ATOM     35 O    HIS C   3    -132.231  50.422  64.891  1.00 14.84 LIG-0.27  OA
BRANCH 33 36
ATOM     36  CA  SER C   4    -134.351  52.180  65.112  1.00 18.69 LIG 0.20  C 
BRANCH 36 37
ATOM     37  CB  SER C   4    -133.735  52.278  66.510  1.00 23.38 LIG 0.20  C 
BRANCH 37 38
ATOM     38 OG   SER C   4    -134.153  51.206  67.328  1.00 30.32 LIG-0.40  OA
ATOM     39 HG   SER C   4    -134.111  50.489  66.893  1.00 30.32 LIG 0.21  HD
ENDBRANCH 37 38
ENDBRANCH 36 37
BRANCH 36 40
ATOM     40  C   SER C   4    -133.562  53.023  64.113  1.00 18.90 LIG 0.24  C 
ATOM     41  N   ASP C   5    -133.418  52.523  62.890  1.00 17.72 LIG-0.34  N 
ATOM     42 H    ASP C   5    -133.703  51.748  62.649  1.00 17.72 LIG 0.16  HD
ATOM     43 O    SER C   4    -133.104  54.108  64.445  1.00 16.42 LIG-0.27  OA
BRANCH 41 44
ATOM     44  CA  ASP C   5    -132.745  53.278  61.839  1.00 16.40 LIG 0.20  C 
BRANCH 44 45
ATOM     45  CB  ASP C   5    -133.598  54.467  61.377  1.00 18.53 LIG 0.15  C 
BRANCH 45 46
ATOM     46  CG  ASP C   5    -134.244  54.242  60.020  1.00 25.22 LIG 0.17  C 
ATOM     47 OD2  ASP C   5    -135.420  53.824  59.998  1.00 28.97 LIG-0.65  OA
ATOM     48 OD1  ASP C   5    -133.592  54.494  58.984  1.00 27.70 LIG-0.65  OA
ENDBRANCH 45 46
ENDBRANCH 44 45
BRANCH 44 49
ATOM     49  C   ASP C   5    -131.390  53.787  62.306  1.00 17.83 LIG 0.20  C 
ATOM     50 O    ASP C   5    -130.665  53.084  63.024  1.00 18.34 LIG-0.65  OA
ATOM     51 OXT  ASP C   5    -130.975  54.907  61.969  1.00 17.06 LIG-0.65  OA
ENDBRANCH 44 49
ENDBRANCH 41 44
ENDBRANCH 36 40
ENDBRANCH 33 36
ENDBRANCH 1 32
TORSDOF 20
ENDMDL
MODEL 14
USER: ADFR SOLUTION from run 87
USER: SCORE 19.384582 LL:  -2.585 LR: -17.258 RR:   0.000 FEB: -11.292
USER: RMSD 6.871337
USER: SEED 86
USER: STATUS searching
USER: GENES 22
USER: genes 0 Translation |==|  0.58978 0.56134 0.51111
USER: genes 1 Rotation |==|  0.76536 0.67543 0.34483 0.85317
USER: genes 2 Torsion [C]-CA--N-[C] |==|  0.64788
USER: genes 3 Torsion [N]-C--CA-[N] |==|  0.60027
USER: genes 4 Torsion [N]-C--CA-[N] |==|  0.34522
USER: genes 5 Torsion [C]-CA--N-[H2] |==|  0.19725
USER: genes 6 Torsion [C]-CA--CB-[CG] |==|  0.64237
USER: genes 7 Torsion [CA]-CB--CG-[CD] |==|  0.65768
USER: genes 8 Torsion [CB]-CG--CD-[CE] |==|  0.23647
USER: genes 9 Torsion [CG]-CD--CE-[NZ] |==|  0.63281
USER: genes 10 Torsion [CD]-CE--NZ-[HZ1] |==|  0.65819
USER: genes 11 Torsion [N]-CA--CB-[CG] |==|  0.00596
USER: genes 12 Torsion [CA]-CB--CG-[CD2] |==|  0.31262
USER: genes 13 Torsion [N]-CA--C-[N] |==|  0.87902
USER: genes 14 Torsion [C]-N--CA-[C] |==|  0.80507
USER: genes 15 Torsion [N]-CA--CB-[OG] |==|  0.98973
USER: genes 16 Torsion [CA]-CB--OG-[HG] |==|  0.26160
USER: genes 17 Torsion [N]-CA--C-[N] |==|  0.95003
USER: genes 18 Torsion [C]-N--CA-[CB] |==|  0.82957
USER: genes 19 Torsion [N]-CA--CB-[CG] |==|  0.85675
USER: genes 20 Torsion [CA]-CB--CG-[OD2] |==|  0.40727
USER: genes 21 Torsion [N]-CA--C-[O] |==|  0.23702
ROOT
ATOM      1  CA  HIS C   3    -132.439  49.816  63.966  1.00 14.15 LIG 0.18  C 
ENDROOT
BRANCH 1 2
ATOM      2  N   HIS C   3    -133.872  49.682  64.112  1.00 14.43 LIG-0.35  N 
ATOM      3  C   PRO C   2    -134.525  50.221  65.133  1.00 20.79 LIG 0.24  C 
ATOM      4 O    PRO C   2    -133.968  50.815  66.049  1.00 15.59 LIG-0.27  OA
ATOM      5 H    HIS C   3    -134.250  49.229  63.487  1.00 14.43 LIG 0.16  HD
BRANCH 3 6
ATOM      6  CA  PRO C   2    -136.044  50.076  65.127  1.00 18.69 LIG 0.18  C 
ATOM      7  N   PRO C   2    -136.695  51.269  65.671  1.00 22.33 LIG-0.34  N 
ATOM      8  C   LYS C   1    -136.481  51.640  66.926  1.00 22.74 LIG 0.25  C 
ATOM      9  CD  PRO C   2    -137.690  51.827  64.739  1.00 22.53 LIG 0.13  C 
ATOM     10 O    LYS C   1    -135.772  50.997  67.696  1.00 19.84 LIG-0.27  OA
ATOM     11  CG  PRO C   2    -137.860  50.734  63.727  1.00 25.33 LIG 0.02  C 
ATOM     12  CB  PRO C   2    -136.554  50.024  63.687  1.00 21.74 LIG 0.04  C 
BRANCH 8 13
ATOM     13  CA  LYS C   1    -137.120  52.949  67.384  1.00 25.81 LIG 0.28  C 
BRANCH 13 14
ATOM     14  N   LYS C   1    -137.951  52.719  68.561  1.00 28.38 LIG-0.07  N 
ATOM     15 H3   LYS C   1    -138.441  53.445  68.725  1.00 28.38 LIG 0.28  HD
ATOM     16 H2   LYS C   1    -137.431  52.548  69.264  1.00 28.38 LIG 0.28  HD
ATOM     17 H1   LYS C   1    -138.488  52.025  68.415  1.00 28.38 LIG 0.28  HD
ENDBRANCH 13 14
BRANCH 13 18
ATOM     18  CB  LYS C   1    -136.035  53.978  67.702  1.00 28.10 LIG 0.04  C 
BRANCH 18 19
ATOM     19  CG  LYS C   1    -136.172  54.632  69.062  1.00 29.36 LIG 0.00  C 
BRANCH 19 20
ATOM     20  CD  LYS C   1    -136.253  56.147  68.920  1.00 23.94 LIG 0.03  C 
BRANCH 20 21
ATOM     21  CE  LYS C   1    -137.670  56.617  68.648  1.00 22.49 LIG 0.23  C 
BRANCH 21 22
ATOM     22  NZ  LYS C   1    -137.669  57.572  67.516  1.00 23.53 LIG-0.08  N 
ATOM     23 HZ1  LYS C   1    -138.031  58.342  67.776  1.00 23.53 LIG 0.27  HD
ATOM     24 HZ2  LYS C   1    -136.832  57.713  67.248  1.00 23.53 LIG 0.27  HD
ATOM     25 HZ3  LYS C   1    -138.142  57.234  66.842  1.00 23.53 LIG 0.27  HD
ENDBRANCH 21 22
ENDBRANCH 20 21
ENDBRANCH 19 20
ENDBRANCH 18 19
ENDBRANCH 13 18
ENDBRANCH 8 13
ENDBRANCH 3 6
ENDBRANCH 1 2
BRANCH 1 26
ATOM     26  CB  HIS C   3    -131.756  48.481  64.227  1.00 14.42 LIG 0.10  C 
BRANCH 26 27
ATOM     27  CG  HIS C   3    -132.717  47.360  64.516  1.00 17.65 LIG 0.06  A 
ATOM     28 ND1  HIS C   3    -133.445  47.309  65.640  1.00 19.76 LIG-0.24  NA
ATOM     29  CE1 HIS C   3    -134.199  46.196  65.633  1.00 20.53 LIG 0.23  A 
ATOM     30 NE2  HIS C   3    -133.947  45.532  64.500  1.00 17.64 LIG-0.25  NA
ATOM     31  CD2 HIS C   3    -133.036  46.219  63.788  1.00 21.96 LIG 0.14  A 
ENDBRANCH 26 27
ENDBRANCH 1 26
BRANCH 1 32
ATOM     32  C   HIS C   3    -132.027  50.354  62.632  1.00 15.49 LIG 0.24  C 
ATOM     33  N   SER C   4    -132.650  49.851  61.572  1.00 15.13 LIG-0.34  N 
ATOM     34 H    SER C   4    -133.247  49.233  61.609  1.00 15.13 LIG 0.16  HD
ATOM     35 O    HIS C   3    -131.153  51.237  62.548  1.00 14.84 LIG-0.27  OA
BRANCH 33 36
ATOM     36  CA  SER C   4    -132.350  50.330  60.229  1.00 18.69 LIG 0.20  C 
BRANCH 36 37
ATOM     37  CB  SER C   4    -132.912  49.383  59.165  1.00 23.38 LIG 0.20  C 
BRANCH 37 38
ATOM     38 OG   SER C   4    -133.503  48.245  59.755  1.00 30.32 LIG-0.40  OA
ATOM     39 HG   SER C   4    -134.327  48.375  59.851  1.00 30.32 LIG 0.21  HD
ENDBRANCH 37 38
ENDBRANCH 36 37
BRANCH 36 40
ATOM     40  C   SER C   4    -132.867  51.751  60.017  1.00 18.90 LIG 0.24  C 
ATOM     41  N   ASP C   5    -133.787  52.187  60.870  1.00 17.72 LIG-0.34  N 
ATOM     42 H    ASP C   5    -134.131  51.708  61.496  1.00 17.72 LIG 0.16  HD
ATOM     43 O    SER C   4    -132.430  52.437  59.103  1.00 16.42 LIG-0.27  OA
BRANCH 41 44
ATOM     44  CA  ASP C   5    -134.295  53.553  60.801  1.00 16.40 LIG 0.20  C 
BRANCH 44 45
ATOM     45  CB  ASP C   5    -133.171  54.574  61.025  1.00 18.53 LIG 0.15  C 
BRANCH 45 46
ATOM     46  CG  ASP C   5    -132.363  54.299  62.282  1.00 25.22 LIG 0.17  C 
ATOM     47 OD2  ASP C   5    -131.147  54.582  62.265  1.00 28.97 LIG-0.65  OA
ATOM     48 OD1  ASP C   5    -132.936  53.822  63.285  1.00 27.70 LIG-0.65  OA
ENDBRANCH 45 46
ENDBRANCH 44 45
BRANCH 44 49
ATOM     49  C   ASP C   5    -134.960  53.827  59.462  1.00 17.83 LIG 0.20  C 
ATOM     50 O    ASP C   5    -136.149  53.534  59.275  1.00 18.34 LIG-0.65  OA
ATOM     51 OXT  ASP C   5    -134.334  54.362  58.533  1.00 17.06 LIG-0.65  OA
ENDBRANCH 44 49
ENDBRANCH 41 44
ENDBRANCH 36 40
ENDBRANCH 33 36
ENDBRANCH 1 32
TORSDOF 20
ENDMDL
MODEL 15
USER: ADFR SOLUTION from run 189
USER: SCORE 19.806825 LL:  -2.759 LR: -17.160 RR:   0.000 FEB: -11.194
USER: RMSD 1.811415
USER: SEED 188
USER: STATUS no improvement in best in 2 clusters for 5 generations
USER: GENES 22
USER: genes 0 Translation |==|  0.43367 0.60001 0.60155
USER: genes 1 Rotation |==|  0.48356 0.52182 0.50216 0.99925
USER: genes 2 Torsion [C]-CA--N-[C] |==|  0.14946
USER: genes 3 Torsion [N]-C--CA-[N] |==|  0.39584
USER: genes 4 Torsion [N]-C--CA-[N] |==|  0.43851
USER: genes 5 Torsion [C]-CA--N-[H2] |==|  0.14384
USER: genes 6 Torsion [C]-CA--CB-[CG] |==|  0.45570
USER: genes 7 Torsion [CA]-CB--CG-[CD] |==|  0.59989
USER: genes 8 Torsion [CB]-CG--CD-[CE] |==|  0.73008
USER: genes 9 Torsion [CG]-CD--CE-[NZ] |==|  0.43999
USER: genes 10 Torsion [CD]-CE--NZ-[HZ1] |==|  0.20154
USER: genes 11 Torsion [N]-CA--CB-[CG] |==|  0.51636
USER: genes 12 Torsion [CA]-CB--CG-[CD2] |==|  0.04722
USER: genes 13 Torsion [N]-CA--C-[N] |==|  0.13394
USER: genes 14 Torsion [C]-N--CA-[C] |==|  0.80557
USER: genes 15 Torsion [N]-CA--CB-[OG] |==|  0.85920
USER: genes 16 Torsion [CA]-CB--OG-[HG] |==|  0.71733
USER: genes 17 Torsion [N]-CA--C-[N] |==|  0.92007
USER: genes 18 Torsion [C]-N--CA-[CB] |==|  0.48860
USER: genes 19 Torsion [N]-CA--CB-[CG] |==|  0.74535
USER: genes 20 Torsion [CA]-CB--CG-[OD2] |==|  0.30767
USER: genes 21 Torsion [N]-CA--C-[O] |==|  0.97810
ROOT
ATOM      1  CA  HIS C   3    -135.014  50.599  65.594  1.00 14.15 LIG 0.18  C 
ENDROOT
BRANCH 1 2
ATOM      2  N   HIS C   3    -135.921  49.474  65.666  1.00 14.43 LIG-0.35  N 
ATOM      3  C   PRO C   2    -135.522  48.278  66.081  1.00 20.79 LIG 0.24  C 
ATOM      4 O    PRO C   2    -134.360  48.022  66.374  1.00 15.59 LIG-0.27  OA
ATOM      5 H    HIS C   3    -136.726  49.652  65.420  1.00 14.43 LIG 0.16  HD
BRANCH 3 6
ATOM      6  CA  PRO C   2    -136.595  47.198  66.187  1.00 18.69 LIG 0.18  C 
ATOM      7  N   PRO C   2    -136.076  45.892  65.778  1.00 22.33 LIG-0.34  N 
ATOM      8  C   LYS C   1    -135.643  45.697  64.540  1.00 22.74 LIG 0.25  C 
ATOM      9  CD  PRO C   2    -136.281  44.868  66.817  1.00 22.53 LIG 0.13  C 
ATOM     10 O    LYS C   1    -135.686  46.570  63.677  1.00 19.84 LIG-0.27  OA
ATOM     11  CG  PRO C   2    -137.244  45.525  67.759  1.00 25.33 LIG 0.02  C 
ATOM     12  CB  PRO C   2    -136.969  46.983  67.653  1.00 21.74 LIG 0.04  C 
BRANCH 8 13
ATOM     13  CA  LYS C   1    -135.028  44.336  64.223  1.00 25.81 LIG 0.28  C 
BRANCH 13 14
ATOM     14  N   LYS C   1    -135.086  44.078  62.788  1.00 28.38 LIG-0.07  N 
ATOM     15 H3   LYS C   1    -134.621  43.342  62.599  1.00 28.38 LIG 0.28  HD
ATOM     16 H2   LYS C   1    -134.738  44.769  62.347  1.00 28.38 LIG 0.28  HD
ATOM     17 H1   LYS C   1    -135.933  43.966  62.540  1.00 28.38 LIG 0.28  HD
ENDBRANCH 13 14
BRANCH 13 18
ATOM     18  CB  LYS C   1    -133.578  44.291  64.705  1.00 28.10 LIG 0.04  C 
BRANCH 18 19
ATOM     19  CG  LYS C   1    -132.989  42.897  64.794  1.00 29.36 LIG 0.00  C 
BRANCH 19 20
ATOM     20  CD  LYS C   1    -132.048  42.791  65.986  1.00 23.94 LIG 0.03  C 
BRANCH 20 21
ATOM     21  CE  LYS C   1    -130.597  42.982  65.584  1.00 22.49 LIG 0.23  C 
BRANCH 21 22
ATOM     22  NZ  LYS C   1    -129.802  43.387  66.766  1.00 23.53 LIG-0.08  N 
ATOM     23 HZ1  LYS C   1    -129.702  42.689  67.310  1.00 23.53 LIG 0.27  HD
ATOM     24 HZ2  LYS C   1    -129.002  43.673  66.502  1.00 23.53 LIG 0.27  HD
ATOM     25 HZ3  LYS C   1    -130.223  44.041  67.198  1.00 23.53 LIG 0.27  HD
ENDBRANCH 21 22
ENDBRANCH 20 21
ENDBRANCH 19 20
ENDBRANCH 18 19
ENDBRANCH 13 18
ENDBRANCH 8 13
ENDBRANCH 3 6
ENDBRANCH 1 2
BRANCH 1 26
ATOM     26  CB  HIS C   3    -134.637  51.063  66.994  1.00 14.42 LIG 0.10  C 
BRANCH 26 27
ATOM     27  CG  HIS C   3    -133.807  52.318  67.008  1.00 17.65 LIG 0.06  A 
ATOM     28 ND1  HIS C   3    -133.123  52.716  68.090  1.00 19.76 LIG-0.24  NA
ATOM     29  CE1 HIS C   3    -132.490  53.870  67.818  1.00 20.53 LIG 0.23  A 
ATOM     30 NE2  HIS C   3    -132.777  54.213  66.557  1.00 17.64 LIG-0.25  NA
ATOM     31  CD2 HIS C   3    -133.589  53.280  66.028  1.00 21.96 LIG 0.14  A 
ENDBRANCH 26 27
ENDBRANCH 1 26
BRANCH 1 32
ATOM     32  C   HIS C   3    -133.782  50.317  64.795  1.00 15.49 LIG 0.24  C 
ATOM     33  N   SER C   4    -133.963  49.752  63.605  1.00 15.13 LIG-0.34  N 
ATOM     34 H    SER C   4    -134.730  49.528  63.287  1.00 15.13 LIG 0.16  HD
ATOM     35 O    HIS C   3    -132.657  50.617  65.237  1.00 14.84 LIG-0.27  OA
BRANCH 33 36
ATOM     36  CA  SER C   4    -132.834  49.467  62.731  1.00 18.69 LIG 0.20  C 
BRANCH 36 37
ATOM     37  CB  SER C   4    -133.236  48.521  61.597  1.00 23.38 LIG 0.20  C 
BRANCH 37 38
ATOM     38 OG   SER C   4    -133.902  47.381  62.095  1.00 30.32 LIG-0.40  OA
ATOM     39 HG   SER C   4    -133.371  46.730  62.110  1.00 30.32 LIG 0.21  HD
ENDBRANCH 37 38
ENDBRANCH 36 37
BRANCH 36 40
ATOM     40  C   SER C   4    -132.222  50.751  62.174  1.00 18.90 LIG 0.24  C 
ATOM     41  N   ASP C   5    -133.039  51.789  62.030  1.00 17.72 LIG-0.34  N 
ATOM     42 H    ASP C   5    -133.884  51.765  62.190  1.00 17.72 LIG 0.16  HD
ATOM     43 O    SER C   4    -131.033  50.797  61.892  1.00 16.42 LIG-0.27  OA
BRANCH 41 44
ATOM     44  CA  ASP C   5    -132.543  53.083  61.575  1.00 16.40 LIG 0.20  C 
BRANCH 44 45
ATOM     45  CB  ASP C   5    -133.692  54.084  61.394  1.00 18.53 LIG 0.15  C 
BRANCH 45 46
ATOM     46  CG  ASP C   5    -134.257  54.089  59.983  1.00 25.22 LIG 0.17  C 
ATOM     47 OD2  ASP C   5    -135.409  53.636  59.817  1.00 28.97 LIG-0.65  OA
ATOM     48 OD1  ASP C   5    -133.568  54.552  59.050  1.00 27.70 LIG-0.65  OA
ENDBRANCH 45 46
ENDBRANCH 44 45
BRANCH 44 49
ATOM     49  C   ASP C   5    -131.528  53.659  62.549  1.00 17.83 LIG 0.20  C 
ATOM     50 O    ASP C   5    -131.325  53.116  63.644  1.00 18.34 LIG-0.65  OA
ATOM     51 OXT  ASP C   5    -130.871  54.673  62.266  1.00 17.06 LIG-0.65  OA
ENDBRANCH 44 49
ENDBRANCH 41 44
ENDBRANCH 36 40
ENDBRANCH 33 36
ENDBRANCH 1 32
TORSDOF 20
ENDMDL
MODEL 16
USER: ADFR SOLUTION from run 81
USER: SCORE 19.869591 LL:  -3.532 LR: -17.132 RR:   0.000 FEB: -11.166
USER: RMSD 5.971096
USER: SEED 80
USER: STATUS no improvement in best in 2 clusters for 5 generations
USER: GENES 22
USER: genes 0 Translation |==|  0.54784 0.55528 0.54758
USER: genes 1 Rotation |==|  0.81781 0.50109 0.12119 0.57414
USER: genes 2 Torsion [C]-CA--N-[C] |==|  0.16919
USER: genes 3 Torsion [N]-C--CA-[N] |==|  0.74789
USER: genes 4 Torsion [N]-C--CA-[N] |==|  0.33159
USER: genes 5 Torsion [C]-CA--N-[H2] |==|  0.34792
USER: genes 6 Torsion [C]-CA--CB-[CG] |==|  0.34404
USER: genes 7 Torsion [CA]-CB--CG-[CD] |==|  0.51567
USER: genes 8 Torsion [CB]-CG--CD-[CE] |==|  0.61676
USER: genes 9 Torsion [CG]-CD--CE-[NZ] |==|  0.11116
USER: genes 10 Torsion [CD]-CE--NZ-[HZ1] |==|  0.24757
USER: genes 11 Torsion [N]-CA--CB-[CG] |==|  0.82689
USER: genes 12 Torsion [CA]-CB--CG-[CD2] |==|  0.58761
USER: genes 13 Torsion [N]-CA--C-[N] |==|  0.70335
USER: genes 14 Torsion [C]-N--CA-[C] |==|  0.83310
USER: genes 15 Torsion [N]-CA--CB-[OG] |==|  0.50075
USER: genes 16 Torsion [CA]-CB--OG-[HG] |==|  0.97204
USER: genes 17 Torsion [N]-CA--C-[N] |==|  0.95524
USER: genes 18 Torsion [C]-N--CA-[CB] |==|  0.31518
USER: genes 19 Torsion [N]-CA--CB-[CG] |==|  0.81135
USER: genes 20 Torsion [CA]-CB--CG-[OD2] |==|  0.29451
USER: genes 21 Torsion [N]-CA--C-[O] |==|  0.47724
ROOT
ATOM      1  CA  HIS C   3    -133.131  49.693  64.623  1.00 14.15 LIG 0.18  C 
ENDROOT
BRANCH 1 2
ATOM      2  N   HIS C   3    -133.171  50.980  65.283  1.00 14.43 LIG-0.35  N 
ATOM      3  C   PRO C   2    -133.963  51.958  64.863  1.00 20.79 LIG 0.24  C 
ATOM      4 O    PRO C   2    -134.667  51.871  63.865  1.00 15.59 LIG-0.27  OA
ATOM      5 H    HIS C   3    -132.643  51.048  65.959  1.00 14.43 LIG 0.16  HD
BRANCH 3 6
ATOM      6  CA  PRO C   2    -133.970  53.238  65.696  1.00 18.69 LIG 0.18  C 
ATOM      7  N   PRO C   2    -135.003  53.191  66.732  1.00 22.33 LIG-0.34  N 
ATOM      8  C   LYS C   1    -136.285  53.096  66.402  1.00 22.74 LIG 0.25  C 
ATOM      9  CD  PRO C   2    -134.450  53.444  68.073  1.00 22.53 LIG 0.13  C 
ATOM     10 O    LYS C   1    -136.670  53.080  65.235  1.00 19.84 LIG-0.27  OA
ATOM     11  CG  PRO C   2    -133.078  53.973  67.782  1.00 25.33 LIG 0.02  C 
ATOM     12  CB  PRO C   2    -132.674  53.341  66.498  1.00 21.74 LIG 0.04  C 
BRANCH 8 13
ATOM     13  CA  LYS C   1    -137.289  52.955  67.543  1.00 25.81 LIG 0.28  C 
BRANCH 13 14
ATOM     14  N   LYS C   1    -138.226  54.074  67.532  1.00 28.38 LIG-0.07  N 
ATOM     15 H3   LYS C   1    -138.115  54.562  68.268  1.00 28.38 LIG 0.28  HD
ATOM     16 H2   LYS C   1    -139.060  53.763  67.505  1.00 28.38 LIG 0.28  HD
ATOM     17 H1   LYS C   1    -138.076  54.580  66.815  1.00 28.38 LIG 0.28  HD
ENDBRANCH 13 14
BRANCH 13 18
ATOM     18  CB  LYS C   1    -138.048  51.635  67.412  1.00 28.10 LIG 0.04  C 
BRANCH 18 19
ATOM     19  CG  LYS C   1    -137.962  50.739  68.631  1.00 29.36 LIG 0.00  C 
BRANCH 19 20
ATOM     20  CD  LYS C   1    -138.628  49.397  68.355  1.00 23.94 LIG 0.03  C 
BRANCH 20 21
ATOM     21  CE  LYS C   1    -139.462  48.924  69.532  1.00 22.49 LIG 0.23  C 
BRANCH 21 22
ATOM     22  NZ  LYS C   1    -140.183  50.074  70.123  1.00 23.53 LIG-0.08  N 
ATOM     23 HZ1  LYS C   1    -140.970  50.172  69.719  1.00 23.53 LIG 0.27  HD
ATOM     24 HZ2  LYS C   1    -140.313  49.929  70.992  1.00 23.53 LIG 0.27  HD
ATOM     25 HZ3  LYS C   1    -139.701  50.815  70.016  1.00 23.53 LIG 0.27  HD
ENDBRANCH 21 22
ENDBRANCH 20 21
ENDBRANCH 19 20
ENDBRANCH 18 19
ENDBRANCH 13 18
ENDBRANCH 8 13
ENDBRANCH 3 6
ENDBRANCH 1 2
BRANCH 1 26
ATOM     26  CB  HIS C   3    -134.485  49.007  64.723  1.00 14.42 LIG 0.10  C 
BRANCH 26 27
ATOM     27  CG  HIS C   3    -134.905  48.710  66.137  1.00 17.65 LIG 0.06  A 
ATOM     28 ND1  HIS C   3    -134.531  49.474  67.174  1.00 19.76 LIG-0.24  NA
ATOM     29  CE1 HIS C   3    -135.038  48.963  68.309  1.00 20.53 LIG 0.23  A 
ATOM     30 NE2  HIS C   3    -135.735  47.866  67.996  1.00 17.64 LIG-0.25  NA
ATOM     31  CD2 HIS C   3    -135.673  47.678  66.666  1.00 21.96 LIG 0.14  A 
ENDBRANCH 26 27
ENDBRANCH 1 26
BRANCH 1 32
ATOM     32  C   HIS C   3    -132.698  49.775  63.193  1.00 15.49 LIG 0.24  C 
ATOM     33  N   SER C   4    -133.644  49.596  62.277  1.00 15.13 LIG-0.34  N 
ATOM     34 H    SER C   4    -134.467  49.421  62.457  1.00 15.13 LIG 0.16  HD
ATOM     35 O    HIS C   3    -131.511  50.012  62.902  1.00 14.84 LIG-0.27  OA
BRANCH 33 36
ATOM     36  CA  SER C   4    -133.339  49.690  60.856  1.00 18.69 LIG 0.20  C 
BRANCH 36 37
ATOM     37  CB  SER C   4    -134.562  49.346  60.002  1.00 23.38 LIG 0.20  C 
BRANCH 37 38
ATOM     38 OG   SER C   4    -134.263  49.431  58.625  1.00 30.32 LIG-0.40  OA
ATOM     39 HG   SER C   4    -133.509  49.787  58.523  1.00 30.32 LIG 0.21  HD
ENDBRANCH 37 38
ENDBRANCH 36 37
BRANCH 36 40
ATOM     40  C   SER C   4    -132.796  51.070  60.492  1.00 18.90 LIG 0.24  C 
ATOM     41  N   ASP C   5    -132.988  52.041  61.379  1.00 17.72 LIG-0.34  N 
ATOM     42 H    ASP C   5    -133.429  51.946  62.112  1.00 17.72 LIG 0.16  HD
ATOM     43 O    SER C   4    -132.208  51.244  59.434  1.00 16.42 LIG-0.27  OA
BRANCH 41 44
ATOM     44  CA  ASP C   5    -132.448  53.379  61.164  1.00 16.40 LIG 0.20  C 
BRANCH 44 45
ATOM     45  CB  ASP C   5    -133.572  54.404  60.959  1.00 18.53 LIG 0.15  C 
BRANCH 45 46
ATOM     46  CG  ASP C   5    -134.331  54.199  59.659  1.00 25.22 LIG 0.17  C 
ATOM     47 OD2  ASP C   5    -135.479  53.713  59.726  1.00 28.97 LIG-0.65  OA
ATOM     48 OD1  ASP C   5    -133.797  54.533  58.580  1.00 27.70 LIG-0.65  OA
ENDBRANCH 45 46
ENDBRANCH 44 45
BRANCH 44 49
ATOM     49  C   ASP C   5    -131.578  53.818  62.332  1.00 17.83 LIG 0.20  C 
ATOM     50 O    ASP C   5    -130.911  54.859  62.266  1.00 18.34 LIG-0.65  OA
ATOM     51 OXT  ASP C   5    -131.529  53.153  63.379  1.00 17.06 LIG-0.65  OA
ENDBRANCH 44 49
ENDBRANCH 41 44
ENDBRANCH 36 40
ENDBRANCH 33 36
ENDBRANCH 1 32
TORSDOF 20
ENDMDL
MODEL 17
USER: ADFR SOLUTION from run 123
USER: SCORE 18.566245 LL:  -2.146 LR: -17.063 RR:   0.000 FEB: -11.097
USER: RMSD 8.486113
USER: SEED 122
USER: STATUS no improvement in best in 8 clusters for 5 generations
USER: GENES 22
USER: genes 0 Translation |==|  0.58255 0.71279 0.65479
USER: genes 1 Rotation |==|  0.67429 0.52031 0.03180 0.50103
USER: genes 2 Torsion [C]-CA--N-[C] |==|  0.62287
USER: genes 3 Torsion [N]-C--CA-[N] |==|  0.19359
USER: genes 4 Torsion [N]-C--CA-[N] |==|  0.29695
USER: genes 5 Torsion [C]-CA--N-[H2] |==|  0.44450
USER: genes 6 Torsion [C]-CA--CB-[CG] |==|  0.85729
USER: genes 7 Torsion [CA]-CB--CG-[CD] |==|  0.44739
USER: genes 8 Torsion [CB]-CG--CD-[CE] |==|  0.55975
USER: genes 9 Torsion [CG]-CD--CE-[NZ] |==|  0.63520
USER: genes 10 Torsion [CD]-CE--NZ-[HZ1] |==|  0.72041
USER: genes 11 Torsion [N]-CA--CB-[CG] |==|  0.53249
USER: genes 12 Torsion [CA]-CB--CG-[CD2] |==|  0.52101
USER: genes 13 Torsion [N]-CA--C-[N] |==|  0.28337
USER: genes 14 Torsion [C]-N--CA-[C] |==|  0.58503
USER: genes 15 Torsion [N]-CA--CB-[OG] |==|  0.20365
USER: genes 16 Torsion [CA]-CB--OG-[HG] |==|  0.29195
USER: genes 17 Torsion [N]-CA--C-[N] |==|  0.37335
USER: genes 18 Torsion [C]-N--CA-[CB] |==|  0.79664
USER: genes 19 Torsion [N]-CA--CB-[CG] |==|  0.89812
USER: genes 20 Torsion [CA]-CB--CG-[OD2] |==|  0.90759
USER: genes 21 Torsion [N]-CA--C-[O] |==|  0.60649
ROOT
ATOM      1  CA  HIS C   3    -132.558  52.883  66.552  1.00 14.15 LIG 0.18  C 
ENDROOT
BRANCH 1 2
ATOM      2  N   HIS C   3    -131.848  53.980  67.173  1.00 14.43 LIG-0.35  N 
ATOM      3  C   PRO C   2    -130.693  53.801  67.801  1.00 20.79 LIG 0.24  C 
ATOM      4 O    PRO C   2    -130.175  52.701  67.954  1.00 15.59 LIG-0.27  OA
ATOM      5 H    HIS C   3    -132.238  54.743  67.096  1.00 14.43 LIG 0.16  HD
BRANCH 3 6
ATOM      6  CA  PRO C   2    -130.007  55.053  68.342  1.00 18.69 LIG 0.18  C 
ATOM      7  N   PRO C   2    -130.747  55.619  69.471  1.00 22.33 LIG-0.34  N 
ATOM      8  C   LYS C   1    -131.988  56.059  69.311  1.00 22.74 LIG 0.25  C 
ATOM      9  CD  PRO C   2    -129.894  55.785  70.661  1.00 22.53 LIG 0.13  C 
ATOM     10 O    LYS C   1    -132.559  56.052  68.223  1.00 19.84 LIG-0.27  OA
ATOM     11  CG  PRO C   2    -128.509  55.600  70.117  1.00 25.33 LIG 0.02  C 
ATOM     12  CB  PRO C   2    -128.659  54.679  68.958  1.00 21.74 LIG 0.04  C 
BRANCH 8 13
ATOM     13  CA  LYS C   1    -132.722  56.543  70.559  1.00 25.81 LIG 0.28  C 
BRANCH 13 14
ATOM     14  N   LYS C   1    -132.828  57.999  70.549  1.00 28.38 LIG-0.07  N 
ATOM     15 H3   LYS C   1    -132.059  58.355  70.821  1.00 28.38 LIG 0.28  HD
ATOM     16 H2   LYS C   1    -133.483  58.253  71.097  1.00 28.38 LIG 0.28  HD
ATOM     17 H1   LYS C   1    -133.009  58.277  69.723  1.00 28.38 LIG 0.28  HD
ENDBRANCH 13 14
BRANCH 13 18
ATOM     18  CB  LYS C   1    -134.114  55.917  70.623  1.00 28.10 LIG 0.04  C 
BRANCH 18 19
ATOM     19  CG  LYS C   1    -134.930  56.073  69.356  1.00 29.36 LIG 0.00  C 
BRANCH 19 20
ATOM     20  CD  LYS C   1    -136.066  55.058  69.324  1.00 23.94 LIG 0.03  C 
BRANCH 20 21
ATOM     21  CE  LYS C   1    -136.569  54.812  67.913  1.00 22.49 LIG 0.23  C 
BRANCH 21 22
ATOM     22  NZ  LYS C   1    -138.047  54.906  67.889  1.00 23.53 LIG-0.08  N 
ATOM     23 HZ1  LYS C   1    -138.397  54.087  67.892  1.00 23.53 LIG 0.27  HD
ATOM     24 HZ2  LYS C   1    -138.329  55.351  68.606  1.00 23.53 LIG 0.27  HD
ATOM     25 HZ3  LYS C   1    -138.306  55.335  67.154  1.00 23.53 LIG 0.27  HD
ENDBRANCH 21 22
ENDBRANCH 20 21
ENDBRANCH 19 20
ENDBRANCH 18 19
ENDBRANCH 13 18
ENDBRANCH 8 13
ENDBRANCH 3 6
ENDBRANCH 1 2
BRANCH 1 26
ATOM     26  CB  HIS C   3    -133.689  52.411  67.454  1.00 14.42 LIG 0.10  C 
BRANCH 26 27
ATOM     27  CG  HIS C   3    -134.299  51.105  67.020  1.00 17.65 LIG 0.06  A 
ATOM     28 ND1  HIS C   3    -133.795  50.376  66.014  1.00 19.76 LIG-0.24  NA
ATOM     29  CE1 HIS C   3    -134.548  49.276  65.841  1.00 20.53 LIG 0.23  A 
ATOM     30 NE2  HIS C   3    -135.540  49.306  66.738  1.00 17.64 LIG-0.25  NA
ATOM     31  CD2 HIS C   3    -135.419  50.421  67.480  1.00 21.96 LIG 0.14  A 
ENDBRANCH 26 27
ENDBRANCH 1 26
BRANCH 1 32
ATOM     32  C   HIS C   3    -133.086  53.213  65.192  1.00 15.49 LIG 0.24  C 
ATOM     33  N   SER C   4    -132.396  52.741  64.159  1.00 15.13 LIG-0.34  N 
ATOM     34 H    SER C   4    -131.670  52.286  64.228  1.00 15.13 LIG 0.16  HD
ATOM     35 O    HIS C   3    -134.127  53.883  65.062  1.00 14.84 LIG-0.27  OA
BRANCH 33 36
ATOM     36  CA  SER C   4    -132.843  52.973  62.791  1.00 18.69 LIG 0.20  C 
BRANCH 36 37
ATOM     37  CB  SER C   4    -132.323  54.311  62.258  1.00 23.38 LIG 0.20  C 
BRANCH 37 38
ATOM     38 OG   SER C   4    -130.941  54.245  61.974  1.00 30.32 LIG-0.40  OA
ATOM     39 HG   SER C   4    -130.827  54.205  61.143  1.00 30.32 LIG 0.21  HD
ENDBRANCH 37 38
ENDBRANCH 36 37
BRANCH 36 40
ATOM     40  C   SER C   4    -132.434  51.827  61.869  1.00 18.90 LIG 0.24  C 
ATOM     41  N   ASP C   5    -133.364  51.368  61.038  1.00 17.72 LIG-0.34  N 
ATOM     42 H    ASP C   5    -134.177  51.646  61.021  1.00 17.72 LIG 0.16  HD
ATOM     43 O    SER C   4    -131.296  51.379  61.907  1.00 16.42 LIG-0.27  OA
BRANCH 41 44
ATOM     44  CA  ASP C   5    -133.058  50.323  60.066  1.00 16.40 LIG 0.20  C 
BRANCH 44 45
ATOM     45  CB  ASP C   5    -132.204  50.872  58.914  1.00 18.53 LIG 0.15  C 
BRANCH 45 46
ATOM     46  CG  ASP C   5    -132.580  52.292  58.523  1.00 25.22 LIG 0.17  C 
ATOM     47 OD2  ASP C   5    -133.779  52.625  58.624  1.00 28.97 LIG-0.65  OA
ATOM     48 OD1  ASP C   5    -131.687  53.074  58.132  1.00 27.70 LIG-0.65  OA
ENDBRANCH 45 46
ENDBRANCH 44 45
BRANCH 44 49
ATOM     49  C   ASP C   5    -132.330  49.159  60.717  1.00 17.83 LIG 0.20  C 
ATOM     50 O    ASP C   5    -131.415  48.573  60.120  1.00 18.34 LIG-0.65  OA
ATOM     51 OXT  ASP C   5    -132.622  48.779  61.862  1.00 17.06 LIG-0.65  OA
ENDBRANCH 44 49
ENDBRANCH 41 44
ENDBRANCH 36 40
ENDBRANCH 33 36
ENDBRANCH 1 32
TORSDOF 20
ENDMDL
MODEL 18
USER: ADFR SOLUTION from run 195
USER: SCORE 19.535182 LL:  -2.770 LR: -17.052 RR:   0.000 FEB: -11.086
USER: RMSD 5.996874
USER: SEED 194
USER: STATUS 1 or 2 clusters left
USER: GENES 22
USER: genes 0 Translation |==|  0.48574 0.72567 0.62967
USER: genes 1 Rotation |==|  0.54611 0.49394 0.38238 0.98374
USER: genes 2 Torsion [C]-CA--N-[C] |==|  0.85000
USER: genes 3 Torsion [N]-C--CA-[N] |==|  0.00126
USER: genes 4 Torsion [N]-C--CA-[N] |==|  0.41253
USER: genes 5 Torsion [C]-CA--N-[H2] |==|  0.17617
USER: genes 6 Torsion [C]-CA--CB-[CG] |==|  0.20040
USER: genes 7 Torsion [CA]-CB--CG-[CD] |==|  0.63324
USER: genes 8 Torsion [CB]-CG--CD-[CE] |==|  0.46899
USER: genes 9 Torsion [CG]-CD--CE-[NZ] |==|  0.91546
USER: genes 10 Torsion [CD]-CE--NZ-[HZ1] |==|  0.83493
USER: genes 11 Torsion [N]-CA--CB-[CG] |==|  0.51274
USER: genes 12 Torsion [CA]-CB--CG-[CD2] |==|  0.16665
USER: genes 13 Torsion [N]-CA--C-[N] |==|  0.92850
USER: genes 14 Torsion [C]-N--CA-[C] |==|  0.84379
USER: genes 15 Torsion [N]-CA--CB-[OG] |==|  0.80168
USER: genes 16 Torsion [CA]-CB--OG-[HG] |==|  0.94077
USER: genes 17 Torsion [N]-CA--C-[N] |==|  0.95555
USER: genes 18 Torsion [C]-N--CA-[CB] |==|  0.36188
USER: genes 19 Torsion [N]-CA--CB-[CG] |==|  0.54003
USER: genes 20 Torsion [CA]-CB--CG-[OD2] |==|  0.13558
USER: genes 21 Torsion [N]-CA--C-[O] |==|  0.69827
ROOT
ATOM      1  CA  HIS C   3    -134.155  53.144  66.100  1.00 14.15 LIG 0.18  C 
ENDROOT
BRANCH 1 2
ATOM      2  N   HIS C   3    -135.470  52.603  65.833  1.00 14.43 LIG-0.35  N 
ATOM      3  C   PRO C   2    -135.948  52.498  64.600  1.00 20.79 LIG 0.24  C 
ATOM      4 O    PRO C   2    -135.346  52.900  63.610  1.00 15.59 LIG-0.27  OA
ATOM      5 H    HIS C   3    -135.903  52.361  66.536  1.00 14.43 LIG 0.16  HD
BRANCH 3 6
ATOM      6  CA  PRO C   2    -137.314  51.836  64.449  1.00 18.69 LIG 0.18  C 
ATOM      7  N   PRO C   2    -137.859  51.438  65.748  1.00 22.33 LIG-0.34  N 
ATOM      8  C   LYS C   1    -137.226  50.545  66.499  1.00 22.74 LIG 0.25  C 
ATOM      9  CD  PRO C   2    -139.204  51.993  65.976  1.00 22.53 LIG 0.13  C 
ATOM     10 O    LYS C   1    -136.192  49.988  66.137  1.00 19.84 LIG-0.27  OA
ATOM     11  CG  PRO C   2    -139.603  52.487  64.618  1.00 25.33 LIG 0.02  C 
ATOM     12  CB  PRO C   2    -138.331  52.858  63.941  1.00 21.74 LIG 0.04  C 
BRANCH 8 13
ATOM     13  CA  LYS C   1    -137.809  50.259  67.880  1.00 25.81 LIG 0.28  C 
BRANCH 13 14
ATOM     14  N   LYS C   1    -137.551  48.874  68.259  1.00 28.38 LIG-0.07  N 
ATOM     15 H3   LYS C   1    -137.937  48.703  69.043  1.00 28.38 LIG 0.28  HD
ATOM     16 H2   LYS C   1    -136.673  48.742  68.326  1.00 28.38 LIG 0.28  HD
ATOM     17 H1   LYS C   1    -137.885  48.330  67.639  1.00 28.38 LIG 0.28  HD
ENDBRANCH 13 14
BRANCH 13 18
ATOM     18  CB  LYS C   1    -137.197  51.206  68.912  1.00 28.10 LIG 0.04  C 
BRANCH 18 19
ATOM     19  CG  LYS C   1    -137.674  52.641  68.806  1.00 29.36 LIG 0.00  C 
BRANCH 19 20
ATOM     20  CD  LYS C   1    -136.490  53.600  68.840  1.00 23.94 LIG 0.03  C 
BRANCH 20 21
ATOM     21  CE  LYS C   1    -136.895  55.015  68.467  1.00 22.49 LIG 0.23  C 
BRANCH 21 22
ATOM     22  NZ  LYS C   1    -138.030  54.972  67.517  1.00 23.53 LIG-0.08  N 
ATOM     23 HZ1  LYS C   1    -137.790  54.524  66.786  1.00 23.53 LIG 0.27  HD
ATOM     24 HZ2  LYS C   1    -138.723  54.566  67.899  1.00 23.53 LIG 0.27  HD
ATOM     25 HZ3  LYS C   1    -138.261  55.802  67.292  1.00 23.53 LIG 0.27  HD
ENDBRANCH 21 22
ENDBRANCH 20 21
ENDBRANCH 19 20
ENDBRANCH 18 19
ENDBRANCH 13 18
ENDBRANCH 8 13
ENDBRANCH 3 6
ENDBRANCH 1 2
BRANCH 1 26
ATOM     26  CB  HIS C   3    -133.859  53.096  67.592  1.00 14.42 LIG 0.10  C 
BRANCH 26 27
ATOM     27  CG  HIS C   3    -132.552  53.742  67.966  1.00 17.65 LIG 0.06  A 
ATOM     28 ND1  HIS C   3    -131.573  53.074  68.593  1.00 19.76 LIG-0.24  NA
ATOM     29  CE1 HIS C   3    -130.537  53.902  68.812  1.00 20.53 LIG 0.23  A 
ATOM     30 NE2  HIS C   3    -130.859  55.106  68.326  1.00 17.64 LIG-0.25  NA
ATOM     31  CD2 HIS C   3    -132.096  55.045  67.800  1.00 21.96 LIG 0.14  A 
ENDBRANCH 26 27
ENDBRANCH 1 26
BRANCH 1 32
ATOM     32  C   HIS C   3    -133.066  52.460  65.335  1.00 15.49 LIG 0.24  C 
ATOM     33  N   SER C   4    -133.299  51.205  64.968  1.00 15.13 LIG-0.34  N 
ATOM     34 H    SER C   4    -134.015  50.768  65.159  1.00 15.13 LIG 0.16  HD
ATOM     35 O    HIS C   3    -132.013  53.063  65.058  1.00 14.84 LIG-0.27  OA
BRANCH 33 36
ATOM     36  CA  SER C   4    -132.320  50.458  64.189  1.00 18.69 LIG 0.20  C 
BRANCH 36 37
ATOM     37  CB  SER C   4    -132.810  49.037  63.897  1.00 23.38 LIG 0.20  C 
BRANCH 37 38
ATOM     38 OG   SER C   4    -132.795  48.243  65.064  1.00 30.32 LIG-0.40  OA
ATOM     39 HG   SER C   4    -132.266  48.577  65.624  1.00 30.32 LIG 0.21  HD
ENDBRANCH 37 38
ENDBRANCH 36 37
BRANCH 36 40
ATOM     40  C   SER C   4    -131.967  51.185  62.893  1.00 18.90 LIG 0.24  C 
ATOM     41  N   ASP C   5    -132.791  52.154  62.508  1.00 17.72 LIG-0.34  N 
ATOM     42 H    ASP C   5    -133.519  52.361  62.917  1.00 17.72 LIG 0.16  HD
ATOM     43 O    SER C   4    -130.964  50.878  62.265  1.00 16.42 LIG-0.27  OA
BRANCH 41 44
ATOM     44  CA  ASP C   5    -132.509  52.960  61.325  1.00 16.40 LIG 0.20  C 
BRANCH 44 45
ATOM     45  CB  ASP C   5    -133.731  53.032  60.399  1.00 18.53 LIG 0.15  C 
BRANCH 45 46
ATOM     46  CG  ASP C   5    -133.394  53.552  59.012  1.00 25.22 LIG 0.17  C 
ATOM     47 OD2  ASP C   5    -132.419  53.043  58.421  1.00 28.97 LIG-0.65  OA
ATOM     48 OD1  ASP C   5    -134.103  54.449  58.507  1.00 27.70 LIG-0.65  OA
ENDBRANCH 45 46
ENDBRANCH 44 45
BRANCH 44 49
ATOM     49  C   ASP C   5    -132.087  54.370  61.705  1.00 17.83 LIG 0.20  C 
ATOM     50 O    ASP C   5    -132.843  55.331  61.505  1.00 18.34 LIG-0.65  OA
ATOM     51 OXT  ASP C   5    -130.987  54.589  62.236  1.00 17.06 LIG-0.65  OA
ENDBRANCH 44 49
ENDBRANCH 41 44
ENDBRANCH 36 40
ENDBRANCH 33 36
ENDBRANCH 1 32
TORSDOF 20
ENDMDL
