MODEL 1
USER: ADFR SOLUTION from run 68
USER: SCORE 21.023802 LL:  -3.148 LR: -20.222 RR:   0.000 FEB: -12.765
USER: RMSD 8.454810
USER: SEED 67
USER: STATUS 1 or 2 clusters left
USER: GENES 27
USER: genes 0 Translation |==|  0.57984 0.77094 0.70116
USER: genes 1 Rotation |==|  0.47627 0.64464 0.11478 0.78307
USER: genes 2 Torsion [C]-CA--CB-[CG] |==|  0.48577
USER: genes 3 Torsion [CA]-CB--CG-[ND1] |==|  0.81629
USER: genes 4 Torsion [N]-CA--C-[N] |==|  0.05531
USER: genes 5 Torsion [C]-N--CA-[C] |==|  0.84444
USER: genes 6 Torsion [N]-CA--C-[N] |==|  0.90815
USER: genes 7 Torsion [C]-N--CA-[CB] |==|  0.27367
USER: genes 8 Torsion [N]-CA--CB-[CG] |==|  0.78662
USER: genes 9 Torsion [CA]-CB--CG-[CD] |==|  0.59134
USER: genes 10 Torsion [CB]-CG--CD-[OE2] |==|  0.03248
USER: genes 11 Torsion [N]-CA--C-[OXT] |==|  0.19580
USER: genes 12 Torsion [N]-CA--CB-[CG] |==|  0.56681
USER: genes 13 Torsion [CA]-CB--CG-[CD] |==|  0.73126
USER: genes 14 Torsion [CB]-CG--CD-[OE1] |==|  0.29244
USER: genes 15 Torsion [CB]-CA--N-[C] |==|  0.29221
USER: genes 16 Torsion [N]-C--CA-[N] |==|  0.86972
USER: genes 17 Torsion [C]-CA--N-[C] |==|  0.23878
USER: genes 18 Torsion [N]-C--CA-[N] |==|  0.03771
USER: genes 19 Torsion [C]-CA--N-[H3] |==|  0.91081
USER: genes 20 Torsion [C]-CA--CB-[CG] |==|  0.94101
USER: genes 21 Torsion [CA]-CB--CG-[CD] |==|  0.37103
USER: genes 22 Torsion [CB]-CG--CD-[CE] |==|  0.17151
USER: genes 23 Torsion [CG]-CD--CE-[NZ] |==|  0.62750
USER: genes 24 Torsion [CD]-CE--NZ-[HZ3] |==|  0.69612
USER: genes 25 Torsion [C]-CA--CB-[OG] |==|  0.20128
USER: genes 26 Torsion [CA]-CB--OG-[HG] |==|  0.14472
ROOT
ATOM      1  CA  HIS C   3     -21.311 115.725-128.663  1.00 19.60 LIG 0.18  C 
ENDROOT
BRANCH 1 2
ATOM      2  CB  HIS C   3     -20.550 114.830-127.679  1.00 23.73 LIG 0.10  C 
BRANCH 2 3
ATOM      3  CG  HIS C   3     -19.521 115.566-126.881  1.00 30.80 LIG 0.06  A 
ATOM      4 ND1  HIS C   3     -18.399 116.128-127.450  1.00 38.28 LIG-0.24  NA
ATOM      5  CE1 HIS C   3     -17.672 116.702-126.510  1.00 40.75 LIG 0.23  A 
ATOM      6 NE2  HIS C   3     -18.281 116.531-125.349  1.00 37.68 LIG-0.25  NA
ATOM      7  CD2 HIS C   3     -19.441 115.825-125.554  1.00 33.77 LIG 0.14  A 
ENDBRANCH 2 3
ENDBRANCH 1 2
BRANCH 1 8
ATOM      8  C   HIS C   3     -22.240 114.890-129.519  1.00 20.49 LIG 0.24  C 
ATOM      9  N   GLN C   4     -23.410 115.442-129.833  1.00 22.11 LIG-0.35  N 
ATOM     10 H    GLN C   4     -23.679 116.203-129.535  1.00 22.11 LIG 0.16  HD
ATOM     11 O    HIS C   3     -21.899 113.774-129.900  1.00 22.31 LIG-0.27  OA
BRANCH 9 12
ATOM     12  CA  GLN C   4     -24.346 114.776-130.728  1.00 24.42 LIG 0.18  C 
BRANCH 12 13
ATOM     13  C   GLN C   4     -23.676 114.460-132.065  1.00 25.27 LIG 0.24  C 
ATOM     14 O    GLN C   4     -23.973 113.444-132.697  1.00 26.26 LIG-0.27  OA
ATOM     15  N   GLU C   5     -22.759 115.325-132.482  1.00 23.86 LIG-0.34  N 
ATOM     16 H    GLU C   5     -22.495 116.005-132.027  1.00 23.86 LIG 0.16  HD
BRANCH 15 17
ATOM     17  CA  GLU C   5     -22.113 115.179-133.785  1.00 25.08 LIG 0.19  C 
BRANCH 17 18
ATOM     18  CB  GLU C   5     -22.776 116.089-134.819  1.00 28.24 LIG 0.05  C 
BRANCH 18 19
ATOM     19  CG  GLU C   5     -24.106 115.558-135.322  1.00 35.55 LIG 0.12  C 
BRANCH 19 20
ATOM     20  CD  GLU C   5     -24.365 115.922-136.765  1.00 50.11 LIG 0.17  C 
ATOM     21 OE2  GLU C   5     -23.420 116.393-137.436  1.00 51.97 LIG-0.65  OA
ATOM     22 OE1  GLU C   5     -25.513 115.741-137.225  1.00 61.02 LIG-0.65  OA
ENDBRANCH 19 20
ENDBRANCH 18 19
ENDBRANCH 17 18
BRANCH 17 23
ATOM     23  C   GLU C   5     -20.605 115.414-133.772  1.00 25.62 LIG 0.20  C 
ATOM     24 OXT  GLU C   5     -19.881 114.578-133.224  1.00 22.77 LIG-0.65  OA
ATOM     25 O    GLU C   5     -20.075 116.408-134.285  1.00 24.56 LIG-0.65  OA
ENDBRANCH 17 23
ENDBRANCH 15 17
ENDBRANCH 12 13
BRANCH 12 26
ATOM     26  CB  GLN C   4     -25.573 115.660-130.959  1.00 29.25 LIG 0.04  C 
BRANCH 26 27
ATOM     27  CG  GLN C   4     -26.823 114.892-131.369  1.00 33.50 LIG 0.10  C 
BRANCH 27 28
ATOM     28  CD  GLN C   4     -27.033 114.880-132.874  1.00 35.44 LIG 0.21  C 
ATOM     29  NE2 GLN C   4     -27.466 116.013-133.418  1.00 29.14 LIG-0.37  N 
ATOM     30 22HE GLN C   4     -27.597 116.060-134.267  1.00 29.14 LIG 0.16  HD
ATOM     31 21HE GLN C   4     -27.615 116.699-132.922  1.00 29.14 LIG 0.16  HD
ATOM     32 OE1  GLN C   4     -26.804 113.868-133.541  1.00 33.33 LIG-0.27  OA
ENDBRANCH 27 28
ENDBRANCH 26 27
ENDBRANCH 12 26
ENDBRANCH 9 12
ENDBRANCH 1 8
BRANCH 1 33
ATOM     33  N   HIS C   3     -22.016 116.783-127.949  1.00 25.18 LIG-0.35  N 
ATOM     34  C   SER C   2     -21.594 118.044-127.946  1.00 31.86 LIG 0.24  C 
ATOM     35 O    SER C   2     -20.545 118.414-128.476  1.00 26.79 LIG-0.27  OA
ATOM     36 H    HIS C   3     -22.722 116.516-127.536  1.00 25.18 LIG 0.16  HD
BRANCH 34 37
ATOM     37  CA  SER C   2     -22.490 119.036-127.227  1.00 34.72 LIG 0.20  C 
BRANCH 37 38
ATOM     38  N   SER C   2     -23.874 118.839-127.631  1.00 38.98 LIG-0.34  N 
ATOM     39  C   LYS C   1     -24.647 117.944-127.023  1.00 41.15 LIG 0.25  C 
ATOM     40 O    LYS C   1     -24.231 117.185-126.141  1.00 40.86 LIG-0.27  OA
ATOM     41 H    SER C   2     -24.134 119.341-128.279  1.00 38.98 LIG 0.16  HD
BRANCH 39 42
ATOM     42  CA  LYS C   1     -26.101 117.894-127.468  1.00 44.71 LIG 0.27  C 
BRANCH 42 43
ATOM     43  N   LYS C   1     -26.299 118.633-128.712  1.00 52.31 LIG-0.07  N 
ATOM     44 H3   LYS C   1     -25.732 119.318-128.743  1.00 52.31 LIG 0.28  HD
ATOM     45 H2   LYS C   1     -27.134 118.937-128.746  1.00 52.31 LIG 0.28  HD
ATOM     46 H1   LYS C   1     -26.151 118.093-129.404  1.00 52.31 LIG 0.28  HD
ENDBRANCH 42 43
BRANCH 42 47
ATOM     47  CB  LYS C   1     -26.527 116.433-127.635  1.00 46.48 LIG 0.04  C 
BRANCH 47 48
ATOM     48  CG  LYS C   1     -25.376 115.449-127.834  1.00 53.12 LIG 0.00  C 
BRANCH 48 49
ATOM     49  CD  LYS C   1     -25.515 114.211-126.957  1.00 36.86 LIG 0.03  C 
BRANCH 49 50
ATOM     50  CE  LYS C   1     -26.792 113.447-127.308  1.00 31.94 LIG 0.23  C 
BRANCH 50 51
ATOM     51  NZ  LYS C   1     -27.577 113.031-126.105  1.00 27.86 LIG-0.08  N 
ATOM     52 HZ3  LYS C   1     -27.522 112.149-126.006  1.00 27.86 LIG 0.27  HD
ATOM     53 HZ1  LYS C   1     -27.246 113.433-125.383  1.00 27.86 LIG 0.27  HD
ATOM     54 HZ2  LYS C   1     -28.428 113.266-126.211  1.00 27.86 LIG 0.27  HD
ENDBRANCH 50 51
ENDBRANCH 49 50
ENDBRANCH 48 49
ENDBRANCH 47 48
ENDBRANCH 42 47
ENDBRANCH 39 42
ENDBRANCH 37 38
BRANCH 37 55
ATOM     55  CB  SER C   2     -22.336 118.875-125.713  1.00 36.44 LIG 0.20  C 
BRANCH 55 56
ATOM     56 OG   SER C   2     -21.083 119.379-125.281  1.00 50.02 LIG-0.40  OA
ATOM     57 HG   SER C   2     -20.981 120.162-125.568  1.00 50.02 LIG 0.21  HD
ENDBRANCH 55 56
ENDBRANCH 37 55
ENDBRANCH 34 37
ENDBRANCH 1 33
TORSDOF 25
ENDMDL
MODEL 2
USER: ADFR SOLUTION from run 58
USER: SCORE 21.742601 LL:  -3.557 LR: -19.628 RR:   0.000 FEB: -12.170
USER: RMSD 8.563566
USER: SEED 57
USER: STATUS no improvement in best in 5 clusters for 5 generations
USER: GENES 27
USER: genes 0 Translation |==|  0.49284 0.89502 0.78126
USER: genes 1 Rotation |==|  0.48145 0.39839 0.26691 0.93012
USER: genes 2 Torsion [C]-CA--CB-[CG] |==|  0.14379
USER: genes 3 Torsion [CA]-CB--CG-[ND1] |==|  0.17552
USER: genes 4 Torsion [N]-CA--C-[N] |==|  0.21388
USER: genes 5 Torsion [C]-N--CA-[C] |==|  0.23616
USER: genes 6 Torsion [N]-CA--C-[N] |==|  0.28084
USER: genes 7 Torsion [C]-N--CA-[CB] |==|  0.43958
USER: genes 8 Torsion [N]-CA--CB-[CG] |==|  0.14714
USER: genes 9 Torsion [CA]-CB--CG-[CD] |==|  0.76512
USER: genes 10 Torsion [CB]-CG--CD-[OE2] |==|  0.26773
USER: genes 11 Torsion [N]-CA--C-[OXT] |==|  0.87359
USER: genes 12 Torsion [N]-CA--CB-[CG] |==|  0.77832
USER: genes 13 Torsion [CA]-CB--CG-[CD] |==|  0.42012
USER: genes 14 Torsion [CB]-CG--CD-[OE1] |==|  0.99571
USER: genes 15 Torsion [CB]-CA--N-[C] |==|  0.76449
USER: genes 16 Torsion [N]-C--CA-[N] |==|  0.46036
USER: genes 17 Torsion [C]-CA--N-[C] |==|  0.81373
USER: genes 18 Torsion [N]-C--CA-[N] |==|  0.88713
USER: genes 19 Torsion [C]-CA--N-[H3] |==|  0.42450
USER: genes 20 Torsion [C]-CA--CB-[CG] |==|  0.28735
USER: genes 21 Torsion [CA]-CB--CG-[CD] |==|  0.91839
USER: genes 22 Torsion [CB]-CG--CD-[CE] |==|  0.76238
USER: genes 23 Torsion [CG]-CD--CE-[NZ] |==|  0.02973
USER: genes 24 Torsion [CD]-CE--NZ-[HZ3] |==|  0.85103
USER: genes 25 Torsion [C]-CA--CB-[OG] |==|  0.28209
USER: genes 26 Torsion [CA]-CB--OG-[HG] |==|  0.84702
ROOT
ATOM      1  CA  HIS C   3     -22.812 118.330-127.101  1.00 19.60 LIG 0.18  C 
ENDROOT
BRANCH 1 2
ATOM      2  CB  HIS C   3     -22.873 118.661-125.606  1.00 23.73 LIG 0.10  C 
BRANCH 2 3
ATOM      3  CG  HIS C   3     -21.545 118.577-124.925  1.00 30.80 LIG 0.06  A 
ATOM      4 ND1  HIS C   3     -20.487 119.399-125.252  1.00 38.28 LIG-0.24  NA
ATOM      5  CE1 HIS C   3     -19.447 119.095-124.498  1.00 40.75 LIG 0.23  A 
ATOM      6 NE2  HIS C   3     -19.790 118.104-123.694  1.00 37.68 LIG-0.25  NA
ATOM      7  CD2 HIS C   3     -21.098 117.762-123.941  1.00 33.77 LIG 0.14  A 
ENDBRANCH 2 3
ENDBRANCH 1 2
BRANCH 1 8
ATOM      8  C   HIS C   3     -22.109 117.007-127.317  1.00 20.49 LIG 0.24  C 
ATOM      9  N   GLN C   4     -21.609 116.794-128.532  1.00 22.11 LIG-0.35  N 
ATOM     10 H    GLN C   4     -21.712 117.330-129.196  1.00 22.11 LIG 0.16  HD
ATOM     11 O    HIS C   3     -22.010 116.200-126.397  1.00 22.31 LIG-0.27  OA
BRANCH 9 12
ATOM     12  CA  GLN C   4     -20.831 115.600-128.832  1.00 24.42 LIG 0.18  C 
BRANCH 12 13
ATOM     13  C   GLN C   4     -21.751 114.436-129.196  1.00 25.27 LIG 0.24  C 
ATOM     14 O    GLN C   4     -22.325 113.785-128.320  1.00 26.26 LIG-0.27  OA
ATOM     15  N   GLU C   5     -21.875 114.167-130.490  1.00 23.86 LIG-0.34  N 
ATOM     16 H    GLU C   5     -21.436 114.570-131.110  1.00 23.86 LIG 0.16  HD
BRANCH 15 17
ATOM     17  CA  GLU C   5     -22.794 113.136-130.968  1.00 25.08 LIG 0.19  C 
BRANCH 17 18
ATOM     18  CB  GLU C   5     -23.153 113.374-132.434  1.00 28.24 LIG 0.05  C 
BRANCH 18 19
ATOM     19  CG  GLU C   5     -21.939 113.524-133.334  1.00 35.55 LIG 0.12  C 
BRANCH 19 20
ATOM     20  CD  GLU C   5     -21.401 114.936-133.347  1.00 50.11 LIG 0.17  C 
ATOM     21 OE2  GLU C   5     -20.448 115.215-132.586  1.00 51.97 LIG-0.65  OA
ATOM     22 OE1  GLU C   5     -21.936 115.766-134.114  1.00 61.02 LIG-0.65  OA
ENDBRANCH 19 20
ENDBRANCH 18 19
ENDBRANCH 17 18
BRANCH 17 23
ATOM     23  C   GLU C   5     -22.293 111.707-130.779  1.00 25.62 LIG 0.20  C 
ATOM     24 OXT  GLU C   5     -21.126 111.444-131.087  1.00 22.77 LIG-0.65  OA
ATOM     25 O    GLU C   5     -23.004 110.798-130.333  1.00 24.56 LIG-0.65  OA
ENDBRANCH 17 23
ENDBRANCH 15 17
ENDBRANCH 12 13
BRANCH 12 26
ATOM     26  CB  GLN C   4     -19.965 115.220-127.628  1.00 29.25 LIG 0.04  C 
BRANCH 26 27
ATOM     27  CG  GLN C   4     -18.689 116.040-127.496  1.00 33.50 LIG 0.10  C 
BRANCH 27 28
ATOM     28  CD  GLN C   4     -18.228 116.173-126.054  1.00 35.44 LIG 0.21  C 
ATOM     29  NE2 GLN C   4     -17.104 116.855-125.855  1.00 29.14 LIG-0.37  N 
ATOM     30 22HE GLN C   4     -16.802 116.963-125.057  1.00 29.14 LIG 0.16  HD
ATOM     31 21HE GLN C   4     -16.680 117.188-126.524  1.00 29.14 LIG 0.16  HD
ATOM     32 OE1  GLN C   4     -18.876 115.676-125.129  1.00 33.33 LIG-0.27  OA
ENDBRANCH 27 28
ENDBRANCH 26 27
ENDBRANCH 12 26
ENDBRANCH 9 12
ENDBRANCH 1 8
BRANCH 1 33
ATOM     33  N   HIS C   3     -24.149 118.349-127.683  1.00 25.18 LIG-0.35  N 
ATOM     34  C   SER C   2     -24.959 117.296-127.641  1.00 31.86 LIG 0.24  C 
ATOM     35 O    SER C   2     -24.632 116.201-127.181  1.00 26.79 LIG-0.27  OA
ATOM     36 H    HIS C   3     -24.360 119.098-128.051  1.00 25.18 LIG 0.16  HD
BRANCH 34 37
ATOM     37  CA  SER C   2     -26.348 117.511-128.216  1.00 34.72 LIG 0.20  C 
BRANCH 37 38
ATOM     38  N   SER C   2     -27.005 116.228-128.420  1.00 38.98 LIG-0.34  N 
ATOM     39  C   LYS C   1     -26.561 115.366-129.330  1.00 41.15 LIG 0.25  C 
ATOM     40 O    LYS C   1     -25.626 115.619-130.097  1.00 40.86 LIG-0.27  OA
ATOM     41 H    SER C   2     -27.684 116.088-127.912  1.00 38.98 LIG 0.16  HD
BRANCH 39 42
ATOM     42  CA  LYS C   1     -27.269 114.021-129.387  1.00 44.71 LIG 0.27  C 
BRANCH 42 43
ATOM     43  N   LYS C   1     -27.563 113.521-128.047  1.00 52.31 LIG-0.07  N 
ATOM     44 H3   LYS C   1     -28.276 112.989-128.078  1.00 52.31 LIG 0.28  HD
ATOM     45 H2   LYS C   1     -27.728 114.206-127.504  1.00 52.31 LIG 0.28  HD
ATOM     46 H1   LYS C   1     -26.864 113.062-127.741  1.00 52.31 LIG 0.28  HD
ENDBRANCH 42 43
BRANCH 42 47
ATOM     47  CB  LYS C   1     -28.556 114.163-130.203  1.00 46.48 LIG 0.04  C 
BRANCH 47 48
ATOM     48  CG  LYS C   1     -28.481 113.601-131.621  1.00 53.12 LIG 0.00  C 
BRANCH 48 49
ATOM     49  CD  LYS C   1     -27.072 113.668-132.195  1.00 36.86 LIG 0.03  C 
BRANCH 49 50
ATOM     50  CE  LYS C   1     -26.817 115.035-132.832  1.00 31.94 LIG 0.23  C 
BRANCH 50 51
ATOM     51  NZ  LYS C   1     -27.882 116.035-132.520  1.00 27.86 LIG-0.08  N 
ATOM     52 HZ3  LYS C   1     -28.677 115.700-132.738  1.00 27.86 LIG 0.27  HD
ATOM     53 HZ1  LYS C   1     -27.868 116.222-131.650  1.00 27.86 LIG 0.27  HD
ATOM     54 HZ2  LYS C   1     -27.736 116.779-132.985  1.00 27.86 LIG 0.27  HD
ENDBRANCH 50 51
ENDBRANCH 49 50
ENDBRANCH 48 49
ENDBRANCH 47 48
ENDBRANCH 42 47
ENDBRANCH 39 42
ENDBRANCH 37 38
BRANCH 37 55
ATOM     55  CB  SER C   2     -27.168 118.400-127.281  1.00 36.44 LIG 0.20  C 
BRANCH 55 56
ATOM     56 OG   SER C   2     -27.219 119.731-127.771  1.00 50.02 LIG-0.40  OA
ATOM     57 HG   SER C   2     -26.438 120.016-127.890  1.00 50.02 LIG 0.21  HD
ENDBRANCH 55 56
ENDBRANCH 37 55
ENDBRANCH 34 37
ENDBRANCH 1 33
TORSDOF 25
ENDMDL
MODEL 3
USER: ADFR SOLUTION from run 187
USER: SCORE 20.900473 LL:  -2.388 LR: -19.563 RR:   0.000 FEB: -12.106
USER: RMSD 6.872185
USER: SEED 186
USER: STATUS searching
USER: GENES 27
USER: genes 0 Translation |==|  0.49740 0.79237 0.69667
USER: genes 1 Rotation |==|  0.45860 0.54153 0.30316 0.95587
USER: genes 2 Torsion [C]-CA--CB-[CG] |==|  0.25006
USER: genes 3 Torsion [CA]-CB--CG-[ND1] |==|  0.09893
USER: genes 4 Torsion [N]-CA--C-[N] |==|  0.02406
USER: genes 5 Torsion [C]-N--CA-[C] |==|  0.82936
USER: genes 6 Torsion [N]-CA--C-[N] |==|  0.89265
USER: genes 7 Torsion [C]-N--CA-[CB] |==|  0.39062
USER: genes 8 Torsion [N]-CA--CB-[CG] |==|  0.72010
USER: genes 9 Torsion [CA]-CB--CG-[CD] |==|  0.69477
USER: genes 10 Torsion [CB]-CG--CD-[OE2] |==|  0.78893
USER: genes 11 Torsion [N]-CA--C-[OXT] |==|  0.30402
USER: genes 12 Torsion [N]-CA--CB-[CG] |==|  0.46283
USER: genes 13 Torsion [CA]-CB--CG-[CD] |==|  0.19142
USER: genes 14 Torsion [CB]-CG--CD-[OE1] |==|  0.99821
USER: genes 15 Torsion [CB]-CA--N-[C] |==|  0.20902
USER: genes 16 Torsion [N]-C--CA-[N] |==|  0.14056
USER: genes 17 Torsion [C]-CA--N-[C] |==|  0.80443
USER: genes 18 Torsion [N]-C--CA-[N] |==|  0.10404
USER: genes 19 Torsion [C]-CA--N-[H3] |==|  0.25202
USER: genes 20 Torsion [C]-CA--CB-[CG] |==|  0.83606
USER: genes 21 Torsion [CA]-CB--CG-[CD] |==|  0.68044
USER: genes 22 Torsion [CB]-CG--CD-[CE] |==|  0.45815
USER: genes 23 Torsion [CG]-CD--CE-[NZ] |==|  0.85319
USER: genes 24 Torsion [CD]-CE--NZ-[HZ3] |==|  0.12094
USER: genes 25 Torsion [C]-CA--CB-[OG] |==|  0.19323
USER: genes 26 Torsion [CA]-CB--OG-[HG] |==|  0.05495
ROOT
ATOM      1  CA  HIS C   3     -22.733 116.175-128.751  1.00 19.60 LIG 0.18  C 
ENDROOT
BRANCH 1 2
ATOM      2  CB  HIS C   3     -21.994 116.311-127.415  1.00 23.73 LIG 0.10  C 
BRANCH 2 3
ATOM      3  CG  HIS C   3     -20.810 117.222-127.482  1.00 30.80 LIG 0.06  A 
ATOM      4 ND1  HIS C   3     -20.786 118.356-128.264  1.00 38.28 LIG-0.24  NA
ATOM      5  CE1 HIS C   3     -19.618 118.955-128.132  1.00 40.75 LIG 0.23  A 
ATOM      6 NE2  HIS C   3     -18.880 118.249-127.294  1.00 37.68 LIG-0.25  NA
ATOM      7  CD2 HIS C   3     -19.603 117.160-126.871  1.00 33.77 LIG 0.14  A 
ENDBRANCH 2 3
ENDBRANCH 1 2
BRANCH 1 8
ATOM      8  C   HIS C   3     -22.158 115.027-129.553  1.00 20.49 LIG 0.24  C 
ATOM      9  N   GLN C   4     -23.035 114.176-130.080  1.00 22.11 LIG-0.35  N 
ATOM     10 H    GLN C   4     -23.884 114.212-129.944  1.00 22.11 LIG 0.16  HD
ATOM     11 O    HIS C   3     -20.944 114.921-129.704  1.00 22.31 LIG-0.27  OA
BRANCH 9 12
ATOM     12  CA  GLN C   4     -22.607 113.089-130.950  1.00 24.42 LIG 0.18  C 
BRANCH 12 13
ATOM     13  C   GLN C   4     -21.926 113.640-132.202  1.00 25.27 LIG 0.24  C 
ATOM     14 O    GLN C   4     -20.930 113.090-132.676  1.00 26.26 LIG-0.27  OA
ATOM     15  N   GLU C   5     -22.457 114.740-132.724  1.00 23.86 LIG-0.34  N 
ATOM     16 H    GLU C   5     -23.113 115.172-132.373  1.00 23.86 LIG 0.16  HD
BRANCH 15 17
ATOM     17  CA  GLU C   5     -21.950 115.311-133.970  1.00 25.08 LIG 0.19  C 
BRANCH 17 18
ATOM     18  CB  GLU C   5     -23.102 115.823-134.835  1.00 28.24 LIG 0.05  C 
BRANCH 18 19
ATOM     19  CG  GLU C   5     -23.477 114.872-135.958  1.00 35.55 LIG 0.12  C 
BRANCH 19 20
ATOM     20  CD  GLU C   5     -23.098 115.408-137.319  1.00 50.11 LIG 0.17  C 
ATOM     21 OE2  GLU C   5     -23.807 116.310-137.819  1.00 51.97 LIG-0.65  OA
ATOM     22 OE1  GLU C   5     -22.096 114.924-137.888  1.00 61.02 LIG-0.65  OA
ENDBRANCH 19 20
ENDBRANCH 18 19
ENDBRANCH 17 18
BRANCH 17 23
ATOM     23  C   GLU C   5     -20.910 116.412-133.782  1.00 25.62 LIG 0.20  C 
ATOM     24 OXT  GLU C   5     -19.737 116.175-134.086  1.00 22.77 LIG-0.65  OA
ATOM     25 O    GLU C   5     -21.188 117.533-133.336  1.00 24.56 LIG-0.65  OA
ENDBRANCH 17 23
ENDBRANCH 15 17
ENDBRANCH 12 13
BRANCH 12 26
ATOM     26  CB  GLN C   4     -23.809 112.230-131.349  1.00 29.25 LIG 0.04  C 
BRANCH 26 27
ATOM     27  CG  GLN C   4     -23.533 111.271-132.500  1.00 33.50 LIG 0.10  C 
BRANCH 27 28
ATOM     28  CD  GLN C   4     -22.579 110.154-132.111  1.00 35.44 LIG 0.21  C 
ATOM     29  NE2 GLN C   4     -22.291 109.268-133.060  1.00 29.14 LIG-0.37  N 
ATOM     30 22HE GLN C   4     -21.753 108.618-132.893  1.00 29.14 LIG 0.16  HD
ATOM     31 21HE GLN C   4     -22.643 109.345-133.841  1.00 29.14 LIG 0.16  HD
ATOM     32 OE1  GLN C   4     -22.102 110.089-130.975  1.00 33.33 LIG-0.27  OA
ENDBRANCH 27 28
ENDBRANCH 26 27
ENDBRANCH 12 26
ENDBRANCH 9 12
ENDBRANCH 1 8
BRANCH 1 33
ATOM     33  N   HIS C   3     -24.167 116.031-128.528  1.00 25.18 LIG-0.35  N 
ATOM     34  C   SER C   2     -24.940 117.056-128.183  1.00 31.86 LIG 0.24  C 
ATOM     35 O    SER C   2     -24.511 118.187-127.951  1.00 26.79 LIG-0.27  OA
ATOM     36 H    HIS C   3     -24.460 115.230-128.640  1.00 25.18 LIG 0.16  HD
BRANCH 34 37
ATOM     37  CA  SER C   2     -26.424 116.754-128.074  1.00 34.72 LIG 0.20  C 
BRANCH 37 38
ATOM     38  N   SER C   2     -26.632 115.580-127.239  1.00 38.98 LIG-0.34  N 
ATOM     39  C   LYS C   1     -26.289 114.367-127.662  1.00 41.15 LIG 0.25  C 
ATOM     40 O    LYS C   1     -25.845 114.149-128.794  1.00 40.86 LIG-0.27  OA
ATOM     41 H    SER C   2     -26.987 115.742-126.473  1.00 38.98 LIG 0.16  HD
BRANCH 39 42
ATOM     42  CA  LYS C   1     -26.466 113.230-126.666  1.00 44.71 LIG 0.27  C 
BRANCH 42 43
ATOM     43  N   LYS C   1     -27.672 113.413-125.864  1.00 52.31 LIG-0.07  N 
ATOM     44 H3   LYS C   1     -28.358 113.012-126.264  1.00 52.31 LIG 0.28  HD
ATOM     45 H2   LYS C   1     -27.844 114.282-125.780  1.00 52.31 LIG 0.28  HD
ATOM     46 H1   LYS C   1     -27.549 113.056-125.058  1.00 52.31 LIG 0.28  HD
ENDBRANCH 42 43
BRANCH 42 47
ATOM     47  CB  LYS C   1     -26.519 111.901-127.424  1.00 46.48 LIG 0.04  C 
BRANCH 47 48
ATOM     48  CG  LYS C   1     -27.642 111.794-128.453  1.00 53.12 LIG 0.00  C 
BRANCH 48 49
ATOM     49  CD  LYS C   1     -28.662 110.723-128.087  1.00 36.86 LIG 0.03  C 
BRANCH 49 50
ATOM     50  CE  LYS C   1     -29.938 110.894-128.912  1.00 31.94 LIG 0.23  C 
BRANCH 50 51
ATOM     51  NZ  LYS C   1     -30.505 112.274-128.836  1.00 27.86 LIG-0.08  N 
ATOM     52 HZ3  LYS C   1     -29.848 112.869-128.908  1.00 27.86 LIG 0.27  HD
ATOM     53 HZ1  LYS C   1     -31.087 112.393-129.499  1.00 27.86 LIG 0.27  HD
ATOM     54 HZ2  LYS C   1     -30.919 112.382-128.056  1.00 27.86 LIG 0.27  HD
ENDBRANCH 50 51
ENDBRANCH 49 50
ENDBRANCH 48 49
ENDBRANCH 47 48
ENDBRANCH 42 47
ENDBRANCH 39 42
ENDBRANCH 37 38
BRANCH 37 55
ATOM     55  CB  SER C   2     -27.163 117.965-127.504  1.00 36.44 LIG 0.20  C 
BRANCH 55 56
ATOM     56 OG   SER C   2     -27.177 119.030-128.442  1.00 50.02 LIG-0.40  OA
ATOM     57 HG   SER C   2     -27.028 118.728-129.211  1.00 50.02 LIG 0.21  HD
ENDBRANCH 55 56
ENDBRANCH 37 55
ENDBRANCH 34 37
ENDBRANCH 1 33
TORSDOF 25
ENDMDL
MODEL 4
USER: ADFR SOLUTION from run 192
USER: SCORE 19.974328 LL:  -3.242 LR: -19.465 RR:   0.000 FEB: -12.008
USER: RMSD 8.212231
USER: SEED 191
USER: STATUS no improvement in best in 1 clusters for 5 generations
USER: GENES 27
USER: genes 0 Translation |==|  0.58656 0.77414 0.70390
USER: genes 1 Rotation |==|  0.49260 0.66476 0.11580 0.77421
USER: genes 2 Torsion [C]-CA--CB-[CG] |==|  0.53501
USER: genes 3 Torsion [CA]-CB--CG-[ND1] |==|  0.29253
USER: genes 4 Torsion [N]-CA--C-[N] |==|  0.58520
USER: genes 5 Torsion [C]-N--CA-[C] |==|  0.18780
USER: genes 6 Torsion [N]-CA--C-[N] |==|  0.01111
USER: genes 7 Torsion [C]-N--CA-[CB] |==|  0.15056
USER: genes 8 Torsion [N]-CA--CB-[CG] |==|  0.67803
USER: genes 9 Torsion [CA]-CB--CG-[CD] |==|  0.69864
USER: genes 10 Torsion [CB]-CG--CD-[OE2] |==|  0.65503
USER: genes 11 Torsion [N]-CA--C-[OXT] |==|  0.22728
USER: genes 12 Torsion [N]-CA--CB-[CG] |==|  0.72642
USER: genes 13 Torsion [CA]-CB--CG-[CD] |==|  0.86165
USER: genes 14 Torsion [CB]-CG--CD-[OE1] |==|  0.16426
USER: genes 15 Torsion [CB]-CA--N-[C] |==|  0.32003
USER: genes 16 Torsion [N]-C--CA-[N] |==|  0.83408
USER: genes 17 Torsion [C]-CA--N-[C] |==|  0.21688
USER: genes 18 Torsion [N]-C--CA-[N] |==|  0.10685
USER: genes 19 Torsion [C]-CA--N-[H3] |==|  0.18235
USER: genes 20 Torsion [C]-CA--CB-[CG] |==|  0.76055
USER: genes 21 Torsion [CA]-CB--CG-[CD] |==|  0.46537
USER: genes 22 Torsion [CB]-CG--CD-[CE] |==|  0.89469
USER: genes 23 Torsion [CG]-CD--CE-[NZ] |==|  0.29684
USER: genes 24 Torsion [CD]-CE--NZ-[HZ3] |==|  0.13260
USER: genes 25 Torsion [C]-CA--CB-[OG] |==|  0.32014
USER: genes 26 Torsion [CA]-CB--OG-[HG] |==|  0.35502
ROOT
ATOM      1  CA  HIS C   3     -21.195 115.792-128.610  1.00 19.60 LIG 0.18  C 
ENDROOT
BRANCH 1 2
ATOM      2  CB  HIS C   3     -20.474 114.769-127.724  1.00 23.73 LIG 0.10  C 
BRANCH 2 3
ATOM      3  CG  HIS C   3     -19.727 115.391-126.588  1.00 30.80 LIG 0.06  A 
ATOM      4 ND1  HIS C   3     -20.175 115.340-125.285  1.00 38.28 LIG-0.24  NA
ATOM      5  CE1 HIS C   3     -19.323 115.976-124.504  1.00 40.75 LIG 0.23  A 
ATOM      6 NE2  HIS C   3     -18.338 116.442-125.252  1.00 37.68 LIG-0.25  NA
ATOM      7  CD2 HIS C   3     -18.567 116.089-126.560  1.00 33.77 LIG 0.14  A 
ENDBRANCH 2 3
ENDBRANCH 1 2
BRANCH 1 8
ATOM      8  C   HIS C   3     -22.166 115.091-129.536  1.00 20.49 LIG 0.24  C 
ATOM      9  N   GLN C   4     -21.889 113.824-129.834  1.00 22.11 LIG-0.35  N 
ATOM     10 H    GLN C   4     -21.177 113.413-129.580  1.00 22.11 LIG 0.16  HD
ATOM     11 O    HIS C   3     -23.155 115.682-129.961  1.00 22.31 LIG-0.27  OA
BRANCH 9 12
ATOM     12  CA  GLN C   4     -22.799 113.019-130.636  1.00 24.42 LIG 0.18  C 
BRANCH 12 13
ATOM     13  C   GLN C   4     -22.853 113.540-132.072  1.00 25.27 LIG 0.24  C 
ATOM     14 O    GLN C   4     -23.610 113.032-132.902  1.00 26.26 LIG-0.27  OA
ATOM     15  N   GLU C   5     -22.035 114.544-132.364  1.00 23.86 LIG-0.34  N 
ATOM     16 H    GLU C   5     -21.458 114.870-131.816  1.00 23.86 LIG 0.16  HD
BRANCH 15 17
ATOM     17  CA  GLU C   5     -22.057 115.187-133.676  1.00 25.08 LIG 0.19  C 
BRANCH 17 18
ATOM     18  CB  GLU C   5     -23.469 115.663-134.018  1.00 28.24 LIG 0.05  C 
BRANCH 18 19
ATOM     19  CG  GLU C   5     -24.065 114.957-135.224  1.00 35.55 LIG 0.12  C 
BRANCH 19 20
ATOM     20  CD  GLU C   5     -24.156 115.858-136.433  1.00 50.11 LIG 0.17  C 
ATOM     21 OE2  GLU C   5     -25.272 116.011-136.977  1.00 51.97 LIG-0.65  OA
ATOM     22 OE1  GLU C   5     -23.110 116.409-136.841  1.00 61.02 LIG-0.65  OA
ENDBRANCH 19 20
ENDBRANCH 18 19
ENDBRANCH 17 18
BRANCH 17 23
ATOM     23  C   GLU C   5     -21.066 116.336-133.834  1.00 25.62 LIG 0.20  C 
ATOM     24 OXT  GLU C   5     -19.890 116.071-134.100  1.00 22.77 LIG-0.65  OA
ATOM     25 O    GLU C   5     -21.388 117.525-133.704  1.00 24.56 LIG-0.65  OA
ENDBRANCH 17 23
ENDBRANCH 15 17
ENDBRANCH 12 13
BRANCH 12 26
ATOM     26  CB  GLN C   4     -24.201 113.039-130.024  1.00 29.25 LIG 0.04  C 
BRANCH 26 27
ATOM     27  CG  GLN C   4     -24.525 111.820-129.171  1.00 33.50 LIG 0.10  C 
BRANCH 27 28
ATOM     28  CD  GLN C   4     -24.211 110.513-129.879  1.00 35.44 LIG 0.21  C 
ATOM     29  NE2 GLN C   4     -25.231 109.678-130.056  1.00 29.14 LIG-0.37  N 
ATOM     30 22HE GLN C   4     -25.108 108.927-130.455  1.00 29.14 LIG 0.16  HD
ATOM     31 21HE GLN C   4     -26.014 109.891-129.771  1.00 29.14 LIG 0.16  HD
ATOM     32 OE1  GLN C   4     -23.069 110.257-130.268  1.00 33.33 LIG-0.27  OA
ENDBRANCH 27 28
ENDBRANCH 26 27
ENDBRANCH 12 26
ENDBRANCH 9 12
ENDBRANCH 1 8
BRANCH 1 33
ATOM     33  N   HIS C   3     -21.846 116.807-127.790  1.00 25.18 LIG-0.35  N 
ATOM     34  C   SER C   2     -21.482 118.086-127.816  1.00 31.86 LIG 0.24  C 
ATOM     35 O    SER C   2     -20.528 118.510-128.469  1.00 26.79 LIG-0.27  OA
ATOM     36 H    HIS C   3     -22.480 116.503-127.294  1.00 25.18 LIG 0.16  HD
BRANCH 34 37
ATOM     37  CA  SER C   2     -22.319 119.026-126.967  1.00 34.72 LIG 0.20  C 
BRANCH 37 38
ATOM     38  N   SER C   2     -23.706 118.989-127.406  1.00 38.98 LIG-0.34  N 
ATOM     39  C   LYS C   1     -24.509 117.987-127.063  1.00 41.15 LIG 0.25  C 
ATOM     40 O    LYS C   1     -24.122 117.004-126.423  1.00 40.86 LIG-0.27  OA
ATOM     41 H    SER C   2     -23.947 119.657-127.892  1.00 38.98 LIG 0.16  HD
BRANCH 39 42
ATOM     42  CA  LYS C   1     -25.961 118.105-127.501  1.00 44.71 LIG 0.27  C 
BRANCH 42 43
ATOM     43  N   LYS C   1     -26.065 118.687-128.836  1.00 52.31 LIG-0.07  N 
ATOM     44 H3   LYS C   1     -25.706 118.132-129.431  1.00 52.31 LIG 0.28  HD
ATOM     45 H2   LYS C   1     -25.631 119.463-128.856  1.00 52.31 LIG 0.28  HD
ATOM     46 H1   LYS C   1     -26.923 118.821-129.035  1.00 52.31 LIG 0.28  HD
ENDBRANCH 42 43
BRANCH 42 47
ATOM     47  CB  LYS C   1     -26.613 116.720-127.464  1.00 46.48 LIG 0.04  C 
BRANCH 47 48
ATOM     48  CG  LYS C   1     -26.428 115.892-128.733  1.00 53.12 LIG 0.00  C 
BRANCH 48 49
ATOM     49  CD  LYS C   1     -26.824 114.434-128.535  1.00 36.86 LIG 0.03  C 
BRANCH 49 50
ATOM     50  CE  LYS C   1     -26.408 113.950-127.145  1.00 31.94 LIG 0.23  C 
BRANCH 50 51
ATOM     51  NZ  LYS C   1     -27.563 113.786-126.211  1.00 27.86 LIG-0.08  N 
ATOM     52 HZ3  LYS C   1     -28.211 113.332-126.618  1.00 27.86 LIG 0.27  HD
ATOM     53 HZ1  LYS C   1     -27.298 113.340-125.487  1.00 27.86 LIG 0.27  HD
ATOM     54 HZ2  LYS C   1     -27.867 114.587-125.971  1.00 27.86 LIG 0.27  HD
ENDBRANCH 50 51
ENDBRANCH 49 50
ENDBRANCH 48 49
ENDBRANCH 47 48
ENDBRANCH 42 47
ENDBRANCH 39 42
ENDBRANCH 37 38
BRANCH 37 55
ATOM     55  CB  SER C   2     -22.204 118.638-125.492  1.00 36.44 LIG 0.20  C 
BRANCH 55 56
ATOM     56 OG   SER C   2     -21.570 119.669-124.751  1.00 50.02 LIG-0.40  OA
ATOM     57 HG   SER C   2     -22.044 119.870-124.088  1.00 50.02 LIG 0.21  HD
ENDBRANCH 55 56
ENDBRANCH 37 55
ENDBRANCH 34 37
ENDBRANCH 1 33
TORSDOF 25
ENDMDL
MODEL 5
USER: ADFR SOLUTION from run 141
USER: SCORE 21.135600 LL:  -4.597 LR: -19.188 RR:   0.000 FEB: -11.730
USER: RMSD 8.598566
USER: SEED 140
USER: STATUS 1 or 2 clusters left
USER: GENES 27
USER: genes 0 Translation |==|  0.59032 0.77417 0.70751
USER: genes 1 Rotation |==|  0.50865 0.64303 0.12278 0.79525
USER: genes 2 Torsion [C]-CA--CB-[CG] |==|  0.53429
USER: genes 3 Torsion [CA]-CB--CG-[ND1] |==|  0.25441
USER: genes 4 Torsion [N]-CA--C-[N] |==|  0.13738
USER: genes 5 Torsion [C]-N--CA-[C] |==|  0.68248
USER: genes 6 Torsion [N]-CA--C-[N] |==|  0.48876
USER: genes 7 Torsion [C]-N--CA-[CB] |==|  0.29843
USER: genes 8 Torsion [N]-CA--CB-[CG] |==|  0.00958
USER: genes 9 Torsion [CA]-CB--CG-[CD] |==|  0.73798
USER: genes 10 Torsion [CB]-CG--CD-[OE2] |==|  0.20687
USER: genes 11 Torsion [N]-CA--C-[OXT] |==|  0.47609
USER: genes 12 Torsion [N]-CA--CB-[CG] |==|  0.52706
USER: genes 13 Torsion [CA]-CB--CG-[CD] |==|  0.54266
USER: genes 14 Torsion [CB]-CG--CD-[OE1] |==|  0.77686
USER: genes 15 Torsion [CB]-CA--N-[C] |==|  0.33868
USER: genes 16 Torsion [N]-C--CA-[N] |==|  0.84002
USER: genes 17 Torsion [C]-CA--N-[C] |==|  0.22665
USER: genes 18 Torsion [N]-C--CA-[N] |==|  0.98133
USER: genes 19 Torsion [C]-CA--N-[H3] |==|  0.23963
USER: genes 20 Torsion [C]-CA--CB-[CG] |==|  0.08528
USER: genes 21 Torsion [CA]-CB--CG-[CD] |==|  0.37686
USER: genes 22 Torsion [CB]-CG--CD-[CE] |==|  0.13898
USER: genes 23 Torsion [CG]-CD--CE-[NZ] |==|  0.75458
USER: genes 24 Torsion [CD]-CE--NZ-[HZ3] |==|  0.68045
USER: genes 25 Torsion [C]-CA--CB-[OG] |==|  0.24825
USER: genes 26 Torsion [CA]-CB--OG-[HG] |==|  0.99290
ROOT
ATOM      1  CA  HIS C   3     -21.130 115.792-128.540  1.00 19.60 LIG 0.18  C 
ENDROOT
BRANCH 1 2
ATOM      2  CB  HIS C   3     -20.467 114.831-127.547  1.00 23.73 LIG 0.10  C 
BRANCH 2 3
ATOM      3  CG  HIS C   3     -19.900 115.518-126.345  1.00 30.80 LIG 0.06  A 
ATOM      4 ND1  HIS C   3     -20.619 115.703-125.184  1.00 38.28 LIG-0.24  NA
ATOM      5  CE1 HIS C   3     -19.872 116.342-124.303  1.00 40.75 LIG 0.23  A 
ATOM      6 NE2  HIS C   3     -18.694 116.582-124.851  1.00 37.68 LIG-0.25  NA
ATOM      7  CD2 HIS C   3     -18.685 116.075-126.129  1.00 33.77 LIG 0.14  A 
ENDBRANCH 2 3
ENDBRANCH 1 2
BRANCH 1 8
ATOM      8  C   HIS C   3     -21.935 115.017-129.561  1.00 20.49 LIG 0.24  C 
ATOM      9  N   GLN C   4     -22.679 115.737-130.397  1.00 22.11 LIG-0.35  N 
ATOM     10 H    GLN C   4     -22.766 116.592-130.352  1.00 22.11 LIG 0.16  HD
ATOM     11 O    HIS C   3     -21.874 113.792-129.599  1.00 22.31 LIG-0.27  OA
BRANCH 9 12
ATOM     12  CA  GLN C   4     -23.421 115.110-131.482  1.00 24.42 LIG 0.18  C 
BRANCH 12 13
ATOM     13  C   GLN C   4     -22.868 115.552-132.836  1.00 25.27 LIG 0.24  C 
ATOM     14 O    GLN C   4     -21.980 116.405-132.910  1.00 26.26 LIG-0.27  OA
ATOM     15  N   GLU C   5     -23.409 114.983-133.907  1.00 23.86 LIG-0.34  N 
ATOM     16 H    GLU C   5     -24.070 114.433-133.878  1.00 23.86 LIG 0.16  HD
BRANCH 15 17
ATOM     17  CA  GLU C   5     -22.906 115.258-135.251  1.00 25.08 LIG 0.19  C 
BRANCH 17 18
ATOM     18  CB  GLU C   5     -22.142 114.051-135.796  1.00 28.24 LIG 0.05  C 
BRANCH 18 19
ATOM     19  CG  GLU C   5     -22.164 112.855-134.861  1.00 35.55 LIG 0.12  C 
BRANCH 19 20
ATOM     20  CD  GLU C   5     -20.952 112.803-133.961  1.00 50.11 LIG 0.17  C 
ATOM     21 OE2  GLU C   5     -20.889 113.608-133.004  1.00 51.97 LIG-0.65  OA
ATOM     22 OE1  GLU C   5     -20.062 111.962-134.213  1.00 61.02 LIG-0.65  OA
ENDBRANCH 19 20
ENDBRANCH 18 19
ENDBRANCH 17 18
BRANCH 17 23
ATOM     23  C   GLU C   5     -23.975 115.693-136.249  1.00 25.62 LIG 0.20  C 
ATOM     24 OXT  GLU C   5     -23.618 116.099-137.358  1.00 22.77 LIG-0.65  OA
ATOM     25 O    GLU C   5     -25.186 115.660-135.995  1.00 24.56 LIG-0.65  OA
ENDBRANCH 17 23
ENDBRANCH 15 17
ENDBRANCH 12 13
BRANCH 12 26
ATOM     26  CB  GLN C   4     -24.905 115.472-131.384  1.00 29.25 LIG 0.04  C 
BRANCH 26 27
ATOM     27  CG  GLN C   4     -25.801 114.683-132.329  1.00 33.50 LIG 0.10  C 
BRANCH 27 28
ATOM     28  CD  GLN C   4     -27.179 115.306-132.482  1.00 35.44 LIG 0.21  C 
ATOM     29  NE2 GLN C   4     -27.377 116.036-133.575  1.00 29.14 LIG-0.37  N 
ATOM     30 22HE GLN C   4     -28.140 116.407-133.712  1.00 29.14 LIG 0.16  HD
ATOM     31 21HE GLN C   4     -26.742 116.136-134.146  1.00 29.14 LIG 0.16  HD
ATOM     32 OE1  GLN C   4     -28.056 115.130-131.633  1.00 33.33 LIG-0.27  OA
ENDBRANCH 27 28
ENDBRANCH 26 27
ENDBRANCH 12 26
ENDBRANCH 9 12
ENDBRANCH 1 8
BRANCH 1 33
ATOM     33  N   HIS C   3     -21.937 116.780-127.831  1.00 25.18 LIG-0.35  N 
ATOM     34  C   SER C   2     -21.727 118.088-127.949  1.00 31.86 LIG 0.24  C 
ATOM     35 O    SER C   2     -20.800 118.575-128.597  1.00 26.79 LIG-0.27  OA
ATOM     36 H    HIS C   3     -22.553 116.439-127.337  1.00 25.18 LIG 0.16  HD
BRANCH 34 37
ATOM     37  CA  SER C   2     -22.710 118.980-127.213  1.00 34.72 LIG 0.20  C 
BRANCH 37 38
ATOM     38  N   SER C   2     -24.066 118.704-127.665  1.00 38.98 LIG-0.34  N 
ATOM     39  C   LYS C   1     -24.756 117.677-127.179  1.00 41.15 LIG 0.25  C 
ATOM     40 O    LYS C   1     -24.279 116.862-126.382  1.00 40.86 LIG-0.27  OA
ATOM     41 H    SER C   2     -24.366 119.252-128.256  1.00 38.98 LIG 0.16  HD
BRANCH 39 42
ATOM     42  CA  LYS C   1     -26.195 117.544-127.656  1.00 44.71 LIG 0.27  C 
BRANCH 42 43
ATOM     43  N   LYS C   1     -26.594 118.696-128.460  1.00 52.31 LIG-0.07  N 
ATOM     44 H3   LYS C   1     -26.360 118.561-129.308  1.00 52.31 LIG 0.28  HD
ATOM     45 H2   LYS C   1     -26.188 119.426-128.154  1.00 52.31 LIG 0.28  HD
ATOM     46 H1   LYS C   1     -27.476 118.802-128.409  1.00 52.31 LIG 0.28  HD
ENDBRANCH 42 43
BRANCH 42 47
ATOM     47  CB  LYS C   1     -26.342 116.249-128.458  1.00 46.48 LIG 0.04  C 
BRANCH 47 48
ATOM     48  CG  LYS C   1     -25.415 115.117-128.024  1.00 53.12 LIG 0.00  C 
BRANCH 48 49
ATOM     49  CD  LYS C   1     -26.137 113.778-127.939  1.00 36.86 LIG 0.03  C 
BRANCH 49 50
ATOM     50  CE  LYS C   1     -26.926 113.512-129.222  1.00 31.94 LIG 0.23  C 
BRANCH 50 51
ATOM     51  NZ  LYS C   1     -28.312 114.071-129.184  1.00 27.86 LIG-0.08  N 
ATOM     52 HZ3  LYS C   1     -28.901 113.405-129.212  1.00 27.86 LIG 0.27  HD
ATOM     53 HZ1  LYS C   1     -28.425 114.535-128.433  1.00 27.86 LIG 0.27  HD
ATOM     54 HZ2  LYS C   1     -28.436 114.605-129.884  1.00 27.86 LIG 0.27  HD
ENDBRANCH 50 51
ENDBRANCH 49 50
ENDBRANCH 48 49
ENDBRANCH 47 48
ENDBRANCH 42 47
ENDBRANCH 39 42
ENDBRANCH 37 38
BRANCH 37 55
ATOM     55  CB  SER C   2     -22.584 118.762-125.704  1.00 36.44 LIG 0.20  C 
BRANCH 55 56
ATOM     56 OG   SER C   2     -21.616 119.640-125.151  1.00 50.02 LIG-0.40  OA
ATOM     57 HG   SER C   2     -21.266 120.094-125.764  1.00 50.02 LIG 0.21  HD
ENDBRANCH 55 56
ENDBRANCH 37 55
ENDBRANCH 34 37
ENDBRANCH 1 33
TORSDOF 25
ENDMDL
MODEL 6
USER: ADFR SOLUTION from run 119
USER: SCORE 19.838394 LL:  -3.191 LR: -18.900 RR:   0.000 FEB: -11.442
USER: RMSD 8.500673
USER: SEED 118
USER: STATUS 1 or 2 clusters left
USER: GENES 27
USER: genes 0 Translation |==|  0.58987 0.77218 0.69826
USER: genes 1 Rotation |==|  0.46448 0.65100 0.12736 0.79509
USER: genes 2 Torsion [C]-CA--CB-[CG] |==|  0.53026
USER: genes 3 Torsion [CA]-CB--CG-[ND1] |==|  0.79161
USER: genes 4 Torsion [N]-CA--C-[N] |==|  0.24875
USER: genes 5 Torsion [C]-N--CA-[C] |==|  0.76111
USER: genes 6 Torsion [N]-CA--C-[N] |==|  0.43446
USER: genes 7 Torsion [C]-N--CA-[CB] |==|  0.84225
USER: genes 8 Torsion [N]-CA--CB-[CG] |==|  0.83718
USER: genes 9 Torsion [CA]-CB--CG-[CD] |==|  0.35662
USER: genes 10 Torsion [CB]-CG--CD-[OE2] |==|  0.83451
USER: genes 11 Torsion [N]-CA--C-[OXT] |==|  0.55354
USER: genes 12 Torsion [N]-CA--CB-[CG] |==|  0.68170
USER: genes 13 Torsion [CA]-CB--CG-[CD] |==|  0.54092
USER: genes 14 Torsion [CB]-CG--CD-[OE1] |==|  0.07942
USER: genes 15 Torsion [CB]-CA--N-[C] |==|  0.29183
USER: genes 16 Torsion [N]-C--CA-[N] |==|  0.84978
USER: genes 17 Torsion [C]-CA--N-[C] |==|  0.21763
USER: genes 18 Torsion [N]-C--CA-[N] |==|  0.98003
USER: genes 19 Torsion [C]-CA--N-[H3] |==|  0.09938
USER: genes 20 Torsion [C]-CA--CB-[CG] |==|  0.26889
USER: genes 21 Torsion [CA]-CB--CG-[CD] |==|  0.74320
USER: genes 22 Torsion [CB]-CG--CD-[CE] |==|  0.50262
USER: genes 23 Torsion [CG]-CD--CE-[NZ] |==|  0.88579
USER: genes 24 Torsion [CD]-CE--NZ-[HZ3] |==|  0.23104
USER: genes 25 Torsion [C]-CA--CB-[OG] |==|  0.24429
USER: genes 26 Torsion [CA]-CB--OG-[HG] |==|  0.07075
ROOT
ATOM      1  CA  HIS C   3     -21.138 115.751-128.720  1.00 19.60 LIG 0.18  C 
ENDROOT
BRANCH 1 2
ATOM      2  CB  HIS C   3     -20.271 114.910-127.776  1.00 23.73 LIG 0.10  C 
BRANCH 2 3
ATOM      3  CG  HIS C   3     -19.551 115.724-126.749  1.00 30.80 LIG 0.06  A 
ATOM      4 ND1  HIS C   3     -18.446 116.492-127.046  1.00 38.28 LIG-0.24  NA
ATOM      5  CE1 HIS C   3     -18.019 117.090-125.950  1.00 40.75 LIG 0.23  A 
ATOM      6 NE2  HIS C   3     -18.806 116.735-124.949  1.00 37.68 LIG-0.25  NA
ATOM      7  CD2 HIS C   3     -19.773 115.882-125.422  1.00 33.77 LIG 0.14  A 
ENDBRANCH 2 3
ENDBRANCH 1 2
BRANCH 1 8
ATOM      8  C   HIS C   3     -22.033 114.853-129.548  1.00 20.49 LIG 0.24  C 
ATOM      9  N   GLN C   4     -22.303 115.266-130.784  1.00 22.11 LIG-0.35  N 
ATOM     10 H    GLN C   4     -22.049 116.022-131.106  1.00 22.11 LIG 0.16  HD
ATOM     11 O    HIS C   3     -22.459 113.801-129.082  1.00 22.31 LIG-0.27  OA
BRANCH 9 12
ATOM     12  CA  GLN C   4     -23.073 114.443-131.706  1.00 24.42 LIG 0.18  C 
BRANCH 12 13
ATOM     13  C   GLN C   4     -22.159 113.464-132.442  1.00 25.27 LIG 0.24  C 
ATOM     14 O    GLN C   4     -20.958 113.705-132.586  1.00 26.26 LIG-0.27  OA
ATOM     15  N   GLU C   5     -22.736 112.369-132.922  1.00 23.86 LIG-0.34  N 
ATOM     16 H    GLU C   5     -23.581 112.213-132.885  1.00 23.86 LIG 0.16  HD
BRANCH 15 17
ATOM     17  CA  GLU C   5     -21.952 111.317-133.566  1.00 25.08 LIG 0.19  C 
BRANCH 17 18
ATOM     18  CB  GLU C   5     -21.155 111.883-134.741  1.00 28.24 LIG 0.05  C 
BRANCH 18 19
ATOM     19  CG  GLU C   5     -22.028 112.534-135.800  1.00 35.55 LIG 0.12  C 
BRANCH 19 20
ATOM     20  CD  GLU C   5     -21.569 113.931-136.148  1.00 50.11 LIG 0.17  C 
ATOM     21 OE2  GLU C   5     -21.533 114.787-135.237  1.00 51.97 LIG-0.65  OA
ATOM     22 OE1  GLU C   5     -21.249 114.171-137.332  1.00 61.02 LIG-0.65  OA
ENDBRANCH 19 20
ENDBRANCH 18 19
ENDBRANCH 17 18
BRANCH 17 23
ATOM     23  C   GLU C   5     -21.024 110.554-132.625  1.00 25.62 LIG 0.20  C 
ATOM     24 OXT  GLU C   5     -20.084 109.917-133.110  1.00 22.77 LIG-0.65  OA
ATOM     25 O    GLU C   5     -21.172 110.542-131.396  1.00 24.56 LIG-0.65  OA
ENDBRANCH 17 23
ENDBRANCH 15 17
ENDBRANCH 12 13
BRANCH 12 26
ATOM     26  CB  GLN C   4     -23.805 115.328-132.717  1.00 29.25 LIG 0.04  C 
BRANCH 26 27
ATOM     27  CG  GLN C   4     -25.323 115.279-132.602  1.00 33.50 LIG 0.10  C 
BRANCH 27 28
ATOM     28  CD  GLN C   4     -26.020 115.868-133.817  1.00 35.44 LIG 0.21  C 
ATOM     29  NE2 GLN C   4     -27.215 116.410-133.607  1.00 29.14 LIG-0.37  N 
ATOM     30 22HE GLN C   4     -27.650 116.761-134.260  1.00 29.14 LIG 0.16  HD
ATOM     31 21HE GLN C   4     -27.553 116.410-132.816  1.00 29.14 LIG 0.16  HD
ATOM     32 OE1  GLN C   4     -25.489 115.842-134.931  1.00 33.33 LIG-0.27  OA
ENDBRANCH 27 28
ENDBRANCH 26 27
ENDBRANCH 12 26
ENDBRANCH 9 12
ENDBRANCH 1 8
BRANCH 1 33
ATOM     33  N   HIS C   3     -21.894 116.745-127.967  1.00 25.18 LIG-0.35  N 
ATOM     34  C   SER C   2     -21.570 118.034-127.964  1.00 31.86 LIG 0.24  C 
ATOM     35 O    SER C   2     -20.573 118.489-128.528  1.00 26.79 LIG-0.27  OA
ATOM     36 H    HIS C   3     -22.561 116.421-127.531  1.00 25.18 LIG 0.16  HD
BRANCH 34 37
ATOM     37  CA  SER C   2     -22.511 118.948-127.200  1.00 34.72 LIG 0.20  C 
BRANCH 37 38
ATOM     38  N   SER C   2     -23.874 118.768-127.677  1.00 38.98 LIG-0.34  N 
ATOM     39  C   LYS C   1     -24.605 117.725-127.293  1.00 41.15 LIG 0.25  C 
ATOM     40 O    LYS C   1     -24.162 116.820-126.578  1.00 40.86 LIG-0.27  OA
ATOM     41 H    SER C   2     -24.152 119.381-128.213  1.00 38.98 LIG 0.16  HD
BRANCH 39 42
ATOM     42  CA  LYS C   1     -26.045 117.694-127.781  1.00 44.71 LIG 0.27  C 
BRANCH 42 43
ATOM     43  N   LYS C   1     -26.401 118.936-128.461  1.00 52.31 LIG-0.07  N 
ATOM     44 H3   LYS C   1     -25.697 119.238-128.915  1.00 52.31 LIG 0.28  HD
ATOM     45 H2   LYS C   1     -26.648 119.543-127.860  1.00 52.31 LIG 0.28  HD
ATOM     46 H1   LYS C   1     -27.074 118.785-129.024  1.00 52.31 LIG 0.28  HD
ENDBRANCH 42 43
BRANCH 42 47
ATOM     47  CB  LYS C   1     -26.235 116.495-128.715  1.00 46.48 LIG 0.04  C 
BRANCH 47 48
ATOM     48  CG  LYS C   1     -26.819 115.251-128.050  1.00 53.12 LIG 0.00  C 
BRANCH 48 49
ATOM     49  CD  LYS C   1     -25.738 114.305-127.542  1.00 36.86 LIG 0.03  C 
BRANCH 49 50
ATOM     50  CE  LYS C   1     -26.367 113.065-126.906  1.00 31.94 LIG 0.23  C 
BRANCH 50 51
ATOM     51  NZ  LYS C   1     -27.563 113.379-126.067  1.00 27.86 LIG-0.08  N 
ATOM     52 HZ3  LYS C   1     -28.281 113.445-126.588  1.00 27.86 LIG 0.27  HD
ATOM     53 HZ1  LYS C   1     -27.687 112.728-125.472  1.00 27.86 LIG 0.27  HD
ATOM     54 HZ2  LYS C   1     -27.433 114.149-125.641  1.00 27.86 LIG 0.27  HD
ENDBRANCH 50 51
ENDBRANCH 49 50
ENDBRANCH 48 49
ENDBRANCH 47 48
ENDBRANCH 42 47
ENDBRANCH 39 42
ENDBRANCH 37 38
BRANCH 37 55
ATOM     55  CB  SER C   2     -22.416 118.658-125.701  1.00 36.44 LIG 0.20  C 
BRANCH 55 56
ATOM     56 OG   SER C   2     -21.386 119.431-125.106  1.00 50.02 LIG-0.40  OA
ATOM     57 HG   SER C   2     -21.257 120.125-125.561  1.00 50.02 LIG 0.21  HD
ENDBRANCH 55 56
ENDBRANCH 37 55
ENDBRANCH 34 37
ENDBRANCH 1 33
TORSDOF 25
ENDMDL
MODEL 7
USER: ADFR SOLUTION from run 154
USER: SCORE 20.951459 LL:  -3.126 LR: -18.424 RR:   0.000 FEB: -10.967
USER: RMSD 3.441720
USER: SEED 153
USER: STATUS 1 or 2 clusters left
USER: GENES 27
USER: genes 0 Translation |==|  0.45780 0.47183 0.52911
USER: genes 1 Rotation |==|  0.44009 0.45061 0.64376 0.97255
USER: genes 2 Torsion [C]-CA--CB-[CG] |==|  0.16271
USER: genes 3 Torsion [CA]-CB--CG-[ND1] |==|  0.71175
USER: genes 4 Torsion [N]-CA--C-[N] |==|  0.34614
USER: genes 5 Torsion [C]-N--CA-[C] |==|  0.67781
USER: genes 6 Torsion [N]-CA--C-[N] |==|  0.88563
USER: genes 7 Torsion [C]-N--CA-[CB] |==|  0.50394
USER: genes 8 Torsion [N]-CA--CB-[CG] |==|  0.82878
USER: genes 9 Torsion [CA]-CB--CG-[CD] |==|  0.81406
USER: genes 10 Torsion [CB]-CG--CD-[OE2] |==|  0.72402
USER: genes 11 Torsion [N]-CA--C-[OXT] |==|  0.51928
USER: genes 12 Torsion [N]-CA--CB-[CG] |==|  0.70376
USER: genes 13 Torsion [CA]-CB--CG-[CD] |==|  0.89000
USER: genes 14 Torsion [CB]-CG--CD-[OE1] |==|  0.22865
USER: genes 15 Torsion [CB]-CA--N-[C] |==|  0.84468
USER: genes 16 Torsion [N]-C--CA-[N] |==|  0.46529
USER: genes 17 Torsion [C]-CA--N-[C] |==|  0.81667
USER: genes 18 Torsion [N]-C--CA-[N] |==|  0.70356
USER: genes 19 Torsion [C]-CA--N-[H3] |==|  0.34242
USER: genes 20 Torsion [C]-CA--CB-[CG] |==|  0.22297
USER: genes 21 Torsion [CA]-CB--CG-[CD] |==|  0.35022
USER: genes 22 Torsion [CB]-CG--CD-[CE] |==|  0.16187
USER: genes 23 Torsion [CG]-CD--CE-[NZ] |==|  0.72876
USER: genes 24 Torsion [CD]-CE--NZ-[HZ3] |==|  0.52227
USER: genes 25 Torsion [C]-CA--CB-[OG] |==|  0.58258
USER: genes 26 Torsion [CA]-CB--OG-[HG] |==|  0.66092
ROOT
ATOM      1  CA  HIS C   3     -23.416 109.443-132.018  1.00 19.60 LIG 0.18  C 
ENDROOT
BRANCH 1 2
ATOM      2  CB  HIS C   3     -23.728 110.115-130.676  1.00 23.73 LIG 0.10  C 
BRANCH 2 3
ATOM      3  CG  HIS C   3     -23.727 111.609-130.746  1.00 30.80 LIG 0.06  A 
ATOM      4 ND1  HIS C   3     -22.690 112.377-130.264  1.00 38.28 LIG-0.24  NA
ATOM      5  CE1 HIS C   3     -22.966 113.654-130.452  1.00 40.75 LIG 0.23  A 
ATOM      6 NE2  HIS C   3     -24.147 113.743-131.038  1.00 37.68 LIG-0.25  NA
ATOM      7  CD2 HIS C   3     -24.644 112.477-131.234  1.00 33.77 LIG 0.14  A 
ENDBRANCH 2 3
ENDBRANCH 1 2
BRANCH 1 8
ATOM      8  C   HIS C   3     -22.062 109.892-132.527  1.00 20.49 LIG 0.24  C 
ATOM      9  N   GLN C   4     -22.064 110.656-133.616  1.00 22.11 LIG-0.35  N 
ATOM     10 H    GLN C   4     -22.770 110.855-134.065  1.00 22.11 LIG 0.16  HD
ATOM     11 O    HIS C   3     -21.037 109.564-131.936  1.00 22.31 LIG-0.27  OA
BRANCH 9 12
ATOM     12  CA  GLN C   4     -20.832 111.227-134.143  1.00 24.42 LIG 0.18  C 
BRANCH 12 13
ATOM     13  C   GLN C   4     -20.872 112.753-134.067  1.00 25.27 LIG 0.24  C 
ATOM     14 O    GLN C   4     -19.884 113.395-133.707  1.00 26.26 LIG-0.27  OA
ATOM     15  N   GLU C   5     -22.025 113.327-134.392  1.00 23.86 LIG-0.34  N 
ATOM     16 H    GLU C   5     -22.741 112.893-134.586  1.00 23.86 LIG 0.16  HD
BRANCH 15 17
ATOM     17  CA  GLU C   5     -22.162 114.781-134.444  1.00 25.08 LIG 0.19  C 
BRANCH 17 18
ATOM     18  CB  GLU C   5     -23.594 115.173-134.807  1.00 28.24 LIG 0.05  C 
BRANCH 18 19
ATOM     19  CG  GLU C   5     -24.025 114.672-136.175  1.00 35.55 LIG 0.12  C 
BRANCH 19 20
ATOM     20  CD  GLU C   5     -23.265 115.337-137.298  1.00 50.11 LIG 0.17  C 
ATOM     21 OE2  GLU C   5     -23.813 116.282-137.907  1.00 51.97 LIG-0.65  OA
ATOM     22 OE1  GLU C   5     -22.122 114.910-137.574  1.00 61.02 LIG-0.65  OA
ENDBRANCH 19 20
ENDBRANCH 18 19
ENDBRANCH 17 18
BRANCH 17 23
ATOM     23  C   GLU C   5     -21.730 115.502-133.170  1.00 25.62 LIG 0.20  C 
ATOM     24 OXT  GLU C   5     -21.934 116.716-133.080  1.00 22.77 LIG-0.65  OA
ATOM     25 O    GLU C   5     -21.182 114.924-132.222  1.00 24.56 LIG-0.65  OA
ENDBRANCH 17 23
ENDBRANCH 15 17
ENDBRANCH 12 13
BRANCH 12 26
ATOM     26  CB  GLN C   4     -20.623 110.785-135.593  1.00 29.25 LIG 0.04  C 
BRANCH 26 27
ATOM     27  CG  GLN C   4     -19.525 109.746-135.775  1.00 33.50 LIG 0.10  C 
BRANCH 27 28
ATOM     28  CD  GLN C   4     -18.317 110.014-134.893  1.00 35.44 LIG 0.21  C 
ATOM     29  NE2 GLN C   4     -17.299 110.651-135.464  1.00 29.14 LIG-0.37  N 
ATOM     30 22HE GLN C   4     -16.593 110.831-135.008  1.00 29.14 LIG 0.16  HD
ATOM     31 21HE GLN C   4     -17.348 110.883-136.291  1.00 29.14 LIG 0.16  HD
ATOM     32 OE1  GLN C   4     -18.299 109.660-133.711  1.00 33.33 LIG-0.27  OA
ENDBRANCH 27 28
ENDBRANCH 26 27
ENDBRANCH 12 26
ENDBRANCH 9 12
ENDBRANCH 1 8
BRANCH 1 33
ATOM     33  N   HIS C   3     -23.509 107.993-131.896  1.00 25.18 LIG-0.35  N 
ATOM     34  C   SER C   2     -22.806 107.307-131.001  1.00 31.86 LIG 0.24  C 
ATOM     35 O    SER C   2     -21.969 107.816-130.254  1.00 26.79 LIG-0.27  OA
ATOM     36 H    HIS C   3     -24.056 107.629-132.452  1.00 25.18 LIG 0.16  HD
BRANCH 34 37
ATOM     37  CA  SER C   2     -23.085 105.815-130.947  1.00 34.72 LIG 0.20  C 
BRANCH 37 38
ATOM     38  N   SER C   2     -22.062 105.147-130.156  1.00 38.98 LIG-0.34  N 
ATOM     39  C   LYS C   1     -20.798 105.100-130.565  1.00 41.15 LIG 0.25  C 
ATOM     40 O    LYS C   1     -20.426 105.549-131.655  1.00 40.86 LIG-0.27  OA
ATOM     41 H    SER C   2     -22.347 104.797-129.423  1.00 38.98 LIG 0.16  HD
BRANCH 39 42
ATOM     42  CA  LYS C   1     -19.803 104.458-129.610  1.00 44.71 LIG 0.27  C 
BRANCH 42 43
ATOM     43  N   LYS C   1     -18.947 105.462-128.984  1.00 52.31 LIG-0.07  N 
ATOM     44 H3   LYS C   1     -19.016 105.401-128.099  1.00 52.31 LIG 0.28  HD
ATOM     45 H2   LYS C   1     -19.202 106.274-129.245  1.00 52.31 LIG 0.28  HD
ATOM     46 H1   LYS C   1     -18.102 105.325-129.226  1.00 52.31 LIG 0.28  HD
ENDBRANCH 42 43
BRANCH 42 47
ATOM     47  CB  LYS C   1     -20.566 103.662-128.548  1.00 46.48 LIG 0.04  C 
BRANCH 47 48
ATOM     48  CG  LYS C   1     -21.039 102.282-129.000  1.00 53.12 LIG 0.00  C 
BRANCH 48 49
ATOM     49  CD  LYS C   1     -20.575 101.176-128.061  1.00 36.86 LIG 0.03  C 
BRANCH 49 50
ATOM     50  CE  LYS C   1     -21.081 101.431-126.640  1.00 31.94 LIG 0.23  C 
BRANCH 50 51
ATOM     51  NZ  LYS C   1     -20.063 102.084-125.763  1.00 27.86 LIG-0.08  N 
ATOM     52 HZ3  LYS C   1     -20.362 102.104-124.925  1.00 27.86 LIG 0.27  HD
ATOM     53 HZ1  LYS C   1     -19.303 101.621-125.795  1.00 27.86 LIG 0.27  HD
ATOM     54 HZ2  LYS C   1     -19.917 102.915-126.046  1.00 27.86 LIG 0.27  HD
ENDBRANCH 50 51
ENDBRANCH 49 50
ENDBRANCH 48 49
ENDBRANCH 47 48
ENDBRANCH 42 47
ENDBRANCH 39 42
ENDBRANCH 37 38
BRANCH 37 55
ATOM     55  CB  SER C   2     -24.476 105.566-130.363  1.00 36.44 LIG 0.20  C 
BRANCH 55 56
ATOM     56 OG   SER C   2     -24.517 104.321-129.683  1.00 50.02 LIG-0.40  OA
ATOM     57 HG   SER C   2     -25.114 103.836-130.022  1.00 50.02 LIG 0.21  HD
ENDBRANCH 55 56
ENDBRANCH 37 55
ENDBRANCH 34 37
ENDBRANCH 1 33
TORSDOF 25
ENDMDL
MODEL 8
USER: ADFR SOLUTION from run 44
USER: SCORE 19.572784 LL:  -3.143 LR: -18.401 RR:   0.000 FEB: -10.944
USER: RMSD 8.148624
USER: SEED 43
USER: STATUS 1 or 2 clusters left
USER: GENES 27
USER: genes 0 Translation |==|  0.58839 0.76843 0.69072
USER: genes 1 Rotation |==|  0.46003 0.69773 0.18178 0.82870
USER: genes 2 Torsion [C]-CA--CB-[CG] |==|  0.49456
USER: genes 3 Torsion [CA]-CB--CG-[ND1] |==|  0.78109
USER: genes 4 Torsion [N]-CA--C-[N] |==|  0.29023
USER: genes 5 Torsion [C]-N--CA-[C] |==|  0.54802
USER: genes 6 Torsion [N]-CA--C-[N] |==|  0.50515
USER: genes 7 Torsion [C]-N--CA-[CB] |==|  0.44176
USER: genes 8 Torsion [N]-CA--CB-[CG] |==|  0.47726
USER: genes 9 Torsion [CA]-CB--CG-[CD] |==|  0.13796
USER: genes 10 Torsion [CB]-CG--CD-[OE2] |==|  0.10021
USER: genes 11 Torsion [N]-CA--C-[OXT] |==|  0.20231
USER: genes 12 Torsion [N]-CA--CB-[CG] |==|  0.21439
USER: genes 13 Torsion [CA]-CB--CG-[CD] |==|  0.37835
USER: genes 14 Torsion [CB]-CG--CD-[OE1] |==|  0.82552
USER: genes 15 Torsion [CB]-CA--N-[C] |==|  0.31110
USER: genes 16 Torsion [N]-C--CA-[N] |==|  0.90213
USER: genes 17 Torsion [C]-CA--N-[C] |==|  0.77699
USER: genes 18 Torsion [N]-C--CA-[N] |==|  0.47060
USER: genes 19 Torsion [C]-CA--N-[H3] |==|  0.59506
USER: genes 20 Torsion [C]-CA--CB-[CG] |==|  0.38028
USER: genes 21 Torsion [CA]-CB--CG-[CD] |==|  0.32643
USER: genes 22 Torsion [CB]-CG--CD-[CE] |==|  0.51995
USER: genes 23 Torsion [CG]-CD--CE-[NZ] |==|  0.38558
USER: genes 24 Torsion [CD]-CE--NZ-[HZ3] |==|  0.27161
USER: genes 25 Torsion [C]-CA--CB-[OG] |==|  0.59804
USER: genes 26 Torsion [CA]-CB--OG-[HG] |==|  0.73495
ROOT
ATOM      1  CA  HIS C   3     -21.163 115.672-128.867  1.00 19.60 LIG 0.18  C 
ENDROOT
BRANCH 1 2
ATOM      2  CB  HIS C   3     -20.034 114.887-128.190  1.00 23.73 LIG 0.10  C 
BRANCH 2 3
ATOM      3  CG  HIS C   3     -19.186 115.726-127.288  1.00 30.80 LIG 0.06  A 
ATOM      4 ND1  HIS C   3     -18.200 116.565-127.760  1.00 38.28 LIG-0.24  NA
ATOM      5  CE1 HIS C   3     -17.615 117.168-126.743  1.00 40.75 LIG 0.23  A 
ATOM      6 NE2  HIS C   3     -18.183 116.749-125.626  1.00 37.68 LIG-0.25  NA
ATOM      7  CD2 HIS C   3     -19.171 115.847-125.940  1.00 33.77 LIG 0.14  A 
ENDBRANCH 2 3
ENDBRANCH 1 2
BRANCH 1 8
ATOM      8  C   HIS C   3     -21.945 114.769-129.798  1.00 20.49 LIG 0.24  C 
ATOM      9  N   GLN C   4     -22.176 115.239-131.021  1.00 22.11 LIG-0.35  N 
ATOM     10 H    GLN C   4     -21.960 116.029-131.283  1.00 22.11 LIG 0.16  HD
ATOM     11 O    HIS C   3     -22.319 113.662-129.420  1.00 22.31 LIG-0.27  OA
BRANCH 9 12
ATOM     12  CA  GLN C   4     -22.833 114.424-132.033  1.00 24.42 LIG 0.18  C 
BRANCH 12 13
ATOM     13  C   GLN C   4     -22.600 115.009-133.426  1.00 25.27 LIG 0.24  C 
ATOM     14 O    GLN C   4     -21.918 116.024-133.581  1.00 26.26 LIG-0.27  OA
ATOM     15  N   GLU C   5     -23.183 114.373-134.436  1.00 23.86 LIG-0.34  N 
ATOM     16 H    GLU C   5     -23.711 113.701-134.341  1.00 23.86 LIG 0.16  HD
BRANCH 15 17
ATOM     17  CA  GLU C   5     -22.963 114.783-135.821  1.00 25.08 LIG 0.19  C 
BRANCH 17 18
ATOM     18  CB  GLU C   5     -23.293 113.638-136.779  1.00 28.24 LIG 0.05  C 
BRANCH 18 19
ATOM     19  CG  GLU C   5     -23.276 114.055-138.239  1.00 35.55 LIG 0.12  C 
BRANCH 19 20
ATOM     20  CD  GLU C   5     -22.021 114.809-138.610  1.00 50.11 LIG 0.17  C 
ATOM     21 OE2  GLU C   5     -20.943 114.465-138.076  1.00 51.97 LIG-0.65  OA
ATOM     22 OE1  GLU C   5     -22.113 115.746-139.432  1.00 61.02 LIG-0.65  OA
ENDBRANCH 19 20
ENDBRANCH 18 19
ENDBRANCH 17 18
BRANCH 17 23
ATOM     23  C   GLU C   5     -23.719 116.043-136.234  1.00 25.62 LIG 0.20  C 
ATOM     24 OXT  GLU C   5     -23.332 117.133-135.801  1.00 22.77 LIG-0.65  OA
ATOM     25 O    GLU C   5     -24.704 116.022-136.983  1.00 24.56 LIG-0.65  OA
ENDBRANCH 17 23
ENDBRANCH 15 17
ENDBRANCH 12 13
BRANCH 12 26
ATOM     26  CB  GLN C   4     -24.335 114.342-131.751  1.00 29.25 LIG 0.04  C 
BRANCH 26 27
ATOM     27  CG  GLN C   4     -25.111 115.592-132.145  1.00 33.50 LIG 0.10  C 
BRANCH 27 28
ATOM     28  CD  GLN C   4     -26.413 115.269-132.860  1.00 35.44 LIG 0.21  C 
ATOM     29  NE2 GLN C   4     -27.530 115.660-132.255  1.00 29.14 LIG-0.37  N 
ATOM     30 22HE GLN C   4     -28.293 115.505-132.619  1.00 29.14 LIG 0.16  HD
ATOM     31 21HE GLN C   4     -27.489 116.068-131.499  1.00 29.14 LIG 0.16  HD
ATOM     32 OE1  GLN C   4     -26.415 114.681-133.944  1.00 33.33 LIG-0.27  OA
ENDBRANCH 27 28
ENDBRANCH 26 27
ENDBRANCH 12 26
ENDBRANCH 9 12
ENDBRANCH 1 8
BRANCH 1 33
ATOM     33  N   HIS C   3     -22.014 116.305-127.866  1.00 25.18 LIG-0.35  N 
ATOM     34  C   SER C   2     -22.066 117.624-127.706  1.00 31.86 LIG 0.24  C 
ATOM     35 O    SER C   2     -21.355 118.415-128.328  1.00 26.79 LIG-0.27  OA
ATOM     36 H    HIS C   3     -22.473 115.750-127.395  1.00 25.18 LIG 0.16  HD
BRANCH 34 37
ATOM     37  CA  SER C   2     -23.066 118.124-126.680  1.00 34.72 LIG 0.20  C 
BRANCH 37 38
ATOM     38  N   SER C   2     -24.253 117.281-126.691  1.00 38.98 LIG-0.34  N 
ATOM     39  C   LYS C   1     -25.199 117.439-127.611  1.00 41.15 LIG 0.25  C 
ATOM     40 O    LYS C   1     -25.171 118.340-128.458  1.00 40.86 LIG-0.27  OA
ATOM     41 H    SER C   2     -24.280 116.691-126.066  1.00 38.98 LIG 0.16  HD
BRANCH 39 42
ATOM     42  CA  LYS C   1     -26.345 116.440-127.580  1.00 44.71 LIG 0.27  C 
BRANCH 42 43
ATOM     43  N   LYS C   1     -27.433 116.855-128.461  1.00 52.31 LIG-0.07  N 
ATOM     44 H3   LYS C   1     -28.212 116.611-128.106  1.00 52.31 LIG 0.28  HD
ATOM     45 H2   LYS C   1     -27.336 116.468-129.256  1.00 52.31 LIG 0.28  HD
ATOM     46 H1   LYS C   1     -27.416 117.740-128.558  1.00 52.31 LIG 0.28  HD
ENDBRANCH 42 43
BRANCH 42 47
ATOM     47  CB  LYS C   1     -25.821 115.060-127.986  1.00 46.48 LIG 0.04  C 
BRANCH 47 48
ATOM     48  CG  LYS C   1     -26.337 113.903-127.133  1.00 53.12 LIG 0.00  C 
BRANCH 48 49
ATOM     49  CD  LYS C   1     -27.154 112.906-127.945  1.00 36.86 LIG 0.03  C 
BRANCH 49 50
ATOM     50  CE  LYS C   1     -27.796 111.865-127.027  1.00 31.94 LIG 0.23  C 
BRANCH 50 51
ATOM     51  NZ  LYS C   1     -29.203 111.535-127.409  1.00 27.86 LIG-0.08  N 
ATOM     52 HZ3  LYS C   1     -29.211 110.789-127.893  1.00 27.86 LIG 0.27  HD
ATOM     53 HZ1  LYS C   1     -29.691 111.417-126.673  1.00 27.86 LIG 0.27  HD
ATOM     54 HZ2  LYS C   1     -29.545 112.203-127.888  1.00 27.86 LIG 0.27  HD
ENDBRANCH 50 51
ENDBRANCH 49 50
ENDBRANCH 48 49
ENDBRANCH 47 48
ENDBRANCH 42 47
ENDBRANCH 39 42
ENDBRANCH 37 38
BRANCH 37 55
ATOM     55  CB  SER C   2     -22.425 118.142-125.291  1.00 36.44 LIG 0.20  C 
BRANCH 55 56
ATOM     56 OG   SER C   2     -23.377 117.803-124.295  1.00 50.02 LIG-0.40  OA
ATOM     57 HG   SER C   2     -23.702 118.505-123.968  1.00 50.02 LIG 0.21  HD
ENDBRANCH 55 56
ENDBRANCH 37 55
ENDBRANCH 34 37
ENDBRANCH 1 33
TORSDOF 25
ENDMDL
MODEL 9
USER: ADFR SOLUTION from run 169
USER: SCORE 20.143369 LL:  -2.776 LR: -18.337 RR:   0.000 FEB: -10.880
USER: RMSD 4.077171
USER: SEED 168
USER: STATUS no improvement in best in 3 clusters for 5 generations
USER: GENES 27
USER: genes 0 Translation |==|  0.43262 0.46906 0.56010
USER: genes 1 Rotation |==|  0.46515 0.41964 0.66091 0.96523
USER: genes 2 Torsion [C]-CA--CB-[CG] |==|  0.53935
USER: genes 3 Torsion [CA]-CB--CG-[ND1] |==|  0.87764
USER: genes 4 Torsion [N]-CA--C-[N] |==|  0.21389
USER: genes 5 Torsion [C]-N--CA-[C] |==|  0.71053
USER: genes 6 Torsion [N]-CA--C-[N] |==|  0.26436
USER: genes 7 Torsion [C]-N--CA-[CB] |==|  0.29414
USER: genes 8 Torsion [N]-CA--CB-[CG] |==|  0.05337
USER: genes 9 Torsion [CA]-CB--CG-[CD] |==|  0.15511
USER: genes 10 Torsion [CB]-CG--CD-[OE2] |==|  0.12736
USER: genes 11 Torsion [N]-CA--C-[OXT] |==|  0.49123
USER: genes 12 Torsion [N]-CA--CB-[CG] |==|  0.63813
USER: genes 13 Torsion [CA]-CB--CG-[CD] |==|  0.61721
USER: genes 14 Torsion [CB]-CG--CD-[OE1] |==|  0.94646
USER: genes 15 Torsion [CB]-CA--N-[C] |==|  0.79963
USER: genes 16 Torsion [N]-C--CA-[N] |==|  0.49384
USER: genes 17 Torsion [C]-CA--N-[C] |==|  0.76815
USER: genes 18 Torsion [N]-C--CA-[N] |==|  0.82367
USER: genes 19 Torsion [C]-CA--N-[H3] |==|  0.18066
USER: genes 20 Torsion [C]-CA--CB-[CG] |==|  0.74545
USER: genes 21 Torsion [CA]-CB--CG-[CD] |==|  0.49546
USER: genes 22 Torsion [CB]-CG--CD-[CE] |==|  0.41623
USER: genes 23 Torsion [CG]-CD--CE-[NZ] |==|  0.85809
USER: genes 24 Torsion [CD]-CE--NZ-[HZ3] |==|  0.84116
USER: genes 25 Torsion [C]-CA--CB-[OG] |==|  0.60938
USER: genes 26 Torsion [CA]-CB--OG-[HG] |==|  0.74641
ROOT
ATOM      1  CA  HIS C   3     -23.850 109.385-131.414  1.00 19.60 LIG 0.18  C 
ENDROOT
BRANCH 1 2
ATOM      2  CB  HIS C   3     -24.331 109.854-130.036  1.00 23.73 LIG 0.10  C 
BRANCH 2 3
ATOM      3  CG  HIS C   3     -25.456 109.034-129.490  1.00 30.80 LIG 0.06  A 
ATOM      4 ND1  HIS C   3     -26.534 108.644-130.256  1.00 38.28 LIG-0.24  NA
ATOM      5  CE1 HIS C   3     -27.368 107.942-129.513  1.00 40.75 LIG 0.23  A 
ATOM      6 NE2  HIS C   3     -26.874 107.864-128.290  1.00 37.68 LIG-0.25  NA
ATOM      7  CD2 HIS C   3     -25.677 108.538-128.250  1.00 33.77 LIG 0.14  A 
ENDBRANCH 2 3
ENDBRANCH 1 2
BRANCH 1 8
ATOM      8  C   HIS C   3     -22.515 110.017-131.746  1.00 20.49 LIG 0.24  C 
ATOM      9  N   GLN C   4     -22.181 110.053-133.033  1.00 22.11 LIG-0.35  N 
ATOM     10 H    GLN C   4     -22.646 109.695-133.662  1.00 22.11 LIG 0.16  HD
ATOM     11 O    HIS C   3     -21.806 110.475-130.854  1.00 22.31 LIG-0.27  OA
BRANCH 9 12
ATOM     12  CA  GLN C   4     -20.967 110.720-133.483  1.00 24.42 LIG 0.18  C 
BRANCH 12 13
ATOM     13  C   GLN C   4     -21.302 112.063-134.130  1.00 25.27 LIG 0.24  C 
ATOM     14 O    GLN C   4     -21.605 112.133-135.323  1.00 26.26 LIG-0.27  OA
ATOM     15  N   GLU C   5     -21.228 113.130-133.343  1.00 23.86 LIG-0.34  N 
ATOM     16 H    GLU C   5     -20.960 113.108-132.526  1.00 23.86 LIG 0.16  HD
BRANCH 15 17
ATOM     17  CA  GLU C   5     -21.610 114.457-133.822  1.00 25.08 LIG 0.19  C 
BRANCH 17 18
ATOM     18  CB  GLU C   5     -22.954 114.877-133.230  1.00 28.24 LIG 0.05  C 
BRANCH 18 19
ATOM     19  CG  GLU C   5     -23.334 114.091-131.987  1.00 35.55 LIG 0.12  C 
BRANCH 19 20
ATOM     20  CD  GLU C   5     -22.277 114.167-130.911  1.00 50.11 LIG 0.17  C 
ATOM     21 OE2  GLU C   5     -21.783 115.285-130.643  1.00 51.97 LIG-0.65  OA
ATOM     22 OE1  GLU C   5     -21.938 113.109-130.337  1.00 61.02 LIG-0.65  OA
ENDBRANCH 19 20
ENDBRANCH 18 19
ENDBRANCH 17 18
BRANCH 17 23
ATOM     23  C   GLU C   5     -20.566 115.542-133.572  1.00 25.62 LIG 0.20  C 
ATOM     24 OXT  GLU C   5     -20.783 116.680-133.998  1.00 22.77 LIG-0.65  OA
ATOM     25 O    GLU C   5     -19.510 115.333-132.961  1.00 24.56 LIG-0.65  OA
ENDBRANCH 17 23
ENDBRANCH 15 17
ENDBRANCH 12 13
BRANCH 12 26
ATOM     26  CB  GLN C   4     -20.219 109.835-134.482  1.00 29.25 LIG 0.04  C 
BRANCH 26 27
ATOM     27  CG  GLN C   4     -18.738 109.660-134.171  1.00 33.50 LIG 0.10  C 
BRANCH 27 28
ATOM     28  CD  GLN C   4     -17.867 109.747-135.413  1.00 35.44 LIG 0.21  C 
ATOM     29  NE2 GLN C   4     -16.577 109.997-135.211  1.00 29.14 LIG-0.37  N 
ATOM     30 22HE GLN C   4     -16.040 110.052-135.880  1.00 29.14 LIG 0.16  HD
ATOM     31 21HE GLN C   4     -16.280 110.103-134.412  1.00 29.14 LIG 0.16  HD
ATOM     32 OE1  GLN C   4     -18.344 109.586-136.539  1.00 33.33 LIG-0.27  OA
ENDBRANCH 27 28
ENDBRANCH 26 27
ENDBRANCH 12 26
ENDBRANCH 9 12
ENDBRANCH 1 8
BRANCH 1 33
ATOM     33  N   HIS C   3     -23.803 107.929-131.469  1.00 25.18 LIG-0.35  N 
ATOM     34  C   SER C   2     -22.881 107.221-130.824  1.00 31.86 LIG 0.24  C 
ATOM     35 O    SER C   2     -21.952 107.725-130.192  1.00 26.79 LIG-0.27  OA
ATOM     36 H    HIS C   3     -24.422 107.576-131.952  1.00 25.18 LIG 0.16  HD
BRANCH 34 37
ATOM     37  CA  SER C   2     -23.026 105.712-130.916  1.00 34.72 LIG 0.20  C 
BRANCH 37 38
ATOM     38  N   SER C   2     -21.928 105.064-130.214  1.00 38.98 LIG-0.34  N 
ATOM     39  C   LYS C   1     -20.752 104.873-130.804  1.00 41.15 LIG 0.25  C 
ATOM     40 O    LYS C   1     -20.538 105.162-131.987  1.00 40.86 LIG-0.27  OA
ATOM     41 H    SER C   2     -22.108 104.825-129.408  1.00 38.98 LIG 0.16  HD
BRANCH 39 42
ATOM     42  CA  LYS C   1     -19.653 104.273-129.942  1.00 44.71 LIG 0.27  C 
BRANCH 42 43
ATOM     43  N   LYS C   1     -19.304 105.160-128.836  1.00 52.31 LIG-0.07  N 
ATOM     44 H3   LYS C   1     -20.000 105.238-128.287  1.00 52.31 LIG 0.28  HD
ATOM     45 H2   LYS C   1     -19.088 105.961-129.155  1.00 52.31 LIG 0.28  HD
ATOM     46 H1   LYS C   1     -18.611 104.821-128.391  1.00 52.31 LIG 0.28  HD
ENDBRANCH 42 43
BRANCH 42 47
ATOM     47  CB  LYS C   1     -20.113 102.911-129.415  1.00 46.48 LIG 0.04  C 
BRANCH 47 48
ATOM     48  CG  LYS C   1     -20.812 102.951-128.059  1.00 53.12 LIG 0.00  C 
BRANCH 48 49
ATOM     49  CD  LYS C   1     -21.281 101.573-127.608  1.00 36.86 LIG 0.03  C 
BRANCH 49 50
ATOM     50  CE  LYS C   1     -21.271 101.476-126.082  1.00 31.94 LIG 0.23  C 
BRANCH 50 51
ATOM     51  NZ  LYS C   1     -19.972 101.899-125.476  1.00 27.86 LIG-0.08  N 
ATOM     52 HZ3  LYS C   1     -19.313 101.407-125.814  1.00 27.86 LIG 0.27  HD
ATOM     53 HZ1  LYS C   1     -19.825 102.758-125.659  1.00 27.86 LIG 0.27  HD
ATOM     54 HZ2  LYS C   1     -20.005 101.786-124.594  1.00 27.86 LIG 0.27  HD
ENDBRANCH 50 51
ENDBRANCH 49 50
ENDBRANCH 48 49
ENDBRANCH 47 48
ENDBRANCH 42 47
ENDBRANCH 39 42
ENDBRANCH 37 38
BRANCH 37 55
ATOM     55  CB  SER C   2     -24.373 105.282-130.334  1.00 36.44 LIG 0.20  C 
BRANCH 55 56
ATOM     56 OG   SER C   2     -24.237 104.081-129.591  1.00 50.02 LIG-0.40  OA
ATOM     57 HG   SER C   2     -24.376 103.422-130.094  1.00 50.02 LIG 0.21  HD
ENDBRANCH 55 56
ENDBRANCH 37 55
ENDBRANCH 34 37
ENDBRANCH 1 33
TORSDOF 25
ENDMDL
MODEL 10
USER: ADFR SOLUTION from run 187
USER: SCORE 21.739699 LL:  -3.802 LR: -18.314 RR:   0.000 FEB: -10.856
USER: RMSD 6.458111
USER: SEED 186
USER: STATUS searching
USER: GENES 27
USER: genes 0 Translation |==|  0.51518 0.80157 0.70819
USER: genes 1 Rotation |==|  0.53720 0.48734 0.22017 0.91250
USER: genes 2 Torsion [C]-CA--CB-[CG] |==|  0.17079
USER: genes 3 Torsion [CA]-CB--CG-[ND1] |==|  0.78364
USER: genes 4 Torsion [N]-CA--C-[N] |==|  0.94339
USER: genes 5 Torsion [C]-N--CA-[C] |==|  0.82764
USER: genes 6 Torsion [N]-CA--C-[N] |==|  0.87892
USER: genes 7 Torsion [C]-N--CA-[CB] |==|  0.39942
USER: genes 8 Torsion [N]-CA--CB-[CG] |==|  0.72971
USER: genes 9 Torsion [CA]-CB--CG-[CD] |==|  0.57995
USER: genes 10 Torsion [CB]-CG--CD-[OE2] |==|  0.69315
USER: genes 11 Torsion [N]-CA--C-[OXT] |==|  0.30034
USER: genes 12 Torsion [N]-CA--CB-[CG] |==|  0.48944
USER: genes 13 Torsion [CA]-CB--CG-[CD] |==|  0.16002
USER: genes 14 Torsion [CB]-CG--CD-[OE1] |==|  0.12760
USER: genes 15 Torsion [CB]-CA--N-[C] |==|  0.85556
USER: genes 16 Torsion [N]-C--CA-[N] |==|  0.42321
USER: genes 17 Torsion [C]-CA--N-[C] |==|  0.81198
USER: genes 18 Torsion [N]-C--CA-[N] |==|  0.30797
USER: genes 19 Torsion [C]-CA--N-[H3] |==|  0.34952
USER: genes 20 Torsion [C]-CA--CB-[CG] |==|  0.26045
USER: genes 21 Torsion [CA]-CB--CG-[CD] |==|  0.77941
USER: genes 22 Torsion [CB]-CG--CD-[CE] |==|  0.34072
USER: genes 23 Torsion [CG]-CD--CE-[NZ] |==|  0.82799
USER: genes 24 Torsion [CD]-CE--NZ-[HZ3] |==|  0.09408
USER: genes 25 Torsion [C]-CA--CB-[OG] |==|  0.33930
USER: genes 26 Torsion [CA]-CB--OG-[HG] |==|  0.04374
ROOT
ATOM      1  CA  HIS C   3     -22.426 116.368-128.526  1.00 19.60 LIG 0.18  C 
ENDROOT
BRANCH 1 2
ATOM      2  CB  HIS C   3     -22.207 116.082-127.037  1.00 23.73 LIG 0.10  C 
BRANCH 2 3
ATOM      3  CG  HIS C   3     -20.780 115.798-126.691  1.00 30.80 LIG 0.06  A 
ATOM      4 ND1  HIS C   3     -20.182 114.581-126.938  1.00 38.28 LIG-0.24  NA
ATOM      5  CE1 HIS C   3     -18.929 114.616-126.524  1.00 40.75 LIG 0.23  A 
ATOM      6 NE2  HIS C   3     -18.693 115.812-126.013  1.00 37.68 LIG-0.25  NA
ATOM      7  CD2 HIS C   3     -19.835 116.571-126.106  1.00 33.77 LIG 0.14  A 
ENDBRANCH 2 3
ENDBRANCH 1 2
BRANCH 1 8
ATOM      8  C   HIS C   3     -22.031 115.164-129.355  1.00 20.49 LIG 0.24  C 
ATOM      9  N   GLN C   4     -23.026 114.418-129.826  1.00 22.11 LIG-0.35  N 
ATOM     10 H    GLN C   4     -23.857 114.549-129.642  1.00 22.11 LIG 0.16  HD
ATOM     11 O    HIS C   3     -20.847 114.923-129.575  1.00 22.31 LIG-0.27  OA
BRANCH 9 12
ATOM     12  CA  GLN C   4     -22.774 113.291-130.713  1.00 24.42 LIG 0.18  C 
BRANCH 12 13
ATOM     13  C   GLN C   4     -22.123 113.767-132.012  1.00 25.27 LIG 0.24  C 
ATOM     14 O    GLN C   4     -21.164 113.163-132.498  1.00 26.26 LIG-0.27  OA
ATOM     15  N   GLU C   5     -22.637 114.861-132.561  1.00 23.86 LIG-0.34  N 
ATOM     16 H    GLU C   5     -23.264 115.329-132.205  1.00 23.86 LIG 0.16  HD
BRANCH 15 17
ATOM     17  CA  GLU C   5     -22.159 115.363-133.847  1.00 25.08 LIG 0.19  C 
BRANCH 17 18
ATOM     18  CB  GLU C   5     -23.313 115.949-134.659  1.00 28.24 LIG 0.05  C 
BRANCH 18 19
ATOM     19  CG  GLU C   5     -23.884 114.979-135.678  1.00 35.55 LIG 0.12  C 
BRANCH 19 20
ATOM     20  CD  GLU C   5     -24.473 115.683-136.878  1.00 50.11 LIG 0.17  C 
ATOM     21 OE2  GLU C   5     -25.715 115.660-137.029  1.00 51.97 LIG-0.65  OA
ATOM     22 OE1  GLU C   5     -23.694 116.254-137.671  1.00 61.02 LIG-0.65  OA
ENDBRANCH 19 20
ENDBRANCH 18 19
ENDBRANCH 17 18
BRANCH 17 23
ATOM     23  C   GLU C   5     -21.023 116.378-133.746  1.00 25.62 LIG 0.20  C 
ATOM     24 OXT  GLU C   5     -19.888 116.031-134.086  1.00 22.77 LIG-0.65  OA
ATOM     25 O    GLU C   5     -21.188 117.534-133.337  1.00 24.56 LIG-0.65  OA
ENDBRANCH 17 23
ENDBRANCH 15 17
ENDBRANCH 12 13
BRANCH 12 26
ATOM     26  CB  GLN C   4     -24.084 112.563-131.027  1.00 29.25 LIG 0.04  C 
BRANCH 26 27
ATOM     27  CG  GLN C   4     -23.937 111.421-132.023  1.00 33.50 LIG 0.10  C 
BRANCH 27 28
ATOM     28  CD  GLN C   4     -22.939 110.371-131.564  1.00 35.44 LIG 0.21  C 
ATOM     29  NE2 GLN C   4     -22.058 109.959-132.470  1.00 29.14 LIG-0.37  N 
ATOM     30 22HE GLN C   4     -21.470 109.368-132.261  1.00 29.14 LIG 0.16  HD
ATOM     31 21HE GLN C   4     -22.078 110.283-133.267  1.00 29.14 LIG 0.16  HD
ATOM     32 OE1  GLN C   4     -22.955 109.939-130.408  1.00 33.33 LIG-0.27  OA
ENDBRANCH 27 28
ENDBRANCH 26 27
ENDBRANCH 12 26
ENDBRANCH 9 12
ENDBRANCH 1 8
BRANCH 1 33
ATOM     33  N   HIS C   3     -23.804 116.779-128.769  1.00 25.18 LIG-0.35  N 
ATOM     34  C   SER C   2     -24.845 116.070-128.342  1.00 31.86 LIG 0.24  C 
ATOM     35 O    SER C   2     -24.743 114.981-127.776  1.00 26.79 LIG-0.27  OA
ATOM     36 H    HIS C   3     -23.878 117.515-129.209  1.00 25.18 LIG 0.16  HD
BRANCH 34 37
ATOM     37  CA  SER C   2     -26.210 116.682-128.602  1.00 34.72 LIG 0.20  C 
BRANCH 37 38
ATOM     38  N   SER C   2     -27.211 115.632-128.715  1.00 38.98 LIG-0.34  N 
ATOM     39  C   LYS C   1     -27.205 114.784-129.739  1.00 41.15 LIG 0.25  C 
ATOM     40 O    LYS C   1     -26.410 114.872-130.681  1.00 40.86 LIG-0.27  OA
ATOM     41 H    SER C   2     -27.788 115.615-128.077  1.00 38.98 LIG 0.16  HD
BRANCH 39 42
ATOM     42  CA  LYS C   1     -28.242 113.672-129.701  1.00 44.71 LIG 0.27  C 
BRANCH 42 43
ATOM     43  N   LYS C   1     -29.259 113.861-130.732  1.00 52.31 LIG-0.07  N 
ATOM     44 H3   LYS C   1     -29.317 113.125-131.229  1.00 52.31 LIG 0.28  HD
ATOM     45 H2   LYS C   1     -29.034 114.550-131.248  1.00 52.31 LIG 0.28  HD
ATOM     46 H1   LYS C   1     -30.045 114.022-130.348  1.00 52.31 LIG 0.28  HD
ENDBRANCH 42 43
BRANCH 42 47
ATOM     47  CB  LYS C   1     -27.541 112.323-129.876  1.00 46.48 LIG 0.04  C 
BRANCH 47 48
ATOM     48  CG  LYS C   1     -27.172 111.619-128.572  1.00 53.12 LIG 0.00  C 
BRANCH 48 49
ATOM     49  CD  LYS C   1     -25.906 112.188-127.946  1.00 36.86 LIG 0.03  C 
BRANCH 49 50
ATOM     50  CE  LYS C   1     -26.185 112.680-126.525  1.00 31.94 LIG 0.23  C 
BRANCH 50 51
ATOM     51  NZ  LYS C   1     -27.188 113.786-126.474  1.00 27.86 LIG-0.08  N 
ATOM     52 HZ3  LYS C   1     -27.792 113.668-127.116  1.00 27.86 LIG 0.27  HD
ATOM     53 HZ1  LYS C   1     -27.593 113.784-125.681  1.00 27.86 LIG 0.27  HD
ATOM     54 HZ2  LYS C   1     -26.776 114.566-126.594  1.00 27.86 LIG 0.27  HD
ENDBRANCH 50 51
ENDBRANCH 49 50
ENDBRANCH 48 49
ENDBRANCH 47 48
ENDBRANCH 42 47
ENDBRANCH 39 42
ENDBRANCH 37 38
BRANCH 37 55
ATOM     55  CB  SER C   2     -26.567 117.657-127.479  1.00 36.44 LIG 0.20  C 
BRANCH 55 56
ATOM     56 OG   SER C   2     -26.815 118.953-128.001  1.00 50.02 LIG-0.40  OA
ATOM     57 HG   SER C   2     -26.932 118.904-128.831  1.00 50.02 LIG 0.21  HD
ENDBRANCH 55 56
ENDBRANCH 37 55
ENDBRANCH 34 37
ENDBRANCH 1 33
TORSDOF 25
ENDMDL
