MODEL 1
USER: ADFR SOLUTION from run 181
USER: SCORE 18.310177 LL:  -0.947 LR: -18.885 RR:   0.000 FEB: -12.919
USER: RMSD 4.118767
USER: SEED 180
USER: STATUS no improvement in best in 2 clusters for 5 generations
USER: GENES 22
USER: genes 0 Translation |==|  0.36090 0.34320 0.42474
USER: genes 1 Rotation |==|  0.62479 0.44748 0.57294 0.97576
USER: genes 2 Torsion [N]-CA--C-[N] |==|  0.07371
USER: genes 3 Torsion [C]-N--CA-[CB] |==|  0.48889
USER: genes 4 Torsion [N]-CA--CB-[CG] |==|  0.89390
USER: genes 5 Torsion [CA]-CB--CG-[CD1] |==|  0.28242
USER: genes 6 Torsion [N]-CA--C-[N] |==|  0.98331
USER: genes 7 Torsion [C]-N--CA-[CB] |==|  0.35761
USER: genes 8 Torsion [N]-CA--C-[O] |==|  0.77207
USER: genes 9 Torsion [N]-CA--CB-[CG] |==|  0.61326
USER: genes 10 Torsion [CA]-CB--CG-[OD2] |==|  0.07451
USER: genes 11 Torsion [C]-CA--CB-[CG] |==|  0.50968
USER: genes 12 Torsion [CA]-CB--CG-[CD] |==|  0.70756
USER: genes 13 Torsion [CB]-CG--CD-[CE] |==|  0.42626
USER: genes 14 Torsion [CG]-CD--CE-[NZ] |==|  0.63363
USER: genes 15 Torsion [CD]-CE--NZ-[HZ2] |==|  0.06374
USER: genes 16 Torsion [C]-CA--N-[C] |==|  0.16867
USER: genes 17 Torsion [N]-C--CA-[N] |==|  0.82257
USER: genes 18 Torsion [C]-CA--CB-[CG] |==|  0.67627
USER: genes 19 Torsion [CA]-CB--CG-[CD] |==|  0.24642
USER: genes 20 Torsion [CB]-CG--CD-[NE] |==|  0.75051
USER: genes 21 Torsion [CG]-CD--NE-[CZ] |==|  0.42853
ROOT
ATOM      1  CA  LYS D   8      17.742-121.676 160.765  1.00 12.19 LIG 0.18  C 
ENDROOT
BRANCH 1 2
ATOM      2  C   LYS D   8      17.216-120.655 159.758  1.00 13.86 LIG 0.24  C 
ATOM      3 O    LYS D   8      16.440-121.000 158.864  1.00 13.19 LIG-0.27  OA
ATOM      4  N   LEU D   9      17.639-119.401 159.878  1.00 13.79 LIG-0.35  N 
ATOM      5 H    LEU D   9      18.186-119.126 160.482  1.00 13.79 LIG 0.16  HD
BRANCH 4 6
ATOM      6  CA  LEU D   9      17.179-118.374 158.953  1.00 13.45 LIG 0.18  C 
BRANCH 6 7
ATOM      7  CB  LEU D   9      17.727-117.006 159.360  1.00 15.24 LIG 0.04  C 
BRANCH 7 8
ATOM      8  CG  LEU D   9      17.789-116.732 160.863  1.00 15.65 LIG-0.02  C 
ATOM      9  CD1 LEU D   9      19.204-116.903 161.383  1.00 23.17 LIG 0.01  C 
ATOM     10  CD2 LEU D   9      17.298-115.325 161.138  1.00 23.01 LIG 0.01  C 
ENDBRANCH 7 8
ENDBRANCH 6 7
BRANCH 6 11
ATOM     11  C   LEU D   9      17.529-118.680 157.494  1.00 13.91 LIG 0.24  C 
ATOM     12  N   ASP D  10      18.295-119.745 157.274  1.00 15.10 LIG-0.34  N 
ATOM     13 H    ASP D  10      18.563-120.278 157.893  1.00 15.10 LIG 0.16  HD
ATOM     14 O    LEU D   9      17.099-117.967 156.587  1.00 14.13 LIG-0.27  OA
BRANCH 12 15
ATOM     15  CA  ASP D  10      18.753-120.105 155.931  1.00 14.88 LIG 0.20  C 
BRANCH 15 16
ATOM     16  C   ASP D  10      18.072-121.358 155.392  1.00 18.09 LIG 0.20  C 
ATOM     17 O    ASP D  10      18.484-122.473 155.719  1.00 15.20 LIG-0.65  OA
ATOM     18 OXT  ASP D  10      17.096-121.291 154.640  1.00 15.71 LIG-0.65  OA
ENDBRANCH 15 16
BRANCH 15 19
ATOM     19  CB  ASP D  10      20.268-120.320 155.914  1.00 14.49 LIG 0.15  C 
BRANCH 19 20
ATOM     20  CG  ASP D  10      20.930-119.741 154.678  1.00 20.14 LIG 0.17  C 
ATOM     21 OD2  ASP D  10      20.371-118.778 154.116  1.00 22.62 LIG-0.65  OA
ATOM     22 OD1  ASP D  10      22.006-120.236 154.278  1.00 23.52 LIG-0.65  OA
ENDBRANCH 19 20
ENDBRANCH 15 19
ENDBRANCH 12 15
ENDBRANCH 6 11
ENDBRANCH 4 6
ENDBRANCH 1 2
BRANCH 1 23
ATOM     23  CB  LYS D   8      16.683-122.762 160.980  1.00 14.93 LIG 0.04  C 
BRANCH 23 24
ATOM     24  CG  LYS D   8      17.054-123.794 162.026  1.00 16.49 LIG 0.00  C 
BRANCH 24 25
ATOM     25  CD  LYS D   8      17.449-125.093 161.367  1.00 20.48 LIG 0.03  C 
BRANCH 25 26
ATOM     26  CE  LYS D   8      18.400-125.893 162.233  1.00 18.72 LIG 0.23  C 
BRANCH 26 27
ATOM     27  NZ  LYS D   8      19.556-126.354 161.419  1.00 16.35 LIG-0.08  N 
ATOM     28 HZ2  LYS D   8      19.649-125.824 160.710  1.00 16.35 LIG 0.27  HD
ATOM     29 HZ3  LYS D   8      20.296-126.324 161.912  1.00 16.35 LIG 0.27  HD
ATOM     30 HZ1  LYS D   8      19.413-127.190 161.148  1.00 16.35 LIG 0.27  HD
ENDBRANCH 26 27
ENDBRANCH 25 26
ENDBRANCH 24 25
ENDBRANCH 23 24
ENDBRANCH 1 23
BRANCH 1 31
ATOM     31  N   LYS D   8      18.124-121.078 162.044  1.00 12.29 LIG-0.35  N 
ATOM     32  C   ARG D   7      17.250-120.428 162.812  1.00 12.18 LIG 0.26  C 
ATOM     33 O    ARG D   7      16.082-120.252 162.492  1.00 12.68 LIG-0.27  OA
ATOM     34 H    LYS D   8      18.953-121.184 162.248  1.00 12.29 LIG 0.16  HD
BRANCH 32 35
ATOM     35  CA  ARG D   7      17.769-119.895 164.146  1.00 18.47 LIG 0.40  C 
ATOM     36  N   ARG D   7      18.183-120.991 165.020  1.00 16.79 LIG 0.61  N 
BRANCH 35 37
ATOM     37  CB  ARG D   7      18.950-118.954 163.898  1.00 18.75 LIG 0.05  C 
BRANCH 37 38
ATOM     38  CG  ARG D   7      20.273-119.430 164.485  1.00 15.67 LIG 0.02  C 
BRANCH 38 39
ATOM     39  CD  ARG D   7      21.034-120.313 163.500  1.00 21.79 LIG 0.14  C 
BRANCH 39 40
ATOM     40  NE  ARG D   7      20.695-121.730 163.639  1.00 19.93 LIG-0.23  N 
ATOM     41  CZ  ARG D   7      20.799-122.627 162.661  1.00 19.53 LIG 0.67  C 
ATOM     42  NH2 ARG D   7      20.461-123.885 162.890  1.00 23.42 LIG-0.23  N 
ATOM     43  NH1 ARG D   7      21.239-122.273 161.461  1.00 23.45 LIG-0.23  N 
ATOM     44 2HH2 ARG D   7      20.527-124.469 162.262  1.00 23.42 LIG 0.17  HD
ATOM     45 1HH2 ARG D   7      20.176-124.119 163.666  1.00 23.42 LIG 0.17  HD
ATOM     46 2HH1 ARG D   7      21.303-122.861 160.837  1.00 23.45 LIG 0.17  HD
ATOM     47 1HH1 ARG D   7      21.460-121.456 161.308  1.00 23.45 LIG 0.17  HD
ATOM     48 HE   ARG D   7      20.409-122.001 164.404  1.00 19.93 LIG 0.18  HD
ENDBRANCH 39 40
ENDBRANCH 38 39
ENDBRANCH 37 38
ENDBRANCH 35 37
ENDBRANCH 32 35
ENDBRANCH 1 31
TORSDOF 20
ENDMDL
MODEL 2
USER: ADFR SOLUTION from run 135
USER: SCORE 17.554340 LL:  -0.477 LR: -18.583 RR:   0.000 FEB: -12.617
USER: RMSD 4.009106
USER: SEED 134
USER: STATUS no improvement in best in 7 clusters for 5 generations
USER: GENES 22
USER: genes 0 Translation |==|  0.36411 0.27580 0.43722
USER: genes 1 Rotation |==|  0.64927 0.48212 0.47314 0.97611
USER: genes 2 Torsion [N]-CA--C-[N] |==|  0.02814
USER: genes 3 Torsion [C]-N--CA-[CB] |==|  0.51172
USER: genes 4 Torsion [N]-CA--CB-[CG] |==|  0.74349
USER: genes 5 Torsion [CA]-CB--CG-[CD1] |==|  0.74111
USER: genes 6 Torsion [N]-CA--C-[N] |==|  0.90556
USER: genes 7 Torsion [C]-N--CA-[CB] |==|  0.48010
USER: genes 8 Torsion [N]-CA--C-[O] |==|  0.15112
USER: genes 9 Torsion [N]-CA--CB-[CG] |==|  0.68295
USER: genes 10 Torsion [CA]-CB--CG-[OD2] |==|  0.79383
USER: genes 11 Torsion [C]-CA--CB-[CG] |==|  0.37933
USER: genes 12 Torsion [CA]-CB--CG-[CD] |==|  0.06201
USER: genes 13 Torsion [CB]-CG--CD-[CE] |==|  0.21020
USER: genes 14 Torsion [CG]-CD--CE-[NZ] |==|  0.60085
USER: genes 15 Torsion [CD]-CE--NZ-[HZ2] |==|  0.46007
USER: genes 16 Torsion [C]-CA--N-[C] |==|  0.17284
USER: genes 17 Torsion [N]-C--CA-[N] |==|  0.14279
USER: genes 18 Torsion [C]-CA--CB-[CG] |==|  0.75123
USER: genes 19 Torsion [CA]-CB--CG-[CD] |==|  0.71513
USER: genes 20 Torsion [CB]-CG--CD-[NE] |==|  0.07982
USER: genes 21 Torsion [CG]-CD--NE-[CZ] |==|  0.65190
ROOT
ATOM      1  CA  LYS D   8      17.788-122.940 161.055  1.00 12.19 LIG 0.18  C 
ENDROOT
BRANCH 1 2
ATOM      2  C   LYS D   8      17.433-121.664 160.293  1.00 13.86 LIG 0.24  C 
ATOM      3 O    LYS D   8      16.598-121.688 159.387  1.00 13.19 LIG-0.27  OA
ATOM      4  N   LEU D   9      18.067-120.548 160.637  1.00 13.79 LIG-0.35  N 
ATOM      5 H    LEU D   9      18.661-120.495 161.257  1.00 13.79 LIG 0.16  HD
BRANCH 4 6
ATOM      6  CA  LEU D   9      17.780-119.294 159.955  1.00 13.45 LIG 0.18  C 
BRANCH 6 7
ATOM      7  CB  LEU D   9      18.707-118.188 160.458  1.00 15.24 LIG 0.04  C 
BRANCH 7 8
ATOM      8  CG  LEU D   9      18.174-117.347 161.618  1.00 15.65 LIG-0.02  C 
ATOM      9  CD1 LEU D   9      17.474-116.103 161.104  1.00 23.17 LIG 0.01  C 
ATOM     10  CD2 LEU D   9      17.215-118.181 162.444  1.00 23.01 LIG 0.01  C 
ENDBRANCH 7 8
ENDBRANCH 6 7
BRANCH 6 11
ATOM     11  C   LEU D   9      17.860-119.409 158.430  1.00 13.91 LIG 0.24  C 
ATOM     12  N   ASP D  10      18.770-120.247 157.941  1.00 15.10 LIG-0.34  N 
ATOM     13 H    ASP D  10      19.275-120.743 158.429  1.00 15.10 LIG 0.16  HD
ATOM     14 O    LEU D   9      17.099-118.756 157.715  1.00 14.13 LIG-0.27  OA
BRANCH 12 15
ATOM     15  CA  ASP D  10      18.989-120.397 156.501  1.00 14.88 LIG 0.20  C 
BRANCH 15 16
ATOM     16  C   ASP D  10      17.780-120.980 155.778  1.00 18.09 LIG 0.20  C 
ATOM     17 O    ASP D  10      16.676-120.445 155.893  1.00 15.20 LIG-0.65  OA
ATOM     18 OXT  ASP D  10      17.878-121.976 155.055  1.00 15.71 LIG-0.65  OA
ENDBRANCH 15 16
BRANCH 15 19
ATOM     19  CB  ASP D  10      20.205-121.287 156.228  1.00 14.49 LIG 0.15  C 
BRANCH 19 20
ATOM     20  CG  ASP D  10      21.346-120.537 155.568  1.00 20.14 LIG 0.17  C 
ATOM     21 OD2  ASP D  10      21.227-120.241 154.362  1.00 22.62 LIG-0.65  OA
ATOM     22 OD1  ASP D  10      22.348-120.236 156.251  1.00 23.52 LIG-0.65  OA
ENDBRANCH 19 20
ENDBRANCH 15 19
ENDBRANCH 12 15
ENDBRANCH 6 11
ENDBRANCH 4 6
ENDBRANCH 1 2
BRANCH 1 23
ATOM     23  CB  LYS D   8      16.497-123.659 161.460  1.00 14.93 LIG 0.04  C 
BRANCH 23 24
ATOM     24  CG  LYS D   8      16.528-125.159 161.245  1.00 16.49 LIG 0.00  C 
BRANCH 24 25
ATOM     25  CD  LYS D   8      17.951-125.657 161.204  1.00 20.48 LIG 0.03  C 
BRANCH 25 26
ATOM     26  CE  LYS D   8      18.566-125.711 162.586  1.00 18.72 LIG 0.23  C 
BRANCH 26 27
ATOM     27  NZ  LYS D   8      20.002-125.336 162.515  1.00 16.35 LIG-0.08  N 
ATOM     28 HZ2  LYS D   8      20.306-125.166 163.334  1.00 16.35 LIG 0.27  HD
ATOM     29 HZ3  LYS D   8      20.467-126.006 162.160  1.00 16.35 LIG 0.27  HD
ATOM     30 HZ1  LYS D   8      20.094-124.610 162.008  1.00 16.35 LIG 0.27  HD
ENDBRANCH 26 27
ENDBRANCH 25 26
ENDBRANCH 24 25
ENDBRANCH 23 24
ENDBRANCH 1 23
BRANCH 1 31
ATOM     31  N   LYS D   8      18.623-122.695 162.230  1.00 12.29 LIG-0.35  N 
ATOM     32  C   ARG D   7      18.205-121.953 163.256  1.00 12.18 LIG 0.26  C 
ATOM     33 O    ARG D   7      17.115-121.397 163.276  1.00 12.68 LIG-0.27  OA
ATOM     34 H    LYS D   8      19.398-123.069 162.195  1.00 12.29 LIG 0.16  HD
BRANCH 32 35
ATOM     35  CA  ARG D   7      19.158-121.818 164.441  1.00 18.47 LIG 0.40  C 
ATOM     36  N   ARG D   7      20.487-121.399 163.997  1.00 16.79 LIG 0.61  N 
BRANCH 35 37
ATOM     37  CB  ARG D   7      18.599-120.800 165.437  1.00 18.75 LIG 0.05  C 
BRANCH 37 38
ATOM     38  CG  ARG D   7      19.033-119.362 165.185  1.00 15.67 LIG 0.02  C 
BRANCH 38 39
ATOM     39  CD  ARG D   7      20.133-118.933 166.153  1.00 21.79 LIG 0.14  C 
BRANCH 39 40
ATOM     40  NE  ARG D   7      20.960-120.056 166.596  1.00 19.93 LIG-0.23  N 
ATOM     41  CZ  ARG D   7      21.176-120.373 167.871  1.00 19.53 LIG 0.67  C 
ATOM     42  NH2 ARG D   7      21.945-121.407 168.165  1.00 23.42 LIG-0.23  N 
ATOM     43  NH1 ARG D   7      20.628-119.663 168.848  1.00 23.45 LIG-0.23  N 
ATOM     44 2HH2 ARG D   7      22.088-121.616 168.986  1.00 23.42 LIG 0.17  HD
ATOM     45 1HH2 ARG D   7      22.303-121.870 167.535  1.00 23.42 LIG 0.17  HD
ATOM     46 2HH1 ARG D   7      20.773-119.877 169.668  1.00 23.45 LIG 0.17  HD
ATOM     47 1HH1 ARG D   7      20.126-118.990 168.660  1.00 23.45 LIG 0.17  HD
ATOM     48 HE   ARG D   7      21.330-120.544 165.992  1.00 19.93 LIG 0.18  HD
ENDBRANCH 39 40
ENDBRANCH 38 39
ENDBRANCH 37 38
ENDBRANCH 35 37
ENDBRANCH 32 35
ENDBRANCH 1 31
TORSDOF 20
ENDMDL
MODEL 3
USER: ADFR SOLUTION from run 97
USER: SCORE 18.475537 LL:  -1.087 LR: -18.453 RR:   0.000 FEB: -12.487
USER: RMSD 4.628621
USER: SEED 96
USER: STATUS searching
USER: GENES 22
USER: genes 0 Translation |==|  0.47341 0.26794 0.49631
USER: genes 1 Rotation |==|  0.57167 0.58409 0.52556 0.98697
USER: genes 2 Torsion [N]-CA--C-[N] |==|  0.93840
USER: genes 3 Torsion [C]-N--CA-[CB] |==|  0.52815
USER: genes 4 Torsion [N]-CA--CB-[CG] |==|  0.87318
USER: genes 5 Torsion [CA]-CB--CG-[CD1] |==|  0.51108
USER: genes 6 Torsion [N]-CA--C-[N] |==|  0.78734
USER: genes 7 Torsion [C]-N--CA-[CB] |==|  0.82357
USER: genes 8 Torsion [N]-CA--C-[O] |==|  0.75297
USER: genes 9 Torsion [N]-CA--CB-[CG] |==|  0.48143
USER: genes 10 Torsion [CA]-CB--CG-[OD2] |==|  0.72521
USER: genes 11 Torsion [C]-CA--CB-[CG] |==|  0.11318
USER: genes 12 Torsion [CA]-CB--CG-[CD] |==|  0.24180
USER: genes 13 Torsion [CB]-CG--CD-[CE] |==|  0.03363
USER: genes 14 Torsion [CG]-CD--CE-[NZ] |==|  0.64112
USER: genes 15 Torsion [CD]-CE--NZ-[HZ2] |==|  0.00005
USER: genes 16 Torsion [C]-CA--N-[C] |==|  0.83091
USER: genes 17 Torsion [N]-C--CA-[N] |==|  0.41505
USER: genes 18 Torsion [C]-CA--CB-[CG] |==|  0.16064
USER: genes 19 Torsion [CA]-CB--CG-[CD] |==|  0.26908
USER: genes 20 Torsion [CB]-CG--CD-[NE] |==|  0.83010
USER: genes 21 Torsion [CG]-CD--NE-[CZ] |==|  0.56559
ROOT
ATOM      1  CA  LYS D   8      19.345-123.087 162.429  1.00 12.19 LIG 0.18  C 
ENDROOT
BRANCH 1 2
ATOM      2  C   LYS D   8      18.364-122.274 161.587  1.00 13.86 LIG 0.24  C 
ATOM      3 O    LYS D   8      17.759-122.799 160.650  1.00 13.19 LIG-0.27  OA
ATOM      4  N   LEU D   9      18.206-120.991 161.897  1.00 13.79 LIG-0.35  N 
ATOM      5 H    LEU D   9      18.617-120.589 162.537  1.00 13.79 LIG 0.16  HD
BRANCH 4 6
ATOM      6  CA  LEU D   9      17.286-120.155 161.137  1.00 13.45 LIG 0.18  C 
BRANCH 6 7
ATOM      7  CB  LEU D   9      17.466-118.685 161.516  1.00 15.24 LIG 0.04  C 
BRANCH 7 8
ATOM      8  CG  LEU D   9      17.558-118.389 163.013  1.00 15.65 LIG-0.02  C 
ATOM      9  CD1 LEU D   9      17.636-116.894 163.262  1.00 23.17 LIG 0.01  C 
ATOM     10  CD2 LEU D   9      16.349-118.972 163.717  1.00 23.01 LIG 0.01  C 
ENDBRANCH 7 8
ENDBRANCH 6 7
BRANCH 6 11
ATOM     11  C   LEU D   9      17.420-120.339 159.623  1.00 13.91 LIG 0.24  C 
ATOM     12  N   ASP D  10      18.463-119.756 159.040  1.00 15.10 LIG-0.34  N 
ATOM     13 H    ASP D  10      19.071-119.325 159.467  1.00 15.10 LIG 0.16  HD
ATOM     14 O    LEU D   9      16.595-121.011 159.002  1.00 14.13 LIG-0.27  OA
BRANCH 12 15
ATOM     15  CA  ASP D  10      18.666-119.804 157.591  1.00 14.88 LIG 0.20  C 
BRANCH 15 16
ATOM     16  C   ASP D  10      17.502-119.201 156.812  1.00 18.09 LIG 0.20  C 
ATOM     17 O    ASP D  10      16.550-119.910 156.480  1.00 15.20 LIG-0.65  OA
ATOM     18 OXT  ASP D  10      17.474-118.004 156.515  1.00 15.71 LIG-0.65  OA
ENDBRANCH 15 16
BRANCH 15 19
ATOM     19  CB  ASP D  10      18.882-121.244 157.119  1.00 14.49 LIG 0.15  C 
BRANCH 19 20
ATOM     20  CG  ASP D  10      18.936-121.367 155.609  1.00 20.14 LIG 0.17  C 
ATOM     21 OD2  ASP D  10      17.902-121.736 155.018  1.00 22.62 LIG-0.65  OA
ATOM     22 OD1  ASP D  10      19.999-121.085 155.015  1.00 23.52 LIG-0.65  OA
ENDBRANCH 19 20
ENDBRANCH 15 19
ENDBRANCH 12 15
ENDBRANCH 6 11
ENDBRANCH 4 6
ENDBRANCH 1 2
BRANCH 1 23
ATOM     23  CB  LYS D   8      18.562-123.927 163.443  1.00 14.93 LIG 0.04  C 
BRANCH 23 24
ATOM     24  CG  LYS D   8      17.299-124.553 162.889  1.00 16.49 LIG 0.00  C 
BRANCH 24 25
ATOM     25  CD  LYS D   8      17.606-125.885 162.250  1.00 20.48 LIG 0.03  C 
BRANCH 25 26
ATOM     26  CE  LYS D   8      19.002-126.360 162.591  1.00 18.72 LIG 0.23  C 
BRANCH 26 27
ATOM     27  NZ  LYS D   8      19.724-126.739 161.348  1.00 16.35 LIG-0.08  N 
ATOM     28 HZ2  LYS D   8      19.192-126.611 160.646  1.00 16.35 LIG 0.27  HD
ATOM     29 HZ3  LYS D   8      20.454-126.236 161.263  1.00 16.35 LIG 0.27  HD
ATOM     30 HZ1  LYS D   8      19.958-127.597 161.390  1.00 16.35 LIG 0.27  HD
ENDBRANCH 26 27
ENDBRANCH 25 26
ENDBRANCH 24 25
ENDBRANCH 23 24
ENDBRANCH 1 23
BRANCH 1 31
ATOM     31  N   LYS D   8      20.339-122.260 163.112  1.00 12.29 LIG-0.35  N 
ATOM     32  C   ARG D   7      21.198-121.488 162.446  1.00 12.18 LIG 0.26  C 
ATOM     33 O    ARG D   7      21.244-121.442 161.224  1.00 12.68 LIG-0.27  OA
ATOM     34 H    LYS D   8      20.316-122.319 163.971  1.00 12.29 LIG 0.16  HD
BRANCH 32 35
ATOM     35  CA  ARG D   7      22.151-120.637 163.283  1.00 18.47 LIG 0.40  C 
ATOM     36  N   ARG D   7      23.418-120.432 162.584  1.00 16.79 LIG 0.61  N 
BRANCH 35 37
ATOM     37  CB  ARG D   7      21.500-119.286 163.587  1.00 18.75 LIG 0.05  C 
BRANCH 37 38
ATOM     38  CG  ARG D   7      20.166-119.375 164.316  1.00 15.67 LIG 0.02  C 
BRANCH 38 39
ATOM     39  CD  ARG D   7      20.339-119.192 165.821  1.00 21.79 LIG 0.14  C 
BRANCH 39 40
ATOM     40  NE  ARG D   7      21.192-120.221 166.417  1.00 19.93 LIG-0.23  N 
ATOM     41  CZ  ARG D   7      21.156-120.577 167.700  1.00 19.53 LIG 0.67  C 
ATOM     42  NH2 ARG D   7      21.974-121.518 168.140  1.00 23.42 LIG-0.23  N 
ATOM     43  NH1 ARG D   7      20.308-119.999 168.540  1.00 23.45 LIG-0.23  N 
ATOM     44 2HH2 ARG D   7      21.955-121.751 168.967  1.00 23.42 LIG 0.17  HD
ATOM     45 1HH2 ARG D   7      22.525-121.895 167.599  1.00 23.42 LIG 0.17  HD
ATOM     46 2HH1 ARG D   7      20.292-120.236 169.366  1.00 23.45 LIG 0.17  HD
ATOM     47 1HH1 ARG D   7      19.773-119.387 168.258  1.00 23.45 LIG 0.17  HD
ATOM     48 HE   ARG D   7      21.753-120.624 165.905  1.00 19.93 LIG 0.18  HD
ENDBRANCH 39 40
ENDBRANCH 38 39
ENDBRANCH 37 38
ENDBRANCH 35 37
ENDBRANCH 32 35
ENDBRANCH 1 31
TORSDOF 20
ENDMDL
MODEL 4
USER: ADFR SOLUTION from run 150
USER: SCORE 18.410024 LL:  -1.598 LR: -18.283 RR:   0.000 FEB: -12.317
USER: RMSD 1.648195
USER: SEED 149
USER: STATUS no improvement in best in 10 clusters for 5 generations
USER: GENES 22
USER: genes 0 Translation |==|  0.42051 0.46835 0.46245
USER: genes 1 Rotation |==|  0.54653 0.48975 0.57627 0.99185
USER: genes 2 Torsion [N]-CA--C-[N] |==|  0.12386
USER: genes 3 Torsion [C]-N--CA-[CB] |==|  0.46844
USER: genes 4 Torsion [N]-CA--CB-[CG] |==|  0.69546
USER: genes 5 Torsion [CA]-CB--CG-[CD1] |==|  0.71614
USER: genes 6 Torsion [N]-CA--C-[N] |==|  0.94351
USER: genes 7 Torsion [C]-N--CA-[CB] |==|  0.47980
USER: genes 8 Torsion [N]-CA--C-[O] |==|  0.48308
USER: genes 9 Torsion [N]-CA--CB-[CG] |==|  0.72431
USER: genes 10 Torsion [CA]-CB--CG-[OD2] |==|  0.83818
USER: genes 11 Torsion [C]-CA--CB-[CG] |==|  0.25909
USER: genes 12 Torsion [CA]-CB--CG-[CD] |==|  0.25600
USER: genes 13 Torsion [CB]-CG--CD-[CE] |==|  0.51837
USER: genes 14 Torsion [CG]-CD--CE-[NZ] |==|  0.45017
USER: genes 15 Torsion [CD]-CE--NZ-[HZ2] |==|  0.64787
USER: genes 16 Torsion [C]-CA--N-[C] |==|  0.14886
USER: genes 17 Torsion [N]-C--CA-[N] |==|  0.40400
USER: genes 18 Torsion [C]-CA--CB-[CG] |==|  0.25727
USER: genes 19 Torsion [CA]-CB--CG-[CD] |==|  0.72272
USER: genes 20 Torsion [CB]-CG--CD-[NE] |==|  0.50017
USER: genes 21 Torsion [CG]-CD--NE-[CZ] |==|  0.22185
ROOT
ATOM      1  CA  LYS D   8      18.591-119.329 161.642  1.00 12.19 LIG 0.18  C 
ENDROOT
BRANCH 1 2
ATOM      2  C   LYS D   8      17.920-118.701 160.422  1.00 13.86 LIG 0.24  C 
ATOM      3 O    LYS D   8      16.854-119.149 159.994  1.00 13.19 LIG-0.27  OA
ATOM      4  N   LEU D   9      18.537-117.676 159.843  1.00 13.79 LIG-0.35  N 
ATOM      5 H    LEU D   9      19.284-117.343 160.107  1.00 13.79 LIG 0.16  HD
BRANCH 4 6
ATOM      6  CA  LEU D   9      17.955-117.027 158.675  1.00 13.45 LIG 0.18  C 
BRANCH 6 7
ATOM      7  CB  LEU D   9      18.690-115.722 158.370  1.00 15.24 LIG 0.04  C 
BRANCH 7 8
ATOM      8  CG  LEU D   9      17.907-114.437 158.643  1.00 15.65 LIG-0.02  C 
ATOM      9  CD1 LEU D   9      17.373-113.848 157.350  1.00 23.17 LIG 0.01  C 
ATOM     10  CD2 LEU D   9      16.764-114.736 159.592  1.00 23.01 LIG 0.01  C 
ENDBRANCH 7 8
ENDBRANCH 6 7
BRANCH 6 11
ATOM     11  C   LEU D   9      17.929-117.930 157.439  1.00 13.91 LIG 0.24  C 
ATOM     12  N   ASP D  10      18.767-118.963 157.434  1.00 15.10 LIG-0.34  N 
ATOM     13 H    ASP D  10      19.282-119.164 158.092  1.00 15.10 LIG 0.16  HD
ATOM     14 O    LEU D   9      17.150-117.696 156.514  1.00 14.13 LIG-0.27  OA
BRANCH 12 15
ATOM     15  CA  ASP D  10      18.883-119.860 156.283  1.00 14.88 LIG 0.20  C 
BRANCH 15 16
ATOM     16  C   ASP D  10      17.606-120.649 156.020  1.00 18.09 LIG 0.20  C 
ATOM     17 O    ASP D  10      17.517-121.361 155.017  1.00 15.20 LIG-0.65  OA
ATOM     18 OXT  ASP D  10      16.650-120.611 156.799  1.00 15.71 LIG-0.65  OA
ENDBRANCH 15 16
BRANCH 15 19
ATOM     19  CB  ASP D  10      20.040-120.844 156.477  1.00 14.49 LIG 0.15  C 
BRANCH 19 20
ATOM     20  CG  ASP D  10      21.299-120.423 155.744  1.00 20.14 LIG 0.17  C 
ATOM     21 OD2  ASP D  10      21.227-120.268 154.508  1.00 22.62 LIG-0.65  OA
ATOM     22 OD1  ASP D  10      22.348-120.236 156.397  1.00 23.52 LIG-0.65  OA
ENDBRANCH 19 20
ENDBRANCH 15 19
ENDBRANCH 12 15
ENDBRANCH 6 11
ENDBRANCH 4 6
ENDBRANCH 1 2
BRANCH 1 23
ATOM     23  CB  LYS D   8      17.600-120.273 162.331  1.00 14.93 LIG 0.04  C 
BRANCH 23 24
ATOM     24  CG  LYS D   8      17.701-121.716 161.882  1.00 16.49 LIG 0.00  C 
BRANCH 24 25
ATOM     25  CD  LYS D   8      18.643-122.483 162.777  1.00 20.48 LIG 0.03  C 
BRANCH 25 26
ATOM     26  CE  LYS D   8      18.890-123.884 162.261  1.00 18.72 LIG 0.23  C 
BRANCH 26 27
ATOM     27  NZ  LYS D   8      20.115-124.444 162.890  1.00 16.35 LIG-0.08  N 
ATOM     28 HZ2  LYS D   8      20.669-124.732 162.255  1.00 16.35 LIG 0.27  HD
ATOM     29 HZ3  LYS D   8      20.518-123.813 163.371  1.00 16.35 LIG 0.27  HD
ATOM     30 HZ1  LYS D   8      19.893-125.124 163.420  1.00 16.35 LIG 0.27  HD
ENDBRANCH 26 27
ENDBRANCH 25 26
ENDBRANCH 24 25
ENDBRANCH 23 24
ENDBRANCH 1 23
BRANCH 1 31
ATOM     31  N   LYS D   8      19.098-118.340 162.593  1.00 12.29 LIG-0.35  N 
ATOM     32  C   ARG D   7      18.324-117.376 163.092  1.00 12.18 LIG 0.26  C 
ATOM     33 O    ARG D   7      17.154-117.224 162.768  1.00 12.68 LIG-0.27  OA
ATOM     34 H    LYS D   8      19.928-118.439 162.795  1.00 12.29 LIG 0.16  HD
BRANCH 32 35
ATOM     35  CA  ARG D   7      18.966-116.439 164.114  1.00 18.47 LIG 0.40  C 
ATOM     36  N   ARG D   7      18.437-115.083 163.982  1.00 16.79 LIG 0.61  N 
BRANCH 35 37
ATOM     37  CB  ARG D   7      18.706-116.964 165.527  1.00 18.75 LIG 0.05  C 
BRANCH 37 38
ATOM     38  CG  ARG D   7      19.800-117.871 166.078  1.00 15.67 LIG 0.02  C 
BRANCH 38 39
ATOM     39  CD  ARG D   7      19.421-119.343 165.950  1.00 21.79 LIG 0.14  C 
BRANCH 39 40
ATOM     40  NE  ARG D   7      20.455-120.236 166.474  1.00 19.93 LIG-0.23  N 
ATOM     41  CZ  ARG D   7      20.631-120.507 167.765  1.00 19.53 LIG 0.67  C 
ATOM     42  NH2 ARG D   7      21.600-121.327 168.135  1.00 23.42 LIG-0.23  N 
ATOM     43  NH1 ARG D   7      19.843-119.965 168.684  1.00 23.45 LIG-0.23  N 
ATOM     44 2HH2 ARG D   7      21.718-121.505 168.968  1.00 23.42 LIG 0.17  HD
ATOM     45 1HH2 ARG D   7      22.113-121.680 167.542  1.00 23.42 LIG 0.17  HD
ATOM     46 2HH1 ARG D   7      19.965-120.147 169.516  1.00 23.45 LIG 0.17  HD
ATOM     47 1HH1 ARG D   7      19.211-119.432 168.448  1.00 23.45 LIG 0.17  HD
ATOM     48 HE   ARG D   7      20.984-120.612 165.909  1.00 19.93 LIG 0.18  HD
ENDBRANCH 39 40
ENDBRANCH 38 39
ENDBRANCH 37 38
ENDBRANCH 35 37
ENDBRANCH 32 35
ENDBRANCH 1 31
TORSDOF 20
ENDMDL
MODEL 5
USER: ADFR SOLUTION from run 85
USER: SCORE 18.021953 LL:  -1.408 LR: -18.030 RR:   0.000 FEB: -12.064
USER: RMSD 4.212118
USER: SEED 84
USER: STATUS no improvement in best in 7 clusters for 5 generations
USER: GENES 22
USER: genes 0 Translation |==|  0.36344 0.30348 0.41887
USER: genes 1 Rotation |==|  0.59126 0.56789 0.39725 0.97593
USER: genes 2 Torsion [N]-CA--C-[N] |==|  0.94233
USER: genes 3 Torsion [C]-N--CA-[CB] |==|  0.49444
USER: genes 4 Torsion [N]-CA--CB-[CG] |==|  0.66793
USER: genes 5 Torsion [CA]-CB--CG-[CD1] |==|  0.36953
USER: genes 6 Torsion [N]-CA--C-[N] |==|  0.95309
USER: genes 7 Torsion [C]-N--CA-[CB] |==|  0.37326
USER: genes 8 Torsion [N]-CA--C-[O] |==|  0.76508
USER: genes 9 Torsion [N]-CA--CB-[CG] |==|  0.60116
USER: genes 10 Torsion [CA]-CB--CG-[OD2] |==|  0.07388
USER: genes 11 Torsion [C]-CA--CB-[CG] |==|  0.40710
USER: genes 12 Torsion [CA]-CB--CG-[CD] |==|  0.21652
USER: genes 13 Torsion [CB]-CG--CD-[CE] |==|  0.72499
USER: genes 14 Torsion [CG]-CD--CE-[NZ] |==|  0.42169
USER: genes 15 Torsion [CD]-CE--NZ-[HZ2] |==|  0.23338
USER: genes 16 Torsion [C]-CA--N-[C] |==|  0.81929
USER: genes 17 Torsion [N]-C--CA-[N] |==|  0.41844
USER: genes 18 Torsion [C]-CA--CB-[CG] |==|  0.13375
USER: genes 19 Torsion [CA]-CB--CG-[CD] |==|  0.26009
USER: genes 20 Torsion [CB]-CG--CD-[NE] |==|  0.78930
USER: genes 21 Torsion [CG]-CD--NE-[CZ] |==|  0.73274
ROOT
ATOM      1  CA  LYS D   8      17.778-122.421 160.629  1.00 12.19 LIG 0.18  C 
ENDROOT
BRANCH 1 2
ATOM      2  C   LYS D   8      17.320-121.220 159.802  1.00 13.86 LIG 0.24  C 
ATOM      3 O    LYS D   8      16.494-121.361 158.898  1.00 13.19 LIG-0.27  OA
ATOM      4  N   LEU D   9      17.856-120.038 160.089  1.00 13.79 LIG-0.35  N 
ATOM      5 H    LEU D   9      18.440-119.903 160.705  1.00 13.79 LIG 0.16  HD
BRANCH 4 6
ATOM      6  CA  LEU D   9      17.466-118.849 159.343  1.00 13.45 LIG 0.18  C 
BRANCH 6 7
ATOM      7  CB  LEU D   9      18.182-117.616 159.893  1.00 15.24 LIG 0.04  C 
BRANCH 7 8
ATOM      8  CG  LEU D   9      17.279-116.507 160.435  1.00 15.65 LIG-0.02  C 
ATOM      9  CD1 LEU D   9      17.772-116.026 161.787  1.00 23.17 LIG 0.01  C 
ATOM     10  CD2 LEU D   9      17.251-115.356 159.450  1.00 23.01 LIG 0.01  C 
ENDBRANCH 7 8
ENDBRANCH 6 7
BRANCH 6 11
ATOM     11  C   LEU D   9      17.706-118.982 157.836  1.00 13.91 LIG 0.24  C 
ATOM     12  N   ASP D  10      18.524-119.954 157.444  1.00 15.10 LIG-0.34  N 
ATOM     13 H    ASP D  10      18.885-120.521 157.980  1.00 15.10 LIG 0.16  HD
ATOM     14 O    LEU D   9      17.146-118.220 157.047  1.00 14.13 LIG-0.27  OA
BRANCH 12 15
ATOM     15  CA  ASP D  10      18.885-120.142 156.038  1.00 14.88 LIG 0.20  C 
BRANCH 15 16
ATOM     16  C   ASP D  10      18.146-121.308 155.390  1.00 18.09 LIG 0.20  C 
ATOM     17 O    ASP D  10      18.583-122.455 155.504  1.00 15.20 LIG-0.65  OA
ATOM     18 OXT  ASP D  10      17.099-121.139 154.760  1.00 15.71 LIG-0.65  OA
ENDBRANCH 15 16
BRANCH 15 19
ATOM     19  CB  ASP D  10      20.392-120.370 155.890  1.00 14.49 LIG 0.15  C 
BRANCH 19 20
ATOM     20  CG  ASP D  10      20.963-119.731 154.640  1.00 20.14 LIG 0.17  C 
ATOM     21 OD2  ASP D  10      20.373-118.736 154.173  1.00 22.62 LIG-0.65  OA
ATOM     22 OD1  ASP D  10      22.000-120.210 154.133  1.00 23.52 LIG-0.65  OA
ENDBRANCH 19 20
ENDBRANCH 15 19
ENDBRANCH 12 15
ENDBRANCH 6 11
ENDBRANCH 4 6
ENDBRANCH 1 2
BRANCH 1 23
ATOM     23  CB  LYS D   8      16.701-122.759 161.664  1.00 14.93 LIG 0.04  C 
BRANCH 23 24
ATOM     24  CG  LYS D   8      16.580-124.237 161.975  1.00 16.49 LIG 0.00  C 
BRANCH 24 25
ATOM     25  CD  LYS D   8      17.686-124.673 162.905  1.00 20.48 LIG 0.03  C 
BRANCH 25 26
ATOM     26  CE  LYS D   8      18.820-125.336 162.154  1.00 18.72 LIG 0.23  C 
BRANCH 26 27
ATOM     27  NZ  LYS D   8      20.096-125.138 162.890  1.00 16.35 LIG-0.08  N 
ATOM     28 HZ2  LYS D   8      20.174-125.761 163.521  1.00 16.35 LIG 0.27  HD
ATOM     29 HZ3  LYS D   8      20.780-125.203 162.323  1.00 16.35 LIG 0.27  HD
ATOM     30 HZ1  LYS D   8      20.099-124.331 163.267  1.00 16.35 LIG 0.27  HD
ENDBRANCH 26 27
ENDBRANCH 25 26
ENDBRANCH 24 25
ENDBRANCH 23 24
ENDBRANCH 1 23
BRANCH 1 31
ATOM     31  N   LYS D   8      19.067-122.208 161.286  1.00 12.29 LIG-0.35  N 
ATOM     32  C   ARG D   7      20.197-122.050 160.596  1.00 12.18 LIG 0.26  C 
ATOM     33 O    ARG D   7      20.247-122.106 159.375  1.00 12.68 LIG-0.27  OA
ATOM     34 H    LYS D   8      19.027-122.196 162.145  1.00 12.29 LIG 0.16  HD
BRANCH 32 35
ATOM     35  CA  ARG D   7      21.466-121.786 161.405  1.00 18.47 LIG 0.40  C 
ATOM     36  N   ARG D   7      22.644-122.300 160.708  1.00 16.79 LIG 0.61  N 
BRANCH 35 37
ATOM     37  CB  ARG D   7      21.619-120.283 161.645  1.00 18.75 LIG 0.05  C 
BRANCH 37 38
ATOM     38  CG  ARG D   7      20.359-119.591 162.152  1.00 15.67 LIG 0.02  C 
BRANCH 38 39
ATOM     39  CD  ARG D   7      20.340-119.513 163.676  1.00 21.79 LIG 0.14  C 
BRANCH 39 40
ATOM     40  NE  ARG D   7      20.010-120.795 164.299  1.00 19.93 LIG-0.23  N 
ATOM     41  CZ  ARG D   7      18.790-121.144 164.701  1.00 19.53 LIG 0.67  C 
ATOM     42  NH2 ARG D   7      18.599-122.328 165.258  1.00 23.42 LIG-0.23  N 
ATOM     43  NH1 ARG D   7      17.764-120.318 164.546  1.00 23.45 LIG-0.23  N 
ATOM     44 2HH2 ARG D   7      17.813-122.558 165.519  1.00 23.42 LIG 0.17  HD
ATOM     45 1HH2 ARG D   7      19.261-122.867 165.360  1.00 23.42 LIG 0.17  HD
ATOM     46 2HH1 ARG D   7      16.980-120.553 164.808  1.00 23.45 LIG 0.17  HD
ATOM     47 1HH1 ARG D   7      17.884-119.547 164.183  1.00 23.45 LIG 0.17  HD
ATOM     48 HE   ARG D   7      20.648-121.362 164.414  1.00 19.93 LIG 0.18  HD
ENDBRANCH 39 40
ENDBRANCH 38 39
ENDBRANCH 37 38
ENDBRANCH 35 37
ENDBRANCH 32 35
ENDBRANCH 1 31
TORSDOF 20
ENDMDL
MODEL 6
USER: ADFR SOLUTION from run 150
USER: SCORE 18.033419 LL:  -1.545 LR: -17.987 RR:   0.000 FEB: -12.021
USER: RMSD 4.012386
USER: SEED 149
USER: STATUS no improvement in best in 10 clusters for 5 generations
USER: GENES 22
USER: genes 0 Translation |==|  0.42504 0.49295 0.45768
USER: genes 1 Rotation |==|  0.52778 0.48392 0.61203 0.98623
USER: genes 2 Torsion [N]-CA--C-[N] |==|  0.12253
USER: genes 3 Torsion [C]-N--CA-[CB] |==|  0.48576
USER: genes 4 Torsion [N]-CA--CB-[CG] |==|  0.63937
USER: genes 5 Torsion [CA]-CB--CG-[CD1] |==|  0.61733
USER: genes 6 Torsion [N]-CA--C-[N] |==|  0.93887
USER: genes 7 Torsion [C]-N--CA-[CB] |==|  0.48721
USER: genes 8 Torsion [N]-CA--C-[O] |==|  0.49682
USER: genes 9 Torsion [N]-CA--CB-[CG] |==|  0.71815
USER: genes 10 Torsion [CA]-CB--CG-[OD2] |==|  0.85862
USER: genes 11 Torsion [C]-CA--CB-[CG] |==|  0.21177
USER: genes 12 Torsion [CA]-CB--CG-[CD] |==|  0.33216
USER: genes 13 Torsion [CB]-CG--CD-[CE] |==|  0.78897
USER: genes 14 Torsion [CG]-CD--CE-[NZ] |==|  0.58162
USER: genes 15 Torsion [CD]-CE--NZ-[HZ2] |==|  0.91397
USER: genes 16 Torsion [C]-CA--N-[C] |==|  0.13333
USER: genes 17 Torsion [N]-C--CA-[N] |==|  0.98031
USER: genes 18 Torsion [C]-CA--CB-[CG] |==|  0.25571
USER: genes 19 Torsion [CA]-CB--CG-[CD] |==|  0.73666
USER: genes 20 Torsion [CB]-CG--CD-[NE] |==|  0.42567
USER: genes 21 Torsion [CG]-CD--NE-[CZ] |==|  0.26388
ROOT
ATOM      1  CA  LYS D   8      18.656-118.868 161.531  1.00 12.19 LIG 0.18  C 
ENDROOT
BRANCH 1 2
ATOM      2  C   LYS D   8      17.970-118.425 160.240  1.00 13.86 LIG 0.24  C 
ATOM      3 O    LYS D   8      17.006-119.052 159.796  1.00 13.19 LIG-0.27  OA
ATOM      4  N   LEU D   9      18.463-117.358 159.619  1.00 13.79 LIG-0.35  N 
ATOM      5 H    LEU D   9      19.138-116.902 159.893  1.00 13.79 LIG 0.16  HD
BRANCH 4 6
ATOM      6  CA  LEU D   9      17.859-116.878 158.383  1.00 13.45 LIG 0.18  C 
BRANCH 6 7
ATOM      7  CB  LEU D   9      18.522-115.575 157.937  1.00 15.24 LIG 0.04  C 
BRANCH 7 8
ATOM      8  CG  LEU D   9      17.572-114.425 157.600  1.00 15.65 LIG-0.02  C 
ATOM      9  CD1 LEU D   9      18.028-113.702 156.346  1.00 23.17 LIG 0.01  C 
ATOM     10  CD2 LEU D   9      16.172-114.971 157.407  1.00 23.01 LIG 0.01  C 
ENDBRANCH 7 8
ENDBRANCH 6 7
BRANCH 6 11
ATOM     11  C   LEU D   9      17.899-117.913 157.255  1.00 13.91 LIG 0.24  C 
ATOM     12  N   ASP D  10      18.818-118.870 157.353  1.00 15.10 LIG-0.34  N 
ATOM     13 H    ASP D  10      19.350-118.955 158.022  1.00 15.10 LIG 0.16  HD
ATOM     14 O    LEU D   9      17.099-117.847 156.321  1.00 14.13 LIG-0.27  OA
BRANCH 12 15
ATOM     15  CA  ASP D  10      19.000-119.879 156.308  1.00 14.88 LIG 0.20  C 
BRANCH 15 16
ATOM     16  C   ASP D  10      17.765-120.750 156.107  1.00 18.09 LIG 0.20  C 
ATOM     17 O    ASP D  10      17.764-121.630 155.245  1.00 15.20 LIG-0.65  OA
ATOM     18 OXT  ASP D  10      16.756-120.611 156.804  1.00 15.71 LIG-0.65  OA
ENDBRANCH 15 16
BRANCH 15 19
ATOM     19  CB  ASP D  10      20.194-120.782 156.628  1.00 14.49 LIG 0.15  C 
BRANCH 19 20
ATOM     20  CG  ASP D  10      21.435-120.417 155.836  1.00 20.14 LIG 0.17  C 
ATOM     21 OD2  ASP D  10      21.322-120.299 154.600  1.00 22.62 LIG-0.65  OA
ATOM     22 OD1  ASP D  10      22.512-120.239 156.445  1.00 23.52 LIG-0.65  OA
ENDBRANCH 19 20
ENDBRANCH 15 19
ENDBRANCH 12 15
ENDBRANCH 6 11
ENDBRANCH 4 6
ENDBRANCH 1 2
BRANCH 1 23
ATOM     23  CB  LYS D   8      17.770-119.894 162.245  1.00 14.93 LIG 0.04  C 
BRANCH 23 24
ATOM     24  CG  LYS D   8      17.800-121.277 161.629  1.00 16.49 LIG 0.00  C 
BRANCH 24 25
ATOM     25  CD  LYS D   8      18.302-122.289 162.629  1.00 20.48 LIG 0.03  C 
BRANCH 25 26
ATOM     26  CE  LYS D   8      19.803-122.201 162.809  1.00 18.72 LIG 0.23  C 
BRANCH 26 27
ATOM     27  NZ  LYS D   8      20.346-123.536 163.175  1.00 16.35 LIG-0.08  N 
ATOM     28 HZ2  LYS D   8      19.735-123.987 163.640  1.00 16.35 LIG 0.27  HD
ATOM     29 HZ3  LYS D   8      20.549-123.987 162.436  1.00 16.35 LIG 0.27  HD
ATOM     30 HZ1  LYS D   8      21.079-123.432 163.671  1.00 16.35 LIG 0.27  HD
ENDBRANCH 26 27
ENDBRANCH 25 26
ENDBRANCH 24 25
ENDBRANCH 23 24
ENDBRANCH 1 23
BRANCH 1 31
ATOM     31  N   LYS D   8      18.970-117.755 162.427  1.00 12.29 LIG-0.35  N 
ATOM     32  C   ARG D   7      18.073-116.817 162.733  1.00 12.18 LIG 0.26  C 
ATOM     33 O    ARG D   7      16.944-116.795 162.264  1.00 12.68 LIG-0.27  OA
ATOM     34 H    LYS D   8      19.775-117.765 162.731  1.00 12.29 LIG 0.16  HD
BRANCH 32 35
ATOM     35  CA  ARG D   7      18.516-115.738 163.719  1.00 18.47 LIG 0.40  C 
ATOM     36  N   ARG D   7      19.831-116.050 164.277  1.00 16.79 LIG 0.61  N 
BRANCH 35 37
ATOM     37  CB  ARG D   7      18.560-114.382 163.012  1.00 18.75 LIG 0.05  C 
BRANCH 37 38
ATOM     38  CG  ARG D   7      17.272-113.575 163.109  1.00 15.67 LIG 0.02  C 
BRANCH 38 39
ATOM     39  CD  ARG D   7      16.380-113.798 161.891  1.00 21.79 LIG 0.14  C 
BRANCH 39 40
ATOM     40  NE  ARG D   7      14.962-113.590 162.187  1.00 19.93 LIG-0.23  N 
ATOM     41  CZ  ARG D   7      14.312-112.446 161.982  1.00 19.53 LIG 0.67  C 
ATOM     42  NH2 ARG D   7      13.028-112.361 162.289  1.00 23.42 LIG-0.23  N 
ATOM     43  NH1 ARG D   7      14.937-111.393 161.473  1.00 23.45 LIG-0.23  N 
ATOM     44 2HH2 ARG D   7      12.603-111.625 162.159  1.00 23.42 LIG 0.17  HD
ATOM     45 1HH2 ARG D   7      12.619-113.041 162.619  1.00 23.42 LIG 0.17  HD
ATOM     46 2HH1 ARG D   7      14.507-110.659 161.344  1.00 23.45 LIG 0.17  HD
ATOM     47 1HH1 ARG D   7      15.771-111.444 161.272  1.00 23.45 LIG 0.17  HD
ATOM     48 HE   ARG D   7      14.520-114.250 162.515  1.00 19.93 LIG 0.18  HD
ENDBRANCH 39 40
ENDBRANCH 38 39
ENDBRANCH 37 38
ENDBRANCH 35 37
ENDBRANCH 32 35
ENDBRANCH 1 31
TORSDOF 20
ENDMDL
MODEL 7
USER: ADFR SOLUTION from run 39
USER: SCORE 16.187137 LL:  -0.976 LR: -17.895 RR:   0.000 FEB: -11.929
USER: RMSD 5.248923
USER: SEED 38
USER: STATUS no improvement in best in 4 clusters for 5 generations
USER: GENES 22
USER: genes 0 Translation |==|  0.52548 0.28084 0.49103
USER: genes 1 Rotation |==|  0.59696 0.25919 0.50734 0.92726
USER: genes 2 Torsion [N]-CA--C-[N] |==|  0.47958
USER: genes 3 Torsion [C]-N--CA-[CB] |==|  0.37243
USER: genes 4 Torsion [N]-CA--CB-[CG] |==|  0.75225
USER: genes 5 Torsion [CA]-CB--CG-[CD1] |==|  0.05941
USER: genes 6 Torsion [N]-CA--C-[N] |==|  0.03191
USER: genes 7 Torsion [C]-N--CA-[CB] |==|  0.84995
USER: genes 8 Torsion [N]-CA--C-[O] |==|  0.86445
USER: genes 9 Torsion [N]-CA--CB-[CG] |==|  0.68031
USER: genes 10 Torsion [CA]-CB--CG-[OD2] |==|  0.60052
USER: genes 11 Torsion [C]-CA--CB-[CG] |==|  0.55900
USER: genes 12 Torsion [CA]-CB--CG-[CD] |==|  0.68911
USER: genes 13 Torsion [CB]-CG--CD-[CE] |==|  0.18048
USER: genes 14 Torsion [CG]-CD--CE-[NZ] |==|  0.68656
USER: genes 15 Torsion [CD]-CE--NZ-[HZ2] |==|  0.30614
USER: genes 16 Torsion [C]-CA--N-[C] |==|  0.17172
USER: genes 17 Torsion [N]-C--CA-[N] |==|  0.95523
USER: genes 18 Torsion [C]-CA--CB-[CG] |==|  0.75382
USER: genes 19 Torsion [CA]-CB--CG-[CD] |==|  0.64854
USER: genes 20 Torsion [CB]-CG--CD-[NE] |==|  0.21513
USER: genes 21 Torsion [CG]-CD--NE-[CZ] |==|  0.63136
ROOT
ATOM      1  CA  LYS D   8      20.087-122.845 162.306  1.00 12.19 LIG 0.18  C 
ENDROOT
BRANCH 1 2
ATOM      2  C   LYS D   8      20.747-121.774 161.441  1.00 13.86 LIG 0.24  C 
ATOM      3 O    LYS D   8      20.802-120.604 161.826  1.00 13.19 LIG-0.27  OA
ATOM      4  N   LEU D   9      21.239-122.152 160.265  1.00 13.79 LIG-0.35  N 
ATOM      5 H    LEU D   9      21.211-122.956 159.960  1.00 13.79 LIG 0.16  HD
BRANCH 4 6
ATOM      6  CA  LEU D   9      21.883-121.184 159.387  1.00 13.45 LIG 0.18  C 
BRANCH 6 7
ATOM      7  CB  LEU D   9      23.194-121.750 158.841  1.00 15.24 LIG 0.04  C 
BRANCH 7 8
ATOM      8  CG  LEU D   9      24.439-121.487 159.689  1.00 15.65 LIG-0.02  C 
ATOM      9  CD1 LEU D   9      24.056-121.181 161.125  1.00 23.17 LIG 0.01  C 
ATOM     10  CD2 LEU D   9      25.348-122.699 159.638  1.00 23.01 LIG 0.01  C 
ENDBRANCH 7 8
ENDBRANCH 6 7
BRANCH 6 11
ATOM     11  C   LEU D   9      20.980-120.721 158.241  1.00 13.91 LIG 0.24  C 
ATOM     12  N   ASP D  10      19.695-121.054 158.320  1.00 15.10 LIG-0.34  N 
ATOM     13 H    ASP D  10      19.349-121.473 158.986  1.00 15.10 LIG 0.16  HD
ATOM     14 O    LEU D   9      21.444-120.061 157.310  1.00 14.13 LIG-0.27  OA
BRANCH 12 15
ATOM     15  CA  ASP D  10      18.743-120.726 157.256  1.00 14.88 LIG 0.20  C 
BRANCH 15 16
ATOM     16  C   ASP D  10      19.003-121.507 155.973  1.00 18.09 LIG 0.20  C 
ATOM     17 O    ASP D  10      20.141-121.560 155.503  1.00 15.20 LIG-0.65  OA
ATOM     18 OXT  ASP D  10      18.098-122.111 155.390  1.00 15.71 LIG-0.65  OA
ENDBRANCH 15 16
BRANCH 15 19
ATOM     19  CB  ASP D  10      18.778-119.229 156.940  1.00 14.49 LIG 0.15  C 
BRANCH 19 20
ATOM     20  CG  ASP D  10      17.475-118.528 157.271  1.00 20.14 LIG 0.17  C 
ATOM     21 OD2  ASP D  10      17.100-117.609 156.515  1.00 22.62 LIG-0.65  OA
ATOM     22 OD1  ASP D  10      16.824-118.899 158.272  1.00 23.52 LIG-0.65  OA
ENDBRANCH 19 20
ENDBRANCH 15 19
ENDBRANCH 12 15
ENDBRANCH 6 11
ENDBRANCH 4 6
ENDBRANCH 1 2
BRANCH 1 23
ATOM     23  CB  LYS D   8      18.846-123.380 161.585  1.00 14.93 LIG 0.04  C 
BRANCH 23 24
ATOM     24  CG  LYS D   8      17.836-124.046 162.497  1.00 16.49 LIG 0.00  C 
BRANCH 24 25
ATOM     25  CD  LYS D   8      17.773-125.528 162.221  1.00 20.48 LIG 0.03  C 
BRANCH 25 26
ATOM     26  CE  LYS D   8      19.078-126.217 162.562  1.00 18.72 LIG 0.23  C 
BRANCH 26 27
ATOM     27  NZ  LYS D   8      19.724-126.716 161.320  1.00 16.35 LIG-0.08  N 
ATOM     28 HZ2  LYS D   8      20.455-126.236 161.153  1.00 16.35 LIG 0.27  HD
ATOM     29 HZ3  LYS D   8      19.949-127.571 161.425  1.00 16.35 LIG 0.27  HD
ATOM     30 HZ1  LYS D   8      19.156-126.640 160.639  1.00 16.35 LIG 0.27  HD
ENDBRANCH 26 27
ENDBRANCH 25 26
ENDBRANCH 24 25
ENDBRANCH 23 24
ENDBRANCH 1 23
BRANCH 1 31
ATOM     31  N   LYS D   8      19.733-122.368 163.643  1.00 12.29 LIG-0.35  N 
ATOM     32  C   ARG D   7      18.863-121.376 163.834  1.00 12.18 LIG 0.26  C 
ATOM     33 O    ARG D   7      18.328-120.771 162.915  1.00 12.68 LIG-0.27  OA
ATOM     34 H    LYS D   8      20.134-122.782 164.282  1.00 12.29 LIG 0.16  HD
BRANCH 32 35
ATOM     35  CA  ARG D   7      18.546-121.009 165.282  1.00 18.47 LIG 0.40  C 
ATOM     36  N   ARG D   7      18.974-122.069 166.194  1.00 16.79 LIG 0.61  N 
BRANCH 35 37
ATOM     37  CB  ARG D   7      19.245-119.697 165.645  1.00 18.75 LIG 0.05  C 
BRANCH 37 38
ATOM     38  CG  ARG D   7      20.659-119.862 166.188  1.00 15.67 LIG 0.02  C 
BRANCH 38 39
ATOM     39  CD  ARG D   7      20.827-119.155 167.530  1.00 21.79 LIG 0.14  C 
BRANCH 39 40
ATOM     40  NE  ARG D   7      20.240-119.909 168.639  1.00 19.93 LIG-0.23  N 
ATOM     41  CZ  ARG D   7      19.449-119.381 169.571  1.00 19.53 LIG 0.67  C 
ATOM     42  NH2 ARG D   7      18.974-120.151 170.535  1.00 23.42 LIG-0.23  N 
ATOM     43  NH1 ARG D   7      19.133-118.094 169.541  1.00 23.45 LIG-0.23  N 
ATOM     44 2HH2 ARG D   7      18.463-119.815 171.140  1.00 23.42 LIG 0.17  HD
ATOM     45 1HH2 ARG D   7      19.176-120.986 170.558  1.00 23.42 LIG 0.17  HD
ATOM     46 2HH1 ARG D   7      18.621-117.763 170.148  1.00 23.45 LIG 0.17  HD
ATOM     47 1HH1 ARG D   7      19.440-117.590 168.915  1.00 23.45 LIG 0.17  HD
ATOM     48 HE   ARG D   7      20.418-120.749 168.692  1.00 19.93 LIG 0.18  HD
ENDBRANCH 39 40
ENDBRANCH 38 39
ENDBRANCH 37 38
ENDBRANCH 35 37
ENDBRANCH 32 35
ENDBRANCH 1 31
TORSDOF 20
ENDMDL
MODEL 8
USER: ADFR SOLUTION from run 15
USER: SCORE 16.679899 LL:  -0.283 LR: -17.878 RR:   0.000 FEB: -11.912
USER: RMSD 4.219597
USER: SEED 980147
USER: STATUS no improvement in best in 6 clusters for 5 generations
USER: GENES 22
USER: genes 0 Translation |==|  0.42913 0.32579 0.52172
USER: genes 1 Rotation |==|  0.66693 0.48860 0.57080 0.96582
USER: genes 2 Torsion [N]-CA--C-[N] |==|  0.12764
USER: genes 3 Torsion [C]-N--CA-[CB] |==|  0.47621
USER: genes 4 Torsion [N]-CA--CB-[CG] |==|  0.92068
USER: genes 5 Torsion [CA]-CB--CG-[CD1] |==|  0.44813
USER: genes 6 Torsion [N]-CA--C-[N] |==|  0.90757
USER: genes 7 Torsion [C]-N--CA-[CB] |==|  0.53489
USER: genes 8 Torsion [N]-CA--C-[O] |==|  0.39474
USER: genes 9 Torsion [N]-CA--CB-[CG] |==|  0.48594
USER: genes 10 Torsion [CA]-CB--CG-[OD2] |==|  0.79098
USER: genes 11 Torsion [C]-CA--CB-[CG] |==|  0.23552
USER: genes 12 Torsion [CA]-CB--CG-[CD] |==|  0.38050
USER: genes 13 Torsion [CB]-CG--CD-[CE] |==|  0.72677
USER: genes 14 Torsion [CG]-CD--CE-[NZ] |==|  0.07685
USER: genes 15 Torsion [CD]-CE--NZ-[HZ2] |==|  0.23081
USER: genes 16 Torsion [C]-CA--N-[C] |==|  0.14016
USER: genes 17 Torsion [N]-C--CA-[N] |==|  0.79570
USER: genes 18 Torsion [C]-CA--CB-[CG] |==|  0.37532
USER: genes 19 Torsion [CA]-CB--CG-[CD] |==|  0.23712
USER: genes 20 Torsion [CB]-CG--CD-[NE] |==|  0.82540
USER: genes 21 Torsion [CG]-CD--NE-[CZ] |==|  0.77806
ROOT
ATOM      1  CA  LYS D   8      18.714-122.002 163.020  1.00 12.19 LIG 0.18  C 
ENDROOT
BRANCH 1 2
ATOM      2  C   LYS D   8      17.970-120.889 162.285  1.00 13.86 LIG 0.24  C 
ATOM      3 O    LYS D   8      16.861-121.097 161.790  1.00 13.19 LIG-0.27  OA
ATOM      4  N   LEU D   9      18.571-119.707 162.193  1.00 13.79 LIG-0.35  N 
ATOM      5 H    LEU D   9      19.348-119.527 162.517  1.00 13.79 LIG 0.16  HD
BRANCH 4 6
ATOM      6  CA  LEU D   9      17.922-118.598 161.507  1.00 13.45 LIG 0.18  C 
BRANCH 6 7
ATOM      7  CB  LEU D   9      18.710-117.305 161.718  1.00 15.24 LIG 0.04  C 
BRANCH 7 8
ATOM      8  CG  LEU D   9      19.507-117.215 163.020  1.00 15.65 LIG-0.02  C 
ATOM      9  CD1 LEU D   9      20.576-116.143 162.922  1.00 23.17 LIG 0.01  C 
ATOM     10  CD2 LEU D   9      18.564-116.908 164.166  1.00 23.01 LIG 0.01  C 
ENDBRANCH 7 8
ENDBRANCH 6 7
BRANCH 6 11
ATOM     11  C   LEU D   9      17.710-118.859 160.013  1.00 13.91 LIG 0.24  C 
ATOM     12  N   ASP D  10      18.633-119.592 159.397  1.00 15.10 LIG-0.34  N 
ATOM     13 H    ASP D  10      19.305-119.949 159.796  1.00 15.10 LIG 0.16  HD
ATOM     14 O    LEU D   9      16.717-118.412 159.437  1.00 14.13 LIG-0.27  OA
BRANCH 12 15
ATOM     15  CA  ASP D  10      18.578-119.857 157.958  1.00 14.88 LIG 0.20  C 
BRANCH 15 16
ATOM     16  C   ASP D  10      17.185-120.254 157.484  1.00 18.09 LIG 0.20  C 
ATOM     17 O    ASP D  10      16.768-119.858 156.394  1.00 15.20 LIG-0.65  OA
ATOM     18 OXT  ASP D  10      16.456-120.986 158.160  1.00 15.71 LIG-0.65  OA
ENDBRANCH 15 16
BRANCH 15 19
ATOM     19  CB  ASP D  10      19.565-120.962 157.572  1.00 14.49 LIG 0.15  C 
BRANCH 19 20
ATOM     20  CG  ASP D  10      19.460-121.359 156.112  1.00 20.14 LIG 0.17  C 
ATOM     21 OD2  ASP D  10      18.488-122.061 155.769  1.00 22.62 LIG-0.65  OA
ATOM     22 OD1  ASP D  10      20.335-120.964 155.312  1.00 23.52 LIG-0.65  OA
ENDBRANCH 19 20
ENDBRANCH 15 19
ENDBRANCH 12 15
ENDBRANCH 6 11
ENDBRANCH 4 6
ENDBRANCH 1 2
BRANCH 1 23
ATOM     23  CB  LYS D   8      17.760-123.179 163.248  1.00 14.93 LIG 0.04  C 
BRANCH 23 24
ATOM     24  CG  LYS D   8      17.660-124.135 162.078  1.00 16.49 LIG 0.00  C 
BRANCH 24 25
ATOM     25  CD  LYS D   8      17.678-125.565 162.562  1.00 20.48 LIG 0.03  C 
BRANCH 25 26
ATOM     26  CE  LYS D   8      19.056-126.179 162.445  1.00 18.72 LIG 0.23  C 
BRANCH 26 27
ATOM     27  NZ  LYS D   8      20.091-125.116 162.540  1.00 16.35 LIG-0.08  N 
ATOM     28 HZ2  LYS D   8      20.251-124.934 163.396  1.00 16.35 LIG 0.27  HD
ATOM     29 HZ3  LYS D   8      20.841-125.396 162.151  1.00 16.35 LIG 0.27  HD
ATOM     30 HZ1  LYS D   8      19.801-124.381 162.130  1.00 16.35 LIG 0.27  HD
ENDBRANCH 26 27
ENDBRANCH 25 26
ENDBRANCH 24 25
ENDBRANCH 23 24
ENDBRANCH 1 23
BRANCH 1 31
ATOM     31  N   LYS D   8      19.297-121.566 164.288  1.00 12.29 LIG-0.35  N 
ATOM     32  C   ARG D   7      18.586-120.910 165.207  1.00 12.18 LIG 0.26  C 
ATOM     33 O    ARG D   7      17.415-120.596 165.044  1.00 12.68 LIG-0.27  OA
ATOM     34 H    LYS D   8      20.127-121.769 164.383  1.00 12.29 LIG 0.16  HD
BRANCH 32 35
ATOM     35  CA  ARG D   7      19.303-120.556 166.508  1.00 18.47 LIG 0.40  C 
ATOM     36  N   ARG D   7      19.491-121.744 167.339  1.00 16.79 LIG 0.61  N 
BRANCH 35 37
ATOM     37  CB  ARG D   7      20.660-119.924 166.191  1.00 18.75 LIG 0.05  C 
BRANCH 37 38
ATOM     38  CG  ARG D   7      20.986-118.680 167.008  1.00 15.67 LIG 0.02  C 
BRANCH 38 39
ATOM     39  CD  ARG D   7      21.612-119.043 168.351  1.00 21.79 LIG 0.14  C 
BRANCH 39 40
ATOM     40  NE  ARG D   7      20.708-119.816 169.202  1.00 19.93 LIG-0.23  N 
ATOM     41  CZ  ARG D   7      19.725-119.289 169.929  1.00 19.53 LIG 0.67  C 
ATOM     42  NH2 ARG D   7      18.965-120.078 170.670  1.00 23.42 LIG-0.23  N 
ATOM     43  NH1 ARG D   7      19.499-117.982 169.917  1.00 23.45 LIG-0.23  N 
ATOM     44 2HH2 ARG D   7      18.328-119.742 171.141  1.00 23.42 LIG 0.17  HD
ATOM     45 1HH2 ARG D   7      19.107-120.925 170.680  1.00 23.42 LIG 0.17  HD
ATOM     46 2HH1 ARG D   7      18.862-117.652 170.389  1.00 23.45 LIG 0.17  HD
ATOM     47 1HH1 ARG D   7      19.991-117.466 169.435  1.00 23.45 LIG 0.17  HD
ATOM     48 HE   ARG D   7      20.818-120.669 169.235  1.00 19.93 LIG 0.18  HD
ENDBRANCH 39 40
ENDBRANCH 38 39
ENDBRANCH 37 38
ENDBRANCH 35 37
ENDBRANCH 32 35
ENDBRANCH 1 31
TORSDOF 20
ENDMDL
MODEL 9
USER: ADFR SOLUTION from run 97
USER: SCORE 17.370672 LL:  -0.680 LR: -17.755 RR:   0.000 FEB: -11.789
USER: RMSD 5.364358
USER: SEED 96
USER: STATUS searching
USER: GENES 22
USER: genes 0 Translation |==|  0.47544 0.26933 0.49757
USER: genes 1 Rotation |==|  0.57263 0.58138 0.52897 0.98710
USER: genes 2 Torsion [N]-CA--C-[N] |==|  0.93830
USER: genes 3 Torsion [C]-N--CA-[CB] |==|  0.52968
USER: genes 4 Torsion [N]-CA--CB-[CG] |==|  0.89115
USER: genes 5 Torsion [CA]-CB--CG-[CD1] |==|  0.50351
USER: genes 6 Torsion [N]-CA--C-[N] |==|  0.78539
USER: genes 7 Torsion [C]-N--CA-[CB] |==|  0.82312
USER: genes 8 Torsion [N]-CA--C-[O] |==|  0.75488
USER: genes 9 Torsion [N]-CA--CB-[CG] |==|  0.47893
USER: genes 10 Torsion [CA]-CB--CG-[OD2] |==|  0.72383
USER: genes 11 Torsion [C]-CA--CB-[CG] |==|  0.10932
USER: genes 12 Torsion [CA]-CB--CG-[CD] |==|  0.24386
USER: genes 13 Torsion [CB]-CG--CD-[CE] |==|  0.03351
USER: genes 14 Torsion [CG]-CD--CE-[NZ] |==|  0.63877
USER: genes 15 Torsion [CD]-CE--NZ-[HZ2] |==|  0.99987
USER: genes 16 Torsion [C]-CA--N-[C] |==|  0.83236
USER: genes 17 Torsion [N]-C--CA-[N] |==|  0.85168
USER: genes 18 Torsion [C]-CA--CB-[CG] |==|  0.29154
USER: genes 19 Torsion [CA]-CB--CG-[CD] |==|  0.49076
USER: genes 20 Torsion [CB]-CG--CD-[NE] |==|  0.86704
USER: genes 21 Torsion [CG]-CD--NE-[CZ] |==|  0.39359
ROOT
ATOM      1  CA  LYS D   8      19.374-123.061 162.459  1.00 12.19 LIG 0.18  C 
ENDROOT
BRANCH 1 2
ATOM      2  C   LYS D   8      18.394-122.253 161.609  1.00 13.86 LIG 0.24  C 
ATOM      3 O    LYS D   8      17.807-122.778 160.661  1.00 13.19 LIG-0.27  OA
ATOM      4  N   LEU D   9      18.217-120.974 161.926  1.00 13.79 LIG-0.35  N 
ATOM      5 H    LEU D   9      18.616-120.573 162.574  1.00 13.79 LIG 0.16  HD
BRANCH 4 6
ATOM      6  CA  LEU D   9      17.298-120.143 161.161  1.00 13.45 LIG 0.18  C 
BRANCH 6 7
ATOM      7  CB  LEU D   9      17.466-118.673 161.542  1.00 15.24 LIG 0.04  C 
BRANCH 7 8
ATOM      8  CG  LEU D   9      17.699-118.391 163.027  1.00 15.65 LIG-0.02  C 
ATOM      9  CD1 LEU D   9      17.818-116.900 163.279  1.00 23.17 LIG 0.01  C 
ATOM     10  CD2 LEU D   9      16.553-118.967 163.834  1.00 23.01 LIG 0.01  C 
ENDBRANCH 7 8
ENDBRANCH 6 7
BRANCH 6 11
ATOM     11  C   LEU D   9      17.444-120.325 159.647  1.00 13.91 LIG 0.24  C 
ATOM     12  N   ASP D  10      18.480-119.724 159.070  1.00 15.10 LIG-0.34  N 
ATOM     13 H    ASP D  10      19.077-119.281 159.501  1.00 15.10 LIG 0.16  HD
ATOM     14 O    LEU D   9      16.635-121.012 159.022  1.00 14.13 LIG-0.27  OA
BRANCH 12 15
ATOM     15  CA  ASP D  10      18.692-119.767 157.622  1.00 14.88 LIG 0.20  C 
BRANCH 15 16
ATOM     16  C   ASP D  10      17.520-119.190 156.836  1.00 18.09 LIG 0.20  C 
ATOM     17 O    ASP D  10      16.579-119.917 156.510  1.00 15.20 LIG-0.65  OA
ATOM     18 OXT  ASP D  10      17.474-117.996 156.527  1.00 15.71 LIG-0.65  OA
ENDBRANCH 15 16
BRANCH 15 19
ATOM     19  CB  ASP D  10      18.941-121.203 157.153  1.00 14.49 LIG 0.15  C 
BRANCH 19 20
ATOM     20  CG  ASP D  10      18.985-121.329 155.643  1.00 20.14 LIG 0.17  C 
ATOM     21 OD2  ASP D  10      17.958-121.736 155.063  1.00 22.62 LIG-0.65  OA
ATOM     22 OD1  ASP D  10      20.032-121.013 155.038  1.00 23.52 LIG-0.65  OA
ENDBRANCH 19 20
ENDBRANCH 15 19
ENDBRANCH 12 15
ENDBRANCH 6 11
ENDBRANCH 4 6
ENDBRANCH 1 2
BRANCH 1 23
ATOM     23  CB  LYS D   8      18.588-123.916 163.457  1.00 14.93 LIG 0.04  C 
BRANCH 23 24
ATOM     24  CG  LYS D   8      17.321-124.525 162.893  1.00 16.49 LIG 0.00  C 
BRANCH 24 25
ATOM     25  CD  LYS D   8      17.618-125.855 162.244  1.00 20.48 LIG 0.03  C 
BRANCH 25 26
ATOM     26  CE  LYS D   8      19.009-126.346 162.586  1.00 18.72 LIG 0.23  C 
BRANCH 26 27
ATOM     27  NZ  LYS D   8      19.724-126.741 161.344  1.00 16.35 LIG-0.08  N 
ATOM     28 HZ2  LYS D   8      19.193-126.611 160.642  1.00 16.35 LIG 0.27  HD
ATOM     29 HZ3  LYS D   8      20.459-126.247 161.255  1.00 16.35 LIG 0.27  HD
ATOM     30 HZ1  LYS D   8      19.948-127.601 161.392  1.00 16.35 LIG 0.27  HD
ENDBRANCH 26 27
ENDBRANCH 25 26
ENDBRANCH 24 25
ENDBRANCH 23 24
ENDBRANCH 1 23
BRANCH 1 31
ATOM     31  N   LYS D   8      20.350-122.228 163.159  1.00 12.29 LIG-0.35  N 
ATOM     32  C   ARG D   7      21.202-121.434 162.509  1.00 12.18 LIG 0.26  C 
ATOM     33 O    ARG D   7      21.256-121.371 161.288  1.00 12.68 LIG-0.27  OA
ATOM     34 H    LYS D   8      20.322-122.298 164.017  1.00 12.29 LIG 0.16  HD
BRANCH 32 35
ATOM     35  CA  ARG D   7      22.135-120.580 163.364  1.00 18.47 LIG 0.40  C 
ATOM     36  N   ARG D   7      21.378-119.796 164.338  1.00 16.79 LIG 0.61  N 
BRANCH 35 37
ATOM     37  CB  ARG D   7      23.138-121.481 164.088  1.00 18.75 LIG 0.05  C 
BRANCH 37 38
ATOM     38  CG  ARG D   7      24.546-121.456 163.507  1.00 15.67 LIG 0.02  C 
BRANCH 38 39
ATOM     39  CD  ARG D   7      25.504-122.313 164.330  1.00 21.79 LIG 0.14  C 
BRANCH 39 40
ATOM     40  NE  ARG D   7      25.401-122.051 165.766  1.00 19.93 LIG-0.23  N 
ATOM     41  CZ  ARG D   7      25.481-122.987 166.709  1.00 19.53 LIG 0.67  C 
ATOM     42  NH2 ARG D   7      25.370-122.644 167.981  1.00 23.42 LIG-0.23  N 
ATOM     43  NH1 ARG D   7      25.672-124.259 166.386  1.00 23.45 LIG-0.23  N 
ATOM     44 2HH2 ARG D   7      25.421-123.244 168.594  1.00 23.42 LIG 0.17  HD
ATOM     45 1HH2 ARG D   7      25.246-121.820 168.195  1.00 23.42 LIG 0.17  HD
ATOM     46 2HH1 ARG D   7      25.722-124.856 167.003  1.00 23.45 LIG 0.17  HD
ATOM     47 1HH1 ARG D   7      25.745-124.486 165.560  1.00 23.45 LIG 0.17  HD
ATOM     48 HE   ARG D   7      25.280-121.237 166.017  1.00 19.93 LIG 0.18  HD
ENDBRANCH 39 40
ENDBRANCH 38 39
ENDBRANCH 37 38
ENDBRANCH 35 37
ENDBRANCH 32 35
ENDBRANCH 1 31
TORSDOF 20
ENDMDL
MODEL 10
USER: ADFR SOLUTION from run 139
USER: SCORE 17.640784 LL:  -1.023 LR: -17.679 RR:   0.000 FEB: -11.713
USER: RMSD 5.901117
USER: SEED 138
USER: STATUS 1 or 2 clusters left
USER: GENES 22
USER: genes 0 Translation |==|  0.46827 0.26964 0.50075
USER: genes 1 Rotation |==|  0.57755 0.57116 0.53037 0.98785
USER: genes 2 Torsion [N]-CA--C-[N] |==|  0.94411
USER: genes 3 Torsion [C]-N--CA-[CB] |==|  0.53171
USER: genes 4 Torsion [N]-CA--CB-[CG] |==|  0.84100
USER: genes 5 Torsion [CA]-CB--CG-[CD1] |==|  0.91645
USER: genes 6 Torsion [N]-CA--C-[N] |==|  0.77880
USER: genes 7 Torsion [C]-N--CA-[CB] |==|  0.82285
USER: genes 8 Torsion [N]-CA--C-[O] |==|  0.75188
USER: genes 9 Torsion [N]-CA--CB-[CG] |==|  0.48000
USER: genes 10 Torsion [CA]-CB--CG-[OD2] |==|  0.22780
USER: genes 11 Torsion [C]-CA--CB-[CG] |==|  0.11329
USER: genes 12 Torsion [CA]-CB--CG-[CD] |==|  0.23742
USER: genes 13 Torsion [CB]-CG--CD-[CE] |==|  0.04183
USER: genes 14 Torsion [CG]-CD--CE-[NZ] |==|  0.62898
USER: genes 15 Torsion [CD]-CE--NZ-[HZ2] |==|  0.65842
USER: genes 16 Torsion [C]-CA--N-[C] |==|  0.82029
USER: genes 17 Torsion [N]-C--CA-[N] |==|  0.21525
USER: genes 18 Torsion [C]-CA--CB-[CG] |==|  0.72390
USER: genes 19 Torsion [CA]-CB--CG-[CD] |==|  0.34654
USER: genes 20 Torsion [CB]-CG--CD-[NE] |==|  0.62567
USER: genes 21 Torsion [CG]-CD--NE-[CZ] |==|  0.26012
ROOT
ATOM      1  CA  LYS D   8      19.272-123.055 162.533  1.00 12.19 LIG 0.18  C 
ENDROOT
BRANCH 1 2
ATOM      2  C   LYS D   8      18.330-122.225 161.663  1.00 13.86 LIG 0.24  C 
ATOM      3 O    LYS D   8      17.749-122.736 160.703  1.00 13.19 LIG-0.27  OA
ATOM      4  N   LEU D   9      18.178-120.942 161.975  1.00 13.79 LIG-0.35  N 
ATOM      5 H    LEU D   9      18.572-120.549 162.631  1.00 13.79 LIG 0.16  HD
BRANCH 4 6
ATOM      6  CA  LEU D   9      17.295-120.089 161.190  1.00 13.45 LIG 0.18  C 
BRANCH 6 7
ATOM      7  CB  LEU D   9      17.503-118.621 161.561  1.00 15.24 LIG 0.04  C 
BRANCH 7 8
ATOM      8  CG  LEU D   9      17.300-118.270 163.035  1.00 15.65 LIG-0.02  C 
ATOM      9  CD1 LEU D   9      16.275-119.191 163.670  1.00 23.17 LIG 0.01  C 
ATOM     10  CD2 LEU D   9      18.623-118.380 163.766  1.00 23.01 LIG 0.01  C 
ENDBRANCH 7 8
ENDBRANCH 6 7
BRANCH 6 11
ATOM     11  C   LEU D   9      17.455-120.289 159.681  1.00 13.91 LIG 0.24  C 
ATOM     12  N   ASP D  10      18.489-119.685 159.103  1.00 15.10 LIG-0.34  N 
ATOM     13 H    ASP D  10      19.079-119.231 159.533  1.00 15.10 LIG 0.16  HD
ATOM     14 O    LEU D   9      16.657-120.992 159.058  1.00 14.13 LIG-0.27  OA
BRANCH 12 15
ATOM     15  CA  ASP D  10      18.713-119.746 157.658  1.00 14.88 LIG 0.20  C 
BRANCH 15 16
ATOM     16  C   ASP D  10      17.540-119.192 156.856  1.00 18.09 LIG 0.20  C 
ATOM     17 O    ASP D  10      16.620-119.938 156.515  1.00 15.20 LIG-0.65  OA
ATOM     18 OXT  ASP D  10      17.474-117.999 156.548  1.00 15.71 LIG-0.65  OA
ENDBRANCH 15 16
BRANCH 15 19
ATOM     19  CB  ASP D  10      18.982-121.185 157.210  1.00 14.49 LIG 0.15  C 
BRANCH 19 20
ATOM     20  CG  ASP D  10      19.048-121.328 155.702  1.00 20.14 LIG 0.17  C 
ATOM     21 OD2  ASP D  10      20.123-121.041 155.137  1.00 22.62 LIG-0.65  OA
ATOM     22 OD1  ASP D  10      18.040-121.736 155.087  1.00 23.52 LIG-0.65  OA
ENDBRANCH 19 20
ENDBRANCH 15 19
ENDBRANCH 12 15
ENDBRANCH 6 11
ENDBRANCH 4 6
ENDBRANCH 1 2
BRANCH 1 23
ATOM     23  CB  LYS D   8      18.444-123.928 163.480  1.00 14.93 LIG 0.04  C 
BRANCH 23 24
ATOM     24  CG  LYS D   8      17.216-124.547 162.842  1.00 16.49 LIG 0.00  C 
BRANCH 24 25
ATOM     25  CD  LYS D   8      17.576-125.839 162.151  1.00 20.48 LIG 0.03  C 
BRANCH 25 26
ATOM     26  CE  LYS D   8      18.937-126.345 162.581  1.00 18.72 LIG 0.23  C 
BRANCH 26 27
ATOM     27  NZ  LYS D   8      19.724-126.750 161.387  1.00 16.35 LIG-0.08  N 
ATOM     28 HZ2  LYS D   8      19.972-127.601 161.470  1.00 16.35 LIG 0.27  HD
ATOM     29 HZ3  LYS D   8      19.225-126.657 160.656  1.00 16.35 LIG 0.27  HD
ATOM     30 HZ1  LYS D   8      20.448-126.236 161.320  1.00 16.35 LIG 0.27  HD
ENDBRANCH 26 27
ENDBRANCH 25 26
ENDBRANCH 24 25
ENDBRANCH 23 24
ENDBRANCH 1 23
BRANCH 1 31
ATOM     31  N   LYS D   8      20.222-122.242 163.290  1.00 12.29 LIG-0.35  N 
ATOM     32  C   ARG D   7      21.158-121.503 162.692  1.00 12.18 LIG 0.26  C 
ATOM     33 O    ARG D   7      21.314-121.479 161.479  1.00 12.68 LIG-0.27  OA
ATOM     34 H    LYS D   8      20.121-122.285 164.143  1.00 12.29 LIG 0.16  HD
BRANCH 32 35
ATOM     35  CA  ARG D   7      22.053-120.662 163.599  1.00 18.47 LIG 0.40  C 
ATOM     36  N   ARG D   7      23.074-121.491 164.237  1.00 16.79 LIG 0.61  N 
BRANCH 35 37
ATOM     37  CB  ARG D   7      22.720-119.556 162.779  1.00 18.75 LIG 0.05  C 
BRANCH 37 38
ATOM     38  CG  ARG D   7      24.154-119.855 162.358  1.00 15.67 LIG 0.02  C 
BRANCH 38 39
ATOM     39  CD  ARG D   7      24.327-119.741 160.846  1.00 21.79 LIG 0.14  C 
BRANCH 39 40
ATOM     40  NE  ARG D   7      25.087-120.857 160.282  1.00 19.93 LIG-0.23  N 
ATOM     41  CZ  ARG D   7      24.540-121.962 159.780  1.00 19.53 LIG 0.67  C 
ATOM     42  NH2 ARG D   7      25.319-122.915 159.297  1.00 23.42 LIG-0.23  N 
ATOM     43  NH1 ARG D   7      23.223-122.116 159.757  1.00 23.45 LIG-0.23  N 
ATOM     44 2HH2 ARG D   7      24.971-123.630 158.972  1.00 23.42 LIG 0.17  HD
ATOM     45 1HH2 ARG D   7      26.173-122.819 159.310  1.00 23.42 LIG 0.17  HD
ATOM     46 2HH1 ARG D   7      22.880-122.833 159.430  1.00 23.45 LIG 0.17  HD
ATOM     47 1HH1 ARG D   7      22.713-121.498 160.070  1.00 23.45 LIG 0.17  HD
ATOM     48 HE   ARG D   7      25.945-120.794 160.274  1.00 19.93 LIG 0.18  HD
ENDBRANCH 39 40
ENDBRANCH 38 39
ENDBRANCH 37 38
ENDBRANCH 35 37
ENDBRANCH 32 35
ENDBRANCH 1 31
TORSDOF 20
ENDMDL
MODEL 11
USER: ADFR SOLUTION from run 150
USER: SCORE 17.057266 LL:  -1.212 LR: -17.611 RR:   0.000 FEB: -11.645
USER: RMSD 2.951540
USER: SEED 149
USER: STATUS no improvement in best in 10 clusters for 5 generations
USER: GENES 22
USER: genes 0 Translation |==|  0.40689 0.49048 0.46354
USER: genes 1 Rotation |==|  0.45424 0.55947 0.37779 0.97899
USER: genes 2 Torsion [N]-CA--C-[N] |==|  0.00069
USER: genes 3 Torsion [C]-N--CA-[CB] |==|  0.46073
USER: genes 4 Torsion [N]-CA--CB-[CG] |==|  0.68536
USER: genes 5 Torsion [CA]-CB--CG-[CD1] |==|  0.79693
USER: genes 6 Torsion [N]-CA--C-[N] |==|  0.92884
USER: genes 7 Torsion [C]-N--CA-[CB] |==|  0.47393
USER: genes 8 Torsion [N]-CA--C-[O] |==|  0.47054
USER: genes 9 Torsion [N]-CA--CB-[CG] |==|  0.73321
USER: genes 10 Torsion [CA]-CB--CG-[OD2] |==|  0.84099
USER: genes 11 Torsion [C]-CA--CB-[CG] |==|  0.33447
USER: genes 12 Torsion [CA]-CB--CG-[CD] |==|  0.22969
USER: genes 13 Torsion [CB]-CG--CD-[CE] |==|  0.65416
USER: genes 14 Torsion [CG]-CD--CE-[NZ] |==|  0.57282
USER: genes 15 Torsion [CD]-CE--NZ-[HZ2] |==|  0.83128
USER: genes 16 Torsion [C]-CA--N-[C] |==|  0.20257
USER: genes 17 Torsion [N]-C--CA-[N] |==|  0.64909
USER: genes 18 Torsion [C]-CA--CB-[CG] |==|  0.82274
USER: genes 19 Torsion [CA]-CB--CG-[CD] |==|  0.45076
USER: genes 20 Torsion [CB]-CG--CD-[NE] |==|  0.60126
USER: genes 21 Torsion [CG]-CD--NE-[CZ] |==|  0.33740
ROOT
ATOM      1  CA  LYS D   8      18.397-118.915 161.667  1.00 12.19 LIG 0.18  C 
ENDROOT
BRANCH 1 2
ATOM      2  C   LYS D   8      17.840-118.307 160.381  1.00 13.86 LIG 0.24  C 
ATOM      3 O    LYS D   8      16.724-118.629 159.969  1.00 13.19 LIG-0.27  OA
ATOM      4  N   LEU D   9      18.608-117.440 159.729  1.00 13.79 LIG-0.35  N 
ATOM      5 H    LEU D   9      19.394-117.198 159.981  1.00 13.79 LIG 0.16  HD
BRANCH 4 6
ATOM      6  CA  LEU D   9      18.142-116.821 158.496  1.00 13.45 LIG 0.18  C 
BRANCH 6 7
ATOM      7  CB  LEU D   9      19.025-115.627 158.132  1.00 15.24 LIG 0.04  C 
BRANCH 7 8
ATOM      8  CG  LEU D   9      18.354-114.256 158.198  1.00 15.65 LIG-0.02  C 
ATOM      9  CD1 LEU D   9      17.391-114.072 157.040  1.00 23.17 LIG 0.01  C 
ATOM     10  CD2 LEU D   9      17.616-114.120 159.515  1.00 23.01 LIG 0.01  C 
ENDBRANCH 7 8
ENDBRANCH 6 7
BRANCH 6 11
ATOM     11  C   LEU D   9      18.059-117.804 157.325  1.00 13.91 LIG 0.24  C 
ATOM     12  N   ASP D  10      18.860-118.865 157.377  1.00 15.10 LIG-0.34  N 
ATOM     13 H    ASP D  10      19.380-119.039 158.039  1.00 15.10 LIG 0.16  HD
ATOM     14 O    LEU D   9      17.271-117.606 156.400  1.00 14.13 LIG-0.27  OA
BRANCH 12 15
ATOM     15  CA  ASP D  10      18.921-119.843 156.290  1.00 14.88 LIG 0.20  C 
BRANCH 15 16
ATOM     16  C   ASP D  10      17.629-120.636 156.136  1.00 18.09 LIG 0.20  C 
ATOM     17 O    ASP D  10      17.459-121.353 155.148  1.00 15.20 LIG-0.65  OA
ATOM     18 OXT  ASP D  10      16.741-120.597 156.992  1.00 15.71 LIG-0.65  OA
ENDBRANCH 15 16
BRANCH 15 19
ATOM     19  CB  ASP D  10      20.079-120.821 156.505  1.00 14.49 LIG 0.15  C 
BRANCH 19 20
ATOM     20  CG  ASP D  10      21.333-120.422 155.751  1.00 20.14 LIG 0.17  C 
ATOM     21 OD2  ASP D  10      21.250-120.284 154.514  1.00 22.62 LIG-0.65  OA
ATOM     22 OD1  ASP D  10      22.391-120.236 156.390  1.00 23.52 LIG-0.65  OA
ENDBRANCH 19 20
ENDBRANCH 15 19
ENDBRANCH 12 15
ENDBRANCH 6 11
ENDBRANCH 4 6
ENDBRANCH 1 2
BRANCH 1 23
ATOM     23  CB  LYS D   8      17.426-118.634 162.818  1.00 14.93 LIG 0.04  C 
BRANCH 23 24
ATOM     24  CG  LYS D   8      16.885-119.878 163.492  1.00 16.49 LIG 0.00  C 
BRANCH 24 25
ATOM     25  CD  LYS D   8      17.867-120.392 164.516  1.00 20.48 LIG 0.03  C 
BRANCH 25 26
ATOM     26  CE  LYS D   8      18.235-121.838 164.262  1.00 18.72 LIG 0.23  C 
BRANCH 26 27
ATOM     27  NZ  LYS D   8      18.646-122.486 165.535  1.00 16.35 LIG-0.08  N 
ATOM     28 HZ2  LYS D   8      19.356-122.065 165.866  1.00 16.35 LIG 0.27  HD
ATOM     29 HZ3  LYS D   8      17.976-122.443 166.120  1.00 16.35 LIG 0.27  HD
ATOM     30 HZ1  LYS D   8      18.851-123.339 165.382  1.00 16.35 LIG 0.27  HD
ENDBRANCH 26 27
ENDBRANCH 25 26
ENDBRANCH 24 25
ENDBRANCH 23 24
ENDBRANCH 1 23
BRANCH 1 31
ATOM     31  N   LYS D   8      19.735-118.428 162.000  1.00 12.29 LIG-0.35  N 
ATOM     32  C   ARG D   7      19.947-117.194 162.460  1.00 12.18 LIG 0.26  C 
ATOM     33 O    ARG D   7      19.052-116.372 162.602  1.00 12.68 LIG-0.27  OA
ATOM     34 H    LYS D   8      20.362-119.004 161.873  1.00 12.29 LIG 0.16  HD
BRANCH 32 35
ATOM     35  CA  ARG D   7      21.387-116.831 162.816  1.00 18.47 LIG 0.40  C 
ATOM     36  N   ARG D   7      21.473-116.321 164.184  1.00 16.79 LIG 0.61  N 
BRANCH 35 37
ATOM     37  CB  ARG D   7      22.281-118.064 162.664  1.00 18.75 LIG 0.05  C 
BRANCH 37 38
ATOM     38  CG  ARG D   7      21.949-119.208 163.615  1.00 15.67 LIG 0.02  C 
BRANCH 38 39
ATOM     39  CD  ARG D   7      22.557-120.524 163.137  1.00 21.79 LIG 0.14  C 
BRANCH 39 40
ATOM     40  NE  ARG D   7      21.690-121.672 163.404  1.00 19.93 LIG-0.23  N 
ATOM     41  CZ  ARG D   7      21.224-122.496 162.467  1.00 19.53 LIG 0.67  C 
ATOM     42  NH2 ARG D   7      20.442-123.503 162.814  1.00 23.42 LIG-0.23  N 
ATOM     43  NH1 ARG D   7      21.538-122.316 161.191  1.00 23.45 LIG-0.23  N 
ATOM     44 2HH2 ARG D   7      20.138-124.038 162.213  1.00 23.42 LIG 0.17  HD
ATOM     45 1HH2 ARG D   7      20.236-123.623 163.640  1.00 23.42 LIG 0.17  HD
ATOM     46 2HH1 ARG D   7      21.232-122.855 160.594  1.00 23.45 LIG 0.17  HD
ATOM     47 1HH1 ARG D   7      22.047-121.662 160.961  1.00 23.45 LIG 0.17  HD
ATOM     48 HE   ARG D   7      21.466-121.825 164.220  1.00 19.93 LIG 0.18  HD
ENDBRANCH 39 40
ENDBRANCH 38 39
ENDBRANCH 37 38
ENDBRANCH 35 37
ENDBRANCH 32 35
ENDBRANCH 1 31
TORSDOF 20
ENDMDL
MODEL 12
USER: ADFR SOLUTION from run 168
USER: SCORE 17.083899 LL:  -1.070 LR: -17.579 RR:   0.000 FEB: -11.613
USER: RMSD 2.994682
USER: SEED 167
USER: STATUS no improvement in best in 4 clusters for 5 generations
USER: GENES 22
USER: genes 0 Translation |==|  0.47722 0.44731 0.46735
USER: genes 1 Rotation |==|  0.72316 0.38602 0.78121 0.82883
USER: genes 2 Torsion [N]-CA--C-[N] |==|  0.40149
USER: genes 3 Torsion [C]-N--CA-[CB] |==|  0.38362
USER: genes 4 Torsion [N]-CA--CB-[CG] |==|  0.64219
USER: genes 5 Torsion [CA]-CB--CG-[CD1] |==|  0.69532
USER: genes 6 Torsion [N]-CA--C-[N] |==|  0.97696
USER: genes 7 Torsion [C]-N--CA-[CB] |==|  0.43195
USER: genes 8 Torsion [N]-CA--C-[O] |==|  0.03521
USER: genes 9 Torsion [N]-CA--CB-[CG] |==|  0.68893
USER: genes 10 Torsion [CA]-CB--CG-[OD2] |==|  0.49167
USER: genes 11 Torsion [C]-CA--CB-[CG] |==|  0.60552
USER: genes 12 Torsion [CA]-CB--CG-[CD] |==|  0.26767
USER: genes 13 Torsion [CB]-CG--CD-[CE] |==|  0.43088
USER: genes 14 Torsion [CG]-CD--CE-[NZ] |==|  0.01177
USER: genes 15 Torsion [CD]-CE--NZ-[HZ2] |==|  0.78751
USER: genes 16 Torsion [C]-CA--N-[C] |==|  0.61113
USER: genes 17 Torsion [N]-C--CA-[N] |==|  0.25288
USER: genes 18 Torsion [C]-CA--CB-[CG] |==|  0.59781
USER: genes 19 Torsion [CA]-CB--CG-[CD] |==|  0.59846
USER: genes 20 Torsion [CB]-CG--CD-[NE] |==|  0.46742
USER: genes 21 Torsion [CG]-CD--NE-[CZ] |==|  0.27278
ROOT
ATOM      1  CA  LYS D   8      19.399-119.724 161.756  1.00 12.19 LIG 0.18  C 
ENDROOT
BRANCH 1 2
ATOM      2  C   LYS D   8      18.450-118.926 160.864  1.00 13.86 LIG 0.24  C 
ATOM      3 O    LYS D   8      17.230-119.068 160.963  1.00 13.19 LIG-0.27  OA
ATOM      4  N   LEU D   9      18.992-118.094 159.980  1.00 13.79 LIG-0.35  N 
ATOM      5 H    LEU D   9      19.838-117.976 159.877  1.00 13.79 LIG 0.16  HD
BRANCH 4 6
ATOM      6  CA  LEU D   9      18.148-117.300 159.097  1.00 13.45 LIG 0.18  C 
BRANCH 6 7
ATOM      7  CB  LEU D   9      18.690-115.875 158.981  1.00 15.24 LIG 0.04  C 
BRANCH 7 8
ATOM      8  CG  LEU D   9      17.681-114.756 159.236  1.00 15.65 LIG-0.02  C 
ATOM      9  CD1 LEU D   9      17.354-114.023 157.948  1.00 23.17 LIG 0.01  C 
ATOM     10  CD2 LEU D   9      16.419-115.343 159.836  1.00 23.01 LIG 0.01  C 
ENDBRANCH 7 8
ENDBRANCH 6 7
BRANCH 6 11
ATOM     11  C   LEU D   9      17.979-117.925 157.709  1.00 13.91 LIG 0.24  C 
ATOM     12  N   ASP D  10      18.735-118.983 157.433  1.00 15.10 LIG-0.34  N 
ATOM     13 H    ASP D  10      19.273-119.347 157.996  1.00 15.10 LIG 0.16  HD
ATOM     14 O    LEU D   9      17.164-117.458 156.912  1.00 14.13 LIG-0.27  OA
BRANCH 12 15
ATOM     15  CA  ASP D  10      18.713-119.628 156.119  1.00 14.88 LIG 0.20  C 
BRANCH 15 16
ATOM     16  C   ASP D  10      17.554-120.606 155.962  1.00 18.09 LIG 0.20  C 
ATOM     17 O    ASP D  10      16.636-120.611 156.784  1.00 15.20 LIG-0.65  OA
ATOM     18 OXT  ASP D  10      17.497-121.393 155.013  1.00 15.71 LIG-0.65  OA
ENDBRANCH 15 16
BRANCH 15 19
ATOM     19  CB  ASP D  10      20.026-120.372 155.858  1.00 14.49 LIG 0.15  C 
BRANCH 19 20
ATOM     20  CG  ASP D  10      20.851-119.738 154.755  1.00 20.14 LIG 0.17  C 
ATOM     21 OD2  ASP D  10      21.967-120.236 154.504  1.00 22.62 LIG-0.65  OA
ATOM     22 OD1  ASP D  10      20.385-118.758 154.136  1.00 23.52 LIG-0.65  OA
ENDBRANCH 19 20
ENDBRANCH 15 19
ENDBRANCH 12 15
ENDBRANCH 6 11
ENDBRANCH 4 6
ENDBRANCH 1 2
BRANCH 1 23
ATOM     23  CB  LYS D   8      19.699-121.072 161.092  1.00 14.93 LIG 0.04  C 
BRANCH 23 24
ATOM     24  CG  LYS D   8      19.797-122.233 162.060  1.00 16.49 LIG 0.00  C 
BRANCH 24 25
ATOM     25  CD  LYS D   8      18.482-122.970 162.134  1.00 20.48 LIG 0.03  C 
BRANCH 25 26
ATOM     26  CE  LYS D   8      18.670-124.409 162.566  1.00 18.72 LIG 0.23  C 
BRANCH 26 27
ATOM     27  NZ  LYS D   8      20.099-124.654 162.893  1.00 16.35 LIG-0.08  N 
ATOM     28 HZ2  LYS D   8      20.567-124.731 162.140  1.00 16.35 LIG 0.27  HD
ATOM     29 HZ3  LYS D   8      20.416-123.973 163.371  1.00 16.35 LIG 0.27  HD
ATOM     30 HZ1  LYS D   8      20.171-125.406 163.365  1.00 16.35 LIG 0.27  HD
ENDBRANCH 26 27
ENDBRANCH 25 26
ENDBRANCH 24 25
ENDBRANCH 23 24
ENDBRANCH 1 23
BRANCH 1 31
ATOM     31  N   LYS D   8      18.884-119.926 163.109  1.00 12.29 LIG-0.35  N 
ATOM     32  C   ARG D   7      19.667-119.848 164.185  1.00 12.18 LIG 0.26  C 
ATOM     33 O    ARG D   7      20.871-119.640 164.121  1.00 12.68 LIG-0.27  OA
ATOM     34 H    LYS D   8      18.041-120.098 163.143  1.00 12.29 LIG 0.16  HD
BRANCH 32 35
ATOM     35  CA  ARG D   7      18.992-120.031 165.543  1.00 18.47 LIG 0.40  C 
ATOM     36  N   ARG D   7      19.010-121.435 165.950  1.00 16.79 LIG 0.61  N 
BRANCH 35 37
ATOM     37  CB  ARG D   7      19.706-119.177 166.592  1.00 18.75 LIG 0.05  C 
BRANCH 37 38
ATOM     38  CG  ARG D   7      19.773-119.801 167.980  1.00 15.67 LIG 0.02  C 
BRANCH 38 39
ATOM     39  CD  ARG D   7      19.653-118.744 169.074  1.00 21.79 LIG 0.14  C 
BRANCH 39 40
ATOM     40  NE  ARG D   7      19.439-119.329 170.398  1.00 19.93 LIG-0.23  N 
ATOM     41  CZ  ARG D   7      20.400-119.526 171.298  1.00 19.53 LIG 0.67  C 
ATOM     42  NH2 ARG D   7      20.101-120.066 172.466  1.00 23.42 LIG-0.23  N 
ATOM     43  NH1 ARG D   7      21.654-119.184 171.034  1.00 23.45 LIG-0.23  N 
ATOM     44 2HH2 ARG D   7      20.718-120.195 173.051  1.00 23.42 LIG 0.17  HD
ATOM     45 1HH2 ARG D   7      19.289-120.289 172.641  1.00 23.42 LIG 0.17  HD
ATOM     46 2HH1 ARG D   7      22.268-119.315 171.622  1.00 23.45 LIG 0.17  HD
ATOM     47 1HH1 ARG D   7      21.853-118.831 170.275  1.00 23.45 LIG 0.17  HD
ATOM     48 HE   ARG D   7      18.638-119.561 170.610  1.00 19.93 LIG 0.18  HD
ENDBRANCH 39 40
ENDBRANCH 38 39
ENDBRANCH 37 38
ENDBRANCH 35 37
ENDBRANCH 32 35
ENDBRANCH 1 31
TORSDOF 20
ENDMDL
MODEL 13
USER: ADFR SOLUTION from run 165
USER: SCORE 17.392742 LL:  -1.768 LR: -17.583 RR:   0.000 FEB: -11.617
USER: RMSD 4.637784
USER: SEED 164
USER: STATUS no improvement in best in 3 clusters for 5 generations
USER: GENES 22
USER: genes 0 Translation |==|  0.33399 0.65068 0.46257
USER: genes 1 Rotation |==|  0.29936 0.50189 0.15429 0.80038
USER: genes 2 Torsion [N]-CA--C-[N] |==|  0.88703
USER: genes 3 Torsion [C]-N--CA-[CB] |==|  0.37785
USER: genes 4 Torsion [N]-CA--CB-[CG] |==|  0.75612
USER: genes 5 Torsion [CA]-CB--CG-[CD1] |==|  0.85610
USER: genes 6 Torsion [N]-CA--C-[N] |==|  0.55430
USER: genes 7 Torsion [C]-N--CA-[CB] |==|  0.85225
USER: genes 8 Torsion [N]-CA--C-[O] |==|  0.39711
USER: genes 9 Torsion [N]-CA--CB-[CG] |==|  0.71282
USER: genes 10 Torsion [CA]-CB--CG-[OD2] |==|  0.92764
USER: genes 11 Torsion [C]-CA--CB-[CG] |==|  0.11654
USER: genes 12 Torsion [CA]-CB--CG-[CD] |==|  0.21949
USER: genes 13 Torsion [CB]-CG--CD-[CE] |==|  0.34773
USER: genes 14 Torsion [CG]-CD--CE-[NZ] |==|  0.42662
USER: genes 15 Torsion [CD]-CE--NZ-[HZ2] |==|  0.01797
USER: genes 16 Torsion [C]-CA--N-[C] |==|  0.74100
USER: genes 17 Torsion [N]-C--CA-[N] |==|  0.44370
USER: genes 18 Torsion [C]-CA--CB-[CG] |==|  0.81752
USER: genes 19 Torsion [CA]-CB--CG-[CD] |==|  0.60038
USER: genes 20 Torsion [CB]-CG--CD-[NE] |==|  0.37973
USER: genes 21 Torsion [CG]-CD--NE-[CZ] |==|  0.84058
ROOT
ATOM      1  CA  LYS D   8      17.358-115.911 161.645  1.00 12.19 LIG 0.18  C 
ENDROOT
BRANCH 1 2
ATOM      2  C   LYS D   8      17.079-116.248 160.181  1.00 13.86 LIG 0.24  C 
ATOM      3 O    LYS D   8      15.936-116.515 159.807  1.00 13.19 LIG-0.27  OA
ATOM      4  N   LEU D   9      18.113-116.253 159.345  1.00 13.79 LIG-0.35  N 
ATOM      5 H    LEU D   9      18.924-116.080 159.571  1.00 13.79 LIG 0.16  HD
BRANCH 4 6
ATOM      6  CA  LEU D   9      17.922-116.564 157.935  1.00 13.45 LIG 0.18  C 
BRANCH 6 7
ATOM      7  CB  LEU D   9      18.711-115.589 157.062  1.00 15.24 LIG 0.04  C 
BRANCH 7 8
ATOM      8  CG  LEU D   9      17.987-114.296 156.685  1.00 15.65 LIG-0.02  C 
ATOM      9  CD1 LEU D   9      16.624-114.596 156.090  1.00 23.17 LIG 0.01  C 
ATOM     10  CD2 LEU D   9      17.837-113.426 157.917  1.00 23.01 LIG 0.01  C 
ENDBRANCH 7 8
ENDBRANCH 6 7
BRANCH 6 11
ATOM     11  C   LEU D   9      18.284-118.011 157.586  1.00 13.91 LIG 0.24  C 
ATOM     12  N   ASP D  10      18.527-118.274 156.306  1.00 15.10 LIG-0.34  N 
ATOM     13 H    ASP D  10      18.528-117.678 155.686  1.00 15.10 LIG 0.16  HD
ATOM     14 O    LEU D   9      18.354-118.865 158.470  1.00 14.13 LIG-0.27  OA
BRANCH 12 15
ATOM     15  CA  ASP D  10      18.820-119.630 155.836  1.00 14.88 LIG 0.20  C 
BRANCH 15 16
ATOM     16  C   ASP D  10      17.612-120.556 155.917  1.00 18.09 LIG 0.20  C 
ATOM     17 O    ASP D  10      17.421-121.398 155.038  1.00 15.20 LIG-0.65  OA
ATOM     18 OXT  ASP D  10      16.816-120.498 156.858  1.00 15.71 LIG-0.65  OA
ENDBRANCH 15 16
BRANCH 15 19
ATOM     19  CB  ASP D  10      19.969-120.246 156.639  1.00 14.49 LIG 0.15  C 
BRANCH 19 20
ATOM     20  CG  ASP D  10      21.281-120.251 155.879  1.00 20.14 LIG 0.17  C 
ATOM     21 OD2  ASP D  10      21.230-120.258 154.632  1.00 22.62 LIG-0.65  OA
ATOM     22 OD1  ASP D  10      22.353-120.236 156.520  1.00 23.52 LIG-0.65  OA
ENDBRANCH 19 20
ENDBRANCH 15 19
ENDBRANCH 12 15
ENDBRANCH 6 11
ENDBRANCH 4 6
ENDBRANCH 1 2
BRANCH 1 23
ATOM     23  CB  LYS D   8      17.411-114.389 161.809  1.00 14.93 LIG 0.04  C 
BRANCH 23 24
ATOM     24  CG  LYS D   8      16.338-113.643 161.043  1.00 16.49 LIG 0.00  C 
BRANCH 24 25
ATOM     25  CD  LYS D   8      15.023-113.706 161.779  1.00 20.48 LIG 0.03  C 
BRANCH 25 26
ATOM     26  CE  LYS D   8      14.454-112.326 162.031  1.00 18.72 LIG 0.23  C 
BRANCH 26 27
ATOM     27  NZ  LYS D   8      12.975-112.403 162.147  1.00 16.35 LIG-0.08  N 
ATOM     28 HZ2  LYS D   8      12.721-113.256 162.140  1.00 16.35 LIG 0.27  HD
ATOM     29 HZ3  LYS D   8      12.716-112.023 162.909  1.00 16.35 LIG 0.27  HD
ATOM     30 HZ1  LYS D   8      12.600-111.977 161.461  1.00 16.35 LIG 0.27  HD
ENDBRANCH 26 27
ENDBRANCH 25 26
ENDBRANCH 24 25
ENDBRANCH 23 24
ENDBRANCH 1 23
BRANCH 1 31
ATOM     31  N   LYS D   8      18.587-116.521 162.151  1.00 12.29 LIG-0.35  N 
ATOM     32  C   ARG D   7      18.589-117.699 162.774  1.00 12.18 LIG 0.26  C 
ATOM     33 O    ARG D   7      17.569-118.336 163.000  1.00 12.68 LIG-0.27  OA
ATOM     34 H    LYS D   8      19.296-116.053 162.011  1.00 12.29 LIG 0.16  HD
BRANCH 32 35
ATOM     35  CA  ARG D   7      19.948-118.245 163.209  1.00 18.47 LIG 0.40  C 
ATOM     36  N   ARG D   7      19.794-119.249 164.260  1.00 16.79 LIG 0.61  N 
BRANCH 35 37
ATOM     37  CB  ARG D   7      20.663-118.860 162.004  1.00 18.75 LIG 0.05  C 
BRANCH 37 38
ATOM     38  CG  ARG D   7      19.986-120.097 161.428  1.00 15.67 LIG 0.02  C 
BRANCH 38 39
ATOM     39  CD  ARG D   7      21.009-121.116 160.936  1.00 21.79 LIG 0.14  C 
BRANCH 39 40
ATOM     40  NE  ARG D   7      20.666-122.486 161.318  1.00 19.93 LIG-0.23  N 
ATOM     41  CZ  ARG D   7      20.478-122.892 162.572  1.00 19.53 LIG 0.67  C 
ATOM     42  NH2 ARG D   7      20.174-124.157 162.811  1.00 23.42 LIG-0.23  N 
ATOM     43  NH1 ARG D   7      20.592-122.042 163.584  1.00 23.45 LIG-0.23  N 
ATOM     44 2HH2 ARG D   7      20.052-124.425 163.619  1.00 23.42 LIG 0.17  HD
ATOM     45 1HH2 ARG D   7      20.099-124.711 162.158  1.00 23.42 LIG 0.17  HD
ATOM     46 2HH1 ARG D   7      20.468-122.315 164.390  1.00 23.45 LIG 0.17  HD
ATOM     47 1HH1 ARG D   7      20.789-121.219 163.433  1.00 23.45 LIG 0.17  HD
ATOM     48 HE   ARG D   7      20.578-123.068 160.691  1.00 19.93 LIG 0.18  HD
ENDBRANCH 39 40
ENDBRANCH 38 39
ENDBRANCH 37 38
ENDBRANCH 35 37
ENDBRANCH 32 35
ENDBRANCH 1 31
TORSDOF 20
ENDMDL
MODEL 14
USER: ADFR SOLUTION from run 141
USER: SCORE 18.824219 LL:  -2.678 LR: -17.566 RR:   0.000 FEB: -11.600
USER: RMSD 4.775139
USER: SEED 140
USER: STATUS no improvement in best in 4 clusters for 5 generations
USER: GENES 22
USER: genes 0 Translation |==|  0.38781 0.46317 0.45916
USER: genes 1 Rotation |==|  0.42655 0.64972 0.15976 0.82623
USER: genes 2 Torsion [N]-CA--C-[N] |==|  0.86830
USER: genes 3 Torsion [C]-N--CA-[CB] |==|  0.45760
USER: genes 4 Torsion [N]-CA--CB-[CG] |==|  0.21067
USER: genes 5 Torsion [CA]-CB--CG-[CD1] |==|  0.43352
USER: genes 6 Torsion [N]-CA--C-[N] |==|  0.87470
USER: genes 7 Torsion [C]-N--CA-[CB] |==|  0.47642
USER: genes 8 Torsion [N]-CA--C-[O] |==|  0.48276
USER: genes 9 Torsion [N]-CA--CB-[CG] |==|  0.83807
USER: genes 10 Torsion [CA]-CB--CG-[OD2] |==|  0.27357
USER: genes 11 Torsion [C]-CA--CB-[CG] |==|  0.53928
USER: genes 12 Torsion [CA]-CB--CG-[CD] |==|  0.79870
USER: genes 13 Torsion [CB]-CG--CD-[CE] |==|  0.28370
USER: genes 14 Torsion [CG]-CD--CE-[NZ] |==|  0.27631
USER: genes 15 Torsion [CD]-CE--NZ-[HZ2] |==|  0.25964
USER: genes 16 Torsion [C]-CA--N-[C] |==|  0.83976
USER: genes 17 Torsion [N]-C--CA-[N] |==|  0.70218
USER: genes 18 Torsion [C]-CA--CB-[CG] |==|  0.20953
USER: genes 19 Torsion [CA]-CB--CG-[CD] |==|  0.02592
USER: genes 20 Torsion [CB]-CG--CD-[NE] |==|  0.33771
USER: genes 21 Torsion [CG]-CD--NE-[CZ] |==|  0.60159
ROOT
ATOM      1  CA  LYS D   8      18.125-119.427 161.565  1.00 12.19 LIG 0.18  C 
ENDROOT
BRANCH 1 2
ATOM      2  C   LYS D   8      17.870-118.602 160.305  1.00 13.86 LIG 0.24  C 
ATOM      3 O    LYS D   8      16.727-118.475 159.861  1.00 13.19 LIG-0.27  OA
ATOM      4  N   LEU D   9      18.922-118.049 159.710  1.00 13.79 LIG-0.35  N 
ATOM      5 H    LEU D   9      19.733-118.124 159.985  1.00 13.79 LIG 0.16  HD
BRANCH 4 6
ATOM      6  CA  LEU D   9      18.753-117.250 158.504  1.00 13.45 LIG 0.18  C 
BRANCH 6 7
ATOM      7  CB  LEU D   9      20.013-116.427 158.230  1.00 15.24 LIG 0.04  C 
BRANCH 7 8
ATOM      8  CG  LEU D   9      21.200-117.199 157.653  1.00 15.65 LIG-0.02  C 
ATOM      9  CD1 LEU D   9      22.129-116.268 156.895  1.00 23.17 LIG 0.01  C 
ATOM     10  CD2 LEU D   9      21.950-117.882 158.778  1.00 23.01 LIG 0.01  C 
ENDBRANCH 7 8
ENDBRANCH 6 7
BRANCH 6 11
ATOM     11  C   LEU D   9      18.381-118.086 157.277  1.00 13.91 LIG 0.24  C 
ATOM     12  N   ASP D  10      19.070-119.208 157.086  1.00 15.10 LIG-0.34  N 
ATOM     13 H    ASP D  10      19.673-119.497 157.626  1.00 15.10 LIG 0.16  HD
ATOM     14 O    LEU D   9      17.474-117.723 156.527  1.00 14.13 LIG-0.27  OA
BRANCH 12 15
ATOM     15  CA  ASP D  10      18.854-120.060 155.915  1.00 14.88 LIG 0.20  C 
BRANCH 15 16
ATOM     16  C   ASP D  10      17.473-120.706 155.903  1.00 18.09 LIG 0.20  C 
ATOM     17 O    ASP D  10      17.106-121.358 154.924  1.00 15.20 LIG-0.65  OA
ATOM     18 OXT  ASP D  10      16.707-120.611 156.866  1.00 15.71 LIG-0.65  OA
ENDBRANCH 15 16
BRANCH 15 19
ATOM     19  CB  ASP D  10      19.915-121.160 155.841  1.00 14.49 LIG 0.15  C 
BRANCH 19 20
ATOM     20  CG  ASP D  10      21.327-120.611 155.779  1.00 20.14 LIG 0.17  C 
ATOM     21 OD2  ASP D  10      21.983-120.572 156.840  1.00 22.62 LIG-0.65  OA
ATOM     22 OD1  ASP D  10      21.783-120.232 154.679  1.00 23.52 LIG-0.65  OA
ENDBRANCH 19 20
ENDBRANCH 15 19
ENDBRANCH 12 15
ENDBRANCH 6 11
ENDBRANCH 4 6
ENDBRANCH 1 2
BRANCH 1 23
ATOM     23  CB  LYS D   8      18.393-118.480 162.740  1.00 14.93 LIG 0.04  C 
BRANCH 23 24
ATOM     24  CG  LYS D   8      18.988-119.155 163.959  1.00 16.49 LIG 0.00  C 
BRANCH 24 25
ATOM     25  CD  LYS D   8      17.949-120.000 164.654  1.00 20.48 LIG 0.03  C 
BRANCH 25 26
ATOM     26  CE  LYS D   8      18.124-121.471 164.342  1.00 18.72 LIG 0.23  C 
BRANCH 26 27
ATOM     27  NZ  LYS D   8      18.836-122.142 165.460  1.00 16.35 LIG-0.08  N 
ATOM     28 HZ2  LYS D   8      18.242-122.486 166.027  1.00 16.35 LIG 0.27  HD
ATOM     29 HZ3  LYS D   8      19.349-122.794 165.137  1.00 16.35 LIG 0.27  HD
ATOM     30 HZ1  LYS D   8      19.344-121.549 165.887  1.00 16.35 LIG 0.27  HD
ENDBRANCH 26 27
ENDBRANCH 25 26
ENDBRANCH 24 25
ENDBRANCH 23 24
ENDBRANCH 1 23
BRANCH 1 31
ATOM     31  N   LYS D   8      19.226-120.378 161.417  1.00 12.29 LIG-0.35  N 
ATOM     32  C   ARG D   7      19.230-121.315 160.469  1.00 12.18 LIG 0.26  C 
ATOM     33 O    ARG D   7      18.306-121.473 159.682  1.00 12.68 LIG-0.27  OA
ATOM     34 H    LYS D   8      19.859-120.276 161.991  1.00 12.29 LIG 0.16  HD
BRANCH 32 35
ATOM     35  CA  ARG D   7      20.463-122.213 160.393  1.00 18.47 LIG 0.40  C 
ATOM     36  N   ARG D   7      21.281-121.878 159.228  1.00 16.79 LIG 0.61  N 
BRANCH 35 37
ATOM     37  CB  ARG D   7      21.291-122.057 161.671  1.00 18.75 LIG 0.05  C 
BRANCH 37 38
ATOM     38  CG  ARG D   7      20.710-122.761 162.891  1.00 15.67 LIG 0.02  C 
BRANCH 38 39
ATOM     39  CD  ARG D   7      19.539-123.662 162.511  1.00 21.79 LIG 0.14  C 
BRANCH 39 40
ATOM     40  NE  ARG D   7      19.759-125.058 162.889  1.00 19.93 LIG-0.23  N 
ATOM     41  CZ  ARG D   7      19.359-126.104 162.167  1.00 19.53 LIG 0.67  C 
ATOM     42  NH2 ARG D   7      19.605-127.328 162.601  1.00 23.42 LIG-0.23  N 
ATOM     43  NH1 ARG D   7      18.719-125.930 161.019  1.00 23.45 LIG-0.23  N 
ATOM     44 2HH2 ARG D   7      19.349-128.007 162.140  1.00 23.42 LIG 0.17  HD
ATOM     45 1HH2 ARG D   7      20.019-127.446 163.345  1.00 23.42 LIG 0.17  HD
ATOM     46 2HH1 ARG D   7      18.466-126.612 160.561  1.00 23.45 LIG 0.17  HD
ATOM     47 1HH1 ARG D   7      18.558-125.135 160.733  1.00 23.45 LIG 0.17  HD
ATOM     48 HE   ARG D   7      20.174-125.214 163.626  1.00 19.93 LIG 0.18  HD
ENDBRANCH 39 40
ENDBRANCH 38 39
ENDBRANCH 37 38
ENDBRANCH 35 37
ENDBRANCH 32 35
ENDBRANCH 1 31
TORSDOF 20
ENDMDL
MODEL 15
USER: ADFR SOLUTION from run 5
USER: SCORE 16.936851 LL:  -0.970 LR: -17.502 RR:   0.000 FEB: -11.536
USER: RMSD 5.344883
USER: SEED 995842
USER: STATUS no improvement in best in 5 clusters for 5 generations
USER: GENES 22
USER: genes 0 Translation |==|  0.35923 0.31907 0.42320
USER: genes 1 Rotation |==|  0.59372 0.53829 0.44191 0.98619
USER: genes 2 Torsion [N]-CA--C-[N] |==|  0.98172
USER: genes 3 Torsion [C]-N--CA-[CB] |==|  0.48090
USER: genes 4 Torsion [N]-CA--CB-[CG] |==|  0.94551
USER: genes 5 Torsion [CA]-CB--CG-[CD1] |==|  0.33481
USER: genes 6 Torsion [N]-CA--C-[N] |==|  0.97023
USER: genes 7 Torsion [C]-N--CA-[CB] |==|  0.36041
USER: genes 8 Torsion [N]-CA--C-[O] |==|  0.76762
USER: genes 9 Torsion [N]-CA--CB-[CG] |==|  0.60373
USER: genes 10 Torsion [CA]-CB--CG-[OD2] |==|  0.07873
USER: genes 11 Torsion [C]-CA--CB-[CG] |==|  0.39855
USER: genes 12 Torsion [CA]-CB--CG-[CD] |==|  0.21177
USER: genes 13 Torsion [CB]-CG--CD-[CE] |==|  0.64220
USER: genes 14 Torsion [CG]-CD--CE-[NZ] |==|  0.35625
USER: genes 15 Torsion [CD]-CE--NZ-[HZ2] |==|  0.18492
USER: genes 16 Torsion [C]-CA--N-[C] |==|  0.77636
USER: genes 17 Torsion [N]-C--CA-[N] |==|  0.09722
USER: genes 18 Torsion [C]-CA--CB-[CG] |==|  0.23134
USER: genes 19 Torsion [CA]-CB--CG-[CD] |==|  0.48085
USER: genes 20 Torsion [CB]-CG--CD-[NE] |==|  0.12673
USER: genes 21 Torsion [CG]-CD--NE-[CZ] |==|  0.68086
ROOT
ATOM      1  CA  LYS D   8      17.718-122.128 160.730  1.00 12.19 LIG 0.18  C 
ENDROOT
BRANCH 1 2
ATOM      2  C   LYS D   8      17.211-121.002 159.831  1.00 13.86 LIG 0.24  C 
ATOM      3 O    LYS D   8      16.356-121.224 158.971  1.00 13.19 LIG-0.27  OA
ATOM      4  N   LEU D   9      17.735-119.793 160.007  1.00 13.79 LIG-0.35  N 
ATOM      5 H    LEU D   9      18.338-119.603 160.590  1.00 13.79 LIG 0.16  HD
BRANCH 4 6
ATOM      6  CA  LEU D   9      17.299-118.672 159.187  1.00 13.45 LIG 0.18  C 
BRANCH 6 7
ATOM      7  CB  LEU D   9      17.920-117.369 159.692  1.00 15.24 LIG 0.04  C 
BRANCH 7 8
ATOM      8  CG  LEU D   9      18.438-117.391 161.130  1.00 15.65 LIG-0.02  C 
ATOM      9  CD1 LEU D   9      19.922-117.078 161.171  1.00 23.17 LIG 0.01  C 
ATOM     10  CD2 LEU D   9      17.669-116.381 161.957  1.00 23.01 LIG 0.01  C 
ENDBRANCH 7 8
ENDBRANCH 6 7
BRANCH 6 11
ATOM     11  C   LEU D   9      17.598-118.866 157.697  1.00 13.91 LIG 0.24  C 
ATOM     12  N   ASP D  10      18.388-119.886 157.374  1.00 15.10 LIG-0.34  N 
ATOM     13 H    ASP D  10      18.700-120.449 157.944  1.00 15.10 LIG 0.16  HD
ATOM     14 O    LEU D   9      17.106-118.109 156.860  1.00 14.13 LIG-0.27  OA
BRANCH 12 15
ATOM     15  CA  ASP D  10      18.800-120.137 155.992  1.00 14.88 LIG 0.20  C 
BRANCH 15 16
ATOM     16  C   ASP D  10      18.121-121.361 155.388  1.00 18.09 LIG 0.20  C 
ATOM     17 O    ASP D  10      18.581-122.486 155.593  1.00 15.20 LIG-0.65  OA
ATOM     18 OXT  ASP D  10      17.099-121.261 154.703  1.00 15.71 LIG-0.65  OA
ENDBRANCH 15 16
BRANCH 15 19
ATOM     19  CB  ASP D  10      20.318-120.321 155.904  1.00 14.49 LIG 0.15  C 
BRANCH 19 20
ATOM     20  CG  ASP D  10      20.911-119.712 154.648  1.00 20.14 LIG 0.17  C 
ATOM     21 OD2  ASP D  10      20.324-118.734 154.142  1.00 22.62 LIG-0.65  OA
ATOM     22 OD1  ASP D  10      21.962-120.197 154.176  1.00 23.52 LIG-0.65  OA
ENDBRANCH 19 20
ENDBRANCH 15 19
ENDBRANCH 12 15
ENDBRANCH 6 11
ENDBRANCH 4 6
ENDBRANCH 1 2
BRANCH 1 23
ATOM     23  CB  LYS D   8      16.562-122.643 161.592  1.00 14.93 LIG 0.04  C 
BRANCH 23 24
ATOM     24  CG  LYS D   8      16.585-124.139 161.835  1.00 16.49 LIG 0.00  C 
BRANCH 24 25
ATOM     25  CD  LYS D   8      17.630-124.490 162.866  1.00 20.48 LIG 0.03  C 
BRANCH 25 26
ATOM     26  CE  LYS D   8      18.549-125.590 162.379  1.00 18.72 LIG 0.23  C 
BRANCH 26 27
ATOM     27  NZ  LYS D   8      19.966-125.169 162.537  1.00 16.35 LIG-0.08  N 
ATOM     28 HZ2  LYS D   8      20.159-125.097 163.402  1.00 16.35 LIG 0.27  HD
ATOM     29 HZ3  LYS D   8      20.499-125.776 162.163  1.00 16.35 LIG 0.27  HD
ATOM     30 HZ1  LYS D   8      20.088-124.382 162.139  1.00 16.35 LIG 0.27  HD
ENDBRANCH 26 27
ENDBRANCH 25 26
ENDBRANCH 24 25
ENDBRANCH 23 24
ENDBRANCH 1 23
BRANCH 1 31
ATOM     31  N   LYS D   8      18.844-121.729 161.573  1.00 12.29 LIG-0.35  N 
ATOM     32  C   ARG D   7      20.094-121.680 161.111  1.00 12.18 LIG 0.26  C 
ATOM     33 O    ARG D   7      20.396-121.999 159.969  1.00 12.68 LIG-0.27  OA
ATOM     34 H    LYS D   8      18.626-121.531 162.381  1.00 12.29 LIG 0.16  HD
BRANCH 32 35
ATOM     35  CA  ARG D   7      21.168-121.198 162.083  1.00 18.47 LIG 0.40  C 
ATOM     36  N   ARG D   7      20.874-121.639 163.446  1.00 16.79 LIG 0.61  N 
BRANCH 35 37
ATOM     37  CB  ARG D   7      22.533-121.734 161.647  1.00 18.75 LIG 0.05  C 
BRANCH 37 38
ATOM     38  CG  ARG D   7      23.224-120.908 160.569  1.00 15.67 LIG 0.02  C 
BRANCH 38 39
ATOM     39  CD  ARG D   7      24.643-121.404 160.309  1.00 21.79 LIG 0.14  C 
BRANCH 39 40
ATOM     40  NE  ARG D   7      24.716-122.861 160.193  1.00 19.93 LIG-0.23  N 
ATOM     41  CZ  ARG D   7      25.365-123.652 161.045  1.00 19.53 LIG 0.67  C 
ATOM     42  NH2 ARG D   7      25.373-124.959 160.846  1.00 23.42 LIG-0.23  N 
ATOM     43  NH1 ARG D   7      26.002-123.143 162.091  1.00 23.45 LIG-0.23  N 
ATOM     44 2HH2 ARG D   7      25.791-125.474 161.393  1.00 23.42 LIG 0.17  HD
ATOM     45 1HH2 ARG D   7      24.962-125.293 160.169  1.00 23.42 LIG 0.17  HD
ATOM     46 2HH1 ARG D   7      26.418-123.662 162.635  1.00 23.45 LIG 0.17  HD
ATOM     47 1HH1 ARG D   7      25.998-122.293 162.224  1.00 23.45 LIG 0.17  HD
ATOM     48 HE   ARG D   7      24.313-123.231 159.529  1.00 19.93 LIG 0.18  HD
ENDBRANCH 39 40
ENDBRANCH 38 39
ENDBRANCH 37 38
ENDBRANCH 35 37
ENDBRANCH 32 35
ENDBRANCH 1 31
TORSDOF 20
ENDMDL
MODEL 16
USER: ADFR SOLUTION from run 198
USER: SCORE 17.839234 LL:  -2.315 LR: -17.498 RR:   0.000 FEB: -11.532
USER: RMSD 5.185908
USER: SEED 197
USER: STATUS no improvement in best in 6 clusters for 5 generations
USER: GENES 22
USER: genes 0 Translation |==|  0.31853 0.67958 0.45095
USER: genes 1 Rotation |==|  0.29405 0.53000 0.11919 0.74834
USER: genes 2 Torsion [N]-CA--C-[N] |==|  0.87572
USER: genes 3 Torsion [C]-N--CA-[CB] |==|  0.31374
USER: genes 4 Torsion [N]-CA--CB-[CG] |==|  0.73103
USER: genes 5 Torsion [CA]-CB--CG-[CD1] |==|  0.54992
USER: genes 6 Torsion [N]-CA--C-[N] |==|  0.13913
USER: genes 7 Torsion [C]-N--CA-[CB] |==|  0.44812
USER: genes 8 Torsion [N]-CA--C-[O] |==|  0.43532
USER: genes 9 Torsion [N]-CA--CB-[CG] |==|  0.12714
USER: genes 10 Torsion [CA]-CB--CG-[OD2] |==|  0.76422
USER: genes 11 Torsion [C]-CA--CB-[CG] |==|  0.29014
USER: genes 12 Torsion [CA]-CB--CG-[CD] |==|  0.92238
USER: genes 13 Torsion [CB]-CG--CD-[CE] |==|  0.61384
USER: genes 14 Torsion [CG]-CD--CE-[NZ] |==|  0.66735
USER: genes 15 Torsion [CD]-CE--NZ-[HZ2] |==|  0.16919
USER: genes 16 Torsion [C]-CA--N-[C] |==|  0.74097
USER: genes 17 Torsion [N]-C--CA-[N] |==|  0.29174
USER: genes 18 Torsion [C]-CA--CB-[CG] |==|  0.59719
USER: genes 19 Torsion [CA]-CB--CG-[CD] |==|  0.39123
USER: genes 20 Torsion [CB]-CG--CD-[NE] |==|  0.38368
USER: genes 21 Torsion [CG]-CD--NE-[CZ] |==|  0.80827
ROOT
ATOM      1  CA  LYS D   8      17.138-115.369 161.375  1.00 12.19 LIG 0.18  C 
ENDROOT
BRANCH 1 2
ATOM      2  C   LYS D   8      16.736-115.640 159.926  1.00 13.86 LIG 0.24  C 
ATOM      3 O    LYS D   8      15.547-115.667 159.601  1.00 13.19 LIG-0.27  OA
ATOM      4  N   LEU D   9      17.711-115.855 159.049  1.00 13.79 LIG-0.35  N 
ATOM      5 H    LEU D   9      18.550-115.853 159.241  1.00 13.79 LIG 0.16  HD
BRANCH 4 6
ATOM      6  CA  LEU D   9      17.402-116.120 157.650  1.00 13.45 LIG 0.18  C 
BRANCH 6 7
ATOM      7  CB  LEU D   9      17.890-114.969 156.770  1.00 15.24 LIG 0.04  C 
BRANCH 7 8
ATOM      8  CG  LEU D   9      16.841-113.920 156.401  1.00 15.65 LIG-0.02  C 
ATOM      9  CD1 LEU D   9      17.295-113.101 155.208  1.00 23.17 LIG 0.01  C 
ATOM     10  CD2 LEU D   9      15.528-114.610 156.091  1.00 23.01 LIG 0.01  C 
ENDBRANCH 7 8
ENDBRANCH 6 7
BRANCH 6 11
ATOM     11  C   LEU D   9      17.969-117.453 157.153  1.00 13.91 LIG 0.24  C 
ATOM     12  N   ASP D  10      17.716-118.525 157.898  1.00 15.10 LIG-0.34  N 
ATOM     13 H    ASP D  10      17.230-118.512 158.606  1.00 15.10 LIG 0.16  HD
ATOM     14 O    LEU D   9      18.611-117.504 156.103  1.00 14.13 LIG-0.27  OA
BRANCH 12 15
ATOM     15  CA  ASP D  10      18.256-119.844 157.564  1.00 14.88 LIG 0.20  C 
BRANCH 15 16
ATOM     16  C   ASP D  10      17.515-120.511 156.411  1.00 18.09 LIG 0.20  C 
ATOM     17 O    ASP D  10      18.074-121.380 155.739  1.00 15.20 LIG-0.65  OA
ATOM     18 OXT  ASP D  10      16.349-120.216 156.135  1.00 15.71 LIG-0.65  OA
ENDBRANCH 15 16
BRANCH 15 19
ATOM     19  CB  ASP D  10      18.212-120.772 158.781  1.00 14.49 LIG 0.15  C 
BRANCH 19 20
ATOM     20  CG  ASP D  10      16.885-120.720 159.513  1.00 20.14 LIG 0.17  C 
ATOM     21 OD2  ASP D  10      16.724-119.820 160.362  1.00 22.62 LIG-0.65  OA
ATOM     22 OD1  ASP D  10      16.006-121.562 159.234  1.00 23.52 LIG-0.65  OA
ENDBRANCH 19 20
ENDBRANCH 15 19
ENDBRANCH 12 15
ENDBRANCH 6 11
ENDBRANCH 4 6
ENDBRANCH 1 2
BRANCH 1 23
ATOM     23  CB  LYS D   8      17.605-113.916 161.504  1.00 14.93 LIG 0.04  C 
BRANCH 23 24
ATOM     24  CG  LYS D   8      16.601-112.997 162.169  1.00 16.49 LIG 0.00  C 
BRANCH 24 25
ATOM     25  CD  LYS D   8      15.196-113.497 161.941  1.00 20.48 LIG 0.03  C 
BRANCH 25 26
ATOM     26  CE  LYS D   8      14.239-112.363 161.642  1.00 18.72 LIG 0.23  C 
BRANCH 26 27
ATOM     27  NZ  LYS D   8      13.166-112.324 162.670  1.00 16.35 LIG-0.08  N 
ATOM     28 HZ2  LYS D   8      13.528-112.185 163.471  1.00 16.35 LIG 0.27  HD
ATOM     29 HZ3  LYS D   8      12.599-111.664 162.482  1.00 16.35 LIG 0.27  HD
ATOM     30 HZ1  LYS D   8      12.729-113.099 162.672  1.00 16.35 LIG 0.27  HD
ENDBRANCH 26 27
ENDBRANCH 25 26
ENDBRANCH 24 25
ENDBRANCH 23 24
ENDBRANCH 1 23
BRANCH 1 31
ATOM     31  N   LYS D   8      18.170-116.281 161.865  1.00 12.29 LIG-0.35  N 
ATOM     32  C   ARG D   7      17.872-117.406 162.515  1.00 12.18 LIG 0.26  C 
ATOM     33 O    ARG D   7      16.724-117.740 162.779  1.00 12.68 LIG-0.27  OA
ATOM     34 H    LYS D   8      18.975-116.026 161.697  1.00 12.29 LIG 0.16  HD
BRANCH 32 35
ATOM     35  CA  ARG D   7      19.044-118.294 162.929  1.00 18.47 LIG 0.40  C 
ATOM     36  N   ARG D   7      19.298-118.185 164.364  1.00 16.79 LIG 0.61  N 
BRANCH 35 37
ATOM     37  CB  ARG D   7      18.742-119.748 162.563  1.00 18.75 LIG 0.05  C 
BRANCH 37 38
ATOM     38  CG  ARG D   7      19.287-120.775 163.547  1.00 15.67 LIG 0.02  C 
BRANCH 38 39
ATOM     39  CD  ARG D   7      18.303-121.922 163.759  1.00 21.79 LIG 0.14  C 
BRANCH 39 40
ATOM     40  NE  ARG D   7      18.962-123.228 163.799  1.00 19.93 LIG-0.23  N 
ATOM     41  CZ  ARG D   7      19.533-123.813 162.748  1.00 19.53 LIG 0.67  C 
ATOM     42  NH2 ARG D   7      20.099-125.000 162.890  1.00 23.42 LIG-0.23  N 
ATOM     43  NH1 ARG D   7      19.541-123.219 161.563  1.00 23.45 LIG-0.23  N 
ATOM     44 2HH2 ARG D   7      20.470-125.382 162.215  1.00 23.42 LIG 0.17  HD
ATOM     45 1HH2 ARG D   7      20.097-125.388 163.657  1.00 23.42 LIG 0.17  HD
ATOM     46 2HH1 ARG D   7      19.914-123.605 160.891  1.00 23.45 LIG 0.17  HD
ATOM     47 1HH1 ARG D   7      19.175-122.447 161.467  1.00 23.45 LIG 0.17  HD
ATOM     48 HE   ARG D   7      18.981-123.645 164.551  1.00 19.93 LIG 0.18  HD
ENDBRANCH 39 40
ENDBRANCH 38 39
ENDBRANCH 37 38
ENDBRANCH 35 37
ENDBRANCH 32 35
ENDBRANCH 1 31
TORSDOF 20
ENDMDL
MODEL 17
USER: ADFR SOLUTION from run 43
USER: SCORE 18.150067 LL:  -1.196 LR: -17.482 RR:   0.000 FEB: -11.516
USER: RMSD 5.247260
USER: SEED 42
USER: STATUS no improvement in best in 3 clusters for 5 generations
USER: GENES 22
USER: genes 0 Translation |==|  0.47332 0.27292 0.50141
USER: genes 1 Rotation |==|  0.57780 0.59189 0.53091 0.98430
USER: genes 2 Torsion [N]-CA--C-[N] |==|  0.41867
USER: genes 3 Torsion [C]-N--CA-[CB] |==|  0.81627
USER: genes 4 Torsion [N]-CA--CB-[CG] |==|  0.65340
USER: genes 5 Torsion [CA]-CB--CG-[CD1] |==|  0.14642
USER: genes 6 Torsion [N]-CA--C-[N] |==|  0.27982
USER: genes 7 Torsion [C]-N--CA-[CB] |==|  0.49049
USER: genes 8 Torsion [N]-CA--C-[O] |==|  0.12835
USER: genes 9 Torsion [N]-CA--CB-[CG] |==|  0.04785
USER: genes 10 Torsion [CA]-CB--CG-[OD2] |==|  0.77729
USER: genes 11 Torsion [C]-CA--CB-[CG] |==|  0.09820
USER: genes 12 Torsion [CA]-CB--CG-[CD] |==|  0.25774
USER: genes 13 Torsion [CB]-CG--CD-[CE] |==|  0.02441
USER: genes 14 Torsion [CG]-CD--CE-[NZ] |==|  0.65813
USER: genes 15 Torsion [CD]-CE--NZ-[HZ2] |==|  0.62716
USER: genes 16 Torsion [C]-CA--N-[C] |==|  0.81502
USER: genes 17 Torsion [N]-C--CA-[N] |==|  0.40618
USER: genes 18 Torsion [C]-CA--CB-[CG] |==|  0.30567
USER: genes 19 Torsion [CA]-CB--CG-[CD] |==|  0.84650
USER: genes 20 Torsion [CB]-CG--CD-[NE] |==|  0.49500
USER: genes 21 Torsion [CG]-CD--NE-[CZ] |==|  0.73639
ROOT
ATOM      1  CA  LYS D   8      19.344-122.994 162.548  1.00 12.19 LIG 0.18  C 
ENDROOT
BRANCH 1 2
ATOM      2  C   LYS D   8      18.320-122.180 161.758  1.00 13.86 LIG 0.24  C 
ATOM      3 O    LYS D   8      18.007-121.045 162.122  1.00 13.19 LIG-0.27  OA
ATOM      4  N   LEU D   9      17.780-122.750 160.685  1.00 13.79 LIG-0.35  N 
ATOM      5 H    LEU D   9      17.967-123.542 160.407  1.00 13.79 LIG 0.16  HD
BRANCH 4 6
ATOM      6  CA  LEU D   9      16.797-122.033 159.884  1.00 13.45 LIG 0.18  C 
BRANCH 6 7
ATOM      7  CB  LEU D   9      15.518-121.803 160.689  1.00 15.24 LIG 0.04  C 
BRANCH 7 8
ATOM      8  CG  LEU D   9      14.227-122.319 160.053  1.00 15.65 LIG-0.02  C 
ATOM      9  CD1 LEU D   9      14.365-123.779 159.665  1.00 23.17 LIG 0.01  C 
ATOM     10  CD2 LEU D   9      13.081-122.144 161.028  1.00 23.01 LIG 0.01  C 
ENDBRANCH 7 8
ENDBRANCH 6 7
BRANCH 6 11
ATOM     11  C   LEU D   9      17.327-120.708 159.329  1.00 13.91 LIG 0.24  C 
ATOM     12  N   ASP D  10      17.717-120.706 158.057  1.00 15.10 LIG-0.34  N 
ATOM     13 H    ASP D  10      17.651-121.385 157.535  1.00 15.10 LIG 0.16  HD
ATOM     14 O    LEU D   9      17.366-119.705 160.043  1.00 14.13 LIG-0.27  OA
BRANCH 12 15
ATOM     15  CA  ASP D  10      18.302-119.520 157.429  1.00 14.88 LIG 0.20  C 
BRANCH 15 16
ATOM     16  C   ASP D  10      17.350-118.329 157.415  1.00 18.09 LIG 0.20  C 
ATOM     17 O    ASP D  10      16.724-118.028 158.433  1.00 15.20 LIG-0.65  OA
ATOM     18 OXT  ASP D  10      17.196-117.637 156.405  1.00 15.71 LIG-0.65  OA
ENDBRANCH 15 16
BRANCH 15 19
ATOM     19  CB  ASP D  10      18.735-119.824 155.993  1.00 14.49 LIG 0.15  C 
BRANCH 19 20
ATOM     20  CG  ASP D  10      18.098-121.086 155.442  1.00 20.14 LIG 0.17  C 
ATOM     21 OD2  ASP D  10      18.599-122.180 155.770  1.00 22.62 LIG-0.65  OA
ATOM     22 OD1  ASP D  10      17.099-120.986 154.698  1.00 23.52 LIG-0.65  OA
ENDBRANCH 19 20
ENDBRANCH 15 19
ENDBRANCH 12 15
ENDBRANCH 6 11
ENDBRANCH 4 6
ENDBRANCH 1 2
BRANCH 1 23
ATOM     23  CB  LYS D   8      18.610-123.878 163.561  1.00 14.93 LIG 0.04  C 
BRANCH 23 24
ATOM     24  CG  LYS D   8      17.280-124.412 163.072  1.00 16.49 LIG 0.00  C 
BRANCH 24 25
ATOM     25  CD  LYS D   8      17.458-125.770 162.438  1.00 20.48 LIG 0.03  C 
BRANCH 25 26
ATOM     26  CE  LYS D   8      18.855-126.311 162.655  1.00 18.72 LIG 0.23  C 
BRANCH 26 27
ATOM     27  NZ  LYS D   8      19.488-126.611 161.344  1.00 16.35 LIG-0.08  N 
ATOM     28 HZ2  LYS D   8      19.879-127.410 161.380  1.00 16.35 LIG 0.27  HD
ATOM     29 HZ3  LYS D   8      18.866-126.613 160.707  1.00 16.35 LIG 0.27  HD
ATOM     30 HZ1  LYS D   8      20.099-125.990 161.160  1.00 16.35 LIG 0.27  HD
ENDBRANCH 26 27
ENDBRANCH 25 26
ENDBRANCH 24 25
ENDBRANCH 23 24
ENDBRANCH 1 23
BRANCH 1 31
ATOM     31  N   LYS D   8      20.341-122.164 163.223  1.00 12.29 LIG-0.35  N 
ATOM     32  C   ARG D   7      21.236-121.441 162.550  1.00 12.18 LIG 0.26  C 
ATOM     33 O    ARG D   7      21.314-121.445 161.328  1.00 12.68 LIG-0.27  OA
ATOM     34 H    LYS D   8      20.294-122.187 164.082  1.00 12.29 LIG 0.16  HD
BRANCH 32 35
ATOM     35  CA  ARG D   7      22.188-120.580 163.377  1.00 18.47 LIG 0.40  C 
ATOM     36  N   ARG D   7      23.501-120.496 162.741  1.00 16.79 LIG 0.61  N 
BRANCH 35 37
ATOM     37  CB  ARG D   7      21.599-119.177 163.541  1.00 18.75 LIG 0.05  C 
BRANCH 37 38
ATOM     38  CG  ARG D   7      21.132-118.847 164.954  1.00 15.67 LIG 0.02  C 
BRANCH 38 39
ATOM     39  CD  ARG D   7      20.129-119.877 165.464  1.00 21.79 LIG 0.14  C 
BRANCH 39 40
ATOM     40  NE  ARG D   7      19.696-119.607 166.836  1.00 19.93 LIG-0.23  N 
ATOM     41  CZ  ARG D   7      20.241-120.158 167.919  1.00 19.53 LIG 0.67  C 
ATOM     42  NH2 ARG D   7      19.771-119.849 169.115  1.00 23.42 LIG-0.23  N 
ATOM     43  NH1 ARG D   7      21.251-121.011 167.809  1.00 23.45 LIG-0.23  N 
ATOM     44 2HH2 ARG D   7      20.120-120.202 169.818  1.00 23.42 LIG 0.17  HD
ATOM     45 1HH2 ARG D   7      19.117-119.297 169.191  1.00 23.42 LIG 0.17  HD
ATOM     46 2HH1 ARG D   7      21.597-121.360 168.515  1.00 23.45 LIG 0.17  HD
ATOM     47 1HH1 ARG D   7      21.560-121.214 167.033  1.00 23.45 LIG 0.17  HD
ATOM     48 HE   ARG D   7      19.046-119.056 166.950  1.00 19.93 LIG 0.18  HD
ENDBRANCH 39 40
ENDBRANCH 38 39
ENDBRANCH 37 38
ENDBRANCH 35 37
ENDBRANCH 32 35
ENDBRANCH 1 31
TORSDOF 20
ENDMDL
MODEL 18
USER: ADFR SOLUTION from run 133
USER: SCORE 17.272050 LL:  -1.334 LR: -17.408 RR:   0.000 FEB: -11.442
USER: RMSD 4.379785
USER: SEED 132
USER: STATUS no improvement in best in 8 clusters for 5 generations
USER: GENES 22
USER: genes 0 Translation |==|  0.38706 0.29679 0.43856
USER: genes 1 Rotation |==|  0.54454 0.59082 0.38085 0.97494
USER: genes 2 Torsion [N]-CA--C-[N] |==|  0.91153
USER: genes 3 Torsion [C]-N--CA-[CB] |==|  0.49273
USER: genes 4 Torsion [N]-CA--CB-[CG] |==|  0.60192
USER: genes 5 Torsion [CA]-CB--CG-[CD1] |==|  0.41472
USER: genes 6 Torsion [N]-CA--C-[N] |==|  0.94194
USER: genes 7 Torsion [C]-N--CA-[CB] |==|  0.46463
USER: genes 8 Torsion [N]-CA--C-[O] |==|  0.72577
USER: genes 9 Torsion [N]-CA--CB-[CG] |==|  0.68804
USER: genes 10 Torsion [CA]-CB--CG-[OD2] |==|  0.31254
USER: genes 11 Torsion [C]-CA--CB-[CG] |==|  0.43584
USER: genes 12 Torsion [CA]-CB--CG-[CD] |==|  0.91904
USER: genes 13 Torsion [CB]-CG--CD-[CE] |==|  0.36384
USER: genes 14 Torsion [CG]-CD--CE-[NZ] |==|  0.84206
USER: genes 15 Torsion [CD]-CE--NZ-[HZ2] |==|  0.45119
USER: genes 16 Torsion [C]-CA--N-[C] |==|  0.84913
USER: genes 17 Torsion [N]-C--CA-[N] |==|  0.43160
USER: genes 18 Torsion [C]-CA--CB-[CG] |==|  0.26308
USER: genes 19 Torsion [CA]-CB--CG-[CD] |==|  0.26685
USER: genes 20 Torsion [CB]-CG--CD-[NE] |==|  0.70425
USER: genes 21 Torsion [CG]-CD--NE-[CZ] |==|  0.31432
ROOT
ATOM      1  CA  LYS D   8      18.115-122.546 161.087  1.00 12.19 LIG 0.18  C 
ENDROOT
BRANCH 1 2
ATOM      2  C   LYS D   8      17.557-121.484 160.140  1.00 13.86 LIG 0.24  C 
ATOM      3 O    LYS D   8      16.757-121.792 159.255  1.00 13.19 LIG-0.27  OA
ATOM      4  N   LEU D   9      17.980-120.234 160.304  1.00 13.79 LIG-0.35  N 
ATOM      5 H    LEU D   9      18.544-119.984 160.903  1.00 13.79 LIG 0.16  HD
BRANCH 4 6
ATOM      6  CA  LEU D   9      17.491-119.170 159.439  1.00 13.45 LIG 0.18  C 
BRANCH 6 7
ATOM      7  CB  LEU D   9      18.075-117.823 159.869  1.00 15.24 LIG 0.04  C 
BRANCH 7 8
ATOM      8  CG  LEU D   9      17.139-116.621 159.745  1.00 15.65 LIG-0.02  C 
ATOM      9  CD1 LEU D   9      17.454-115.583 160.807  1.00 23.17 LIG 0.01  C 
ATOM     10  CD2 LEU D   9      17.279-116.014 158.364  1.00 23.01 LIG 0.01  C 
ENDBRANCH 7 8
ENDBRANCH 6 7
BRANCH 6 11
ATOM     11  C   LEU D   9      17.771-119.426 157.955  1.00 13.91 LIG 0.24  C 
ATOM     12  N   ASP D  10      18.743-120.288 157.670  1.00 15.10 LIG-0.34  N 
ATOM     13 H    ASP D  10      19.185-120.725 158.264  1.00 15.10 LIG 0.16  HD
ATOM     14 O    LEU D   9      17.104-118.860 157.089  1.00 14.13 LIG-0.27  OA
BRANCH 12 15
ATOM     15  CA  ASP D  10      19.150-120.568 156.292  1.00 14.88 LIG 0.20  C 
BRANCH 15 16
ATOM     16  C   ASP D  10      18.103-121.361 155.518  1.00 18.09 LIG 0.20  C 
ATOM     17 O    ASP D  10      18.224-122.581 155.390  1.00 15.20 LIG-0.65  OA
ATOM     18 OXT  ASP D  10      17.114-120.814 155.023  1.00 15.71 LIG-0.65  OA
ENDBRANCH 15 16
BRANCH 15 19
ATOM     19  CB  ASP D  10      20.473-121.337 156.263  1.00 14.49 LIG 0.15  C 
BRANCH 19 20
ATOM     20  CG  ASP D  10      21.614-120.522 155.685  1.00 20.14 LIG 0.17  C 
ATOM     21 OD2  ASP D  10      22.537-120.187 156.454  1.00 22.62 LIG-0.65  OA
ATOM     22 OD1  ASP D  10      21.596-120.228 154.471  1.00 23.52 LIG-0.65  OA
ENDBRANCH 19 20
ENDBRANCH 15 19
ENDBRANCH 12 15
ENDBRANCH 6 11
ENDBRANCH 4 6
ENDBRANCH 1 2
BRANCH 1 23
ATOM     23  CB  LYS D   8      17.189-122.674 162.300  1.00 14.93 LIG 0.04  C 
BRANCH 23 24
ATOM     24  CG  LYS D   8      17.284-124.005 163.018  1.00 16.49 LIG 0.00  C 
BRANCH 24 25
ATOM     25  CD  LYS D   8      17.675-125.098 162.053  1.00 20.48 LIG 0.03  C 
BRANCH 25 26
ATOM     26  CE  LYS D   8      18.818-125.934 162.587  1.00 18.72 LIG 0.23  C 
BRANCH 26 27
ATOM     27  NZ  LYS D   8      19.983-125.062 162.890  1.00 16.35 LIG-0.08  N 
ATOM     28 HZ2  LYS D   8      20.545-125.494 163.428  1.00 16.35 LIG 0.27  HD
ATOM     29 HZ3  LYS D   8      20.400-124.850 162.133  1.00 16.35 LIG 0.27  HD
ATOM     30 HZ1  LYS D   8      19.701-124.319 163.291  1.00 16.35 LIG 0.27  HD
ENDBRANCH 26 27
ENDBRANCH 25 26
ENDBRANCH 24 25
ENDBRANCH 23 24
ENDBRANCH 1 23
BRANCH 1 31
ATOM     31  N   LYS D   8      19.484-122.271 161.518  1.00 12.29 LIG-0.35  N 
ATOM     32  C   ARG D   7      20.472-122.057 160.648  1.00 12.18 LIG 0.26  C 
ATOM     33 O    ARG D   7      20.317-122.112 159.435  1.00 12.68 LIG-0.27  OA
ATOM     34 H    LYS D   8      19.589-122.260 162.372  1.00 12.29 LIG 0.16  HD
BRANCH 32 35
ATOM     35  CA  ARG D   7      21.845-121.732 161.232  1.00 18.47 LIG 0.40  C 
ATOM     36  N   ARG D   7      22.909-122.086 160.294  1.00 16.79 LIG 0.61  N 
BRANCH 35 37
ATOM     37  CB  ARG D   7      21.921-120.240 161.565  1.00 18.75 LIG 0.05  C 
BRANCH 37 38
ATOM     38  CG  ARG D   7      21.580-119.895 163.009  1.00 15.67 LIG 0.02  C 
BRANCH 38 39
ATOM     39  CD  ARG D   7      22.837-119.772 163.865  1.00 21.79 LIG 0.14  C 
BRANCH 39 40
ATOM     40  NE  ARG D   7      23.013-120.907 164.771  1.00 19.93 LIG-0.23  N 
ATOM     41  CZ  ARG D   7      23.999-121.798 164.677  1.00 19.53 LIG 0.67  C 
ATOM     42  NH2 ARG D   7      24.065-122.792 165.546  1.00 23.42 LIG-0.23  N 
ATOM     43  NH1 ARG D   7      24.914-121.697 163.723  1.00 23.45 LIG-0.23  N 
ATOM     44 2HH2 ARG D   7      24.700-123.370 165.490  1.00 23.42 LIG 0.17  HD
ATOM     45 1HH2 ARG D   7      23.474-122.861 166.166  1.00 23.42 LIG 0.17  HD
ATOM     46 2HH1 ARG D   7      25.547-122.277 163.672  1.00 23.45 LIG 0.17  HD
ATOM     47 1HH1 ARG D   7      24.875-121.051 163.156  1.00 23.45 LIG 0.17  HD
ATOM     48 HE   ARG D   7      22.442-121.006 165.406  1.00 19.93 LIG 0.18  HD
ENDBRANCH 39 40
ENDBRANCH 38 39
ENDBRANCH 37 38
ENDBRANCH 35 37
ENDBRANCH 32 35
ENDBRANCH 1 31
TORSDOF 20
ENDMDL
MODEL 19
USER: ADFR SOLUTION from run 113
USER: SCORE 18.062341 LL:  -1.040 LR: -17.381 RR:   0.000 FEB: -11.415
USER: RMSD 5.215498
USER: SEED 112
USER: STATUS no improvement in best in 9 clusters for 5 generations
USER: GENES 22
USER: genes 0 Translation |==|  0.47105 0.25993 0.50283
USER: genes 1 Rotation |==|  0.52844 0.27686 0.46140 0.94487
USER: genes 2 Torsion [N]-CA--C-[N] |==|  0.01962
USER: genes 3 Torsion [C]-N--CA-[CB] |==|  0.83777
USER: genes 4 Torsion [N]-CA--CB-[CG] |==|  0.74202
USER: genes 5 Torsion [CA]-CB--CG-[CD1] |==|  0.74547
USER: genes 6 Torsion [N]-CA--C-[N] |==|  0.93759
USER: genes 7 Torsion [C]-N--CA-[CB] |==|  0.26541
USER: genes 8 Torsion [N]-CA--C-[O] |==|  0.74845
USER: genes 9 Torsion [N]-CA--CB-[CG] |==|  0.48681
USER: genes 10 Torsion [CA]-CB--CG-[OD2] |==|  0.04211
USER: genes 11 Torsion [C]-CA--CB-[CG] |==|  0.46088
USER: genes 12 Torsion [CA]-CB--CG-[CD] |==|  0.74724
USER: genes 13 Torsion [CB]-CG--CD-[CE] |==|  0.17591
USER: genes 14 Torsion [CG]-CD--CE-[NZ] |==|  0.71879
USER: genes 15 Torsion [CD]-CE--NZ-[HZ2] |==|  0.16905
USER: genes 16 Torsion [C]-CA--N-[C] |==|  0.19424
USER: genes 17 Torsion [N]-C--CA-[N] |==|  0.93989
USER: genes 18 Torsion [C]-CA--CB-[CG] |==|  0.86297
USER: genes 19 Torsion [CA]-CB--CG-[CD] |==|  0.65576
USER: genes 20 Torsion [CB]-CG--CD-[NE] |==|  0.02072
USER: genes 21 Torsion [CG]-CD--NE-[CZ] |==|  0.28680
ROOT
ATOM      1  CA  LYS D   8      19.311-123.237 162.581  1.00 12.19 LIG 0.18  C 
ENDROOT
BRANCH 1 2
ATOM      2  C   LYS D   8      20.096-122.529 161.478  1.00 13.86 LIG 0.24  C 
ATOM      3 O    LYS D   8      20.101-122.973 160.328  1.00 13.19 LIG-0.27  OA
ATOM      4  N   LEU D   9      20.774-121.435 161.813  1.00 13.79 LIG-0.35  N 
ATOM      5 H    LEU D   9      20.801-121.101 162.605  1.00 13.79 LIG 0.16  HD
BRANCH 4 6
ATOM      6  CA  LEU D   9      21.544-120.708 160.814  1.00 13.45 LIG 0.18  C 
BRANCH 6 7
ATOM      7  CB  LEU D   9      22.593-121.621 160.179  1.00 15.24 LIG 0.04  C 
BRANCH 7 8
ATOM      8  CG  LEU D   9      23.977-121.599 160.829  1.00 15.65 LIG-0.02  C 
ATOM      9  CD1 LEU D   9      24.867-120.567 160.162  1.00 23.17 LIG 0.01  C 
ATOM     10  CD2 LEU D   9      23.834-121.289 162.305  1.00 23.01 LIG 0.01  C 
ENDBRANCH 7 8
ENDBRANCH 6 7
BRANCH 6 11
ATOM     11  C   LEU D   9      20.669-120.065 159.734  1.00 13.91 LIG 0.24  C 
ATOM     12  N   ASP D  10      19.461-120.591 159.551  1.00 15.10 LIG-0.34  N 
ATOM     13 H    ASP D  10      19.143-121.234 160.024  1.00 15.10 LIG 0.16  HD
ATOM     14 O    LEU D   9      21.082-119.100 159.090  1.00 14.13 LIG-0.27  OA
BRANCH 12 15
ATOM     15  CA  ASP D  10      18.557-120.109 158.506  1.00 14.88 LIG 0.20  C 
BRANCH 15 16
ATOM     16  C   ASP D  10      17.099-120.090 158.951  1.00 18.09 LIG 0.20  C 
ATOM     17 O    ASP D  10      16.385-121.077 158.766  1.00 15.20 LIG-0.65  OA
ATOM     18 OXT  ASP D  10      16.608-119.108 159.515  1.00 15.71 LIG-0.65  OA
ENDBRANCH 15 16
BRANCH 15 19
ATOM     19  CB  ASP D  10      18.677-120.968 157.245  1.00 14.49 LIG 0.15  C 
BRANCH 19 20
ATOM     20  CG  ASP D  10      17.678-120.580 156.172  1.00 20.14 LIG 0.17  C 
ATOM     21 OD2  ASP D  10      17.099-119.481 156.286  1.00 22.62 LIG-0.65  OA
ATOM     22 OD1  ASP D  10      17.480-121.361 155.216  1.00 23.52 LIG-0.65  OA
ENDBRANCH 19 20
ENDBRANCH 15 19
ENDBRANCH 12 15
ENDBRANCH 6 11
ENDBRANCH 4 6
ENDBRANCH 1 2
BRANCH 1 23
ATOM     23  CB  LYS D   8      17.882-123.496 162.095  1.00 14.93 LIG 0.04  C 
BRANCH 23 24
ATOM     24  CG  LYS D   8      17.104-124.478 162.946  1.00 16.49 LIG 0.00  C 
BRANCH 24 25
ATOM     25  CD  LYS D   8      17.279-125.883 162.424  1.00 20.48 LIG 0.03  C 
BRANCH 25 26
ATOM     26  CE  LYS D   8      18.720-126.337 162.513  1.00 18.72 LIG 0.23  C 
BRANCH 26 27
ATOM     27  NZ  LYS D   8      19.365-126.233 161.178  1.00 16.35 LIG-0.08  N 
ATOM     28 HZ2  LYS D   8      19.351-125.385 160.907  1.00 16.35 LIG 0.27  HD
ATOM     29 HZ3  LYS D   8      20.208-126.513 161.232  1.00 16.35 LIG 0.27  HD
ATOM     30 HZ1  LYS D   8      18.922-126.738 160.594  1.00 16.35 LIG 0.27  HD
ENDBRANCH 26 27
ENDBRANCH 25 26
ENDBRANCH 24 25
ENDBRANCH 23 24
ENDBRANCH 1 23
BRANCH 1 31
ATOM     31  N   LYS D   8      19.295-122.497 163.842  1.00 12.29 LIG-0.35  N 
ATOM     32  C   ARG D   7      18.618-121.357 163.986  1.00 12.18 LIG 0.26  C 
ATOM     33 O    ARG D   7      17.996-120.830 163.073  1.00 12.68 LIG-0.27  OA
ATOM     34 H    LYS D   8      19.756-122.861 164.470  1.00 12.29 LIG 0.16  HD
BRANCH 32 35
ATOM     35  CA  ARG D   7      18.644-120.711 165.370  1.00 18.47 LIG 0.40  C 
ATOM     36  N   ARG D   7      18.974-121.696 166.398  1.00 16.79 LIG 0.61  N 
BRANCH 35 37
ATOM     37  CB  ARG D   7      19.670-119.577 165.388  1.00 18.75 LIG 0.05  C 
BRANCH 37 38
ATOM     38  CG  ARG D   7      21.038-119.951 164.833  1.00 15.67 LIG 0.02  C 
BRANCH 38 39
ATOM     39  CD  ARG D   7      22.145-119.683 165.849  1.00 21.79 LIG 0.14  C 
BRANCH 39 40
ATOM     40  NE  ARG D   7      21.622-119.301 167.161  1.00 19.93 LIG-0.23  N 
ATOM     41  CZ  ARG D   7      21.569-120.113 168.215  1.00 19.53 LIG 0.67  C 
ATOM     42  NH2 ARG D   7      21.072-119.669 169.357  1.00 23.42 LIG-0.23  N 
ATOM     43  NH1 ARG D   7      22.010-121.361 168.131  1.00 23.45 LIG-0.23  N 
ATOM     44 2HH2 ARG D   7      21.036-120.190 170.041  1.00 23.42 LIG 0.17  HD
ATOM     45 1HH2 ARG D   7      20.786-118.861 169.416  1.00 23.42 LIG 0.17  HD
ATOM     46 2HH1 ARG D   7      21.972-121.877 168.818  1.00 23.45 LIG 0.17  HD
ATOM     47 1HH1 ARG D   7      22.335-121.653 167.390  1.00 23.45 LIG 0.17  HD
ATOM     48 HE   ARG D   7      21.329-118.498 167.258  1.00 19.93 LIG 0.18  HD
ENDBRANCH 39 40
ENDBRANCH 38 39
ENDBRANCH 37 38
ENDBRANCH 35 37
ENDBRANCH 32 35
ENDBRANCH 1 31
TORSDOF 20
ENDMDL
MODEL 20
USER: ADFR SOLUTION from run 131
USER: SCORE 16.765336 LL:  -1.258 LR: -17.284 RR:   0.000 FEB: -11.318
USER: RMSD 4.630404
USER: SEED 130
USER: STATUS no improvement in best in 2 clusters for 5 generations
USER: GENES 22
USER: genes 0 Translation |==|  0.34666 0.23839 0.43297
USER: genes 1 Rotation |==|  0.63288 0.52364 0.48337 0.98115
USER: genes 2 Torsion [N]-CA--C-[N] |==|  0.08899
USER: genes 3 Torsion [C]-N--CA-[CB] |==|  0.39370
USER: genes 4 Torsion [N]-CA--CB-[CG] |==|  0.93845
USER: genes 5 Torsion [CA]-CB--CG-[CD1] |==|  0.31561
USER: genes 6 Torsion [N]-CA--C-[N] |==|  0.80615
USER: genes 7 Torsion [C]-N--CA-[CB] |==|  0.24245
USER: genes 8 Torsion [N]-CA--C-[O] |==|  0.49921
USER: genes 9 Torsion [N]-CA--CB-[CG] |==|  0.98376
USER: genes 10 Torsion [CA]-CB--CG-[OD2] |==|  0.26050
USER: genes 11 Torsion [C]-CA--CB-[CG] |==|  0.47043
USER: genes 12 Torsion [CA]-CB--CG-[CD] |==|  0.95701
USER: genes 13 Torsion [CB]-CG--CD-[CE] |==|  0.36441
USER: genes 14 Torsion [CG]-CD--CE-[NZ] |==|  0.73537
USER: genes 15 Torsion [CD]-CE--NZ-[HZ2] |==|  0.83444
USER: genes 16 Torsion [C]-CA--N-[C] |==|  0.16283
USER: genes 17 Torsion [N]-C--CA-[N] |==|  0.17925
USER: genes 18 Torsion [C]-CA--CB-[CG] |==|  0.74006
USER: genes 19 Torsion [CA]-CB--CG-[CD] |==|  0.68451
USER: genes 20 Torsion [CB]-CG--CD-[NE] |==|  0.07338
USER: genes 21 Torsion [CG]-CD--NE-[CZ] |==|  0.65341
ROOT
ATOM      1  CA  LYS D   8      17.539-123.641 160.956  1.00 12.19 LIG 0.18  C 
ENDROOT
BRANCH 1 2
ATOM      2  C   LYS D   8      16.961-122.453 160.189  1.00 13.86 LIG 0.24  C 
ATOM      3 O    LYS D   8      15.808-122.490 159.754  1.00 13.19 LIG-0.27  OA
ATOM      4  N   LEU D   9      17.751-121.400 160.003  1.00 13.79 LIG-0.35  N 
ATOM      5 H    LEU D   9      18.562-121.343 160.284  1.00 13.79 LIG 0.16  HD
BRANCH 4 6
ATOM      6  CA  LEU D   9      17.267-120.232 159.281  1.00 13.45 LIG 0.18  C 
BRANCH 6 7
ATOM      7  CB  LEU D   9      17.798-118.950 159.924  1.00 15.24 LIG 0.04  C 
BRANCH 7 8
ATOM      8  CG  LEU D   9      18.228-119.067 161.386  1.00 15.65 LIG-0.02  C 
ATOM      9  CD1 LEU D   9      19.726-118.866 161.523  1.00 23.17 LIG 0.01  C 
ATOM     10  CD2 LEU D   9      17.486-118.036 162.213  1.00 23.01 LIG 0.01  C 
ENDBRANCH 7 8
ENDBRANCH 6 7
BRANCH 6 11
ATOM     11  C   LEU D   9      17.610-120.265 157.789  1.00 13.91 LIG 0.24  C 
ATOM     12  N   ASP D  10      18.890-120.113 157.465  1.00 15.10 LIG-0.34  N 
ATOM     13 H    ASP D  10      19.523-120.037 158.042  1.00 15.10 LIG 0.16  HD
ATOM     14 O    LEU D   9      16.724-120.439 156.950  1.00 14.13 LIG-0.27  OA
BRANCH 12 15
ATOM     15  CA  ASP D  10      19.336-120.060 156.072  1.00 14.88 LIG 0.20  C 
BRANCH 15 16
ATOM     16  C   ASP D  10      20.754-120.589 155.887  1.00 18.09 LIG 0.20  C 
ATOM     17 O    ASP D  10      21.262-120.611 154.764  1.00 15.20 LIG-0.65  OA
ATOM     18 OXT  ASP D  10      21.426-120.986 156.842  1.00 15.71 LIG-0.65  OA
ENDBRANCH 15 16
BRANCH 15 19
ATOM     19  CB  ASP D  10      19.269-118.628 155.534  1.00 14.49 LIG 0.15  C 
BRANCH 19 20
ATOM     20  CG  ASP D  10      18.633-117.662 156.514  1.00 20.14 LIG 0.17  C 
ATOM     21 OD2  ASP D  10      19.388-117.027 157.278  1.00 22.62 LIG-0.65  OA
ATOM     22 OD1  ASP D  10      17.391-117.528 156.515  1.00 23.52 LIG-0.65  OA
ENDBRANCH 19 20
ENDBRANCH 15 19
ENDBRANCH 12 15
ENDBRANCH 6 11
ENDBRANCH 4 6
ENDBRANCH 1 2
BRANCH 1 23
ATOM     23  CB  LYS D   8      16.393-124.436 161.591  1.00 14.93 LIG 0.04  C 
BRANCH 23 24
ATOM     24  CG  LYS D   8      16.808-125.775 162.165  1.00 16.49 LIG 0.00  C 
BRANCH 24 25
ATOM     25  CD  LYS D   8      18.168-126.173 161.645  1.00 20.48 LIG 0.03  C 
BRANCH 25 26
ATOM     26  CE  LYS D   8      19.089-126.611 162.764  1.00 18.72 LIG 0.23  C 
BRANCH 26 27
ATOM     27  NZ  LYS D   8      19.930-125.467 163.202  1.00 16.35 LIG-0.08  N 
ATOM     28 HZ2  LYS D   8      20.414-125.173 162.515  1.00 16.35 LIG 0.27  HD
ATOM     29 HZ3  LYS D   8      19.408-124.810 163.499  1.00 16.35 LIG 0.27  HD
ATOM     30 HZ1  LYS D   8      20.474-125.731 163.856  1.00 16.35 LIG 0.27  HD
ENDBRANCH 26 27
ENDBRANCH 25 26
ENDBRANCH 24 25
ENDBRANCH 23 24
ENDBRANCH 1 23
BRANCH 1 31
ATOM     31  N   LYS D   8      18.512-123.250 161.975  1.00 12.29 LIG-0.35  N 
ATOM     32  C   ARG D   7      18.201-122.421 162.972  1.00 12.18 LIG 0.26  C 
ATOM     33 O    ARG D   7      17.099-121.902 163.089  1.00 12.68 LIG-0.27  OA
ATOM     34 H    LYS D   8      19.292-123.599 161.871  1.00 12.29 LIG 0.16  HD
BRANCH 32 35
ATOM     35  CA  ARG D   7      19.297-122.134 163.996  1.00 18.47 LIG 0.40  C 
ATOM     36  N   ARG D   7      20.419-121.431 163.375  1.00 16.79 LIG 0.61  N 
BRANCH 35 37
ATOM     37  CB  ARG D   7      18.725-121.292 165.139  1.00 18.75 LIG 0.05  C 
BRANCH 37 38
ATOM     38  CG  ARG D   7      18.901-119.789 164.968  1.00 15.67 LIG 0.02  C 
BRANCH 38 39
ATOM     39  CD  ARG D   7      19.845-119.214 166.020  1.00 21.79 LIG 0.14  C 
BRANCH 39 40
ATOM     40  NE  ARG D   7      20.804-120.203 166.514  1.00 19.93 LIG-0.23  N 
ATOM     41  CZ  ARG D   7      20.966-120.516 167.798  1.00 19.53 LIG 0.67  C 
ATOM     42  NH2 ARG D   7      21.865-121.423 168.140  1.00 23.42 LIG-0.23  N 
ATOM     43  NH1 ARG D   7      20.234-119.930 168.736  1.00 23.45 LIG-0.23  N 
ATOM     44 2HH2 ARG D   7      21.974-121.629 168.968  1.00 23.42 LIG 0.17  HD
ATOM     45 1HH2 ARG D   7      22.341-121.805 167.535  1.00 23.42 LIG 0.17  HD
ATOM     46 2HH1 ARG D   7      20.347-120.139 169.562  1.00 23.45 LIG 0.17  HD
ATOM     47 1HH1 ARG D   7      19.648-119.340 168.517  1.00 23.45 LIG 0.17  HD
ATOM     48 HE   ARG D   7      21.295-120.609 165.936  1.00 19.93 LIG 0.18  HD
ENDBRANCH 39 40
ENDBRANCH 38 39
ENDBRANCH 37 38
ENDBRANCH 35 37
ENDBRANCH 32 35
ENDBRANCH 1 31
TORSDOF 20
ENDMDL
MODEL 21
USER: ADFR SOLUTION from run 150
USER: SCORE 17.345821 LL:  -1.859 LR: -17.230 RR:   0.000 FEB: -11.264
USER: RMSD 3.495652
USER: SEED 149
USER: STATUS no improvement in best in 10 clusters for 5 generations
USER: GENES 22
USER: genes 0 Translation |==|  0.39980 0.43053 0.46013
USER: genes 1 Rotation |==|  0.43196 0.64627 0.23855 0.89449
USER: genes 2 Torsion [N]-CA--C-[N] |==|  0.85959
USER: genes 3 Torsion [C]-N--CA-[CB] |==|  0.47151
USER: genes 4 Torsion [N]-CA--CB-[CG] |==|  0.61143
USER: genes 5 Torsion [CA]-CB--CG-[CD1] |==|  0.73178
USER: genes 6 Torsion [N]-CA--C-[N] |==|  0.95556
USER: genes 7 Torsion [C]-N--CA-[CB] |==|  0.45815
USER: genes 8 Torsion [N]-CA--C-[O] |==|  0.53686
USER: genes 9 Torsion [N]-CA--CB-[CG] |==|  0.72972
USER: genes 10 Torsion [CA]-CB--CG-[OD2] |==|  0.84218
USER: genes 11 Torsion [C]-CA--CB-[CG] |==|  0.30420
USER: genes 12 Torsion [CA]-CB--CG-[CD] |==|  0.24886
USER: genes 13 Torsion [CB]-CG--CD-[CE] |==|  0.80542
USER: genes 14 Torsion [CG]-CD--CE-[NZ] |==|  0.44561
USER: genes 15 Torsion [CD]-CE--NZ-[HZ2] |==|  0.84792
USER: genes 16 Torsion [C]-CA--N-[C] |==|  0.73505
USER: genes 17 Torsion [N]-C--CA-[N] |==|  0.63760
USER: genes 18 Torsion [C]-CA--CB-[CG] |==|  0.27921
USER: genes 19 Torsion [CA]-CB--CG-[CD] |==|  0.74044
USER: genes 20 Torsion [CB]-CG--CD-[NE] |==|  0.39400
USER: genes 21 Torsion [CG]-CD--NE-[CZ] |==|  0.28087
ROOT
ATOM      1  CA  LYS D   8      18.296-120.039 161.588  1.00 12.19 LIG 0.18  C 
ENDROOT
BRANCH 1 2
ATOM      2  C   LYS D   8      17.784-119.194 160.423  1.00 13.86 LIG 0.24  C 
ATOM      3 O    LYS D   8      16.721-119.474 159.866  1.00 13.19 LIG-0.27  OA
ATOM      4  N   LEU D   9      18.532-118.166 160.034  1.00 13.79 LIG-0.35  N 
ATOM      5 H    LEU D   9      19.283-117.946 160.393  1.00 13.79 LIG 0.16  HD
BRANCH 4 6
ATOM      6  CA  LEU D   9      18.106-117.317 158.931  1.00 13.45 LIG 0.18  C 
BRANCH 6 7
ATOM      7  CB  LEU D   9      18.992-116.074 158.842  1.00 15.24 LIG 0.04  C 
BRANCH 7 8
ATOM      8  CG  LEU D   9      18.273-114.764 158.520  1.00 15.65 LIG-0.02  C 
ATOM      9  CD1 LEU D   9      18.352-114.458 157.036  1.00 23.17 LIG 0.01  C 
ATOM     10  CD2 LEU D   9      16.825-114.865 158.955  1.00 23.01 LIG 0.01  C 
ENDBRANCH 7 8
ENDBRANCH 6 7
BRANCH 6 11
ATOM     11  C   LEU D   9      18.075-118.050 157.587  1.00 13.91 LIG 0.24  C 
ATOM     12  N   ASP D  10      18.727-119.208 157.522  1.00 15.10 LIG-0.34  N 
ATOM     13 H    ASP D  10      19.123-119.572 158.192  1.00 15.10 LIG 0.16  HD
ATOM     14 O    LEU D   9      17.457-117.576 156.633  1.00 14.13 LIG-0.27  OA
BRANCH 12 15
ATOM     15  CA  ASP D  10      18.826-119.971 156.277  1.00 14.88 LIG 0.20  C 
BRANCH 15 16
ATOM     16  C   ASP D  10      17.513-120.644 155.891  1.00 18.09 LIG 0.20  C 
ATOM     17 O    ASP D  10      17.499-121.510 155.015  1.00 15.20 LIG-0.65  OA
ATOM     18 OXT  ASP D  10      16.451-120.355 156.449  1.00 15.71 LIG-0.65  OA
ENDBRANCH 15 16
BRANCH 15 19
ATOM     19  CB  ASP D  10      19.916-121.041 156.382  1.00 14.49 LIG 0.15  C 
BRANCH 19 20
ATOM     20  CG  ASP D  10      21.234-120.599 155.776  1.00 20.14 LIG 0.17  C 
ATOM     21 OD2  ASP D  10      21.233-120.243 154.580  1.00 22.62 LIG-0.65  OA
ATOM     22 OD1  ASP D  10      22.259-120.596 156.490  1.00 23.52 LIG-0.65  OA
ENDBRANCH 19 20
ENDBRANCH 15 19
ENDBRANCH 12 15
ENDBRANCH 6 11
ENDBRANCH 4 6
ENDBRANCH 1 2
BRANCH 1 23
ATOM     23  CB  LYS D   8      18.145-119.245 162.890  1.00 14.93 LIG 0.04  C 
BRANCH 23 24
ATOM     24  CG  LYS D   8      17.071-119.773 163.819  1.00 16.49 LIG 0.00  C 
BRANCH 24 25
ATOM     25  CD  LYS D   8      17.647-120.804 164.758  1.00 20.48 LIG 0.03  C 
BRANCH 25 26
ATOM     26  CE  LYS D   8      18.006-122.083 164.033  1.00 18.72 LIG 0.23  C 
BRANCH 26 27
ATOM     27  NZ  LYS D   8      18.973-122.869 164.845  1.00 16.35 LIG-0.08  N 
ATOM     28 HZ2  LYS D   8      19.677-122.361 165.040  1.00 16.35 LIG 0.27  HD
ATOM     29 HZ3  LYS D   8      18.581-123.134 165.599  1.00 16.35 LIG 0.27  HD
ATOM     30 HZ1  LYS D   8      19.239-123.581 164.382  1.00 16.35 LIG 0.27  HD
ENDBRANCH 26 27
ENDBRANCH 25 26
ENDBRANCH 24 25
ENDBRANCH 23 24
ENDBRANCH 1 23
BRANCH 1 31
ATOM     31  N   LYS D   8      19.681-120.476 161.416  1.00 12.29 LIG-0.35  N 
ATOM     32  C   ARG D   7      19.990-121.669 160.908  1.00 12.18 LIG 0.26  C 
ATOM     33 O    ARG D   7      19.147-122.495 160.585  1.00 12.68 LIG-0.27  OA
ATOM     34 H    LYS D   8      20.267-119.899 161.670  1.00 12.29 LIG 0.16  HD
BRANCH 32 35
ATOM     35  CA  ARG D   7      21.475-121.980 160.736  1.00 18.47 LIG 0.40  C 
ATOM     36  N   ARG D   7      21.750-122.483 159.391  1.00 16.79 LIG 0.61  N 
BRANCH 35 37
ATOM     37  CB  ARG D   7      22.298-120.717 160.997  1.00 18.75 LIG 0.05  C 
BRANCH 37 38
ATOM     38  CG  ARG D   7      22.935-120.651 162.380  1.00 15.67 LIG 0.02  C 
BRANCH 38 39
ATOM     39  CD  ARG D   7      22.047-119.902 163.368  1.00 21.79 LIG 0.14  C 
BRANCH 39 40
ATOM     40  NE  ARG D   7      22.066-120.498 164.704  1.00 19.93 LIG-0.23  N 
ATOM     41  CZ  ARG D   7      22.774-120.025 165.729  1.00 19.53 LIG 0.67  C 
ATOM     42  NH2 ARG D   7      22.725-120.643 166.897  1.00 23.42 LIG-0.23  N 
ATOM     43  NH1 ARG D   7      23.525-118.942 165.590  1.00 23.45 LIG-0.23  N 
ATOM     44 2HH2 ARG D   7      23.179-120.342 167.561  1.00 23.42 LIG 0.17  HD
ATOM     45 1HH2 ARG D   7      22.239-121.346 166.991  1.00 23.42 LIG 0.17  HD
ATOM     46 2HH1 ARG D   7      23.978-118.644 166.258  1.00 23.45 LIG 0.17  HD
ATOM     47 1HH1 ARG D   7      23.559-118.536 164.832  1.00 23.45 LIG 0.17  HD
ATOM     48 HE   ARG D   7      21.589-121.201 164.837  1.00 19.93 LIG 0.18  HD
ENDBRANCH 39 40
ENDBRANCH 38 39
ENDBRANCH 37 38
ENDBRANCH 35 37
ENDBRANCH 32 35
ENDBRANCH 1 31
TORSDOF 20
ENDMDL
MODEL 22
USER: ADFR SOLUTION from run 40
USER: SCORE 17.271947 LL:  -1.082 LR: -17.211 RR:   0.000 FEB: -11.245
USER: RMSD 4.930627
USER: SEED 39
USER: STATUS 1 or 2 clusters left
USER: GENES 22
USER: genes 0 Translation |==|  0.46811 0.27064 0.48626
USER: genes 1 Rotation |==|  0.56898 0.29281 0.50363 0.94978
USER: genes 2 Torsion [N]-CA--C-[N] |==|  0.17775
USER: genes 3 Torsion [C]-N--CA-[CB] |==|  0.52778
USER: genes 4 Torsion [N]-CA--CB-[CG] |==|  0.54425
USER: genes 5 Torsion [CA]-CB--CG-[CD1] |==|  0.73121
USER: genes 6 Torsion [N]-CA--C-[N] |==|  0.33031
USER: genes 7 Torsion [C]-N--CA-[CB] |==|  0.43461
USER: genes 8 Torsion [N]-CA--C-[O] |==|  0.03289
USER: genes 9 Torsion [N]-CA--CB-[CG] |==|  0.71318
USER: genes 10 Torsion [CA]-CB--CG-[OD2] |==|  0.81257
USER: genes 11 Torsion [C]-CA--CB-[CG] |==|  0.51744
USER: genes 12 Torsion [CA]-CB--CG-[CD] |==|  0.73611
USER: genes 13 Torsion [CB]-CG--CD-[CE] |==|  0.16206
USER: genes 14 Torsion [CG]-CD--CE-[NZ] |==|  0.68545
USER: genes 15 Torsion [CD]-CE--NZ-[HZ2] |==|  0.00583
USER: genes 16 Torsion [C]-CA--N-[C] |==|  0.15959
USER: genes 17 Torsion [N]-C--CA-[N] |==|  0.97989
USER: genes 18 Torsion [C]-CA--CB-[CG] |==|  0.89129
USER: genes 19 Torsion [CA]-CB--CG-[CD] |==|  0.67830
USER: genes 20 Torsion [CB]-CG--CD-[NE] |==|  0.18285
USER: genes 21 Torsion [CG]-CD--NE-[CZ] |==|  0.68629
ROOT
ATOM      1  CA  LYS D   8      19.270-123.037 162.196  1.00 12.19 LIG 0.18  C 
ENDROOT
BRANCH 1 2
ATOM      2  C   LYS D   8      19.817-122.095 161.124  1.00 13.86 LIG 0.24  C 
ATOM      3 O    LYS D   8      19.127-121.786 160.151  1.00 13.19 LIG-0.27  OA
ATOM      4  N   LEU D   9      21.058-121.644 161.279  1.00 13.79 LIG-0.35  N 
ATOM      5 H    LEU D   9      21.571-121.846 161.940  1.00 13.79 LIG 0.16  HD
BRANCH 4 6
ATOM      6  CA  LEU D   9      21.645-120.743 160.298  1.00 13.45 LIG 0.18  C 
BRANCH 6 7
ATOM      7  CB  LEU D   9      23.141-120.568 160.563  1.00 15.24 LIG 0.04  C 
BRANCH 7 8
ATOM      8  CG  LEU D   9      23.807-119.380 159.867  1.00 15.65 LIG-0.02  C 
ATOM      9  CD1 LEU D   9      24.480-119.820 158.580  1.00 23.17 LIG 0.01  C 
ATOM     10  CD2 LEU D   9      22.764-118.320 159.574  1.00 23.01 LIG 0.01  C 
ENDBRANCH 7 8
ENDBRANCH 6 7
BRANCH 6 11
ATOM     11  C   LEU D   9      21.406-121.192 158.853  1.00 13.91 LIG 0.24  C 
ATOM     12  N   ASP D  10      20.720-120.360 158.075  1.00 15.10 LIG-0.34  N 
ATOM     13 H    ASP D  10      20.445-119.586 158.327  1.00 15.10 LIG 0.16  HD
ATOM     14 O    LEU D   9      21.850-122.269 158.454  1.00 14.13 LIG-0.27  OA
BRANCH 12 15
ATOM     15  CA  ASP D  10      20.369-120.703 156.695  1.00 14.88 LIG 0.20  C 
BRANCH 15 16
ATOM     16  C   ASP D  10      21.515-120.461 155.718  1.00 18.09 LIG 0.20  C 
ATOM     17 O    ASP D  10      22.649-120.234 156.143  1.00 15.20 LIG-0.65  OA
ATOM     18 OXT  ASP D  10      21.342-120.504 154.497  1.00 15.71 LIG-0.65  OA
ENDBRANCH 15 16
BRANCH 15 19
ATOM     19  CB  ASP D  10      19.148-119.905 156.231  1.00 14.49 LIG 0.15  C 
BRANCH 19 20
ATOM     20  CG  ASP D  10      17.876-120.730 156.220  1.00 20.14 LIG 0.17  C 
ATOM     21 OD2  ASP D  10      17.791-121.657 155.390  1.00 22.62 LIG-0.65  OA
ATOM     22 OD1  ASP D  10      16.973-120.463 157.042  1.00 23.52 LIG-0.65  OA
ENDBRANCH 19 20
ENDBRANCH 15 19
ENDBRANCH 12 15
ENDBRANCH 6 11
ENDBRANCH 4 6
ENDBRANCH 1 2
BRANCH 1 23
ATOM     23  CB  LYS D   8      17.912-123.580 161.741  1.00 14.93 LIG 0.04  C 
BRANCH 23 24
ATOM     24  CG  LYS D   8      17.193-124.411 162.785  1.00 16.49 LIG 0.00  C 
BRANCH 24 25
ATOM     25  CD  LYS D   8      17.479-125.878 162.579  1.00 20.48 LIG 0.03  C 
BRANCH 25 26
ATOM     26  CE  LYS D   8      18.962-126.175 162.644  1.00 18.72 LIG 0.23  C 
BRANCH 26 27
ATOM     27  NZ  LYS D   8      19.447-126.612 161.309  1.00 16.35 LIG-0.08  N 
ATOM     28 HZ2  LYS D   8      18.776-126.584 160.725  1.00 16.35 LIG 0.27  HD
ATOM     29 HZ3  LYS D   8      20.099-126.069 161.037  1.00 16.35 LIG 0.27  HD
ATOM     30 HZ1  LYS D   8      19.758-127.444 161.364  1.00 16.35 LIG 0.27  HD
ENDBRANCH 26 27
ENDBRANCH 25 26
ENDBRANCH 24 25
ENDBRANCH 23 24
ENDBRANCH 1 23
BRANCH 1 31
ATOM     31  N   LYS D   8      19.152-122.406 163.510  1.00 12.29 LIG-0.35  N 
ATOM     32  C   ARG D   7      18.424-121.306 163.705  1.00 12.18 LIG 0.26  C 
ATOM     33 O    ARG D   7      17.835-120.726 162.803  1.00 12.68 LIG-0.27  OA
ATOM     34 H    LYS D   8      19.590-122.806 164.133  1.00 12.29 LIG 0.16  HD
BRANCH 32 35
ATOM     35  CA  ARG D   7      18.345-120.779 165.137  1.00 18.47 LIG 0.40  C 
ATOM     36  N   ARG D   7      18.972-121.712 166.071  1.00 16.79 LIG 0.61  N 
BRANCH 35 37
ATOM     37  CB  ARG D   7      19.036-119.416 165.221  1.00 18.75 LIG 0.05  C 
BRANCH 37 38
ATOM     38  CG  ARG D   7      20.311-119.300 164.395  1.00 15.67 LIG 0.02  C 
BRANCH 38 39
ATOM     39  CD  ARG D   7      21.533-119.082 165.282  1.00 21.79 LIG 0.14  C 
BRANCH 39 40
ATOM     40  NE  ARG D   7      21.820-120.236 166.135  1.00 19.93 LIG-0.23  N 
ATOM     41  CZ  ARG D   7      21.711-120.236 167.462  1.00 19.53 LIG 0.67  C 
ATOM     42  NH2 ARG D   7      22.000-121.333 168.141  1.00 23.42 LIG-0.23  N 
ATOM     43  NH1 ARG D   7      21.314-119.148 168.109  1.00 23.45 LIG-0.23  N 
ATOM     44 2HH2 ARG D   7      21.931-121.339 168.998  1.00 23.42 LIG 0.17  HD
ATOM     45 1HH2 ARG D   7      22.257-122.040 167.726  1.00 23.42 LIG 0.17  HD
ATOM     46 2HH1 ARG D   7      21.246-119.159 168.966  1.00 23.45 LIG 0.17  HD
ATOM     47 1HH1 ARG D   7      21.125-118.433 167.671  1.00 23.45 LIG 0.17  HD
ATOM     48 HE   ARG D   7      22.077-120.963 165.753  1.00 19.93 LIG 0.18  HD
ENDBRANCH 39 40
ENDBRANCH 38 39
ENDBRANCH 37 38
ENDBRANCH 35 37
ENDBRANCH 32 35
ENDBRANCH 1 31
TORSDOF 20
ENDMDL
MODEL 23
USER: ADFR SOLUTION from run 39
USER: SCORE 16.003302 LL:  -1.418 LR: -17.192 RR:   0.000 FEB: -11.226
USER: RMSD 5.300197
USER: SEED 38
USER: STATUS no improvement in best in 4 clusters for 5 generations
USER: GENES 22
USER: genes 0 Translation |==|  0.51690 0.29255 0.49262
USER: genes 1 Rotation |==|  0.58247 0.26139 0.50549 0.93155
USER: genes 2 Torsion [N]-CA--C-[N] |==|  0.46252
USER: genes 3 Torsion [C]-N--CA-[CB] |==|  0.38812
USER: genes 4 Torsion [N]-CA--CB-[CG] |==|  0.74567
USER: genes 5 Torsion [CA]-CB--CG-[CD1] |==|  0.90989
USER: genes 6 Torsion [N]-CA--C-[N] |==|  0.03724
USER: genes 7 Torsion [C]-N--CA-[CB] |==|  0.83978
USER: genes 8 Torsion [N]-CA--C-[O] |==|  0.87789
USER: genes 9 Torsion [N]-CA--CB-[CG] |==|  0.68800
USER: genes 10 Torsion [CA]-CB--CG-[OD2] |==|  0.60498
USER: genes 11 Torsion [C]-CA--CB-[CG] |==|  0.52299
USER: genes 12 Torsion [CA]-CB--CG-[CD] |==|  0.70278
USER: genes 13 Torsion [CB]-CG--CD-[CE] |==|  0.21065
USER: genes 14 Torsion [CG]-CD--CE-[NZ] |==|  0.65266
USER: genes 15 Torsion [CD]-CE--NZ-[HZ2] |==|  0.41440
USER: genes 16 Torsion [C]-CA--N-[C] |==|  0.20620
USER: genes 17 Torsion [N]-C--CA-[N] |==|  0.94192
USER: genes 18 Torsion [C]-CA--CB-[CG] |==|  0.63301
USER: genes 19 Torsion [CA]-CB--CG-[CD] |==|  0.30653
USER: genes 20 Torsion [CB]-CG--CD-[NE] |==|  0.82731
USER: genes 21 Torsion [CG]-CD--NE-[CZ] |==|  0.30819
ROOT
ATOM      1  CA  LYS D   8      19.965-122.626 162.343  1.00 12.19 LIG 0.18  C 
ENDROOT
BRANCH 1 2
ATOM      2  C   LYS D   8      20.645-121.620 161.415  1.00 13.86 LIG 0.24  C 
ATOM      3 O    LYS D   8      20.645-120.418 161.687  1.00 13.19 LIG-0.27  OA
ATOM      4  N   LEU D   9      21.214-122.093 160.311  1.00 13.79 LIG-0.35  N 
ATOM      5 H    LEU D   9      21.225-122.922 160.084  1.00 13.79 LIG 0.16  HD
BRANCH 4 6
ATOM      6  CA  LEU D   9      21.881-121.193 159.380  1.00 13.45 LIG 0.18  C 
BRANCH 6 7
ATOM      7  CB  LEU D   9      23.170-121.827 158.856  1.00 15.24 LIG 0.04  C 
BRANCH 7 8
ATOM      8  CG  LEU D   9      24.438-121.512 159.650  1.00 15.65 LIG-0.02  C 
ATOM      9  CD1 LEU D   9      24.366-120.120 160.249  1.00 23.17 LIG 0.01  C 
ATOM     10  CD2 LEU D   9      24.613-122.544 160.747  1.00 23.01 LIG 0.01  C 
ENDBRANCH 7 8
ENDBRANCH 6 7
BRANCH 6 11
ATOM     11  C   LEU D   9      20.984-120.761 158.216  1.00 13.91 LIG 0.24  C 
ATOM     12  N   ASP D  10      19.684-121.014 158.338  1.00 15.10 LIG-0.34  N 
ATOM     13 H    ASP D  10      19.328-121.364 159.037  1.00 15.10 LIG 0.16  HD
ATOM     14 O    LEU D   9      21.467-120.197 157.234  1.00 14.13 LIG-0.27  OA
BRANCH 12 15
ATOM     15  CA  ASP D  10      18.732-120.710 157.267  1.00 14.88 LIG 0.20  C 
BRANCH 15 16
ATOM     16  C   ASP D  10      18.980-121.531 156.007  1.00 18.09 LIG 0.20  C 
ATOM     17 O    ASP D  10      20.129-121.683 155.586  1.00 15.20 LIG-0.65  OA
ATOM     18 OXT  ASP D  10      18.055-122.072 155.395  1.00 15.71 LIG-0.65  OA
ENDBRANCH 15 16
BRANCH 15 19
ATOM     19  CB  ASP D  10      18.781-119.223 156.905  1.00 14.49 LIG 0.15  C 
BRANCH 19 20
ATOM     20  CG  ASP D  10      17.510-118.485 157.280  1.00 20.14 LIG 0.17  C 
ATOM     21 OD2  ASP D  10      17.099-117.602 156.501  1.00 22.62 LIG-0.65  OA
ATOM     22 OD1  ASP D  10      16.920-118.793 158.338  1.00 23.52 LIG-0.65  OA
ENDBRANCH 19 20
ENDBRANCH 15 19
ENDBRANCH 12 15
ENDBRANCH 6 11
ENDBRANCH 4 6
ENDBRANCH 1 2
BRANCH 1 23
ATOM     23  CB  LYS D   8      18.695-123.154 161.669  1.00 14.93 LIG 0.04  C 
BRANCH 23 24
ATOM     24  CG  LYS D   8      17.824-124.009 162.566  1.00 16.49 LIG 0.00  C 
BRANCH 24 25
ATOM     25  CD  LYS D   8      17.923-125.462 162.168  1.00 20.48 LIG 0.03  C 
BRANCH 25 26
ATOM     26  CE  LYS D   8      19.226-126.080 162.628  1.00 18.72 LIG 0.23  C 
BRANCH 26 27
ATOM     27  NZ  LYS D   8      19.935-126.683 161.469  1.00 16.35 LIG-0.08  N 
ATOM     28 HZ2  LYS D   8      20.814-126.638 161.602  1.00 16.35 LIG 0.27  HD
ATOM     29 HZ3  LYS D   8      19.692-127.535 161.381  1.00 16.35 LIG 0.27  HD
ATOM     30 HZ1  LYS D   8      19.725-126.237 160.727  1.00 16.35 LIG 0.27  HD
ENDBRANCH 26 27
ENDBRANCH 25 26
ENDBRANCH 24 25
ENDBRANCH 23 24
ENDBRANCH 1 23
BRANCH 1 31
ATOM     31  N   LYS D   8      19.650-122.072 163.660  1.00 12.29 LIG-0.35  N 
ATOM     32  C   ARG D   7      18.645-121.215 163.847  1.00 12.18 LIG 0.26  C 
ATOM     33 O    ARG D   7      17.941-120.803 162.935  1.00 12.68 LIG-0.27  OA
ATOM     34 H    LYS D   8      20.166-122.347 164.290  1.00 12.29 LIG 0.16  HD
BRANCH 32 35
ATOM     35  CA  ARG D   7      18.394-120.752 165.280  1.00 18.47 LIG 0.40  C 
ATOM     36  N   ARG D   7      18.972-121.691 166.240  1.00 16.79 LIG 0.61  N 
BRANCH 35 37
ATOM     37  CB  ARG D   7      18.998-119.362 165.484  1.00 18.75 LIG 0.05  C 
BRANCH 37 38
ATOM     38  CG  ARG D   7      19.841-119.216 166.745  1.00 15.67 LIG 0.02  C 
BRANCH 38 39
ATOM     39  CD  ARG D   7      21.322-119.061 166.410  1.00 21.79 LIG 0.14  C 
BRANCH 39 40
ATOM     40  NE  ARG D   7      21.867-120.229 165.718  1.00 19.93 LIG-0.23  N 
ATOM     41  CZ  ARG D   7      22.251-120.237 164.443  1.00 19.53 LIG 0.67  C 
ATOM     42  NH2 ARG D   7      22.727-121.349 163.911  1.00 23.42 LIG-0.23  N 
ATOM     43  NH1 ARG D   7      22.162-119.140 163.702  1.00 23.45 LIG-0.23  N 
ATOM     44 2HH2 ARG D   7      22.977-121.360 163.088  1.00 23.42 LIG 0.17  HD
ATOM     45 1HH2 ARG D   7      22.787-122.062 164.388  1.00 23.42 LIG 0.17  HD
ATOM     46 2HH1 ARG D   7      22.413-119.155 162.880  1.00 23.45 LIG 0.17  HD
ATOM     47 1HH1 ARG D   7      21.853-118.414 164.045  1.00 23.45 LIG 0.17  HD
ATOM     48 HE   ARG D   7      21.945-120.960 166.165  1.00 19.93 LIG 0.18  HD
ENDBRANCH 39 40
ENDBRANCH 38 39
ENDBRANCH 37 38
ENDBRANCH 35 37
ENDBRANCH 32 35
ENDBRANCH 1 31
TORSDOF 20
ENDMDL
MODEL 24
USER: ADFR SOLUTION from run 180
USER: SCORE 17.318176 LL:  -1.271 LR: -17.140 RR:   0.000 FEB: -11.174
USER: RMSD 5.682079
USER: SEED 179
USER: STATUS no improvement in best in 13 clusters for 5 generations
USER: GENES 22
USER: genes 0 Translation |==|  0.40816 0.27175 0.50949
USER: genes 1 Rotation |==|  0.51797 0.44151 0.55387 0.99331
USER: genes 2 Torsion [N]-CA--C-[N] |==|  0.68670
USER: genes 3 Torsion [C]-N--CA-[CB] |==|  0.53925
USER: genes 4 Torsion [N]-CA--CB-[CG] |==|  0.92660
USER: genes 5 Torsion [CA]-CB--CG-[CD1] |==|  0.46991
USER: genes 6 Torsion [N]-CA--C-[N] |==|  0.36455
USER: genes 7 Torsion [C]-N--CA-[CB] |==|  0.47717
USER: genes 8 Torsion [N]-CA--C-[O] |==|  0.66804
USER: genes 9 Torsion [N]-CA--CB-[CG] |==|  0.99053
USER: genes 10 Torsion [CA]-CB--CG-[OD2] |==|  0.18403
USER: genes 11 Torsion [C]-CA--CB-[CG] |==|  0.18370
USER: genes 12 Torsion [CA]-CB--CG-[CD] |==|  0.22319
USER: genes 13 Torsion [CB]-CG--CD-[CE] |==|  0.74191
USER: genes 14 Torsion [CG]-CD--CE-[NZ] |==|  0.24733
USER: genes 15 Torsion [CD]-CE--NZ-[HZ2] |==|  0.05940
USER: genes 16 Torsion [C]-CA--N-[C] |==|  0.15424
USER: genes 17 Torsion [N]-C--CA-[N] |==|  0.88987
USER: genes 18 Torsion [C]-CA--CB-[CG] |==|  0.03584
USER: genes 19 Torsion [CA]-CB--CG-[CD] |==|  0.62524
USER: genes 20 Torsion [CB]-CG--CD-[NE] |==|  0.33466
USER: genes 21 Torsion [CG]-CD--NE-[CZ] |==|  0.77375
ROOT
ATOM      1  CA  LYS D   8      18.415-123.016 162.736  1.00 12.19 LIG 0.18  C 
ENDROOT
BRANCH 1 2
ATOM      2  C   LYS D   8      18.070-122.438 161.364  1.00 13.86 LIG 0.24  C 
ATOM      3 O    LYS D   8      18.946-121.933 160.659  1.00 13.19 LIG-0.27  OA
ATOM      4  N   LEU D   9      16.799-122.492 160.978  1.00 13.79 LIG-0.35  N 
ATOM      5 H    LEU D   9      16.161-122.829 161.446  1.00 13.79 LIG 0.16  HD
BRANCH 4 6
ATOM      6  CA  LEU D   9      16.397-121.962 159.683  1.00 13.45 LIG 0.18  C 
BRANCH 6 7
ATOM      7  CB  LEU D   9      14.876-121.819 159.614  1.00 15.24 LIG 0.04  C 
BRANCH 7 8
ATOM      8  CG  LEU D   9      14.077-122.762 160.513  1.00 15.65 LIG-0.02  C 
ATOM      9  CD1 LEU D   9      12.617-122.352 160.559  1.00 23.17 LIG 0.01  C 
ATOM     10  CD2 LEU D   9      14.204-124.180 159.993  1.00 23.01 LIG 0.01  C 
ENDBRANCH 7 8
ENDBRANCH 6 7
BRANCH 6 11
ATOM     11  C   LEU D   9      17.077-120.632 159.342  1.00 13.91 LIG 0.24  C 
ATOM     12  N   ASP D  10      17.630-120.535 158.136  1.00 15.10 LIG-0.34  N 
ATOM     13 H    ASP D  10      17.591-121.154 157.541  1.00 15.10 LIG 0.16  HD
ATOM     14 O    LEU D   9      17.084-119.710 160.158  1.00 14.13 LIG-0.27  OA
BRANCH 12 15
ATOM     15  CA  ASP D  10      18.366-119.341 157.716  1.00 14.88 LIG 0.20  C 
BRANCH 15 16
ATOM     16  C   ASP D  10      17.474-118.111 157.597  1.00 18.09 LIG 0.20  C 
ATOM     17 O    ASP D  10      17.359-117.535 156.514  1.00 15.20 LIG-0.65  OA
ATOM     18 OXT  ASP D  10      16.840-117.676 158.563  1.00 15.71 LIG-0.65  OA
ENDBRANCH 15 16
BRANCH 15 19
ATOM     19  CB  ASP D  10      19.062-119.578 156.374  1.00 14.49 LIG 0.15  C 
BRANCH 19 20
ATOM     20  CG  ASP D  10      18.888-120.995 155.863  1.00 20.14 LIG 0.17  C 
ATOM     21 OD2  ASP D  10      17.739-121.360 155.541  1.00 22.62 LIG-0.65  OA
ATOM     22 OD1  ASP D  10      19.891-121.735 155.772  1.00 23.52 LIG-0.65  OA
ENDBRANCH 19 20
ENDBRANCH 15 19
ENDBRANCH 12 15
ENDBRANCH 6 11
ENDBRANCH 4 6
ENDBRANCH 1 2
BRANCH 1 23
ATOM     23  CB  LYS D   8      17.207-123.787 163.275  1.00 14.93 LIG 0.04  C 
BRANCH 23 24
ATOM     24  CG  LYS D   8      16.856-125.029 162.480  1.00 16.49 LIG 0.00  C 
BRANCH 24 25
ATOM     25  CD  LYS D   8      17.760-126.174 162.866  1.00 20.48 LIG 0.03  C 
BRANCH 25 26
ATOM     26  CE  LYS D   8      18.972-126.260 161.963  1.00 18.72 LIG 0.23  C 
BRANCH 26 27
ATOM     27  NZ  LYS D   8      20.071-125.424 162.515  1.00 16.35 LIG-0.08  N 
ATOM     28 HZ2  LYS D   8      19.936-125.293 163.385  1.00 16.35 LIG 0.27  HD
ATOM     29 HZ3  LYS D   8      20.849-125.840 162.396  1.00 16.35 LIG 0.27  HD
ATOM     30 HZ1  LYS D   8      20.087-124.639 162.095  1.00 16.35 LIG 0.27  HD
ENDBRANCH 26 27
ENDBRANCH 25 26
ENDBRANCH 24 25
ENDBRANCH 23 24
ENDBRANCH 1 23
BRANCH 1 31
ATOM     31  N   LYS D   8      18.841-121.999 163.697  1.00 12.29 LIG-0.35  N 
ATOM     32  C   ARG D   7      18.086-120.940 163.989  1.00 12.18 LIG 0.26  C 
ATOM     33 O    ARG D   7      17.008-120.720 163.454  1.00 12.68 LIG-0.27  OA
ATOM     34 H    LYS D   8      19.612-122.149 164.050  1.00 12.29 LIG 0.16  HD
BRANCH 32 35
ATOM     35  CA  ARG D   7      18.627-119.981 165.048  1.00 18.47 LIG 0.40  C 
ATOM     36  N   ARG D   7      19.263-120.715 166.140  1.00 16.79 LIG 0.61  N 
BRANCH 35 37
ATOM     37  CB  ARG D   7      19.636-119.025 164.407  1.00 18.75 LIG 0.05  C 
BRANCH 37 38
ATOM     38  CG  ARG D   7      19.635-119.030 162.884  1.00 15.67 LIG 0.02  C 
BRANCH 38 39
ATOM     39  CD  ARG D   7      21.054-119.071 162.325  1.00 21.79 LIG 0.14  C 
BRANCH 39 40
ATOM     40  NE  ARG D   7      21.293-120.246 161.485  1.00 19.93 LIG-0.23  N 
ATOM     41  CZ  ARG D   7      21.590-121.456 161.953  1.00 19.53 LIG 0.67  C 
ATOM     42  NH2 ARG D   7      21.792-122.452 161.107  1.00 23.42 LIG-0.23  N 
ATOM     43  NH1 ARG D   7      21.684-121.674 163.258  1.00 23.45 LIG-0.23  N 
ATOM     44 2HH2 ARG D   7      21.984-123.236 161.404  1.00 23.42 LIG 0.17  HD
ATOM     45 1HH2 ARG D   7      21.732-122.316 160.260  1.00 23.42 LIG 0.17  HD
ATOM     46 2HH1 ARG D   7      21.876-122.460 163.550  1.00 23.45 LIG 0.17  HD
ATOM     47 1HH1 ARG D   7      21.553-121.029 163.812  1.00 23.45 LIG 0.17  HD
ATOM     48 HE   ARG D   7      21.237-120.148 160.633  1.00 19.93 LIG 0.18  HD
ENDBRANCH 39 40
ENDBRANCH 38 39
ENDBRANCH 37 38
ENDBRANCH 35 37
ENDBRANCH 32 35
ENDBRANCH 1 31
TORSDOF 20
ENDMDL
MODEL 25
USER: ADFR SOLUTION from run 179
USER: SCORE 16.559246 LL:  -1.230 LR: -17.091 RR:   0.000 FEB: -11.125
USER: RMSD 4.841364
USER: SEED 178
USER: STATUS no improvement in best in 6 clusters for 5 generations
USER: GENES 22
USER: genes 0 Translation |==|  0.44382 0.28193 0.51153
USER: genes 1 Rotation |==|  0.58372 0.46585 0.56282 0.98773
USER: genes 2 Torsion [N]-CA--C-[N] |==|  0.12398
USER: genes 3 Torsion [C]-N--CA-[CB] |==|  0.45757
USER: genes 4 Torsion [N]-CA--CB-[CG] |==|  0.87028
USER: genes 5 Torsion [CA]-CB--CG-[CD1] |==|  0.50637
USER: genes 6 Torsion [N]-CA--C-[N] |==|  0.70487
USER: genes 7 Torsion [C]-N--CA-[CB] |==|  0.22839
USER: genes 8 Torsion [N]-CA--C-[O] |==|  0.07543
USER: genes 9 Torsion [N]-CA--CB-[CG] |==|  0.78562
USER: genes 10 Torsion [CA]-CB--CG-[OD2] |==|  0.73973
USER: genes 11 Torsion [C]-CA--CB-[CG] |==|  0.16690
USER: genes 12 Torsion [CA]-CB--CG-[CD] |==|  0.32900
USER: genes 13 Torsion [CB]-CG--CD-[CE] |==|  0.83008
USER: genes 14 Torsion [CG]-CD--CE-[NZ] |==|  0.77942
USER: genes 15 Torsion [CD]-CE--NZ-[HZ2] |==|  0.17571
USER: genes 16 Torsion [C]-CA--N-[C] |==|  0.14534
USER: genes 17 Torsion [N]-C--CA-[N] |==|  0.80212
USER: genes 18 Torsion [C]-CA--CB-[CG] |==|  0.52014
USER: genes 19 Torsion [CA]-CB--CG-[CD] |==|  0.40111
USER: genes 20 Torsion [CB]-CG--CD-[NE] |==|  0.85294
USER: genes 21 Torsion [CG]-CD--NE-[CZ] |==|  0.38591
ROOT
ATOM      1  CA  LYS D   8      18.923-122.825 162.783  1.00 12.19 LIG 0.18  C 
ENDROOT
BRANCH 1 2
ATOM      2  C   LYS D   8      18.373-121.968 161.644  1.00 13.86 LIG 0.24  C 
ATOM      3 O    LYS D   8      17.319-122.274 161.083  1.00 13.19 LIG-0.27  OA
ATOM      4  N   LEU D   9      19.081-120.903 161.280  1.00 13.79 LIG-0.35  N 
ATOM      5 H    LEU D   9      19.824-120.665 161.641  1.00 13.79 LIG 0.16  HD
BRANCH 4 6
ATOM      6  CA  LEU D   9      18.617-120.041 160.202  1.00 13.45 LIG 0.18  C 
BRANCH 6 7
ATOM      7  CB  LEU D   9      19.372-118.711 160.221  1.00 15.24 LIG 0.04  C 
BRANCH 7 8
ATOM      8  CG  LEU D   9      19.499-118.036 161.587  1.00 15.65 LIG-0.02  C 
ATOM      9  CD1 LEU D   9      20.215-116.704 161.464  1.00 23.17 LIG 0.01  C 
ATOM     10  CD2 LEU D   9      18.118-117.833 162.178  1.00 23.01 LIG 0.01  C 
ENDBRANCH 7 8
ENDBRANCH 6 7
BRANCH 6 11
ATOM     11  C   LEU D   9      18.722-120.697 158.822  1.00 13.91 LIG 0.24  C 
ATOM     12  N   ASP D  10      19.692-120.261 158.024  1.00 15.10 LIG-0.34  N 
ATOM     13 H    ASP D  10      20.273-119.670 158.256  1.00 15.10 LIG 0.16  HD
ATOM     14 O    LEU D   9      17.941-121.593 158.498  1.00 14.13 LIG-0.27  OA
BRANCH 12 15
ATOM     15  CA  ASP D  10      19.856-120.762 156.659  1.00 14.88 LIG 0.20  C 
BRANCH 15 16
ATOM     16  C   ASP D  10      21.283-120.617 156.144  1.00 18.09 LIG 0.20  C 
ATOM     17 O    ASP D  10      22.227-120.610 156.937  1.00 15.20 LIG-0.65  OA
ATOM     18 OXT  ASP D  10      21.529-120.523 154.938  1.00 15.71 LIG-0.65  OA
ENDBRANCH 15 16
BRANCH 15 19
ATOM     19  CB  ASP D  10      18.909-120.038 155.698  1.00 14.49 LIG 0.15  C 
BRANCH 19 20
ATOM     20  CG  ASP D  10      17.479-120.533 155.797  1.00 20.14 LIG 0.17  C 
ATOM     21 OD2  ASP D  10      17.120-121.432 155.010  1.00 22.62 LIG-0.65  OA
ATOM     22 OD1  ASP D  10      16.724-120.039 156.661  1.00 23.52 LIG-0.65  OA
ENDBRANCH 19 20
ENDBRANCH 15 19
ENDBRANCH 12 15
ENDBRANCH 6 11
ENDBRANCH 4 6
ENDBRANCH 1 2
BRANCH 1 23
ATOM     23  CB  LYS D   8      17.840-123.804 163.245  1.00 14.93 LIG 0.04  C 
BRANCH 23 24
ATOM     24  CG  LYS D   8      17.358-124.752 162.166  1.00 16.49 LIG 0.00  C 
BRANCH 24 25
ATOM     25  CD  LYS D   8      17.642-126.182 162.555  1.00 20.48 LIG 0.03  C 
BRANCH 25 26
ATOM     26  CE  LYS D   8      19.125-126.431 162.729  1.00 18.72 LIG 0.23  C 
BRANCH 26 27
ATOM     27  NZ  LYS D   8      19.765-126.611 161.400  1.00 16.35 LIG-0.08  N 
ATOM     28 HZ2  LYS D   8      19.687-125.860 160.929  1.00 16.35 LIG 0.27  HD
ATOM     29 HZ3  LYS D   8      20.627-126.804 161.509  1.00 16.35 LIG 0.27  HD
ATOM     30 HZ1  LYS D   8      19.365-127.277 160.965  1.00 16.35 LIG 0.27  HD
ENDBRANCH 26 27
ENDBRANCH 25 26
ENDBRANCH 24 25
ENDBRANCH 23 24
ENDBRANCH 1 23
BRANCH 1 31
ATOM     31  N   LYS D   8      19.411-122.035 163.913  1.00 12.29 LIG-0.35  N 
ATOM     32  C   ARG D   7      18.662-121.100 164.500  1.00 12.18 LIG 0.26  C 
ATOM     33 O    ARG D   7      17.536-120.810 164.118  1.00 12.68 LIG-0.27  OA
ATOM     34 H    LYS D   8      20.213-122.228 164.158  1.00 12.29 LIG 0.16  HD
BRANCH 32 35
ATOM     35  CA  ARG D   7      19.274-120.383 165.701  1.00 18.47 LIG 0.40  C 
ATOM     36  N   ARG D   7      19.349-121.274 166.858  1.00 16.79 LIG 0.61  N 
BRANCH 35 37
ATOM     37  CB  ARG D   7      20.674-119.880 165.341  1.00 18.75 LIG 0.05  C 
BRANCH 37 38
ATOM     38  CG  ARG D   7      21.458-119.299 166.511  1.00 15.67 LIG 0.02  C 
BRANCH 38 39
ATOM     39  CD  ARG D   7      22.946-119.619 166.399  1.00 21.79 LIG 0.14  C 
BRANCH 39 40
ATOM     40  NE  ARG D   7      23.201-121.048 166.218  1.00 19.93 LIG-0.23  N 
ATOM     41  CZ  ARG D   7      24.111-121.550 165.386  1.00 19.53 LIG 0.67  C 
ATOM     42  NH2 ARG D   7      24.260-122.861 165.294  1.00 23.42 LIG-0.23  N 
ATOM     43  NH1 ARG D   7      24.870-120.750 164.649  1.00 23.45 LIG-0.23  N 
ATOM     44 2HH2 ARG D   7      24.846-123.191 164.758  1.00 23.42 LIG 0.17  HD
ATOM     45 1HH2 ARG D   7      23.770-123.383 165.770  1.00 23.42 LIG 0.17  HD
ATOM     46 2HH1 ARG D   7      25.455-121.085 164.115  1.00 23.45 LIG 0.17  HD
ATOM     47 1HH1 ARG D   7      24.777-119.897 164.706  1.00 23.45 LIG 0.17  HD
ATOM     48 HE   ARG D   7      22.733-121.601 166.681  1.00 19.93 LIG 0.18  HD
ENDBRANCH 39 40
ENDBRANCH 38 39
ENDBRANCH 37 38
ENDBRANCH 35 37
ENDBRANCH 32 35
ENDBRANCH 1 31
TORSDOF 20
ENDMDL
MODEL 26
USER: ADFR SOLUTION from run 11
USER: SCORE 17.719768 LL:  -1.119 LR: -17.088 RR:   0.000 FEB: -11.122
USER: RMSD 4.995971
USER: SEED 61973
USER: STATUS no improvement in best in 11 clusters for 5 generations
USER: GENES 22
USER: genes 0 Translation |==|  0.58768 0.42710 0.54405
USER: genes 1 Rotation |==|  0.77787 0.39801 0.73265 0.82903
USER: genes 2 Torsion [N]-CA--C-[N] |==|  0.89125
USER: genes 3 Torsion [C]-N--CA-[CB] |==|  0.75861
USER: genes 4 Torsion [N]-CA--CB-[CG] |==|  0.14999
USER: genes 5 Torsion [CA]-CB--CG-[CD1] |==|  0.32357
USER: genes 6 Torsion [N]-CA--C-[N] |==|  0.13793
USER: genes 7 Torsion [C]-N--CA-[CB] |==|  0.48990
USER: genes 8 Torsion [N]-CA--C-[O] |==|  0.98329
USER: genes 9 Torsion [N]-CA--CB-[CG] |==|  0.23512
USER: genes 10 Torsion [CA]-CB--CG-[OD2] |==|  0.81030
USER: genes 11 Torsion [C]-CA--CB-[CG] |==|  0.90681
USER: genes 12 Torsion [CA]-CB--CG-[CD] |==|  0.77724
USER: genes 13 Torsion [CB]-CG--CD-[CE] |==|  0.70604
USER: genes 14 Torsion [CG]-CD--CE-[NZ] |==|  0.18852
USER: genes 15 Torsion [CD]-CE--NZ-[HZ2] |==|  0.69306
USER: genes 16 Torsion [C]-CA--N-[C] |==|  0.81362
USER: genes 17 Torsion [N]-C--CA-[N] |==|  0.21930
USER: genes 18 Torsion [C]-CA--CB-[CG] |==|  0.40339
USER: genes 19 Torsion [CA]-CB--CG-[CD] |==|  0.41942
USER: genes 20 Torsion [CB]-CG--CD-[NE] |==|  0.84433
USER: genes 21 Torsion [CG]-CD--NE-[CZ] |==|  0.70546
ROOT
ATOM      1  CA  LYS D   8      20.973-120.103 163.539  1.00 12.19 LIG 0.18  C 
ENDROOT
BRANCH 1 2
ATOM      2  C   LYS D   8      19.905-119.133 163.038  1.00 13.86 LIG 0.24  C 
ATOM      3 O    LYS D   8      20.210-118.186 162.310  1.00 13.19 LIG-0.27  OA
ATOM      4  N   LEU D   9      18.652-119.346 163.428  1.00 13.79 LIG-0.35  N 
ATOM      5 H    LEU D   9      18.403-119.990 163.941  1.00 13.79 LIG 0.16  HD
BRANCH 4 6
ATOM      6  CA  LEU D   9      17.581-118.462 162.989  1.00 13.45 LIG 0.18  C 
BRANCH 6 7
ATOM      7  CB  LEU D   9      17.455-117.267 163.933  1.00 15.24 LIG 0.04  C 
BRANCH 7 8
ATOM      8  CG  LEU D   9      18.736-116.464 164.167  1.00 15.65 LIG-0.02  C 
ATOM      9  CD1 LEU D   9      18.583-115.046 163.651  1.00 23.17 LIG 0.01  C 
ATOM     10  CD2 LEU D   9      19.056-116.449 165.648  1.00 23.01 LIG 0.01  C 
ENDBRANCH 7 8
ENDBRANCH 6 7
BRANCH 6 11
ATOM     11  C   LEU D   9      17.749-117.989 161.542  1.00 13.91 LIG 0.24  C 
ATOM     12  N   ASP D  10      17.994-118.925 160.631  1.00 15.10 LIG-0.34  N 
ATOM     13 H    ASP D  10      18.023-119.767 160.805  1.00 15.10 LIG 0.16  HD
ATOM     14 O    LEU D   9      17.645-116.794 161.262  1.00 14.13 LIG-0.27  OA
BRANCH 12 15
ATOM     15  CA  ASP D  10      18.239-118.594 159.226  1.00 14.88 LIG 0.20  C 
BRANCH 15 16
ATOM     16  C   ASP D  10      17.053-117.897 158.569  1.00 18.09 LIG 0.20  C 
ATOM     17 O    ASP D  10      15.993-117.771 159.185  1.00 15.20 LIG-0.65  OA
ATOM     18 OXT  ASP D  10      17.127-117.432 157.429  1.00 15.71 LIG-0.65  OA
ENDBRANCH 15 16
BRANCH 15 19
ATOM     19  CB  ASP D  10      18.579-119.852 158.423  1.00 14.49 LIG 0.15  C 
BRANCH 19 20
ATOM     20  CG  ASP D  10      17.347-120.594 157.943  1.00 20.14 LIG 0.17  C 
ATOM     21 OD2  ASP D  10      16.633-121.151 158.800  1.00 22.62 LIG-0.65  OA
ATOM     22 OD1  ASP D  10      17.087-120.611 156.721  1.00 23.52 LIG-0.65  OA
ENDBRANCH 19 20
ENDBRANCH 15 19
ENDBRANCH 12 15
ENDBRANCH 6 11
ENDBRANCH 4 6
ENDBRANCH 1 2
BRANCH 1 23
ATOM     23  CB  LYS D   8      21.006-121.332 162.626  1.00 14.93 LIG 0.04  C 
BRANCH 23 24
ATOM     24  CG  LYS D   8      19.656-121.721 162.058  1.00 16.49 LIG 0.00  C 
BRANCH 24 25
ATOM     25  CD  LYS D   8      18.860-122.497 163.079  1.00 20.48 LIG 0.03  C 
BRANCH 25 26
ATOM     26  CE  LYS D   8      18.804-123.972 162.742  1.00 18.72 LIG 0.23  C 
BRANCH 26 27
ATOM     27  NZ  LYS D   8      20.154-124.574 162.890  1.00 16.35 LIG-0.08  N 
ATOM     28 HZ2  LYS D   8      20.473-124.790 162.087  1.00 16.35 LIG 0.27  HD
ATOM     29 HZ3  LYS D   8      20.700-123.988 163.278  1.00 16.35 LIG 0.27  HD
ATOM     30 HZ1  LYS D   8      20.099-125.307 163.394  1.00 16.35 LIG 0.27  HD
ENDBRANCH 26 27
ENDBRANCH 25 26
ENDBRANCH 24 25
ENDBRANCH 23 24
ENDBRANCH 1 23
BRANCH 1 31
ATOM     31  N   LYS D   8      20.776-120.508 164.930  1.00 12.29 LIG-0.35  N 
ATOM     32  C   ARG D   7      20.900-119.650 165.943  1.00 12.18 LIG 0.26  C 
ATOM     33 O    ARG D   7      21.222-118.479 165.790  1.00 12.68 LIG-0.27  OA
ATOM     34 H    LYS D   8      20.575-121.339 165.030  1.00 12.29 LIG 0.16  HD
BRANCH 32 35
ATOM     35  CA  ARG D   7      20.618-120.192 167.343  1.00 18.47 LIG 0.40  C 
ATOM     36  N   ARG D   7      21.760-120.952 167.848  1.00 16.79 LIG 0.61  N 
BRANCH 35 37
ATOM     37  CB  ARG D   7      20.306-119.031 168.290  1.00 18.75 LIG 0.05  C 
BRANCH 37 38
ATOM     38  CG  ARG D   7      19.268-119.348 169.360  1.00 15.67 LIG 0.02  C 
BRANCH 38 39
ATOM     39  CD  ARG D   7      19.497-118.521 170.622  1.00 21.79 LIG 0.14  C 
BRANCH 39 40
ATOM     40  NE  ARG D   7      20.844-118.692 171.169  1.00 19.93 LIG-0.23  N 
ATOM     41  CZ  ARG D   7      21.126-119.394 172.265  1.00 19.53 LIG 0.67  C 
ATOM     42  NH2 ARG D   7      22.379-119.483 172.678  1.00 23.42 LIG-0.23  N 
ATOM     43  NH1 ARG D   7      20.165-120.004 172.945  1.00 23.45 LIG-0.23  N 
ATOM     44 2HH2 ARG D   7      22.567-119.934 173.385  1.00 23.42 LIG 0.17  HD
ATOM     45 1HH2 ARG D   7      23.005-119.089 172.240  1.00 23.42 LIG 0.17  HD
ATOM     46 2HH1 ARG D   7      20.358-120.454 173.651  1.00 23.45 LIG 0.17  HD
ATOM     47 1HH1 ARG D   7      19.349-119.948 172.679  1.00 23.45 LIG 0.17  HD
ATOM     48 HE   ARG D   7      21.496-118.315 170.754  1.00 19.93 LIG 0.18  HD
ENDBRANCH 39 40
ENDBRANCH 38 39
ENDBRANCH 37 38
ENDBRANCH 35 37
ENDBRANCH 32 35
ENDBRANCH 1 31
TORSDOF 20
ENDMDL
MODEL 27
USER: ADFR SOLUTION from run 153
USER: SCORE 16.940355 LL:  -1.596 LR: -17.065 RR:   0.000 FEB: -11.099
USER: RMSD 4.369461
USER: SEED 152
USER: STATUS no improvement in best in 7 clusters for 5 generations
USER: GENES 22
USER: genes 0 Translation |==|  0.45982 0.37667 0.55910
USER: genes 1 Rotation |==|  0.65520 0.57193 0.50443 0.96981
USER: genes 2 Torsion [N]-CA--C-[N] |==|  0.12942
USER: genes 3 Torsion [C]-N--CA-[CB] |==|  0.46345
USER: genes 4 Torsion [N]-CA--CB-[CG] |==|  0.70166
USER: genes 5 Torsion [CA]-CB--CG-[CD1] |==|  0.76020
USER: genes 6 Torsion [N]-CA--C-[N] |==|  0.97737
USER: genes 7 Torsion [C]-N--CA-[CB] |==|  0.25787
USER: genes 8 Torsion [N]-CA--C-[O] |==|  0.29478
USER: genes 9 Torsion [N]-CA--CB-[CG] |==|  0.57229
USER: genes 10 Torsion [CA]-CB--CG-[OD2] |==|  0.83069
USER: genes 11 Torsion [C]-CA--CB-[CG] |==|  0.22501
USER: genes 12 Torsion [CA]-CB--CG-[CD] |==|  0.08330
USER: genes 13 Torsion [CB]-CG--CD-[CE] |==|  0.31922
USER: genes 14 Torsion [CG]-CD--CE-[NZ] |==|  0.73586
USER: genes 15 Torsion [CD]-CE--NZ-[HZ2] |==|  0.02566
USER: genes 16 Torsion [C]-CA--N-[C] |==|  0.12229
USER: genes 17 Torsion [N]-C--CA-[N] |==|  0.36864
USER: genes 18 Torsion [C]-CA--CB-[CG] |==|  0.82886
USER: genes 19 Torsion [CA]-CB--CG-[CD] |==|  0.75164
USER: genes 20 Torsion [CB]-CG--CD-[NE] |==|  0.82515
USER: genes 21 Torsion [CG]-CD--NE-[CZ] |==|  0.78116
ROOT
ATOM      1  CA  LYS D   8      19.151-121.048 163.889  1.00 12.19 LIG 0.18  C 
ENDROOT
BRANCH 1 2
ATOM      2  C   LYS D   8      18.318-119.880 163.366  1.00 13.86 LIG 0.24  C 
ATOM      3 O    LYS D   8      17.087-119.940 163.365  1.00 13.19 LIG-0.27  OA
ATOM      4  N   LEU D   9      18.971-118.818 162.906  1.00 13.79 LIG-0.35  N 
ATOM      5 H    LEU D   9      19.828-118.744 162.883  1.00 13.79 LIG 0.16  HD
BRANCH 4 6
ATOM      6  CA  LEU D   9      18.241-117.667 162.392  1.00 13.45 LIG 0.18  C 
BRANCH 6 7
ATOM      7  CB  LEU D   9      19.179-116.470 162.232  1.00 15.24 LIG 0.04  C 
BRANCH 7 8
ATOM      8  CG  LEU D   9      19.003-115.344 163.251  1.00 15.65 LIG-0.02  C 
ATOM      9  CD1 LEU D   9      17.931-114.370 162.798  1.00 23.17 LIG 0.01  C 
ATOM     10  CD2 LEU D   9      18.634-115.937 164.596  1.00 23.01 LIG 0.01  C 
ENDBRANCH 7 8
ENDBRANCH 6 7
BRANCH 6 11
ATOM     11  C   LEU D   9      17.512-117.957 161.077  1.00 13.91 LIG 0.24  C 
ATOM     12  N   ASP D  10      17.766-119.127 160.498  1.00 15.10 LIG-0.34  N 
ATOM     13 H    ASP D  10      18.277-119.728 160.839  1.00 15.10 LIG 0.16  HD
ATOM     14 O    LEU D   9      16.724-117.135 160.608  1.00 14.13 LIG-0.27  OA
BRANCH 12 15
ATOM     15  CA  ASP D  10      17.182-119.495 159.207  1.00 14.88 LIG 0.20  C 
BRANCH 15 16
ATOM     16  C   ASP D  10      16.857-120.981 159.108  1.00 18.09 LIG 0.20  C 
ATOM     17 O    ASP D  10      15.686-121.361 159.165  1.00 15.20 LIG-0.65  OA
ATOM     18 OXT  ASP D  10      17.742-121.827 158.954  1.00 15.71 LIG-0.65  OA
ENDBRANCH 15 16
BRANCH 15 19
ATOM     19  CB  ASP D  10      18.123-119.118 158.060  1.00 14.49 LIG 0.15  C 
BRANCH 19 20
ATOM     20  CG  ASP D  10      17.391-118.876 156.754  1.00 20.14 LIG 0.17  C 
ATOM     21 OD2  ASP D  10      16.741-119.824 156.268  1.00 22.62 LIG-0.65  OA
ATOM     22 OD1  ASP D  10      17.454-117.747 156.223  1.00 23.52 LIG-0.65  OA
ENDBRANCH 19 20
ENDBRANCH 15 19
ENDBRANCH 12 15
ENDBRANCH 6 11
ENDBRANCH 4 6
ENDBRANCH 1 2
BRANCH 1 23
ATOM     23  CB  LYS D   8      18.230-122.048 164.595  1.00 14.93 LIG 0.04  C 
BRANCH 23 24
ATOM     24  CG  LYS D   8      17.499-122.989 163.659  1.00 16.49 LIG 0.00  C 
BRANCH 24 25
ATOM     25  CD  LYS D   8      18.321-123.243 162.419  1.00 20.48 LIG 0.03  C 
BRANCH 25 26
ATOM     26  CE  LYS D   8      18.754-124.690 162.321  1.00 18.72 LIG 0.23  C 
BRANCH 26 27
ATOM     27  NZ  LYS D   8      20.118-124.848 162.890  1.00 16.35 LIG-0.08  N 
ATOM     28 HZ2  LYS D   8      20.359-124.094 163.296  1.00 16.35 LIG 0.27  HD
ATOM     29 HZ3  LYS D   8      20.119-125.516 163.479  1.00 16.35 LIG 0.27  HD
ATOM     30 HZ1  LYS D   8      20.694-125.029 162.235  1.00 16.35 LIG 0.27  HD
ENDBRANCH 26 27
ENDBRANCH 25 26
ENDBRANCH 24 25
ENDBRANCH 23 24
ENDBRANCH 1 23
BRANCH 1 31
ATOM     31  N   LYS D   8      20.230-120.630 164.784  1.00 12.29 LIG-0.35  N 
ATOM     32  C   ARG D   7      20.044-119.723 165.743  1.00 12.18 LIG 0.26  C 
ATOM     33 O    ARG D   7      18.978-119.149 165.921  1.00 12.68 LIG-0.27  OA
ATOM     34 H    LYS D   8      20.983-121.020 164.634  1.00 12.29 LIG 0.16  HD
BRANCH 32 35
ATOM     35  CA  ARG D   7      21.241-119.413 166.639  1.00 18.47 LIG 0.40  C 
ATOM     36  N   ARG D   7      21.425-117.970 166.785  1.00 16.79 LIG 0.61  N 
BRANCH 35 37
ATOM     37  CB  ARG D   7      21.033-120.053 168.013  1.00 18.75 LIG 0.05  C 
BRANCH 37 38
ATOM     38  CG  ARG D   7      19.814-119.542 168.771  1.00 15.67 LIG 0.02  C 
BRANCH 38 39
ATOM     39  CD  ARG D   7      20.158-118.330 169.631  1.00 21.79 LIG 0.14  C 
BRANCH 39 40
ATOM     40  NE  ARG D   7      21.135-118.641 170.675  1.00 19.93 LIG-0.23  N 
ATOM     41  CZ  ARG D   7      20.842-119.255 171.820  1.00 19.53 LIG 0.67  C 
ATOM     42  NH2 ARG D   7      21.800-119.486 172.701  1.00 23.42 LIG-0.23  N 
ATOM     43  NH1 ARG D   7      19.600-119.637 172.084  1.00 23.45 LIG-0.23  N 
ATOM     44 2HH2 ARG D   7      21.616-119.882 173.442  1.00 23.42 LIG 0.17  HD
ATOM     45 1HH2 ARG D   7      22.606-119.240 172.533  1.00 23.42 LIG 0.17  HD
ATOM     46 2HH1 ARG D   7      19.421-120.033 172.826  1.00 23.45 LIG 0.17  HD
ATOM     47 1HH1 ARG D   7      18.974-119.489 171.513  1.00 23.45 LIG 0.17  HD
ATOM     48 HE   ARG D   7      21.953-118.413 170.540  1.00 19.93 LIG 0.18  HD
ENDBRANCH 39 40
ENDBRANCH 38 39
ENDBRANCH 37 38
ENDBRANCH 35 37
ENDBRANCH 32 35
ENDBRANCH 1 31
TORSDOF 20
ENDMDL
MODEL 28
USER: ADFR SOLUTION from run 6
USER: SCORE 16.378947 LL:  -1.085 LR: -17.067 RR:   0.000 FEB: -11.101
USER: RMSD 3.773780
USER: SEED 421800
USER: STATUS no improvement in best in 5 clusters for 5 generations
USER: GENES 22
USER: genes 0 Translation |==|  0.35094 0.33021 0.42400
USER: genes 1 Rotation |==|  0.65491 0.37608 0.62216 0.94241
USER: genes 2 Torsion [N]-CA--C-[N] |==|  0.14505
USER: genes 3 Torsion [C]-N--CA-[CB] |==|  0.50058
USER: genes 4 Torsion [N]-CA--CB-[CG] |==|  0.36146
USER: genes 5 Torsion [CA]-CB--CG-[CD1] |==|  0.39486
USER: genes 6 Torsion [N]-CA--C-[N] |==|  0.93255
USER: genes 7 Torsion [C]-N--CA-[CB] |==|  0.39589
USER: genes 8 Torsion [N]-CA--C-[O] |==|  0.72344
USER: genes 9 Torsion [N]-CA--CB-[CG] |==|  0.63402
USER: genes 10 Torsion [CA]-CB--CG-[OD2] |==|  0.03146
USER: genes 11 Torsion [C]-CA--CB-[CG] |==|  0.54187
USER: genes 12 Torsion [CA]-CB--CG-[CD] |==|  0.76439
USER: genes 13 Torsion [CB]-CG--CD-[CE] |==|  0.37711
USER: genes 14 Torsion [CG]-CD--CE-[NZ] |==|  0.66808
USER: genes 15 Torsion [CD]-CE--NZ-[HZ2] |==|  0.42121
USER: genes 16 Torsion [C]-CA--N-[C] |==|  0.61797
USER: genes 17 Torsion [N]-C--CA-[N] |==|  0.40140
USER: genes 18 Torsion [C]-CA--CB-[CG] |==|  0.59498
USER: genes 19 Torsion [CA]-CB--CG-[CD] |==|  0.39041
USER: genes 20 Torsion [CB]-CG--CD-[NE] |==|  0.77949
USER: genes 21 Torsion [CG]-CD--NE-[CZ] |==|  0.43283
ROOT
ATOM      1  CA  LYS D   8      17.600-121.920 160.748  1.00 12.19 LIG 0.18  C 
ENDROOT
BRANCH 1 2
ATOM      2  C   LYS D   8      17.231-120.796 159.780  1.00 13.86 LIG 0.24  C 
ATOM      3 O    LYS D   8      16.421-120.992 158.873  1.00 13.19 LIG-0.27  OA
ATOM      4  N   LEU D   9      17.827-119.620 159.951  1.00 13.79 LIG-0.35  N 
ATOM      5 H    LEU D   9      18.403-119.449 160.566  1.00 13.79 LIG 0.16  HD
BRANCH 4 6
ATOM      6  CA  LEU D   9      17.524-118.503 159.066  1.00 13.45 LIG 0.18  C 
BRANCH 6 7
ATOM      7  CB  LEU D   9      18.338-117.272 159.465  1.00 15.24 LIG 0.04  C 
BRANCH 7 8
ATOM      8  CG  LEU D   9      19.094-116.577 158.332  1.00 15.65 LIG-0.02  C 
ATOM      9  CD1 LEU D   9      19.062-115.070 158.509  1.00 23.17 LIG 0.01  C 
ATOM     10  CD2 LEU D   9      20.527-117.069 158.309  1.00 23.01 LIG 0.01  C 
ENDBRANCH 7 8
ENDBRANCH 6 7
BRANCH 6 11
ATOM     11  C   LEU D   9      17.742-118.834 157.587  1.00 13.91 LIG 0.24  C 
ATOM     12  N   ASP D  10      18.599-119.813 157.312  1.00 15.10 LIG-0.34  N 
ATOM     13 H    ASP D  10      18.998-120.282 157.913  1.00 15.10 LIG 0.16  HD
ATOM     14 O    LEU D   9      17.128-118.218 156.714  1.00 14.13 LIG-0.27  OA
BRANCH 12 15
ATOM     15  CA  ASP D  10      18.942-120.179 155.937  1.00 14.88 LIG 0.20  C 
BRANCH 15 16
ATOM     16  C   ASP D  10      18.104-121.338 155.409  1.00 18.09 LIG 0.20  C 
ATOM     17 O    ASP D  10      18.568-122.480 155.401  1.00 15.20 LIG-0.65  OA
ATOM     18 OXT  ASP D  10      16.952-121.170 155.000  1.00 15.71 LIG-0.65  OA
ENDBRANCH 15 16
BRANCH 15 19
ATOM     19  CB  ASP D  10      20.423-120.551 155.828  1.00 14.49 LIG 0.15  C 
BRANCH 19 20
ATOM     20  CG  ASP D  10      21.118-119.862 154.669  1.00 20.14 LIG 0.17  C 
ATOM     21 OD2  ASP D  10      20.508-118.940 154.090  1.00 22.62 LIG-0.65  OA
ATOM     22 OD1  ASP D  10      22.267-120.229 154.346  1.00 23.52 LIG-0.65  OA
ENDBRANCH 19 20
ENDBRANCH 15 19
ENDBRANCH 12 15
ENDBRANCH 6 11
ENDBRANCH 4 6
ENDBRANCH 1 2
BRANCH 1 23
ATOM     23  CB  LYS D   8      16.729-123.145 160.452  1.00 14.93 LIG 0.04  C 
BRANCH 23 24
ATOM     24  CG  LYS D   8      16.733-124.190 161.548  1.00 16.49 LIG 0.00  C 
BRANCH 24 25
ATOM     25  CD  LYS D   8      17.914-125.116 161.389  1.00 20.48 LIG 0.03  C 
BRANCH 25 26
ATOM     26  CE  LYS D   8      18.602-125.378 162.712  1.00 18.72 LIG 0.23  C 
BRANCH 26 27
ATOM     27  NZ  LYS D   8      20.013-124.914 162.647  1.00 16.35 LIG-0.08  N 
ATOM     28 HZ2  LYS D   8      20.286-124.681 163.462  1.00 16.35 LIG 0.27  HD
ATOM     29 HZ3  LYS D   8      20.528-125.571 162.339  1.00 16.35 LIG 0.27  HD
ATOM     30 HZ1  LYS D   8      20.070-124.212 162.103  1.00 16.35 LIG 0.27  HD
ENDBRANCH 26 27
ENDBRANCH 25 26
ENDBRANCH 24 25
ENDBRANCH 23 24
ENDBRANCH 1 23
BRANCH 1 31
ATOM     31  N   LYS D   8      17.474-121.533 162.153  1.00 12.29 LIG-0.35  N 
ATOM     32  C   ARG D   7      18.387-121.869 163.065  1.00 12.18 LIG 0.26  C 
ATOM     33 O    ARG D   7      19.370-122.549 162.806  1.00 12.68 LIG-0.27  OA
ATOM     34 H    LYS D   8      16.766-121.077 162.330  1.00 12.29 LIG 0.16  HD
BRANCH 32 35
ATOM     35  CA  ARG D   7      18.158-121.358 164.487  1.00 18.47 LIG 0.40  C 
ATOM     36  N   ARG D   7      18.606-122.342 165.471  1.00 16.79 LIG 0.61  N 
BRANCH 35 37
ATOM     37  CB  ARG D   7      18.912-120.042 164.687  1.00 18.75 LIG 0.05  C 
BRANCH 37 38
ATOM     38  CG  ARG D   7      19.467-119.837 166.091  1.00 15.67 LIG 0.02  C 
BRANCH 38 39
ATOM     39  CD  ARG D   7      20.851-119.195 166.056  1.00 21.79 LIG 0.14  C 
BRANCH 39 40
ATOM     40  NE  ARG D   7      21.909-120.158 165.750  1.00 19.93 LIG-0.23  N 
ATOM     41  CZ  ARG D   7      23.086-119.837 165.215  1.00 19.53 LIG 0.67  C 
ATOM     42  NH2 ARG D   7      23.973-120.787 164.973  1.00 23.42 LIG-0.23  N 
ATOM     43  NH1 ARG D   7      23.376-118.576 164.925  1.00 23.45 LIG-0.23  N 
ATOM     44 2HH2 ARG D   7      24.735-120.585 164.628  1.00 23.42 LIG 0.17  HD
ATOM     45 1HH2 ARG D   7      23.789-121.605 165.160  1.00 23.42 LIG 0.17  HD
ATOM     46 2HH1 ARG D   7      24.139-118.380 164.580  1.00 23.45 LIG 0.17  HD
ATOM     47 1HH1 ARG D   7      22.802-117.956 165.081  1.00 23.45 LIG 0.17  HD
ATOM     48 HE   ARG D   7      21.761-120.986 165.927  1.00 19.93 LIG 0.18  HD
ENDBRANCH 39 40
ENDBRANCH 38 39
ENDBRANCH 37 38
ENDBRANCH 35 37
ENDBRANCH 32 35
ENDBRANCH 1 31
TORSDOF 20
ENDMDL
MODEL 29
USER: ADFR SOLUTION from run 15
USER: SCORE 17.033624 LL:  -1.306 LR: -17.074 RR:   0.000 FEB: -11.108
USER: RMSD 4.668147
USER: SEED 980147
USER: STATUS no improvement in best in 6 clusters for 5 generations
USER: GENES 22
USER: genes 0 Translation |==|  0.42656 0.33487 0.52883
USER: genes 1 Rotation |==|  0.65215 0.48213 0.55430 0.97285
USER: genes 2 Torsion [N]-CA--C-[N] |==|  0.12467
USER: genes 3 Torsion [C]-N--CA-[CB] |==|  0.49006
USER: genes 4 Torsion [N]-CA--CB-[CG] |==|  0.89449
USER: genes 5 Torsion [CA]-CB--CG-[CD1] |==|  0.45456
USER: genes 6 Torsion [N]-CA--C-[N] |==|  0.87699
USER: genes 7 Torsion [C]-N--CA-[CB] |==|  0.54165
USER: genes 8 Torsion [N]-CA--C-[O] |==|  0.40772
USER: genes 9 Torsion [N]-CA--CB-[CG] |==|  0.50058
USER: genes 10 Torsion [CA]-CB--CG-[OD2] |==|  0.78666
USER: genes 11 Torsion [C]-CA--CB-[CG] |==|  0.28618
USER: genes 12 Torsion [CA]-CB--CG-[CD] |==|  0.12815
USER: genes 13 Torsion [CB]-CG--CD-[CE] |==|  0.36432
USER: genes 14 Torsion [CG]-CD--CE-[NZ] |==|  0.30390
USER: genes 15 Torsion [CD]-CE--NZ-[HZ2] |==|  0.49517
USER: genes 16 Torsion [C]-CA--N-[C] |==|  0.13976
USER: genes 17 Torsion [N]-C--CA-[N] |==|  0.83475
USER: genes 18 Torsion [C]-CA--CB-[CG] |==|  0.77281
USER: genes 19 Torsion [CA]-CB--CG-[CD] |==|  0.30632
USER: genes 20 Torsion [CB]-CG--CD-[NE] |==|  0.68568
USER: genes 21 Torsion [CG]-CD--NE-[CZ] |==|  0.46152
ROOT
ATOM      1  CA  LYS D   8      18.677-121.832 163.185  1.00 12.19 LIG 0.18  C 
ENDROOT
BRANCH 1 2
ATOM      2  C   LYS D   8      18.026-120.712 162.377  1.00 13.86 LIG 0.24  C 
ATOM      3 O    LYS D   8      16.916-120.872 161.865  1.00 13.19 LIG-0.27  OA
ATOM      4  N   LEU D   9      18.706-119.578 162.241  1.00 13.79 LIG-0.35  N 
ATOM      5 H    LEU D   9      19.485-119.433 162.576  1.00 13.79 LIG 0.16  HD
BRANCH 4 6
ATOM      6  CA  LEU D   9      18.147-118.466 161.485  1.00 13.45 LIG 0.18  C 
BRANCH 6 7
ATOM      7  CB  LEU D   9      19.077-117.255 161.550  1.00 15.24 LIG 0.04  C 
BRANCH 7 8
ATOM      8  CG  LEU D   9      19.772-117.019 162.892  1.00 15.65 LIG-0.02  C 
ATOM      9  CD1 LEU D   9      20.943-116.068 162.731  1.00 23.17 LIG 0.01  C 
ATOM     10  CD2 LEU D   9      18.773-116.455 163.882  1.00 23.01 LIG 0.01  C 
ENDBRANCH 7 8
ENDBRANCH 6 7
BRANCH 6 11
ATOM     11  C   LEU D   9      17.837-118.827 160.029  1.00 13.91 LIG 0.24  C 
ATOM     12  N   ASP D  10      18.763-119.524 159.376  1.00 15.10 LIG-0.34  N 
ATOM     13 H    ASP D  10      19.490-119.807 159.735  1.00 15.10 LIG 0.16  HD
ATOM     14 O    LEU D   9      16.770-118.488 159.517  1.00 14.13 LIG-0.27  OA
BRANCH 12 15
ATOM     15  CA  ASP D  10      18.614-119.874 157.962  1.00 14.88 LIG 0.20  C 
BRANCH 15 16
ATOM     16  C   ASP D  10      17.206-120.343 157.615  1.00 18.09 LIG 0.20  C 
ATOM     17 O    ASP D  10      16.730-120.098 156.505  1.00 15.20 LIG-0.65  OA
ATOM     18 OXT  ASP D  10      16.523-120.986 158.418  1.00 15.71 LIG-0.65  OA
ENDBRANCH 15 16
BRANCH 15 19
ATOM     19  CB  ASP D  10      19.611-120.966 157.566  1.00 14.49 LIG 0.15  C 
BRANCH 19 20
ATOM     20  CG  ASP D  10      19.500-121.361 156.106  1.00 20.14 LIG 0.17  C 
ATOM     21 OD2  ASP D  10      18.550-122.097 155.773  1.00 22.62 LIG-0.65  OA
ATOM     22 OD1  ASP D  10      20.348-120.931 155.296  1.00 23.52 LIG-0.65  OA
ENDBRANCH 19 20
ENDBRANCH 15 19
ENDBRANCH 12 15
ENDBRANCH 6 11
ENDBRANCH 4 6
ENDBRANCH 1 2
BRANCH 1 23
ATOM     23  CB  LYS D   8      17.635-122.918 163.471  1.00 14.93 LIG 0.04  C 
BRANCH 23 24
ATOM     24  CG  LYS D   8      17.766-124.150 162.599  1.00 16.49 LIG 0.00  C 
BRANCH 24 25
ATOM     25  CD  LYS D   8      19.206-124.596 162.528  1.00 20.48 LIG 0.03  C 
BRANCH 25 26
ATOM     26  CE  LYS D   8      19.347-126.079 162.798  1.00 18.72 LIG 0.23  C 
BRANCH 26 27
ATOM     27  NZ  LYS D   8      19.713-126.787 161.543  1.00 16.35 LIG-0.08  N 
ATOM     28 HZ2  LYS D   8      19.820-127.654 161.712  1.00 16.35 LIG 0.27  HD
ATOM     29 HZ3  LYS D   8      19.067-126.679 160.941  1.00 16.35 LIG 0.27  HD
ATOM     30 HZ1  LYS D   8      20.474-126.451 161.224  1.00 16.35 LIG 0.27  HD
ENDBRANCH 26 27
ENDBRANCH 25 26
ENDBRANCH 24 25
ENDBRANCH 23 24
ENDBRANCH 1 23
BRANCH 1 31
ATOM     31  N   LYS D   8      19.282-121.366 164.432  1.00 12.29 LIG-0.35  N 
ATOM     32  C   ARG D   7      18.617-120.603 165.301  1.00 12.18 LIG 0.26  C 
ATOM     33 O    ARG D   7      17.475-120.209 165.105  1.00 12.68 LIG-0.27  OA
ATOM     34 H    LYS D   8      20.094-121.626 164.550  1.00 12.29 LIG 0.16  HD
BRANCH 32 35
ATOM     35  CA  ARG D   7      19.349-120.227 166.588  1.00 18.47 LIG 0.40  C 
ATOM     36  N   ARG D   7      19.730-121.422 167.339  1.00 16.79 LIG 0.61  N 
BRANCH 35 37
ATOM     37  CB  ARG D   7      20.595-119.407 166.249  1.00 18.75 LIG 0.05  C 
BRANCH 37 38
ATOM     38  CG  ARG D   7      21.805-120.235 165.834  1.00 15.67 LIG 0.02  C 
BRANCH 38 39
ATOM     39  CD  ARG D   7      22.120-120.058 164.351  1.00 21.79 LIG 0.14  C 
BRANCH 39 40
ATOM     40  NE  ARG D   7      21.899-121.282 163.580  1.00 19.93 LIG-0.23  N 
ATOM     41  CZ  ARG D   7      21.842-121.334 162.251  1.00 19.53 LIG 0.67  C 
ATOM     42  NH2 ARG D   7      21.633-122.493 161.651  1.00 23.42 LIG-0.23  N 
ATOM     43  NH1 ARG D   7      21.993-120.235 161.523  1.00 23.45 LIG-0.23  N 
ATOM     44 2HH2 ARG D   7      21.595-122.532 160.793  1.00 23.42 LIG 0.17  HD
ATOM     45 1HH2 ARG D   7      21.534-123.207 162.118  1.00 23.42 LIG 0.17  HD
ATOM     46 2HH1 ARG D   7      21.955-120.279 160.666  1.00 23.45 LIG 0.17  HD
ATOM     47 1HH1 ARG D   7      22.130-119.479 161.910  1.00 23.45 LIG 0.17  HD
ATOM     48 HE   ARG D   7      21.800-122.018 164.015  1.00 19.93 LIG 0.18  HD
ENDBRANCH 39 40
ENDBRANCH 38 39
ENDBRANCH 37 38
ENDBRANCH 35 37
ENDBRANCH 32 35
ENDBRANCH 1 31
TORSDOF 20
ENDMDL
MODEL 30
USER: ADFR SOLUTION from run 189
USER: SCORE 17.998434 LL:  -2.512 LR: -16.996 RR:   0.000 FEB: -11.030
USER: RMSD 4.958225
USER: SEED 188
USER: STATUS no improvement in best in 2 clusters for 5 generations
USER: GENES 22
USER: genes 0 Translation |==|  0.33091 0.65643 0.46005
USER: genes 1 Rotation |==|  0.34361 0.49887 0.10830 0.76854
USER: genes 2 Torsion [N]-CA--C-[N] |==|  0.85001
USER: genes 3 Torsion [C]-N--CA-[CB] |==|  0.51139
USER: genes 4 Torsion [N]-CA--CB-[CG] |==|  0.40030
USER: genes 5 Torsion [CA]-CB--CG-[CD1] |==|  0.34652
USER: genes 6 Torsion [N]-CA--C-[N] |==|  0.88857
USER: genes 7 Torsion [C]-N--CA-[CB] |==|  0.26857
USER: genes 8 Torsion [N]-CA--C-[O] |==|  0.40425
USER: genes 9 Torsion [N]-CA--CB-[CG] |==|  0.69640
USER: genes 10 Torsion [CA]-CB--CG-[OD2] |==|  0.18840
USER: genes 11 Torsion [C]-CA--CB-[CG] |==|  0.31576
USER: genes 12 Torsion [CA]-CB--CG-[CD] |==|  0.82280
USER: genes 13 Torsion [CB]-CG--CD-[CE] |==|  0.58148
USER: genes 14 Torsion [CG]-CD--CE-[NZ] |==|  0.68203
USER: genes 15 Torsion [CD]-CE--NZ-[HZ2] |==|  0.18425
USER: genes 16 Torsion [C]-CA--N-[C] |==|  0.76509
USER: genes 17 Torsion [N]-C--CA-[N] |==|  0.03444
USER: genes 18 Torsion [C]-CA--CB-[CG] |==|  0.22462
USER: genes 19 Torsion [CA]-CB--CG-[CD] |==|  0.08049
USER: genes 20 Torsion [CB]-CG--CD-[NE] |==|  0.32078
USER: genes 21 Torsion [CG]-CD--NE-[CZ] |==|  0.52260
ROOT
ATOM      1  CA  LYS D   8      17.315-115.803 161.586  1.00 12.19 LIG 0.18  C 
ENDROOT
BRANCH 1 2
ATOM      2  C   LYS D   8      17.284-116.040 160.077  1.00 13.86 LIG 0.24  C 
ATOM      3 O    LYS D   8      16.225-116.311 159.507  1.00 13.19 LIG-0.27  OA
ATOM      4  N   LEU D   9      18.436-115.957 159.420  1.00 13.79 LIG-0.35  N 
ATOM      5 H    LEU D   9      19.195-115.779 159.785  1.00 13.79 LIG 0.16  HD
BRANCH 4 6
ATOM      6  CA  LEU D   9      18.483-116.170 157.980  1.00 13.45 LIG 0.18  C 
BRANCH 6 7
ATOM      7  CB  LEU D   9      19.927-116.121 157.480  1.00 15.24 LIG 0.04  C 
BRANCH 7 8
ATOM      8  CG  LEU D   9      20.272-117.082 156.342  1.00 15.65 LIG-0.02  C 
ATOM      9  CD1 LEU D   9      20.856-116.329 155.161  1.00 23.17 LIG 0.01  C 
ATOM     10  CD2 LEU D   9      21.259-118.118 156.841  1.00 23.01 LIG 0.01  C 
ENDBRANCH 7 8
ENDBRANCH 6 7
BRANCH 6 11
ATOM     11  C   LEU D   9      17.809-117.475 157.545  1.00 13.91 LIG 0.24  C 
ATOM     12  N   ASP D  10      18.010-118.538 158.318  1.00 15.10 LIG-0.34  N 
ATOM     13 H    ASP D  10      18.457-118.519 159.051  1.00 15.10 LIG 0.16  HD
ATOM     14 O    LEU D   9      17.109-117.506 156.532  1.00 14.13 LIG-0.27  OA
BRANCH 12 15
ATOM     15  CA  ASP D  10      17.474-119.857 157.975  1.00 14.88 LIG 0.20  C 
BRANCH 15 16
ATOM     16  C   ASP D  10      16.963-120.620 159.191  1.00 18.09 LIG 0.20  C 
ATOM     17 O    ASP D  10      15.984-121.361 159.088  1.00 15.20 LIG-0.65  OA
ATOM     18 OXT  ASP D  10      17.519-120.532 160.290  1.00 15.71 LIG-0.65  OA
ENDBRANCH 15 16
BRANCH 15 19
ATOM     19  CB  ASP D  10      18.534-120.706 157.268  1.00 14.49 LIG 0.15  C 
BRANCH 19 20
ATOM     20  CG  ASP D  10      18.235-120.912 155.796  1.00 20.14 LIG 0.17  C 
ATOM     21 OD2  ASP D  10      18.301-119.919 155.044  1.00 22.62 LIG-0.65  OA
ATOM     22 OD1  ASP D  10      17.949-122.059 155.390  1.00 23.52 LIG-0.65  OA
ENDBRANCH 19 20
ENDBRANCH 15 19
ENDBRANCH 12 15
ENDBRANCH 6 11
ENDBRANCH 4 6
ENDBRANCH 1 2
BRANCH 1 23
ATOM     23  CB  LYS D   8      17.617-114.326 161.857  1.00 14.93 LIG 0.04  C 
BRANCH 23 24
ATOM     24  CG  LYS D   8      16.475-113.565 162.498  1.00 16.49 LIG 0.00  C 
BRANCH 24 25
ATOM     25  CD  LYS D   8      15.286-113.517 161.569  1.00 20.48 LIG 0.03  C 
BRANCH 25 26
ATOM     26  CE  LYS D   8      14.456-112.270 161.786  1.00 18.72 LIG 0.23  C 
BRANCH 26 27
ATOM     27  NZ  LYS D   8      13.114-112.642 162.307  1.00 16.35 LIG-0.08  N 
ATOM     28 HZ2  LYS D   8      13.198-112.990 163.122  1.00 16.35 LIG 0.27  HD
ATOM     29 HZ3  LYS D   8      12.599-111.917 162.346  1.00 16.35 LIG 0.27  HD
ATOM     30 HZ1  LYS D   8      12.741-113.242 161.765  1.00 16.35 LIG 0.27  HD
ENDBRANCH 26 27
ENDBRANCH 25 26
ENDBRANCH 24 25
ENDBRANCH 23 24
ENDBRANCH 1 23
BRANCH 1 31
ATOM     31  N   LYS D   8      18.276-116.656 162.283  1.00 12.29 LIG-0.35  N 
ATOM     32  C   ARG D   7      17.976-117.897 162.667  1.00 12.18 LIG 0.26  C 
ATOM     33 O    ARG D   7      16.872-118.398 162.500  1.00 12.68 LIG-0.27  OA
ATOM     34 H    LYS D   8      19.041-116.286 162.419  1.00 12.29 LIG 0.16  HD
BRANCH 32 35
ATOM     35  CA  ARG D   7      19.088-118.697 163.341  1.00 18.47 LIG 0.40  C 
ATOM     36  N   ARG D   7      20.210-117.831 163.699  1.00 16.79 LIG 0.61  N 
BRANCH 35 37
ATOM     37  CB  ARG D   7      18.541-119.384 164.594  1.00 18.75 LIG 0.05  C 
BRANCH 37 38
ATOM     38  CG  ARG D   7      17.780-120.676 164.327  1.00 15.67 LIG 0.02  C 
BRANCH 38 39
ATOM     39  CD  ARG D   7      18.293-121.376 163.071  1.00 21.79 LIG 0.14  C 
BRANCH 39 40
ATOM     40  NE  ARG D   7      18.903-122.674 163.360  1.00 19.93 LIG-0.23  N 
ATOM     41  CZ  ARG D   7      19.561-123.411 162.468  1.00 19.53 LIG 0.67  C 
ATOM     42  NH2 ARG D   7      20.072-124.575 162.832  1.00 23.42 LIG-0.23  N 
ATOM     43  NH1 ARG D   7      19.711-122.989 161.220  1.00 23.45 LIG-0.23  N 
ATOM     44 2HH2 ARG D   7      20.498-125.055 162.260  1.00 23.42 LIG 0.17  HD
ATOM     45 1HH2 ARG D   7      19.977-124.852 163.640  1.00 23.42 LIG 0.17  HD
ATOM     46 2HH1 ARG D   7      20.138-123.472 160.651  1.00 23.45 LIG 0.17  HD
ATOM     47 1HH1 ARG D   7      19.380-122.232 160.979  1.00 23.45 LIG 0.17  HD
ATOM     48 HE   ARG D   7      18.831-122.981 164.160  1.00 19.93 LIG 0.18  HD
ENDBRANCH 39 40
ENDBRANCH 38 39
ENDBRANCH 37 38
ENDBRANCH 35 37
ENDBRANCH 32 35
ENDBRANCH 1 31
TORSDOF 20
ENDMDL
MODEL 31
USER: ADFR SOLUTION from run 42
USER: SCORE 16.882192 LL:  -1.603 LR: -16.985 RR:   0.000 FEB: -11.019
USER: RMSD 5.478514
USER: SEED 41
USER: STATUS no improvement in best in 8 clusters for 5 generations
USER: GENES 22
USER: genes 0 Translation |==|  0.62596 0.33212 0.51228
USER: genes 1 Rotation |==|  0.54069 0.38584 0.41821 0.97814
USER: genes 2 Torsion [N]-CA--C-[N] |==|  0.39900
USER: genes 3 Torsion [C]-N--CA-[CB] |==|  0.33445
USER: genes 4 Torsion [N]-CA--CB-[CG] |==|  0.83573
USER: genes 5 Torsion [CA]-CB--CG-[CD1] |==|  0.90145
USER: genes 6 Torsion [N]-CA--C-[N] |==|  0.50448
USER: genes 7 Torsion [C]-N--CA-[CB] |==|  0.17057
USER: genes 8 Torsion [N]-CA--C-[O] |==|  0.17082
USER: genes 9 Torsion [N]-CA--CB-[CG] |==|  0.66641
USER: genes 10 Torsion [CA]-CB--CG-[OD2] |==|  0.38556
USER: genes 11 Torsion [C]-CA--CB-[CG] |==|  0.17727
USER: genes 12 Torsion [CA]-CB--CG-[CD] |==|  0.39053
USER: genes 13 Torsion [CB]-CG--CD-[CE] |==|  0.71979
USER: genes 14 Torsion [CG]-CD--CE-[NZ] |==|  0.10444
USER: genes 15 Torsion [CD]-CE--NZ-[HZ2] |==|  0.38819
USER: genes 16 Torsion [C]-CA--N-[C] |==|  0.82146
USER: genes 17 Torsion [N]-C--CA-[N] |==|  0.67206
USER: genes 18 Torsion [C]-CA--CB-[CG] |==|  0.77501
USER: genes 19 Torsion [CA]-CB--CG-[CD] |==|  0.44532
USER: genes 20 Torsion [CB]-CG--CD-[NE] |==|  0.80954
USER: genes 21 Torsion [CG]-CD--NE-[CZ] |==|  0.29619
ROOT
ATOM      1  CA  LYS D   8      21.519-121.884 162.801  1.00 12.19 LIG 0.18  C 
ENDROOT
BRANCH 1 2
ATOM      2  C   LYS D   8      21.832-121.052 161.558  1.00 13.86 LIG 0.24  C 
ATOM      3 O    LYS D   8      21.911-119.824 161.629  1.00 13.19 LIG-0.27  OA
ATOM      4  N   LEU D   9      21.998-121.703 160.410  1.00 13.79 LIG-0.35  N 
ATOM      5 H    LEU D   9      21.942-122.556 160.321  1.00 13.79 LIG 0.16  HD
BRANCH 4 6
ATOM      6  CA  LEU D   9      22.299-120.975 159.185  1.00 13.45 LIG 0.18  C 
BRANCH 6 7
ATOM      7  CB  LEU D   9      23.635-121.439 158.604  1.00 15.24 LIG 0.04  C 
BRANCH 7 8
ATOM      8  CG  LEU D   9      24.852-121.270 159.514  1.00 15.65 LIG-0.02  C 
ATOM      9  CD1 LEU D   9      24.731-120.006 160.345  1.00 23.17 LIG 0.01  C 
ATOM     10  CD2 LEU D   9      24.976-122.480 160.419  1.00 23.01 LIG 0.01  C 
ENDBRANCH 7 8
ENDBRANCH 6 7
BRANCH 6 11
ATOM     11  C   LEU D   9      21.190-121.085 158.135  1.00 13.91 LIG 0.24  C 
ATOM     12  N   ASP D  10      21.404-120.475 156.973  1.00 15.10 LIG-0.34  N 
ATOM     13 H    ASP D  10      22.133-120.065 156.775  1.00 15.10 LIG 0.16  HD
ATOM     14 O    LEU D   9      20.166-121.726 158.375  1.00 14.13 LIG-0.27  OA
BRANCH 12 15
ATOM     15  CA  ASP D  10      20.395-120.451 155.913  1.00 14.88 LIG 0.20  C 
BRANCH 15 16
ATOM     16  C   ASP D  10      20.890-119.772 154.641  1.00 18.09 LIG 0.20  C 
ATOM     17 O    ASP D  10      21.855-120.236 154.031  1.00 15.20 LIG-0.65  OA
ATOM     18 OXT  ASP D  10      20.336-118.767 154.187  1.00 15.71 LIG-0.65  OA
ENDBRANCH 15 16
BRANCH 15 19
ATOM     19  CB  ASP D  10      19.125-119.741 156.389  1.00 14.49 LIG 0.15  C 
BRANCH 19 20
ATOM     20  CG  ASP D  10      17.900-120.634 156.343  1.00 20.14 LIG 0.17  C 
ATOM     21 OD2  ASP D  10      17.098-120.571 157.297  1.00 22.62 LIG-0.65  OA
ATOM     22 OD1  ASP D  10      17.732-121.384 155.358  1.00 23.52 LIG-0.65  OA
ENDBRANCH 19 20
ENDBRANCH 15 19
ENDBRANCH 12 15
ENDBRANCH 6 11
ENDBRANCH 4 6
ENDBRANCH 1 2
BRANCH 1 23
ATOM     23  CB  LYS D   8      20.000-121.972 162.978  1.00 14.93 LIG 0.04  C 
BRANCH 23 24
ATOM     24  CG  LYS D   8      19.284-122.696 161.856  1.00 16.49 LIG 0.00  C 
BRANCH 24 25
ATOM     25  CD  LYS D   8      18.175-123.558 162.408  1.00 20.48 LIG 0.03  C 
BRANCH 25 26
ATOM     26  CE  LYS D   8      18.584-125.014 162.487  1.00 18.72 LIG 0.23  C 
BRANCH 26 27
ATOM     27  NZ  LYS D   8      20.011-125.115 162.890  1.00 16.35 LIG-0.08  N 
ATOM     28 HZ2  LYS D   8      20.110-125.788 163.465  1.00 16.35 LIG 0.27  HD
ATOM     29 HZ3  LYS D   8      20.514-125.264 162.170  1.00 16.35 LIG 0.27  HD
ATOM     30 HZ1  LYS D   8      20.265-124.355 163.277  1.00 16.35 LIG 0.27  HD
ENDBRANCH 26 27
ENDBRANCH 25 26
ENDBRANCH 24 25
ENDBRANCH 23 24
ENDBRANCH 1 23
BRANCH 1 31
ATOM     31  N   LYS D   8      22.144-121.361 164.015  1.00 12.29 LIG-0.35  N 
ATOM     32  C   ARG D   7      23.467-121.315 164.168  1.00 12.18 LIG 0.26  C 
ATOM     33 O    ARG D   7      24.251-121.736 163.328  1.00 12.68 LIG-0.27  OA
ATOM     34 H    LYS D   8      21.584-121.091 164.610  1.00 12.29 LIG 0.16  HD
BRANCH 32 35
ATOM     35  CA  ARG D   7      23.989-120.699 165.465  1.00 18.47 LIG 0.40  C 
ATOM     36  N   ARG D   7      24.794-119.510 165.190  1.00 16.79 LIG 0.61  N 
BRANCH 35 37
ATOM     37  CB  ARG D   7      22.811-120.332 166.369  1.00 18.75 LIG 0.05  C 
BRANCH 37 38
ATOM     38  CG  ARG D   7      22.134-119.011 166.024  1.00 15.67 LIG 0.02  C 
BRANCH 38 39
ATOM     39  CD  ARG D   7      20.727-118.934 166.610  1.00 21.79 LIG 0.14  C 
BRANCH 39 40
ATOM     40  NE  ARG D   7      19.801-119.870 165.971  1.00 19.93 LIG-0.23  N 
ATOM     41  CZ  ARG D   7      19.349-120.986 166.538  1.00 19.53 LIG 0.67  C 
ATOM     42  NH2 ARG D   7      18.516-121.766 165.871  1.00 23.42 LIG-0.23  N 
ATOM     43  NH1 ARG D   7      19.724-121.322 167.765  1.00 23.45 LIG-0.23  N 
ATOM     44 2HH2 ARG D   7      18.221-122.489 166.233  1.00 23.42 LIG 0.17  HD
ATOM     45 1HH2 ARG D   7      18.270-121.552 165.076  1.00 23.42 LIG 0.17  HD
ATOM     46 2HH1 ARG D   7      19.426-122.045 168.123  1.00 23.45 LIG 0.17  HD
ATOM     47 1HH1 ARG D   7      20.266-120.817 168.202  1.00 23.45 LIG 0.17  HD
ATOM     48 HE   ARG D   7      19.530-119.686 165.176  1.00 19.93 LIG 0.18  HD
ENDBRANCH 39 40
ENDBRANCH 38 39
ENDBRANCH 37 38
ENDBRANCH 35 37
ENDBRANCH 32 35
ENDBRANCH 1 31
TORSDOF 20
ENDMDL
MODEL 32
USER: ADFR SOLUTION from run 8
USER: SCORE 17.489841 LL:  -1.852 LR: -16.959 RR:   0.000 FEB: -10.993
USER: RMSD 5.212306
USER: SEED 224304
USER: STATUS no improvement in best in 4 clusters for 5 generations
USER: GENES 22
USER: genes 0 Translation |==|  0.38189 0.27248 0.42260
USER: genes 1 Rotation |==|  0.66442 0.63299 0.42482 0.94680
USER: genes 2 Torsion [N]-CA--C-[N] |==|  0.92383
USER: genes 3 Torsion [C]-N--CA-[CB] |==|  0.50279
USER: genes 4 Torsion [N]-CA--CB-[CG] |==|  0.71368
USER: genes 5 Torsion [CA]-CB--CG-[CD1] |==|  0.09540
USER: genes 6 Torsion [N]-CA--C-[N] |==|  0.92001
USER: genes 7 Torsion [C]-N--CA-[CB] |==|  0.78271
USER: genes 8 Torsion [N]-CA--C-[O] |==|  0.67530
USER: genes 9 Torsion [N]-CA--CB-[CG] |==|  0.77711
USER: genes 10 Torsion [CA]-CB--CG-[OD2] |==|  0.08468
USER: genes 11 Torsion [C]-CA--CB-[CG] |==|  0.40961
USER: genes 12 Torsion [CA]-CB--CG-[CD] |==|  0.33473
USER: genes 13 Torsion [CB]-CG--CD-[CE] |==|  0.72300
USER: genes 14 Torsion [CG]-CD--CE-[NZ] |==|  0.23240
USER: genes 15 Torsion [CD]-CE--NZ-[HZ2] |==|  0.72703
USER: genes 16 Torsion [C]-CA--N-[C] |==|  0.84415
USER: genes 17 Torsion [N]-C--CA-[N] |==|  0.52676
USER: genes 18 Torsion [C]-CA--CB-[CG] |==|  0.89829
USER: genes 19 Torsion [CA]-CB--CG-[CD] |==|  0.48283
USER: genes 20 Torsion [CB]-CG--CD-[NE] |==|  0.64244
USER: genes 21 Torsion [CG]-CD--NE-[CZ] |==|  0.21033
ROOT
ATOM      1  CA  LYS D   8      18.041-123.002 160.715  1.00 12.19 LIG 0.18  C 
ENDROOT
BRANCH 1 2
ATOM      2  C   LYS D   8      17.367-121.652 160.475  1.00 13.86 LIG 0.24  C 
ATOM      3 O    LYS D   8      16.468-121.541 159.639  1.00 13.19 LIG-0.27  OA
ATOM      4  N   LEU D   9      17.798-120.616 161.189  1.00 13.79 LIG-0.35  N 
ATOM      5 H    LEU D   9      18.427-120.654 161.773  1.00 13.79 LIG 0.16  HD
BRANCH 4 6
ATOM      6  CA  LEU D   9      17.201-119.299 161.013  1.00 13.45 LIG 0.18  C 
BRANCH 6 7
ATOM      7  CB  LEU D   9      17.884-118.279 161.925  1.00 15.24 LIG 0.04  C 
BRANCH 7 8
ATOM      8  CG  LEU D   9      17.109-117.883 163.181  1.00 15.65 LIG-0.02  C 
ATOM      9  CD1 LEU D   9      16.317-119.061 163.718  1.00 23.17 LIG 0.01  C 
ATOM     10  CD2 LEU D   9      18.078-117.384 164.234  1.00 23.01 LIG 0.01  C 
ENDBRANCH 7 8
ENDBRANCH 6 7
BRANCH 6 11
ATOM     11  C   LEU D   9      17.224-118.819 159.559  1.00 13.91 LIG 0.24  C 
ATOM     12  N   ASP D  10      18.213-119.273 158.795  1.00 15.10 LIG-0.34  N 
ATOM     13 H    ASP D  10      18.803-119.839 159.062  1.00 15.10 LIG 0.16  HD
ATOM     14 O    LEU D   9      16.349-118.061 159.140  1.00 14.13 LIG-0.27  OA
BRANCH 12 15
ATOM     15  CA  ASP D  10      18.383-118.837 157.408  1.00 14.88 LIG 0.20  C 
BRANCH 15 16
ATOM     16  C   ASP D  10      18.206-117.333 157.236  1.00 18.09 LIG 0.20  C 
ATOM     17 O    ASP D  10      17.288-116.895 156.540  1.00 15.20 LIG-0.65  OA
ATOM     18 OXT  ASP D  10      18.954-116.526 157.795  1.00 15.71 LIG-0.65  OA
ENDBRANCH 15 16
BRANCH 15 19
ATOM     19  CB  ASP D  10      17.394-119.559 156.488  1.00 14.49 LIG 0.15  C 
BRANCH 19 20
ATOM     20  CG  ASP D  10      17.848-120.957 156.118  1.00 20.14 LIG 0.17  C 
ATOM     21 OD2  ASP D  10      18.542-121.581 156.946  1.00 22.62 LIG-0.65  OA
ATOM     22 OD1  ASP D  10      17.506-121.434 155.015  1.00 23.52 LIG-0.65  OA
ENDBRANCH 19 20
ENDBRANCH 15 19
ENDBRANCH 12 15
ENDBRANCH 6 11
ENDBRANCH 4 6
ENDBRANCH 1 2
BRANCH 1 23
ATOM     23  CB  LYS D   8      17.207-123.810 161.714  1.00 14.93 LIG 0.04  C 
BRANCH 23 24
ATOM     24  CG  LYS D   8      17.245-125.308 161.487  1.00 16.49 LIG 0.00  C 
BRANCH 24 25
ATOM     25  CD  LYS D   8      17.787-126.012 162.707  1.00 20.48 LIG 0.03  C 
BRANCH 25 26
ATOM     26  CE  LYS D   8      19.248-126.373 162.541  1.00 18.72 LIG 0.23  C 
BRANCH 26 27
ATOM     27  NZ  LYS D   8      20.099-125.205 162.890  1.00 16.35 LIG-0.08  N 
ATOM     28 HZ2  LYS D   8      20.341-124.782 162.146  1.00 16.35 LIG 0.27  HD
ATOM     29 HZ3  LYS D   8      19.640-124.649 163.412  1.00 16.35 LIG 0.27  HD
ATOM     30 HZ1  LYS D   8      20.826-125.486 163.321  1.00 16.35 LIG 0.27  HD
ENDBRANCH 26 27
ENDBRANCH 25 26
ENDBRANCH 24 25
ENDBRANCH 23 24
ENDBRANCH 1 23
BRANCH 1 31
ATOM     31  N   LYS D   8      19.421-122.881 161.185  1.00 12.29 LIG-0.35  N 
ATOM     32  C   ARG D   7      20.344-122.201 160.504  1.00 12.18 LIG 0.26  C 
ATOM     33 O    ARG D   7      20.119-121.664 159.428  1.00 12.68 LIG-0.27  OA
ATOM     34 H    LYS D   8      19.576-123.283 161.929  1.00 12.29 LIG 0.16  HD
BRANCH 32 35
ATOM     35  CA  ARG D   7      21.734-122.111 161.132  1.00 18.47 LIG 0.40  C 
ATOM     36  N   ARG D   7      22.573-121.160 160.406  1.00 16.79 LIG 0.61  N 
BRANCH 35 37
ATOM     37  CB  ARG D   7      21.609-121.683 162.596  1.00 18.75 LIG 0.05  C 
BRANCH 37 38
ATOM     38  CG  ARG D   7      20.503-120.671 162.868  1.00 15.67 LIG 0.02  C 
BRANCH 38 39
ATOM     39  CD  ARG D   7      20.342-120.409 164.363  1.00 21.79 LIG 0.14  C 
BRANCH 39 40
ATOM     40  NE  ARG D   7      18.957-120.551 164.812  1.00 19.93 LIG-0.23  N 
ATOM     41  CZ  ARG D   7      18.340-121.717 164.989  1.00 19.53 LIG 0.67  C 
ATOM     42  NH2 ARG D   7      17.081-121.736 165.394  1.00 23.42 LIG-0.23  N 
ATOM     43  NH1 ARG D   7      18.974-122.860 164.764  1.00 23.45 LIG-0.23  N 
ATOM     44 2HH2 ARG D   7      16.678-122.486 165.510  1.00 23.42 LIG 0.17  HD
ATOM     45 1HH2 ARG D   7      16.667-120.997 165.541  1.00 23.42 LIG 0.17  HD
ATOM     46 2HH1 ARG D   7      18.567-123.608 164.882  1.00 23.45 LIG 0.17  HD
ATOM     47 1HH1 ARG D   7      19.793-122.853 164.501  1.00 23.45 LIG 0.17  HD
ATOM     48 HE   ARG D   7      18.512-119.833 164.972  1.00 19.93 LIG 0.18  HD
ENDBRANCH 39 40
ENDBRANCH 38 39
ENDBRANCH 37 38
ENDBRANCH 35 37
ENDBRANCH 32 35
ENDBRANCH 1 31
TORSDOF 20
ENDMDL
MODEL 33
USER: ADFR SOLUTION from run 153
USER: SCORE 16.724537 LL:  -1.393 LR: -16.938 RR:   0.000 FEB: -10.972
USER: RMSD 4.715254
USER: SEED 152
USER: STATUS no improvement in best in 7 clusters for 5 generations
USER: GENES 22
USER: genes 0 Translation |==|  0.46433 0.37526 0.55898
USER: genes 1 Rotation |==|  0.65574 0.57445 0.50551 0.96922
USER: genes 2 Torsion [N]-CA--C-[N] |==|  0.13299
USER: genes 3 Torsion [C]-N--CA-[CB] |==|  0.46106
USER: genes 4 Torsion [N]-CA--CB-[CG] |==|  0.69796
USER: genes 5 Torsion [CA]-CB--CG-[CD1] |==|  0.75933
USER: genes 6 Torsion [N]-CA--C-[N] |==|  0.97777
USER: genes 7 Torsion [C]-N--CA-[CB] |==|  0.26408
USER: genes 8 Torsion [N]-CA--C-[O] |==|  0.30148
USER: genes 9 Torsion [N]-CA--CB-[CG] |==|  0.57970
USER: genes 10 Torsion [CA]-CB--CG-[OD2] |==|  0.78404
USER: genes 11 Torsion [C]-CA--CB-[CG] |==|  0.22069
USER: genes 12 Torsion [CA]-CB--CG-[CD] |==|  0.08850
USER: genes 13 Torsion [CB]-CG--CD-[CE] |==|  0.31759
USER: genes 14 Torsion [CG]-CD--CE-[NZ] |==|  0.73758
USER: genes 15 Torsion [CD]-CE--NZ-[HZ2] |==|  0.02611
USER: genes 16 Torsion [C]-CA--N-[C] |==|  0.13339
USER: genes 17 Torsion [N]-C--CA-[N] |==|  0.35592
USER: genes 18 Torsion [C]-CA--CB-[CG] |==|  0.40692
USER: genes 19 Torsion [CA]-CB--CG-[CD] |==|  0.97558
USER: genes 20 Torsion [CB]-CG--CD-[NE] |==|  0.78013
USER: genes 21 Torsion [CG]-CD--NE-[CZ] |==|  0.59662
ROOT
ATOM      1  CA  LYS D   8      19.216-121.075 163.886  1.00 12.19 LIG 0.18  C 
ENDROOT
BRANCH 1 2
ATOM      2  C   LYS D   8      18.369-119.911 163.374  1.00 13.86 LIG 0.24  C 
ATOM      3 O    LYS D   8      17.139-119.970 163.405  1.00 13.19 LIG-0.27  OA
ATOM      4  N   LEU D   9      19.011-118.853 162.888  1.00 13.79 LIG-0.35  N 
ATOM      5 H    LEU D   9      19.867-118.780 162.842  1.00 13.79 LIG 0.16  HD
BRANCH 4 6
ATOM      6  CA  LEU D   9      18.269-117.706 162.383  1.00 13.45 LIG 0.18  C 
BRANCH 6 7
ATOM      7  CB  LEU D   9      19.199-116.505 162.208  1.00 15.24 LIG 0.04  C 
BRANCH 7 8
ATOM      8  CG  LEU D   9      19.011-115.365 163.209  1.00 15.65 LIG-0.02  C 
ATOM      9  CD1 LEU D   9      17.939-114.402 162.731  1.00 23.17 LIG 0.01  C 
ATOM     10  CD2 LEU D   9      18.632-115.939 164.559  1.00 23.01 LIG 0.01  C 
ENDBRANCH 7 8
ENDBRANCH 6 7
BRANCH 6 11
ATOM     11  C   LEU D   9      17.523-118.002 161.078  1.00 13.91 LIG 0.24  C 
ATOM     12  N   ASP D  10      17.772-119.173 160.499  1.00 15.10 LIG-0.34  N 
ATOM     13 H    ASP D  10      18.289-119.772 160.835  1.00 15.10 LIG 0.16  HD
ATOM     14 O    LEU D   9      16.727-117.183 160.617  1.00 14.13 LIG-0.27  OA
BRANCH 12 15
ATOM     15  CA  ASP D  10      17.172-119.545 159.217  1.00 14.88 LIG 0.20  C 
BRANCH 15 16
ATOM     16  C   ASP D  10      16.800-121.022 159.147  1.00 18.09 LIG 0.20  C 
ATOM     17 O    ASP D  10      15.615-121.360 159.170  1.00 15.20 LIG-0.65  OA
ATOM     18 OXT  ASP D  10      17.660-121.902 159.049  1.00 15.71 LIG-0.65  OA
ENDBRANCH 15 16
BRANCH 15 19
ATOM     19  CB  ASP D  10      18.121-119.220 158.060  1.00 14.49 LIG 0.15  C 
BRANCH 19 20
ATOM     20  CG  ASP D  10      17.388-118.916 156.767  1.00 20.14 LIG 0.17  C 
ATOM     21 OD2  ASP D  10      16.937-119.878 156.114  1.00 22.62 LIG-0.65  OA
ATOM     22 OD1  ASP D  10      17.254-117.725 156.412  1.00 23.52 LIG-0.65  OA
ENDBRANCH 19 20
ENDBRANCH 15 19
ENDBRANCH 12 15
ENDBRANCH 6 11
ENDBRANCH 4 6
ENDBRANCH 1 2
BRANCH 1 23
ATOM     23  CB  LYS D   8      18.307-122.083 164.597  1.00 14.93 LIG 0.04  C 
BRANCH 23 24
ATOM     24  CG  LYS D   8      17.547-123.001 163.662  1.00 16.49 LIG 0.00  C 
BRANCH 24 25
ATOM     25  CD  LYS D   8      18.354-123.272 162.416  1.00 20.48 LIG 0.03  C 
BRANCH 25 26
ATOM     26  CE  LYS D   8      18.761-124.727 162.318  1.00 18.72 LIG 0.23  C 
BRANCH 26 27
ATOM     27  NZ  LYS D   8      20.120-124.910 162.890  1.00 16.35 LIG-0.08  N 
ATOM     28 HZ2  LYS D   8      20.373-124.162 163.300  1.00 16.35 LIG 0.27  HD
ATOM     29 HZ3  LYS D   8      20.108-125.580 163.477  1.00 16.35 LIG 0.27  HD
ATOM     30 HZ1  LYS D   8      20.695-125.099 162.236  1.00 16.35 LIG 0.27  HD
ENDBRANCH 26 27
ENDBRANCH 25 26
ENDBRANCH 24 25
ENDBRANCH 23 24
ENDBRANCH 1 23
BRANCH 1 31
ATOM     31  N   LYS D   8      20.299-120.652 164.773  1.00 12.29 LIG-0.35  N 
ATOM     32  C   ARG D   7      20.098-119.808 165.786  1.00 12.18 LIG 0.26  C 
ATOM     33 O    ARG D   7      19.011-119.300 166.025  1.00 12.68 LIG-0.27  OA
ATOM     34 H    LYS D   8      21.065-120.995 164.582  1.00 12.29 LIG 0.16  HD
BRANCH 32 35
ATOM     35  CA  ARG D   7      21.305-119.488 166.665  1.00 18.47 LIG 0.40  C 
ATOM     36  N   ARG D   7      21.486-118.044 166.797  1.00 16.79 LIG 0.61  N 
BRANCH 35 37
ATOM     37  CB  ARG D   7      21.115-120.117 168.047  1.00 18.75 LIG 0.05  C 
BRANCH 37 38
ATOM     38  CG  ARG D   7      22.403-120.589 168.710  1.00 15.67 LIG 0.02  C 
BRANCH 38 39
ATOM     39  CD  ARG D   7      23.584-120.522 167.747  1.00 21.79 LIG 0.14  C 
BRANCH 39 40
ATOM     40  NE  ARG D   7      23.614-121.650 166.815  1.00 19.93 LIG-0.23  N 
ATOM     41  CZ  ARG D   7      24.728-122.223 166.364  1.00 19.53 LIG 0.67  C 
ATOM     42  NH2 ARG D   7      24.644-123.236 165.519  1.00 23.42 LIG-0.23  N 
ATOM     43  NH1 ARG D   7      25.919-121.789 166.754  1.00 23.45 LIG-0.23  N 
ATOM     44 2HH2 ARG D   7      25.360-123.610 165.224  1.00 23.42 LIG 0.17  HD
ATOM     45 1HH2 ARG D   7      23.874-123.520 165.263  1.00 23.42 LIG 0.17  HD
ATOM     46 2HH1 ARG D   7      26.632-122.166 166.457  1.00 23.45 LIG 0.17  HD
ATOM     47 1HH1 ARG D   7      25.977-121.131 167.304  1.00 23.45 LIG 0.17  HD
ATOM     48 HE   ARG D   7      22.861-121.963 166.541  1.00 19.93 LIG 0.18  HD
ENDBRANCH 39 40
ENDBRANCH 38 39
ENDBRANCH 37 38
ENDBRANCH 35 37
ENDBRANCH 32 35
ENDBRANCH 1 31
TORSDOF 20
ENDMDL
MODEL 34
USER: ADFR SOLUTION from run 59
USER: SCORE 17.286145 LL:  -1.925 LR: -16.927 RR:   0.000 FEB: -10.961
USER: RMSD 5.032452
USER: SEED 58
USER: STATUS no improvement in best in 9 clusters for 5 generations
USER: GENES 22
USER: genes 0 Translation |==|  0.34873 0.44695 0.45812
USER: genes 1 Rotation |==|  0.47902 0.58109 0.20609 0.89573
USER: genes 2 Torsion [N]-CA--C-[N] |==|  0.89469
USER: genes 3 Torsion [C]-N--CA-[CB] |==|  0.50871
USER: genes 4 Torsion [N]-CA--CB-[CG] |==|  0.42961
USER: genes 5 Torsion [CA]-CB--CG-[CD1] |==|  0.24199
USER: genes 6 Torsion [N]-CA--C-[N] |==|  0.84701
USER: genes 7 Torsion [C]-N--CA-[CB] |==|  0.47643
USER: genes 8 Torsion [N]-CA--C-[O] |==|  0.50272
USER: genes 9 Torsion [N]-CA--CB-[CG] |==|  0.78413
USER: genes 10 Torsion [CA]-CB--CG-[OD2] |==|  0.78001
USER: genes 11 Torsion [C]-CA--CB-[CG] |==|  0.60746
USER: genes 12 Torsion [CA]-CB--CG-[CD] |==|  0.81019
USER: genes 13 Torsion [CB]-CG--CD-[CE] |==|  0.44201
USER: genes 14 Torsion [CG]-CD--CE-[NZ] |==|  0.57197
USER: genes 15 Torsion [CD]-CE--NZ-[HZ2] |==|  0.98476
USER: genes 16 Torsion [C]-CA--N-[C] |==|  0.67983
USER: genes 17 Torsion [N]-C--CA-[N] |==|  0.41586
USER: genes 18 Torsion [C]-CA--CB-[CG] |==|  0.14090
USER: genes 19 Torsion [CA]-CB--CG-[CD] |==|  0.39767
USER: genes 20 Torsion [CB]-CG--CD-[NE] |==|  0.05793
USER: genes 21 Torsion [CG]-CD--NE-[CZ] |==|  0.54770
ROOT
ATOM      1  CA  LYS D   8      17.568-119.731 161.541  1.00 12.19 LIG 0.18  C 
ENDROOT
BRANCH 1 2
ATOM      2  C   LYS D   8      17.558-118.885 160.269  1.00 13.86 LIG 0.24  C 
ATOM      3 O    LYS D   8      16.583-118.900 159.515  1.00 13.19 LIG-0.27  OA
ATOM      4  N   LEU D   9      18.639-118.155 160.009  1.00 13.79 LIG-0.35  N 
ATOM      5 H    LEU D   9      19.340-118.127 160.506  1.00 13.79 LIG 0.16  HD
BRANCH 4 6
ATOM      6  CA  LEU D   9      18.699-117.324 158.814  1.00 13.45 LIG 0.18  C 
BRANCH 6 7
ATOM      7  CB  LEU D   9      20.067-116.650 158.703  1.00 15.24 LIG 0.04  C 
BRANCH 7 8
ATOM      8  CG  LEU D   9      20.506-116.262 157.291  1.00 15.65 LIG-0.02  C 
ATOM      9  CD1 LEU D   9      19.987-114.883 156.926  1.00 23.17 LIG 0.01  C 
ATOM     10  CD2 LEU D   9      22.019-116.287 157.211  1.00 23.01 LIG 0.01  C 
ENDBRANCH 7 8
ENDBRANCH 6 7
BRANCH 6 11
ATOM     11  C   LEU D   9      18.376-118.095 157.531  1.00 13.91 LIG 0.24  C 
ATOM     12  N   ASP D  10      19.100-119.184 157.288  1.00 15.10 LIG-0.34  N 
ATOM     13 H    ASP D  10      19.700-119.488 157.823  1.00 15.10 LIG 0.16  HD
ATOM     14 O    LEU D   9      17.474-117.711 156.785  1.00 14.13 LIG-0.27  OA
BRANCH 12 15
ATOM     15  CA  ASP D  10      18.932-119.968 156.064  1.00 14.88 LIG 0.20  C 
BRANCH 15 16
ATOM     16  C   ASP D  10      17.571-120.650 155.983  1.00 18.09 LIG 0.20  C 
ATOM     17 O    ASP D  10      17.293-121.361 155.015  1.00 15.20 LIG-0.65  OA
ATOM     18 OXT  ASP D  10      16.731-120.525 156.879  1.00 15.71 LIG-0.65  OA
ENDBRANCH 15 16
BRANCH 15 19
ATOM     19  CB  ASP D  10      20.025-121.033 155.947  1.00 14.49 LIG 0.15  C 
BRANCH 19 20
ATOM     20  CG  ASP D  10      21.352-120.464 155.483  1.00 20.14 LIG 0.17  C 
ATOM     21 OD2  ASP D  10      21.493-120.236 154.265  1.00 22.62 LIG-0.65  OA
ATOM     22 OD1  ASP D  10      22.243-120.236 156.329  1.00 23.52 LIG-0.65  OA
ENDBRANCH 19 20
ENDBRANCH 15 19
ENDBRANCH 12 15
ENDBRANCH 6 11
ENDBRANCH 4 6
ENDBRANCH 1 2
BRANCH 1 23
ATOM     23  CB  LYS D   8      17.111-118.869 162.722  1.00 14.93 LIG 0.04  C 
BRANCH 23 24
ATOM     24  CG  LYS D   8      17.863-119.129 164.011  1.00 16.49 LIG 0.00  C 
BRANCH 24 25
ATOM     25  CD  LYS D   8      17.531-120.501 164.547  1.00 20.48 LIG 0.03  C 
BRANCH 25 26
ATOM     26  CE  LYS D   8      18.593-120.999 165.503  1.00 18.72 LIG 0.23  C 
BRANCH 26 27
ATOM     27  NZ  LYS D   8      18.599-122.486 165.520  1.00 16.35 LIG-0.08  N 
ATOM     28 HZ2  LYS D   8      17.925-122.791 165.025  1.00 16.35 LIG 0.27  HD
ATOM     29 HZ3  LYS D   8      19.369-122.784 165.187  1.00 16.35 LIG 0.27  HD
ATOM     30 HZ1  LYS D   8      18.506-122.774 166.357  1.00 16.35 LIG 0.27  HD
ENDBRANCH 26 27
ENDBRANCH 25 26
ENDBRANCH 24 25
ENDBRANCH 23 24
ENDBRANCH 1 23
BRANCH 1 31
ATOM     31  N   LYS D   8      18.872-120.329 161.824  1.00 12.29 LIG-0.35  N 
ATOM     32  C   ARG D   7      19.064-121.649 161.812  1.00 12.18 LIG 0.26  C 
ATOM     33 O    ARG D   7      18.165-122.452 161.603  1.00 12.68 LIG-0.27  OA
ATOM     34 H    LYS D   8      19.493-119.758 161.995  1.00 12.29 LIG 0.16  HD
BRANCH 32 35
ATOM     35  CA  ARG D   7      20.486-122.140 162.075  1.00 18.47 LIG 0.40  C 
ATOM     36  N   ARG D   7      20.474-123.449 162.726  1.00 16.79 LIG 0.61  N 
BRANCH 35 37
ATOM     37  CB  ARG D   7      21.253-122.224 160.754  1.00 18.75 LIG 0.05  C 
BRANCH 37 38
ATOM     38  CG  ARG D   7      21.187-120.962 159.902  1.00 15.67 LIG 0.02  C 
BRANCH 38 39
ATOM     39  CD  ARG D   7      22.510-120.702 159.187  1.00 21.79 LIG 0.14  C 
BRANCH 39 40
ATOM     40  NE  ARG D   7      23.335-121.905 159.076  1.00 19.93 LIG-0.23  N 
ATOM     41  CZ  ARG D   7      24.638-121.901 158.804  1.00 19.53 LIG 0.67  C 
ATOM     42  NH2 ARG D   7      25.292-123.047 158.721  1.00 23.42 LIG-0.23  N 
ATOM     43  NH1 ARG D   7      25.287-120.759 158.617  1.00 23.45 LIG-0.23  N 
ATOM     44 2HH2 ARG D   7      26.134-123.050 158.546  1.00 23.42 LIG 0.17  HD
ATOM     45 1HH2 ARG D   7      24.875-123.789 158.842  1.00 23.42 LIG 0.17  HD
ATOM     46 2HH1 ARG D   7      26.129-120.767 158.442  1.00 23.45 LIG 0.17  HD
ATOM     47 1HH1 ARG D   7      24.866-120.011 158.670  1.00 23.45 LIG 0.17  HD
ATOM     48 HE   ARG D   7      22.952-122.666 159.194  1.00 19.93 LIG 0.18  HD
ENDBRANCH 39 40
ENDBRANCH 38 39
ENDBRANCH 37 38
ENDBRANCH 35 37
ENDBRANCH 32 35
ENDBRANCH 1 31
TORSDOF 20
ENDMDL
MODEL 35
USER: ADFR SOLUTION from run 121
USER: SCORE 16.496241 LL:  -0.645 LR: -16.921 RR:   0.000 FEB: -10.955
USER: RMSD 4.738373
USER: SEED 120
USER: STATUS no improvement in best in 4 clusters for 5 generations
USER: GENES 22
USER: genes 0 Translation |==|  0.41512 0.27536 0.46014
USER: genes 1 Rotation |==|  0.54197 0.27330 0.51581 0.94339
USER: genes 2 Torsion [N]-CA--C-[N] |==|  0.17815
USER: genes 3 Torsion [C]-N--CA-[CB] |==|  0.73889
USER: genes 4 Torsion [N]-CA--CB-[CG] |==|  0.70748
USER: genes 5 Torsion [CA]-CB--CG-[CD1] |==|  0.78660
USER: genes 6 Torsion [N]-CA--C-[N] |==|  0.71759
USER: genes 7 Torsion [C]-N--CA-[CB] |==|  0.32806
USER: genes 8 Torsion [N]-CA--C-[O] |==|  0.74249
USER: genes 9 Torsion [N]-CA--CB-[CG] |==|  0.08344
USER: genes 10 Torsion [CA]-CB--CG-[OD2] |==|  0.58931
USER: genes 11 Torsion [C]-CA--CB-[CG] |==|  0.37113
USER: genes 12 Torsion [CA]-CB--CG-[CD] |==|  0.08465
USER: genes 13 Torsion [CB]-CG--CD-[CE] |==|  0.72848
USER: genes 14 Torsion [CG]-CD--CE-[NZ] |==|  0.30746
USER: genes 15 Torsion [CD]-CE--NZ-[HZ2] |==|  0.05045
USER: genes 16 Torsion [C]-CA--N-[C] |==|  0.77194
USER: genes 17 Torsion [N]-C--CA-[N] |==|  0.31098
USER: genes 18 Torsion [C]-CA--CB-[CG] |==|  0.52194
USER: genes 19 Torsion [CA]-CB--CG-[CD] |==|  0.27264
USER: genes 20 Torsion [CB]-CG--CD-[NE] |==|  0.68603
USER: genes 21 Torsion [CG]-CD--NE-[CZ] |==|  0.78108
ROOT
ATOM      1  CA  LYS D   8      18.514-122.948 161.588  1.00 12.19 LIG 0.18  C 
ENDROOT
BRANCH 1 2
ATOM      2  C   LYS D   8      19.169-122.138 160.470  1.00 13.86 LIG 0.24  C 
ATOM      3 O    LYS D   8      18.571-121.934 159.412  1.00 13.19 LIG-0.27  OA
ATOM      4  N   LEU D   9      20.400-121.683 160.682  1.00 13.79 LIG-0.35  N 
ATOM      5 H    LEU D   9      20.851-121.813 161.403  1.00 13.79 LIG 0.16  HD
BRANCH 4 6
ATOM      6  CA  LEU D   9      21.086-120.903 159.661  1.00 13.45 LIG 0.18  C 
BRANCH 6 7
ATOM      7  CB  LEU D   9      21.956-121.811 158.792  1.00 15.24 LIG 0.04  C 
BRANCH 7 8
ATOM      8  CG  LEU D   9      23.462-121.733 159.046  1.00 15.65 LIG-0.02  C 
ATOM      9  CD1 LEU D   9      24.048-120.480 158.423  1.00 23.17 LIG 0.01  C 
ATOM     10  CD2 LEU D   9      23.721-121.744 160.539  1.00 23.01 LIG 0.01  C 
ENDBRANCH 7 8
ENDBRANCH 6 7
BRANCH 6 11
ATOM     11  C   LEU D   9      20.130-120.083 158.791  1.00 13.91 LIG 0.24  C 
ATOM     12  N   ASP D  10      19.853-120.569 157.584  1.00 15.10 LIG-0.34  N 
ATOM     13 H    ASP D  10      20.148-121.322 157.293  1.00 15.10 LIG 0.16  HD
ATOM     14 O    LEU D   9      19.644-119.034 159.217  1.00 14.13 LIG-0.27  OA
BRANCH 12 15
ATOM     15  CA  ASP D  10      19.006-119.846 156.634  1.00 14.88 LIG 0.20  C 
BRANCH 15 16
ATOM     16  C   ASP D  10      17.759-120.630 156.240  1.00 18.09 LIG 0.20  C 
ATOM     17 O    ASP D  10      17.774-121.351 155.241  1.00 15.20 LIG-0.65  OA
ATOM     18 OXT  ASP D  10      16.725-120.579 156.912  1.00 15.71 LIG-0.65  OA
ENDBRANCH 15 16
BRANCH 15 19
ATOM     19  CB  ASP D  10      19.790-119.496 155.366  1.00 14.49 LIG 0.15  C 
BRANCH 19 20
ATOM     20  CG  ASP D  10      20.879-120.503 155.052  1.00 20.14 LIG 0.17  C 
ATOM     21 OD2  ASP D  10      21.914-120.085 154.494  1.00 22.62 LIG-0.65  OA
ATOM     22 OD1  ASP D  10      20.709-121.699 155.369  1.00 23.52 LIG-0.65  OA
ENDBRANCH 19 20
ENDBRANCH 15 19
ENDBRANCH 12 15
ENDBRANCH 6 11
ENDBRANCH 4 6
ENDBRANCH 1 2
BRANCH 1 23
ATOM     23  CB  LYS D   8      17.192-123.531 161.079  1.00 14.93 LIG 0.04  C 
BRANCH 23 24
ATOM     24  CG  LYS D   8      16.991-124.996 161.409  1.00 16.49 LIG 0.00  C 
BRANCH 24 25
ATOM     25  CD  LYS D   8      17.683-125.345 162.703  1.00 20.48 LIG 0.03  C 
BRANCH 25 26
ATOM     26  CE  LYS D   8      19.040-125.972 162.461  1.00 18.72 LIG 0.23  C 
BRANCH 26 27
ATOM     27  NZ  LYS D   8      20.112-125.037 162.893  1.00 16.35 LIG-0.08  N 
ATOM     28 HZ2  LYS D   8      19.768-124.423 163.438  1.00 16.35 LIG 0.27  HD
ATOM     29 HZ3  LYS D   8      20.747-125.491 163.320  1.00 16.35 LIG 0.27  HD
ATOM     30 HZ1  LYS D   8      20.462-124.638 162.178  1.00 16.35 LIG 0.27  HD
ENDBRANCH 26 27
ENDBRANCH 25 26
ENDBRANCH 24 25
ENDBRANCH 23 24
ENDBRANCH 1 23
BRANCH 1 31
ATOM     31  N   LYS D   8      18.293-122.171 162.807  1.00 12.29 LIG-0.35  N 
ATOM     32  C   ARG D   7      19.258-121.970 163.705  1.00 12.18 LIG 0.26  C 
ATOM     33 O    ARG D   7      20.380-122.444 163.596  1.00 12.68 LIG-0.27  OA
ATOM     34 H    LYS D   8      17.493-121.863 162.888  1.00 12.29 LIG 0.16  HD
BRANCH 32 35
ATOM     35  CA  ARG D   7      18.906-121.098 164.909  1.00 18.47 LIG 0.40  C 
ATOM     36  N   ARG D   7      18.884-121.891 166.137  1.00 16.79 LIG 0.61  N 
BRANCH 35 37
ATOM     37  CB  ARG D   7      19.927-119.966 165.039  1.00 18.75 LIG 0.05  C 
BRANCH 37 38
ATOM     38  CG  ARG D   7      19.796-119.138 166.312  1.00 15.67 LIG 0.02  C 
BRANCH 38 39
ATOM     39  CD  ARG D   7      20.787-119.594 167.378  1.00 21.79 LIG 0.14  C 
BRANCH 39 40
ATOM     40  NE  ARG D   7      20.128-120.196 168.537  1.00 19.93 LIG-0.23  N 
ATOM     41  CZ  ARG D   7      19.539-119.505 169.511  1.00 19.53 LIG 0.67  C 
ATOM     42  NH2 ARG D   7      18.974-120.147 170.519  1.00 23.42 LIG-0.23  N 
ATOM     43  NH1 ARG D   7      19.513-118.179 169.480  1.00 23.45 LIG-0.23  N 
ATOM     44 2HH2 ARG D   7      18.592-119.706 171.150  1.00 23.42 LIG 0.17  HD
ATOM     45 1HH2 ARG D   7      18.989-121.007 170.543  1.00 23.42 LIG 0.17  HD
ATOM     46 2HH1 ARG D   7      19.129-117.742 170.113  1.00 23.45 LIG 0.17  HD
ATOM     47 1HH1 ARG D   7      19.879-117.757 168.825  1.00 23.45 LIG 0.17  HD
ATOM     48 HE   ARG D   7      20.119-121.055 168.593  1.00 19.93 LIG 0.18  HD
ENDBRANCH 39 40
ENDBRANCH 38 39
ENDBRANCH 37 38
ENDBRANCH 35 37
ENDBRANCH 32 35
ENDBRANCH 1 31
TORSDOF 20
ENDMDL
MODEL 36
USER: ADFR SOLUTION from run 153
USER: SCORE 16.565983 LL:  -1.449 LR: -16.917 RR:   0.000 FEB: -10.951
USER: RMSD 5.156416
USER: SEED 152
USER: STATUS no improvement in best in 7 clusters for 5 generations
USER: GENES 22
USER: genes 0 Translation |==|  0.45820 0.36235 0.54645
USER: genes 1 Rotation |==|  0.65709 0.58078 0.49101 0.96767
USER: genes 2 Torsion [N]-CA--C-[N] |==|  0.09561
USER: genes 3 Torsion [C]-N--CA-[CB] |==|  0.48911
USER: genes 4 Torsion [N]-CA--CB-[CG] |==|  0.69984
USER: genes 5 Torsion [CA]-CB--CG-[CD1] |==|  0.75860
USER: genes 6 Torsion [N]-CA--C-[N] |==|  0.98033
USER: genes 7 Torsion [C]-N--CA-[CB] |==|  0.25137
USER: genes 8 Torsion [N]-CA--C-[O] |==|  0.28689
USER: genes 9 Torsion [N]-CA--CB-[CG] |==|  0.56796
USER: genes 10 Torsion [CA]-CB--CG-[OD2] |==|  0.80393
USER: genes 11 Torsion [C]-CA--CB-[CG] |==|  0.23493
USER: genes 12 Torsion [CA]-CB--CG-[CD] |==|  0.09124
USER: genes 13 Torsion [CB]-CG--CD-[CE] |==|  0.30845
USER: genes 14 Torsion [CG]-CD--CE-[NZ] |==|  0.73671
USER: genes 15 Torsion [CD]-CE--NZ-[HZ2] |==|  0.03464
USER: genes 16 Torsion [C]-CA--N-[C] |==|  0.12280
USER: genes 17 Torsion [N]-C--CA-[N] |==|  0.72874
USER: genes 18 Torsion [C]-CA--CB-[CG] |==|  0.13219
USER: genes 19 Torsion [CA]-CB--CG-[CD] |==|  0.62223
USER: genes 20 Torsion [CB]-CG--CD-[NE] |==|  0.29507
USER: genes 21 Torsion [CG]-CD--NE-[CZ] |==|  0.47942
ROOT
ATOM      1  CA  LYS D   8      19.128-121.317 163.595  1.00 12.19 LIG 0.18  C 
ENDROOT
BRANCH 1 2
ATOM      2  C   LYS D   8      18.317-120.115 163.116  1.00 13.86 LIG 0.24  C 
ATOM      3 O    LYS D   8      17.096-120.202 162.967  1.00 13.19 LIG-0.27  OA
ATOM      4  N   LEU D   9      18.979-118.991 162.858  1.00 13.79 LIG-0.35  N 
ATOM      5 H    LEU D   9      19.830-118.896 162.942  1.00 13.79 LIG 0.16  HD
BRANCH 4 6
ATOM      6  CA  LEU D   9      18.271-117.804 162.398  1.00 13.45 LIG 0.18  C 
BRANCH 6 7
ATOM      7  CB  LEU D   9      19.235-116.626 162.267  1.00 15.24 LIG 0.04  C 
BRANCH 7 8
ATOM      8  CG  LEU D   9      19.093-115.527 163.320  1.00 15.65 LIG-0.02  C 
ATOM      9  CD1 LEU D   9      18.052-114.507 162.896  1.00 23.17 LIG 0.01  C 
ATOM     10  CD2 LEU D   9      18.704-116.149 164.646  1.00 23.01 LIG 0.01  C 
ENDBRANCH 7 8
ENDBRANCH 6 7
BRANCH 6 11
ATOM     11  C   LEU D   9      17.514-118.028 161.086  1.00 13.91 LIG 0.24  C 
ATOM     12  N   ASP D  10      17.713-119.191 160.472  1.00 15.10 LIG-0.34  N 
ATOM     13 H    ASP D  10      18.203-119.822 160.789  1.00 15.10 LIG 0.16  HD
ATOM     14 O    LEU D   9      16.755-117.163 160.649  1.00 14.13 LIG-0.27  OA
BRANCH 12 15
ATOM     15  CA  ASP D  10      17.099-119.499 159.179  1.00 14.88 LIG 0.20  C 
BRANCH 15 16
ATOM     16  C   ASP D  10      16.765-120.978 159.022  1.00 18.09 LIG 0.20  C 
ATOM     17 O    ASP D  10      15.600-121.362 159.140  1.00 15.20 LIG-0.65  OA
ATOM     18 OXT  ASP D  10      17.634-121.813 158.759  1.00 15.71 LIG-0.65  OA
ENDBRANCH 15 16
BRANCH 15 19
ATOM     19  CB  ASP D  10      18.017-119.075 158.029  1.00 14.49 LIG 0.15  C 
BRANCH 19 20
ATOM     20  CG  ASP D  10      17.261-118.810 156.741  1.00 20.14 LIG 0.17  C 
ATOM     21 OD2  ASP D  10      16.772-119.788 156.141  1.00 22.62 LIG-0.65  OA
ATOM     22 OD1  ASP D  10      17.145-117.633 156.338  1.00 23.52 LIG-0.65  OA
ENDBRANCH 19 20
ENDBRANCH 15 19
ENDBRANCH 12 15
ENDBRANCH 6 11
ENDBRANCH 4 6
ENDBRANCH 1 2
BRANCH 1 23
ATOM     23  CB  LYS D   8      18.205-122.280 164.347  1.00 14.93 LIG 0.04  C 
BRANCH 23 24
ATOM     24  CG  LYS D   8      17.453-123.246 163.453  1.00 16.49 LIG 0.00  C 
BRANCH 24 25
ATOM     25  CD  LYS D   8      18.287-123.607 162.248  1.00 20.48 LIG 0.03  C 
BRANCH 25 26
ATOM     26  CE  LYS D   8      18.740-125.051 162.294  1.00 18.72 LIG 0.23  C 
BRANCH 26 27
ATOM     27  NZ  LYS D   8      20.099-125.135 162.890  1.00 16.35 LIG-0.08  N 
ATOM     28 HZ2  LYS D   8      20.306-124.355 163.266  1.00 16.35 LIG 0.27  HD
ATOM     29 HZ3  LYS D   8      20.114-125.775 163.508  1.00 16.35 LIG 0.27  HD
ATOM     30 HZ1  LYS D   8      20.692-125.323 162.253  1.00 16.35 LIG 0.27  HD
ENDBRANCH 26 27
ENDBRANCH 25 26
ENDBRANCH 24 25
ENDBRANCH 23 24
ENDBRANCH 1 23
BRANCH 1 31
ATOM     31  N   LYS D   8      20.267-120.945 164.434  1.00 12.29 LIG-0.35  N 
ATOM     32  C   ARG D   7      20.167-120.036 165.404  1.00 12.18 LIG 0.26  C 
ATOM     33 O    ARG D   7      19.134-119.423 165.639  1.00 12.68 LIG-0.27  OA
ATOM     34 H    LYS D   8      20.995-121.363 164.244  1.00 12.29 LIG 0.16  HD
BRANCH 32 35
ATOM     35  CA  ARG D   7      21.420-119.778 166.237  1.00 18.47 LIG 0.40  C 
ATOM     36  N   ARG D   7      21.379-120.534 167.488  1.00 16.79 LIG 0.61  N 
BRANCH 35 37
ATOM     37  CB  ARG D   7      22.661-120.170 165.433  1.00 18.75 LIG 0.05  C 
BRANCH 37 38
ATOM     38  CG  ARG D   7      22.687-119.635 164.006  1.00 15.67 LIG 0.02  C 
BRANCH 38 39
ATOM     39  CD  ARG D   7      23.139-120.706 163.018  1.00 21.79 LIG 0.14  C 
BRANCH 39 40
ATOM     40  NE  ARG D   7      22.036-121.226 162.209  1.00 19.93 LIG-0.23  N 
ATOM     41  CZ  ARG D   7      22.186-122.060 161.182  1.00 19.53 LIG 0.67  C 
ATOM     42  NH2 ARG D   7      21.121-122.468 160.512  1.00 23.42 LIG-0.23  N 
ATOM     43  NH1 ARG D   7      23.390-122.486 160.825  1.00 23.45 LIG-0.23  N 
ATOM     44 2HH2 ARG D   7      21.212-123.006 159.848  1.00 23.42 LIG 0.17  HD
ATOM     45 1HH2 ARG D   7      20.339-122.194 160.740  1.00 23.42 LIG 0.17  HD
ATOM     46 2HH1 ARG D   7      23.475-123.025 160.160  1.00 23.45 LIG 0.17  HD
ATOM     47 1HH1 ARG D   7      24.084-122.223 161.258  1.00 23.45 LIG 0.17  HD
ATOM     48 HE   ARG D   7      21.239-120.976 162.411  1.00 19.93 LIG 0.18  HD
ENDBRANCH 39 40
ENDBRANCH 38 39
ENDBRANCH 37 38
ENDBRANCH 35 37
ENDBRANCH 32 35
ENDBRANCH 1 31
TORSDOF 20
ENDMDL
MODEL 37
USER: ADFR SOLUTION from run 121
USER: SCORE 17.163761 LL:  -1.751 LR: -16.893 RR:   0.000 FEB: -10.927
USER: RMSD 4.939082
USER: SEED 120
USER: STATUS no improvement in best in 4 clusters for 5 generations
USER: GENES 22
USER: genes 0 Translation |==|  0.35857 0.61064 0.45780
USER: genes 1 Rotation |==|  0.32148 0.60670 0.11614 0.74372
USER: genes 2 Torsion [N]-CA--C-[N] |==|  0.87853
USER: genes 3 Torsion [C]-N--CA-[CB] |==|  0.33954
USER: genes 4 Torsion [N]-CA--CB-[CG] |==|  0.61388
USER: genes 5 Torsion [CA]-CB--CG-[CD1] |==|  0.04306
USER: genes 6 Torsion [N]-CA--C-[N] |==|  0.87944
USER: genes 7 Torsion [C]-N--CA-[CB] |==|  0.51782
USER: genes 8 Torsion [N]-CA--C-[O] |==|  0.93550
USER: genes 9 Torsion [N]-CA--CB-[CG] |==|  0.69576
USER: genes 10 Torsion [CA]-CB--CG-[OD2] |==|  0.40353
USER: genes 11 Torsion [C]-CA--CB-[CG] |==|  0.27031
USER: genes 12 Torsion [CA]-CB--CG-[CD] |==|  0.73461
USER: genes 13 Torsion [CB]-CG--CD-[CE] |==|  0.24486
USER: genes 14 Torsion [CG]-CD--CE-[NZ] |==|  0.25759
USER: genes 15 Torsion [CD]-CE--NZ-[HZ2] |==|  0.11882
USER: genes 16 Torsion [C]-CA--N-[C] |==|  0.83786
USER: genes 17 Torsion [N]-C--CA-[N] |==|  0.92810
USER: genes 18 Torsion [C]-CA--CB-[CG] |==|  0.27293
USER: genes 19 Torsion [CA]-CB--CG-[CD] |==|  0.18518
USER: genes 20 Torsion [CB]-CG--CD-[NE] |==|  0.32254
USER: genes 21 Torsion [CG]-CD--NE-[CZ] |==|  0.38628
ROOT
ATOM      1  CA  LYS D   8      17.709-116.662 161.534  1.00 12.19 LIG 0.18  C 
ENDROOT
BRANCH 1 2
ATOM      2  C   LYS D   8      17.207-116.454 160.106  1.00 13.86 LIG 0.24  C 
ATOM      3 O    LYS D   8      16.020-116.202 159.890  1.00 13.19 LIG-0.27  OA
ATOM      4  N   LEU D   9      18.093-116.572 159.122  1.00 13.79 LIG-0.35  N 
ATOM      5 H    LEU D   9      18.925-116.755 159.234  1.00 13.79 LIG 0.16  HD
BRANCH 4 6
ATOM      6  CA  LEU D   9      17.686-116.387 157.735  1.00 13.45 LIG 0.18  C 
BRANCH 6 7
ATOM      7  CB  LEU D   9      18.504-115.271 157.084  1.00 15.24 LIG 0.04  C 
BRANCH 7 8
ATOM      8  CG  LEU D   9      17.728-114.321 156.171  1.00 15.65 LIG-0.02  C 
ATOM      9  CD1 LEU D   9      16.234-114.458 156.398  1.00 23.17 LIG 0.01  C 
ATOM     10  CD2 LEU D   9      18.168-112.896 156.439  1.00 23.01 LIG 0.01  C 
ENDBRANCH 7 8
ENDBRANCH 6 7
BRANCH 6 11
ATOM     11  C   LEU D   9      17.777-117.672 156.908  1.00 13.91 LIG 0.24  C 
ATOM     12  N   ASP D  10      18.865-118.417 157.077  1.00 15.10 LIG-0.34  N 
ATOM     13 H    ASP D  10      19.485-118.236 157.643  1.00 15.10 LIG 0.16  HD
ATOM     14 O    LEU D   9      16.865-117.984 156.140  1.00 14.13 LIG-0.27  OA
BRANCH 12 15
ATOM     15  CA  ASP D  10      19.099-119.634 156.297  1.00 14.88 LIG 0.20  C 
BRANCH 15 16
ATOM     16  C   ASP D  10      17.912-120.589 156.324  1.00 18.09 LIG 0.20  C 
ATOM     17 O    ASP D  10      17.100-120.538 157.249  1.00 15.20 LIG-0.65  OA
ATOM     18 OXT  ASP D  10      17.726-121.414 155.425  1.00 15.71 LIG-0.65  OA
ENDBRANCH 15 16
BRANCH 15 19
ATOM     19  CB  ASP D  10      20.340-120.374 156.806  1.00 14.49 LIG 0.15  C 
BRANCH 19 20
ATOM     20  CG  ASP D  10      21.504-120.304 155.837  1.00 20.14 LIG 0.17  C 
ATOM     21 OD2  ASP D  10      22.655-120.243 156.314  1.00 22.62 LIG-0.65  OA
ATOM     22 OD1  ASP D  10      21.272-120.322 154.609  1.00 23.52 LIG-0.65  OA
ENDBRANCH 19 20
ENDBRANCH 15 19
ENDBRANCH 12 15
ENDBRANCH 6 11
ENDBRANCH 4 6
ENDBRANCH 1 2
BRANCH 1 23
ATOM     23  CB  LYS D   8      18.407-115.385 162.012  1.00 14.93 LIG 0.04  C 
BRANCH 23 24
ATOM     24  CG  LYS D   8      17.533-114.473 162.847  1.00 16.49 LIG 0.00  C 
BRANCH 24 25
ATOM     25  CD  LYS D   8      16.913-113.401 161.985  1.00 20.48 LIG 0.03  C 
BRANCH 25 26
ATOM     26  CE  LYS D   8      15.599-113.856 161.385  1.00 18.72 LIG 0.23  C 
BRANCH 26 27
ATOM     27  NZ  LYS D   8      14.474-113.448 162.266  1.00 16.35 LIG-0.08  N 
ATOM     28 HZ2  LYS D   8      14.607-112.615 162.551  1.00 16.35 LIG 0.27  HD
ATOM     29 HZ3  LYS D   8      13.710-113.486 161.810  1.00 16.35 LIG 0.27  HD
ATOM     30 HZ1  LYS D   8      14.430-113.997 162.965  1.00 16.35 LIG 0.27  HD
ENDBRANCH 26 27
ENDBRANCH 25 26
ENDBRANCH 24 25
ENDBRANCH 23 24
ENDBRANCH 1 23
BRANCH 1 31
ATOM     31  N   LYS D   8      18.602-117.812 161.669  1.00 12.29 LIG-0.35  N 
ATOM     32  C   ARG D   7      18.222-119.047 161.339  1.00 12.18 LIG 0.26  C 
ATOM     33 O    ARG D   7      17.098-119.314 160.937  1.00 12.68 LIG-0.27  OA
ATOM     34 H    LYS D   8      19.382-117.618 161.976  1.00 12.29 LIG 0.16  HD
BRANCH 32 35
ATOM     35  CA  ARG D   7      19.269-120.149 161.482  1.00 18.47 LIG 0.40  C 
ATOM     36  N   ARG D   7      20.620-119.603 161.367  1.00 16.79 LIG 0.61  N 
BRANCH 35 37
ATOM     37  CB  ARG D   7      19.102-120.844 162.834  1.00 18.75 LIG 0.05  C 
BRANCH 37 38
ATOM     38  CG  ARG D   7      18.318-122.150 162.783  1.00 15.67 LIG 0.02  C 
BRANCH 38 39
ATOM     39  CD  ARG D   7      19.074-123.225 162.008  1.00 21.79 LIG 0.14  C 
BRANCH 39 40
ATOM     40  NE  ARG D   7      19.444-124.366 162.846  1.00 19.93 LIG-0.23  N 
ATOM     41  CZ  ARG D   7      19.368-125.638 162.460  1.00 19.53 LIG 0.67  C 
ATOM     42  NH2 ARG D   7      19.724-126.597 163.298  1.00 23.42 LIG-0.23  N 
ATOM     43  NH1 ARG D   7      18.941-125.953 161.244  1.00 23.45 LIG-0.23  N 
ATOM     44 2HH2 ARG D   7      19.677-127.420 163.054  1.00 23.42 LIG 0.17  HD
ATOM     45 1HH2 ARG D   7      20.001-126.397 164.086  1.00 23.42 LIG 0.17  HD
ATOM     46 2HH1 ARG D   7      18.897-126.777 161.004  1.00 23.45 LIG 0.17  HD
ATOM     47 1HH1 ARG D   7      18.710-125.332 160.696  1.00 23.45 LIG 0.17  HD
ATOM     48 HE   ARG D   7      19.729-124.204 163.641  1.00 19.93 LIG 0.18  HD
ENDBRANCH 39 40
ENDBRANCH 38 39
ENDBRANCH 37 38
ENDBRANCH 35 37
ENDBRANCH 32 35
ENDBRANCH 1 31
TORSDOF 20
ENDMDL
