MODEL 1
USER: ADFR SOLUTION from run 89
USER: SCORE 23.754469 LL:  -4.285 LR: -22.363 RR:   0.000 FEB: -13.414
USER: RMSD 5.618806
USER: SEED 88
USER: STATUS no improvement in best in 1 clusters for 5 generations
USER: GENES 32
USER: genes 0 Translation |==|  0.69457 0.56169 0.56175
USER: genes 1 Rotation |==|  0.50277 0.65169 0.46294 0.97498
USER: genes 2 Torsion [N]-C--CA-[N] |==|  0.00320
USER: genes 3 Torsion [C]-CA--N-[C] |==|  0.20726
USER: genes 4 Torsion [N]-C--CA-[N] |==|  0.83085
USER: genes 5 Torsion [C]-CA--N-[C] |==|  0.76727
USER: genes 6 Torsion [N]-C--CA-[N] |==|  0.61864
USER: genes 7 Torsion [C]-CA--N-[H3] |==|  0.46945
USER: genes 8 Torsion [C]-CA--CB-[OG1] |==|  0.78970
USER: genes 9 Torsion [CA]-CB--OG1-[HG1] |==|  0.76369
USER: genes 10 Torsion [C]-CA--CB-[CG] |==|  0.29278
USER: genes 11 Torsion [CA]-CB--CG-[CD1] |==|  0.11012
USER: genes 12 Torsion [C]-CA--CB-[CG] |==|  0.48049
USER: genes 13 Torsion [CA]-CB--CG-[CD] |==|  0.65084
USER: genes 14 Torsion [CB]-CG--CD-[CE] |==|  0.29110
USER: genes 15 Torsion [CG]-CD--CE-[NZ] |==|  0.30147
USER: genes 16 Torsion [CD]-CE--NZ-[HZ2] |==|  0.44939
USER: genes 17 Torsion [C]-N--CA-[CB] |==|  0.56667
USER: genes 18 Torsion [N]-CA--C-[N] |==|  0.80646
USER: genes 19 Torsion [C]-N--CA-[CB] |==|  0.38873
USER: genes 20 Torsion [N]-CA--CB-[CG2] |==|  0.64233
USER: genes 21 Torsion [CA]-CB--OG1-[HG1] |==|  0.77354
USER: genes 22 Torsion [N]-CA--C-[N] |==|  0.88758
USER: genes 23 Torsion [C]-N--CA-[C] |==|  0.86608
USER: genes 24 Torsion [N]-CA--C-[O] |==|  0.38973
USER: genes 25 Torsion [N]-CA--CB-[CG] |==|  0.15772
USER: genes 26 Torsion [CA]-CB--CG-[OD1] |==|  0.24257
USER: genes 27 Torsion [N]-CA--CB-[CG] |==|  0.56862
USER: genes 28 Torsion [CA]-CB--CG-[CD] |==|  0.09915
USER: genes 29 Torsion [CB]-CG--CD-[CE] |==|  0.51303
USER: genes 30 Torsion [CG]-CD--CE-[NZ] |==|  0.51256
USER: genes 31 Torsion [CD]-CE--NZ-[HZ2] |==|  0.77611
ROOT
ATOM      1  C   LYS C   3     -21.079 -10.452 -18.803  1.00 11.14 LIG 0.24  C 
ATOM      2 O    LYS C   3     -20.266 -10.307 -19.715  1.00 12.07 LIG-0.27  OA
ATOM      3  N   LYS C   4     -21.719 -11.593 -18.596  1.00 10.21 LIG-0.35  N 
ATOM      4 H    LYS C   4     -22.280 -11.716 -17.956  1.00 10.21 LIG 0.16  HD
ENDROOT
BRANCH 1 5
ATOM      5  CA  LYS C   3     -21.418  -9.301 -17.874  1.00 10.58 LIG 0.18  C 
BRANCH 5 6
ATOM      6  N   LYS C   3     -22.415  -9.705 -16.867  1.00  9.84 LIG-0.35  N 
ATOM      7 H    LYS C   3     -23.213  -9.411 -16.990  1.00  9.84 LIG 0.16  HD
ATOM      8  C   PHE C   2     -22.020 -10.484 -15.856  1.00 10.80 LIG 0.24  C 
ATOM      9 O    PHE C   2     -20.863 -10.909 -15.759  1.00 13.01 LIG-0.27  OA
BRANCH 8 10
ATOM     10  CA  PHE C   2     -23.058 -10.863 -14.797  1.00 15.48 LIG 0.18  C 
BRANCH 10 11
ATOM     11  N   PHE C   2     -23.556  -9.675 -14.154  1.00 17.78 LIG-0.35  N 
ATOM     12  C   THR C   1     -22.893  -9.125 -13.146  1.00 15.41 LIG 0.25  C 
ATOM     13 O    THR C   1     -21.873  -9.621 -12.671  1.00 17.69 LIG-0.27  OA
ATOM     14 H    PHE C   2     -24.294  -9.371 -14.475  1.00 17.78 LIG 0.16  HD
BRANCH 12 15
ATOM     15  CA  THR C   1     -23.440  -7.815 -12.611  1.00 18.75 LIG 0.30  C 
BRANCH 15 16
ATOM     16  N   THR C   1     -22.324  -6.873 -12.359  1.00 21.65 LIG-0.06  N 
ATOM     17 H2   THR C   1     -21.793  -6.844 -13.073  1.00 21.65 LIG 0.28  HD
ATOM     18 H1   THR C   1     -21.857  -7.148 -11.653  1.00 21.65 LIG 0.28  HD
ATOM     19 H3   THR C   1     -22.650  -6.061 -12.200  1.00 21.65 LIG 0.28  HD
ENDBRANCH 15 16
BRANCH 15 20
ATOM     20  CB  THR C   1     -24.380  -7.266 -13.678  1.00 20.13 LIG 0.15  C 
ATOM     21  CG2 THR C   1     -25.288  -6.172 -13.101  1.00 23.33 LIG 0.04  C 
BRANCH 20 22
ATOM     22 OG1  THR C   1     -23.591  -6.725 -14.742  1.00 16.75 LIG-0.39  OA
ATOM     23 HG1  THR C   1     -23.377  -5.933 -14.558  1.00 16.75 LIG 0.21  HD
ENDBRANCH 20 22
ENDBRANCH 15 20
ENDBRANCH 12 15
ENDBRANCH 10 11
BRANCH 10 24
ATOM     24  CB  PHE C   2     -24.196 -11.640 -15.439  1.00 17.75 LIG 0.07  C 
BRANCH 24 25
ATOM     25  CG  PHE C   2     -24.175 -13.116 -15.148  1.00 24.94 LIG-0.06  A 
ATOM     26  CD1 PHE C   2     -23.836 -13.589 -13.893  1.00 30.32 LIG 0.01  A 
ATOM     27  CE1 PHE C   2     -23.806 -14.960 -13.634  1.00 38.50 LIG 0.00  A 
ATOM     28  CZ  PHE C   2     -24.112 -15.855 -14.643  1.00 31.85 LIG 0.00  A 
ATOM     29  CE2 PHE C   2     -24.454 -15.388 -15.901  1.00 29.60 LIG 0.00  A 
ATOM     30  CD2 PHE C   2     -24.483 -14.027 -16.145  1.00 31.76 LIG 0.01  A 
ENDBRANCH 24 25
ENDBRANCH 10 24
ENDBRANCH 8 10
ENDBRANCH 5 6
BRANCH 5 31
ATOM     31  CB  LYS C   3     -20.139  -8.732 -17.238  1.00 13.67 LIG 0.04  C 
BRANCH 31 32
ATOM     32  CG  LYS C   3     -20.393  -7.459 -16.422  1.00 11.01 LIG 0.00  C 
BRANCH 32 33
ATOM     33  CD  LYS C   3     -19.499  -6.312 -16.877  1.00 13.71 LIG 0.03  C 
BRANCH 33 34
ATOM     34  CE  LYS C   3     -20.285  -5.293 -17.697  1.00 11.77 LIG 0.23  C 
BRANCH 34 35
ATOM     35  NZ  LYS C   3     -20.475  -4.037 -16.915  1.00 11.88 LIG-0.08  N 
ATOM     36 HZ1  LYS C   3     -19.720  -3.836 -16.488  1.00 11.88 LIG 0.27  HD
ATOM     37 HZ2  LYS C   3     -20.689  -3.373 -17.467  1.00 11.88 LIG 0.27  HD
ATOM     38 HZ3  LYS C   3     -21.128  -4.152 -16.322  1.00 11.88 LIG 0.27  HD
ENDBRANCH 34 35
ENDBRANCH 33 34
ENDBRANCH 32 33
ENDBRANCH 31 32
ENDBRANCH 5 31
ENDBRANCH 1 5
BRANCH 3 39
ATOM     39  CA  LYS C   4     -21.523 -12.750 -19.447  1.00 11.64 LIG 0.18  C 
BRANCH 39 40
ATOM     40  C   LYS C   4     -21.298 -12.334 -20.902  1.00 11.74 LIG 0.24  C 
ATOM     41 O    LYS C   4     -20.200 -12.460 -21.424  1.00 13.09 LIG-0.27  OA
ATOM     42  N   THR C   5     -22.332 -11.824 -21.563  1.00 10.35 LIG-0.34  N 
ATOM     43 H    THR C   5     -23.063 -11.553 -21.200  1.00 10.35 LIG 0.16  HD
BRANCH 42 44
ATOM     44  CA  THR C   5     -22.269 -11.694 -23.017  1.00 10.42 LIG 0.20  C 
BRANCH 44 45
ATOM     45  CB  THR C   5     -23.621 -12.062 -23.665  1.00 12.47 LIG 0.15  C 
ATOM     46  CG2 THR C   5     -23.413 -13.073 -24.766  1.00 14.12 LIG 0.04  C 
BRANCH 45 47
ATOM     47 OG1  THR C   5     -24.504 -12.584 -22.671  1.00 13.71 LIG-0.39  OA
ATOM     48 HG1  THR C   5     -24.329 -13.395 -22.538  1.00 13.71 LIG 0.21  HD
ENDBRANCH 45 47
ENDBRANCH 44 45
BRANCH 44 49
ATOM     49  C   THR C   5     -21.796 -10.361 -23.601  1.00  8.61 LIG 0.24  C 
ATOM     50 O    THR C   5     -21.049 -10.389 -24.576  1.00 10.36 LIG-0.27  OA
ATOM     51  N   ASN C   6     -22.215  -9.229 -23.026  1.00 11.14 LIG-0.34  N 
ATOM     52 H    ASN C   6     -22.706  -9.202 -22.321  1.00 11.14 LIG 0.16  HD
BRANCH 51 53
ATOM     53  CA  ASN C   6     -21.861  -7.924 -23.564  1.00 11.30 LIG 0.19  C 
BRANCH 53 54
ATOM     54  C   ASN C   6     -20.375  -7.825 -23.858  1.00 12.97 LIG 0.20  C 
ATOM     55 O    ASN C   6     -19.998  -7.236 -24.887  1.00 12.35 LIG-0.65  OA
ATOM     56 OXT  ASN C   6     -19.558  -8.373 -23.110  1.00 10.83 LIG-0.65  OA
ENDBRANCH 53 54
BRANCH 53 57
ATOM     57  CB  ASN C   6     -22.194  -6.820 -22.553  1.00 12.67 LIG 0.14  C 
BRANCH 57 58
ATOM     58  CG  ASN C   6     -21.517  -7.010 -21.201  1.00 14.94 LIG 0.22  C 
ATOM     59 OD1  ASN C   6     -20.389  -6.575 -20.988  1.00 14.04 LIG-0.27  OA
ATOM     60  ND2 ASN C   6     -22.221  -7.668 -20.281  1.00 17.84 LIG-0.37  N 
ATOM     61 21HD ASN C   6     -21.888  -7.803 -19.500  1.00 17.84 LIG 0.16  HD
ATOM     62 22HD ASN C   6     -23.009  -7.957 -20.469  1.00 17.84 LIG 0.16  HD
ENDBRANCH 57 58
ENDBRANCH 53 57
ENDBRANCH 51 53
ENDBRANCH 44 49
ENDBRANCH 42 44
ENDBRANCH 39 40
BRANCH 39 63
ATOM     63  CB  LYS C   4     -22.775 -13.635 -19.341  1.00 16.38 LIG 0.04  C 
BRANCH 63 64
ATOM     64  CG  LYS C   4     -22.606 -15.111 -19.646  1.00 24.16 LIG 0.00  C 
BRANCH 64 65
ATOM     65  CD  LYS C   4     -21.271 -15.567 -19.160  1.00 15.05 LIG 0.03  C 
BRANCH 65 66
ATOM     66  CE  LYS C   4     -20.937 -17.017 -19.512  1.00 12.97 LIG 0.23  C 
BRANCH 66 67
ATOM     67  NZ  LYS C   4     -19.624 -17.376 -18.872  1.00 11.01 LIG-0.08  N 
ATOM     68 HZ3  LYS C   4     -19.582 -17.016 -18.059  1.00 11.01 LIG 0.27  HD
ATOM     69 HZ2  LYS C   4     -18.956 -17.064 -19.370  1.00 11.01 LIG 0.27  HD
ATOM     70 HZ1  LYS C   4     -19.558 -18.261 -18.808  1.00 11.01 LIG 0.27  HD
ENDBRANCH 66 67
ENDBRANCH 65 66
ENDBRANCH 64 65
ENDBRANCH 63 64
ENDBRANCH 39 63
ENDBRANCH 3 39
TORSDOF 30
ENDMDL
MODEL 2
USER: ADFR SOLUTION from run 27
USER: SCORE 23.768943 LL:  -5.381 LR: -20.445 RR:   0.000 FEB: -11.496
USER: RMSD 6.139877
USER: SEED 26
USER: STATUS 1 or 2 clusters left
USER: GENES 32
USER: genes 0 Translation |==|  0.69499 0.53963 0.65145
USER: genes 1 Rotation |==|  0.66312 0.40251 0.33550 0.93224
USER: genes 2 Torsion [N]-C--CA-[N] |==|  0.79924
USER: genes 3 Torsion [C]-CA--N-[C] |==|  0.73526
USER: genes 4 Torsion [N]-C--CA-[N] |==|  0.12114
USER: genes 5 Torsion [C]-CA--N-[C] |==|  0.65775
USER: genes 6 Torsion [N]-C--CA-[N] |==|  0.43189
USER: genes 7 Torsion [C]-CA--N-[H3] |==|  0.33997
USER: genes 8 Torsion [C]-CA--CB-[OG1] |==|  0.61816
USER: genes 9 Torsion [CA]-CB--OG1-[HG1] |==|  0.56714
USER: genes 10 Torsion [C]-CA--CB-[CG] |==|  0.32131
USER: genes 11 Torsion [CA]-CB--CG-[CD1] |==|  0.32101
USER: genes 12 Torsion [C]-CA--CB-[CG] |==|  0.40062
USER: genes 13 Torsion [CA]-CB--CG-[CD] |==|  0.13898
USER: genes 14 Torsion [CB]-CG--CD-[CE] |==|  0.66790
USER: genes 15 Torsion [CG]-CD--CE-[NZ] |==|  0.59549
USER: genes 16 Torsion [CD]-CE--NZ-[HZ2] |==|  0.59685
USER: genes 17 Torsion [C]-N--CA-[CB] |==|  0.25208
USER: genes 18 Torsion [N]-CA--C-[N] |==|  0.45478
USER: genes 19 Torsion [C]-N--CA-[CB] |==|  0.82607
USER: genes 20 Torsion [N]-CA--CB-[CG2] |==|  0.34457
USER: genes 21 Torsion [CA]-CB--OG1-[HG1] |==|  0.25398
USER: genes 22 Torsion [N]-CA--C-[N] |==|  0.88895
USER: genes 23 Torsion [C]-N--CA-[C] |==|  0.87369
USER: genes 24 Torsion [N]-CA--C-[O] |==|  0.81681
USER: genes 25 Torsion [N]-CA--CB-[CG] |==|  0.04588
USER: genes 26 Torsion [CA]-CB--CG-[OD1] |==|  0.74873
USER: genes 27 Torsion [N]-CA--CB-[CG] |==|  0.64096
USER: genes 28 Torsion [CA]-CB--CG-[CD] |==|  0.64932
USER: genes 29 Torsion [CB]-CG--CD-[CE] |==|  0.60131
USER: genes 30 Torsion [CG]-CD--CE-[NZ] |==|  0.82160
USER: genes 31 Torsion [CD]-CE--NZ-[HZ2] |==|  0.31833
ROOT
ATOM      1  C   LYS C   3     -21.071 -10.916 -17.189  1.00 11.14 LIG 0.24  C 
ATOM      2 O    LYS C   3     -19.964 -11.433 -17.047  1.00 12.07 LIG-0.27  OA
ATOM      3  N   LYS C   4     -21.876 -11.224 -18.194  1.00 10.21 LIG-0.35  N 
ATOM      4 H    LYS C   4     -22.657 -10.883 -18.301  1.00 10.21 LIG 0.16  HD
ENDROOT
BRANCH 1 5
ATOM      5  CA  LYS C   3     -21.564  -9.856 -16.220  1.00 10.58 LIG 0.18  C 
BRANCH 5 6
ATOM      6  N   LYS C   3     -21.531  -8.517 -16.835  1.00  9.84 LIG-0.35  N 
ATOM      7 H    LYS C   3     -22.216  -8.304 -17.308  1.00  9.84 LIG 0.16  HD
ATOM      8  C   PHE C   2     -20.464  -7.742 -16.619  1.00 10.80 LIG 0.24  C 
ATOM      9 O    PHE C   2     -19.526  -8.092 -15.893  1.00 13.01 LIG-0.27  OA
BRANCH 8 10
ATOM     10  CA  PHE C   2     -20.426  -6.371 -17.297  1.00 15.48 LIG 0.18  C 
BRANCH 10 11
ATOM     11  N   PHE C   2     -21.712  -5.732 -17.180  1.00 17.78 LIG-0.35  N 
ATOM     12  C   THR C   1     -22.368  -5.337 -18.262  1.00 15.41 LIG 0.25  C 
ATOM     13 O    THR C   1     -21.902  -5.432 -19.395  1.00 17.69 LIG-0.27  OA
ATOM     14 H    PHE C   2     -21.997  -5.637 -16.374  1.00 17.78 LIG 0.16  HD
BRANCH 12 15
ATOM     15  CA  THR C   1     -23.762  -4.779 -18.040  1.00 18.75 LIG 0.30  C 
BRANCH 15 16
ATOM     16  N   THR C   1     -24.120  -3.873 -19.157  1.00 21.65 LIG-0.06  N 
ATOM     17 H2   THR C   1     -23.461  -3.863 -19.755  1.00 21.65 LIG 0.28  HD
ATOM     18 H1   THR C   1     -24.248  -3.050 -18.843  1.00 21.65 LIG 0.28  HD
ATOM     19 H3   THR C   1     -24.867  -4.161 -19.545  1.00 21.65 LIG 0.28  HD
ENDBRANCH 15 16
BRANCH 15 20
ATOM     20  CB  THR C   1     -24.707  -5.972 -17.985  1.00 20.13 LIG 0.15  C 
ATOM     21  CG2 THR C   1     -25.094  -6.302 -16.538  1.00 23.33 LIG 0.04  C 
BRANCH 20 22
ATOM     22 OG1  THR C   1     -25.884  -5.652 -18.736  1.00 16.75 LIG-0.39  OA
ATOM     23 HG1  THR C   1     -26.526  -6.118 -18.462  1.00 16.75 LIG 0.21  HD
ENDBRANCH 20 22
ENDBRANCH 15 20
ENDBRANCH 12 15
ENDBRANCH 10 11
BRANCH 10 24
ATOM     24  CB  PHE C   2     -19.343  -5.510 -16.666  1.00 17.75 LIG 0.07  C 
BRANCH 24 25
ATOM     25  CG  PHE C   2     -18.223  -5.145 -17.601  1.00 24.94 LIG-0.06  A 
ATOM     26  CD1 PHE C   2     -17.997  -3.828 -17.960  1.00 30.32 LIG 0.01  A 
ATOM     27  CE1 PHE C   2     -16.964  -3.498 -18.839  1.00 38.50 LIG 0.00  A 
ATOM     28  CZ  PHE C   2     -16.164  -4.496 -19.362  1.00 31.85 LIG 0.00  A 
ATOM     29  CE2 PHE C   2     -16.384  -5.816 -19.006  1.00 29.60 LIG 0.00  A 
ATOM     30  CD2 PHE C   2     -17.409  -6.131 -18.132  1.00 31.76 LIG 0.01  A 
ENDBRANCH 24 25
ENDBRANCH 10 24
ENDBRANCH 8 10
ENDBRANCH 5 6
BRANCH 5 31
ATOM     31  CB  LYS C   3     -22.959 -10.224 -15.689  1.00 13.67 LIG 0.04  C 
BRANCH 31 32
ATOM     32  CG  LYS C   3     -23.164  -9.823 -14.223  1.00 11.01 LIG 0.00  C 
BRANCH 32 33
ATOM     33  CD  LYS C   3     -22.772  -8.372 -13.977  1.00 13.71 LIG 0.03  C 
BRANCH 33 34
ATOM     34  CE  LYS C   3     -21.647  -8.273 -12.951  1.00 11.77 LIG 0.23  C 
BRANCH 34 35
ATOM     35  NZ  LYS C   3     -21.809  -7.044 -12.123  1.00 11.88 LIG-0.08  N 
ATOM     36 HZ1  LYS C   3     -22.244  -7.246 -11.373  1.00 11.88 LIG 0.27  HD
ATOM     37 HZ2  LYS C   3     -21.008  -6.715 -11.920  1.00 11.88 LIG 0.27  HD
ATOM     38 HZ3  LYS C   3     -22.272  -6.437 -12.580  1.00 11.88 LIG 0.27  HD
ENDBRANCH 34 35
ENDBRANCH 33 34
ENDBRANCH 32 33
ENDBRANCH 31 32
ENDBRANCH 5 31
ENDBRANCH 1 5
BRANCH 3 39
ATOM     39  CA  LYS C   4     -21.499 -12.181 -19.215  1.00 11.64 LIG 0.18  C 
BRANCH 39 40
ATOM     40  C   LYS C   4     -22.129 -11.828 -20.563  1.00 11.74 LIG 0.24  C 
ATOM     41 O    LYS C   4     -23.072 -11.053 -20.626  1.00 13.09 LIG-0.27  OA
ATOM     42  N   THR C   5     -21.623 -12.404 -21.649  1.00 10.35 LIG-0.34  N 
ATOM     43 H    THR C   5     -21.090 -13.079 -21.646  1.00 10.35 LIG 0.16  HD
BRANCH 42 44
ATOM     44  CA  THR C   5     -21.971 -11.888 -22.972  1.00 10.42 LIG 0.20  C 
BRANCH 44 45
ATOM     45  CB  THR C   5     -23.485 -12.022 -23.237  1.00 12.47 LIG 0.15  C 
ATOM     46  CG2 THR C   5     -24.076 -10.676 -23.582  1.00 14.12 LIG 0.04  C 
BRANCH 45 47
ATOM     47 OG1  THR C   5     -23.707 -12.949 -24.301  1.00 13.71 LIG-0.39  OA
ATOM     48 HG1  THR C   5     -23.810 -13.721 -23.983  1.00 13.71 LIG 0.21  HD
ENDBRANCH 45 47
ENDBRANCH 44 45
BRANCH 44 49
ATOM     49  C   THR C   5     -21.537 -10.464 -23.326  1.00  8.61 LIG 0.24  C 
ATOM     50 O    THR C   5     -21.123 -10.251 -24.462  1.00 10.36 LIG-0.27  OA
ATOM     51  N   ASN C   6     -21.628  -9.518 -22.385  1.00 11.14 LIG-0.34  N 
ATOM     52 H    ASN C   6     -21.881  -9.667 -21.577  1.00 11.14 LIG 0.16  HD
BRANCH 51 53
ATOM     53  CA  ASN C   6     -21.297  -8.129 -22.666  1.00 11.30 LIG 0.19  C 
BRANCH 53 54
ATOM     54  C   ASN C   6     -19.998  -8.010 -23.442  1.00 12.97 LIG 0.20  C 
ATOM     55 O    ASN C   6     -18.933  -8.351 -22.897  1.00 12.35 LIG-0.65  OA
ATOM     56 OXT  ASN C   6     -19.998  -7.528 -24.580  1.00 10.83 LIG-0.65  OA
ENDBRANCH 53 54
BRANCH 53 57
ATOM     57  CB  ASN C   6     -21.115  -7.347 -21.360  1.00 12.67 LIG 0.14  C 
BRANCH 57 58
ATOM     58  CG  ASN C   6     -20.921  -8.241 -20.140  1.00 14.94 LIG 0.22  C 
ATOM     59 OD1  ASN C   6     -21.878  -8.621 -19.472  1.00 14.04 LIG-0.27  OA
ATOM     60  ND2 ASN C   6     -19.664  -8.576 -19.854  1.00 17.84 LIG-0.37  N 
ATOM     61 21HD ASN C   6     -19.496  -9.079 -19.177  1.00 17.84 LIG 0.16  HD
ATOM     62 22HD ASN C   6     -19.020  -8.289 -20.346  1.00 17.84 LIG 0.16  HD
ENDBRANCH 57 58
ENDBRANCH 53 57
ENDBRANCH 51 53
ENDBRANCH 44 49
ENDBRANCH 42 44
ENDBRANCH 39 40
BRANCH 39 63
ATOM     63  CB  LYS C   4     -21.973 -13.571 -18.762  1.00 16.38 LIG 0.04  C 
BRANCH 63 64
ATOM     64  CG  LYS C   4     -20.954 -14.693 -18.790  1.00 24.16 LIG 0.00  C 
BRANCH 64 65
ATOM     65  CD  LYS C   4     -21.496 -15.835 -19.582  1.00 15.05 LIG 0.03  C 
BRANCH 65 66
ATOM     66  CE  LYS C   4     -21.115 -17.213 -19.040  1.00 12.97 LIG 0.23  C 
BRANCH 66 67
ATOM     67  NZ  LYS C   4     -19.623 -17.373 -19.140  1.00 11.01 LIG-0.08  N 
ATOM     68 HZ3  LYS C   4     -19.434 -18.115 -19.593  1.00 11.01 LIG 0.27  HD
ATOM     69 HZ2  LYS C   4     -19.275 -17.428 -18.322  1.00 11.01 LIG 0.27  HD
ATOM     70 HZ1  LYS C   4     -19.276 -16.671 -19.562  1.00 11.01 LIG 0.27  HD
ENDBRANCH 66 67
ENDBRANCH 65 66
ENDBRANCH 64 65
ENDBRANCH 63 64
ENDBRANCH 39 63
ENDBRANCH 3 39
TORSDOF 30
ENDMDL
