MODEL 1
USER: ADFR SOLUTION from run 24
USER: SCORE 24.488287 LL:  -4.750 LR: -22.587 RR:   0.000 FEB: -13.638
USER: RMSD 6.649953
USER: SEED 23
USER: STATUS 1 or 2 clusters left
USER: GENES 32
USER: genes 0 Translation |==|  0.65734 0.54224 0.51658
USER: genes 1 Rotation |==|  0.64088 0.53325 0.83959 0.83724
USER: genes 2 Torsion [N]-C--CA-[N] |==|  0.90185
USER: genes 3 Torsion [C]-CA--N-[C] |==|  0.80257
USER: genes 4 Torsion [N]-C--CA-[N] |==|  0.41187
USER: genes 5 Torsion [C]-CA--N-[C] |==|  0.22268
USER: genes 6 Torsion [N]-C--CA-[N] |==|  0.51594
USER: genes 7 Torsion [C]-CA--N-[H1] |==|  0.84099
USER: genes 8 Torsion [C]-CA--CB-[CG] |==|  0.31376
USER: genes 9 Torsion [CA]-CB--CG-[CD1] |==|  0.72690
USER: genes 10 Torsion [C]-CA--CB-[CG] |==|  0.40527
USER: genes 11 Torsion [CA]-CB--CG-[CD] |==|  0.17850
USER: genes 12 Torsion [CB]-CG--CD-[CE] |==|  0.23341
USER: genes 13 Torsion [CG]-CD--CE-[NZ] |==|  0.97733
USER: genes 14 Torsion [CD]-CE--NZ-[HZ2] |==|  0.47656
USER: genes 15 Torsion [C]-CA--CB-[CG2] |==|  0.96836
USER: genes 16 Torsion [CA]-CB--OG1-[HG1] |==|  0.50645
USER: genes 17 Torsion [C]-N--CA-[CB] |==|  0.79192
USER: genes 18 Torsion [N]-CA--CB-[CG] |==|  0.61900
USER: genes 19 Torsion [CA]-CB--CG-[CD] |==|  0.73326
USER: genes 20 Torsion [CB]-CG--CD-[CE] |==|  0.26240
USER: genes 21 Torsion [CG]-CD--CE-[NZ] |==|  0.42416
USER: genes 22 Torsion [CD]-CE--NZ-[HZ3] |==|  0.40515
USER: genes 23 Torsion [N]-CA--C-[N] |==|  0.68335
USER: genes 24 Torsion [C]-N--CA-[C] |==|  0.69171
USER: genes 25 Torsion [N]-CA--CB-[CG] |==|  0.71518
USER: genes 26 Torsion [CA]-CB--CG-[CD1] |==|  0.76152
USER: genes 27 Torsion [N]-CA--C-[N] |==|  0.75338
USER: genes 28 Torsion [C]-N--CA-[CB] |==|  0.41258
USER: genes 29 Torsion [N]-CA--CB-[CG] |==|  0.93409
USER: genes 30 Torsion [CA]-CB--CG-[CD2] |==|  0.21498
USER: genes 31 Torsion [N]-CA--C-[O] |==|  0.84427
ROOT
ATOM      1  C   THR B   3     -27.864 -18.084   7.370  1.00 25.84 LIG 0.24  C 
ATOM      2 O    THR B   3     -26.952 -17.454   7.804  1.00 21.55 LIG-0.27  OA
ATOM      3  N   LYS B   4     -29.111 -17.659   7.415  1.00 22.14 LIG-0.35  N 
ATOM      4 H    LYS B   4     -29.776 -18.110   7.109  1.00 22.14 LIG 0.16  HD
ENDROOT
BRANCH 1 5
ATOM      5  CA  THR B   3     -27.626 -19.435   6.692  1.00 27.73 LIG 0.20  C 
BRANCH 5 6
ATOM      6  N   THR B   3     -28.717 -20.319   6.951  1.00 40.69 LIG-0.34  N 
ATOM      7  C   LYS B   2     -28.894 -20.819   8.133  1.00 44.89 LIG 0.24  C 
ATOM      8 O    LYS B   2     -28.130 -20.629   9.030  1.00 60.56 LIG-0.27  OA
ATOM      9 H    THR B   3     -29.223 -20.479   6.274  1.00 40.69 LIG 0.16  HD
BRANCH 7 10
ATOM     10  CA  LYS B   2     -30.143 -21.647   8.320  1.00 29.71 LIG 0.18  C 
BRANCH 10 11
ATOM     11  N   LYS B   2     -29.876 -22.677   9.288  1.00 39.55 LIG-0.35  N 
ATOM     12 H    LYS B   2     -29.707 -23.450   8.952  1.00 39.55 LIG 0.16  HD
ATOM     13  C   LEU B   1     -29.898 -22.421  10.580  1.00 48.29 LIG 0.25  C 
ATOM     14 O    LEU B   1     -29.734 -21.340  10.989  1.00 42.73 LIG-0.27  OA
BRANCH 13 15
ATOM     15  CA  LEU B   1     -30.087 -23.564  11.607  1.00 50.99 LIG 0.28  C 
BRANCH 15 16
ATOM     16  N   LEU B   1     -30.235 -23.254  13.031  1.00 47.15 LIG-0.07  N 
ATOM     17 H3   LEU B   1     -30.295 -24.011  13.495  1.00 47.15 LIG 0.28  HD
ATOM     18 H2   LEU B   1     -30.974 -22.772  13.154  1.00 47.15 LIG 0.28  HD
ATOM     19 H1   LEU B   1     -29.529 -22.790  13.309  1.00 47.15 LIG 0.28  HD
ENDBRANCH 15 16
BRANCH 15 20
ATOM     20  CB  LEU B   1     -31.176 -24.484  11.097  1.00 20.00 LIG 0.05  C 
BRANCH 20 21
ATOM     21  CG  LEU B   1     -30.694 -25.847  10.718  1.00 20.00 LIG-0.02  C 
ATOM     22  CD1 LEU B   1     -30.440 -26.063   9.234  1.00 20.00 LIG 0.01  C 
ATOM     23  CD2 LEU B   1     -29.535 -26.321  11.538  1.00 20.00 LIG 0.01  C 
ENDBRANCH 20 21
ENDBRANCH 15 20
ENDBRANCH 13 15
ENDBRANCH 10 11
BRANCH 10 24
ATOM     24  CB  LYS B   2     -31.296 -20.725   8.715  1.00 39.10 LIG 0.04  C 
BRANCH 24 25
ATOM     25  CG  LYS B   2     -32.603 -21.194   8.157  1.00 49.91 LIG 0.00  C 
BRANCH 25 26
ATOM     26  CD  LYS B   2     -33.019 -22.513   8.706  1.00 34.11 LIG 0.03  C 
BRANCH 26 27
ATOM     27  CE  LYS B   2     -33.717 -22.382  10.009  1.00 29.48 LIG 0.23  C 
BRANCH 27 28
ATOM     28  NZ  LYS B   2     -33.684 -21.044  10.558  1.00 22.12 LIG-0.08  N 
ATOM     29 HZ2  LYS B   2     -34.217 -21.000  11.269  1.00 22.12 LIG 0.27  HD
ATOM     30 HZ1  LYS B   2     -33.962 -20.463   9.944  1.00 22.12 LIG 0.27  HD
ATOM     31 HZ3  LYS B   2     -32.851 -20.842  10.799  1.00 22.12 LIG 0.27  HD
ENDBRANCH 27 28
ENDBRANCH 26 27
ENDBRANCH 25 26
ENDBRANCH 24 25
ENDBRANCH 10 24
ENDBRANCH 7 10
ENDBRANCH 5 6
BRANCH 5 32
ATOM     32  CB  THR B   3     -27.371 -19.356   5.178  1.00 28.72 LIG 0.15  C 
ATOM     33  CG2 THR B   3     -27.672 -18.045   4.683  1.00 25.30 LIG 0.04  C 
BRANCH 32 34
ATOM     34 OG1  THR B   3     -26.018 -19.682   4.896  1.00 33.89 LIG-0.39  OA
ATOM     35 HG1  THR B   3     -25.878 -19.607   4.072  1.00 33.89 LIG 0.21  HD
ENDBRANCH 32 34
ENDBRANCH 5 32
ENDBRANCH 1 5
BRANCH 3 36
ATOM     36  CA  LYS B   4     -29.479 -16.385   7.986  1.00 23.55 LIG 0.18  C 
BRANCH 36 37
ATOM     37  CB  LYS B   4     -29.423 -16.431   9.488  1.00 17.52 LIG 0.04  C 
BRANCH 37 38
ATOM     38  CG  LYS B   4     -30.560 -15.770  10.208  1.00 21.24 LIG 0.00  C 
BRANCH 38 39
ATOM     39  CD  LYS B   4     -30.240 -14.352  10.627  1.00 20.05 LIG 0.03  C 
BRANCH 39 40
ATOM     40  CE  LYS B   4     -30.728 -13.353   9.591  1.00 29.11 LIG 0.23  C 
BRANCH 40 41
ATOM     41  NZ  LYS B   4     -31.029 -12.046  10.190  1.00 27.01 LIG-0.08  N 
ATOM     42 HZ3  LYS B   4     -30.829 -11.401   9.611  1.00 27.01 LIG 0.27  HD
ATOM     43 HZ1  LYS B   4     -31.895 -12.005  10.393  1.00 27.01 LIG 0.27  HD
ATOM     44 HZ2  LYS B   4     -30.546 -11.941  10.931  1.00 27.01 LIG 0.27  HD
ENDBRANCH 40 41
ENDBRANCH 39 40
ENDBRANCH 38 39
ENDBRANCH 37 38
ENDBRANCH 36 37
BRANCH 36 45
ATOM     45  C   LYS B   4     -28.571 -15.245   7.480  1.00 22.27 LIG 0.24  C 
ATOM     46  N   LEU B   5     -27.803 -14.679   8.377  1.00 20.84 LIG-0.35  N 
ATOM     47 H    LEU B   5     -27.793 -14.890   9.210  1.00 20.84 LIG 0.16  HD
ATOM     48 O    LYS B   4     -28.589 -14.902   6.340  1.00 21.40 LIG-0.27  OA
BRANCH 46 49
ATOM     49  CA  LEU B   5     -26.901 -13.636   8.013  1.00 17.17 LIG 0.18  C 
BRANCH 49 50
ATOM     50  CB  LEU B   5     -27.094 -12.443   8.896  1.00 24.05 LIG 0.04  C 
BRANCH 50 51
ATOM     51  CG  LEU B   5     -27.856 -11.331   8.266  1.00 29.68 LIG-0.02  C 
ATOM     52  CD1 LEU B   5     -26.843 -10.532   7.521  1.00 40.26 LIG 0.01  C 
ATOM     53  CD2 LEU B   5     -28.946 -11.842   7.400  1.00 27.30 LIG 0.01  C 
ENDBRANCH 50 51
ENDBRANCH 49 50
BRANCH 49 54
ATOM     54  C   LEU B   5     -25.459 -14.020   8.090  1.00 24.14 LIG 0.24  C 
ATOM     55  N   LEU B   6     -24.823 -13.853   9.224  1.00 19.58 LIG-0.34  N 
ATOM     56 H    LEU B   6     -25.157 -13.511   9.940  1.00 19.58 LIG 0.16  HD
ATOM     57 O    LEU B   5     -24.920 -14.426   7.131  1.00 22.75 LIG-0.27  OA
BRANCH 55 58
ATOM     58  CA  LEU B   6     -23.451 -14.266   9.308  1.00 30.46 LIG 0.18  C 
BRANCH 58 59
ATOM     59  CB  LEU B   6     -22.628 -13.399  10.275  1.00 23.52 LIG 0.04  C 
BRANCH 59 60
ATOM     60  CG  LEU B   6     -23.108 -12.002  10.565  1.00 29.01 LIG-0.02  C 
ATOM     61  CD2 LEU B   6     -24.259 -11.959  11.530  1.00 23.42 LIG 0.01  C 
ATOM     62  CD1 LEU B   6     -23.529 -11.322   9.302  1.00 27.14 LIG 0.01  C 
ENDBRANCH 59 60
ENDBRANCH 58 59
BRANCH 58 63
ATOM     63  C   LEU B   6     -23.323 -15.749   9.656  1.00 34.06 LIG 0.20  C 
ATOM     64 O    LEU B   6     -23.859 -16.129  10.654  1.00 28.47 LIG-0.65  OA
ATOM     65 OXT  LEU B   6     -22.710 -16.412   8.975  1.00 31.04 LIG-0.65  OA
ENDBRANCH 58 63
ENDBRANCH 55 58
ENDBRANCH 49 54
ENDBRANCH 46 49
ENDBRANCH 36 45
ENDBRANCH 3 36
TORSDOF 30
ENDMDL
MODEL 2
USER: ADFR SOLUTION from run 89
USER: SCORE 25.771937 LL:  -5.015 LR: -21.915 RR:   0.000 FEB: -12.966
USER: RMSD 7.455631
USER: SEED 88
USER: STATUS 1 or 2 clusters left
USER: GENES 32
USER: genes 0 Translation |==|  0.67220 0.55978 0.52423
USER: genes 1 Rotation |==|  0.66990 0.48176 0.83657 0.82790
USER: genes 2 Torsion [N]-C--CA-[N] |==|  0.91405
USER: genes 3 Torsion [C]-CA--N-[C] |==|  0.82222
USER: genes 4 Torsion [N]-C--CA-[N] |==|  0.23015
USER: genes 5 Torsion [C]-CA--N-[C] |==|  0.77322
USER: genes 6 Torsion [N]-C--CA-[N] |==|  0.49366
USER: genes 7 Torsion [C]-CA--N-[H1] |==|  0.23376
USER: genes 8 Torsion [C]-CA--CB-[CG] |==|  0.72640
USER: genes 9 Torsion [CA]-CB--CG-[CD1] |==|  0.25144
USER: genes 10 Torsion [C]-CA--CB-[CG] |==|  0.72664
USER: genes 11 Torsion [CA]-CB--CG-[CD] |==|  0.36511
USER: genes 12 Torsion [CB]-CG--CD-[CE] |==|  0.47309
USER: genes 13 Torsion [CG]-CD--CE-[NZ] |==|  0.45378
USER: genes 14 Torsion [CD]-CE--NZ-[HZ2] |==|  0.67391
USER: genes 15 Torsion [C]-CA--CB-[CG2] |==|  0.95667
USER: genes 16 Torsion [CA]-CB--OG1-[HG1] |==|  0.27042
USER: genes 17 Torsion [C]-N--CA-[CB] |==|  0.74002
USER: genes 18 Torsion [N]-CA--CB-[CG] |==|  0.61402
USER: genes 19 Torsion [CA]-CB--CG-[CD] |==|  0.80336
USER: genes 20 Torsion [CB]-CG--CD-[CE] |==|  0.27075
USER: genes 21 Torsion [CG]-CD--CE-[NZ] |==|  0.43167
USER: genes 22 Torsion [CD]-CE--NZ-[HZ3] |==|  0.13425
USER: genes 23 Torsion [N]-CA--C-[N] |==|  0.21836
USER: genes 24 Torsion [C]-N--CA-[C] |==|  0.17040
USER: genes 25 Torsion [N]-CA--CB-[CG] |==|  0.72577
USER: genes 26 Torsion [CA]-CB--CG-[CD1] |==|  0.84333
USER: genes 27 Torsion [N]-CA--C-[N] |==|  0.66408
USER: genes 28 Torsion [C]-N--CA-[CB] |==|  0.42773
USER: genes 29 Torsion [N]-CA--CB-[CG] |==|  0.09286
USER: genes 30 Torsion [CA]-CB--CG-[CD2] |==|  0.13063
USER: genes 31 Torsion [N]-CA--C-[O] |==|  0.88103
ROOT
ATOM      1  C   THR B   3     -27.529 -17.650   7.531  1.00 25.84 LIG 0.24  C 
ATOM      2 O    THR B   3     -26.620 -17.184   8.140  1.00 21.55 LIG-0.27  OA
ATOM      3  N   LYS B   4     -28.758 -17.179   7.610  1.00 22.14 LIG-0.35  N 
ATOM      4 H    LYS B   4     -29.423 -17.513   7.179  1.00 22.14 LIG 0.16  HD
ENDROOT
BRANCH 1 5
ATOM      5  CA  THR B   3     -27.309 -18.824   6.575  1.00 27.73 LIG 0.20  C 
BRANCH 5 6
ATOM      6  N   THR B   3     -28.487 -19.627   6.496  1.00 40.69 LIG-0.34  N 
ATOM      7  C   LYS B   2     -28.925 -20.259   7.539  1.00 44.89 LIG 0.24  C 
ATOM      8 O    LYS B   2     -28.341 -20.262   8.579  1.00 60.56 LIG-0.27  OA
ATOM      9 H    THR B   3     -28.860 -19.649   5.722  1.00 40.69 LIG 0.16  HD
BRANCH 7 10
ATOM     10  CA  LYS B   2     -30.241 -20.983   7.368  1.00 29.71 LIG 0.18  C 
BRANCH 10 11
ATOM     11  N   LYS B   2     -29.990 -22.263   6.761  1.00 39.55 LIG-0.35  N 
ATOM     12 H    LYS B   2     -29.956 -22.921   7.313  1.00 39.55 LIG 0.16  HD
ATOM     13  C   LEU B   1     -29.831 -22.380   5.459  1.00 48.29 LIG 0.25  C 
ATOM     14 O    LEU B   1     -30.264 -21.588   4.719  1.00 42.73 LIG-0.27  OA
BRANCH 13 15
ATOM     15  CA  LEU B   1     -29.110 -23.613   4.861  1.00 50.99 LIG 0.28  C 
BRANCH 15 16
ATOM     16  N   LEU B   1     -28.985 -23.756   3.409  1.00 47.15 LIG-0.07  N 
ATOM     17 H3   LEU B   1     -29.718 -23.442   3.015  1.00 47.15 LIG 0.28  HD
ATOM     18 H2   LEU B   1     -28.884 -24.617   3.203  1.00 47.15 LIG 0.28  HD
ATOM     19 H1   LEU B   1     -28.276 -23.299   3.126  1.00 47.15 LIG 0.28  HD
ENDBRANCH 15 16
BRANCH 15 20
ATOM     20  CB  LEU B   1     -27.787 -23.781   5.577  1.00 20.00 LIG 0.05  C 
BRANCH 20 21
ATOM     21  CG  LEU B   1     -26.618 -23.218   4.836  1.00 20.00 LIG-0.02  C 
ATOM     22  CD1 LEU B   1     -26.282 -21.768   5.145  1.00 20.00 LIG 0.01  C 
ATOM     23  CD2 LEU B   1     -25.397 -24.081   4.902  1.00 20.00 LIG 0.01  C 
ENDBRANCH 20 21
ENDBRANCH 15 20
ENDBRANCH 13 15
ENDBRANCH 10 11
BRANCH 10 24
ATOM     24  CB  LYS B   2     -30.933 -21.080   8.727  1.00 39.10 LIG 0.04  C 
BRANCH 24 25
ATOM     25  CG  LYS B   2     -30.713 -22.412   9.373  1.00 49.91 LIG 0.00  C 
BRANCH 25 26
ATOM     26  CD  LYS B   2     -30.279 -22.294  10.791  1.00 34.11 LIG 0.03  C 
BRANCH 26 27
ATOM     27  CE  LYS B   2     -30.285 -23.603  11.490  1.00 29.48 LIG 0.23  C 
BRANCH 27 28
ATOM     28  NZ  LYS B   2     -29.526 -23.610  12.723  1.00 22.12 LIG-0.08  N 
ATOM     29 HZ2  LYS B   2     -28.852 -24.186  12.653  1.00 22.12 LIG 0.27  HD
ATOM     30 HZ1  LYS B   2     -30.054 -23.853  13.396  1.00 22.12 LIG 0.27  HD
ATOM     31 HZ3  LYS B   2     -29.204 -22.794  12.879  1.00 22.12 LIG 0.27  HD
ENDBRANCH 27 28
ENDBRANCH 26 27
ENDBRANCH 25 26
ENDBRANCH 24 25
ENDBRANCH 10 24
ENDBRANCH 7 10
ENDBRANCH 5 6
BRANCH 5 32
ATOM     32  CB  THR B   3     -26.858 -18.424   5.161  1.00 28.72 LIG 0.15  C 
ATOM     33  CG2 THR B   3     -27.086 -17.028   4.934  1.00 25.30 LIG 0.04  C 
BRANCH 32 34
ATOM     34 OG1  THR B   3     -25.482 -18.726   4.987  1.00 33.89 LIG-0.39  OA
ATOM     35 HG1  THR B   3     -25.404 -19.465   4.595  1.00 33.89 LIG 0.21  HD
ENDBRANCH 32 34
ENDBRANCH 5 32
ENDBRANCH 1 5
BRANCH 3 36
ATOM     36  CA  LYS B   4     -29.106 -16.048   8.438  1.00 23.55 LIG 0.18  C 
BRANCH 36 37
ATOM     37  CB  LYS B   4     -29.581 -16.497   9.792  1.00 17.52 LIG 0.04  C 
BRANCH 37 38
ATOM     38  CG  LYS B   4     -30.759 -15.757  10.353  1.00 21.24 LIG 0.00  C 
BRANCH 38 39
ATOM     39  CD  LYS B   4     -30.417 -14.343  10.767  1.00 20.05 LIG 0.03  C 
BRANCH 39 40
ATOM     40  CE  LYS B   4     -30.795 -13.349   9.681  1.00 29.11 LIG 0.23  C 
BRANCH 40 41
ATOM     41  NZ  LYS B   4     -31.026 -12.005  10.227  1.00 27.01 LIG-0.08  N 
ATOM     42 HZ3  LYS B   4     -30.353 -11.783  10.765  1.00 27.01 LIG 0.27  HD
ATOM     43 HZ1  LYS B   4     -31.077 -11.419   9.559  1.00 27.01 LIG 0.27  HD
ATOM     44 HZ2  LYS B   4     -31.789 -11.998  10.686  1.00 27.01 LIG 0.27  HD
ENDBRANCH 40 41
ENDBRANCH 39 40
ENDBRANCH 38 39
ENDBRANCH 37 38
ENDBRANCH 36 37
BRANCH 36 45
ATOM     45  C   LYS B   4     -27.918 -15.079   8.614  1.00 22.27 LIG 0.24  C 
ATOM     46  N   LEU B   5     -27.678 -14.273   7.611  1.00 20.84 LIG-0.35  N 
ATOM     47 H    LEU B   5     -28.122 -14.268   6.875  1.00 20.84 LIG 0.16  HD
ATOM     48 O    LYS B   4     -27.259 -15.086   9.606  1.00 21.40 LIG-0.27  OA
BRANCH 46 49
ATOM     49  CA  LEU B   5     -26.624 -13.314   7.680  1.00 17.17 LIG 0.18  C 
BRANCH 49 50
ATOM     50  CB  LEU B   5     -26.843 -12.372   8.822  1.00 24.05 LIG 0.04  C 
BRANCH 50 51
ATOM     51  CG  LEU B   5     -27.450 -11.070   8.435  1.00 29.68 LIG-0.02  C 
ATOM     52  CD1 LEU B   5     -26.536 -10.502   7.404  1.00 40.26 LIG 0.01  C 
ATOM     53  CD2 LEU B   5     -28.841 -11.242   7.950  1.00 27.30 LIG 0.01  C 
ENDBRANCH 50 51
ENDBRANCH 49 50
BRANCH 49 54
ATOM     54  C   LEU B   5     -25.265 -13.911   7.848  1.00 24.14 LIG 0.24  C 
ATOM     55  N   LEU B   6     -24.557 -13.579   8.900  1.00 19.58 LIG-0.34  N 
ATOM     56 H    LEU B   6     -24.795 -13.016   9.506  1.00 19.58 LIG 0.16  HD
ATOM     57 O    LEU B   5     -24.847 -14.632   7.022  1.00 22.75 LIG-0.27  OA
BRANCH 55 58
ATOM     58  CA  LEU B   6     -23.271 -14.190   9.083  1.00 30.46 LIG 0.18  C 
BRANCH 58 59
ATOM     59  CB  LEU B   6     -22.312 -13.319   9.911  1.00 23.52 LIG 0.04  C 
BRANCH 59 60
ATOM     60  CG  LEU B   6     -22.892 -12.462  11.004  1.00 29.01 LIG-0.02  C 
ATOM     61  CD2 LEU B   6     -23.862 -13.198  11.883  1.00 23.42 LIG 0.01  C 
ATOM     62  CD1 LEU B   6     -23.592 -11.276  10.421  1.00 27.14 LIG 0.01  C 
ENDBRANCH 59 60
ENDBRANCH 58 59
BRANCH 58 63
ATOM     63  C   LEU B   6     -23.387 -15.594   9.674  1.00 34.06 LIG 0.20  C 
ATOM     64 O    LEU B   6     -24.166 -15.754  10.566  1.00 28.47 LIG-0.65  OA
ATOM     65 OXT  LEU B   6     -22.718 -16.409   9.265  1.00 31.04 LIG-0.65  OA
ENDBRANCH 58 63
ENDBRANCH 55 58
ENDBRANCH 49 54
ENDBRANCH 46 49
ENDBRANCH 36 45
ENDBRANCH 3 36
TORSDOF 30
ENDMDL
