MODEL 1
USER: ADFR SOLUTION from run 141
USER: SCORE 9.103046 LL:  -1.294 LR: -10.229 RR:   0.000 FEB:  -6.351
USER: RMSD 6.914221
USER: SEED 140
USER: STATUS no improvement in best in 7 clusters for 5 generations
USER: GENES 15
USER: genes 0 Translation |==|  0.48876 0.48974 0.59091
USER: genes 1 Rotation |==|  0.39498 0.94062 0.71168 0.50403
USER: genes 2 Torsion [C]-N--CA-[CB] |==|  0.48889
USER: genes 3 Torsion [N]-CA--C-[N] |==|  0.77225
USER: genes 4 Torsion [C]-N--CA-[C] |==|  0.80320
USER: genes 5 Torsion [N]-CA--C-[O] |==|  0.89448
USER: genes 6 Torsion [N]-CA--CB-[OG] |==|  0.43337
USER: genes 7 Torsion [CA]-CB--OG-[HG] |==|  0.88530
USER: genes 8 Torsion [N]-CA--CB-[CG2] |==|  0.59700
USER: genes 9 Torsion [CA]-CB--OG1-[HG1] |==|  0.14206
USER: genes 10 Torsion [N]-C--CA-[N] |==|  0.30948
USER: genes 11 Torsion [C]-CA--CB-[OG] |==|  0.53212
USER: genes 12 Torsion [CA]-CB--OG-[HG] |==|  0.98797
USER: genes 13 Torsion [C]-CA--N-[C] |==|  0.19855
USER: genes 14 Torsion [N]-C--CA-[N] |==|  0.36899
ROOT
ATOM      1  C   SER B  13      35.602 -12.547  -9.715  1.00 23.09 LIG 0.24  C 
ATOM      2 O    SER B  13      36.456 -12.856  -8.884  1.00 20.43 LIG-0.27  OA
ATOM      3  N   THR B  14      34.303 -12.770  -9.535  1.00 21.89 LIG-0.34  N 
ATOM      4 H    THR B  14      33.691 -12.536 -10.092  1.00 21.89 LIG 0.16  HD
ENDROOT
BRANCH 3 5
ATOM      5  CA  THR B  14      33.811 -13.448  -8.341  1.00 22.97 LIG 0.20  C 
BRANCH 5 6
ATOM      6  C   THR B  14      34.341 -14.874  -8.425  1.00 23.95 LIG 0.24  C 
ATOM      7  N   SER B  15      33.663 -15.729  -9.183  1.00 23.79 LIG-0.34  N 
ATOM      8 H    SER B  15      32.952 -15.530  -9.624  1.00 23.79 LIG 0.16  HD
ATOM      9 O    THR B  14      35.359 -15.192  -7.807  1.00 24.21 LIG-0.27  OA
BRANCH 7 10
ATOM     10  CA  SER B  15      34.100 -17.115  -9.316  1.00 24.78 LIG 0.19  C 
BRANCH 10 11
ATOM     11  C   SER B  15      35.376 -17.205 -10.141  1.00 26.56 LIG 0.22  C 
ATOM     12 O    SER B  15      35.461 -16.422 -11.111  1.00 28.00 LIG-0.29  OA
ENDBRANCH 10 11
BRANCH 10 13
ATOM     13  CB  SER B  15      33.008 -17.962  -9.975  1.00 23.87 LIG 0.20  C 
BRANCH 13 14
ATOM     14 OG   SER B  15      33.560 -19.107 -10.601  1.00 25.06 LIG-0.40  OA
ATOM     15 HG   SER B  15      34.271 -18.896 -10.996  1.00 25.06 LIG 0.21  HD
ENDBRANCH 13 14
ENDBRANCH 10 13
ENDBRANCH 7 10
ENDBRANCH 5 6
BRANCH 5 16
ATOM     16  CB  THR B  14      32.275 -13.503  -8.309  1.00 24.21 LIG 0.15  C 
ATOM     17  CG2 THR B  14      31.762 -13.379  -6.883  1.00 24.44 LIG 0.04  C 
BRANCH 16 18
ATOM     18 OG1  THR B  14      31.747 -12.432  -9.101  1.00 24.18 LIG-0.39  OA
ATOM     19 HG1  THR B  14      32.108 -12.440  -9.859  1.00 24.18 LIG 0.21  HD
ENDBRANCH 16 18
ENDBRANCH 5 16
ENDBRANCH 3 5
BRANCH 1 20
ATOM     20  CA  SER B  13      35.995 -11.870 -11.023  1.00 24.49 LIG 0.20  C 
BRANCH 20 21
ATOM     21  CB  SER B  13      37.084 -12.708 -11.698  1.00 26.86 LIG 0.20  C 
BRANCH 21 22
ATOM     22 OG   SER B  13      37.672 -11.994 -12.778  1.00 27.16 LIG-0.40  OA
ATOM     23 HG   SER B  13      37.270 -11.264 -12.883  1.00 27.16 LIG 0.21  HD
ENDBRANCH 21 22
ENDBRANCH 20 21
BRANCH 20 24
ATOM     24  N   SER B  13      36.486 -10.521 -10.759  1.00 26.25 LIG-0.34  N 
ATOM     25 H    SER B  13      35.952  -9.895 -11.009  1.00 26.25 LIG 0.16  HD
ATOM     26  C   ALA B  12      37.663 -10.305 -10.180  1.00 27.91 LIG 0.26  C 
ATOM     27 O    ALA B  12      38.418 -11.213  -9.831  1.00 29.06 LIG-0.27  OA
BRANCH 26 28
ATOM     28  CA  ALA B  12      38.055  -8.849  -9.960  1.00 28.19 LIG 0.40  C 
ATOM     29  N   ALA B  12      38.555  -8.663  -8.567  1.00 28.78 LIG 0.61  N 
ATOM     30  CB  ALA B  12      39.128  -8.436 -10.964  1.00 26.50 LIG 0.06  C 
ENDBRANCH 26 28
ENDBRANCH 20 24
ENDBRANCH 1 20
TORSDOF 13
ENDMDL
MODEL 2
USER: ADFR SOLUTION from run 100
USER: SCORE 9.721571 LL:  -1.624 LR:  -9.781 RR:   0.000 FEB:  -5.903
USER: RMSD 7.166593
USER: SEED 99
USER: STATUS no improvement in best in 7 clusters for 5 generations
USER: GENES 15
USER: genes 0 Translation |==|  0.71113 0.63748 0.49916
USER: genes 1 Rotation |==|  0.33030 0.82494 0.82588 0.59705
USER: genes 2 Torsion [C]-N--CA-[CB] |==|  0.38828
USER: genes 3 Torsion [N]-CA--C-[N] |==|  0.93112
USER: genes 4 Torsion [C]-N--CA-[C] |==|  0.82855
USER: genes 5 Torsion [N]-CA--C-[O] |==|  0.23200
USER: genes 6 Torsion [N]-CA--CB-[OG] |==|  0.16691
USER: genes 7 Torsion [CA]-CB--OG-[HG] |==|  0.75109
USER: genes 8 Torsion [N]-CA--CB-[CG2] |==|  0.65754
USER: genes 9 Torsion [CA]-CB--OG1-[HG1] |==|  0.17941
USER: genes 10 Torsion [N]-C--CA-[N] |==|  0.85064
USER: genes 11 Torsion [C]-CA--CB-[OG] |==|  0.69241
USER: genes 12 Torsion [CA]-CB--OG-[HG] |==|  0.27966
USER: genes 13 Torsion [C]-CA--N-[C] |==|  0.66121
USER: genes 14 Torsion [N]-C--CA-[N] |==|  0.19413
ROOT
ATOM      1  C   SER B  13      39.604 -10.331 -11.366  1.00 23.09 LIG 0.24  C 
ATOM      2 O    SER B  13      40.264 -11.070 -10.636  1.00 20.43 LIG-0.27  OA
ATOM      3  N   THR B  14      38.417 -10.671 -11.858  1.00 21.89 LIG-0.34  N 
ATOM      4 H    THR B  14      37.931 -10.156 -12.347  1.00 21.89 LIG 0.16  HD
ENDROOT
BRANCH 3 5
ATOM      5  CA  THR B  14      37.836 -11.983 -11.593  1.00 22.97 LIG 0.20  C 
BRANCH 5 6
ATOM      6  C   THR B  14      38.051 -12.795 -12.864  1.00 23.95 LIG 0.24  C 
ATOM      7  N   SER B  15      38.187 -12.120 -14.000  1.00 23.79 LIG-0.34  N 
ATOM      8 H    SER B  15      38.163 -11.263 -14.061  1.00 23.79 LIG 0.16  HD
ATOM      9 O    THR B  14      38.094 -14.027 -12.809  1.00 24.21 LIG-0.27  OA
BRANCH 7 10
ATOM     10  CA  SER B  15      38.393 -12.821 -15.263  1.00 24.78 LIG 0.19  C 
BRANCH 10 11
ATOM     11  C   SER B  15      39.685 -13.625 -15.234  1.00 26.56 LIG 0.22  C 
ATOM     12 O    SER B  15      39.617 -14.756 -14.708  1.00 28.00 LIG-0.29  OA
ENDBRANCH 10 11
BRANCH 10 13
ATOM     13  CB  SER B  15      38.438 -11.829 -16.428  1.00 23.87 LIG 0.20  C 
BRANCH 13 14
ATOM     14 OG   SER B  15      39.495 -10.899 -16.266  1.00 25.06 LIG-0.40  OA
ATOM     15 HG   SER B  15      39.218 -10.233 -15.835  1.00 25.06 LIG 0.21  HD
ENDBRANCH 13 14
ENDBRANCH 10 13
ENDBRANCH 7 10
ENDBRANCH 5 6
BRANCH 5 16
ATOM     16  CB  THR B  14      36.325 -11.894 -11.324  1.00 24.21 LIG 0.15  C 
ATOM     17  CG2 THR B  14      35.983 -12.498  -9.971  1.00 24.44 LIG 0.04  C 
BRANCH 16 18
ATOM     18 OG1  THR B  14      35.920 -10.520 -11.350  1.00 24.18 LIG-0.39  OA
ATOM     19 HG1  THR B  14      36.034 -10.209 -12.122  1.00 24.18 LIG 0.21  HD
ENDBRANCH 16 18
ENDBRANCH 5 16
ENDBRANCH 3 5
BRANCH 1 20
ATOM     20  CA  SER B  13      40.123  -8.950 -11.750  1.00 24.49 LIG 0.20  C 
BRANCH 20 21
ATOM     21  CB  SER B  13      39.224  -7.893 -11.102  1.00 26.86 LIG 0.20  C 
BRANCH 21 22
ATOM     22 OG   SER B  13      38.459  -7.210 -12.086  1.00 27.16 LIG-0.40  OA
ATOM     23 HG   SER B  13      37.679  -7.521 -12.101  1.00 27.16 LIG 0.21  HD
ENDBRANCH 21 22
ENDBRANCH 20 21
BRANCH 20 24
ATOM     24  N   SER B  13      40.114  -8.798 -13.201  1.00 26.25 LIG-0.34  N 
ATOM     25 H    SER B  13      39.342  -8.906 -13.564  1.00 26.25 LIG 0.16  HD
ATOM     26  C   ALA B  12      41.221  -8.518 -13.883  1.00 27.91 LIG 0.26  C 
ATOM     27 O    ALA B  12      42.321  -8.372 -13.350  1.00 29.06 LIG-0.27  OA
BRANCH 26 28
ATOM     28  CA  ALA B  12      41.072  -8.384 -15.393  1.00 28.19 LIG 0.40  C 
ATOM     29  N   ALA B  12      40.310  -7.143 -15.720  1.00 28.78 LIG 0.61  N 
ATOM     30  CB  ALA B  12      42.447  -8.345 -16.056  1.00 26.50 LIG 0.06  C 
ENDBRANCH 26 28
ENDBRANCH 20 24
ENDBRANCH 1 20
TORSDOF 13
ENDMDL
MODEL 3
USER: ADFR SOLUTION from run 134
USER: SCORE 10.774912 LL:  -1.569 LR:  -9.784 RR:   0.000 FEB:  -5.906
USER: RMSD 8.423152
USER: SEED 133
USER: STATUS no improvement in best in 3 clusters for 5 generations
USER: GENES 15
USER: genes 0 Translation |==|  0.79605 0.80610 0.41580
USER: genes 1 Rotation |==|  0.22277 0.89172 0.63811 0.52505
USER: genes 2 Torsion [C]-N--CA-[CB] |==|  0.22404
USER: genes 3 Torsion [N]-CA--C-[N] |==|  0.00193
USER: genes 4 Torsion [C]-N--CA-[C] |==|  0.81352
USER: genes 5 Torsion [N]-CA--C-[O] |==|  0.40825
USER: genes 6 Torsion [N]-CA--CB-[OG] |==|  0.06178
USER: genes 7 Torsion [CA]-CB--OG-[HG] |==|  0.81601
USER: genes 8 Torsion [N]-CA--CB-[CG2] |==|  0.65787
USER: genes 9 Torsion [CA]-CB--OG1-[HG1] |==|  0.20234
USER: genes 10 Torsion [N]-C--CA-[N] |==|  0.05863
USER: genes 11 Torsion [C]-CA--CB-[OG] |==|  0.89532
USER: genes 12 Torsion [CA]-CB--OG-[HG] |==|  0.15172
USER: genes 13 Torsion [C]-CA--N-[C] |==|  0.67778
USER: genes 14 Torsion [N]-C--CA-[N] |==|  0.15588
ROOT
ATOM      1  C   SER B  13      41.133  -7.801 -12.867  1.00 23.09 LIG 0.24  C 
ATOM      2 O    SER B  13      41.542  -7.519 -11.740  1.00 20.43 LIG-0.27  OA
ATOM      3  N   THR B  14      40.233  -8.754 -13.092  1.00 21.89 LIG-0.34  N 
ATOM      4 H    THR B  14      39.917  -8.945 -13.869  1.00 21.89 LIG 0.16  HD
ENDROOT
BRANCH 3 5
ATOM      5  CA  THR B  14      39.703  -9.567 -12.003  1.00 22.97 LIG 0.20  C 
BRANCH 5 6
ATOM      6  C   THR B  14      39.099 -10.800 -12.661  1.00 23.95 LIG 0.24  C 
ATOM      7  N   SER B  15      39.185 -10.885 -13.985  1.00 23.79 LIG-0.34  N 
ATOM      8 H    SER B  15      39.557 -10.294 -14.486  1.00 23.79 LIG 0.16  HD
ATOM      9 O    THR B  14      38.561 -11.668 -11.971  1.00 24.21 LIG-0.27  OA
BRANCH 7 10
ATOM     10  CA  SER B  15      38.629 -12.032 -14.695  1.00 24.78 LIG 0.19  C 
BRANCH 10 11
ATOM     11  C   SER B  15      39.401 -13.301 -14.366  1.00 26.56 LIG 0.22  C 
ATOM     12 O    SER B  15      38.737 -14.359 -14.347  1.00 28.00 LIG-0.29  OA
ENDBRANCH 10 11
BRANCH 10 13
ATOM     13  CB  SER B  15      38.661 -11.795 -16.207  1.00 23.87 LIG 0.20  C 
BRANCH 13 14
ATOM     14 OG   SER B  15      39.634 -10.824 -16.551  1.00 25.06 LIG-0.40  OA
ATOM     15 HG   SER B  15      39.407 -10.077 -16.240  1.00 25.06 LIG 0.21  HD
ENDBRANCH 13 14
ENDBRANCH 10 13
ENDBRANCH 7 10
ENDBRANCH 5 6
BRANCH 5 16
ATOM     16  CB  THR B  14      38.591  -8.834 -11.234  1.00 24.21 LIG 0.15  C 
ATOM     17  CG2 THR B  14      38.936  -8.734  -9.756  1.00 24.44 LIG 0.04  C 
BRANCH 16 18
ATOM     18 OG1  THR B  14      38.429  -7.518 -11.777  1.00 24.18 LIG-0.39  OA
ATOM     19 HG1  THR B  14      38.054  -7.569 -12.526  1.00 24.18 LIG 0.21  HD
ENDBRANCH 16 18
ENDBRANCH 5 16
ENDBRANCH 3 5
BRANCH 1 20
ATOM     20  CA  SER B  13      41.643  -7.052 -14.092  1.00 24.49 LIG 0.20  C 
BRANCH 20 21
ATOM     21  CB  SER B  13      41.820  -5.576 -13.723  1.00 26.86 LIG 0.20  C 
BRANCH 21 22
ATOM     22 OG   SER B  13      40.782  -5.146 -12.851  1.00 27.16 LIG-0.40  OA
ATOM     23 HG   SER B  13      40.752  -5.652 -12.181  1.00 27.16 LIG 0.21  HD
ENDBRANCH 21 22
ENDBRANCH 20 21
BRANCH 20 24
ATOM     24  N   SER B  13      40.693  -7.186 -15.191  1.00 26.25 LIG-0.34  N 
ATOM     25 H    SER B  13      39.925  -6.829 -15.042  1.00 26.25 LIG 0.16  HD
ATOM     26  C   ALA B  12      41.012  -7.813 -16.320  1.00 27.91 LIG 0.26  C 
ATOM     27 O    ALA B  12      42.116  -8.323 -16.518  1.00 29.06 LIG-0.27  OA
BRANCH 26 28
ATOM     28  CA  ALA B  12      39.929  -7.880 -17.389  1.00 28.19 LIG 0.40  C 
ATOM     29  N   ALA B  12      39.463  -6.503 -17.727  1.00 28.78 LIG 0.61  N 
ATOM     30  CB  ALA B  12      40.465  -8.575 -18.638  1.00 26.50 LIG 0.06  C 
ENDBRANCH 26 28
ENDBRANCH 20 24
ENDBRANCH 1 20
TORSDOF 13
ENDMDL
MODEL 4
USER: ADFR SOLUTION from run 147
USER: SCORE 9.456878 LL:  -0.993 LR:  -9.693 RR:   0.000 FEB:  -5.815
USER: RMSD 7.245769
USER: SEED 146
USER: STATUS no improvement in best in 6 clusters for 5 generations
USER: GENES 15
USER: genes 0 Translation |==|  0.57315 0.44397 0.49919
USER: genes 1 Rotation |==|  0.42343 0.35200 0.06119 0.67228
USER: genes 2 Torsion [C]-N--CA-[CB] |==|  0.18086
USER: genes 3 Torsion [N]-CA--C-[N] |==|  0.39144
USER: genes 4 Torsion [C]-N--CA-[C] |==|  0.51502
USER: genes 5 Torsion [N]-CA--C-[O] |==|  0.80056
USER: genes 6 Torsion [N]-CA--CB-[OG] |==|  0.03203
USER: genes 7 Torsion [CA]-CB--OG-[HG] |==|  0.19449
USER: genes 8 Torsion [N]-CA--CB-[CG2] |==|  0.39705
USER: genes 9 Torsion [CA]-CB--OG1-[HG1] |==|  0.55424
USER: genes 10 Torsion [N]-C--CA-[N] |==|  0.47221
USER: genes 11 Torsion [C]-CA--CB-[OG] |==|  0.16607
USER: genes 12 Torsion [CA]-CB--OG-[HG] |==|  0.69936
USER: genes 13 Torsion [C]-CA--N-[C] |==|  0.65626
USER: genes 14 Torsion [N]-C--CA-[N] |==|  0.92591
ROOT
ATOM      1  C   SER B  13      37.121 -13.233 -11.366  1.00 23.09 LIG 0.24  C 
ATOM      2 O    SER B  13      37.740 -13.447 -12.408  1.00 20.43 LIG-0.27  OA
ATOM      3  N   THR B  14      36.584 -14.203 -10.632  1.00 21.89 LIG-0.34  N 
ATOM      4 H    THR B  14      36.172 -14.074  -9.887  1.00 21.89 LIG 0.16  HD
ENDROOT
BRANCH 3 5
ATOM      5  CA  THR B  14      36.658 -15.599 -11.052  1.00 22.97 LIG 0.20  C 
BRANCH 5 6
ATOM      6  C   THR B  14      35.879 -16.388 -10.007  1.00 23.95 LIG 0.24  C 
ATOM      7  N   SER B  15      35.127 -17.393 -10.443  1.00 23.79 LIG-0.34  N 
ATOM      8 H    SER B  15      35.054 -17.623 -11.268  1.00 23.79 LIG 0.16  HD
ATOM      9 O    THR B  14      35.963 -16.086  -8.815  1.00 24.21 LIG-0.27  OA
BRANCH 7 10
ATOM     10  CA  SER B  15      34.346 -18.198  -9.510  1.00 24.78 LIG 0.19  C 
BRANCH 10 11
ATOM     11  C   SER B  15      33.676 -19.363 -10.225  1.00 26.56 LIG 0.22  C 
ATOM     12 O    SER B  15      32.722 -19.071 -10.976  1.00 28.00 LIG-0.29  OA
ENDBRANCH 10 11
BRANCH 10 13
ATOM     13  CB  SER B  15      33.279 -17.343  -8.822  1.00 23.87 LIG 0.20  C 
BRANCH 13 14
ATOM     14 OG   SER B  15      33.154 -16.080  -9.452  1.00 25.06 LIG-0.40  OA
ATOM     15 HG   SER B  15      32.804 -16.178 -10.210  1.00 25.06 LIG 0.21  HD
ENDBRANCH 13 14
ENDBRANCH 10 13
ENDBRANCH 7 10
ENDBRANCH 5 6
BRANCH 5 16
ATOM     16  CB  THR B  14      38.107 -16.113 -11.067  1.00 24.21 LIG 0.15  C 
ATOM     17  CG2 THR B  14      38.168 -17.560 -10.604  1.00 24.44 LIG 0.04  C 
BRANCH 16 18
ATOM     18 OG1  THR B  14      38.629 -16.015 -12.398  1.00 24.18 LIG-0.39  OA
ATOM     19 HG1  THR B  14      39.293 -16.523 -12.476  1.00 24.18 LIG 0.21  HD
ENDBRANCH 16 18
ENDBRANCH 5 16
ENDBRANCH 3 5
BRANCH 1 20
ATOM     20  CA  SER B  13      36.938 -11.813 -10.844  1.00 24.49 LIG 0.20  C 
BRANCH 20 21
ATOM     21  CB  SER B  13      35.461 -11.430 -10.975  1.00 26.86 LIG 0.20  C 
BRANCH 21 22
ATOM     22 OG   SER B  13      34.642 -12.319 -10.226  1.00 27.16 LIG-0.40  OA
ATOM     23 HG   SER B  13      34.216 -12.817 -10.751  1.00 27.16 LIG 0.21  HD
ENDBRANCH 21 22
ENDBRANCH 20 21
BRANCH 20 24
ATOM     24  N   SER B  13      37.769 -10.889 -11.609  1.00 26.25 LIG-0.34  N 
ATOM     25 H    SER B  13      37.628 -10.904 -12.457  1.00 26.25 LIG 0.16  HD
ATOM     26  C   ALA B  12      38.664 -10.100 -11.020  1.00 27.91 LIG 0.26  C 
ATOM     27 O    ALA B  12      38.858 -10.092  -9.804  1.00 29.06 LIG-0.27  OA
BRANCH 26 28
ATOM     28  CA  ALA B  12      39.463  -9.180 -11.935  1.00 28.19 LIG 0.40  C 
ATOM     29  N   ALA B  12      39.554  -9.775 -13.300  1.00 28.78 LIG 0.61  N 
ATOM     30  CB  ALA B  12      38.804  -7.805 -12.004  1.00 26.50 LIG 0.06  C 
ENDBRANCH 26 28
ENDBRANCH 20 24
ENDBRANCH 1 20
TORSDOF 13
ENDMDL
MODEL 5
USER: ADFR SOLUTION from run 107
USER: SCORE 10.535869 LL:  -1.532 LR:  -9.649 RR:   0.000 FEB:  -5.771
USER: RMSD 7.681690
USER: SEED 106
USER: STATUS no improvement in best in 4 clusters for 5 generations
USER: GENES 15
USER: genes 0 Translation |==|  0.52052 0.48038 0.53510
USER: genes 1 Rotation |==|  0.10443 0.69670 0.30857 0.63486
USER: genes 2 Torsion [C]-N--CA-[CB] |==|  0.51884
USER: genes 3 Torsion [N]-CA--C-[N] |==|  0.42229
USER: genes 4 Torsion [C]-N--CA-[C] |==|  0.66111
USER: genes 5 Torsion [N]-CA--C-[O] |==|  0.78770
USER: genes 6 Torsion [N]-CA--CB-[OG] |==|  0.91402
USER: genes 7 Torsion [CA]-CB--OG-[HG] |==|  0.02460
USER: genes 8 Torsion [N]-CA--CB-[CG2] |==|  0.29280
USER: genes 9 Torsion [CA]-CB--OG1-[HG1] |==|  0.45493
USER: genes 10 Torsion [N]-C--CA-[N] |==|  0.26448
USER: genes 11 Torsion [C]-CA--CB-[OG] |==|  0.55684
USER: genes 12 Torsion [CA]-CB--OG-[HG] |==|  0.36712
USER: genes 13 Torsion [C]-CA--N-[C] |==|  0.75530
USER: genes 14 Torsion [N]-C--CA-[N] |==|  0.23128
ROOT
ATOM      1  C   SER B  13      36.173 -12.687 -10.719  1.00 23.09 LIG 0.24  C 
ATOM      2 O    SER B  13      35.054 -12.184 -10.627  1.00 20.43 LIG-0.27  OA
ATOM      3  N   THR B  14      36.397 -13.988 -10.560  1.00 21.89 LIG-0.34  N 
ATOM      4 H    THR B  14      37.167 -14.360 -10.648  1.00 21.89 LIG 0.16  HD
ENDROOT
BRANCH 3 5
ATOM      5  CA  THR B  14      35.315 -14.904 -10.214  1.00 22.97 LIG 0.20  C 
BRANCH 5 6
ATOM      6  C   THR B  14      34.692 -14.348  -8.940  1.00 23.95 LIG 0.24  C 
ATOM      7  N   SER B  15      33.408 -14.615  -8.726  1.00 23.79 LIG-0.34  N 
ATOM      8 H    SER B  15      32.913 -15.077  -9.255  1.00 23.79 LIG 0.16  HD
ATOM      9 O    THR B  14      35.375 -13.684  -8.157  1.00 24.21 LIG-0.27  OA
BRANCH 7 10
ATOM     10  CA  SER B  15      32.733 -14.118  -7.532  1.00 24.78 LIG 0.19  C 
BRANCH 10 11
ATOM     11  C   SER B  15      32.149 -15.265  -6.721  1.00 26.56 LIG 0.22  C 
ATOM     12 O    SER B  15      31.097 -15.773  -7.164  1.00 28.00 LIG-0.29  OA
ENDBRANCH 10 11
BRANCH 10 13
ATOM     13  CB  SER B  15      31.616 -13.143  -7.911  1.00 23.87 LIG 0.20  C 
BRANCH 13 14
ATOM     14 OG   SER B  15      31.933 -12.442  -9.101  1.00 25.06 LIG-0.40  OA
ATOM     15 HG   SER B  15      32.622 -12.775  -9.448  1.00 25.06 LIG 0.21  HD
ENDBRANCH 13 14
ENDBRANCH 10 13
ENDBRANCH 7 10
ENDBRANCH 5 6
BRANCH 5 16
ATOM     16  CB  THR B  14      35.839 -16.320  -9.920  1.00 24.21 LIG 0.15  C 
ATOM     17  CG2 THR B  14      35.815 -16.602  -8.426  1.00 24.44 LIG 0.04  C 
BRANCH 16 18
ATOM     18 OG1  THR B  14      35.020 -17.278 -10.600  1.00 24.18 LIG-0.39  OA
ATOM     19 HG1  THR B  14      35.419 -18.017 -10.630  1.00 24.18 LIG 0.21  HD
ENDBRANCH 16 18
ENDBRANCH 5 16
ENDBRANCH 3 5
BRANCH 1 20
ATOM     20  CA  SER B  13      37.392 -11.828 -11.035  1.00 24.49 LIG 0.20  C 
BRANCH 20 21
ATOM     21  CB  SER B  13      37.227 -10.473 -10.340  1.00 26.86 LIG 0.20  C 
BRANCH 21 22
ATOM     22 OG   SER B  13      38.053  -9.490 -10.951  1.00 27.16 LIG-0.40  OA
ATOM     23 HG   SER B  13      37.603  -8.796 -11.096  1.00 27.16 LIG 0.21  HD
ENDBRANCH 21 22
ENDBRANCH 20 21
BRANCH 20 24
ATOM     24  N   SER B  13      37.513 -11.644 -12.478  1.00 26.25 LIG-0.34  N 
ATOM     25 H    SER B  13      37.120 -10.940 -12.779  1.00 26.25 LIG 0.16  HD
ATOM     26  C   ALA B  12      38.179 -12.506 -13.241  1.00 27.91 LIG 0.26  C 
ATOM     27 O    ALA B  12      38.732 -13.511 -12.795  1.00 29.06 LIG-0.27  OA
BRANCH 26 28
ATOM     28  CA  ALA B  12      38.231 -12.194 -14.731  1.00 28.19 LIG 0.40  C 
ATOM     29  N   ALA B  12      39.329 -11.222 -15.008  1.00 28.78 LIG 0.61  N 
ATOM     30  CB  ALA B  12      38.451 -13.476 -15.529  1.00 26.50 LIG 0.06  C 
ENDBRANCH 26 28
ENDBRANCH 20 24
ENDBRANCH 1 20
TORSDOF 13
ENDMDL
MODEL 6
USER: ADFR SOLUTION from run 32
USER: SCORE 10.031944 LL:  -1.422 LR:  -9.643 RR:   0.000 FEB:  -5.766
USER: RMSD 7.835567
USER: SEED 31
USER: STATUS no improvement in best in 5 clusters for 5 generations
USER: GENES 15
USER: genes 0 Translation |==|  0.50845 0.27926 0.50901
USER: genes 1 Rotation |==|  0.14738 0.80264 0.31664 0.52113
USER: genes 2 Torsion [C]-N--CA-[CB] |==|  0.52783
USER: genes 3 Torsion [N]-CA--C-[N] |==|  0.31521
USER: genes 4 Torsion [C]-N--CA-[C] |==|  0.62071
USER: genes 5 Torsion [N]-CA--C-[O] |==|  0.89139
USER: genes 6 Torsion [N]-CA--CB-[OG] |==|  0.12306
USER: genes 7 Torsion [CA]-CB--OG-[HG] |==|  0.97434
USER: genes 8 Torsion [N]-CA--CB-[CG2] |==|  0.43993
USER: genes 9 Torsion [CA]-CB--OG1-[HG1] |==|  0.16533
USER: genes 10 Torsion [N]-C--CA-[N] |==|  0.52733
USER: genes 11 Torsion [C]-CA--CB-[OG] |==|  0.50222
USER: genes 12 Torsion [CA]-CB--OG-[HG] |==|  0.34987
USER: genes 13 Torsion [C]-CA--N-[C] |==|  0.60153
USER: genes 14 Torsion [N]-C--CA-[N] |==|  0.63175
ROOT
ATOM      1  C   SER B  13      35.956 -15.704 -11.189  1.00 23.09 LIG 0.24  C 
ATOM      2 O    SER B  13      35.342 -14.659 -10.979  1.00 20.43 LIG-0.27  OA
ATOM      3  N   THR B  14      35.503 -16.897 -10.816  1.00 21.89 LIG-0.34  N 
ATOM      4 H    THR B  14      35.906 -17.639 -10.979  1.00 21.89 LIG 0.16  HD
ENDROOT
BRANCH 3 5
ATOM      5  CA  THR B  14      34.250 -17.034 -10.082  1.00 22.97 LIG 0.20  C 
BRANCH 5 6
ATOM      6  C   THR B  14      34.361 -16.089  -8.892  1.00 23.95 LIG 0.24  C 
ATOM      7  N   SER B  15      33.540 -15.045  -8.869  1.00 23.79 LIG-0.34  N 
ATOM      8 H    SER B  15      32.956 -14.872  -9.476  1.00 23.79 LIG 0.16  HD
ATOM      9 O    THR B  14      35.186 -16.310  -8.003  1.00 24.21 LIG-0.27  OA
BRANCH 7 10
ATOM     10  CA  SER B  15      33.582 -14.088  -7.768  1.00 24.78 LIG 0.19  C 
BRANCH 10 11
ATOM     11  C   SER B  15      32.177 -13.721  -7.313  1.00 26.56 LIG 0.22  C 
ATOM     12 O    SER B  15      31.324 -13.584  -8.216  1.00 28.00 LIG-0.29  OA
ENDBRANCH 10 11
BRANCH 10 13
ATOM     13  CB  SER B  15      34.329 -12.819  -8.185  1.00 23.87 LIG 0.20  C 
BRANCH 13 14
ATOM     14 OG   SER B  15      33.929 -12.393  -9.476  1.00 25.06 LIG-0.40  OA
ATOM     15 HG   SER B  15      33.447 -12.984  -9.830  1.00 25.06 LIG 0.21  HD
ENDBRANCH 13 14
ENDBRANCH 10 13
ENDBRANCH 7 10
ENDBRANCH 5 6
BRANCH 5 16
ATOM     16  CB  THR B  14      34.055 -18.464  -9.548  1.00 24.21 LIG 0.15  C 
ATOM     17  CG2 THR B  14      33.077 -18.475  -8.384  1.00 24.44 LIG 0.04  C 
BRANCH 16 18
ATOM     18 OG1  THR B  14      33.554 -19.297 -10.601  1.00 24.18 LIG-0.39  OA
ATOM     19 HG1  THR B  14      34.100 -19.300 -11.239  1.00 24.18 LIG 0.21  HD
ENDBRANCH 16 18
ENDBRANCH 5 16
ENDBRANCH 3 5
BRANCH 1 20
ATOM     20  CA  SER B  13      37.298 -15.688 -11.911  1.00 24.49 LIG 0.20  C 
BRANCH 20 21
ATOM     21  CB  SER B  13      38.299 -16.518 -11.101  1.00 26.86 LIG 0.20  C 
BRANCH 21 22
ATOM     22 OG   SER B  13      39.576 -16.519 -11.726  1.00 27.16 LIG-0.40  OA
ATOM     23 HG   SER B  13      40.157 -16.266 -11.175  1.00 27.16 LIG 0.21  HD
ENDBRANCH 21 22
ENDBRANCH 20 21
BRANCH 20 24
ATOM     24  N   SER B  13      37.775 -14.316 -12.048  1.00 26.25 LIG-0.34  N 
ATOM     25 H    SER B  13      37.597 -13.810 -11.376  1.00 26.25 LIG 0.16  HD
ATOM     26  C   ALA B  12      38.429 -13.907 -13.132  1.00 27.91 LIG 0.26  C 
ATOM     27 O    ALA B  12      38.674 -14.643 -14.088  1.00 29.06 LIG-0.27  OA
BRANCH 26 28
ATOM     28  CA  ALA B  12      38.875 -12.450 -13.146  1.00 28.19 LIG 0.40  C 
ATOM     29  N   ALA B  12      38.510 -11.820 -14.449  1.00 28.78 LIG 0.61  N 
ATOM     30  CB  ALA B  12      38.223 -11.689 -11.995  1.00 26.50 LIG 0.06  C 
ENDBRANCH 26 28
ENDBRANCH 20 24
ENDBRANCH 1 20
TORSDOF 13
ENDMDL
MODEL 7
USER: ADFR SOLUTION from run 1
USER: SCORE 9.705933 LL:  -1.378 LR:  -9.619 RR:   0.000 FEB:  -5.741
USER: RMSD 8.336438
USER: SEED 438328
USER: STATUS no improvement in best in 11 clusters for 5 generations
USER: GENES 15
USER: genes 0 Translation |==|  0.43046 0.31507 0.63133
USER: genes 1 Rotation |==|  0.59845 0.95762 0.66466 0.56144
USER: genes 2 Torsion [C]-N--CA-[CB] |==|  0.21942
USER: genes 3 Torsion [N]-CA--C-[N] |==|  0.47885
USER: genes 4 Torsion [C]-N--CA-[C] |==|  0.70393
USER: genes 5 Torsion [N]-CA--C-[O] |==|  0.37656
USER: genes 6 Torsion [N]-CA--CB-[OG] |==|  0.66851
USER: genes 7 Torsion [CA]-CB--OG-[HG] |==|  0.80391
USER: genes 8 Torsion [N]-CA--CB-[CG2] |==|  0.65293
USER: genes 9 Torsion [CA]-CB--OG1-[HG1] |==|  0.13391
USER: genes 10 Torsion [N]-C--CA-[N] |==|  0.23675
USER: genes 11 Torsion [C]-CA--CB-[OG] |==|  0.15863
USER: genes 12 Torsion [CA]-CB--OG-[HG] |==|  0.47701
USER: genes 13 Torsion [C]-CA--N-[C] |==|  0.78889
USER: genes 14 Torsion [N]-C--CA-[N] |==|  0.43237
ROOT
ATOM      1  C   SER B  13      34.552 -15.167  -8.987  1.00 23.09 LIG 0.24  C 
ATOM      2 O    SER B  13      35.003 -15.945  -8.147  1.00 20.43 LIG-0.27  OA
ATOM      3  N   THR B  14      33.570 -14.310  -8.726  1.00 21.89 LIG-0.34  N 
ATOM      4 H    THR B  14      33.262 -13.741  -9.293  1.00 21.89 LIG 0.16  HD
ENDROOT
BRANCH 3 5
ATOM      5  CA  THR B  14      32.925 -14.275  -7.418  1.00 22.97 LIG 0.20  C 
BRANCH 5 6
ATOM      6  C   THR B  14      31.622 -13.512  -7.617  1.00 23.95 LIG 0.24  C 
ATOM      7  N   SER B  15      30.775 -13.480  -6.594  1.00 23.79 LIG-0.34  N 
ATOM      8 H    SER B  15      30.917 -13.856  -5.834  1.00 23.79 LIG 0.16  HD
ATOM      9 O    THR B  14      31.389 -12.958  -8.694  1.00 24.21 LIG-0.27  OA
BRANCH 7 10
ATOM     10  CA  SER B  15      29.503 -12.774  -6.702  1.00 24.78 LIG 0.19  C 
BRANCH 10 11
ATOM     11  C   SER B  15      29.531 -11.477  -5.907  1.00 26.56 LIG 0.22  C 
ATOM     12 O    SER B  15      29.053 -10.472  -6.475  1.00 28.00 LIG-0.29  OA
ENDBRANCH 10 11
BRANCH 10 13
ATOM     13  CB  SER B  15      28.355 -13.653  -6.199  1.00 23.87 LIG 0.20  C 
BRANCH 13 14
ATOM     14 OG   SER B  15      27.409 -13.893  -7.226  1.00 25.06 LIG-0.40  OA
ATOM     15 HG   SER B  15      26.987 -13.185  -7.390  1.00 25.06 LIG 0.21  HD
ENDBRANCH 13 14
ENDBRANCH 10 13
ENDBRANCH 7 10
ENDBRANCH 5 6
BRANCH 5 16
ATOM     16  CB  THR B  14      33.776 -13.518  -6.384  1.00 24.21 LIG 0.15  C 
ATOM     17  CG2 THR B  14      34.039 -14.388  -5.164  1.00 24.44 LIG 0.04  C 
BRANCH 16 18
ATOM     18 OG1  THR B  14      35.023 -13.143  -6.981  1.00 24.18 LIG-0.39  OA
ATOM     19 HG1  THR B  14      34.880 -12.786  -7.728  1.00 24.18 LIG 0.21  HD
ENDBRANCH 16 18
ENDBRANCH 5 16
ENDBRANCH 3 5
BRANCH 1 20
ATOM     20  CA  SER B  13      35.114 -15.138 -10.404  1.00 24.49 LIG 0.20  C 
BRANCH 20 21
ATOM     21  CB  SER B  13      35.704 -16.514 -10.724  1.00 26.86 LIG 0.20  C 
BRANCH 21 22
ATOM     22 OG   SER B  13      34.723 -17.532 -10.570  1.00 27.16 LIG-0.40  OA
ATOM     23 HG   SER B  13      35.028 -18.260 -10.857  1.00 27.16 LIG 0.21  HD
ENDBRANCH 21 22
ENDBRANCH 20 21
BRANCH 20 24
ATOM     24  N   SER B  13      36.143 -14.109 -10.512  1.00 26.25 LIG-0.34  N 
ATOM     25 H    SER B  13      36.948 -14.412 -10.522  1.00 26.25 LIG 0.16  HD
ATOM     26  C   ALA B  12      35.837 -12.817 -10.589  1.00 27.91 LIG 0.26  C 
ATOM     27 O    ALA B  12      34.679 -12.397 -10.570  1.00 29.06 LIG-0.27  OA
BRANCH 26 28
ATOM     28  CA  ALA B  12      37.006 -11.848 -10.702  1.00 28.19 LIG 0.40  C 
ATOM     29  N   ALA B  12      36.556 -10.581 -11.351  1.00 28.78 LIG 0.61  N 
ATOM     30  CB  ALA B  12      37.581 -11.553  -9.319  1.00 26.50 LIG 0.06  C 
ENDBRANCH 26 28
ENDBRANCH 20 24
ENDBRANCH 1 20
TORSDOF 13
ENDMDL
MODEL 8
USER: ADFR SOLUTION from run 157
USER: SCORE 9.589027 LL:  -1.314 LR:  -9.576 RR:   0.000 FEB:  -5.698
USER: RMSD 1.547147
USER: SEED 156
USER: STATUS no improvement in best in 10 clusters for 5 generations
USER: GENES 15
USER: genes 0 Translation |==|  0.47432 0.45048 0.57154
USER: genes 1 Rotation |==|  0.63037 0.62607 0.40020 0.95514
USER: genes 2 Torsion [C]-N--CA-[CB] |==|  0.23715
USER: genes 3 Torsion [N]-CA--C-[N] |==|  0.37778
USER: genes 4 Torsion [C]-N--CA-[C] |==|  0.13916
USER: genes 5 Torsion [N]-CA--C-[O] |==|  0.08317
USER: genes 6 Torsion [N]-CA--CB-[OG] |==|  0.72706
USER: genes 7 Torsion [CA]-CB--OG-[HG] |==|  0.17999
USER: genes 8 Torsion [N]-CA--CB-[CG2] |==|  0.09735
USER: genes 9 Torsion [CA]-CB--OG1-[HG1] |==|  0.09928
USER: genes 10 Torsion [N]-C--CA-[N] |==|  0.50980
USER: genes 11 Torsion [C]-CA--CB-[OG] |==|  0.73152
USER: genes 12 Torsion [CA]-CB--OG-[HG] |==|  0.06872
USER: genes 13 Torsion [C]-CA--N-[C] |==|  0.76063
USER: genes 14 Torsion [N]-C--CA-[N] |==|  0.49330
ROOT
ATOM      1  C   SER B  13      35.342 -13.136 -10.063  1.00 23.09 LIG 0.24  C 
ATOM      2 O    SER B  13      34.427 -12.327 -10.218  1.00 20.43 LIG-0.27  OA
ATOM      3  N   THR B  14      36.540 -12.989 -10.620  1.00 21.89 LIG-0.34  N 
ATOM      4 H    THR B  14      37.198 -13.530 -10.501  1.00 21.89 LIG 0.16  HD
ENDROOT
BRANCH 3 5
ATOM      5  CA  THR B  14      36.831 -11.863 -11.502  1.00 22.97 LIG 0.20  C 
BRANCH 5 6
ATOM      6  C   THR B  14      37.998 -12.309 -12.373  1.00 23.95 LIG 0.24  C 
ATOM      7  N   SER B  15      37.927 -12.032 -13.671  1.00 23.79 LIG-0.34  N 
ATOM      8 H    SER B  15      37.271 -11.620 -14.044  1.00 23.79 LIG 0.16  HD
ATOM      9 O    THR B  14      38.956 -12.899 -11.868  1.00 24.21 LIG-0.27  OA
BRANCH 7 10
ATOM     10  CA  SER B  15      39.001 -12.426 -14.576  1.00 24.78 LIG 0.19  C 
BRANCH 10 11
ATOM     11  C   SER B  15      39.357 -13.894 -14.391  1.00 26.56 LIG 0.22  C 
ATOM     12 O    SER B  15      38.429 -14.643 -14.020  1.00 28.00 LIG-0.29  OA
ENDBRANCH 10 11
BRANCH 10 13
ATOM     13  CB  SER B  15      40.246 -11.567 -14.342  1.00 23.87 LIG 0.20  C 
BRANCH 13 14
ATOM     14 OG   SER B  15      40.322 -10.512 -15.285  1.00 25.06 LIG-0.40  OA
ATOM     15 HG   SER B  15      39.676  -9.987 -15.172  1.00 25.06 LIG 0.21  HD
ENDBRANCH 13 14
ENDBRANCH 10 13
ENDBRANCH 7 10
ENDBRANCH 5 6
BRANCH 5 16
ATOM     16  CB  THR B  14      37.264 -10.617 -10.711  1.00 24.21 LIG 0.15  C 
ATOM     17  CG2 THR B  14      38.075 -11.012  -9.488  1.00 24.44 LIG 0.04  C 
BRANCH 16 18
ATOM     18 OG1  THR B  14      38.054  -9.772 -11.556  1.00 24.18 LIG-0.39  OA
ATOM     19 HG1  THR B  14      37.758  -9.806 -12.342  1.00 24.18 LIG 0.21  HD
ENDBRANCH 16 18
ENDBRANCH 5 16
ENDBRANCH 3 5
BRANCH 1 20
ATOM     20  CA  SER B  13      35.148 -14.376  -9.198  1.00 24.49 LIG 0.20  C 
BRANCH 20 21
ATOM     21  CB  SER B  13      35.484 -15.613 -10.036  1.00 26.86 LIG 0.20  C 
BRANCH 21 22
ATOM     22 OG   SER B  13      34.304 -16.187 -10.583  1.00 27.16 LIG-0.40  OA
ATOM     23 HG   SER B  13      33.708 -15.598 -10.644  1.00 27.16 LIG 0.21  HD
ENDBRANCH 21 22
ENDBRANCH 20 21
BRANCH 20 24
ATOM     24  N   SER B  13      33.769 -14.445  -8.726  1.00 26.25 LIG-0.34  N 
ATOM     25 H    SER B  13      33.249 -14.919  -9.221  1.00 26.25 LIG 0.16  HD
ATOM     26  C   ALA B  12      33.375 -13.821  -7.620  1.00 27.91 LIG 0.26  C 
ATOM     27 O    ALA B  12      34.132 -13.143  -6.924  1.00 29.06 LIG-0.27  OA
BRANCH 26 28
ATOM     28  CA  ALA B  12      31.909 -13.978  -7.237  1.00 28.19 LIG 0.40  C 
ATOM     29  N   ALA B  12      31.641 -13.270  -5.951  1.00 28.78 LIG 0.61  N 
ATOM     30  CB  ALA B  12      31.015 -13.419  -8.340  1.00 26.50 LIG 0.06  C 
ENDBRANCH 26 28
ENDBRANCH 20 24
ENDBRANCH 1 20
TORSDOF 13
ENDMDL
MODEL 9
USER: ADFR SOLUTION from run 175
USER: SCORE 9.688091 LL:  -1.493 LR:  -9.375 RR:   0.000 FEB:  -5.497
USER: RMSD 6.278104
USER: SEED 174
USER: STATUS no improvement in best in 18 clusters for 5 generations
USER: GENES 15
USER: genes 0 Translation |==|  0.70320 0.66601 0.53483
USER: genes 1 Rotation |==|  0.39396 0.73037 0.93032 0.52264
USER: genes 2 Torsion [C]-N--CA-[CB] |==|  0.51697
USER: genes 3 Torsion [N]-CA--C-[N] |==|  0.79386
USER: genes 4 Torsion [C]-N--CA-[C] |==|  0.17150
USER: genes 5 Torsion [N]-CA--C-[O] |==|  0.03530
USER: genes 6 Torsion [N]-CA--CB-[OG] |==|  0.82486
USER: genes 7 Torsion [CA]-CB--OG-[HG] |==|  0.97635
USER: genes 8 Torsion [N]-CA--CB-[CG2] |==|  0.70506
USER: genes 9 Torsion [CA]-CB--OG1-[HG1] |==|  0.22244
USER: genes 10 Torsion [N]-C--CA-[N] |==|  0.39444
USER: genes 11 Torsion [C]-CA--CB-[OG] |==|  0.28698
USER: genes 12 Torsion [CA]-CB--OG-[HG] |==|  0.90411
USER: genes 13 Torsion [C]-CA--N-[C] |==|  0.85417
USER: genes 14 Torsion [N]-C--CA-[N] |==|  0.45669
ROOT
ATOM      1  C   SER B  13      39.462  -9.903 -10.724  1.00 23.09 LIG 0.24  C 
ATOM      2 O    SER B  13      40.468 -10.611 -10.731  1.00 20.43 LIG-0.27  OA
ATOM      3  N   THR B  14      38.233 -10.390 -10.871  1.00 21.89 LIG-0.34  N 
ATOM      4 H    THR B  14      37.518  -9.913 -10.842  1.00 21.89 LIG 0.16  HD
ENDROOT
BRANCH 3 5
ATOM      5  CA  THR B  14      38.007 -11.813 -11.101  1.00 22.97 LIG 0.20  C 
BRANCH 5 6
ATOM      6  C   THR B  14      38.819 -12.168 -12.340  1.00 23.95 LIG 0.24  C 
ATOM      7  N   SER B  15      38.350 -11.756 -13.512  1.00 23.79 LIG-0.34  N 
ATOM      8 H    SER B  15      37.625 -11.305 -13.614  1.00 23.79 LIG 0.16  HD
ATOM      9 O    THR B  14      39.866 -12.810 -12.228  1.00 24.21 LIG-0.27  OA
BRANCH 7 10
ATOM     10  CA  SER B  15      39.065 -12.055 -14.748  1.00 24.78 LIG 0.19  C 
BRANCH 10 11
ATOM     11  C   SER B  15      39.157 -13.558 -14.972  1.00 26.56 LIG 0.22  C 
ATOM     12 O    SER B  15      38.429 -14.268 -14.247  1.00 28.00 LIG-0.29  OA
ENDBRANCH 10 11
BRANCH 10 13
ATOM     13  CB  SER B  15      40.474 -11.459 -14.713  1.00 23.87 LIG 0.20  C 
BRANCH 13 14
ATOM     14 OG   SER B  15      40.428 -10.045 -14.632  1.00 25.06 LIG-0.40  OA
ATOM     15 HG   SER B  15      39.636  -9.784 -14.736  1.00 25.06 LIG 0.21  HD
ENDBRANCH 13 14
ENDBRANCH 10 13
ENDBRANCH 7 10
ENDBRANCH 5 6
BRANCH 5 16
ATOM     16  CB  THR B  14      36.526 -12.115 -11.390  1.00 24.21 LIG 0.15  C 
ATOM     17  CG2 THR B  14      35.872 -12.786 -10.192  1.00 24.44 LIG 0.04  C 
BRANCH 16 18
ATOM     18 OG1  THR B  14      35.843 -10.891 -11.684  1.00 24.18 LIG-0.39  OA
ATOM     19 HG1  THR B  14      35.991 -10.672 -12.481  1.00 24.18 LIG 0.21  HD
ENDBRANCH 16 18
ENDBRANCH 5 16
ENDBRANCH 3 5
BRANCH 1 20
ATOM     20  CA  SER B  13      39.571  -8.394 -10.535  1.00 24.49 LIG 0.20  C 
BRANCH 20 21
ATOM     21  CB  SER B  13      39.891  -7.754 -11.888  1.00 26.86 LIG 0.20  C 
BRANCH 21 22
ATOM     22 OG   SER B  13      38.733  -7.145 -12.444  1.00 27.16 LIG-0.40  OA
ATOM     23 HG   SER B  13      38.054  -7.595 -12.240  1.00 27.16 LIG 0.21  HD
ENDBRANCH 21 22
ENDBRANCH 20 21
BRANCH 20 24
ATOM     24  N   SER B  13      40.621  -8.087  -9.569  1.00 26.25 LIG-0.34  N 
ATOM     25 H    SER B  13      41.203  -7.518  -9.848  1.00 26.25 LIG 0.16  HD
ATOM     26  C   ALA B  12      40.653  -8.651  -8.365  1.00 27.91 LIG 0.26  C 
ATOM     27 O    ALA B  12      39.814  -9.467  -7.982  1.00 29.06 LIG-0.27  OA
BRANCH 26 28
ATOM     28  CA  ALA B  12      41.802  -8.239  -7.454  1.00 28.19 LIG 0.40  C 
ATOM     29  N   ALA B  12      41.505  -8.643  -6.048  1.00 28.78 LIG 0.61  N 
ATOM     30  CB  ALA B  12      43.103  -8.886  -7.922  1.00 26.50 LIG 0.06  C 
ENDBRANCH 26 28
ENDBRANCH 20 24
ENDBRANCH 1 20
TORSDOF 13
ENDMDL
MODEL 10
USER: ADFR SOLUTION from run 138
USER: SCORE 9.393092 LL:  -0.731 LR:  -9.356 RR:   0.000 FEB:  -5.478
USER: RMSD 7.134117
USER: SEED 137
USER: STATUS no improvement in best in 16 clusters for 5 generations
USER: GENES 15
USER: genes 0 Translation |==|  0.62194 0.45578 0.44670
USER: genes 1 Rotation |==|  0.62420 0.96501 0.57700 0.61142
USER: genes 2 Torsion [C]-N--CA-[CB] |==|  0.88103
USER: genes 3 Torsion [N]-CA--C-[N] |==|  0.37130
USER: genes 4 Torsion [C]-N--CA-[C] |==|  0.20119
USER: genes 5 Torsion [N]-CA--C-[O] |==|  0.13549
USER: genes 6 Torsion [N]-CA--CB-[OG] |==|  0.43965
USER: genes 7 Torsion [CA]-CB--OG-[HG] |==|  0.26846
USER: genes 8 Torsion [N]-CA--CB-[CG2] |==|  0.32290
USER: genes 9 Torsion [CA]-CB--OG1-[HG1] |==|  0.41181
USER: genes 10 Torsion [N]-C--CA-[N] |==|  0.12222
USER: genes 11 Torsion [C]-CA--CB-[OG] |==|  0.20002
USER: genes 12 Torsion [CA]-CB--OG-[HG] |==|  0.78490
USER: genes 13 Torsion [C]-CA--N-[C] |==|  0.65399
USER: genes 14 Torsion [N]-C--CA-[N] |==|  0.01166
ROOT
ATOM      1  C   SER B  13      37.999 -13.056 -12.310  1.00 23.09 LIG 0.24  C 
ATOM      2 O    SER B  13      38.246 -13.551 -11.211  1.00 20.43 LIG-0.27  OA
ATOM      3  N   THR B  14      37.205 -12.001 -12.468  1.00 21.89 LIG-0.34  N 
ATOM      4 H    THR B  14      37.044 -11.627 -13.225  1.00 21.89 LIG 0.16  HD
ENDROOT
BRANCH 3 5
ATOM      5  CA  THR B  14      36.531 -11.386 -11.330  1.00 22.97 LIG 0.20  C 
BRANCH 5 6
ATOM      6  C   THR B  14      37.605 -10.606 -10.583  1.00 23.95 LIG 0.24  C 
ATOM      7  N   SER B  15      37.306  -9.366 -10.212  1.00 23.79 LIG-0.34  N 
ATOM      8 H    SER B  15      36.553  -8.981 -10.364  1.00 23.79 LIG 0.16  HD
ATOM      9 O    THR B  14      38.696 -11.129 -10.346  1.00 24.21 LIG-0.27  OA
BRANCH 7 10
ATOM     10  CA  SER B  15      38.279  -8.548  -9.495  1.00 24.78 LIG 0.19  C 
BRANCH 10 11
ATOM     11  C   SER B  15      39.400  -8.099 -10.421  1.00 26.56 LIG 0.22  C 
ATOM     12 O    SER B  15      39.047  -7.603 -11.512  1.00 28.00 LIG-0.29  OA
ENDBRANCH 10 11
BRANCH 10 13
ATOM     13  CB  SER B  15      38.874  -9.326  -8.318  1.00 23.87 LIG 0.20  C 
BRANCH 13 14
ATOM     14 OG   SER B  15      40.123  -8.783  -7.928  1.00 25.06 LIG-0.40  OA
ATOM     15 HG   SER B  15      40.011  -8.258  -7.281  1.00 25.06 LIG 0.21  HD
ENDBRANCH 13 14
ENDBRANCH 10 13
ENDBRANCH 7 10
ENDBRANCH 5 6
BRANCH 5 16
ATOM     16  CB  THR B  14      35.946 -12.441 -10.375  1.00 24.21 LIG 0.15  C 
ATOM     17  CG2 THR B  14      36.618 -12.365  -9.014  1.00 24.44 LIG 0.04  C 
BRANCH 16 18
ATOM     18 OG1  THR B  14      34.539 -12.215 -10.226  1.00 24.18 LIG-0.39  OA
ATOM     19 HG1  THR B  14      34.149 -12.948 -10.103  1.00 24.18 LIG 0.21  HD
ENDBRANCH 16 18
ENDBRANCH 5 16
ENDBRANCH 3 5
BRANCH 1 20
ATOM     20  CA  SER B  13      38.610 -13.636 -13.581  1.00 24.49 LIG 0.20  C 
BRANCH 20 21
ATOM     21  CB  SER B  13      39.762 -14.566 -13.189  1.00 26.86 LIG 0.20  C 
BRANCH 21 22
ATOM     22 OG   SER B  13      39.266 -15.765 -12.606  1.00 27.16 LIG-0.40  OA
ATOM     23 HG   SER B  13      39.034 -15.615 -11.813  1.00 27.16 LIG 0.21  HD
ENDBRANCH 21 22
ENDBRANCH 20 21
BRANCH 20 24
ATOM     24  N   SER B  13      39.099 -12.560 -14.436  1.00 26.25 LIG-0.34  N 
ATOM     25 H    SER B  13      39.657 -12.029 -14.054  1.00 26.25 LIG 0.16  HD
ATOM     26  C   ALA B  12      38.698 -12.431 -15.698  1.00 27.91 LIG 0.26  C 
ATOM     27 O    ALA B  12      37.894 -13.197 -16.230  1.00 29.06 LIG-0.27  OA
BRANCH 26 28
ATOM     28  CA  ALA B  12      39.288 -11.266 -16.482  1.00 28.19 LIG 0.40  C 
ATOM     29  N   ALA B  12      40.303 -10.556 -15.650  1.00 28.78 LIG 0.61  N 
ATOM     30  CB  ALA B  12      39.929 -11.771 -17.773  1.00 26.50 LIG 0.06  C 
ENDBRANCH 26 28
ENDBRANCH 20 24
ENDBRANCH 1 20
TORSDOF 13
ENDMDL
MODEL 11
USER: ADFR SOLUTION from run 52
USER: SCORE 10.200309 LL:  -1.235 LR:  -9.271 RR:   0.000 FEB:  -5.394
USER: RMSD 6.692209
USER: SEED 51
USER: STATUS no improvement in best in 8 clusters for 5 generations
USER: GENES 15
USER: genes 0 Translation |==|  0.65969 0.65230 0.54090
USER: genes 1 Rotation |==|  0.34479 0.71329 0.90712 0.62111
USER: genes 2 Torsion [C]-N--CA-[CB] |==|  0.86667
USER: genes 3 Torsion [N]-CA--C-[N] |==|  0.39424
USER: genes 4 Torsion [C]-N--CA-[C] |==|  0.62523
USER: genes 5 Torsion [N]-CA--C-[O] |==|  0.94092
USER: genes 6 Torsion [N]-CA--CB-[OG] |==|  0.02675
USER: genes 7 Torsion [CA]-CB--OG-[HG] |==|  0.26807
USER: genes 8 Torsion [N]-CA--CB-[CG2] |==|  0.39803
USER: genes 9 Torsion [CA]-CB--OG1-[HG1] |==|  0.07515
USER: genes 10 Torsion [N]-C--CA-[N] |==|  0.45246
USER: genes 11 Torsion [C]-CA--CB-[OG] |==|  0.27187
USER: genes 12 Torsion [CA]-CB--OG-[HG] |==|  0.89373
USER: genes 13 Torsion [C]-CA--N-[C] |==|  0.82193
USER: genes 14 Torsion [N]-C--CA-[N] |==|  0.44616
ROOT
ATOM      1  C   SER B  13      38.678 -10.108 -10.615  1.00 23.09 LIG 0.24  C 
ATOM      2 O    SER B  13      39.437 -11.044 -10.360  1.00 20.43 LIG-0.27  OA
ATOM      3  N   THR B  14      37.521 -10.268 -11.250  1.00 21.89 LIG-0.34  N 
ATOM      4 H    THR B  14      36.967  -9.629 -11.411  1.00 21.89 LIG 0.16  HD
ENDROOT
BRANCH 3 5
ATOM      5  CA  THR B  14      37.097 -11.578 -11.732  1.00 22.97 LIG 0.20  C 
BRANCH 5 6
ATOM      6  C   THR B  14      36.777 -12.394 -10.486  1.00 23.95 LIG 0.24  C 
ATOM      7  N   SER B  15      35.733 -13.214 -10.550  1.00 23.79 LIG-0.34  N 
ATOM      8 H    SER B  15      35.234 -13.312 -11.243  1.00 23.79 LIG 0.16  HD
ATOM      9 O    THR B  14      37.475 -12.280  -9.476  1.00 24.21 LIG-0.27  OA
BRANCH 7 10
ATOM     10  CA  SER B  15      35.356 -14.030  -9.401  1.00 24.78 LIG 0.19  C 
BRANCH 10 11
ATOM     11  C   SER B  15      35.052 -15.460  -9.826  1.00 26.56 LIG 0.22  C 
ATOM     12 O    SER B  15      34.762 -15.626 -11.029  1.00 28.00 LIG-0.29  OA
ENDBRANCH 10 11
BRANCH 10 13
ATOM     13  CB  SER B  15      34.131 -13.438  -8.699  1.00 23.87 LIG 0.20  C 
BRANCH 13 14
ATOM     14 OG   SER B  15      33.559 -12.393  -9.466  1.00 25.06 LIG-0.40  OA
ATOM     15 HG   SER B  15      32.921 -12.696  -9.921  1.00 25.06 LIG 0.21  HD
ENDBRANCH 13 14
ENDBRANCH 10 13
ENDBRANCH 7 10
ENDBRANCH 5 6
BRANCH 5 16
ATOM     16  CB  THR B  14      38.219 -12.291 -12.504  1.00 24.21 LIG 0.15  C 
ATOM     17  CG2 THR B  14      38.195 -13.786 -12.228  1.00 24.44 LIG 0.04  C 
BRANCH 16 18
ATOM     18 OG1  THR B  14      38.045 -12.062 -13.908  1.00 24.18 LIG-0.39  OA
ATOM     19 HG1  THR B  14      37.641 -11.336 -14.025  1.00 24.18 LIG 0.21  HD
ENDBRANCH 16 18
ENDBRANCH 5 16
ENDBRANCH 3 5
BRANCH 1 20
ATOM     20  CA  SER B  13      39.030  -8.684 -10.201  1.00 24.49 LIG 0.20  C 
BRANCH 20 21
ATOM     21  CB  SER B  13      39.500  -7.917 -11.440  1.00 26.86 LIG 0.20  C 
BRANCH 21 22
ATOM     22 OG   SER B  13      38.440  -7.140 -11.984  1.00 27.16 LIG-0.40  OA
ATOM     23 HG   SER B  13      37.721  -7.570 -11.927  1.00 27.16 LIG 0.21  HD
ENDBRANCH 21 22
ENDBRANCH 20 21
BRANCH 20 24
ATOM     24  N   SER B  13      40.082  -8.703  -9.189  1.00 26.25 LIG-0.34  N 
ATOM     25 H    SER B  13      40.820  -8.339  -9.439  1.00 26.25 LIG 0.16  HD
ATOM     26  C   ALA B  12      39.891  -9.245  -7.990  1.00 27.91 LIG 0.26  C 
ATOM     27 O    ALA B  12      38.829  -9.766  -7.648  1.00 29.06 LIG-0.27  OA
BRANCH 26 28
ATOM     28  CA  ALA B  12      41.070  -9.195  -7.027  1.00 28.19 LIG 0.40  C 
ATOM     29  N   ALA B  12      40.592  -9.391  -5.627  1.00 28.78 LIG 0.61  N 
ATOM     30  CB  ALA B  12      42.090 -10.271  -7.389  1.00 26.50 LIG 0.06  C 
ENDBRANCH 26 28
ENDBRANCH 20 24
ENDBRANCH 1 20
TORSDOF 13
ENDMDL
MODEL 12
USER: ADFR SOLUTION from run 62
USER: SCORE 9.263577 LL:  -1.231 LR:  -9.092 RR:   0.000 FEB:  -5.214
USER: RMSD 7.217634
USER: SEED 61
USER: STATUS no improvement in best in 7 clusters for 5 generations
USER: GENES 15
USER: genes 0 Translation |==|  0.49361 0.49723 0.52084
USER: genes 1 Rotation |==|  0.06878 0.71016 0.40323 0.60258
USER: genes 2 Torsion [C]-N--CA-[CB] |==|  0.55000
USER: genes 3 Torsion [N]-CA--C-[N] |==|  0.36282
USER: genes 4 Torsion [C]-N--CA-[C] |==|  0.76860
USER: genes 5 Torsion [N]-CA--C-[O] |==|  0.40543
USER: genes 6 Torsion [N]-CA--CB-[OG] |==|  0.94177
USER: genes 7 Torsion [CA]-CB--OG-[HG] |==|  0.00011
USER: genes 8 Torsion [N]-CA--CB-[CG2] |==|  0.32779
USER: genes 9 Torsion [CA]-CB--OG1-[HG1] |==|  0.39660
USER: genes 10 Torsion [N]-C--CA-[N] |==|  0.66418
USER: genes 11 Torsion [C]-CA--CB-[OG] |==|  0.52775
USER: genes 12 Torsion [CA]-CB--OG-[HG] |==|  0.87207
USER: genes 13 Torsion [C]-CA--N-[C] |==|  0.18887
USER: genes 14 Torsion [N]-C--CA-[N] |==|  0.58259
ROOT
ATOM      1  C   SER B  13      35.689 -12.435 -10.976  1.00 23.09 LIG 0.24  C 
ATOM      2 O    SER B  13      34.679 -12.013 -10.413  1.00 20.43 LIG-0.27  OA
ATOM      3  N   THR B  14      36.034 -13.719 -10.977  1.00 21.89 LIG-0.34  N 
ATOM      4 H    THR B  14      36.721 -14.034 -11.388  1.00 21.89 LIG 0.16  HD
ENDROOT
BRANCH 3 5
ATOM      5  CA  THR B  14      35.246 -14.714 -10.258  1.00 22.97 LIG 0.20  C 
BRANCH 5 6
ATOM      6  C   THR B  14      34.929 -14.093  -8.903  1.00 23.95 LIG 0.24  C 
ATOM      7  N   SER B  15      33.663 -14.127  -8.501  1.00 23.79 LIG-0.34  N 
ATOM      8 H    SER B  15      33.020 -14.476  -8.952  1.00 23.79 LIG 0.16  HD
ATOM      9 O    THR B  14      35.830 -13.587  -8.230  1.00 24.21 LIG-0.27  OA
BRANCH 7 10
ATOM     10  CA  SER B  15      33.273 -13.552  -7.218  1.00 24.78 LIG 0.19  C 
BRANCH 10 11
ATOM     11  C   SER B  15      33.519 -14.537  -6.084  1.00 26.56 LIG 0.22  C 
ATOM     12 O    SER B  15      33.864 -14.041  -4.990  1.00 28.00 LIG-0.29  OA
ENDBRANCH 10 11
BRANCH 10 13
ATOM     13  CB  SER B  15      31.795 -13.154  -7.234  1.00 23.87 LIG 0.20  C 
BRANCH 13 14
ATOM     14 OG   SER B  15      31.326 -12.989  -8.561  1.00 25.06 LIG-0.40  OA
ATOM     15 HG   SER B  15      31.951 -13.143  -9.101  1.00 25.06 LIG 0.21  HD
ENDBRANCH 13 14
ENDBRANCH 10 13
ENDBRANCH 7 10
ENDBRANCH 5 6
BRANCH 5 16
ATOM     16  CB  THR B  14      36.041 -16.009 -10.023  1.00 24.21 LIG 0.15  C 
ATOM     17  CG2 THR B  14      36.213 -16.272  -8.535  1.00 24.44 LIG 0.04  C 
BRANCH 16 18
ATOM     18 OG1  THR B  14      35.344 -17.107 -10.624  1.00 24.18 LIG-0.39  OA
ATOM     19 HG1  THR B  14      35.899 -17.643 -10.956  1.00 24.18 LIG 0.21  HD
ENDBRANCH 16 18
ENDBRANCH 5 16
ENDBRANCH 3 5
BRANCH 1 20
ATOM     20  CA  SER B  13      36.617 -11.486 -11.726  1.00 24.49 LIG 0.20  C 
BRANCH 20 21
ATOM     21  CB  SER B  13      37.773 -12.300 -12.317  1.00 26.86 LIG 0.20  C 
BRANCH 21 22
ATOM     22 OG   SER B  13      38.784 -11.441 -12.828  1.00 27.16 LIG-0.40  OA
ATOM     23 HG   SER B  13      38.429 -10.832 -13.285  1.00 27.16 LIG 0.21  HD
ENDBRANCH 21 22
ENDBRANCH 20 21
BRANCH 20 24
ATOM     24  N   SER B  13      37.130 -10.466 -10.817  1.00 26.25 LIG-0.34  N 
ATOM     25 H    SER B  13      36.842  -9.672 -10.977  1.00 26.25 LIG 0.16  HD
ATOM     26  C   ALA B  12      37.973 -10.765  -9.832  1.00 27.91 LIG 0.26  C 
ATOM     27 O    ALA B  12      38.380 -11.908  -9.618  1.00 29.06 LIG-0.27  OA
BRANCH 26 28
ATOM     28  CA  ALA B  12      38.429  -9.607  -8.955  1.00 28.19 LIG 0.40  C 
ATOM     29  N   ALA B  12      39.800  -9.877  -8.430  1.00 28.78 LIG 0.61  N 
ATOM     30  CB  ALA B  12      38.419  -8.306  -9.753  1.00 26.50 LIG 0.06  C 
ENDBRANCH 26 28
ENDBRANCH 20 24
ENDBRANCH 1 20
TORSDOF 13
ENDMDL
MODEL 13
USER: ADFR SOLUTION from run 14
USER: SCORE 9.498459 LL:  -1.416 LR:  -9.086 RR:   0.000 FEB:  -5.208
USER: RMSD 8.585854
USER: SEED 963113
USER: STATUS no improvement in best in 7 clusters for 5 generations
USER: GENES 15
USER: genes 0 Translation |==|  0.38764 0.24109 0.64548
USER: genes 1 Rotation |==|  0.60351 0.98893 0.48545 0.50442
USER: genes 2 Torsion [C]-N--CA-[CB] |==|  0.22777
USER: genes 3 Torsion [N]-CA--C-[N] |==|  0.44009
USER: genes 4 Torsion [C]-N--CA-[C] |==|  0.62420
USER: genes 5 Torsion [N]-CA--C-[O] |==|  0.33294
USER: genes 6 Torsion [N]-CA--CB-[OG] |==|  0.63326
USER: genes 7 Torsion [CA]-CB--OG-[HG] |==|  0.91890
USER: genes 8 Torsion [N]-CA--CB-[CG2] |==|  0.75876
USER: genes 9 Torsion [CA]-CB--OG1-[HG1] |==|  0.99315
USER: genes 10 Torsion [N]-C--CA-[N] |==|  0.34633
USER: genes 11 Torsion [C]-CA--CB-[OG] |==|  0.47173
USER: genes 12 Torsion [CA]-CB--OG-[HG] |==|  0.18056
USER: genes 13 Torsion [C]-CA--N-[C] |==|  0.83819
USER: genes 14 Torsion [N]-C--CA-[N] |==|  0.54501
ROOT
ATOM      1  C   SER B  13      33.782 -16.277  -8.732  1.00 23.09 LIG 0.24  C 
ATOM      2 O    SER B  13      34.582 -16.443  -7.812  1.00 20.43 LIG-0.27  OA
ATOM      3  N   THR B  14      32.860 -15.319  -8.725  1.00 21.89 LIG-0.34  N 
ATOM      4 H    THR B  14      32.311 -15.172  -9.371  1.00 21.89 LIG 0.16  HD
ENDROOT
BRANCH 3 5
ATOM      5  CA  THR B  14      32.710 -14.422  -7.584  1.00 22.97 LIG 0.20  C 
BRANCH 5 6
ATOM      6  C   THR B  14      31.310 -13.833  -7.700  1.00 23.95 LIG 0.24  C 
ATOM      7  N   SER B  15      30.764 -13.344  -6.592  1.00 23.79 LIG-0.34  N 
ATOM      8 H    SER B  15      31.147 -13.339  -5.823  1.00 23.79 LIG 0.16  HD
ATOM      9 O    THR B  14      30.733 -13.822  -8.790  1.00 24.21 LIG-0.27  OA
BRANCH 7 10
ATOM     10  CA  SER B  15      29.425 -12.764  -6.614  1.00 24.78 LIG 0.19  C 
BRANCH 10 11
ATOM     11  C   SER B  15      29.386 -11.457  -5.836  1.00 26.56 LIG 0.22  C 
ATOM     12 O    SER B  15      29.054 -10.441  -6.483  1.00 28.00 LIG-0.29  OA
ENDBRANCH 10 11
BRANCH 10 13
ATOM     13  CB  SER B  15      28.406 -13.740  -6.022  1.00 23.87 LIG 0.20  C 
BRANCH 13 14
ATOM     14 OG   SER B  15      27.269 -13.860  -6.859  1.00 25.06 LIG-0.40  OA
ATOM     15 HG   SER B  15      27.153 -13.143  -7.281  1.00 25.06 LIG 0.21  HD
ENDBRANCH 13 14
ENDBRANCH 10 13
ENDBRANCH 7 10
ENDBRANCH 5 6
BRANCH 5 16
ATOM     16  CB  THR B  14      33.727 -13.269  -7.628  1.00 24.21 LIG 0.15  C 
ATOM     17  CG2 THR B  14      35.035 -13.681  -6.971  1.00 24.44 LIG 0.04  C 
BRANCH 16 18
ATOM     18 OG1  THR B  14      33.971 -12.906  -8.993  1.00 24.18 LIG-0.39  OA
ATOM     19 HG1  THR B  14      33.537 -13.416  -9.500  1.00 24.18 LIG 0.21  HD
ENDBRANCH 16 18
ENDBRANCH 5 16
ENDBRANCH 3 5
BRANCH 1 20
ATOM     20  CA  SER B  13      33.809 -17.177  -9.962  1.00 24.49 LIG 0.20  C 
BRANCH 20 21
ATOM     21  CB  SER B  13      33.428 -18.598  -9.536  1.00 26.86 LIG 0.20  C 
BRANCH 21 22
ATOM     22 OG   SER B  13      33.211 -19.424 -10.672  1.00 27.16 LIG-0.40  OA
ATOM     23 HG   SER B  13      33.931 -19.513 -11.095  1.00 27.16 LIG 0.21  HD
ENDBRANCH 21 22
ENDBRANCH 20 21
BRANCH 20 24
ATOM     24  N   SER B  13      35.141 -17.168 -10.558  1.00 26.25 LIG-0.34  N 
ATOM     25 H    SER B  13      35.509 -17.944 -10.613  1.00 26.25 LIG 0.16  HD
ATOM     26  C   ALA B  12      35.715 -16.043 -10.974  1.00 27.91 LIG 0.26  C 
ATOM     27 O    ALA B  12      35.176 -14.940 -10.885  1.00 29.06 LIG-0.27  OA
BRANCH 26 28
ATOM     28  CA  ALA B  12      37.106 -16.175 -11.580  1.00 28.19 LIG 0.40  C 
ATOM     29  N   ALA B  12      37.767 -14.838 -11.632  1.00 28.78 LIG 0.61  N 
ATOM     30  CB  ALA B  12      37.949 -17.145 -10.757  1.00 26.50 LIG 0.06  C 
ENDBRANCH 26 28
ENDBRANCH 20 24
ENDBRANCH 1 20
TORSDOF 13
ENDMDL
MODEL 14
USER: ADFR SOLUTION from run 52
USER: SCORE 9.194942 LL:  -0.964 LR:  -9.061 RR:   0.000 FEB:  -5.184
USER: RMSD 6.098392
USER: SEED 51
USER: STATUS no improvement in best in 8 clusters for 5 generations
USER: GENES 15
USER: genes 0 Translation |==|  0.59700 0.64469 0.54618
USER: genes 1 Rotation |==|  0.85574 0.81293 0.35151 0.55893
USER: genes 2 Torsion [C]-N--CA-[CB] |==|  0.15761
USER: genes 3 Torsion [N]-CA--C-[N] |==|  0.59453
USER: genes 4 Torsion [C]-N--CA-[C] |==|  0.85821
USER: genes 5 Torsion [N]-CA--C-[O] |==|  0.47705
USER: genes 6 Torsion [N]-CA--CB-[OG] |==|  0.74060
USER: genes 7 Torsion [CA]-CB--OG-[HG] |==|  0.24233
USER: genes 8 Torsion [N]-CA--CB-[CG2] |==|  0.16295
USER: genes 9 Torsion [CA]-CB--OG1-[HG1] |==|  0.00361
USER: genes 10 Torsion [N]-C--CA-[N] |==|  0.14444
USER: genes 11 Torsion [C]-CA--CB-[OG] |==|  0.38004
USER: genes 12 Torsion [CA]-CB--OG-[HG] |==|  0.22976
USER: genes 13 Torsion [C]-CA--N-[C] |==|  0.15326
USER: genes 14 Torsion [N]-C--CA-[N] |==|  0.15337
ROOT
ATOM      1  C   SER B  13      37.550 -10.223 -10.520  1.00 23.09 LIG 0.24  C 
ATOM      2 O    SER B  13      37.885 -10.436  -9.355  1.00 20.43 LIG-0.27  OA
ATOM      3  N   THR B  14      38.099  -9.270 -11.267  1.00 21.89 LIG-0.34  N 
ATOM      4 H    THR B  14      37.896  -9.125 -12.091  1.00 21.89 LIG 0.16  HD
ENDROOT
BRANCH 3 5
ATOM      5  CA  THR B  14      39.116  -8.375 -10.725  1.00 22.97 LIG 0.20  C 
BRANCH 5 6
ATOM      6  C   THR B  14      39.593  -7.530 -11.899  1.00 23.95 LIG 0.24  C 
ATOM      7  N   SER B  15      40.873  -7.172 -11.907  1.00 23.79 LIG-0.34  N 
ATOM      8 H    SER B  15      41.442  -7.387 -11.300  1.00 23.79 LIG 0.16  HD
ATOM      9 O    THR B  14      38.804  -7.207 -12.789  1.00 24.21 LIG-0.27  OA
BRANCH 7 10
ATOM     10  CA  SER B  15      41.412  -6.360 -12.993  1.00 24.78 LIG 0.19  C 
BRANCH 10 11
ATOM     11  C   SER B  15      41.061  -6.960 -14.347  1.00 26.56 LIG 0.22  C 
ATOM     12 O    SER B  15      41.335  -6.262 -15.346  1.00 28.00 LIG-0.29  OA
ENDBRANCH 10 11
BRANCH 10 13
ATOM     13  CB  SER B  15      42.933  -6.238 -12.870  1.00 23.87 LIG 0.20  C 
BRANCH 13 14
ATOM     14 OG   SER B  15      43.295  -5.069 -12.156  1.00 25.06 LIG-0.40  OA
ATOM     15 HG   SER B  15      43.308  -5.236 -11.332  1.00 25.06 LIG 0.21  HD
ENDBRANCH 13 14
ENDBRANCH 10 13
ENDBRANCH 7 10
ENDBRANCH 5 6
BRANCH 5 16
ATOM     16  CB  THR B  14      40.319  -9.152 -10.165  1.00 24.21 LIG 0.15  C 
ATOM     17  CG2 THR B  14      40.953 -10.013 -11.247  1.00 24.44 LIG 0.04  C 
BRANCH 16 18
ATOM     18 OG1  THR B  14      41.289  -8.225  -9.663  1.00 24.18 LIG-0.39  OA
ATOM     19 HG1  THR B  14      41.001  -7.441  -9.758  1.00 24.18 LIG 0.21  HD
ENDBRANCH 16 18
ENDBRANCH 5 16
ENDBRANCH 3 5
BRANCH 1 20
ATOM     20  CA  SER B  13      36.468 -11.063 -11.187  1.00 24.49 LIG 0.20  C 
BRANCH 20 21
ATOM     21  CB  SER B  13      36.089 -12.210 -10.245  1.00 26.86 LIG 0.20  C 
BRANCH 21 22
ATOM     22 OG   SER B  13      34.679 -12.384 -10.203  1.00 27.16 LIG-0.40  OA
ATOM     23 HG   SER B  13      34.435 -12.849 -10.858  1.00 27.16 LIG 0.21  HD
ENDBRANCH 21 22
ENDBRANCH 20 21
BRANCH 20 24
ATOM     24  N   SER B  13      36.957 -11.593 -12.455  1.00 26.25 LIG-0.34  N 
ATOM     25 H    SER B  13      36.463 -11.401 -13.133  1.00 26.25 LIG 0.16  HD
ATOM     26  C   ALA B  12      38.075 -12.308 -12.531  1.00 27.91 LIG 0.26  C 
ATOM     27 O    ALA B  12      38.770 -12.577 -11.551  1.00 29.06 LIG-0.27  OA
BRANCH 26 28
ATOM     28  CA  ALA B  12      38.475 -12.798 -13.917  1.00 28.19 LIG 0.40  C 
ATOM     29  N   ALA B  12      38.567 -11.643 -14.858  1.00 28.78 LIG 0.61  N 
ATOM     30  CB  ALA B  12      39.813 -13.529 -13.851  1.00 26.50 LIG 0.06  C 
ENDBRANCH 26 28
ENDBRANCH 20 24
ENDBRANCH 1 20
TORSDOF 13
ENDMDL
MODEL 15
USER: ADFR SOLUTION from run 129
USER: SCORE 9.601424 LL:  -1.295 LR:  -9.038 RR:   0.000 FEB:  -5.160
USER: RMSD 7.485366
USER: SEED 128
USER: STATUS no improvement in best in 11 clusters for 5 generations
USER: GENES 15
USER: genes 0 Translation |==|  0.66287 0.64504 0.54401
USER: genes 1 Rotation |==|  0.34008 0.71665 0.90156 0.62744
USER: genes 2 Torsion [C]-N--CA-[CB] |==|  0.86667
USER: genes 3 Torsion [N]-CA--C-[N] |==|  0.40925
USER: genes 4 Torsion [C]-N--CA-[C] |==|  0.60243
USER: genes 5 Torsion [N]-CA--C-[O] |==|  0.99745
USER: genes 6 Torsion [N]-CA--CB-[OG] |==|  0.02644
USER: genes 7 Torsion [CA]-CB--OG-[HG] |==|  0.29596
USER: genes 8 Torsion [N]-CA--CB-[CG2] |==|  0.41827
USER: genes 9 Torsion [CA]-CB--OG1-[HG1] |==|  0.99155
USER: genes 10 Torsion [N]-C--CA-[N] |==|  0.84274
USER: genes 11 Torsion [C]-CA--CB-[OG] |==|  0.73419
USER: genes 12 Torsion [CA]-CB--OG-[HG] |==|  0.21829
USER: genes 13 Torsion [C]-CA--N-[C] |==|  0.73218
USER: genes 14 Torsion [N]-C--CA-[N] |==|  0.33430
ROOT
ATOM      1  C   SER B  13      38.736 -10.217 -10.559  1.00 23.09 LIG 0.24  C 
ATOM      2 O    SER B  13      39.465 -11.164 -10.266  1.00 20.43 LIG-0.27  OA
ATOM      3  N   THR B  14      37.594 -10.362 -11.225  1.00 21.89 LIG-0.34  N 
ATOM      4 H    THR B  14      37.060  -9.715 -11.414  1.00 21.89 LIG 0.16  HD
ENDROOT
BRANCH 3 5
ATOM      5  CA  THR B  14      37.155 -11.671 -11.698  1.00 22.97 LIG 0.20  C 
BRANCH 5 6
ATOM      6  C   THR B  14      36.780 -12.458 -10.449  1.00 23.95 LIG 0.24  C 
ATOM      7  N   SER B  15      35.791 -13.338 -10.561  1.00 23.79 LIG-0.34  N 
ATOM      8 H    SER B  15      35.355 -13.489 -11.286  1.00 23.79 LIG 0.16  HD
ATOM      9 O    THR B  14      37.388 -12.268  -9.393  1.00 24.21 LIG-0.27  OA
BRANCH 7 10
ATOM     10  CA  SER B  15      35.366 -14.132  -9.412  1.00 24.78 LIG 0.19  C 
BRANCH 10 11
ATOM     11  C   SER B  15      34.981 -15.541  -9.838  1.00 26.56 LIG 0.22  C 
ATOM     12 O    SER B  15      35.066 -15.789 -11.059  1.00 28.00 LIG-0.29  OA
ENDBRANCH 10 11
BRANCH 10 13
ATOM     13  CB  SER B  15      34.177 -13.470  -8.710  1.00 23.87 LIG 0.20  C 
BRANCH 13 14
ATOM     14 OG   SER B  15      33.668 -12.392  -9.476  1.00 25.06 LIG-0.40  OA
ATOM     15 HG   SER B  15      32.937 -12.616  -9.824  1.00 25.06 LIG 0.21  HD
ENDBRANCH 13 14
ENDBRANCH 10 13
ENDBRANCH 7 10
ENDBRANCH 5 6
BRANCH 5 16
ATOM     16  CB  THR B  14      38.283 -12.422 -12.424  1.00 24.21 LIG 0.15  C 
ATOM     17  CG2 THR B  14      38.113 -13.926 -12.271  1.00 24.44 LIG 0.04  C 
BRANCH 16 18
ATOM     18 OG1  THR B  14      38.260 -12.079 -13.815  1.00 24.18 LIG-0.39  OA
ATOM     19 HG1  THR B  14      37.611 -11.568 -13.967  1.00 24.18 LIG 0.21  HD
ENDBRANCH 16 18
ENDBRANCH 5 16
ENDBRANCH 3 5
BRANCH 1 20
ATOM     20  CA  SER B  13      39.107  -8.794 -10.158  1.00 24.49 LIG 0.20  C 
BRANCH 20 21
ATOM     21  CB  SER B  13      38.056  -8.274  -9.173  1.00 26.86 LIG 0.20  C 
BRANCH 21 22
ATOM     22 OG   SER B  13      37.060  -7.518  -9.851  1.00 27.16 LIG-0.40  OA
ATOM     23 HG   SER B  13      36.519  -8.040 -10.226  1.00 27.16 LIG 0.21  HD
ENDBRANCH 21 22
ENDBRANCH 20 21
BRANCH 20 24
ATOM     24  N   SER B  13      39.158  -7.940 -11.340  1.00 26.25 LIG-0.34  N 
ATOM     25 H    SER B  13      38.394  -7.629 -11.586  1.00 26.25 LIG 0.16  HD
ATOM     26  C   ALA B  12      40.301  -7.677 -11.966  1.00 27.91 LIG 0.26  C 
ATOM     27 O    ALA B  12      41.386  -8.132 -11.604  1.00 29.06 LIG-0.27  OA
BRANCH 26 28
ATOM     28  CA  ALA B  12      40.214  -6.768 -13.185  1.00 28.19 LIG 0.40  C 
ATOM     29  N   ALA B  12      41.053  -5.552 -12.973  1.00 28.78 LIG 0.61  N 
ATOM     30  CB  ALA B  12      40.679  -7.515 -14.433  1.00 26.50 LIG 0.06  C 
ENDBRANCH 26 28
ENDBRANCH 20 24
ENDBRANCH 1 20
TORSDOF 13
ENDMDL
MODEL 16
USER: ADFR SOLUTION from run 180
USER: SCORE 8.893420 LL:  -1.362 LR:  -9.034 RR:   0.000 FEB:  -5.156
USER: RMSD 6.974206
USER: SEED 179
USER: STATUS no improvement in best in 6 clusters for 5 generations
USER: GENES 15
USER: genes 0 Translation |==|  0.60146 0.41008 0.50463
USER: genes 1 Rotation |==|  0.49970 0.92179 0.76830 0.51046
USER: genes 2 Torsion [C]-N--CA-[CB] |==|  0.45125
USER: genes 3 Torsion [N]-CA--C-[N] |==|  0.46828
USER: genes 4 Torsion [C]-N--CA-[C] |==|  0.72448
USER: genes 5 Torsion [N]-CA--C-[O] |==|  0.38668
USER: genes 6 Torsion [N]-CA--CB-[OG] |==|  0.77105
USER: genes 7 Torsion [CA]-CB--OG-[HG] |==|  0.87035
USER: genes 8 Torsion [N]-CA--CB-[CG2] |==|  0.66801
USER: genes 9 Torsion [CA]-CB--OG1-[HG1] |==|  0.39534
USER: genes 10 Torsion [N]-C--CA-[N] |==|  0.25684
USER: genes 11 Torsion [C]-CA--CB-[OG] |==|  0.14169
USER: genes 12 Torsion [CA]-CB--OG-[HG] |==|  0.85012
USER: genes 13 Torsion [C]-CA--N-[C] |==|  0.80000
USER: genes 14 Torsion [N]-C--CA-[N] |==|  0.24438
ROOT
ATOM      1  C   SER B  13      37.630 -13.742 -11.268  1.00 23.09 LIG 0.24  C 
ATOM      2 O    SER B  13      38.421 -14.525 -10.743  1.00 20.43 LIG-0.27  OA
ATOM      3  N   THR B  14      36.387 -13.567 -10.830  1.00 21.89 LIG-0.34  N 
ATOM      4 H    THR B  14      35.831 -13.004 -11.167  1.00 21.89 LIG 0.16  HD
ENDROOT
BRANCH 3 5
ATOM      5  CA  THR B  14      35.864 -14.342  -9.710  1.00 22.97 LIG 0.20  C 
BRANCH 5 6
ATOM      6  C   THR B  14      35.477 -15.697 -10.288  1.00 23.95 LIG 0.24  C 
ATOM      7  N   SER B  15      35.189 -16.665  -9.425  1.00 23.79 LIG-0.34  N 
ATOM      8 H    SER B  15      35.206 -16.575  -8.571  1.00 23.79 LIG 0.16  HD
ATOM      9 O    THR B  14      35.439 -15.859 -11.510  1.00 24.21 LIG-0.27  OA
BRANCH 7 10
ATOM     10  CA  SER B  15      34.812 -17.994  -9.895  1.00 24.78 LIG 0.19  C 
BRANCH 10 11
ATOM     11  C   SER B  15      33.301 -18.171  -9.869  1.00 26.56 LIG 0.22  C 
ATOM     12 O    SER B  15      32.801 -18.771 -10.844  1.00 28.00 LIG-0.29  OA
ENDBRANCH 10 11
BRANCH 10 13
ATOM     13  CB  SER B  15      35.465 -19.076  -9.031  1.00 23.87 LIG 0.20  C 
BRANCH 13 14
ATOM     14 OG   SER B  15      36.797 -19.325  -9.446  1.00 25.06 LIG-0.40  OA
ATOM     15 HG   SER B  15      36.820 -19.404 -10.282  1.00 25.06 LIG 0.21  HD
ENDBRANCH 13 14
ENDBRANCH 10 13
ENDBRANCH 7 10
ENDBRANCH 5 6
BRANCH 5 16
ATOM     16  CB  THR B  14      34.606 -13.695  -9.107  1.00 24.21 LIG 0.15  C 
ATOM     17  CG2 THR B  14      34.832 -13.338  -7.647  1.00 24.44 LIG 0.04  C 
BRANCH 16 18
ATOM     18 OG1  THR B  14      34.285 -12.509  -9.844  1.00 24.18 LIG-0.39  OA
ATOM     19 HG1  THR B  14      33.451 -12.440  -9.914  1.00 24.18 LIG 0.21  HD
ENDBRANCH 16 18
ENDBRANCH 5 16
ENDBRANCH 3 5
BRANCH 1 20
ATOM     20  CA  SER B  13      38.045 -12.905 -12.472  1.00 24.49 LIG 0.20  C 
BRANCH 20 21
ATOM     21  CB  SER B  13      39.028 -13.719 -13.318  1.00 26.86 LIG 0.20  C 
BRANCH 21 22
ATOM     22 OG   SER B  13      38.504 -15.011 -13.596  1.00 27.16 LIG-0.40  OA
ATOM     23 HG   SER B  13      38.287 -15.386 -12.877  1.00 27.16 LIG 0.21  HD
ENDBRANCH 21 22
ENDBRANCH 20 21
BRANCH 20 24
ATOM     24  N   SER B  13      38.670 -11.663 -12.027  1.00 26.25 LIG-0.34  N 
ATOM     25 H    SER B  13      39.520 -11.630 -12.152  1.00 26.25 LIG 0.16  HD
ATOM     26  C   ALA B  12      37.962 -10.681 -11.476  1.00 27.91 LIG 0.26  C 
ATOM     27 O    ALA B  12      36.745 -10.746 -11.299  1.00 29.06 LIG-0.27  OA
BRANCH 26 28
ATOM     28  CA  ALA B  12      38.737  -9.438 -11.058  1.00 28.19 LIG 0.40  C 
ATOM     29  N   ALA B  12      38.825  -8.486 -12.204  1.00 28.78 LIG 0.61  N 
ATOM     30  CB  ALA B  12      38.054  -8.767  -9.870  1.00 26.50 LIG 0.06  C 
ENDBRANCH 26 28
ENDBRANCH 20 24
ENDBRANCH 1 20
TORSDOF 13
ENDMDL
MODEL 17
USER: ADFR SOLUTION from run 41
USER: SCORE 9.005179 LL:  -1.739 LR:  -8.990 RR:   0.000 FEB:  -5.112
USER: RMSD 5.636146
USER: SEED 40
USER: STATUS no improvement in best in 11 clusters for 5 generations
USER: GENES 15
USER: genes 0 Translation |==|  0.61411 0.49970 0.47559
USER: genes 1 Rotation |==|  0.17254 0.41993 0.75147 0.77041
USER: genes 2 Torsion [C]-N--CA-[CB] |==|  0.33892
USER: genes 3 Torsion [N]-CA--C-[N] |==|  0.81539
USER: genes 4 Torsion [C]-N--CA-[C] |==|  0.71247
USER: genes 5 Torsion [N]-CA--C-[O] |==|  0.75123
USER: genes 6 Torsion [N]-CA--CB-[OG] |==|  0.96102
USER: genes 7 Torsion [CA]-CB--OG-[HG] |==|  0.18226
USER: genes 8 Torsion [N]-CA--CB-[CG2] |==|  0.62570
USER: genes 9 Torsion [CA]-CB--OG1-[HG1] |==|  0.12784
USER: genes 10 Torsion [N]-C--CA-[N] |==|  0.91952
USER: genes 11 Torsion [C]-CA--CB-[OG] |==|  0.39522
USER: genes 12 Torsion [CA]-CB--OG-[HG] |==|  0.60779
USER: genes 13 Torsion [C]-CA--N-[C] |==|  0.83840
USER: genes 14 Torsion [N]-C--CA-[N] |==|  0.80342
ROOT
ATOM      1  C   SER B  13      37.858 -12.398 -11.790  1.00 23.09 LIG 0.24  C 
ATOM      2 O    SER B  13      38.203 -13.560 -11.579  1.00 20.43 LIG-0.27  OA
ATOM      3  N   THR B  14      38.294 -11.691 -12.829  1.00 21.89 LIG-0.34  N 
ATOM      4 H    THR B  14      38.042 -10.887 -13.006  1.00 21.89 LIG 0.16  HD
ENDROOT
BRANCH 3 5
ATOM      5  CA  THR B  14      39.260 -12.246 -13.770  1.00 22.97 LIG 0.20  C 
BRANCH 5 6
ATOM      6  C   THR B  14      40.470 -11.322 -13.716  1.00 23.95 LIG 0.24  C 
ATOM      7  N   SER B  15      40.307 -10.083 -14.167  1.00 23.79 LIG-0.34  N 
ATOM      8 H    SER B  15      39.570  -9.774 -14.482  1.00 23.79 LIG 0.16  HD
ATOM      9 O    THR B  14      41.542 -11.733 -13.267  1.00 24.21 LIG-0.27  OA
BRANCH 7 10
ATOM     10  CA  SER B  15      41.415  -9.134 -14.155  1.00 24.78 LIG 0.19  C 
BRANCH 10 11
ATOM     11  C   SER B  15      41.264  -8.136 -13.016  1.00 26.56 LIG 0.22  C 
ATOM     12 O    SER B  15      40.624  -7.095 -13.278  1.00 28.00 LIG-0.29  OA
ENDBRANCH 10 11
BRANCH 10 13
ATOM     13  CB  SER B  15      41.494  -8.380 -15.484  1.00 23.87 LIG 0.20  C 
BRANCH 13 14
ATOM     14 OG   SER B  15      40.699  -9.009 -16.475  1.00 25.06 LIG-0.40  OA
ATOM     15 HG   SER B  15      39.888  -8.958 -16.258  1.00 25.06 LIG 0.21  HD
ENDBRANCH 13 14
ENDBRANCH 10 13
ENDBRANCH 7 10
ENDBRANCH 5 6
BRANCH 5 16
ATOM     16  CB  THR B  14      38.717 -12.251 -15.208  1.00 24.21 LIG 0.15  C 
ATOM     17  CG2 THR B  14      38.998 -13.585 -15.884  1.00 24.44 LIG 0.04  C 
BRANCH 16 18
ATOM     18 OG1  THR B  14      37.304 -12.018 -15.181  1.00 24.18 LIG-0.39  OA
ATOM     19 HG1  THR B  14      37.136 -11.378 -14.664  1.00 24.18 LIG 0.21  HD
ENDBRANCH 16 18
ENDBRANCH 5 16
ENDBRANCH 3 5
BRANCH 1 20
ATOM     20  CA  SER B  13      36.884 -11.691 -10.855  1.00 24.49 LIG 0.20  C 
BRANCH 20 21
ATOM     21  CB  SER B  13      35.456 -11.983 -11.325  1.00 26.86 LIG 0.20  C 
BRANCH 21 22
ATOM     22 OG   SER B  13      34.585 -12.157 -10.214  1.00 27.16 LIG-0.40  OA
ATOM     23 HG   SER B  13      34.041 -12.775 -10.379  1.00 27.16 LIG 0.21  HD
ENDBRANCH 21 22
ENDBRANCH 20 21
BRANCH 20 24
ATOM     24  N   SER B  13      37.135 -10.253 -10.865  1.00 26.25 LIG-0.34  N 
ATOM     25 H    SER B  13      36.458  -9.777 -11.099  1.00 26.25 LIG 0.16  HD
ATOM     26  C   ALA B  12      38.319  -9.746 -10.536  1.00 27.91 LIG 0.26  C 
ATOM     27 O    ALA B  12      39.281 -10.442 -10.207  1.00 29.06 LIG-0.27  OA
BRANCH 26 28
ATOM     28  CA  ALA B  12      38.446  -8.229 -10.585  1.00 28.19 LIG 0.40  C 
ATOM     29  N   ALA B  12      38.430  -7.764 -12.003  1.00 28.78 LIG 0.61  N 
ATOM     30  CB  ALA B  12      37.304  -7.581  -9.808  1.00 26.50 LIG 0.06  C 
ENDBRANCH 26 28
ENDBRANCH 20 24
ENDBRANCH 1 20
TORSDOF 13
ENDMDL
MODEL 18
USER: ADFR SOLUTION from run 76
USER: SCORE 9.293065 LL:  -1.236 LR:  -8.992 RR:   0.000 FEB:  -5.114
USER: RMSD 5.542427
USER: SEED 75
USER: STATUS no improvement in best in 7 clusters for 5 generations
USER: GENES 15
USER: genes 0 Translation |==|  0.58262 0.47998 0.47193
USER: genes 1 Rotation |==|  0.19562 0.50455 0.73011 0.82308
USER: genes 2 Torsion [C]-N--CA-[CB] |==|  0.55556
USER: genes 3 Torsion [N]-CA--C-[N] |==|  0.82525
USER: genes 4 Torsion [C]-N--CA-[C] |==|  0.16854
USER: genes 5 Torsion [N]-CA--C-[O] |==|  0.09153
USER: genes 6 Torsion [N]-CA--CB-[OG] |==|  0.23499
USER: genes 7 Torsion [CA]-CB--OG-[HG] |==|  0.48223
USER: genes 8 Torsion [N]-CA--CB-[CG2] |==|  0.71431
USER: genes 9 Torsion [CA]-CB--OG1-[HG1] |==|  0.68495
USER: genes 10 Torsion [N]-C--CA-[N] |==|  0.93924
USER: genes 11 Torsion [C]-CA--CB-[OG] |==|  0.22090
USER: genes 12 Torsion [CA]-CB--OG-[HG] |==|  0.52925
USER: genes 13 Torsion [C]-CA--N-[C] |==|  0.83884
USER: genes 14 Torsion [N]-C--CA-[N] |==|  0.77579
ROOT
ATOM      1  C   SER B  13      37.291 -12.693 -11.856  1.00 23.09 LIG 0.24  C 
ATOM      2 O    SER B  13      37.236 -13.915 -11.714  1.00 20.43 LIG-0.27  OA
ATOM      3  N   THR B  14      37.735 -12.113 -12.967  1.00 21.89 LIG-0.34  N 
ATOM      4 H    THR B  14      37.755 -11.263 -13.093  1.00 21.89 LIG 0.16  HD
ENDROOT
BRANCH 3 5
ATOM      5  CA  THR B  14      38.237 -12.906 -14.085  1.00 22.97 LIG 0.20  C 
BRANCH 5 6
ATOM      6  C   THR B  14      39.089 -14.006 -13.465  1.00 23.95 LIG 0.24  C 
ATOM      7  N   SER B  15      40.168 -13.628 -12.789  1.00 23.79 LIG-0.34  N 
ATOM      8 H    SER B  15      40.411 -12.811 -12.679  1.00 23.79 LIG 0.16  HD
ATOM      9 O    THR B  14      38.765 -15.188 -13.601  1.00 24.21 LIG-0.27  OA
BRANCH 7 10
ATOM     10  CA  SER B  15      41.041 -14.618 -12.166  1.00 24.78 LIG 0.19  C 
BRANCH 10 11
ATOM     11  C   SER B  15      41.628 -15.557 -13.208  1.00 26.56 LIG 0.22  C 
ATOM     12 O    SER B  15      41.853 -15.061 -14.332  1.00 28.00 LIG-0.29  OA
ENDBRANCH 10 11
BRANCH 10 13
ATOM     13  CB  SER B  15      40.272 -15.433 -11.122  1.00 23.87 LIG 0.20  C 
BRANCH 13 14
ATOM     14 OG   SER B  15      39.583 -16.513 -11.726  1.00 25.06 LIG-0.40  OA
ATOM     15 HG   SER B  15      39.241 -16.997 -11.130  1.00 25.06 LIG 0.21  HD
ENDBRANCH 13 14
ENDBRANCH 10 13
ENDBRANCH 7 10
ENDBRANCH 5 6
BRANCH 5 16
ATOM     16  CB  THR B  14      39.127 -12.071 -15.021  1.00 24.21 LIG 0.15  C 
ATOM     17  CG2 THR B  14      38.368 -11.682 -16.280  1.00 24.44 LIG 0.04  C 
BRANCH 16 18
ATOM     18 OG1  THR B  14      39.554 -10.887 -14.336  1.00 24.18 LIG-0.39  OA
ATOM     19 HG1  THR B  14      39.211 -10.214 -14.701  1.00 24.18 LIG 0.21  HD
ENDBRANCH 16 18
ENDBRANCH 5 16
ENDBRANCH 3 5
BRANCH 1 20
ATOM     20  CA  SER B  13      36.836 -11.757 -10.743  1.00 24.49 LIG 0.20  C 
BRANCH 20 21
ATOM     21  CB  SER B  13      35.310 -11.643 -10.794  1.00 26.86 LIG 0.20  C 
BRANCH 21 22
ATOM     22 OG   SER B  13      34.698 -12.774 -10.187  1.00 27.16 LIG-0.40  OA
ATOM     23 HG   SER B  13      33.874 -12.768 -10.349  1.00 27.16 LIG 0.21  HD
ENDBRANCH 21 22
ENDBRANCH 20 21
BRANCH 20 24
ATOM     24  N   SER B  13      37.447 -10.443 -10.913  1.00 26.25 LIG-0.34  N 
ATOM     25 H    SER B  13      36.883  -9.797 -10.987  1.00 26.25 LIG 0.16  HD
ATOM     26  C   ALA B  12      38.766 -10.283 -10.950  1.00 27.91 LIG 0.26  C 
ATOM     27 O    ALA B  12      39.561 -11.219 -10.847  1.00 29.06 LIG-0.27  OA
BRANCH 26 28
ATOM     28  CA  ALA B  12      39.273  -8.858 -11.130  1.00 28.19 LIG 0.40  C 
ATOM     29  N   ALA B  12      39.211  -8.475 -12.571  1.00 28.78 LIG 0.61  N 
ATOM     30  CB  ALA B  12      38.437  -7.893 -10.293  1.00 26.50 LIG 0.06  C 
ENDBRANCH 26 28
ENDBRANCH 20 24
ENDBRANCH 1 20
TORSDOF 13
ENDMDL
MODEL 19
USER: ADFR SOLUTION from run 144
USER: SCORE 9.656626 LL:  -1.674 LR:  -8.971 RR:   0.000 FEB:  -5.093
USER: RMSD 6.592215
USER: SEED 143
USER: STATUS no improvement in best in 10 clusters for 5 generations
USER: GENES 15
USER: genes 0 Translation |==|  0.64643 0.66014 0.52498
USER: genes 1 Rotation |==|  0.12617 0.80174 0.37114 0.55094
USER: genes 2 Torsion [C]-N--CA-[CB] |==|  0.18965
USER: genes 3 Torsion [N]-CA--C-[N] |==|  0.83333
USER: genes 4 Torsion [C]-N--CA-[C] |==|  0.63450
USER: genes 5 Torsion [N]-CA--C-[O] |==|  0.87247
USER: genes 6 Torsion [N]-CA--CB-[OG] |==|  0.61773
USER: genes 7 Torsion [CA]-CB--OG-[HG] |==|  0.73629
USER: genes 8 Torsion [N]-CA--CB-[CG2] |==|  0.08055
USER: genes 9 Torsion [CA]-CB--OG1-[HG1] |==|  0.68952
USER: genes 10 Torsion [N]-C--CA-[N] |==|  0.16883
USER: genes 11 Torsion [C]-CA--CB-[OG] |==|  0.82377
USER: genes 12 Torsion [CA]-CB--OG-[HG] |==|  0.14634
USER: genes 13 Torsion [C]-CA--N-[C] |==|  0.78209
USER: genes 14 Torsion [N]-C--CA-[N] |==|  0.82140
ROOT
ATOM      1  C   SER B  13      38.440  -9.991 -10.901  1.00 23.09 LIG 0.24  C 
ATOM      2 O    SER B  13      37.760  -9.090 -10.410  1.00 20.43 LIG-0.27  OA
ATOM      3  N   THR B  14      38.150 -11.280 -10.751  1.00 21.89 LIG-0.34  N 
ATOM      4 H    THR B  14      38.598 -11.921 -11.110  1.00 21.89 LIG 0.16  HD
ENDROOT
BRANCH 3 5
ATOM      5  CA  THR B  14      37.015 -11.710  -9.941  1.00 22.97 LIG 0.20  C 
BRANCH 5 6
ATOM      6  C   THR B  14      37.099 -13.230  -9.884  1.00 23.95 LIG 0.24  C 
ATOM      7  N   SER B  15      37.042 -13.884 -11.039  1.00 23.79 LIG-0.34  N 
ATOM      8 H    SER B  15      36.963 -13.508 -11.807  1.00 23.79 LIG 0.16  HD
ATOM      9 O    THR B  14      37.216 -13.802  -8.798  1.00 24.21 LIG-0.27  OA
BRANCH 7 10
ATOM     10  CA  SER B  15      37.112 -15.341 -11.074  1.00 24.78 LIG 0.19  C 
BRANCH 10 11
ATOM     11  C   SER B  15      38.122 -15.813 -12.109  1.00 26.56 LIG 0.22  C 
ATOM     12 O    SER B  15      38.066 -15.256 -13.226  1.00 28.00 LIG-0.29  OA
ENDBRANCH 10 11
BRANCH 10 13
ATOM     13  CB  SER B  15      35.739 -15.939 -11.394  1.00 23.87 LIG 0.20  C 
BRANCH 13 14
ATOM     14 OG   SER B  15      35.471 -17.066 -10.579  1.00 25.06 LIG-0.40  OA
ATOM     15 HG   SER B  15      35.688 -17.767 -10.988  1.00 25.06 LIG 0.21  HD
ENDBRANCH 13 14
ENDBRANCH 10 13
ENDBRANCH 7 10
ENDBRANCH 5 6
BRANCH 5 16
ATOM     16  CB  THR B  14      35.674 -11.322 -10.587  1.00 24.21 LIG 0.15  C 
ATOM     17  CG2 THR B  14      35.803 -11.268 -12.101  1.00 24.44 LIG 0.04  C 
BRANCH 16 18
ATOM     18 OG1  THR B  14      34.679 -12.288 -10.226  1.00 24.18 LIG-0.39  OA
ATOM     19 HG1  THR B  14      34.456 -12.727 -10.906  1.00 24.18 LIG 0.21  HD
ENDBRANCH 16 18
ENDBRANCH 5 16
ENDBRANCH 3 5
BRANCH 1 20
ATOM     20  CA  SER B  13      39.676  -9.670 -11.734  1.00 24.49 LIG 0.20  C 
BRANCH 20 21
ATOM     21  CB  SER B  13      39.866  -8.151 -11.761  1.00 26.86 LIG 0.20  C 
BRANCH 21 22
ATOM     22 OG   SER B  13      38.770  -7.517 -12.407  1.00 27.16 LIG-0.40  OA
ATOM     23 HG   SER B  13      38.051  -7.773 -12.056  1.00 27.16 LIG 0.21  HD
ENDBRANCH 21 22
ENDBRANCH 20 21
BRANCH 20 24
ATOM     24  N   SER B  13      39.511 -10.183 -13.090  1.00 26.25 LIG-0.34  N 
ATOM     25 H    SER B  13      39.297  -9.586 -13.671  1.00 26.25 LIG 0.16  HD
ATOM     26  C   ALA B  12      39.684 -11.469 -13.379  1.00 27.91 LIG 0.26  C 
ATOM     27 O    ALA B  12      39.988 -12.314 -12.535  1.00 29.06 LIG-0.27  OA
BRANCH 26 28
ATOM     28  CA  ALA B  12      39.485 -11.871 -14.835  1.00 28.19 LIG 0.40  C 
ATOM     29  N   ALA B  12      38.066 -11.643 -15.235  1.00 28.78 LIG 0.61  N 
ATOM     30  CB  ALA B  12      40.420 -11.068 -15.735  1.00 26.50 LIG 0.06  C 
ENDBRANCH 26 28
ENDBRANCH 20 24
ENDBRANCH 1 20
TORSDOF 13
ENDMDL
MODEL 20
USER: ADFR SOLUTION from run 75
USER: SCORE 9.047061 LL:  -1.552 LR:  -8.940 RR:   0.000 FEB:  -5.062
USER: RMSD 7.997489
USER: SEED 74
USER: STATUS no improvement in best in 9 clusters for 5 generations
USER: GENES 15
USER: genes 0 Translation |==|  0.43972 0.33200 0.62339
USER: genes 1 Rotation |==|  0.31142 0.96061 0.54709 0.50791
USER: genes 2 Torsion [C]-N--CA-[CB] |==|  0.31667
USER: genes 3 Torsion [N]-CA--C-[N] |==|  0.96893
USER: genes 4 Torsion [C]-N--CA-[C] |==|  0.51550
USER: genes 5 Torsion [N]-CA--C-[O] |==|  0.96205
USER: genes 6 Torsion [N]-CA--CB-[OG] |==|  0.30366
USER: genes 7 Torsion [CA]-CB--OG-[HG] |==|  0.58808
USER: genes 8 Torsion [N]-CA--CB-[CG2] |==|  0.53856
USER: genes 9 Torsion [CA]-CB--OG1-[HG1] |==|  0.11227
USER: genes 10 Torsion [N]-C--CA-[N] |==|  0.43527
USER: genes 11 Torsion [C]-CA--CB-[OG] |==|  0.16389
USER: genes 12 Torsion [CA]-CB--OG-[HG] |==|  0.42360
USER: genes 13 Torsion [C]-CA--N-[C] |==|  0.80548
USER: genes 14 Torsion [N]-C--CA-[N] |==|  0.42089
ROOT
ATOM      1  C   SER B  13      34.719 -14.913  -9.130  1.00 23.09 LIG 0.24  C 
ATOM      2 O    SER B  13      35.261 -14.423  -8.140  1.00 20.43 LIG-0.27  OA
ATOM      3  N   THR B  14      33.494 -15.428  -9.104  1.00 21.89 LIG-0.34  N 
ATOM      4 H    THR B  14      33.090 -15.750  -9.792  1.00 21.89 LIG 0.16  HD
ENDROOT
BRANCH 3 5
ATOM      5  CA  THR B  14      32.724 -15.486  -7.866  1.00 22.97 LIG 0.20  C 
BRANCH 5 6
ATOM      6  C   THR B  14      32.259 -16.930  -7.733  1.00 23.95 LIG 0.24  C 
ATOM      7  N   SER B  15      32.418 -17.718  -8.790  1.00 23.79 LIG-0.34  N 
ATOM      8 H    SER B  15      32.765 -17.467  -9.536  1.00 23.79 LIG 0.16  HD
ATOM      9 O    THR B  14      31.760 -17.324  -6.676  1.00 24.21 LIG-0.27  OA
BRANCH 7 10
ATOM     10  CA  SER B  15      31.997 -19.115  -8.749  1.00 24.78 LIG 0.19  C 
BRANCH 10 11
ATOM     11  C   SER B  15      32.405 -19.844 -10.021  1.00 26.56 LIG 0.22  C 
ATOM     12 O    SER B  15      32.771 -19.124 -10.974  1.00 28.00 LIG-0.29  OA
ENDBRANCH 10 11
BRANCH 10 13
ATOM     13  CB  SER B  15      30.480 -19.215  -8.570  1.00 23.87 LIG 0.20  C 
BRANCH 13 14
ATOM     14 OG   SER B  15      29.857 -19.677  -9.755  1.00 25.06 LIG-0.40  OA
ATOM     15 HG   SER B  15      29.091 -19.338  -9.820  1.00 25.06 LIG 0.21  HD
ENDBRANCH 13 14
ENDBRANCH 10 13
ENDBRANCH 7 10
ENDBRANCH 5 6
BRANCH 5 16
ATOM     16  CB  THR B  14      31.482 -14.580  -7.924  1.00 24.21 LIG 0.15  C 
ATOM     17  CG2 THR B  14      30.892 -14.388  -6.535  1.00 24.44 LIG 0.04  C 
BRANCH 16 18
ATOM     18 OG1  THR B  14      31.851 -13.306  -8.466  1.00 24.18 LIG-0.39  OA
ATOM     19 HG1  THR B  14      32.390 -13.418  -9.101  1.00 24.18 LIG 0.21  HD
ENDBRANCH 16 18
ENDBRANCH 5 16
ENDBRANCH 3 5
BRANCH 1 20
ATOM     20  CA  SER B  13      35.438 -14.951 -10.474  1.00 24.49 LIG 0.20  C 
BRANCH 20 21
ATOM     21  CB  SER B  13      36.067 -16.335 -10.652  1.00 26.86 LIG 0.20  C 
BRANCH 21 22
ATOM     22 OG   SER B  13      35.074 -17.351 -10.601  1.00 27.16 LIG-0.40  OA
ATOM     23 HG   SER B  13      35.328 -18.014 -11.050  1.00 27.16 LIG 0.21  HD
ENDBRANCH 21 22
ENDBRANCH 20 21
BRANCH 20 24
ATOM     24  N   SER B  13      36.468 -13.918 -10.519  1.00 26.25 LIG-0.34  N 
ATOM     25 H    SER B  13      37.273 -14.220 -10.503  1.00 26.25 LIG 0.16  HD
ATOM     26  C   ALA B  12      36.162 -12.625 -10.580  1.00 27.91 LIG 0.26  C 
ATOM     27 O    ALA B  12      35.003 -12.208 -10.598  1.00 29.06 LIG-0.27  OA
BRANCH 26 28
ATOM     28  CA  ALA B  12      37.332 -11.652 -10.625  1.00 28.19 LIG 0.40  C 
ATOM     29  N   ALA B  12      36.934 -10.412 -11.353  1.00 28.78 LIG 0.61  N 
ATOM     30  CB  ALA B  12      37.784 -11.307  -9.209  1.00 26.50 LIG 0.06  C 
ENDBRANCH 26 28
ENDBRANCH 20 24
ENDBRANCH 1 20
TORSDOF 13
ENDMDL
MODEL 21
USER: ADFR SOLUTION from run 152
USER: SCORE 8.994506 LL:  -1.480 LR:  -8.906 RR:   0.000 FEB:  -5.028
USER: RMSD 5.090315
USER: SEED 151
USER: STATUS no improvement in best in 14 clusters for 5 generations
USER: GENES 15
USER: genes 0 Translation |==|  0.67389 0.57702 0.47503
USER: genes 1 Rotation |==|  0.16303 0.40018 0.83573 0.61735
USER: genes 2 Torsion [C]-N--CA-[CB] |==|  0.39814
USER: genes 3 Torsion [N]-CA--C-[N] |==|  0.91939
USER: genes 4 Torsion [C]-N--CA-[C] |==|  0.58943
USER: genes 5 Torsion [N]-CA--C-[O] |==|  0.52124
USER: genes 6 Torsion [N]-CA--CB-[OG] |==|  0.04153
USER: genes 7 Torsion [CA]-CB--OG-[HG] |==|  0.11393
USER: genes 8 Torsion [N]-CA--CB-[CG2] |==|  0.94972
USER: genes 9 Torsion [CA]-CB--OG1-[HG1] |==|  0.83228
USER: genes 10 Torsion [N]-C--CA-[N] |==|  0.37522
USER: genes 11 Torsion [C]-CA--CB-[OG] |==|  0.17765
USER: genes 12 Torsion [CA]-CB--OG-[HG] |==|  0.19067
USER: genes 13 Torsion [C]-CA--N-[C] |==|  0.63550
USER: genes 14 Torsion [N]-C--CA-[N] |==|  0.39313
ROOT
ATOM      1  C   SER B  13      38.934 -11.238 -11.800  1.00 23.09 LIG 0.24  C 
ATOM      2 O    SER B  13      39.816 -11.864 -11.213  1.00 20.43 LIG-0.27  OA
ATOM      3  N   THR B  14      39.004 -10.927 -13.091  1.00 21.89 LIG-0.34  N 
ATOM      4 H    THR B  14      38.385 -10.514 -13.523  1.00 21.89 LIG 0.16  HD
ENDROOT
BRANCH 3 5
ATOM      5  CA  THR B  14      40.173 -11.277 -13.891  1.00 22.97 LIG 0.20  C 
BRANCH 5 6
ATOM      6  C   THR B  14      41.020 -10.014 -13.963  1.00 23.95 LIG 0.24  C 
ATOM      7  N   SER B  15      40.381  -8.851 -13.892  1.00 23.79 LIG-0.34  N 
ATOM      8 H    SER B  15      39.530  -8.768 -13.808  1.00 23.79 LIG 0.16  HD
ATOM      9 O    THR B  14      42.245 -10.097 -14.080  1.00 24.21 LIG-0.27  OA
BRANCH 7 10
ATOM     10  CA  SER B  15      41.117  -7.592 -13.956  1.00 24.78 LIG 0.19  C 
BRANCH 10 11
ATOM     11  C   SER B  15      40.433  -6.520 -13.121  1.00 26.56 LIG 0.22  C 
ATOM     12 O    SER B  15      40.896  -5.364 -13.223  1.00 28.00 LIG-0.29  OA
ENDBRANCH 10 11
BRANCH 10 13
ATOM     13  CB  SER B  15      41.234  -7.110 -15.404  1.00 23.87 LIG 0.20  C 
BRANCH 13 14
ATOM     14 OG   SER B  15      40.330  -7.803 -16.247  1.00 25.06 LIG-0.40  OA
ATOM     15 HG   SER B  15      39.593  -7.893 -15.854  1.00 25.06 LIG 0.21  HD
ENDBRANCH 13 14
ENDBRANCH 10 13
ENDBRANCH 7 10
ENDBRANCH 5 6
BRANCH 5 16
ATOM     16  CB  THR B  14      39.784 -11.682 -15.323  1.00 24.21 LIG 0.15  C 
ATOM     17  CG2 THR B  14      38.307 -12.038 -15.398  1.00 24.44 LIG 0.04  C 
BRANCH 16 18
ATOM     18 OG1  THR B  14      40.059 -10.594 -16.213  1.00 24.18 LIG-0.39  OA
ATOM     19 HG1  THR B  14      39.609  -9.924 -15.983  1.00 24.18 LIG 0.21  HD
ENDBRANCH 16 18
ENDBRANCH 5 16
ENDBRANCH 3 5
BRANCH 1 20
ATOM     20  CA  SER B  13      37.681 -10.779 -11.063  1.00 24.49 LIG 0.20  C 
BRANCH 20 21
ATOM     21  CB  SER B  13      38.039  -9.564 -10.202  1.00 26.86 LIG 0.20  C 
BRANCH 21 22
ATOM     22 OG   SER B  13      38.440  -8.469 -11.015  1.00 27.16 LIG-0.40  OA
ATOM     23 HG   SER B  13      37.778  -8.183 -11.446  1.00 27.16 LIG 0.21  HD
ENDBRANCH 21 22
ENDBRANCH 20 21
BRANCH 20 24
ATOM     24  N   SER B  13      37.170 -11.859 -10.226  1.00 26.25 LIG-0.34  N 
ATOM     25 H    SER B  13      37.765 -12.236  -9.733  1.00 26.25 LIG 0.16  HD
ATOM     26  C   ALA B  12      35.888 -12.211 -10.243  1.00 27.91 LIG 0.26  C 
ATOM     27 O    ALA B  12      35.048 -11.662 -10.958  1.00 29.06 LIG-0.27  OA
BRANCH 26 28
ATOM     28  CA  ALA B  12      35.485 -13.352  -9.318  1.00 28.19 LIG 0.40  C 
ATOM     29  N   ALA B  12      34.146 -13.074  -8.720  1.00 28.78 LIG 0.61  N 
ATOM     30  CB  ALA B  12      35.452 -14.668 -10.090  1.00 26.50 LIG 0.06  C 
ENDBRANCH 26 28
ENDBRANCH 20 24
ENDBRANCH 1 20
TORSDOF 13
ENDMDL
MODEL 22
USER: ADFR SOLUTION from run 84
USER: SCORE 8.805984 LL:  -1.313 LR:  -8.878 RR:   0.000 FEB:  -5.000
USER: RMSD 7.632562
USER: SEED 83
USER: STATUS no improvement in best in 3 clusters for 5 generations
USER: GENES 15
USER: genes 0 Translation |==|  0.44053 0.45823 0.64675
USER: genes 1 Rotation |==|  0.34258 0.94402 0.66613 0.52172
USER: genes 2 Torsion [C]-N--CA-[CB] |==|  0.40886
USER: genes 3 Torsion [N]-CA--C-[N] |==|  0.87229
USER: genes 4 Torsion [C]-N--CA-[C] |==|  0.13808
USER: genes 5 Torsion [N]-CA--C-[O] |==|  0.27023
USER: genes 6 Torsion [N]-CA--CB-[OG] |==|  0.77498
USER: genes 7 Torsion [CA]-CB--OG-[HG] |==|  0.57854
USER: genes 8 Torsion [N]-CA--CB-[CG2] |==|  0.68338
USER: genes 9 Torsion [CA]-CB--OG1-[HG1] |==|  0.08755
USER: genes 10 Torsion [N]-C--CA-[N] |==|  0.45861
USER: genes 11 Torsion [C]-CA--CB-[OG] |==|  0.00389
USER: genes 12 Torsion [CA]-CB--OG-[HG] |==|  0.19271
USER: genes 13 Torsion [C]-CA--N-[C] |==|  0.55234
USER: genes 14 Torsion [N]-C--CA-[N] |==|  0.40146
ROOT
ATOM      1  C   SER B  13      34.734 -13.020  -8.709  1.00 23.09 LIG 0.24  C 
ATOM      2 O    SER B  13      35.439 -13.068  -7.702  1.00 20.43 LIG-0.27  OA
ATOM      3  N   THR B  14      33.467 -13.425  -8.726  1.00 21.89 LIG-0.34  N 
ATOM      4 H    THR B  14      32.953 -13.373  -9.413  1.00 21.89 LIG 0.16  HD
ENDROOT
BRANCH 3 5
ATOM      5  CA  THR B  14      32.843 -14.004  -7.541  1.00 22.97 LIG 0.20  C 
BRANCH 5 6
ATOM      6  C   THR B  14      32.986 -15.513  -7.693  1.00 23.95 LIG 0.24  C 
ATOM      7  N   SER B  15      32.685 -16.035  -8.877  1.00 23.79 LIG-0.34  N 
ATOM      8 H    SER B  15      32.419 -15.579  -9.555  1.00 23.79 LIG 0.16  HD
ATOM      9 O    THR B  14      33.369 -16.196  -6.740  1.00 24.21 LIG-0.27  OA
BRANCH 7 10
ATOM     10  CA  SER B  15      32.791 -17.472  -9.107  1.00 24.78 LIG 0.19  C 
BRANCH 10 11
ATOM     11  C   SER B  15      32.085 -18.252  -8.008  1.00 26.56 LIG 0.22  C 
ATOM     12 O    SER B  15      30.922 -18.632  -8.263  1.00 28.00 LIG-0.29  OA
ENDBRANCH 10 11
BRANCH 10 13
ATOM     13  CB  SER B  15      34.260 -17.899  -9.170  1.00 23.87 LIG 0.20  C 
BRANCH 13 14
ATOM     14 OG   SER B  15      34.812 -17.640 -10.449  1.00 25.06 LIG-0.40  OA
ATOM     15 HG   SER B  15      35.429 -18.188 -10.605  1.00 25.06 LIG 0.21  HD
ENDBRANCH 13 14
ENDBRANCH 10 13
ENDBRANCH 7 10
ENDBRANCH 5 6
BRANCH 5 16
ATOM     16  CB  THR B  14      31.345 -13.664  -7.462  1.00 24.21 LIG 0.15  C 
ATOM     17  CG2 THR B  14      31.060 -12.768  -6.268  1.00 24.44 LIG 0.04  C 
BRANCH 16 18
ATOM     18 OG1  THR B  14      30.948 -12.997  -8.666  1.00 24.18 LIG-0.39  OA
ATOM     19 HG1  THR B  14      31.409 -13.279  -9.308  1.00 24.18 LIG 0.21  HD
ENDBRANCH 16 18
ENDBRANCH 5 16
ENDBRANCH 3 5
BRANCH 1 20
ATOM     20  CA  SER B  13      35.284 -12.474 -10.022  1.00 24.49 LIG 0.20  C 
BRANCH 20 21
ATOM     21  CB  SER B  13      35.525 -13.647 -10.976  1.00 26.86 LIG 0.20  C 
BRANCH 21 22
ATOM     22 OG   SER B  13      35.139 -14.875 -10.373  1.00 27.16 LIG-0.40  OA
ATOM     23 HG   SER B  13      34.303 -14.898 -10.296  1.00 27.16 LIG 0.21  HD
ENDBRANCH 21 22
ENDBRANCH 20 21
BRANCH 20 24
ATOM     24  N   SER B  13      36.531 -11.755  -9.780  1.00 26.25 LIG-0.34  N 
ATOM     25 H    SER B  13      36.909 -11.944  -9.032  1.00 26.25 LIG 0.16  HD
ATOM     26  C   ALA B  12      37.019 -10.884 -10.659  1.00 27.91 LIG 0.26  C 
ATOM     27 O    ALA B  12      36.463 -10.621 -11.726  1.00 29.06 LIG-0.27  OA
BRANCH 26 28
ATOM     28  CA  ALA B  12      38.330 -10.205 -10.285  1.00 28.19 LIG 0.40  C 
ATOM     29  N   ALA B  12      39.162  -9.997 -11.507  1.00 28.78 LIG 0.61  N 
ATOM     30  CB  ALA B  12      38.054  -8.868  -9.604  1.00 26.50 LIG 0.06  C 
ENDBRANCH 26 28
ENDBRANCH 20 24
ENDBRANCH 1 20
TORSDOF 13
ENDMDL
MODEL 23
USER: ADFR SOLUTION from run 105
USER: SCORE 9.823007 LL:  -1.715 LR:  -8.880 RR:   0.000 FEB:  -5.002
USER: RMSD 4.560816
USER: SEED 104
USER: STATUS no improvement in best in 8 clusters for 5 generations
USER: GENES 15
USER: genes 0 Translation |==|  0.42852 0.22984 0.57336
USER: genes 1 Rotation |==|  0.33681 0.23041 0.70650 0.82870
USER: genes 2 Torsion [C]-N--CA-[CB] |==|  0.52222
USER: genes 3 Torsion [N]-CA--C-[N] |==|  0.28942
USER: genes 4 Torsion [C]-N--CA-[C] |==|  0.66041
USER: genes 5 Torsion [N]-CA--C-[O] |==|  0.92391
USER: genes 6 Torsion [N]-CA--CB-[OG] |==|  0.91218
USER: genes 7 Torsion [CA]-CB--OG-[HG] |==|  0.31704
USER: genes 8 Torsion [N]-CA--CB-[CG2] |==|  0.58779
USER: genes 9 Torsion [CA]-CB--OG1-[HG1] |==|  0.97094
USER: genes 10 Torsion [N]-C--CA-[N] |==|  0.03536
USER: genes 11 Torsion [C]-CA--CB-[OG] |==|  0.16863
USER: genes 12 Torsion [CA]-CB--OG-[HG] |==|  0.84793
USER: genes 13 Torsion [C]-CA--N-[C] |==|  0.68994
USER: genes 14 Torsion [N]-C--CA-[N] |==|  0.53872
ROOT
ATOM      1  C   SER B  13      34.517 -16.445 -10.030  1.00 23.09 LIG 0.24  C 
ATOM      2 O    SER B  13      35.314 -17.115 -10.688  1.00 20.43 LIG-0.27  OA
ATOM      3  N   THR B  14      34.586 -15.121  -9.942  1.00 21.89 LIG-0.34  N 
ATOM      4 H    THR B  14      34.021 -14.636  -9.510  1.00 21.89 LIG 0.16  HD
ENDROOT
BRANCH 3 5
ATOM      5  CA  THR B  14      35.657 -14.373 -10.592  1.00 22.97 LIG 0.20  C 
BRANCH 5 6
ATOM      6  C   THR B  14      36.956 -14.993 -10.094  1.00 23.95 LIG 0.24  C 
ATOM      7  N   SER B  15      37.608 -15.791 -10.933  1.00 23.79 LIG-0.34  N 
ATOM      8 H    SER B  15      37.346 -15.975 -11.731  1.00 23.79 LIG 0.16  HD
ATOM      9 O    THR B  14      37.362 -14.746  -8.956  1.00 24.21 LIG-0.27  OA
BRANCH 7 10
ATOM     10  CA  SER B  15      38.859 -16.428 -10.535  1.00 24.78 LIG 0.19  C 
BRANCH 10 11
ATOM     11  C   SER B  15      39.986 -16.054 -11.487  1.00 26.56 LIG 0.22  C 
ATOM     12 O    SER B  15      39.648 -15.768 -12.655  1.00 28.00 LIG-0.29  OA
ENDBRANCH 10 11
BRANCH 10 13
ATOM     13  CB  SER B  15      38.703 -17.950 -10.506  1.00 23.87 LIG 0.20  C 
BRANCH 13 14
ATOM     14 OG   SER B  15      37.382 -18.320 -10.151  1.00 25.06 LIG-0.40  OA
ATOM     15 HG   SER B  15      37.012 -18.700 -10.803  1.00 25.06 LIG 0.21  HD
ENDBRANCH 13 14
ENDBRANCH 10 13
ENDBRANCH 7 10
ENDBRANCH 5 6
BRANCH 5 16
ATOM     16  CB  THR B  14      35.642 -12.889 -10.190  1.00 24.21 LIG 0.15  C 
ATOM     17  CG2 THR B  14      36.147 -12.018 -11.330  1.00 24.44 LIG 0.04  C 
BRANCH 16 18
ATOM     18 OG1  THR B  14      34.304 -12.504  -9.851  1.00 24.18 LIG-0.39  OA
ATOM     19 HG1  THR B  14      33.772 -13.115 -10.073  1.00 24.18 LIG 0.21  HD
ENDBRANCH 16 18
ENDBRANCH 5 16
ENDBRANCH 3 5
BRANCH 1 20
ATOM     20  CA  SER B  13      33.378 -17.114  -9.271  1.00 24.49 LIG 0.20  C 
BRANCH 20 21
ATOM     21  CB  SER B  13      32.706 -18.133 -10.195  1.00 26.86 LIG 0.20  C 
BRANCH 21 22
ATOM     22 OG   SER B  13      33.632 -19.133 -10.601  1.00 27.16 LIG-0.40  OA
ATOM     23 HG   SER B  13      34.304 -18.768 -10.948  1.00 27.16 LIG 0.21  HD
ENDBRANCH 21 22
ENDBRANCH 20 21
BRANCH 20 24
ATOM     24  N   SER B  13      32.410 -16.112  -8.836  1.00 26.25 LIG-0.34  N 
ATOM     25 H    SER B  13      31.969 -15.745  -9.477  1.00 26.25 LIG 0.16  HD
ATOM     26  C   ALA B  12      32.244 -15.808  -7.552  1.00 27.91 LIG 0.26  C 
ATOM     27 O    ALA B  12      32.888 -16.340  -6.647  1.00 29.06 LIG-0.27  OA
BRANCH 26 28
ATOM     28  CA  ALA B  12      31.199 -14.747  -7.235  1.00 28.19 LIG 0.40  C 
ATOM     29  N   ALA B  12      31.362 -14.278  -5.828  1.00 28.78 LIG 0.61  N 
ATOM     30  CB  ALA B  12      31.335 -13.571  -8.199  1.00 26.50 LIG 0.06  C 
ENDBRANCH 26 28
ENDBRANCH 20 24
ENDBRANCH 1 20
TORSDOF 13
ENDMDL
MODEL 24
USER: ADFR SOLUTION from run 190
USER: SCORE 9.109630 LL:  -1.361 LR:  -8.680 RR:   0.000 FEB:  -4.802
USER: RMSD 8.095310
USER: SEED 189
USER: STATUS no improvement in best in 6 clusters for 5 generations
USER: GENES 15
USER: genes 0 Translation |==|  0.75140 0.72803 0.68088
USER: genes 1 Rotation |==|  0.40345 0.76607 0.62421 0.89301
USER: genes 2 Torsion [C]-N--CA-[CB] |==|  0.52778
USER: genes 3 Torsion [N]-CA--C-[N] |==|  0.41662
USER: genes 4 Torsion [C]-N--CA-[C] |==|  0.54633
USER: genes 5 Torsion [N]-CA--C-[O] |==|  0.64489
USER: genes 6 Torsion [N]-CA--CB-[OG] |==|  0.76696
USER: genes 7 Torsion [CA]-CB--OG-[HG] |==|  0.09081
USER: genes 8 Torsion [N]-CA--CB-[CG2] |==|  0.26870
USER: genes 9 Torsion [CA]-CB--OG1-[HG1] |==|  0.86122
USER: genes 10 Torsion [N]-C--CA-[N] |==|  0.20356
USER: genes 11 Torsion [C]-CA--CB-[OG] |==|  0.71245
USER: genes 12 Torsion [CA]-CB--OG-[HG] |==|  0.11456
USER: genes 13 Torsion [C]-CA--N-[C] |==|  0.68141
USER: genes 14 Torsion [N]-C--CA-[N] |==|  0.00607
ROOT
ATOM      1  C   SER B  13      40.329  -8.973  -8.095  1.00 23.09 LIG 0.24  C 
ATOM      2 O    SER B  13      39.329  -9.539  -7.654  1.00 20.43 LIG-0.27  OA
ATOM      3  N   THR B  14      40.361  -8.384  -9.287  1.00 21.89 LIG-0.34  N 
ATOM      4 H    THR B  14      41.042  -7.960  -9.598  1.00 21.89 LIG 0.16  HD
ENDROOT
BRANCH 3 5
ATOM      5  CA  THR B  14      39.206  -8.417 -10.177  1.00 22.97 LIG 0.20  C 
BRANCH 5 6
ATOM      6  C   THR B  14      38.815  -9.884 -10.296  1.00 23.95 LIG 0.24  C 
ATOM      7  N   SER B  15      37.531 -10.155 -10.505  1.00 23.79 LIG-0.34  N 
ATOM      8 H    SER B  15      36.915  -9.560 -10.578  1.00 23.79 LIG 0.16  HD
ATOM      9 O    THR B  14      39.675 -10.762 -10.200  1.00 24.21 LIG-0.27  OA
BRANCH 7 10
ATOM     10  CA  SER B  15      37.071 -11.534 -10.628  1.00 24.78 LIG 0.19  C 
BRANCH 10 11
ATOM     11  C   SER B  15      35.687 -11.592 -11.258  1.00 26.56 LIG 0.22  C 
ATOM     12 O    SER B  15      34.826 -12.248 -10.634  1.00 28.00 LIG-0.29  OA
ENDBRANCH 10 11
BRANCH 10 13
ATOM     13  CB  SER B  15      37.035 -12.214  -9.257  1.00 23.87 LIG 0.20  C 
BRANCH 13 14
ATOM     14 OG   SER B  15      38.310 -12.721  -8.905  1.00 25.06 LIG-0.40  OA
ATOM     15 HG   SER B  15      38.908 -12.224  -9.224  1.00 25.06 LIG 0.21  HD
ENDBRANCH 13 14
ENDBRANCH 10 13
ENDBRANCH 7 10
ENDBRANCH 5 6
BRANCH 5 16
ATOM     16  CB  THR B  14      39.553  -7.892 -11.581  1.00 24.21 LIG 0.15  C 
ATOM     17  CG2 THR B  14      39.865  -9.044 -12.523  1.00 24.44 LIG 0.04  C 
BRANCH 16 18
ATOM     18 OG1  THR B  14      38.444  -7.143 -12.093  1.00 24.18 LIG-0.39  OA
ATOM     19 HG1  THR B  14      37.740  -7.593 -12.010  1.00 24.18 LIG 0.21  HD
ENDBRANCH 16 18
ENDBRANCH 5 16
ENDBRANCH 3 5
BRANCH 1 20
ATOM     20  CA  SER B  13      41.613  -8.907  -7.276  1.00 24.49 LIG 0.20  C 
BRANCH 20 21
ATOM     21  CB  SER B  13      41.510  -9.913  -6.126  1.00 26.86 LIG 0.20  C 
BRANCH 21 22
ATOM     22 OG   SER B  13      41.235  -9.248  -4.899  1.00 27.16 LIG-0.40  OA
ATOM     23 HG   SER B  13      40.668  -8.643  -5.030  1.00 27.16 LIG 0.21  HD
ENDBRANCH 21 22
ENDBRANCH 20 21
BRANCH 20 24
ATOM     24  N   SER B  13      41.804  -7.559  -6.753  1.00 26.25 LIG-0.34  N 
ATOM     25 H    SER B  13      41.208  -7.312  -6.184  1.00 26.25 LIG 0.16  HD
ATOM     26  C   ALA B  12      42.822  -6.795  -7.138  1.00 27.91 LIG 0.26  C 
ATOM     27 O    ALA B  12      43.666  -7.162  -7.957  1.00 29.06 LIG-0.27  OA
BRANCH 26 28
ATOM     28  CA  ALA B  12      42.907  -5.409  -6.512  1.00 28.19 LIG 0.40  C 
ATOM     29  N   ALA B  12      41.804  -5.231  -5.523  1.00 28.78 LIG 0.61  N 
ATOM     30  CB  ALA B  12      44.259  -5.221  -5.830  1.00 26.50 LIG 0.06  C 
ENDBRANCH 26 28
ENDBRANCH 20 24
ENDBRANCH 1 20
TORSDOF 13
ENDMDL
MODEL 25
USER: ADFR SOLUTION from run 11
USER: SCORE 8.660458 LL:  -1.625 LR:  -8.659 RR:   0.000 FEB:  -4.781
USER: RMSD 4.308351
USER: SEED 983120
USER: STATUS no improvement in best in 8 clusters for 5 generations
USER: GENES 15
USER: genes 0 Translation |==|  0.61084 0.49694 0.46821
USER: genes 1 Rotation |==|  0.14946 0.36284 0.81191 0.60497
USER: genes 2 Torsion [C]-N--CA-[CB] |==|  0.44758
USER: genes 3 Torsion [N]-CA--C-[N] |==|  0.91439
USER: genes 4 Torsion [C]-N--CA-[C] |==|  0.78583
USER: genes 5 Torsion [N]-CA--C-[O] |==|  0.92689
USER: genes 6 Torsion [N]-CA--CB-[OG] |==|  0.19504
USER: genes 7 Torsion [CA]-CB--OG-[HG] |==|  0.77786
USER: genes 8 Torsion [N]-CA--CB-[CG2] |==|  0.97404
USER: genes 9 Torsion [CA]-CB--OG1-[HG1] |==|  0.82016
USER: genes 10 Torsion [N]-C--CA-[N] |==|  0.49438
USER: genes 11 Torsion [C]-CA--CB-[OG] |==|  0.84799
USER: genes 12 Torsion [CA]-CB--OG-[HG] |==|  0.50838
USER: genes 13 Torsion [C]-CA--N-[C] |==|  0.52778
USER: genes 14 Torsion [N]-C--CA-[N] |==|  0.51258
ROOT
ATOM      1  C   SER B  13      37.799 -12.439 -11.923  1.00 23.09 LIG 0.24  C 
ATOM      2 O    SER B  13      38.650 -13.024 -11.254  1.00 20.43 LIG-0.27  OA
ATOM      3  N   THR B  14      38.017 -12.021 -13.166  1.00 21.89 LIG-0.34  N 
ATOM      4 H    THR B  14      37.425 -11.635 -13.657  1.00 21.89 LIG 0.16  HD
ENDROOT
BRANCH 3 5
ATOM      5  CA  THR B  14      39.318 -12.193 -13.805  1.00 22.97 LIG 0.20  C 
BRANCH 5 6
ATOM      6  C   THR B  14      40.186 -11.052 -13.291  1.00 23.95 LIG 0.24  C 
ATOM      7  N   SER B  15      39.574  -9.912 -12.991  1.00 23.79 LIG-0.34  N 
ATOM      8 H    SER B  15      38.728  -9.780 -13.066  1.00 23.79 LIG 0.16  HD
ATOM      9 O    THR B  14      41.403 -11.209 -13.168  1.00 24.21 LIG-0.27  OA
BRANCH 7 10
ATOM     10  CA  SER B  15      40.332  -8.767 -12.496  1.00 24.78 LIG 0.19  C 
BRANCH 10 11
ATOM     11  C   SER B  15      40.698  -8.951 -11.030  1.00 26.56 LIG 0.22  C 
ATOM     12 O    SER B  15      39.940  -9.685 -10.361  1.00 28.00 LIG-0.29  OA
ENDBRANCH 10 11
BRANCH 10 13
ATOM     13  CB  SER B  15      39.527  -7.476 -12.661  1.00 23.87 LIG 0.20  C 
BRANCH 13 14
ATOM     14 OG   SER B  15      38.429  -7.442 -11.765  1.00 25.06 LIG-0.40  OA
ATOM     15 HG   SER B  15      37.800  -7.906 -12.074  1.00 25.06 LIG 0.21  HD
ENDBRANCH 13 14
ENDBRANCH 10 13
ENDBRANCH 7 10
ENDBRANCH 5 6
BRANCH 5 16
ATOM     16  CB  THR B  14      39.221 -12.078 -15.335  1.00 24.21 LIG 0.15  C 
ATOM     17  CG2 THR B  14      37.768 -12.046 -15.781  1.00 24.44 LIG 0.04  C 
BRANCH 16 18
ATOM     18 OG1  THR B  14      39.879 -10.879 -15.762  1.00 24.18 LIG-0.39  OA
ATOM     19 HG1  THR B  14      39.469 -10.212 -15.458  1.00 24.18 LIG 0.21  HD
ENDBRANCH 16 18
ENDBRANCH 5 16
ENDBRANCH 3 5
BRANCH 1 20
ATOM     20  CA  SER B  13      36.414 -12.161 -11.352  1.00 24.49 LIG 0.20  C 
BRANCH 20 21
ATOM     21  CB  SER B  13      36.193 -10.646 -11.319  1.00 26.86 LIG 0.20  C 
BRANCH 21 22
ATOM     22 OG   SER B  13      37.240 -10.000 -10.606  1.00 27.16 LIG-0.40  OA
ATOM     23 HG   SER B  13      37.082  -9.176 -10.563  1.00 27.16 LIG 0.21  HD
ENDBRANCH 21 22
ENDBRANCH 20 21
BRANCH 20 24
ATOM     24  N   SER B  13      36.307 -12.716 -10.007  1.00 26.25 LIG-0.34  N 
ATOM     25 H    SER B  13      37.053 -12.990  -9.676  1.00 26.25 LIG 0.16  HD
ATOM     26  C   ALA B  12      35.144 -12.782  -9.366  1.00 27.91 LIG 0.26  C 
ATOM     27 O    ALA B  12      34.084 -12.389  -9.854  1.00 29.06 LIG-0.27  OA
BRANCH 26 28
ATOM     28  CA  ALA B  12      35.173 -13.381  -7.965  1.00 28.19 LIG 0.40  C 
ATOM     29  N   ALA B  12      33.785 -13.485  -7.428  1.00 28.78 LIG 0.61  N 
ATOM     30  CB  ALA B  12      35.828 -14.759  -7.996  1.00 26.50 LIG 0.06  C 
ENDBRANCH 26 28
ENDBRANCH 20 24
ENDBRANCH 1 20
TORSDOF 13
ENDMDL
MODEL 26
USER: ADFR SOLUTION from run 87
USER: SCORE 8.828868 LL:  -0.608 LR:  -8.593 RR:   0.000 FEB:  -4.715
USER: RMSD 7.646083
USER: SEED 86
USER: STATUS searching
USER: GENES 15
USER: genes 0 Translation |==|  0.69542 0.59217 0.46720
USER: genes 1 Rotation |==|  0.25475 0.75252 0.80950 0.67405
USER: genes 2 Torsion [C]-N--CA-[CB] |==|  0.77731
USER: genes 3 Torsion [N]-CA--C-[N] |==|  0.19112
USER: genes 4 Torsion [C]-N--CA-[C] |==|  0.80740
USER: genes 5 Torsion [N]-CA--C-[O] |==|  0.90238
USER: genes 6 Torsion [N]-CA--CB-[OG] |==|  0.13565
USER: genes 7 Torsion [CA]-CB--OG-[HG] |==|  0.17935
USER: genes 8 Torsion [N]-CA--CB-[CG2] |==|  0.12546
USER: genes 9 Torsion [CA]-CB--OG1-[HG1] |==|  0.20696
USER: genes 10 Torsion [N]-C--CA-[N] |==|  0.88903
USER: genes 11 Torsion [C]-CA--CB-[OG] |==|  0.62454
USER: genes 12 Torsion [CA]-CB--OG-[HG] |==|  0.42879
USER: genes 13 Torsion [C]-CA--N-[C] |==|  0.78116
USER: genes 14 Torsion [N]-C--CA-[N] |==|  0.78690
ROOT
ATOM      1  C   SER B  13      39.321 -11.011 -11.941  1.00 23.09 LIG 0.24  C 
ATOM      2 O    SER B  13      39.666 -11.862 -11.122  1.00 20.43 LIG-0.27  OA
ATOM      3  N   THR B  14      38.536 -11.281 -12.979  1.00 21.89 LIG-0.34  N 
ATOM      4 H    THR B  14      38.264 -10.693 -13.545  1.00 21.89 LIG 0.16  HD
ENDROOT
BRANCH 3 5
ATOM      5  CA  THR B  14      38.067 -12.638 -13.239  1.00 22.97 LIG 0.20  C 
BRANCH 5 6
ATOM      6  C   THR B  14      37.788 -13.249 -11.872  1.00 23.95 LIG 0.24  C 
ATOM      7  N   SER B  15      36.759 -12.760 -11.187  1.00 23.79 LIG-0.34  N 
ATOM      8 H    SER B  15      36.247 -12.128 -11.465  1.00 23.79 LIG 0.16  HD
ATOM      9 O    THR B  14      38.502 -14.159 -11.444  1.00 24.21 LIG-0.27  OA
BRANCH 7 10
ATOM     10  CA  SER B  15      36.424 -13.286  -9.868  1.00 24.78 LIG 0.19  C 
BRANCH 10 11
ATOM     11  C   SER B  15      35.880 -14.703  -9.971  1.00 26.56 LIG 0.22  C 
ATOM     12 O    SER B  15      35.185 -14.955 -10.977  1.00 28.00 LIG-0.29  OA
ENDBRANCH 10 11
BRANCH 10 13
ATOM     13  CB  SER B  15      35.390 -12.393  -9.179  1.00 23.87 LIG 0.20  C 
BRANCH 13 14
ATOM     14 OG   SER B  15      34.304 -12.109 -10.044  1.00 25.06 LIG-0.40  OA
ATOM     15 HG   SER B  15      33.892 -12.820 -10.221  1.00 25.06 LIG 0.21  HD
ENDBRANCH 13 14
ENDBRANCH 10 13
ENDBRANCH 7 10
ENDBRANCH 5 6
BRANCH 5 16
ATOM     16  CB  THR B  14      39.140 -13.488 -13.940  1.00 24.21 LIG 0.15  C 
ATOM     17  CG2 THR B  14      40.495 -13.296 -13.278  1.00 24.44 LIG 0.04  C 
BRANCH 16 18
ATOM     18 OG1  THR B  14      38.767 -14.870 -13.872  1.00 24.18 LIG-0.39  OA
ATOM     19 HG1  THR B  14      38.142 -15.018 -14.414  1.00 24.18 LIG 0.21  HD
ENDBRANCH 16 18
ENDBRANCH 5 16
ENDBRANCH 3 5
BRANCH 1 20
ATOM     20  CA  SER B  13      39.782  -9.564 -11.803  1.00 24.49 LIG 0.20  C 
BRANCH 20 21
ATOM     21  CB  SER B  13      38.656  -8.754 -11.153  1.00 26.86 LIG 0.20  C 
BRANCH 21 22
ATOM     22 OG   SER B  13      38.469  -7.518 -11.831  1.00 27.16 LIG-0.40  OA
ATOM     23 HG   SER B  13      37.679  -7.255 -11.720  1.00 27.16 LIG 0.21  HD
ENDBRANCH 21 22
ENDBRANCH 20 21
BRANCH 20 24
ATOM     24  N   SER B  13      40.106  -9.015 -13.116  1.00 26.25 LIG-0.34  N 
ATOM     25 H    SER B  13      39.495  -8.510 -13.449  1.00 26.25 LIG 0.16  HD
ATOM     26  C   ALA B  12      41.256  -9.288 -13.724  1.00 27.91 LIG 0.26  C 
ATOM     27 O    ALA B  12      42.120 -10.016 -13.235  1.00 29.06 LIG-0.27  OA
BRANCH 26 28
ATOM     28  CA  ALA B  12      41.470  -8.647 -15.090  1.00 28.19 LIG 0.40  C 
ATOM     29  N   ALA B  12      40.679  -9.378 -16.123  1.00 28.78 LIG 0.61  N 
ATOM     30  CB  ALA B  12      41.057  -7.179 -15.053  1.00 26.50 LIG 0.06  C 
ENDBRANCH 26 28
ENDBRANCH 20 24
ENDBRANCH 1 20
TORSDOF 13
ENDMDL
MODEL 27
USER: ADFR SOLUTION from run 195
USER: SCORE 8.882509 LL:  -1.494 LR:  -8.574 RR:   0.000 FEB:  -4.696
USER: RMSD 7.992519
USER: SEED 194
USER: STATUS no improvement in best in 6 clusters for 5 generations
USER: GENES 15
USER: genes 0 Translation |==|  0.56832 0.56195 0.51621
USER: genes 1 Rotation |==|  0.23925 0.48586 0.07527 0.53757
USER: genes 2 Torsion [C]-N--CA-[CB] |==|  0.23123
USER: genes 3 Torsion [N]-CA--C-[N] |==|  0.41753
USER: genes 4 Torsion [C]-N--CA-[C] |==|  0.78660
USER: genes 5 Torsion [N]-CA--C-[O] |==|  0.90092
USER: genes 6 Torsion [N]-CA--CB-[OG] |==|  0.98518
USER: genes 7 Torsion [CA]-CB--OG-[HG] |==|  0.10222
USER: genes 8 Torsion [N]-CA--CB-[CG2] |==|  0.12205
USER: genes 9 Torsion [CA]-CB--OG1-[HG1] |==|  0.95793
USER: genes 10 Torsion [N]-C--CA-[N] |==|  0.48889
USER: genes 11 Torsion [C]-CA--CB-[OG] |==|  0.64822
USER: genes 12 Torsion [CA]-CB--OG-[HG] |==|  0.16106
USER: genes 13 Torsion [C]-CA--N-[C] |==|  0.55011
USER: genes 14 Torsion [N]-C--CA-[N] |==|  0.24210
ROOT
ATOM      1  C   SER B  13      37.034 -11.464 -11.059  1.00 23.09 LIG 0.24  C 
ATOM      2 O    SER B  13      36.623 -11.619 -12.209  1.00 20.43 LIG-0.27  OA
ATOM      3  N   THR B  14      36.503 -12.087 -10.011  1.00 21.89 LIG-0.34  N 
ATOM      4 H    THR B  14      36.795 -12.011  -9.206  1.00 21.89 LIG 0.16  HD
ENDROOT
BRANCH 3 5
ATOM      5  CA  THR B  14      35.353 -12.972 -10.160  1.00 22.97 LIG 0.20  C 
BRANCH 5 6
ATOM      6  C   THR B  14      34.718 -13.064  -8.778  1.00 23.95 LIG 0.24  C 
ATOM      7  N   SER B  15      33.407 -13.269  -8.726  1.00 23.79 LIG-0.34  N 
ATOM      8 H    SER B  15      32.900 -13.353  -9.415  1.00 23.79 LIG 0.16  HD
ATOM      9 O    THR B  14      35.417 -12.950  -7.769  1.00 24.21 LIG-0.27  OA
BRANCH 7 10
ATOM     10  CA  SER B  15      32.719 -13.366  -7.443  1.00 24.78 LIG 0.19  C 
BRANCH 10 11
ATOM     11  C   SER B  15      32.958 -14.724  -6.800  1.00 26.56 LIG 0.22  C 
ATOM     12 O    SER B  15      33.030 -15.698  -7.579  1.00 28.00 LIG-0.29  OA
ENDBRANCH 10 11
BRANCH 10 13
ATOM     13  CB  SER B  15      31.215 -13.146  -7.620  1.00 23.87 LIG 0.20  C 
BRANCH 13 14
ATOM     14 OG   SER B  15      30.906 -12.786  -8.955  1.00 25.06 LIG-0.40  OA
ATOM     15 HG   SER B  15      31.405 -13.209  -9.483  1.00 25.06 LIG 0.21  HD
ENDBRANCH 13 14
ENDBRANCH 10 13
ENDBRANCH 7 10
ENDBRANCH 5 6
BRANCH 5 16
ATOM     16  CB  THR B  14      35.774 -14.385 -10.596  1.00 24.21 LIG 0.15  C 
ATOM     17  CG2 THR B  14      36.985 -14.853  -9.804  1.00 24.44 LIG 0.04  C 
BRANCH 16 18
ATOM     18 OG1  THR B  14      34.684 -15.290 -10.380  1.00 24.18 LIG-0.39  OA
ATOM     19 HG1  THR B  14      34.116 -14.930  -9.878  1.00 24.18 LIG 0.21  HD
ENDBRANCH 16 18
ENDBRANCH 5 16
ENDBRANCH 3 5
BRANCH 1 20
ATOM     20  CA  SER B  13      38.204 -10.532 -10.768  1.00 24.49 LIG 0.20  C 
BRANCH 20 21
ATOM     21  CB  SER B  13      37.710  -9.393  -9.872  1.00 26.86 LIG 0.20  C 
BRANCH 21 22
ATOM     22 OG   SER B  13      38.033  -8.129 -10.438  1.00 27.16 LIG-0.40  OA
ATOM     23 HG   SER B  13      37.692  -8.069 -11.203  1.00 27.16 LIG 0.21  HD
ENDBRANCH 21 22
ENDBRANCH 20 21
BRANCH 20 24
ATOM     24  N   SER B  13      38.739  -9.996 -12.016  1.00 26.25 LIG-0.34  N 
ATOM     25 H    SER B  13      38.206 -10.064 -12.688  1.00 26.25 LIG 0.16  HD
ATOM     26  C   ALA B  12      39.951  -9.454 -12.083  1.00 27.91 LIG 0.26  C 
ATOM     27 O    ALA B  12      40.704  -9.368 -11.113  1.00 29.06 LIG-0.27  OA
BRANCH 26 28
ATOM     28  CA  ALA B  12      40.386  -8.931 -13.446  1.00 28.19 LIG 0.40  C 
ATOM     29  N   ALA B  12      39.927  -7.522 -13.619  1.00 28.78 LIG 0.61  N 
ATOM     30  CB  ALA B  12      41.905  -9.008 -13.578  1.00 26.50 LIG 0.06  C 
ENDBRANCH 26 28
ENDBRANCH 20 24
ENDBRANCH 1 20
TORSDOF 13
ENDMDL
MODEL 28
USER: ADFR SOLUTION from run 70
USER: SCORE 9.077625 LL:  -1.146 LR:  -8.558 RR:   0.000 FEB:  -4.680
USER: RMSD 7.537535
USER: SEED 69
USER: STATUS no improvement in best in 9 clusters for 5 generations
USER: GENES 15
USER: genes 0 Translation |==|  0.69435 0.69570 0.50689
USER: genes 1 Rotation |==|  0.25669 0.92335 0.58827 0.56152
USER: genes 2 Torsion [C]-N--CA-[CB] |==|  0.53504
USER: genes 3 Torsion [N]-CA--C-[N] |==|  0.29797
USER: genes 4 Torsion [C]-N--CA-[C] |==|  0.78339
USER: genes 5 Torsion [N]-CA--C-[O] |==|  0.34533
USER: genes 6 Torsion [N]-CA--CB-[OG] |==|  0.80987
USER: genes 7 Torsion [CA]-CB--OG-[HG] |==|  0.42067
USER: genes 8 Torsion [N]-CA--CB-[CG2] |==|  0.49757
USER: genes 9 Torsion [CA]-CB--OG1-[HG1] |==|  0.15521
USER: genes 10 Torsion [N]-C--CA-[N] |==|  0.95536
USER: genes 11 Torsion [C]-CA--CB-[OG] |==|  0.94483
USER: genes 12 Torsion [CA]-CB--OG-[HG] |==|  0.87528
USER: genes 13 Torsion [C]-CA--N-[C] |==|  0.82352
USER: genes 14 Torsion [N]-C--CA-[N] |==|  0.83450
ROOT
ATOM      1  C   SER B  13      39.302  -9.458 -11.227  1.00 23.09 LIG 0.24  C 
ATOM      2 O    SER B  13      39.572  -9.134 -10.071  1.00 20.43 LIG-0.27  OA
ATOM      3  N   THR B  14      38.256 -10.215 -11.542  1.00 21.89 LIG-0.34  N 
ATOM      4 H    THR B  14      38.038 -10.428 -12.346  1.00 21.89 LIG 0.16  HD
ENDROOT
BRANCH 3 5
ATOM      5  CA  THR B  14      37.376 -10.755 -10.510  1.00 22.97 LIG 0.20  C 
BRANCH 5 6
ATOM      6  C   THR B  14      38.293 -11.402  -9.480  1.00 23.95 LIG 0.24  C 
ATOM      7  N   SER B  15      38.437 -10.775  -8.318  1.00 23.79 LIG-0.34  N 
ATOM      8 H    SER B  15      38.048 -10.036  -8.113  1.00 23.79 LIG 0.16  HD
ATOM      9 O    THR B  14      38.864 -12.463  -9.741  1.00 24.21 LIG-0.27  OA
BRANCH 7 10
ATOM     10  CA  SER B  15      39.299 -11.324  -7.276  1.00 24.78 LIG 0.19  C 
BRANCH 10 11
ATOM     11  C   SER B  15      38.610 -12.468  -6.547  1.00 26.56 LIG 0.22  C 
ATOM     12 O    SER B  15      39.223 -13.556  -6.526  1.00 28.00 LIG-0.29  OA
ENDBRANCH 10 11
BRANCH 10 13
ATOM     13  CB  SER B  15      39.684 -10.238  -6.268  1.00 23.87 LIG 0.20  C 
BRANCH 13 14
ATOM     14 OG   SER B  15      40.542  -9.277  -6.857  1.00 25.06 LIG-0.40  OA
ATOM     15 HG   SER B  15      40.437  -8.535  -6.477  1.00 25.06 LIG 0.21  HD
ENDBRANCH 13 14
ENDBRANCH 10 13
ENDBRANCH 7 10
ENDBRANCH 5 6
BRANCH 5 16
ATOM     16  CB  THR B  14      36.438 -11.837 -11.071  1.00 24.21 LIG 0.15  C 
ATOM     17  CG2 THR B  14      35.548 -12.398  -9.973  1.00 24.44 LIG 0.04  C 
BRANCH 16 18
ATOM     18 OG1  THR B  14      35.622 -11.267 -12.102  1.00 24.18 LIG-0.39  OA
ATOM     19 HG1  THR B  14      36.114 -10.924 -12.690  1.00 24.18 LIG 0.21  HD
ENDBRANCH 16 18
ENDBRANCH 5 16
ENDBRANCH 3 5
BRANCH 1 20
ATOM     20  CA  SER B  13      40.171  -8.991 -12.390  1.00 24.49 LIG 0.20  C 
BRANCH 20 21
ATOM     21  CB  SER B  13      39.875  -7.513 -12.658  1.00 26.86 LIG 0.20  C 
BRANCH 21 22
ATOM     22 OG   SER B  13      38.619  -7.141 -12.103  1.00 27.16 LIG-0.40  OA
ATOM     23 HG   SER B  13      38.048  -7.729 -12.286  1.00 27.16 LIG 0.21  HD
ENDBRANCH 21 22
ENDBRANCH 20 21
BRANCH 20 24
ATOM     24  N   SER B  13      39.884  -9.787 -13.579  1.00 26.25 LIG-0.34  N 
ATOM     25 H    SER B  13      39.554  -9.338 -14.234  1.00 26.25 LIG 0.16  HD
ATOM     26  C   ALA B  12      40.121 -11.095 -13.620  1.00 27.91 LIG 0.26  C 
ATOM     27 O    ALA B  12      40.590 -11.724 -12.671  1.00 29.06 LIG-0.27  OA
BRANCH 26 28
ATOM     28  CA  ALA B  12      39.779 -11.806 -14.923  1.00 28.19 LIG 0.40  C 
ATOM     29  N   ALA B  12      38.326 -11.643 -15.225  1.00 28.78 LIG 0.61  N 
ATOM     30  CB  ALA B  12      40.618 -11.241 -16.066  1.00 26.50 LIG 0.06  C 
ENDBRANCH 26 28
ENDBRANCH 20 24
ENDBRANCH 1 20
TORSDOF 13
ENDMDL
MODEL 29
USER: ADFR SOLUTION from run 141
USER: SCORE 9.212199 LL:  -1.585 LR:  -8.557 RR:   0.000 FEB:  -4.679
USER: RMSD 7.136162
USER: SEED 140
USER: STATUS no improvement in best in 7 clusters for 5 generations
USER: GENES 15
USER: genes 0 Translation |==|  0.63415 0.33040 0.44511
USER: genes 1 Rotation |==|  0.74275 0.62566 0.91042 0.58273
USER: genes 2 Torsion [C]-N--CA-[CB] |==|  0.20047
USER: genes 3 Torsion [N]-CA--C-[N] |==|  0.46258
USER: genes 4 Torsion [C]-N--CA-[C] |==|  0.52663
USER: genes 5 Torsion [N]-CA--C-[O] |==|  0.02664
USER: genes 6 Torsion [N]-CA--CB-[OG] |==|  0.04534
USER: genes 7 Torsion [CA]-CB--OG-[HG] |==|  0.07610
USER: genes 8 Torsion [N]-CA--CB-[CG2] |==|  0.18373
USER: genes 9 Torsion [CA]-CB--OG1-[HG1] |==|  0.44059
USER: genes 10 Torsion [N]-C--CA-[N] |==|  0.90556
USER: genes 11 Torsion [C]-CA--CB-[OG] |==|  0.10386
USER: genes 12 Torsion [CA]-CB--OG-[HG] |==|  0.10949
USER: genes 13 Torsion [C]-CA--N-[C] |==|  0.81999
USER: genes 14 Torsion [N]-C--CA-[N] |==|  0.35537
ROOT
ATOM      1  C   SER B  13      38.219 -14.937 -12.339  1.00 23.09 LIG 0.24  C 
ATOM      2 O    SER B  13      37.811 -15.692 -13.221  1.00 20.43 LIG-0.27  OA
ATOM      3  N   THR B  14      37.560 -14.730 -11.202  1.00 21.89 LIG-0.34  N 
ATOM      4 H    THR B  14      37.844 -14.227 -10.565  1.00 21.89 LIG 0.16  HD
ENDROOT
BRANCH 3 5
ATOM      5  CA  THR B  14      36.269 -15.361 -10.951  1.00 22.97 LIG 0.20  C 
BRANCH 5 6
ATOM      6  C   THR B  14      35.723 -14.701  -9.691  1.00 23.95 LIG 0.24  C 
ATOM      7  N   SER B  15      34.442 -14.904  -9.407  1.00 23.79 LIG-0.34  N 
ATOM      8 H    SER B  15      33.908 -15.381  -9.883  1.00 23.79 LIG 0.16  HD
ATOM      9 O    THR B  14      36.463 -14.013  -8.984  1.00 24.21 LIG-0.27  OA
BRANCH 7 10
ATOM     10  CA  SER B  15      33.837 -14.306  -8.221  1.00 24.78 LIG 0.19  C 
BRANCH 10 11
ATOM     11  C   SER B  15      32.443 -14.866  -7.980  1.00 26.56 LIG 0.22  C 
ATOM     12 O    SER B  15      32.114 -15.845  -8.683  1.00 28.00 LIG-0.29  OA
ENDBRANCH 10 11
BRANCH 10 13
ATOM     13  CB  SER B  15      33.756 -12.785  -8.367  1.00 23.87 LIG 0.20  C 
BRANCH 13 14
ATOM     14 OG   SER B  15      33.929 -12.392  -9.718  1.00 25.06 LIG-0.40  OA
ATOM     15 HG   SER B  15      33.676 -13.013 -10.225  1.00 25.06 LIG 0.21  HD
ENDBRANCH 13 14
ENDBRANCH 10 13
ENDBRANCH 7 10
ENDBRANCH 5 6
BRANCH 5 16
ATOM     16  CB  THR B  14      36.415 -16.869 -10.684  1.00 24.21 LIG 0.15  C 
ATOM     17  CG2 THR B  14      37.167 -17.115  -9.386  1.00 24.44 LIG 0.04  C 
BRANCH 16 18
ATOM     18 OG1  THR B  14      35.113 -17.462 -10.601  1.00 24.18 LIG-0.39  OA
ATOM     19 HG1  THR B  14      35.171 -18.286 -10.749  1.00 24.18 LIG 0.21  HD
ENDBRANCH 16 18
ENDBRANCH 5 16
ENDBRANCH 3 5
BRANCH 1 20
ATOM     20  CA  SER B  13      39.535 -14.186 -12.502  1.00 24.49 LIG 0.20  C 
BRANCH 20 21
ATOM     21  CB  SER B  13      40.654 -15.018 -11.869  1.00 26.86 LIG 0.20  C 
BRANCH 21 22
ATOM     22 OG   SER B  13      40.443 -16.405 -12.100  1.00 27.16 LIG-0.40  OA
ATOM     23 HG   SER B  13      40.154 -16.518 -12.881  1.00 27.16 LIG 0.21  HD
ENDBRANCH 21 22
ENDBRANCH 20 21
BRANCH 20 24
ATOM     24  N   SER B  13      39.449 -12.880 -11.856  1.00 26.25 LIG-0.34  N 
ATOM     25 H    SER B  13      39.979 -12.781 -11.186  1.00 26.25 LIG 0.16  HD
ATOM     26  C   ALA B  12      38.613 -11.939 -12.286  1.00 27.91 LIG 0.26  C 
ATOM     27 O    ALA B  12      37.857 -12.098 -13.245  1.00 29.06 LIG-0.27  OA
BRANCH 26 28
ATOM     28  CA  ALA B  12      38.625 -10.621 -11.524  1.00 28.19 LIG 0.40  C 
ATOM     29  N   ALA B  12      38.804  -9.485 -12.476  1.00 28.78 LIG 0.61  N 
ATOM     30  CB  ALA B  12      37.324 -10.452 -10.744  1.00 26.50 LIG 0.06  C 
ENDBRANCH 26 28
ENDBRANCH 20 24
ENDBRANCH 1 20
TORSDOF 13
ENDMDL
MODEL 30
USER: ADFR SOLUTION from run 53
USER: SCORE 9.150458 LL:  -1.352 LR:  -8.556 RR:   0.000 FEB:  -4.678
USER: RMSD 7.526941
USER: SEED 52
USER: STATUS no improvement in best in 18 clusters for 5 generations
USER: GENES 15
USER: genes 0 Translation |==|  0.55246 0.42541 0.52097
USER: genes 1 Rotation |==|  0.49496 0.32074 0.04886 0.61962
USER: genes 2 Torsion [C]-N--CA-[CB] |==|  0.18627
USER: genes 3 Torsion [N]-CA--C-[N] |==|  0.01130
USER: genes 4 Torsion [C]-N--CA-[C] |==|  0.49759
USER: genes 5 Torsion [N]-CA--C-[O] |==|  0.00842
USER: genes 6 Torsion [N]-CA--CB-[OG] |==|  0.61743
USER: genes 7 Torsion [CA]-CB--OG-[HG] |==|  0.51121
USER: genes 8 Torsion [N]-CA--CB-[CG2] |==|  0.21610
USER: genes 9 Torsion [CA]-CB--OG1-[HG1] |==|  0.79674
USER: genes 10 Torsion [N]-C--CA-[N] |==|  0.53320
USER: genes 11 Torsion [C]-CA--CB-[OG] |==|  0.19300
USER: genes 12 Torsion [CA]-CB--OG-[HG] |==|  0.62204
USER: genes 13 Torsion [C]-CA--N-[C] |==|  0.75605
USER: genes 14 Torsion [N]-C--CA-[N] |==|  0.86195
ROOT
ATOM      1  C   SER B  13      36.748 -13.512 -10.974  1.00 23.09 LIG 0.24  C 
ATOM      2 O    SER B  13      37.673 -13.828 -11.722  1.00 20.43 LIG-0.27  OA
ATOM      3  N   THR B  14      35.889 -14.394 -10.471  1.00 21.89 LIG-0.34  N 
ATOM      4 H    THR B  14      35.255 -14.194  -9.926  1.00 21.89 LIG 0.16  HD
ENDROOT
BRANCH 3 5
ATOM      5  CA  THR B  14      35.966 -15.808 -10.822  1.00 22.97 LIG 0.20  C 
BRANCH 5 6
ATOM      6  C   THR B  14      34.763 -16.466 -10.159  1.00 23.95 LIG 0.24  C 
ATOM      7  N   SER B  15      33.910 -15.669  -9.524  1.00 23.79 LIG-0.34  N 
ATOM      8 H    SER B  15      33.993 -14.816  -9.465  1.00 23.79 LIG 0.16  HD
ATOM      9 O    THR B  14      34.612 -17.688 -10.226  1.00 24.21 LIG-0.27  OA
BRANCH 7 10
ATOM     10  CA  SER B  15      32.732 -16.218  -8.859  1.00 24.78 LIG 0.19  C 
BRANCH 10 11
ATOM     11  C   SER B  15      31.925 -15.117  -8.187  1.00 26.56 LIG 0.22  C 
ATOM     12 O    SER B  15      32.342 -13.951  -8.351  1.00 28.00 LIG-0.29  OA
ENDBRANCH 10 11
BRANCH 10 13
ATOM     13  CB  SER B  15      33.140 -17.259  -7.813  1.00 23.87 LIG 0.20  C 
BRANCH 13 14
ATOM     14 OG   SER B  15      32.285 -18.387  -7.856  1.00 25.06 LIG-0.40  OA
ATOM     15 HG   SER B  15      32.491 -18.920  -7.240  1.00 25.06 LIG 0.21  HD
ENDBRANCH 13 14
ENDBRANCH 10 13
ENDBRANCH 7 10
ENDBRANCH 5 6
BRANCH 5 16
ATOM     16  CB  THR B  14      37.243 -16.464 -10.270  1.00 24.21 LIG 0.15  C 
ATOM     17  CG2 THR B  14      37.097 -16.757  -8.785  1.00 24.44 LIG 0.04  C 
BRANCH 16 18
ATOM     18 OG1  THR B  14      37.490 -17.686 -10.976  1.00 24.18 LIG-0.39  OA
ATOM     19 HG1  THR B  14      36.936 -18.267 -10.731  1.00 24.18 LIG 0.21  HD
ENDBRANCH 16 18
ENDBRANCH 5 16
ENDBRANCH 3 5
BRANCH 1 20
ATOM     20  CA  SER B  13      36.537 -12.058 -10.567  1.00 24.49 LIG 0.20  C 
BRANCH 20 21
ATOM     21  CB  SER B  13      35.054 -11.715 -10.734  1.00 26.86 LIG 0.20  C 
BRANCH 21 22
ATOM     22 OG   SER B  13      34.267 -12.395  -9.765  1.00 27.16 LIG-0.40  OA
ATOM     23 HG   SER B  13      33.582 -12.712 -10.133  1.00 27.16 LIG 0.21  HD
ENDBRANCH 21 22
ENDBRANCH 20 21
BRANCH 20 24
ATOM     24  N   SER B  13      37.355 -11.182 -11.399  1.00 26.25 LIG-0.34  N 
ATOM     25 H    SER B  13      36.956 -10.887 -12.102  1.00 26.25 LIG 0.16  HD
ATOM     26  C   ALA B  12      38.610 -10.881 -11.077  1.00 27.91 LIG 0.26  C 
ATOM     27 O    ALA B  12      39.169 -11.315 -10.069  1.00 29.06 LIG-0.27  OA
BRANCH 26 28
ATOM     28  CA  ALA B  12      39.351  -9.953 -12.031  1.00 28.19 LIG 0.40  C 
ATOM     29  N   ALA B  12      39.208 -10.445 -13.433  1.00 28.78 LIG 0.61  N 
ATOM     30  CB  ALA B  12      38.804  -8.533 -11.915  1.00 26.50 LIG 0.06  C 
ENDBRANCH 26 28
ENDBRANCH 20 24
ENDBRANCH 1 20
TORSDOF 13
ENDMDL
MODEL 31
USER: ADFR SOLUTION from run 189
USER: SCORE 8.826073 LL:  -1.424 LR:  -8.499 RR:   0.000 FEB:  -4.621
USER: RMSD 8.163967
USER: SEED 188
USER: STATUS no improvement in best in 8 clusters for 5 generations
USER: GENES 15
USER: genes 0 Translation |==|  0.47846 0.33648 0.55251
USER: genes 1 Rotation |==|  0.34954 0.36270 0.04342 0.50666
USER: genes 2 Torsion [C]-N--CA-[CB] |==|  0.20556
USER: genes 3 Torsion [N]-CA--C-[N] |==|  0.09304
USER: genes 4 Torsion [C]-N--CA-[C] |==|  0.60775
USER: genes 5 Torsion [N]-CA--C-[O] |==|  0.97598
USER: genes 6 Torsion [N]-CA--CB-[OG] |==|  0.04792
USER: genes 7 Torsion [CA]-CB--OG-[HG] |==|  0.43932
USER: genes 8 Torsion [N]-CA--CB-[CG2] |==|  0.51898
USER: genes 9 Torsion [CA]-CB--OG1-[HG1] |==|  0.68406
USER: genes 10 Torsion [N]-C--CA-[N] |==|  0.60088
USER: genes 11 Torsion [C]-CA--CB-[OG] |==|  0.81918
USER: genes 12 Torsion [CA]-CB--OG-[HG] |==|  0.22526
USER: genes 13 Torsion [C]-CA--N-[C] |==|  0.66956
USER: genes 14 Torsion [N]-C--CA-[N] |==|  0.32536
ROOT
ATOM      1  C   SER B  13      35.416 -14.846 -10.406  1.00 23.09 LIG 0.24  C 
ATOM      2 O    SER B  13      35.626 -15.528 -11.409  1.00 20.43 LIG-0.27  OA
ATOM      3  N   THR B  14      34.466 -15.133  -9.521  1.00 21.89 LIG-0.34  N 
ATOM      4 H    THR B  14      34.325 -14.682  -8.802  1.00 21.89 LIG 0.16  HD
ENDROOT
BRANCH 3 5
ATOM      5  CA  THR B  14      33.570 -16.267  -9.715  1.00 22.97 LIG 0.20  C 
BRANCH 5 6
ATOM      6  C   THR B  14      32.459 -16.099  -8.686  1.00 23.95 LIG 0.24  C 
ATOM      7  N   SER B  15      32.097 -14.858  -8.381  1.00 23.79 LIG-0.34  N 
ATOM      8 H    SER B  15      32.446 -14.151  -8.726  1.00 23.79 LIG 0.16  HD
ATOM      9 O    THR B  14      31.936 -17.092  -8.174  1.00 24.21 LIG-0.27  OA
BRANCH 7 10
ATOM     10  CA  SER B  15      31.044 -14.608  -7.403  1.00 24.78 LIG 0.19  C 
BRANCH 10 11
ATOM     11  C   SER B  15      30.167 -13.441  -7.834  1.00 26.56 LIG 0.22  C 
ATOM     12 O    SER B  15      30.564 -12.791  -8.824  1.00 28.00 LIG-0.29  OA
ENDBRANCH 10 11
BRANCH 10 13
ATOM     13  CB  SER B  15      31.646 -14.310  -6.027  1.00 23.87 LIG 0.20  C 
BRANCH 13 14
ATOM     14 OG   SER B  15      33.017 -13.967  -6.134  1.00 25.06 LIG-0.40  OA
ATOM     15 HG   SER B  15      33.251 -13.530  -5.456  1.00 25.06 LIG 0.21  HD
ENDBRANCH 13 14
ENDBRANCH 10 13
ENDBRANCH 7 10
ENDBRANCH 5 6
BRANCH 5 16
ATOM     16  CB  THR B  14      34.278 -17.606  -9.450  1.00 24.21 LIG 0.15  C 
ATOM     17  CG2 THR B  14      33.377 -18.773  -9.820  1.00 24.44 LIG 0.04  C 
BRANCH 16 18
ATOM     18 OG1  THR B  14      35.481 -17.666 -10.227  1.00 24.18 LIG-0.39  OA
ATOM     19 HG1  THR B  14      35.410 -18.270 -10.806  1.00 24.18 LIG 0.21  HD
ENDBRANCH 16 18
ENDBRANCH 5 16
ENDBRANCH 3 5
BRANCH 1 20
ATOM     20  CA  SER B  13      36.259 -13.610 -10.114  1.00 24.49 LIG 0.20  C 
BRANCH 20 21
ATOM     21  CB  SER B  13      35.462 -12.682  -9.192  1.00 26.86 LIG 0.20  C 
BRANCH 21 22
ATOM     22 OG   SER B  13      34.302 -12.191  -9.851  1.00 27.16 LIG-0.40  OA
ATOM     23 HG   SER B  13      33.695 -12.771  -9.818  1.00 27.16 LIG 0.21  HD
ENDBRANCH 21 22
ENDBRANCH 20 21
BRANCH 20 24
ATOM     24  N   SER B  13      36.588 -12.924 -11.359  1.00 26.25 LIG-0.34  N 
ATOM     25 H    SER B  13      35.905 -12.643 -11.800  1.00 26.25 LIG 0.16  HD
ATOM     26  C   ALA B  12      37.847 -12.758 -11.756  1.00 27.91 LIG 0.26  C 
ATOM     27 O    ALA B  12      38.814 -13.168 -11.114  1.00 29.06 LIG-0.27  OA
BRANCH 26 28
ATOM     28  CA  ALA B  12      38.051 -12.021 -13.073  1.00 28.19 LIG 0.40  C 
ATOM     29  N   ALA B  12      38.804 -10.755 -12.836  1.00 28.78 LIG 0.61  N 
ATOM     30  CB  ALA B  12      38.810 -12.906 -14.058  1.00 26.50 LIG 0.06  C 
ENDBRANCH 26 28
ENDBRANCH 20 24
ENDBRANCH 1 20
TORSDOF 13
ENDMDL
MODEL 32
USER: ADFR SOLUTION from run 175
USER: SCORE 8.515811 LL:  -1.211 LR:  -8.479 RR:   0.000 FEB:  -4.601
USER: RMSD 7.041298
USER: SEED 174
USER: STATUS no improvement in best in 18 clusters for 5 generations
USER: GENES 15
USER: genes 0 Translation |==|  0.75377 0.65449 0.45860
USER: genes 1 Rotation |==|  0.39497 0.97588 0.61181 0.50312
USER: genes 2 Torsion [C]-N--CA-[CB] |==|  0.25549
USER: genes 3 Torsion [N]-CA--C-[N] |==|  0.29147
USER: genes 4 Torsion [C]-N--CA-[C] |==|  0.78883
USER: genes 5 Torsion [N]-CA--C-[O] |==|  0.24055
USER: genes 6 Torsion [N]-CA--CB-[OG] |==|  0.57413
USER: genes 7 Torsion [CA]-CB--OG-[HG] |==|  0.53893
USER: genes 8 Torsion [N]-CA--CB-[CG2] |==|  0.66677
USER: genes 9 Torsion [CA]-CB--OG1-[HG1] |==|  0.29580
USER: genes 10 Torsion [N]-C--CA-[N] |==|  0.93333
USER: genes 11 Torsion [C]-CA--CB-[OG] |==|  0.85601
USER: genes 12 Torsion [CA]-CB--OG-[HG] |==|  0.88602
USER: genes 13 Torsion [C]-CA--N-[C] |==|  0.83823
USER: genes 14 Torsion [N]-C--CA-[N] |==|  0.98583
ROOT
ATOM      1  C   SER B  13      40.372 -10.076 -12.096  1.00 23.09 LIG 0.24  C 
ATOM      2 O    SER B  13      41.149 -10.034 -11.143  1.00 20.43 LIG-0.27  OA
ATOM      3  N   THR B  14      39.055 -10.188 -11.952  1.00 21.89 LIG-0.34  N 
ATOM      4 H    THR B  14      38.496 -10.191 -12.606  1.00 21.89 LIG 0.16  HD
ENDROOT
BRANCH 3 5
ATOM      5  CA  THR B  14      38.447 -10.319 -10.632  1.00 22.97 LIG 0.20  C 
BRANCH 5 6
ATOM      6  C   THR B  14      37.179 -11.136 -10.838  1.00 23.95 LIG 0.24  C 
ATOM      7  N   SER B  15      37.205 -12.405 -10.445  1.00 23.79 LIG-0.34  N 
ATOM      8 H    SER B  15      37.884 -12.789 -10.085  1.00 23.79 LIG 0.16  HD
ATOM      9 O    THR B  14      36.185 -10.616 -11.349  1.00 24.21 LIG-0.27  OA
BRANCH 7 10
ATOM     10  CA  SER B  15      36.033 -13.259 -10.609  1.00 24.78 LIG 0.19  C 
BRANCH 10 11
ATOM     11  C   SER B  15      34.976 -12.939  -9.562  1.00 26.56 LIG 0.22  C 
ATOM     12 O    SER B  15      34.179 -12.020  -9.849  1.00 28.00 LIG-0.29  OA
ENDBRANCH 10 11
BRANCH 10 13
ATOM     13  CB  SER B  15      36.423 -14.736 -10.500  1.00 23.87 LIG 0.20  C 
BRANCH 13 14
ATOM     14 OG   SER B  15      35.522 -15.556 -11.223  1.00 25.06 LIG-0.40  OA
ATOM     15 HG   SER B  15      35.633 -16.359 -11.000  1.00 25.06 LIG 0.21  HD
ENDBRANCH 13 14
ENDBRANCH 10 13
ENDBRANCH 7 10
ENDBRANCH 5 6
BRANCH 5 16
ATOM     16  CB  THR B  14      38.054  -8.952 -10.048  1.00 24.21 LIG 0.15  C 
ATOM     17  CG2 THR B  14      38.783  -8.697  -8.738  1.00 24.44 LIG 0.04  C 
BRANCH 16 18
ATOM     18 OG1  THR B  14      38.387  -7.922 -10.987  1.00 24.18 LIG-0.39  OA
ATOM     19 HG1  THR B  14      37.685  -7.630 -11.343  1.00 24.18 LIG 0.21  HD
ENDBRANCH 16 18
ENDBRANCH 5 16
ENDBRANCH 3 5
BRANCH 1 20
ATOM     20  CA  SER B  13      40.888  -9.991 -13.528  1.00 24.49 LIG 0.20  C 
BRANCH 20 21
ATOM     21  CB  SER B  13      41.096  -8.517 -13.886  1.00 26.86 LIG 0.20  C 
BRANCH 21 22
ATOM     22 OG   SER B  13      39.925  -7.761 -13.606  1.00 27.16 LIG-0.40  OA
ATOM     23 HG   SER B  13      39.247  -8.199 -13.838  1.00 27.16 LIG 0.21  HD
ENDBRANCH 21 22
ENDBRANCH 20 21
BRANCH 20 24
ATOM     24  N   SER B  13      39.930 -10.603 -14.442  1.00 26.25 LIG-0.34  N 
ATOM     25 H    SER B  13      39.641 -10.076 -15.057  1.00 26.25 LIG 0.16  HD
ATOM     26  C   ALA B  12      39.550 -11.871 -14.314  1.00 27.91 LIG 0.26  C 
ATOM     27 O    ALA B  12      39.971 -12.613 -13.425  1.00 29.06 LIG-0.27  OA
BRANCH 26 28
ATOM     28  CA  ALA B  12      38.546 -12.386 -15.337  1.00 28.19 LIG 0.40  C 
ATOM     29  N   ALA B  12      38.104 -11.269 -16.222  1.00 28.78 LIG 0.61  N 
ATOM     30  CB  ALA B  12      39.171 -13.501 -16.172  1.00 26.50 LIG 0.06  C 
ENDBRANCH 26 28
ENDBRANCH 20 24
ENDBRANCH 1 20
TORSDOF 13
ENDMDL
MODEL 33
USER: ADFR SOLUTION from run 65
USER: SCORE 8.726594 LL:  -1.424 LR:  -8.470 RR:   0.000 FEB:  -4.592
USER: RMSD 3.263349
USER: SEED 64
USER: STATUS no improvement in best in 6 clusters for 5 generations
USER: GENES 15
USER: genes 0 Translation |==|  0.48419 0.47999 0.54734
USER: genes 1 Rotation |==|  0.66515 0.61549 0.35804 0.93501
USER: genes 2 Torsion [C]-N--CA-[CB] |==|  0.23923
USER: genes 3 Torsion [N]-CA--C-[N] |==|  0.34452
USER: genes 4 Torsion [C]-N--CA-[C] |==|  0.14115
USER: genes 5 Torsion [N]-CA--C-[O] |==|  0.05544
USER: genes 6 Torsion [N]-CA--CB-[OG] |==|  0.82252
USER: genes 7 Torsion [CA]-CB--OG-[HG] |==|  0.08981
USER: genes 8 Torsion [N]-CA--CB-[CG2] |==|  0.45593
USER: genes 9 Torsion [CA]-CB--OG1-[HG1] |==|  0.81013
USER: genes 10 Torsion [N]-C--CA-[N] |==|  0.02343
USER: genes 11 Torsion [C]-CA--CB-[OG] |==|  0.22425
USER: genes 12 Torsion [CA]-CB--OG-[HG] |==|  0.02588
USER: genes 13 Torsion [C]-CA--N-[C] |==|  0.68335
USER: genes 14 Torsion [N]-C--CA-[N] |==|  0.38413
ROOT
ATOM      1  C   SER B  13      35.519 -12.693 -10.499  1.00 23.09 LIG 0.24  C 
ATOM      2 O    SER B  13      34.801 -11.696 -10.567  1.00 20.43 LIG-0.27  OA
ATOM      3  N   THR B  14      36.728 -12.753 -11.049  1.00 21.89 LIG-0.34  N 
ATOM      4 H    THR B  14      37.253 -13.432 -10.988  1.00 21.89 LIG 0.16  HD
ENDROOT
BRANCH 3 5
ATOM      5  CA  THR B  14      37.264 -11.637 -11.821  1.00 22.97 LIG 0.20  C 
BRANCH 5 6
ATOM      6  C   THR B  14      38.306 -12.240 -12.754  1.00 23.95 LIG 0.24  C 
ATOM      7  N   SER B  15      38.155 -12.019 -14.055  1.00 23.79 LIG-0.34  N 
ATOM      8 H    SER B  15      37.514 -11.561 -14.399  1.00 23.79 LIG 0.16  HD
ATOM      9 O    THR B  14      39.240 -12.900 -12.293  1.00 24.21 LIG-0.27  OA
BRANCH 7 10
ATOM     10  CA  SER B  15      39.107 -12.563 -15.019  1.00 24.78 LIG 0.19  C 
BRANCH 10 11
ATOM     11  C   SER B  15      39.319 -14.052 -14.791  1.00 26.56 LIG 0.22  C 
ATOM     12 O    SER B  15      38.429 -14.643 -14.144  1.00 28.00 LIG-0.29  OA
ENDBRANCH 10 11
BRANCH 10 13
ATOM     13  CB  SER B  15      40.450 -11.836 -14.917  1.00 23.87 LIG 0.20  C 
BRANCH 13 14
ATOM     14 OG   SER B  15      40.318 -10.470 -15.266  1.00 25.06 LIG-0.40  OA
ATOM     15 HG   SER B  15      39.556 -10.195 -15.042  1.00 25.06 LIG 0.21  HD
ENDBRANCH 13 14
ENDBRANCH 10 13
ENDBRANCH 7 10
ENDBRANCH 5 6
BRANCH 5 16
ATOM     16  CB  THR B  14      37.960 -10.603 -10.920  1.00 24.21 LIG 0.15  C 
ATOM     17  CG2 THR B  14      38.834  -9.672 -11.746  1.00 24.44 LIG 0.04  C 
BRANCH 16 18
ATOM     18 OG1  THR B  14      36.968  -9.837 -10.226  1.00 24.18 LIG-0.39  OA
ATOM     19 HG1  THR B  14      36.554  -9.354 -10.774  1.00 24.18 LIG 0.21  HD
ENDBRANCH 16 18
ENDBRANCH 5 16
ENDBRANCH 3 5
BRANCH 1 20
ATOM     20  CA  SER B  13      35.054 -13.940  -9.756  1.00 24.49 LIG 0.20  C 
BRANCH 20 21
ATOM     21  CB  SER B  13      34.566 -13.526  -8.365  1.00 26.86 LIG 0.20  C 
BRANCH 21 22
ATOM     22 OG   SER B  13      33.240 -13.016  -8.426  1.00 27.16 LIG-0.40  OA
ATOM     23 HG   SER B  13      32.923 -13.154  -9.192  1.00 27.16 LIG 0.21  HD
ENDBRANCH 21 22
ENDBRANCH 20 21
BRANCH 20 24
ATOM     24  N   SER B  13      36.153 -14.893  -9.642  1.00 26.25 LIG-0.34  N 
ATOM     25 H    SER B  13      36.805 -14.625  -9.150  1.00 26.25 LIG 0.16  HD
ATOM     26  C   ALA B  12      36.125 -16.072 -10.259  1.00 27.91 LIG 0.26  C 
ATOM     27 O    ALA B  12      35.185 -16.440 -10.964  1.00 29.06 LIG-0.27  OA
BRANCH 26 28
ATOM     28  CA  ALA B  12      37.335 -16.974 -10.054  1.00 28.19 LIG 0.40  C 
ATOM     29  N   ALA B  12      36.889 -18.384  -9.851  1.00 28.78 LIG 0.61  N 
ATOM     30  CB  ALA B  12      38.266 -16.886 -11.260  1.00 26.50 LIG 0.06  C 
ENDBRANCH 26 28
ENDBRANCH 20 24
ENDBRANCH 1 20
TORSDOF 13
ENDMDL
MODEL 34
USER: ADFR SOLUTION from run 106
USER: SCORE 8.667726 LL:  -1.674 LR:  -8.471 RR:   0.000 FEB:  -4.593
USER: RMSD 7.274853
USER: SEED 105
USER: STATUS no improvement in best in 8 clusters for 5 generations
USER: GENES 15
USER: genes 0 Translation |==|  0.64838 0.50657 0.45621
USER: genes 1 Rotation |==|  0.26066 0.44840 0.14878 0.75827
USER: genes 2 Torsion [C]-N--CA-[CB] |==|  0.43285
USER: genes 3 Torsion [N]-CA--C-[N] |==|  0.94845
USER: genes 4 Torsion [C]-N--CA-[C] |==|  0.51754
USER: genes 5 Torsion [N]-CA--C-[O] |==|  0.21185
USER: genes 6 Torsion [N]-CA--CB-[OG] |==|  0.72928
USER: genes 7 Torsion [CA]-CB--OG-[HG] |==|  0.16592
USER: genes 8 Torsion [N]-CA--CB-[CG2] |==|  0.28274
USER: genes 9 Torsion [CA]-CB--OG1-[HG1] |==|  0.95002
USER: genes 10 Torsion [N]-C--CA-[N] |==|  0.39216
USER: genes 11 Torsion [C]-CA--CB-[OG] |==|  0.91336
USER: genes 12 Torsion [CA]-CB--OG-[HG] |==|  0.78044
USER: genes 13 Torsion [C]-CA--N-[C] |==|  0.60110
USER: genes 14 Torsion [N]-C--CA-[N] |==|  0.20450
ROOT
ATOM      1  C   SER B  13      38.475 -12.294 -12.139  1.00 23.09 LIG 0.24  C 
ATOM      2 O    SER B  13      38.072 -12.410 -13.296  1.00 20.43 LIG-0.27  OA
ATOM      3  N   THR B  14      38.837 -13.333 -11.392  1.00 21.89 LIG-0.34  N 
ATOM      4 H    THR B  14      39.146 -13.268 -10.592  1.00 21.89 LIG 0.16  HD
ENDROOT
BRANCH 3 5
ATOM      5  CA  THR B  14      38.733 -14.699 -11.894  1.00 22.97 LIG 0.20  C 
BRANCH 5 6
ATOM      6  C   THR B  14      37.310 -15.147 -11.584  1.00 23.95 LIG 0.24  C 
ATOM      7  N   SER B  15      36.646 -14.460 -10.661  1.00 23.79 LIG-0.34  N 
ATOM      8 H    SER B  15      36.964 -13.785 -10.235  1.00 23.79 LIG 0.16  HD
ATOM      9 O    THR B  14      36.822 -16.110 -12.180  1.00 24.21 LIG-0.27  OA
BRANCH 7 10
ATOM     10  CA  SER B  15      35.279 -14.824 -10.301  1.00 24.78 LIG 0.19  C 
BRANCH 10 11
ATOM     11  C   SER B  15      34.679 -13.805  -9.344  1.00 26.56 LIG 0.22  C 
ATOM     12 O    SER B  15      34.312 -12.723  -9.851  1.00 28.00 LIG-0.29  OA
ENDBRANCH 10 11
BRANCH 10 13
ATOM     13  CB  SER B  15      35.244 -16.211  -9.654  1.00 23.87 LIG 0.20  C 
BRANCH 13 14
ATOM     14 OG   SER B  15      34.898 -17.207 -10.601  1.00 25.06 LIG-0.40  OA
ATOM     15 HG   SER B  15      35.462 -17.212 -11.223  1.00 25.06 LIG 0.21  HD
ENDBRANCH 13 14
ENDBRANCH 10 13
ENDBRANCH 7 10
ENDBRANCH 5 6
BRANCH 5 16
ATOM     16  CB  THR B  14      39.708 -15.646 -11.175  1.00 24.21 LIG 0.15  C 
ATOM     17  CG2 THR B  14      38.978 -16.476 -10.130  1.00 24.44 LIG 0.04  C 
BRANCH 16 18
ATOM     18 OG1  THR B  14      40.315 -16.518 -12.137  1.00 24.18 LIG-0.39  OA
ATOM     19 HG1  THR B  14      39.859 -16.518 -12.842  1.00 24.18 LIG 0.21  HD
ENDBRANCH 16 18
ENDBRANCH 5 16
ENDBRANCH 3 5
BRANCH 1 20
ATOM     20  CA  SER B  13      38.589 -10.922 -11.487  1.00 24.49 LIG 0.20  C 
BRANCH 20 21
ATOM     21  CB  SER B  13      37.209 -10.515 -10.961  1.00 26.86 LIG 0.20  C 
BRANCH 21 22
ATOM     22 OG   SER B  13      36.179 -11.061 -11.774  1.00 27.16 LIG-0.40  OA
ATOM     23 HG   SER B  13      36.096 -10.598 -12.470  1.00 27.16 LIG 0.21  HD
ENDBRANCH 21 22
ENDBRANCH 20 21
BRANCH 20 24
ATOM     24  N   SER B  13      39.067  -9.944 -12.459  1.00 26.25 LIG-0.34  N 
ATOM     25 H    SER B  13      38.770 -10.064 -13.257  1.00 26.25 LIG 0.16  HD
ATOM     26  C   ALA B  12      39.894  -8.961 -12.115  1.00 27.91 LIG 0.26  C 
ATOM     27 O    ALA B  12      40.315  -8.806 -10.968  1.00 29.06 LIG-0.27  OA
BRANCH 26 28
ATOM     28  CA  ALA B  12      40.314  -8.007 -13.226  1.00 28.19 LIG 0.40  C 
ATOM     29  N   ALA B  12      39.179  -7.104 -13.577  1.00 28.78 LIG 0.61  N 
ATOM     30  CB  ALA B  12      41.522  -7.186 -12.785  1.00 26.50 LIG 0.06  C 
ENDBRANCH 26 28
ENDBRANCH 20 24
ENDBRANCH 1 20
TORSDOF 13
ENDMDL
MODEL 35
USER: ADFR SOLUTION from run 74
USER: SCORE 8.751033 LL:  -1.577 LR:  -8.469 RR:   0.000 FEB:  -4.591
USER: RMSD 7.814324
USER: SEED 73
USER: STATUS no improvement in best in 11 clusters for 5 generations
USER: GENES 15
USER: genes 0 Translation |==|  0.78190 0.72343 0.41584
USER: genes 1 Rotation |==|  0.76321 0.48010 0.07537 0.50319
USER: genes 2 Torsion [C]-N--CA-[CB] |==|  0.41109
USER: genes 3 Torsion [N]-CA--C-[N] |==|  0.92033
USER: genes 4 Torsion [C]-N--CA-[C] |==|  0.72441
USER: genes 5 Torsion [N]-CA--C-[O] |==|  0.56256
USER: genes 6 Torsion [N]-CA--CB-[OG] |==|  0.08630
USER: genes 7 Torsion [CA]-CB--OG-[HG] |==|  0.10525
USER: genes 8 Torsion [N]-CA--CB-[CG2] |==|  0.85520
USER: genes 9 Torsion [CA]-CB--OG1-[HG1] |==|  0.90097
USER: genes 10 Torsion [N]-C--CA-[N] |==|  0.46552
USER: genes 11 Torsion [C]-CA--CB-[OG] |==|  0.78347
USER: genes 12 Torsion [CA]-CB--OG-[HG] |==|  0.90576
USER: genes 13 Torsion [C]-CA--N-[C] |==|  0.75788
USER: genes 14 Torsion [N]-C--CA-[N] |==|  0.44788
ROOT
ATOM      1  C   SER B  13      40.878  -9.042 -12.866  1.00 23.09 LIG 0.24  C 
ATOM      2 O    SER B  13      42.051  -9.177 -12.519  1.00 20.43 LIG-0.27  OA
ATOM      3  N   THR B  14      40.377  -9.609 -13.959  1.00 21.89 LIG-0.34  N 
ATOM      4 H    THR B  14      39.554  -9.547 -14.201  1.00 21.89 LIG 0.16  HD
ENDROOT
BRANCH 3 5
ATOM      5  CA  THR B  14      41.216 -10.401 -14.852  1.00 22.97 LIG 0.20  C 
BRANCH 5 6
ATOM      6  C   THR B  14      41.685  -9.443 -15.939  1.00 23.95 LIG 0.24  C 
ATOM      7  N   SER B  15      40.887  -8.422 -16.234  1.00 23.79 LIG-0.34  N 
ATOM      8 H    SER B  15      40.132  -8.270 -15.852  1.00 23.79 LIG 0.16  HD
ATOM      9 O    THR B  14      42.765  -9.631 -16.504  1.00 24.21 LIG-0.27  OA
BRANCH 7 10
ATOM     10  CA  SER B  15      41.259  -7.459 -17.264  1.00 24.78 LIG 0.19  C 
BRANCH 10 11
ATOM     11  C   SER B  15      41.851  -6.201 -16.645  1.00 26.56 LIG 0.22  C 
ATOM     12 O    SER B  15      41.802  -5.168 -17.345  1.00 28.00 LIG-0.29  OA
ENDBRANCH 10 11
BRANCH 10 13
ATOM     13  CB  SER B  15      40.043  -7.083 -18.114  1.00 23.87 LIG 0.20  C 
BRANCH 13 14
ATOM     14 OG   SER B  15      38.851  -7.139 -17.351  1.00 25.06 LIG-0.40  OA
ATOM     15 HG   SER B  15      39.001  -6.858 -16.574  1.00 25.06 LIG 0.21  HD
ENDBRANCH 13 14
ENDBRANCH 10 13
ENDBRANCH 7 10
ENDBRANCH 5 6
BRANCH 5 16
ATOM     16  CB  THR B  14      40.424 -11.539 -15.517  1.00 24.21 LIG 0.15  C 
ATOM     17  CG2 THR B  14      39.691 -12.366 -14.473  1.00 24.44 LIG 0.04  C 
BRANCH 16 18
ATOM     18 OG1  THR B  14      39.476 -10.982 -16.436  1.00 24.18 LIG-0.39  OA
ATOM     19 HG1  THR B  14      39.179 -10.259 -16.127  1.00 24.18 LIG 0.21  HD
ENDBRANCH 16 18
ENDBRANCH 5 16
ENDBRANCH 3 5
BRANCH 1 20
ATOM     20  CA  SER B  13      39.912  -8.202 -12.038  1.00 24.49 LIG 0.20  C 
BRANCH 20 21
ATOM     21  CB  SER B  13      39.607  -6.911 -12.804  1.00 26.86 LIG 0.20  C 
BRANCH 21 22
ATOM     22 OG   SER B  13      40.679  -5.986 -12.679  1.00 27.16 LIG-0.40  OA
ATOM     23 HG   SER B  13      41.029  -6.064 -11.920  1.00 27.16 LIG 0.21  HD
ENDBRANCH 21 22
ENDBRANCH 20 21
BRANCH 20 24
ATOM     24  N   SER B  13      40.504  -7.892 -10.741  1.00 26.25 LIG-0.34  N 
ATOM     25 H    SER B  13      40.927  -7.144 -10.715  1.00 26.25 LIG 0.16  HD
ATOM     26  C   ALA B  12      40.384  -8.713  -9.702  1.00 27.91 LIG 0.26  C 
ATOM     27 O    ALA B  12      39.778  -9.784  -9.757  1.00 29.06 LIG-0.27  OA
BRANCH 26 28
ATOM     28  CA  ALA B  12      41.047  -8.268  -8.405  1.00 28.19 LIG 0.40  C 
ATOM     29  N   ALA B  12      40.467  -9.020  -7.254  1.00 28.78 LIG 0.61  N 
ATOM     30  CB  ALA B  12      42.554  -8.500  -8.478  1.00 26.50 LIG 0.06  C 
ENDBRANCH 26 28
ENDBRANCH 20 24
ENDBRANCH 1 20
TORSDOF 13
ENDMDL
MODEL 36
USER: ADFR SOLUTION from run 44
USER: SCORE 8.512859 LL:  -0.837 LR:  -8.450 RR:   0.000 FEB:  -4.572
USER: RMSD 7.042548
USER: SEED 43
USER: STATUS no improvement in best in 6 clusters for 5 generations
USER: GENES 15
USER: genes 0 Translation |==|  0.60700 0.59380 0.56319
USER: genes 1 Rotation |==|  0.21192 0.44005 0.10166 0.56884
USER: genes 2 Torsion [C]-N--CA-[CB] |==|  0.85556
USER: genes 3 Torsion [N]-CA--C-[N] |==|  0.46109
USER: genes 4 Torsion [C]-N--CA-[C] |==|  0.84602
USER: genes 5 Torsion [N]-CA--C-[O] |==|  0.36047
USER: genes 6 Torsion [N]-CA--CB-[OG] |==|  0.20018
USER: genes 7 Torsion [CA]-CB--OG-[HG] |==|  0.37064
USER: genes 8 Torsion [N]-CA--CB-[CG2] |==|  0.27872
USER: genes 9 Torsion [CA]-CB--OG1-[HG1] |==|  0.57504
USER: genes 10 Torsion [N]-C--CA-[N] |==|  0.47959
USER: genes 11 Torsion [C]-CA--CB-[OG] |==|  0.68975
USER: genes 12 Torsion [CA]-CB--OG-[HG] |==|  0.12149
USER: genes 13 Torsion [C]-CA--N-[C] |==|  0.55556
USER: genes 14 Torsion [N]-C--CA-[N] |==|  0.22530
ROOT
ATOM      1  C   SER B  13      37.730 -10.986 -10.214  1.00 23.09 LIG 0.24  C 
ATOM      2 O    SER B  13      37.221 -11.351 -11.273  1.00 20.43 LIG-0.27  OA
ATOM      3  N   THR B  14      37.480 -11.577  -9.049  1.00 21.89 LIG-0.34  N 
ATOM      4 H    THR B  14      37.848 -11.352  -8.305  1.00 21.89 LIG 0.16  HD
ENDROOT
BRANCH 3 5
ATOM      5  CA  THR B  14      36.534 -12.683  -8.950  1.00 22.97 LIG 0.20  C 
BRANCH 5 6
ATOM      6  C   THR B  14      37.151 -13.829  -9.741  1.00 23.95 LIG 0.24  C 
ATOM      7  N   SER B  15      36.624 -15.037  -9.571  1.00 23.79 LIG-0.34  N 
ATOM      8 H    SER B  15      35.963 -15.209  -9.049  1.00 23.79 LIG 0.16  HD
ATOM      9 O    THR B  14      38.098 -13.616 -10.502  1.00 24.21 LIG-0.27  OA
BRANCH 7 10
ATOM     10  CA  SER B  15      37.156 -16.190 -10.288  1.00 24.78 LIG 0.19  C 
BRANCH 10 11
ATOM     11  C   SER B  15      37.155 -15.945 -11.789  1.00 26.56 LIG 0.22  C 
ATOM     12 O    SER B  15      38.229 -16.175 -12.385  1.00 28.00 LIG-0.29  OA
ENDBRANCH 10 11
BRANCH 10 13
ATOM     13  CB  SER B  15      36.335 -17.444  -9.977  1.00 23.87 LIG 0.20  C 
BRANCH 13 14
ATOM     14 OG   SER B  15      35.064 -17.388 -10.601  1.00 25.06 LIG-0.40  OA
ATOM     15 HG   SER B  15      34.904 -18.121 -10.979  1.00 25.06 LIG 0.21  HD
ENDBRANCH 13 14
ENDBRANCH 10 13
ENDBRANCH 7 10
ENDBRANCH 5 6
BRANCH 5 16
ATOM     16  CB  THR B  14      35.177 -12.331  -9.584  1.00 24.21 LIG 0.15  C 
ATOM     17  CG2 THR B  14      35.062 -12.932 -10.976  1.00 24.44 LIG 0.04  C 
BRANCH 16 18
ATOM     18 OG1  THR B  14      34.123 -12.837  -8.757  1.00 24.18 LIG-0.39  OA
ATOM     19 HG1  THR B  14      33.445 -12.988  -9.228  1.00 24.18 LIG 0.21  HD
ENDBRANCH 16 18
ENDBRANCH 5 16
ENDBRANCH 3 5
BRANCH 1 20
ATOM     20  CA  SER B  13      38.703  -9.814 -10.179  1.00 24.49 LIG 0.20  C 
BRANCH 20 21
ATOM     21  CB  SER B  13      38.061  -8.668  -9.392  1.00 26.86 LIG 0.20  C 
BRANCH 21 22
ATOM     22 OG   SER B  13      37.756  -7.576 -10.250  1.00 27.16 LIG-0.40  OA
ATOM     23 HG   SER B  13      37.411  -7.864 -10.959  1.00 27.16 LIG 0.21  HD
ENDBRANCH 21 22
ENDBRANCH 20 21
BRANCH 20 24
ATOM     24  N   SER B  13      39.013  -9.381 -11.538  1.00 26.25 LIG-0.34  N 
ATOM     25 H    SER B  13      38.438  -9.629 -12.128  1.00 26.25 LIG 0.16  HD
ATOM     26  C   ALA B  12      40.099  -8.666 -11.816  1.00 27.91 LIG 0.26  C 
ATOM     27 O    ALA B  12      40.915  -8.322 -10.960  1.00 29.06 LIG-0.27  OA
BRANCH 26 28
ATOM     28  CA  ALA B  12      40.302  -8.277 -13.275  1.00 28.19 LIG 0.40  C 
ATOM     29  N   ALA B  12      39.470  -7.082 -13.602  1.00 28.78 LIG 0.61  N 
ATOM     30  CB  ALA B  12      41.775  -7.980 -13.540  1.00 26.50 LIG 0.06  C 
ENDBRANCH 26 28
ENDBRANCH 20 24
ENDBRANCH 1 20
TORSDOF 13
ENDMDL
MODEL 37
USER: ADFR SOLUTION from run 2
USER: SCORE 9.160602 LL:  -1.203 LR:  -8.434 RR:   0.000 FEB:  -4.556
USER: RMSD 5.374560
USER: SEED 505919
USER: STATUS no improvement in best in 8 clusters for 5 generations
USER: GENES 15
USER: genes 0 Translation |==|  0.59541 0.47049 0.55465
USER: genes 1 Rotation |==|  0.07492 0.56990 0.71956 0.62733
USER: genes 2 Torsion [C]-N--CA-[CB] |==|  0.17780
USER: genes 3 Torsion [N]-CA--C-[N] |==|  0.01246
USER: genes 4 Torsion [C]-N--CA-[C] |==|  0.82586
USER: genes 5 Torsion [N]-CA--C-[O] |==|  0.27917
USER: genes 6 Torsion [N]-CA--CB-[OG] |==|  0.02956
USER: genes 7 Torsion [CA]-CB--OG-[HG] |==|  0.37113
USER: genes 8 Torsion [N]-CA--CB-[CG2] |==|  0.09296
USER: genes 9 Torsion [CA]-CB--OG1-[HG1] |==|  0.18594
USER: genes 10 Torsion [N]-C--CA-[N] |==|  0.87622
USER: genes 11 Torsion [C]-CA--CB-[OG] |==|  0.24320
USER: genes 12 Torsion [CA]-CB--OG-[HG] |==|  0.63720
USER: genes 13 Torsion [C]-CA--N-[C] |==|  0.83333
USER: genes 14 Torsion [N]-C--CA-[N] |==|  0.84570
ROOT
ATOM      1  C   SER B  13      37.521 -12.836 -10.367  1.00 23.09 LIG 0.24  C 
ATOM      2 O    SER B  13      37.600 -13.429  -9.292  1.00 20.43 LIG-0.27  OA
ATOM      3  N   THR B  14      38.046 -13.307 -11.494  1.00 21.89 LIG-0.34  N 
ATOM      4 H    THR B  14      37.977 -12.919 -12.259  1.00 21.89 LIG 0.16  HD
ENDROOT
BRANCH 3 5
ATOM      5  CA  THR B  14      38.799 -14.557 -11.513  1.00 22.97 LIG 0.20  C 
BRANCH 5 6
ATOM      6  C   THR B  14      39.268 -14.737 -12.951  1.00 23.95 LIG 0.24  C 
ATOM      7  N   SER B  15      39.003 -13.753 -13.803  1.00 23.79 LIG-0.34  N 
ATOM      8 H    SER B  15      38.590 -13.028 -13.596  1.00 23.79 LIG 0.16  HD
ATOM      9 O    THR B  14      39.867 -15.763 -13.281  1.00 24.21 LIG-0.27  OA
BRANCH 7 10
ATOM     10  CA  SER B  15      39.415 -13.846 -15.200  1.00 24.78 LIG 0.19  C 
BRANCH 10 11
ATOM     11  C   SER B  15      40.931 -13.921 -15.316  1.00 26.56 LIG 0.22  C 
ATOM     12 O    SER B  15      41.413 -15.058 -15.503  1.00 28.00 LIG-0.29  OA
ENDBRANCH 10 11
BRANCH 10 13
ATOM     13  CB  SER B  15      38.904 -12.641 -15.993  1.00 23.87 LIG 0.20  C 
BRANCH 13 14
ATOM     14 OG   SER B  15      38.384 -11.645 -15.130  1.00 25.06 LIG-0.40  OA
ATOM     15 HG   SER B  15      38.681 -10.893 -15.357  1.00 25.06 LIG 0.21  HD
ENDBRANCH 13 14
ENDBRANCH 10 13
ENDBRANCH 7 10
ENDBRANCH 5 6
BRANCH 5 16
ATOM     16  CB  THR B  14      37.917 -15.759 -11.137  1.00 24.21 LIG 0.15  C 
ATOM     17  CG2 THR B  14      36.492 -15.556 -11.628  1.00 24.44 LIG 0.04  C 
BRANCH 16 18
ATOM     18 OG1  THR B  14      38.460 -16.947 -11.726  1.00 24.18 LIG-0.39  OA
ATOM     19 HG1  THR B  14      39.201 -17.122 -11.370  1.00 24.18 LIG 0.21  HD
ENDBRANCH 16 18
ENDBRANCH 5 16
ENDBRANCH 3 5
BRANCH 1 20
ATOM     20  CA  SER B  13      36.796 -11.499 -10.469  1.00 24.49 LIG 0.20  C 
BRANCH 20 21
ATOM     21  CB  SER B  13      35.429 -11.733 -11.118  1.00 26.86 LIG 0.20  C 
BRANCH 21 22
ATOM     22 OG   SER B  13      34.455 -12.065 -10.137  1.00 27.16 LIG-0.40  OA
ATOM     23 HG   SER B  13      34.037 -12.752 -10.379  1.00 27.16 LIG 0.21  HD
ENDBRANCH 21 22
ENDBRANCH 20 21
BRANCH 20 24
ATOM     24  N   SER B  13      37.581 -10.564 -11.268  1.00 26.25 LIG-0.34  N 
ATOM     25 H    SER B  13      37.180 -10.276 -11.972  1.00 26.25 LIG 0.16  HD
ATOM     26  C   ALA B  12      38.811 -10.201 -10.915  1.00 27.91 LIG 0.26  C 
ATOM     27 O    ALA B  12      39.373 -10.625  -9.904  1.00 29.06 LIG-0.27  OA
BRANCH 26 28
ATOM     28  CA  ALA B  12      39.519  -9.216 -11.836  1.00 28.19 LIG 0.40  C 
ATOM     29  N   ALA B  12      39.554  -9.755 -13.227  1.00 28.78 LIG 0.61  N 
ATOM     30  CB  ALA B  12      38.804  -7.868 -11.813  1.00 26.50 LIG 0.06  C 
ENDBRANCH 26 28
ENDBRANCH 20 24
ENDBRANCH 1 20
TORSDOF 13
ENDMDL
MODEL 38
USER: ADFR SOLUTION from run 187
USER: SCORE 8.451485 LL:  -1.574 LR:  -8.422 RR:   0.000 FEB:  -4.544
USER: RMSD 9.230779
USER: SEED 186
USER: STATUS no improvement in best in 6 clusters for 5 generations
USER: GENES 15
USER: genes 0 Translation |==|  0.72230 0.81247 0.42525
USER: genes 1 Rotation |==|  0.11301 0.76579 0.32830 0.51081
USER: genes 2 Torsion [C]-N--CA-[CB] |==|  0.44030
USER: genes 3 Torsion [N]-CA--C-[N] |==|  0.90767
USER: genes 4 Torsion [C]-N--CA-[C] |==|  0.60836
USER: genes 5 Torsion [N]-CA--C-[O] |==|  0.99512
USER: genes 6 Torsion [N]-CA--CB-[OG] |==|  0.59536
USER: genes 7 Torsion [CA]-CB--OG-[HG] |==|  0.00796
USER: genes 8 Torsion [N]-CA--CB-[CG2] |==|  0.57565
USER: genes 9 Torsion [CA]-CB--OG1-[HG1] |==|  0.85310
USER: genes 10 Torsion [N]-C--CA-[N] |==|  0.32310
USER: genes 11 Torsion [C]-CA--CB-[OG] |==|  0.26405
USER: genes 12 Torsion [CA]-CB--OG-[HG] |==|  0.69212
USER: genes 13 Torsion [C]-CA--N-[C] |==|  0.65832
USER: genes 14 Torsion [N]-C--CA-[N] |==|  0.84354
ROOT
ATOM      1  C   SER B  13      39.805  -7.706 -12.696  1.00 23.09 LIG 0.24  C 
ATOM      2 O    SER B  13      39.040  -6.768 -12.476  1.00 20.43 LIG-0.27  OA
ATOM      3  N   THR B  14      39.607  -8.930 -12.217  1.00 21.89 LIG-0.34  N 
ATOM      4 H    THR B  14      40.118  -9.602 -12.383  1.00 21.89 LIG 0.16  HD
ENDROOT
BRANCH 3 5
ATOM      5  CA  THR B  14      38.475  -9.227 -11.346  1.00 22.97 LIG 0.20  C 
BRANCH 5 6
ATOM      6  C   THR B  14      38.916  -8.833  -9.943  1.00 23.95 LIG 0.24  C 
ATOM      7  N   SER B  15      40.201  -8.993  -9.643  1.00 23.79 LIG-0.34  N 
ATOM      8 H    SER B  15      40.792  -9.299 -10.187  1.00 23.79 LIG 0.16  HD
ATOM      9 O    THR B  14      38.094  -8.386  -9.139  1.00 24.21 LIG-0.27  OA
BRANCH 7 10
ATOM     10  CA  SER B  15      40.706  -8.643  -8.320  1.00 24.78 LIG 0.19  C 
BRANCH 10 11
ATOM     11  C   SER B  15      42.079  -7.993  -8.417  1.00 26.56 LIG 0.22  C 
ATOM     12 O    SER B  15      42.561  -7.894  -9.565  1.00 28.00 LIG-0.29  OA
ENDBRANCH 10 11
BRANCH 10 13
ATOM     13  CB  SER B  15      40.794  -9.886  -7.431  1.00 23.87 LIG 0.20  C 
BRANCH 13 14
ATOM     14 OG   SER B  15      40.506  -9.569  -6.081  1.00 25.06 LIG-0.40  OA
ATOM     15 HG   SER B  15      40.300  -8.756  -6.021  1.00 25.06 LIG 0.21  HD
ENDBRANCH 13 14
ENDBRANCH 10 13
ENDBRANCH 7 10
ENDBRANCH 5 6
BRANCH 5 16
ATOM     16  CB  THR B  14      38.135 -10.727 -11.345  1.00 24.21 LIG 0.15  C 
ATOM     17  CG2 THR B  14      36.663 -10.944 -11.031  1.00 24.44 LIG 0.04  C 
BRANCH 16 18
ATOM     18 OG1  THR B  14      38.436 -11.281 -12.631  1.00 24.18 LIG-0.39  OA
ATOM     19 HG1  THR B  14      38.056 -10.828 -13.227  1.00 24.18 LIG 0.21  HD
ENDBRANCH 16 18
ENDBRANCH 5 16
ENDBRANCH 3 5
BRANCH 1 20
ATOM     20  CA  SER B  13      41.048  -7.512 -13.557  1.00 24.49 LIG 0.20  C 
BRANCH 20 21
ATOM     21  CB  SER B  13      41.904  -6.404 -12.937  1.00 26.86 LIG 0.20  C 
BRANCH 21 22
ATOM     22 OG   SER B  13      42.908  -6.955 -12.094  1.00 27.16 LIG-0.40  OA
ATOM     23 HG   SER B  13      42.735  -6.768 -11.294  1.00 27.16 LIG 0.21  HD
ENDBRANCH 21 22
ENDBRANCH 20 21
BRANCH 20 24
ATOM     24  N   SER B  13      40.662  -7.150 -14.918  1.00 26.25 LIG-0.34  N 
ATOM     25 H    SER B  13      40.172  -6.446 -14.971  1.00 26.25 LIG 0.16  HD
ATOM     26  C   ALA B  12      41.049  -7.866 -15.969  1.00 27.91 LIG 0.26  C 
ATOM     27 O    ALA B  12      41.748  -8.876 -15.876  1.00 29.06 LIG-0.27  OA
BRANCH 26 28
ATOM     28  CA  ALA B  12      40.579  -7.377 -17.333  1.00 28.19 LIG 0.40  C 
ATOM     29  N   ALA B  12      39.090  -7.280 -17.353  1.00 28.78 LIG 0.61  N 
ATOM     30  CB  ALA B  12      41.198  -6.018 -17.647  1.00 26.50 LIG 0.06  C 
ENDBRANCH 26 28
ENDBRANCH 20 24
ENDBRANCH 1 20
TORSDOF 13
ENDMDL
MODEL 39
USER: ADFR SOLUTION from run 29
USER: SCORE 9.322310 LL:  -1.512 LR:  -8.423 RR:   0.000 FEB:  -4.545
USER: RMSD 3.520088
USER: SEED 28
USER: STATUS no improvement in best in 10 clusters for 5 generations
USER: GENES 15
USER: genes 0 Translation |==|  0.54738 0.50025 0.56581
USER: genes 1 Rotation |==|  0.44315 0.39390 0.67524 0.95255
USER: genes 2 Torsion [C]-N--CA-[CB] |==|  0.52822
USER: genes 3 Torsion [N]-CA--C-[N] |==|  0.33608
USER: genes 4 Torsion [C]-N--CA-[C] |==|  0.14976
USER: genes 5 Torsion [N]-CA--C-[O] |==|  0.26346
USER: genes 6 Torsion [N]-CA--CB-[OG] |==|  0.90807
USER: genes 7 Torsion [CA]-CB--OG-[HG] |==|  0.92421
USER: genes 8 Torsion [N]-CA--CB-[CG2] |==|  0.49364
USER: genes 9 Torsion [CA]-CB--OG1-[HG1] |==|  0.87047
USER: genes 10 Torsion [N]-C--CA-[N] |==|  0.96111
USER: genes 11 Torsion [C]-CA--CB-[OG] |==|  0.00090
USER: genes 12 Torsion [CA]-CB--OG-[HG] |==|  0.43320
USER: genes 13 Torsion [C]-CA--N-[C] |==|  0.81891
USER: genes 14 Torsion [N]-C--CA-[N] |==|  0.76552
ROOT
ATOM      1  C   SER B  13      36.657 -12.389 -10.166  1.00 23.09 LIG 0.24  C 
ATOM      2 O    SER B  13      36.455 -12.914 -11.261  1.00 20.43 LIG-0.27  OA
ATOM      3  N   THR B  14      37.213 -11.189 -10.031  1.00 21.89 LIG-0.34  N 
ATOM      4 H    THR B  14      37.337 -10.797  -9.276  1.00 21.89 LIG 0.16  HD
ENDROOT
BRANCH 3 5
ATOM      5  CA  THR B  14      37.668 -10.432 -11.192  1.00 22.97 LIG 0.20  C 
BRANCH 5 6
ATOM      6  C   THR B  14      38.569 -11.376 -11.977  1.00 23.95 LIG 0.24  C 
ATOM      7  N   SER B  15      38.221 -11.643 -13.231  1.00 23.79 LIG-0.34  N 
ATOM      8 H    SER B  15      37.528 -11.318 -13.623  1.00 23.79 LIG 0.16  HD
ATOM      9 O    THR B  14      39.572 -11.857 -11.446  1.00 24.21 LIG-0.27  OA
BRANCH 7 10
ATOM     10  CA  SER B  15      39.027 -12.540 -14.053  1.00 24.78 LIG 0.19  C 
BRANCH 10 11
ATOM     11  C   SER B  15      39.232 -13.878 -13.357  1.00 26.56 LIG 0.22  C 
ATOM     12 O    SER B  15      38.429 -14.785 -13.660  1.00 28.00 LIG-0.29  OA
ENDBRANCH 10 11
BRANCH 10 13
ATOM     13  CB  SER B  15      40.389 -11.912 -14.359  1.00 23.87 LIG 0.20  C 
BRANCH 13 14
ATOM     14 OG   SER B  15      40.286 -10.504 -14.475  1.00 25.06 LIG-0.40  OA
ATOM     15 HG   SER B  15      39.511 -10.298 -14.725  1.00 25.06 LIG 0.21  HD
ENDBRANCH 13 14
ENDBRANCH 10 13
ENDBRANCH 7 10
ENDBRANCH 5 6
BRANCH 5 16
ATOM     16  CB  THR B  14      38.495  -9.202 -10.782  1.00 24.21 LIG 0.15  C 
ATOM     17  CG2 THR B  14      39.004  -8.462 -12.009  1.00 24.44 LIG 0.04  C 
BRANCH 16 18
ATOM     18 OG1  THR B  14      37.679  -8.323  -9.998  1.00 24.18 LIG-0.39  OA
ATOM     19 HG1  THR B  14      36.934  -8.223 -10.375  1.00 24.18 LIG 0.21  HD
ENDBRANCH 16 18
ENDBRANCH 5 16
ENDBRANCH 3 5
BRANCH 1 20
ATOM     20  CA  SER B  13      36.264 -13.100  -8.876  1.00 24.49 LIG 0.20  C 
BRANCH 20 21
ATOM     21  CB  SER B  13      34.739 -13.063  -8.743  1.00 26.86 LIG 0.20  C 
BRANCH 21 22
ATOM     22 OG   SER B  13      34.152 -12.392  -9.851  1.00 27.16 LIG-0.40  OA
ATOM     23 HG   SER B  13      33.359 -12.651  -9.946  1.00 27.16 LIG 0.21  HD
ENDBRANCH 21 22
ENDBRANCH 20 21
BRANCH 20 24
ATOM     24  N   SER B  13      36.888 -12.441  -7.733  1.00 26.25 LIG-0.34  N 
ATOM     25 H    SER B  13      36.332 -12.072  -7.191  1.00 26.25 LIG 0.16  HD
ATOM     26  C   ALA B  12      38.207 -12.426  -7.567  1.00 27.91 LIG 0.26  C 
ATOM     27 O    ALA B  12      38.991 -12.956  -8.355  1.00 29.06 LIG-0.27  OA
BRANCH 26 28
ATOM     28  CA  ALA B  12      38.727 -11.706  -6.329  1.00 28.19 LIG 0.40  C 
ATOM     29  N   ALA B  12      38.850 -10.245  -6.606  1.00 28.78 LIG 0.61  N 
ATOM     30  CB  ALA B  12      37.785 -11.939  -5.151  1.00 26.50 LIG 0.06  C 
ENDBRANCH 26 28
ENDBRANCH 20 24
ENDBRANCH 1 20
TORSDOF 13
ENDMDL
MODEL 40
USER: ADFR SOLUTION from run 85
USER: SCORE 8.709566 LL:  -1.781 LR:  -8.391 RR:   0.000 FEB:  -4.513
USER: RMSD 6.453206
USER: SEED 84
USER: STATUS no improvement in best in 4 clusters for 5 generations
USER: GENES 15
USER: genes 0 Translation |==|  0.63852 0.50741 0.54398
USER: genes 1 Rotation |==|  0.42170 0.90462 0.77609 0.56262
USER: genes 2 Torsion [C]-N--CA-[CB] |==|  0.47840
USER: genes 3 Torsion [N]-CA--C-[N] |==|  0.27276
USER: genes 4 Torsion [C]-N--CA-[C] |==|  0.13968
USER: genes 5 Torsion [N]-CA--C-[O] |==|  0.19951
USER: genes 6 Torsion [N]-CA--CB-[OG] |==|  0.18581
USER: genes 7 Torsion [CA]-CB--OG-[HG] |==|  0.33763
USER: genes 8 Torsion [N]-CA--CB-[CG2] |==|  0.60978
USER: genes 9 Torsion [CA]-CB--OG1-[HG1] |==|  0.94499
USER: genes 10 Torsion [N]-C--CA-[N] |==|  0.85967
USER: genes 11 Torsion [C]-CA--CB-[OG] |==|  0.87982
USER: genes 12 Torsion [CA]-CB--OG-[HG] |==|  0.76842
USER: genes 13 Torsion [C]-CA--N-[C] |==|  0.78026
USER: genes 14 Torsion [N]-C--CA-[N] |==|  0.16518
ROOT
ATOM      1  C   SER B  13      38.297 -12.282 -10.559  1.00 23.09 LIG 0.24  C 
ATOM      2 O    SER B  13      38.981 -12.988  -9.819  1.00 20.43 LIG-0.27  OA
ATOM      3  N   THR B  14      36.968 -12.318 -10.569  1.00 21.89 LIG-0.34  N 
ATOM      4 H    THR B  14      36.475 -11.813 -11.060  1.00 21.89 LIG 0.16  HD
ENDROOT
BRANCH 3 5
ATOM      5  CA  THR B  14      36.231 -13.248  -9.720  1.00 22.97 LIG 0.20  C 
BRANCH 5 6
ATOM      6  C   THR B  14      36.487 -14.633 -10.301  1.00 23.95 LIG 0.24  C 
ATOM      7  N   SER B  15      37.431 -15.368  -9.724  1.00 23.79 LIG-0.34  N 
ATOM      8 H    SER B  15      37.900 -15.114  -9.050  1.00 23.79 LIG 0.16  HD
ATOM      9 O    THR B  14      35.829 -15.028 -11.266  1.00 24.21 LIG-0.27  OA
BRANCH 7 10
ATOM     10  CA  SER B  15      37.742 -16.704 -10.220  1.00 24.78 LIG 0.19  C 
BRANCH 10 11
ATOM     11  C   SER B  15      37.967 -16.687 -11.725  1.00 26.56 LIG 0.22  C 
ATOM     12 O    SER B  15      39.026 -16.153 -12.117  1.00 28.00 LIG-0.29  OA
ENDBRANCH 10 11
BRANCH 10 13
ATOM     13  CB  SER B  15      36.609 -17.679  -9.887  1.00 23.87 LIG 0.20  C 
BRANCH 13 14
ATOM     14 OG   SER B  15      35.430 -17.354 -10.601  1.00 25.06 LIG-0.40  OA
ATOM     15 HG   SER B  15      35.197 -18.010 -11.072  1.00 25.06 LIG 0.21  HD
ENDBRANCH 13 14
ENDBRANCH 10 13
ENDBRANCH 7 10
ENDBRANCH 5 6
BRANCH 5 16
ATOM     16  CB  THR B  14      34.718 -12.978  -9.759  1.00 24.21 LIG 0.15  C 
ATOM     17  CG2 THR B  14      34.107 -13.143  -8.376  1.00 24.44 LIG 0.04  C 
BRANCH 16 18
ATOM     18 OG1  THR B  14      34.488 -11.643 -10.226  1.00 24.18 LIG-0.39  OA
ATOM     19 HG1  THR B  14      35.187 -11.188 -10.130  1.00 24.18 LIG 0.21  HD
ENDBRANCH 16 18
ENDBRANCH 5 16
ENDBRANCH 3 5
BRANCH 1 20
ATOM     20  CA  SER B  13      38.952 -11.299 -11.523  1.00 24.49 LIG 0.20  C 
BRANCH 20 21
ATOM     21  CB  SER B  13      38.685  -9.876 -11.026  1.00 26.86 LIG 0.20  C 
BRANCH 21 22
ATOM     22 OG   SER B  13      37.335  -9.735 -10.602  1.00 27.16 LIG-0.40  OA
ATOM     23 HG   SER B  13      36.847  -9.579 -11.268  1.00 27.16 LIG 0.21  HD
ENDBRANCH 21 22
ENDBRANCH 20 21
BRANCH 20 24
ATOM     24  N   SER B  13      38.406 -11.476 -12.865  1.00 26.25 LIG-0.34  N 
ATOM     25 H    SER B  13      37.813 -10.893 -13.085  1.00 26.25 LIG 0.16  HD
ATOM     26  C   ALA B  12      38.807 -12.463 -13.660  1.00 27.91 LIG 0.26  C 
ATOM     27 O    ALA B  12      39.655 -13.293 -13.328  1.00 29.06 LIG-0.27  OA
BRANCH 26 28
ATOM     28  CA  ALA B  12      38.159 -12.532 -15.037  1.00 28.19 LIG 0.40  C 
ATOM     29  N   ALA B  12      38.420 -11.268 -15.786  1.00 28.78 LIG 0.61  N 
ATOM     30  CB  ALA B  12      38.704 -13.726 -15.816  1.00 26.50 LIG 0.06  C 
ENDBRANCH 26 28
ENDBRANCH 20 24
ENDBRANCH 1 20
TORSDOF 13
ENDMDL
MODEL 41
USER: ADFR SOLUTION from run 138
USER: SCORE 8.869486 LL:  -1.127 LR:  -8.386 RR:   0.000 FEB:  -4.508
USER: RMSD 7.352661
USER: SEED 137
USER: STATUS no improvement in best in 16 clusters for 5 generations
USER: GENES 15
USER: genes 0 Translation |==|  0.51971 0.39959 0.52029
USER: genes 1 Rotation |==|  0.09682 0.54528 0.35147 0.75166
USER: genes 2 Torsion [C]-N--CA-[CB] |==|  0.52398
USER: genes 3 Torsion [N]-CA--C-[N] |==|  0.42967
USER: genes 4 Torsion [C]-N--CA-[C] |==|  0.79139
USER: genes 5 Torsion [N]-CA--C-[O] |==|  0.04169
USER: genes 6 Torsion [N]-CA--CB-[OG] |==|  0.97129
USER: genes 7 Torsion [CA]-CB--OG-[HG] |==|  0.13863
USER: genes 8 Torsion [N]-CA--CB-[CG2] |==|  0.24935
USER: genes 9 Torsion [CA]-CB--OG1-[HG1] |==|  0.81579
USER: genes 10 Torsion [N]-C--CA-[N] |==|  0.20667
USER: genes 11 Torsion [C]-CA--CB-[OG] |==|  0.09781
USER: genes 12 Torsion [CA]-CB--OG-[HG] |==|  0.79288
USER: genes 13 Torsion [C]-CA--N-[C] |==|  0.78333
USER: genes 14 Torsion [N]-C--CA-[N] |==|  0.27341
ROOT
ATOM      1  C   SER B  13      36.159 -13.899 -10.986  1.00 23.09 LIG 0.24  C 
ATOM      2 O    SER B  13      34.996 -14.276 -11.127  1.00 20.43 LIG-0.27  OA
ATOM      3  N   THR B  14      37.188 -14.738 -10.919  1.00 21.89 LIG-0.34  N 
ATOM      4 H    THR B  14      38.009 -14.491 -10.848  1.00 21.89 LIG 0.16  HD
ENDROOT
BRANCH 3 5
ATOM      5  CA  THR B  14      36.990 -16.183 -10.963  1.00 22.97 LIG 0.20  C 
BRANCH 5 6
ATOM      6  C   THR B  14      35.980 -16.497  -9.867  1.00 23.95 LIG 0.24  C 
ATOM      7  N   SER B  15      35.250 -17.598 -10.012  1.00 23.79 LIG-0.34  N 
ATOM      8 H    SER B  15      35.313 -18.138 -10.678  1.00 23.79 LIG 0.16  HD
ATOM      9 O    THR B  14      35.867 -15.744  -8.897  1.00 24.21 LIG-0.27  OA
BRANCH 7 10
ATOM     10  CA  SER B  15      34.257 -17.971  -9.010  1.00 24.78 LIG 0.19  C 
BRANCH 10 11
ATOM     11  C   SER B  15      34.927 -18.535  -7.765  1.00 26.56 LIG 0.22  C 
ATOM     12 O    SER B  15      36.155 -18.329  -7.660  1.00 28.00 LIG-0.29  OA
ENDBRANCH 10 11
BRANCH 10 13
ATOM     13  CB  SER B  15      33.283 -19.006  -9.577  1.00 23.87 LIG 0.20  C 
BRANCH 13 14
ATOM     14 OG   SER B  15      33.451 -19.152 -10.976  1.00 25.06 LIG-0.40  OA
ATOM     15 HG   SER B  15      34.265 -19.268 -11.151  1.00 25.06 LIG 0.21  HD
ENDBRANCH 13 14
ENDBRANCH 10 13
ENDBRANCH 7 10
ENDBRANCH 5 6
BRANCH 5 16
ATOM     16  CB  THR B  14      38.290 -16.946 -10.658  1.00 24.21 LIG 0.15  C 
ATOM     17  CG2 THR B  14      38.423 -17.206  -9.166  1.00 24.44 LIG 0.04  C 
BRANCH 16 18
ATOM     18 OG1  THR B  14      38.281 -18.195 -11.361  1.00 24.18 LIG-0.39  OA
ATOM     19 HG1  THR B  14      37.674 -18.686 -11.052  1.00 24.18 LIG 0.21  HD
ENDBRANCH 16 18
ENDBRANCH 5 16
ENDBRANCH 3 5
BRANCH 1 20
ATOM     20  CA  SER B  13      36.491 -12.415 -10.884  1.00 24.49 LIG 0.20  C 
BRANCH 20 21
ATOM     21  CB  SER B  13      35.199 -11.644 -10.599  1.00 26.86 LIG 0.20  C 
BRANCH 21 22
ATOM     22 OG   SER B  13      34.335 -12.400  -9.760  1.00 27.16 LIG-0.40  OA
ATOM     23 HG   SER B  13      33.983 -13.019 -10.206  1.00 27.16 LIG 0.21  HD
ENDBRANCH 21 22
ENDBRANCH 20 21
BRANCH 20 24
ATOM     24  N   SER B  13      37.091 -11.951 -12.130  1.00 26.25 LIG-0.34  N 
ATOM     25 H    SER B  13      36.555 -11.514 -12.641  1.00 26.25 LIG 0.16  HD
ATOM     26  C   ALA B  12      38.364 -12.196 -12.429  1.00 27.91 LIG 0.26  C 
ATOM     27 O    ALA B  12      39.119 -12.826 -11.688  1.00 29.06 LIG-0.27  OA
BRANCH 26 28
ATOM     28  CA  ALA B  12      38.866 -11.652 -13.760  1.00 28.19 LIG 0.40  C 
ATOM     29  N   ALA B  12      39.593 -10.367 -13.542  1.00 28.78 LIG 0.61  N 
ATOM     30  CB  ALA B  12      39.786 -12.668 -14.430  1.00 26.50 LIG 0.06  C 
ENDBRANCH 26 28
ENDBRANCH 20 24
ENDBRANCH 1 20
TORSDOF 13
ENDMDL
MODEL 42
USER: ADFR SOLUTION from run 153
USER: SCORE 9.067517 LL:  -2.053 LR:  -8.382 RR:   0.000 FEB:  -4.504
USER: RMSD 7.034593
USER: SEED 152
USER: STATUS no improvement in best in 10 clusters for 5 generations
USER: GENES 15
USER: genes 0 Translation |==|  0.75609 0.53543 0.29998
USER: genes 1 Rotation |==|  0.26190 0.18870 0.73113 0.70732
USER: genes 2 Torsion [C]-N--CA-[CB] |==|  0.37837
USER: genes 3 Torsion [N]-CA--C-[N] |==|  0.91038
USER: genes 4 Torsion [C]-N--CA-[C] |==|  0.57568
USER: genes 5 Torsion [N]-CA--C-[O] |==|  0.79149
USER: genes 6 Torsion [N]-CA--CB-[OG] |==|  0.97434
USER: genes 7 Torsion [CA]-CB--OG-[HG] |==|  0.19863
USER: genes 8 Torsion [N]-CA--CB-[CG2] |==|  0.68062
USER: genes 9 Torsion [CA]-CB--OG1-[HG1] |==|  0.17735
USER: genes 10 Torsion [N]-C--CA-[N] |==|  0.86667
USER: genes 11 Torsion [C]-CA--CB-[OG] |==|  0.76006
USER: genes 12 Torsion [CA]-CB--OG-[HG] |==|  0.13361
USER: genes 13 Torsion [C]-CA--N-[C] |==|  0.81177
USER: genes 14 Torsion [N]-C--CA-[N] |==|  0.12189
ROOT
ATOM      1  C   SER B  13      40.414 -11.862 -14.951  1.00 23.09 LIG 0.24  C 
ATOM      2 O    SER B  13      41.472 -12.490 -14.928  1.00 20.43 LIG-0.27  OA
ATOM      3  N   THR B  14      40.336 -10.589 -15.327  1.00 21.89 LIG-0.34  N 
ATOM      4 H    THR B  14      39.602 -10.143 -15.375  1.00 21.89 LIG 0.16  HD
ENDROOT
BRANCH 3 5
ATOM      5  CA  THR B  14      41.530  -9.835 -15.695  1.00 22.97 LIG 0.20  C 
BRANCH 5 6
ATOM      6  C   THR B  14      41.799  -8.889 -14.531  1.00 23.95 LIG 0.24  C 
ATOM      7  N   SER B  15      40.744  -8.435 -13.863  1.00 23.79 LIG-0.34  N 
ATOM      8 H    SER B  15      39.929  -8.640 -14.044  1.00 23.79 LIG 0.16  HD
ATOM      9 O    THR B  14      42.956  -8.577 -14.244  1.00 24.21 LIG-0.27  OA
BRANCH 7 10
ATOM     10  CA  SER B  15      40.912  -7.522 -12.737  1.00 24.78 LIG 0.19  C 
BRANCH 10 11
ATOM     11  C   SER B  15      39.760  -7.656 -11.752  1.00 26.56 LIG 0.22  C 
ATOM     12 O    SER B  15      38.675  -7.143 -12.101  1.00 28.00 LIG-0.29  OA
ENDBRANCH 10 11
BRANCH 10 13
ATOM     13  CB  SER B  15      40.997  -6.074 -13.226  1.00 23.87 LIG 0.20  C 
BRANCH 13 14
ATOM     14 OG   SER B  15      41.103  -6.017 -14.637  1.00 25.06 LIG-0.40  OA
ATOM     15 HG   SER B  15      40.368  -6.231 -14.983  1.00 25.06 LIG 0.21  HD
ENDBRANCH 13 14
ENDBRANCH 10 13
ENDBRANCH 7 10
ENDBRANCH 5 6
BRANCH 5 16
ATOM     16  CB  THR B  14      41.305  -8.993 -16.962  1.00 24.21 LIG 0.15  C 
ATOM     17  CG2 THR B  14      42.189  -9.483 -18.097  1.00 24.44 LIG 0.04  C 
BRANCH 16 18
ATOM     18 OG1  THR B  14      39.930  -9.087 -17.354  1.00 24.18 LIG-0.39  OA
ATOM     19 HG1  THR B  14      39.445  -8.750 -16.756  1.00 24.18 LIG 0.21  HD
ENDBRANCH 16 18
ENDBRANCH 5 16
ENDBRANCH 3 5
BRANCH 1 20
ATOM     20  CA  SER B  13      39.103 -12.527 -14.548  1.00 24.49 LIG 0.20  C 
BRANCH 20 21
ATOM     21  CB  SER B  13      38.271 -12.772 -15.811  1.00 26.86 LIG 0.20  C 
BRANCH 21 22
ATOM     22 OG   SER B  13      37.496 -11.625 -16.135  1.00 27.16 LIG-0.40  OA
ATOM     23 HG   SER B  13      37.983 -10.942 -16.109  1.00 27.16 LIG 0.21  HD
ENDBRANCH 21 22
ENDBRANCH 20 21
BRANCH 20 24
ATOM     24  N   SER B  13      38.372 -11.669 -13.621  1.00 26.25 LIG-0.34  N 
ATOM     25 H    SER B  13      37.643 -11.343 -13.941  1.00 26.25 LIG 0.16  HD
ATOM     26  C   ALA B  12      38.816 -11.428 -12.391  1.00 27.91 LIG 0.26  C 
ATOM     27 O    ALA B  12      39.864 -11.900 -11.950  1.00 29.06 LIG-0.27  OA
BRANCH 26 28
ATOM     28  CA  ALA B  12      37.954 -10.518 -11.525  1.00 28.19 LIG 0.40  C 
ATOM     29  N   ALA B  12      36.517 -10.893 -11.666  1.00 28.78 LIG 0.61  N 
ATOM     30  CB  ALA B  12      38.383 -10.624 -10.064  1.00 26.50 LIG 0.06  C 
ENDBRANCH 26 28
ENDBRANCH 20 24
ENDBRANCH 1 20
TORSDOF 13
ENDMDL
MODEL 43
USER: ADFR SOLUTION from run 71
USER: SCORE 7.903332 LL:  -1.511 LR:  -8.370 RR:   0.000 FEB:  -4.492
USER: RMSD 4.345367
USER: SEED 70
USER: STATUS no improvement in best in 19 clusters for 5 generations
USER: GENES 15
USER: genes 0 Translation |==|  0.59029 0.43896 0.49199
USER: genes 1 Rotation |==|  0.17722 0.27971 0.76308 0.66756
USER: genes 2 Torsion [C]-N--CA-[CB] |==|  0.38031
USER: genes 3 Torsion [N]-CA--C-[N] |==|  0.69904
USER: genes 4 Torsion [C]-N--CA-[C] |==|  0.82285
USER: genes 5 Torsion [N]-CA--C-[O] |==|  0.72470
USER: genes 6 Torsion [N]-CA--CB-[OG] |==|  0.90625
USER: genes 7 Torsion [CA]-CB--OG-[HG] |==|  0.18653
USER: genes 8 Torsion [N]-CA--CB-[CG2] |==|  0.66287
USER: genes 9 Torsion [CA]-CB--OG1-[HG1] |==|  0.20131
USER: genes 10 Torsion [N]-C--CA-[N] |==|  0.51086
USER: genes 11 Torsion [C]-CA--CB-[OG] |==|  0.51008
USER: genes 12 Torsion [CA]-CB--OG-[HG] |==|  0.96454
USER: genes 13 Torsion [C]-CA--N-[C] |==|  0.75037
USER: genes 14 Torsion [N]-C--CA-[N] |==|  0.53471
ROOT
ATOM      1  C   SER B  13      37.429 -13.309 -11.495  1.00 23.09 LIG 0.24  C 
ATOM      2 O    SER B  13      38.289 -14.090 -11.089  1.00 20.43 LIG-0.27  OA
ATOM      3  N   THR B  14      37.677 -12.367 -12.400  1.00 21.89 LIG-0.34  N 
ATOM      4 H    THR B  14      37.082 -11.831 -12.715  1.00 21.89 LIG 0.16  HD
ENDROOT
BRANCH 3 5
ATOM      5  CA  THR B  14      39.018 -12.170 -12.939  1.00 22.97 LIG 0.20  C 
BRANCH 5 6
ATOM      6  C   THR B  14      39.550 -10.904 -12.279  1.00 23.95 LIG 0.24  C 
ATOM      7  N   SER B  15      39.654  -9.821 -13.041  1.00 23.79 LIG-0.34  N 
ATOM      8 H    SER B  15      39.441  -9.790 -13.873  1.00 23.79 LIG 0.16  HD
ATOM      9 O    THR B  14      39.861 -10.914 -11.086  1.00 24.21 LIG-0.27  OA
BRANCH 7 10
ATOM     10  CA  SER B  15      40.157  -8.567 -12.488  1.00 24.78 LIG 0.19  C 
BRANCH 10 11
ATOM     11  C   SER B  15      39.227  -8.039 -11.406  1.00 26.56 LIG 0.22  C 
ATOM     12 O    SER B  15      38.429  -7.143 -11.755  1.00 28.00 LIG-0.29  OA
ENDBRANCH 10 11
BRANCH 10 13
ATOM     13  CB  SER B  15      40.305  -7.515 -13.589  1.00 23.87 LIG 0.20  C 
BRANCH 13 14
ATOM     14 OG   SER B  15      40.679  -8.112 -14.818  1.00 25.06 LIG-0.40  OA
ATOM     15 HG   SER B  15      40.049  -8.590 -15.102  1.00 25.06 LIG 0.21  HD
ENDBRANCH 13 14
ENDBRANCH 10 13
ENDBRANCH 7 10
ENDBRANCH 5 6
BRANCH 5 16
ATOM     16  CB  THR B  14      38.995 -11.950 -14.461  1.00 24.21 LIG 0.15  C 
ATOM     17  CG2 THR B  14      39.829 -13.005 -15.170  1.00 24.44 LIG 0.04  C 
BRANCH 16 18
ATOM     18 OG1  THR B  14      37.642 -12.018 -14.927  1.00 24.18 LIG-0.39  OA
ATOM     19 HG1  THR B  14      37.228 -11.328 -14.687  1.00 24.18 LIG 0.21  HD
ENDBRANCH 16 18
ENDBRANCH 5 16
ENDBRANCH 3 5
BRANCH 1 20
ATOM     20  CA  SER B  13      35.998 -13.385 -10.976  1.00 24.49 LIG 0.20  C 
BRANCH 20 21
ATOM     21  CB  SER B  13      35.605 -12.012 -10.424  1.00 26.86 LIG 0.20  C 
BRANCH 21 22
ATOM     22 OG   SER B  13      34.304 -12.053  -9.851  1.00 27.16 LIG-0.40  OA
ATOM     23 HG   SER B  13      33.923 -12.767 -10.072  1.00 27.16 LIG 0.21  HD
ENDBRANCH 21 22
ENDBRANCH 20 21
BRANCH 20 24
ATOM     24  N   SER B  13      35.900 -14.397  -9.929  1.00 26.25 LIG-0.34  N 
ATOM     25 H    SER B  13      36.041 -14.099  -9.135  1.00 26.25 LIG 0.16  HD
ATOM     26  C   ALA B  12      35.614 -15.666 -10.206  1.00 27.91 LIG 0.26  C 
ATOM     27 O    ALA B  12      35.418 -16.077 -11.350  1.00 29.06 LIG-0.27  OA
BRANCH 26 28
ATOM     28  CA  ALA B  12      35.538 -16.619  -9.020  1.00 28.19 LIG 0.40  C 
ATOM     29  N   ALA B  12      35.515 -18.031  -9.503  1.00 28.78 LIG 0.61  N 
ATOM     30  CB  ALA B  12      36.731 -16.401  -8.093  1.00 26.50 LIG 0.06  C 
ENDBRANCH 26 28
ENDBRANCH 20 24
ENDBRANCH 1 20
TORSDOF 13
ENDMDL
MODEL 44
USER: ADFR SOLUTION from run 102
USER: SCORE 8.731459 LL:  -1.738 LR:  -8.362 RR:   0.000 FEB:  -4.484
USER: RMSD 6.512744
USER: SEED 101
USER: STATUS no improvement in best in 14 clusters for 5 generations
USER: GENES 15
USER: genes 0 Translation |==|  0.58357 0.55172 0.57098
USER: genes 1 Rotation |==|  0.67885 0.08488 0.28667 0.51317
USER: genes 2 Torsion [C]-N--CA-[CB] |==|  0.46331
USER: genes 3 Torsion [N]-CA--C-[N] |==|  0.89802
USER: genes 4 Torsion [C]-N--CA-[C] |==|  0.53452
USER: genes 5 Torsion [N]-CA--C-[O] |==|  0.26133
USER: genes 6 Torsion [N]-CA--CB-[OG] |==|  0.14764
USER: genes 7 Torsion [CA]-CB--OG-[HG] |==|  0.39939
USER: genes 8 Torsion [N]-CA--CB-[CG2] |==|  0.59459
USER: genes 9 Torsion [CA]-CB--OG1-[HG1] |==|  0.44946
USER: genes 10 Torsion [N]-C--CA-[N] |==|  0.46074
USER: genes 11 Torsion [C]-CA--CB-[OG] |==|  0.60366
USER: genes 12 Torsion [CA]-CB--OG-[HG] |==|  0.78394
USER: genes 13 Torsion [C]-CA--N-[C] |==|  0.78933
USER: genes 14 Torsion [N]-C--CA-[N] |==|  0.78258
ROOT
ATOM      1  C   SER B  13      37.308 -11.617 -10.073  1.00 23.09 LIG 0.24  C 
ATOM      2 O    SER B  13      38.166 -11.684  -9.193  1.00 20.43 LIG-0.27  OA
ATOM      3  N   THR B  14      36.133 -12.234  -9.987  1.00 21.89 LIG-0.34  N 
ATOM      4 H    THR B  14      35.513 -12.175 -10.580  1.00 21.89 LIG 0.16  HD
ENDROOT
BRANCH 3 5
ATOM      5  CA  THR B  14      35.806 -13.080  -8.844  1.00 22.97 LIG 0.20  C 
BRANCH 5 6
ATOM      6  C   THR B  14      36.583 -14.373  -9.049  1.00 23.95 LIG 0.24  C 
ATOM      7  N   SER B  15      36.704 -14.817 -10.296  1.00 23.79 LIG-0.34  N 
ATOM      8 H    SER B  15      36.377 -14.423 -10.986  1.00 23.79 LIG 0.16  HD
ATOM      9 O    THR B  14      37.068 -14.962  -8.081  1.00 24.21 LIG-0.27  OA
BRANCH 7 10
ATOM     10  CA  SER B  15      37.430 -16.050 -10.580  1.00 24.78 LIG 0.19  C 
BRANCH 10 11
ATOM     11  C   SER B  15      37.697 -16.192 -12.072  1.00 26.56 LIG 0.22  C 
ATOM     12 O    SER B  15      38.802 -15.770 -12.476  1.00 28.00 LIG-0.29  OA
ENDBRANCH 10 11
BRANCH 10 13
ATOM     13  CB  SER B  15      36.641 -17.266 -10.087  1.00 23.87 LIG 0.20  C 
BRANCH 13 14
ATOM     14 OG   SER B  15      35.321 -17.259 -10.601  1.00 25.06 LIG-0.40  OA
ATOM     15 HG   SER B  15      35.079 -18.047 -10.765  1.00 25.06 LIG 0.21  HD
ENDBRANCH 13 14
ENDBRANCH 10 13
ENDBRANCH 7 10
ENDBRANCH 5 6
BRANCH 5 16
ATOM     16  CB  THR B  14      34.306 -13.417  -8.796  1.00 24.21 LIG 0.15  C 
ATOM     17  CG2 THR B  14      33.824 -13.518  -7.358  1.00 24.44 LIG 0.04  C 
BRANCH 16 18
ATOM     18 OG1  THR B  14      33.569 -12.393  -9.476  1.00 24.18 LIG-0.39  OA
ATOM     19 HG1  THR B  14      32.805 -12.681  -9.671  1.00 24.18 LIG 0.21  HD
ENDBRANCH 16 18
ENDBRANCH 5 16
ENDBRANCH 3 5
BRANCH 1 20
ATOM     20  CA  SER B  13      37.549 -10.799 -11.336  1.00 24.49 LIG 0.20  C 
BRANCH 20 21
ATOM     21  CB  SER B  13      37.791 -11.760 -12.503  1.00 26.86 LIG 0.20  C 
BRANCH 21 22
ATOM     22 OG   SER B  13      38.781 -11.245 -13.384  1.00 27.16 LIG-0.40  OA
ATOM     23 HG   SER B  13      38.442 -10.650 -13.870  1.00 27.16 LIG 0.21  HD
ENDBRANCH 21 22
ENDBRANCH 20 21
BRANCH 20 24
ATOM     24  N   SER B  13      38.704  -9.926 -11.154  1.00 26.25 LIG-0.34  N 
ATOM     25 H    SER B  13      39.416 -10.192 -11.555  1.00 26.25 LIG 0.16  HD
ATOM     26  C   ALA B  12      38.635  -8.816 -10.424  1.00 27.91 LIG 0.26  C 
ATOM     27 O    ALA B  12      37.607  -8.449  -9.852  1.00 29.06 LIG-0.27  OA
BRANCH 26 28
ATOM     28  CA  ALA B  12      39.912  -7.993 -10.317  1.00 28.19 LIG 0.40  C 
ATOM     29  N   ALA B  12      40.839  -8.620  -9.329  1.00 28.78 LIG 0.61  N 
ATOM     30  CB  ALA B  12      40.589  -7.893 -11.681  1.00 26.50 LIG 0.06  C 
ENDBRANCH 26 28
ENDBRANCH 20 24
ENDBRANCH 1 20
TORSDOF 13
ENDMDL
MODEL 45
USER: ADFR SOLUTION from run 39
USER: SCORE 8.868720 LL:  -1.080 LR:  -8.328 RR:   0.000 FEB:  -4.450
USER: RMSD 7.249445
USER: SEED 38
USER: STATUS no improvement in best in 9 clusters for 5 generations
USER: GENES 15
USER: genes 0 Translation |==|  0.61347 0.32001 0.53194
USER: genes 1 Rotation |==|  0.67771 0.87800 0.71158 0.67543
USER: genes 2 Torsion [C]-N--CA-[CB] |==|  0.52222
USER: genes 3 Torsion [N]-CA--C-[N] |==|  0.41018
USER: genes 4 Torsion [C]-N--CA-[C] |==|  0.56871
USER: genes 5 Torsion [N]-CA--C-[O] |==|  0.55633
USER: genes 6 Torsion [N]-CA--CB-[OG] |==|  0.77415
USER: genes 7 Torsion [CA]-CB--OG-[HG] |==|  0.44241
USER: genes 8 Torsion [N]-CA--CB-[CG2] |==|  0.96122
USER: genes 9 Torsion [CA]-CB--OG1-[HG1] |==|  0.16164
USER: genes 10 Torsion [N]-C--CA-[N] |==|  0.01704
USER: genes 11 Torsion [C]-CA--CB-[OG] |==|  0.41771
USER: genes 12 Torsion [CA]-CB--OG-[HG] |==|  0.72058
USER: genes 13 Torsion [C]-CA--N-[C] |==|  0.67919
USER: genes 14 Torsion [N]-C--CA-[N] |==|  0.57880
ROOT
ATOM      1  C   SER B  13      37.846 -15.093 -10.776  1.00 23.09 LIG 0.24  C 
ATOM      2 O    SER B  13      37.539 -16.087 -10.118  1.00 20.43 LIG-0.27  OA
ATOM      3  N   THR B  14      37.292 -13.899 -10.586  1.00 21.89 LIG-0.34  N 
ATOM      4 H    THR B  14      37.515 -13.189 -11.018  1.00 21.89 LIG 0.16  HD
ENDROOT
BRANCH 3 5
ATOM      5  CA  THR B  14      36.234 -13.705  -9.601  1.00 22.97 LIG 0.20  C 
BRANCH 5 6
ATOM      6  C   THR B  14      35.157 -14.728  -9.942  1.00 23.95 LIG 0.24  C 
ATOM      7  N   SER B  15      34.454 -15.227  -8.931  1.00 23.79 LIG-0.34  N 
ATOM      8 H    SER B  15      34.566 -15.011  -8.107  1.00 23.79 LIG 0.16  HD
ATOM      9 O    THR B  14      34.968 -15.058 -11.115  1.00 24.21 LIG-0.27  OA
BRANCH 7 10
ATOM     10  CA  SER B  15      33.405 -16.214  -9.170  1.00 24.78 LIG 0.19  C 
BRANCH 10 11
ATOM     11  C   SER B  15      32.372 -16.190  -8.053  1.00 26.56 LIG 0.22  C 
ATOM     12 O    SER B  15      31.668 -17.215  -7.932  1.00 28.00 LIG-0.29  OA
ENDBRANCH 10 11
BRANCH 10 13
ATOM     13  CB  SER B  15      34.003 -17.619  -9.279  1.00 23.87 LIG 0.20  C 
BRANCH 13 14
ATOM     14 OG   SER B  15      34.527 -17.851 -10.575  1.00 25.06 LIG-0.40  OA
ATOM     15 HG   SER B  15      35.084 -18.479 -10.544  1.00 25.06 LIG 0.21  HD
ENDBRANCH 13 14
ENDBRANCH 10 13
ENDBRANCH 7 10
ENDBRANCH 5 6
BRANCH 5 16
ATOM     16  CB  THR B  14      35.616 -12.300  -9.698  1.00 24.21 LIG 0.15  C 
ATOM     17  CG2 THR B  14      36.488 -11.387 -10.544  1.00 24.44 LIG 0.04  C 
BRANCH 16 18
ATOM     18 OG1  THR B  14      34.313 -12.396 -10.286  1.00 24.18 LIG-0.39  OA
ATOM     19 HG1  THR B  14      33.833 -12.906  -9.821  1.00 24.18 LIG 0.21  HD
ENDBRANCH 16 18
ENDBRANCH 5 16
ENDBRANCH 3 5
BRANCH 1 20
ATOM     20  CA  SER B  13      38.910 -15.177 -11.865  1.00 24.49 LIG 0.20  C 
BRANCH 20 21
ATOM     21  CB  SER B  13      40.176 -15.795 -11.264  1.00 26.86 LIG 0.20  C 
BRANCH 21 22
ATOM     22 OG   SER B  13      40.907 -16.508 -12.254  1.00 27.16 LIG-0.40  OA
ATOM     23 HG   SER B  13      40.753 -17.330 -12.177  1.00 27.16 LIG 0.21  HD
ENDBRANCH 21 22
ENDBRANCH 20 21
BRANCH 20 24
ATOM     24  N   SER B  13      39.197 -13.845 -12.386  1.00 26.25 LIG-0.34  N 
ATOM     25 H    SER B  13      39.547 -13.307 -11.813  1.00 26.25 LIG 0.16  HD
ATOM     26  C   ALA B  12      38.932 -13.514 -13.647  1.00 27.91 LIG 0.26  C 
ATOM     27 O    ALA B  12      38.428 -14.294 -14.456  1.00 29.06 LIG-0.27  OA
BRANCH 26 28
ATOM     28  CA  ALA B  12      39.285 -12.091 -14.064  1.00 28.19 LIG 0.40  C 
ATOM     29  N   ALA B  12      38.377 -11.644 -15.160  1.00 28.78 LIG 0.61  N 
ATOM     30  CB  ALA B  12      39.169 -11.149 -12.869  1.00 26.50 LIG 0.06  C 
ENDBRANCH 26 28
ENDBRANCH 20 24
ENDBRANCH 1 20
TORSDOF 13
ENDMDL
MODEL 46
USER: ADFR SOLUTION from run 52
USER: SCORE 9.524014 LL:  -1.318 LR:  -8.307 RR:   0.000 FEB:  -4.429
USER: RMSD 5.999094
USER: SEED 51
USER: STATUS no improvement in best in 8 clusters for 5 generations
USER: GENES 15
USER: genes 0 Translation |==|  0.66829 0.61693 0.48715
USER: genes 1 Rotation |==|  0.34315 0.65663 0.94723 0.52924
USER: genes 2 Torsion [C]-N--CA-[CB] |==|  0.86629
USER: genes 3 Torsion [N]-CA--C-[N] |==|  0.35602
USER: genes 4 Torsion [C]-N--CA-[C] |==|  0.73880
USER: genes 5 Torsion [N]-CA--C-[O] |==|  0.04608
USER: genes 6 Torsion [N]-CA--CB-[OG] |==|  0.20396
USER: genes 7 Torsion [CA]-CB--OG-[HG] |==|  0.20481
USER: genes 8 Torsion [N]-CA--CB-[CG2] |==|  0.51238
USER: genes 9 Torsion [CA]-CB--OG1-[HG1] |==|  0.07076
USER: genes 10 Torsion [N]-C--CA-[N] |==|  0.37246
USER: genes 11 Torsion [C]-CA--CB-[OG] |==|  0.37813
USER: genes 12 Torsion [CA]-CB--OG-[HG] |==|  0.97259
USER: genes 13 Torsion [C]-CA--N-[C] |==|  0.83013
USER: genes 14 Torsion [N]-C--CA-[N] |==|  0.33580
ROOT
ATOM      1  C   SER B  13      38.833 -10.639 -11.582  1.00 23.09 LIG 0.24  C 
ATOM      2 O    SER B  13      39.928 -11.202 -11.572  1.00 20.43 LIG-0.27  OA
ATOM      3  N   THR B  14      37.740 -11.192 -12.098  1.00 21.89 LIG-0.34  N 
ATOM      4 H    THR B  14      36.962 -10.825 -12.089  1.00 21.89 LIG 0.16  HD
ENDROOT
BRANCH 3 5
ATOM      5  CA  THR B  14      37.785 -12.504 -12.736  1.00 22.97 LIG 0.20  C 
BRANCH 5 6
ATOM      6  C   THR B  14      38.030 -13.503 -11.614  1.00 23.95 LIG 0.24  C 
ATOM      7  N   SER B  15      37.201 -14.538 -11.531  1.00 23.79 LIG-0.34  N 
ATOM      8 H    SER B  15      36.543 -14.678 -12.067  1.00 23.79 LIG 0.16  HD
ATOM      9 O    THR B  14      38.967 -13.335 -10.830  1.00 24.21 LIG-0.27  OA
BRANCH 7 10
ATOM     10  CA  SER B  15      37.363 -15.541 -10.484  1.00 24.78 LIG 0.19  C 
BRANCH 10 11
ATOM     11  C   SER B  15      38.196 -16.714 -10.979  1.00 26.56 LIG 0.22  C 
ATOM     12 O    SER B  15      38.860 -16.518 -12.018  1.00 28.00 LIG-0.29  OA
ENDBRANCH 10 11
BRANCH 10 13
ATOM     13  CB  SER B  15      35.999 -16.050 -10.010  1.00 23.87 LIG 0.20  C 
BRANCH 13 14
ATOM     14 OG   SER B  15      35.409 -16.901 -10.976  1.00 25.06 LIG-0.40  OA
ATOM     15 HG   SER B  15      35.804 -17.643 -10.976  1.00 25.06 LIG 0.21  HD
ENDBRANCH 13 14
ENDBRANCH 10 13
ENDBRANCH 7 10
ENDBRANCH 5 6
BRANCH 5 16
ATOM     16  CB  THR B  14      38.945 -12.609 -13.741  1.00 24.21 LIG 0.15  C 
ATOM     17  CG2 THR B  14      38.904 -13.942 -14.471  1.00 24.44 LIG 0.04  C 
BRANCH 16 18
ATOM     18 OG1  THR B  14      38.845 -11.541 -14.692  1.00 24.18 LIG-0.39  OA
ATOM     19 HG1  THR B  14      38.429 -10.898 -14.347  1.00 24.18 LIG 0.21  HD
ENDBRANCH 16 18
ENDBRANCH 5 16
ENDBRANCH 3 5
BRANCH 1 20
ATOM     20  CA  SER B  13      38.666  -9.247 -10.983  1.00 24.49 LIG 0.20  C 
BRANCH 20 21
ATOM     21  CB  SER B  13      39.279  -8.225 -11.945  1.00 26.86 LIG 0.20  C 
BRANCH 21 22
ATOM     22 OG   SER B  13      38.429  -7.095 -12.088  1.00 27.16 LIG-0.40  OA
ATOM     23 HG   SER B  13      37.688  -7.254 -11.726  1.00 27.16 LIG 0.21  HD
ENDBRANCH 21 22
ENDBRANCH 20 21
BRANCH 20 24
ATOM     24  N   SER B  13      39.328  -9.180  -9.685  1.00 26.25 LIG-0.34  N 
ATOM     25 H    SER B  13      39.962  -8.600  -9.640  1.00 26.25 LIG 0.16  HD
ATOM     26  C   ALA B  12      38.963  -9.958  -8.670  1.00 27.91 LIG 0.26  C 
ATOM     27 O    ALA B  12      38.054 -10.786  -8.751  1.00 29.06 LIG-0.27  OA
BRANCH 26 28
ATOM     28  CA  ALA B  12      39.734  -9.784  -7.368  1.00 28.19 LIG 0.40  C 
ATOM     29  N   ALA B  12      38.798  -9.403  -6.270  1.00 28.78 LIG 0.61  N 
ATOM     30  CB  ALA B  12      40.463 -11.077  -7.012  1.00 26.50 LIG 0.06  C 
ENDBRANCH 26 28
ENDBRANCH 20 24
ENDBRANCH 1 20
TORSDOF 13
ENDMDL
MODEL 47
USER: ADFR SOLUTION from run 153
USER: SCORE 8.804326 LL:  -1.855 LR:  -8.289 RR:   0.000 FEB:  -4.411
USER: RMSD 7.014747
USER: SEED 152
USER: STATUS no improvement in best in 10 clusters for 5 generations
USER: GENES 15
USER: genes 0 Translation |==|  0.73120 0.53663 0.38794
USER: genes 1 Rotation |==|  0.23823 0.36356 0.82313 0.74175
USER: genes 2 Torsion [C]-N--CA-[CB] |==|  0.35740
USER: genes 3 Torsion [N]-CA--C-[N] |==|  0.88127
USER: genes 4 Torsion [C]-N--CA-[C] |==|  0.64219
USER: genes 5 Torsion [N]-CA--C-[O] |==|  0.72881
USER: genes 6 Torsion [N]-CA--CB-[OG] |==|  0.02217
USER: genes 7 Torsion [CA]-CB--OG-[HG] |==|  0.29115
USER: genes 8 Torsion [N]-CA--CB-[CG2] |==|  0.60882
USER: genes 9 Torsion [CA]-CB--OG1-[HG1] |==|  0.14583
USER: genes 10 Torsion [N]-C--CA-[N] |==|  0.91259
USER: genes 11 Torsion [C]-CA--CB-[OG] |==|  0.62291
USER: genes 12 Torsion [CA]-CB--OG-[HG] |==|  0.19855
USER: genes 13 Torsion [C]-CA--N-[C] |==|  0.79444
USER: genes 14 Torsion [N]-C--CA-[N] |==|  0.84377
ROOT
ATOM      1  C   SER B  13      39.966 -11.844 -13.368  1.00 23.09 LIG 0.24  C 
ATOM      2 O    SER B  13      40.761 -12.782 -13.407  1.00 20.43 LIG-0.27  OA
ATOM      3  N   THR B  14      39.881 -10.926 -14.327  1.00 21.89 LIG-0.34  N 
ATOM      4 H    THR B  14      39.313 -10.280 -14.328  1.00 21.89 LIG 0.16  HD
ENDROOT
BRANCH 3 5
ATOM      5  CA  THR B  14      40.775 -10.952 -15.479  1.00 22.97 LIG 0.20  C 
BRANCH 5 6
ATOM      6  C   THR B  14      41.645  -9.708 -15.358  1.00 23.95 LIG 0.24  C 
ATOM      7  N   SER B  15      41.042  -8.578 -15.003  1.00 23.79 LIG-0.34  N 
ATOM      8 H    SER B  15      40.202  -8.507 -14.838  1.00 23.79 LIG 0.16  HD
ATOM      9 O    THR B  14      42.856  -9.776 -15.585  1.00 24.21 LIG-0.27  OA
BRANCH 7 10
ATOM     10  CA  SER B  15      41.801  -7.340 -14.867  1.00 24.78 LIG 0.19  C 
BRANCH 10 11
ATOM     11  C   SER B  15      41.528  -6.680 -13.523  1.00 26.56 LIG 0.22  C 
ATOM     12 O    SER B  15      40.679  -5.764 -13.522  1.00 28.00 LIG-0.29  OA
ENDBRANCH 10 11
BRANCH 10 13
ATOM     13  CB  SER B  15      41.448  -6.365 -15.993  1.00 23.87 LIG 0.20  C 
BRANCH 13 14
ATOM     14 OG   SER B  15      40.355  -6.843 -16.757  1.00 25.06 LIG-0.40  OA
ATOM     15 HG   SER B  15      39.662  -6.410 -16.559  1.00 25.06 LIG 0.21  HD
ENDBRANCH 13 14
ENDBRANCH 10 13
ENDBRANCH 7 10
ENDBRANCH 5 6
BRANCH 5 16
ATOM     16  CB  THR B  14      39.999 -10.874 -16.804  1.00 24.21 LIG 0.15  C 
ATOM     17  CG2 THR B  14      40.623 -11.787 -17.848  1.00 24.44 LIG 0.04  C 
BRANCH 16 18
ATOM     18 OG1  THR B  14      38.639 -11.266 -16.580  1.00 24.18 LIG-0.39  OA
ATOM     19 HG1  THR B  14      38.320 -10.817 -15.945  1.00 24.18 LIG 0.21  HD
ENDBRANCH 16 18
ENDBRANCH 5 16
ENDBRANCH 3 5
BRANCH 1 20
ATOM     20  CA  SER B  13      39.007 -11.682 -12.194  1.00 24.49 LIG 0.20  C 
BRANCH 20 21
ATOM     21  CB  SER B  13      37.709 -12.429 -12.517  1.00 26.86 LIG 0.20  C 
BRANCH 21 22
ATOM     22 OG   SER B  13      36.576 -11.643 -12.170  1.00 27.16 LIG-0.40  OA
ATOM     23 HG   SER B  13      36.503 -11.003 -12.709  1.00 27.16 LIG 0.21  HD
ENDBRANCH 21 22
ENDBRANCH 20 21
BRANCH 20 24
ATOM     24  N   SER B  13      38.732 -10.268 -11.964  1.00 26.25 LIG-0.34  N 
ATOM     25 H    SER B  13      37.950 -10.013 -12.216  1.00 26.25 LIG 0.16  HD
ATOM     26  C   ALA B  12      39.631  -9.461 -11.409  1.00 27.91 LIG 0.26  C 
ATOM     27 O    ALA B  12      40.749  -9.840 -11.056  1.00 29.06 LIG-0.27  OA
BRANCH 26 28
ATOM     28  CA  ALA B  12      39.216  -8.007 -11.222  1.00 28.19 LIG 0.40  C 
ATOM     29  N   ALA B  12      38.804  -7.424 -12.532  1.00 28.78 LIG 0.61  N 
ATOM     30  CB  ALA B  12      38.067  -7.913 -10.222  1.00 26.50 LIG 0.06  C 
ENDBRANCH 26 28
ENDBRANCH 20 24
ENDBRANCH 1 20
TORSDOF 13
ENDMDL
MODEL 48
USER: ADFR SOLUTION from run 161
USER: SCORE 8.626655 LL:  -1.695 LR:  -8.284 RR:   0.000 FEB:  -4.406
USER: RMSD 9.515245
USER: SEED 160
USER: STATUS no improvement in best in 7 clusters for 5 generations
USER: GENES 15
USER: genes 0 Translation |==|  0.26316 0.42814 0.68551
USER: genes 1 Rotation |==|  0.74320 0.32115 0.86788 0.65340
USER: genes 2 Torsion [C]-N--CA-[CB] |==|  0.40397
USER: genes 3 Torsion [N]-CA--C-[N] |==|  0.89326
USER: genes 4 Torsion [C]-N--CA-[C] |==|  0.53561
USER: genes 5 Torsion [N]-CA--C-[O] |==|  0.02731
USER: genes 6 Torsion [N]-CA--CB-[OG] |==|  0.78581
USER: genes 7 Torsion [CA]-CB--OG-[HG] |==|  0.95412
USER: genes 8 Torsion [N]-CA--CB-[CG2] |==|  0.32671
USER: genes 9 Torsion [CA]-CB--OG1-[HG1] |==|  0.80582
USER: genes 10 Torsion [N]-C--CA-[N] |==|  0.31125
USER: genes 11 Torsion [C]-CA--CB-[OG] |==|  0.82758
USER: genes 12 Torsion [CA]-CB--OG-[HG] |==|  0.06750
USER: genes 13 Torsion [C]-CA--N-[C] |==|  0.75263
USER: genes 14 Torsion [N]-C--CA-[N] |==|  0.21351
ROOT
ATOM      1  C   SER B  13      31.541 -13.471  -8.012  1.00 23.09 LIG 0.24  C 
ATOM      2 O    SER B  13      31.273 -12.880  -9.057  1.00 20.43 LIG-0.27  OA
ATOM      3  N   THR B  14      30.690 -13.564  -6.994  1.00 21.89 LIG-0.34  N 
ATOM      4 H    THR B  14      30.851 -13.996  -6.268  1.00 21.89 LIG 0.16  HD
ENDROOT
BRANCH 3 5
ATOM      5  CA  THR B  14      29.383 -12.918  -7.041  1.00 22.97 LIG 0.20  C 
BRANCH 5 6
ATOM      6  C   THR B  14      29.547 -11.594  -6.307  1.00 23.95 LIG 0.24  C 
ATOM      7  N   SER B  15      30.320 -11.591  -5.226  1.00 23.79 LIG-0.34  N 
ATOM      8 H    SER B  15      30.729 -12.282  -4.920  1.00 23.79 LIG 0.16  HD
ATOM      9 O    THR B  14      28.977 -10.582  -6.722  1.00 24.21 LIG-0.27  OA
BRANCH 7 10
ATOM     10  CA  SER B  15      30.529 -10.366  -4.462  1.00 24.78 LIG 0.19  C 
BRANCH 10 11
ATOM     11  C   SER B  15      31.677 -10.528  -3.476  1.00 26.56 LIG 0.22  C 
ATOM     12 O    SER B  15      32.364 -11.564  -3.598  1.00 28.00 LIG-0.29  OA
ENDBRANCH 10 11
BRANCH 10 13
ATOM     13  CB  SER B  15      29.257  -9.981  -3.703  1.00 23.87 LIG 0.20  C 
BRANCH 13 14
ATOM     14 OG   SER B  15      28.303  -9.393  -4.570  1.00 25.06 LIG-0.40  OA
ATOM     15 HG   SER B  15      28.680  -9.156  -5.283  1.00 25.06 LIG 0.21  HD
ENDBRANCH 13 14
ENDBRANCH 10 13
ENDBRANCH 7 10
ENDBRANCH 5 6
BRANCH 5 16
ATOM     16  CB  THR B  14      28.311 -13.747  -6.312  1.00 24.21 LIG 0.15  C 
ATOM     17  CG2 THR B  14      27.746 -12.973  -5.131  1.00 24.44 LIG 0.04  C 
BRANCH 16 18
ATOM     18 OG1  THR B  14      27.255 -14.063  -7.226  1.00 24.18 LIG-0.39  OA
ATOM     19 HG1  THR B  14      26.826 -13.365  -7.410  1.00 24.18 LIG 0.21  HD
ENDBRANCH 16 18
ENDBRANCH 5 16
ENDBRANCH 3 5
BRANCH 1 20
ATOM     20  CA  SER B  13      32.892 -14.151  -7.825  1.00 24.49 LIG 0.20  C 
BRANCH 20 21
ATOM     21  CB  SER B  13      33.997 -13.131  -8.119  1.00 26.86 LIG 0.20  C 
BRANCH 21 22
ATOM     22 OG   SER B  13      33.924 -12.684  -9.467  1.00 27.16 LIG-0.40  OA
ATOM     23 HG   SER B  13      33.140 -12.782  -9.752  1.00 27.16 LIG 0.21  HD
ENDBRANCH 21 22
ENDBRANCH 20 21
BRANCH 20 24
ATOM     24  N   SER B  13      33.006 -15.293  -8.726  1.00 26.25 LIG-0.34  N 
ATOM     25 H    SER B  13      33.355 -15.108  -9.490  1.00 26.25 LIG 0.16  HD
ATOM     26  C   ALA B  12      32.597 -16.508  -8.373  1.00 27.91 LIG 0.26  C 
ATOM     27 O    ALA B  12      32.095 -16.756  -7.276  1.00 29.06 LIG-0.27  OA
BRANCH 26 28
ATOM     28  CA  ALA B  12      32.776 -17.612  -9.406  1.00 28.19 LIG 0.40  C 
ATOM     29  N   ALA B  12      34.205 -18.041  -9.449  1.00 28.78 LIG 0.61  N 
ATOM     30  CB  ALA B  12      31.881 -18.801  -9.067  1.00 26.50 LIG 0.06  C 
ENDBRANCH 26 28
ENDBRANCH 20 24
ENDBRANCH 1 20
TORSDOF 13
ENDMDL
MODEL 49
USER: ADFR SOLUTION from run 90
USER: SCORE 8.878746 LL:  -1.420 LR:  -8.267 RR:   0.000 FEB:  -4.389
USER: RMSD 7.116937
USER: SEED 89
USER: STATUS no improvement in best in 6 clusters for 5 generations
USER: GENES 15
USER: genes 0 Translation |==|  0.70532 0.53663 0.46248
USER: genes 1 Rotation |==|  0.44139 0.92155 0.75009 0.57948
USER: genes 2 Torsion [C]-N--CA-[CB] |==|  0.47828
USER: genes 3 Torsion [N]-CA--C-[N] |==|  0.47389
USER: genes 4 Torsion [C]-N--CA-[C] |==|  0.55030
USER: genes 5 Torsion [N]-CA--C-[O] |==|  0.18851
USER: genes 6 Torsion [N]-CA--CB-[OG] |==|  0.53007
USER: genes 7 Torsion [CA]-CB--OG-[HG] |==|  0.90610
USER: genes 8 Torsion [N]-CA--CB-[CG2] |==|  0.55681
USER: genes 9 Torsion [CA]-CB--OG1-[HG1] |==|  0.21301
USER: genes 10 Torsion [N]-C--CA-[N] |==|  0.88660
USER: genes 11 Torsion [C]-CA--CB-[OG] |==|  0.59160
USER: genes 12 Torsion [CA]-CB--OG-[HG] |==|  0.11934
USER: genes 13 Torsion [C]-CA--N-[C] |==|  0.82528
USER: genes 14 Torsion [N]-C--CA-[N] |==|  0.84668
ROOT
ATOM      1  C   SER B  13      39.500 -11.844 -12.026  1.00 23.09 LIG 0.24  C 
ATOM      2 O    SER B  13      40.081 -12.549 -11.202  1.00 20.43 LIG-0.27  OA
ATOM      3  N   THR B  14      38.177 -11.717 -12.066  1.00 21.89 LIG-0.34  N 
ATOM      4 H    THR B  14      37.757 -11.207 -12.617  1.00 21.89 LIG 0.16  HD
ENDROOT
BRANCH 3 5
ATOM      5  CA  THR B  14      37.319 -12.457 -11.147  1.00 22.97 LIG 0.20  C 
BRANCH 5 6
ATOM      6  C   THR B  14      37.405 -13.914 -11.582  1.00 23.95 LIG 0.24  C 
ATOM      7  N   SER B  15      36.858 -14.820 -10.779  1.00 23.79 LIG-0.34  N 
ATOM      8 H    SER B  15      36.461 -14.637 -10.039  1.00 23.79 LIG 0.16  HD
ATOM      9 O    THR B  14      37.965 -14.211 -12.640  1.00 24.21 LIG-0.27  OA
BRANCH 7 10
ATOM     10  CA  SER B  15      36.899 -16.239 -11.118  1.00 24.78 LIG 0.19  C 
BRANCH 10 11
ATOM     11  C   SER B  15      35.861 -17.018 -10.324  1.00 26.56 LIG 0.22  C 
ATOM     12 O    SER B  15      34.666 -16.783 -10.601  1.00 28.00 LIG-0.29  OA
ENDBRANCH 10 11
BRANCH 10 13
ATOM     13  CB  SER B  15      38.289 -16.818 -10.844  1.00 23.87 LIG 0.20  C 
BRANCH 13 14
ATOM     14 OG   SER B  15      38.418 -18.117 -11.394  1.00 25.06 LIG-0.40  OA
ATOM     15 HG   SER B  15      37.679 -18.515 -11.351  1.00 25.06 LIG 0.21  HD
ENDBRANCH 13 14
ENDBRANCH 10 13
ENDBRANCH 7 10
ENDBRANCH 5 6
BRANCH 5 16
ATOM     16  CB  THR B  14      35.852 -12.007 -11.250  1.00 24.21 LIG 0.15  C 
ATOM     17  CG2 THR B  14      35.083 -12.391  -9.996  1.00 24.44 LIG 0.04  C 
BRANCH 16 18
ATOM     18 OG1  THR B  14      35.804 -10.585 -11.422  1.00 24.18 LIG-0.39  OA
ATOM     19 HG1  THR B  14      36.002 -10.393 -12.215  1.00 24.18 LIG 0.21  HD
ENDBRANCH 16 18
ENDBRANCH 5 16
ENDBRANCH 3 5
BRANCH 1 20
ATOM     20  CA  SER B  13      40.284 -11.053 -13.067  1.00 24.49 LIG 0.20  C 
BRANCH 20 21
ATOM     21  CB  SER B  13      40.398  -9.601 -12.593  1.00 26.86 LIG 0.20  C 
BRANCH 21 22
ATOM     22 OG   SER B  13      40.396  -8.708 -13.700  1.00 27.16 LIG-0.40  OA
ATOM     23 HG   SER B  13      39.812  -8.949 -14.253  1.00 27.16 LIG 0.21  HD
ENDBRANCH 21 22
ENDBRANCH 20 21
BRANCH 20 24
ATOM     24  N   SER B  13      39.604 -11.111 -14.356  1.00 26.25 LIG-0.34  N 
ATOM     25 H    SER B  13      39.334 -10.349 -14.650  1.00 26.25 LIG 0.16  HD
ATOM     26  C   ALA B  12      39.429 -12.259 -15.005  1.00 27.91 LIG 0.26  C 
ATOM     27 O    ALA B  12      39.818 -13.344 -14.569  1.00 29.06 LIG-0.27  OA
BRANCH 26 28
ATOM     28  CA  ALA B  12      38.706 -12.180 -16.343  1.00 28.19 LIG 0.40  C 
ATOM     29  N   ALA B  12      37.384 -11.508 -16.168  1.00 28.78 LIG 0.61  N 
ATOM     30  CB  ALA B  12      39.554 -11.413 -17.354  1.00 26.50 LIG 0.06  C 
ENDBRANCH 26 28
ENDBRANCH 20 24
ENDBRANCH 1 20
TORSDOF 13
ENDMDL
MODEL 50
USER: ADFR SOLUTION from run 42
USER: SCORE 7.605811 LL:  -1.222 LR:  -8.267 RR:   0.000 FEB:  -4.389
USER: RMSD 6.859863
USER: SEED 41
USER: STATUS no improvement in best in 23 clusters for 5 generations
USER: GENES 15
USER: genes 0 Translation |==|  0.67608 0.66796 0.54678
USER: genes 1 Rotation |==|  0.34655 0.74554 0.90669 0.52767
USER: genes 2 Torsion [C]-N--CA-[CB] |==|  0.50140
USER: genes 3 Torsion [N]-CA--C-[N] |==|  0.79634
USER: genes 4 Torsion [C]-N--CA-[C] |==|  0.48070
USER: genes 5 Torsion [N]-CA--C-[O] |==|  0.75947
USER: genes 6 Torsion [N]-CA--CB-[OG] |==|  0.11440
USER: genes 7 Torsion [CA]-CB--OG-[HG] |==|  0.90209
USER: genes 8 Torsion [N]-CA--CB-[CG2] |==|  0.74305
USER: genes 9 Torsion [CA]-CB--OG1-[HG1] |==|  0.07541
USER: genes 10 Torsion [N]-C--CA-[N] |==|  0.77353
USER: genes 11 Torsion [C]-CA--CB-[OG] |==|  0.21529
USER: genes 12 Torsion [CA]-CB--OG-[HG] |==|  0.44274
USER: genes 13 Torsion [C]-CA--N-[C] |==|  0.73675
USER: genes 14 Torsion [N]-C--CA-[N] |==|  0.35428
ROOT
ATOM      1  C   SER B  13      38.973  -9.874 -10.509  1.00 23.09 LIG 0.24  C 
ATOM      2 O    SER B  13      39.992 -10.515 -10.255  1.00 20.43 LIG-0.27  OA
ATOM      3  N   THR B  14      37.818 -10.448 -10.830  1.00 21.89 LIG-0.34  N 
ATOM      4 H    THR B  14      37.090 -10.015 -10.984  1.00 21.89 LIG 0.16  HD
ENDROOT
BRANCH 3 5
ATOM      5  CA  THR B  14      37.701 -11.897 -10.948  1.00 22.97 LIG 0.20  C 
BRANCH 5 6
ATOM      6  C   THR B  14      38.649 -12.300 -12.070  1.00 23.95 LIG 0.24  C 
ATOM      7  N   SER B  15      38.279 -12.007 -13.312  1.00 23.79 LIG-0.34  N 
ATOM      8 H    SER B  15      37.547 -11.607 -13.519  1.00 23.79 LIG 0.16  HD
ATOM      9 O    THR B  14      39.710 -12.872 -11.808  1.00 24.21 LIG-0.27  OA
BRANCH 7 10
ATOM     10  CA  SER B  15      39.127 -12.360 -14.446  1.00 24.78 LIG 0.19  C 
BRANCH 10 11
ATOM     11  C   SER B  15      38.419 -12.079 -15.763  1.00 26.56 LIG 0.22  C 
ATOM     12 O    SER B  15      37.686 -12.991 -16.200  1.00 28.00 LIG-0.29  OA
ENDBRANCH 10 11
BRANCH 10 13
ATOM     13  CB  SER B  15      39.518 -13.839 -14.385  1.00 23.87 LIG 0.20  C 
BRANCH 13 14
ATOM     14 OG   SER B  15      38.420 -14.641 -13.989  1.00 25.06 LIG-0.40  OA
ATOM     15 HG   SER B  15      37.953 -14.222 -13.430  1.00 25.06 LIG 0.21  HD
ENDBRANCH 13 14
ENDBRANCH 10 13
ENDBRANCH 7 10
ENDBRANCH 5 6
BRANCH 5 16
ATOM     16  CB  THR B  14      36.277 -12.324 -11.341  1.00 24.21 LIG 0.15  C 
ATOM     17  CG2 THR B  14      35.443 -12.616 -10.103  1.00 24.44 LIG 0.04  C 
BRANCH 16 18
ATOM     18 OG1  THR B  14      35.659 -11.274 -12.095  1.00 24.18 LIG-0.39  OA
ATOM     19 HG1  THR B  14      36.251 -10.826 -12.487  1.00 24.18 LIG 0.21  HD
ENDBRANCH 16 18
ENDBRANCH 5 16
ENDBRANCH 3 5
BRANCH 1 20
ATOM     20  CA  SER B  13      38.979  -8.350 -10.461  1.00 24.49 LIG 0.20  C 
BRANCH 20 21
ATOM     21  CB  SER B  13      37.660  -7.876  -9.845  1.00 26.86 LIG 0.20  C 
BRANCH 21 22
ATOM     22 OG   SER B  13      37.679  -8.032  -8.432  1.00 27.16 LIG-0.40  OA
ATOM     23 HG   SER B  13      37.101  -7.530  -8.086  1.00 27.16 LIG 0.21  HD
ENDBRANCH 21 22
ENDBRANCH 20 21
BRANCH 20 24
ATOM     24  N   SER B  13      39.130  -7.808 -11.808  1.00 26.25 LIG-0.34  N 
ATOM     25 H    SER B  13      38.393  -7.732 -12.244  1.00 26.25 LIG 0.16  HD
ATOM     26  C   ALA B  12      40.320  -7.469 -12.297  1.00 27.91 LIG 0.26  C 
ATOM     27 O    ALA B  12      41.368  -7.588 -11.661  1.00 29.06 LIG-0.27  OA
BRANCH 26 28
ATOM     28  CA  ALA B  12      40.337  -6.913 -13.715  1.00 28.19 LIG 0.40  C 
ATOM     29  N   ALA B  12      41.064  -5.610 -13.741  1.00 28.78 LIG 0.61  N 
ATOM     30  CB  ALA B  12      41.007  -7.906 -14.661  1.00 26.50 LIG 0.06  C 
ENDBRANCH 26 28
ENDBRANCH 20 24
ENDBRANCH 1 20
TORSDOF 13
ENDMDL
MODEL 51
USER: ADFR SOLUTION from run 100
USER: SCORE 8.521656 LL:  -1.634 LR:  -8.254 RR:   0.000 FEB:  -4.376
USER: RMSD 6.136997
USER: SEED 99
USER: STATUS no improvement in best in 7 clusters for 5 generations
USER: GENES 15
USER: genes 0 Translation |==|  0.71179 0.61384 0.45859
USER: genes 1 Rotation |==|  0.22707 0.59469 0.90324 0.56274
USER: genes 2 Torsion [C]-N--CA-[CB] |==|  0.42460
USER: genes 3 Torsion [N]-CA--C-[N] |==|  0.92916
USER: genes 4 Torsion [C]-N--CA-[C] |==|  0.67662
USER: genes 5 Torsion [N]-CA--C-[O] |==|  0.00545
USER: genes 6 Torsion [N]-CA--CB-[OG] |==|  0.23311
USER: genes 7 Torsion [CA]-CB--OG-[HG] |==|  0.85977
USER: genes 8 Torsion [N]-CA--CB-[CG2] |==|  0.23812
USER: genes 9 Torsion [CA]-CB--OG1-[HG1] |==|  0.90947
USER: genes 10 Torsion [N]-C--CA-[N] |==|  0.46750
USER: genes 11 Torsion [C]-CA--CB-[OG] |==|  0.46664
USER: genes 12 Torsion [CA]-CB--OG-[HG] |==|  0.90060
USER: genes 13 Torsion [C]-CA--N-[C] |==|  0.75101
USER: genes 14 Torsion [N]-C--CA-[N] |==|  0.41678
ROOT
ATOM      1  C   SER B  13      39.616 -10.685 -12.096  1.00 23.09 LIG 0.24  C 
ATOM      2 O    SER B  13      40.626 -11.193 -11.609  1.00 20.43 LIG-0.27  OA
ATOM      3  N   THR B  14      39.012 -11.170 -13.177  1.00 21.89 LIG-0.34  N 
ATOM      4 H    THR B  14      38.290 -10.844 -13.514  1.00 21.89 LIG 0.16  HD
ENDROOT
BRANCH 3 5
ATOM      5  CA  THR B  14      39.547 -12.325 -13.889  1.00 22.97 LIG 0.20  C 
BRANCH 5 6
ATOM      6  C   THR B  14      40.510 -11.764 -14.927  1.00 23.95 LIG 0.24  C 
ATOM      7  N   SER B  15      40.296 -10.520 -15.342  1.00 23.79 LIG-0.34  N 
ATOM      8 H    SER B  15      39.656 -10.017 -15.063  1.00 23.79 LIG 0.16  HD
ATOM      9 O    THR B  14      41.440 -12.456 -15.346  1.00 24.21 LIG-0.27  OA
BRANCH 7 10
ATOM     10  CA  SER B  15      41.169  -9.906 -16.337  1.00 24.78 LIG 0.19  C 
BRANCH 10 11
ATOM     11  C   SER B  15      41.902  -8.707 -15.752  1.00 26.56 LIG 0.22  C 
ATOM     12 O    SER B  15      41.684  -8.464 -14.546  1.00 28.00 LIG-0.29  OA
ENDBRANCH 10 11
BRANCH 10 13
ATOM     13  CB  SER B  15      40.362  -9.461 -17.559  1.00 23.87 LIG 0.20  C 
BRANCH 13 14
ATOM     14 OG   SER B  15      39.782  -8.185 -17.351  1.00 25.06 LIG-0.40  OA
ATOM     15 HG   SER B  15      39.374  -8.178 -16.617  1.00 25.06 LIG 0.21  HD
ENDBRANCH 13 14
ENDBRANCH 10 13
ENDBRANCH 7 10
ENDBRANCH 5 6
BRANCH 5 16
ATOM     16  CB  THR B  14      38.443 -13.105 -14.622  1.00 24.21 LIG 0.15  C 
ATOM     17  CG2 THR B  14      38.185 -12.506 -15.996  1.00 24.44 LIG 0.04  C 
BRANCH 16 18
ATOM     18 OG1  THR B  14      38.846 -14.473 -14.766  1.00 24.18 LIG-0.39  OA
ATOM     19 HG1  THR B  14      39.680 -14.511 -14.854  1.00 24.18 LIG 0.21  HD
ENDBRANCH 16 18
ENDBRANCH 5 16
ENDBRANCH 3 5
BRANCH 1 20
ATOM     20  CA  SER B  13      38.985  -9.449 -11.468  1.00 24.49 LIG 0.20  C 
BRANCH 20 21
ATOM     21  CB  SER B  13      39.224  -8.253 -12.395  1.00 26.86 LIG 0.20  C 
BRANCH 21 22
ATOM     22 OG   SER B  13      38.429  -7.143 -12.002  1.00 27.16 LIG-0.40  OA
ATOM     23 HG   SER B  13      37.687  -7.416 -11.717  1.00 27.16 LIG 0.21  HD
ENDBRANCH 21 22
ENDBRANCH 20 21
BRANCH 20 24
ATOM     24  N   SER B  13      39.575  -9.197 -10.157  1.00 26.25 LIG-0.34  N 
ATOM     25 H    SER B  13      40.264  -8.682 -10.172  1.00 26.25 LIG 0.16  HD
ATOM     26  C   ALA B  12      39.071  -9.730  -9.048  1.00 27.91 LIG 0.26  C 
ATOM     27 O    ALA B  12      38.085 -10.469  -9.044  1.00 29.06 LIG-0.27  OA
BRANCH 26 28
ATOM     28  CA  ALA B  12      39.781  -9.384  -7.746  1.00 28.19 LIG 0.40  C 
ATOM     29  N   ALA B  12      38.804  -9.393  -6.617  1.00 28.78 LIG 0.61  N 
ATOM     30  CB  ALA B  12      40.902 -10.384  -7.477  1.00 26.50 LIG 0.06  C 
ENDBRANCH 26 28
ENDBRANCH 20 24
ENDBRANCH 1 20
TORSDOF 13
ENDMDL
MODEL 52
USER: ADFR SOLUTION from run 138
USER: SCORE 8.996573 LL:  -1.075 LR:  -8.247 RR:   0.000 FEB:  -4.369
USER: RMSD 7.347400
USER: SEED 137
USER: STATUS no improvement in best in 16 clusters for 5 generations
USER: GENES 15
USER: genes 0 Translation |==|  0.61925 0.49754 0.43582
USER: genes 1 Rotation |==|  0.70648 0.91212 0.68032 0.57074
USER: genes 2 Torsion [C]-N--CA-[CB] |==|  0.87645
USER: genes 3 Torsion [N]-CA--C-[N] |==|  0.35000
USER: genes 4 Torsion [C]-N--CA-[C] |==|  0.64568
USER: genes 5 Torsion [N]-CA--C-[O] |==|  0.15066
USER: genes 6 Torsion [N]-CA--CB-[OG] |==|  0.44611
USER: genes 7 Torsion [CA]-CB--OG-[HG] |==|  0.79173
USER: genes 8 Torsion [N]-CA--CB-[CG2] |==|  0.40690
USER: genes 9 Torsion [CA]-CB--OG1-[HG1] |==|  0.48805
USER: genes 10 Torsion [N]-C--CA-[N] |==|  0.12029
USER: genes 11 Torsion [C]-CA--CB-[OG] |==|  0.16453
USER: genes 12 Torsion [CA]-CB--OG-[HG] |==|  0.98247
USER: genes 13 Torsion [C]-CA--N-[C] |==|  0.16212
USER: genes 14 Torsion [N]-C--CA-[N] |==|  0.90851
ROOT
ATOM      1  C   SER B  13      37.951 -12.430 -12.506  1.00 23.09 LIG 0.24  C 
ATOM      2 O    SER B  13      38.053 -13.459 -11.839  1.00 20.43 LIG-0.27  OA
ATOM      3  N   THR B  14      37.441 -11.301 -12.022  1.00 21.89 LIG-0.34  N 
ATOM      4 H    THR B  14      37.387 -10.566 -12.466  1.00 21.89 LIG 0.16  HD
ENDROOT
BRANCH 3 5
ATOM      5  CA  THR B  14      36.922 -11.229 -10.661  1.00 22.97 LIG 0.20  C 
BRANCH 5 6
ATOM      6  C   THR B  14      38.143 -11.240  -9.750  1.00 23.95 LIG 0.24  C 
ATOM      7  N   SER B  15      38.251 -10.252  -8.868  1.00 23.79 LIG-0.34  N 
ATOM      8 H    SER B  15      37.680  -9.615  -8.779  1.00 23.79 LIG 0.16  HD
ATOM      9 O    THR B  14      38.979 -12.141  -9.849  1.00 24.21 LIG-0.27  OA
BRANCH 7 10
ATOM     10  CA  SER B  15      39.391 -10.186  -7.959  1.00 24.78 LIG 0.19  C 
BRANCH 10 11
ATOM     11  C   SER B  15      38.929 -10.049  -6.516  1.00 26.56 LIG 0.22  C 
ATOM     12 O    SER B  15      38.125 -10.915  -6.111  1.00 28.00 LIG-0.29  OA
ENDBRANCH 10 11
BRANCH 10 13
ATOM     13  CB  SER B  15      40.296  -9.005  -8.317  1.00 23.87 LIG 0.20  C 
BRANCH 13 14
ATOM     14 OG   SER B  15      41.131  -8.654  -7.227  1.00 25.06 LIG-0.40  OA
ATOM     15 HG   SER B  15      40.679  -8.248  -6.647  1.00 25.06 LIG 0.21  HD
ENDBRANCH 13 14
ENDBRANCH 10 13
ENDBRANCH 7 10
ENDBRANCH 5 6
BRANCH 5 16
ATOM     16  CB  THR B  14      36.050 -12.448 -10.318  1.00 24.21 LIG 0.15  C 
ATOM     17  CG2 THR B  14      36.194 -12.816  -8.849  1.00 24.44 LIG 0.04  C 
BRANCH 16 18
ATOM     18 OG1  THR B  14      34.679 -12.143 -10.601  1.00 24.18 LIG-0.39  OA
ATOM     19 HG1  THR B  14      34.208 -12.826 -10.471  1.00 24.18 LIG 0.21  HD
ENDBRANCH 16 18
ENDBRANCH 5 16
ENDBRANCH 3 5
BRANCH 1 20
ATOM     20  CA  SER B  13      38.419 -12.391 -13.956  1.00 24.49 LIG 0.20  C 
BRANCH 20 21
ATOM     21  CB  SER B  13      39.316 -13.605 -14.212  1.00 26.86 LIG 0.20  C 
BRANCH 21 22
ATOM     22 OG   SER B  13      38.612 -14.815 -13.964  1.00 27.16 LIG-0.40  OA
ATOM     23 HG   SER B  13      37.858 -14.638 -13.639  1.00 27.16 LIG 0.21  HD
ENDBRANCH 21 22
ENDBRANCH 20 21
BRANCH 20 24
ATOM     24  N   SER B  13      39.154 -11.157 -14.211  1.00 26.25 LIG-0.34  N 
ATOM     25 H    SER B  13      38.823 -10.670 -14.838  1.00 26.25 LIG 0.16  HD
ATOM     26  C   ALA B  12      40.242 -10.833 -13.518  1.00 27.91 LIG 0.26  C 
ATOM     27 O    ALA B  12      40.706 -11.543 -12.625  1.00 29.06 LIG-0.27  OA
BRANCH 26 28
ATOM     28  CA  ALA B  12      40.912  -9.515 -13.883  1.00 28.19 LIG 0.40  C 
ATOM     29  N   ALA B  12      40.752  -9.250 -15.342  1.00 28.78 LIG 0.61  N 
ATOM     30  CB  ALA B  12      40.304  -8.374 -13.072  1.00 26.50 LIG 0.06  C 
ENDBRANCH 26 28
ENDBRANCH 20 24
ENDBRANCH 1 20
TORSDOF 13
ENDMDL
MODEL 53
USER: ADFR SOLUTION from run 112
USER: SCORE 8.651751 LL:  -1.649 LR:  -8.237 RR:   0.000 FEB:  -4.359
USER: RMSD 7.416177
USER: SEED 111
USER: STATUS no improvement in best in 8 clusters for 5 generations
USER: GENES 15
USER: genes 0 Translation |==|  0.63923 0.48713 0.40440
USER: genes 1 Rotation |==|  0.75134 0.89751 0.66580 0.53643
USER: genes 2 Torsion [C]-N--CA-[CB] |==|  0.47778
USER: genes 3 Torsion [N]-CA--C-[N] |==|  0.27767
USER: genes 4 Torsion [C]-N--CA-[C] |==|  0.79136
USER: genes 5 Torsion [N]-CA--C-[O] |==|  0.93918
USER: genes 6 Torsion [N]-CA--CB-[OG] |==|  0.58752
USER: genes 7 Torsion [CA]-CB--OG-[HG] |==|  0.92888
USER: genes 8 Torsion [N]-CA--CB-[CG2] |==|  0.60778
USER: genes 9 Torsion [CA]-CB--OG1-[HG1] |==|  0.31299
USER: genes 10 Torsion [N]-C--CA-[N] |==|  0.10388
USER: genes 11 Torsion [C]-CA--CB-[OG] |==|  0.54456
USER: genes 12 Torsion [CA]-CB--OG-[HG] |==|  0.01490
USER: genes 13 Torsion [C]-CA--N-[C] |==|  0.16197
USER: genes 14 Torsion [N]-C--CA-[N] |==|  0.24068
ROOT
ATOM      1  C   SER B  13      38.310 -12.586 -13.072  1.00 23.09 LIG 0.24  C 
ATOM      2 O    SER B  13      38.397 -13.663 -12.481  1.00 20.43 LIG-0.27  OA
ATOM      3  N   THR B  14      38.059 -11.438 -12.450  1.00 21.89 LIG-0.34  N 
ATOM      4 H    THR B  14      38.022 -10.674 -12.843  1.00 21.89 LIG 0.16  HD
ENDROOT
BRANCH 3 5
ATOM      5  CA  THR B  14      37.820 -11.394 -11.011  1.00 22.97 LIG 0.20  C 
BRANCH 5 6
ATOM      6  C   THR B  14      36.463 -12.050 -10.795  1.00 23.95 LIG 0.24  C 
ATOM      7  N   SER B  15      36.458 -13.315 -10.390  1.00 23.79 LIG-0.34  N 
ATOM      8 H    SER B  15      37.165 -13.780 -10.242  1.00 23.79 LIG 0.16  HD
ATOM      9 O    THR B  14      35.428 -11.409 -10.995  1.00 24.21 LIG-0.27  OA
BRANCH 7 10
ATOM     10  CA  SER B  15      35.201 -14.020 -10.162  1.00 24.78 LIG 0.19  C 
BRANCH 10 11
ATOM     11  C   SER B  15      34.549 -13.563  -8.865  1.00 26.56 LIG 0.22  C 
ATOM     12 O    SER B  15      35.309 -13.040  -8.022  1.00 28.00 LIG-0.29  OA
ENDBRANCH 10 11
BRANCH 10 13
ATOM     13  CB  SER B  15      35.433 -15.532 -10.110  1.00 23.87 LIG 0.20  C 
BRANCH 13 14
ATOM     14 OG   SER B  15      34.307 -16.238 -10.601  1.00 25.06 LIG-0.40  OA
ATOM     15 HG   SER B  15      33.617 -15.768 -10.504  1.00 25.06 LIG 0.21  HD
ENDBRANCH 13 14
ENDBRANCH 10 13
ENDBRANCH 7 10
ENDBRANCH 5 6
BRANCH 5 16
ATOM     16  CB  THR B  14      37.749  -9.949 -10.490  1.00 24.21 LIG 0.15  C 
ATOM     17  CG2 THR B  14      38.429  -9.833  -9.134  1.00 24.44 LIG 0.04  C 
BRANCH 16 18
ATOM     18 OG1  THR B  14      38.396  -9.076 -11.425  1.00 24.18 LIG-0.39  OA
ATOM     19 HG1  THR B  14      37.825  -8.572 -11.778  1.00 24.18 LIG 0.21  HD
ENDBRANCH 16 18
ENDBRANCH 5 16
ENDBRANCH 3 5
BRANCH 1 20
ATOM     20  CA  SER B  13      38.497 -12.508 -14.582  1.00 24.49 LIG 0.20  C 
BRANCH 20 21
ATOM     21  CB  SER B  13      39.290 -13.736 -15.040  1.00 26.86 LIG 0.20  C 
BRANCH 21 22
ATOM     22 OG   SER B  13      39.808 -13.541 -16.350  1.00 27.16 LIG-0.40  OA
ATOM     23 HG   SER B  13      39.644 -12.757 -16.603  1.00 27.16 LIG 0.21  HD
ENDBRANCH 21 22
ENDBRANCH 20 21
BRANCH 20 24
ATOM     24  N   SER B  13      39.212 -11.285 -14.935  1.00 26.25 LIG-0.34  N 
ATOM     25 H    SER B  13      38.785 -10.768 -15.474  1.00 26.25 LIG 0.16  HD
ATOM     26  C   ALA B  12      40.421 -11.016 -14.450  1.00 27.91 LIG 0.26  C 
ATOM     27 O    ALA B  12      41.021 -11.769 -13.682  1.00 29.06 LIG-0.27  OA
BRANCH 26 28
ATOM     28  CA  ALA B  12      41.054  -9.704 -14.896  1.00 28.19 LIG 0.40  C 
ATOM     29  N   ALA B  12      40.615  -8.597 -13.996  1.00 28.78 LIG 0.61  N 
ATOM     30  CB  ALA B  12      42.576  -9.822 -14.879  1.00 26.50 LIG 0.06  C 
ENDBRANCH 26 28
ENDBRANCH 20 24
ENDBRANCH 1 20
TORSDOF 13
ENDMDL
