MODEL 1
USER: ADFR SOLUTION from run 21
USER: SCORE 18.822254 LL:  -4.547 LR: -14.961 RR:   0.000 FEB:  -8.995
USER: RMSD 2.960532
USER: SEED 20
USER: STATUS no improvement in best in 2 clusters for 5 generations
USER: GENES 22
USER: genes 0 Translation |==|  0.54912 0.57770 0.52060
USER: genes 1 Rotation |==|  0.53780 0.55856 0.54499 0.99307
USER: genes 2 Torsion [N]-CA--C-[N] |==|  0.37601
USER: genes 3 Torsion [C]-N--CA-[C] |==|  0.62477
USER: genes 4 Torsion [N]-CA--C-[N] |==|  0.41738
USER: genes 5 Torsion [N]-CA--C-[O] |==|  0.36086
USER: genes 6 Torsion [C]-N--CA-[CB] |==|  0.85249
USER: genes 7 Torsion [N]-CA--CB-[SG] |==|  0.74139
USER: genes 8 Torsion [CA]-CB--SG-[HG] |==|  0.72614
USER: genes 9 Torsion [N]-CA--C-[OXT] |==|  0.68091
USER: genes 10 Torsion [N]-CA--CB-[CG1] |==|  0.65168
USER: genes 11 Torsion [C]-CA--CB-[CG2] |==|  0.11388
USER: genes 12 Torsion [CA]-CB--CG1-[CD1] |==|  0.58855
USER: genes 13 Torsion [C]-CA--N-[C] |==|  0.83003
USER: genes 14 Torsion [N]-C--CA-[N] |==|  0.17382
USER: genes 15 Torsion [C]-CA--N-[C] |==|  0.57222
USER: genes 16 Torsion [N]-C--CA-[N] |==|  0.07153
USER: genes 17 Torsion [C]-CA--CB-[CG] |==|  0.69938
USER: genes 18 Torsion [CA]-CB--CG-[OD2] |==|  0.64766
USER: genes 19 Torsion [C]-CA--N-[H1] |==|  0.08202
USER: genes 20 Torsion [C]-CA--CB-[CG] |==|  0.71849
USER: genes 21 Torsion [CA]-CB--CG-[OD1] |==|  0.28044
ROOT
ATOM      1  CA  ILE E   3     -26.029  29.380   5.482  1.00 36.34 LIG 0.18  C 
ENDROOT
BRANCH 1 2
ATOM      2  C   ILE E   3     -24.770  28.611   5.106  1.00 39.45 LIG 0.24  C 
ATOM      3  N   VAL E   4     -24.943  27.379   4.627  1.00 32.94 LIG-0.35  N 
ATOM      4 H    VAL E   4     -25.712  27.034   4.458  1.00 32.94 LIG 0.16  HD
ATOM      5 O    ILE E   3     -23.666  29.121   5.264  1.00 42.21 LIG-0.27  OA
BRANCH 3 6
ATOM      6  CA  VAL E   4     -23.815  26.498   4.344  1.00 33.21 LIG 0.18  C 
BRANCH 6 7
ATOM      7  C   VAL E   4     -24.010  25.819   2.986  1.00 35.41 LIG 0.24  C 
ATOM      8 O    VAL E   4     -25.149  25.603   2.557  1.00 29.15 LIG-0.27  OA
ATOM      9  N   PRO E   5     -22.901  25.496   2.299  1.00 36.11 LIG-0.34  N 
ATOM     10  CA  PRO E   5     -23.005  24.784   1.019  1.00 34.10 LIG 0.18  C 
ATOM     11  CD  PRO E   5     -21.507  25.849   2.640  1.00 37.00 LIG 0.13  C 
ATOM     12  CB  PRO E   5     -21.539  24.650   0.561  1.00 38.74 LIG 0.04  C 
ATOM     13  CG  PRO E   5     -20.791  25.725   1.311  1.00 43.00 LIG 0.02  C 
BRANCH 10 14
ATOM     14  C   PRO E   5     -23.613  23.412   1.272  1.00 34.89 LIG 0.24  C 
ATOM     15  N   CYS E   6     -23.077  22.650   2.216  1.00 33.29 LIG-0.34  N 
ATOM     16 H    CYS E   6     -22.422  22.884   2.721  1.00 33.29 LIG 0.16  HD
ATOM     17 O    PRO E   5     -24.566  23.049   0.580  1.00 33.04 LIG-0.27  OA
BRANCH 15 18
ATOM     18  CA  CYS E   6     -23.599  21.299   2.460  1.00 33.63 LIG 0.19  C 
BRANCH 18 19
ATOM     19  CB  CYS E   6     -25.116  21.331   2.691  1.00 31.18 LIG 0.11  C 
BRANCH 19 20
ATOM     20 SG   CYS E   6     -25.567  21.457   4.474  1.00 33.89 LIG-0.18  SA
ATOM     21 HG   CYS E   6     -25.841  20.368   4.896  1.00 33.89 LIG 0.10  HD
ENDBRANCH 19 20
ENDBRANCH 18 19
BRANCH 18 22
ATOM     22  C   CYS E   6     -23.184  20.266   1.390  1.00 36.36 LIG 0.20  C 
ATOM     23 OXT  CYS E   6     -23.980  19.689   0.613  1.00 31.64 LIG-0.65  OA
ATOM     24 O    CYS E   6     -21.994  19.957   1.321  1.00 36.48 LIG-0.65  OA
ENDBRANCH 18 22
ENDBRANCH 15 18
ENDBRANCH 10 14
ENDBRANCH 6 7
BRANCH 6 25
ATOM     25  CB  VAL E   4     -23.694  25.398   5.429  1.00 33.86 LIG 0.01  C 
ATOM     26  CG2 VAL E   4     -24.773  25.580   6.503  1.00 37.12 LIG 0.01  C 
ATOM     27  CG1 VAL E   4     -22.297  25.398   6.038  1.00 36.74 LIG 0.01  C 
ENDBRANCH 6 25
ENDBRANCH 3 6
ENDBRANCH 1 2
BRANCH 1 28
ATOM     28  CB  ILE E   3     -26.376  30.391   4.399  1.00 41.05 LIG 0.01  C 
ATOM     29  CG2 ILE E   3     -26.160  29.782   3.019  1.00 37.15 LIG 0.01  C 
BRANCH 28 30
ATOM     30  CG1 ILE E   3     -27.820  30.868   4.579  1.00 42.94 LIG 0.00  C 
ATOM     31  CD1 ILE E   3     -28.502  31.211   3.272  1.00 40.89 LIG 0.01  C 
ENDBRANCH 28 30
ENDBRANCH 1 28
BRANCH 1 32
ATOM     32  N   ILE E   3     -25.811  30.019   6.765  1.00 40.60 LIG-0.35  N 
ATOM     33 H    ILE E   3     -25.858  30.878   6.757  1.00 40.60 LIG 0.16  HD
ATOM     34  C   ASP E   2     -25.559  29.285   7.841  1.00 44.87 LIG 0.24  C 
ATOM     35 O    ASP E   2     -25.603  28.050   7.837  1.00 39.41 LIG-0.27  OA
BRANCH 34 36
ATOM     36  CA  ASP E   2     -25.192  30.044   9.106  1.00 43.58 LIG 0.19  C 
BRANCH 36 37
ATOM     37  N   ASP E   2     -26.282  30.899   9.547  1.00 45.35 LIG-0.34  N 
ATOM     38  C   ASP E   1     -26.060  31.989  10.270  1.00 51.19 LIG 0.25  C 
ATOM     39 O    ASP E   1     -24.935  32.348  10.606  1.00 56.05 LIG-0.27  OA
ATOM     40 H    ASP E   2     -27.063  30.637   9.299  1.00 45.35 LIG 0.16  HD
BRANCH 38 41
ATOM     41  CA  ASP E   1     -27.284  32.798  10.663  1.00 54.43 LIG 0.28  C 
BRANCH 41 42
ATOM     42  CB  ASP E   1     -27.048  33.462  12.020  1.00 57.23 LIG 0.15  C 
BRANCH 42 43
ATOM     43  CG  ASP E   1     -27.868  32.825  13.129  1.00 60.86 LIG 0.17  C 
ATOM     44 OD2  ASP E   1     -28.588  33.561  13.836  1.00 61.39 LIG-0.65  OA
ATOM     45 OD1  ASP E   1     -27.801  31.582  13.279  1.00 65.62 LIG-0.65  OA
ENDBRANCH 42 43
ENDBRANCH 41 42
BRANCH 41 46
ATOM     46  N   ASP E   1     -28.473  31.957  10.705  1.00 57.81 LIG-0.07  N 
ATOM     47 H1   ASP E   1     -28.241  31.124  10.918  1.00 57.81 LIG 0.28  HD
ATOM     48 H3   ASP E   1     -28.867  31.960   9.908  1.00 57.81 LIG 0.28  HD
ATOM     49 H2   ASP E   1     -29.038  32.273  11.315  1.00 57.81 LIG 0.28  HD
ENDBRANCH 41 46
ENDBRANCH 38 41
ENDBRANCH 36 37
BRANCH 36 50
ATOM     50  CB  ASP E   2     -24.860  29.033  10.189  1.00 41.52 LIG 0.15  C 
BRANCH 50 51
ATOM     51  CG  ASP E   2     -25.991  28.839  11.162  1.00 49.49 LIG 0.17  C 
ATOM     52 OD1  ASP E   2     -26.716  27.831  11.031  1.00 51.56 LIG-0.65  OA
ATOM     53 OD2  ASP E   2     -26.144  29.693  12.056  1.00 52.06 LIG-0.65  OA
ENDBRANCH 50 51
ENDBRANCH 36 50
ENDBRANCH 34 36
ENDBRANCH 1 32
TORSDOF 20
ENDMDL
MODEL 2
USER: ADFR SOLUTION from run 140
USER: SCORE 18.466043 LL:  -4.895 LR: -14.575 RR:   0.000 FEB:  -8.609
USER: RMSD 5.671085
USER: SEED 139
USER: STATUS no improvement in best in 3 clusters for 5 generations
USER: GENES 22
USER: genes 0 Translation |==|  0.66736 0.45415 0.43537
USER: genes 1 Rotation |==|  0.60850 0.54616 0.48039 0.98550
USER: genes 2 Torsion [N]-CA--C-[N] |==|  0.54442
USER: genes 3 Torsion [C]-N--CA-[C] |==|  0.13621
USER: genes 4 Torsion [N]-CA--C-[N] |==|  0.18754
USER: genes 5 Torsion [N]-CA--C-[O] |==|  0.75688
USER: genes 6 Torsion [C]-N--CA-[CB] |==|  0.21110
USER: genes 7 Torsion [N]-CA--CB-[SG] |==|  0.72329
USER: genes 8 Torsion [CA]-CB--SG-[HG] |==|  0.91469
USER: genes 9 Torsion [N]-CA--C-[OXT] |==|  0.46158
USER: genes 10 Torsion [N]-CA--CB-[CG1] |==|  0.50431
USER: genes 11 Torsion [C]-CA--CB-[CG2] |==|  0.38360
USER: genes 12 Torsion [CA]-CB--CG1-[CD1] |==|  0.68219
USER: genes 13 Torsion [C]-CA--N-[C] |==|  0.60514
USER: genes 14 Torsion [N]-C--CA-[N] |==|  0.38428
USER: genes 15 Torsion [C]-CA--N-[C] |==|  0.81111
USER: genes 16 Torsion [N]-C--CA-[N] |==|  0.81086
USER: genes 17 Torsion [C]-CA--CB-[CG] |==|  0.65105
USER: genes 18 Torsion [CA]-CB--CG-[OD2] |==|  0.72394
USER: genes 19 Torsion [C]-CA--N-[H1] |==|  0.22321
USER: genes 20 Torsion [C]-CA--CB-[CG] |==|  0.27226
USER: genes 21 Torsion [CA]-CB--CG-[OD1] |==|  0.89990
ROOT
ATOM      1  CA  ILE E   3     -23.635  26.322   3.820  1.00 36.34 LIG 0.18  C 
ENDROOT
BRANCH 1 2
ATOM      2  C   ILE E   3     -22.632  25.347   3.218  1.00 39.45 LIG 0.24  C 
ATOM      3  N   VAL E   4     -22.582  25.287   1.887  1.00 32.94 LIG-0.35  N 
ATOM      4 H    VAL E   4     -23.026  25.808   1.367  1.00 32.94 LIG 0.16  HD
ATOM      5 O    ILE E   3     -21.931  24.655   3.948  1.00 42.21 LIG-0.27  OA
BRANCH 3 6
ATOM      6  CA  VAL E   4     -21.752  24.310   1.192  1.00 33.21 LIG 0.18  C 
BRANCH 6 7
ATOM      7  C   VAL E   4     -21.989  22.914   1.772  1.00 35.41 LIG 0.24  C 
ATOM      8 O    VAL E   4     -21.096  22.347   2.414  1.00 29.15 LIG-0.27  OA
ATOM      9  N   PRO E   5     -23.197  22.363   1.566  1.00 36.11 LIG-0.34  N 
ATOM     10  CA  PRO E   5     -23.479  21.001   2.037  1.00 34.10 LIG 0.18  C 
ATOM     11  CD  PRO E   5     -24.380  23.009   0.960  1.00 37.00 LIG 0.13  C 
ATOM     12  CB  PRO E   5     -24.952  20.780   1.640  1.00 38.74 LIG 0.04  C 
ATOM     13  CG  PRO E   5     -25.528  22.165   1.472  1.00 43.00 LIG 0.02  C 
BRANCH 10 14
ATOM     14  C   PRO E   5     -22.574  20.031   1.292  1.00 34.89 LIG 0.24  C 
ATOM     15  N   CYS E   6     -21.399  19.726   1.828  1.00 33.29 LIG-0.34  N 
ATOM     16 H    CYS E   6     -21.117  20.017   2.587  1.00 33.29 LIG 0.16  HD
ATOM     17 O    PRO E   5     -22.952  19.578   0.210  1.00 33.04 LIG-0.27  OA
BRANCH 15 18
ATOM     18  CA  CYS E   6     -20.472  18.833   1.121  1.00 33.63 LIG 0.19  C 
BRANCH 18 19
ATOM     19  CB  CYS E   6     -19.781  19.566  -0.036  1.00 31.18 LIG 0.11  C 
BRANCH 19 20
ATOM     20 SG   CYS E   6     -20.550  19.207  -1.672  1.00 33.89 LIG-0.18  SA
ATOM     21 HG   CYS E   6     -21.006  18.097  -1.666  1.00 33.89 LIG 0.10  HD
ENDBRANCH 19 20
ENDBRANCH 18 19
BRANCH 18 22
ATOM     22  C   CYS E   6     -19.470  18.112   2.050  1.00 36.36 LIG 0.20  C 
ATOM     23 OXT  CYS E   6     -18.765  17.135   1.709  1.00 31.64 LIG-0.65  OA
ATOM     24 O    CYS E   6     -19.388  18.497   3.216  1.00 36.48 LIG-0.65  OA
ENDBRANCH 18 22
ENDBRANCH 15 18
ENDBRANCH 10 14
ENDBRANCH 6 7
BRANCH 6 25
ATOM     25  CB  VAL E   4     -20.250  24.658   1.350  1.00 33.86 LIG 0.01  C 
ATOM     26  CG2 VAL E   4     -19.978  26.095   0.891  1.00 37.12 LIG 0.01  C 
ATOM     27  CG1 VAL E   4     -19.385  23.657   0.591  1.00 36.74 LIG 0.01  C 
ENDBRANCH 6 25
ENDBRANCH 3 6
ENDBRANCH 1 2
BRANCH 1 28
ATOM     28  CB  ILE E   3     -23.640  27.627   3.038  1.00 41.05 LIG 0.01  C 
ATOM     29  CG2 ILE E   3     -25.068  28.122   2.846  1.00 37.15 LIG 0.01  C 
BRANCH 28 30
ATOM     30  CG1 ILE E   3     -22.781  28.668   3.762  1.00 42.94 LIG 0.00  C 
ATOM     31  CD1 ILE E   3     -23.581  29.843   4.284  1.00 40.89 LIG 0.01  C 
ENDBRANCH 28 30
ENDBRANCH 1 28
BRANCH 1 32
ATOM     32  N   ILE E   3     -23.292  26.530   5.213  1.00 40.60 LIG-0.35  N 
ATOM     33 H    ILE E   3     -22.449  26.562   5.380  1.00 40.60 LIG 0.16  HD
ATOM     34  C   ASP E   2     -24.249  26.655   6.124  1.00 44.87 LIG 0.24  C 
ATOM     35 O    ASP E   2     -25.449  26.710   5.834  1.00 39.41 LIG-0.27  OA
BRANCH 34 36
ATOM     36  CA  ASP E   2     -23.798  26.716   7.575  1.00 43.58 LIG 0.19  C 
BRANCH 36 37
ATOM     37  N   ASP E   2     -24.541  27.720   8.320  1.00 45.35 LIG-0.34  N 
ATOM     38  C   ASP E   1     -24.397  29.015   8.072  1.00 51.19 LIG 0.25  C 
ATOM     39 O    ASP E   1     -23.643  29.448   7.206  1.00 56.05 LIG-0.27  OA
ATOM     40 H    ASP E   2     -25.068  27.400   8.919  1.00 45.35 LIG 0.16  HD
BRANCH 38 41
ATOM     41  CA  ASP E   1     -25.233  29.959   8.918  1.00 54.43 LIG 0.28  C 
BRANCH 41 42
ATOM     42  CB  ASP E   1     -24.985  29.678  10.401  1.00 57.23 LIG 0.15  C 
BRANCH 42 43
ATOM     43  CG  ASP E   1     -26.271  29.409  11.164  1.00 60.86 LIG 0.17  C 
ATOM     44 OD2  ASP E   1     -26.774  30.337  11.830  1.00 61.39 LIG-0.65  OA
ATOM     45 OD1  ASP E   1     -26.784  28.267  11.081  1.00 65.62 LIG-0.65  OA
ENDBRANCH 42 43
ENDBRANCH 41 42
BRANCH 41 46
ATOM     46  N   ASP E   1     -26.649  29.827   8.602  1.00 57.81 LIG-0.07  N 
ATOM     47 H1   ASP E   1     -26.982  29.116   9.022  1.00 57.81 LIG 0.28  HD
ATOM     48 H3   ASP E   1     -26.749  29.726   7.724  1.00 57.81 LIG 0.28  HD
ATOM     49 H2   ASP E   1     -27.081  30.558   8.867  1.00 57.81 LIG 0.28  HD
ENDBRANCH 41 46
ENDBRANCH 38 41
ENDBRANCH 36 37
BRANCH 36 50
ATOM     50  CB  ASP E   2     -24.011  25.348   8.198  1.00 41.52 LIG 0.15  C 
BRANCH 50 51
ATOM     51  CG  ASP E   2     -22.753  24.525   8.222  1.00 49.49 LIG 0.17  C 
ATOM     52 OD1  ASP E   2     -21.962  24.625   7.261  1.00 51.56 LIG-0.65  OA
ATOM     53 OD2  ASP E   2     -22.558  23.785   9.206  1.00 52.06 LIG-0.65  OA
ENDBRANCH 50 51
ENDBRANCH 36 50
ENDBRANCH 34 36
ENDBRANCH 1 32
TORSDOF 20
ENDMDL
MODEL 3
USER: ADFR SOLUTION from run 119
USER: SCORE 18.362345 LL:  -4.873 LR: -14.339 RR:   0.000 FEB:  -8.373
USER: RMSD 5.899162
USER: SEED 118
USER: STATUS no improvement in best in 6 clusters for 5 generations
USER: GENES 22
USER: genes 0 Translation |==|  0.63401 0.51338 0.43261
USER: genes 1 Rotation |==|  0.32325 0.94969 0.58525 0.59632
USER: genes 2 Torsion [N]-CA--C-[N] |==|  0.16808
USER: genes 3 Torsion [C]-N--CA-[C] |==|  0.81781
USER: genes 4 Torsion [N]-CA--C-[N] |==|  0.32321
USER: genes 5 Torsion [N]-CA--C-[O] |==|  0.47689
USER: genes 6 Torsion [C]-N--CA-[CB] |==|  0.85007
USER: genes 7 Torsion [N]-CA--CB-[SG] |==|  0.29171
USER: genes 8 Torsion [CA]-CB--SG-[HG] |==|  0.09325
USER: genes 9 Torsion [N]-CA--C-[OXT] |==|  0.44310
USER: genes 10 Torsion [N]-CA--CB-[CG1] |==|  0.79862
USER: genes 11 Torsion [C]-CA--CB-[CG2] |==|  0.22619
USER: genes 12 Torsion [CA]-CB--CG1-[CD1] |==|  0.71704
USER: genes 13 Torsion [C]-CA--N-[C] |==|  0.77014
USER: genes 14 Torsion [N]-C--CA-[N] |==|  0.08889
USER: genes 15 Torsion [C]-CA--N-[C] |==|  0.63825
USER: genes 16 Torsion [N]-C--CA-[N] |==|  0.47690
USER: genes 17 Torsion [C]-CA--CB-[CG] |==|  0.50930
USER: genes 18 Torsion [CA]-CB--CG-[OD2] |==|  0.13422
USER: genes 19 Torsion [C]-CA--N-[H1] |==|  0.97675
USER: genes 20 Torsion [C]-CA--CB-[CG] |==|  0.33381
USER: genes 21 Torsion [CA]-CB--CG-[OD1] |==|  0.81663
ROOT
ATOM      1  CA  ILE E   3     -24.310  27.788   3.766  1.00 36.34 LIG 0.18  C 
ENDROOT
BRANCH 1 2
ATOM      2  C   ILE E   3     -24.357  26.460   3.023  1.00 39.45 LIG 0.24  C 
ATOM      3  N   VAL E   4     -23.517  26.320   1.996  1.00 32.94 LIG-0.35  N 
ATOM      4 H    VAL E   4     -22.919  26.900   1.784  1.00 32.94 LIG 0.16  HD
ATOM      5 O    ILE E   3     -25.149  25.589   3.366  1.00 42.21 LIG-0.27  OA
BRANCH 3 6
ATOM      6  CA  VAL E   4     -23.548  25.145   1.132  1.00 33.21 LIG 0.18  C 
BRANCH 6 7
ATOM      7  C   VAL E   4     -23.147  23.901   1.928  1.00 35.41 LIG 0.24  C 
ATOM      8 O    VAL E   4     -22.016  23.816   2.421  1.00 29.15 LIG-0.27  OA
ATOM      9  N   PRO E   5     -24.076  22.941   2.071  1.00 36.11 LIG-0.34  N 
ATOM     10  CA  PRO E   5     -23.746  21.689   2.765  1.00 34.10 LIG 0.18  C 
ATOM     11  CD  PRO E   5     -25.496  23.006   1.667  1.00 37.00 LIG 0.13  C 
ATOM     12  CB  PRO E   5     -25.072  20.903   2.741  1.00 38.74 LIG 0.04  C 
ATOM     13  CG  PRO E   5     -26.144  21.943   2.528  1.00 43.00 LIG 0.02  C 
BRANCH 10 14
ATOM     14  C   PRO E   5     -22.676  20.957   1.970  1.00 34.89 LIG 0.24  C 
ATOM     15  N   CYS E   6     -22.367  21.411   0.762  1.00 33.29 LIG-0.34  N 
ATOM     16 H    CYS E   6     -22.709  22.113   0.400  1.00 33.29 LIG 0.16  HD
ATOM     17 O    PRO E   5     -22.148  19.959   2.463  1.00 33.04 LIG-0.27  OA
BRANCH 15 18
ATOM     18  CA  CYS E   6     -21.376  20.708  -0.062  1.00 33.63 LIG 0.19  C 
BRANCH 18 19
ATOM     19  CB  CYS E   6     -20.059  20.525   0.702  1.00 31.18 LIG 0.11  C 
BRANCH 19 20
ATOM     20 SG   CYS E   6     -19.807  18.796   1.292  1.00 33.89 LIG-0.18  SA
ATOM     21 HG   CYS E   6     -20.286  18.029   0.502  1.00 33.89 LIG 0.10  HD
ENDBRANCH 19 20
ENDBRANCH 18 19
BRANCH 18 22
ATOM     22  C   CYS E   6     -21.896  19.387  -0.673  1.00 36.36 LIG 0.20  C 
ATOM     23 OXT  CYS E   6     -21.393  18.820  -1.669  1.00 31.64 LIG-0.65  OA
ATOM     24 O    CYS E   6     -22.899  18.878  -0.171  1.00 36.48 LIG-0.65  OA
ENDBRANCH 18 22
ENDBRANCH 15 18
ENDBRANCH 10 14
ENDBRANCH 6 7
BRANCH 6 25
ATOM     25  CB  VAL E   4     -22.560  25.310  -0.050  1.00 33.86 LIG 0.01  C 
ATOM     26  CG2 VAL E   4     -21.169  25.702   0.460  1.00 37.12 LIG 0.01  C 
ATOM     27  CG1 VAL E   4     -23.092  26.326  -1.055  1.00 36.74 LIG 0.01  C 
ENDBRANCH 6 25
ENDBRANCH 3 6
ENDBRANCH 1 2
BRANCH 1 28
ATOM     28  CB  ILE E   3     -25.261  27.766   4.953  1.00 41.05 LIG 0.01  C 
ATOM     29  CG2 ILE E   3     -24.611  27.063   6.138  1.00 37.15 LIG 0.01  C 
BRANCH 28 30
ATOM     30  CG1 ILE E   3     -25.677  29.195   5.311  1.00 42.94 LIG 0.00  C 
ATOM     31  CD1 ILE E   3     -24.941  29.747   6.514  1.00 40.89 LIG 0.01  C 
ENDBRANCH 28 30
ENDBRANCH 1 28
BRANCH 1 32
ATOM     32  N   ILE E   3     -24.640  28.848   2.832  1.00 40.60 LIG-0.35  N 
ATOM     33 H    ILE E   3     -25.460  29.106   2.848  1.00 40.60 LIG 0.16  HD
ATOM     34  C   ASP E   2     -23.706  29.346   2.032  1.00 44.87 LIG 0.24  C 
ATOM     35 O    ASP E   2     -22.514  29.025   2.109  1.00 39.41 LIG-0.27  OA
BRANCH 34 36
ATOM     36  CA  ASP E   2     -24.175  30.342   0.984  1.00 43.58 LIG 0.19  C 
BRANCH 36 37
ATOM     37  N   ASP E   2     -25.308  31.119   1.459  1.00 45.35 LIG-0.34  N 
ATOM     38  C   ASP E   1     -26.407  31.258   0.731  1.00 51.19 LIG 0.25  C 
ATOM     39 O    ASP E   1     -26.544  30.743  -0.375  1.00 56.05 LIG-0.27  OA
ATOM     40 H    ASP E   2     -25.199  31.469   2.238  1.00 45.35 LIG 0.16  HD
BRANCH 38 41
ATOM     41  CA  ASP E   1     -27.520  32.092   1.344  1.00 54.43 LIG 0.28  C 
BRANCH 41 42
ATOM     42  CB  ASP E   1     -28.070  31.385   2.583  1.00 57.23 LIG 0.15  C 
BRANCH 42 43
ATOM     43  CG  ASP E   1     -29.244  32.126   3.201  1.00 60.86 LIG 0.17  C 
ATOM     44 OD2  ASP E   1     -30.170  32.503   2.455  1.00 61.39 LIG-0.65  OA
ATOM     45 OD1  ASP E   1     -29.241  32.314   4.441  1.00 65.62 LIG-0.65  OA
ENDBRANCH 42 43
ENDBRANCH 41 42
BRANCH 41 46
ATOM     46  N   ASP E   1     -28.584  32.332   0.378  1.00 57.81 LIG-0.07  N 
ATOM     47 H1   ASP E   1     -28.326  32.048  -0.426  1.00 57.81 LIG 0.28  HD
ATOM     48 H3   ASP E   1     -28.760  33.203   0.340  1.00 57.81 LIG 0.28  HD
ATOM     49 H2   ASP E   1     -29.316  31.893   0.627  1.00 57.81 LIG 0.28  HD
ENDBRANCH 41 46
ENDBRANCH 38 41
ENDBRANCH 36 37
BRANCH 36 50
ATOM     50  CB  ASP E   2     -23.016  31.267   0.654  1.00 41.52 LIG 0.15  C 
BRANCH 50 51
ATOM     51  CG  ASP E   2     -22.629  31.209  -0.797  1.00 49.49 LIG 0.17  C 
ATOM     52 OD1  ASP E   2     -22.149  30.144  -1.238  1.00 51.56 LIG-0.65  OA
ATOM     53 OD2  ASP E   2     -22.811  32.228  -1.492  1.00 52.06 LIG-0.65  OA
ENDBRANCH 50 51
ENDBRANCH 36 50
ENDBRANCH 34 36
ENDBRANCH 1 32
TORSDOF 20
ENDMDL
MODEL 4
USER: ADFR SOLUTION from run 142
USER: SCORE 18.475417 LL:  -4.727 LR: -14.233 RR:   0.000 FEB:  -8.267
USER: RMSD 6.200667
USER: SEED 141
USER: STATUS no improvement in best in 4 clusters for 5 generations
USER: GENES 22
USER: genes 0 Translation |==|  0.65854 0.47702 0.41886
USER: genes 1 Rotation |==|  0.29738 0.90992 0.63398 0.65154
USER: genes 2 Torsion [N]-CA--C-[N] |==|  0.34119
USER: genes 3 Torsion [C]-N--CA-[C] |==|  0.73524
USER: genes 4 Torsion [N]-CA--C-[N] |==|  0.25442
USER: genes 5 Torsion [N]-CA--C-[O] |==|  0.73885
USER: genes 6 Torsion [C]-N--CA-[CB] |==|  0.21848
USER: genes 7 Torsion [N]-CA--CB-[SG] |==|  0.79347
USER: genes 8 Torsion [CA]-CB--SG-[HG] |==|  0.27543
USER: genes 9 Torsion [N]-CA--C-[OXT] |==|  0.95189
USER: genes 10 Torsion [N]-CA--CB-[CG1] |==|  0.44680
USER: genes 11 Torsion [C]-CA--CB-[CG2] |==|  0.08891
USER: genes 12 Torsion [CA]-CB--CG1-[CD1] |==|  0.24989
USER: genes 13 Torsion [C]-CA--N-[C] |==|  0.84776
USER: genes 14 Torsion [N]-C--CA-[N] |==|  0.05555
USER: genes 15 Torsion [C]-CA--N-[C] |==|  0.69258
USER: genes 16 Torsion [N]-C--CA-[N] |==|  0.46299
USER: genes 17 Torsion [C]-CA--CB-[CG] |==|  0.45027
USER: genes 18 Torsion [CA]-CB--CG-[OD2] |==|  0.05133
USER: genes 19 Torsion [C]-CA--N-[H1] |==|  0.20026
USER: genes 20 Torsion [C]-CA--CB-[CG] |==|  0.33198
USER: genes 21 Torsion [CA]-CB--CG-[OD1] |==|  0.34665
ROOT
ATOM      1  CA  ILE E   3     -23.814  26.888   3.498  1.00 36.34 LIG 0.18  C 
ENDROOT
BRANCH 1 2
ATOM      2  C   ILE E   3     -23.517  25.815   2.459  1.00 39.45 LIG 0.24  C 
ATOM      3  N   VAL E   4     -22.313  25.245   2.515  1.00 32.94 LIG-0.35  N 
ATOM      4 H    VAL E   4     -21.738  25.401   3.135  1.00 32.94 LIG 0.16  HD
ATOM      5 O    ILE E   3     -24.360  25.522   1.617  1.00 42.21 LIG-0.27  OA
BRANCH 3 6
ATOM      6  CA  VAL E   4     -21.865  24.292   1.507  1.00 33.21 LIG 0.18  C 
BRANCH 6 7
ATOM      7  C   VAL E   4     -22.132  22.862   1.983  1.00 35.41 LIG 0.24  C 
ATOM      8 O    VAL E   4     -21.293  22.269   2.671  1.00 29.15 LIG-0.27  OA
ATOM      9  N   PRO E   5     -23.307  22.311   1.635  1.00 36.11 LIG-0.34  N 
ATOM     10  CA  PRO E   5     -23.608  20.921   1.999  1.00 34.10 LIG 0.18  C 
ATOM     11  CD  PRO E   5     -24.439  22.978   0.959  1.00 37.00 LIG 0.13  C 
ATOM     12  CB  PRO E   5     -25.035  20.707   1.456  1.00 38.74 LIG 0.04  C 
ATOM     13  CG  PRO E   5     -25.615  22.093   1.314  1.00 43.00 LIG 0.02  C 
BRANCH 10 14
ATOM     14  C   PRO E   5     -22.623  20.005   1.288  1.00 34.89 LIG 0.24  C 
ATOM     15  N   CYS E   6     -21.443  19.788   1.854  1.00 33.29 LIG-0.34  N 
ATOM     16 H    CYS E   6     -21.199  20.106   2.615  1.00 33.29 LIG 0.16  HD
ATOM     17 O    PRO E   5     -22.945  19.514   0.205  1.00 33.04 LIG-0.27  OA
BRANCH 15 18
ATOM     18  CA  CYS E   6     -20.442  18.952   1.180  1.00 33.63 LIG 0.19  C 
BRANCH 18 19
ATOM     19  CB  CYS E   6     -19.729  19.736   0.072  1.00 31.18 LIG 0.11  C 
BRANCH 19 20
ATOM     20 SG   CYS E   6     -20.781  19.982  -1.422  1.00 33.89 LIG-0.18  SA
ATOM     21 HG   CYS E   6     -21.262  21.082  -1.398  1.00 33.89 LIG 0.10  HD
ENDBRANCH 19 20
ENDBRANCH 18 19
BRANCH 18 22
ATOM     22  C   CYS E   6     -19.455  18.259   2.146  1.00 36.36 LIG 0.20  C 
ATOM     23 OXT  CYS E   6     -19.269  18.602   3.336  1.00 31.64 LIG-0.65  OA
ATOM     24 O    CYS E   6     -18.774  17.333   1.705  1.00 36.48 LIG-0.65  OA
ENDBRANCH 18 22
ENDBRANCH 15 18
ENDBRANCH 10 14
ENDBRANCH 6 7
BRANCH 6 25
ATOM     25  CB  VAL E   4     -20.345  24.445   1.246  1.00 33.86 LIG 0.01  C 
ATOM     26  CG2 VAL E   4     -20.066  25.697   0.406  1.00 37.12 LIG 0.01  C 
ATOM     27  CG1 VAL E   4     -19.787  23.192   0.580  1.00 36.74 LIG 0.01  C 
ENDBRANCH 6 25
ENDBRANCH 3 6
ENDBRANCH 1 2
BRANCH 1 28
ATOM     28  CB  ILE E   3     -24.920  26.429   4.435  1.00 41.05 LIG 0.01  C 
ATOM     29  CG2 ILE E   3     -24.863  24.918   4.619  1.00 37.15 LIG 0.01  C 
BRANCH 28 30
ATOM     30  CG1 ILE E   3     -24.800  27.160   5.775  1.00 42.94 LIG 0.00  C 
ATOM     31  CD1 ILE E   3     -25.579  28.458   5.818  1.00 40.89 LIG 0.01  C 
ENDBRANCH 28 30
ENDBRANCH 1 28
BRANCH 1 32
ATOM     32  N   ILE E   3     -24.169  28.111   2.804  1.00 40.60 LIG-0.35  N 
ATOM     33 H    ILE E   3     -24.926  28.451   3.029  1.00 40.60 LIG 0.16  HD
ATOM     34  C   ASP E   2     -23.349  28.625   1.896  1.00 44.87 LIG 0.24  C 
ATOM     35 O    ASP E   2     -22.222  28.168   1.673  1.00 39.41 LIG-0.27  OA
BRANCH 34 36
ATOM     36  CA  ASP E   2     -23.871  29.818   1.112  1.00 43.58 LIG 0.19  C 
BRANCH 36 37
ATOM     37  N   ASP E   2     -24.973  30.467   1.805  1.00 45.35 LIG-0.34  N 
ATOM     38  C   ASP E   1     -26.213  30.414   1.338  1.00 51.19 LIG 0.25  C 
ATOM     39 O    ASP E   1     -26.512  29.817   0.308  1.00 56.05 LIG-0.27  OA
ATOM     40 H    ASP E   2     -24.748  30.876   2.527  1.00 45.35 LIG 0.16  HD
BRANCH 38 41
ATOM     41  CA  ASP E   1     -27.273  31.130   2.157  1.00 54.43 LIG 0.28  C 
BRANCH 41 42
ATOM     42  CB  ASP E   1     -27.522  30.364   3.457  1.00 57.23 LIG 0.15  C 
BRANCH 42 43
ATOM     43  CG  ASP E   1     -28.221  31.212   4.506  1.00 60.86 LIG 0.17  C 
ATOM     44 OD2  ASP E   1     -28.819  32.244   4.136  1.00 61.39 LIG-0.65  OA
ATOM     45 OD1  ASP E   1     -28.183  30.832   5.700  1.00 65.62 LIG-0.65  OA
ENDBRANCH 42 43
ENDBRANCH 41 42
BRANCH 41 46
ATOM     46  N   ASP E   1     -28.510  31.270   1.401  1.00 57.81 LIG-0.07  N 
ATOM     47 H1   ASP E   1     -28.907  30.476   1.331  1.00 57.81 LIG 0.28  HD
ATOM     48 H3   ASP E   1     -28.327  31.582   0.588  1.00 57.81 LIG 0.28  HD
ATOM     49 H2   ASP E   1     -29.051  31.837   1.821  1.00 57.81 LIG 0.28  HD
ENDBRANCH 41 46
ENDBRANCH 38 41
ENDBRANCH 36 37
BRANCH 36 50
ATOM     50  CB  ASP E   2     -22.729  30.802   0.926  1.00 41.52 LIG 0.15  C 
BRANCH 50 51
ATOM     51  CG  ASP E   2     -22.412  31.046  -0.524  1.00 49.49 LIG 0.17  C 
ATOM     52 OD1  ASP E   2     -22.421  32.224  -0.940  1.00 51.56 LIG-0.65  OA
ATOM     53 OD2  ASP E   2     -22.149  30.060  -1.239  1.00 52.06 LIG-0.65  OA
ENDBRANCH 50 51
ENDBRANCH 36 50
ENDBRANCH 34 36
ENDBRANCH 1 32
TORSDOF 20
ENDMDL
MODEL 5
USER: ADFR SOLUTION from run 3
USER: SCORE 17.384578 LL:  -4.286 LR: -14.209 RR:   0.000 FEB:  -8.243
USER: RMSD 5.647984
USER: SEED 48363
USER: STATUS no improvement in best in 1 clusters for 5 generations
USER: GENES 22
USER: genes 0 Translation |==|  0.63693 0.46079 0.46200
USER: genes 1 Rotation |==|  0.33715 0.95272 0.59987 0.59247
USER: genes 2 Torsion [N]-CA--C-[N] |==|  0.45186
USER: genes 3 Torsion [C]-N--CA-[C] |==|  0.19286
USER: genes 4 Torsion [N]-CA--C-[N] |==|  0.16547
USER: genes 5 Torsion [N]-CA--C-[O] |==|  0.53151
USER: genes 6 Torsion [C]-N--CA-[CB] |==|  0.28442
USER: genes 7 Torsion [N]-CA--CB-[SG] |==|  0.75397
USER: genes 8 Torsion [CA]-CB--SG-[HG] |==|  0.01910
USER: genes 9 Torsion [N]-CA--C-[OXT] |==|  0.39266
USER: genes 10 Torsion [N]-CA--CB-[CG1] |==|  0.50447
USER: genes 11 Torsion [C]-CA--CB-[CG2] |==|  0.16980
USER: genes 12 Torsion [CA]-CB--CG1-[CD1] |==|  0.27920
USER: genes 13 Torsion [C]-CA--N-[C] |==|  0.76751
USER: genes 14 Torsion [N]-C--CA-[N] |==|  0.08804
USER: genes 15 Torsion [C]-CA--N-[C] |==|  0.61667
USER: genes 16 Torsion [N]-C--CA-[N] |==|  0.50298
USER: genes 17 Torsion [C]-CA--CB-[CG] |==|  0.40654
USER: genes 18 Torsion [CA]-CB--CG-[OD2] |==|  0.07199
USER: genes 19 Torsion [C]-CA--N-[H1] |==|  0.89602
USER: genes 20 Torsion [C]-CA--CB-[CG] |==|  0.40111
USER: genes 21 Torsion [CA]-CB--CG-[OD1] |==|  0.23135
ROOT
ATOM      1  CA  ILE E   3     -24.251  26.487   4.339  1.00 36.34 LIG 0.18  C 
ENDROOT
BRANCH 1 2
ATOM      2  C   ILE E   3     -24.387  25.205   3.527  1.00 39.45 LIG 0.24  C 
ATOM      3  N   VAL E   4     -23.795  24.118   4.023  1.00 32.94 LIG-0.35  N 
ATOM      4 H    VAL E   4     -23.412  24.090   4.792  1.00 32.94 LIG 0.16  HD
ATOM      5 O    ILE E   3     -25.003  25.210   2.467  1.00 42.21 LIG-0.27  OA
BRANCH 3 6
ATOM      6  CA  VAL E   4     -23.750  22.862   3.284  1.00 33.21 LIG 0.18  C 
BRANCH 6 7
ATOM      7  C   VAL E   4     -22.826  23.001   2.073  1.00 35.41 LIG 0.24  C 
ATOM      8 O    VAL E   4     -23.269  22.835   0.930  1.00 29.15 LIG-0.27  OA
ATOM      9  N   PRO E   5     -21.544  23.322   2.315  1.00 36.11 LIG-0.34  N 
ATOM     10  CA  PRO E   5     -20.581  23.410   1.209  1.00 34.10 LIG 0.18  C 
ATOM     11  CD  PRO E   5     -20.949  23.698   3.614  1.00 37.00 LIG 0.13  C 
ATOM     12  CB  PRO E   5     -19.271  23.832   1.904  1.00 38.74 LIG 0.04  C 
ATOM     13  CG  PRO E   5     -19.699  24.452   3.211  1.00 43.00 LIG 0.02  C 
BRANCH 10 14
ATOM     14  C   PRO E   5     -20.433  22.032   0.581  1.00 34.89 LIG 0.24  C 
ATOM     15  N   CYS E   6     -21.283  21.080   0.942  1.00 33.29 LIG-0.34  N 
ATOM     16 H    CYS E   6     -21.937  21.190   1.489  1.00 33.29 LIG 0.16  HD
ATOM     17 O    PRO E   5     -19.519  21.842  -0.224  1.00 33.04 LIG-0.27  OA
BRANCH 15 18
ATOM     18  CA  CYS E   6     -21.148  19.723   0.399  1.00 33.63 LIG 0.19  C 
BRANCH 18 19
ATOM     19  CB  CYS E   6     -20.505  18.783   1.427  1.00 31.18 LIG 0.11  C 
BRANCH 19 20
ATOM     20 SG   CYS E   6     -18.664  18.771   1.333  1.00 33.89 LIG-0.18  SA
ATOM     21 HG   CYS E   6     -18.296  19.613   0.561  1.00 33.89 LIG 0.10  HD
ENDBRANCH 19 20
ENDBRANCH 18 19
BRANCH 18 22
ATOM     22  C   CYS E   6     -22.458  19.151  -0.189  1.00 36.36 LIG 0.20  C 
ATOM     23 OXT  CYS E   6     -22.524  18.451  -1.225  1.00 31.64 LIG-0.65  OA
ATOM     24 O    CYS E   6     -23.513  19.437   0.377  1.00 36.48 LIG-0.65  OA
ENDBRANCH 18 22
ENDBRANCH 15 18
ENDBRANCH 10 14
ENDBRANCH 6 7
BRANCH 6 25
ATOM     25  CB  VAL E   4     -25.163  22.473   2.780  1.00 33.86 LIG 0.01  C 
ATOM     26  CG2 VAL E   4     -26.160  22.437   3.945  1.00 37.12 LIG 0.01  C 
ATOM     27  CG1 VAL E   4     -25.120  21.140   2.042  1.00 36.74 LIG 0.01  C 
ENDBRANCH 6 25
ENDBRANCH 3 6
ENDBRANCH 1 2
BRANCH 1 28
ATOM     28  CB  ILE E   3     -25.148  26.434   5.567  1.00 41.05 LIG 0.01  C 
ATOM     29  CG2 ILE E   3     -24.745  25.272   6.466  1.00 37.15 LIG 0.01  C 
BRANCH 28 30
ATOM     30  CG1 ILE E   3     -25.081  27.769   6.314  1.00 42.94 LIG 0.00  C 
ATOM     31  CD1 ILE E   3     -26.266  28.669   6.034  1.00 40.89 LIG 0.01  C 
ENDBRANCH 28 30
ENDBRANCH 1 28
BRANCH 1 32
ATOM     32  N   ILE E   3     -24.578  27.609   3.481  1.00 40.60 LIG-0.35  N 
ATOM     33 H    ILE E   3     -25.389  27.890   3.541  1.00 40.60 LIG 0.16  HD
ATOM     34  C   ASP E   2     -23.656  28.128   2.680  1.00 44.87 LIG 0.24  C 
ATOM     35 O    ASP E   2     -22.473  27.768   2.697  1.00 39.41 LIG-0.27  OA
BRANCH 34 36
ATOM     36  CA  ASP E   2     -24.128  29.198   1.709  1.00 43.58 LIG 0.19  C 
BRANCH 36 37
ATOM     37  N   ASP E   2     -25.225  29.973   2.266  1.00 45.35 LIG-0.34  N 
ATOM     38  C   ASP E   1     -26.275  30.314   1.532  1.00 51.19 LIG 0.25  C 
ATOM     39 O    ASP E   1     -26.395  29.998   0.352  1.00 56.05 LIG-0.27  OA
ATOM     40 H    ASP E   2     -25.129  30.182   3.095  1.00 45.35 LIG 0.16  HD
BRANCH 38 41
ATOM     41  CA  ASP E   1     -27.354  31.121   2.234  1.00 54.43 LIG 0.28  C 
BRANCH 41 42
ATOM     42  CB  ASP E   1     -27.850  30.358   3.463  1.00 57.23 LIG 0.15  C 
BRANCH 42 43
ATOM     43  CG  ASP E   1     -28.241  31.284   4.603  1.00 60.86 LIG 0.17  C 
ATOM     44 OD2  ASP E   1     -28.602  32.447   4.329  1.00 61.39 LIG-0.65  OA
ATOM     45 OD1  ASP E   1     -28.201  30.835   5.773  1.00 65.62 LIG-0.65  OA
ENDBRANCH 42 43
ENDBRANCH 41 42
BRANCH 41 46
ATOM     46  N   ASP E   1     -28.460  31.409   1.331  1.00 57.81 LIG-0.07  N 
ATOM     47 H1   ASP E   1     -28.143  31.572   0.515  1.00 57.81 LIG 0.28  HD
ATOM     48 H3   ASP E   1     -28.904  32.123   1.623  1.00 57.81 LIG 0.28  HD
ATOM     49 H2   ASP E   1     -29.009  30.710   1.302  1.00 57.81 LIG 0.28  HD
ENDBRANCH 41 46
ENDBRANCH 38 41
ENDBRANCH 36 37
BRANCH 36 50
ATOM     50  CB  ASP E   2     -22.955  30.112   1.401  1.00 41.52 LIG 0.15  C 
BRANCH 50 51
ATOM     51  CG  ASP E   2     -22.963  30.597  -0.022  1.00 49.49 LIG 0.17  C 
ATOM     52 OD1  ASP E   2     -23.669  31.586  -0.305  1.00 51.56 LIG-0.65  OA
ATOM     53 OD2  ASP E   2     -22.257  29.989  -0.850  1.00 52.06 LIG-0.65  OA
ENDBRANCH 50 51
ENDBRANCH 36 50
ENDBRANCH 34 36
ENDBRANCH 1 32
TORSDOF 20
ENDMDL
MODEL 6
USER: ADFR SOLUTION from run 49
USER: SCORE 18.993358 LL:  -5.037 LR: -14.206 RR:   0.000 FEB:  -8.240
USER: RMSD 5.172490
USER: SEED 48
USER: STATUS 1 or 2 clusters left
USER: GENES 22
USER: genes 0 Translation |==|  0.62542 0.47259 0.57941
USER: genes 1 Rotation |==|  0.69496 0.13297 0.22241 0.51505
USER: genes 2 Torsion [N]-CA--C-[N] |==|  0.36149
USER: genes 3 Torsion [C]-N--CA-[C] |==|  0.72306
USER: genes 4 Torsion [N]-CA--C-[N] |==|  0.31434
USER: genes 5 Torsion [N]-CA--C-[O] |==|  0.90499
USER: genes 6 Torsion [C]-N--CA-[CB] |==|  0.41907
USER: genes 7 Torsion [N]-CA--CB-[SG] |==|  0.20725
USER: genes 8 Torsion [CA]-CB--SG-[HG] |==|  0.15606
USER: genes 9 Torsion [N]-CA--C-[OXT] |==|  0.47454
USER: genes 10 Torsion [N]-CA--CB-[CG1] |==|  0.47944
USER: genes 11 Torsion [C]-CA--CB-[CG2] |==|  0.17693
USER: genes 12 Torsion [CA]-CB--CG1-[CD1] |==|  0.48532
USER: genes 13 Torsion [C]-CA--N-[C] |==|  0.84444
USER: genes 14 Torsion [N]-C--CA-[N] |==|  0.12980
USER: genes 15 Torsion [C]-CA--N-[C] |==|  0.14814
USER: genes 16 Torsion [N]-C--CA-[N] |==|  0.85893
USER: genes 17 Torsion [C]-CA--CB-[CG] |==|  0.51457
USER: genes 18 Torsion [CA]-CB--CG-[OD2] |==|  0.62425
USER: genes 19 Torsion [C]-CA--N-[H1] |==|  0.68664
USER: genes 20 Torsion [C]-CA--CB-[CG] |==|  0.50697
USER: genes 21 Torsion [CA]-CB--CG-[OD1] |==|  0.98974
ROOT
ATOM      1  CA  ILE E   3     -24.484  26.779   6.628  1.00 36.34 LIG 0.18  C 
ENDROOT
BRANCH 1 2
ATOM      2  C   ILE E   3     -24.749  26.046   5.320  1.00 39.45 LIG 0.24  C 
ATOM      3  N   VAL E   4     -23.724  25.951   4.471  1.00 32.94 LIG-0.35  N 
ATOM      4 H    VAL E   4     -22.926  26.213   4.653  1.00 32.94 LIG 0.16  HD
ATOM      5 O    ILE E   3     -25.863  25.592   5.081  1.00 42.21 LIG-0.27  OA
BRANCH 3 6
ATOM      6  CA  VAL E   4     -23.881  25.380   3.138  1.00 33.21 LIG 0.18  C 
BRANCH 6 7
ATOM      7  C   VAL E   4     -23.396  23.928   3.131  1.00 35.41 LIG 0.24  C 
ATOM      8 O    VAL E   4     -22.200  23.671   3.316  1.00 29.15 LIG-0.27  OA
ATOM      9  N   PRO E   5     -24.322  22.975   2.935  1.00 36.11 LIG-0.34  N 
ATOM     10  CA  PRO E   5     -23.924  21.564   2.851  1.00 34.10 LIG 0.18  C 
ATOM     11  CD  PRO E   5     -25.787  23.156   2.866  1.00 37.00 LIG 0.13  C 
ATOM     12  CB  PRO E   5     -25.263  20.822   2.666  1.00 38.74 LIG 0.04  C 
ATOM     13  CG  PRO E   5     -26.316  21.773   3.183  1.00 43.00 LIG 0.02  C 
BRANCH 10 14
ATOM     14  C   PRO E   5     -23.038  21.379   1.628  1.00 34.89 LIG 0.24  C 
ATOM     15  N   CYS E   6     -22.042  20.506   1.697  1.00 33.29 LIG-0.34  N 
ATOM     16 H    CYS E   6     -21.872  20.010   2.379  1.00 33.29 LIG 0.16  HD
ATOM     17 O    PRO E   5     -23.263  22.058   0.624  1.00 33.04 LIG-0.27  OA
BRANCH 15 18
ATOM     18  CA  CYS E   6     -21.131  20.330   0.559  1.00 33.63 LIG 0.19  C 
BRANCH 18 19
ATOM     19  CB  CYS E   6     -19.739  19.895   1.034  1.00 31.18 LIG 0.11  C 
BRANCH 19 20
ATOM     20 SG   CYS E   6     -19.682  18.131   1.564  1.00 33.89 LIG-0.18  SA
ATOM     21 HG   CYS E   6     -20.063  17.430   0.667  1.00 33.89 LIG 0.10  HD
ENDBRANCH 19 20
ENDBRANCH 18 19
BRANCH 18 22
ATOM     22  C   CYS E   6     -21.691  19.416  -0.553  1.00 36.36 LIG 0.20  C 
ATOM     23 OXT  CYS E   6     -21.161  19.261  -1.677  1.00 31.64 LIG-0.65  OA
ATOM     24 O    CYS E   6     -22.752  18.831  -0.336  1.00 36.48 LIG-0.65  OA
ENDBRANCH 18 22
ENDBRANCH 15 18
ENDBRANCH 10 14
ENDBRANCH 6 7
BRANCH 6 25
ATOM     25  CB  VAL E   4     -23.052  26.178   2.100  1.00 33.86 LIG 0.01  C 
ATOM     26  CG2 VAL E   4     -23.568  27.618   1.992  1.00 37.12 LIG 0.01  C 
ATOM     27  CG1 VAL E   4     -23.070  25.477   0.747  1.00 36.74 LIG 0.01  C 
ENDBRANCH 6 25
ENDBRANCH 3 6
ENDBRANCH 1 2
BRANCH 1 28
ATOM     28  CB  ILE E   3     -24.416  25.792   7.784  1.00 41.05 LIG 0.01  C 
ATOM     29  CG2 ILE E   3     -23.238  24.844   7.601  1.00 37.15 LIG 0.01  C 
BRANCH 28 30
ATOM     30  CG1 ILE E   3     -24.320  26.553   9.110  1.00 42.94 LIG 0.00  C 
ATOM     31  CD1 ILE E   3     -24.376  25.648  10.322  1.00 40.89 LIG 0.01  C 
ENDBRANCH 28 30
ENDBRANCH 1 28
BRANCH 1 32
ATOM     32  N   ILE E   3     -25.531  27.763   6.822  1.00 40.60 LIG-0.35  N 
ATOM     33 H    ILE E   3     -25.964  27.695   7.562  1.00 40.60 LIG 0.16  HD
ATOM     34  C   ASP E   2     -25.764  28.681   5.892  1.00 44.87 LIG 0.24  C 
ATOM     35 O    ASP E   2     -25.054  28.816   4.889  1.00 39.41 LIG-0.27  OA
BRANCH 34 36
ATOM     36  CA  ASP E   2     -26.976  29.572   6.111  1.00 43.58 LIG 0.19  C 
BRANCH 36 37
ATOM     37  N   ASP E   2     -27.023  30.079   7.473  1.00 45.35 LIG-0.34  N 
ATOM     38  C   ASP E   1     -25.990  30.711   8.013  1.00 51.19 LIG 0.25  C 
ATOM     39 O    ASP E   1     -24.942  30.913   7.408  1.00 56.05 LIG-0.27  OA
ATOM     40 H    ASP E   2     -27.766  29.934   7.881  1.00 45.35 LIG 0.16  HD
BRANCH 38 41
ATOM     41  CA  ASP E   1     -26.169  31.194   9.443  1.00 54.43 LIG 0.28  C 
BRANCH 41 42
ATOM     42  CB  ASP E   1     -26.165  29.998  10.395  1.00 57.23 LIG 0.15  C 
BRANCH 42 43
ATOM     43  CG  ASP E   1     -26.467  30.396  11.830  1.00 60.86 LIG 0.17  C 
ATOM     44 OD2  ASP E   1     -25.765  29.912  12.742  1.00 61.39 LIG-0.65  OA
ATOM     45 OD1  ASP E   1     -27.400  31.207  12.038  1.00 65.62 LIG-0.65  OA
ENDBRANCH 42 43
ENDBRANCH 41 42
BRANCH 41 46
ATOM     46  N   ASP E   1     -27.402  31.956   9.585  1.00 57.81 LIG-0.07  N 
ATOM     47 H1   ASP E   1     -27.207  32.808   9.757  1.00 57.81 LIG 0.28  HD
ATOM     48 H3   ASP E   1     -27.883  31.621  10.254  1.00 57.81 LIG 0.28  HD
ATOM     49 H2   ASP E   1     -27.870  31.906   8.830  1.00 57.81 LIG 0.28  HD
ENDBRANCH 41 46
ENDBRANCH 38 41
ENDBRANCH 36 37
BRANCH 36 50
ATOM     50  CB  ASP E   2     -26.898  30.730   5.132  1.00 41.52 LIG 0.15  C 
BRANCH 50 51
ATOM     51  CG  ASP E   2     -28.026  31.709   5.307  1.00 49.49 LIG 0.17  C 
ATOM     52 OD1  ASP E   2     -28.910  31.446   6.149  1.00 51.56 LIG-0.65  OA
ATOM     53 OD2  ASP E   2     -28.020  32.739   4.606  1.00 52.06 LIG-0.65  OA
ENDBRANCH 50 51
ENDBRANCH 36 50
ENDBRANCH 34 36
ENDBRANCH 1 32
TORSDOF 20
ENDMDL
MODEL 7
USER: ADFR SOLUTION from run 1
USER: SCORE 17.667739 LL:  -5.070 LR: -14.178 RR:   0.000 FEB:  -8.212
USER: RMSD 11.355523
USER: SEED 966501
USER: STATUS no improvement in best in 3 clusters for 5 generations
USER: GENES 22
USER: genes 0 Translation |==|  0.63576 0.35223 0.36028
USER: genes 1 Rotation |==|  0.82263 0.52765 0.88029 0.52291
USER: genes 2 Torsion [N]-CA--C-[N] |==|  0.07554
USER: genes 3 Torsion [C]-N--CA-[C] |==|  0.18295
USER: genes 4 Torsion [N]-CA--C-[N] |==|  0.30215
USER: genes 5 Torsion [N]-CA--C-[O] |==|  0.35131
USER: genes 6 Torsion [C]-N--CA-[CB] |==|  0.78085
USER: genes 7 Torsion [N]-CA--CB-[SG] |==|  0.58972
USER: genes 8 Torsion [CA]-CB--SG-[HG] |==|  0.60674
USER: genes 9 Torsion [N]-CA--C-[OXT] |==|  0.16762
USER: genes 10 Torsion [N]-CA--CB-[CG1] |==|  0.45228
USER: genes 11 Torsion [C]-CA--CB-[CG2] |==|  0.52151
USER: genes 12 Torsion [CA]-CB--CG1-[CD1] |==|  0.75169
USER: genes 13 Torsion [C]-CA--N-[C] |==|  0.73333
USER: genes 14 Torsion [N]-C--CA-[N] |==|  0.32238
USER: genes 15 Torsion [C]-CA--N-[C] |==|  0.74858
USER: genes 16 Torsion [N]-C--CA-[N] |==|  0.41226
USER: genes 17 Torsion [C]-CA--CB-[CG] |==|  0.82260
USER: genes 18 Torsion [CA]-CB--CG-[OD2] |==|  0.67446
USER: genes 19 Torsion [C]-CA--N-[H1] |==|  0.24130
USER: genes 20 Torsion [C]-CA--CB-[CG] |==|  0.20457
USER: genes 21 Torsion [CA]-CB--CG-[OD1] |==|  0.70828
ROOT
ATOM      1  CA  ILE E   3     -24.275  23.800   2.356  1.00 36.34 LIG 0.18  C 
ENDROOT
BRANCH 1 2
ATOM      2  C   ILE E   3     -24.416  24.964   3.327  1.00 39.45 LIG 0.24  C 
ATOM      3  N   VAL E   4     -23.293  25.417   3.884  1.00 32.94 LIG-0.35  N 
ATOM      4 H    VAL E   4     -22.507  25.139   3.673  1.00 32.94 LIG 0.16  HD
ATOM      5 O    ILE E   3     -25.524  25.428   3.576  1.00 42.21 LIG-0.27  OA
BRANCH 3 6
ATOM      6  CA  VAL E   4     -23.307  26.446   4.918  1.00 33.21 LIG 0.18  C 
BRANCH 6 7
ATOM      7  C   VAL E   4     -23.982  25.907   6.182  1.00 35.41 LIG 0.24  C 
ATOM      8 O    VAL E   4     -25.201  25.698   6.195  1.00 29.15 LIG-0.27  OA
ATOM      9  N   PRO E   5     -23.192  25.663   7.240  1.00 36.11 LIG-0.34  N 
ATOM     10  CA  PRO E   5     -23.774  25.207   8.509  1.00 34.10 LIG 0.18  C 
ATOM     11  CD  PRO E   5     -21.716  25.722   7.284  1.00 37.00 LIG 0.13  C 
ATOM     12  CB  PRO E   5     -22.547  25.014   9.421  1.00 38.74 LIG 0.04  C 
ATOM     13  CG  PRO E   5     -21.376  24.859   8.481  1.00 43.00 LIG 0.02  C 
BRANCH 10 14
ATOM     14  C   PRO E   5     -24.678  26.303   9.053  1.00 34.89 LIG 0.24  C 
ATOM     15  N   CYS E   6     -24.169  27.517   9.217  1.00 33.29 LIG-0.34  N 
ATOM     16 H    CYS E   6     -23.364  27.742   9.011  1.00 33.29 LIG 0.16  HD
ATOM     17 O    PRO E   5     -25.843  26.023   9.342  1.00 33.04 LIG-0.27  OA
BRANCH 15 18
ATOM     18  CA  CYS E   6     -24.989  28.593   9.786  1.00 33.63 LIG 0.19  C 
BRANCH 18 19
ATOM     19  CB  CYS E   6     -25.938  29.175   8.730  1.00 31.18 LIG 0.11  C 
BRANCH 19 20
ATOM     20 SG   CYS E   6     -26.267  30.972   8.977  1.00 33.89 LIG-0.18  SA
ATOM     21 HG   CYS E   6     -27.418  31.207   8.727  1.00 33.89 LIG 0.10  HD
ENDBRANCH 19 20
ENDBRANCH 18 19
BRANCH 18 22
ATOM     22  C   CYS E   6     -25.721  28.198  11.088  1.00 36.36 LIG 0.20  C 
ATOM     23 OXT  CYS E   6     -25.149  27.832  12.140  1.00 31.64 LIG-0.65  OA
ATOM     24 O    CYS E   6     -26.952  28.206  11.080  1.00 36.48 LIG-0.65  OA
ENDBRANCH 18 22
ENDBRANCH 15 18
ENDBRANCH 10 14
ENDBRANCH 6 7
BRANCH 6 25
ATOM     25  CB  VAL E   4     -24.092  27.693   4.438  1.00 33.86 LIG 0.01  C 
ATOM     26  CG2 VAL E   4     -23.279  28.473   3.397  1.00 37.12 LIG 0.01  C 
ATOM     27  CG1 VAL E   4     -24.473  28.575   5.622  1.00 36.74 LIG 0.01  C 
ENDBRANCH 6 25
ENDBRANCH 3 6
ENDBRANCH 1 2
BRANCH 1 28
ATOM     28  CB  ILE E   3     -25.528  22.937   2.374  1.00 41.05 LIG 0.01  C 
ATOM     29  CG2 ILE E   3     -25.313  21.675   1.551  1.00 37.15 LIG 0.01  C 
BRANCH 28 30
ATOM     30  CG1 ILE E   3     -25.906  22.605   3.820  1.00 42.94 LIG 0.00  C 
ATOM     31  CD1 ILE E   3     -25.254  21.337   4.330  1.00 40.89 LIG 0.01  C 
ENDBRANCH 28 30
ENDBRANCH 1 28
BRANCH 1 32
ATOM     32  N   ILE E   3     -23.094  23.041   2.719  1.00 40.60 LIG-0.35  N 
ATOM     33 H    ILE E   3     -23.211  22.459   3.341  1.00 40.60 LIG 0.16  HD
ATOM     34  C   ASP E   2     -21.939  23.269   2.105  1.00 44.87 LIG 0.24  C 
ATOM     35 O    ASP E   2     -21.831  24.039   1.144  1.00 39.41 LIG-0.27  OA
BRANCH 34 36
ATOM     36  CA  ASP E   2     -20.726  22.538   2.655  1.00 43.58 LIG 0.19  C 
BRANCH 36 37
ATOM     37  N   ASP E   2     -20.178  21.610   1.678  1.00 45.35 LIG-0.34  N 
ATOM     38  C   ASP E   1     -20.582  20.349   1.618  1.00 51.19 LIG 0.25  C 
ATOM     39 O    ASP E   1     -21.438  19.886   2.367  1.00 56.05 LIG-0.27  OA
ATOM     40 H    ASP E   2     -19.583  21.950   1.158  1.00 45.35 LIG 0.16  HD
BRANCH 38 41
ATOM     41  CA  ASP E   1     -19.934  19.484   0.550  1.00 54.43 LIG 0.28  C 
BRANCH 41 42
ATOM     42  CB  ASP E   1     -20.735  19.583  -0.748  1.00 57.23 LIG 0.15  C 
BRANCH 42 43
ATOM     43  CG  ASP E   1     -22.143  19.030  -0.606  1.00 60.86 LIG 0.17  C 
ATOM     44 OD2  ASP E   1     -22.467  18.041  -1.295  1.00 61.39 LIG-0.65  OA
ATOM     45 OD1  ASP E   1     -22.918  19.582   0.211  1.00 65.62 LIG-0.65  OA
ENDBRANCH 42 43
ENDBRANCH 41 42
BRANCH 41 46
ATOM     46  N   ASP E   1     -19.839  18.098   0.988  1.00 57.81 LIG-0.07  N 
ATOM     47 H1   ASP E   1     -20.593  17.670   0.787  1.00 57.81 LIG 0.28  HD
ATOM     48 H3   ASP E   1     -19.711  18.073   1.868  1.00 57.81 LIG 0.28  HD
ATOM     49 H2   ASP E   1     -19.155  17.703   0.579  1.00 57.81 LIG 0.28  HD
ENDBRANCH 41 46
ENDBRANCH 38 41
ENDBRANCH 36 37
BRANCH 36 50
ATOM     50  CB  ASP E   2     -19.677  23.571   3.030  1.00 41.52 LIG 0.15  C 
BRANCH 50 51
ATOM     51  CG  ASP E   2     -20.032  24.321   4.284  1.00 49.49 LIG 0.17  C 
ATOM     52 OD1  ASP E   2     -20.441  25.496   4.174  1.00 51.56 LIG-0.65  OA
ATOM     53 OD2  ASP E   2     -19.906  23.730   5.374  1.00 52.06 LIG-0.65  OA
ENDBRANCH 50 51
ENDBRANCH 36 50
ENDBRANCH 34 36
ENDBRANCH 1 32
TORSDOF 20
ENDMDL
MODEL 8
USER: ADFR SOLUTION from run 174
USER: SCORE 18.080998 LL:  -4.626 LR: -14.053 RR:   0.000 FEB:  -8.087
USER: RMSD 2.651566
USER: SEED 173
USER: STATUS no improvement in best in 3 clusters for 5 generations
USER: GENES 22
USER: genes 0 Translation |==|  0.52671 0.60614 0.42845
USER: genes 1 Rotation |==|  0.45161 0.59290 0.55307 0.98602
USER: genes 2 Torsion [N]-CA--C-[N] |==|  0.32399
USER: genes 3 Torsion [C]-N--CA-[C] |==|  0.67618
USER: genes 4 Torsion [N]-CA--C-[N] |==|  0.35557
USER: genes 5 Torsion [N]-CA--C-[O] |==|  0.91762
USER: genes 6 Torsion [C]-N--CA-[CB] |==|  0.33261
USER: genes 7 Torsion [N]-CA--CB-[SG] |==|  0.85503
USER: genes 8 Torsion [CA]-CB--SG-[HG] |==|  0.03800
USER: genes 9 Torsion [N]-CA--C-[OXT] |==|  0.26253
USER: genes 10 Torsion [N]-CA--CB-[CG1] |==|  0.06388
USER: genes 11 Torsion [C]-CA--CB-[CG2] |==|  0.26756
USER: genes 12 Torsion [CA]-CB--CG1-[CD1] |==|  0.80012
USER: genes 13 Torsion [C]-CA--N-[C] |==|  0.70246
USER: genes 14 Torsion [N]-C--CA-[N] |==|  0.48099
USER: genes 15 Torsion [C]-CA--N-[C] |==|  0.54372
USER: genes 16 Torsion [N]-C--CA-[N] |==|  0.83427
USER: genes 17 Torsion [C]-CA--CB-[CG] |==|  0.44312
USER: genes 18 Torsion [CA]-CB--CG-[OD2] |==|  0.04574
USER: genes 19 Torsion [C]-CA--N-[H1] |==|  0.37338
USER: genes 20 Torsion [C]-CA--CB-[CG] |==|  0.25179
USER: genes 21 Torsion [CA]-CB--CG-[OD1] |==|  0.18963
ROOT
ATOM      1  CA  ILE E   3     -26.483  30.084   3.685  1.00 36.34 LIG 0.18  C 
ENDROOT
BRANCH 1 2
ATOM      2  C   ILE E   3     -25.190  29.317   3.444  1.00 39.45 LIG 0.24  C 
ATOM      3  N   VAL E   4     -25.182  28.032   3.803  1.00 32.94 LIG-0.35  N 
ATOM      4 H    VAL E   4     -25.873  27.611   4.090  1.00 32.94 LIG 0.16  HD
ATOM      5 O    ILE E   3     -24.218  29.884   2.956  1.00 42.21 LIG-0.27  OA
BRANCH 3 6
ATOM      6  CA  VAL E   4     -23.971  27.223   3.734  1.00 33.21 LIG 0.18  C 
BRANCH 6 7
ATOM      7  C   VAL E   4     -24.158  26.086   2.727  1.00 35.41 LIG 0.24  C 
ATOM      8 O    VAL E   4     -25.149  25.350   2.797  1.00 29.15 LIG-0.27  OA
ATOM      9  N   PRO E   5     -23.217  25.950   1.777  1.00 36.11 LIG-0.34  N 
ATOM     10  CA  PRO E   5     -23.293  24.843   0.814  1.00 34.10 LIG 0.18  C 
ATOM     11  CD  PRO E   5     -22.087  26.861   1.504  1.00 37.00 LIG 0.13  C 
ATOM     12  CB  PRO E   5     -22.074  25.075  -0.100  1.00 38.74 LIG 0.04  C 
ATOM     13  CG  PRO E   5     -21.726  26.534   0.070  1.00 43.00 LIG 0.02  C 
BRANCH 10 14
ATOM     14  C   PRO E   5     -23.153  23.529   1.569  1.00 34.89 LIG 0.24  C 
ATOM     15  N   CYS E   6     -23.773  22.458   1.091  1.00 33.29 LIG-0.34  N 
ATOM     16 H    CYS E   6     -24.231  22.442   0.363  1.00 33.29 LIG 0.16  HD
ATOM     17 O    PRO E   5     -22.487  23.509   2.606  1.00 33.04 LIG-0.27  OA
BRANCH 15 18
ATOM     18  CA  CYS E   6     -23.706  21.181   1.812  1.00 33.63 LIG 0.19  C 
BRANCH 18 19
ATOM     19  CB  CYS E   6     -25.108  20.708   2.219  1.00 31.18 LIG 0.11  C 
BRANCH 19 20
ATOM     20 SG   CYS E   6     -26.062  21.997   3.129  1.00 33.89 LIG-0.18  SA
ATOM     21 HG   CYS E   6     -25.518  23.060   3.007  1.00 33.89 LIG 0.10  HD
ENDBRANCH 19 20
ENDBRANCH 18 19
BRANCH 18 22
ATOM     22  C   CYS E   6     -22.903  20.088   1.073  1.00 36.36 LIG 0.20  C 
ATOM     23 OXT  CYS E   6     -21.689  19.846   1.268  1.00 31.64 LIG-0.65  OA
ATOM     24 O    CYS E   6     -23.484  19.436   0.205  1.00 36.48 LIG-0.65  OA
ENDBRANCH 18 22
ENDBRANCH 15 18
ENDBRANCH 10 14
ENDBRANCH 6 7
BRANCH 6 25
ATOM     25  CB  VAL E   4     -23.648  26.603   5.118  1.00 33.86 LIG 0.01  C 
ATOM     26  CG2 VAL E   4     -22.994  25.227   4.952  1.00 37.12 LIG 0.01  C 
ATOM     27  CG1 VAL E   4     -24.906  26.523   5.975  1.00 36.74 LIG 0.01  C 
ENDBRANCH 6 25
ENDBRANCH 3 6
ENDBRANCH 1 2
BRANCH 1 28
ATOM     28  CB  ILE E   3     -27.026  30.634   2.374  1.00 41.05 LIG 0.01  C 
ATOM     29  CG2 ILE E   3     -28.080  29.695   1.803  1.00 37.15 LIG 0.01  C 
BRANCH 28 30
ATOM     30  CG1 ILE E   3     -27.591  32.040   2.598  1.00 42.94 LIG 0.00  C 
ATOM     31  CD1 ILE E   3     -28.891  32.043   3.374  1.00 40.89 LIG 0.01  C 
ENDBRANCH 28 30
ENDBRANCH 1 28
BRANCH 1 32
ATOM     32  N   ILE E   3     -26.218  31.139   4.643  1.00 40.60 LIG-0.35  N 
ATOM     33 H    ILE E   3     -25.761  31.801   4.339  1.00 40.60 LIG 0.16  HD
ATOM     34  C   ASP E   2     -26.670  31.040   5.887  1.00 44.87 LIG 0.24  C 
ATOM     35 O    ASP E   2     -27.413  30.125   6.260  1.00 39.41 LIG-0.27  OA
BRANCH 34 36
ATOM     36  CA  ASP E   2     -26.215  32.116   6.859  1.00 43.58 LIG 0.19  C 
BRANCH 36 37
ATOM     37  N   ASP E   2     -26.896  31.997   8.139  1.00 45.35 LIG-0.34  N 
ATOM     38  C   ASP E   1     -26.893  32.988   9.020  1.00 51.19 LIG 0.25  C 
ATOM     39 O    ASP E   1     -26.330  34.060   8.816  1.00 56.05 LIG-0.27  OA
ATOM     40 H    ASP E   2     -27.289  31.243   8.264  1.00 45.35 LIG 0.16  HD
BRANCH 38 41
ATOM     41  CA  ASP E   1     -27.644  32.738  10.317  1.00 54.43 LIG 0.28  C 
BRANCH 41 42
ATOM     42  CB  ASP E   1     -26.993  31.579  11.073  1.00 57.23 LIG 0.15  C 
BRANCH 42 43
ATOM     43  CG  ASP E   1     -27.341  31.582  12.552  1.00 60.86 LIG 0.17  C 
ATOM     44 OD2  ASP E   1     -28.310  32.270  12.935  1.00 61.39 LIG-0.65  OA
ATOM     45 OD1  ASP E   1     -26.649  30.879  13.326  1.00 65.62 LIG-0.65  OA
ENDBRANCH 42 43
ENDBRANCH 41 42
BRANCH 41 46
ATOM     46  N   ASP E   1     -29.049  32.456  10.060  1.00 57.81 LIG-0.07  N 
ATOM     47 H1   ASP E   1     -29.305  31.754  10.543  1.00 57.81 LIG 0.28  HD
ATOM     48 H3   ASP E   1     -29.163  32.278   9.196  1.00 57.81 LIG 0.28  HD
ATOM     49 H2   ASP E   1     -29.540  33.165  10.282  1.00 57.81 LIG 0.28  HD
ENDBRANCH 41 46
ENDBRANCH 38 41
ENDBRANCH 36 37
BRANCH 36 50
ATOM     50  CB  ASP E   2     -24.716  31.976   7.057  1.00 41.52 LIG 0.15  C 
BRANCH 50 51
ATOM     51  CG  ASP E   2     -23.927  32.802   6.079  1.00 49.49 LIG 0.17  C 
ATOM     52 OD1  ASP E   2     -23.976  34.045   6.181  1.00 51.56 LIG-0.65  OA
ATOM     53 OD2  ASP E   2     -23.257  32.203   5.216  1.00 52.06 LIG-0.65  OA
ENDBRANCH 50 51
ENDBRANCH 36 50
ENDBRANCH 34 36
ENDBRANCH 1 32
TORSDOF 20
ENDMDL
MODEL 9
USER: ADFR SOLUTION from run 119
USER: SCORE 18.222541 LL:  -4.880 LR: -14.036 RR:   0.000 FEB:  -8.070
USER: RMSD 5.435036
USER: SEED 118
USER: STATUS no improvement in best in 6 clusters for 5 generations
USER: GENES 22
USER: genes 0 Translation |==|  0.62539 0.48496 0.53435
USER: genes 1 Rotation |==|  0.28332 0.88921 0.72557 0.52616
USER: genes 2 Torsion [N]-CA--C-[N] |==|  0.36462
USER: genes 3 Torsion [C]-N--CA-[C] |==|  0.74624
USER: genes 4 Torsion [N]-CA--C-[N] |==|  0.30032
USER: genes 5 Torsion [N]-CA--C-[O] |==|  0.39127
USER: genes 6 Torsion [C]-N--CA-[CB] |==|  0.83882
USER: genes 7 Torsion [N]-CA--CB-[SG] |==|  0.31167
USER: genes 8 Torsion [CA]-CB--SG-[HG] |==|  0.08574
USER: genes 9 Torsion [N]-CA--C-[OXT] |==|  0.48917
USER: genes 10 Torsion [N]-CA--CB-[CG1] |==|  0.55271
USER: genes 11 Torsion [C]-CA--CB-[CG2] |==|  0.13747
USER: genes 12 Torsion [CA]-CB--CG1-[CD1] |==|  0.47305
USER: genes 13 Torsion [C]-CA--N-[C] |==|  0.64445
USER: genes 14 Torsion [N]-C--CA-[N] |==|  0.87592
USER: genes 15 Torsion [C]-CA--N-[C] |==|  0.68594
USER: genes 16 Torsion [N]-C--CA-[N] |==|  0.28766
USER: genes 17 Torsion [C]-CA--CB-[CG] |==|  0.71213
USER: genes 18 Torsion [CA]-CB--CG-[OD2] |==|  0.12892
USER: genes 19 Torsion [C]-CA--N-[H1] |==|  0.76177
USER: genes 20 Torsion [C]-CA--CB-[CG] |==|  0.14083
USER: genes 21 Torsion [CA]-CB--CG-[OD1] |==|  0.71912
ROOT
ATOM      1  CA  ILE E   3     -24.485  27.085   5.750  1.00 36.34 LIG 0.18  C 
ENDROOT
BRANCH 1 2
ATOM      2  C   ILE E   3     -24.471  26.186   4.521  1.00 39.45 LIG 0.24  C 
ATOM      3  N   VAL E   4     -23.277  25.914   3.993  1.00 32.94 LIG-0.35  N 
ATOM      4 H    VAL E   4     -22.531  26.156   4.345  1.00 32.94 LIG 0.16  HD
ATOM      5 O    ILE E   3     -25.523  25.763   4.054  1.00 42.21 LIG-0.27  OA
BRANCH 3 6
ATOM      6  CA  VAL E   4     -23.138  25.166   2.749  1.00 33.21 LIG 0.18  C 
BRANCH 6 7
ATOM      7  C   VAL E   4     -23.006  23.671   3.050  1.00 35.41 LIG 0.24  C 
ATOM      8 O    VAL E   4     -21.972  23.229   3.565  1.00 29.15 LIG-0.27  OA
ATOM      9  N   PRO E   5     -24.057  22.891   2.747  1.00 36.11 LIG-0.34  N 
ATOM     10  CA  PRO E   5     -23.982  21.438   2.946  1.00 34.10 LIG 0.18  C 
ATOM     11  CD  PRO E   5     -25.389  23.330   2.283  1.00 37.00 LIG 0.13  C 
ATOM     12  CB  PRO E   5     -25.379  20.942   2.522  1.00 38.74 LIG 0.04  C 
ATOM     13  CG  PRO E   5     -26.276  22.152   2.628  1.00 43.00 LIG 0.02  C 
BRANCH 10 14
ATOM     14  C   PRO E   5     -22.912  20.873   2.024  1.00 34.89 LIG 0.24  C 
ATOM     15  N   CYS E   6     -22.823  21.358   0.792  1.00 33.29 LIG-0.34  N 
ATOM     16 H    CYS E   6     -23.310  21.993   0.479  1.00 33.29 LIG 0.16  HD
ATOM     17 O    PRO E   5     -22.181  19.975   2.443  1.00 33.04 LIG-0.27  OA
BRANCH 15 18
ATOM     18  CA  CYS E   6     -21.838  20.809  -0.149  1.00 33.63 LIG 0.19  C 
BRANCH 18 19
ATOM     19  CB  CYS E   6     -20.416  20.933   0.411  1.00 31.18 LIG 0.11  C 
BRANCH 19 20
ATOM     20 SG   CYS E   6     -19.661  19.301   0.818  1.00 33.89 LIG-0.18  SA
ATOM     21 HG   CYS E   6     -20.092  18.463   0.073  1.00 33.89 LIG 0.10  HD
ENDBRANCH 19 20
ENDBRANCH 18 19
BRANCH 18 22
ATOM     22  C   CYS E   6     -22.164  19.377  -0.629  1.00 36.36 LIG 0.20  C 
ATOM     23 OXT  CYS E   6     -21.500  18.747  -1.483  1.00 31.64 LIG-0.65  OA
ATOM     24 O    CYS E   6     -23.168  18.832  -0.170  1.00 36.48 LIG-0.65  OA
ENDBRANCH 18 22
ENDBRANCH 15 18
ENDBRANCH 10 14
ENDBRANCH 6 7
BRANCH 6 25
ATOM     25  CB  VAL E   4     -21.877  25.622   1.973  1.00 33.86 LIG 0.01  C 
ATOM     26  CG2 VAL E   4     -21.673  27.135   2.118  1.00 37.12 LIG 0.01  C 
ATOM     27  CG1 VAL E   4     -21.970  25.211   0.508  1.00 36.74 LIG 0.01  C 
ENDBRANCH 6 25
ENDBRANCH 3 6
ENDBRANCH 1 2
BRANCH 1 28
ATOM     28  CB  ILE E   3     -24.775  26.269   7.000  1.00 41.05 LIG 0.01  C 
ATOM     29  CG2 ILE E   3     -23.869  25.046   7.056  1.00 37.15 LIG 0.01  C 
BRANCH 28 30
ATOM     30  CG1 ILE E   3     -24.605  27.147   8.243  1.00 42.94 LIG 0.00  C 
ATOM     31  CD1 ILE E   3     -25.098  26.486   9.513  1.00 40.89 LIG 0.01  C 
ENDBRANCH 28 30
ENDBRANCH 1 28
BRANCH 1 32
ATOM     32  N   ILE E   3     -25.473  28.126   5.545  1.00 40.60 LIG-0.35  N 
ATOM     33 H    ILE E   3     -26.254  27.848   5.318  1.00 40.60 LIG 0.16  HD
ATOM     34  C   ASP E   2     -25.142  29.401   5.708  1.00 44.87 LIG 0.24  C 
ATOM     35 O    ASP E   2     -24.039  29.759   6.136  1.00 39.41 LIG-0.27  OA
BRANCH 34 36
ATOM     36  CA  ASP E   2     -26.196  30.427   5.324  1.00 43.58 LIG 0.19  C 
BRANCH 36 37
ATOM     37  N   ASP E   2     -26.817  30.099   4.051  1.00 45.35 LIG-0.34  N 
ATOM     38  C   ASP E   1     -26.645  30.860   2.979  1.00 51.19 LIG 0.25  C 
ATOM     39 O    ASP E   1     -25.954  31.875   2.986  1.00 56.05 LIG-0.27  OA
ATOM     40 H    ASP E   2     -27.293  29.383   4.061  1.00 45.35 LIG 0.16  HD
BRANCH 38 41
ATOM     41  CA  ASP E   1     -27.345  30.406   1.710  1.00 54.43 LIG 0.28  C 
BRANCH 41 42
ATOM     42  CB  ASP E   1     -26.375  30.485   0.530  1.00 57.23 LIG 0.15  C 
BRANCH 42 43
ATOM     43  CG  ASP E   1     -26.641  31.686  -0.361  1.00 60.86 LIG 0.17  C 
ATOM     44 OD2  ASP E   1     -26.821  32.799   0.177  1.00 61.39 LIG-0.65  OA
ATOM     45 OD1  ASP E   1     -26.653  31.514  -1.603  1.00 65.62 LIG-0.65  OA
ENDBRANCH 42 43
ENDBRANCH 41 42
BRANCH 41 46
ATOM     46  N   ASP E   1     -28.531  31.211   1.452  1.00 57.81 LIG-0.07  N 
ATOM     47 H1   ASP E   1     -29.223  30.872   1.897  1.00 57.81 LIG 0.28  HD
ATOM     48 H3   ASP E   1     -28.709  31.207   0.580  1.00 57.81 LIG 0.28  HD
ATOM     49 H2   ASP E   1     -28.386  32.047   1.720  1.00 57.81 LIG 0.28  HD
ENDBRANCH 41 46
ENDBRANCH 38 41
ENDBRANCH 36 37
BRANCH 36 50
ATOM     50  CB  ASP E   2     -27.249  30.461   6.418  1.00 41.52 LIG 0.15  C 
BRANCH 50 51
ATOM     51  CG  ASP E   2     -26.649  30.618   7.788  1.00 49.49 LIG 0.17  C 
ATOM     52 OD1  ASP E   2     -26.543  29.603   8.507  1.00 51.56 LIG-0.65  OA
ATOM     53 OD2  ASP E   2     -26.281  31.757   8.137  1.00 52.06 LIG-0.65  OA
ENDBRANCH 50 51
ENDBRANCH 36 50
ENDBRANCH 34 36
ENDBRANCH 1 32
TORSDOF 20
ENDMDL
MODEL 10
USER: ADFR SOLUTION from run 76
USER: SCORE 17.435907 LL:  -4.317 LR: -13.877 RR:   0.000 FEB:  -7.911
USER: RMSD 5.918157
USER: SEED 75
USER: STATUS no improvement in best in 6 clusters for 5 generations
USER: GENES 22
USER: genes 0 Translation |==|  0.67178 0.42346 0.33779
USER: genes 1 Rotation |==|  0.44928 0.36823 0.37918 0.96419
USER: genes 2 Torsion [N]-CA--C-[N] |==|  0.45868
USER: genes 3 Torsion [C]-N--CA-[C] |==|  0.66481
USER: genes 4 Torsion [N]-CA--C-[N] |==|  0.14232
USER: genes 5 Torsion [N]-CA--C-[O] |==|  0.99205
USER: genes 6 Torsion [C]-N--CA-[CB] |==|  0.81726
USER: genes 7 Torsion [N]-CA--CB-[SG] |==|  0.25113
USER: genes 8 Torsion [CA]-CB--SG-[HG] |==|  0.10355
USER: genes 9 Torsion [N]-CA--C-[OXT] |==|  0.26411
USER: genes 10 Torsion [N]-CA--CB-[CG1] |==|  0.79293
USER: genes 11 Torsion [C]-CA--CB-[CG2] |==|  0.24913
USER: genes 12 Torsion [CA]-CB--CG1-[CD1] |==|  0.29352
USER: genes 13 Torsion [C]-CA--N-[C] |==|  0.81667
USER: genes 14 Torsion [N]-C--CA-[N] |==|  0.29930
USER: genes 15 Torsion [C]-CA--N-[C] |==|  0.75609
USER: genes 16 Torsion [N]-C--CA-[N] |==|  0.86310
USER: genes 17 Torsion [C]-CA--CB-[CG] |==|  0.75410
USER: genes 18 Torsion [CA]-CB--CG-[OD2] |==|  0.23249
USER: genes 19 Torsion [C]-CA--N-[H1] |==|  0.82353
USER: genes 20 Torsion [C]-CA--CB-[CG] |==|  0.17782
USER: genes 21 Torsion [CA]-CB--CG-[OD1] |==|  0.63889
ROOT
ATOM      1  CA  ILE E   3     -23.545  25.563   1.917  1.00 36.34 LIG 0.18  C 
ENDROOT
BRANCH 1 2
ATOM      2  C   ILE E   3     -23.229  24.254   2.629  1.00 39.45 LIG 0.24  C 
ATOM      3  N   VAL E   4     -23.412  23.134   1.929  1.00 32.94 LIG-0.35  N 
ATOM      4 H    VAL E   4     -23.627  23.119   1.097  1.00 32.94 LIG 0.16  HD
ATOM      5 O    ILE E   3     -22.841  24.264   3.793  1.00 42.21 LIG-0.27  OA
BRANCH 3 6
ATOM      6  CA  VAL E   4     -23.259  21.816   2.534  1.00 33.21 LIG 0.18  C 
BRANCH 6 7
ATOM      7  C   VAL E   4     -22.173  21.026   1.800  1.00 35.41 LIG 0.24  C 
ATOM      8 O    VAL E   4     -22.409  19.888   1.379  1.00 29.15 LIG-0.27  OA
ATOM      9  N   PRO E   5     -20.986  21.633   1.629  1.00 36.11 LIG-0.34  N 
ATOM     10  CA  PRO E   5     -19.874  20.916   0.992  1.00 34.10 LIG 0.18  C 
ATOM     11  CD  PRO E   5     -20.648  23.036   1.945  1.00 37.00 LIG 0.13  C 
ATOM     12  CB  PRO E   5     -18.742  21.962   0.958  1.00 38.74 LIG 0.04  C 
ATOM     13  CG  PRO E   5     -19.435  23.297   1.076  1.00 43.00 LIG 0.02  C 
BRANCH 10 14
ATOM     14  C   PRO E   5     -19.486  19.736   1.871  1.00 34.89 LIG 0.24  C 
ATOM     15  N   CYS E   6     -18.548  18.907   1.435  1.00 33.29 LIG-0.34  N 
ATOM     16 H    CYS E   6     -18.116  19.000   0.696  1.00 33.29 LIG 0.16  HD
ATOM     17 O    PRO E   5     -20.068  19.581   2.946  1.00 33.04 LIG-0.27  OA
BRANCH 15 18
ATOM     18  CA  CYS E   6     -18.176  17.728   2.227  1.00 33.63 LIG 0.19  C 
BRANCH 18 19
ATOM     19  CB  CYS E   6     -17.521  18.141   3.551  1.00 31.18 LIG 0.11  C 
BRANCH 19 20
ATOM     20 SG   CYS E   6     -18.740  18.344   4.920  1.00 33.89 LIG-0.18  SA
ATOM     21 HG   CYS E   6     -19.594  17.507   4.823  1.00 33.89 LIG 0.10  HD
ENDBRANCH 19 20
ENDBRANCH 18 19
BRANCH 18 22
ATOM     22  C   CYS E   6     -19.330  16.720   2.425  1.00 36.36 LIG 0.20  C 
ATOM     23 OXT  CYS E   6     -19.524  15.713   1.705  1.00 31.64 LIG-0.65  OA
ATOM     24 O    CYS E   6     -20.137  16.941   3.328  1.00 36.48 LIG-0.65  OA
ENDBRANCH 18 22
ENDBRANCH 15 18
ENDBRANCH 10 14
ENDBRANCH 6 7
BRANCH 6 25
ATOM     25  CB  VAL E   4     -24.585  21.018   2.451  1.00 33.86 LIG 0.01  C 
ATOM     26  CG2 VAL E   4     -25.148  21.056   1.026  1.00 37.12 LIG 0.01  C 
ATOM     27  CG1 VAL E   4     -25.595  21.550   3.463  1.00 36.74 LIG 0.01  C 
ENDBRANCH 6 25
ENDBRANCH 3 6
ENDBRANCH 1 2
BRANCH 1 28
ATOM     28  CB  ILE E   3     -22.489  25.863   0.864  1.00 41.05 LIG 0.01  C 
ATOM     29  CG2 ILE E   3     -22.884  25.247  -0.471  1.00 37.15 LIG 0.01  C 
BRANCH 28 30
ATOM     30  CG1 ILE E   3     -22.293  27.377   0.746  1.00 42.94 LIG 0.00  C 
ATOM     31  CD1 ILE E   3     -21.004  27.862   1.375  1.00 40.89 LIG 0.01  C 
ENDBRANCH 28 30
ENDBRANCH 1 28
BRANCH 1 32
ATOM     32  N   ILE E   3     -23.631  26.616   2.910  1.00 40.60 LIG-0.35  N 
ATOM     33 H    ILE E   3     -23.019  27.218   2.857  1.00 40.60 LIG 0.16  HD
ATOM     34  C   ASP E   2     -24.602  26.603   3.814  1.00 44.87 LIG 0.24  C 
ATOM     35 O    ASP E   2     -25.525  25.780   3.797  1.00 39.41 LIG-0.27  OA
BRANCH 34 36
ATOM     36  CA  ASP E   2     -24.523  27.657   4.906  1.00 43.58 LIG 0.19  C 
BRANCH 36 37
ATOM     37  N   ASP E   2     -25.535  28.686   4.724  1.00 45.35 LIG-0.34  N 
ATOM     38  C   ASP E   1     -25.308  29.755   3.971  1.00 51.19 LIG 0.25  C 
ATOM     39 O    ASP E   1     -24.249  29.942   3.381  1.00 56.05 LIG-0.27  OA
ATOM     40 H    ASP E   2     -26.273  28.538   5.139  1.00 45.35 LIG 0.16  HD
BRANCH 38 41
ATOM     41  CA  ASP E   1     -26.448  30.753   3.859  1.00 54.43 LIG 0.28  C 
BRANCH 41 42
ATOM     42  CB  ASP E   1     -26.586  31.525   5.172  1.00 57.23 LIG 0.15  C 
BRANCH 42 43
ATOM     43  CG  ASP E   1     -27.507  30.831   6.161  1.00 60.86 LIG 0.17  C 
ATOM     44 OD2  ASP E   1     -27.036  29.925   6.879  1.00 61.39 LIG-0.65  OA
ATOM     45 OD1  ASP E   1     -28.701  31.208   6.226  1.00 65.62 LIG-0.65  OA
ENDBRANCH 42 43
ENDBRANCH 41 42
BRANCH 41 46
ATOM     46  N   ASP E   1     -27.698  30.083   3.527  1.00 57.81 LIG-0.07  N 
ATOM     47 H1   ASP E   1     -27.627  29.704   2.724  1.00 57.81 LIG 0.28  HD
ATOM     48 H3   ASP E   1     -28.359  30.677   3.516  1.00 57.81 LIG 0.28  HD
ATOM     49 H2   ASP E   1     -27.870  29.458   4.136  1.00 57.81 LIG 0.28  HD
ENDBRANCH 41 46
ENDBRANCH 38 41
ENDBRANCH 36 37
BRANCH 36 50
ATOM     50  CB  ASP E   2     -24.722  26.971   6.246  1.00 41.52 LIG 0.15  C 
BRANCH 50 51
ATOM     51  CG  ASP E   2     -23.624  25.993   6.559  1.00 49.49 LIG 0.17  C 
ATOM     52 OD1  ASP E   2     -23.944  24.840   6.918  1.00 51.56 LIG-0.65  OA
ATOM     53 OD2  ASP E   2     -22.445  26.379   6.439  1.00 52.06 LIG-0.65  OA
ENDBRANCH 50 51
ENDBRANCH 36 50
ENDBRANCH 34 36
ENDBRANCH 1 32
TORSDOF 20
ENDMDL
MODEL 11
USER: ADFR SOLUTION from run 36
USER: SCORE 17.895635 LL:  -4.753 LR: -13.797 RR:   0.000 FEB:  -7.831
USER: RMSD 11.855189
USER: SEED 35
USER: STATUS no improvement in best in 3 clusters for 5 generations
USER: GENES 22
USER: genes 0 Translation |==|  0.68584 0.42011 0.37403
USER: genes 1 Rotation |==|  0.47999 0.18978 0.89009 0.53457
USER: genes 2 Torsion [N]-CA--C-[N] |==|  0.43738
USER: genes 3 Torsion [C]-N--CA-[C] |==|  0.55570
USER: genes 4 Torsion [N]-CA--C-[N] |==|  0.36152
USER: genes 5 Torsion [N]-CA--C-[O] |==|  0.31926
USER: genes 6 Torsion [C]-N--CA-[CB] |==|  0.24668
USER: genes 7 Torsion [N]-CA--CB-[SG] |==|  0.17329
USER: genes 8 Torsion [CA]-CB--SG-[HG] |==|  0.94017
USER: genes 9 Torsion [N]-CA--C-[OXT] |==|  0.46768
USER: genes 10 Torsion [N]-CA--CB-[CG1] |==|  0.06413
USER: genes 11 Torsion [C]-CA--CB-[CG2] |==|  0.25950
USER: genes 12 Torsion [CA]-CB--CG1-[CD1] |==|  0.53439
USER: genes 13 Torsion [C]-CA--N-[C] |==|  0.62849
USER: genes 14 Torsion [N]-C--CA-[N] |==|  0.47955
USER: genes 15 Torsion [C]-CA--N-[C] |==|  0.56568
USER: genes 16 Torsion [N]-C--CA-[N] |==|  0.85312
USER: genes 17 Torsion [C]-CA--CB-[CG] |==|  0.56680
USER: genes 18 Torsion [CA]-CB--CG-[OD2] |==|  0.20555
USER: genes 19 Torsion [C]-CA--N-[H1] |==|  0.34537
USER: genes 20 Torsion [C]-CA--CB-[CG] |==|  0.20611
USER: genes 21 Torsion [CA]-CB--CG-[OD1] |==|  0.59046
ROOT
ATOM      1  CA  ILE E   3     -23.261  25.480   2.624  1.00 36.34 LIG 0.18  C 
ENDROOT
BRANCH 1 2
ATOM      2  C   ILE E   3     -24.330  25.838   3.647  1.00 39.45 LIG 0.24  C 
ATOM      3  N   VAL E   4     -24.011  26.774   4.541  1.00 32.94 LIG-0.35  N 
ATOM      4 H    VAL E   4     -23.278  27.223   4.524  1.00 32.94 LIG 0.16  HD
ATOM      5 O    ILE E   3     -25.414  25.264   3.632  1.00 42.21 LIG-0.27  OA
BRANCH 3 6
ATOM      6  CA  VAL E   4     -24.902  27.120   5.643  1.00 33.21 LIG 0.18  C 
BRANCH 6 7
ATOM      7  C   VAL E   4     -24.545  28.504   6.189  1.00 35.41 LIG 0.24  C 
ATOM      8 O    VAL E   4     -23.371  28.783   6.459  1.00 29.15 LIG-0.27  OA
ATOM      9  N   PRO E   5     -25.552  29.382   6.336  1.00 36.11 LIG-0.34  N 
ATOM     10  CA  PRO E   5     -25.298  30.708   6.915  1.00 34.10 LIG 0.18  C 
ATOM     11  CD  PRO E   5     -26.953  29.214   5.898  1.00 37.00 LIG 0.13  C 
ATOM     12  CB  PRO E   5     -26.679  31.392   6.868  1.00 38.74 LIG 0.04  C 
ATOM     13  CG  PRO E   5     -27.457  30.639   5.816  1.00 43.00 LIG 0.02  C 
BRANCH 10 14
ATOM     14  C   PRO E   5     -24.839  30.532   8.355  1.00 34.89 LIG 0.24  C 
ATOM     15  N   CYS E   6     -25.700  30.041   9.236  1.00 33.29 LIG-0.34  N 
ATOM     16 H    CYS E   6     -26.499  29.785   9.049  1.00 33.29 LIG 0.16  HD
ATOM     17 O    PRO E   5     -23.693  30.870   8.657  1.00 33.04 LIG-0.27  OA
BRANCH 15 18
ATOM     18  CA  CYS E   6     -25.316  29.901  10.646  1.00 33.63 LIG 0.19  C 
BRANCH 18 19
ATOM     19  CB  CYS E   6     -25.631  31.181  11.430  1.00 31.18 LIG 0.11  C 
BRANCH 19 20
ATOM     20 SG   CYS E   6     -27.430  31.579  11.460  1.00 33.89 LIG-0.18  SA
ATOM     21 HG   CYS E   6     -27.978  31.031  10.543  1.00 33.89 LIG 0.10  HD
ENDBRANCH 19 20
ENDBRANCH 18 19
BRANCH 18 22
ATOM     22  C   CYS E   6     -25.886  28.635  11.325  1.00 36.36 LIG 0.20  C 
ATOM     23 OXT  CYS E   6     -25.524  28.207  12.446  1.00 31.64 LIG-0.65  OA
ATOM     24 O    CYS E   6     -26.724  27.979  10.706  1.00 36.48 LIG-0.65  OA
ENDBRANCH 18 22
ENDBRANCH 15 18
ENDBRANCH 10 14
ENDBRANCH 6 7
BRANCH 6 25
ATOM     25  CB  VAL E   4     -24.772  26.091   6.795  1.00 33.86 LIG 0.01  C 
ATOM     26  CG2 VAL E   4     -24.984  26.771   8.152  1.00 37.12 LIG 0.01  C 
ATOM     27  CG1 VAL E   4     -23.424  25.383   6.731  1.00 36.74 LIG 0.01  C 
ENDBRANCH 6 25
ENDBRANCH 3 6
ENDBRANCH 1 2
BRANCH 1 28
ATOM     28  CB  ILE E   3     -23.224  26.515   1.510  1.00 41.05 LIG 0.01  C 
ATOM     29  CG2 ILE E   3     -22.190  27.590   1.821  1.00 37.15 LIG 0.01  C 
BRANCH 28 30
ATOM     30  CG1 ILE E   3     -22.931  25.828   0.173  1.00 42.94 LIG 0.00  C 
ATOM     31  CD1 ILE E   3     -22.583  26.800  -0.934  1.00 40.89 LIG 0.01  C 
ENDBRANCH 28 30
ENDBRANCH 1 28
BRANCH 1 32
ATOM     32  N   ILE E   3     -23.541  24.151   2.114  1.00 40.60 LIG-0.35  N 
ATOM     33 H    ILE E   3     -24.360  24.009   1.897  1.00 40.60 LIG 0.16  HD
ATOM     34  C   ASP E   2     -22.565  23.257   2.013  1.00 44.87 LIG 0.24  C 
ATOM     35 O    ASP E   2     -21.380  23.528   2.235  1.00 39.41 LIG-0.27  OA
BRANCH 34 36
ATOM     36  CA  ASP E   2     -22.978  21.849   1.616  1.00 43.58 LIG 0.19  C 
BRANCH 36 37
ATOM     37  N   ASP E   2     -21.820  21.005   1.370  1.00 45.35 LIG-0.34  N 
ATOM     38  C   ASP E   1     -21.896  19.932   0.594  1.00 51.19 LIG 0.25  C 
ATOM     39 O    ASP E   1     -22.932  19.586   0.035  1.00 56.05 LIG-0.27  OA
ATOM     40 H    ASP E   2     -21.100  21.264   1.764  1.00 45.35 LIG 0.16  HD
BRANCH 38 41
ATOM     41  CA  ASP E   1     -20.613  19.138   0.415  1.00 54.43 LIG 0.28  C 
BRANCH 41 42
ATOM     42  CB  ASP E   1     -20.252  18.440   1.726  1.00 57.23 LIG 0.15  C 
BRANCH 42 43
ATOM     43  CG  ASP E   1     -18.769  18.129   1.831  1.00 60.86 LIG 0.17  C 
ATOM     44 OD2  ASP E   1     -17.978  19.069   2.053  1.00 61.39 LIG-0.65  OA
ATOM     45 OD1  ASP E   1     -18.401  16.937   1.705  1.00 65.62 LIG-0.65  OA
ENDBRANCH 42 43
ENDBRANCH 41 42
BRANCH 41 46
ATOM     46  N   ASP E   1     -19.523  20.000  -0.022  1.00 57.81 LIG-0.07  N 
ATOM     47 H1   ASP E   1     -18.840  19.927   0.544  1.00 57.81 LIG 0.28  HD
ATOM     48 H3   ASP E   1     -19.802  20.845  -0.041  1.00 57.81 LIG 0.28  HD
ATOM     49 H2   ASP E   1     -19.261  19.757  -0.837  1.00 57.81 LIG 0.28  HD
ENDBRANCH 41 46
ENDBRANCH 38 41
ENDBRANCH 36 37
BRANCH 36 50
ATOM     50  CB  ASP E   2     -23.813  21.262   2.741  1.00 41.52 LIG 0.15  C 
BRANCH 50 51
ATOM     51  CG  ASP E   2     -25.198  21.846   2.794  1.00 49.49 LIG 0.17  C 
ATOM     52 OD1  ASP E   2     -25.747  21.964   3.910  1.00 51.56 LIG-0.65  OA
ATOM     53 OD2  ASP E   2     -25.728  22.190   1.720  1.00 52.06 LIG-0.65  OA
ENDBRANCH 50 51
ENDBRANCH 36 50
ENDBRANCH 34 36
ENDBRANCH 1 32
TORSDOF 20
ENDMDL
MODEL 12
USER: ADFR SOLUTION from run 142
USER: SCORE 17.984808 LL:  -4.856 LR: -13.706 RR:   0.000 FEB:  -7.740
USER: RMSD 5.447583
USER: SEED 141
USER: STATUS no improvement in best in 4 clusters for 5 generations
USER: GENES 22
USER: genes 0 Translation |==|  0.65072 0.48987 0.44152
USER: genes 1 Rotation |==|  0.71863 0.10580 0.29355 0.56469
USER: genes 2 Torsion [N]-CA--C-[N] |==|  0.36559
USER: genes 3 Torsion [C]-N--CA-[C] |==|  0.77203
USER: genes 4 Torsion [N]-CA--C-[N] |==|  0.28534
USER: genes 5 Torsion [N]-CA--C-[O] |==|  0.77812
USER: genes 6 Torsion [C]-N--CA-[CB] |==|  0.22288
USER: genes 7 Torsion [N]-CA--CB-[SG] |==|  0.55506
USER: genes 8 Torsion [CA]-CB--SG-[HG] |==|  0.77672
USER: genes 9 Torsion [N]-CA--C-[OXT] |==|  0.32853
USER: genes 10 Torsion [N]-CA--CB-[CG1] |==|  0.77239
USER: genes 11 Torsion [C]-CA--CB-[CG2] |==|  0.69111
USER: genes 12 Torsion [CA]-CB--CG1-[CD1] |==|  0.24671
USER: genes 13 Torsion [C]-CA--N-[C] |==|  0.58889
USER: genes 14 Torsion [N]-C--CA-[N] |==|  0.39130
USER: genes 15 Torsion [C]-CA--N-[C] |==|  0.78273
USER: genes 16 Torsion [N]-C--CA-[N] |==|  0.40816
USER: genes 17 Torsion [C]-CA--CB-[CG] |==|  0.76086
USER: genes 18 Torsion [CA]-CB--CG-[OD2] |==|  0.79498
USER: genes 19 Torsion [C]-CA--N-[H1] |==|  0.99384
USER: genes 20 Torsion [C]-CA--CB-[CG] |==|  0.00440
USER: genes 21 Torsion [CA]-CB--CG-[OD1] |==|  0.25447
ROOT
ATOM      1  CA  ILE E   3     -23.972  27.206   3.940  1.00 36.34 LIG 0.18  C 
ENDROOT
BRANCH 1 2
ATOM      2  C   ILE E   3     -24.071  26.046   2.958  1.00 39.45 LIG 0.24  C 
ATOM      3  N   VAL E   4     -22.995  25.803   2.209  1.00 32.94 LIG-0.35  N 
ATOM      4 H    VAL E   4     -22.245  26.213   2.301  1.00 32.94 LIG 0.16  HD
ATOM      5 O    ILE E   3     -25.108  25.397   2.874  1.00 42.21 LIG-0.27  OA
BRANCH 3 6
ATOM      6  CA  VAL E   4     -23.005  24.800   1.151  1.00 33.21 LIG 0.18  C 
BRANCH 6 7
ATOM      7  C   VAL E   4     -22.771  23.409   1.747  1.00 35.41 LIG 0.24  C 
ATOM      8 O    VAL E   4     -21.636  23.065   2.096  1.00 29.15 LIG-0.27  OA
ATOM      9  N   PRO E   5     -23.845  22.614   1.883  1.00 36.11 LIG-0.34  N 
ATOM     10  CA  PRO E   5     -23.692  21.243   2.386  1.00 34.10 LIG 0.18  C 
ATOM     11  CD  PRO E   5     -25.259  22.977   1.652  1.00 37.00 LIG 0.13  C 
ATOM     12  CB  PRO E   5     -25.137  20.707   2.421  1.00 38.74 LIG 0.04  C 
ATOM     13  CG  PRO E   5     -26.013  21.936   2.452  1.00 43.00 LIG 0.02  C 
BRANCH 10 14
ATOM     14  C   PRO E   5     -22.852  20.450   1.395  1.00 34.89 LIG 0.24  C 
ATOM     15  N   CYS E   6     -21.561  20.287   1.652  1.00 33.29 LIG-0.34  N 
ATOM     16 H    CYS E   6     -21.162  20.574   2.357  1.00 33.29 LIG 0.16  HD
ATOM     17 O    PRO E   5     -23.393  20.006   0.381  1.00 33.04 LIG-0.27  OA
BRANCH 15 18
ATOM     18  CA  CYS E   6     -20.702  19.572   0.699  1.00 33.63 LIG 0.19  C 
BRANCH 18 19
ATOM     19  CB  CYS E   6     -20.288  20.488  -0.459  1.00 31.18 LIG 0.11  C 
BRANCH 19 20
ATOM     20 SG   CYS E   6     -19.724  19.553  -1.945  1.00 33.89 LIG-0.18  SA
ATOM     21 HG   CYS E   6     -18.586  19.203  -1.791  1.00 33.89 LIG 0.10  HD
ENDBRANCH 19 20
ENDBRANCH 18 19
BRANCH 18 22
ATOM     22  C   CYS E   6     -19.496  18.864   1.356  1.00 36.36 LIG 0.20  C 
ATOM     23 OXT  CYS E   6     -19.299  17.627   1.330  1.00 31.64 LIG-0.65  OA
ATOM     24 O    CYS E   6     -18.694  19.557   1.982  1.00 36.48 LIG-0.65  OA
ENDBRANCH 18 22
ENDBRANCH 15 18
ENDBRANCH 10 14
ENDBRANCH 6 7
BRANCH 6 25
ATOM     25  CB  VAL E   4     -21.886  25.084   0.117  1.00 33.86 LIG 0.01  C 
ATOM     26  CG2 VAL E   4     -20.591  25.499   0.825  1.00 37.12 LIG 0.01  C 
ATOM     27  CG1 VAL E   4     -22.338  26.141  -0.884  1.00 36.74 LIG 0.01  C 
ENDBRANCH 6 25
ENDBRANCH 3 6
ENDBRANCH 1 2
BRANCH 1 28
ATOM     28  CB  ILE E   3     -23.819  26.687   5.361  1.00 41.05 LIG 0.01  C 
ATOM     29  CG2 ILE E   3     -25.074  26.987   6.171  1.00 37.15 LIG 0.01  C 
BRANCH 28 30
ATOM     30  CG1 ILE E   3     -23.516  25.186   5.335  1.00 42.94 LIG 0.00  C 
ATOM     31  CD1 ILE E   3     -22.037  24.878   5.250  1.00 40.89 LIG 0.01  C 
ENDBRANCH 28 30
ENDBRANCH 1 28
BRANCH 1 32
ATOM     32  N   ILE E   3     -25.154  28.033   3.792  1.00 40.60 LIG-0.35  N 
ATOM     33 H    ILE E   3     -25.869  27.611   3.570  1.00 40.60 LIG 0.16  HD
ATOM     34  C   ASP E   2     -25.082  29.343   3.997  1.00 44.87 LIG 0.24  C 
ATOM     35 O    ASP E   2     -24.062  29.901   4.418  1.00 39.41 LIG-0.27  OA
BRANCH 34 36
ATOM     36  CA  ASP E   2     -26.330  30.147   3.671  1.00 43.58 LIG 0.19  C 
BRANCH 36 37
ATOM     37  N   ASP E   2     -26.553  31.200   4.650  1.00 45.35 LIG-0.34  N 
ATOM     38  C   ASP E   1     -27.077  30.939   5.840  1.00 51.19 LIG 0.25  C 
ATOM     39 O    ASP E   1     -27.399  29.809   6.194  1.00 56.05 LIG-0.27  OA
ATOM     40 H    ASP E   2     -26.317  31.985   4.389  1.00 45.35 LIG 0.16  HD
BRANCH 38 41
ATOM     41  CA  ASP E   1     -27.255  32.126   6.771  1.00 54.43 LIG 0.28  C 
BRANCH 41 42
ATOM     42  CB  ASP E   1     -26.002  32.298   7.631  1.00 57.23 LIG 0.15  C 
BRANCH 42 43
ATOM     43  CG  ASP E   1     -26.037  31.443   8.886  1.00 60.86 LIG 0.17  C 
ATOM     44 OD2  ASP E   1     -26.792  31.785   9.820  1.00 61.39 LIG-0.65  OA
ATOM     45 OD1  ASP E   1     -25.317  30.417   8.927  1.00 65.62 LIG-0.65  OA
ENDBRANCH 42 43
ENDBRANCH 41 42
BRANCH 41 46
ATOM     46  N   ASP E   1     -28.433  31.957   7.612  1.00 57.81 LIG-0.07  N 
ATOM     47 H1   ASP E   1     -28.846  31.199   7.396  1.00 57.81 LIG 0.28  HD
ATOM     48 H3   ASP E   1     -28.987  32.642   7.488  1.00 57.81 LIG 0.28  HD
ATOM     49 H2   ASP E   1     -28.186  31.928   8.466  1.00 57.81 LIG 0.28  HD
ENDBRANCH 41 46
ENDBRANCH 38 41
ENDBRANCH 36 37
BRANCH 36 50
ATOM     50  CB  ASP E   2     -26.157  30.755   2.290  1.00 41.52 LIG 0.15  C 
BRANCH 50 51
ATOM     51  CG  ASP E   2     -24.856  30.363   1.648  1.00 49.49 LIG 0.17  C 
ATOM     52 OD1  ASP E   2     -24.837  29.347   0.923  1.00 51.56 LIG-0.65  OA
ATOM     53 OD2  ASP E   2     -23.858  31.078   1.867  1.00 52.06 LIG-0.65  OA
ENDBRANCH 50 51
ENDBRANCH 36 50
ENDBRANCH 34 36
ENDBRANCH 1 32
TORSDOF 20
ENDMDL
MODEL 13
USER: ADFR SOLUTION from run 154
USER: SCORE 17.082857 LL:  -4.563 LR: -13.711 RR:   0.000 FEB:  -7.745
USER: RMSD 6.494772
USER: SEED 153
USER: STATUS no improvement in best in 6 clusters for 5 generations
USER: GENES 22
USER: genes 0 Translation |==|  0.65342 0.31352 0.39487
USER: genes 1 Rotation |==|  0.47658 0.70730 0.71587 0.89985
USER: genes 2 Torsion [N]-CA--C-[N] |==|  0.96118
USER: genes 3 Torsion [C]-N--CA-[C] |==|  0.79476
USER: genes 4 Torsion [N]-CA--C-[N] |==|  0.91393
USER: genes 5 Torsion [N]-CA--C-[O] |==|  0.41850
USER: genes 6 Torsion [C]-N--CA-[CB] |==|  0.79251
USER: genes 7 Torsion [N]-CA--CB-[SG] |==|  0.67844
USER: genes 8 Torsion [CA]-CB--SG-[HG] |==|  0.77632
USER: genes 9 Torsion [N]-CA--C-[OXT] |==|  0.62851
USER: genes 10 Torsion [N]-CA--CB-[CG1] |==|  0.55647
USER: genes 11 Torsion [C]-CA--CB-[CG2] |==|  0.01356
USER: genes 12 Torsion [CA]-CB--CG1-[CD1] |==|  0.12959
USER: genes 13 Torsion [C]-CA--N-[C] |==|  0.23333
USER: genes 14 Torsion [N]-C--CA-[N] |==|  0.53460
USER: genes 15 Torsion [C]-CA--N-[C] |==|  0.65577
USER: genes 16 Torsion [N]-C--CA-[N] |==|  0.87348
USER: genes 17 Torsion [C]-CA--CB-[CG] |==|  0.54336
USER: genes 18 Torsion [CA]-CB--CG-[OD2] |==|  0.96173
USER: genes 19 Torsion [C]-CA--N-[H1] |==|  0.34809
USER: genes 20 Torsion [C]-CA--CB-[CG] |==|  0.26889
USER: genes 21 Torsion [CA]-CB--CG-[OD1] |==|  0.96226
ROOT
ATOM      1  CA  ILE E   3     -23.917  22.842   3.030  1.00 36.34 LIG 0.18  C 
ENDROOT
BRANCH 1 2
ATOM      2  C   ILE E   3     -22.828  22.971   1.974  1.00 39.45 LIG 0.24  C 
ATOM      3  N   VAL E   4     -22.146  24.117   1.957  1.00 32.94 LIG-0.35  N 
ATOM      4 H    VAL E   4     -22.241  24.740   2.541  1.00 32.94 LIG 0.16  HD
ATOM      5 O    ILE E   3     -22.623  22.056   1.184  1.00 42.21 LIG-0.27  OA
BRANCH 3 6
ATOM      6  CA  VAL E   4     -21.161  24.410   0.922  1.00 33.21 LIG 0.18  C 
BRANCH 6 7
ATOM      7  C   VAL E   4     -19.894  23.585   1.156  1.00 35.41 LIG 0.24  C 
ATOM      8 O    VAL E   4     -19.194  23.234   0.199  1.00 29.15 LIG-0.27  OA
ATOM      9  N   PRO E   5     -19.584  23.287   2.430  1.00 36.11 LIG-0.34  N 
ATOM     10  CA  PRO E   5     -18.420  22.445   2.730  1.00 34.10 LIG 0.18  C 
ATOM     11  CD  PRO E   5     -20.253  23.786   3.649  1.00 37.00 LIG 0.13  C 
ATOM     12  CB  PRO E   5     -18.405  22.387   4.271  1.00 38.74 LIG 0.04  C 
ATOM     13  CG  PRO E   5     -19.200  23.589   4.719  1.00 43.00 LIG 0.02  C 
BRANCH 10 14
ATOM     14  C   PRO E   5     -18.655  21.060   2.146  1.00 34.89 LIG 0.24  C 
ATOM     15  N   CYS E   6     -19.902  20.615   2.061  1.00 33.29 LIG-0.34  N 
ATOM     16 H    CYS E   6     -20.599  21.066   2.288  1.00 33.29 LIG 0.16  HD
ATOM     17 O    PRO E   5     -17.683  20.392   1.791  1.00 33.04 LIG-0.27  OA
BRANCH 15 18
ATOM     18  CA  CYS E   6     -20.173  19.266   1.551  1.00 33.63 LIG 0.19  C 
BRANCH 18 19
ATOM     19  CB  CYS E   6     -19.997  19.210   0.028  1.00 31.18 LIG 0.11  C 
BRANCH 19 20
ATOM     20 SG   CYS E   6     -21.567  18.834  -0.862  1.00 33.89 LIG-0.18  SA
ATOM     21 HG   CYS E   6     -21.774  17.652  -0.828  1.00 33.89 LIG 0.10  HD
ENDBRANCH 19 20
ENDBRANCH 18 19
BRANCH 18 22
ATOM     22  C   CYS E   6     -19.388  18.153   2.280  1.00 36.36 LIG 0.20  C 
ATOM     23 OXT  CYS E   6     -18.774  17.225   1.705  1.00 31.64 LIG-0.65  OA
ATOM     24 O    CYS E   6     -19.400  18.154   3.511  1.00 36.48 LIG-0.65  OA
ENDBRANCH 18 22
ENDBRANCH 15 18
ENDBRANCH 10 14
ENDBRANCH 6 7
BRANCH 6 25
ATOM     25  CB  VAL E   4     -20.778  25.912   0.940  1.00 33.86 LIG 0.01  C 
ATOM     26  CG2 VAL E   4     -21.996  26.774   1.294  1.00 37.12 LIG 0.01  C 
ATOM     27  CG1 VAL E   4     -20.171  26.326  -0.396  1.00 36.74 LIG 0.01  C 
ENDBRANCH 6 25
ENDBRANCH 3 6
ENDBRANCH 1 2
BRANCH 1 28
ATOM     28  CB  ILE E   3     -25.293  22.896   2.383  1.00 41.05 LIG 0.01  C 
ATOM     29  CG2 ILE E   3     -25.162  22.942   0.866  1.00 37.15 LIG 0.01  C 
BRANCH 28 30
ATOM     30  CG1 ILE E   3     -26.126  21.694   2.836  1.00 42.94 LIG 0.00  C 
ATOM     31  CD1 ILE E   3     -26.067  21.457   4.330  1.00 40.89 LIG 0.01  C 
ENDBRANCH 28 30
ENDBRANCH 1 28
BRANCH 1 32
ATOM     32  N   ILE E   3     -23.739  23.901   4.005  1.00 40.60 LIG-0.35  N 
ATOM     33 H    ILE E   3     -23.299  23.677   4.709  1.00 40.60 LIG 0.16  HD
ATOM     34  C   ASP E   2     -24.238  25.108   3.777  1.00 44.87 LIG 0.24  C 
ATOM     35 O    ASP E   2     -24.773  25.423   2.707  1.00 39.41 LIG-0.27  OA
BRANCH 34 36
ATOM     36  CA  ASP E   2     -24.136  26.109   4.917  1.00 43.58 LIG 0.19  C 
BRANCH 36 37
ATOM     37  N   ASP E   2     -24.960  27.281   4.670  1.00 45.35 LIG-0.34  N 
ATOM     38  C   ASP E   1     -24.444  28.503   4.672  1.00 51.19 LIG 0.25  C 
ATOM     39 O    ASP E   1     -23.254  28.724   4.873  1.00 56.05 LIG-0.27  OA
ATOM     40 H    ASP E   2     -25.790  27.109   4.526  1.00 45.35 LIG 0.16  HD
BRANCH 38 41
ATOM     41  CA  ASP E   1     -25.411  29.642   4.397  1.00 54.43 LIG 0.28  C 
BRANCH 41 42
ATOM     42  CB  ASP E   1     -26.246  29.922   5.647  1.00 57.23 LIG 0.15  C 
BRANCH 42 43
ATOM     43  CG  ASP E   1     -27.473  30.768   5.350  1.00 60.86 LIG 0.17  C 
ATOM     44 OD2  ASP E   1     -27.541  31.351   4.248  1.00 61.39 LIG-0.65  OA
ATOM     45 OD1  ASP E   1     -28.375  30.832   6.218  1.00 65.62 LIG-0.65  OA
ENDBRANCH 42 43
ENDBRANCH 41 42
BRANCH 41 46
ATOM     46  N   ASP E   1     -26.274  29.332   3.265  1.00 57.81 LIG-0.07  N 
ATOM     47 H1   ASP E   1     -27.126  29.414   3.509  1.00 57.81 LIG 0.28  HD
ATOM     48 H3   ASP E   1     -26.122  28.498   2.995  1.00 57.81 LIG 0.28  HD
ATOM     49 H2   ASP E   1     -26.101  29.894   2.597  1.00 57.81 LIG 0.28  HD
ENDBRANCH 41 46
ENDBRANCH 38 41
ENDBRANCH 36 37
BRANCH 36 50
ATOM     50  CB  ASP E   2     -24.585  25.422   6.194  1.00 41.52 LIG 0.15  C 
BRANCH 50 51
ATOM     51  CG  ASP E   2     -23.431  24.895   7.001  1.00 49.49 LIG 0.17  C 
ATOM     52 OD1  ASP E   2     -22.309  24.832   6.456  1.00 51.56 LIG-0.65  OA
ATOM     53 OD2  ASP E   2     -23.650  24.553   8.179  1.00 52.06 LIG-0.65  OA
ENDBRANCH 50 51
ENDBRANCH 36 50
ENDBRANCH 34 36
ENDBRANCH 1 32
TORSDOF 20
ENDMDL
MODEL 14
USER: ADFR SOLUTION from run 178
USER: SCORE 17.807889 LL:  -5.338 LR: -13.694 RR:   0.000 FEB:  -7.728
USER: RMSD 10.336516
USER: SEED 177
USER: STATUS no improvement in best in 2 clusters for 5 generations
USER: GENES 22
USER: genes 0 Translation |==|  0.63233 0.56236 0.39259
USER: genes 1 Rotation |==|  0.62399 0.27606 0.89012 0.67967
USER: genes 2 Torsion [N]-CA--C-[N] |==|  0.84246
USER: genes 3 Torsion [C]-N--CA-[C] |==|  0.65929
USER: genes 4 Torsion [N]-CA--C-[N] |==|  0.24246
USER: genes 5 Torsion [N]-CA--C-[O] |==|  0.42418
USER: genes 6 Torsion [C]-N--CA-[CB] |==|  0.78573
USER: genes 7 Torsion [N]-CA--CB-[SG] |==|  0.82200
USER: genes 8 Torsion [CA]-CB--SG-[HG] |==|  0.73132
USER: genes 9 Torsion [N]-CA--C-[OXT] |==|  0.56450
USER: genes 10 Torsion [N]-CA--CB-[CG1] |==|  0.77548
USER: genes 11 Torsion [C]-CA--CB-[CG2] |==|  0.38619
USER: genes 12 Torsion [CA]-CB--CG1-[CD1] |==|  0.35923
USER: genes 13 Torsion [C]-CA--N-[C] |==|  0.66504
USER: genes 14 Torsion [N]-C--CA-[N] |==|  0.40202
USER: genes 15 Torsion [C]-CA--N-[C] |==|  0.54866
USER: genes 16 Torsion [N]-C--CA-[N] |==|  0.01928
USER: genes 17 Torsion [C]-CA--CB-[CG] |==|  0.65676
USER: genes 18 Torsion [CA]-CB--CG-[OD2] |==|  0.26524
USER: genes 19 Torsion [C]-CA--N-[H1] |==|  0.79245
USER: genes 20 Torsion [C]-CA--CB-[CG] |==|  0.21449
USER: genes 21 Torsion [CA]-CB--CG-[OD1] |==|  0.01072
ROOT
ATOM      1  CA  ILE E   3     -24.344  29.000   2.986  1.00 36.34 LIG 0.18  C 
ENDROOT
BRANCH 1 2
ATOM      2  C   ILE E   3     -24.251  29.690   4.340  1.00 39.45 LIG 0.24  C 
ATOM      3  N   VAL E   4     -25.389  29.821   5.023  1.00 32.94 LIG-0.35  N 
ATOM      4 H    VAL E   4     -26.139  29.481   4.775  1.00 32.94 LIG 0.16  HD
ATOM      5 O    ILE E   3     -23.172  30.106   4.747  1.00 42.21 LIG-0.27  OA
BRANCH 3 6
ATOM      6  CA  VAL E   4     -25.453  30.566   6.275  1.00 33.21 LIG 0.18  C 
BRANCH 6 7
ATOM      7  C   VAL E   4     -25.981  29.665   7.394  1.00 35.41 LIG 0.24  C 
ATOM      8 O    VAL E   4     -27.192  29.625   7.641  1.00 29.15 LIG-0.27  OA
ATOM      9  N   PRO E   5     -25.079  28.926   8.061  1.00 36.11 LIG-0.34  N 
ATOM     10  CA  PRO E   5     -25.500  28.086   9.190  1.00 34.10 LIG 0.18  C 
ATOM     11  CD  PRO E   5     -23.643  28.774   7.747  1.00 37.00 LIG 0.13  C 
ATOM     12  CB  PRO E   5     -24.194  27.396   9.633  1.00 38.74 LIG 0.04  C 
ATOM     13  CG  PRO E   5     -23.280  27.475   8.435  1.00 43.00 LIG 0.02  C 
BRANCH 10 14
ATOM     14  C   PRO E   5     -26.031  28.986  10.296  1.00 34.89 LIG 0.24  C 
ATOM     15  N   CYS E   6     -25.551  30.219  10.390  1.00 33.29 LIG-0.34  N 
ATOM     16 H    CYS E   6     -24.976  30.563   9.851  1.00 33.29 LIG 0.16  HD
ATOM     17 O    PRO E   5     -26.870  28.534  11.077  1.00 33.04 LIG-0.27  OA
BRANCH 15 18
ATOM     18  CA  CYS E   6     -25.997  31.106  11.472  1.00 33.63 LIG 0.19  C 
BRANCH 18 19
ATOM     19  CB  CYS E   6     -27.392  31.672  11.177  1.00 31.18 LIG 0.11  C 
BRANCH 19 20
ATOM     20 SG   CYS E   6     -27.425  32.752   9.683  1.00 33.89 LIG-0.18  SA
ATOM     21 HG   CYS E   6     -27.335  33.902  10.018  1.00 33.89 LIG 0.10  HD
ENDBRANCH 19 20
ENDBRANCH 18 19
BRANCH 18 22
ATOM     22  C   CYS E   6     -25.899  30.474  12.878  1.00 36.36 LIG 0.20  C 
ATOM     23 OXT  CYS E   6     -26.574  30.838  13.868  1.00 31.64 LIG-0.65  OA
ATOM     24 O    CYS E   6     -25.072  29.578  13.049  1.00 36.48 LIG-0.65  OA
ENDBRANCH 18 22
ENDBRANCH 15 18
ENDBRANCH 10 14
ENDBRANCH 6 7
BRANCH 6 25
ATOM     25  CB  VAL E   4     -26.401  31.784   6.139  1.00 33.86 LIG 0.01  C 
ATOM     26  CG2 VAL E   4     -27.678  31.392   5.386  1.00 37.12 LIG 0.01  C 
ATOM     27  CG1 VAL E   4     -25.686  32.945   5.456  1.00 36.74 LIG 0.01  C 
ENDBRANCH 6 25
ENDBRANCH 3 6
ENDBRANCH 1 2
BRANCH 1 28
ATOM     28  CB  ILE E   3     -25.157  29.844   2.015  1.00 41.05 LIG 0.01  C 
ATOM     29  CG2 ILE E   3     -24.513  29.830   0.635  1.00 37.15 LIG 0.01  C 
BRANCH 28 30
ATOM     30  CG1 ILE E   3     -26.599  29.332   1.965  1.00 42.94 LIG 0.00  C 
ATOM     31  CD1 ILE E   3     -27.628  30.425   2.161  1.00 40.89 LIG 0.01  C 
ENDBRANCH 28 30
ENDBRANCH 1 28
BRANCH 1 32
ATOM     32  N   ILE E   3     -24.930  27.688   3.179  1.00 40.60 LIG-0.35  N 
ATOM     33 H    ILE E   3     -25.717  27.687   3.527  1.00 40.60 LIG 0.16  HD
ATOM     34  C   ASP E   2     -24.258  26.599   2.827  1.00 44.87 LIG 0.24  C 
ATOM     35 O    ASP E   2     -23.174  26.641   2.233  1.00 39.41 LIG-0.27  OA
BRANCH 34 36
ATOM     36  CA  ASP E   2     -24.883  25.267   3.206  1.00 43.58 LIG 0.19  C 
BRANCH 36 37
ATOM     37  N   ASP E   2     -24.632  24.255   2.193  1.00 45.35 LIG-0.34  N 
ATOM     38  C   ASP E   1     -25.349  23.141   2.133  1.00 51.19 LIG 0.25  C 
ATOM     39 O    ASP E   1     -26.264  22.894   2.914  1.00 56.05 LIG-0.27  OA
ATOM     40 H    ASP E   2     -23.992  24.445   1.651  1.00 45.35 LIG 0.16  HD
BRANCH 38 41
ATOM     41  CA  ASP E   1     -24.989  22.166   1.025  1.00 54.43 LIG 0.28  C 
BRANCH 41 42
ATOM     42  CB  ASP E   1     -24.799  20.767   1.611  1.00 57.23 LIG 0.15  C 
BRANCH 42 43
ATOM     43  CG  ASP E   1     -23.431  20.186   1.298  1.00 60.86 LIG 0.17  C 
ATOM     44 OD2  ASP E   1     -22.522  20.309   2.145  1.00 61.39 LIG-0.65  OA
ATOM     45 OD1  ASP E   1     -23.274  19.590   0.205  1.00 65.62 LIG-0.65  OA
ENDBRANCH 42 43
ENDBRANCH 41 42
BRANCH 41 46
ATOM     46  N   ASP E   1     -23.785  22.595   0.325  1.00 57.81 LIG-0.07  N 
ATOM     47 H1   ASP E   1     -23.979  23.283  -0.206  1.00 57.81 LIG 0.28  HD
ATOM     48 H3   ASP E   1     -23.471  21.922  -0.165  1.00 57.81 LIG 0.28  HD
ATOM     49 H2   ASP E   1     -23.169  22.841   0.918  1.00 57.81 LIG 0.28  HD
ENDBRANCH 41 46
ENDBRANCH 38 41
ENDBRANCH 36 37
BRANCH 36 50
ATOM     50  CB  ASP E   2     -24.294  24.824   4.534  1.00 41.52 LIG 0.15  C 
BRANCH 50 51
ATOM     51  CG  ASP E   2     -24.887  25.563   5.702  1.00 49.49 LIG 0.17  C 
ATOM     52 OD1  ASP E   2     -25.814  26.370   5.481  1.00 51.56 LIG-0.65  OA
ATOM     53 OD2  ASP E   2     -24.428  25.328   6.836  1.00 52.06 LIG-0.65  OA
ENDBRANCH 50 51
ENDBRANCH 36 50
ENDBRANCH 34 36
ENDBRANCH 1 32
TORSDOF 20
ENDMDL
MODEL 15
USER: ADFR SOLUTION from run 152
USER: SCORE 17.180274 LL:  -4.422 LR: -13.676 RR:   0.000 FEB:  -7.710
USER: RMSD 2.455527
USER: SEED 151
USER: STATUS no improvement in best in 5 clusters for 5 generations
USER: GENES 22
USER: genes 0 Translation |==|  0.53654 0.57668 0.50582
USER: genes 1 Rotation |==|  0.52863 0.55376 0.54862 0.99389
USER: genes 2 Torsion [N]-CA--C-[N] |==|  0.38751
USER: genes 3 Torsion [C]-N--CA-[C] |==|  0.55556
USER: genes 4 Torsion [N]-CA--C-[N] |==|  0.33469
USER: genes 5 Torsion [N]-CA--C-[O] |==|  0.06826
USER: genes 6 Torsion [C]-N--CA-[CB] |==|  0.45965
USER: genes 7 Torsion [N]-CA--CB-[SG] |==|  0.26349
USER: genes 8 Torsion [CA]-CB--SG-[HG] |==|  0.31610
USER: genes 9 Torsion [N]-CA--C-[OXT] |==|  0.48199
USER: genes 10 Torsion [N]-CA--CB-[CG1] |==|  0.74136
USER: genes 11 Torsion [C]-CA--CB-[CG2] |==|  0.75733
USER: genes 12 Torsion [CA]-CB--CG1-[CD1] |==|  0.35465
USER: genes 13 Torsion [C]-CA--N-[C] |==|  0.83823
USER: genes 14 Torsion [N]-C--CA-[N] |==|  0.16152
USER: genes 15 Torsion [C]-CA--N-[C] |==|  0.72032
USER: genes 16 Torsion [N]-C--CA-[N] |==|  0.44774
USER: genes 17 Torsion [C]-CA--CB-[CG] |==|  0.92712
USER: genes 18 Torsion [CA]-CB--CG-[OD2] |==|  0.79673
USER: genes 19 Torsion [C]-CA--N-[H1] |==|  0.42762
USER: genes 20 Torsion [C]-CA--CB-[CG] |==|  0.69292
USER: genes 21 Torsion [CA]-CB--CG-[OD1] |==|  0.80499
ROOT
ATOM      1  CA  ILE E   3     -26.284  29.355   5.193  1.00 36.34 LIG 0.18  C 
ENDROOT
BRANCH 1 2
ATOM      2  C   ILE E   3     -25.003  28.596   4.874  1.00 39.45 LIG 0.24  C 
ATOM      3  N   VAL E   4     -25.146  27.377   4.351  1.00 32.94 LIG-0.35  N 
ATOM      4 H    VAL E   4     -25.903  27.037   4.127  1.00 32.94 LIG 0.16  HD
ATOM      5 O    ILE E   3     -23.911  29.101   5.111  1.00 42.21 LIG-0.27  OA
BRANCH 3 6
ATOM      6  CA  VAL E   4     -24.002  26.504   4.113  1.00 33.21 LIG 0.18  C 
BRANCH 6 7
ATOM      7  C   VAL E   4     -24.371  25.427   3.089  1.00 35.41 LIG 0.24  C 
ATOM      8 O    VAL E   4     -25.311  24.655   3.310  1.00 29.15 LIG-0.27  OA
ATOM      9  N   PRO E   5     -23.646  25.384   1.959  1.00 36.11 LIG-0.34  N 
ATOM     10  CA  PRO E   5     -23.897  24.339   0.958  1.00 34.10 LIG 0.18  C 
ATOM     11  CD  PRO E   5     -22.616  26.350   1.522  1.00 37.00 LIG 0.13  C 
ATOM     12  CB  PRO E   5     -22.899  24.671  -0.169  1.00 38.74 LIG 0.04  C 
ATOM     13  CG  PRO E   5     -22.554  26.127   0.026  1.00 43.00 LIG 0.02  C 
BRANCH 10 14
ATOM     14  C   PRO E   5     -23.575  22.986   1.575  1.00 34.89 LIG 0.24  C 
ATOM     15  N   CYS E   6     -23.273  21.980   0.764  1.00 33.29 LIG-0.34  N 
ATOM     16 H    CYS E   6     -23.217  22.041  -0.092  1.00 33.29 LIG 0.16  HD
ATOM     17 O    PRO E   5     -23.626  22.865   2.800  1.00 33.04 LIG-0.27  OA
BRANCH 15 18
ATOM     18  CA  CYS E   6     -23.004  20.644   1.312  1.00 33.63 LIG 0.19  C 
BRANCH 18 19
ATOM     19  CB  CYS E   6     -23.035  19.582   0.205  1.00 31.18 LIG 0.11  C 
BRANCH 19 20
ATOM     20 SG   CYS E   6     -21.363  19.210  -0.477  1.00 33.89 LIG-0.18  SA
ATOM     21 HG   CYS E   6     -21.060  18.082  -0.202  1.00 33.89 LIG 0.10  HD
ENDBRANCH 19 20
ENDBRANCH 18 19
BRANCH 18 22
ATOM     22  C   CYS E   6     -21.723  20.568   2.172  1.00 36.36 LIG 0.20  C 
ATOM     23 OXT  CYS E   6     -21.368  19.561   2.827  1.00 31.64 LIG-0.65  OA
ATOM     24 O    CYS E   6     -21.024  21.578   2.251  1.00 36.48 LIG-0.65  OA
ENDBRANCH 18 22
ENDBRANCH 15 18
ENDBRANCH 10 14
ENDBRANCH 6 7
BRANCH 6 25
ATOM     25  CB  VAL E   4     -23.566  25.804   5.424  1.00 33.86 LIG 0.01  C 
ATOM     26  CG2 VAL E   4     -24.772  25.581   6.344  1.00 37.12 LIG 0.01  C 
ATOM     27  CG1 VAL E   4     -22.473  26.607   6.122  1.00 36.74 LIG 0.01  C 
ENDBRANCH 6 25
ENDBRANCH 3 6
ENDBRANCH 1 2
BRANCH 1 28
ATOM     28  CB  ILE E   3     -26.621  30.323   4.070  1.00 41.05 LIG 0.01  C 
ATOM     29  CG2 ILE E   3     -25.921  31.657   4.294  1.00 37.15 LIG 0.01  C 
BRANCH 28 30
ATOM     30  CG1 ILE E   3     -26.235  29.708   2.722  1.00 42.94 LIG 0.00  C 
ATOM     31  CD1 ILE E   3     -27.365  29.720   1.715  1.00 40.89 LIG 0.01  C 
ENDBRANCH 28 30
ENDBRANCH 1 28
BRANCH 1 32
ATOM     32  N   ILE E   3     -26.107  30.039   6.459  1.00 40.60 LIG-0.35  N 
ATOM     33 H    ILE E   3     -26.207  30.893   6.430  1.00 40.60 LIG 0.16  HD
ATOM     34  C   ASP E   2     -25.811  29.351   7.554  1.00 44.87 LIG 0.24  C 
ATOM     35 O    ASP E   2     -25.778  28.115   7.582  1.00 39.41 LIG-0.27  OA
BRANCH 34 36
ATOM     36  CA  ASP E   2     -25.493  30.164   8.799  1.00 43.58 LIG 0.19  C 
BRANCH 36 37
ATOM     37  N   ASP E   2     -26.598  31.038   9.158  1.00 45.35 LIG-0.34  N 
ATOM     38  C   ASP E   1     -26.585  32.330   8.858  1.00 51.19 LIG 0.25  C 
ATOM     39 O    ASP E   1     -25.657  32.866   8.261  1.00 56.05 LIG-0.27  OA
ATOM     40 H    ASP E   2     -27.243  30.646   9.571  1.00 45.35 LIG 0.16  HD
BRANCH 38 41
ATOM     41  CA  ASP E   1     -27.802  33.133   9.286  1.00 54.43 LIG 0.28  C 
BRANCH 41 42
ATOM     42  CB  ASP E   1     -28.967  32.847   8.337  1.00 57.23 LIG 0.15  C 
BRANCH 42 43
ATOM     43  CG  ASP E   1     -28.500  32.416   6.957  1.00 60.86 LIG 0.17  C 
ATOM     44 OD2  ASP E   1     -28.008  33.277   6.199  1.00 61.39 LIG-0.65  OA
ATOM     45 OD1  ASP E   1     -28.613  31.207   6.642  1.00 65.62 LIG-0.65  OA
ENDBRANCH 42 43
ENDBRANCH 41 42
BRANCH 41 46
ATOM     46  N   ASP E   1     -27.503  34.558   9.313  1.00 57.81 LIG-0.07  N 
ATOM     47 H1   ASP E   1     -28.253  35.022   9.188  1.00 57.81 LIG 0.28  HD
ATOM     48 H3   ASP E   1     -26.924  34.752   8.666  1.00 57.81 LIG 0.28  HD
ATOM     49 H2   ASP E   1     -27.149  34.772  10.101  1.00 57.81 LIG 0.28  HD
ENDBRANCH 41 46
ENDBRANCH 38 41
ENDBRANCH 36 37
BRANCH 36 50
ATOM     50  CB  ASP E   2     -25.207  29.200   9.937  1.00 41.52 LIG 0.15  C 
BRANCH 50 51
ATOM     51  CG  ASP E   2     -26.283  29.215  10.988  1.00 49.49 LIG 0.17  C 
ATOM     52 OD1  ASP E   2     -26.387  30.226  11.712  1.00 51.56 LIG-0.65  OA
ATOM     53 OD2  ASP E   2     -27.024  28.216  11.079  1.00 52.06 LIG-0.65  OA
ENDBRANCH 50 51
ENDBRANCH 36 50
ENDBRANCH 34 36
ENDBRANCH 1 32
TORSDOF 20
ENDMDL
MODEL 16
USER: ADFR SOLUTION from run 7
USER: SCORE 16.808272 LL:  -4.672 LR: -13.677 RR:   0.000 FEB:  -7.711
USER: RMSD 6.838954
USER: SEED 498258
USER: STATUS no improvement in best in 3 clusters for 5 generations
USER: GENES 22
USER: genes 0 Translation |==|  0.67431 0.41108 0.46326
USER: genes 1 Rotation |==|  0.40820 0.97229 0.62662 0.54981
USER: genes 2 Torsion [N]-CA--C-[N] |==|  0.31790
USER: genes 3 Torsion [C]-N--CA-[C] |==|  0.53146
USER: genes 4 Torsion [N]-CA--C-[N] |==|  0.88333
USER: genes 5 Torsion [N]-CA--C-[O] |==|  0.23473
USER: genes 6 Torsion [C]-N--CA-[CB] |==|  0.30224
USER: genes 7 Torsion [N]-CA--CB-[SG] |==|  0.86820
USER: genes 8 Torsion [CA]-CB--SG-[HG] |==|  0.13046
USER: genes 9 Torsion [N]-CA--C-[OXT] |==|  0.44566
USER: genes 10 Torsion [N]-CA--CB-[CG1] |==|  0.69314
USER: genes 11 Torsion [C]-CA--CB-[CG2] |==|  0.34862
USER: genes 12 Torsion [CA]-CB--CG1-[CD1] |==|  0.59702
USER: genes 13 Torsion [C]-CA--N-[C] |==|  0.78034
USER: genes 14 Torsion [N]-C--CA-[N] |==|  0.08575
USER: genes 15 Torsion [C]-CA--N-[C] |==|  0.71187
USER: genes 16 Torsion [N]-C--CA-[N] |==|  0.54593
USER: genes 17 Torsion [C]-CA--CB-[CG] |==|  0.59906
USER: genes 18 Torsion [CA]-CB--CG-[OD2] |==|  0.16547
USER: genes 19 Torsion [C]-CA--N-[H1] |==|  0.52808
USER: genes 20 Torsion [C]-CA--CB-[CG] |==|  0.39654
USER: genes 21 Torsion [CA]-CB--CG-[OD1] |==|  0.20684
ROOT
ATOM      1  CA  ILE E   3     -23.494  25.256   4.364  1.00 36.34 LIG 0.18  C 
ENDROOT
BRANCH 1 2
ATOM      2  C   ILE E   3     -24.124  24.128   3.557  1.00 39.45 LIG 0.24  C 
ATOM      3  N   VAL E   4     -23.288  23.241   3.017  1.00 32.94 LIG-0.35  N 
ATOM      4 H    VAL E   4     -22.440  23.236   3.156  1.00 32.94 LIG 0.16  HD
ATOM      5 O    ILE E   3     -25.342  24.075   3.418  1.00 42.21 LIG-0.27  OA
BRANCH 3 6
ATOM      6  CA  VAL E   4     -23.757  22.186   2.126  1.00 33.21 LIG 0.18  C 
BRANCH 6 7
ATOM      7  C   VAL E   4     -22.641  21.166   1.890  1.00 35.41 LIG 0.24  C 
ATOM      8 O    VAL E   4     -22.897  19.957   1.870  1.00 29.15 LIG-0.27  OA
ATOM      9  N   PRO E   5     -21.403  21.650   1.691  1.00 36.11 LIG-0.34  N 
ATOM     10  CA  PRO E   5     -20.269  20.732   1.522  1.00 34.10 LIG 0.18  C 
ATOM     11  CD  PRO E   5     -21.013  23.066   1.534  1.00 37.00 LIG 0.13  C 
ATOM     12  CB  PRO E   5     -19.073  21.676   1.287  1.00 38.74 LIG 0.04  C 
ATOM     13  CG  PRO E   5     -19.681  22.975   0.819  1.00 43.00 LIG 0.02  C 
BRANCH 10 14
ATOM     14  C   PRO E   5     -20.082  19.944   2.811  1.00 34.89 LIG 0.24  C 
ATOM     15  N   CYS E   6     -19.181  20.371   3.685  1.00 33.29 LIG-0.34  N 
ATOM     16 H    CYS E   6     -18.707  21.083   3.592  1.00 33.29 LIG 0.16  HD
ATOM     17 O    PRO E   5     -20.757  18.930   2.989  1.00 33.04 LIG-0.27  OA
BRANCH 15 18
ATOM     18  CA  CYS E   6     -18.931  19.615   4.919  1.00 33.63 LIG 0.19  C 
BRANCH 18 19
ATOM     19  CB  CYS E   6     -17.563  18.923   4.871  1.00 31.18 LIG 0.11  C 
BRANCH 19 20
ATOM     20 SG   CYS E   6     -17.272  18.023   3.288  1.00 33.89 LIG-0.18  SA
ATOM     21 HG   CYS E   6     -17.570  18.729   2.364  1.00 33.89 LIG 0.10  HD
ENDBRANCH 19 20
ENDBRANCH 18 19
BRANCH 18 22
ATOM     22  C   CYS E   6     -19.132  20.442   6.209  1.00 36.36 LIG 0.20  C 
ATOM     23 OXT  CYS E   6     -19.320  19.949   7.345  1.00 31.64 LIG-0.65  OA
ATOM     24 O    CYS E   6     -19.149  21.669   6.108  1.00 36.48 LIG-0.65  OA
ENDBRANCH 18 22
ENDBRANCH 15 18
ENDBRANCH 10 14
ENDBRANCH 6 7
BRANCH 6 25
ATOM     25  CB  VAL E   4     -24.181  22.775   0.756  1.00 33.86 LIG 0.01  C 
ATOM     26  CG2 VAL E   4     -23.682  24.217   0.611  1.00 37.12 LIG 0.01  C 
ATOM     27  CG1 VAL E   4     -25.693  22.688   0.580  1.00 36.74 LIG 0.01  C 
ENDBRANCH 6 25
ENDBRANCH 3 6
ENDBRANCH 1 2
BRANCH 1 28
ATOM     28  CB  ILE E   3     -24.045  25.267   5.782  1.00 41.05 LIG 0.01  C 
ATOM     29  CG2 ILE E   3     -22.906  25.207   6.791  1.00 37.15 LIG 0.01  C 
BRANCH 28 30
ATOM     30  CG1 ILE E   3     -24.914  26.511   5.990  1.00 42.94 LIG 0.00  C 
ATOM     31  CD1 ILE E   3     -24.818  27.076   7.392  1.00 40.89 LIG 0.01  C 
ENDBRANCH 28 30
ENDBRANCH 1 28
BRANCH 1 32
ATOM     32  N   ILE E   3     -23.750  26.508   3.677  1.00 40.60 LIG-0.35  N 
ATOM     33 H    ILE E   3     -24.392  26.978   4.003  1.00 40.60 LIG 0.16  HD
ATOM     34  C   ASP E   2     -23.016  26.854   2.627  1.00 44.87 LIG 0.24  C 
ATOM     35 O    ASP E   2     -22.033  26.206   2.251  1.00 39.41 LIG-0.27  OA
BRANCH 34 36
ATOM     36  CA  ASP E   2     -23.453  28.104   1.881  1.00 43.58 LIG 0.19  C 
BRANCH 36 37
ATOM     37  N   ASP E   2     -24.083  29.063   2.774  1.00 45.35 LIG-0.34  N 
ATOM     38  C   ASP E   1     -25.399  29.228   2.796  1.00 51.19 LIG 0.25  C 
ATOM     39 O    ASP E   1     -26.163  28.588   2.080  1.00 56.05 LIG-0.27  OA
ATOM     40 H    ASP E   2     -23.535  29.500   3.273  1.00 45.35 LIG 0.16  HD
BRANCH 38 41
ATOM     41  CA  ASP E   1     -25.932  30.259   3.777  1.00 54.43 LIG 0.28  C 
BRANCH 41 42
ATOM     42  CB  ASP E   1     -25.172  30.152   5.099  1.00 57.23 LIG 0.15  C 
BRANCH 42 43
ATOM     43  CG  ASP E   1     -26.059  30.418   6.303  1.00 60.86 LIG 0.17  C 
ATOM     44 OD2  ASP E   1     -27.053  29.685   6.485  1.00 61.39 LIG-0.65  OA
ATOM     45 OD1  ASP E   1     -25.747  31.356   7.076  1.00 65.62 LIG-0.65  OA
ENDBRANCH 42 43
ENDBRANCH 41 42
BRANCH 41 46
ATOM     46  N   ASP E   1     -27.361  30.082   3.994  1.00 57.81 LIG-0.07  N 
ATOM     47 H1   ASP E   1     -27.681  30.776   4.450  1.00 57.81 LIG 0.28  HD
ATOM     48 H3   ASP E   1     -27.502  29.334   4.455  1.00 57.81 LIG 0.28  HD
ATOM     49 H2   ASP E   1     -27.776  30.027   3.208  1.00 57.81 LIG 0.28  HD
ENDBRANCH 41 46
ENDBRANCH 38 41
ENDBRANCH 36 37
BRANCH 36 50
ATOM     50  CB  ASP E   2     -22.226  28.728   1.238  1.00 41.52 LIG 0.15  C 
BRANCH 50 51
ATOM     51  CG  ASP E   2     -22.521  29.313  -0.116  1.00 49.49 LIG 0.17  C 
ATOM     52 OD1  ASP E   2     -23.153  30.388  -0.170  1.00 51.56 LIG-0.65  OA
ATOM     53 OD2  ASP E   2     -22.114  28.696  -1.120  1.00 52.06 LIG-0.65  OA
ENDBRANCH 50 51
ENDBRANCH 36 50
ENDBRANCH 34 36
ENDBRANCH 1 32
TORSDOF 20
ENDMDL
MODEL 17
USER: ADFR SOLUTION from run 69
USER: SCORE 17.782679 LL:  -4.729 LR: -13.658 RR:   0.000 FEB:  -7.692
USER: RMSD 4.757992
USER: SEED 68
USER: STATUS no improvement in best in 3 clusters for 5 generations
USER: GENES 22
USER: genes 0 Translation |==|  0.65634 0.48413 0.47707
USER: genes 1 Rotation |==|  0.73357 0.20790 0.16835 0.51141
USER: genes 2 Torsion [N]-CA--C-[N] |==|  0.37499
USER: genes 3 Torsion [C]-N--CA-[C] |==|  0.74751
USER: genes 4 Torsion [N]-CA--C-[N] |==|  0.84451
USER: genes 5 Torsion [N]-CA--C-[O] |==|  0.73722
USER: genes 6 Torsion [C]-N--CA-[CB] |==|  0.38598
USER: genes 7 Torsion [N]-CA--CB-[SG] |==|  0.63065
USER: genes 8 Torsion [CA]-CB--SG-[HG] |==|  0.94261
USER: genes 9 Torsion [N]-CA--C-[OXT] |==|  0.64164
USER: genes 10 Torsion [N]-CA--CB-[CG1] |==|  0.43708
USER: genes 11 Torsion [C]-CA--CB-[CG2] |==|  0.53370
USER: genes 12 Torsion [CA]-CB--CG1-[CD1] |==|  0.28750
USER: genes 13 Torsion [C]-CA--N-[C] |==|  0.63532
USER: genes 14 Torsion [N]-C--CA-[N] |==|  0.45311
USER: genes 15 Torsion [C]-CA--N-[C] |==|  0.80158
USER: genes 16 Torsion [N]-C--CA-[N] |==|  0.22884
USER: genes 17 Torsion [C]-CA--CB-[CG] |==|  0.76271
USER: genes 18 Torsion [CA]-CB--CG-[OD2] |==|  0.76754
USER: genes 19 Torsion [C]-CA--N-[H1] |==|  0.86603
USER: genes 20 Torsion [C]-CA--CB-[CG] |==|  0.52044
USER: genes 21 Torsion [CA]-CB--CG-[OD1] |==|  0.00178
ROOT
ATOM      1  CA  ILE E   3     -23.858  27.064   4.633  1.00 36.34 LIG 0.18  C 
ENDROOT
BRANCH 1 2
ATOM      2  C   ILE E   3     -24.005  26.765   3.147  1.00 39.45 LIG 0.24  C 
ATOM      3  N   VAL E   4     -22.969  27.081   2.369  1.00 32.94 LIG-0.35  N 
ATOM      4 H    VAL E   4     -22.217  27.373   2.667  1.00 32.94 LIG 0.16  HD
ATOM      5 O    ILE E   3     -25.042  26.272   2.717  1.00 42.21 LIG-0.27  OA
BRANCH 3 6
ATOM      6  CA  VAL E   4     -23.031  26.955   0.917  1.00 33.21 LIG 0.18  C 
BRANCH 6 7
ATOM      7  C   VAL E   4     -22.547  25.567   0.492  1.00 35.41 LIG 0.24  C 
ATOM      8 O    VAL E   4     -23.268  24.844  -0.206  1.00 29.15 LIG-0.27  OA
ATOM      9  N   PRO E   5     -21.319  25.198   0.894  1.00 36.11 LIG-0.34  N 
ATOM     10  CA  PRO E   5     -20.810  23.856   0.580  1.00 34.10 LIG 0.18  C 
ATOM     11  CD  PRO E   5     -20.318  26.036   1.586  1.00 37.00 LIG 0.13  C 
ATOM     12  CB  PRO E   5     -19.388  23.861   1.175  1.00 38.74 LIG 0.04  C 
ATOM     13  CG  PRO E   5     -19.016  25.319   1.295  1.00 43.00 LIG 0.02  C 
BRANCH 10 14
ATOM     14  C   PRO E   5     -21.681  22.827   1.285  1.00 34.89 LIG 0.24  C 
ATOM     15  N   CYS E   6     -22.803  22.439   0.694  1.00 33.29 LIG-0.34  N 
ATOM     16 H    CYS E   6     -23.066  22.706  -0.080  1.00 33.29 LIG 0.16  HD
ATOM     17 O    PRO E   5     -21.326  22.405   2.387  1.00 33.04 LIG-0.27  OA
BRANCH 15 18
ATOM     18  CA  CYS E   6     -23.699  21.485   1.360  1.00 33.63 LIG 0.19  C 
BRANCH 18 19
ATOM     19  CB  CYS E   6     -25.167  21.887   1.168  1.00 31.18 LIG 0.11  C 
BRANCH 19 20
ATOM     20 SG   CYS E   6     -26.135  21.833   2.736  1.00 33.89 LIG-0.18  SA
ATOM     21 HG   CYS E   6     -25.575  21.125   3.529  1.00 33.89 LIG 0.10  HD
ENDBRANCH 19 20
ENDBRANCH 18 19
BRANCH 18 22
ATOM     22  C   CYS E   6     -23.434  20.011   0.982  1.00 36.36 LIG 0.20  C 
ATOM     23 OXT  CYS E   6     -24.313  19.209   0.592  1.00 31.64 LIG-0.65  OA
ATOM     24 O    CYS E   6     -22.286  19.582   1.110  1.00 36.48 LIG-0.65  OA
ENDBRANCH 18 22
ENDBRANCH 15 18
ENDBRANCH 10 14
ENDBRANCH 6 7
BRANCH 6 25
ATOM     25  CB  VAL E   4     -22.131  28.018   0.237  1.00 33.86 LIG 0.01  C 
ATOM     26  CG2 VAL E   4     -22.828  29.383   0.220  1.00 37.12 LIG 0.01  C 
ATOM     27  CG1 VAL E   4     -21.745  27.572  -1.169  1.00 36.74 LIG 0.01  C 
ENDBRANCH 6 25
ENDBRANCH 3 6
ENDBRANCH 1 2
BRANCH 1 28
ATOM     28  CB  ILE E   3     -23.544  25.790   5.402  1.00 41.05 LIG 0.01  C 
ATOM     29  CG2 ILE E   3     -23.693  26.027   6.900  1.00 37.15 LIG 0.01  C 
BRANCH 28 30
ATOM     30  CG1 ILE E   3     -24.456  24.657   4.922  1.00 42.94 LIG 0.00  C 
ATOM     31  CD1 ILE E   3     -23.754  23.673   4.010  1.00 40.89 LIG 0.01  C 
ENDBRANCH 28 30
ENDBRANCH 1 28
BRANCH 1 32
ATOM     32  N   ILE E   3     -25.083  27.686   5.098  1.00 40.60 LIG-0.35  N 
ATOM     33 H    ILE E   3     -25.807  27.282   4.869  1.00 40.60 LIG 0.16  HD
ATOM     34  C   ASP E   2     -25.034  28.798   5.821  1.00 44.87 LIG 0.24  C 
ATOM     35 O    ASP E   2     -23.974  29.292   6.221  1.00 39.41 LIG-0.27  OA
BRANCH 34 36
ATOM     36  CA  ASP E   2     -26.366  29.460   6.133  1.00 43.58 LIG 0.19  C 
BRANCH 36 37
ATOM     37  N   ASP E   2     -26.243  30.410   7.227  1.00 45.35 LIG-0.34  N 
ATOM     38  C   ASP E   1     -26.056  30.007   8.477  1.00 51.19 LIG 0.25  C 
ATOM     39 O    ASP E   1     -25.970  28.823   8.790  1.00 56.05 LIG-0.27  OA
ATOM     40 H    ASP E   2     -26.300  31.235   6.991  1.00 45.35 LIG 0.16  HD
BRANCH 38 41
ATOM     41  CA  ASP E   1     -25.940  31.099   9.527  1.00 54.43 LIG 0.28  C 
BRANCH 41 42
ATOM     42  CB  ASP E   1     -25.148  30.578  10.726  1.00 57.23 LIG 0.15  C 
BRANCH 42 43
ATOM     43  CG  ASP E   1     -26.023  29.837  11.723  1.00 60.86 LIG 0.17  C 
ATOM     44 OD2  ASP E   1     -26.649  30.502  12.575  1.00 61.39 LIG-0.65  OA
ATOM     45 OD1  ASP E   1     -26.093  28.588  11.640  1.00 65.62 LIG-0.65  OA
ENDBRANCH 42 43
ENDBRANCH 41 42
BRANCH 41 46
ATOM     46  N   ASP E   1     -27.257  31.561   9.946  1.00 57.81 LIG-0.07  N 
ATOM     47 H1   ASP E   1     -27.756  31.727   9.228  1.00 57.81 LIG 0.28  HD
ATOM     48 H3   ASP E   1     -27.171  32.306  10.424  1.00 57.81 LIG 0.28  HD
ATOM     49 H2   ASP E   1     -27.647  30.934  10.441  1.00 57.81 LIG 0.28  HD
ENDBRANCH 41 46
ENDBRANCH 38 41
ENDBRANCH 36 37
BRANCH 36 50
ATOM     50  CB  ASP E   2     -26.847  30.174   4.882  1.00 41.52 LIG 0.15  C 
BRANCH 50 51
ATOM     51  CG  ASP E   2     -28.071  31.011   5.132  1.00 49.49 LIG 0.17  C 
ATOM     52 OD1  ASP E   2     -28.538  31.043   6.290  1.00 51.56 LIG-0.65  OA
ATOM     53 OD2  ASP E   2     -28.557  31.638   4.170  1.00 52.06 LIG-0.65  OA
ENDBRANCH 50 51
ENDBRANCH 36 50
ENDBRANCH 34 36
ENDBRANCH 1 32
TORSDOF 20
ENDMDL
MODEL 18
USER: ADFR SOLUTION from run 167
USER: SCORE 17.759069 LL:  -5.236 LR: -13.588 RR:   0.000 FEB:  -7.622
USER: RMSD 11.618263
USER: SEED 166
USER: STATUS no improvement in best in 13 clusters for 5 generations
USER: GENES 22
USER: genes 0 Translation |==|  0.63435 0.36993 0.36453
USER: genes 1 Rotation |==|  0.77746 0.53994 0.91291 0.53036
USER: genes 2 Torsion [N]-CA--C-[N] |==|  0.20522
USER: genes 3 Torsion [C]-N--CA-[C] |==|  0.12199
USER: genes 4 Torsion [N]-CA--C-[N] |==|  0.17692
USER: genes 5 Torsion [N]-CA--C-[O] |==|  0.78412
USER: genes 6 Torsion [C]-N--CA-[CB] |==|  0.26387
USER: genes 7 Torsion [N]-CA--CB-[SG] |==|  0.12300
USER: genes 8 Torsion [CA]-CB--SG-[HG] |==|  0.20729
USER: genes 9 Torsion [N]-CA--C-[OXT] |==|  0.52781
USER: genes 10 Torsion [N]-CA--CB-[CG1] |==|  0.51938
USER: genes 11 Torsion [C]-CA--CB-[CG2] |==|  0.43903
USER: genes 12 Torsion [CA]-CB--CG1-[CD1] |==|  0.73028
USER: genes 13 Torsion [C]-CA--N-[C] |==|  0.59877
USER: genes 14 Torsion [N]-C--CA-[N] |==|  0.45000
USER: genes 15 Torsion [C]-CA--N-[C] |==|  0.81915
USER: genes 16 Torsion [N]-C--CA-[N] |==|  0.00622
USER: genes 17 Torsion [C]-CA--CB-[CG] |==|  0.69364
USER: genes 18 Torsion [CA]-CB--CG-[OD2] |==|  0.13512
USER: genes 19 Torsion [C]-CA--N-[H1] |==|  0.15439
USER: genes 20 Torsion [C]-CA--CB-[CG] |==|  0.46607
USER: genes 21 Torsion [CA]-CB--CG-[OD1] |==|  0.78556
ROOT
ATOM      1  CA  ILE E   3     -24.304  24.238   2.438  1.00 36.34 LIG 0.18  C 
ENDROOT
BRANCH 1 2
ATOM      2  C   ILE E   3     -24.677  25.448   3.284  1.00 39.45 LIG 0.24  C 
ATOM      3  N   VAL E   4     -23.830  26.478   3.259  1.00 32.94 LIG-0.35  N 
ATOM      4 H    VAL E   4     -23.140  26.518   2.749  1.00 32.94 LIG 0.16  HD
ATOM      5 O    ILE E   3     -25.704  25.439   3.954  1.00 42.21 LIG-0.27  OA
BRANCH 3 6
ATOM      6  CA  VAL E   4     -24.013  27.644   4.116  1.00 33.21 LIG 0.18  C 
BRANCH 6 7
ATOM      7  C   VAL E   4     -24.384  27.200   5.532  1.00 35.41 LIG 0.24  C 
ATOM      8 O    VAL E   4     -25.491  27.485   6.004  1.00 29.15 LIG-0.27  OA
ATOM      9  N   PRO E   5     -23.469  26.485   6.208  1.00 36.11 LIG-0.34  N 
ATOM     10  CA  PRO E   5     -23.726  26.078   7.596  1.00 34.10 LIG 0.18  C 
ATOM     11  CD  PRO E   5     -22.192  25.954   5.690  1.00 37.00 LIG 0.13  C 
ATOM     12  CB  PRO E   5     -22.471  25.265   7.972  1.00 38.74 LIG 0.04  C 
ATOM     13  CG  PRO E   5     -21.873  24.832   6.656  1.00 43.00 LIG 0.02  C 
BRANCH 10 14
ATOM     14  C   PRO E   5     -23.832  27.326   8.459  1.00 34.89 LIG 0.24  C 
ATOM     15  N   CYS E   6     -25.039  27.755   8.802  1.00 33.29 LIG-0.34  N 
ATOM     16 H    CYS E   6     -25.776  27.361   8.595  1.00 33.29 LIG 0.16  HD
ATOM     17 O    PRO E   5     -22.797  27.907   8.792  1.00 33.04 LIG-0.27  OA
BRANCH 15 18
ATOM     18  CA  CYS E   6     -25.192  28.983   9.593  1.00 33.63 LIG 0.19  C 
BRANCH 18 19
ATOM     19  CB  CYS E   6     -25.443  30.192   8.683  1.00 31.18 LIG 0.11  C 
BRANCH 19 20
ATOM     20 SG   CYS E   6     -26.670  29.845   7.351  1.00 33.89 LIG-0.18  SA
ATOM     21 HG   CYS E   6     -27.774  29.816   7.821  1.00 33.89 LIG 0.10  HD
ENDBRANCH 19 20
ENDBRANCH 18 19
BRANCH 18 22
ATOM     22  C   CYS E   6     -26.233  28.869  10.729  1.00 36.36 LIG 0.20  C 
ATOM     23 OXT  CYS E   6     -26.652  29.836  11.406  1.00 31.64 LIG-0.65  OA
ATOM     24 O    CYS E   6     -26.649  27.747  11.016  1.00 36.48 LIG-0.65  OA
ENDBRANCH 18 22
ENDBRANCH 15 18
ENDBRANCH 10 14
ENDBRANCH 6 7
BRANCH 6 25
ATOM     25  CB  VAL E   4     -25.149  28.549   3.573  1.00 33.86 LIG 0.01  C 
ATOM     26  CG2 VAL E   4     -24.955  28.817   2.076  1.00 37.12 LIG 0.01  C 
ATOM     27  CG1 VAL E   4     -25.224  29.848   4.367  1.00 36.74 LIG 0.01  C 
ENDBRANCH 6 25
ENDBRANCH 3 6
ENDBRANCH 1 2
BRANCH 1 28
ATOM     28  CB  ILE E   3     -25.514  23.339   2.234  1.00 41.05 LIG 0.01  C 
ATOM     29  CG2 ILE E   3     -25.321  22.465   1.002  1.00 37.15 LIG 0.01  C 
BRANCH 28 30
ATOM     30  CG1 ILE E   3     -25.748  22.493   3.489  1.00 42.94 LIG 0.00  C 
ATOM     31  CD1 ILE E   3     -25.156  21.103   3.389  1.00 40.89 LIG 0.01  C 
ENDBRANCH 28 30
ENDBRANCH 1 28
BRANCH 1 32
ATOM     32  N   ILE E   3     -23.217  23.537   3.096  1.00 40.60 LIG-0.35  N 
ATOM     33 H    ILE E   3     -23.250  23.539   3.955  1.00 40.60 LIG 0.16  HD
ATOM     34  C   ASP E   2     -22.267  22.954   2.376  1.00 44.87 LIG 0.24  C 
ATOM     35 O    ASP E   2     -22.308  22.881   1.143  1.00 39.41 LIG-0.27  OA
BRANCH 34 36
ATOM     36  CA  ASP E   2     -21.092  22.377   3.149  1.00 43.58 LIG 0.19  C 
BRANCH 36 37
ATOM     37  N   ASP E   2     -20.347  21.421   2.347  1.00 45.35 LIG-0.34  N 
ATOM     38  C   ASP E   1     -20.891  20.279   1.947  1.00 51.19 LIG 0.25  C 
ATOM     39 O    ASP E   1     -22.044  19.959   2.218  1.00 56.05 LIG-0.27  OA
ATOM     40 H    ASP E   2     -19.542  21.662   2.161  1.00 45.35 LIG 0.16  HD
BRANCH 38 41
ATOM     41  CA  ASP E   1     -20.007  19.369   1.111  1.00 54.43 LIG 0.28  C 
BRANCH 41 42
ATOM     42  CB  ASP E   1     -19.931  17.987   1.762  1.00 57.23 LIG 0.15  C 
BRANCH 42 43
ATOM     43  CG  ASP E   1     -18.558  17.694   2.343  1.00 60.86 LIG 0.17  C 
ATOM     44 OD2  ASP E   1     -18.022  18.556   3.071  1.00 61.39 LIG-0.65  OA
ATOM     45 OD1  ASP E   1     -18.025  16.589   2.080  1.00 65.62 LIG-0.65  OA
ENDBRANCH 42 43
ENDBRANCH 41 42
BRANCH 41 46
ATOM     46  N   ASP E   1     -18.675  19.935   0.955  1.00 57.81 LIG-0.07  N 
ATOM     47 H1   ASP E   1     -18.325  20.099   1.757  1.00 57.81 LIG 0.28  HD
ATOM     48 H3   ASP E   1     -18.727  20.694   0.495  1.00 57.81 LIG 0.28  HD
ATOM     49 H2   ASP E   1     -18.157  19.359   0.518  1.00 57.81 LIG 0.28  HD
ENDBRANCH 41 46
ENDBRANCH 38 41
ENDBRANCH 36 37
BRANCH 36 50
ATOM     50  CB  ASP E   2     -20.184  23.524   3.560  1.00 41.52 LIG 0.15  C 
BRANCH 50 51
ATOM     51  CG  ASP E   2     -19.154  23.106   4.573  1.00 49.49 LIG 0.17  C 
ATOM     52 OD1  ASP E   2     -19.514  22.967   5.760  1.00 51.56 LIG-0.65  OA
ATOM     53 OD2  ASP E   2     -17.988  22.914   4.174  1.00 52.06 LIG-0.65  OA
ENDBRANCH 50 51
ENDBRANCH 36 50
ENDBRANCH 34 36
ENDBRANCH 1 32
TORSDOF 20
ENDMDL
MODEL 19
USER: ADFR SOLUTION from run 156
USER: SCORE 16.582277 LL:  -4.613 LR: -13.590 RR:   0.000 FEB:  -7.624
USER: RMSD 10.386538
USER: SEED 155
USER: STATUS no improvement in best in 5 clusters for 5 generations
USER: GENES 22
USER: genes 0 Translation |==|  0.60373 0.44180 0.43944
USER: genes 1 Rotation |==|  0.98268 0.61468 0.53163 0.55350
USER: genes 2 Torsion [N]-CA--C-[N] |==|  0.38282
USER: genes 3 Torsion [C]-N--CA-[C] |==|  0.68499
USER: genes 4 Torsion [N]-CA--C-[N] |==|  0.82799
USER: genes 5 Torsion [N]-CA--C-[O] |==|  0.17659
USER: genes 6 Torsion [C]-N--CA-[CB] |==|  0.12787
USER: genes 7 Torsion [N]-CA--CB-[SG] |==|  0.31382
USER: genes 8 Torsion [CA]-CB--SG-[HG] |==|  0.98294
USER: genes 9 Torsion [N]-CA--C-[OXT] |==|  0.77012
USER: genes 10 Torsion [N]-CA--CB-[CG1] |==|  0.62342
USER: genes 11 Torsion [C]-CA--CB-[CG2] |==|  0.78299
USER: genes 12 Torsion [CA]-CB--CG1-[CD1] |==|  0.64000
USER: genes 13 Torsion [C]-CA--N-[C] |==|  0.55186
USER: genes 14 Torsion [N]-C--CA-[N] |==|  0.90769
USER: genes 15 Torsion [C]-CA--N-[C] |==|  0.19782
USER: genes 16 Torsion [N]-C--CA-[N] |==|  0.06495
USER: genes 17 Torsion [C]-CA--CB-[CG] |==|  0.63491
USER: genes 18 Torsion [CA]-CB--CG-[OD2] |==|  0.73891
USER: genes 19 Torsion [C]-CA--N-[H1] |==|  0.87467
USER: genes 20 Torsion [C]-CA--CB-[CG] |==|  0.33954
USER: genes 21 Torsion [CA]-CB--CG-[OD1] |==|  0.92224
ROOT
ATOM      1  CA  ILE E   3     -24.924  26.017   3.899  1.00 36.34 LIG 0.18  C 
ENDROOT
BRANCH 1 2
ATOM      2  C   ILE E   3     -24.343  27.410   3.699  1.00 39.45 LIG 0.24  C 
ATOM      3  N   VAL E   4     -25.200  28.430   3.767  1.00 32.94 LIG-0.35  N 
ATOM      4 H    VAL E   4     -26.028  28.346   3.982  1.00 32.94 LIG 0.16  HD
ATOM      5 O    ILE E   3     -23.146  27.553   3.472  1.00 42.21 LIG-0.27  OA
BRANCH 3 6
ATOM      6  CA  VAL E   4     -24.791  29.799   3.475  1.00 33.21 LIG 0.18  C 
BRANCH 6 7
ATOM      7  C   VAL E   4     -24.864  30.648   4.746  1.00 35.41 LIG 0.24  C 
ATOM      8 O    VAL E   4     -23.844  31.184   5.195  1.00 29.15 LIG-0.27  OA
ATOM      9  N   PRO E   5     -26.071  30.790   5.319  1.00 36.11 LIG-0.34  N 
ATOM     10  CA  PRO E   5     -26.210  31.536   6.576  1.00 34.10 LIG 0.18  C 
ATOM     11  CD  PRO E   5     -27.371  30.334   4.784  1.00 37.00 LIG 0.13  C 
ATOM     12  CB  PRO E   5     -27.726  31.491   6.857  1.00 38.74 LIG 0.04  C 
ATOM     13  CG  PRO E   5     -28.366  31.206   5.520  1.00 43.00 LIG 0.02  C 
BRANCH 10 14
ATOM     14  C   PRO E   5     -25.443  30.803   7.666  1.00 34.89 LIG 0.24  C 
ATOM     15  N   CYS E   6     -26.120  30.331   8.705  1.00 33.29 LIG-0.34  N 
ATOM     16 H    CYS E   6     -26.974  30.383   8.797  1.00 33.29 LIG 0.16  HD
ATOM     17 O    PRO E   5     -24.221  30.691   7.559  1.00 33.04 LIG-0.27  OA
BRANCH 15 18
ATOM     18  CA  CYS E   6     -25.416  29.661   9.805  1.00 33.63 LIG 0.19  C 
BRANCH 18 19
ATOM     19  CB  CYS E   6     -24.178  30.461  10.231  1.00 31.18 LIG 0.11  C 
BRANCH 19 20
ATOM     20 SG   CYS E   6     -24.330  31.167  11.927  1.00 33.89 LIG-0.18  SA
ATOM     21 HG   CYS E   6     -25.437  30.966  12.347  1.00 33.89 LIG 0.10  HD
ENDBRANCH 19 20
ENDBRANCH 18 19
BRANCH 18 22
ATOM     22  C   CYS E   6     -26.326  29.295  10.999  1.00 36.36 LIG 0.20  C 
ATOM     23 OXT  CYS E   6     -26.649  30.088  11.913  1.00 31.64 LIG-0.65  OA
ATOM     24 O    CYS E   6     -26.729  28.135  11.080  1.00 36.48 LIG-0.65  OA
ENDBRANCH 18 22
ENDBRANCH 15 18
ENDBRANCH 10 14
ENDBRANCH 6 7
BRANCH 6 25
ATOM     25  CB  VAL E   4     -25.721  30.432   2.409  1.00 33.86 LIG 0.01  C 
ATOM     26  CG2 VAL E   4     -26.608  29.361   1.764  1.00 37.12 LIG 0.01  C 
ATOM     27  CG1 VAL E   4     -24.903  31.182   1.363  1.00 36.74 LIG 0.01  C 
ENDBRANCH 6 25
ENDBRANCH 3 6
ENDBRANCH 1 2
BRANCH 1 28
ATOM     28  CB  ILE E   3     -24.682  25.541   5.324  1.00 41.05 LIG 0.01  C 
ATOM     29  CG2 ILE E   3     -23.244  25.065   5.486  1.00 37.15 LIG 0.01  C 
BRANCH 28 30
ATOM     30  CG1 ILE E   3     -25.013  26.666   6.308  1.00 42.94 LIG 0.00  C 
ATOM     31  CD1 ILE E   3     -23.910  26.922   7.314  1.00 40.89 LIG 0.01  C 
ENDBRANCH 28 30
ENDBRANCH 1 28
BRANCH 1 32
ATOM     32  N   ILE E   3     -24.323  25.126   2.925  1.00 40.60 LIG-0.35  N 
ATOM     33 H    ILE E   3     -23.591  25.410   2.574  1.00 40.60 LIG 0.16  HD
ATOM     34  C   ASP E   2     -24.902  23.968   2.634  1.00 44.87 LIG 0.24  C 
ATOM     35 O    ASP E   2     -25.896  23.544   3.234  1.00 39.41 LIG-0.27  OA
BRANCH 34 36
ATOM     36  CA  ASP E   2     -24.286  23.172   1.494  1.00 43.58 LIG 0.19  C 
BRANCH 36 37
ATOM     37  N   ASP E   2     -23.738  24.048   0.471  1.00 45.35 LIG-0.34  N 
ATOM     38  C   ASP E   1     -22.639  24.759   0.683  1.00 51.19 LIG 0.25  C 
ATOM     39 O    ASP E   1     -22.015  24.722   1.740  1.00 56.05 LIG-0.27  OA
ATOM     40 H    ASP E   2     -24.184  24.059  -0.265  1.00 45.35 LIG 0.16  HD
BRANCH 38 41
ATOM     41  CA  ASP E   1     -22.168  25.631  -0.468  1.00 54.43 LIG 0.28  C 
BRANCH 41 42
ATOM     42  CB  ASP E   1     -21.540  26.912   0.081  1.00 57.23 LIG 0.15  C 
BRANCH 42 43
ATOM     43  CG  ASP E   1     -22.072  28.160  -0.603  1.00 60.86 LIG 0.17  C 
ATOM     44 OD2  ASP E   1     -21.439  28.623  -1.574  1.00 61.39 LIG-0.65  OA
ATOM     45 OD1  ASP E   1     -23.136  28.666  -0.172  1.00 65.62 LIG-0.65  OA
ENDBRANCH 42 43
ENDBRANCH 41 42
BRANCH 41 46
ATOM     46  N   ASP E   1     -23.270  25.947  -1.367  1.00 57.81 LIG-0.07  N 
ATOM     47 H1   ASP E   1     -23.742  25.210  -1.529  1.00 57.81 LIG 0.28  HD
ATOM     48 H3   ASP E   1     -22.947  26.266  -2.132  1.00 57.81 LIG 0.28  HD
ATOM     49 H2   ASP E   1     -23.795  26.558  -0.990  1.00 57.81 LIG 0.28  HD
ENDBRANCH 41 46
ENDBRANCH 38 41
ENDBRANCH 36 37
BRANCH 36 50
ATOM     50  CB  ASP E   2     -23.186  22.295   2.066  1.00 41.52 LIG 0.15  C 
BRANCH 50 51
ATOM     51  CG  ASP E   2     -23.411  20.835   1.785  1.00 49.49 LIG 0.17  C 
ATOM     52 OD1  ASP E   2     -24.585  20.434   1.645  1.00 51.56 LIG-0.65  OA
ATOM     53 OD2  ASP E   2     -22.411  20.096   1.701  1.00 52.06 LIG-0.65  OA
ENDBRANCH 50 51
ENDBRANCH 36 50
ENDBRANCH 34 36
ENDBRANCH 1 32
TORSDOF 20
ENDMDL
MODEL 20
USER: ADFR SOLUTION from run 46
USER: SCORE 18.163247 LL:  -5.236 LR: -13.567 RR:   0.000 FEB:  -7.601
USER: RMSD 6.584174
USER: SEED 45
USER: STATUS no improvement in best in 4 clusters for 5 generations
USER: GENES 22
USER: genes 0 Translation |==|  0.69074 0.41359 0.28208
USER: genes 1 Rotation |==|  0.41067 0.34605 0.39113 0.95439
USER: genes 2 Torsion [N]-CA--C-[N] |==|  0.43216
USER: genes 3 Torsion [C]-N--CA-[C] |==|  0.67553
USER: genes 4 Torsion [N]-CA--C-[N] |==|  0.21455
USER: genes 5 Torsion [N]-CA--C-[O] |==|  0.32641
USER: genes 6 Torsion [C]-N--CA-[CB] |==|  0.15546
USER: genes 7 Torsion [N]-CA--CB-[SG] |==|  0.74636
USER: genes 8 Torsion [CA]-CB--SG-[HG] |==|  0.23426
USER: genes 9 Torsion [N]-CA--C-[OXT] |==|  0.50995
USER: genes 10 Torsion [N]-CA--CB-[CG1] |==|  0.77775
USER: genes 11 Torsion [C]-CA--CB-[CG2] |==|  0.52840
USER: genes 12 Torsion [CA]-CB--CG1-[CD1] |==|  0.71361
USER: genes 13 Torsion [C]-CA--N-[C] |==|  0.82778
USER: genes 14 Torsion [N]-C--CA-[N] |==|  0.35364
USER: genes 15 Torsion [C]-CA--N-[C] |==|  0.79810
USER: genes 16 Torsion [N]-C--CA-[N] |==|  0.05729
USER: genes 17 Torsion [C]-CA--CB-[CG] |==|  0.62108
USER: genes 18 Torsion [CA]-CB--CG-[OD2] |==|  0.36015
USER: genes 19 Torsion [C]-CA--N-[H1] |==|  0.16337
USER: genes 20 Torsion [C]-CA--CB-[CG] |==|  0.76948
USER: genes 21 Torsion [CA]-CB--CG-[OD1] |==|  0.81209
ROOT
ATOM      1  CA  ILE E   3     -23.161  25.318   0.831  1.00 36.34 LIG 0.18  C 
ENDROOT
BRANCH 1 2
ATOM      2  C   ILE E   3     -22.883  24.163   1.782  1.00 39.45 LIG 0.24  C 
ATOM      3  N   VAL E   4     -23.218  22.944   1.356  1.00 32.94 LIG-0.35  N 
ATOM      4 H    VAL E   4     -23.511  22.777   0.565  1.00 32.94 LIG 0.16  HD
ATOM      5 O    ILE E   3     -22.389  24.376   2.884  1.00 42.21 LIG-0.27  OA
BRANCH 3 6
ATOM      6  CA  VAL E   4     -23.114  21.773   2.218  1.00 33.21 LIG 0.18  C 
BRANCH 6 7
ATOM      7  C   VAL E   4     -22.093  20.788   1.641  1.00 35.41 LIG 0.24  C 
ATOM      8 O    VAL E   4     -22.476  19.783   1.030  1.00 29.15 LIG-0.27  OA
ATOM      9  N   PRO E   5     -20.794  21.082   1.815  1.00 36.11 LIG-0.34  N 
ATOM     10  CA  PRO E   5     -19.757  20.154   1.347  1.00 34.10 LIG 0.18  C 
ATOM     11  CD  PRO E   5     -20.229  22.324   2.381  1.00 37.00 LIG 0.13  C 
ATOM     12  CB  PRO E   5     -18.441  20.875   1.701  1.00 38.74 LIG 0.04  C 
ATOM     13  CG  PRO E   5     -18.814  22.330   1.841  1.00 43.00 LIG 0.02  C 
BRANCH 10 14
ATOM     14  C   PRO E   5     -19.879  18.852   2.125  1.00 34.89 LIG 0.24  C 
ATOM     15  N   CYS E   6     -19.673  18.879   3.435  1.00 33.29 LIG-0.34  N 
ATOM     16 H    CYS E   6     -19.500  19.589   3.889  1.00 33.29 LIG 0.16  HD
ATOM     17 O    PRO E   5     -20.144  17.817   1.512  1.00 33.04 LIG-0.27  OA
BRANCH 15 18
ATOM     18  CA  CYS E   6     -19.731  17.639   4.219  1.00 33.63 LIG 0.19  C 
BRANCH 18 19
ATOM     19  CB  CYS E   6     -18.754  16.595   3.665  1.00 31.18 LIG 0.11  C 
BRANCH 19 20
ATOM     20 SG   CYS E   6     -19.524  15.489   2.407  1.00 33.89 LIG-0.18  SA
ATOM     21 HG   CYS E   6     -19.485  16.019   1.330  1.00 33.89 LIG 0.10  HD
ENDBRANCH 19 20
ENDBRANCH 18 19
BRANCH 18 22
ATOM     22  C   CYS E   6     -19.570  17.854   5.740  1.00 36.36 LIG 0.20  C 
ATOM     23 OXT  CYS E   6     -19.524  16.932   6.586  1.00 31.64 LIG-0.65  OA
ATOM     24 O    CYS E   6     -19.523  19.013   6.155  1.00 36.48 LIG-0.65  OA
ENDBRANCH 18 22
ENDBRANCH 15 18
ENDBRANCH 10 14
ENDBRANCH 6 7
BRANCH 6 25
ATOM     25  CB  VAL E   4     -24.481  21.051   2.330  1.00 33.86 LIG 0.01  C 
ATOM     26  CG2 VAL E   4     -25.149  20.947   0.955  1.00 37.12 LIG 0.01  C 
ATOM     27  CG1 VAL E   4     -25.381  21.763   3.335  1.00 36.74 LIG 0.01  C 
ENDBRANCH 6 25
ENDBRANCH 3 6
ENDBRANCH 1 2
BRANCH 1 28
ATOM     28  CB  ILE E   3     -22.053  25.432  -0.205  1.00 41.05 LIG 0.01  C 
ATOM     29  CG2 ILE E   3     -22.196  26.728  -0.992  1.00 37.15 LIG 0.01  C 
BRANCH 28 30
ATOM     30  CG1 ILE E   3     -20.689  25.346   0.486  1.00 42.94 LIG 0.00  C 
ATOM     31  CD1 ILE E   3     -20.007  26.690   0.631  1.00 40.89 LIG 0.01  C 
ENDBRANCH 28 30
ENDBRANCH 1 28
BRANCH 1 32
ATOM     32  N   ILE E   3     -23.296  26.533   1.612  1.00 40.60 LIG-0.35  N 
ATOM     33 H    ILE E   3     -22.713  27.142   1.442  1.00 40.60 LIG 0.16  HD
ATOM     34  C   ASP E   2     -24.265  26.644   2.511  1.00 44.87 LIG 0.24  C 
ATOM     35 O    ASP E   2     -25.149  25.791   2.654  1.00 39.41 LIG-0.27  OA
BRANCH 34 36
ATOM     36  CA  ASP E   2     -24.236  27.886   3.387  1.00 43.58 LIG 0.19  C 
BRANCH 36 37
ATOM     37  N   ASP E   2     -25.510  28.585   3.359  1.00 45.35 LIG-0.34  N 
ATOM     38  C   ASP E   1     -25.900  29.272   2.294  1.00 51.19 LIG 0.25  C 
ATOM     39 O    ASP E   1     -25.226  29.358   1.272  1.00 56.05 LIG-0.27  OA
ATOM     40 H    ASP E   2     -25.973  28.511   4.080  1.00 45.35 LIG 0.16  HD
BRANCH 38 41
ATOM     41  CA  ASP E   1     -27.255  29.954   2.392  1.00 54.43 LIG 0.28  C 
BRANCH 41 42
ATOM     42  CB  ASP E   1     -27.203  31.304   1.675  1.00 57.23 LIG 0.15  C 
BRANCH 42 43
ATOM     43  CG  ASP E   1     -27.884  32.408   2.466  1.00 60.86 LIG 0.17  C 
ATOM     44 OD2  ASP E   1     -27.264  33.475   2.654  1.00 61.39 LIG-0.65  OA
ATOM     45 OD1  ASP E   1     -29.049  32.208   2.885  1.00 65.62 LIG-0.65  OA
ENDBRANCH 42 43
ENDBRANCH 41 42
BRANCH 41 46
ATOM     46  N   ASP E   1     -27.651  30.128   3.782  1.00 57.81 LIG-0.07  N 
ATOM     47 H1   ASP E   1     -27.040  30.615   4.207  1.00 57.81 LIG 0.28  HD
ATOM     48 H3   ASP E   1     -27.720  29.332   4.173  1.00 57.81 LIG 0.28  HD
ATOM     49 H2   ASP E   1     -28.438  30.543   3.816  1.00 57.81 LIG 0.28  HD
ENDBRANCH 41 46
ENDBRANCH 38 41
ENDBRANCH 36 37
BRANCH 36 50
ATOM     50  CB  ASP E   2     -23.913  27.458   4.808  1.00 41.52 LIG 0.15  C 
BRANCH 50 51
ATOM     51  CG  ASP E   2     -25.128  26.983   5.556  1.00 49.49 LIG 0.17  C 
ATOM     52 OD1  ASP E   2     -26.013  27.818   5.837  1.00 51.56 LIG-0.65  OA
ATOM     53 OD2  ASP E   2     -25.194  25.775   5.855  1.00 52.06 LIG-0.65  OA
ENDBRANCH 50 51
ENDBRANCH 36 50
ENDBRANCH 34 36
ENDBRANCH 1 32
TORSDOF 20
ENDMDL
MODEL 21
USER: ADFR SOLUTION from run 30
USER: SCORE 16.961473 LL:  -4.752 LR: -13.543 RR:   0.000 FEB:  -7.577
USER: RMSD 11.301987
USER: SEED 29
USER: STATUS no improvement in best in 2 clusters for 5 generations
USER: GENES 22
USER: genes 0 Translation |==|  0.61072 0.35321 0.38916
USER: genes 1 Rotation |==|  0.06230 0.40900 0.35445 0.67015
USER: genes 2 Torsion [N]-CA--C-[N] |==|  0.12674
USER: genes 3 Torsion [C]-N--CA-[C] |==|  0.86577
USER: genes 4 Torsion [N]-CA--C-[N] |==|  0.31111
USER: genes 5 Torsion [N]-CA--C-[O] |==|  0.19557
USER: genes 6 Torsion [C]-N--CA-[CB] |==|  0.84250
USER: genes 7 Torsion [N]-CA--CB-[SG] |==|  0.24927
USER: genes 8 Torsion [CA]-CB--SG-[HG] |==|  0.08737
USER: genes 9 Torsion [N]-CA--C-[OXT] |==|  0.97703
USER: genes 10 Torsion [N]-CA--CB-[CG1] |==|  0.11253
USER: genes 11 Torsion [C]-CA--CB-[CG2] |==|  0.25339
USER: genes 12 Torsion [CA]-CB--CG1-[CD1] |==|  0.73365
USER: genes 13 Torsion [C]-CA--N-[C] |==|  0.15867
USER: genes 14 Torsion [N]-C--CA-[N] |==|  0.73035
USER: genes 15 Torsion [C]-CA--N-[C] |==|  0.72595
USER: genes 16 Torsion [N]-C--CA-[N] |==|  0.61071
USER: genes 17 Torsion [C]-CA--CB-[CG] |==|  0.79601
USER: genes 18 Torsion [CA]-CB--CG-[OD2] |==|  0.50598
USER: genes 19 Torsion [C]-CA--N-[H1] |==|  0.90762
USER: genes 20 Torsion [C]-CA--CB-[CG] |==|  0.23387
USER: genes 21 Torsion [CA]-CB--CG-[OD1] |==|  0.45122
ROOT
ATOM      1  CA  ILE E   3     -24.782  23.824   2.919  1.00 36.34 LIG 0.18  C 
ENDROOT
BRANCH 1 2
ATOM      2  C   ILE E   3     -24.419  24.704   4.107  1.00 39.45 LIG 0.24  C 
ATOM      3  N   VAL E   4     -24.178  25.990   3.846  1.00 32.94 LIG-0.35  N 
ATOM      4 H    VAL E   4     -24.283  26.350   3.073  1.00 32.94 LIG 0.16  HD
ATOM      5 O    ILE E   3     -24.346  24.222   5.232  1.00 42.21 LIG-0.27  OA
BRANCH 3 6
ATOM      6  CA  VAL E   4     -23.706  26.908   4.877  1.00 33.21 LIG 0.18  C 
BRANCH 6 7
ATOM      7  C   VAL E   4     -24.565  26.767   6.136  1.00 35.41 LIG 0.24  C 
ATOM      8 O    VAL E   4     -25.752  27.112   6.120  1.00 29.15 LIG-0.27  OA
ATOM      9  N   PRO E   5     -23.975  26.244   7.224  1.00 36.11 LIG-0.34  N 
ATOM     10  CA  PRO E   5     -24.715  26.138   8.487  1.00 34.10 LIG 0.18  C 
ATOM     11  CD  PRO E   5     -22.623  25.654   7.308  1.00 37.00 LIG 0.13  C 
ATOM     12  CB  PRO E   5     -23.708  25.464   9.440  1.00 38.74 LIG 0.04  C 
ATOM     13  CG  PRO E   5     -22.711  24.777   8.539  1.00 43.00 LIG 0.02  C 
BRANCH 10 14
ATOM     14  C   PRO E   5     -25.056  27.539   8.973  1.00 34.89 LIG 0.24  C 
ATOM     15  N   CYS E   6     -24.445  27.995  10.059  1.00 33.29 LIG-0.34  N 
ATOM     16 H    CYS E   6     -23.843  27.566  10.499  1.00 33.29 LIG 0.16  HD
ATOM     17 O    PRO E   5     -25.899  28.192   8.357  1.00 33.04 LIG-0.27  OA
BRANCH 15 18
ATOM     18  CA  CYS E   6     -24.778  29.322  10.593  1.00 33.63 LIG 0.19  C 
BRANCH 18 19
ATOM     19  CB  CYS E   6     -24.575  30.408   9.528  1.00 31.18 LIG 0.11  C 
BRANCH 19 20
ATOM     20 SG   CYS E   6     -26.085  30.711   8.517  1.00 33.89 LIG-0.18  SA
ATOM     21 HG   CYS E   6     -27.062  30.513   9.186  1.00 33.89 LIG 0.10  HD
ENDBRANCH 19 20
ENDBRANCH 18 19
BRANCH 18 22
ATOM     22  C   CYS E   6     -26.171  29.395  11.257  1.00 36.36 LIG 0.20  C 
ATOM     23 OXT  CYS E   6     -27.024  28.479  11.219  1.00 31.64 LIG-0.65  OA
ATOM     24 O    CYS E   6     -26.480  30.441  11.829  1.00 36.48 LIG-0.65  OA
ENDBRANCH 18 22
ENDBRANCH 15 18
ENDBRANCH 10 14
ENDBRANCH 6 7
BRANCH 6 25
ATOM     25  CB  VAL E   4     -23.794  28.375   4.385  1.00 33.86 LIG 0.01  C 
ATOM     26  CG2 VAL E   4     -23.675  29.347   5.564  1.00 37.12 LIG 0.01  C 
ATOM     27  CG1 VAL E   4     -25.084  28.601   3.604  1.00 36.74 LIG 0.01  C 
ENDBRANCH 6 25
ENDBRANCH 3 6
ENDBRANCH 1 2
BRANCH 1 28
ATOM     28  CB  ILE E   3     -24.748  22.356   3.316  1.00 41.05 LIG 0.01  C 
ATOM     29  CG2 ILE E   3     -26.121  21.906   3.796  1.00 37.15 LIG 0.01  C 
BRANCH 28 30
ATOM     30  CG1 ILE E   3     -24.263  21.511   2.134  1.00 42.94 LIG 0.00  C 
ATOM     31  CD1 ILE E   3     -25.395  20.917   1.323  1.00 40.89 LIG 0.01  C 
ENDBRANCH 28 30
ENDBRANCH 1 28
BRANCH 1 32
ATOM     32  N   ILE E   3     -23.859  24.111   1.838  1.00 40.60 LIG-0.35  N 
ATOM     33 H    ILE E   3     -24.226  24.362   1.102  1.00 40.60 LIG 0.16  HD
ATOM     34  C   ASP E   2     -22.552  23.979   2.024  1.00 44.87 LIG 0.24  C 
ATOM     35 O    ASP E   2     -22.053  23.719   3.125  1.00 39.41 LIG-0.27  OA
BRANCH 34 36
ATOM     36  CA  ASP E   2     -21.673  24.152   0.795  1.00 43.58 LIG 0.19  C 
BRANCH 36 37
ATOM     37  N   ASP E   2     -21.327  22.869   0.205  1.00 45.35 LIG-0.34  N 
ATOM     38  C   ASP E   1     -20.161  22.286   0.448  1.00 51.19 LIG 0.25  C 
ATOM     39 O    ASP E   1     -19.309  22.779   1.181  1.00 56.05 LIG-0.27  OA
ATOM     40 H    ASP E   2     -21.936  22.535  -0.302  1.00 45.35 LIG 0.16  HD
BRANCH 38 41
ATOM     41  CA  ASP E   1     -19.924  20.946  -0.228  1.00 54.43 LIG 0.28  C 
BRANCH 41 42
ATOM     42  CB  ASP E   1     -21.259  20.361  -0.692  1.00 57.23 LIG 0.15  C 
BRANCH 42 43
ATOM     43  CG  ASP E   1     -22.097  19.837   0.462  1.00 60.86 LIG 0.17  C 
ATOM     44 OD2  ASP E   1     -23.193  19.298   0.205  1.00 61.39 LIG-0.65  OA
ATOM     45 OD1  ASP E   1     -21.645  19.954   1.626  1.00 65.62 LIG-0.65  OA
ENDBRANCH 42 43
ENDBRANCH 41 42
BRANCH 41 46
ATOM     46  N   ASP E   1     -19.246  20.022   0.671  1.00 57.81 LIG-0.07  N 
ATOM     47 H1   ASP E   1     -18.693  20.475   1.201  1.00 57.81 LIG 0.28  HD
ATOM     48 H3   ASP E   1     -18.783  19.431   0.195  1.00 57.81 LIG 0.28  HD
ATOM     49 H2   ASP E   1     -19.849  19.595   1.167  1.00 57.81 LIG 0.28  HD
ENDBRANCH 41 46
ENDBRANCH 38 41
ENDBRANCH 36 37
BRANCH 36 50
ATOM     50  CB  ASP E   2     -22.428  24.998  -0.215  1.00 41.52 LIG 0.15  C 
BRANCH 50 51
ATOM     51  CG  ASP E   2     -22.278  26.472   0.043  1.00 49.49 LIG 0.17  C 
ATOM     52 OD1  ASP E   2     -22.559  27.265  -0.880  1.00 51.56 LIG-0.65  OA
ATOM     53 OD2  ASP E   2     -21.885  26.831   1.170  1.00 52.06 LIG-0.65  OA
ENDBRANCH 50 51
ENDBRANCH 36 50
ENDBRANCH 34 36
ENDBRANCH 1 32
TORSDOF 20
ENDMDL
MODEL 22
USER: ADFR SOLUTION from run 123
USER: SCORE 17.718875 LL:  -4.765 LR: -13.512 RR:   0.000 FEB:  -7.546
USER: RMSD 10.902696
USER: SEED 122
USER: STATUS searching
USER: GENES 22
USER: genes 0 Translation |==|  0.60653 0.33668 0.37748
USER: genes 1 Rotation |==|  0.09066 0.49557 0.30184 0.70774
USER: genes 2 Torsion [N]-CA--C-[N] |==|  0.16171
USER: genes 3 Torsion [C]-N--CA-[C] |==|  0.71505
USER: genes 4 Torsion [N]-CA--C-[N] |==|  0.44444
USER: genes 5 Torsion [N]-CA--C-[O] |==|  0.77447
USER: genes 6 Torsion [C]-N--CA-[CB] |==|  0.23653
USER: genes 7 Torsion [N]-CA--CB-[SG] |==|  0.19933
USER: genes 8 Torsion [CA]-CB--SG-[HG] |==|  0.93396
USER: genes 9 Torsion [N]-CA--C-[OXT] |==|  0.33034
USER: genes 10 Torsion [N]-CA--CB-[CG1] |==|  0.89185
USER: genes 11 Torsion [C]-CA--CB-[CG2] |==|  0.21448
USER: genes 12 Torsion [CA]-CB--CG1-[CD1] |==|  0.35711
USER: genes 13 Torsion [C]-CA--N-[C] |==|  0.78416
USER: genes 14 Torsion [N]-C--CA-[N] |==|  0.01420
USER: genes 15 Torsion [C]-CA--N-[C] |==|  0.75443
USER: genes 16 Torsion [N]-C--CA-[N] |==|  0.28628
USER: genes 17 Torsion [C]-CA--CB-[CG] |==|  0.28299
USER: genes 18 Torsion [CA]-CB--CG-[OD2] |==|  0.66879
USER: genes 19 Torsion [C]-CA--N-[H1] |==|  0.63659
USER: genes 20 Torsion [C]-CA--CB-[CG] |==|  0.25899
USER: genes 21 Torsion [CA]-CB--CG-[OD1] |==|  0.83427
ROOT
ATOM      1  CA  ILE E   3     -24.867  23.415   2.691  1.00 36.34 LIG 0.18  C 
ENDROOT
BRANCH 1 2
ATOM      2  C   ILE E   3     -24.407  23.752   4.103  1.00 39.45 LIG 0.24  C 
ATOM      3  N   VAL E   4     -24.010  25.007   4.318  1.00 32.94 LIG-0.35  N 
ATOM      4 H    VAL E   4     -24.066  25.634   3.733  1.00 32.94 LIG 0.16  HD
ATOM      5 O    ILE E   3     -24.398  22.887   4.972  1.00 42.21 LIG-0.27  OA
BRANCH 3 6
ATOM      6  CA  VAL E   4     -23.436  25.424   5.592  1.00 33.21 LIG 0.18  C 
BRANCH 6 7
ATOM      7  C   VAL E   4     -24.479  26.189   6.410  1.00 35.41 LIG 0.24  C 
ATOM      8 O    VAL E   4     -25.470  26.677   5.854  1.00 29.15 LIG-0.27  OA
ATOM      9  N   PRO E   5     -24.269  26.282   7.734  1.00 36.11 LIG-0.34  N 
ATOM     10  CA  PRO E   5     -25.191  27.055   8.576  1.00 34.10 LIG 0.18  C 
ATOM     11  CD  PRO E   5     -23.216  25.607   8.520  1.00 37.00 LIG 0.13  C 
ATOM     12  CB  PRO E   5     -24.621  26.873   9.997  1.00 38.74 LIG 0.04  C 
ATOM     13  CG  PRO E   5     -23.777  25.624   9.927  1.00 43.00 LIG 0.02  C 
BRANCH 10 14
ATOM     14  C   PRO E   5     -25.126  28.516   8.158  1.00 34.89 LIG 0.24  C 
ATOM     15  N   CYS E   6     -26.054  28.977   7.330  1.00 33.29 LIG-0.34  N 
ATOM     16 H    CYS E   6     -26.715  28.515   7.029  1.00 33.29 LIG 0.16  HD
ATOM     17 O    PRO E   5     -24.205  29.215   8.584  1.00 33.04 LIG-0.27  OA
BRANCH 15 18
ATOM     18  CA  CYS E   6     -26.002  30.367   6.860  1.00 33.63 LIG 0.19  C 
BRANCH 18 19
ATOM     19  CB  CYS E   6     -25.089  30.497   5.634  1.00 31.18 LIG 0.11  C 
BRANCH 19 20
ATOM     20 SG   CYS E   6     -25.822  29.756   4.113  1.00 33.89 LIG-0.18  SA
ATOM     21 HG   CYS E   6     -26.630  28.923   4.422  1.00 33.89 LIG 0.10  HD
ENDBRANCH 19 20
ENDBRANCH 18 19
BRANCH 18 22
ATOM     22  C   CYS E   6     -27.392  31.002   6.634  1.00 36.36 LIG 0.20  C 
ATOM     23 OXT  CYS E   6     -27.820  32.009   7.243  1.00 31.64 LIG-0.65  OA
ATOM     24 O    CYS E   6     -28.149  30.458   5.829  1.00 36.48 LIG-0.65  OA
ENDBRANCH 18 22
ENDBRANCH 15 18
ENDBRANCH 10 14
ENDBRANCH 6 7
BRANCH 6 25
ATOM     25  CB  VAL E   4     -22.215  26.351   5.365  1.00 33.86 LIG 0.01  C 
ATOM     26  CG2 VAL E   4     -22.668  27.803   5.177  1.00 37.12 LIG 0.01  C 
ATOM     27  CG1 VAL E   4     -21.389  25.867   4.178  1.00 36.74 LIG 0.01  C 
ENDBRANCH 6 25
ENDBRANCH 3 6
ENDBRANCH 1 2
BRANCH 1 28
ATOM     28  CB  ILE E   3     -25.309  21.962   2.610  1.00 41.05 LIG 0.01  C 
ATOM     29  CG2 ILE E   3     -26.694  21.796   3.222  1.00 37.15 LIG 0.01  C 
BRANCH 28 30
ATOM     30  CG1 ILE E   3     -25.282  21.493   1.152  1.00 42.94 LIG 0.00  C 
ATOM     31  CD1 ILE E   3     -24.512  20.204   0.955  1.00 40.89 LIG 0.01  C 
ENDBRANCH 28 30
ENDBRANCH 1 28
BRANCH 1 32
ATOM     32  N   ILE E   3     -23.779  23.699   1.775  1.00 40.60 LIG-0.35  N 
ATOM     33 H    ILE E   3     -23.342  23.010   1.503  1.00 40.60 LIG 0.16  HD
ATOM     34  C   ASP E   2     -23.520  24.949   1.414  1.00 44.87 LIG 0.24  C 
ATOM     35 O    ASP E   2     -24.234  25.904   1.741  1.00 39.41 LIG-0.27  OA
BRANCH 34 36
ATOM     36  CA  ASP E   2     -22.271  25.166   0.575  1.00 43.58 LIG 0.19  C 
BRANCH 36 37
ATOM     37  N   ASP E   2     -21.644  23.903   0.221  1.00 45.35 LIG-0.34  N 
ATOM     38  C   ASP E   1     -20.743  23.331   1.009  1.00 51.19 LIG 0.25  C 
ATOM     39 O    ASP E   1     -20.387  23.818   2.078  1.00 56.05 LIG-0.27  OA
ATOM     40 H    ASP E   2     -21.908  23.572  -0.528  1.00 45.35 LIG 0.16  HD
BRANCH 38 41
ATOM     41  CA  ASP E   1     -20.167  22.011   0.526  1.00 54.43 LIG 0.28  C 
BRANCH 41 42
ATOM     42  CB  ASP E   1     -20.144  21.007   1.679  1.00 57.23 LIG 0.15  C 
BRANCH 42 43
ATOM     43  CG  ASP E   1     -21.281  20.002   1.597  1.00 60.86 LIG 0.17  C 
ATOM     44 OD2  ASP E   1     -22.106  19.958   2.533  1.00 61.39 LIG-0.65  OA
ATOM     45 OD1  ASP E   1     -21.354  19.268   0.582  1.00 65.62 LIG-0.65  OA
ENDBRANCH 42 43
ENDBRANCH 41 42
BRANCH 41 46
ATOM     46  N   ASP E   1     -18.828  22.195  -0.018  1.00 57.81 LIG-0.07  N 
ATOM     47 H1   ASP E   1     -18.773  21.798  -0.813  1.00 57.81 LIG 0.28  HD
ATOM     48 H3   ASP E   1     -18.231  21.835   0.535  1.00 57.81 LIG 0.28  HD
ATOM     49 H2   ASP E   1     -18.662  23.064  -0.108  1.00 57.81 LIG 0.28  HD
ENDBRANCH 41 46
ENDBRANCH 38 41
ENDBRANCH 36 37
BRANCH 36 50
ATOM     50  CB  ASP E   2     -22.668  25.916  -0.684  1.00 41.52 LIG 0.15  C 
BRANCH 50 51
ATOM     51  CG  ASP E   2     -22.518  27.405  -0.538  1.00 49.49 LIG 0.17  C 
ATOM     52 OD1  ASP E   2     -23.172  27.980   0.357  1.00 51.56 LIG-0.65  OA
ATOM     53 OD2  ASP E   2     -21.741  27.993  -1.316  1.00 52.06 LIG-0.65  OA
ENDBRANCH 50 51
ENDBRANCH 36 50
ENDBRANCH 34 36
ENDBRANCH 1 32
TORSDOF 20
ENDMDL
MODEL 23
USER: ADFR SOLUTION from run 5
USER: SCORE 18.179514 LL:  -5.284 LR: -13.505 RR:   0.000 FEB:  -7.539
USER: RMSD 11.831864
USER: SEED 952778
USER: STATUS no improvement in best in 1 clusters for 5 generations
USER: GENES 22
USER: genes 0 Translation |==|  0.71471 0.27894 0.35601
USER: genes 1 Rotation |==|  0.86177 0.57940 0.81871 0.60604
USER: genes 2 Torsion [N]-CA--C-[N] |==|  0.45253
USER: genes 3 Torsion [C]-N--CA-[C] |==|  0.69322
USER: genes 4 Torsion [N]-CA--C-[N] |==|  0.23333
USER: genes 5 Torsion [N]-CA--C-[O] |==|  0.86862
USER: genes 6 Torsion [C]-N--CA-[CB] |==|  0.19997
USER: genes 7 Torsion [N]-CA--CB-[SG] |==|  0.07064
USER: genes 8 Torsion [CA]-CB--SG-[HG] |==|  0.98865
USER: genes 9 Torsion [N]-CA--C-[OXT] |==|  0.65548
USER: genes 10 Torsion [N]-CA--CB-[CG1] |==|  0.49579
USER: genes 11 Torsion [C]-CA--CB-[CG2] |==|  0.98158
USER: genes 12 Torsion [CA]-CB--CG1-[CD1] |==|  0.84231
USER: genes 13 Torsion [C]-CA--N-[C] |==|  0.56319
USER: genes 14 Torsion [N]-C--CA-[N] |==|  0.01323
USER: genes 15 Torsion [C]-CA--N-[C] |==|  0.75000
USER: genes 16 Torsion [N]-C--CA-[N] |==|  0.73423
USER: genes 17 Torsion [C]-CA--CB-[CG] |==|  0.71889
USER: genes 18 Torsion [CA]-CB--CG-[OD2] |==|  0.84088
USER: genes 19 Torsion [C]-CA--N-[H1] |==|  0.17012
USER: genes 20 Torsion [C]-CA--CB-[CG] |==|  0.38777
USER: genes 21 Torsion [CA]-CB--CG-[OD1] |==|  0.60936
ROOT
ATOM      1  CA  ILE E   3     -22.676  21.986   2.272  1.00 36.34 LIG 0.18  C 
ENDROOT
BRANCH 1 2
ATOM      2  C   ILE E   3     -22.434  23.420   2.723  1.00 39.45 LIG 0.24  C 
ATOM      3  N   VAL E   4     -23.225  24.354   2.194  1.00 32.94 LIG-0.35  N 
ATOM      4 H    VAL E   4     -23.892  24.182   1.680  1.00 32.94 LIG 0.16  HD
ATOM      5 O    ILE E   3     -21.538  23.672   3.522  1.00 42.21 LIG-0.27  OA
BRANCH 3 6
ATOM      6  CA  VAL E   4     -23.017  25.774   2.453  1.00 33.21 LIG 0.18  C 
BRANCH 6 7
ATOM      7  C   VAL E   4     -24.148  26.317   3.331  1.00 35.41 LIG 0.24  C 
ATOM      8 O    VAL E   4     -25.128  26.865   2.814  1.00 29.15 LIG-0.27  OA
ATOM      9  N   PRO E   5     -24.024  26.151   4.659  1.00 36.11 LIG-0.34  N 
ATOM     10  CA  PRO E   5     -25.036  26.701   5.570  1.00 34.10 LIG 0.18  C 
ATOM     11  CD  PRO E   5     -22.985  25.376   5.367  1.00 37.00 LIG 0.13  C 
ATOM     12  CB  PRO E   5     -24.543  26.262   6.963  1.00 38.74 LIG 0.04  C 
ATOM     13  CG  PRO E   5     -23.629  25.088   6.707  1.00 43.00 LIG 0.02  C 
BRANCH 10 14
ATOM     14  C   PRO E   5     -25.024  28.218   5.453  1.00 34.89 LIG 0.24  C 
ATOM     15  N   CYS E   6     -26.181  28.847   5.297  1.00 33.29 LIG-0.34  N 
ATOM     16 H    CYS E   6     -26.950  28.462   5.285  1.00 33.29 LIG 0.16  HD
ATOM     17 O    PRO E   5     -23.943  28.808   5.486  1.00 33.04 LIG-0.27  OA
BRANCH 15 18
ATOM     18  CA  CYS E   6     -26.214  30.306   5.131  1.00 33.63 LIG 0.19  C 
BRANCH 18 19
ATOM     19  CB  CYS E   6     -25.686  30.711   3.749  1.00 31.18 LIG 0.11  C 
BRANCH 19 20
ATOM     20 SG   CYS E   6     -25.876  29.378   2.490  1.00 33.89 LIG-0.18  SA
ATOM     21 HG   CYS E   6     -26.315  28.391   3.014  1.00 33.89 LIG 0.10  HD
ENDBRANCH 19 20
ENDBRANCH 18 19
BRANCH 18 22
ATOM     22  C   CYS E   6     -27.586  30.940   5.451  1.00 36.36 LIG 0.20  C 
ATOM     23 OXT  CYS E   6     -28.240  31.655   4.657  1.00 31.64 LIG-0.65  OA
ATOM     24 O    CYS E   6     -28.052  30.764   6.577  1.00 36.48 LIG-0.65  OA
ENDBRANCH 18 22
ENDBRANCH 15 18
ENDBRANCH 10 14
ENDBRANCH 6 7
BRANCH 6 25
ATOM     25  CB  VAL E   4     -23.000  26.575   1.126  1.00 33.86 LIG 0.01  C 
ATOM     26  CG2 VAL E   4     -21.910  26.043   0.189  1.00 37.12 LIG 0.01  C 
ATOM     27  CG1 VAL E   4     -22.820  28.064   1.402  1.00 36.74 LIG 0.01  C 
ENDBRANCH 6 25
ENDBRANCH 3 6
ENDBRANCH 1 2
BRANCH 1 28
ATOM     28  CB  ILE E   3     -23.939  21.433   2.916  1.00 41.05 LIG 0.01  C 
ATOM     29  CG2 ILE E   3     -24.486  22.421   3.938  1.00 37.15 LIG 0.01  C 
BRANCH 28 30
ATOM     30  CG1 ILE E   3     -24.976  21.117   1.834  1.00 42.94 LIG 0.00  C 
ATOM     31  CD1 ILE E   3     -25.317  22.311   0.968  1.00 40.89 LIG 0.01  C 
ENDBRANCH 28 30
ENDBRANCH 1 28
BRANCH 1 32
ATOM     32  N   ILE E   3     -21.509  21.195   2.612  1.00 40.60 LIG-0.35  N 
ATOM     33 H    ILE E   3     -21.023  21.516   3.245  1.00 40.60 LIG 0.16  HD
ATOM     34  C   ASP E   2     -21.254  20.068   1.960  1.00 44.87 LIG 0.24  C 
ATOM     35 O    ASP E   2     -22.030  19.583   1.128  1.00 39.41 LIG-0.27  OA
BRANCH 34 36
ATOM     36  CA  ASP E   2     -19.932  19.388   2.277  1.00 43.58 LIG 0.19  C 
BRANCH 36 37
ATOM     37  N   ASP E   2     -19.227  20.072   3.349  1.00 45.35 LIG-0.34  N 
ATOM     38  C   ASP E   1     -18.371  21.054   3.099  1.00 51.19 LIG 0.25  C 
ATOM     39 O    ASP E   1     -18.124  21.450   1.964  1.00 56.05 LIG-0.27  OA
ATOM     40 H    ASP E   2     -19.414  19.786   4.138  1.00 45.35 LIG 0.16  HD
BRANCH 38 41
ATOM     41  CA  ASP E   1     -17.703  21.689   4.307  1.00 54.43 LIG 0.28  C 
BRANCH 41 42
ATOM     42  CB  ASP E   1     -17.641  20.677   5.451  1.00 57.23 LIG 0.15  C 
BRANCH 42 43
ATOM     43  CG  ASP E   1     -18.720  20.911   6.494  1.00 60.86 LIG 0.17  C 
ATOM     44 OD2  ASP E   1     -18.775  22.025   7.055  1.00 61.39 LIG-0.65  OA
ATOM     45 OD1  ASP E   1     -19.524  19.980   6.738  1.00 65.62 LIG-0.65  OA
ENDBRANCH 42 43
ENDBRANCH 41 42
BRANCH 41 46
ATOM     46  N   ASP E   1     -18.414  22.890   4.725  1.00 57.81 LIG-0.07  N 
ATOM     47 H1   ASP E   1     -19.247  22.677   4.957  1.00 57.81 LIG 0.28  HD
ATOM     48 H3   ASP E   1     -18.434  23.472   4.052  1.00 57.81 LIG 0.28  HD
ATOM     49 H2   ASP E   1     -17.996  23.255   5.420  1.00 57.81 LIG 0.28  HD
ENDBRANCH 41 46
ENDBRANCH 38 41
ENDBRANCH 36 37
BRANCH 36 50
ATOM     50  CB  ASP E   2     -20.220  17.953   2.683  1.00 41.52 LIG 0.15  C 
BRANCH 50 51
ATOM     51  CG  ASP E   2     -19.220  16.983   2.116  1.00 49.49 LIG 0.17  C 
ATOM     52 OD1  ASP E   2     -19.635  15.880   1.705  1.00 51.56 LIG-0.65  OA
ATOM     53 OD2  ASP E   2     -18.024  17.332   2.079  1.00 52.06 LIG-0.65  OA
ENDBRANCH 50 51
ENDBRANCH 36 50
ENDBRANCH 34 36
ENDBRANCH 1 32
TORSDOF 20
ENDMDL
MODEL 24
USER: ADFR SOLUTION from run 90
USER: SCORE 17.833049 LL:  -5.242 LR: -13.486 RR:   0.000 FEB:  -7.520
USER: RMSD 11.307950
USER: SEED 89
USER: STATUS no improvement in best in 6 clusters for 5 generations
USER: GENES 22
USER: genes 0 Translation |==|  0.63809 0.32351 0.39629
USER: genes 1 Rotation |==|  0.08794 0.45718 0.23453 0.58887
USER: genes 2 Torsion [N]-CA--C-[N] |==|  0.16884
USER: genes 3 Torsion [C]-N--CA-[C] |==|  0.78780
USER: genes 4 Torsion [N]-CA--C-[N] |==|  0.43364
USER: genes 5 Torsion [N]-CA--C-[O] |==|  0.75397
USER: genes 6 Torsion [C]-N--CA-[CB] |==|  0.39571
USER: genes 7 Torsion [N]-CA--CB-[SG] |==|  0.88027
USER: genes 8 Torsion [CA]-CB--SG-[HG] |==|  0.21927
USER: genes 9 Torsion [N]-CA--C-[OXT] |==|  0.48035
USER: genes 10 Torsion [N]-CA--CB-[CG1] |==|  0.31447
USER: genes 11 Torsion [C]-CA--CB-[CG2] |==|  0.19808
USER: genes 12 Torsion [CA]-CB--CG1-[CD1] |==|  0.86430
USER: genes 13 Torsion [C]-CA--N-[C] |==|  0.75316
USER: genes 14 Torsion [N]-C--CA-[N] |==|  0.22136
USER: genes 15 Torsion [C]-CA--N-[C] |==|  0.60092
USER: genes 16 Torsion [N]-C--CA-[N] |==|  0.55869
USER: genes 17 Torsion [C]-CA--CB-[CG] |==|  0.84400
USER: genes 18 Torsion [CA]-CB--CG-[OD2] |==|  0.47121
USER: genes 19 Torsion [C]-CA--N-[H1] |==|  0.29292
USER: genes 20 Torsion [C]-CA--CB-[CG] |==|  0.24860
USER: genes 21 Torsion [CA]-CB--CG-[OD1] |==|  0.89771
ROOT
ATOM      1  CA  ILE E   3     -24.228  23.089   3.058  1.00 36.34 LIG 0.18  C 
ENDROOT
BRANCH 1 2
ATOM      2  C   ILE E   3     -24.044  23.987   4.274  1.00 39.45 LIG 0.24  C 
ATOM      3  N   VAL E   4     -23.476  25.174   4.059  1.00 32.94 LIG-0.35  N 
ATOM      4 H    VAL E   4     -23.279  25.477   3.280  1.00 32.94 LIG 0.16  HD
ATOM      5 O    ILE E   3     -24.397  23.601   5.383  1.00 42.21 LIG-0.27  OA
BRANCH 3 6
ATOM      6  CA  VAL E   4     -23.138  26.073   5.156  1.00 33.21 LIG 0.18  C 
BRANCH 6 7
ATOM      7  C   VAL E   4     -24.402  26.759   5.680  1.00 35.41 LIG 0.24  C 
ATOM      8 O    VAL E   4     -25.398  26.864   4.955  1.00 29.15 LIG-0.27  OA
ATOM      9  N   PRO E   5     -24.373  27.212   6.945  1.00 36.11 LIG-0.34  N 
ATOM     10  CA  PRO E   5     -25.524  27.938   7.497  1.00 34.10 LIG 0.18  C 
ATOM     11  CD  PRO E   5     -23.305  26.999   7.943  1.00 37.00 LIG 0.13  C 
ATOM     12  CB  PRO E   5     -25.100  28.235   8.949  1.00 38.74 LIG 0.04  C 
ATOM     13  CG  PRO E   5     -24.020  27.228   9.259  1.00 43.00 LIG 0.02  C 
BRANCH 10 14
ATOM     14  C   PRO E   5     -25.704  29.232   6.717  1.00 34.89 LIG 0.24  C 
ATOM     15  N   CYS E   6     -26.490  29.220   5.649  1.00 33.29 LIG-0.34  N 
ATOM     16 H    CYS E   6     -26.934  28.536   5.375  1.00 33.29 LIG 0.16  HD
ATOM     17 O    PRO E   5     -25.100  30.239   7.091  1.00 33.04 LIG-0.27  OA
BRANCH 15 18
ATOM     18  CA  CYS E   6     -26.654  30.433   4.838  1.00 33.63 LIG 0.19  C 
BRANCH 18 19
ATOM     19  CB  CYS E   6     -26.744  30.086   3.346  1.00 31.18 LIG 0.11  C 
BRANCH 19 20
ATOM     20 SG   CYS E   6     -25.511  28.816   2.831  1.00 33.89 LIG-0.18  SA
ATOM     21 HG   CYS E   6     -25.900  27.727   3.153  1.00 33.89 LIG 0.10  HD
ENDBRANCH 19 20
ENDBRANCH 18 19
BRANCH 18 22
ATOM     22  C   CYS E   6     -27.811  31.345   5.305  1.00 36.36 LIG 0.20  C 
ATOM     23 OXT  CYS E   6     -28.048  32.484   4.840  1.00 31.64 LIG-0.65  OA
ATOM     24 O    CYS E   6     -28.524  30.943   6.224  1.00 36.48 LIG-0.65  OA
ENDBRANCH 18 22
ENDBRANCH 15 18
ENDBRANCH 10 14
ENDBRANCH 6 7
BRANCH 6 25
ATOM     25  CB  VAL E   4     -22.148  27.167   4.681  1.00 33.86 LIG 0.01  C 
ATOM     26  CG2 VAL E   4     -20.871  27.143   5.529  1.00 37.12 LIG 0.01  C 
ATOM     27  CG1 VAL E   4     -22.812  28.540   4.712  1.00 36.74 LIG 0.01  C 
ENDBRANCH 6 25
ENDBRANCH 3 6
ENDBRANCH 1 2
BRANCH 1 28
ATOM     28  CB  ILE E   3     -24.964  21.815   3.445  1.00 41.05 LIG 0.01  C 
ATOM     29  CG2 ILE E   3     -26.425  22.120   3.747  1.00 37.15 LIG 0.01  C 
BRANCH 28 30
ATOM     30  CG1 ILE E   3     -24.828  20.778   2.326  1.00 42.94 LIG 0.00  C 
ATOM     31  CD1 ILE E   3     -25.149  21.336   0.955  1.00 40.89 LIG 0.01  C 
ENDBRANCH 28 30
ENDBRANCH 1 28
BRANCH 1 32
ATOM     32  N   ILE E   3     -22.921  22.806   2.495  1.00 40.60 LIG-0.35  N 
ATOM     33 H    ILE E   3     -22.539  22.098   2.798  1.00 40.60 LIG 0.16  HD
ATOM     34  C   ASP E   2     -22.399  23.616   1.582  1.00 44.87 LIG 0.24  C 
ATOM     35 O    ASP E   2     -23.020  24.566   1.093  1.00 39.41 LIG-0.27  OA
BRANCH 34 36
ATOM     36  CA  ASP E   2     -20.966  23.327   1.164  1.00 43.58 LIG 0.19  C 
BRANCH 36 37
ATOM     37  N   ASP E   2     -20.903  22.236   0.205  1.00 45.35 LIG-0.34  N 
ATOM     38  C   ASP E   1     -19.908  21.359   0.217  1.00 51.19 LIG 0.25  C 
ATOM     39 O    ASP E   1     -18.989  21.405   1.030  1.00 56.05 LIG-0.27  OA
ATOM     40 H    ASP E   2     -21.556  22.215  -0.354  1.00 45.35 LIG 0.16  HD
BRANCH 38 41
ATOM     41  CA  ASP E   1     -19.961  20.265  -0.835  1.00 54.43 LIG 0.28  C 
BRANCH 41 42
ATOM     42  CB  ASP E   1     -21.412  19.840  -1.062  1.00 57.23 LIG 0.15  C 
BRANCH 42 43
ATOM     43  CG  ASP E   1     -22.093  19.391   0.219  1.00 60.86 LIG 0.17  C 
ATOM     44 OD2  ASP E   1     -23.328  19.207   0.205  1.00 61.39 LIG-0.65  OA
ATOM     45 OD1  ASP E   1     -21.384  19.207   1.237  1.00 65.62 LIG-0.65  OA
ENDBRANCH 42 43
ENDBRANCH 41 42
BRANCH 41 46
ATOM     46  N   ASP E   1     -19.149  19.122  -0.440  1.00 57.81 LIG-0.07  N 
ATOM     47 H1   ASP E   1     -19.679  18.457  -0.177  1.00 57.81 LIG 0.28  HD
ATOM     48 H3   ASP E   1     -18.613  19.356   0.230  1.00 57.81 LIG 0.28  HD
ATOM     49 H2   ASP E   1     -18.658  18.854  -1.132  1.00 57.81 LIG 0.28  HD
ENDBRANCH 41 46
ENDBRANCH 38 41
ENDBRANCH 36 37
BRANCH 36 50
ATOM     50  CB  ASP E   2     -20.387  24.589   0.548  1.00 41.52 LIG 0.15  C 
BRANCH 50 51
ATOM     51  CG  ASP E   2     -19.731  25.477   1.568  1.00 49.49 LIG 0.17  C 
ATOM     52 OD1  ASP E   2     -20.251  25.561   2.701  1.00 51.56 LIG-0.65  OA
ATOM     53 OD2  ASP E   2     -18.695  26.084   1.234  1.00 52.06 LIG-0.65  OA
ENDBRANCH 50 51
ENDBRANCH 36 50
ENDBRANCH 34 36
ENDBRANCH 1 32
TORSDOF 20
ENDMDL
MODEL 25
USER: ADFR SOLUTION from run 169
USER: SCORE 17.152985 LL:  -4.783 LR: -13.468 RR:   0.000 FEB:  -7.502
USER: RMSD 11.500884
USER: SEED 168
USER: STATUS no improvement in best in 5 clusters for 5 generations
USER: GENES 22
USER: genes 0 Translation |==|  0.64664 0.37386 0.40057
USER: genes 1 Rotation |==|  0.24370 0.54695 0.07664 0.55362
USER: genes 2 Torsion [N]-CA--C-[N] |==|  0.08960
USER: genes 3 Torsion [C]-N--CA-[C] |==|  0.69238
USER: genes 4 Torsion [N]-CA--C-[N] |==|  0.26111
USER: genes 5 Torsion [N]-CA--C-[O] |==|  0.34876
USER: genes 6 Torsion [C]-N--CA-[CB] |==|  0.22781
USER: genes 7 Torsion [N]-CA--CB-[SG] |==|  0.25938
USER: genes 8 Torsion [CA]-CB--SG-[HG] |==|  0.79843
USER: genes 9 Torsion [N]-CA--C-[OXT] |==|  0.01838
USER: genes 10 Torsion [N]-CA--CB-[CG1] |==|  0.14540
USER: genes 11 Torsion [C]-CA--CB-[CG2] |==|  0.44108
USER: genes 12 Torsion [CA]-CB--CG1-[CD1] |==|  0.69920
USER: genes 13 Torsion [C]-CA--N-[C] |==|  0.56951
USER: genes 14 Torsion [N]-C--CA-[N] |==|  0.41072
USER: genes 15 Torsion [C]-CA--N-[C] |==|  0.77727
USER: genes 16 Torsion [N]-C--CA-[N] |==|  0.38948
USER: genes 17 Torsion [C]-CA--CB-[CG] |==|  0.80100
USER: genes 18 Torsion [CA]-CB--CG-[OD2] |==|  0.69171
USER: genes 19 Torsion [C]-CA--N-[H1] |==|  0.23883
USER: genes 20 Torsion [C]-CA--CB-[CG] |==|  0.25709
USER: genes 21 Torsion [CA]-CB--CG-[OD1] |==|  0.70097
ROOT
ATOM      1  CA  ILE E   3     -24.055  24.335   3.141  1.00 36.34 LIG 0.18  C 
ENDROOT
BRANCH 1 2
ATOM      2  C   ILE E   3     -24.613  24.989   4.398  1.00 39.45 LIG 0.24  C 
ATOM      3  N   VAL E   4     -23.740  25.259   5.369  1.00 32.94 LIG-0.35  N 
ATOM      4 H    VAL E   4     -22.891  25.149   5.294  1.00 32.94 LIG 0.16  HD
ATOM      5 O    ILE E   3     -25.813  25.228   4.488  1.00 42.21 LIG-0.27  OA
BRANCH 3 6
ATOM      6  CA  VAL E   4     -24.167  25.773   6.665  1.00 33.21 LIG 0.18  C 
BRANCH 6 7
ATOM      7  C   VAL E   4     -23.713  27.226   6.826  1.00 35.41 LIG 0.24  C 
ATOM      8 O    VAL E   4     -22.576  27.480   7.243  1.00 29.15 LIG-0.27  OA
ATOM      9  N   PRO E   5     -24.591  28.183   6.481  1.00 36.11 LIG-0.34  N 
ATOM     10  CA  PRO E   5     -24.252  29.600   6.668  1.00 34.10 LIG 0.18  C 
ATOM     11  CD  PRO E   5     -25.902  27.996   5.827  1.00 37.00 LIG 0.13  C 
ATOM     12  CB  PRO E   5     -25.488  30.342   6.121  1.00 38.74 LIG 0.04  C 
ATOM     13  CG  PRO E   5     -26.170  29.352   5.209  1.00 43.00 LIG 0.02  C 
BRANCH 10 14
ATOM     14  C   PRO E   5     -24.083  29.869   8.156  1.00 34.89 LIG 0.24  C 
ATOM     15  N   CYS E   6     -25.084  29.562   8.970  1.00 33.29 LIG-0.34  N 
ATOM     16 H    CYS E   6     -25.820  29.192   8.723  1.00 33.29 LIG 0.16  HD
ATOM     17 O    PRO E   5     -23.033  30.380   8.551  1.00 33.04 LIG-0.27  OA
BRANCH 15 18
ATOM     18  CA  CYS E   6     -24.985  29.849  10.406  1.00 33.63 LIG 0.19  C 
BRANCH 18 19
ATOM     19  CB  CYS E   6     -25.335  31.314  10.697  1.00 31.18 LIG 0.11  C 
BRANCH 19 20
ATOM     20 SG   CYS E   6     -27.112  31.553  11.129  1.00 33.89 LIG-0.18  SA
ATOM     21 HG   CYS E   6     -27.785  31.424  10.144  1.00 33.89 LIG 0.10  HD
ENDBRANCH 19 20
ENDBRANCH 18 19
BRANCH 18 22
ATOM     22  C   CYS E   6     -25.773  28.863  11.297  1.00 36.36 LIG 0.20  C 
ATOM     23 OXT  CYS E   6     -26.346  27.831  10.877  1.00 31.64 LIG-0.65  OA
ATOM     24 O    CYS E   6     -25.880  29.129  12.494  1.00 36.48 LIG-0.65  OA
ENDBRANCH 18 22
ENDBRANCH 15 18
ENDBRANCH 10 14
ENDBRANCH 6 7
BRANCH 6 25
ATOM     25  CB  VAL E   4     -23.551  24.937   7.816  1.00 33.86 LIG 0.01  C 
ATOM     26  CG2 VAL E   4     -23.925  25.536   9.177  1.00 37.12 LIG 0.01  C 
ATOM     27  CG1 VAL E   4     -22.039  24.831   7.650  1.00 36.74 LIG 0.01  C 
ENDBRANCH 6 25
ENDBRANCH 3 6
ENDBRANCH 1 2
BRANCH 1 28
ATOM     28  CB  ILE E   3     -25.142  23.549   2.424  1.00 41.05 LIG 0.01  C 
ATOM     29  CG2 ILE E   3     -24.767  23.343   0.962  1.00 37.15 LIG 0.01  C 
BRANCH 28 30
ATOM     30  CG1 ILE E   3     -25.371  22.213   3.136  1.00 42.94 LIG 0.00  C 
ATOM     31  CD1 ILE E   3     -24.853  21.025   2.355  1.00 40.89 LIG 0.01  C 
ENDBRANCH 28 30
ENDBRANCH 1 28
BRANCH 1 32
ATOM     32  N   ILE E   3     -22.940  23.488   3.522  1.00 40.60 LIG-0.35  N 
ATOM     33 H    ILE E   3     -22.959  23.204   4.333  1.00 40.60 LIG 0.16  HD
ATOM     34  C   ASP E   2     -21.988  23.204   2.643  1.00 44.87 LIG 0.24  C 
ATOM     35 O    ASP E   2     -22.048  23.542   1.455  1.00 39.41 LIG-0.27  OA
BRANCH 34 36
ATOM     36  CA  ASP E   2     -20.786  22.439   3.172  1.00 43.58 LIG 0.19  C 
BRANCH 36 37
ATOM     37  N   ASP E   2     -20.226  21.562   2.157  1.00 45.35 LIG-0.34  N 
ATOM     38  C   ASP E   1     -20.766  20.381   1.887  1.00 51.19 LIG 0.25  C 
ATOM     39 O    ASP E   1     -21.763  19.957   2.462  1.00 56.05 LIG-0.27  OA
ATOM     40 H    ASP E   2     -19.530  21.875   1.759  1.00 45.35 LIG 0.16  HD
BRANCH 38 41
ATOM     41  CA  ASP E   1     -20.087  19.562   0.802  1.00 54.43 LIG 0.28  C 
BRANCH 41 42
ATOM     42  CB  ASP E   1     -20.820  19.759  -0.526  1.00 57.23 LIG 0.15  C 
BRANCH 42 43
ATOM     43  CG  ASP E   1     -22.176  19.074  -0.548  1.00 60.86 LIG 0.17  C 
ATOM     44 OD2  ASP E   1     -22.330  18.082  -1.290  1.00 61.39 LIG-0.65  OA
ATOM     45 OD1  ASP E   1     -23.081  19.524   0.194  1.00 65.62 LIG-0.65  OA
ENDBRANCH 42 43
ENDBRANCH 41 42
BRANCH 41 46
ATOM     46  N   ASP E   1     -20.049  18.151   1.160  1.00 57.81 LIG-0.07  N 
ATOM     47 H1   ASP E   1     -20.808  17.759   0.909  1.00 57.81 LIG 0.28  HD
ATOM     48 H3   ASP E   1     -19.952  18.071   2.041  1.00 57.81 LIG 0.28  HD
ATOM     49 H2   ASP E   1     -19.363  17.759   0.751  1.00 57.81 LIG 0.28  HD
ENDBRANCH 41 46
ENDBRANCH 38 41
ENDBRANCH 36 37
BRANCH 36 50
ATOM     50  CB  ASP E   2     -19.740  23.445   3.618  1.00 41.52 LIG 0.15  C 
BRANCH 50 51
ATOM     51  CG  ASP E   2     -19.860  23.791   5.077  1.00 49.49 LIG 0.17  C 
ATOM     52 OD1  ASP E   2     -20.300  24.919   5.382  1.00 51.56 LIG-0.65  OA
ATOM     53 OD2  ASP E   2     -19.518  22.930   5.911  1.00 52.06 LIG-0.65  OA
ENDBRANCH 50 51
ENDBRANCH 36 50
ENDBRANCH 34 36
ENDBRANCH 1 32
TORSDOF 20
ENDMDL
MODEL 26
USER: ADFR SOLUTION from run 174
USER: SCORE 17.995075 LL:  -5.079 LR: -13.411 RR:   0.000 FEB:  -7.445
USER: RMSD 1.303211
USER: SEED 173
USER: STATUS no improvement in best in 3 clusters for 5 generations
USER: GENES 22
USER: genes 0 Translation |==|  0.53357 0.60671 0.43300
USER: genes 1 Rotation |==|  0.47192 0.52191 0.54158 0.99699
USER: genes 2 Torsion [N]-CA--C-[N] |==|  0.37558
USER: genes 3 Torsion [C]-N--CA-[C] |==|  0.60886
USER: genes 4 Torsion [N]-CA--C-[N] |==|  0.35103
USER: genes 5 Torsion [N]-CA--C-[O] |==|  0.91793
USER: genes 6 Torsion [C]-N--CA-[CB] |==|  0.32535
USER: genes 7 Torsion [N]-CA--CB-[SG] |==|  0.80558
USER: genes 8 Torsion [CA]-CB--SG-[HG] |==|  0.75064
USER: genes 9 Torsion [N]-CA--C-[OXT] |==|  0.75718
USER: genes 10 Torsion [N]-CA--CB-[CG1] |==|  0.82130
USER: genes 11 Torsion [C]-CA--CB-[CG2] |==|  0.04870
USER: genes 12 Torsion [CA]-CB--CG1-[CD1] |==|  0.21791
USER: genes 13 Torsion [C]-CA--N-[C] |==|  0.75246
USER: genes 14 Torsion [N]-C--CA-[N] |==|  0.36348
USER: genes 15 Torsion [C]-CA--N-[C] |==|  0.71133
USER: genes 16 Torsion [N]-C--CA-[N] |==|  0.11775
USER: genes 17 Torsion [C]-CA--CB-[CG] |==|  0.61841
USER: genes 18 Torsion [CA]-CB--CG-[OD2] |==|  0.36313
USER: genes 19 Torsion [C]-CA--N-[H1] |==|  0.56737
USER: genes 20 Torsion [C]-CA--CB-[CG] |==|  0.67340
USER: genes 21 Torsion [CA]-CB--CG-[OD1] |==|  0.81643
ROOT
ATOM      1  CA  ILE E   3     -26.344  30.098   3.774  1.00 36.34 LIG 0.18  C 
ENDROOT
BRANCH 1 2
ATOM      2  C   ILE E   3     -25.052  29.293   3.815  1.00 39.45 LIG 0.24  C 
ATOM      3  N   VAL E   4     -25.163  27.976   3.636  1.00 32.94 LIG-0.35  N 
ATOM      4 H    VAL E   4     -25.899  27.580   3.434  1.00 32.94 LIG 0.16  HD
ATOM      5 O    ILE E   3     -23.982  29.855   4.021  1.00 42.21 LIG-0.27  OA
BRANCH 3 6
ATOM      6  CA  VAL E   4     -24.018  27.083   3.772  1.00 33.21 LIG 0.18  C 
BRANCH 6 7
ATOM      7  C   VAL E   4     -24.073  25.995   2.696  1.00 35.41 LIG 0.24  C 
ATOM      8 O    VAL E   4     -25.094  25.312   2.555  1.00 29.15 LIG-0.27  OA
ATOM      9  N   PRO E   5     -22.984  25.843   1.924  1.00 36.11 LIG-0.34  N 
ATOM     10  CA  PRO E   5     -22.937  24.778   0.914  1.00 34.10 LIG 0.18  C 
ATOM     11  CD  PRO E   5     -21.783  26.703   1.898  1.00 37.00 LIG 0.13  C 
ATOM     12  CB  PRO E   5     -21.563  24.978   0.243  1.00 38.74 LIG 0.04  C 
ATOM     13  CG  PRO E   5     -21.184  26.409   0.538  1.00 43.00 LIG 0.02  C 
BRANCH 10 14
ATOM     14  C   PRO E   5     -22.995  23.432   1.621  1.00 34.89 LIG 0.24  C 
ATOM     15  N   CYS E   6     -23.566  22.414   0.990  1.00 33.29 LIG-0.34  N 
ATOM     16 H    CYS E   6     -23.885  22.449   0.192  1.00 33.29 LIG 0.16  HD
ATOM     17 O    PRO E   5     -22.531  23.339   2.758  1.00 33.04 LIG-0.27  OA
BRANCH 15 18
ATOM     18  CA  CYS E   6     -23.689  21.110   1.653  1.00 33.63 LIG 0.19  C 
BRANCH 18 19
ATOM     19  CB  CYS E   6     -25.163  20.726   1.838  1.00 31.18 LIG 0.11  C 
BRANCH 19 20
ATOM     20 SG   CYS E   6     -26.022  21.768   3.093  1.00 33.89 LIG-0.18  SA
ATOM     21 HG   CYS E   6     -25.913  21.263   4.176  1.00 33.89 LIG 0.10  HD
ENDBRANCH 19 20
ENDBRANCH 18 19
BRANCH 18 22
ATOM     22  C   CYS E   6     -22.864  19.988   0.983  1.00 36.36 LIG 0.20  C 
ATOM     23 OXT  CYS E   6     -23.274  19.273   0.040  1.00 31.64 LIG-0.65  OA
ATOM     24 O    CYS E   6     -21.742  19.754   1.432  1.00 36.48 LIG-0.65  OA
ENDBRANCH 18 22
ENDBRANCH 15 18
ENDBRANCH 10 14
ENDBRANCH 6 7
BRANCH 6 25
ATOM     25  CB  VAL E   4     -24.021  26.398   5.162  1.00 33.86 LIG 0.01  C 
ATOM     26  CG2 VAL E   4     -25.304  25.583   5.359  1.00 37.12 LIG 0.01  C 
ATOM     27  CG1 VAL E   4     -23.842  27.431   6.269  1.00 36.74 LIG 0.01  C 
ENDBRANCH 6 25
ENDBRANCH 3 6
ENDBRANCH 1 2
BRANCH 1 28
ATOM     28  CB  ILE E   3     -26.488  30.802   2.432  1.00 41.05 LIG 0.01  C 
ATOM     29  CG2 ILE E   3     -25.561  30.170   1.402  1.00 37.15 LIG 0.01  C 
BRANCH 28 30
ATOM     30  CG1 ILE E   3     -27.949  30.752   1.975  1.00 42.94 LIG 0.00  C 
ATOM     31  CD1 ILE E   3     -28.827  31.769   2.672  1.00 40.89 LIG 0.01  C 
ENDBRANCH 28 30
ENDBRANCH 1 28
BRANCH 1 32
ATOM     32  N   ILE E   3     -26.334  31.039   4.877  1.00 40.60 LIG-0.35  N 
ATOM     33 H    ILE E   3     -25.997  31.809   4.696  1.00 40.60 LIG 0.16  HD
ATOM     34  C   ASP E   2     -26.820  30.685   6.060  1.00 44.87 LIG 0.24  C 
ATOM     35 O    ASP E   2     -27.393  29.607   6.255  1.00 39.41 LIG-0.27  OA
BRANCH 34 36
ATOM     36  CA  ASP E   2     -26.628  31.679   7.194  1.00 43.58 LIG 0.19  C 
BRANCH 36 37
ATOM     37  N   ASP E   2     -27.873  31.917   7.908  1.00 45.35 LIG-0.34  N 
ATOM     38  C   ASP E   1     -28.572  33.030   7.729  1.00 51.19 LIG 0.25  C 
ATOM     39 O    ASP E   1     -28.225  33.918   6.957  1.00 56.05 LIG-0.27  OA
ATOM     40 H    ASP E   2     -28.105  31.283   8.441  1.00 45.35 LIG 0.16  HD
BRANCH 38 41
ATOM     41  CA  ASP E   1     -29.856  33.154   8.532  1.00 54.43 LIG 0.28  C 
BRANCH 41 42
ATOM     42  CB  ASP E   1     -30.336  34.606   8.513  1.00 57.23 LIG 0.15  C 
BRANCH 42 43
ATOM     43  CG  ASP E   1     -30.822  35.075   9.874  1.00 60.86 LIG 0.17  C 
ATOM     44 OD2  ASP E   1     -30.392  36.160  10.318  1.00 61.39 LIG-0.65  OA
ATOM     45 OD1  ASP E   1     -31.649  34.360  10.489  1.00 65.62 LIG-0.65  OA
ENDBRANCH 42 43
ENDBRANCH 41 42
BRANCH 41 46
ATOM     46  N   ASP E   1     -29.661  32.698   9.902  1.00 57.81 LIG-0.07  N 
ATOM     47 H1   ASP E   1     -30.442  32.444  10.245  1.00 57.81 LIG 0.28  HD
ATOM     48 H3   ASP E   1     -29.324  33.361  10.390  1.00 57.81 LIG 0.28  HD
ATOM     49 H2   ASP E   1     -29.097  32.010   9.908  1.00 57.81 LIG 0.28  HD
ENDBRANCH 41 46
ENDBRANCH 38 41
ENDBRANCH 36 37
BRANCH 36 50
ATOM     50  CB  ASP E   2     -25.587  31.119   8.147  1.00 41.52 LIG 0.15  C 
BRANCH 50 51
ATOM     51  CG  ASP E   2     -26.141  30.866   9.521  1.00 49.49 LIG 0.17  C 
ATOM     52 OD1  ASP E   2     -26.505  31.848  10.201  1.00 51.56 LIG-0.65  OA
ATOM     53 OD2  ASP E   2     -26.215  29.686   9.914  1.00 52.06 LIG-0.65  OA
ENDBRANCH 50 51
ENDBRANCH 36 50
ENDBRANCH 34 36
ENDBRANCH 1 32
TORSDOF 20
ENDMDL
MODEL 27
USER: ADFR SOLUTION from run 148
USER: SCORE 16.184895 LL:  -3.916 LR: -13.391 RR:   0.000 FEB:  -7.425
USER: RMSD 6.557927
USER: SEED 147
USER: STATUS no improvement in best in 10 clusters for 5 generations
USER: GENES 22
USER: genes 0 Translation |==|  0.67704 0.36023 0.44470
USER: genes 1 Rotation |==|  0.46477 0.67440 0.77000 0.88137
USER: genes 2 Torsion [N]-CA--C-[N] |==|  0.28443
USER: genes 3 Torsion [C]-N--CA-[C] |==|  0.64744
USER: genes 4 Torsion [N]-CA--C-[N] |==|  0.82671
USER: genes 5 Torsion [N]-CA--C-[O] |==|  0.57582
USER: genes 6 Torsion [C]-N--CA-[CB] |==|  0.89123
USER: genes 7 Torsion [N]-CA--CB-[SG] |==|  0.85237
USER: genes 8 Torsion [CA]-CB--SG-[HG] |==|  0.17175
USER: genes 9 Torsion [N]-CA--C-[OXT] |==|  0.01822
USER: genes 10 Torsion [N]-CA--CB-[CG1] |==|  0.50581
USER: genes 11 Torsion [C]-CA--CB-[CG2] |==|  0.08257
USER: genes 12 Torsion [CA]-CB--CG1-[CD1] |==|  0.76916
USER: genes 13 Torsion [C]-CA--N-[C] |==|  0.82827
USER: genes 14 Torsion [N]-C--CA-[N] |==|  0.93608
USER: genes 15 Torsion [C]-CA--N-[C] |==|  0.80485
USER: genes 16 Torsion [N]-C--CA-[N] |==|  0.74544
USER: genes 17 Torsion [C]-CA--CB-[CG] |==|  0.51331
USER: genes 18 Torsion [CA]-CB--CG-[OD2] |==|  0.47820
USER: genes 19 Torsion [C]-CA--N-[H1] |==|  0.79750
USER: genes 20 Torsion [C]-CA--CB-[CG] |==|  0.13209
USER: genes 21 Torsion [CA]-CB--CG-[OD1] |==|  0.61573
ROOT
ATOM      1  CA  ILE E   3     -23.439  23.998   4.002  1.00 36.34 LIG 0.18  C 
ENDROOT
BRANCH 1 2
ATOM      2  C   ILE E   3     -22.337  24.488   3.072  1.00 39.45 LIG 0.24  C 
ATOM      3  N   VAL E   4     -21.152  23.886   3.182  1.00 32.94 LIG-0.35  N 
ATOM      4 H    VAL E   4     -21.004  23.207   3.688  1.00 32.94 LIG 0.16  HD
ATOM      5 O    ILE E   3     -22.555  25.403   2.285  1.00 42.21 LIG-0.27  OA
BRANCH 3 6
ATOM      6  CA  VAL E   4     -19.985  24.343   2.435  1.00 33.21 LIG 0.18  C 
BRANCH 6 7
ATOM      7  C   VAL E   4     -19.371  23.175   1.660  1.00 35.41 LIG 0.24  C 
ATOM      8 O    VAL E   4     -19.311  23.210   0.425  1.00 29.15 LIG-0.27  OA
ATOM      9  N   PRO E   5     -18.896  22.145   2.381  1.00 36.11 LIG-0.34  N 
ATOM     10  CA  PRO E   5     -18.350  20.959   1.707  1.00 34.10 LIG 0.18  C 
ATOM     11  CD  PRO E   5     -18.770  22.069   3.851  1.00 37.00 LIG 0.13  C 
ATOM     12  CB  PRO E   5     -17.893  20.060   2.873  1.00 38.74 LIG 0.04  C 
ATOM     13  CG  PRO E   5     -17.723  20.993   4.047  1.00 43.00 LIG 0.02  C 
BRANCH 10 14
ATOM     14  C   PRO E   5     -19.467  20.288   0.920  1.00 34.89 LIG 0.24  C 
ATOM     15  N   CYS E   6     -20.483  21.034   0.507  1.00 33.29 LIG-0.34  N 
ATOM     16 H    CYS E   6     -20.548  21.883   0.627  1.00 33.29 LIG 0.16  HD
ATOM     17 O    PRO E   5     -19.399  19.076   0.712  1.00 33.04 LIG-0.27  OA
BRANCH 15 18
ATOM     18  CA  CYS E   6     -21.607  20.420  -0.212  1.00 33.63 LIG 0.19  C 
BRANCH 18 19
ATOM     19  CB  CYS E   6     -21.112  19.340  -1.183  1.00 31.18 LIG 0.11  C 
BRANCH 19 20
ATOM     20 SG   CYS E   6     -19.804  19.953  -2.329  1.00 33.89 LIG-0.18  SA
ATOM     21 HG   CYS E   6     -18.845  20.300  -1.695  1.00 33.89 LIG 0.10  HD
ENDBRANCH 19 20
ENDBRANCH 18 19
BRANCH 18 22
ATOM     22  C   CYS E   6     -22.737  19.913   0.712  1.00 36.36 LIG 0.20  C 
ATOM     23 OXT  CYS E   6     -22.782  20.106   1.949  1.00 31.64 LIG-0.65  OA
ATOM     24 O    CYS E   6     -23.634  19.240   0.205  1.00 36.48 LIG-0.65  OA
ENDBRANCH 18 22
ENDBRANCH 15 18
ENDBRANCH 10 14
ENDBRANCH 6 7
BRANCH 6 25
ATOM     25  CB  VAL E   4     -18.911  24.914   3.394  1.00 33.86 LIG 0.01  C 
ATOM     26  CG2 VAL E   4     -19.512  26.003   4.289  1.00 37.12 LIG 0.01  C 
ATOM     27  CG1 VAL E   4     -17.714  25.438   2.606  1.00 36.74 LIG 0.01  C 
ENDBRANCH 6 25
ENDBRANCH 3 6
ENDBRANCH 1 2
BRANCH 1 28
ATOM     28  CB  ILE E   3     -24.739  23.816   3.233  1.00 41.05 LIG 0.01  C 
ATOM     29  CG2 ILE E   3     -24.449  23.453   1.783  1.00 37.15 LIG 0.01  C 
BRANCH 28 30
ATOM     30  CG1 ILE E   3     -25.599  22.748   3.916  1.00 42.94 LIG 0.00  C 
ATOM     31  CD1 ILE E   3     -25.220  21.336   3.522  1.00 40.89 LIG 0.01  C 
ENDBRANCH 28 30
ENDBRANCH 1 28
BRANCH 1 32
ATOM     32  N   ILE E   3     -23.583  24.951   5.085  1.00 40.60 LIG-0.35  N 
ATOM     33 H    ILE E   3     -24.351  25.334   5.134  1.00 40.60 LIG 0.16  HD
ATOM     34  C   ASP E   2     -22.569  25.180   5.911  1.00 44.87 LIG 0.24  C 
ATOM     35 O    ASP E   2     -21.515  24.536   5.875  1.00 39.41 LIG-0.27  OA
BRANCH 34 36
ATOM     36  CA  ASP E   2     -22.759  26.303   6.917  1.00 43.58 LIG 0.19  C 
BRANCH 36 37
ATOM     37  N   ASP E   2     -23.760  27.257   6.467  1.00 45.35 LIG-0.34  N 
ATOM     38  C   ASP E   1     -23.531  28.072   5.446  1.00 51.19 LIG 0.25  C 
ATOM     39 O    ASP E   1     -22.477  28.073   4.817  1.00 56.05 LIG-0.27  OA
ATOM     40 H    ASP E   2     -24.494  27.240   6.915  1.00 45.35 LIG 0.16  HD
BRANCH 38 41
ATOM     41  CA  ASP E   1     -24.660  29.018   5.073  1.00 54.43 LIG 0.28  C 
BRANCH 41 42
ATOM     42  CB  ASP E   1     -25.465  29.376   6.323  1.00 57.23 LIG 0.15  C 
BRANCH 42 43
ATOM     43  CG  ASP E   1     -26.683  30.228   6.006  1.00 60.86 LIG 0.17  C 
ATOM     44 OD2  ASP E   1     -27.501  30.461   6.919  1.00 61.39 LIG-0.65  OA
ATOM     45 OD1  ASP E   1     -26.807  30.676   4.841  1.00 65.62 LIG-0.65  OA
ENDBRANCH 42 43
ENDBRANCH 41 42
BRANCH 41 46
ATOM     46  N   ASP E   1     -25.524  28.425   4.061  1.00 57.81 LIG-0.07  N 
ATOM     47 H1   ASP E   1     -25.103  28.419   3.277  1.00 57.81 LIG 0.28  HD
ATOM     48 H3   ASP E   1     -26.271  28.902   3.992  1.00 57.81 LIG 0.28  HD
ATOM     49 H2   ASP E   1     -25.726  27.591   4.295  1.00 57.81 LIG 0.28  HD
ENDBRANCH 41 46
ENDBRANCH 38 41
ENDBRANCH 36 37
BRANCH 36 50
ATOM     50  CB  ASP E   2     -23.188  25.690   8.239  1.00 41.52 LIG 0.15  C 
BRANCH 50 51
ATOM     51  CG  ASP E   2     -22.332  24.519   8.634  1.00 49.49 LIG 0.17  C 
ATOM     52 OD1  ASP E   2     -22.892  23.514   9.118  1.00 51.56 LIG-0.65  OA
ATOM     53 OD2  ASP E   2     -21.101  24.607   8.454  1.00 52.06 LIG-0.65  OA
ENDBRANCH 50 51
ENDBRANCH 36 50
ENDBRANCH 34 36
ENDBRANCH 1 32
TORSDOF 20
ENDMDL
MODEL 28
USER: ADFR SOLUTION from run 160
USER: SCORE 17.026334 LL:  -4.365 LR: -13.370 RR:   0.000 FEB:  -7.404
USER: RMSD 11.438517
USER: SEED 159
USER: STATUS no improvement in best in 9 clusters for 5 generations
USER: GENES 22
USER: genes 0 Translation |==|  0.63691 0.44725 0.41512
USER: genes 1 Rotation |==|  0.05424 0.33943 0.34704 0.54604
USER: genes 2 Torsion [N]-CA--C-[N] |==|  0.45541
USER: genes 3 Torsion [C]-N--CA-[C] |==|  0.63333
USER: genes 4 Torsion [N]-CA--C-[N] |==|  0.16453
USER: genes 5 Torsion [N]-CA--C-[O] |==|  0.87493
USER: genes 6 Torsion [C]-N--CA-[CB] |==|  0.26227
USER: genes 7 Torsion [N]-CA--CB-[SG] |==|  0.94292
USER: genes 8 Torsion [CA]-CB--SG-[HG] |==|  0.17345
USER: genes 9 Torsion [N]-CA--C-[OXT] |==|  0.62484
USER: genes 10 Torsion [N]-CA--CB-[CG1] |==|  0.55308
USER: genes 11 Torsion [C]-CA--CB-[CG2] |==|  0.17963
USER: genes 12 Torsion [CA]-CB--CG1-[CD1] |==|  0.75621
USER: genes 13 Torsion [C]-CA--N-[C] |==|  0.60403
USER: genes 14 Torsion [N]-C--CA-[N] |==|  0.32929
USER: genes 15 Torsion [C]-CA--N-[C] |==|  0.74872
USER: genes 16 Torsion [N]-C--CA-[N] |==|  0.32939
USER: genes 17 Torsion [C]-CA--CB-[CG] |==|  0.28459
USER: genes 18 Torsion [CA]-CB--CG-[OD2] |==|  0.65699
USER: genes 19 Torsion [C]-CA--N-[H1] |==|  0.07054
USER: genes 20 Torsion [C]-CA--CB-[CG] |==|  0.24218
USER: genes 21 Torsion [CA]-CB--CG-[OD1] |==|  0.28471
ROOT
ATOM      1  CA  ILE E   3     -24.252  26.151   3.425  1.00 36.34 LIG 0.18  C 
ENDROOT
BRANCH 1 2
ATOM      2  C   ILE E   3     -24.177  27.541   4.042  1.00 39.45 LIG 0.24  C 
ATOM      3  N   VAL E   4     -25.285  27.993   4.631  1.00 32.94 LIG-0.35  N 
ATOM      4 H    VAL E   4     -25.997  27.523   4.738  1.00 32.94 LIG 0.16  HD
ATOM      5 O    ILE E   3     -23.141  28.193   3.971  1.00 42.21 LIG-0.27  OA
BRANCH 3 6
ATOM      6  CA  VAL E   4     -25.379  29.352   5.153  1.00 33.21 LIG 0.18  C 
BRANCH 6 7
ATOM      7  C   VAL E   4     -25.951  29.328   6.573  1.00 35.41 LIG 0.24  C 
ATOM      8 O    VAL E   4     -27.004  29.923   6.829  1.00 29.15 LIG-0.27  OA
ATOM      9  N   PRO E   5     -25.269  28.628   7.495  1.00 36.11 LIG-0.34  N 
ATOM     10  CA  PRO E   5     -25.719  28.611   8.893  1.00 34.10 LIG 0.18  C 
ATOM     11  CD  PRO E   5     -24.099  27.756   7.266  1.00 37.00 LIG 0.13  C 
ATOM     12  CB  PRO E   5     -24.704  27.682   9.588  1.00 38.74 LIG 0.04  C 
ATOM     13  CG  PRO E   5     -24.109  26.849   8.479  1.00 43.00 LIG 0.02  C 
BRANCH 10 14
ATOM     14  C   PRO E   5     -25.622  30.023   9.453  1.00 34.89 LIG 0.24  C 
ATOM     15  N   CYS E   6     -26.649  30.498  10.146  1.00 33.29 LIG-0.34  N 
ATOM     16 H    CYS E   6     -27.363  30.054  10.329  1.00 33.29 LIG 0.16  HD
ATOM     17 O    PRO E   5     -24.606  30.682   9.229  1.00 33.04 LIG-0.27  OA
BRANCH 15 18
ATOM     18  CA  CYS E   6     -26.620  31.871  10.663  1.00 33.63 LIG 0.19  C 
BRANCH 18 19
ATOM     19  CB  CYS E   6     -27.309  32.838   9.691  1.00 31.18 LIG 0.11  C 
BRANCH 19 20
ATOM     20 SG   CYS E   6     -27.416  32.172   7.975  1.00 33.89 LIG-0.18  SA
ATOM     21 HG   CYS E   6     -28.085  31.175   7.973  1.00 33.89 LIG 0.10  HD
ENDBRANCH 19 20
ENDBRANCH 18 19
BRANCH 18 22
ATOM     22  C   CYS E   6     -27.151  32.005  12.108  1.00 36.36 LIG 0.20  C 
ATOM     23 OXT  CYS E   6     -27.941  32.897  12.494  1.00 31.64 LIG-0.65  OA
ATOM     24 O    CYS E   6     -26.738  31.205  12.948  1.00 36.48 LIG-0.65  OA
ENDBRANCH 18 22
ENDBRANCH 15 18
ENDBRANCH 10 14
ENDBRANCH 6 7
BRANCH 6 25
ATOM     25  CB  VAL E   4     -26.309  30.216   4.265  1.00 33.86 LIG 0.01  C 
ATOM     26  CG2 VAL E   4     -26.137  29.849   2.787  1.00 37.12 LIG 0.01  C 
ATOM     27  CG1 VAL E   4     -26.051  31.700   4.504  1.00 36.74 LIG 0.01  C 
ENDBRANCH 6 25
ENDBRANCH 3 6
ENDBRANCH 1 2
BRANCH 1 28
ATOM     28  CB  ILE E   3     -24.264  25.088   4.512  1.00 41.05 LIG 0.01  C 
ATOM     29  CG2 ILE E   3     -25.527  25.207   5.354  1.00 37.15 LIG 0.01  C 
BRANCH 28 30
ATOM     30  CG1 ILE E   3     -24.142  23.699   3.879  1.00 42.94 LIG 0.00  C 
ATOM     31  CD1 ILE E   3     -25.479  23.102   3.491  1.00 40.89 LIG 0.01  C 
ENDBRANCH 28 30
ENDBRANCH 1 28
BRANCH 1 32
ATOM     32  N   ILE E   3     -23.126  25.989   2.525  1.00 40.60 LIG-0.35  N 
ATOM     33 H    ILE E   3     -22.391  26.348   2.792  1.00 40.60 LIG 0.16  HD
ATOM     34  C   ASP E   2     -23.273  25.326   1.385  1.00 44.87 LIG 0.24  C 
ATOM     35 O    ASP E   2     -24.315  24.732   1.084  1.00 39.41 LIG-0.27  OA
BRANCH 34 36
ATOM     36  CA  ASP E   2     -22.085  25.338   0.438  1.00 43.58 LIG 0.19  C 
BRANCH 36 37
ATOM     37  N   ASP E   2     -21.579  23.995   0.205  1.00 45.35 LIG-0.34  N 
ATOM     38  C   ASP E   1     -20.630  23.469   0.968  1.00 51.19 LIG 0.25  C 
ATOM     39 O    ASP E   1     -20.127  24.069   1.914  1.00 56.05 LIG-0.27  OA
ATOM     40 H    ASP E   2     -21.945  23.586  -0.458  1.00 45.35 LIG 0.16  HD
BRANCH 38 41
ATOM     41  CA  ASP E   1     -20.192  22.056   0.622  1.00 54.43 LIG 0.28  C 
BRANCH 41 42
ATOM     42  CB  ASP E   1     -20.466  21.128   1.805  1.00 57.23 LIG 0.15  C 
BRANCH 42 43
ATOM     43  CG  ASP E   1     -21.707  20.276   1.600  1.00 60.86 LIG 0.17  C 
ATOM     44 OD2  ASP E   1     -22.617  20.335   2.453  1.00 61.39 LIG-0.65  OA
ATOM     45 OD1  ASP E   1     -21.774  19.560   0.573  1.00 65.62 LIG-0.65  OA
ENDBRANCH 42 43
ENDBRANCH 41 42
BRANCH 41 46
ATOM     46  N   ASP E   1     -18.781  22.022   0.260  1.00 57.81 LIG-0.07  N 
ATOM     47 H1   ASP E   1     -18.359  22.706   0.644  1.00 57.81 LIG 0.28  HD
ATOM     48 H3   ASP E   1     -18.700  22.083  -0.623  1.00 57.81 LIG 0.28  HD
ATOM     49 H2   ASP E   1     -18.422  21.257   0.539  1.00 57.81 LIG 0.28  HD
ENDBRANCH 41 46
ENDBRANCH 38 41
ENDBRANCH 36 37
BRANCH 36 50
ATOM     50  CB  ASP E   2     -22.529  25.957  -0.876  1.00 41.52 LIG 0.15  C 
BRANCH 50 51
ATOM     51  CG  ASP E   2     -22.399  27.455  -0.879  1.00 49.49 LIG 0.17  C 
ATOM     52 OD1  ASP E   2     -21.431  27.963  -1.482  1.00 51.56 LIG-0.65  OA
ATOM     53 OD2  ASP E   2     -23.269  28.118  -0.281  1.00 52.06 LIG-0.65  OA
ENDBRANCH 50 51
ENDBRANCH 36 50
ENDBRANCH 34 36
ENDBRANCH 1 32
TORSDOF 20
ENDMDL
MODEL 29
USER: ADFR SOLUTION from run 31
USER: SCORE 17.239302 LL:  -4.739 LR: -13.373 RR:   0.000 FEB:  -7.407
USER: RMSD 10.722852
USER: SEED 30
USER: STATUS no improvement in best in 6 clusters for 5 generations
USER: GENES 22
USER: genes 0 Translation |==|  0.61915 0.41071 0.45005
USER: genes 1 Rotation |==|  0.96927 0.66761 0.49096 0.54019
USER: genes 2 Torsion [N]-CA--C-[N] |==|  0.42599
USER: genes 3 Torsion [C]-N--CA-[C] |==|  0.56079
USER: genes 4 Torsion [N]-CA--C-[N] |==|  0.44697
USER: genes 5 Torsion [N]-CA--C-[O] |==|  0.24523
USER: genes 6 Torsion [C]-N--CA-[CB] |==|  0.21170
USER: genes 7 Torsion [N]-CA--CB-[SG] |==|  0.78768
USER: genes 8 Torsion [CA]-CB--SG-[HG] |==|  0.16051
USER: genes 9 Torsion [N]-CA--C-[OXT] |==|  0.43482
USER: genes 10 Torsion [N]-CA--CB-[CG1] |==|  0.30723
USER: genes 11 Torsion [C]-CA--CB-[CG2] |==|  0.84157
USER: genes 12 Torsion [CA]-CB--CG1-[CD1] |==|  0.54615
USER: genes 13 Torsion [C]-CA--N-[C] |==|  0.64255
USER: genes 14 Torsion [N]-C--CA-[N] |==|  0.85729
USER: genes 15 Torsion [C]-CA--N-[C] |==|  0.19603
USER: genes 16 Torsion [N]-C--CA-[N] |==|  0.06238
USER: genes 17 Torsion [C]-CA--CB-[CG] |==|  0.61121
USER: genes 18 Torsion [CA]-CB--CG-[OD2] |==|  0.76368
USER: genes 19 Torsion [C]-CA--N-[H1] |==|  0.90832
USER: genes 20 Torsion [C]-CA--CB-[CG] |==|  0.34962
USER: genes 21 Torsion [CA]-CB--CG-[OD1] |==|  0.47973
ROOT
ATOM      1  CA  ILE E   3     -24.611  25.247   4.106  1.00 36.34 LIG 0.18  C 
ENDROOT
BRANCH 1 2
ATOM      2  C   ILE E   3     -24.371  26.723   3.820  1.00 39.45 LIG 0.24  C 
ATOM      3  N   VAL E   4     -25.242  27.584   4.348  1.00 32.94 LIG-0.35  N 
ATOM      4 H    VAL E   4     -25.874  27.357   4.885  1.00 32.94 LIG 0.16  HD
ATOM      5 O    ILE E   3     -23.423  27.070   3.123  1.00 42.21 LIG-0.27  OA
BRANCH 3 6
ATOM      6  CA  VAL E   4     -25.191  29.010   4.050  1.00 33.21 LIG 0.18  C 
BRANCH 6 7
ATOM      7  C   VAL E   4     -25.901  29.800   5.152  1.00 35.41 LIG 0.24  C 
ATOM      8 O    VAL E   4     -26.686  29.231   5.919  1.00 29.15 LIG-0.27  OA
ATOM      9  N   PRO E   5     -25.614  31.110   5.248  1.00 36.11 LIG-0.34  N 
ATOM     10  CA  PRO E   5     -26.303  31.948   6.237  1.00 34.10 LIG 0.18  C 
ATOM     11  CD  PRO E   5     -24.581  31.853   4.497  1.00 37.00 LIG 0.13  C 
ATOM     12  CB  PRO E   5     -25.665  33.337   6.041  1.00 38.74 LIG 0.04  C 
ATOM     13  CG  PRO E   5     -24.343  33.072   5.364  1.00 43.00 LIG 0.02  C 
BRANCH 10 14
ATOM     14  C   PRO E   5     -27.786  31.987   5.896  1.00 34.89 LIG 0.24  C 
ATOM     15  N   CYS E   6     -28.230  32.975   5.131  1.00 33.29 LIG-0.34  N 
ATOM     16 H    CYS E   6     -27.734  33.588   4.785  1.00 33.29 LIG 0.16  HD
ATOM     17 O    PRO E   5     -28.524  31.115   6.357  1.00 33.04 LIG-0.27  OA
BRANCH 15 18
ATOM     18  CA  CYS E   6     -29.660  33.082   4.816  1.00 33.63 LIG 0.19  C 
BRANCH 18 19
ATOM     19  CB  CYS E   6     -30.445  33.632   6.014  1.00 31.18 LIG 0.11  C 
BRANCH 19 20
ATOM     20 SG   CYS E   6     -30.710  32.374   7.335  1.00 33.89 LIG-0.18  SA
ATOM     21 HG   CYS E   6     -29.649  31.956   7.710  1.00 33.89 LIG 0.10  HD
ENDBRANCH 19 20
ENDBRANCH 18 19
BRANCH 18 22
ATOM     22  C   CYS E   6     -29.956  33.852   3.510  1.00 36.36 LIG 0.20  C 
ATOM     23 OXT  CYS E   6     -31.000  33.720   2.830  1.00 31.64 LIG-0.65  OA
ATOM     24 O    CYS E   6     -29.090  34.617   3.085  1.00 36.48 LIG-0.65  OA
ENDBRANCH 18 22
ENDBRANCH 15 18
ENDBRANCH 10 14
ENDBRANCH 6 7
BRANCH 6 25
ATOM     25  CB  VAL E   4     -25.891  29.313   2.702  1.00 33.86 LIG 0.01  C 
ATOM     26  CG2 VAL E   4     -24.947  30.075   1.764  1.00 37.12 LIG 0.01  C 
ATOM     27  CG1 VAL E   4     -27.188  30.082   2.932  1.00 36.74 LIG 0.01  C 
ENDBRANCH 6 25
ENDBRANCH 3 6
ENDBRANCH 1 2
BRANCH 1 28
ATOM     28  CB  ILE E   3     -24.018  24.864   5.454  1.00 41.05 LIG 0.01  C 
ATOM     29  CG2 ILE E   3     -22.531  25.189   5.488  1.00 37.15 LIG 0.01  C 
BRANCH 28 30
ATOM     30  CG1 ILE E   3     -24.774  25.582   6.575  1.00 42.94 LIG 0.00  C 
ATOM     31  CD1 ILE E   3     -24.026  25.585   7.891  1.00 40.89 LIG 0.01  C 
ENDBRANCH 28 30
ENDBRANCH 1 28
BRANCH 1 32
ATOM     32  N   ILE E   3     -24.036  24.471   3.024  1.00 40.60 LIG-0.35  N 
ATOM     33 H    ILE E   3     -23.218  24.660   2.836  1.00 40.60 LIG 0.16  HD
ATOM     34  C   ASP E   2     -24.762  23.551   2.404  1.00 44.87 LIG 0.24  C 
ATOM     35 O    ASP E   2     -25.900  23.233   2.770  1.00 39.41 LIG-0.27  OA
BRANCH 34 36
ATOM     36  CA  ASP E   2     -24.129  22.897   1.186  1.00 43.58 LIG 0.19  C 
BRANCH 36 37
ATOM     37  N   ASP E   2     -23.634  23.891   0.247  1.00 45.35 LIG-0.34  N 
ATOM     38  C   ASP E   1     -22.572  24.636   0.522  1.00 51.19 LIG 0.25  C 
ATOM     39 O    ASP E   1     -21.939  24.534   1.568  1.00 56.05 LIG-0.27  OA
ATOM     40 H    ASP E   2     -24.085  23.946  -0.483  1.00 45.35 LIG 0.16  HD
BRANCH 38 41
ATOM     41  CA  ASP E   1     -22.156  25.634  -0.545  1.00 54.43 LIG 0.28  C 
BRANCH 41 42
ATOM     42  CB  ASP E   1     -21.612  26.900   0.119  1.00 57.23 LIG 0.15  C 
BRANCH 42 43
ATOM     43  CG  ASP E   1     -22.061  28.167  -0.589  1.00 60.86 LIG 0.17  C 
ATOM     44 OD2  ASP E   1     -21.399  28.567  -1.570  1.00 61.39 LIG-0.65  OA
ATOM     45 OD1  ASP E   1     -23.088  28.751  -0.170  1.00 65.62 LIG-0.65  OA
ENDBRANCH 42 43
ENDBRANCH 41 42
BRANCH 41 46
ATOM     46  N   ASP E   1     -23.274  25.957  -1.421  1.00 57.81 LIG-0.07  N 
ATOM     47 H1   ASP E   1     -23.798  25.243  -1.510  1.00 57.81 LIG 0.28  HD
ATOM     48 H3   ASP E   1     -22.965  26.198  -2.220  1.00 57.81 LIG 0.28  HD
ATOM     49 H2   ASP E   1     -23.742  26.627  -1.070  1.00 57.81 LIG 0.28  HD
ENDBRANCH 41 46
ENDBRANCH 38 41
ENDBRANCH 36 37
BRANCH 36 50
ATOM     50  CB  ASP E   2     -22.983  22.020   1.660  1.00 41.52 LIG 0.15  C 
BRANCH 50 51
ATOM     51  CG  ASP E   2     -23.102  20.604   1.168  1.00 49.49 LIG 0.17  C 
ATOM     52 OD1  ASP E   2     -22.149  19.824   1.376  1.00 51.56 LIG-0.65  OA
ATOM     53 OD2  ASP E   2     -24.151  20.276   0.580  1.00 52.06 LIG-0.65  OA
ENDBRANCH 50 51
ENDBRANCH 36 50
ENDBRANCH 34 36
ENDBRANCH 1 32
TORSDOF 20
ENDMDL
MODEL 30
USER: ADFR SOLUTION from run 196
USER: SCORE 17.902801 LL:  -5.059 LR: -13.299 RR:   0.000 FEB:  -7.333
USER: RMSD 11.474877
USER: SEED 195
USER: STATUS no improvement in best in 6 clusters for 5 generations
USER: GENES 22
USER: genes 0 Translation |==|  0.60874 0.51161 0.48129
USER: genes 1 Rotation |==|  0.93491 0.74110 0.54683 0.52296
USER: genes 2 Torsion [N]-CA--C-[N] |==|  0.33889
USER: genes 3 Torsion [C]-N--CA-[C] |==|  0.67794
USER: genes 4 Torsion [N]-CA--C-[N] |==|  0.42514
USER: genes 5 Torsion [N]-CA--C-[O] |==|  0.31723
USER: genes 6 Torsion [C]-N--CA-[CB] |==|  0.20582
USER: genes 7 Torsion [N]-CA--CB-[SG] |==|  0.74965
USER: genes 8 Torsion [CA]-CB--SG-[HG] |==|  0.01353
USER: genes 9 Torsion [N]-CA--C-[OXT] |==|  0.05956
USER: genes 10 Torsion [N]-CA--CB-[CG1] |==|  0.97215
USER: genes 11 Torsion [C]-CA--CB-[CG2] |==|  0.12522
USER: genes 12 Torsion [CA]-CB--CG1-[CD1] |==|  0.29324
USER: genes 13 Torsion [C]-CA--N-[C] |==|  0.64626
USER: genes 14 Torsion [N]-C--CA-[N] |==|  0.47512
USER: genes 15 Torsion [C]-CA--N-[C] |==|  0.79527
USER: genes 16 Torsion [N]-C--CA-[N] |==|  0.27183
USER: genes 17 Torsion [C]-CA--CB-[CG] |==|  0.64984
USER: genes 18 Torsion [CA]-CB--CG-[OD2] |==|  0.71316
USER: genes 19 Torsion [C]-CA--N-[H1] |==|  0.53541
USER: genes 20 Torsion [C]-CA--CB-[CG] |==|  0.47768
USER: genes 21 Torsion [CA]-CB--CG-[OD1] |==|  0.50968
ROOT
ATOM      1  CA  ILE E   3     -24.822  27.744   4.715  1.00 36.34 LIG 0.18  C 
ENDROOT
BRANCH 1 2
ATOM      2  C   ILE E   3     -25.066  29.245   4.633  1.00 39.45 LIG 0.24  C 
ATOM      3  N   VAL E   4     -26.327  29.636   4.445  1.00 32.94 LIG-0.35  N 
ATOM      4 H    VAL E   4     -26.999  29.100   4.439  1.00 32.94 LIG 0.16  HD
ATOM      5 O    ILE E   3     -24.126  30.029   4.722  1.00 42.21 LIG-0.27  OA
BRANCH 3 6
ATOM      6  CA  VAL E   4     -26.674  31.036   4.230  1.00 33.21 LIG 0.18  C 
BRANCH 6 7
ATOM      7  C   VAL E   4     -27.546  31.542   5.381  1.00 35.41 LIG 0.24  C 
ATOM      8 O    VAL E   4     -28.241  30.750   6.029  1.00 29.15 LIG-0.27  OA
ATOM      9  N   PRO E   5     -27.499  32.857   5.653  1.00 36.11 LIG-0.34  N 
ATOM     10  CA  PRO E   5     -28.355  33.427   6.701  1.00 34.10 LIG 0.18  C 
ATOM     11  CD  PRO E   5     -26.591  33.858   5.056  1.00 37.00 LIG 0.13  C 
ATOM     12  CB  PRO E   5     -27.967  34.919   6.711  1.00 38.74 LIG 0.04  C 
ATOM     13  CG  PRO E   5     -26.599  34.976   6.078  1.00 43.00 LIG 0.02  C 
BRANCH 10 14
ATOM     14  C   PRO E   5     -29.810  33.256   6.288  1.00 34.89 LIG 0.24  C 
ATOM     15  N   CYS E   6     -30.250  33.932   5.236  1.00 33.29 LIG-0.34  N 
ATOM     16 H    CYS E   6     -29.764  34.445   4.745  1.00 33.29 LIG 0.16  HD
ATOM     17 O    PRO E   5     -30.532  32.514   6.956  1.00 33.04 LIG-0.27  OA
BRANCH 15 18
ATOM     18  CA  CYS E   6     -31.658  33.837   4.831  1.00 33.63 LIG 0.19  C 
BRANCH 18 19
ATOM     19  CB  CYS E   6     -32.559  34.624   5.792  1.00 31.18 LIG 0.11  C 
BRANCH 19 20
ATOM     20 SG   CYS E   6     -33.165  33.603   7.203  1.00 33.89 LIG-0.18  SA
ATOM     21 HG   CYS E   6     -32.658  32.516   7.158  1.00 33.89 LIG 0.10  HD
ENDBRANCH 19 20
ENDBRANCH 18 19
BRANCH 18 22
ATOM     22  C   CYS E   6     -31.909  34.202   3.351  1.00 36.36 LIG 0.20  C 
ATOM     23 OXT  CYS E   6     -31.033  34.178   2.456  1.00 31.64 LIG-0.65  OA
ATOM     24 O    CYS E   6     -33.037  34.582   3.036  1.00 36.48 LIG-0.65  OA
ENDBRANCH 18 22
ENDBRANCH 15 18
ENDBRANCH 10 14
ENDBRANCH 6 7
BRANCH 6 25
ATOM     25  CB  VAL E   4     -27.463  31.208   2.907  1.00 33.86 LIG 0.01  C 
ATOM     26  CG2 VAL E   4     -28.900  31.659   3.191  1.00 37.12 LIG 0.01  C 
ATOM     27  CG1 VAL E   4     -27.434  29.917   2.095  1.00 36.74 LIG 0.01  C 
ENDBRANCH 6 25
ENDBRANCH 3 6
ENDBRANCH 1 2
BRANCH 1 28
ATOM     28  CB  ILE E   3     -24.321  27.364   6.100  1.00 41.05 LIG 0.01  C 
ATOM     29  CG2 ILE E   3     -25.149  28.060   7.172  1.00 37.15 LIG 0.01  C 
BRANCH 28 30
ATOM     30  CG1 ILE E   3     -24.360  25.842   6.265  1.00 42.94 LIG 0.00  C 
ATOM     31  CD1 ILE E   3     -22.990  25.200   6.200  1.00 40.89 LIG 0.01  C 
ENDBRANCH 28 30
ENDBRANCH 1 28
BRANCH 1 32
ATOM     32  N   ILE E   3     -23.875  27.376   3.680  1.00 40.60 LIG-0.35  N 
ATOM     33 H    ILE E   3     -23.147  27.833   3.674  1.00 40.60 LIG 0.16  HD
ATOM     34  C   ASP E   2     -24.164  26.399   2.830  1.00 44.87 LIG 0.24  C 
ATOM     35 O    ASP E   2     -25.174  25.694   2.934  1.00 39.41 LIG-0.27  OA
BRANCH 34 36
ATOM     36  CA  ASP E   2     -23.183  26.186   1.688  1.00 43.58 LIG 0.19  C 
BRANCH 36 37
ATOM     37  N   ASP E   2     -23.484  24.970   0.950  1.00 45.35 LIG-0.34  N 
ATOM     38  C   ASP E   1     -23.223  23.771   1.454  1.00 51.19 LIG 0.25  C 
ATOM     39 O    ASP E   1     -22.723  23.609   2.564  1.00 56.05 LIG-0.27  OA
ATOM     40 H    ASP E   2     -23.838  25.100   0.177  1.00 45.35 LIG 0.16  HD
BRANCH 38 41
ATOM     41  CA  ASP E   1     -23.588  22.580   0.584  1.00 54.43 LIG 0.28  C 
BRANCH 41 42
ATOM     42  CB  ASP E   1     -24.187  21.473   1.452  1.00 57.23 LIG 0.15  C 
BRANCH 42 43
ATOM     43  CG  ASP E   1     -23.475  20.144   1.272  1.00 60.86 LIG 0.17  C 
ATOM     44 OD2  ASP E   1     -24.024  19.262   0.580  1.00 61.39 LIG-0.65  OA
ATOM     45 OD1  ASP E   1     -22.354  19.992   1.814  1.00 65.62 LIG-0.65  OA
ENDBRANCH 42 43
ENDBRANCH 41 42
BRANCH 41 46
ATOM     46  N   ASP E   1     -22.425  22.088  -0.141  1.00 57.81 LIG-0.07  N 
ATOM     47 H1   ASP E   1     -22.688  21.521  -0.775  1.00 57.81 LIG 0.28  HD
ATOM     48 H3   ASP E   1     -21.879  21.669   0.423  1.00 57.81 LIG 0.28  HD
ATOM     49 H2   ASP E   1     -21.997  22.773  -0.514  1.00 57.81 LIG 0.28  HD
ENDBRANCH 41 46
ENDBRANCH 38 41
ENDBRANCH 36 37
BRANCH 36 50
ATOM     50  CB  ASP E   2     -23.265  27.386   0.760  1.00 41.52 LIG 0.15  C 
BRANCH 50 51
ATOM     51  CG  ASP E   2     -22.198  27.367  -0.300  1.00 49.49 LIG 0.17  C 
ATOM     52 OD1  ASP E   2     -22.125  28.338  -1.081  1.00 51.56 LIG-0.65  OA
ATOM     53 OD2  ASP E   2     -21.435  26.383  -0.342  1.00 52.06 LIG-0.65  OA
ENDBRANCH 50 51
ENDBRANCH 36 50
ENDBRANCH 34 36
ENDBRANCH 1 32
TORSDOF 20
ENDMDL
MODEL 31
USER: ADFR SOLUTION from run 34
USER: SCORE 16.606955 LL:  -4.314 LR: -13.284 RR:   0.000 FEB:  -7.318
USER: RMSD 11.264963
USER: SEED 33
USER: STATUS no improvement in best in 8 clusters for 5 generations
USER: GENES 22
USER: genes 0 Translation |==|  0.63916 0.34940 0.37086
USER: genes 1 Rotation |==|  0.23333 0.49195 0.07801 0.52735
USER: genes 2 Torsion [N]-CA--C-[N] |==|  0.17005
USER: genes 3 Torsion [C]-N--CA-[C] |==|  0.61139
USER: genes 4 Torsion [N]-CA--C-[N] |==|  0.10312
USER: genes 5 Torsion [N]-CA--C-[O] |==|  0.41205
USER: genes 6 Torsion [C]-N--CA-[CB] |==|  0.30544
USER: genes 7 Torsion [N]-CA--CB-[SG] |==|  0.08638
USER: genes 8 Torsion [CA]-CB--SG-[HG] |==|  0.10535
USER: genes 9 Torsion [N]-CA--C-[OXT] |==|  0.02462
USER: genes 10 Torsion [N]-CA--CB-[CG1] |==|  0.54570
USER: genes 11 Torsion [C]-CA--CB-[CG2] |==|  0.39553
USER: genes 12 Torsion [CA]-CB--CG1-[CD1] |==|  0.24474
USER: genes 13 Torsion [C]-CA--N-[C] |==|  0.60516
USER: genes 14 Torsion [N]-C--CA-[N] |==|  0.39483
USER: genes 15 Torsion [C]-CA--N-[C] |==|  0.84367
USER: genes 16 Torsion [N]-C--CA-[N] |==|  0.82024
USER: genes 17 Torsion [C]-CA--CB-[CG] |==|  0.23442
USER: genes 18 Torsion [CA]-CB--CG-[OD2] |==|  0.79086
USER: genes 19 Torsion [C]-CA--N-[H1] |==|  0.13836
USER: genes 20 Torsion [C]-CA--CB-[CG] |==|  0.17613
USER: genes 21 Torsion [CA]-CB--CG-[OD1] |==|  0.74498
ROOT
ATOM      1  CA  ILE E   3     -24.206  23.730   2.562  1.00 36.34 LIG 0.18  C 
ENDROOT
BRANCH 1 2
ATOM      2  C   ILE E   3     -24.759  24.655   3.638  1.00 39.45 LIG 0.24  C 
ATOM      3  N   VAL E   4     -23.939  25.607   4.086  1.00 32.94 LIG-0.35  N 
ATOM      4 H    VAL E   4     -23.161  25.763   3.755  1.00 32.94 LIG 0.16  HD
ATOM      5 O    ILE E   3     -25.899  24.496   4.062  1.00 42.21 LIG-0.27  OA
BRANCH 3 6
ATOM      6  CA  VAL E   4     -24.306  26.478   5.196  1.00 33.21 LIG 0.18  C 
BRANCH 6 7
ATOM      7  C   VAL E   4     -23.845  27.909   4.913  1.00 35.41 LIG 0.24  C 
ATOM      8 O    VAL E   4     -23.399  28.611   5.828  1.00 29.15 LIG-0.27  OA
ATOM      9  N   PRO E   5     -23.932  28.340   3.643  1.00 36.11 LIG-0.34  N 
ATOM     10  CA  PRO E   5     -23.569  29.722   3.304  1.00 34.10 LIG 0.18  C 
ATOM     11  CD  PRO E   5     -24.293  27.542   2.453  1.00 37.00 LIG 0.13  C 
ATOM     12  CB  PRO E   5     -23.771  29.785   1.777  1.00 38.74 LIG 0.04  C 
ATOM     13  CG  PRO E   5     -23.712  28.350   1.312  1.00 43.00 LIG 0.02  C 
BRANCH 10 14
ATOM     14  C   PRO E   5     -24.531  30.666   4.010  1.00 34.89 LIG 0.24  C 
ATOM     15  N   CYS E   6     -25.782  30.267   4.196  1.00 33.29 LIG-0.34  N 
ATOM     16 H    CYS E   6     -26.089  29.496   3.971  1.00 33.29 LIG 0.16  HD
ATOM     17 O    PRO E   5     -24.123  31.773   4.365  1.00 33.04 LIG-0.27  OA
BRANCH 15 18
ATOM     18  CA  CYS E   6     -26.758  31.164   4.828  1.00 33.63 LIG 0.19  C 
BRANCH 18 19
ATOM     19  CB  CYS E   6     -27.803  31.641   3.810  1.00 31.18 LIG 0.11  C 
BRANCH 19 20
ATOM     20 SG   CYS E   6     -28.140  30.397   2.493  1.00 33.89 LIG-0.18  SA
ATOM     21 HG   CYS E   6     -28.128  29.295   2.969  1.00 33.89 LIG 0.10  HD
ENDBRANCH 19 20
ENDBRANCH 18 19
BRANCH 18 22
ATOM     22  C   CYS E   6     -27.400  30.586   6.109  1.00 36.36 LIG 0.20  C 
ATOM     23 OXT  CYS E   6     -27.024  29.536   6.679  1.00 31.64 LIG-0.65  OA
ATOM     24 O    CYS E   6     -28.373  31.176   6.580  1.00 36.48 LIG-0.65  OA
ENDBRANCH 18 22
ENDBRANCH 15 18
ENDBRANCH 10 14
ENDBRANCH 6 7
BRANCH 6 25
ATOM     25  CB  VAL E   4     -23.640  25.999   6.511  1.00 33.86 LIG 0.01  C 
ATOM     26  CG2 VAL E   4     -23.657  24.469   6.598  1.00 37.12 LIG 0.01  C 
ATOM     27  CG1 VAL E   4     -24.321  26.634   7.718  1.00 36.74 LIG 0.01  C 
ENDBRANCH 6 25
ENDBRANCH 3 6
ENDBRANCH 1 2
BRANCH 1 28
ATOM     28  CB  ILE E   3     -25.283  22.766   2.086  1.00 41.05 LIG 0.01  C 
ATOM     29  CG2 ILE E   3     -25.160  22.536   0.585  1.00 37.15 LIG 0.01  C 
BRANCH 28 30
ATOM     30  CG1 ILE E   3     -25.182  21.451   2.864  1.00 42.94 LIG 0.00  C 
ATOM     31  CD1 ILE E   3     -25.979  21.457   4.151  1.00 40.89 LIG 0.01  C 
ENDBRANCH 28 30
ENDBRANCH 1 28
BRANCH 1 32
ATOM     32  N   ILE E   3     -23.059  23.029   3.105  1.00 40.60 LIG-0.35  N 
ATOM     33 H    ILE E   3     -23.130  22.798   3.930  1.00 40.60 LIG 0.16  HD
ATOM     34  C   ASP E   2     -22.001  22.788   2.341  1.00 44.87 LIG 0.24  C 
ATOM     35 O    ASP E   2     -21.975  23.041   1.131  1.00 39.41 LIG-0.27  OA
BRANCH 34 36
ATOM     36  CA  ASP E   2     -20.789  22.187   3.034  1.00 43.58 LIG 0.19  C 
BRANCH 36 37
ATOM     37  N   ASP E   2     -20.125  21.207   2.189  1.00 45.35 LIG-0.34  N 
ATOM     38  C   ASP E   1     -20.777  20.163   1.696  1.00 51.19 LIG 0.25  C 
ATOM     39 O    ASP E   1     -21.968  19.958   1.911  1.00 56.05 LIG-0.27  OA
ATOM     40 H    ASP E   2     -19.293  21.368   2.044  1.00 45.35 LIG 0.16  HD
BRANCH 38 41
ATOM     41  CA  ASP E   1     -19.970  19.216   0.824  1.00 54.43 LIG 0.28  C 
BRANCH 41 42
ATOM     42  CB  ASP E   1     -18.775  18.682   1.614  1.00 57.23 LIG 0.15  C 
BRANCH 42 43
ATOM     43  CG  ASP E   1     -19.134  17.481   2.472  1.00 60.86 LIG 0.17  C 
ATOM     44 OD2  ASP E   1     -19.781  17.671   3.522  1.00 61.39 LIG-0.65  OA
ATOM     45 OD1  ASP E   1     -18.779  16.344   2.080  1.00 65.62 LIG-0.65  OA
ENDBRANCH 42 43
ENDBRANCH 41 42
BRANCH 41 46
ATOM     46  N   ASP E   1     -19.524  19.880  -0.393  1.00 57.81 LIG-0.07  N 
ATOM     47 H1   ASP E   1     -19.140  20.656  -0.185  1.00 57.81 LIG 0.28  HD
ATOM     48 H3   ASP E   1     -20.223  20.028  -0.923  1.00 57.81 LIG 0.28  HD
ATOM     49 H2   ASP E   1     -18.937  19.362  -0.815  1.00 57.81 LIG 0.28  HD
ENDBRANCH 41 46
ENDBRANCH 38 41
ENDBRANCH 36 37
BRANCH 36 50
ATOM     50  CB  ASP E   2     -19.827  23.312   3.372  1.00 41.52 LIG 0.15  C 
BRANCH 50 51
ATOM     51  CG  ASP E   2     -20.412  24.296   4.348  1.00 49.49 LIG 0.17  C 
ATOM     52 OD1  ASP E   2     -21.012  25.293   3.895  1.00 51.56 LIG-0.65  OA
ATOM     53 OD2  ASP E   2     -20.274  24.063   5.565  1.00 52.06 LIG-0.65  OA
ENDBRANCH 50 51
ENDBRANCH 36 50
ENDBRANCH 34 36
ENDBRANCH 1 32
TORSDOF 20
ENDMDL
MODEL 32
USER: ADFR SOLUTION from run 125
USER: SCORE 15.529711 LL:  -3.929 LR: -13.281 RR:   0.000 FEB:  -7.315
USER: RMSD 10.564718
USER: SEED 124
USER: STATUS no improvement in best in 11 clusters for 5 generations
USER: GENES 22
USER: genes 0 Translation |==|  0.60974 0.48032 0.43200
USER: genes 1 Rotation |==|  0.96987 0.66248 0.44704 0.50364
USER: genes 2 Torsion [N]-CA--C-[N] |==|  0.35867
USER: genes 3 Torsion [C]-N--CA-[C] |==|  0.66933
USER: genes 4 Torsion [N]-CA--C-[N] |==|  0.80576
USER: genes 5 Torsion [N]-CA--C-[O] |==|  0.22254
USER: genes 6 Torsion [C]-N--CA-[CB] |==|  0.28765
USER: genes 7 Torsion [N]-CA--CB-[SG] |==|  0.05023
USER: genes 8 Torsion [CA]-CB--SG-[HG] |==|  0.06330
USER: genes 9 Torsion [N]-CA--C-[OXT] |==|  0.69206
USER: genes 10 Torsion [N]-CA--CB-[CG1] |==|  0.52920
USER: genes 11 Torsion [C]-CA--CB-[CG2] |==|  0.06019
USER: genes 12 Torsion [CA]-CB--CG1-[CD1] |==|  0.51466
USER: genes 13 Torsion [C]-CA--N-[C] |==|  0.20470
USER: genes 14 Torsion [N]-C--CA-[N] |==|  0.91099
USER: genes 15 Torsion [C]-CA--N-[C] |==|  0.85470
USER: genes 16 Torsion [N]-C--CA-[N] |==|  0.06040
USER: genes 17 Torsion [C]-CA--CB-[CG] |==|  0.78983
USER: genes 18 Torsion [CA]-CB--CG-[OD2] |==|  0.78653
USER: genes 19 Torsion [C]-CA--N-[H1] |==|  0.27887
USER: genes 20 Torsion [C]-CA--CB-[CG] |==|  0.23660
USER: genes 21 Torsion [CA]-CB--CG-[OD1] |==|  0.06175
ROOT
ATOM      1  CA  ILE E   3     -24.802  26.970   3.754  1.00 36.34 LIG 0.18  C 
ENDROOT
BRANCH 1 2
ATOM      2  C   ILE E   3     -24.560  28.457   3.533  1.00 39.45 LIG 0.24  C 
ATOM      3  N   VAL E   4     -25.548  29.281   3.885  1.00 32.94 LIG-0.35  N 
ATOM      4 H    VAL E   4     -26.265  29.026   4.284  1.00 32.94 LIG 0.16  HD
ATOM      5 O    ILE E   3     -23.506  28.844   3.040  1.00 42.21 LIG-0.27  OA
BRANCH 3 6
ATOM      6  CA  VAL E   4     -25.488  30.713   3.615  1.00 33.21 LIG 0.18  C 
BRANCH 6 7
ATOM      7  C   VAL E   4     -25.540  31.496   4.929  1.00 35.41 LIG 0.24  C 
ATOM      8 O    VAL E   4     -24.543  32.111   5.326  1.00 29.15 LIG-0.27  OA
ATOM      9  N   PRO E   5     -26.705  31.491   5.598  1.00 36.11 LIG-0.34  N 
ATOM     10  CA  PRO E   5     -26.814  32.165   6.898  1.00 34.10 LIG 0.18  C 
ATOM     11  CD  PRO E   5     -27.993  30.930   5.141  1.00 37.00 LIG 0.13  C 
ATOM     12  CB  PRO E   5     -28.290  31.956   7.291  1.00 38.74 LIG 0.04  C 
ATOM     13  CG  PRO E   5     -29.006  31.666   5.994  1.00 43.00 LIG 0.02  C 
BRANCH 10 14
ATOM     14  C   PRO E   5     -25.894  31.467   7.889  1.00 34.89 LIG 0.24  C 
ATOM     15  N   CYS E   6     -26.429  30.614   8.753  1.00 33.29 LIG-0.34  N 
ATOM     16 H    CYS E   6     -27.262  30.401   8.778  1.00 33.29 LIG 0.16  HD
ATOM     17 O    PRO E   5     -24.691  31.731   7.870  1.00 33.04 LIG-0.27  OA
BRANCH 15 18
ATOM     18  CA  CYS E   6     -25.588  29.955   9.759  1.00 33.63 LIG 0.19  C 
BRANCH 18 19
ATOM     19  CB  CYS E   6     -25.782  30.594  11.140  1.00 31.18 LIG 0.11  C 
BRANCH 19 20
ATOM     20 SG   CYS E   6     -27.332  31.586  11.258  1.00 33.89 LIG-0.18  SA
ATOM     21 HG   CYS E   6     -28.112  31.211  10.427  1.00 33.89 LIG 0.10  HD
ENDBRANCH 19 20
ENDBRANCH 18 19
BRANCH 18 22
ATOM     22  C   CYS E   6     -25.741  28.418   9.791  1.00 36.36 LIG 0.20  C 
ATOM     23 OXT  CYS E   6     -26.274  27.777  10.725  1.00 31.64 LIG-0.65  OA
ATOM     24 O    CYS E   6     -25.270  27.774   8.852  1.00 36.48 LIG-0.65  OA
ENDBRANCH 18 22
ENDBRANCH 15 18
ENDBRANCH 10 14
ENDBRANCH 6 7
BRANCH 6 25
ATOM     25  CB  VAL E   4     -26.684  31.154   2.734  1.00 33.86 LIG 0.01  C 
ATOM     26  CG2 VAL E   4     -26.884  30.179   1.568  1.00 37.12 LIG 0.01  C 
ATOM     27  CG1 VAL E   4     -26.486  32.583   2.239  1.00 36.74 LIG 0.01  C 
ENDBRANCH 6 25
ENDBRANCH 3 6
ENDBRANCH 1 2
BRANCH 1 28
ATOM     28  CB  ILE E   3     -23.957  26.461   4.913  1.00 41.05 LIG 0.01  C 
ATOM     29  CG2 ILE E   3     -23.557  27.617   5.821  1.00 37.15 LIG 0.01  C 
BRANCH 28 30
ATOM     30  CG1 ILE E   3     -24.729  25.386   5.683  1.00 42.94 LIG 0.00  C 
ATOM     31  CD1 ILE E   3     -24.011  24.915   6.930  1.00 40.89 LIG 0.01  C 
ENDBRANCH 28 30
ENDBRANCH 1 28
BRANCH 1 32
ATOM     32  N   ILE E   3     -24.501  26.269   2.521  1.00 40.60 LIG-0.35  N 
ATOM     33 H    ILE E   3     -25.187  25.985   2.086  1.00 40.60 LIG 0.16  HD
ATOM     34  C   ASP E   2     -23.241  26.105   2.137  1.00 44.87 LIG 0.24  C 
ATOM     35 O    ASP E   2     -22.286  26.618   2.731  1.00 39.41 LIG-0.27  OA
BRANCH 34 36
ATOM     36  CA  ASP E   2     -23.015  25.229   0.916  1.00 43.58 LIG 0.19  C 
BRANCH 36 37
ATOM     37  N   ASP E   2     -24.014  24.176   0.826  1.00 45.35 LIG-0.34  N 
ATOM     38  C   ASP E   1     -24.262  23.366   1.847  1.00 51.19 LIG 0.25  C 
ATOM     39 O    ASP E   1     -23.678  23.453   2.923  1.00 56.05 LIG-0.27  OA
ATOM     40 H    ASP E   2     -24.418  24.131   0.068  1.00 45.35 LIG 0.16  HD
BRANCH 38 41
ATOM     41  CA  ASP E   1     -25.331  22.310   1.626  1.00 54.43 LIG 0.28  C 
BRANCH 41 42
ATOM     42  CB  ASP E   1     -24.943  21.024   2.356  1.00 57.23 LIG 0.15  C 
BRANCH 42 43
ATOM     43  CG  ASP E   1     -23.848  20.255   1.636  1.00 60.86 LIG 0.17  C 
ATOM     44 OD2  ASP E   1     -24.152  19.592   0.623  1.00 61.39 LIG-0.65  OA
ATOM     45 OD1  ASP E   1     -22.677  20.332   2.080  1.00 65.62 LIG-0.65  OA
ENDBRANCH 42 43
ENDBRANCH 41 42
BRANCH 41 46
ATOM     46  N   ASP E   1     -25.524  22.054   0.205  1.00 57.81 LIG-0.07  N 
ATOM     47 H1   ASP E   1     -25.093  21.309  -0.024  1.00 57.81 LIG 0.28  HD
ATOM     48 H3   ASP E   1     -25.204  22.737  -0.266  1.00 57.81 LIG 0.28  HD
ATOM     49 H2   ASP E   1     -26.392  21.958   0.036  1.00 57.81 LIG 0.28  HD
ENDBRANCH 41 46
ENDBRANCH 38 41
ENDBRANCH 36 37
BRANCH 36 50
ATOM     50  CB  ASP E   2     -23.081  26.109  -0.320  1.00 41.52 LIG 0.15  C 
BRANCH 50 51
ATOM     51  CG  ASP E   2     -21.763  26.762  -0.632  1.00 49.49 LIG 0.17  C 
ATOM     52 OD1  ASP E   2     -20.723  26.238  -0.182  1.00 51.56 LIG-0.65  OA
ATOM     53 OD2  ASP E   2     -21.774  27.794  -1.330  1.00 52.06 LIG-0.65  OA
ENDBRANCH 50 51
ENDBRANCH 36 50
ENDBRANCH 34 36
ENDBRANCH 1 32
TORSDOF 20
ENDMDL
MODEL 33
USER: ADFR SOLUTION from run 76
USER: SCORE 16.907512 LL:  -4.286 LR: -13.271 RR:   0.000 FEB:  -7.305
USER: RMSD 7.151601
USER: SEED 75
USER: STATUS no improvement in best in 6 clusters for 5 generations
USER: GENES 22
USER: genes 0 Translation |==|  0.65561 0.42511 0.35986
USER: genes 1 Rotation |==|  0.47023 0.36241 0.38509 0.96581
USER: genes 2 Torsion [N]-CA--C-[N] |==|  0.45378
USER: genes 3 Torsion [C]-N--CA-[C] |==|  0.65882
USER: genes 4 Torsion [N]-CA--C-[N] |==|  0.13333
USER: genes 5 Torsion [N]-CA--C-[O] |==|  0.98257
USER: genes 6 Torsion [C]-N--CA-[CB] |==|  0.82223
USER: genes 7 Torsion [N]-CA--CB-[SG] |==|  0.27885
USER: genes 8 Torsion [CA]-CB--SG-[HG] |==|  0.02209
USER: genes 9 Torsion [N]-CA--C-[OXT] |==|  0.27988
USER: genes 10 Torsion [N]-CA--CB-[CG1] |==|  0.82626
USER: genes 11 Torsion [C]-CA--CB-[CG2] |==|  0.21686
USER: genes 12 Torsion [CA]-CB--CG1-[CD1] |==|  0.46170
USER: genes 13 Torsion [C]-CA--N-[C] |==|  0.82123
USER: genes 14 Torsion [N]-C--CA-[N] |==|  0.87229
USER: genes 15 Torsion [C]-CA--N-[C] |==|  0.80011
USER: genes 16 Torsion [N]-C--CA-[N] |==|  0.29519
USER: genes 17 Torsion [C]-CA--CB-[CG] |==|  0.75738
USER: genes 18 Torsion [CA]-CB--CG-[OD2] |==|  0.09225
USER: genes 19 Torsion [C]-CA--N-[H1] |==|  0.36971
USER: genes 20 Torsion [C]-CA--CB-[CG] |==|  0.42335
USER: genes 21 Torsion [CA]-CB--CG-[OD1] |==|  0.67105
ROOT
ATOM      1  CA  ILE E   3     -23.873  25.604   2.347  1.00 36.34 LIG 0.18  C 
ENDROOT
BRANCH 1 2
ATOM      2  C   ILE E   3     -23.518  24.266   2.984  1.00 39.45 LIG 0.24  C 
ATOM      3  N   VAL E   4     -23.656  23.184   2.217  1.00 32.94 LIG-0.35  N 
ATOM      4 H    VAL E   4     -23.861  23.212   1.382  1.00 32.94 LIG 0.16  HD
ATOM      5 O    ILE E   3     -23.143  24.219   4.150  1.00 42.21 LIG-0.27  OA
BRANCH 3 6
ATOM      6  CA  VAL E   4     -23.464  21.838   2.744  1.00 33.21 LIG 0.18  C 
BRANCH 6 7
ATOM      7  C   VAL E   4     -22.380  21.113   1.942  1.00 35.41 LIG 0.24  C 
ATOM      8 O    VAL E   4     -22.583  19.970   1.515  1.00 29.15 LIG-0.27  OA
ATOM      9  N   PRO E   5     -21.234  21.778   1.720  1.00 36.11 LIG-0.34  N 
ATOM     10  CA  PRO E   5     -20.124  21.125   1.016  1.00 34.10 LIG 0.18  C 
ATOM     11  CD  PRO E   5     -20.948  23.192   2.042  1.00 37.00 LIG 0.13  C 
ATOM     12  CB  PRO E   5     -19.046  22.225   0.941  1.00 38.74 LIG 0.04  C 
ATOM     13  CG  PRO E   5     -19.795  23.523   1.117  1.00 43.00 LIG 0.02  C 
BRANCH 10 14
ATOM     14  C   PRO E   5     -19.635  19.954   1.855  1.00 34.89 LIG 0.24  C 
ATOM     15  N   CYS E   6     -18.731  19.136   1.330  1.00 33.29 LIG-0.34  N 
ATOM     16 H    CYS E   6     -18.376  19.234   0.553  1.00 33.29 LIG 0.16  HD
ATOM     17 O    PRO E   5     -20.107  19.792   2.981  1.00 33.04 LIG-0.27  OA
BRANCH 15 18
ATOM     18  CA  CYS E   6     -18.267  17.965   2.083  1.00 33.63 LIG 0.19  C 
BRANCH 18 19
ATOM     19  CB  CYS E   6     -17.532  18.390   3.360  1.00 31.18 LIG 0.11  C 
BRANCH 19 20
ATOM     20 SG   CYS E   6     -18.584  18.265   4.869  1.00 33.89 LIG-0.18  SA
ATOM     21 HG   CYS E   6     -19.617  17.721   4.593  1.00 33.89 LIG 0.10  HD
ENDBRANCH 19 20
ENDBRANCH 18 19
BRANCH 18 22
ATOM     22  C   CYS E   6     -19.373  16.920   2.356  1.00 36.36 LIG 0.20  C 
ATOM     23 OXT  CYS E   6     -19.524  15.861   1.705  1.00 31.64 LIG-0.65  OA
ATOM     24 O    CYS E   6     -20.185  17.163   3.249  1.00 36.48 LIG-0.65  OA
ENDBRANCH 18 22
ENDBRANCH 15 18
ENDBRANCH 10 14
ENDBRANCH 6 7
BRANCH 6 25
ATOM     25  CB  VAL E   4     -24.776  21.020   2.647  1.00 33.86 LIG 0.01  C 
ATOM     26  CG2 VAL E   4     -25.214  20.876   1.185  1.00 37.12 LIG 0.01  C 
ATOM     27  CG1 VAL E   4     -25.870  21.658   3.496  1.00 36.74 LIG 0.01  C 
ENDBRANCH 6 25
ENDBRANCH 3 6
ENDBRANCH 1 2
BRANCH 1 28
ATOM     28  CB  ILE E   3     -22.795  26.023   1.359  1.00 41.05 LIG 0.01  C 
ATOM     29  CG2 ILE E   3     -22.948  25.256   0.053  1.00 37.15 LIG 0.01  C 
BRANCH 28 30
ATOM     30  CG1 ILE E   3     -22.863  27.536   1.130  1.00 42.94 LIG 0.00  C 
ATOM     31  CD1 ILE E   3     -21.639  28.089   0.432  1.00 40.89 LIG 0.01  C 
ENDBRANCH 28 30
ENDBRANCH 1 28
BRANCH 1 32
ATOM     32  N   ILE E   3     -24.046  26.582   3.404  1.00 40.60 LIG-0.35  N 
ATOM     33 H    ILE E   3     -23.476  27.227   3.400  1.00 40.60 LIG 0.16  HD
ATOM     34  C   ASP E   2     -25.028  26.445   4.286  1.00 44.87 LIG 0.24  C 
ATOM     35 O    ASP E   2     -25.892  25.565   4.198  1.00 39.41 LIG-0.27  OA
BRANCH 34 36
ATOM     36  CA  ASP E   2     -25.039  27.430   5.443  1.00 43.58 LIG 0.19  C 
BRANCH 36 37
ATOM     37  N   ASP E   2     -23.715  27.578   6.027  1.00 45.35 LIG-0.34  N 
ATOM     38  C   ASP E   1     -23.168  26.615   6.756  1.00 51.19 LIG 0.25  C 
ATOM     39 O    ASP E   1     -23.729  25.546   6.979  1.00 56.05 LIG-0.27  OA
ATOM     40 H    ASP E   2     -23.333  28.330   5.857  1.00 45.35 LIG 0.16  HD
BRANCH 38 41
ATOM     41  CA  ASP E   1     -21.779  26.893   7.305  1.00 54.43 LIG 0.28  C 
BRANCH 41 42
ATOM     42  CB  ASP E   1     -20.862  25.705   7.012  1.00 57.23 LIG 0.15  C 
BRANCH 42 43
ATOM     43  CG  ASP E   1     -20.929  24.638   8.092  1.00 60.86 LIG 0.17  C 
ATOM     44 OD2  ASP E   1     -22.014  24.453   8.680  1.00 61.39 LIG-0.65  OA
ATOM     45 OD1  ASP E   1     -19.893  23.975   8.337  1.00 65.62 LIG-0.65  OA
ENDBRANCH 42 43
ENDBRANCH 41 42
BRANCH 41 46
ATOM     46  N   ASP E   1     -21.828  27.159   8.736  1.00 57.81 LIG-0.07  N 
ATOM     47 H1   ASP E   1     -21.195  26.688   9.149  1.00 57.81 LIG 0.28  HD
ATOM     48 H3   ASP E   1     -22.625  26.925   9.055  1.00 57.81 LIG 0.28  HD
ATOM     49 H2   ASP E   1     -21.695  28.027   8.881  1.00 57.81 LIG 0.28  HD
ENDBRANCH 41 46
ENDBRANCH 38 41
ENDBRANCH 36 37
BRANCH 36 50
ATOM     50  CB  ASP E   2     -25.526  28.771   4.923  1.00 41.52 LIG 0.15  C 
BRANCH 50 51
ATOM     51  CG  ASP E   2     -26.195  29.593   5.989  1.00 49.49 LIG 0.17  C 
ATOM     52 OD1  ASP E   2     -27.396  29.900   5.832  1.00 51.56 LIG-0.65  OA
ATOM     53 OD2  ASP E   2     -25.519  29.924   6.982  1.00 52.06 LIG-0.65  OA
ENDBRANCH 50 51
ENDBRANCH 36 50
ENDBRANCH 34 36
ENDBRANCH 1 32
TORSDOF 20
ENDMDL
MODEL 34
USER: ADFR SOLUTION from run 112
USER: SCORE 17.909871 LL:  -4.997 LR: -13.247 RR:   0.000 FEB:  -7.281
USER: RMSD 8.940195
USER: SEED 111
USER: STATUS no improvement in best in 4 clusters for 5 generations
USER: GENES 22
USER: genes 0 Translation |==|  0.59921 0.40850 0.45051
USER: genes 1 Rotation |==|  0.15163 0.39608 0.50424 0.84326
USER: genes 2 Torsion [N]-CA--C-[N] |==|  0.06619
USER: genes 3 Torsion [C]-N--CA-[C] |==|  0.76870
USER: genes 4 Torsion [N]-CA--C-[N] |==|  0.43180
USER: genes 5 Torsion [N]-CA--C-[O] |==|  0.33979
USER: genes 6 Torsion [C]-N--CA-[CB] |==|  0.81712
USER: genes 7 Torsion [N]-CA--CB-[SG] |==|  0.47266
USER: genes 8 Torsion [CA]-CB--SG-[HG] |==|  0.61988
USER: genes 9 Torsion [N]-CA--C-[OXT] |==|  0.05334
USER: genes 10 Torsion [N]-CA--CB-[CG1] |==|  0.32003
USER: genes 11 Torsion [C]-CA--CB-[CG2] |==|  0.20887
USER: genes 12 Torsion [CA]-CB--CG1-[CD1] |==|  0.67947
USER: genes 13 Torsion [C]-CA--N-[C] |==|  0.19100
USER: genes 14 Torsion [N]-C--CA-[N] |==|  0.12024
USER: genes 15 Torsion [C]-CA--N-[C] |==|  0.16109
USER: genes 16 Torsion [N]-C--CA-[N] |==|  0.11002
USER: genes 17 Torsion [C]-CA--CB-[CG] |==|  0.68082
USER: genes 18 Torsion [CA]-CB--CG-[OD2] |==|  0.83181
USER: genes 19 Torsion [C]-CA--N-[H1] |==|  0.27363
USER: genes 20 Torsion [C]-CA--CB-[CG] |==|  0.39466
USER: genes 21 Torsion [CA]-CB--CG-[OD1] |==|  0.76221
ROOT
ATOM      1  CA  ILE E   3     -25.015  25.192   4.115  1.00 36.34 LIG 0.18  C 
ENDROOT
BRANCH 1 2
ATOM      2  C   ILE E   3     -24.273  25.549   5.396  1.00 39.45 LIG 0.24  C 
ATOM      3  N   VAL E   4     -24.289  26.832   5.758  1.00 32.94 LIG-0.35  N 
ATOM      4 H    VAL E   4     -24.744  27.439   5.353  1.00 32.94 LIG 0.16  HD
ATOM      5 O    ILE E   3     -23.686  24.679   6.031  1.00 42.21 LIG-0.27  OA
BRANCH 3 6
ATOM      6  CA  VAL E   4     -23.518  27.320   6.896  1.00 33.21 LIG 0.18  C 
BRANCH 6 7
ATOM      7  C   VAL E   4     -24.293  27.082   8.194  1.00 35.41 LIG 0.24  C 
ATOM      8 O    VAL E   4     -25.524  26.966   8.170  1.00 29.15 LIG-0.27  OA
ATOM      9  N   PRO E   5     -23.576  26.989   9.326  1.00 36.11 LIG-0.34  N 
ATOM     10  CA  PRO E   5     -24.254  26.825  10.619  1.00 34.10 LIG 0.18  C 
ATOM     11  CD  PRO E   5     -22.105  26.950   9.449  1.00 37.00 LIG 0.13  C 
ATOM     12  CB  PRO E   5     -23.091  26.724  11.626  1.00 38.74 LIG 0.04  C 
ATOM     13  CG  PRO E   5     -21.893  26.310  10.805  1.00 43.00 LIG 0.02  C 
BRANCH 10 14
ATOM     14  C   PRO E   5     -25.090  28.067  10.892  1.00 34.89 LIG 0.24  C 
ATOM     15  N   CYS E   6     -24.477  29.242  10.941  1.00 33.29 LIG-0.34  N 
ATOM     16 H    CYS E   6     -23.637  29.362  10.800  1.00 33.29 LIG 0.16  HD
ATOM     17 O    PRO E   5     -26.301  27.937  11.079  1.00 33.04 LIG-0.27  OA
BRANCH 15 18
ATOM     18  CA  CYS E   6     -25.235  30.460  11.251  1.00 33.63 LIG 0.19  C 
BRANCH 18 19
ATOM     19  CB  CYS E   6     -26.246  30.774  10.140  1.00 31.18 LIG 0.11  C 
BRANCH 19 20
ATOM     20 SG   CYS E   6     -27.422  32.117  10.600  1.00 33.89 LIG-0.18  SA
ATOM     21 HG   CYS E   6     -28.532  31.812  10.259  1.00 33.89 LIG 0.10  HD
ENDBRANCH 19 20
ENDBRANCH 18 19
BRANCH 18 22
ATOM     22  C   CYS E   6     -25.879  30.455  12.655  1.00 36.36 LIG 0.20  C 
ATOM     23 OXT  CYS E   6     -25.524  29.708  13.595  1.00 31.64 LIG-0.65  OA
ATOM     24 O    CYS E   6     -26.834  31.207  12.852  1.00 36.48 LIG-0.65  OA
ENDBRANCH 18 22
ENDBRANCH 15 18
ENDBRANCH 10 14
ENDBRANCH 6 7
BRANCH 6 25
ATOM     25  CB  VAL E   4     -23.244  28.839   6.761  1.00 33.86 LIG 0.01  C 
ATOM     26  CG2 VAL E   4     -21.737  29.116   6.748  1.00 37.12 LIG 0.01  C 
ATOM     27  CG1 VAL E   4     -23.943  29.610   7.875  1.00 36.74 LIG 0.01  C 
ENDBRANCH 6 25
ENDBRANCH 3 6
ENDBRANCH 1 2
BRANCH 1 28
ATOM     28  CB  ILE E   3     -24.312  24.051   3.395  1.00 41.05 LIG 0.01  C 
ATOM     29  CG2 ILE E   3     -24.582  22.732   4.106  1.00 37.15 LIG 0.01  C 
BRANCH 28 30
ATOM     30  CG1 ILE E   3     -24.769  24.003   1.934  1.00 42.94 LIG 0.00  C 
ATOM     31  CD1 ILE E   3     -25.525  22.738   1.588  1.00 40.89 LIG 0.01  C 
ENDBRANCH 28 30
ENDBRANCH 1 28
BRANCH 1 32
ATOM     32  N   ILE E   3     -25.099  26.381   3.288  1.00 40.60 LIG-0.35  N 
ATOM     33 H    ILE E   3     -25.889  26.708   3.199  1.00 40.60 LIG 0.16  HD
ATOM     34  C   ASP E   2     -24.005  26.885   2.732  1.00 44.87 LIG 0.24  C 
ATOM     35 O    ASP E   2     -22.871  26.451   2.966  1.00 39.41 LIG-0.27  OA
BRANCH 34 36
ATOM     36  CA  ASP E   2     -24.210  28.037   1.761  1.00 43.58 LIG 0.19  C 
BRANCH 36 37
ATOM     37  N   ASP E   2     -25.176  28.995   2.272  1.00 45.35 LIG-0.34  N 
ATOM     38  C   ASP E   1     -24.999  29.606   3.436  1.00 51.19 LIG 0.25  C 
ATOM     39 O    ASP E   1     -24.019  29.410   4.148  1.00 56.05 LIG-0.27  OA
ATOM     40 H    ASP E   2     -25.855  29.125   1.759  1.00 45.35 LIG 0.16  HD
BRANCH 38 41
ATOM     41  CA  ASP E   1     -26.081  30.587   3.853  1.00 54.43 LIG 0.28  C 
BRANCH 41 42
ATOM     42  CB  ASP E   1     -25.979  30.857   5.355  1.00 57.23 LIG 0.15  C 
BRANCH 42 43
ATOM     43  CG  ASP E   1     -27.193  30.358   6.119  1.00 60.86 LIG 0.17  C 
ATOM     44 OD2  ASP E   1     -28.313  30.832   5.834  1.00 61.39 LIG-0.65  OA
ATOM     45 OD1  ASP E   1     -27.024  29.476   6.994  1.00 65.62 LIG-0.65  OA
ENDBRANCH 42 43
ENDBRANCH 41 42
BRANCH 41 46
ATOM     46  N   ASP E   1     -27.403  30.081   3.513  1.00 57.81 LIG-0.07  N 
ATOM     47 H1   ASP E   1     -27.774  29.711   4.233  1.00 57.81 LIG 0.28  HD
ATOM     48 H3   ASP E   1     -27.331  29.471   2.870  1.00 57.81 LIG 0.28  HD
ATOM     49 H2   ASP E   1     -27.913  30.752   3.229  1.00 57.81 LIG 0.28  HD
ENDBRANCH 41 46
ENDBRANCH 38 41
ENDBRANCH 36 37
BRANCH 36 50
ATOM     50  CB  ASP E   2     -22.871  28.720   1.544  1.00 41.52 LIG 0.15  C 
BRANCH 50 51
ATOM     51  CG  ASP E   2     -22.677  29.167   0.121  1.00 49.49 LIG 0.17  C 
ATOM     52 OD1  ASP E   2     -22.222  28.343  -0.700  1.00 51.56 LIG-0.65  OA
ATOM     53 OD2  ASP E   2     -22.986  30.338  -0.170  1.00 52.06 LIG-0.65  OA
ENDBRANCH 50 51
ENDBRANCH 36 50
ENDBRANCH 34 36
ENDBRANCH 1 32
TORSDOF 20
ENDMDL
MODEL 35
USER: ADFR SOLUTION from run 4
USER: SCORE 17.149599 LL:  -4.868 LR: -13.214 RR:   0.000 FEB:  -7.248
USER: RMSD 10.782670
USER: SEED 630993
USER: STATUS no improvement in best in 7 clusters for 5 generations
USER: GENES 22
USER: genes 0 Translation |==|  0.61071 0.47255 0.57067
USER: genes 1 Rotation |==|  0.94067 0.70266 0.49890 0.62139
USER: genes 2 Torsion [N]-CA--C-[N] |==|  0.33106
USER: genes 3 Torsion [C]-N--CA-[C] |==|  0.59612
USER: genes 4 Torsion [N]-CA--C-[N] |==|  0.21986
USER: genes 5 Torsion [N]-CA--C-[O] |==|  0.79404
USER: genes 6 Torsion [C]-N--CA-[CB] |==|  0.24020
USER: genes 7 Torsion [N]-CA--CB-[SG] |==|  0.10728
USER: genes 8 Torsion [CA]-CB--SG-[HG] |==|  0.24881
USER: genes 9 Torsion [N]-CA--C-[OXT] |==|  0.51807
USER: genes 10 Torsion [N]-CA--CB-[CG1] |==|  0.53814
USER: genes 11 Torsion [C]-CA--CB-[CG2] |==|  0.14548
USER: genes 12 Torsion [CA]-CB--CG1-[CD1] |==|  0.28234
USER: genes 13 Torsion [C]-CA--N-[C] |==|  0.79092
USER: genes 14 Torsion [N]-C--CA-[N] |==|  0.48684
USER: genes 15 Torsion [C]-CA--N-[C] |==|  0.80513
USER: genes 16 Torsion [N]-C--CA-[N] |==|  0.02406
USER: genes 17 Torsion [C]-CA--CB-[CG] |==|  0.80452
USER: genes 18 Torsion [CA]-CB--CG-[OD2] |==|  0.12357
USER: genes 19 Torsion [C]-CA--N-[H1] |==|  0.82476
USER: genes 20 Torsion [C]-CA--CB-[CG] |==|  0.24915
USER: genes 21 Torsion [CA]-CB--CG-[OD1] |==|  0.98494
ROOT
ATOM      1  CA  ILE E   3     -24.782  26.778   6.458  1.00 36.34 LIG 0.18  C 
ENDROOT
BRANCH 1 2
ATOM      2  C   ILE E   3     -24.735  28.129   5.758  1.00 39.45 LIG 0.24  C 
ATOM      3  N   VAL E   4     -25.892  28.601   5.292  1.00 32.94 LIG-0.35  N 
ATOM      4 H    VAL E   4     -26.653  28.223   5.426  1.00 32.94 LIG 0.16  HD
ATOM      5 O    ILE E   3     -23.669  28.721   5.631  1.00 42.21 LIG-0.27  OA
BRANCH 3 6
ATOM      6  CA  VAL E   4     -25.961  29.823   4.500  1.00 33.21 LIG 0.18  C 
BRANCH 6 7
ATOM      7  C   VAL E   4     -27.257  30.576   4.811  1.00 35.41 LIG 0.24  C 
ATOM      8 O    VAL E   4     -28.226  30.488   4.048  1.00 29.15 LIG-0.27  OA
ATOM      9  N   PRO E   5     -27.286  31.303   5.941  1.00 36.11 LIG-0.34  N 
ATOM     10  CA  PRO E   5     -28.470  32.104   6.275  1.00 34.10 LIG 0.18  C 
ATOM     11  CD  PRO E   5     -26.254  31.350   6.998  1.00 37.00 LIG 0.13  C 
ATOM     12  CB  PRO E   5     -28.109  32.733   7.636  1.00 38.74 LIG 0.04  C 
ATOM     13  CG  PRO E   5     -27.024  31.850   8.202  1.00 43.00 LIG 0.02  C 
BRANCH 10 14
ATOM     14  C   PRO E   5     -28.644  33.184   5.217  1.00 34.89 LIG 0.24  C 
ATOM     15  N   CYS E   6     -29.601  33.032   4.312  1.00 33.29 LIG-0.34  N 
ATOM     16 H    CYS E   6     -30.157  32.375   4.293  1.00 33.29 LIG 0.16  HD
ATOM     17 O    PRO E   5     -27.878  34.149   5.224  1.00 33.04 LIG-0.27  OA
BRANCH 15 18
ATOM     18  CA  CYS E   6     -29.773  34.023   3.243  1.00 33.63 LIG 0.19  C 
BRANCH 18 19
ATOM     19  CB  CYS E   6     -28.869  33.701   2.046  1.00 31.18 LIG 0.11  C 
BRANCH 19 20
ATOM     20 SG   CYS E   6     -28.752  31.894   1.703  1.00 33.89 LIG-0.18  SA
ATOM     21 HG   CYS E   6     -29.623  31.573   0.941  1.00 33.89 LIG 0.10  HD
ENDBRANCH 19 20
ENDBRANCH 18 19
BRANCH 18 22
ATOM     22  C   CYS E   6     -31.245  34.247   2.830  1.00 36.36 LIG 0.20  C 
ATOM     23 OXT  CYS E   6     -31.611  34.957   1.865  1.00 31.64 LIG-0.65  OA
ATOM     24 O    CYS E   6     -32.121  33.726   3.521  1.00 36.48 LIG-0.65  OA
ENDBRANCH 18 22
ENDBRANCH 15 18
ENDBRANCH 10 14
ENDBRANCH 6 7
BRANCH 6 25
ATOM     25  CB  VAL E   4     -25.937  29.496   2.985  1.00 33.86 LIG 0.01  C 
ATOM     26  CG2 VAL E   4     -24.903  28.405   2.686  1.00 37.12 LIG 0.01  C 
ATOM     27  CG1 VAL E   4     -25.668  30.756   2.170  1.00 36.74 LIG 0.01  C 
ENDBRANCH 6 25
ENDBRANCH 3 6
ENDBRANCH 1 2
BRANCH 1 28
ATOM     28  CB  ILE E   3     -24.345  26.916   7.909  1.00 41.05 LIG 0.01  C 
ATOM     29  CG2 ILE E   3     -25.144  28.015   8.598  1.00 37.15 LIG 0.01  C 
BRANCH 28 30
ATOM     30  CG1 ILE E   3     -24.504  25.574   8.628  1.00 42.94 LIG 0.00  C 
ATOM     31  CD1 ILE E   3     -23.197  24.828   8.794  1.00 40.89 LIG 0.01  C 
ENDBRANCH 28 30
ENDBRANCH 1 28
BRANCH 1 32
ATOM     32  N   ILE E   3     -23.937  25.853   5.727  1.00 40.60 LIG-0.35  N 
ATOM     33 H    ILE E   3     -23.181  25.679   6.099  1.00 40.60 LIG 0.16  HD
ATOM     34  C   ASP E   2     -24.348  25.344   4.573  1.00 44.87 LIG 0.24  C 
ATOM     35 O    ASP E   2     -25.482  25.534   4.121  1.00 39.41 LIG-0.27  OA
BRANCH 34 36
ATOM     36  CA  ASP E   2     -23.337  24.508   3.805  1.00 43.58 LIG 0.19  C 
BRANCH 36 37
ATOM     37  N   ASP E   2     -23.931  23.914   2.618  1.00 45.35 LIG-0.34  N 
ATOM     38  C   ASP E   1     -24.827  22.941   2.705  1.00 51.19 LIG 0.25  C 
ATOM     39 O    ASP E   1     -25.215  22.485   3.776  1.00 56.05 LIG-0.27  OA
ATOM     40 H    ASP E   2     -23.653  24.248   1.876  1.00 45.35 LIG 0.16  HD
BRANCH 38 41
ATOM     41  CA  ASP E   1     -25.374  22.410   1.390  1.00 54.43 LIG 0.28  C 
BRANCH 41 42
ATOM     42  CB  ASP E   1     -25.307  20.882   1.386  1.00 57.23 LIG 0.15  C 
BRANCH 42 43
ATOM     43  CG  ASP E   1     -23.883  20.362   1.291  1.00 60.86 LIG 0.17  C 
ATOM     44 OD2  ASP E   1     -23.006  20.894   2.003  1.00 61.39 LIG-0.65  OA
ATOM     45 OD1  ASP E   1     -23.649  19.408   0.511  1.00 65.62 LIG-0.65  OA
ENDBRANCH 42 43
ENDBRANCH 41 42
BRANCH 41 46
ATOM     46  N   ASP E   1     -24.636  22.957   0.260  1.00 57.81 LIG-0.07  N 
ATOM     47 H1   ASP E   1     -24.744  23.840   0.234  1.00 57.81 LIG 0.28  HD
ATOM     48 H3   ASP E   1     -24.942  22.600  -0.495  1.00 57.81 LIG 0.28  HD
ATOM     49 H2   ASP E   1     -23.772  22.765   0.349  1.00 57.81 LIG 0.28  HD
ENDBRANCH 41 46
ENDBRANCH 38 41
ENDBRANCH 36 37
BRANCH 36 50
ATOM     50  CB  ASP E   2     -22.179  25.407   3.408  1.00 41.52 LIG 0.15  C 
BRANCH 50 51
ATOM     51  CG  ASP E   2     -21.096  25.445   4.450  1.00 49.49 LIG 0.17  C 
ATOM     52 OD1  ASP E   2     -21.294  24.849   5.530  1.00 51.56 LIG-0.65  OA
ATOM     53 OD2  ASP E   2     -20.049  26.065   4.182  1.00 52.06 LIG-0.65  OA
ENDBRANCH 50 51
ENDBRANCH 36 50
ENDBRANCH 34 36
ENDBRANCH 1 32
TORSDOF 20
ENDMDL
MODEL 36
USER: ADFR SOLUTION from run 123
USER: SCORE 17.366664 LL:  -4.943 LR: -13.168 RR:   0.000 FEB:  -7.202
USER: RMSD 11.799619
USER: SEED 122
USER: STATUS searching
USER: GENES 22
USER: genes 0 Translation |==|  0.65746 0.31212 0.30380
USER: genes 1 Rotation |==|  0.11953 0.59870 0.19175 0.52195
USER: genes 2 Torsion [N]-CA--C-[N] |==|  0.40340
USER: genes 3 Torsion [C]-N--CA-[C] |==|  0.64440
USER: genes 4 Torsion [N]-CA--C-[N] |==|  0.42214
USER: genes 5 Torsion [N]-CA--C-[O] |==|  0.79157
USER: genes 6 Torsion [C]-N--CA-[CB] |==|  0.31352
USER: genes 7 Torsion [N]-CA--CB-[SG] |==|  0.93815
USER: genes 8 Torsion [CA]-CB--SG-[HG] |==|  0.22125
USER: genes 9 Torsion [N]-CA--C-[OXT] |==|  0.63233
USER: genes 10 Torsion [N]-CA--CB-[CG1] |==|  0.70763
USER: genes 11 Torsion [C]-CA--CB-[CG2] |==|  0.71273
USER: genes 12 Torsion [CA]-CB--CG1-[CD1] |==|  0.70828
USER: genes 13 Torsion [C]-CA--N-[C] |==|  0.83179
USER: genes 14 Torsion [N]-C--CA-[N] |==|  0.81111
USER: genes 15 Torsion [C]-CA--N-[C] |==|  0.80343
USER: genes 16 Torsion [N]-C--CA-[N] |==|  0.15963
USER: genes 17 Torsion [C]-CA--CB-[CG] |==|  0.41632
USER: genes 18 Torsion [CA]-CB--CG-[OD2] |==|  0.61176
USER: genes 19 Torsion [C]-CA--N-[H1] |==|  0.79321
USER: genes 20 Torsion [C]-CA--CB-[CG] |==|  0.75767
USER: genes 21 Torsion [CA]-CB--CG-[OD1] |==|  0.06917
ROOT
ATOM      1  CA  ILE E   3     -23.835  22.807   1.254  1.00 36.34 LIG 0.18  C 
ENDROOT
BRANCH 1 2
ATOM      2  C   ILE E   3     -23.358  23.326   2.604  1.00 39.45 LIG 0.24  C 
ATOM      3  N   VAL E   4     -23.614  24.607   2.875  1.00 32.94 LIG-0.35  N 
ATOM      4 H    VAL E   4     -24.084  25.119   2.370  1.00 32.94 LIG 0.16  HD
ATOM      5 O    ILE E   3     -22.758  22.583   3.373  1.00 42.21 LIG-0.27  OA
BRANCH 3 6
ATOM      6  CA  VAL E   4     -23.105  25.253   4.080  1.00 33.21 LIG 0.18  C 
BRANCH 6 7
ATOM      7  C   VAL E   4     -24.251  25.936   4.830  1.00 35.41 LIG 0.24  C 
ATOM      8 O    VAL E   4     -25.250  26.329   4.216  1.00 29.15 LIG-0.27  OA
ATOM      9  N   PRO E   5     -24.120  26.064   6.161  1.00 36.11 LIG-0.34  N 
ATOM     10  CA  PRO E   5     -25.148  26.766   6.941  1.00 34.10 LIG 0.18  C 
ATOM     11  CD  PRO E   5     -23.055  25.494   7.011  1.00 37.00 LIG 0.13  C 
ATOM     12  CB  PRO E   5     -24.639  26.653   8.392  1.00 38.74 LIG 0.04  C 
ATOM     13  CG  PRO E   5     -23.688  25.481   8.387  1.00 43.00 LIG 0.02  C 
BRANCH 10 14
ATOM     14  C   PRO E   5     -25.186  28.222   6.500  1.00 34.89 LIG 0.24  C 
ATOM     15  N   CYS E   6     -26.179  28.617   5.716  1.00 33.29 LIG-0.34  N 
ATOM     16 H    CYS E   6     -26.827  28.115   5.456  1.00 33.29 LIG 0.16  HD
ATOM     17 O    PRO E   5     -24.285  28.977   6.869  1.00 33.04 LIG-0.27  OA
BRANCH 15 18
ATOM     18  CA  CYS E   6     -26.230  30.000   5.225  1.00 33.63 LIG 0.19  C 
BRANCH 18 19
ATOM     19  CB  CYS E   6     -26.021  30.051   3.707  1.00 31.18 LIG 0.11  C 
BRANCH 19 20
ATOM     20 SG   CYS E   6     -25.148  28.564   3.053  1.00 33.89 LIG-0.18  SA
ATOM     21 HG   CYS E   6     -25.927  27.657   2.948  1.00 33.89 LIG 0.10  HD
ENDBRANCH 19 20
ENDBRANCH 18 19
BRANCH 18 22
ATOM     22  C   CYS E   6     -27.486  30.778   5.677  1.00 36.36 LIG 0.20  C 
ATOM     23 OXT  CYS E   6     -28.209  31.462   4.917  1.00 31.64 LIG-0.65  OA
ATOM     24 O    CYS E   6     -27.774  30.757   6.874  1.00 36.48 LIG-0.65  OA
ENDBRANCH 18 22
ENDBRANCH 15 18
ENDBRANCH 10 14
ENDBRANCH 6 7
BRANCH 6 25
ATOM     25  CB  VAL E   4     -22.047  26.327   3.719  1.00 33.86 LIG 0.01  C 
ATOM     26  CG2 VAL E   4     -22.167  26.727   2.244  1.00 37.12 LIG 0.01  C 
ATOM     27  CG1 VAL E   4     -20.645  25.828   4.049  1.00 36.74 LIG 0.01  C 
ENDBRANCH 6 25
ENDBRANCH 3 6
ENDBRANCH 1 2
BRANCH 1 28
ATOM     28  CB  ILE E   3     -25.229  22.209   1.378  1.00 41.05 LIG 0.01  C 
ATOM     29  CG2 ILE E   3     -25.152  20.688   1.378  1.00 37.15 LIG 0.01  C 
BRANCH 28 30
ATOM     30  CG1 ILE E   3     -25.907  22.734   2.647  1.00 42.94 LIG 0.00  C 
ATOM     31  CD1 ILE E   3     -25.959  21.712   3.762  1.00 40.89 LIG 0.01  C 
ENDBRANCH 28 30
ENDBRANCH 1 28
BRANCH 1 32
ATOM     32  N   ILE E   3     -22.873  21.836   0.771  1.00 40.60 LIG-0.35  N 
ATOM     33 H    ILE E   3     -23.186  21.044   0.646  1.00 40.60 LIG 0.16  HD
ATOM     34  C   ASP E   2     -21.615  22.195   0.553  1.00 44.87 LIG 0.24  C 
ATOM     35 O    ASP E   2     -21.225  23.365   0.641  1.00 39.41 LIG-0.27  OA
BRANCH 34 36
ATOM     36  CA  ASP E   2     -20.646  21.080   0.195  1.00 43.58 LIG 0.19  C 
BRANCH 36 37
ATOM     37  N   ASP E   2     -20.426  20.186   1.321  1.00 45.35 LIG-0.34  N 
ATOM     38  C   ASP E   1     -19.737  20.571   2.387  1.00 51.19 LIG 0.25  C 
ATOM     39 O    ASP E   1     -19.251  21.692   2.498  1.00 56.05 LIG-0.27  OA
ATOM     40 H    ASP E   2     -20.777  19.406   1.231  1.00 45.35 LIG 0.16  HD
BRANCH 38 41
ATOM     41  CA  ASP E   1     -19.583  19.543   3.496  1.00 54.43 LIG 0.28  C 
BRANCH 41 42
ATOM     42  CB  ASP E   1     -18.766  20.142   4.642  1.00 57.23 LIG 0.15  C 
BRANCH 42 43
ATOM     43  CG  ASP E   1     -19.149  19.563   5.993  1.00 60.86 LIG 0.17  C 
ATOM     44 OD2  ASP E   1     -19.214  20.332   6.974  1.00 61.39 LIG-0.65  OA
ATOM     45 OD1  ASP E   1     -19.401  18.336   6.064  1.00 65.62 LIG-0.65  OA
ENDBRANCH 42 43
ENDBRANCH 41 42
BRANCH 41 46
ATOM     46  N   ASP E   1     -18.951  18.329   2.997  1.00 57.81 LIG-0.07  N 
ATOM     47 H1   ASP E   1     -19.536  17.868   2.510  1.00 57.81 LIG 0.28  HD
ATOM     48 H3   ASP E   1     -18.681  17.832   3.684  1.00 57.81 LIG 0.28  HD
ATOM     49 H2   ASP E   1     -18.250  18.545   2.494  1.00 57.81 LIG 0.28  HD
ENDBRANCH 41 46
ENDBRANCH 38 41
ENDBRANCH 36 37
BRANCH 36 50
ATOM     50  CB  ASP E   2     -21.224  20.303  -0.974  1.00 41.52 LIG 0.15  C 
BRANCH 50 51
ATOM     51  CG  ASP E   2     -22.147  19.201  -0.533  1.00 49.49 LIG 0.17  C 
ATOM     52 OD1  ASP E   2     -22.710  19.310   0.576  1.00 51.56 LIG-0.65  OA
ATOM     53 OD2  ASP E   2     -22.309  18.232  -1.301  1.00 52.06 LIG-0.65  OA
ENDBRANCH 50 51
ENDBRANCH 36 50
ENDBRANCH 34 36
ENDBRANCH 1 32
TORSDOF 20
ENDMDL
MODEL 37
USER: ADFR SOLUTION from run 70
USER: SCORE 17.231318 LL:  -4.955 LR: -13.118 RR:   0.000 FEB:  -7.152
USER: RMSD 5.788788
USER: SEED 69
USER: STATUS no improvement in best in 4 clusters for 5 generations
USER: GENES 22
USER: genes 0 Translation |==|  0.61221 0.50144 0.47550
USER: genes 1 Rotation |==|  0.59693 0.69184 0.37681 0.93431
USER: genes 2 Torsion [N]-CA--C-[N] |==|  0.83911
USER: genes 3 Torsion [C]-N--CA-[C] |==|  0.80255
USER: genes 4 Torsion [N]-CA--C-[N] |==|  0.29659
USER: genes 5 Torsion [N]-CA--C-[O] |==|  0.42258
USER: genes 6 Torsion [C]-N--CA-[CB] |==|  0.83511
USER: genes 7 Torsion [N]-CA--CB-[SG] |==|  0.87568
USER: genes 8 Torsion [CA]-CB--SG-[HG] |==|  0.37284
USER: genes 9 Torsion [N]-CA--C-[OXT] |==|  0.49982
USER: genes 10 Torsion [N]-CA--CB-[CG1] |==|  0.71078
USER: genes 11 Torsion [C]-CA--CB-[CG2] |==|  0.05234
USER: genes 12 Torsion [CA]-CB--CG1-[CD1] |==|  0.12331
USER: genes 13 Torsion [C]-CA--N-[C] |==|  0.70808
USER: genes 14 Torsion [N]-C--CA-[N] |==|  0.43189
USER: genes 15 Torsion [C]-CA--N-[C] |==|  0.76299
USER: genes 16 Torsion [N]-C--CA-[N] |==|  0.51038
USER: genes 17 Torsion [C]-CA--CB-[CG] |==|  0.68516
USER: genes 18 Torsion [CA]-CB--CG-[OD2] |==|  0.83784
USER: genes 19 Torsion [C]-CA--N-[H1] |==|  0.84792
USER: genes 20 Torsion [C]-CA--CB-[CG] |==|  0.74924
USER: genes 21 Torsion [CA]-CB--CG-[OD1] |==|  0.69689
ROOT
ATOM      1  CA  ILE E   3     -24.752  27.493   4.602  1.00 36.34 LIG 0.18  C 
ENDROOT
BRANCH 1 2
ATOM      2  C   ILE E   3     -24.646  26.337   3.616  1.00 39.45 LIG 0.24  C 
ATOM      3  N   VAL E   4     -23.578  26.329   2.818  1.00 32.94 LIG-0.35  N 
ATOM      4 H    VAL E   4     -22.929  26.890   2.880  1.00 32.94 LIG 0.16  HD
ATOM      5 O    ILE E   3     -25.524  25.482   3.572  1.00 42.21 LIG-0.27  OA
BRANCH 3 6
ATOM      6  CA  VAL E   4     -23.422  25.346   1.752  1.00 33.21 LIG 0.18  C 
BRANCH 6 7
ATOM      7  C   VAL E   4     -23.135  23.967   2.351  1.00 35.41 LIG 0.24  C 
ATOM      8 O    VAL E   4     -22.034  23.726   2.860  1.00 29.15 LIG-0.27  OA
ATOM      9  N   PRO E   5     -24.129  23.063   2.309  1.00 36.11 LIG-0.34  N 
ATOM     10  CA  PRO E   5     -23.909  21.699   2.805  1.00 34.10 LIG 0.18  C 
ATOM     11  CD  PRO E   5     -25.523  23.291   1.875  1.00 37.00 LIG 0.13  C 
ATOM     12  CB  PRO E   5     -25.280  21.020   2.613  1.00 38.74 LIG 0.04  C 
ATOM     13  CG  PRO E   5     -26.274  22.153   2.535  1.00 43.00 LIG 0.02  C 
BRANCH 10 14
ATOM     14  C   PRO E   5     -22.855  21.028   1.937  1.00 34.89 LIG 0.24  C 
ATOM     15  N   CYS E   6     -22.745  21.409   0.672  1.00 33.29 LIG-0.34  N 
ATOM     16 H    CYS E   6     -23.210  22.033   0.306  1.00 33.29 LIG 0.16  HD
ATOM     17 O    PRO E   5     -22.155  20.142   2.432  1.00 33.04 LIG-0.27  OA
BRANCH 15 18
ATOM     18  CA  CYS E   6     -21.776  20.755  -0.216  1.00 33.63 LIG 0.19  C 
BRANCH 18 19
ATOM     19  CB  CYS E   6     -20.348  20.906   0.325  1.00 31.18 LIG 0.11  C 
BRANCH 19 20
ATOM     20 SG   CYS E   6     -19.980  22.615   0.907  1.00 33.89 LIG-0.18  SA
ATOM     21 HG   CYS E   6     -19.430  22.566   1.973  1.00 33.89 LIG 0.10  HD
ENDBRANCH 19 20
ENDBRANCH 18 19
BRANCH 18 22
ATOM     22  C   CYS E   6     -22.129  19.290  -0.556  1.00 36.36 LIG 0.20  C 
ATOM     23 OXT  CYS E   6     -21.443  18.547  -1.295  1.00 31.64 LIG-0.65  OA
ATOM     24 O    CYS E   6     -23.179  18.832  -0.102  1.00 36.48 LIG-0.65  OA
ENDBRANCH 18 22
ENDBRANCH 15 18
ENDBRANCH 10 14
ENDBRANCH 6 7
BRANCH 6 25
ATOM     25  CB  VAL E   4     -22.243  25.730   0.822  1.00 33.86 LIG 0.01  C 
ATOM     26  CG2 VAL E   4     -21.297  26.708   1.526  1.00 37.12 LIG 0.01  C 
ATOM     27  CG1 VAL E   4     -22.764  26.306  -0.491  1.00 36.74 LIG 0.01  C 
ENDBRANCH 6 25
ENDBRANCH 3 6
ENDBRANCH 1 2
BRANCH 1 28
ATOM     28  CB  ILE E   3     -24.917  28.811   3.860  1.00 41.05 LIG 0.01  C 
ATOM     29  CG2 ILE E   3     -25.387  28.558   2.434  1.00 37.15 LIG 0.01  C 
BRANCH 28 30
ATOM     30  CG1 ILE E   3     -25.893  29.713   4.620  1.00 42.94 LIG 0.00  C 
ATOM     31  CD1 ILE E   3     -25.644  29.738   6.113  1.00 40.89 LIG 0.01  C 
ENDBRANCH 28 30
ENDBRANCH 1 28
BRANCH 1 32
ATOM     32  N   ILE E   3     -23.567  27.490   5.439  1.00 40.60 LIG-0.35  N 
ATOM     33 H    ILE E   3     -22.852  27.778   5.058  1.00 40.60 LIG 0.16  HD
ATOM     34  C   ASP E   2     -23.638  27.064   6.694  1.00 44.87 LIG 0.24  C 
ATOM     35 O    ASP E   2     -24.704  26.757   7.240  1.00 39.41 LIG-0.27  OA
BRANCH 34 36
ATOM     36  CA  ASP E   2     -22.321  26.954   7.445  1.00 43.58 LIG 0.19  C 
BRANCH 36 37
ATOM     37  N   ASP E   2     -22.520  27.048   8.882  1.00 45.35 LIG-0.34  N 
ATOM     38  C   ASP E   1     -22.580  28.221   9.498  1.00 51.19 LIG 0.25  C 
ATOM     39 O    ASP E   1     -22.479  29.291   8.905  1.00 56.05 LIG-0.27  OA
ATOM     40 H    ASP E   2     -22.594  26.290   9.282  1.00 45.35 LIG 0.16  HD
BRANCH 38 41
ATOM     41  CA  ASP E   1     -22.795  28.182  11.001  1.00 54.43 LIG 0.28  C 
BRANCH 41 42
ATOM     42  CB  ASP E   1     -24.036  27.347  11.322  1.00 57.23 LIG 0.15  C 
BRANCH 42 43
ATOM     43  CG  ASP E   1     -25.162  28.181  11.909  1.00 60.86 LIG 0.17  C 
ATOM     44 OD2  ASP E   1     -24.945  28.819  12.961  1.00 61.39 LIG-0.65  OA
ATOM     45 OD1  ASP E   1     -26.260  28.207  11.304  1.00 65.62 LIG-0.65  OA
ENDBRANCH 42 43
ENDBRANCH 41 42
BRANCH 41 46
ATOM     46  N   ASP E   1     -22.930  29.527  11.544  1.00 57.81 LIG-0.07  N 
ATOM     47 H1   ASP E   1     -22.224  30.015  11.308  1.00 57.81 LIG 0.28  HD
ATOM     48 H3   ASP E   1     -22.979  29.486  12.431  1.00 57.81 LIG 0.28  HD
ATOM     49 H2   ASP E   1     -23.671  29.903  11.224  1.00 57.81 LIG 0.28  HD
ENDBRANCH 41 46
ENDBRANCH 38 41
ENDBRANCH 36 37
BRANCH 36 50
ATOM     50  CB  ASP E   2     -21.686  25.618   7.098  1.00 41.52 LIG 0.15  C 
BRANCH 50 51
ATOM     51  CG  ASP E   2     -22.100  24.523   8.041  1.00 49.49 LIG 0.17  C 
ATOM     52 OD1  ASP E   2     -21.252  24.082   8.845  1.00 51.56 LIG-0.65  OA
ATOM     53 OD2  ASP E   2     -23.275  24.111   7.978  1.00 52.06 LIG-0.65  OA
ENDBRANCH 50 51
ENDBRANCH 36 50
ENDBRANCH 34 36
ENDBRANCH 1 32
TORSDOF 20
ENDMDL
MODEL 38
USER: ADFR SOLUTION from run 69
USER: SCORE 17.468834 LL:  -5.083 LR: -13.108 RR:   0.000 FEB:  -7.142
USER: RMSD 4.912782
USER: SEED 68
USER: STATUS no improvement in best in 3 clusters for 5 generations
USER: GENES 22
USER: genes 0 Translation |==|  0.63737 0.47582 0.47473
USER: genes 1 Rotation |==|  0.31378 0.84425 0.79343 0.60351
USER: genes 2 Torsion [N]-CA--C-[N] |==|  0.27778
USER: genes 3 Torsion [C]-N--CA-[C] |==|  0.78894
USER: genes 4 Torsion [N]-CA--C-[N] |==|  0.85221
USER: genes 5 Torsion [N]-CA--C-[O] |==|  0.73829
USER: genes 6 Torsion [C]-N--CA-[CB] |==|  0.81086
USER: genes 7 Torsion [N]-CA--CB-[SG] |==|  0.93257
USER: genes 8 Torsion [CA]-CB--SG-[HG] |==|  0.95544
USER: genes 9 Torsion [N]-CA--C-[OXT] |==|  0.59901
USER: genes 10 Torsion [N]-CA--CB-[CG1] |==|  0.43714
USER: genes 11 Torsion [C]-CA--CB-[CG2] |==|  0.14448
USER: genes 12 Torsion [CA]-CB--CG1-[CD1] |==|  0.73619
USER: genes 13 Torsion [C]-CA--N-[C] |==|  0.66138
USER: genes 14 Torsion [N]-C--CA-[N] |==|  0.37902
USER: genes 15 Torsion [C]-CA--N-[C] |==|  0.76099
USER: genes 16 Torsion [N]-C--CA-[N] |==|  0.35765
USER: genes 17 Torsion [C]-CA--CB-[CG] |==|  0.71429
USER: genes 18 Torsion [CA]-CB--CG-[OD2] |==|  0.82161
USER: genes 19 Torsion [C]-CA--N-[H1] |==|  0.60428
USER: genes 20 Torsion [C]-CA--CB-[CG] |==|  0.10339
USER: genes 21 Torsion [CA]-CB--CG-[OD1] |==|  0.69885
ROOT
ATOM      1  CA  ILE E   3     -24.242  26.858   4.587  1.00 36.34 LIG 0.18  C 
ENDROOT
BRANCH 1 2
ATOM      2  C   ILE E   3     -24.207  26.562   3.094  1.00 39.45 LIG 0.24  C 
ATOM      3  N   VAL E   4     -23.126  26.970   2.429  1.00 32.94 LIG-0.35  N 
ATOM      4 H    VAL E   4     -22.436  27.320   2.805  1.00 32.94 LIG 0.16  HD
ATOM      5 O    ILE E   3     -25.149  25.989   2.557  1.00 42.21 LIG-0.27  OA
BRANCH 3 6
ATOM      6  CA  VAL E   4     -23.025  26.853   0.979  1.00 33.21 LIG 0.18  C 
BRANCH 6 7
ATOM      7  C   VAL E   4     -22.740  25.400   0.590  1.00 35.41 LIG 0.24  C 
ATOM      8 O    VAL E   4     -23.452  24.829  -0.244  1.00 29.15 LIG-0.27  OA
ATOM      9  N   PRO E   5     -21.690  24.804   1.179  1.00 36.11 LIG-0.34  N 
ATOM     10  CA  PRO E   5     -21.392  23.392   0.906  1.00 34.10 LIG 0.18  C 
ATOM     11  CD  PRO E   5     -20.685  25.435   2.059  1.00 37.00 LIG 0.13  C 
ATOM     12  CB  PRO E   5     -20.117  23.126   1.731  1.00 38.74 LIG 0.04  C 
ATOM     13  CG  PRO E   5     -19.508  24.487   1.966  1.00 43.00 LIG 0.02  C 
BRANCH 10 14
ATOM     14  C   PRO E   5     -22.546  22.543   1.417  1.00 34.89 LIG 0.24  C 
ATOM     15  N   CYS E   6     -23.599  22.369   0.629  1.00 33.29 LIG-0.34  N 
ATOM     16 H    CYS E   6     -23.669  22.681  -0.170  1.00 33.29 LIG 0.16  HD
ATOM     17 O    PRO E   5     -22.474  22.063   2.550  1.00 33.04 LIG-0.27  OA
BRANCH 15 18
ATOM     18  CA  CYS E   6     -24.757  21.599   1.099  1.00 33.63 LIG 0.19  C 
BRANCH 18 19
ATOM     19  CB  CYS E   6     -24.399  20.116   1.260  1.00 31.18 LIG 0.11  C 
BRANCH 19 20
ATOM     20 SG   CYS E   6     -22.977  19.603   0.205  1.00 33.89 LIG-0.18  SA
ATOM     21 HG   CYS E   6     -22.787  20.432  -0.642  1.00 33.89 LIG 0.10  HD
ENDBRANCH 19 20
ENDBRANCH 18 19
BRANCH 18 22
ATOM     22  C   CYS E   6     -25.428  22.188   2.360  1.00 36.36 LIG 0.20  C 
ATOM     23 OXT  CYS E   6     -25.936  21.504   3.278  1.00 31.64 LIG-0.65  OA
ATOM     24 O    CYS E   6     -25.504  23.413   2.451  1.00 36.48 LIG-0.65  OA
ENDBRANCH 18 22
ENDBRANCH 15 18
ENDBRANCH 10 14
ENDBRANCH 6 7
BRANCH 6 25
ATOM     25  CB  VAL E   4     -21.875  27.739   0.437  1.00 33.86 LIG 0.01  C 
ATOM     26  CG2 VAL E   4     -22.314  29.206   0.361  1.00 37.12 LIG 0.01  C 
ATOM     27  CG1 VAL E   4     -21.398  27.229  -0.918  1.00 36.74 LIG 0.01  C 
ENDBRANCH 6 25
ENDBRANCH 3 6
ENDBRANCH 1 2
BRANCH 1 28
ATOM     28  CB  ILE E   3     -24.761  25.652   5.356  1.00 41.05 LIG 0.01  C 
ATOM     29  CG2 ILE E   3     -23.979  24.404   4.970  1.00 37.15 LIG 0.01  C 
BRANCH 28 30
ATOM     30  CG1 ILE E   3     -24.677  25.922   6.861  1.00 42.94 LIG 0.00  C 
ATOM     31  CD1 ILE E   3     -23.411  25.383   7.493  1.00 40.89 LIG 0.01  C 
ENDBRANCH 28 30
ENDBRANCH 1 28
BRANCH 1 32
ATOM     32  N   ILE E   3     -25.069  28.030   4.802  1.00 40.60 LIG-0.35  N 
ATOM     33 H    ILE E   3     -25.877  27.964   4.515  1.00 40.60 LIG 0.16  HD
ATOM     34  C   ASP E   2     -24.565  29.101   5.403  1.00 44.87 LIG 0.24  C 
ATOM     35 O    ASP E   2     -23.432  29.123   5.897  1.00 39.41 LIG-0.27  OA
BRANCH 34 36
ATOM     36  CA  ASP E   2     -25.455  30.333   5.448  1.00 43.58 LIG 0.19  C 
BRANCH 36 37
ATOM     37  N   ASP E   2     -25.422  30.964   6.757  1.00 45.35 LIG-0.34  N 
ATOM     38  C   ASP E   1     -26.225  30.571   7.736  1.00 51.19 LIG 0.25  C 
ATOM     39 O    ASP E   1     -27.034  29.657   7.609  1.00 56.05 LIG-0.27  OA
ATOM     40 H    ASP E   2     -24.847  31.599   6.832  1.00 45.35 LIG 0.16  HD
BRANCH 38 41
ATOM     41  CA  ASP E   1     -26.089  31.310   9.057  1.00 54.43 LIG 0.28  C 
BRANCH 41 42
ATOM     42  CB  ASP E   1     -25.439  30.394  10.095  1.00 57.23 LIG 0.15  C 
BRANCH 42 43
ATOM     43  CG  ASP E   1     -26.446  29.826  11.080  1.00 60.86 LIG 0.17  C 
ATOM     44 OD2  ASP E   1     -27.047  30.614  11.839  1.00 61.39 LIG-0.65  OA
ATOM     45 OD1  ASP E   1     -26.644  28.587  11.080  1.00 65.62 LIG-0.65  OA
ENDBRANCH 42 43
ENDBRANCH 41 42
BRANCH 41 46
ATOM     46  N   ASP E   1     -27.385  31.778   9.528  1.00 57.81 LIG-0.07  N 
ATOM     47 H1   ASP E   1     -27.292  32.578   9.908  1.00 57.81 LIG 0.28  HD
ATOM     48 H3   ASP E   1     -27.710  31.203  10.124  1.00 57.81 LIG 0.28  HD
ATOM     49 H2   ASP E   1     -27.946  31.840   8.841  1.00 57.81 LIG 0.28  HD
ENDBRANCH 41 46
ENDBRANCH 38 41
ENDBRANCH 36 37
BRANCH 36 50
ATOM     50  CB  ASP E   2     -24.969  31.309   4.391  1.00 41.52 LIG 0.15  C 
BRANCH 50 51
ATOM     51  CG  ASP E   2     -24.502  30.618   3.140  1.00 49.49 LIG 0.17  C 
ATOM     52 OD1  ASP E   2     -23.277  30.598   2.899  1.00 51.56 LIG-0.65  OA
ATOM     53 OD2  ASP E   2     -25.362  30.093   2.407  1.00 52.06 LIG-0.65  OA
ENDBRANCH 50 51
ENDBRANCH 36 50
ENDBRANCH 34 36
ENDBRANCH 1 32
TORSDOF 20
ENDMDL
MODEL 39
USER: ADFR SOLUTION from run 76
USER: SCORE 17.217118 LL:  -4.990 LR: -13.044 RR:   0.000 FEB:  -7.078
USER: RMSD 6.022091
USER: SEED 75
USER: STATUS no improvement in best in 6 clusters for 5 generations
USER: GENES 22
USER: genes 0 Translation |==|  0.62351 0.50240 0.40108
USER: genes 1 Rotation |==|  0.52543 0.41995 0.42753 0.98754
USER: genes 2 Torsion [N]-CA--C-[N] |==|  0.38292
USER: genes 3 Torsion [C]-N--CA-[C] |==|  0.75127
USER: genes 4 Torsion [N]-CA--C-[N] |==|  0.31034
USER: genes 5 Torsion [N]-CA--C-[O] |==|  0.76689
USER: genes 6 Torsion [C]-N--CA-[CB] |==|  0.84823
USER: genes 7 Torsion [N]-CA--CB-[SG] |==|  0.24399
USER: genes 8 Torsion [CA]-CB--SG-[HG] |==|  0.20888
USER: genes 9 Torsion [N]-CA--C-[OXT] |==|  0.44039
USER: genes 10 Torsion [N]-CA--CB-[CG1] |==|  0.78538
USER: genes 11 Torsion [C]-CA--CB-[CG2] |==|  0.09032
USER: genes 12 Torsion [CA]-CB--CG1-[CD1] |==|  0.01611
USER: genes 13 Torsion [C]-CA--N-[C] |==|  0.83344
USER: genes 14 Torsion [N]-C--CA-[N] |==|  0.77235
USER: genes 15 Torsion [C]-CA--N-[C] |==|  0.73243
USER: genes 16 Torsion [N]-C--CA-[N] |==|  0.46818
USER: genes 17 Torsion [C]-CA--CB-[CG] |==|  0.72399
USER: genes 18 Torsion [CA]-CB--CG-[OD2] |==|  0.11100
USER: genes 19 Torsion [C]-CA--N-[H1] |==|  0.82850
USER: genes 20 Torsion [C]-CA--CB-[CG] |==|  0.19745
USER: genes 21 Torsion [CA]-CB--CG-[OD1] |==|  0.73006
ROOT
ATOM      1  CA  ILE E   3     -24.523  27.516   3.151  1.00 36.34 LIG 0.18  C 
ENDROOT
BRANCH 1 2
ATOM      2  C   ILE E   3     -23.778  26.209   3.385  1.00 39.45 LIG 0.24  C 
ATOM      3  N   VAL E   4     -24.242  25.134   2.746  1.00 32.94 LIG-0.35  N 
ATOM      4 H    VAL E   4     -24.880  25.158   2.170  1.00 32.94 LIG 0.16  HD
ATOM      5 O    ILE E   3     -22.813  26.176   4.141  1.00 42.21 LIG-0.27  OA
BRANCH 3 6
ATOM      6  CA  VAL E   4     -23.691  23.804   2.978  1.00 33.21 LIG 0.18  C 
BRANCH 6 7
ATOM      7  C   VAL E   4     -22.529  23.544   2.017  1.00 35.41 LIG 0.24  C 
ATOM      8 O    VAL E   4     -22.738  23.435   0.803  1.00 29.15 LIG-0.27  OA
ATOM      9  N   PRO E   5     -21.299  23.461   2.552  1.00 36.11 LIG-0.34  N 
ATOM     10  CA  PRO E   5     -20.142  23.149   1.703  1.00 34.10 LIG 0.18  C 
ATOM     11  CD  PRO E   5     -20.917  23.733   3.953  1.00 37.00 LIG 0.13  C 
ATOM     12  CB  PRO E   5     -18.954  23.189   2.684  1.00 38.74 LIG 0.04  C 
ATOM     13  CG  PRO E   5     -19.433  24.017   3.851  1.00 43.00 LIG 0.02  C 
BRANCH 10 14
ATOM     14  C   PRO E   5     -20.318  21.749   1.134  1.00 34.89 LIG 0.24  C 
ATOM     15  N   CYS E   6     -20.858  21.622  -0.071  1.00 33.29 LIG-0.34  N 
ATOM     16 H    CYS E   6     -21.095  22.279  -0.574  1.00 33.29 LIG 0.16  HD
ATOM     17 O    PRO E   5     -19.974  20.783   1.817  1.00 33.04 LIG-0.27  OA
BRANCH 15 18
ATOM     18  CA  CYS E   6     -21.093  20.289  -0.640  1.00 33.63 LIG 0.19  C 
BRANCH 18 19
ATOM     19  CB  CYS E   6     -19.802  19.461  -0.647  1.00 31.18 LIG 0.11  C 
BRANCH 19 20
ATOM     20 SG   CYS E   6     -19.540  18.530   0.922  1.00 33.89 LIG-0.18  SA
ATOM     21 HG   CYS E   6     -20.278  17.583   0.955  1.00 33.89 LIG 0.10  HD
ENDBRANCH 19 20
ENDBRANCH 18 19
BRANCH 18 22
ATOM     22  C   CYS E   6     -22.278  19.535   0.005  1.00 36.36 LIG 0.20  C 
ATOM     23 OXT  CYS E   6     -22.899  18.593  -0.538  1.00 31.64 LIG-0.65  OA
ATOM     24 O    CYS E   6     -22.665  19.912   1.111  1.00 36.48 LIG-0.65  OA
ENDBRANCH 18 22
ENDBRANCH 15 18
ENDBRANCH 10 14
ENDBRANCH 6 7
BRANCH 6 25
ATOM     25  CB  VAL E   4     -24.771  22.717   2.747  1.00 33.86 LIG 0.01  C 
ATOM     26  CG2 VAL E   4     -25.527  22.977   1.439  1.00 37.12 LIG 0.01  C 
ATOM     27  CG1 VAL E   4     -25.723  22.646   3.936  1.00 36.74 LIG 0.01  C 
ENDBRANCH 6 25
ENDBRANCH 3 6
ENDBRANCH 1 2
BRANCH 1 28
ATOM     28  CB  ILE E   3     -23.794  28.366   2.121  1.00 41.05 LIG 0.01  C 
ATOM     29  CG2 ILE E   3     -23.102  27.476   1.097  1.00 37.15 LIG 0.01  C 
BRANCH 28 30
ATOM     30  CG1 ILE E   3     -24.779  29.328   1.452  1.00 42.94 LIG 0.00  C 
ATOM     31  CD1 ILE E   3     -26.161  29.290   2.069  1.00 40.89 LIG 0.01  C 
ENDBRANCH 28 30
ENDBRANCH 1 28
BRANCH 1 32
ATOM     32  N   ILE E   3     -24.653  28.203   4.422  1.00 40.60 LIG-0.35  N 
ATOM     33 H    ILE E   3     -24.288  28.982   4.454  1.00 40.60 LIG 0.16  HD
ATOM     34  C   ASP E   2     -25.297  27.627   5.429  1.00 44.87 LIG 0.24  C 
ATOM     35 O    ASP E   2     -25.899  26.553   5.314  1.00 39.41 LIG-0.27  OA
BRANCH 34 36
ATOM     36  CA  ASP E   2     -25.250  28.352   6.764  1.00 43.58 LIG 0.19  C 
BRANCH 36 37
ATOM     37  N   ASP E   2     -24.016  28.070   7.479  1.00 45.35 LIG-0.34  N 
ATOM     38  C   ASP E   1     -23.954  27.127   8.409  1.00 51.19 LIG 0.25  C 
ATOM     39 O    ASP E   1     -24.918  26.434   8.721  1.00 56.05 LIG-0.27  OA
ATOM     40 H    ASP E   2     -23.349  28.560   7.245  1.00 45.35 LIG 0.16  HD
BRANCH 38 41
ATOM     41  CA  ASP E   1     -22.605  26.929   9.079  1.00 54.43 LIG 0.28  C 
BRANCH 41 42
ATOM     42  CB  ASP E   1     -21.615  26.334   8.077  1.00 57.23 LIG 0.15  C 
BRANCH 42 43
ATOM     43  CG  ASP E   1     -21.455  24.832   8.241  1.00 60.86 LIG 0.17  C 
ATOM     44 OD2  ASP E   1     -22.470  24.147   8.482  1.00 61.39 LIG-0.65  OA
ATOM     45 OD1  ASP E   1     -20.309  24.339   8.110  1.00 65.62 LIG-0.65  OA
ENDBRANCH 42 43
ENDBRANCH 41 42
BRANCH 41 46
ATOM     46  N   ASP E   1     -22.725  26.071  10.250  1.00 57.81 LIG-0.07  N 
ATOM     47 H1   ASP E   1     -23.263  26.455  10.846  1.00 57.81 LIG 0.28  HD
ATOM     48 H3   ASP E   1     -21.922  25.948  10.612  1.00 57.81 LIG 0.28  HD
ATOM     49 H2   ASP E   1     -23.064  25.285  10.008  1.00 57.81 LIG 0.28  HD
ENDBRANCH 41 46
ENDBRANCH 38 41
ENDBRANCH 36 37
BRANCH 36 50
ATOM     50  CB  ASP E   2     -25.364  29.844   6.500  1.00 41.52 LIG 0.15  C 
BRANCH 50 51
ATOM     51  CG  ASP E   2     -26.741  30.244   6.048  1.00 49.49 LIG 0.17  C 
ATOM     52 OD1  ASP E   2     -26.948  30.371   4.823  1.00 51.56 LIG-0.65  OA
ATOM     53 OD2  ASP E   2     -27.612  30.425   6.920  1.00 52.06 LIG-0.65  OA
ENDBRANCH 50 51
ENDBRANCH 36 50
ENDBRANCH 34 36
ENDBRANCH 1 32
TORSDOF 20
ENDMDL
MODEL 40
USER: ADFR SOLUTION from run 175
USER: SCORE 17.581745 LL:  -4.909 LR: -13.045 RR:   0.000 FEB:  -7.079
USER: RMSD 10.939576
USER: SEED 174
USER: STATUS no improvement in best in 6 clusters for 5 generations
USER: GENES 22
USER: genes 0 Translation |==|  0.63696 0.33705 0.33670
USER: genes 1 Rotation |==|  0.83001 0.54974 0.87057 0.53600
USER: genes 2 Torsion [N]-CA--C-[N] |==|  0.95715
USER: genes 3 Torsion [C]-N--CA-[C] |==|  0.61292
USER: genes 4 Torsion [N]-CA--C-[N] |==|  0.41920
USER: genes 5 Torsion [N]-CA--C-[O] |==|  0.45464
USER: genes 6 Torsion [C]-N--CA-[CB] |==|  0.35233
USER: genes 7 Torsion [N]-CA--CB-[SG] |==|  0.01541
USER: genes 8 Torsion [CA]-CB--SG-[HG] |==|  0.87954
USER: genes 9 Torsion [N]-CA--C-[OXT] |==|  0.71804
USER: genes 10 Torsion [N]-CA--CB-[CG1] |==|  0.21597
USER: genes 11 Torsion [C]-CA--CB-[CG2] |==|  0.54213
USER: genes 12 Torsion [CA]-CB--CG1-[CD1] |==|  0.76235
USER: genes 13 Torsion [C]-CA--N-[C] |==|  0.82778
USER: genes 14 Torsion [N]-C--CA-[N] |==|  0.24356
USER: genes 15 Torsion [C]-CA--N-[C] |==|  0.75862
USER: genes 16 Torsion [N]-C--CA-[N] |==|  0.39919
USER: genes 17 Torsion [C]-CA--CB-[CG] |==|  0.82252
USER: genes 18 Torsion [CA]-CB--CG-[OD2] |==|  0.17258
USER: genes 19 Torsion [C]-CA--N-[H1] |==|  0.23047
USER: genes 20 Torsion [C]-CA--CB-[CG] |==|  0.40269
USER: genes 21 Torsion [CA]-CB--CG-[OD1] |==|  0.36022
ROOT
ATOM      1  CA  ILE E   3     -24.251  23.424   1.896  1.00 36.34 LIG 0.18  C 
ENDROOT
BRANCH 1 2
ATOM      2  C   ILE E   3     -24.364  24.679   2.750  1.00 39.45 LIG 0.24  C 
ATOM      3  N   VAL E   4     -23.591  24.736   3.835  1.00 32.94 LIG-0.35  N 
ATOM      4 H    VAL E   4     -22.996  24.146   4.031  1.00 32.94 LIG 0.16  HD
ATOM      5 O    ILE E   3     -25.149  25.569   2.438  1.00 42.21 LIG-0.27  OA
BRANCH 3 6
ATOM      6  CA  VAL E   4     -23.693  25.827   4.796  1.00 33.21 LIG 0.18  C 
BRANCH 6 7
ATOM      7  C   VAL E   4     -22.296  26.251   5.257  1.00 35.41 LIG 0.24  C 
ATOM      8 O    VAL E   4     -21.369  25.433   5.264  1.00 29.15 LIG-0.27  OA
ATOM      9  N   PRO E   5     -22.136  27.533   5.625  1.00 36.11 LIG-0.34  N 
ATOM     10  CA  PRO E   5     -20.842  27.999   6.140  1.00 34.10 LIG 0.18  C 
ATOM     11  CD  PRO E   5     -23.124  28.625   5.504  1.00 37.00 LIG 0.13  C 
ATOM     12  CB  PRO E   5     -21.077  29.501   6.400  1.00 38.74 LIG 0.04  C 
ATOM     13  CG  PRO E   5     -22.262  29.870   5.541  1.00 43.00 LIG 0.02  C 
BRANCH 10 14
ATOM     14  C   PRO E   5     -20.545  27.272   7.443  1.00 34.89 LIG 0.24  C 
ATOM     15  N   CYS E   6     -21.546  26.670   8.072  1.00 33.29 LIG-0.34  N 
ATOM     16 H    CYS E   6     -22.355  26.635   7.782  1.00 33.29 LIG 0.16  HD
ATOM     17 O    PRO E   5     -19.393  27.283   7.879  1.00 33.04 LIG-0.27  OA
BRANCH 15 18
ATOM     18  CA  CYS E   6     -21.316  25.999   9.357  1.00 33.63 LIG 0.19  C 
BRANCH 18 19
ATOM     19  CB  CYS E   6     -22.298  26.502  10.422  1.00 31.18 LIG 0.11  C 
BRANCH 19 20
ATOM     20 SG   CYS E   6     -23.561  27.659   9.742  1.00 33.89 LIG-0.18  SA
ATOM     21 HG   CYS E   6     -23.032  28.437   8.995  1.00 33.89 LIG 0.10  HD
ENDBRANCH 19 20
ENDBRANCH 18 19
BRANCH 18 22
ATOM     22  C   CYS E   6     -21.285  24.457   9.259  1.00 36.36 LIG 0.20  C 
ATOM     23 OXT  CYS E   6     -22.236  23.707   9.580  1.00 31.64 LIG-0.65  OA
ATOM     24 O    CYS E   6     -20.242  23.926   8.877  1.00 36.48 LIG-0.65  OA
ENDBRANCH 18 22
ENDBRANCH 15 18
ENDBRANCH 10 14
ENDBRANCH 6 7
BRANCH 6 25
ATOM     25  CB  VAL E   4     -24.506  25.387   6.040  1.00 33.86 LIG 0.01  C 
ATOM     26  CG2 VAL E   4     -25.071  26.608   6.775  1.00 37.12 LIG 0.01  C 
ATOM     27  CG1 VAL E   4     -23.649  24.528   6.963  1.00 36.74 LIG 0.01  C 
ENDBRANCH 6 25
ENDBRANCH 3 6
ENDBRANCH 1 2
BRANCH 1 28
ATOM     28  CB  ILE E   3     -25.487  22.554   2.063  1.00 41.05 LIG 0.01  C 
ATOM     29  CG2 ILE E   3     -25.225  21.154   1.524  1.00 37.15 LIG 0.01  C 
BRANCH 28 30
ATOM     30  CG1 ILE E   3     -25.898  22.517   3.538  1.00 42.94 LIG 0.00  C 
ATOM     31  CD1 ILE E   3     -25.168  21.457   4.334  1.00 40.89 LIG 0.01  C 
ENDBRANCH 28 30
ENDBRANCH 1 28
BRANCH 1 32
ATOM     32  N   ILE E   3     -23.041  22.719   2.275  1.00 40.60 LIG-0.35  N 
ATOM     33 H    ILE E   3     -23.164  21.931   2.595  1.00 40.60 LIG 0.16  HD
ATOM     34  C   ASP E   2     -21.857  23.297   2.120  1.00 44.87 LIG 0.24  C 
ATOM     35 O    ASP E   2     -21.710  24.389   1.560  1.00 39.41 LIG-0.27  OA
BRANCH 34 36
ATOM     36  CA  ASP E   2     -20.660  22.548   2.685  1.00 43.58 LIG 0.19  C 
BRANCH 36 37
ATOM     37  N   ASP E   2     -20.119  21.606   1.718  1.00 45.35 LIG-0.34  N 
ATOM     38  C   ASP E   1     -20.593  20.372   1.612  1.00 51.19 LIG 0.25  C 
ATOM     39 O    ASP E   1     -21.511  19.949   2.308  1.00 56.05 LIG-0.27  OA
ATOM     40 H    ASP E   2     -19.480  21.919   1.235  1.00 45.35 LIG 0.16  HD
BRANCH 38 41
ATOM     41  CA  ASP E   1     -19.943  19.489   0.561  1.00 54.43 LIG 0.28  C 
BRANCH 41 42
ATOM     42  CB  ASP E   1     -20.740  19.568  -0.741  1.00 57.23 LIG 0.15  C 
BRANCH 42 43
ATOM     43  CG  ASP E   1     -22.149  19.020  -0.595  1.00 60.86 LIG 0.17  C 
ATOM     44 OD2  ASP E   1     -22.927  19.582   0.204  1.00 61.39 LIG-0.65  OA
ATOM     45 OD1  ASP E   1     -22.479  18.033  -1.295  1.00 65.62 LIG-0.65  OA
ENDBRANCH 42 43
ENDBRANCH 41 42
BRANCH 41 46
ATOM     46  N   ASP E   1     -19.852  18.110   1.022  1.00 57.81 LIG-0.07  N 
ATOM     47 H1   ASP E   1     -20.626  17.696   0.876  1.00 57.81 LIG 0.28  HD
ATOM     48 H3   ASP E   1     -19.671  18.100   1.893  1.00 57.81 LIG 0.28  HD
ATOM     49 H2   ASP E   1     -19.204  17.692   0.580  1.00 57.81 LIG 0.28  HD
ENDBRANCH 41 46
ENDBRANCH 38 41
ENDBRANCH 36 37
BRANCH 36 50
ATOM     50  CB  ASP E   2     -19.599  23.565   3.066  1.00 41.52 LIG 0.15  C 
BRANCH 50 51
ATOM     51  CG  ASP E   2     -18.829  23.160   4.293  1.00 49.49 LIG 0.17  C 
ATOM     52 OD1  ASP E   2     -17.582  23.183   4.242  1.00 51.56 LIG-0.65  OA
ATOM     53 OD2  ASP E   2     -19.476  22.827   5.304  1.00 52.06 LIG-0.65  OA
ENDBRANCH 50 51
ENDBRANCH 36 50
ENDBRANCH 34 36
ENDBRANCH 1 32
TORSDOF 20
ENDMDL
MODEL 41
USER: ADFR SOLUTION from run 119
USER: SCORE 17.271315 LL:  -5.039 LR: -13.005 RR:   0.000 FEB:  -7.039
USER: RMSD 5.348438
USER: SEED 118
USER: STATUS no improvement in best in 6 clusters for 5 generations
USER: GENES 22
USER: genes 0 Translation |==|  0.57314 0.57495 0.50031
USER: genes 1 Rotation |==|  0.67097 0.53285 0.47473 0.96803
USER: genes 2 Torsion [N]-CA--C-[N] |==|  0.14120
USER: genes 3 Torsion [C]-N--CA-[C] |==|  0.76371
USER: genes 4 Torsion [N]-CA--C-[N] |==|  0.36133
USER: genes 5 Torsion [N]-CA--C-[O] |==|  0.26697
USER: genes 6 Torsion [C]-N--CA-[CB] |==|  0.42076
USER: genes 7 Torsion [N]-CA--CB-[SG] |==|  0.15912
USER: genes 8 Torsion [CA]-CB--SG-[HG] |==|  0.47173
USER: genes 9 Torsion [N]-CA--C-[OXT] |==|  0.60659
USER: genes 10 Torsion [N]-CA--CB-[CG1] |==|  0.20637
USER: genes 11 Torsion [C]-CA--CB-[CG2] |==|  0.32884
USER: genes 12 Torsion [CA]-CB--CG1-[CD1] |==|  0.63129
USER: genes 13 Torsion [C]-CA--N-[C] |==|  0.57507
USER: genes 14 Torsion [N]-C--CA-[N] |==|  0.01280
USER: genes 15 Torsion [C]-CA--N-[C] |==|  0.77607
USER: genes 16 Torsion [N]-C--CA-[N] |==|  0.25813
USER: genes 17 Torsion [C]-CA--CB-[CG] |==|  0.69298
USER: genes 18 Torsion [CA]-CB--CG-[OD2] |==|  0.67566
USER: genes 19 Torsion [C]-CA--N-[H1] |==|  0.83283
USER: genes 20 Torsion [C]-CA--CB-[CG] |==|  0.41482
USER: genes 21 Torsion [CA]-CB--CG-[OD1] |==|  0.51252
ROOT
ATOM      1  CA  ILE E   3     -25.543  29.312   5.086  1.00 36.34 LIG 0.18  C 
ENDROOT
BRANCH 1 2
ATOM      2  C   ILE E   3     -24.560  28.455   4.300  1.00 39.45 LIG 0.24  C 
ATOM      3  N   VAL E   4     -24.456  27.177   4.666  1.00 32.94 LIG-0.35  N 
ATOM      4 H    VAL E   4     -24.955  26.807   5.261  1.00 32.94 LIG 0.16  HD
ATOM      5 O    ILE E   3     -23.900  28.949   3.392  1.00 42.21 LIG-0.27  OA
BRANCH 3 6
ATOM      6  CA  VAL E   4     -23.467  26.285   4.073  1.00 33.21 LIG 0.18  C 
BRANCH 6 7
ATOM      7  C   VAL E   4     -24.012  25.690   2.772  1.00 35.41 LIG 0.24  C 
ATOM      8 O    VAL E   4     -25.141  25.186   2.744  1.00 29.15 LIG-0.27  OA
ATOM      9  N   PRO E   5     -23.222  25.763   1.688  1.00 36.11 LIG-0.34  N 
ATOM     10  CA  PRO E   5     -23.648  25.157   0.420  1.00 34.10 LIG 0.18  C 
ATOM     11  CD  PRO E   5     -21.935  26.479   1.569  1.00 37.00 LIG 0.13  C 
ATOM     12  CB  PRO E   5     -22.496  25.496  -0.547  1.00 38.74 LIG 0.04  C 
ATOM     13  CG  PRO E   5     -21.794  26.678   0.074  1.00 43.00 LIG 0.02  C 
BRANCH 10 14
ATOM     14  C   PRO E   5     -23.760  23.652   0.611  1.00 34.89 LIG 0.24  C 
ATOM     15  N   CYS E   6     -22.665  22.916   0.472  1.00 33.29 LIG-0.34  N 
ATOM     16 H    CYS E   6     -21.882  23.230   0.308  1.00 33.29 LIG 0.16  HD
ATOM     17 O    PRO E   5     -24.863  23.167   0.867  1.00 33.04 LIG-0.27  OA
BRANCH 15 18
ATOM     18  CA  CYS E   6     -22.735  21.454   0.599  1.00 33.63 LIG 0.19  C 
BRANCH 18 19
ATOM     19  CB  CYS E   6     -21.644  20.779  -0.241  1.00 31.18 LIG 0.11  C 
BRANCH 19 20
ATOM     20 SG   CYS E   6     -19.946  21.341   0.205  1.00 33.89 LIG-0.18  SA
ATOM     21 HG   CYS E   6     -19.136  20.641  -0.338  1.00 33.89 LIG 0.10  HD
ENDBRANCH 19 20
ENDBRANCH 18 19
BRANCH 18 22
ATOM     22  C   CYS E   6     -22.753  20.954   2.060  1.00 36.36 LIG 0.20  C 
ATOM     23 OXT  CYS E   6     -22.160  19.929   2.467  1.00 31.64 LIG-0.65  OA
ATOM     24 O    CYS E   6     -23.430  21.583   2.874  1.00 36.48 LIG-0.65  OA
ENDBRANCH 18 22
ENDBRANCH 15 18
ENDBRANCH 10 14
ENDBRANCH 6 7
BRANCH 6 25
ATOM     25  CB  VAL E   4     -23.129  25.121   5.040  1.00 33.86 LIG 0.01  C 
ATOM     26  CG2 VAL E   4     -21.806  24.457   4.642  1.00 37.12 LIG 0.01  C 
ATOM     27  CG1 VAL E   4     -24.270  24.111   5.080  1.00 36.74 LIG 0.01  C 
ENDBRANCH 6 25
ENDBRANCH 3 6
ENDBRANCH 1 2
BRANCH 1 28
ATOM     28  CB  ILE E   3     -25.435  30.769   4.660  1.00 41.05 LIG 0.01  C 
ATOM     29  CG2 ILE E   3     -26.757  31.247   4.075  1.00 37.15 LIG 0.01  C 
BRANCH 28 30
ATOM     30  CG1 ILE E   3     -25.009  31.627   5.855  1.00 42.94 LIG 0.00  C 
ATOM     31  CD1 ILE E   3     -25.848  32.876   6.021  1.00 40.89 LIG 0.01  C 
ENDBRANCH 28 30
ENDBRANCH 1 28
BRANCH 1 32
ATOM     32  N   ILE E   3     -25.270  29.142   6.500  1.00 40.60 LIG-0.35  N 
ATOM     33 H    ILE E   3     -24.458  28.932   6.692  1.00 40.60 LIG 0.16  HD
ATOM     34  C   ASP E   2     -26.238  29.311   7.391  1.00 44.87 LIG 0.24  C 
ATOM     35 O    ASP E   2     -27.366  29.717   7.089  1.00 39.41 LIG-0.27  OA
BRANCH 34 36
ATOM     36  CA  ASP E   2     -25.899  28.964   8.832  1.00 43.58 LIG 0.19  C 
BRANCH 36 37
ATOM     37  N   ASP E   2     -24.498  28.601   8.975  1.00 45.35 LIG-0.34  N 
ATOM     38  C   ASP E   1     -24.062  27.387   8.665  1.00 51.19 LIG 0.25  C 
ATOM     39 O    ASP E   1     -24.799  26.503   8.238  1.00 56.05 LIG-0.27  OA
ATOM     40 H    ASP E   2     -23.995  29.232   9.270  1.00 45.35 LIG 0.16  HD
BRANCH 38 41
ATOM     41  CA  ASP E   1     -22.576  27.136   8.856  1.00 54.43 LIG 0.28  C 
BRANCH 41 42
ATOM     42  CB  ASP E   1     -22.068  26.199   7.761  1.00 57.23 LIG 0.15  C 
BRANCH 42 43
ATOM     43  CG  ASP E   1     -21.694  24.827   8.297  1.00 60.86 LIG 0.17  C 
ATOM     44 OD2  ASP E   1     -20.505  24.457   8.210  1.00 61.39 LIG-0.65  OA
ATOM     45 OD1  ASP E   1     -22.594  24.128   8.820  1.00 65.62 LIG-0.65  OA
ENDBRANCH 42 43
ENDBRANCH 41 42
BRANCH 41 46
ATOM     46  N   ASP E   1     -22.307  26.577  10.174  1.00 57.81 LIG-0.07  N 
ATOM     47 H1   ASP E   1     -22.581  27.147  10.801  1.00 57.81 LIG 0.28  HD
ATOM     48 H3   ASP E   1     -21.433  26.436  10.264  1.00 57.81 LIG 0.28  HD
ATOM     49 H2   ASP E   1     -22.742  25.806  10.263  1.00 57.81 LIG 0.28  HD
ENDBRANCH 41 46
ENDBRANCH 38 41
ENDBRANCH 36 37
BRANCH 36 50
ATOM     50  CB  ASP E   2     -26.209  30.172   9.698  1.00 41.52 LIG 0.15  C 
BRANCH 50 51
ATOM     51  CG  ASP E   2     -26.625  29.789  11.092  1.00 49.49 LIG 0.17  C 
ATOM     52 OD1  ASP E   2     -26.988  30.695  11.870  1.00 51.56 LIG-0.65  OA
ATOM     53 OD2  ASP E   2     -26.592  28.582  11.400  1.00 52.06 LIG-0.65  OA
ENDBRANCH 50 51
ENDBRANCH 36 50
ENDBRANCH 34 36
ENDBRANCH 1 32
TORSDOF 20
ENDMDL
MODEL 42
USER: ADFR SOLUTION from run 129
USER: SCORE 16.425067 LL:  -4.037 LR: -12.998 RR:   0.000 FEB:  -7.032
USER: RMSD 11.577767
USER: SEED 128
USER: STATUS no improvement in best in 17 clusters for 5 generations
USER: GENES 22
USER: genes 0 Translation |==|  0.64736 0.35906 0.33771
USER: genes 1 Rotation |==|  0.80654 0.52295 0.88839 0.56826
USER: genes 2 Torsion [N]-CA--C-[N] |==|  0.25841
USER: genes 3 Torsion [C]-N--CA-[C] |==|  0.87770
USER: genes 4 Torsion [N]-CA--C-[N] |==|  0.35387
USER: genes 5 Torsion [N]-CA--C-[O] |==|  0.81171
USER: genes 6 Torsion [C]-N--CA-[CB] |==|  0.37933
USER: genes 7 Torsion [N]-CA--CB-[SG] |==|  0.93293
USER: genes 8 Torsion [CA]-CB--SG-[HG] |==|  0.44488
USER: genes 9 Torsion [N]-CA--C-[OXT] |==|  0.07391
USER: genes 10 Torsion [N]-CA--CB-[CG1] |==|  0.84458
USER: genes 11 Torsion [C]-CA--CB-[CG2] |==|  0.44466
USER: genes 12 Torsion [CA]-CB--CG1-[CD1] |==|  0.73865
USER: genes 13 Torsion [C]-CA--N-[C] |==|  0.72542
USER: genes 14 Torsion [N]-C--CA-[N] |==|  0.35428
USER: genes 15 Torsion [C]-CA--N-[C] |==|  0.80152
USER: genes 16 Torsion [N]-C--CA-[N] |==|  0.84603
USER: genes 17 Torsion [C]-CA--CB-[CG] |==|  0.20392
USER: genes 18 Torsion [CA]-CB--CG-[OD2] |==|  0.84721
USER: genes 19 Torsion [C]-CA--N-[H1] |==|  0.53775
USER: genes 20 Torsion [C]-CA--CB-[CG] |==|  0.25755
USER: genes 21 Torsion [CA]-CB--CG-[OD1] |==|  0.77291
ROOT
ATOM      1  CA  ILE E   3     -24.040  23.969   1.915  1.00 36.34 LIG 0.18  C 
ENDROOT
BRANCH 1 2
ATOM      2  C   ILE E   3     -24.078  25.240   2.753  1.00 39.45 LIG 0.24  C 
ATOM      3  N   VAL E   4     -23.335  26.261   2.322  1.00 32.94 LIG-0.35  N 
ATOM      4 H    VAL E   4     -22.904  26.260   1.578  1.00 32.94 LIG 0.16  HD
ATOM      5 O    ILE E   3     -24.754  25.286   3.774  1.00 42.21 LIG-0.27  OA
BRANCH 3 6
ATOM      6  CA  VAL E   4     -23.192  27.488   3.097  1.00 33.21 LIG 0.18  C 
BRANCH 6 7
ATOM      7  C   VAL E   4     -24.554  27.922   3.645  1.00 35.41 LIG 0.24  C 
ATOM      8 O    VAL E   4     -25.524  28.027   2.887  1.00 29.15 LIG-0.27  OA
ATOM      9  N   PRO E   5     -24.634  28.158   4.966  1.00 36.11 LIG-0.34  N 
ATOM     10  CA  PRO E   5     -25.890  28.640   5.555  1.00 34.10 LIG 0.18  C 
ATOM     11  CD  PRO E   5     -23.590  27.910   5.981  1.00 37.00 LIG 0.13  C 
ATOM     12  CB  PRO E   5     -25.567  28.739   7.060  1.00 38.74 LIG 0.04  C 
ATOM     13  CG  PRO E   5     -24.381  27.830   7.270  1.00 43.00 LIG 0.02  C 
BRANCH 10 14
ATOM     14  C   PRO E   5     -26.201  30.015   4.984  1.00 34.89 LIG 0.24  C 
ATOM     15  N   CYS E   6     -27.240  30.138   4.168  1.00 33.29 LIG-0.34  N 
ATOM     16 H    CYS E   6     -27.774  29.498   3.956  1.00 33.29 LIG 0.16  HD
ATOM     17 O    PRO E   5     -25.469  30.960   5.281  1.00 33.04 LIG-0.27  OA
BRANCH 15 18
ATOM     18  CA  CYS E   6     -27.548  31.435   3.553  1.00 33.63 LIG 0.19  C 
BRANCH 18 19
ATOM     19  CB  CYS E   6     -27.903  31.269   2.070  1.00 31.18 LIG 0.11  C 
BRANCH 19 20
ATOM     20 SG   CYS E   6     -27.188  29.739   1.330  1.00 33.89 LIG-0.18  SA
ATOM     21 HG   CYS E   6     -27.790  29.459   0.330  1.00 33.89 LIG 0.10  HD
ENDBRANCH 19 20
ENDBRANCH 18 19
BRANCH 18 22
ATOM     22  C   CYS E   6     -28.603  32.257   4.327  1.00 36.36 LIG 0.20  C 
ATOM     23 OXT  CYS E   6     -28.818  32.158   5.557  1.00 31.64 LIG-0.65  OA
ATOM     24 O    CYS E   6     -29.310  33.035   3.685  1.00 36.48 LIG-0.65  OA
ENDBRANCH 18 22
ENDBRANCH 15 18
ENDBRANCH 10 14
ENDBRANCH 6 7
BRANCH 6 25
ATOM     25  CB  VAL E   4     -22.633  28.632   2.213  1.00 33.86 LIG 0.01  C 
ATOM     26  CG2 VAL E   4     -23.662  29.046   1.155  1.00 37.12 LIG 0.01  C 
ATOM     27  CG1 VAL E   4     -21.312  28.217   1.573  1.00 36.74 LIG 0.01  C 
ENDBRANCH 6 25
ENDBRANCH 3 6
ENDBRANCH 1 2
BRANCH 1 28
ATOM     28  CB  ILE E   3     -25.405  23.298   1.908  1.00 41.05 LIG 0.01  C 
ATOM     29  CG2 ILE E   3     -25.519  22.345   0.725  1.00 37.15 LIG 0.01  C 
BRANCH 28 30
ATOM     30  CG1 ILE E   3     -25.632  22.570   3.236  1.00 42.94 LIG 0.00  C 
ATOM     31  CD1 ILE E   3     -25.242  21.108   3.189  1.00 40.89 LIG 0.01  C 
ENDBRANCH 28 30
ENDBRANCH 1 28
BRANCH 1 32
ATOM     32  N   ILE E   3     -23.014  23.096   2.453  1.00 40.60 LIG-0.35  N 
ATOM     33 H    ILE E   3     -23.251  22.636   3.140  1.00 40.60 LIG 0.16  HD
ATOM     34  C   ASP E   2     -21.814  23.050   1.889  1.00 44.87 LIG 0.24  C 
ATOM     35 O    ASP E   2     -21.542  23.646   0.840  1.00 39.41 LIG-0.27  OA
BRANCH 34 36
ATOM     36  CA  ASP E   2     -20.759  22.227   2.609  1.00 43.58 LIG 0.19  C 
BRANCH 36 37
ATOM     37  N   ASP E   2     -20.138  21.262   1.716  1.00 45.35 LIG-0.34  N 
ATOM     38  C   ASP E   1     -20.796  20.194   1.285  1.00 51.19 LIG 0.25  C 
ATOM     39 O    ASP E   1     -21.957  19.954   1.600  1.00 56.05 LIG-0.27  OA
ATOM     40 H    ASP E   2     -19.326  21.446   1.501  1.00 45.35 LIG 0.16  HD
BRANCH 38 41
ATOM     41  CA  ASP E   1     -20.035  19.265   0.353  1.00 54.43 LIG 0.28  C 
BRANCH 41 42
ATOM     42  CB  ASP E   1     -18.891  18.596   1.116  1.00 57.23 LIG 0.15  C 
BRANCH 42 43
ATOM     43  CG  ASP E   1     -19.380  17.527   2.078  1.00 60.86 LIG 0.17  C 
ATOM     44 OD2  ASP E   1     -20.237  17.840   2.930  1.00 61.39 LIG-0.65  OA
ATOM     45 OD1  ASP E   1     -18.914  16.368   1.966  1.00 65.62 LIG-0.65  OA
ENDBRANCH 42 43
ENDBRANCH 41 42
BRANCH 41 46
ATOM     46  N   ASP E   1     -19.524  19.990  -0.802  1.00 57.81 LIG-0.07  N 
ATOM     47 H1   ASP E   1     -19.259  19.410  -1.424  1.00 57.81 LIG 0.28  HD
ATOM     48 H3   ASP E   1     -18.835  20.495  -0.555  1.00 57.81 LIG 0.28  HD
ATOM     49 H2   ASP E   1     -20.166  20.508  -1.135  1.00 57.81 LIG 0.28  HD
ENDBRANCH 41 46
ENDBRANCH 38 41
ENDBRANCH 36 37
BRANCH 36 50
ATOM     50  CB  ASP E   2     -19.707  23.175   3.157  1.00 41.52 LIG 0.15  C 
BRANCH 50 51
ATOM     51  CG  ASP E   2     -19.993  23.597   4.571  1.00 49.49 LIG 0.17  C 
ATOM     52 OD1  ASP E   2     -20.809  24.524   4.758  1.00 51.56 LIG-0.65  OA
ATOM     53 OD2  ASP E   2     -19.404  22.996   5.491  1.00 52.06 LIG-0.65  OA
ENDBRANCH 50 51
ENDBRANCH 36 50
ENDBRANCH 34 36
ENDBRANCH 1 32
TORSDOF 20
ENDMDL
MODEL 43
USER: ADFR SOLUTION from run 69
USER: SCORE 17.658698 LL:  -5.460 LR: -12.989 RR:   0.000 FEB:  -7.023
USER: RMSD 5.022007
USER: SEED 68
USER: STATUS no improvement in best in 3 clusters for 5 generations
USER: GENES 22
USER: genes 0 Translation |==|  0.65321 0.50097 0.46330
USER: genes 1 Rotation |==|  0.26604 0.81735 0.80744 0.50548
USER: genes 2 Torsion [N]-CA--C-[N] |==|  0.35000
USER: genes 3 Torsion [C]-N--CA-[C] |==|  0.77222
USER: genes 4 Torsion [N]-CA--C-[N] |==|  0.84279
USER: genes 5 Torsion [N]-CA--C-[O] |==|  0.77513
USER: genes 6 Torsion [C]-N--CA-[CB] |==|  0.30059
USER: genes 7 Torsion [N]-CA--CB-[SG] |==|  0.58855
USER: genes 8 Torsion [CA]-CB--SG-[HG] |==|  0.72263
USER: genes 9 Torsion [N]-CA--C-[OXT] |==|  0.08173
USER: genes 10 Torsion [N]-CA--CB-[CG1] |==|  0.43961
USER: genes 11 Torsion [C]-CA--CB-[CG2] |==|  0.72277
USER: genes 12 Torsion [CA]-CB--CG1-[CD1] |==|  0.68328
USER: genes 13 Torsion [C]-CA--N-[C] |==|  0.64335
USER: genes 14 Torsion [N]-C--CA-[N] |==|  0.90495
USER: genes 15 Torsion [C]-CA--N-[C] |==|  0.74744
USER: genes 16 Torsion [N]-C--CA-[N] |==|  0.40771
USER: genes 17 Torsion [C]-CA--CB-[CG] |==|  0.80983
USER: genes 18 Torsion [CA]-CB--CG-[OD2] |==|  0.79432
USER: genes 19 Torsion [C]-CA--N-[H1] |==|  0.61766
USER: genes 20 Torsion [C]-CA--CB-[CG] |==|  0.15688
USER: genes 21 Torsion [CA]-CB--CG-[OD1] |==|  0.20274
ROOT
ATOM      1  CA  ILE E   3     -23.922  27.481   4.364  1.00 36.34 LIG 0.18  C 
ENDROOT
BRANCH 1 2
ATOM      2  C   ILE E   3     -23.970  27.055   2.903  1.00 39.45 LIG 0.24  C 
ATOM      3  N   VAL E   4     -22.916  27.374   2.152  1.00 32.94 LIG-0.35  N 
ATOM      4 H    VAL E   4     -22.200  27.737   2.461  1.00 32.94 LIG 0.16  HD
ATOM      5 O    ILE E   3     -24.951  26.462   2.466  1.00 42.21 LIG-0.27  OA
BRANCH 3 6
ATOM      6  CA  VAL E   4     -22.893  27.129   0.715  1.00 33.21 LIG 0.18  C 
BRANCH 6 7
ATOM      7  C   VAL E   4     -22.513  25.672   0.440  1.00 35.41 LIG 0.24  C 
ATOM      8 O    VAL E   4     -23.256  24.953  -0.239  1.00 29.15 LIG-0.27  OA
ATOM      9  N   PRO E   5     -21.349  25.236   0.949  1.00 36.11 LIG-0.34  N 
ATOM     10  CA  PRO E   5     -20.947  23.833   0.783  1.00 34.10 LIG 0.18  C 
ATOM     11  CD  PRO E   5     -20.316  26.044   1.631  1.00 37.00 LIG 0.13  C 
ATOM     12  CB  PRO E   5     -19.566  23.770   1.465  1.00 38.74 LIG 0.04  C 
ATOM     13  CG  PRO E   5     -19.070  25.196   1.486  1.00 43.00 LIG 0.02  C 
BRANCH 10 14
ATOM     14  C   PRO E   5     -21.946  22.949   1.515  1.00 34.89 LIG 0.24  C 
ATOM     15  N   CYS E   6     -22.918  22.382   0.813  1.00 33.29 LIG-0.34  N 
ATOM     16 H    CYS E   6     -23.013  22.454  -0.038  1.00 33.29 LIG 0.16  HD
ATOM     17 O    PRO E   5     -21.830  22.807   2.733  1.00 33.04 LIG-0.27  OA
BRANCH 15 18
ATOM     18  CA  CYS E   6     -23.934  21.562   1.485  1.00 33.63 LIG 0.19  C 
BRANCH 18 19
ATOM     19  CB  CYS E   6     -25.286  22.285   1.522  1.00 31.18 LIG 0.11  C 
BRANCH 19 20
ATOM     20 SG   CYS E   6     -26.279  21.871   3.020  1.00 33.89 LIG-0.18  SA
ATOM     21 HG   CYS E   6     -27.106  21.048   2.737  1.00 33.89 LIG 0.10  HD
ENDBRANCH 19 20
ENDBRANCH 18 19
BRANCH 18 22
ATOM     22  C   CYS E   6     -24.044  20.125   0.928  1.00 36.36 LIG 0.20  C 
ATOM     23 OXT  CYS E   6     -23.096  19.489   0.413  1.00 31.64 LIG-0.65  OA
ATOM     24 O    CYS E   6     -25.149  19.582   0.955  1.00 36.48 LIG-0.65  OA
ENDBRANCH 18 22
ENDBRANCH 15 18
ENDBRANCH 10 14
ENDBRANCH 6 7
BRANCH 6 25
ATOM     25  CB  VAL E   4     -21.854  28.045   0.020  1.00 33.86 LIG 0.01  C 
ATOM     26  CG2 VAL E   4     -22.409  29.465  -0.138  1.00 37.12 LIG 0.01  C 
ATOM     27  CG1 VAL E   4     -21.436  27.457  -1.324  1.00 36.74 LIG 0.01  C 
ENDBRANCH 6 25
ENDBRANCH 3 6
ENDBRANCH 1 2
BRANCH 1 28
ATOM     28  CB  ILE E   3     -23.792  26.264   5.268  1.00 41.05 LIG 0.01  C 
ATOM     29  CG2 ILE E   3     -25.149  25.893   5.852  1.00 37.15 LIG 0.01  C 
BRANCH 28 30
ATOM     30  CG1 ILE E   3     -23.183  25.099   4.484  1.00 42.94 LIG 0.00  C 
ATOM     31  CD1 ILE E   3     -24.140  23.940   4.298  1.00 40.89 LIG 0.01  C 
ENDBRANCH 28 30
ENDBRANCH 1 28
BRANCH 1 32
ATOM     32  N   ILE E   3     -25.118  28.246   4.659  1.00 40.60 LIG-0.35  N 
ATOM     33 H    ILE E   3     -25.857  27.867   4.435  1.00 40.60 LIG 0.16  HD
ATOM     34  C   ASP E   2     -25.023  29.439   5.231  1.00 44.87 LIG 0.24  C 
ATOM     35 O    ASP E   2     -23.952  29.907   5.635  1.00 39.41 LIG-0.27  OA
BRANCH 34 36
ATOM     36  CA  ASP E   2     -26.314  30.231   5.361  1.00 43.58 LIG 0.19  C 
BRANCH 36 37
ATOM     37  N   ASP E   2     -27.200  29.990   4.234  1.00 45.35 LIG-0.34  N 
ATOM     38  C   ASP E   1     -27.162  30.749   3.147  1.00 51.19 LIG 0.25  C 
ATOM     39 O    ASP E   1     -26.383  31.689   3.018  1.00 56.05 LIG-0.27  OA
ATOM     40 H    ASP E   2     -27.736  29.325   4.338  1.00 45.35 LIG 0.16  HD
BRANCH 38 41
ATOM     41  CA  ASP E   1     -28.138  30.390   2.040  1.00 54.43 LIG 0.28  C 
BRANCH 41 42
ATOM     42  CB  ASP E   1     -27.480  29.404   1.074  1.00 57.23 LIG 0.15  C 
BRANCH 42 43
ATOM     43  CG  ASP E   1     -26.354  30.038   0.274  1.00 60.86 LIG 0.17  C 
ATOM     44 OD2  ASP E   1     -26.649  30.824  -0.649  1.00 61.39 LIG-0.65  OA
ATOM     45 OD1  ASP E   1     -25.172  29.757   0.585  1.00 65.62 LIG-0.65  OA
ENDBRANCH 42 43
ENDBRANCH 41 42
BRANCH 41 46
ATOM     46  N   ASP E   1     -28.582  31.582   1.330  1.00 57.81 LIG-0.07  N 
ATOM     47 H1   ASP E   1     -29.458  31.529   1.179  1.00 57.81 LIG 0.28  HD
ATOM     48 H3   ASP E   1     -28.151  31.643   0.554  1.00 57.81 LIG 0.28  HD
ATOM     49 H2   ASP E   1     -28.409  32.302   1.823  1.00 57.81 LIG 0.28  HD
ENDBRANCH 41 46
ENDBRANCH 38 41
ENDBRANCH 36 37
BRANCH 36 50
ATOM     50  CB  ASP E   2     -26.998  29.818   6.653  1.00 41.52 LIG 0.15  C 
BRANCH 50 51
ATOM     51  CG  ASP E   2     -26.115  30.006   7.856  1.00 49.49 LIG 0.17  C 
ATOM     52 OD1  ASP E   2     -25.902  31.169   8.257  1.00 51.56 LIG-0.65  OA
ATOM     53 OD2  ASP E   2     -25.644  28.988   8.399  1.00 52.06 LIG-0.65  OA
ENDBRANCH 50 51
ENDBRANCH 36 50
ENDBRANCH 34 36
ENDBRANCH 1 32
TORSDOF 20
ENDMDL
