MODEL 1
USER: ADFR SOLUTION from run 126
USER: SCORE 14.020328 LL:  -3.285 LR: -13.246 RR:   0.000 FEB:  -8.174
USER: RMSD 9.412827
USER: SEED 125
USER: STATUS no improvement in best in 20 clusters for 5 generations
USER: GENES 19
USER: genes 0 Translation |==|  0.36376 0.48129 0.52062
USER: genes 1 Rotation |==|  0.42054 0.24575 0.21768 0.81518
USER: genes 2 Torsion [C]-CA--CB-[OG] |==|  0.68022
USER: genes 3 Torsion [CA]-CB--OG-[HG] |==|  0.12622
USER: genes 4 Torsion [N]-CA--C-[N] |==|  0.02963
USER: genes 5 Torsion [C]-N--CA-[C] |==|  0.59429
USER: genes 6 Torsion [N]-CA--C-[N] |==|  0.37802
USER: genes 7 Torsion [C]-N--CA-[C] |==|  0.63687
USER: genes 8 Torsion [N]-CA--CB-[CG2] |==|  0.19650
USER: genes 9 Torsion [CA]-CB--CG1-[CD1] |==|  0.52479
USER: genes 10 Torsion [N]-CA--C-[O] |==|  0.09174
USER: genes 11 Torsion [N]-CA--CB-[CG2] |==|  0.79839
USER: genes 12 Torsion [CA]-CB--CG1-[CD1] |==|  0.54636
USER: genes 13 Torsion [CB]-CA--N-[C] |==|  0.35936
USER: genes 14 Torsion [N]-C--CA-[N] |==|  0.42999
USER: genes 15 Torsion [C]-CA--N-[C] |==|  0.50556
USER: genes 16 Torsion [N]-C--CA-[N] |==|  0.58299
USER: genes 17 Torsion [C]-CA--CB-[OG1] |==|  0.19106
USER: genes 18 Torsion [CA]-CB--OG1-[HG1] |==|  0.06001
ROOT
ATOM      1  CA  SER D   8      10.887  24.877  46.101  1.00  5.81 LIG 0.20  C 
ENDROOT
BRANCH 1 2
ATOM      2  CB  SER D   8      12.228  24.741  45.376  1.00  5.44 LIG 0.20  C 
BRANCH 2 3
ATOM      3 OG   SER D   8      12.649  23.393  45.372  1.00  4.91 LIG-0.40  OA
ATOM      4 HG   SER D   8      12.003  22.899  45.164  1.00  4.91 LIG 0.21  HD
ENDBRANCH 2 3
ENDBRANCH 1 2
BRANCH 1 5
ATOM      5  C   SER D   8       9.832  25.326  45.121  1.00  6.04 LIG 0.24  C 
ATOM      6  N   ILE D   9       8.697  24.645  45.143  1.00  5.23 LIG-0.35  N 
ATOM      7 H    ILE D   9       8.576  23.926  45.600  1.00  5.23 LIG 0.16  HD
ATOM      8 O    SER D   8      10.044  26.260  44.350  1.00  7.88 LIG-0.27  OA
BRANCH 6 9
ATOM      9  CA  ILE D   9       7.541  25.073  44.378  1.00  5.91 LIG 0.18  C 
BRANCH 9 10
ATOM     10  C   ILE D   9       6.284  24.718  45.158  1.00  8.30 LIG 0.24  C 
ATOM     11  N   ILE D  10       5.347  25.657  45.202  1.00  7.14 LIG-0.34  N 
ATOM     12 H    ILE D  10       5.411  26.417  44.804  1.00  7.14 LIG 0.16  HD
ATOM     13 O    ILE D   9       6.179  23.628  45.733  1.00  8.28 LIG-0.27  OA
BRANCH 11 14
ATOM     14  CA  ILE D  10       4.106  25.470  45.946  1.00  6.72 LIG 0.19  C 
BRANCH 14 15
ATOM     15  CB  ILE D  10       4.077  26.328  47.219  1.00  6.99 LIG 0.01  C 
ATOM     16  CG2 ILE D  10       3.928  27.801  46.856  1.00  9.23 LIG 0.01  C 
BRANCH 15 17
ATOM     17  CG1 ILE D  10       2.916  25.908  48.122  1.00  6.78 LIG 0.00  C 
ATOM     18  CD1 ILE D  10       2.686  26.844  49.298  1.00  7.71 LIG 0.01  C 
ENDBRANCH 15 17
ENDBRANCH 14 15
BRANCH 14 19
ATOM     19  C   ILE D  10       2.926  25.830  45.070  1.00  8.00 LIG 0.20  C 
ATOM     20 O    ILE D  10       2.984  25.621  43.855  1.00  7.10 LIG-0.65  OA
ATOM     21 OXT  ILE D  10       1.911  26.314  45.565  1.00 10.02 LIG-0.65  OA
ENDBRANCH 14 19
ENDBRANCH 11 14
ENDBRANCH 9 10
BRANCH 9 22
ATOM     22  CB  ILE D   9       7.538  24.437  42.972  1.00  4.97 LIG 0.01  C 
ATOM     23  CG2 ILE D   9       8.617  25.075  42.090  1.00  9.61 LIG 0.01  C 
BRANCH 22 24
ATOM     24  CG1 ILE D   9       7.742  22.931  43.106  1.00  5.60 LIG 0.00  C 
ATOM     25  CD1 ILE D   9       8.156  22.234  41.814  1.00  8.38 LIG 0.01  C 
ENDBRANCH 22 24
ENDBRANCH 9 22
ENDBRANCH 6 9
ENDBRANCH 1 5
BRANCH 1 26
ATOM     26  N   SER D   8      10.480  23.610  46.683  1.00  6.06 LIG-0.34  N 
ATOM     27 H    SER D   8      10.502  22.945  46.139  1.00  6.06 LIG 0.16  HD
ATOM     28  C   THR D   7      10.109  23.517  47.954  1.00 11.81 LIG 0.24  C 
ATOM     29 O    THR D   7      10.212  24.449  48.762  1.00 11.44 LIG-0.27  OA
BRANCH 28 30
ATOM     30  CA  THR D   7       9.549  22.176  48.387  1.00  8.59 LIG 0.20  C 
BRANCH 30 31
ATOM     31  N   THR D   7       9.741  21.998  49.820  1.00 15.26 LIG-0.34  N 
ATOM     32 H    THR D   7      10.108  22.667  50.216  1.00 15.26 LIG 0.16  HD
ATOM     33  C   PRO D   6       9.369  20.883  50.437  1.00 19.06 LIG 0.25  C 
ATOM     34 O    PRO D   6       8.875  19.926  49.851  1.00 17.22 LIG-0.27  OA
BRANCH 33 35
ATOM     35  CA  PRO D   6       9.587  20.839  51.948  1.00 33.07 LIG 0.35  C 
ATOM     36  N   PRO D   6       9.833  19.480  52.446  1.00 36.75 LIG 0.32  N 
ATOM     37  CD  PRO D   6      11.063  19.406  53.249  1.00 36.34 LIG 0.32  C 
ATOM     38  CG  PRO D   6      11.864  20.543  52.713  1.00 37.69 LIG 0.04  C 
ATOM     39  CB  PRO D   6      10.867  21.596  52.329  1.00 35.30 LIG 0.05  C 
ENDBRANCH 33 35
ENDBRANCH 30 31
BRANCH 30 40
ATOM     40  CB  THR D   7       8.056  22.134  48.018  1.00 10.85 LIG 0.15  C 
ATOM     41  CG2 THR D   7       7.342  23.364  48.545  1.00 12.17 LIG 0.04  C 
BRANCH 40 42
ATOM     42 OG1  THR D   7       7.921  22.087  46.594  1.00 14.88 LIG-0.39  OA
ATOM     43 HG1  THR D   7       8.634  21.799  46.254  1.00 14.88 LIG 0.21  HD
ENDBRANCH 40 42
ENDBRANCH 30 40
ENDBRANCH 28 30
ENDBRANCH 1 26
TORSDOF 17
ENDMDL
MODEL 2
USER: ADFR SOLUTION from run 30
USER: SCORE 15.048418 LL:  -3.559 LR: -12.832 RR:   0.000 FEB:  -7.760
USER: RMSD 3.435472
USER: SEED 29
USER: STATUS no improvement in best in 5 clusters for 5 generations
USER: GENES 19
USER: genes 0 Translation |==|  0.51917 0.55863 0.45561
USER: genes 1 Rotation |==|  0.50116 0.48515 0.51423 0.99958
USER: genes 2 Torsion [C]-CA--CB-[OG] |==|  0.44579
USER: genes 3 Torsion [CA]-CB--OG-[HG] |==|  0.20268
USER: genes 4 Torsion [N]-CA--C-[N] |==|  0.47041
USER: genes 5 Torsion [C]-N--CA-[C] |==|  0.61668
USER: genes 6 Torsion [N]-CA--C-[N] |==|  0.41182
USER: genes 7 Torsion [C]-N--CA-[C] |==|  0.64620
USER: genes 8 Torsion [N]-CA--CB-[CG2] |==|  0.82441
USER: genes 9 Torsion [CA]-CB--CG1-[CD1] |==|  0.53331
USER: genes 10 Torsion [N]-CA--C-[O] |==|  0.94267
USER: genes 11 Torsion [N]-CA--CB-[CG2] |==|  0.46678
USER: genes 12 Torsion [CA]-CB--CG1-[CD1] |==|  0.34629
USER: genes 13 Torsion [CB]-CA--N-[C] |==|  0.23125
USER: genes 14 Torsion [N]-C--CA-[N] |==|  0.93802
USER: genes 15 Torsion [C]-CA--N-[C] |==|  0.68911
USER: genes 16 Torsion [N]-C--CA-[N] |==|  0.52674
USER: genes 17 Torsion [C]-CA--CB-[OG1] |==|  0.68540
USER: genes 18 Torsion [CA]-CB--OG1-[HG1] |==|  0.12524
ROOT
ATOM      1  CA  SER D   8      14.733  25.980  44.979  1.00  5.81 LIG 0.20  C 
ENDROOT
BRANCH 1 2
ATOM      2  CB  SER D   8      14.021  26.801  43.902  1.00  5.44 LIG 0.20  C 
BRANCH 2 3
ATOM      3 OG   SER D   8      14.534  28.117  43.870  1.00  4.91 LIG-0.40  OA
ATOM      4 HG   SER D   8      15.301  28.110  43.528  1.00  4.91 LIG 0.21  HD
ENDBRANCH 2 3
ENDBRANCH 1 2
BRANCH 1 5
ATOM      5  C   SER D   8      13.889  24.780  45.333  1.00  6.04 LIG 0.24  C 
ATOM      6  N   ILE D   9      12.764  25.039  45.980  1.00  5.23 LIG-0.35  N 
ATOM      7 H    ILE D   9      12.550  25.815  46.284  1.00  5.23 LIG 0.16  HD
ATOM      8 O    SER D   8      14.255  23.644  45.040  1.00  7.88 LIG-0.27  OA
BRANCH 6 9
ATOM      9  CA  ILE D   9      11.780  24.003  46.233  1.00  5.91 LIG 0.18  C 
BRANCH 9 10
ATOM     10  C   ILE D   9      10.394  24.578  45.980  1.00  8.30 LIG 0.24  C 
ATOM     11  N   ILE D  10       9.487  23.722  45.526  1.00  7.14 LIG-0.34  N 
ATOM     12 H    ILE D  10       9.640  22.885  45.396  1.00  7.14 LIG 0.16  HD
ATOM     13 O    ILE D   9      10.161  25.779  46.165  1.00  8.28 LIG-0.27  OA
BRANCH 11 14
ATOM     14  CA  ILE D  10       8.127  24.142  45.203  1.00  6.72 LIG 0.19  C 
BRANCH 14 15
ATOM     15  CB  ILE D  10       7.863  24.083  43.691  1.00  6.99 LIG 0.01  C 
ATOM     16  CG2 ILE D  10       8.775  25.060  42.961  1.00  9.23 LIG 0.01  C 
BRANCH 15 17
ATOM     17  CG1 ILE D  10       8.105  22.669  43.160  1.00  6.78 LIG 0.00  C 
ATOM     18  CD1 ILE D  10       8.148  22.585  41.642  1.00  7.71 LIG 0.01  C 
ENDBRANCH 15 17
ENDBRANCH 14 15
BRANCH 14 19
ATOM     19  C   ILE D  10       7.134  23.256  45.923  1.00  8.00 LIG 0.20  C 
ATOM     20 O    ILE D  10       7.491  22.144  46.324  1.00  7.10 LIG-0.65  OA
ATOM     21 OXT  ILE D  10       5.986  23.644  46.119  1.00 10.02 LIG-0.65  OA
ENDBRANCH 14 19
ENDBRANCH 11 14
ENDBRANCH 9 10
BRANCH 9 22
ATOM     22  CB  ILE D   9      11.913  23.445  47.664  1.00  4.97 LIG 0.01  C 
ATOM     23  CG2 ILE D   9      10.699  22.578  48.019  1.00  9.61 LIG 0.01  C 
BRANCH 22 24
ATOM     24  CG1 ILE D   9      13.215  22.658  47.773  1.00  5.60 LIG 0.00  C 
ATOM     25  CD1 ILE D   9      14.140  23.122  48.895  1.00  8.38 LIG 0.01  C 
ENDBRANCH 22 24
ENDBRANCH 9 22
ENDBRANCH 6 9
ENDBRANCH 1 5
BRANCH 1 26
ATOM     26  N   SER D   8      16.030  25.521  44.510  1.00  6.06 LIG-0.34  N 
ATOM     27 H    SER D   8      16.032  24.720  44.199  1.00  6.06 LIG 0.16  HD
ATOM     28  C   THR D   7      17.105  26.298  44.569  1.00 11.81 LIG 0.24  C 
ATOM     29 O    THR D   7      17.062  27.493  44.889  1.00 11.44 LIG-0.27  OA
BRANCH 28 30
ATOM     30  CA  THR D   7      18.421  25.641  44.206  1.00  8.59 LIG 0.20  C 
BRANCH 30 31
ATOM     31  N   THR D   7      18.318  24.197  44.374  1.00 15.26 LIG-0.34  N 
ATOM     32 H    THR D   7      17.793  23.810  43.813  1.00 15.26 LIG 0.16  HD
ATOM     33  C   PRO D   6      18.990  23.558  45.323  1.00 19.06 LIG 0.25  C 
ATOM     34 O    PRO D   6      19.710  24.130  46.134  1.00 17.22 LIG-0.27  OA
BRANCH 33 35
ATOM     35  CA  PRO D   6      18.828  22.040  45.366  1.00 33.07 LIG 0.35  C 
ATOM     36  N   PRO D   6      19.417  21.440  46.569  1.00 36.75 LIG 0.32  N 
ATOM     37  CD  PRO D   6      18.455  20.585  47.281  1.00 36.34 LIG 0.32  C 
ATOM     38  CG  PRO D   6      17.145  21.166  46.870  1.00 37.69 LIG 0.04  C 
ATOM     39  CB  PRO D   6      17.343  21.661  45.468  1.00 35.30 LIG 0.05  C 
ENDBRANCH 33 35
ENDBRANCH 30 31
BRANCH 30 40
ATOM     40  CB  THR D   7      18.759  26.007  42.750  1.00 10.85 LIG 0.15  C 
ATOM     41  CG2 THR D   7      20.150  26.605  42.661  1.00 12.17 LIG 0.04  C 
BRANCH 40 42
ATOM     42 OG1  THR D   7      18.702  24.829  41.940  1.00 14.88 LIG-0.39  OA
ATOM     43 HG1  THR D   7      18.009  24.392  42.129  1.00 14.88 LIG 0.21  HD
ENDBRANCH 40 42
ENDBRANCH 30 40
ENDBRANCH 28 30
ENDBRANCH 1 26
TORSDOF 17
ENDMDL
MODEL 3
USER: ADFR SOLUTION from run 189
USER: SCORE 14.581419 LL:  -2.827 LR: -12.659 RR:   0.000 FEB:  -7.588
USER: RMSD 5.753686
USER: SEED 188
USER: STATUS no improvement in best in 14 clusters for 5 generations
USER: GENES 19
USER: genes 0 Translation |==|  0.37032 0.39474 0.54354
USER: genes 1 Rotation |==|  0.97965 0.47450 0.45068 0.62982
USER: genes 2 Torsion [C]-CA--CB-[OG] |==|  0.25361
USER: genes 3 Torsion [CA]-CB--OG-[HG] |==|  0.01043
USER: genes 4 Torsion [N]-CA--C-[N] |==|  0.42288
USER: genes 5 Torsion [C]-N--CA-[C] |==|  0.69542
USER: genes 6 Torsion [N]-CA--C-[N] |==|  0.34739
USER: genes 7 Torsion [C]-N--CA-[C] |==|  0.19029
USER: genes 8 Torsion [N]-CA--CB-[CG2] |==|  0.52157
USER: genes 9 Torsion [CA]-CB--CG1-[CD1] |==|  0.64753
USER: genes 10 Torsion [N]-CA--C-[O] |==|  0.42327
USER: genes 11 Torsion [N]-CA--CB-[CG2] |==|  0.75482
USER: genes 12 Torsion [CA]-CB--CG1-[CD1] |==|  0.50418
USER: genes 13 Torsion [CB]-CA--N-[C] |==|  0.50198
USER: genes 14 Torsion [N]-C--CA-[N] |==|  0.32778
USER: genes 15 Torsion [C]-CA--N-[C] |==|  0.80096
USER: genes 16 Torsion [N]-C--CA-[N] |==|  0.17659
USER: genes 17 Torsion [C]-CA--CB-[OG1] |==|  0.56865
USER: genes 18 Torsion [CA]-CB--OG1-[HG1] |==|  0.41064
ROOT
ATOM      1  CA  SER D   8      11.050  23.644  46.496  1.00  5.81 LIG 0.20  C 
ENDROOT
BRANCH 1 2
ATOM      2  CB  SER D   8      10.524  23.521  47.928  1.00  5.44 LIG 0.20  C 
BRANCH 2 3
ATOM      3 OG   SER D   8       9.637  22.428  48.034  1.00  4.91 LIG-0.40  OA
ATOM      4 HG   SER D   8       9.606  22.020  47.300  1.00  4.91 LIG 0.21  HD
ENDBRANCH 2 3
ENDBRANCH 1 2
BRANCH 1 5
ATOM      5  C   SER D   8      10.148  24.563  45.710  1.00  6.04 LIG 0.24  C 
ATOM      6  N   ILE D   9       9.094  23.993  45.146  1.00  5.23 LIG-0.35  N 
ATOM      7 H    ILE D   9       8.961  23.144  45.124  1.00  5.23 LIG 0.16  HD
ATOM      8 O    SER D   8      10.408  25.760  45.603  1.00  7.88 LIG-0.27  OA
BRANCH 6 9
ATOM      9  CA  ILE D   9       8.058  24.782  44.506  1.00  5.91 LIG 0.18  C 
BRANCH 9 10
ATOM     10  C   ILE D   9       6.801  24.714  45.360  1.00  8.30 LIG 0.24  C 
ATOM     11  N   ILE D  10       6.291  25.883  45.731  1.00  7.14 LIG-0.34  N 
ATOM     12 H    ILE D  10       6.618  26.644  45.498  1.00  7.14 LIG 0.16  HD
ATOM     13 O    ILE D   9       6.320  23.627  45.700  1.00  8.28 LIG-0.27  OA
BRANCH 11 14
ATOM     14  CA  ILE D  10       5.110  25.971  46.583  1.00  6.72 LIG 0.19  C 
BRANCH 14 15
ATOM     15  CB  ILE D  10       3.943  25.148  46.016  1.00  6.99 LIG 0.01  C 
ATOM     16  CG2 ILE D  10       2.676  25.413  46.819  1.00  9.23 LIG 0.01  C 
BRANCH 15 17
ATOM     17  CG1 ILE D  10       3.698  25.506  44.549  1.00  6.78 LIG 0.00  C 
ATOM     18  CD1 ILE D  10       2.259  25.894  44.246  1.00  7.71 LIG 0.01  C 
ENDBRANCH 15 17
ENDBRANCH 14 15
BRANCH 14 19
ATOM     19  C   ILE D  10       5.445  25.477  47.973  1.00  8.00 LIG 0.20  C 
ATOM     20 O    ILE D  10       4.815  25.913  48.942  1.00  7.10 LIG-0.65  OA
ATOM     21 OXT  ILE D  10       6.326  24.638  48.138  1.00 10.02 LIG-0.65  OA
ENDBRANCH 14 19
ENDBRANCH 11 14
ENDBRANCH 9 10
BRANCH 9 22
ATOM     22  CB  ILE D   9       7.796  24.294  43.067  1.00  4.97 LIG 0.01  C 
ATOM     23  CG2 ILE D   9       8.730  25.004  42.080  1.00  9.61 LIG 0.01  C 
BRANCH 22 24
ATOM     24  CG1 ILE D   9       7.972  22.780  43.014  1.00  5.60 LIG 0.00  C 
ATOM     25  CD1 ILE D   9       7.775  22.169  41.629  1.00  8.38 LIG 0.01  C 
ENDBRANCH 22 24
ENDBRANCH 9 22
ENDBRANCH 6 9
ENDBRANCH 1 5
BRANCH 1 26
ATOM     26  N   SER D   8      12.399  24.182  46.482  1.00  6.06 LIG-0.34  N 
ATOM     27 H    SER D   8      12.723  24.349  47.260  1.00  6.06 LIG 0.16  HD
ATOM     28  C   THR D   7      13.053  24.390  45.346  1.00 11.81 LIG 0.24  C 
ATOM     29 O    THR D   7      12.630  24.019  44.242  1.00 11.44 LIG-0.27  OA
BRANCH 28 30
ATOM     30  CA  THR D   7      14.381  25.110  45.464  1.00  8.59 LIG 0.20  C 
BRANCH 30 31
ATOM     31  N   THR D   7      15.457  24.247  44.996  1.00 15.26 LIG-0.34  N 
ATOM     32 H    THR D   7      15.799  24.481  44.243  1.00 15.26 LIG 0.16  HD
ATOM     33  C   PRO D   6      15.855  23.191  45.696  1.00 19.06 LIG 0.25  C 
ATOM     34 O    PRO D   6      15.333  22.854  46.753  1.00 17.22 LIG-0.27  OA
BRANCH 33 35
ATOM     35  CA  PRO D   6      17.021  22.393  45.116  1.00 33.07 LIG 0.35  C 
ATOM     36  N   PRO D   6      18.262  23.173  45.042  1.00 36.75 LIG 0.32  N 
ATOM     37  CD  PRO D   6      19.384  22.480  45.693  1.00 36.34 LIG 0.32  C 
ATOM     38  CG  PRO D   6      18.690  21.609  46.684  1.00 37.69 LIG 0.04  C 
ATOM     39  CB  PRO D   6      17.388  21.227  46.046  1.00 35.30 LIG 0.05  C 
ENDBRANCH 33 35
ENDBRANCH 30 31
BRANCH 30 40
ATOM     40  CB  THR D   7      14.306  26.402  44.632  1.00 10.85 LIG 0.15  C 
ATOM     41  CG2 THR D   7      13.672  27.519  45.439  1.00 12.17 LIG 0.04  C 
BRANCH 40 42
ATOM     42 OG1  THR D   7      15.627  26.794  44.245  1.00 14.88 LIG-0.39  OA
ATOM     43 HG1  THR D   7      15.598  27.174  43.496  1.00 14.88 LIG 0.21  HD
ENDBRANCH 40 42
ENDBRANCH 30 40
ENDBRANCH 28 30
ENDBRANCH 1 26
TORSDOF 17
ENDMDL
MODEL 4
USER: ADFR SOLUTION from run 70
USER: SCORE 15.403995 LL:  -3.436 LR: -12.564 RR:   0.000 FEB:  -7.493
USER: RMSD 5.787259
USER: SEED 69
USER: STATUS no improvement in best in 2 clusters for 5 generations
USER: GENES 19
USER: genes 0 Translation |==|  0.49236 0.41570 0.57111
USER: genes 1 Rotation |==|  0.47988 0.37753 0.39888 0.97368
USER: genes 2 Torsion [C]-CA--CB-[OG] |==|  0.78704
USER: genes 3 Torsion [CA]-CB--OG-[HG] |==|  0.60863
USER: genes 4 Torsion [N]-CA--C-[N] |==|  0.17778
USER: genes 5 Torsion [C]-N--CA-[C] |==|  0.85870
USER: genes 6 Torsion [N]-CA--C-[N] |==|  0.35492
USER: genes 7 Torsion [C]-N--CA-[C] |==|  0.69030
USER: genes 8 Torsion [N]-CA--CB-[CG2] |==|  0.81219
USER: genes 9 Torsion [CA]-CB--CG1-[CD1] |==|  0.53864
USER: genes 10 Torsion [N]-CA--C-[O] |==|  0.03029
USER: genes 11 Torsion [N]-CA--CB-[CG2] |==|  0.15550
USER: genes 12 Torsion [CA]-CB--CG1-[CD1] |==|  0.70249
USER: genes 13 Torsion [CB]-CA--N-[C] |==|  0.16187
USER: genes 14 Torsion [N]-C--CA-[N] |==|  0.91047
USER: genes 15 Torsion [C]-CA--N-[C] |==|  0.84970
USER: genes 16 Torsion [N]-C--CA-[N] |==|  0.22458
USER: genes 17 Torsion [C]-CA--CB-[OG1] |==|  0.60510
USER: genes 18 Torsion [CA]-CB--OG1-[HG1] |==|  0.16764
ROOT
ATOM      1  CA  SER D   8      14.070  23.943  46.972  1.00  5.81 LIG 0.20  C 
ENDROOT
BRANCH 1 2
ATOM      2  CB  SER D   8      14.300  24.810  45.732  1.00  5.44 LIG 0.20  C 
BRANCH 2 3
ATOM      3 OG   SER D   8      14.628  24.002  44.621  1.00  4.91 LIG-0.40  OA
ATOM      4 HG   SER D   8      15.223  24.380  44.165  1.00  4.91 LIG 0.21  HD
ENDBRANCH 2 3
ENDBRANCH 1 2
BRANCH 1 5
ATOM      5  C   SER D   8      12.715  23.287  46.879  1.00  6.04 LIG 0.24  C 
ATOM      6  N   ILE D   9      12.337  22.593  47.941  1.00  5.23 LIG-0.35  N 
ATOM      7 H    ILE D   9      12.848  22.422  48.611  1.00  5.23 LIG 0.16  HD
ATOM      8 O    SER D   8      12.031  23.395  45.864  1.00  7.88 LIG-0.27  OA
BRANCH 6 9
ATOM      9  CA  ILE D   9      10.994  22.054  48.056  1.00  5.91 LIG 0.18  C 
BRANCH 9 10
ATOM     10  C   ILE D   9       9.998  23.170  47.780  1.00  8.30 LIG 0.24  C 
ATOM     11  N   ILE D  10       9.076  22.907  46.862  1.00  7.14 LIG-0.34  N 
ATOM     12 H    ILE D  10       9.009  22.153  46.451  1.00  7.14 LIG 0.16  HD
ATOM     13 O    ILE D   9      10.082  24.256  48.364  1.00  8.28 LIG-0.27  OA
BRANCH 11 14
ATOM     14  CA  ILE D  10       8.080  23.897  46.467  1.00  6.72 LIG 0.19  C 
BRANCH 14 15
ATOM     15  CB  ILE D  10       8.057  24.098  44.944  1.00  6.99 LIG 0.01  C 
ATOM     16  CG2 ILE D  10       9.352  24.753  44.482  1.00  9.23 LIG 0.01  C 
BRANCH 15 17
ATOM     17  CG1 ILE D  10       7.884  22.756  44.230  1.00  6.78 LIG 0.00  C 
ATOM     18  CD1 ILE D  10       8.183  22.813  42.740  1.00  7.71 LIG 0.01  C 
ENDBRANCH 15 17
ENDBRANCH 14 15
BRANCH 14 19
ATOM     19  C   ILE D  10       6.710  23.460  46.937  1.00  8.00 LIG 0.20  C 
ATOM     20 O    ILE D  10       6.610  22.513  47.723  1.00  7.10 LIG-0.65  OA
ATOM     21 OXT  ILE D  10       5.705  24.052  46.553  1.00 10.02 LIG-0.65  OA
ENDBRANCH 14 19
ENDBRANCH 11 14
ENDBRANCH 9 10
BRANCH 9 22
ATOM     22  CB  ILE D   9      10.767  21.417  49.442  1.00  4.97 LIG 0.01  C 
ATOM     23  CG2 ILE D   9      11.054  22.433  50.554  1.00  9.61 LIG 0.01  C 
BRANCH 22 24
ATOM     24  CG1 ILE D   9       9.337  20.891  49.520  1.00  5.60 LIG 0.00  C 
ATOM     25  CD1 ILE D   9       8.408  21.716  50.405  1.00  8.38 LIG 0.01  C 
ENDBRANCH 22 24
ENDBRANCH 9 22
ENDBRANCH 6 9
ENDBRANCH 1 5
BRANCH 1 26
ATOM     26  N   SER D   8      15.086  22.910  47.079  1.00  6.06 LIG-0.34  N 
ATOM     27 H    SER D   8      14.778  22.108  47.092  1.00  6.06 LIG 0.16  HD
ATOM     28  C   THR D   7      16.377  23.210  47.150  1.00 11.81 LIG 0.24  C 
ATOM     29 O    THR D   7      16.817  24.356  46.992  1.00 11.44 LIG-0.27  OA
BRANCH 28 30
ATOM     30  CA  THR D   7      17.315  22.053  47.428  1.00  8.59 LIG 0.20  C 
BRANCH 30 31
ATOM     31  N   THR D   7      16.651  21.069  48.273  1.00 15.26 LIG-0.34  N 
ATOM     32 H    THR D   7      16.652  20.269  47.955  1.00 15.26 LIG 0.16  HD
ATOM     33  C   PRO D   6      16.099  21.406  49.431  1.00 19.06 LIG 0.25  C 
ATOM     34 O    PRO D   6      16.080  22.558  49.853  1.00 17.22 LIG-0.27  OA
BRANCH 33 35
ATOM     35  CA  PRO D   6      15.472  20.274  50.241  1.00 33.07 LIG 0.35  C 
ATOM     36  N   PRO D   6      16.463  19.506  51.005  1.00 36.75 LIG 0.32  N 
ATOM     37  CD  PRO D   6      16.103  19.412  52.428  1.00 36.34 LIG 0.32  C 
ATOM     38  CG  PRO D   6      15.261  20.627  52.626  1.00 37.69 LIG 0.04  C 
ATOM     39  CB  PRO D   6      14.544  20.839  51.326  1.00 35.30 LIG 0.05  C 
ENDBRANCH 33 35
ENDBRANCH 30 31
BRANCH 30 40
ATOM     40  CB  THR D   7      17.735  21.436  46.083  1.00 10.85 LIG 0.15  C 
ATOM     41  CG2 THR D   7      19.086  21.972  45.650  1.00 12.17 LIG 0.04  C 
BRANCH 40 42
ATOM     42 OG1  THR D   7      17.816  20.013  46.219  1.00 14.88 LIG-0.39  OA
ATOM     43 HG1  THR D   7      17.065  19.710  46.441  1.00 14.88 LIG 0.21  HD
ENDBRANCH 40 42
ENDBRANCH 30 40
ENDBRANCH 28 30
ENDBRANCH 1 26
TORSDOF 17
ENDMDL
MODEL 5
USER: ADFR SOLUTION from run 102
USER: SCORE 12.618183 LL:  -2.746 LR: -12.492 RR:   0.000 FEB:  -7.421
USER: RMSD 7.022258
USER: SEED 101
USER: STATUS no improvement in best in 9 clusters for 5 generations
USER: GENES 19
USER: genes 0 Translation |==|  0.29240 0.28970 0.62857
USER: genes 1 Rotation |==|  0.97453 0.50518 0.50129 0.65747
USER: genes 2 Torsion [C]-CA--CB-[OG] |==|  0.10589
USER: genes 3 Torsion [CA]-CB--OG-[HG] |==|  0.38061
USER: genes 4 Torsion [N]-CA--C-[N] |==|  0.90046
USER: genes 5 Torsion [C]-N--CA-[C] |==|  0.21935
USER: genes 6 Torsion [N]-CA--C-[N] |==|  0.41391
USER: genes 7 Torsion [C]-N--CA-[C] |==|  0.71916
USER: genes 8 Torsion [N]-CA--CB-[CG2] |==|  0.55682
USER: genes 9 Torsion [CA]-CB--CG1-[CD1] |==|  0.84954
USER: genes 10 Torsion [N]-CA--C-[O] |==|  0.50360
USER: genes 11 Torsion [N]-CA--CB-[CG2] |==|  0.47394
USER: genes 12 Torsion [CA]-CB--CG1-[CD1] |==|  0.65604
USER: genes 13 Torsion [CB]-CA--N-[C] |==|  0.30238
USER: genes 14 Torsion [N]-C--CA-[N] |==|  0.47161
USER: genes 15 Torsion [C]-CA--N-[C] |==|  0.60121
USER: genes 16 Torsion [N]-C--CA-[N] |==|  0.09593
USER: genes 17 Torsion [C]-CA--CB-[OG1] |==|  0.00820
USER: genes 18 Torsion [CA]-CB--OG1-[HG1] |==|  0.80812
ROOT
ATOM      1  CA  SER D   8       9.121  22.147  47.963  1.00  5.81 LIG 0.20  C 
ENDROOT
BRANCH 1 2
ATOM      2  CB  SER D   8       8.398  22.065  49.309  1.00  5.44 LIG 0.20  C 
BRANCH 2 3
ATOM      3 OG   SER D   8       7.032  21.766  49.115  1.00  4.91 LIG-0.40  OA
ATOM      4 HG   SER D   8       6.788  21.191  49.677  1.00  4.91 LIG 0.21  HD
ENDBRANCH 2 3
ENDBRANCH 1 2
BRANCH 1 5
ATOM      5  C   SER D   8       8.217  22.803  46.948  1.00  6.04 LIG 0.24  C 
ATOM      6  N   ILE D   9       8.242  24.126  46.924  1.00  5.23 LIG-0.35  N 
ATOM      7 H    ILE D   9       8.655  24.610  47.503  1.00  5.23 LIG 0.16  HD
ATOM      8 O    SER D   8       7.502  22.126  46.212  1.00  7.88 LIG-0.27  OA
BRANCH 6 9
ATOM      9  CA  ILE D   9       7.555  24.879  45.892  1.00  5.91 LIG 0.18  C 
BRANCH 9 10
ATOM     10  C   ILE D   9       6.074  24.931  46.233  1.00  8.30 LIG 0.24  C 
ATOM     11  N   ILE D  10       5.427  26.019  45.833  1.00  7.14 LIG-0.34  N 
ATOM     12 H    ILE D  10       5.792  26.658  45.387  1.00  7.14 LIG 0.16  HD
ATOM     13 O    ILE D   9       5.536  24.019  46.872  1.00  8.28 LIG-0.27  OA
BRANCH 11 14
ATOM     14  CA  ILE D  10       4.012  26.223  46.125  1.00  6.72 LIG 0.19  C 
BRANCH 14 15
ATOM     15  CB  ILE D  10       3.728  27.668  46.560  1.00  6.99 LIG 0.01  C 
ATOM     16  CG2 ILE D  10       2.411  27.737  47.324  1.00  9.23 LIG 0.01  C 
BRANCH 15 17
ATOM     17  CG1 ILE D  10       4.858  28.192  47.449  1.00  6.78 LIG 0.00  C 
ATOM     18  CD1 ILE D  10       5.153  27.305  48.648  1.00  7.71 LIG 0.01  C 
ENDBRANCH 15 17
ENDBRANCH 14 15
BRANCH 14 19
ATOM     19  C   ILE D  10       3.185  25.894  44.902  1.00  8.00 LIG 0.20  C 
ATOM     20 O    ILE D  10       1.958  26.028  44.943  1.00  7.10 LIG-0.65  OA
ATOM     21 OXT  ILE D  10       3.729  25.511  43.870  1.00 10.02 LIG-0.65  OA
ENDBRANCH 14 19
ENDBRANCH 11 14
ENDBRANCH 9 10
BRANCH 9 22
ATOM     22  CB  ILE D   9       7.797  24.261  44.499  1.00  4.97 LIG 0.01  C 
ATOM     23  CG2 ILE D   9       6.887  24.918  43.454  1.00  9.61 LIG 0.01  C 
BRANCH 22 24
ATOM     24  CG1 ILE D   9       9.270  24.415  44.135  1.00  5.60 LIG 0.00  C 
ATOM     25  CD1 ILE D   9       9.522  25.144  42.818  1.00  8.38 LIG 0.01  C 
ENDBRANCH 22 24
ENDBRANCH 9 22
ENDBRANCH 6 9
ENDBRANCH 1 5
BRANCH 1 26
ATOM     26  N   SER D   8      10.343  22.925  48.077  1.00  6.06 LIG-0.34  N 
ATOM     27 H    SER D   8      10.219  23.768  48.186  1.00  6.06 LIG 0.16  HD
ATOM     28  C   THR D   7      11.539  22.353  48.014  1.00 11.81 LIG 0.24  C 
ATOM     29 O    THR D   7      11.704  21.126  47.995  1.00 11.44 LIG-0.27  OA
BRANCH 28 30
ATOM     30  CA  THR D   7      12.726  23.294  47.976  1.00  8.59 LIG 0.20  C 
BRANCH 30 31
ATOM     31  N   THR D   7      13.961  22.543  48.152  1.00 15.26 LIG-0.34  N 
ATOM     32 H    THR D   7      13.962  21.768  47.778  1.00 15.26 LIG 0.16  HD
ATOM     33  C   PRO D   6      14.985  23.037  48.837  1.00 19.06 LIG 0.25  C 
ATOM     34 O    PRO D   6      14.953  24.132  49.390  1.00 17.22 LIG-0.27  OA
BRANCH 33 35
ATOM     35  CA  PRO D   6      16.237  22.167  48.911  1.00 33.07 LIG 0.35  C 
ATOM     36  N   PRO D   6      16.464  21.394  47.684  1.00 36.75 LIG 0.32  N 
ATOM     37  CD  PRO D   6      17.821  21.596  47.154  1.00 36.34 LIG 0.32  C 
ATOM     38  CG  PRO D   6      18.176  22.942  47.687  1.00 37.69 LIG 0.04  C 
ATOM     39  CB  PRO D   6      17.494  23.042  49.019  1.00 35.30 LIG 0.05  C 
ENDBRANCH 33 35
ENDBRANCH 30 31
BRANCH 30 40
ATOM     40  CB  THR D   7      12.714  24.034  46.627  1.00 10.85 LIG 0.15  C 
ATOM     41  CG2 THR D   7      13.957  23.699  45.825  1.00 12.17 LIG 0.04  C 
BRANCH 40 42
ATOM     42 OG1  THR D   7      11.556  23.644  45.883  1.00 14.88 LIG-0.39  OA
ATOM     43 HG1  THR D   7      11.634  22.843  45.642  1.00 14.88 LIG 0.21  HD
ENDBRANCH 40 42
ENDBRANCH 30 40
ENDBRANCH 28 30
ENDBRANCH 1 26
TORSDOF 17
ENDMDL
MODEL 6
USER: ADFR SOLUTION from run 93
USER: SCORE 14.417149 LL:  -3.344 LR: -12.469 RR:   0.000 FEB:  -7.398
USER: RMSD 7.511259
USER: SEED 92
USER: STATUS no improvement in best in 18 clusters for 5 generations
USER: GENES 19
USER: genes 0 Translation |==|  0.40898 0.48722 0.48737
USER: genes 1 Rotation |==|  0.36786 0.31584 0.21090 0.83918
USER: genes 2 Torsion [C]-CA--CB-[OG] |==|  0.51843
USER: genes 3 Torsion [CA]-CB--OG-[HG] |==|  0.52338
USER: genes 4 Torsion [N]-CA--C-[N] |==|  0.89737
USER: genes 5 Torsion [C]-N--CA-[C] |==|  0.70000
USER: genes 6 Torsion [N]-CA--C-[N] |==|  0.39666
USER: genes 7 Torsion [C]-N--CA-[C] |==|  0.68054
USER: genes 8 Torsion [N]-CA--CB-[CG2] |==|  0.93565
USER: genes 9 Torsion [CA]-CB--CG1-[CD1] |==|  0.29735
USER: genes 10 Torsion [N]-CA--C-[O] |==|  0.44853
USER: genes 11 Torsion [N]-CA--CB-[CG2] |==|  0.85679
USER: genes 12 Torsion [CA]-CB--CG1-[CD1] |==|  0.52502
USER: genes 13 Torsion [CB]-CA--N-[C] |==|  0.39680
USER: genes 14 Torsion [N]-C--CA-[N] |==|  0.36880
USER: genes 15 Torsion [C]-CA--N-[C] |==|  0.85709
USER: genes 16 Torsion [N]-C--CA-[N] |==|  0.35791
USER: genes 17 Torsion [C]-CA--CB-[OG1] |==|  0.30101
USER: genes 18 Torsion [CA]-CB--OG1-[HG1] |==|  0.90495
ROOT
ATOM      1  CA  SER D   8      12.006  24.962  45.527  1.00  5.81 LIG 0.20  C 
ENDROOT
BRANCH 1 2
ATOM      2  CB  SER D   8      13.004  24.741  44.388  1.00  5.44 LIG 0.20  C 
BRANCH 2 3
ATOM      3 OG   SER D   8      14.126  24.019  44.851  1.00  4.91 LIG-0.40  OA
ATOM      4 HG   SER D   8      14.715  24.003  44.253  1.00  4.91 LIG 0.21  HD
ENDBRANCH 2 3
ENDBRANCH 1 2
BRANCH 1 5
ATOM      5  C   SER D   8      10.749  25.588  44.977  1.00  6.04 LIG 0.24  C 
ATOM      6  N   ILE D   9       9.860  24.747  44.472  1.00  5.23 LIG-0.35  N 
ATOM      7 H    ILE D   9      10.003  23.907  44.356  1.00  5.23 LIG 0.16  HD
ATOM      8 O    SER D   8      10.592  26.807  44.996  1.00  7.88 LIG-0.27  OA
BRANCH 6 9
ATOM      9  CA  ILE D   9       8.541  25.193  44.065  1.00  5.91 LIG 0.18  C 
BRANCH 9 10
ATOM     10  C   ILE D   9       7.522  24.672  45.067  1.00  8.30 LIG 0.24  C 
ATOM     11  N   ILE D  10       6.517  25.493  45.349  1.00  7.14 LIG-0.34  N 
ATOM     12 H    ILE D  10       6.412  26.266  44.985  1.00  7.14 LIG 0.16  HD
ATOM     13 O    ILE D   9       7.659  23.563  45.595  1.00  8.28 LIG-0.27  OA
BRANCH 11 14
ATOM     14  CA  ILE D  10       5.487  25.142  46.321  1.00  6.72 LIG 0.19  C 
BRANCH 14 15
ATOM     15  CB  ILE D  10       5.380  26.194  47.434  1.00  6.99 LIG 0.01  C 
ATOM     16  CG2 ILE D  10       6.687  26.968  47.551  1.00  9.23 LIG 0.01  C 
BRANCH 15 17
ATOM     17  CG1 ILE D  10       4.237  27.169  47.141  1.00  6.78 LIG 0.00  C 
ATOM     18  CD1 ILE D  10       3.022  26.972  48.033  1.00  7.71 LIG 0.01  C 
ENDBRANCH 15 17
ENDBRANCH 14 15
BRANCH 14 19
ATOM     19  C   ILE D  10       4.150  25.009  45.624  1.00  8.00 LIG 0.20  C 
ATOM     20 O    ILE D  10       3.234  24.395  46.178  1.00  7.10 LIG-0.65  OA
ATOM     21 OXT  ILE D  10       3.973  25.519  44.521  1.00 10.02 LIG-0.65  OA
ENDBRANCH 14 19
ENDBRANCH 11 14
ENDBRANCH 9 10
BRANCH 9 22
ATOM     22  CB  ILE D   9       8.215  24.732  42.629  1.00  4.97 LIG 0.01  C 
ATOM     23  CG2 ILE D   9       9.345  25.123  41.669  1.00  9.61 LIG 0.01  C 
BRANCH 22 24
ATOM     24  CG1 ILE D   9       7.978  23.226  42.632  1.00  5.60 LIG 0.00  C 
ATOM     25  CD1 ILE D   9       7.859  22.604  41.243  1.00  8.38 LIG 0.01  C 
ENDBRANCH 22 24
ENDBRANCH 9 22
ENDBRANCH 6 9
ENDBRANCH 1 5
BRANCH 1 26
ATOM     26  N   SER D   8      11.664  23.704  46.169  1.00  6.06 LIG-0.34  N 
ATOM     27 H    SER D   8      11.601  23.036  45.632  1.00  6.06 LIG 0.16  HD
ATOM     28  C   THR D   7      11.470  23.623  47.480  1.00 11.81 LIG 0.24  C 
ATOM     29 O    THR D   7      11.697  24.558  48.258  1.00 11.44 LIG-0.27  OA
BRANCH 28 30
ATOM     30  CA  THR D   7      10.954  22.295  47.995  1.00  8.59 LIG 0.20  C 
BRANCH 30 31
ATOM     31  N   THR D   7      11.734  21.875  49.151  1.00 15.26 LIG-0.34  N 
ATOM     32 H    THR D   7      11.264  21.663  49.840  1.00 15.26 LIG 0.16  HD
ATOM     33  C   PRO D   6      13.060  21.833  49.117  1.00 19.06 LIG 0.25  C 
ATOM     34 O    PRO D   6      13.715  22.169  48.136  1.00 17.22 LIG-0.27  OA
BRANCH 33 35
ATOM     35  CA  PRO D   6      13.757  21.334  50.381  1.00 33.07 LIG 0.35  C 
ATOM     36  N   PRO D   6      14.730  20.269  50.110  1.00 36.75 LIG 0.32  N 
ATOM     37  CD  PRO D   6      16.052  20.578  50.677  1.00 36.34 LIG 0.32  C 
ATOM     38  CG  PRO D   6      16.038  22.067  50.729  1.00 37.69 LIG 0.04  C 
ATOM     39  CB  PRO D   6      14.613  22.450  50.998  1.00 35.30 LIG 0.05  C 
ENDBRANCH 33 35
ENDBRANCH 30 31
BRANCH 30 40
ATOM     40  CB  THR D   7       9.469  22.461  48.359  1.00 10.85 LIG 0.15  C 
ATOM     41  CG2 THR D   7       9.083  23.927  48.367  1.00 12.17 LIG 0.04  C 
BRANCH 40 42
ATOM     42 OG1  THR D   7       8.665  21.769  47.398  1.00 14.88 LIG-0.39  OA
ATOM     43 HG1  THR D   7       9.029  21.817  46.642  1.00 14.88 LIG 0.21  HD
ENDBRANCH 40 42
ENDBRANCH 30 40
ENDBRANCH 28 30
ENDBRANCH 1 26
TORSDOF 17
ENDMDL
MODEL 7
USER: ADFR SOLUTION from run 69
USER: SCORE 14.239777 LL:  -3.599 LR: -12.394 RR:   0.000 FEB:  -7.323
USER: RMSD 7.318017
USER: SEED 68
USER: STATUS no improvement in best in 3 clusters for 5 generations
USER: GENES 19
USER: genes 0 Translation |==|  0.28523 0.39037 0.36774
USER: genes 1 Rotation |==|  0.15452 0.39911 0.56323 0.84127
USER: genes 2 Torsion [C]-CA--CB-[OG] |==|  0.26729
USER: genes 3 Torsion [CA]-CB--OG-[HG] |==|  0.79956
USER: genes 4 Torsion [N]-CA--C-[N] |==|  0.94366
USER: genes 5 Torsion [C]-N--CA-[C] |==|  0.86666
USER: genes 6 Torsion [N]-CA--C-[N] |==|  0.37222
USER: genes 7 Torsion [C]-N--CA-[C] |==|  0.71277
USER: genes 8 Torsion [N]-CA--CB-[CG2] |==|  0.48075
USER: genes 9 Torsion [CA]-CB--CG1-[CD1] |==|  0.49293
USER: genes 10 Torsion [N]-CA--C-[O] |==|  0.74783
USER: genes 11 Torsion [N]-CA--CB-[CG2] |==|  0.25337
USER: genes 12 Torsion [CA]-CB--CG1-[CD1] |==|  0.43121
USER: genes 13 Torsion [CB]-CA--N-[C] |==|  0.39019
USER: genes 14 Torsion [N]-C--CA-[N] |==|  0.95834
USER: genes 15 Torsion [C]-CA--N-[C] |==|  0.64070
USER: genes 16 Torsion [N]-C--CA-[N] |==|  0.42019
USER: genes 17 Torsion [C]-CA--CB-[OG1] |==|  0.60599
USER: genes 18 Torsion [CA]-CB--OG1-[HG1] |==|  0.49208
ROOT
ATOM      1  CA  SER D   8       8.943  23.582  43.463  1.00  5.81 LIG 0.20  C 
ENDROOT
BRANCH 1 2
ATOM      2  CB  SER D   8       8.857  22.339  42.575  1.00  5.44 LIG 0.20  C 
BRANCH 2 3
ATOM      3 OG   SER D   8       8.137  22.628  41.395  1.00  4.91 LIG-0.40  OA
ATOM      4 HG   SER D   8       7.322  22.713  41.578  1.00  4.91 LIG 0.21  HD
ENDBRANCH 2 3
ENDBRANCH 1 2
BRANCH 1 5
ATOM      5  C   SER D   8       7.849  23.532  44.501  1.00  6.04 LIG 0.24  C 
ATOM      6  N   ILE D   9       8.219  23.144  45.711  1.00  5.23 LIG-0.35  N 
ATOM      7 H    ILE D   9       8.999  22.835  45.900  1.00  5.23 LIG 0.16  HD
ATOM      8 O    SER D   8       6.692  23.826  44.209  1.00  7.88 LIG-0.27  OA
BRANCH 6 9
ATOM      9  CA  ILE D   9       7.311  23.213  46.840  1.00  5.91 LIG 0.18  C 
BRANCH 9 10
ATOM     10  C   ILE D   9       6.661  24.588  46.857  1.00  8.30 LIG 0.24  C 
ATOM     11  N   ILE D  10       5.348  24.604  47.047  1.00  7.14 LIG-0.34  N 
ATOM     12 H    ILE D  10       4.873  23.899  47.178  1.00  7.14 LIG 0.16  HD
ATOM     13 O    ILE D   9       7.332  25.611  46.673  1.00  8.28 LIG-0.27  OA
BRANCH 11 14
ATOM     14  CA  ILE D  10       4.586  25.849  47.049  1.00  6.72 LIG 0.19  C 
BRANCH 14 15
ATOM     15  CB  ILE D  10       3.296  25.722  46.226  1.00  6.99 LIG 0.01  C 
ATOM     16  CG2 ILE D  10       2.445  26.976  46.389  1.00  9.23 LIG 0.01  C 
BRANCH 15 17
ATOM     17  CG1 ILE D  10       3.622  25.519  44.746  1.00  6.78 LIG 0.00  C 
ATOM     18  CD1 ILE D  10       2.394  25.323  43.870  1.00  7.71 LIG 0.01  C 
ENDBRANCH 15 17
ENDBRANCH 14 15
BRANCH 14 19
ATOM     19  C   ILE D  10       4.241  26.235  48.471  1.00  8.00 LIG 0.20  C 
ATOM     20 O    ILE D  10       3.180  25.843  48.966  1.00  7.10 LIG-0.65  OA
ATOM     21 OXT  ILE D  10       5.015  26.921  49.132  1.00 10.02 LIG-0.65  OA
ENDBRANCH 14 19
ENDBRANCH 11 14
ENDBRANCH 9 10
BRANCH 9 22
ATOM     22  CB  ILE D   9       8.043  22.912  48.163  1.00  4.97 LIG 0.01  C 
ATOM     23  CG2 ILE D   9       8.569  24.206  48.794  1.00  9.61 LIG 0.01  C 
BRANCH 22 24
ATOM     24  CG1 ILE D   9       7.093  22.176  49.103  1.00  5.60 LIG 0.00  C 
ATOM     25  CD1 ILE D   9       7.786  21.312  50.152  1.00  8.38 LIG 0.01  C 
ENDBRANCH 22 24
ENDBRANCH 9 22
ENDBRANCH 6 9
ENDBRANCH 1 5
BRANCH 1 26
ATOM     26  N   SER D   8      10.228  23.650  44.138  1.00  6.06 LIG-0.34  N 
ATOM     27 H    SER D   8      10.525  22.893  44.416  1.00  6.06 LIG 0.16  HD
ATOM     28  C   THR D   7      10.870  24.801  44.296  1.00 11.81 LIG 0.24  C 
ATOM     29 O    THR D   7      10.502  25.861  43.771  1.00 11.44 LIG-0.27  OA
BRANCH 28 30
ATOM     30  CA  THR D   7      12.113  24.757  45.161  1.00  8.59 LIG 0.20  C 
BRANCH 30 31
ATOM     31  N   THR D   7      12.142  23.517  45.925  1.00 15.26 LIG-0.34  N 
ATOM     32 H    THR D   7      12.023  22.807  45.454  1.00 15.26 LIG 0.16  HD
ATOM     33  C   PRO D   6      12.338  23.513  47.237  1.00 19.06 LIG 0.25  C 
ATOM     34 O    PRO D   6      12.475  24.538  47.897  1.00 17.22 LIG-0.27  OA
BRANCH 33 35
ATOM     35  CA  PRO D   6      12.389  22.144  47.913  1.00 33.07 LIG 0.35  C 
ATOM     36  N   PRO D   6      13.227  22.137  49.118  1.00 36.75 LIG 0.32  N 
ATOM     37  CD  PRO D   6      12.507  21.601  50.283  1.00 36.34 LIG 0.32  C 
ATOM     38  CG  PRO D   6      11.084  21.879  49.934  1.00 37.69 LIG 0.04  C 
ATOM     39  CB  PRO D   6      11.001  21.755  48.442  1.00 35.30 LIG 0.05  C 
ENDBRANCH 33 35
ENDBRANCH 30 31
BRANCH 30 40
ATOM     40  CB  THR D   7      13.344  24.873  44.246  1.00 10.85 LIG 0.15  C 
ATOM     41  CG2 THR D   7      13.850  26.302  44.213  1.00 12.17 LIG 0.04  C 
BRANCH 40 42
ATOM     42 OG1  THR D   7      14.382  24.019  44.737  1.00 14.88 LIG-0.39  OA
ATOM     43 HG1  THR D   7      15.041  24.051  44.217  1.00 14.88 LIG 0.21  HD
ENDBRANCH 40 42
ENDBRANCH 30 40
ENDBRANCH 28 30
ENDBRANCH 1 26
TORSDOF 17
ENDMDL
MODEL 8
USER: ADFR SOLUTION from run 10
USER: SCORE 15.084193 LL:  -3.968 LR: -12.379 RR:   0.000 FEB:  -7.307
USER: RMSD 7.588998
USER: SEED 515587
USER: STATUS no improvement in best in 6 clusters for 5 generations
USER: GENES 19
USER: genes 0 Translation |==|  0.44427 0.55980 0.43861
USER: genes 1 Rotation |==|  0.30817 0.21434 0.36159 0.83532
USER: genes 2 Torsion [C]-CA--CB-[OG] |==|  0.70877
USER: genes 3 Torsion [CA]-CB--OG-[HG] |==|  0.59948
USER: genes 4 Torsion [N]-CA--C-[N] |==|  0.09256
USER: genes 5 Torsion [C]-N--CA-[C] |==|  0.53454
USER: genes 6 Torsion [N]-CA--C-[N] |==|  0.43342
USER: genes 7 Torsion [C]-N--CA-[C] |==|  0.84627
USER: genes 8 Torsion [N]-CA--CB-[CG2] |==|  0.17730
USER: genes 9 Torsion [CA]-CB--CG1-[CD1] |==|  0.70409
USER: genes 10 Torsion [N]-CA--C-[O] |==|  0.40219
USER: genes 11 Torsion [N]-CA--CB-[CG2] |==|  0.28944
USER: genes 12 Torsion [CA]-CB--CG1-[CD1] |==|  0.51717
USER: genes 13 Torsion [CB]-CA--N-[C] |==|  0.82153
USER: genes 14 Torsion [N]-C--CA-[N] |==|  0.38891
USER: genes 15 Torsion [C]-CA--N-[C] |==|  0.80967
USER: genes 16 Torsion [N]-C--CA-[N] |==|  0.25127
USER: genes 17 Torsion [C]-CA--CB-[OG1] |==|  0.52722
USER: genes 18 Torsion [CA]-CB--OG1-[HG1] |==|  0.25709
ROOT
ATOM      1  CA  SER D   8      12.880  25.996  44.686  1.00  5.81 LIG 0.20  C 
ENDROOT
BRANCH 1 2
ATOM      2  CB  SER D   8      14.008  25.559  43.750  1.00  5.44 LIG 0.20  C 
BRANCH 2 3
ATOM      3 OG   SER D   8      14.634  24.394  44.245  1.00  4.91 LIG-0.40  OA
ATOM      4 HG   SER D   8      15.456  24.425  44.079  1.00  4.91 LIG 0.21  HD
ENDBRANCH 2 3
ENDBRANCH 1 2
BRANCH 1 5
ATOM      5  C   SER D   8      11.550  25.644  44.066  1.00  6.04 LIG 0.24  C 
ATOM      6  N   ILE D   9      10.547  25.470  44.913  1.00  5.23 LIG-0.35  N 
ATOM      7 H    ILE D   9      10.638  25.450  45.768  1.00  5.23 LIG 0.16  HD
ATOM      8 O    SER D   8      11.436  25.519  42.849  1.00  7.88 LIG-0.27  OA
BRANCH 6 9
ATOM      9  CA  ILE D   9       9.184  25.296  44.448  1.00  5.91 LIG 0.18  C 
BRANCH 9 10
ATOM     10  C   ILE D   9       8.245  25.431  45.637  1.00  8.30 LIG 0.24  C 
ATOM     11  N   ILE D  10       6.999  25.789  45.351  1.00  7.14 LIG-0.34  N 
ATOM     12 H    ILE D  10       6.709  25.920  44.552  1.00  7.14 LIG 0.16  HD
ATOM     13 O    ILE D   9       8.649  25.245  46.791  1.00  8.28 LIG-0.27  OA
BRANCH 11 14
ATOM     14  CA  ILE D  10       6.000  25.995  46.394  1.00  6.72 LIG 0.19  C 
BRANCH 14 15
ATOM     15  CB  ILE D  10       4.623  26.325  45.799  1.00  6.99 LIG 0.01  C 
ATOM     16  CG2 ILE D  10       4.107  25.144  44.986  1.00  9.23 LIG 0.01  C 
BRANCH 15 17
ATOM     17  CG1 ILE D  10       3.623  26.651  46.910  1.00  6.78 LIG 0.00  C 
ATOM     18  CD1 ILE D  10       2.601  25.552  47.155  1.00  7.71 LIG 0.01  C 
ENDBRANCH 15 17
ENDBRANCH 14 15
BRANCH 14 19
ATOM     19  C   ILE D  10       5.893  24.753  47.252  1.00  8.00 LIG 0.20  C 
ATOM     20 O    ILE D  10       5.672  24.867  48.462  1.00  7.10 LIG-0.65  OA
ATOM     21 OXT  ILE D  10       6.010  23.640  46.748  1.00 10.02 LIG-0.65  OA
ENDBRANCH 14 19
ENDBRANCH 11 14
ENDBRANCH 9 10
BRANCH 9 22
ATOM     22  CB  ILE D   9       9.008  23.940  43.735  1.00  4.97 LIG 0.01  C 
ATOM     23  CG2 ILE D   9       8.270  22.947  44.641  1.00  9.61 LIG 0.01  C 
BRANCH 22 24
ATOM     24  CG1 ILE D   9       8.264  24.160  42.422  1.00  5.60 LIG 0.00  C 
ATOM     25  CD1 ILE D   9       7.892  22.877  41.684  1.00  8.38 LIG 0.01  C 
ENDBRANCH 22 24
ENDBRANCH 9 22
ENDBRANCH 6 9
ENDBRANCH 1 5
BRANCH 1 26
ATOM     26  N   SER D   8      12.988  25.334  45.975  1.00  6.06 LIG-0.34  N 
ATOM     27 H    SER D   8      13.138  25.864  46.635  1.00  6.06 LIG 0.16  HD
ATOM     28  C   THR D   7      12.862  24.018  46.093  1.00 11.81 LIG 0.24  C 
ATOM     29 O    THR D   7      12.510  23.284  45.161  1.00 11.44 LIG-0.27  OA
BRANCH 28 30
ATOM     30  CA  THR D   7      13.165  23.441  47.461  1.00  8.59 LIG 0.20  C 
BRANCH 30 31
ATOM     31  N   THR D   7      12.206  22.391  47.780  1.00 15.26 LIG-0.34  N 
ATOM     32 H    THR D   7      12.541  21.600  47.805  1.00 15.26 LIG 0.16  HD
ATOM     33  C   PRO D   6      10.927  22.664  48.009  1.00 19.06 LIG 0.25  C 
ATOM     34 O    PRO D   6      10.461  23.796  47.938  1.00 17.22 LIG-0.27  OA
BRANCH 33 35
ATOM     35  CA  PRO D   6      10.035  21.479  48.373  1.00 33.07 LIG 0.35  C 
ATOM     36  N   PRO D   6       9.972  21.242  49.821  1.00 36.75 LIG 0.32  N 
ATOM     37  CD  PRO D   6       8.584  21.183  50.305  1.00 36.34 LIG 0.32  C 
ATOM     38  CG  PRO D   6       7.857  21.999  49.291  1.00 37.69 LIG 0.04  C 
ATOM     39  CB  PRO D   6       8.576  21.769  47.995  1.00 35.30 LIG 0.05  C 
ENDBRANCH 33 35
ENDBRANCH 30 31
BRANCH 30 40
ATOM     40  CB  THR D   7      14.602  22.894  47.448  1.00 10.85 LIG 0.15  C 
ATOM     41  CG2 THR D   7      15.604  24.030  47.371  1.00 12.17 LIG 0.04  C 
BRANCH 40 42
ATOM     42 OG1  THR D   7      14.835  22.144  48.645  1.00 14.88 LIG-0.39  OA
ATOM     43 HG1  THR D   7      14.660  21.334  48.506  1.00 14.88 LIG 0.21  HD
ENDBRANCH 40 42
ENDBRANCH 30 40
ENDBRANCH 28 30
ENDBRANCH 1 26
TORSDOF 17
ENDMDL
MODEL 9
USER: ADFR SOLUTION from run 1
USER: SCORE 14.368188 LL:  -3.200 LR: -12.301 RR:   0.000 FEB:  -7.230
USER: RMSD 1.727820
USER: SEED 617291
USER: STATUS no improvement in best in 14 clusters for 5 generations
USER: GENES 19
USER: genes 0 Translation |==|  0.53225 0.53046 0.48356
USER: genes 1 Rotation |==|  0.58118 0.54620 0.47676 0.99065
USER: genes 2 Torsion [C]-CA--CB-[OG] |==|  0.75433
USER: genes 3 Torsion [CA]-CB--OG-[HG] |==|  0.78570
USER: genes 4 Torsion [N]-CA--C-[N] |==|  0.54678
USER: genes 5 Torsion [C]-N--CA-[C] |==|  0.60000
USER: genes 6 Torsion [N]-CA--C-[N] |==|  0.42841
USER: genes 7 Torsion [C]-N--CA-[C] |==|  0.62616
USER: genes 8 Torsion [N]-CA--CB-[CG2] |==|  0.76178
USER: genes 9 Torsion [CA]-CB--CG1-[CD1] |==|  0.34846
USER: genes 10 Torsion [N]-CA--C-[O] |==|  0.96765
USER: genes 11 Torsion [N]-CA--CB-[CG2] |==|  0.01316
USER: genes 12 Torsion [CA]-CB--CG1-[CD1] |==|  0.33020
USER: genes 13 Torsion [CB]-CA--N-[C] |==|  0.19227
USER: genes 14 Torsion [N]-C--CA-[N] |==|  0.42202
USER: genes 15 Torsion [C]-CA--N-[C] |==|  0.59760
USER: genes 16 Torsion [N]-C--CA-[N] |==|  0.72111
USER: genes 17 Torsion [C]-CA--CB-[OG1] |==|  0.53972
USER: genes 18 Torsion [CA]-CB--OG1-[HG1] |==|  0.43796
ROOT
ATOM      1  CA  SER D   8      15.057  25.578  45.461  1.00  5.81 LIG 0.20  C 
ENDROOT
BRANCH 1 2
ATOM      2  CB  SER D   8      14.277  26.771  44.905  1.00  5.44 LIG 0.20  C 
BRANCH 2 3
ATOM      3 OG   SER D   8      14.245  26.721  43.494  1.00  4.91 LIG-0.40  OA
ATOM      4 HG   SER D   8      14.984  26.975  43.187  1.00  4.91 LIG 0.21  HD
ENDBRANCH 2 3
ENDBRANCH 1 2
BRANCH 1 5
ATOM      5  C   SER D   8      14.117  24.415  45.662  1.00  6.04 LIG 0.24  C 
ATOM      6  N   ILE D   9      12.935  24.713  46.177  1.00  5.23 LIG-0.35  N 
ATOM      7 H    ILE D   9      12.724  25.488  46.483  1.00  5.23 LIG 0.16  HD
ATOM      8 O    SER D   8      14.459  23.271  45.371  1.00  7.88 LIG-0.27  OA
BRANCH 6 9
ATOM      9  CA  ILE D   9      11.876  23.724  46.266  1.00  5.91 LIG 0.18  C 
BRANCH 9 10
ATOM     10  C   ILE D   9      10.545  24.415  46.016  1.00  8.30 LIG 0.24  C 
ATOM     11  N   ILE D  10       9.574  23.644  45.541  1.00  7.14 LIG-0.34  N 
ATOM     12 H    ILE D  10       9.659  22.800  45.398  1.00  7.14 LIG 0.16  HD
ATOM     13 O    ILE D   9      10.408  25.627  46.220  1.00  8.28 LIG-0.27  OA
BRANCH 11 14
ATOM     14  CA  ILE D  10       8.255  24.179  45.218  1.00  6.72 LIG 0.19  C 
BRANCH 14 15
ATOM     15  CB  ILE D  10       8.066  24.334  43.702  1.00  6.99 LIG 0.01  C 
ATOM     16  CG2 ILE D  10       8.620  25.676  43.239  1.00  9.23 LIG 0.01  C 
BRANCH 15 17
ATOM     17  CG1 ILE D  10       8.779  23.205  42.955  1.00  6.78 LIG 0.00  C 
ATOM     18  CD1 ILE D  10       7.875  22.434  42.006  1.00  7.71 LIG 0.01  C 
ENDBRANCH 15 17
ENDBRANCH 14 15
BRANCH 14 19
ATOM     19  C   ILE D  10       7.183  23.264  45.768  1.00  8.00 LIG 0.20  C 
ATOM     20 O    ILE D  10       7.495  22.146  46.188  1.00  7.10 LIG-0.65  OA
ATOM     21 OXT  ILE D  10       6.013  23.635  45.810  1.00 10.02 LIG-0.65  OA
ENDBRANCH 14 19
ENDBRANCH 11 14
ENDBRANCH 9 10
BRANCH 9 22
ATOM     22  CB  ILE D   9      11.898  23.006  47.631  1.00  4.97 LIG 0.01  C 
ATOM     23  CG2 ILE D   9      12.959  23.626  48.548  1.00  9.61 LIG 0.01  C 
BRANCH 22 24
ATOM     24  CG1 ILE D   9      10.508  23.079  48.254  1.00  5.60 LIG 0.00  C 
ATOM     25  CD1 ILE D   9       9.855  21.722  48.500  1.00  8.38 LIG 0.01  C 
ENDBRANCH 22 24
ENDBRANCH 9 22
ENDBRANCH 6 9
ENDBRANCH 1 5
BRANCH 1 26
ATOM     26  N   SER D   8      16.114  25.177  44.549  1.00  6.06 LIG-0.34  N 
ATOM     27 H    SER D   8      15.985  24.418  44.166  1.00  6.06 LIG 0.16  HD
ATOM     28  C   THR D   7      17.181  25.940  44.342  1.00 11.81 LIG 0.24  C 
ATOM     29 O    THR D   7      17.291  27.088  44.791  1.00 11.44 LIG-0.27  OA
BRANCH 28 30
ATOM     30  CA  THR D   7      18.283  25.329  43.500  1.00  8.59 LIG 0.20  C 
BRANCH 30 31
ATOM     31  N   THR D   7      19.021  26.379  42.811  1.00 15.26 LIG-0.34  N 
ATOM     32 H    THR D   7      19.106  27.107  43.261  1.00 15.26 LIG 0.16  HD
ATOM     33  C   PRO D   6      19.509  26.199  41.590  1.00 19.06 LIG 0.25  C 
ATOM     34 O    PRO D   6      19.350  25.164  40.952  1.00 17.22 LIG-0.27  OA
BRANCH 33 35
ATOM     35  CA  PRO D   6      20.299  27.363  40.996  1.00 33.07 LIG 0.35  C 
ATOM     36  N   PRO D   6      19.509  28.161  40.050  1.00 36.75 LIG 0.32  N 
ATOM     37  CD  PRO D   6      19.534  29.592  40.388  1.00 36.34 LIG 0.32  C 
ATOM     38  CG  PRO D   6      19.799  29.570  41.855  1.00 37.69 LIG 0.04  C 
ATOM     39  CB  PRO D   6      20.672  28.374  42.090  1.00 35.30 LIG 0.05  C 
ENDBRANCH 33 35
ENDBRANCH 30 31
BRANCH 30 40
ATOM     40  CB  THR D   7      19.206  24.519  44.426  1.00 10.85 LIG 0.15  C 
ATOM     41  CG2 THR D   7      18.535  23.226  44.849  1.00 12.17 LIG 0.04  C 
BRANCH 40 42
ATOM     42 OG1  THR D   7      20.421  24.213  43.734  1.00 14.88 LIG-0.39  OA
ATOM     43 HG1  THR D   7      21.029  24.054  44.292  1.00 14.88 LIG 0.21  HD
ENDBRANCH 40 42
ENDBRANCH 30 40
ENDBRANCH 28 30
ENDBRANCH 1 26
TORSDOF 17
ENDMDL
MODEL 10
USER: ADFR SOLUTION from run 12
USER: SCORE 15.158359 LL:  -3.671 LR: -12.268 RR:   0.000 FEB:  -7.197
USER: RMSD 5.899321
USER: SEED 995712
USER: STATUS no improvement in best in 11 clusters for 5 generations
USER: GENES 19
USER: genes 0 Translation |==|  0.44121 0.31227 0.61506
USER: genes 1 Rotation |==|  0.96233 0.33947 0.42837 0.57317
USER: genes 2 Torsion [C]-CA--CB-[OG] |==|  0.68015
USER: genes 3 Torsion [CA]-CB--OG-[HG] |==|  0.18039
USER: genes 4 Torsion [N]-CA--C-[N] |==|  0.33750
USER: genes 5 Torsion [C]-N--CA-[C] |==|  0.67819
USER: genes 6 Torsion [N]-CA--C-[N] |==|  0.91947
USER: genes 7 Torsion [C]-N--CA-[C] |==|  0.63396
USER: genes 8 Torsion [N]-CA--CB-[CG2] |==|  0.75664
USER: genes 9 Torsion [CA]-CB--CG1-[CD1] |==|  0.56337
USER: genes 10 Torsion [N]-CA--C-[O] |==|  0.39655
USER: genes 11 Torsion [N]-CA--CB-[CG2] |==|  0.35560
USER: genes 12 Torsion [CA]-CB--CG1-[CD1] |==|  0.23205
USER: genes 13 Torsion [CB]-CA--N-[C] |==|  0.56111
USER: genes 14 Torsion [N]-C--CA-[N] |==|  0.01975
USER: genes 15 Torsion [C]-CA--N-[C] |==|  0.75378
USER: genes 16 Torsion [N]-C--CA-[N] |==|  0.89493
USER: genes 17 Torsion [C]-CA--CB-[OG1] |==|  0.67267
USER: genes 18 Torsion [CA]-CB--OG1-[HG1] |==|  0.14204
ROOT
ATOM      1  CA  SER D   8      12.804  22.469  47.730  1.00  5.81 LIG 0.20  C 
ENDROOT
BRANCH 1 2
ATOM      2  CB  SER D   8      12.156  22.472  49.116  1.00  5.44 LIG 0.20  C 
BRANCH 2 3
ATOM      3 OG   SER D   8      13.137  22.306  50.117  1.00  4.91 LIG-0.40  OA
ATOM      4 HG   SER D   8      13.653  22.969  50.117  1.00  4.91 LIG 0.21  HD
ENDBRANCH 2 3
ENDBRANCH 1 2
BRANCH 1 5
ATOM      5  C   SER D   8      12.622  23.822  47.089  1.00  6.04 LIG 0.24  C 
ATOM      6  N   ILE D   9      11.904  23.841  45.977  1.00  5.23 LIG-0.35  N 
ATOM      7 H    ILE D   9      11.634  23.135  45.566  1.00  5.23 LIG 0.16  HD
ATOM      8 O    SER D   8      13.131  24.826  47.582  1.00  7.88 LIG-0.27  OA
BRANCH 6 9
ATOM      9  CA  ILE D   9      11.508  25.089  45.351  1.00  5.91 LIG 0.18  C 
BRANCH 9 10
ATOM     10  C   ILE D   9       9.991  25.192  45.392  1.00  8.30 LIG 0.24  C 
ATOM     11  N   ILE D  10       9.333  24.040  45.380  1.00  7.14 LIG-0.34  N 
ATOM     12 H    ILE D  10       9.715  23.269  45.373  1.00  7.14 LIG 0.16  HD
ATOM     13 O    ILE D   9       9.429  26.294  45.404  1.00  8.28 LIG-0.27  OA
BRANCH 11 14
ATOM     14  CA  ILE D  10       7.874  23.987  45.377  1.00  6.72 LIG 0.19  C 
BRANCH 14 15
ATOM     15  CB  ILE D  10       7.328  23.567  44.004  1.00  6.99 LIG 0.01  C 
ATOM     16  CG2 ILE D  10       7.149  24.791  43.114  1.00  9.23 LIG 0.01  C 
BRANCH 15 17
ATOM     17  CG1 ILE D  10       8.282  22.583  43.327  1.00  6.78 LIG 0.00  C 
ATOM     18  CD1 ILE D  10       8.139  22.535  41.814  1.00  7.71 LIG 0.01  C 
ENDBRANCH 15 17
ENDBRANCH 14 15
BRANCH 14 19
ATOM     19  C   ILE D  10       7.395  23.011  46.429  1.00  8.00 LIG 0.20  C 
ATOM     20 O    ILE D  10       6.374  23.265  47.074  1.00  7.10 LIG-0.65  OA
ATOM     21 OXT  ILE D  10       8.009  21.967  46.631  1.00 10.02 LIG-0.65  OA
ENDBRANCH 14 19
ENDBRANCH 11 14
ENDBRANCH 9 10
BRANCH 9 22
ATOM     22  CB  ILE D   9      12.047  25.184  43.909  1.00  4.97 LIG 0.01  C 
ATOM     23  CG2 ILE D   9      10.914  25.519  42.932  1.00  9.61 LIG 0.01  C 
BRANCH 22 24
ATOM     24  CG1 ILE D   9      13.157  26.228  43.859  1.00  5.60 LIG 0.00  C 
ATOM     25  CD1 ILE D   9      14.530  25.710  44.276  1.00  8.38 LIG 0.01  C 
ENDBRANCH 22 24
ENDBRANCH 9 22
ENDBRANCH 6 9
ENDBRANCH 1 5
BRANCH 1 26
ATOM     26  N   SER D   8      14.225  22.179  47.821  1.00  6.06 LIG-0.34  N 
ATOM     27 H    SER D   8      14.458  21.768  48.539  1.00  6.06 LIG 0.16  HD
ATOM     28  C   THR D   7      15.069  22.532  46.860  1.00 11.81 LIG 0.24  C 
ATOM     29 O    THR D   7      14.704  22.998  45.773  1.00 11.44 LIG-0.27  OA
BRANCH 28 30
ATOM     30  CA  THR D   7      16.541  22.322  47.157  1.00  8.59 LIG 0.20  C 
BRANCH 30 31
ATOM     31  N   THR D   7      16.695  21.603  48.414  1.00 15.26 LIG-0.34  N 
ATOM     32 H    THR D   7      16.732  20.747  48.333  1.00 15.26 LIG 0.16  HD
ATOM     33  C   PRO D   6      16.770  22.241  49.576  1.00 19.06 LIG 0.25  C 
ATOM     34 O    PRO D   6      16.683  23.460  49.676  1.00 17.22 LIG-0.27  OA
BRANCH 33 35
ATOM     35  CA  PRO D   6      16.973  21.374  50.816  1.00 33.07 LIG 0.35  C 
ATOM     36  N   PRO D   6      16.230  20.109  50.752  1.00 36.75 LIG 0.32  N 
ATOM     37  CD  PRO D   6      17.101  18.950  50.995  1.00 36.34 LIG 0.32  C 
ATOM     38  CG  PRO D   6      18.438  19.461  50.579  1.00 37.69 LIG 0.04  C 
ATOM     39  CB  PRO D   6      18.437  20.922  50.921  1.00 35.30 LIG 0.05  C 
ENDBRANCH 33 35
ENDBRANCH 30 31
BRANCH 30 40
ATOM     40  CB  THR D   7      17.162  21.537  45.989  1.00 10.85 LIG 0.15  C 
ATOM     41  CG2 THR D   7      18.306  22.318  45.372  1.00 12.17 LIG 0.04  C 
BRANCH 40 42
ATOM     42 OG1  THR D   7      17.656  20.283  46.471  1.00 14.88 LIG-0.39  OA
ATOM     43 HG1  THR D   7      17.053  19.893  46.908  1.00 14.88 LIG 0.21  HD
ENDBRANCH 40 42
ENDBRANCH 30 40
ENDBRANCH 28 30
ENDBRANCH 1 26
TORSDOF 17
ENDMDL
MODEL 11
USER: ADFR SOLUTION from run 139
USER: SCORE 14.698333 LL:  -3.195 LR: -12.249 RR:   0.000 FEB:  -7.178
USER: RMSD 5.061841
USER: SEED 138
USER: STATUS no improvement in best in 8 clusters for 5 generations
USER: GENES 19
USER: genes 0 Translation |==|  0.45089 0.36845 0.53477
USER: genes 1 Rotation |==|  0.98947 0.45958 0.44553 0.57626
USER: genes 2 Torsion [C]-CA--CB-[OG] |==|  0.55759
USER: genes 3 Torsion [CA]-CB--OG-[HG] |==|  0.86560
USER: genes 4 Torsion [N]-CA--C-[N] |==|  0.38922
USER: genes 5 Torsion [C]-N--CA-[C] |==|  0.77876
USER: genes 6 Torsion [N]-CA--C-[N] |==|  0.88201
USER: genes 7 Torsion [C]-N--CA-[C] |==|  0.47026
USER: genes 8 Torsion [N]-CA--CB-[CG2] |==|  0.19132
USER: genes 9 Torsion [CA]-CB--CG1-[CD1] |==|  0.51759
USER: genes 10 Torsion [N]-CA--C-[O] |==|  0.94510
USER: genes 11 Torsion [N]-CA--CB-[CG2] |==|  0.17365
USER: genes 12 Torsion [CA]-CB--CG1-[CD1] |==|  0.72770
USER: genes 13 Torsion [CB]-CA--N-[C] |==|  0.53359
USER: genes 14 Torsion [N]-C--CA-[N] |==|  0.14383
USER: genes 15 Torsion [C]-CA--N-[C] |==|  0.12867
USER: genes 16 Torsion [N]-C--CA-[N] |==|  0.41271
USER: genes 17 Torsion [C]-CA--CB-[OG1] |==|  0.70290
USER: genes 18 Torsion [CA]-CB--OG1-[HG1] |==|  0.27859
ROOT
ATOM      1  CA  SER D   8      13.044  23.269  46.345  1.00  5.81 LIG 0.20  C 
ENDROOT
BRANCH 1 2
ATOM      2  CB  SER D   8      12.483  22.893  47.718  1.00  5.44 LIG 0.20  C 
BRANCH 2 3
ATOM      3 OG   SER D   8      13.456  22.202  48.473  1.00  4.91 LIG-0.40  OA
ATOM      4 HG   SER D   8      13.794  21.593  48.004  1.00  4.91 LIG 0.21  HD
ENDBRANCH 2 3
ENDBRANCH 1 2
BRANCH 1 5
ATOM      5  C   SER D   8      12.234  24.404  45.767  1.00  6.04 LIG 0.24  C 
ATOM      6  N   ILE D   9      11.300  24.059  44.894  1.00  5.23 LIG-0.35  N 
ATOM      7 H    ILE D   9      11.206  23.265  44.579  1.00  5.23 LIG 0.16  HD
ATOM      8 O    SER D   8      12.458  25.567  46.094  1.00  7.88 LIG-0.27  OA
BRANCH 6 9
ATOM      9  CA  ILE D   9      10.341  25.023  44.390  1.00  5.91 LIG 0.18  C 
BRANCH 9 10
ATOM     10  C   ILE D   9       9.250  25.212  45.433  1.00  8.30 LIG 0.24  C 
ATOM     11  N   ILE D  10       8.813  24.104  46.019  1.00  7.14 LIG-0.34  N 
ATOM     12 H    ILE D  10       9.126  23.320  45.856  1.00  7.14 LIG 0.16  HD
ATOM     13 O    ILE D   9       8.792  26.335  45.679  1.00  8.28 LIG-0.27  OA
BRANCH 11 14
ATOM     14  CA  ILE D  10       7.742  24.130  47.010  1.00  6.72 LIG 0.19  C 
BRANCH 14 15
ATOM     15  CB  ILE D  10       6.547  24.966  46.528  1.00  6.99 LIG 0.01  C 
ATOM     16  CG2 ILE D  10       5.850  24.264  45.370  1.00  9.23 LIG 0.01  C 
BRANCH 15 17
ATOM     17  CG1 ILE D  10       5.549  25.180  47.668  1.00  6.78 LIG 0.00  C 
ATOM     18  CD1 ILE D  10       4.265  25.869  47.234  1.00  7.71 LIG 0.01  C 
ENDBRANCH 15 17
ENDBRANCH 14 15
BRANCH 14 19
ATOM     19  C   ILE D  10       7.283  22.718  47.303  1.00  8.00 LIG 0.20  C 
ATOM     20 O    ILE D  10       7.530  21.818  46.495  1.00  7.10 LIG-0.65  OA
ATOM     21 OXT  ILE D  10       6.681  22.465  48.343  1.00 10.02 LIG-0.65  OA
ENDBRANCH 14 19
ENDBRANCH 11 14
ENDBRANCH 9 10
BRANCH 9 22
ATOM     22  CB  ILE D   9       9.761  24.575  43.033  1.00  4.97 LIG 0.01  C 
ATOM     23  CG2 ILE D   9       8.995  23.256  43.185  1.00  9.61 LIG 0.01  C 
BRANCH 22 24
ATOM     24  CG1 ILE D   9       8.866  25.682  42.484  1.00  5.60 LIG 0.00  C 
ATOM     25  CD1 ILE D   9       7.377  25.477  42.746  1.00  8.38 LIG 0.01  C 
ENDBRANCH 22 24
ENDBRANCH 9 22
ENDBRANCH 6 9
ENDBRANCH 1 5
BRANCH 1 26
ATOM     26  N   SER D   8      14.432  23.686  46.447  1.00  6.06 LIG-0.34  N 
ATOM     27 H    SER D   8      14.799  23.515  47.204  1.00  6.06 LIG 0.16  HD
ATOM     28  C   THR D   7      15.055  24.279  45.436  1.00 11.81 LIG 0.24  C 
ATOM     29 O    THR D   7      14.561  24.394  44.307  1.00 11.44 LIG-0.27  OA
BRANCH 28 30
ATOM     30  CA  THR D   7      16.443  24.812  45.731  1.00  8.59 LIG 0.20  C 
BRANCH 30 31
ATOM     31  N   THR D   7      17.258  23.767  46.335  1.00 15.26 LIG-0.34  N 
ATOM     32 H    THR D   7      17.702  24.017  47.027  1.00 15.26 LIG 0.16  HD
ATOM     33  C   PRO D   6      17.294  22.537  45.836  1.00 19.06 LIG 0.25  C 
ATOM     34 O    PRO D   6      16.678  22.206  44.828  1.00 17.22 LIG-0.27  OA
BRANCH 33 35
ATOM     35  CA  PRO D   6      18.154  21.524  46.586  1.00 33.07 LIG 0.35  C 
ATOM     36  N   PRO D   6      17.629  20.156  46.495  1.00 36.75 LIG 0.32  N 
ATOM     37  CD  PRO D   6      18.650  19.208  46.022  1.00 36.34 LIG 0.32  C 
ATOM     38  CG  PRO D   6      19.567  20.088  45.244  1.00 37.69 LIG 0.04  C 
ATOM     39  CB  PRO D   6      19.544  21.416  45.941  1.00 35.30 LIG 0.05  C 
ENDBRANCH 33 35
ENDBRANCH 30 31
BRANCH 30 40
ATOM     40  CB  THR D   7      17.062  25.305  44.412  1.00 10.85 LIG 0.15  C 
ATOM     41  CG2 THR D   7      17.680  26.679  44.594  1.00 12.17 LIG 0.04  C 
BRANCH 40 42
ATOM     42 OG1  THR D   7      18.076  24.387  43.992  1.00 14.88 LIG-0.39  OA
ATOM     43 HG1  THR D   7      17.767  23.883  43.394  1.00 14.88 LIG 0.21  HD
ENDBRANCH 40 42
ENDBRANCH 30 40
ENDBRANCH 28 30
ENDBRANCH 1 26
TORSDOF 17
ENDMDL
MODEL 12
USER: ADFR SOLUTION from run 52
USER: SCORE 14.307676 LL:  -2.827 LR: -12.245 RR:   0.000 FEB:  -7.174
USER: RMSD 6.020293
USER: SEED 51
USER: STATUS no improvement in best in 4 clusters for 5 generations
USER: GENES 19
USER: genes 0 Translation |==|  0.36745 0.40385 0.53936
USER: genes 1 Rotation |==|  0.98636 0.50648 0.48335 0.61459
USER: genes 2 Torsion [C]-CA--CB-[OG] |==|  0.21401
USER: genes 3 Torsion [CA]-CB--OG-[HG] |==|  0.04016
USER: genes 4 Torsion [N]-CA--C-[N] |==|  0.45442
USER: genes 5 Torsion [C]-N--CA-[C] |==|  0.67425
USER: genes 6 Torsion [N]-CA--C-[N] |==|  0.39267
USER: genes 7 Torsion [C]-N--CA-[C] |==|  0.67979
USER: genes 8 Torsion [N]-CA--CB-[CG2] |==|  0.56612
USER: genes 9 Torsion [CA]-CB--CG1-[CD1] |==|  0.82102
USER: genes 10 Torsion [N]-CA--C-[O] |==|  0.53551
USER: genes 11 Torsion [N]-CA--CB-[CG2] |==|  0.78346
USER: genes 12 Torsion [CA]-CB--CG1-[CD1] |==|  0.51980
USER: genes 13 Torsion [CB]-CA--N-[C] |==|  0.52222
USER: genes 14 Torsion [N]-C--CA-[N] |==|  0.16601
USER: genes 15 Torsion [C]-CA--N-[C] |==|  0.13676
USER: genes 16 Torsion [N]-C--CA-[N] |==|  0.39372
USER: genes 17 Torsion [C]-CA--CB-[OG1] |==|  0.87039
USER: genes 18 Torsion [CA]-CB--OG1-[HG1] |==|  0.76248
ROOT
ATOM      1  CA  SER D   8      10.978  23.774  46.424  1.00  5.81 LIG 0.20  C 
ENDROOT
BRANCH 1 2
ATOM      2  CB  SER D   8      10.349  23.463  47.784  1.00  5.44 LIG 0.20  C 
BRANCH 2 3
ATOM      3 OG   SER D   8       9.383  22.442  47.655  1.00  4.91 LIG-0.40  OA
ATOM      4 HG   SER D   8       9.472  22.063  46.911  1.00  4.91 LIG 0.21  HD
ENDBRANCH 2 3
ENDBRANCH 1 2
BRANCH 1 5
ATOM      5  C   SER D   8      10.022  24.608  45.609  1.00  6.04 LIG 0.24  C 
ATOM      6  N   ILE D   9       8.987  23.962  45.094  1.00  5.23 LIG-0.35  N 
ATOM      7 H    ILE D   9       8.894  23.108  45.117  1.00  5.23 LIG 0.16  HD
ATOM      8 O    SER D   8      10.222  25.809  45.437  1.00  7.88 LIG-0.27  OA
BRANCH 6 9
ATOM      9  CA  ILE D   9       7.905  24.668  44.435  1.00  5.91 LIG 0.18  C 
BRANCH 9 10
ATOM     10  C   ILE D   9       6.622  24.427  45.216  1.00  8.30 LIG 0.24  C 
ATOM     11  N   ILE D  10       5.804  25.468  45.319  1.00  7.14 LIG-0.34  N 
ATOM     12 H    ILE D  10       5.955  26.234  44.958  1.00  7.14 LIG 0.16  HD
ATOM     13 O    ILE D   9       6.392  23.330  45.739  1.00  8.28 LIG-0.27  OA
BRANCH 11 14
ATOM     14  CA  ILE D  10       4.557  25.393  46.072  1.00  6.72 LIG 0.19  C 
BRANCH 14 15
ATOM     15  CB  ILE D  10       4.496  26.465  47.170  1.00  6.99 LIG 0.01  C 
ATOM     16  CG2 ILE D  10       3.538  26.032  48.273  1.00  9.23 LIG 0.01  C 
BRANCH 15 17
ATOM     17  CG1 ILE D  10       5.884  26.700  47.767  1.00  6.78 LIG 0.00  C 
ATOM     18  CD1 ILE D  10       6.451  25.489  48.492  1.00  7.71 LIG 0.01  C 
ENDBRANCH 15 17
ENDBRANCH 14 15
BRANCH 14 19
ATOM     19  C   ILE D  10       3.382  25.567  45.133  1.00  8.00 LIG 0.20  C 
ATOM     20 O    ILE D  10       2.257  25.772  45.599  1.00  7.10 LIG-0.65  OA
ATOM     21 OXT  ILE D  10       3.548  25.519  43.918  1.00 10.02 LIG-0.65  OA
ENDBRANCH 14 19
ENDBRANCH 11 14
ENDBRANCH 9 10
BRANCH 9 22
ATOM     22  CB  ILE D   9       7.767  24.226  42.963  1.00  4.97 LIG 0.01  C 
ATOM     23  CG2 ILE D   9       8.843  24.894  42.099  1.00  9.61 LIG 0.01  C 
BRANCH 22 24
ATOM     24  CG1 ILE D   9       7.853  22.705  42.890  1.00  5.60 LIG 0.00  C 
ATOM     25  CD1 ILE D   9       7.903  22.144  41.471  1.00  8.38 LIG 0.01  C 
ENDBRANCH 22 24
ENDBRANCH 9 22
ENDBRANCH 6 9
ENDBRANCH 1 5
BRANCH 1 26
ATOM     26  N   SER D   8      12.224  24.505  46.583  1.00  6.06 LIG-0.34  N 
ATOM     27 H    SER D   8      12.496  24.571  47.396  1.00  6.06 LIG 0.16  HD
ATOM     28  C   THR D   7      12.866  25.019  45.541  1.00 11.81 LIG 0.24  C 
ATOM     29 O    THR D   7      12.539  24.801  44.367  1.00 11.44 LIG-0.27  OA
BRANCH 28 30
ATOM     30  CA  THR D   7      14.057  25.899  45.862  1.00  8.59 LIG 0.20  C 
BRANCH 30 31
ATOM     31  N   THR D   7      15.049  25.138  46.610  1.00 15.26 LIG-0.34  N 
ATOM     32 H    THR D   7      15.335  25.528  47.321  1.00 15.26 LIG 0.16  HD
ATOM     33  C   PRO D   6      15.459  23.943  46.204  1.00 19.06 LIG 0.25  C 
ATOM     34 O    PRO D   6      15.063  23.415  45.170  1.00 17.22 LIG-0.27  OA
BRANCH 33 35
ATOM     35  CA  PRO D   6      16.470  23.230  47.100  1.00 33.07 LIG 0.35  C 
ATOM     36  N   PRO D   6      16.235  21.784  47.183  1.00 36.75 LIG 0.32  N 
ATOM     37  CD  PRO D   6      17.445  21.013  46.861  1.00 36.34 LIG 0.32  C 
ATOM     38  CG  PRO D   6      18.202  21.956  45.989  1.00 37.69 LIG 0.04  C 
ATOM     39  CB  PRO D   6      17.881  23.328  46.501  1.00 35.30 LIG 0.05  C 
ENDBRANCH 33 35
ENDBRANCH 30 31
BRANCH 30 40
ATOM     40  CB  THR D   7      14.643  26.422  44.539  1.00 10.85 LIG 0.15  C 
ATOM     41  CG2 THR D   7      16.011  27.035  44.767  1.00 12.17 LIG 0.04  C 
BRANCH 40 42
ATOM     42 OG1  THR D   7      14.763  25.337  43.613  1.00 14.88 LIG-0.39  OA
ATOM     43 HG1  THR D   7      15.493  24.941  43.739  1.00 14.88 LIG 0.21  HD
ENDBRANCH 40 42
ENDBRANCH 30 40
ENDBRANCH 28 30
ENDBRANCH 1 26
TORSDOF 17
ENDMDL
MODEL 13
USER: ADFR SOLUTION from run 44
USER: SCORE 14.700235 LL:  -3.315 LR: -12.207 RR:   0.000 FEB:  -7.136
USER: RMSD 5.251477
USER: SEED 43
USER: STATUS searching
USER: GENES 19
USER: genes 0 Translation |==|  0.44804 0.33747 0.57923
USER: genes 1 Rotation |==|  0.98596 0.47560 0.40595 0.56636
USER: genes 2 Torsion [C]-CA--CB-[OG] |==|  0.59027
USER: genes 3 Torsion [CA]-CB--OG-[HG] |==|  0.87111
USER: genes 4 Torsion [N]-CA--C-[N] |==|  0.31886
USER: genes 5 Torsion [C]-N--CA-[C] |==|  0.78889
USER: genes 6 Torsion [N]-CA--C-[N] |==|  0.87778
USER: genes 7 Torsion [C]-N--CA-[C] |==|  0.12922
USER: genes 8 Torsion [N]-CA--CB-[CG2] |==|  0.55364
USER: genes 9 Torsion [CA]-CB--CG1-[CD1] |==|  0.78718
USER: genes 10 Torsion [N]-CA--C-[O] |==|  0.66000
USER: genes 11 Torsion [N]-CA--CB-[CG2] |==|  0.18094
USER: genes 12 Torsion [CA]-CB--CG1-[CD1] |==|  0.69993
USER: genes 13 Torsion [CB]-CA--N-[C] |==|  0.52784
USER: genes 14 Torsion [N]-C--CA-[N] |==|  0.14086
USER: genes 15 Torsion [C]-CA--N-[C] |==|  0.14514
USER: genes 16 Torsion [N]-C--CA-[N] |==|  0.40720
USER: genes 17 Torsion [C]-CA--CB-[OG1] |==|  0.65368
USER: genes 18 Torsion [CA]-CB--OG1-[HG1] |==|  0.34782
ROOT
ATOM      1  CA  SER D   8      12.973  22.828  47.112  1.00  5.81 LIG 0.20  C 
ENDROOT
BRANCH 1 2
ATOM      2  CB  SER D   8      12.655  22.358  48.533  1.00  5.44 LIG 0.20  C 
BRANCH 2 3
ATOM      3 OG   SER D   8      13.829  21.908  49.175  1.00  4.91 LIG-0.40  OA
ATOM      4 HG   SER D   8      14.256  21.402  48.657  1.00  4.91 LIG 0.21  HD
ENDBRANCH 2 3
ENDBRANCH 1 2
BRANCH 1 5
ATOM      5  C   SER D   8      12.048  23.960  46.740  1.00  6.04 LIG 0.24  C 
ATOM      6  N   ILE D   9      11.331  23.782  45.642  1.00  5.23 LIG-0.35  N 
ATOM      7 H    ILE D   9      11.438  23.123  45.099  1.00  5.23 LIG 0.16  HD
ATOM      8 O    SER D   8      11.994  24.979  47.425  1.00  7.88 LIG-0.27  OA
BRANCH 6 9
ATOM      9  CA  ILE D   9      10.283  24.710  45.261  1.00  5.91 LIG 0.18  C 
BRANCH 9 10
ATOM     10  C   ILE D   9       9.070  24.462  46.146  1.00  8.30 LIG 0.24  C 
ATOM     11  N   ILE D  10       8.746  23.189  46.338  1.00  7.14 LIG-0.34  N 
ATOM     12 H    ILE D  10       9.190  22.527  46.014  1.00  7.14 LIG 0.16  HD
ATOM     13 O    ILE D   9       8.425  25.404  46.620  1.00  8.28 LIG-0.27  OA
BRANCH 11 14
ATOM     14  CA  ILE D  10       7.584  22.803  47.131  1.00  6.72 LIG 0.19  C 
BRANCH 14 15
ATOM     15  CB  ILE D  10       7.843  22.983  48.635  1.00  6.99 LIG 0.01  C 
ATOM     16  CG2 ILE D  10       6.850  22.155  49.440  1.00  9.23 LIG 0.01  C 
BRANCH 15 17
ATOM     17  CG1 ILE D  10       9.268  22.552  48.988  1.00  6.78 LIG 0.00  C 
ATOM     18  CD1 ILE D  10       9.453  21.044  49.048  1.00  7.71 LIG 0.01  C 
ENDBRANCH 15 17
ENDBRANCH 14 15
BRANCH 14 19
ATOM     19  C   ILE D  10       6.388  23.634  46.724  1.00  8.00 LIG 0.20  C 
ATOM     20 O    ILE D  10       5.802  24.314  47.572  1.00  7.10 LIG-0.65  OA
ATOM     21 OXT  ILE D  10       6.009  23.644  45.555  1.00 10.02 LIG-0.65  OA
ENDBRANCH 14 19
ENDBRANCH 11 14
ENDBRANCH 9 10
BRANCH 9 22
ATOM     22  CB  ILE D   9       9.934  24.574  43.765  1.00  4.97 LIG 0.01  C 
ATOM     23  CG2 ILE D   9       9.328  23.196  43.477  1.00  9.61 LIG 0.01  C 
BRANCH 22 24
ATOM     24  CG1 ILE D   9       8.982  25.698  43.372  1.00  5.60 LIG 0.00  C 
ATOM     25  CD1 ILE D   9       7.546  25.248  43.116  1.00  8.38 LIG 0.01  C 
ENDBRANCH 22 24
ENDBRANCH 9 22
ENDBRANCH 6 9
ENDBRANCH 1 5
BRANCH 1 26
ATOM     26  N   SER D   8      14.347  23.290  47.012  1.00  6.06 LIG-0.34  N 
ATOM     27 H    SER D   8      14.830  23.118  47.701  1.00  6.06 LIG 0.16  HD
ATOM     28  C   THR D   7      14.790  23.924  45.934  1.00 11.81 LIG 0.24  C 
ATOM     29 O    THR D   7      14.126  24.044  44.896  1.00 11.44 LIG-0.27  OA
BRANCH 28 30
ATOM     30  CA  THR D   7      16.189  24.499  46.028  1.00  8.59 LIG 0.20  C 
BRANCH 30 31
ATOM     31  N   THR D   7      17.115  23.478  46.500  1.00 15.26 LIG-0.34  N 
ATOM     32 H    THR D   7      17.591  23.715  47.176  1.00 15.26 LIG 0.16  HD
ATOM     33  C   PRO D   6      17.195  22.289  45.916  1.00 19.06 LIG 0.25  C 
ATOM     34 O    PRO D   6      16.529  21.980  44.933  1.00 17.22 LIG-0.27  OA
BRANCH 33 35
ATOM     35  CA  PRO D   6      18.174  21.293  46.533  1.00 33.07 LIG 0.35  C 
ATOM     36  N   PRO D   6      17.714  19.904  46.426  1.00 36.75 LIG 0.32  N 
ATOM     37  CD  PRO D   6      18.732  19.036  45.814  1.00 36.34 LIG 0.32  C 
ATOM     38  CG  PRO D   6      19.523  19.998  44.997  1.00 37.69 LIG 0.04  C 
ATOM     39  CB  PRO D   6      19.499  21.291  45.756  1.00 35.30 LIG 0.05  C 
ENDBRANCH 33 35
ENDBRANCH 30 31
BRANCH 30 40
ATOM     40  CB  THR D   7      16.595  25.015  44.637  1.00 10.85 LIG 0.15  C 
ATOM     41  CG2 THR D   7      16.776  26.520  44.659  1.00 12.17 LIG 0.04  C 
BRANCH 40 42
ATOM     42 OG1  THR D   7      17.826  24.400  44.244  1.00 14.88 LIG-0.39  OA
ATOM     43 HG1  THR D   7      17.728  24.027  43.498  1.00 14.88 LIG 0.21  HD
ENDBRANCH 40 42
ENDBRANCH 30 40
ENDBRANCH 28 30
ENDBRANCH 1 26
TORSDOF 17
ENDMDL
MODEL 14
USER: ADFR SOLUTION from run 108
USER: SCORE 14.787399 LL:  -4.614 LR: -12.179 RR:   0.000 FEB:  -7.108
USER: RMSD 8.041102
USER: SEED 107
USER: STATUS no improvement in best in 1 clusters for 5 generations
USER: GENES 19
USER: genes 0 Translation |==|  0.26965 0.41321 0.41368
USER: genes 1 Rotation |==|  0.05129 0.50440 0.53920 0.71704
USER: genes 2 Torsion [C]-CA--CB-[OG] |==|  0.82714
USER: genes 3 Torsion [CA]-CB--OG-[HG] |==|  0.83876
USER: genes 4 Torsion [N]-CA--C-[N] |==|  0.59834
USER: genes 5 Torsion [C]-N--CA-[C] |==|  0.81390
USER: genes 6 Torsion [N]-CA--C-[N] |==|  0.93259
USER: genes 7 Torsion [C]-N--CA-[C] |==|  0.70732
USER: genes 8 Torsion [N]-CA--CB-[CG2] |==|  0.25561
USER: genes 9 Torsion [CA]-CB--CG1-[CD1] |==|  0.08550
USER: genes 10 Torsion [N]-CA--C-[O] |==|  0.94085
USER: genes 11 Torsion [N]-CA--CB-[CG2] |==|  0.47708
USER: genes 12 Torsion [CA]-CB--CG1-[CD1] |==|  0.61852
USER: genes 13 Torsion [CB]-CA--N-[C] |==|  0.43147
USER: genes 14 Torsion [N]-C--CA-[N] |==|  0.03897
USER: genes 15 Torsion [C]-CA--N-[C] |==|  0.63334
USER: genes 16 Torsion [N]-C--CA-[N] |==|  0.44839
USER: genes 17 Torsion [C]-CA--CB-[OG1] |==|  0.59996
USER: genes 18 Torsion [CA]-CB--OG1-[HG1] |==|  0.50606
ROOT
ATOM      1  CA  SER D   8       8.558  23.907  44.256  1.00  5.81 LIG 0.20  C 
ENDROOT
BRANCH 1 2
ATOM      2  CB  SER D   8       7.906  22.525  44.331  1.00  5.44 LIG 0.20  C 
BRANCH 2 3
ATOM      3 OG   SER D   8       7.858  22.076  45.669  1.00  4.91 LIG-0.40  OA
ATOM      4 HG   SER D   8       8.635  22.054  45.985  1.00  4.91 LIG 0.21  HD
ENDBRANCH 2 3
ENDBRANCH 1 2
BRANCH 1 5
ATOM      5  C   SER D   8       7.723  24.897  45.030  1.00  6.04 LIG 0.24  C 
ATOM      6  N   ILE D   9       6.449  24.574  45.191  1.00  5.23 LIG-0.35  N 
ATOM      7 H    ILE D   9       6.069  23.905  44.806  1.00  5.23 LIG 0.16  HD
ATOM      8 O    SER D   8       8.216  25.937  45.459  1.00  7.88 LIG-0.27  OA
BRANCH 6 9
ATOM      9  CA  ILE D   9       5.575  25.346  46.054  1.00  5.91 LIG 0.18  C 
BRANCH 9 10
ATOM     10  C   ILE D   9       6.037  25.173  47.493  1.00  8.30 LIG 0.24  C 
ATOM     11  N   ILE D  10       6.721  24.065  47.751  1.00  7.14 LIG-0.34  N 
ATOM     12 H    ILE D  10       6.924  23.477  47.156  1.00  7.14 LIG 0.16  HD
ATOM     13 O    ILE D   9       5.754  26.011  48.357  1.00  8.28 LIG-0.27  OA
BRANCH 11 14
ATOM     14  CA  ILE D  10       7.194  23.749  49.095  1.00  6.72 LIG 0.19  C 
BRANCH 14 15
ATOM     15  CB  ILE D  10       6.883  22.293  49.474  1.00  6.99 LIG 0.01  C 
ATOM     16  CG2 ILE D  10       8.058  21.394  49.109  1.00  9.23 LIG 0.01  C 
BRANCH 15 17
ATOM     17  CG1 ILE D  10       6.603  22.179  50.973  1.00  6.78 LIG 0.00  C 
ATOM     18  CD1 ILE D  10       5.976  23.426  51.575  1.00  7.71 LIG 0.01  C 
ENDBRANCH 15 17
ENDBRANCH 14 15
BRANCH 14 19
ATOM     19  C   ILE D  10       8.686  23.983  49.180  1.00  8.00 LIG 0.20  C 
ATOM     20 O    ILE D  10       9.360  23.994  48.145  1.00  7.10 LIG-0.65  OA
ATOM     21 OXT  ILE D  10       9.223  24.175  50.268  1.00 10.02 LIG-0.65  OA
ENDBRANCH 14 19
ENDBRANCH 11 14
ENDBRANCH 9 10
BRANCH 9 22
ATOM     22  CB  ILE D   9       4.102  24.925  45.875  1.00  4.97 LIG 0.01  C 
ATOM     23  CG2 ILE D   9       3.217  25.598  46.931  1.00  9.61 LIG 0.01  C 
BRANCH 22 24
ATOM     24  CG1 ILE D   9       3.652  25.277  44.461  1.00  5.60 LIG 0.00  C 
ATOM     25  CD1 ILE D   9       2.259  25.894  44.377  1.00  8.38 LIG 0.01  C 
ENDBRANCH 22 24
ENDBRANCH 9 22
ENDBRANCH 6 9
ENDBRANCH 1 5
BRANCH 1 26
ATOM     26  N   SER D   8       9.897  23.881  44.818  1.00  6.06 LIG-0.34  N 
ATOM     27 H    SER D   8      10.030  23.255  45.392  1.00  6.06 LIG 0.16  HD
ATOM     28  C   THR D   7      10.820  24.764  44.456  1.00 11.81 LIG 0.24  C 
ATOM     29 O    THR D   7      10.661  25.571  43.531  1.00 11.44 LIG-0.27  OA
BRANCH 28 30
ATOM     30  CA  THR D   7      12.117  24.730  45.240  1.00  8.59 LIG 0.20  C 
BRANCH 30 31
ATOM     31  N   THR D   7      12.193  23.502  46.019  1.00 15.26 LIG-0.34  N 
ATOM     32 H    THR D   7      12.008  22.788  45.577  1.00 15.26 LIG 0.16  HD
ATOM     33  C   PRO D   6      12.525  23.514  47.304  1.00 19.06 LIG 0.25  C 
ATOM     34 O    PRO D   6      12.756  24.545  47.926  1.00 17.22 LIG-0.27  OA
BRANCH 33 35
ATOM     35  CA  PRO D   6      12.610  22.155  47.997  1.00 33.07 LIG 0.35  C 
ATOM     36  N   PRO D   6      13.382  22.203  49.245  1.00 36.75 LIG 0.32  N 
ATOM     37  CD  PRO D   6      12.628  21.638  50.375  1.00 36.34 LIG 0.32  C 
ATOM     38  CG  PRO D   6      11.214  21.837  49.948  1.00 37.69 LIG 0.04  C 
ATOM     39  CB  PRO D   6      11.218  21.697  48.455  1.00 35.30 LIG 0.05  C 
ENDBRANCH 33 35
ENDBRANCH 30 31
BRANCH 30 40
ATOM     40  CB  THR D   7      13.286  24.829  44.245  1.00 10.85 LIG 0.15  C 
ATOM     41  CG2 THR D   7      13.756  26.265  44.116  1.00 12.17 LIG 0.04  C 
BRANCH 40 42
ATOM     42 OG1  THR D   7      14.372  24.019  44.708  1.00 14.88 LIG-0.39  OA
ATOM     43 HG1  THR D   7      15.022  24.095  44.181  1.00 14.88 LIG 0.21  HD
ENDBRANCH 40 42
ENDBRANCH 30 40
ENDBRANCH 28 30
ENDBRANCH 1 26
TORSDOF 17
ENDMDL
MODEL 15
USER: ADFR SOLUTION from run 17
USER: SCORE 14.623999 LL:  -3.024 LR: -12.185 RR:   0.000 FEB:  -7.114
USER: RMSD 7.150492
USER: SEED 16
USER: STATUS 1 or 2 clusters left
USER: GENES 19
USER: genes 0 Translation |==|  0.32080 0.34313 0.61844
USER: genes 1 Rotation |==|  0.94221 0.39966 0.36235 0.65947
USER: genes 2 Torsion [C]-CA--CB-[OG] |==|  0.56674
USER: genes 3 Torsion [CA]-CB--OG-[HG] |==|  0.28799
USER: genes 4 Torsion [N]-CA--C-[N] |==|  0.20375
USER: genes 5 Torsion [C]-N--CA-[C] |==|  0.83294
USER: genes 6 Torsion [N]-CA--C-[N] |==|  0.35760
USER: genes 7 Torsion [C]-N--CA-[C] |==|  0.20909
USER: genes 8 Torsion [N]-CA--CB-[CG2] |==|  0.51494
USER: genes 9 Torsion [CA]-CB--CG1-[CD1] |==|  0.62531
USER: genes 10 Torsion [N]-CA--C-[O] |==|  0.41744
USER: genes 11 Torsion [N]-CA--CB-[CG2] |==|  0.73539
USER: genes 12 Torsion [CA]-CB--CG1-[CD1] |==|  0.50147
USER: genes 13 Torsion [CB]-CA--N-[C] |==|  0.80556
USER: genes 14 Torsion [N]-C--CA-[N] |==|  0.88534
USER: genes 15 Torsion [C]-CA--N-[C] |==|  0.81493
USER: genes 16 Torsion [N]-C--CA-[N] |==|  0.19183
USER: genes 17 Torsion [C]-CA--CB-[OG1] |==|  0.37320
USER: genes 18 Torsion [CA]-CB--OG1-[HG1] |==|  0.42413
ROOT
ATOM      1  CA  SER D   8       9.824  22.909  47.788  1.00  5.81 LIG 0.20  C 
ENDROOT
BRANCH 1 2
ATOM      2  CB  SER D   8       9.750  23.151  49.297  1.00  5.44 LIG 0.20  C 
BRANCH 2 3
ATOM      3 OG   SER D   8      10.823  22.506  49.951  1.00  4.91 LIG-0.40  OA
ATOM      4 HG   SER D   8      11.403  23.075  50.165  1.00  4.91 LIG 0.21  HD
ENDBRANCH 2 3
ENDBRANCH 1 2
BRANCH 1 5
ATOM      5  C   SER D   8       9.095  24.015  47.067  1.00  6.04 LIG 0.24  C 
ATOM      6  N   ILE D   9       8.814  23.787  45.794  1.00  5.23 LIG-0.35  N 
ATOM      7 H    ILE D   9       9.105  23.109  45.351  1.00  5.23 LIG 0.16  HD
ATOM      8 O    SER D   8       8.805  25.060  47.646  1.00  7.88 LIG-0.27  OA
BRANCH 6 9
ATOM      9  CA  ILE D   9       7.973  24.688  45.029  1.00  5.91 LIG 0.18  C 
BRANCH 9 10
ATOM     10  C   ILE D   9       6.605  24.754  45.692  1.00  8.30 LIG 0.24  C 
ATOM     11  N   ILE D  10       6.143  25.973  45.943  1.00  7.14 LIG-0.34  N 
ATOM     12 H    ILE D  10       6.559  26.696  45.733  1.00  7.14 LIG 0.16  HD
ATOM     13 O    ILE D   9       5.995  23.722  45.996  1.00  8.28 LIG-0.27  OA
BRANCH 11 14
ATOM     14  CA  ILE D  10       4.863  26.188  46.609  1.00  6.72 LIG 0.19  C 
BRANCH 14 15
ATOM     15  CB  ILE D  10       3.761  25.300  46.013  1.00  6.99 LIG 0.01  C 
ATOM     16  CG2 ILE D  10       2.415  25.644  46.639  1.00  9.23 LIG 0.01  C 
BRANCH 15 17
ATOM     17  CG1 ILE D  10       3.679  25.493  44.497  1.00  6.78 LIG 0.00  C 
ATOM     18  CD1 ILE D  10       2.259  25.645  43.976  1.00  7.71 LIG 0.01  C 
ENDBRANCH 15 17
ENDBRANCH 14 15
BRANCH 14 19
ATOM     19  C   ILE D  10       5.001  25.894  48.087  1.00  8.00 LIG 0.20  C 
ATOM     20 O    ILE D  10       4.287  26.495  48.896  1.00  7.10 LIG-0.65  OA
ATOM     21 OXT  ILE D  10       5.805  25.053  48.480  1.00 10.02 LIG-0.65  OA
ENDBRANCH 14 19
ENDBRANCH 11 14
ENDBRANCH 9 10
BRANCH 9 22
ATOM     22  CB  ILE D   9       7.872  24.241  43.557  1.00  4.97 LIG 0.01  C 
ATOM     23  CG2 ILE D   9       8.901  24.983  42.697  1.00  9.61 LIG 0.01  C 
BRANCH 22 24
ATOM     24  CG1 ILE D   9       8.063  22.730  43.481  1.00  5.60 LIG 0.00  C 
ATOM     25  CD1 ILE D   9       7.998  22.156  42.068  1.00  8.38 LIG 0.01  C 
ENDBRANCH 22 24
ENDBRANCH 9 22
ENDBRANCH 6 9
ENDBRANCH 1 5
BRANCH 1 26
ATOM     26  N   SER D   8      11.203  22.879  47.334  1.00  6.06 LIG-0.34  N 
ATOM     27 H    SER D   8      11.481  22.103  47.089  1.00  6.06 LIG 0.16  HD
ATOM     28  C   THR D   7      11.950  23.976  47.308  1.00 11.81 LIG 0.24  C 
ATOM     29 O    THR D   7      11.501  25.108  47.530  1.00 11.44 LIG-0.27  OA
BRANCH 28 30
ATOM     30  CA  THR D   7      13.415  23.776  46.975  1.00  8.59 LIG 0.20  C 
BRANCH 30 31
ATOM     31  N   THR D   7      13.921  22.592  47.656  1.00 15.26 LIG-0.34  N 
ATOM     32 H    THR D   7      14.141  21.947  47.131  1.00 15.26 LIG 0.16  HD
ATOM     33  C   PRO D   6      14.023  22.540  48.978  1.00 19.06 LIG 0.25  C 
ATOM     34 O    PRO D   6      13.675  23.458  49.712  1.00 17.22 LIG-0.27  OA
BRANCH 33 35
ATOM     35  CA  PRO D   6      14.609  21.257  49.565  1.00 33.07 LIG 0.35  C 
ATOM     36  N   PRO D   6      16.037  21.097  49.266  1.00 36.75 LIG 0.32  N 
ATOM     37  CD  PRO D   6      16.826  20.857  50.484  1.00 36.34 LIG 0.32  C 
ATOM     38  CG  PRO D   6      15.988  21.493  51.539  1.00 37.69 LIG 0.04  C 
ATOM     39  CB  PRO D   6      14.567  21.300  51.099  1.00 35.30 LIG 0.05  C 
ENDBRANCH 33 35
ENDBRANCH 30 31
BRANCH 30 40
ATOM     40  CB  THR D   7      13.550  23.639  45.449  1.00 10.85 LIG 0.15  C 
ATOM     41  CG2 THR D   7      12.275  24.085  44.760  1.00 12.17 LIG 0.04  C 
BRANCH 40 42
ATOM     42 OG1  THR D   7      14.638  24.449  44.994  1.00 14.88 LIG-0.39  OA
ATOM     43 HG1  THR D   7      14.956  24.121  44.289  1.00 14.88 LIG 0.21  HD
ENDBRANCH 40 42
ENDBRANCH 30 40
ENDBRANCH 28 30
ENDBRANCH 1 26
TORSDOF 17
ENDMDL
MODEL 16
USER: ADFR SOLUTION from run 52
USER: SCORE 13.843855 LL:  -3.176 LR: -12.032 RR:   0.000 FEB:  -6.961
USER: RMSD 8.001698
USER: SEED 51
USER: STATUS no improvement in best in 4 clusters for 5 generations
USER: GENES 19
USER: genes 0 Translation |==|  0.30164 0.33080 0.60731
USER: genes 1 Rotation |==|  0.99314 0.44380 0.49106 0.55982
USER: genes 2 Torsion [C]-CA--CB-[OG] |==|  0.15366
USER: genes 3 Torsion [CA]-CB--OG-[HG] |==|  0.91872
USER: genes 4 Torsion [N]-CA--C-[N] |==|  0.33723
USER: genes 5 Torsion [C]-N--CA-[C] |==|  0.79371
USER: genes 6 Torsion [N]-CA--C-[N] |==|  0.43042
USER: genes 7 Torsion [C]-N--CA-[C] |==|  0.72417
USER: genes 8 Torsion [N]-CA--CB-[CG2] |==|  0.56879
USER: genes 9 Torsion [CA]-CB--CG1-[CD1] |==|  0.82682
USER: genes 10 Torsion [N]-CA--C-[O] |==|  0.54204
USER: genes 11 Torsion [N]-CA--CB-[CG2] |==|  0.67908
USER: genes 12 Torsion [CA]-CB--CG1-[CD1] |==|  0.45031
USER: genes 13 Torsion [CB]-CA--N-[C] |==|  0.18386
USER: genes 14 Torsion [N]-C--CA-[N] |==|  0.48477
USER: genes 15 Torsion [C]-CA--N-[C] |==|  0.76327
USER: genes 16 Torsion [N]-C--CA-[N] |==|  0.07686
USER: genes 17 Torsion [C]-CA--CB-[OG1] |==|  0.60016
USER: genes 18 Torsion [CA]-CB--OG1-[HG1] |==|  0.20695
ROOT
ATOM      1  CA  SER D   8       9.350  22.733  47.596  1.00  5.81 LIG 0.20  C 
ENDROOT
BRANCH 1 2
ATOM      2  CB  SER D   8       8.519  22.326  48.816  1.00  5.44 LIG 0.20  C 
BRANCH 2 3
ATOM      3 OG   SER D   8       7.179  22.088  48.440  1.00  4.91 LIG-0.40  OA
ATOM      4 HG   SER D   8       6.985  22.566  47.777  1.00  4.91 LIG 0.21  HD
ENDBRANCH 2 3
ENDBRANCH 1 2
BRANCH 1 5
ATOM      5  C   SER D   8       8.709  23.924  46.929  1.00  6.04 LIG 0.24  C 
ATOM      6  N   ILE D   9       8.283  23.732  45.690  1.00  5.23 LIG-0.35  N 
ATOM      7 H    ILE D   9       8.440  23.020  45.233  1.00  5.23 LIG 0.16  HD
ATOM      8 O    SER D   8       8.613  24.999  47.517  1.00  7.88 LIG-0.27  OA
BRANCH 6 9
ATOM      9  CA  ILE D   9       7.500  24.734  44.993  1.00  5.91 LIG 0.18  C 
BRANCH 9 10
ATOM     10  C   ILE D   9       6.090  24.731  45.564  1.00  8.30 LIG 0.24  C 
ATOM     11  N   ILE D  10       5.413  25.867  45.437  1.00  7.14 LIG-0.34  N 
ATOM     12 H    ILE D  10       5.720  26.566  45.042  1.00  7.14 LIG 0.16  HD
ATOM     13 O    ILE D   9       5.636  23.732  46.133  1.00  8.28 LIG-0.27  OA
BRANCH 11 14
ATOM     14  CA  ILE D  10       4.064  26.021  45.972  1.00  6.72 LIG 0.19  C 
BRANCH 14 15
ATOM     15  CB  ILE D  10       3.868  27.400  46.619  1.00  6.99 LIG 0.01  C 
ATOM     16  CG2 ILE D  10       2.759  27.337  47.661  1.00  9.23 LIG 0.01  C 
BRANCH 15 17
ATOM     17  CG1 ILE D  10       5.164  27.868  47.284  1.00  6.78 LIG 0.00  C 
ATOM     18  CD1 ILE D  10       5.629  26.967  48.417  1.00  7.71 LIG 0.01  C 
ENDBRANCH 15 17
ENDBRANCH 14 15
BRANCH 14 19
ATOM     19  C   ILE D  10       3.051  25.838  44.863  1.00  8.00 LIG 0.20  C 
ATOM     20 O    ILE D  10       1.884  26.201  45.039  1.00  7.10 LIG-0.65  OA
ATOM     21 OXT  ILE D  10       3.389  25.345  43.790  1.00 10.02 LIG-0.65  OA
ENDBRANCH 14 19
ENDBRANCH 11 14
ENDBRANCH 9 10
BRANCH 9 22
ATOM     22  CB  ILE D   9       7.499  24.482  43.472  1.00  4.97 LIG 0.01  C 
ATOM     23  CG2 ILE D   9       8.197  25.631  42.735  1.00  9.61 LIG 0.01  C 
BRANCH 22 24
ATOM     24  CG1 ILE D   9       8.174  23.143  43.189  1.00  5.60 LIG 0.00  C 
ATOM     25  CD1 ILE D   9       7.873  22.565  41.809  1.00  8.38 LIG 0.01  C 
ENDBRANCH 22 24
ENDBRANCH 9 22
ENDBRANCH 6 9
ENDBRANCH 1 5
BRANCH 1 26
ATOM     26  N   SER D   8      10.705  23.083  47.984  1.00  6.06 LIG-0.34  N 
ATOM     27 H    SER D   8      10.906  23.911  47.867  1.00  6.06 LIG 0.16  HD
ATOM     28  C   THR D   7      11.543  22.179  48.476  1.00 11.81 LIG 0.24  C 
ATOM     29 O    THR D   7      11.201  21.025  48.768  1.00 11.44 LIG-0.27  OA
BRANCH 28 30
ATOM     30  CA  THR D   7      12.973  22.638  48.680  1.00  8.59 LIG 0.20  C 
BRANCH 30 31
ATOM     31  N   THR D   7      13.740  21.591  49.341  1.00 15.26 LIG-0.34  N 
ATOM     32 H    THR D   7      14.175  21.076  48.806  1.00 15.26 LIG 0.16  HD
ATOM     33  C   PRO D   6      13.749  21.464  50.662  1.00 19.06 LIG 0.25  C 
ATOM     34 O    PRO D   6      13.097  22.187  51.408  1.00 17.22 LIG-0.27  OA
BRANCH 33 35
ATOM     35  CA  PRO D   6      14.627  20.352  51.233  1.00 33.07 LIG 0.35  C 
ATOM     36  N   PRO D   6      15.771  20.033  50.369  1.00 36.75 LIG 0.32  N 
ATOM     37  CD  PRO D   6      17.042  20.081  51.106  1.00 36.34 LIG 0.32  C 
ATOM     38  CG  PRO D   6      16.733  21.025  52.217  1.00 37.69 LIG 0.04  C 
ATOM     39  CB  PRO D   6      15.286  20.807  52.543  1.00 35.30 LIG 0.05  C 
ENDBRANCH 33 35
ENDBRANCH 30 31
BRANCH 30 40
ATOM     40  CB  THR D   7      13.572  22.980  47.305  1.00 10.85 LIG 0.15  C 
ATOM     41  CG2 THR D   7      13.457  24.466  47.029  1.00 12.17 LIG 0.04  C 
BRANCH 40 42
ATOM     42 OG1  THR D   7      14.952  22.603  47.283  1.00 14.88 LIG-0.39  OA
ATOM     43 HG1  THR D   7      15.014  21.767  47.221  1.00 14.88 LIG 0.21  HD
ENDBRANCH 40 42
ENDBRANCH 30 40
ENDBRANCH 28 30
ENDBRANCH 1 26
TORSDOF 17
ENDMDL
MODEL 17
USER: ADFR SOLUTION from run 199
USER: SCORE 14.446318 LL:  -3.573 LR: -12.022 RR:   0.000 FEB:  -6.951
USER: RMSD 5.088583
USER: SEED 198
USER: STATUS no improvement in best in 13 clusters for 5 generations
USER: GENES 19
USER: genes 0 Translation |==|  0.45051 0.32086 0.59965
USER: genes 1 Rotation |==|  0.96678 0.38791 0.37178 0.55578
USER: genes 2 Torsion [C]-CA--CB-[OG] |==|  0.60001
USER: genes 3 Torsion [CA]-CB--OG-[HG] |==|  0.91302
USER: genes 4 Torsion [N]-CA--C-[N] |==|  0.30518
USER: genes 5 Torsion [C]-N--CA-[C] |==|  0.70900
USER: genes 6 Torsion [N]-CA--C-[N] |==|  0.95003
USER: genes 7 Torsion [C]-N--CA-[C] |==|  0.60917
USER: genes 8 Torsion [N]-CA--CB-[CG2] |==|  0.79052
USER: genes 9 Torsion [CA]-CB--CG1-[CD1] |==|  0.62691
USER: genes 10 Torsion [N]-CA--C-[O] |==|  0.43939
USER: genes 11 Torsion [N]-CA--CB-[CG2] |==|  0.86779
USER: genes 12 Torsion [CA]-CB--CG1-[CD1] |==|  0.36146
USER: genes 13 Torsion [CB]-CA--N-[C] |==|  0.55630
USER: genes 14 Torsion [N]-C--CA-[N] |==|  0.20106
USER: genes 15 Torsion [C]-CA--N-[C] |==|  0.64792
USER: genes 16 Torsion [N]-C--CA-[N] |==|  0.21276
USER: genes 17 Torsion [C]-CA--CB-[OG1] |==|  0.62665
USER: genes 18 Torsion [CA]-CB--OG1-[HG1] |==|  0.35817
ROOT
ATOM      1  CA  SER D   8      13.034  22.591  47.464  1.00  5.81 LIG 0.20  C 
ENDROOT
BRANCH 1 2
ATOM      2  CB  SER D   8      12.715  22.284  48.929  1.00  5.44 LIG 0.20  C 
BRANCH 2 3
ATOM      3 OG   SER D   8      13.745  21.508  49.503  1.00  4.91 LIG-0.40  OA
ATOM      4 HG   SER D   8      14.088  21.017  48.915  1.00  4.91 LIG 0.21  HD
ENDBRANCH 2 3
ENDBRANCH 1 2
BRANCH 1 5
ATOM      5  C   SER D   8      12.550  23.979  47.127  1.00  6.04 LIG 0.24  C 
ATOM      6  N   ILE D   9      11.790  24.078  46.047  1.00  5.23 LIG-0.35  N 
ATOM      7 H    ILE D   9      11.650  23.433  45.497  1.00  5.23 LIG 0.16  HD
ATOM      8 O    SER D   8      12.867  24.943  47.821  1.00  7.88 LIG-0.27  OA
BRANCH 6 9
ATOM      9  CA  ILE D   9      11.119  25.318  45.703  1.00  5.91 LIG 0.18  C 
BRANCH 9 10
ATOM     10  C   ILE D   9       9.641  25.179  46.035  1.00  8.30 LIG 0.24  C 
ATOM     11  N   ILE D  10       9.199  23.936  46.190  1.00  7.14 LIG-0.34  N 
ATOM     12 H    ILE D  10       9.699  23.239  46.134  1.00  7.14 LIG 0.16  HD
ATOM     13 O    ILE D   9       8.912  26.173  46.120  1.00  8.28 LIG-0.27  OA
BRANCH 11 14
ATOM     14  CA  ILE D  10       7.796  23.650  46.472  1.00  6.72 LIG 0.19  C 
BRANCH 14 15
ATOM     15  CB  ILE D  10       7.030  23.269  45.196  1.00  6.99 LIG 0.01  C 
ATOM     16  CG2 ILE D  10       6.756  24.512  44.359  1.00  9.23 LIG 0.01  C 
BRANCH 15 17
ATOM     17  CG1 ILE D  10       7.835  22.266  44.368  1.00  6.78 LIG 0.00  C 
ATOM     18  CD1 ILE D  10       7.884  22.599  42.885  1.00  7.71 LIG 0.01  C 
ENDBRANCH 15 17
ENDBRANCH 14 15
BRANCH 14 19
ATOM     19  C   ILE D  10       7.697  22.521  47.474  1.00  8.00 LIG 0.20  C 
ATOM     20 O    ILE D  10       6.668  22.390  48.144  1.00  7.10 LIG-0.65  OA
ATOM     21 OXT  ILE D  10       8.626  21.730  47.611  1.00 10.02 LIG-0.65  OA
ENDBRANCH 14 19
ENDBRANCH 11 14
ENDBRANCH 9 10
BRANCH 9 22
ATOM     22  CB  ILE D   9      11.338  25.677  44.219  1.00  4.97 LIG 0.01  C 
ATOM     23  CG2 ILE D   9      12.819  25.546  43.847  1.00  9.61 LIG 0.01  C 
BRANCH 22 24
ATOM     24  CG1 ILE D   9      10.461  24.776  43.355  1.00  5.60 LIG 0.00  C 
ATOM     25  CD1 ILE D   9       9.624  25.519  42.317  1.00  8.38 LIG 0.01  C 
ENDBRANCH 22 24
ENDBRANCH 9 22
ENDBRANCH 6 9
ENDBRANCH 1 5
BRANCH 1 26
ATOM     26  N   SER D   8      14.464  22.519  47.218  1.00  6.06 LIG-0.34  N 
ATOM     27 H    SER D   8      14.903  22.066  47.802  1.00  6.06 LIG 0.16  HD
ATOM     28  C   THR D   7      15.020  23.113  46.169  1.00 11.81 LIG 0.24  C 
ATOM     29 O    THR D   7      14.364  23.644  45.263  1.00 11.44 LIG-0.27  OA
BRANCH 28 30
ATOM     30  CA  THR D   7      16.535  23.102  46.124  1.00  8.59 LIG 0.20  C 
BRANCH 30 31
ATOM     31  N   THR D   7      17.012  21.762  45.813  1.00 15.26 LIG-0.34  N 
ATOM     32 H    THR D   7      16.668  21.418  45.103  1.00 15.26 LIG 0.16  HD
ATOM     33  C   PRO D   6      17.904  21.146  46.579  1.00 19.06 LIG 0.25  C 
ATOM     34 O    PRO D   6      18.359  21.640  47.605  1.00 17.22 LIG-0.27  OA
BRANCH 33 35
ATOM     35  CA  PRO D   6      18.353  19.761  46.120  1.00 33.07 LIG 0.35  C 
ATOM     36  N   PRO D   6      19.306  19.814  45.004  1.00 36.75 LIG 0.32  N 
ATOM     37  CD  PRO D   6      20.526  19.044  45.290  1.00 36.34 LIG 0.32  C 
ATOM     38  CG  PRO D   6      20.575  19.063  46.779  1.00 37.69 LIG 0.04  C 
ATOM     39  CB  PRO D   6      19.145  19.057  47.232  1.00 35.30 LIG 0.05  C 
ENDBRANCH 33 35
ENDBRANCH 30 31
BRANCH 30 40
ATOM     40  CB  THR D   7      16.994  24.115  45.060  1.00 10.85 LIG 0.15  C 
ATOM     41  CG2 THR D   7      17.548  25.364  45.718  1.00 12.17 LIG 0.04  C 
BRANCH 40 42
ATOM     42 OG1  THR D   7      18.011  23.520  44.248  1.00 14.88 LIG-0.39  OA
ATOM     43 HG1  THR D   7      17.813  23.613  43.437  1.00 14.88 LIG 0.21  HD
ENDBRANCH 40 42
ENDBRANCH 30 40
ENDBRANCH 28 30
ENDBRANCH 1 26
TORSDOF 17
ENDMDL
MODEL 18
USER: ADFR SOLUTION from run 116
USER: SCORE 13.982196 LL:  -4.071 LR: -12.003 RR:   0.000 FEB:  -6.932
USER: RMSD 8.149382
USER: SEED 115
USER: STATUS no improvement in best in 4 clusters for 5 generations
USER: GENES 19
USER: genes 0 Translation |==|  0.26892 0.38437 0.38879
USER: genes 1 Rotation |==|  0.02083 0.50131 0.50437 0.64274
USER: genes 2 Torsion [C]-CA--CB-[OG] |==|  0.78116
USER: genes 3 Torsion [CA]-CB--OG-[HG] |==|  0.86879
USER: genes 4 Torsion [N]-CA--C-[N] |==|  0.70234
USER: genes 5 Torsion [C]-N--CA-[C] |==|  0.74277
USER: genes 6 Torsion [N]-CA--C-[N] |==|  0.32958
USER: genes 7 Torsion [C]-N--CA-[C] |==|  0.60840
USER: genes 8 Torsion [N]-CA--CB-[CG2] |==|  0.79360
USER: genes 9 Torsion [CA]-CB--CG1-[CD1] |==|  0.70930
USER: genes 10 Torsion [N]-CA--C-[O] |==|  0.50272
USER: genes 11 Torsion [N]-CA--CB-[CG2] |==|  0.39556
USER: genes 12 Torsion [CA]-CB--CG1-[CD1] |==|  0.59082
USER: genes 13 Torsion [CB]-CA--N-[C] |==|  0.45846
USER: genes 14 Torsion [N]-C--CA-[N] |==|  0.05894
USER: genes 15 Torsion [C]-CA--N-[C] |==|  0.63934
USER: genes 16 Torsion [N]-C--CA-[N] |==|  0.44662
USER: genes 17 Torsion [C]-CA--CB-[OG1] |==|  0.62708
USER: genes 18 Torsion [CA]-CB--OG1-[HG1] |==|  0.46525
ROOT
ATOM      1  CA  SER D   8       8.540  23.496  43.827  1.00  5.81 LIG 0.20  C 
ENDROOT
BRANCH 1 2
ATOM      2  CB  SER D   8       7.820  22.210  44.239  1.00  5.44 LIG 0.20  C 
BRANCH 2 3
ATOM      3 OG   SER D   8       7.909  22.024  45.636  1.00  4.91 LIG-0.40  OA
ATOM      4 HG   SER D   8       8.702  22.144  45.885  1.00  4.91 LIG 0.21  HD
ENDBRANCH 2 3
ENDBRANCH 1 2
BRANCH 1 5
ATOM      5  C   SER D   8       7.657  24.682  44.127  1.00  6.04 LIG 0.24  C 
ATOM      6  N   ILE D   9       6.624  24.445  44.921  1.00  5.23 LIG-0.35  N 
ATOM      7 H    ILE D   9       6.386  23.661  45.179  1.00  5.23 LIG 0.16  HD
ATOM      8 O    SER D   8       7.897  25.785  43.641  1.00  7.88 LIG-0.27  OA
BRANCH 6 9
ATOM      9  CA  ILE D   9       5.794  25.523  45.426  1.00  5.91 LIG 0.18  C 
BRANCH 9 10
ATOM     10  C   ILE D   9       6.337  25.959  46.779  1.00  8.30 LIG 0.24  C 
ATOM     11  N   ILE D  10       6.748  27.219  46.857  1.00  7.14 LIG-0.34  N 
ATOM     12 H    ILE D  10       6.701  27.780  46.207  1.00  7.14 LIG 0.16  HD
ATOM     13 O    ILE D   9       6.409  25.163  47.722  1.00  8.28 LIG-0.27  OA
BRANCH 11 14
ATOM     14  CA  ILE D  10       7.328  27.764  48.080  1.00  6.72 LIG 0.19  C 
BRANCH 14 15
ATOM     15  CB  ILE D  10       8.863  27.748  48.033  1.00  6.99 LIG 0.01  C 
ATOM     16  CG2 ILE D  10       9.378  26.326  48.222  1.00  9.23 LIG 0.01  C 
BRANCH 15 17
ATOM     17  CG1 ILE D  10       9.363  28.295  46.695  1.00  6.78 LIG 0.00  C 
ATOM     18  CD1 ILE D  10       9.867  27.220  45.745  1.00  7.71 LIG 0.01  C 
ENDBRANCH 15 17
ENDBRANCH 14 15
BRANCH 14 19
ATOM     19  C   ILE D  10       6.845  29.183  48.286  1.00  8.00 LIG 0.20  C 
ATOM     20 O    ILE D  10       7.242  29.825  49.264  1.00  7.10 LIG-0.65  OA
ATOM     21 OXT  ILE D  10       6.077  29.700  47.480  1.00 10.02 LIG-0.65  OA
ENDBRANCH 14 19
ENDBRANCH 11 14
ENDBRANCH 9 10
BRANCH 9 22
ATOM     22  CB  ILE D   9       4.316  25.091  45.518  1.00  4.97 LIG 0.01  C 
ATOM     23  CG2 ILE D   9       3.658  25.687  46.767  1.00  9.61 LIG 0.01  C 
BRANCH 22 24
ATOM     24  CG1 ILE D   9       3.593  25.519  44.245  1.00  5.60 LIG 0.00  C 
ATOM     25  CD1 ILE D   9       2.128  25.894  44.448  1.00  8.38 LIG 0.01  C 
ENDBRANCH 22 24
ENDBRANCH 9 22
ENDBRANCH 6 9
ENDBRANCH 1 5
BRANCH 1 26
ATOM     26  N   SER D   8       9.791  23.646  44.549  1.00  6.06 LIG-0.34  N 
ATOM     27 H    SER D   8       9.870  23.133  45.234  1.00  6.06 LIG 0.16  HD
ATOM     28  C   THR D   7      10.719  24.512  44.161  1.00 11.81 LIG 0.24  C 
ATOM     29 O    THR D   7      10.655  25.144  43.098  1.00 11.44 LIG-0.27  OA
BRANCH 28 30
ATOM     30  CA  THR D   7      11.899  24.688  45.096  1.00  8.59 LIG 0.20  C 
BRANCH 30 31
ATOM     31  N   THR D   7      12.018  23.527  45.968  1.00 15.26 LIG-0.34  N 
ATOM     32 H    THR D   7      12.005  22.771  45.557  1.00 15.26 LIG 0.16  HD
ATOM     33  C   PRO D   6      12.134  23.655  47.284  1.00 19.06 LIG 0.25  C 
ATOM     34 O    PRO D   6      12.119  24.741  47.854  1.00 17.22 LIG-0.27  OA
BRANCH 33 35
ATOM     35  CA  PRO D   6      12.294  22.362  48.081  1.00 33.07 LIG 0.35  C 
ATOM     36  N   PRO D   6      12.856  22.587  49.419  1.00 36.75 LIG 0.32  N 
ATOM     37  CD  PRO D   6      12.022  21.984  50.470  1.00 36.34 LIG 0.32  C 
ATOM     38  CG  PRO D   6      10.675  21.956  49.833  1.00 37.69 LIG 0.04  C 
ATOM     39  CB  PRO D   6      10.922  21.736  48.370  1.00 35.30 LIG 0.05  C 
ENDBRANCH 33 35
ENDBRANCH 30 31
BRANCH 30 40
ATOM     40  CB  THR D   7      13.167  24.874  44.245  1.00 10.85 LIG 0.15  C 
ATOM     41  CG2 THR D   7      13.614  26.324  44.266  1.00 12.17 LIG 0.04  C 
BRANCH 40 42
ATOM     42 OG1  THR D   7      14.214  24.053  44.769  1.00 14.88 LIG-0.39  OA
ATOM     43 HG1  THR D   7      14.847  24.018  44.217  1.00 14.88 LIG 0.21  HD
ENDBRANCH 40 42
ENDBRANCH 30 40
ENDBRANCH 28 30
ENDBRANCH 1 26
TORSDOF 17
ENDMDL
MODEL 19
USER: ADFR SOLUTION from run 200
USER: SCORE 13.680886 LL:  -3.771 LR: -11.977 RR:   0.000 FEB:  -6.906
USER: RMSD 7.859749
USER: SEED 199
USER: STATUS no improvement in best in 10 clusters for 5 generations
USER: GENES 19
USER: genes 0 Translation |==|  0.27359 0.40820 0.38690
USER: genes 1 Rotation |==|  0.06705 0.48203 0.53357 0.74719
USER: genes 2 Torsion [C]-CA--CB-[OG] |==|  0.82801
USER: genes 3 Torsion [CA]-CB--OG-[HG] |==|  0.90220
USER: genes 4 Torsion [N]-CA--C-[N] |==|  0.91713
USER: genes 5 Torsion [C]-N--CA-[C] |==|  0.17604
USER: genes 6 Torsion [N]-CA--C-[N] |==|  0.66465
USER: genes 7 Torsion [C]-N--CA-[C] |==|  0.69668
USER: genes 8 Torsion [N]-CA--CB-[CG2] |==|  0.71738
USER: genes 9 Torsion [CA]-CB--CG1-[CD1] |==|  0.35423
USER: genes 10 Torsion [N]-CA--C-[O] |==|  0.58626
USER: genes 11 Torsion [N]-CA--CB-[CG2] |==|  0.55426
USER: genes 12 Torsion [CA]-CB--CG1-[CD1] |==|  0.73163
USER: genes 13 Torsion [CB]-CA--N-[C] |==|  0.44790
USER: genes 14 Torsion [N]-C--CA-[N] |==|  0.99719
USER: genes 15 Torsion [C]-CA--N-[C] |==|  0.67857
USER: genes 16 Torsion [N]-C--CA-[N] |==|  0.36983
USER: genes 17 Torsion [C]-CA--CB-[OG1] |==|  0.58915
USER: genes 18 Torsion [CA]-CB--OG1-[HG1] |==|  0.48507
ROOT
ATOM      1  CA  SER D   8       8.655  23.836  43.794  1.00  5.81 LIG 0.20  C 
ENDROOT
BRANCH 1 2
ATOM      2  CB  SER D   8       8.091  22.422  43.635  1.00  5.44 LIG 0.20  C 
BRANCH 2 3
ATOM      3 OG   SER D   8       7.997  21.787  44.893  1.00  4.91 LIG-0.40  OA
ATOM      4 HG   SER D   8       8.640  22.027  45.377  1.00  4.91 LIG 0.21  HD
ENDBRANCH 2 3
ENDBRANCH 1 2
BRANCH 1 5
ATOM      5  C   SER D   8       7.720  24.655  44.648  1.00  6.04 LIG 0.24  C 
ATOM      6  N   ILE D   9       7.972  24.649  45.947  1.00  5.23 LIG-0.35  N 
ATOM      7 H    ILE D   9       8.556  24.141  46.322  1.00  5.23 LIG 0.16  HD
ATOM      8 O    SER D   8       6.782  25.269  44.143  1.00  7.88 LIG-0.27  OA
BRANCH 6 9
ATOM      9  CA  ILE D   9       7.260  25.523  46.861  1.00  5.91 LIG 0.18  C 
BRANCH 9 10
ATOM     10  C   ILE D   9       5.786  25.149  46.842  1.00  8.30 LIG 0.24  C 
ATOM     11  N   ILE D  10       4.950  26.114  46.479  1.00  7.14 LIG-0.34  N 
ATOM     12 H    ILE D  10       5.201  26.903  46.243  1.00  7.14 LIG 0.16  HD
ATOM     13 O    ILE D   9       5.412  24.019  47.177  1.00  8.28 LIG-0.27  OA
BRANCH 11 14
ATOM     14  CA  ILE D  10       3.505  25.910  46.453  1.00  6.72 LIG 0.19  C 
BRANCH 14 15
ATOM     15  CB  ILE D  10       2.764  27.021  47.211  1.00  6.99 LIG 0.01  C 
ATOM     16  CG2 ILE D  10       2.341  26.524  48.588  1.00  9.23 LIG 0.01  C 
BRANCH 15 17
ATOM     17  CG1 ILE D  10       3.660  28.251  47.369  1.00  6.78 LIG 0.00  C 
ATOM     18  CD1 ILE D  10       3.016  29.542  46.890  1.00  7.71 LIG 0.01  C 
ENDBRANCH 15 17
ENDBRANCH 14 15
BRANCH 14 19
ATOM     19  C   ILE D  10       3.021  25.870  45.020  1.00  8.00 LIG 0.20  C 
ATOM     20 O    ILE D  10       1.886  26.274  44.750  1.00  7.10 LIG-0.65  OA
ATOM     21 OXT  ILE D  10       3.755  25.452  44.129  1.00 10.02 LIG-0.65  OA
ENDBRANCH 14 19
ENDBRANCH 11 14
ENDBRANCH 9 10
BRANCH 9 22
ATOM     22  CB  ILE D   9       7.476  27.006  46.496  1.00  4.97 LIG 0.01  C 
ATOM     23  CG2 ILE D   9       7.152  27.908  47.692  1.00  9.61 LIG 0.01  C 
BRANCH 22 24
ATOM     24  CG1 ILE D   9       8.914  27.198  46.022  1.00  5.60 LIG 0.00  C 
ATOM     25  CD1 ILE D   9       9.872  27.696  47.101  1.00  8.38 LIG 0.01  C 
ENDBRANCH 22 24
ENDBRANCH 9 22
ENDBRANCH 6 9
ENDBRANCH 1 5
BRANCH 1 26
ATOM     26  N   SER D   8       9.964  23.805  44.425  1.00  6.06 LIG-0.34  N 
ATOM     27 H    SER D   8      10.138  23.076  44.847  1.00  6.06 LIG 0.16  HD
ATOM     28  C   THR D   7      10.800  24.832  44.341  1.00 11.81 LIG 0.24  C 
ATOM     29 O    THR D   7      10.596  25.816  43.619  1.00 11.44 LIG-0.27  OA
BRANCH 28 30
ATOM     30  CA  THR D   7      12.057  24.737  45.183  1.00  8.59 LIG 0.20  C 
BRANCH 30 31
ATOM     31  N   THR D   7      12.051  23.495  45.945  1.00 15.26 LIG-0.34  N 
ATOM     32 H    THR D   7      12.080  22.783  45.464  1.00 15.26 LIG 0.16  HD
ATOM     33  C   PRO D   6      12.004  23.494  47.271  1.00 19.06 LIG 0.25  C 
ATOM     34 O    PRO D   6      11.932  24.520  47.939  1.00 17.22 LIG-0.27  OA
BRANCH 33 35
ATOM     35  CA  PRO D   6      12.046  22.127  47.952  1.00 33.07 LIG 0.35  C 
ATOM     36  N   PRO D   6      12.999  22.078  49.067  1.00 36.75 LIG 0.32  N 
ATOM     37  CD  PRO D   6      12.369  21.588  50.303  1.00 36.34 LIG 0.32  C 
ATOM     38  CG  PRO D   6      10.937  21.944  50.095  1.00 37.69 LIG 0.04  C 
ATOM     39  CB  PRO D   6      10.698  21.818  48.620  1.00 35.30 LIG 0.05  C 
ENDBRANCH 33 35
ENDBRANCH 30 31
BRANCH 30 40
ATOM     40  CB  THR D   7      13.274  24.805  44.244  1.00 10.85 LIG 0.15  C 
ATOM     41  CG2 THR D   7      13.745  26.238  44.085  1.00 12.17 LIG 0.04  C 
BRANCH 40 42
ATOM     42 OG1  THR D   7      14.338  24.019  44.790  1.00 14.88 LIG-0.39  OA
ATOM     43 HG1  THR D   7      14.977  23.995  44.245  1.00 14.88 LIG 0.21  HD
ENDBRANCH 40 42
ENDBRANCH 30 40
ENDBRANCH 28 30
ENDBRANCH 1 26
TORSDOF 17
ENDMDL
MODEL 20
USER: ADFR SOLUTION from run 171
USER: SCORE 14.136286 LL:  -3.779 LR: -11.950 RR:   0.000 FEB:  -6.879
USER: RMSD 7.214092
USER: SEED 170
USER: STATUS no improvement in best in 10 clusters for 5 generations
USER: GENES 19
USER: genes 0 Translation |==|  0.42036 0.47667 0.48295
USER: genes 1 Rotation |==|  0.44980 0.20745 0.25864 0.82193
USER: genes 2 Torsion [C]-CA--CB-[OG] |==|  0.69149
USER: genes 3 Torsion [CA]-CB--OG-[HG] |==|  0.44404
USER: genes 4 Torsion [N]-CA--C-[N] |==|  0.02556
USER: genes 5 Torsion [C]-N--CA-[C] |==|  0.76315
USER: genes 6 Torsion [N]-CA--C-[N] |==|  0.95079
USER: genes 7 Torsion [C]-N--CA-[C] |==|  0.59858
USER: genes 8 Torsion [N]-CA--CB-[CG2] |==|  0.72427
USER: genes 9 Torsion [CA]-CB--CG1-[CD1] |==|  0.29185
USER: genes 10 Torsion [N]-CA--C-[O] |==|  0.97796
USER: genes 11 Torsion [N]-CA--CB-[CG2] |==|  0.20606
USER: genes 12 Torsion [CA]-CB--CG1-[CD1] |==|  0.39369
USER: genes 13 Torsion [CB]-CA--N-[C] |==|  0.23889
USER: genes 14 Torsion [N]-C--CA-[N] |==|  0.40504
USER: genes 15 Torsion [C]-CA--N-[C] |==|  0.20454
USER: genes 16 Torsion [N]-C--CA-[N] |==|  0.98150
USER: genes 17 Torsion [C]-CA--CB-[OG1] |==|  0.32595
USER: genes 18 Torsion [CA]-CB--OG1-[HG1] |==|  0.79196
ROOT
ATOM      1  CA  SER D   8      12.288  24.812  45.451  1.00  5.81 LIG 0.20  C 
ENDROOT
BRANCH 1 2
ATOM      2  CB  SER D   8      13.713  24.898  44.900  1.00  5.44 LIG 0.20  C 
BRANCH 2 3
ATOM      3 OG   SER D   8      14.355  23.645  44.999  1.00  4.91 LIG-0.40  OA
ATOM      4 HG   SER D   8      15.003  23.619  44.466  1.00  4.91 LIG 0.21  HD
ENDBRANCH 2 3
ENDBRANCH 1 2
BRANCH 1 5
ATOM      5  C   SER D   8      11.304  24.955  44.317  1.00  6.04 LIG 0.24  C 
ATOM      6  N   ILE D   9      10.348  24.040  44.265  1.00  5.23 LIG-0.35  N 
ATOM      7 H    ILE D   9      10.323  23.341  44.765  1.00  5.23 LIG 0.16  HD
ATOM      8 O    SER D   8      11.414  25.865  43.499  1.00  7.88 LIG-0.27  OA
BRANCH 6 9
ATOM      9  CA  ILE D   9       9.241  24.152  43.333  1.00  5.91 LIG 0.18  C 
BRANCH 9 10
ATOM     10  C   ILE D   9       8.164  25.022  43.962  1.00  8.30 LIG 0.24  C 
ATOM     11  N   ILE D  10       8.246  25.183  45.278  1.00  7.14 LIG-0.34  N 
ATOM     12 H    ILE D  10       8.872  24.847  45.764  1.00  7.14 LIG 0.16  HD
ATOM     13 O    ILE D   9       7.260  25.512  43.275  1.00  8.28 LIG-0.27  OA
BRANCH 11 14
ATOM     14  CA  ILE D  10       7.259  25.959  46.020  1.00  6.72 LIG 0.19  C 
BRANCH 14 15
ATOM     15  CB  ILE D  10       6.147  25.064  46.586  1.00  6.99 LIG 0.01  C 
ATOM     16  CG2 ILE D  10       4.917  25.124  45.688  1.00  9.23 LIG 0.01  C 
BRANCH 15 17
ATOM     17  CG1 ILE D  10       6.627  23.615  46.692  1.00  6.78 LIG 0.00  C 
ATOM     18  CD1 ILE D  10       6.940  23.177  48.114  1.00  7.71 LIG 0.01  C 
ENDBRANCH 15 17
ENDBRANCH 14 15
BRANCH 14 19
ATOM     19  C   ILE D  10       7.937  26.697  47.155  1.00  8.00 LIG 0.20  C 
ATOM     20 O    ILE D  10       9.121  26.462  47.411  1.00  7.10 LIG-0.65  OA
ATOM     21 OXT  ILE D  10       7.318  27.534  47.807  1.00 10.02 LIG-0.65  OA
ENDBRANCH 14 19
ENDBRANCH 11 14
ENDBRANCH 9 10
BRANCH 9 22
ATOM     22  CB  ILE D   9       8.697  22.762  42.945  1.00  4.97 LIG 0.01  C 
ATOM     23  CG2 ILE D   9       7.888  22.160  44.099  1.00  9.61 LIG 0.01  C 
BRANCH 22 24
ATOM     24  CG1 ILE D   9       7.856  22.893  41.679  1.00  5.60 LIG 0.00  C 
ATOM     25  CD1 ILE D   9       8.009  21.734  40.698  1.00  8.38 LIG 0.01  C 
ENDBRANCH 22 24
ENDBRANCH 9 22
ENDBRANCH 6 9
ENDBRANCH 1 5
BRANCH 1 26
ATOM     26  N   SER D   8      12.063  23.537  46.112  1.00  6.06 LIG-0.34  N 
ATOM     27 H    SER D   8      11.715  22.933  45.609  1.00  6.06 LIG 0.16  HD
ATOM     28  C   THR D   7      12.380  23.350  47.387  1.00 11.81 LIG 0.24  C 
ATOM     29 O    THR D   7      13.006  24.180  48.060  1.00 11.44 LIG-0.27  OA
BRANCH 28 30
ATOM     30  CA  THR D   7      11.939  22.035  47.996  1.00  8.59 LIG 0.20  C 
BRANCH 30 31
ATOM     31  N   THR D   7      12.923  21.585  48.972  1.00 15.26 LIG-0.34  N 
ATOM     32 H    THR D   7      13.407  20.924  48.711  1.00 15.26 LIG 0.16  HD
ATOM     33  C   PRO D   6      13.041  22.168  50.159  1.00 19.06 LIG 0.25  C 
ATOM     34 O    PRO D   6      12.320  23.090  50.526  1.00 17.22 LIG-0.27  OA
BRANCH 33 35
ATOM     35  CA  PRO D   6      14.139  21.630  51.074  1.00 33.07 LIG 0.35  C 
ATOM     36  N   PRO D   6      14.793  20.433  50.532  1.00 36.75 LIG 0.32  N 
ATOM     37  CD  PRO D   6      16.255  20.581  50.487  1.00 36.34 LIG 0.32  C 
ATOM     38  CG  PRO D   6      16.424  22.060  50.402  1.00 37.69 LIG 0.04  C 
ATOM     39  CB  PRO D   6      15.287  22.643  51.188  1.00 35.30 LIG 0.05  C 
ENDBRANCH 33 35
ENDBRANCH 30 31
BRANCH 30 40
ATOM     40  CB  THR D   7      10.563  22.242  48.652  1.00 10.85 LIG 0.15  C 
ATOM     41  CG2 THR D   7      10.132  23.692  48.539  1.00 12.17 LIG 0.04  C 
BRANCH 40 42
ATOM     42 OG1  THR D   7       9.597  21.413  47.998  1.00 14.88 LIG-0.39  OA
ATOM     43 HG1  THR D   7       9.405  21.744  47.250  1.00 14.88 LIG 0.21  HD
ENDBRANCH 40 42
ENDBRANCH 30 40
ENDBRANCH 28 30
ENDBRANCH 1 26
TORSDOF 17
ENDMDL
MODEL 21
USER: ADFR SOLUTION from run 189
USER: SCORE 13.811471 LL:  -3.475 LR: -11.885 RR:   0.000 FEB:  -6.813
USER: RMSD 5.501618
USER: SEED 188
USER: STATUS no improvement in best in 14 clusters for 5 generations
USER: GENES 19
USER: genes 0 Translation |==|  0.39365 0.27765 0.63811
USER: genes 1 Rotation |==|  0.02933 0.65594 0.43574 0.50493
USER: genes 2 Torsion [C]-CA--CB-[OG] |==|  0.24541
USER: genes 3 Torsion [CA]-CB--OG-[HG] |==|  0.89879
USER: genes 4 Torsion [N]-CA--C-[N] |==|  0.32398
USER: genes 5 Torsion [C]-N--CA-[C] |==|  0.75082
USER: genes 6 Torsion [N]-CA--C-[N] |==|  0.95995
USER: genes 7 Torsion [C]-N--CA-[C] |==|  0.58785
USER: genes 8 Torsion [N]-CA--CB-[CG2] |==|  0.79756
USER: genes 9 Torsion [CA]-CB--CG1-[CD1] |==|  0.45922
USER: genes 10 Torsion [N]-CA--C-[O] |==|  0.42231
USER: genes 11 Torsion [N]-CA--CB-[CG2] |==|  0.52581
USER: genes 12 Torsion [CA]-CB--CG1-[CD1] |==|  0.69814
USER: genes 13 Torsion [CB]-CA--N-[C] |==|  0.55043
USER: genes 14 Torsion [N]-C--CA-[N] |==|  0.38786
USER: genes 15 Torsion [C]-CA--N-[C] |==|  0.20253
USER: genes 16 Torsion [N]-C--CA-[N] |==|  0.01518
USER: genes 17 Torsion [C]-CA--CB-[OG1] |==|  0.52270
USER: genes 18 Torsion [CA]-CB--OG1-[HG1] |==|  0.18880
ROOT
ATOM      1  CA  SER D   8      11.627  21.976  48.127  1.00  5.81 LIG 0.20  C 
ENDROOT
BRANCH 1 2
ATOM      2  CB  SER D   8      10.306  21.777  48.875  1.00  5.44 LIG 0.20  C 
BRANCH 2 3
ATOM      3 OG   SER D   8       9.286  21.394  47.977  1.00  4.91 LIG-0.40  OA
ATOM      4 HG   SER D   8       9.392  21.794  47.246  1.00  4.91 LIG 0.21  HD
ENDBRANCH 2 3
ENDBRANCH 1 2
BRANCH 1 5
ATOM      5  C   SER D   8      11.714  23.398  47.634  1.00  6.04 LIG 0.24  C 
ATOM      6  N   ILE D   9      11.863  23.547  46.327  1.00  5.23 LIG-0.35  N 
ATOM      7 H    ILE D   9      12.009  22.897  45.782  1.00  5.23 LIG 0.16  HD
ATOM      8 O    SER D   8      11.661  24.342  48.420  1.00  7.88 LIG-0.27  OA
BRANCH 6 9
ATOM      9  CA  ILE D   9      11.792  24.853  45.700  1.00  5.91 LIG 0.18  C 
BRANCH 9 10
ATOM     10  C   ILE D   9      10.346  25.128  45.315  1.00  8.30 LIG 0.24  C 
ATOM     11  N   ILE D  10       9.534  24.078  45.333  1.00  7.14 LIG-0.34  N 
ATOM     12 H    ILE D  10       9.778  23.287  45.566  1.00  7.14 LIG 0.16  HD
ATOM     13 O    ILE D   9       9.981  26.261  44.981  1.00  8.28 LIG-0.27  OA
BRANCH 11 14
ATOM     14  CA  ILE D  10       8.130  24.186  44.950  1.00  6.72 LIG 0.19  C 
BRANCH 14 15
ATOM     15  CB  ILE D  10       7.934  23.931  43.449  1.00  6.99 LIG 0.01  C 
ATOM     16  CG2 ILE D  10       8.451  25.117  42.644  1.00  9.23 LIG 0.01  C 
BRANCH 15 17
ATOM     17  CG1 ILE D  10       8.675  22.664  43.019  1.00  6.78 LIG 0.00  C 
ATOM     18  CD1 ILE D  10       8.256  22.144  41.653  1.00  7.71 LIG 0.01  C 
ENDBRANCH 15 17
ENDBRANCH 14 15
BRANCH 14 19
ATOM     19  C   ILE D  10       7.307  23.193  45.741  1.00  8.00 LIG 0.20  C 
ATOM     20 O    ILE D  10       6.119  23.437  45.976  1.00  7.10 LIG-0.65  OA
ATOM     21 OXT  ILE D  10       7.810  22.144  46.134  1.00 10.02 LIG-0.65  OA
ENDBRANCH 14 19
ENDBRANCH 11 14
ENDBRANCH 9 10
BRANCH 9 22
ATOM     22  CB  ILE D   9      12.732  24.937  44.479  1.00  4.97 LIG 0.01  C 
ATOM     23  CG2 ILE D   9      12.822  26.379  43.968  1.00  9.61 LIG 0.01  C 
BRANCH 22 24
ATOM     24  CG1 ILE D   9      14.103  24.394  44.869  1.00  5.60 LIG 0.00  C 
ATOM     25  CD1 ILE D   9      15.191  25.457  44.988  1.00  8.38 LIG 0.01  C 
ENDBRANCH 22 24
ENDBRANCH 9 22
ENDBRANCH 6 9
ENDBRANCH 1 5
BRANCH 1 26
ATOM     26  N   SER D   8      12.760  21.708  48.996  1.00  6.06 LIG-0.34  N 
ATOM     27 H    SER D   8      12.569  21.253  49.700  1.00  6.06 LIG 0.16  HD
ATOM     28  C   THR D   7      13.979  22.143  48.702  1.00 11.81 LIG 0.24  C 
ATOM     29 O    THR D   7      14.267  22.676  47.622  1.00 11.44 LIG-0.27  OA
BRANCH 28 30
ATOM     30  CA  THR D   7      15.034  21.942  49.771  1.00  8.59 LIG 0.20  C 
BRANCH 30 31
ATOM     31  N   THR D   7      16.290  21.532  49.159  1.00 15.26 LIG-0.34  N 
ATOM     32 H    THR D   7      16.493  20.706  49.281  1.00 15.26 LIG 0.16  HD
ATOM     33  C   PRO D   6      17.040  22.386  48.473  1.00 19.06 LIG 0.25  C 
ATOM     34 O    PRO D   6      16.750  23.570  48.335  1.00 17.22 LIG-0.27  OA
BRANCH 33 35
ATOM     35  CA  PRO D   6      18.312  21.821  47.845  1.00 33.07 LIG 0.35  C 
ATOM     36  N   PRO D   6      18.427  20.367  48.007  1.00 36.75 LIG 0.32  N 
ATOM     37  CD  PRO D   6      18.659  19.690  46.722  1.00 36.34 LIG 0.32  C 
ATOM     38  CG  PRO D   6      18.060  20.644  45.745  1.00 37.69 LIG 0.04  C 
ATOM     39  CB  PRO D   6      18.289  22.010  46.321  1.00 35.30 LIG 0.05  C 
ENDBRANCH 33 35
ENDBRANCH 30 31
BRANCH 30 40
ATOM     40  CB  THR D   7      15.198  23.263  50.543  1.00 10.85 LIG 0.15  C 
ATOM     41  CG2 THR D   7      13.951  23.567  51.351  1.00 12.17 LIG 0.04  C 
BRANCH 40 42
ATOM     42 OG1  THR D   7      16.317  23.158  51.429  1.00 14.88 LIG-0.39  OA
ATOM     43 HG1  THR D   7      17.026  23.113  50.980  1.00 14.88 LIG 0.21  HD
ENDBRANCH 40 42
ENDBRANCH 30 40
ENDBRANCH 28 30
ENDBRANCH 1 26
TORSDOF 17
ENDMDL
MODEL 22
USER: ADFR SOLUTION from run 50
USER: SCORE 15.147084 LL:  -4.355 LR: -11.868 RR:   0.000 FEB:  -6.797
USER: RMSD 6.892749
USER: SEED 49
USER: STATUS no improvement in best in 1 clusters for 5 generations
USER: GENES 19
USER: genes 0 Translation |==|  0.44888 0.58908 0.44729
USER: genes 1 Rotation |==|  0.27556 0.30889 0.38307 0.88656
USER: genes 2 Torsion [C]-CA--CB-[OG] |==|  0.56427
USER: genes 3 Torsion [CA]-CB--OG-[HG] |==|  0.30353
USER: genes 4 Torsion [N]-CA--C-[N] |==|  0.76118
USER: genes 5 Torsion [C]-N--CA-[C] |==|  0.80915
USER: genes 6 Torsion [N]-CA--C-[N] |==|  0.41862
USER: genes 7 Torsion [C]-N--CA-[C] |==|  0.77112
USER: genes 8 Torsion [N]-CA--CB-[CG2] |==|  0.81154
USER: genes 9 Torsion [CA]-CB--CG1-[CD1] |==|  0.74025
USER: genes 10 Torsion [N]-CA--C-[O] |==|  0.53742
USER: genes 11 Torsion [N]-CA--CB-[CG2] |==|  0.40105
USER: genes 12 Torsion [CA]-CB--CG1-[CD1] |==|  0.00953
USER: genes 13 Torsion [CB]-CA--N-[C] |==|  0.86859
USER: genes 14 Torsion [N]-C--CA-[N] |==|  0.37301
USER: genes 15 Torsion [C]-CA--N-[C] |==|  0.81002
USER: genes 16 Torsion [N]-C--CA-[N] |==|  0.31562
USER: genes 17 Torsion [C]-CA--CB-[OG1] |==|  0.89625
USER: genes 18 Torsion [CA]-CB--OG1-[HG1] |==|  0.27908
ROOT
ATOM      1  CA  SER D   8      12.994  26.413  44.836  1.00  5.81 LIG 0.20  C 
ENDROOT
BRANCH 1 2
ATOM      2  CB  SER D   8      13.559  25.939  43.495  1.00  5.44 LIG 0.20  C 
BRANCH 2 3
ATOM      3 OG   SER D   8      14.923  25.599  43.630  1.00  4.91 LIG-0.40  OA
ATOM      4 HG   SER D   8      15.011  24.766  43.571  1.00  4.91 LIG 0.21  HD
ENDBRANCH 2 3
ENDBRANCH 1 2
BRANCH 1 5
ATOM      5  C   SER D   8      11.497  26.229  44.841  1.00  6.04 LIG 0.24  C 
ATOM      6  N   ILE D   9      11.045  25.162  44.201  1.00  5.23 LIG-0.35  N 
ATOM      7 H    ILE D   9      11.536  24.647  43.718  1.00  5.23 LIG 0.16  HD
ATOM      8 O    SER D   8      10.764  27.041  45.401  1.00  7.88 LIG-0.27  OA
BRANCH 6 9
ATOM      9  CA  ILE D   9       9.650  24.771  44.269  1.00  5.91 LIG 0.18  C 
BRANCH 9 10
ATOM     10  C   ILE D   9       9.349  24.290  45.681  1.00  8.30 LIG 0.24  C 
ATOM     11  N   ILE D  10       8.101  24.468  46.097  1.00  7.14 LIG-0.34  N 
ATOM     12 H    ILE D  10       7.477  24.808  45.613  1.00  7.14 LIG 0.16  HD
ATOM     13 O    ILE D   9      10.236  23.798  46.388  1.00  8.28 LIG-0.27  OA
BRANCH 11 14
ATOM     14  CA  ILE D  10       7.679  24.090  47.442  1.00  6.72 LIG 0.19  C 
BRANCH 14 15
ATOM     15  CB  ILE D  10       6.443  24.886  47.889  1.00  6.99 LIG 0.01  C 
ATOM     16  CG2 ILE D  10       6.805  26.354  48.079  1.00  9.23 LIG 0.01  C 
BRANCH 15 17
ATOM     17  CG1 ILE D  10       5.326  24.769  46.851  1.00  6.78 LIG 0.00  C 
ATOM     18  CD1 ILE D  10       5.319  25.897  45.831  1.00  7.71 LIG 0.01  C 
ENDBRANCH 15 17
ENDBRANCH 14 15
BRANCH 14 19
ATOM     19  C   ILE D  10       7.366  22.610  47.484  1.00  8.00 LIG 0.20  C 
ATOM     20 O    ILE D  10       6.759  22.144  48.453  1.00  7.10 LIG-0.65  OA
ATOM     21 OXT  ILE D  10       7.701  21.880  46.555  1.00 10.02 LIG-0.65  OA
ENDBRANCH 14 19
ENDBRANCH 11 14
ENDBRANCH 9 10
BRANCH 9 22
ATOM     22  CB  ILE D   9       9.322  23.691  43.218  1.00  4.97 LIG 0.01  C 
ATOM     23  CG2 ILE D   9       8.294  22.696  43.770  1.00  9.61 LIG 0.01  C 
BRANCH 22 24
ATOM     24  CG1 ILE D   9       8.819  24.369  41.948  1.00  5.60 LIG 0.00  C 
ATOM     25  CD1 ILE D   9       8.843  25.894  41.995  1.00  8.38 LIG 0.01  C 
ENDBRANCH 22 24
ENDBRANCH 9 22
ENDBRANCH 6 9
ENDBRANCH 1 5
BRANCH 1 26
ATOM     26  N   SER D   8      13.566  25.657  45.937  1.00  6.06 LIG-0.34  N 
ATOM     27 H    SER D   8      13.841  26.139  46.593  1.00  6.06 LIG 0.16  HD
ATOM     28  C   THR D   7      13.643  24.333  45.904  1.00 11.81 LIG 0.24  C 
ATOM     29 O    THR D   7      13.120  23.644  45.018  1.00 11.44 LIG-0.27  OA
BRANCH 28 30
ATOM     30  CA  THR D   7      14.412  23.683  47.037  1.00  8.59 LIG 0.20  C 
BRANCH 30 31
ATOM     31  N   THR D   7      13.663  22.547  47.558  1.00 15.26 LIG-0.34  N 
ATOM     32 H    THR D   7      14.022  21.782  47.400  1.00 15.26 LIG 0.16  HD
ATOM     33  C   PRO D   6      12.523  22.710  48.217  1.00 19.06 LIG 0.25  C 
ATOM     34 O    PRO D   6      12.009  23.808  48.406  1.00 17.22 LIG-0.27  OA
BRANCH 33 35
ATOM     35  CA  PRO D   6      11.857  21.442  48.748  1.00 33.07 LIG 0.35  C 
ATOM     36  N   PRO D   6      11.838  21.382  50.214  1.00 36.75 LIG 0.32  N 
ATOM     37  CD  PRO D   6      10.484  21.140  50.734  1.00 36.34 LIG 0.32  C 
ATOM     38  CG  PRO D   6       9.621  21.678  49.644  1.00 37.69 LIG 0.04  C 
ATOM     39  CB  PRO D   6      10.369  21.418  48.370  1.00 35.30 LIG 0.05  C 
ENDBRANCH 33 35
ENDBRANCH 30 31
BRANCH 30 40
ATOM     40  CB  THR D   7      15.785  23.242  46.500  1.00 10.85 LIG 0.15  C 
ATOM     41  CG2 THR D   7      16.365  22.140  47.364  1.00 12.17 LIG 0.04  C 
BRANCH 40 42
ATOM     42 OG1  THR D   7      15.637  22.761  45.161  1.00 14.88 LIG-0.39  OA
ATOM     43 HG1  THR D   7      15.874  23.359  44.620  1.00 14.88 LIG 0.21  HD
ENDBRANCH 40 42
ENDBRANCH 30 40
ENDBRANCH 28 30
ENDBRANCH 1 26
TORSDOF 17
ENDMDL
MODEL 23
USER: ADFR SOLUTION from run 102
USER: SCORE 13.606299 LL:  -4.158 LR: -11.858 RR:   0.000 FEB:  -6.787
USER: RMSD 6.676386
USER: SEED 101
USER: STATUS no improvement in best in 9 clusters for 5 generations
USER: GENES 19
USER: genes 0 Translation |==|  0.27968 0.22357 0.68109
USER: genes 1 Rotation |==|  0.93743 0.46609 0.33468 0.67370
USER: genes 2 Torsion [C]-CA--CB-[OG] |==|  0.22066
USER: genes 3 Torsion [CA]-CB--OG-[HG] |==|  0.01825
USER: genes 4 Torsion [N]-CA--C-[N] |==|  0.00787
USER: genes 5 Torsion [C]-N--CA-[C] |==|  0.55826
USER: genes 6 Torsion [N]-CA--C-[N] |==|  0.04265
USER: genes 7 Torsion [C]-N--CA-[C] |==|  0.21987
USER: genes 8 Torsion [N]-CA--CB-[CG2] |==|  0.33381
USER: genes 9 Torsion [CA]-CB--CG1-[CD1] |==|  0.31822
USER: genes 10 Torsion [N]-CA--C-[O] |==|  0.94936
USER: genes 11 Torsion [N]-CA--CB-[CG2] |==|  0.19080
USER: genes 12 Torsion [CA]-CB--CG1-[CD1] |==|  0.07384
USER: genes 13 Torsion [CB]-CA--N-[C] |==|  0.86069
USER: genes 14 Torsion [N]-C--CA-[N] |==|  0.33968
USER: genes 15 Torsion [C]-CA--N-[C] |==|  0.53527
USER: genes 16 Torsion [N]-C--CA-[N] |==|  0.18418
USER: genes 17 Torsion [C]-CA--CB-[OG1] |==|  0.46422
USER: genes 18 Torsion [CA]-CB--OG1-[HG1] |==|  0.80434
ROOT
ATOM      1  CA  SER D   8       8.806  21.205  48.869  1.00  5.81 LIG 0.20  C 
ENDROOT
BRANCH 1 2
ATOM      2  CB  SER D   8       8.990  21.400  50.376  1.00  5.44 LIG 0.20  C 
BRANCH 2 3
ATOM      3 OG   SER D   8       7.973  20.724  51.085  1.00  4.91 LIG-0.40  OA
ATOM      4 HG   SER D   8       7.512  20.269  50.550  1.00  4.91 LIG 0.21  HD
ENDBRANCH 2 3
ENDBRANCH 1 2
BRANCH 1 5
ATOM      5  C   SER D   8       7.736  22.143  48.369  1.00  6.04 LIG 0.24  C 
ATOM      6  N   ILE D   9       8.093  22.953  47.385  1.00  5.23 LIG-0.35  N 
ATOM      7 H    ILE D   9       8.900  23.036  47.098  1.00  5.23 LIG 0.16  HD
ATOM      8 O    SER D   8       6.615  22.145  48.873  1.00  7.88 LIG-0.27  OA
BRANCH 6 9
ATOM      9  CA  ILE D   9       7.123  23.784  46.697  1.00  5.91 LIG 0.18  C 
BRANCH 9 10
ATOM     10  C   ILE D   9       7.693  24.177  45.343  1.00  8.30 LIG 0.24  C 
ATOM     11  N   ILE D  10       8.739  23.471  44.930  1.00  7.14 LIG-0.34  N 
ATOM     12 H    ILE D  10       9.077  22.813  45.369  1.00  7.14 LIG 0.16  HD
ATOM     13 O    ILE D   9       7.215  25.119  44.700  1.00  8.28 LIG-0.27  OA
BRANCH 11 14
ATOM     14  CA  ILE D  10       9.412  23.761  43.669  1.00  6.72 LIG 0.19  C 
BRANCH 14 15
ATOM     15  CB  ILE D  10       8.406  24.058  42.547  1.00  6.99 LIG 0.01  C 
ATOM     16  CG2 ILE D  10       8.634  25.460  41.995  1.00  9.23 LIG 0.01  C 
BRANCH 15 17
ATOM     17  CG1 ILE D  10       8.549  23.038  41.416  1.00  6.78 LIG 0.00  C 
ATOM     18  CD1 ILE D  10       7.330  22.146  41.239  1.00  7.71 LIG 0.01  C 
ENDBRANCH 15 17
ENDBRANCH 14 15
BRANCH 14 19
ATOM     19  C   ILE D  10      10.335  24.948  43.843  1.00  8.00 LIG 0.20  C 
ATOM     20 O    ILE D  10      10.178  25.704  44.807  1.00  7.10 LIG-0.65  OA
ATOM     21 OXT  ILE D  10      11.242  25.151  43.041  1.00 10.02 LIG-0.65  OA
ENDBRANCH 14 19
ENDBRANCH 11 14
ENDBRANCH 9 10
BRANCH 9 22
ATOM     22  CB  ILE D   9       6.753  25.022  47.540  1.00  4.97 LIG 0.01  C 
ATOM     23  CG2 ILE D   9       7.944  25.982  47.637  1.00  9.61 LIG 0.01  C 
BRANCH 22 24
ATOM     24  CG1 ILE D   9       5.536  25.700  46.922  1.00  5.60 LIG 0.00  C 
ATOM     25  CD1 ILE D   9       4.630  24.766  46.124  1.00  8.38 LIG 0.01  C 
ENDBRANCH 22 24
ENDBRANCH 9 22
ENDBRANCH 6 9
ENDBRANCH 1 5
BRANCH 1 26
ATOM     26  N   SER D   8      10.042  21.478  48.156  1.00  6.06 LIG-0.34  N 
ATOM     27 H    SER D   8      10.276  20.864  47.602  1.00  6.06 LIG 0.16  HD
ATOM     28  C   THR D   7      10.732  22.593  48.363  1.00 11.81 LIG 0.24  C 
ATOM     29 O    THR D   7      10.316  23.530  49.057  1.00 11.44 LIG-0.27  OA
BRANCH 28 30
ATOM     30  CA  THR D   7      12.084  22.675  47.682  1.00  8.59 LIG 0.20  C 
BRANCH 30 31
ATOM     31  N   THR D   7      12.134  23.847  46.818  1.00 15.26 LIG-0.34  N 
ATOM     32 H    THR D   7      11.491  24.405  46.938  1.00 15.26 LIG 0.16  HD
ATOM     33  C   PRO D   6      13.103  24.012  45.927  1.00 19.06 LIG 0.25  C 
ATOM     34 O    PRO D   6      13.995  23.189  45.747  1.00 17.22 LIG-0.27  OA
BRANCH 33 35
ATOM     35  CA  PRO D   6      13.064  25.303  45.112  1.00 33.07 LIG 0.35  C 
ATOM     36  N   PRO D   6      13.293  26.499  45.932  1.00 36.75 LIG 0.32  N 
ATOM     37  CD  PRO D   6      14.371  27.337  45.388  1.00 36.34 LIG 0.32  C 
ATOM     38  CG  PRO D   6      15.192  26.351  44.629  1.00 37.69 LIG 0.04  C 
ATOM     39  CB  PRO D   6      14.221  25.336  44.103  1.00 35.30 LIG 0.05  C 
ENDBRANCH 33 35
ENDBRANCH 30 31
BRANCH 30 40
ATOM     40  CB  THR D   7      13.169  22.743  48.770  1.00 10.85 LIG 0.15  C 
ATOM     41  CG2 THR D   7      12.924  21.690  49.834  1.00 12.17 LIG 0.04  C 
BRANCH 40 42
ATOM     42 OG1  THR D   7      14.451  22.519  48.175  1.00 14.88 LIG-0.39  OA
ATOM     43 HG1  THR D   7      14.514  21.715  47.939  1.00 14.88 LIG 0.21  HD
ENDBRANCH 40 42
ENDBRANCH 30 40
ENDBRANCH 28 30
ENDBRANCH 1 26
TORSDOF 17
ENDMDL
MODEL 24
USER: ADFR SOLUTION from run 129
USER: SCORE 13.986065 LL:  -3.326 LR: -11.847 RR:   0.000 FEB:  -6.775
USER: RMSD 4.261016
USER: SEED 128
USER: STATUS no improvement in best in 7 clusters for 5 generations
USER: GENES 19
USER: genes 0 Translation |==|  0.45348 0.36763 0.53965
USER: genes 1 Rotation |==|  0.99145 0.50092 0.43308 0.56323
USER: genes 2 Torsion [C]-CA--CB-[OG] |==|  0.57844
USER: genes 3 Torsion [CA]-CB--OG-[HG] |==|  0.84549
USER: genes 4 Torsion [N]-CA--C-[N] |==|  0.37891
USER: genes 5 Torsion [C]-N--CA-[C] |==|  0.76365
USER: genes 6 Torsion [N]-CA--C-[N] |==|  0.87550
USER: genes 7 Torsion [C]-N--CA-[C] |==|  0.12482
USER: genes 8 Torsion [N]-CA--CB-[CG2] |==|  0.55872
USER: genes 9 Torsion [CA]-CB--CG1-[CD1] |==|  0.80116
USER: genes 10 Torsion [N]-CA--C-[O] |==|  0.14406
USER: genes 11 Torsion [N]-CA--CB-[CG2] |==|  0.19064
USER: genes 12 Torsion [CA]-CB--CG1-[CD1] |==|  0.72153
USER: genes 13 Torsion [CB]-CA--N-[C] |==|  0.50556
USER: genes 14 Torsion [N]-C--CA-[N] |==|  0.37349
USER: genes 15 Torsion [C]-CA--N-[C] |==|  0.57541
USER: genes 16 Torsion [N]-C--CA-[N] |==|  0.06537
USER: genes 17 Torsion [C]-CA--CB-[OG1] |==|  0.70108
USER: genes 18 Torsion [CA]-CB--OG1-[HG1] |==|  0.23505
ROOT
ATOM      1  CA  SER D   8      13.108  23.258  46.429  1.00  5.81 LIG 0.20  C 
ENDROOT
BRANCH 1 2
ATOM      2  CB  SER D   8      12.711  22.708  47.801  1.00  5.44 LIG 0.20  C 
BRANCH 2 3
ATOM      3 OG   SER D   8      13.856  22.277  48.506  1.00  4.91 LIG-0.40  OA
ATOM      4 HG   SER D   8      14.276  21.715  48.044  1.00  4.91 LIG 0.21  HD
ENDBRANCH 2 3
ENDBRANCH 1 2
BRANCH 1 5
ATOM      5  C   SER D   8      12.100  24.294  45.995  1.00  6.04 LIG 0.24  C 
ATOM      6  N   ILE D   9      11.211  23.893  45.100  1.00  5.23 LIG-0.35  N 
ATOM      7 H    ILE D   9      11.243  23.134  44.697  1.00  5.23 LIG 0.16  HD
ATOM      8 O    SER D   8      12.135  25.435  46.450  1.00  7.88 LIG-0.27  OA
BRANCH 6 9
ATOM      9  CA  ILE D   9      10.087  24.729  44.721  1.00  5.91 LIG 0.18  C 
BRANCH 9 10
ATOM     10  C   ILE D   9       8.961  24.508  45.720  1.00  8.30 LIG 0.24  C 
ATOM     11  N   ILE D  10       8.713  23.244  46.040  1.00  7.14 LIG-0.34  N 
ATOM     12 H    ILE D  10       9.160  22.575  45.736  1.00  7.14 LIG 0.16  HD
ATOM     13 O    ILE D   9       8.311  25.460  46.167  1.00  8.28 LIG-0.27  OA
BRANCH 11 14
ATOM     14  CA  ILE D  10       7.636  22.880  46.955  1.00  6.72 LIG 0.19  C 
BRANCH 14 15
ATOM     15  CB  ILE D  10       8.018  23.161  48.416  1.00  6.99 LIG 0.01  C 
ATOM     16  CG2 ILE D  10       7.154  22.327  49.354  1.00  9.23 LIG 0.01  C 
BRANCH 15 17
ATOM     17  CG1 ILE D  10       9.492  22.831  48.657  1.00  6.78 LIG 0.00  C 
ATOM     18  CD1 ILE D  10       9.793  21.340  48.657  1.00  7.71 LIG 0.01  C 
ENDBRANCH 15 17
ENDBRANCH 14 15
BRANCH 14 19
ATOM     19  C   ILE D  10       6.384  23.654  46.605  1.00  8.00 LIG 0.20  C 
ATOM     20 O    ILE D  10       5.967  23.644  45.443  1.00  7.10 LIG-0.65  OA
ATOM     21 OXT  ILE D  10       5.777  24.277  47.473  1.00 10.02 LIG-0.65  OA
ENDBRANCH 14 19
ENDBRANCH 11 14
ENDBRANCH 9 10
BRANCH 9 22
ATOM     22  CB  ILE D   9       9.634  24.433  43.277  1.00  4.97 LIG 0.01  C 
ATOM     23  CG2 ILE D   9       9.007  23.037  43.185  1.00  9.61 LIG 0.01  C 
BRANCH 22 24
ATOM     24  CG1 ILE D   9       8.659  25.517  42.829  1.00  5.60 LIG 0.00  C 
ATOM     25  CD1 ILE D   9       7.189  25.112  42.903  1.00  8.38 LIG 0.01  C 
ENDBRANCH 22 24
ENDBRANCH 9 22
ENDBRANCH 6 9
ENDBRANCH 1 5
BRANCH 1 26
ATOM     26  N   SER D   8      14.424  23.871  46.476  1.00  6.06 LIG-0.34  N 
ATOM     27 H    SER D   8      14.812  23.823  47.241  1.00  6.06 LIG 0.16  HD
ATOM     28  C   THR D   7      14.958  24.452  45.408  1.00 11.81 LIG 0.24  C 
ATOM     29 O    THR D   7      14.452  24.395  44.280  1.00 11.44 LIG-0.27  OA
BRANCH 28 30
ATOM     30  CA  THR D   7      16.257  25.198  45.637  1.00  8.59 LIG 0.20  C 
BRANCH 30 31
ATOM     31  N   THR D   7      17.213  24.862  44.591  1.00 15.26 LIG-0.34  N 
ATOM     32 H    THR D   7      16.856  24.629  43.844  1.00 15.26 LIG 0.16  HD
ATOM     33  C   PRO D   6      18.522  24.921  44.800  1.00 19.06 LIG 0.25  C 
ATOM     34 O    PRO D   6      19.014  25.226  45.882  1.00 17.22 LIG-0.27  OA
BRANCH 33 35
ATOM     35  CA  PRO D   6      19.417  24.584  43.609  1.00 33.07 LIG 0.35  C 
ATOM     36  N   PRO D   6      18.744  24.783  42.320  1.00 36.75 LIG 0.32  N 
ATOM     37  CD  PRO D   6      19.528  25.643  41.420  1.00 36.34 LIG 0.32  C 
ATOM     38  CG  PRO D   6      20.336  26.453  42.375  1.00 37.69 LIG 0.04  C 
ATOM     39  CB  PRO D   6      20.608  25.551  43.542  1.00 35.30 LIG 0.05  C 
ENDBRANCH 33 35
ENDBRANCH 30 31
BRANCH 30 40
ATOM     40  CB  THR D   7      15.953  26.706  45.647  1.00 10.85 LIG 0.15  C 
ATOM     41  CG2 THR D   7      16.611  27.374  46.839  1.00 12.17 LIG 0.04  C 
BRANCH 40 42
ATOM     42 OG1  THR D   7      16.452  27.298  44.443  1.00 14.88 LIG-0.39  OA
ATOM     43 HG1  THR D   7      15.883  27.210  43.831  1.00 14.88 LIG 0.21  HD
ENDBRANCH 40 42
ENDBRANCH 30 40
ENDBRANCH 28 30
ENDBRANCH 1 26
TORSDOF 17
ENDMDL
MODEL 25
USER: ADFR SOLUTION from run 163
USER: SCORE 13.685915 LL:  -3.070 LR: -11.848 RR:   0.000 FEB:  -6.777
USER: RMSD 7.130171
USER: SEED 162
USER: STATUS no improvement in best in 5 clusters for 5 generations
USER: GENES 19
USER: genes 0 Translation |==|  0.28662 0.32234 0.60866
USER: genes 1 Rotation |==|  0.98869 0.44229 0.45201 0.57450
USER: genes 2 Torsion [C]-CA--CB-[OG] |==|  0.19118
USER: genes 3 Torsion [CA]-CB--OG-[HG] |==|  0.43003
USER: genes 4 Torsion [N]-CA--C-[N] |==|  0.24346
USER: genes 5 Torsion [C]-N--CA-[C] |==|  0.85031
USER: genes 6 Torsion [N]-CA--C-[N] |==|  0.39444
USER: genes 7 Torsion [C]-N--CA-[C] |==|  0.74622
USER: genes 8 Torsion [N]-CA--CB-[CG2] |==|  0.56989
USER: genes 9 Torsion [CA]-CB--CG1-[CD1] |==|  0.33953
USER: genes 10 Torsion [N]-CA--C-[O] |==|  0.56925
USER: genes 11 Torsion [N]-CA--CB-[CG2] |==|  0.73485
USER: genes 12 Torsion [CA]-CB--CG1-[CD1] |==|  0.49172
USER: genes 13 Torsion [CB]-CA--N-[C] |==|  0.16124
USER: genes 14 Torsion [N]-C--CA-[N] |==|  0.99531
USER: genes 15 Torsion [C]-CA--N-[C] |==|  0.66744
USER: genes 16 Torsion [N]-C--CA-[N] |==|  0.49063
USER: genes 17 Torsion [C]-CA--CB-[OG1] |==|  0.63491
USER: genes 18 Torsion [CA]-CB--OG1-[HG1] |==|  0.66677
ROOT
ATOM      1  CA  SER D   8       8.978  22.612  47.619  1.00  5.81 LIG 0.20  C 
ENDROOT
BRANCH 1 2
ATOM      2  CB  SER D   8       8.345  22.279  48.972  1.00  5.44 LIG 0.20  C 
BRANCH 2 3
ATOM      3 OG   SER D   8       7.042  21.768  48.792  1.00  4.91 LIG-0.40  OA
ATOM      4 HG   SER D   8       6.837  21.284  49.448  1.00  4.91 LIG 0.21  HD
ENDBRANCH 2 3
ENDBRANCH 1 2
BRANCH 1 5
ATOM      5  C   SER D   8       8.265  23.794  47.010  1.00  6.04 LIG 0.24  C 
ATOM      6  N   ILE D   9       8.251  23.840  45.687  1.00  5.23 LIG-0.35  N 
ATOM      7 H    ILE D   9       8.698  23.305  45.183  1.00  5.23 LIG 0.16  HD
ATOM      8 O    SER D   8       7.749  24.653  47.722  1.00  7.88 LIG-0.27  OA
BRANCH 6 9
ATOM      9  CA  ILE D   9       7.461  24.823  44.971  1.00  5.91 LIG 0.18  C 
BRANCH 9 10
ATOM     10  C   ILE D   9       6.021  24.734  45.454  1.00  8.30 LIG 0.24  C 
ATOM     11  N   ILE D  10       5.378  25.889  45.569  1.00  7.14 LIG-0.34  N 
ATOM     12 H    ILE D  10       5.722  26.652  45.367  1.00  7.14 LIG 0.16  HD
ATOM     13 O    ILE D   9       5.514  23.644  45.745  1.00  8.28 LIG-0.27  OA
BRANCH 11 14
ATOM     14  CA  ILE D  10       4.005  25.959  46.057  1.00  6.72 LIG 0.19  C 
BRANCH 14 15
ATOM     15  CB  ILE D  10       3.751  27.254  46.844  1.00  6.99 LIG 0.01  C 
ATOM     16  CG2 ILE D  10       2.607  27.053  47.830  1.00  9.23 LIG 0.01  C 
BRANCH 15 17
ATOM     17  CG1 ILE D  10       5.010  27.673  47.605  1.00  6.78 LIG 0.00  C 
ATOM     18  CD1 ILE D  10       5.505  29.066  47.248  1.00  7.71 LIG 0.01  C 
ENDBRANCH 15 17
ENDBRANCH 14 15
BRANCH 14 19
ATOM     19  C   ILE D  10       3.043  25.882  44.892  1.00  8.00 LIG 0.20  C 
ATOM     20 O    ILE D  10       1.914  26.370  45.002  1.00  7.10 LIG-0.65  OA
ATOM     21 OXT  ILE D  10       3.386  25.352  43.839  1.00 10.02 LIG-0.65  OA
ENDBRANCH 14 19
ENDBRANCH 11 14
ENDBRANCH 9 10
BRANCH 9 22
ATOM     22  CB  ILE D   9       7.564  24.617  43.446  1.00  4.97 LIG 0.01  C 
ATOM     23  CG2 ILE D   9       8.645  25.527  42.852  1.00  9.61 LIG 0.01  C 
BRANCH 22 24
ATOM     24  CG1 ILE D   9       7.851  23.146  43.161  1.00  5.60 LIG 0.00  C 
ATOM     25  CD1 ILE D   9       7.907  22.790  41.678  1.00  8.38 LIG 0.01  C 
ENDBRANCH 22 24
ENDBRANCH 9 22
ENDBRANCH 6 9
ENDBRANCH 1 5
BRANCH 1 26
ATOM     26  N   SER D   8      10.385  22.939  47.771  1.00  6.06 LIG-0.34  N 
ATOM     27 H    SER D   8      10.602  23.719  47.483  1.00  6.06 LIG 0.16  HD
ATOM     28  C   THR D   7      11.243  22.082  48.312  1.00 11.81 LIG 0.24  C 
ATOM     29 O    THR D   7      10.896  21.021  48.847  1.00 11.44 LIG-0.27  OA
BRANCH 28 30
ATOM     30  CA  THR D   7      12.705  22.479  48.255  1.00  8.59 LIG 0.20  C 
BRANCH 30 31
ATOM     31  N   THR D   7      12.847  23.748  47.555  1.00 15.26 LIG-0.34  N 
ATOM     32 H    THR D   7      12.430  24.405  47.920  1.00 15.26 LIG 0.16  HD
ATOM     33  C   PRO D   6      13.568  23.852  46.445  1.00 19.06 LIG 0.25  C 
ATOM     34 O    PRO D   6      14.130  22.896  45.920  1.00 17.22 LIG-0.27  OA
BRANCH 33 35
ATOM     35  CA  PRO D   6      13.673  25.246  45.831  1.00 33.07 LIG 0.35  C 
ATOM     36  N   PRO D   6      14.551  25.283  44.654  1.00 36.75 LIG 0.32  N 
ATOM     37  CD  PRO D   6      13.882  25.886  43.492  1.00 36.34 LIG 0.32  C 
ATOM     38  CG  PRO D   6      12.442  25.629  43.782  1.00 37.69 LIG 0.04  C 
ATOM     39  CB  PRO D   6      12.313  25.692  45.275  1.00 35.30 LIG 0.05  C 
ENDBRANCH 33 35
ENDBRANCH 30 31
BRANCH 30 40
ATOM     40  CB  THR D   7      13.235  22.579  49.696  1.00 10.85 LIG 0.15  C 
ATOM     41  CG2 THR D   7      14.173  21.427  49.999  1.00 12.17 LIG 0.04  C 
BRANCH 40 42
ATOM     42 OG1  THR D   7      13.940  23.814  49.857  1.00 14.88 LIG-0.39  OA
ATOM     43 HG1  THR D   7      14.737  23.655  50.072  1.00 14.88 LIG 0.21  HD
ENDBRANCH 40 42
ENDBRANCH 30 40
ENDBRANCH 28 30
ENDBRANCH 1 26
TORSDOF 17
ENDMDL
MODEL 26
USER: ADFR SOLUTION from run 185
USER: SCORE 14.271948 LL:  -3.341 LR: -11.843 RR:   0.000 FEB:  -6.772
USER: RMSD 6.452516
USER: SEED 184
USER: STATUS no improvement in best in 6 clusters for 5 generations
USER: GENES 19
USER: genes 0 Translation |==|  0.44904 0.55317 0.47689
USER: genes 1 Rotation |==|  0.33517 0.28677 0.45423 0.91865
USER: genes 2 Torsion [C]-CA--CB-[OG] |==|  0.61666
USER: genes 3 Torsion [CA]-CB--OG-[HG] |==|  0.29581
USER: genes 4 Torsion [N]-CA--C-[N] |==|  0.38927
USER: genes 5 Torsion [C]-N--CA-[C] |==|  0.17845
USER: genes 6 Torsion [N]-CA--C-[N] |==|  0.69282
USER: genes 7 Torsion [C]-N--CA-[C] |==|  0.17987
USER: genes 8 Torsion [N]-CA--CB-[CG2] |==|  0.55599
USER: genes 9 Torsion [CA]-CB--CG1-[CD1] |==|  0.35485
USER: genes 10 Torsion [N]-CA--C-[O] |==|  0.03229
USER: genes 11 Torsion [N]-CA--CB-[CG2] |==|  0.53995
USER: genes 12 Torsion [CA]-CB--CG1-[CD1] |==|  0.72849
USER: genes 13 Torsion [CB]-CA--N-[C] |==|  0.84444
USER: genes 14 Torsion [N]-C--CA-[N] |==|  0.33234
USER: genes 15 Torsion [C]-CA--N-[C] |==|  0.70059
USER: genes 16 Torsion [N]-C--CA-[N] |==|  0.14270
USER: genes 17 Torsion [C]-CA--CB-[OG1] |==|  0.93116
USER: genes 18 Torsion [CA]-CB--OG1-[HG1] |==|  0.24648
ROOT
ATOM      1  CA  SER D   8      12.998  25.902  45.346  1.00  5.81 LIG 0.20  C 
ENDROOT
BRANCH 1 2
ATOM      2  CB  SER D   8      13.599  25.812  43.942  1.00  5.44 LIG 0.20  C 
BRANCH 2 3
ATOM      3 OG   SER D   8      14.987  25.565  44.017  1.00  4.91 LIG-0.40  OA
ATOM      4 HG   SER D   8      15.142  24.769  43.798  1.00  4.91 LIG 0.21  HD
ENDBRANCH 2 3
ENDBRANCH 1 2
BRANCH 1 5
ATOM      5  C   SER D   8      11.680  25.168  45.375  1.00  6.04 LIG 0.24  C 
ATOM      6  N   ILE D   9      10.598  25.921  45.252  1.00  5.23 LIG-0.35  N 
ATOM      7 H    ILE D   9      10.607  26.781  45.259  1.00  5.23 LIG 0.16  HD
ATOM      8 O    SER D   8      11.642  23.948  45.518  1.00  7.88 LIG-0.27  OA
BRANCH 6 9
ATOM      9  CA  ILE D   9       9.281  25.335  45.094  1.00  5.91 LIG 0.18  C 
BRANCH 9 10
ATOM     10  C   ILE D   9       8.940  24.558  46.357  1.00  8.30 LIG 0.24  C 
ATOM     11  N   ILE D  10       8.902  23.237  46.229  1.00  7.14 LIG-0.34  N 
ATOM     12 H    ILE D  10       9.077  22.820  45.497  1.00  7.14 LIG 0.16  HD
ATOM     13 O    ILE D   9       8.688  25.144  47.416  1.00  8.28 LIG-0.27  OA
BRANCH 11 14
ATOM     14  CA  ILE D  10       8.551  22.367  47.347  1.00  6.72 LIG 0.19  C 
BRANCH 14 15
ATOM     15  CB  ILE D  10       9.476  22.596  48.552  1.00  6.99 LIG 0.01  C 
ATOM     16  CG2 ILE D  10       9.433  21.389  49.482  1.00  9.23 LIG 0.01  C 
BRANCH 15 17
ATOM     17  CG1 ILE D  10      10.914  22.827  48.086  1.00  6.78 LIG 0.00  C 
ATOM     18  CD1 ILE D  10      11.545  24.089  48.653  1.00  7.71 LIG 0.01  C 
ENDBRANCH 15 17
ENDBRANCH 14 15
BRANCH 14 19
ATOM     19  C   ILE D  10       7.117  22.617  47.759  1.00  8.00 LIG 0.20  C 
ATOM     20 O    ILE D  10       6.384  23.295  47.032  1.00  7.10 LIG-0.65  OA
ATOM     21 OXT  ILE D  10       6.679  22.138  48.801  1.00 10.02 LIG-0.65  OA
ENDBRANCH 14 19
ENDBRANCH 11 14
ENDBRANCH 9 10
BRANCH 9 22
ATOM     22  CB  ILE D   9       9.216  24.440  43.840  1.00  4.97 LIG 0.01  C 
ATOM     23  CG2 ILE D   9       7.761  24.118  43.482  1.00  9.61 LIG 0.01  C 
BRANCH 22 24
ATOM     24  CG1 ILE D   9       9.934  25.141  42.691  1.00  5.60 LIG 0.00  C 
ATOM     25  CD1 ILE D   9       9.011  25.889  41.733  1.00  8.38 LIG 0.01  C 
ENDBRANCH 22 24
ENDBRANCH 9 22
ENDBRANCH 6 9
ENDBRANCH 1 5
BRANCH 1 26
ATOM     26  N   SER D   8      13.888  25.310  46.331  1.00  6.06 LIG-0.34  N 
ATOM     27 H    SER D   8      14.106  25.836  46.974  1.00  6.06 LIG 0.16  HD
ATOM     28  C   THR D   7      14.312  24.058  46.220  1.00 11.81 LIG 0.24  C 
ATOM     29 O    THR D   7      13.884  23.269  45.368  1.00 11.44 LIG-0.27  OA
BRANCH 28 30
ATOM     30  CA  THR D   7      15.366  23.621  47.218  1.00  8.59 LIG 0.20  C 
BRANCH 30 31
ATOM     31  N   THR D   7      14.866  22.506  48.011  1.00 15.26 LIG-0.34  N 
ATOM     32 H    THR D   7      14.813  21.761  47.584  1.00 15.26 LIG 0.16  HD
ATOM     33  C   PRO D   6      14.528  22.656  49.286  1.00 19.06 LIG 0.25  C 
ATOM     34 O    PRO D   6      14.580  23.733  49.870  1.00 17.22 LIG-0.27  OA
BRANCH 33 35
ATOM     35  CA  PRO D   6      14.059  21.400  50.017  1.00 33.07 LIG 0.35  C 
ATOM     36  N   PRO D   6      14.993  20.277  49.871  1.00 36.75 LIG 0.32  N 
ATOM     37  CD  PRO D   6      15.374  19.710  51.174  1.00 36.34 LIG 0.32  C 
ATOM     38  CG  PRO D   6      15.179  20.866  52.095  1.00 37.69 LIG 0.04  C 
ATOM     39  CB  PRO D   6      14.025  21.641  51.533  1.00 35.30 LIG 0.05  C 
ENDBRANCH 33 35
ENDBRANCH 30 31
BRANCH 30 40
ATOM     40  CB  THR D   7      16.633  23.225  46.442  1.00 10.85 LIG 0.15  C 
ATOM     41  CG2 THR D   7      17.336  22.067  47.124  1.00 12.17 LIG 0.04  C 
BRANCH 40 42
ATOM     42 OG1  THR D   7      16.273  22.837  45.112  1.00 14.88 LIG-0.39  OA
ATOM     43 HG1  THR D   7      16.272  23.514  44.614  1.00 14.88 LIG 0.21  HD
ENDBRANCH 40 42
ENDBRANCH 30 40
ENDBRANCH 28 30
ENDBRANCH 1 26
TORSDOF 17
ENDMDL
MODEL 27
USER: ADFR SOLUTION from run 134
USER: SCORE 13.696074 LL:  -3.015 LR: -11.818 RR:   0.000 FEB:  -6.747
USER: RMSD 5.180591
USER: SEED 133
USER: STATUS searching
USER: GENES 19
USER: genes 0 Translation |==|  0.39091 0.41209 0.52155
USER: genes 1 Rotation |==|  0.98459 0.51641 0.46979 0.61828
USER: genes 2 Torsion [C]-CA--CB-[OG] |==|  0.40599
USER: genes 3 Torsion [CA]-CB--OG-[HG] |==|  0.91517
USER: genes 4 Torsion [N]-CA--C-[N] |==|  0.46892
USER: genes 5 Torsion [C]-N--CA-[C] |==|  0.66026
USER: genes 6 Torsion [N]-CA--C-[N] |==|  0.38894
USER: genes 7 Torsion [C]-N--CA-[C] |==|  0.72187
USER: genes 8 Torsion [N]-CA--CB-[CG2] |==|  0.96002
USER: genes 9 Torsion [CA]-CB--CG1-[CD1] |==|  0.29484
USER: genes 10 Torsion [N]-CA--C-[O] |==|  0.94344
USER: genes 11 Torsion [N]-CA--CB-[CG2] |==|  0.77223
USER: genes 12 Torsion [CA]-CB--CG1-[CD1] |==|  0.48452
USER: genes 13 Torsion [CB]-CA--N-[C] |==|  0.47778
USER: genes 14 Torsion [N]-C--CA-[N] |==|  0.37385
USER: genes 15 Torsion [C]-CA--N-[C] |==|  0.61191
USER: genes 16 Torsion [N]-C--CA-[N] |==|  0.10684
USER: genes 17 Torsion [C]-CA--CB-[OG1] |==|  0.57420
USER: genes 18 Torsion [CA]-CB--OG1-[HG1] |==|  0.24394
ROOT
ATOM      1  CA  SER D   8      11.559  23.891  46.117  1.00  5.81 LIG 0.20  C 
ENDROOT
BRANCH 1 2
ATOM      2  CB  SER D   8      11.023  23.586  47.517  1.00  5.44 LIG 0.20  C 
BRANCH 2 3
ATOM      3 OG   SER D   8      11.482  22.324  47.954  1.00  4.91 LIG-0.40  OA
ATOM      4 HG   SER D   8      11.586  21.819  47.291  1.00  4.91 LIG 0.21  HD
ENDBRANCH 2 3
ENDBRANCH 1 2
BRANCH 1 5
ATOM      5  C   SER D   8      10.532  24.687  45.351  1.00  6.04 LIG 0.24  C 
ATOM      6  N   ILE D   9       9.436  24.031  45.004  1.00  5.23 LIG-0.35  N 
ATOM      7 H    ILE D   9       9.331  23.183  45.102  1.00  5.23 LIG 0.16  HD
ATOM      8 O    SER D   8      10.732  25.866  45.067  1.00  7.88 LIG-0.27  OA
BRANCH 6 9
ATOM      9  CA  ILE D   9       8.298  24.713  44.415  1.00  5.91 LIG 0.18  C 
BRANCH 9 10
ATOM     10  C   ILE D   9       7.076  24.457  45.285  1.00  8.30 LIG 0.24  C 
ATOM     11  N   ILE D  10       6.265  25.493  45.460  1.00  7.14 LIG-0.34  N 
ATOM     12 H    ILE D  10       6.386  26.264  45.097  1.00  7.14 LIG 0.16  HD
ATOM     13 O    ILE D   9       6.889  23.354  45.811  1.00  8.28 LIG-0.27  OA
BRANCH 11 14
ATOM     14  CA  ILE D  10       5.075  25.405  46.300  1.00  6.72 LIG 0.19  C 
BRANCH 14 15
ATOM     15  CB  ILE D  10       4.897  26.665  47.159  1.00  6.99 LIG 0.01  C 
ATOM     16  CG2 ILE D  10       6.181  27.486  47.159  1.00  9.23 LIG 0.01  C 
BRANCH 15 17
ATOM     17  CG1 ILE D  10       3.748  27.521  46.623  1.00  6.78 LIG 0.00  C 
ATOM     18  CD1 ILE D  10       2.492  27.463  47.479  1.00  7.71 LIG 0.01  C 
ENDBRANCH 15 17
ENDBRANCH 14 15
BRANCH 14 19
ATOM     19  C   ILE D  10       3.850  25.209  45.434  1.00  8.00 LIG 0.20  C 
ATOM     20 O    ILE D  10       3.894  25.519  44.240  1.00  7.10 LIG-0.65  OA
ATOM     21 OXT  ILE D  10       2.824  24.732  45.911  1.00 10.02 LIG-0.65  OA
ENDBRANCH 14 19
ENDBRANCH 11 14
ENDBRANCH 9 10
BRANCH 9 22
ATOM     22  CB  ILE D   9       8.067  24.256  42.960  1.00  4.97 LIG 0.01  C 
ATOM     23  CG2 ILE D   9       9.001  25.009  42.006  1.00  9.61 LIG 0.01  C 
BRANCH 22 24
ATOM     24  CG1 ILE D   9       8.273  22.748  42.873  1.00  5.60 LIG 0.00  C 
ATOM     25  CD1 ILE D   9       7.943  22.144  41.510  1.00  8.38 LIG 0.01  C 
ENDBRANCH 22 24
ENDBRANCH 9 22
ENDBRANCH 6 9
ENDBRANCH 1 5
BRANCH 1 26
ATOM     26  N   SER D   8      12.791  24.657  46.188  1.00  6.06 LIG-0.34  N 
ATOM     27 H    SER D   8      12.997  24.928  46.977  1.00  6.06 LIG 0.16  HD
ATOM     28  C   THR D   7      13.520  24.904  45.106  1.00 11.81 LIG 0.24  C 
ATOM     29 O    THR D   7      13.289  24.394  44.001  1.00 11.44 LIG-0.27  OA
BRANCH 28 30
ATOM     30  CA  THR D   7      14.686  25.853  45.291  1.00  8.59 LIG 0.20  C 
BRANCH 30 31
ATOM     31  N   THR D   7      15.873  25.314  44.640  1.00 15.26 LIG-0.34  N 
ATOM     32 H    THR D   7      15.724  24.943  43.879  1.00 15.26 LIG 0.16  HD
ATOM     33  C   PRO D   6      17.073  25.403  45.200  1.00 19.06 LIG 0.25  C 
ATOM     34 O    PRO D   6      17.262  25.908  46.301  1.00 17.22 LIG-0.27  OA
BRANCH 33 35
ATOM     35  CA  PRO D   6      18.241  24.836  44.396  1.00 33.07 LIG 0.35  C 
ATOM     36  N   PRO D   6      18.121  25.102  42.957  1.00 36.75 LIG 0.32  N 
ATOM     37  CD  PRO D   6      19.331  25.742  42.417  1.00 36.34 LIG 0.32  C 
ATOM     38  CG  PRO D   6      19.898  26.420  43.617  1.00 37.69 LIG 0.04  C 
ATOM     39  CB  PRO D   6      19.550  25.540  44.781  1.00 35.30 LIG 0.05  C 
ENDBRANCH 33 35
ENDBRANCH 30 31
BRANCH 30 40
ATOM     40  CB  THR D   7      14.299  27.218  44.694  1.00 10.85 LIG 0.15  C 
ATOM     41  CG2 THR D   7      13.563  28.058  45.720  1.00 12.17 LIG 0.04  C 
BRANCH 40 42
ATOM     42 OG1  THR D   7      15.482  27.909  44.284  1.00 14.88 LIG-0.39  OA
ATOM     43 HG1  THR D   7      15.674  27.691  43.495  1.00 14.88 LIG 0.21  HD
ENDBRANCH 40 42
ENDBRANCH 30 40
ENDBRANCH 28 30
ENDBRANCH 1 26
TORSDOF 17
ENDMDL
MODEL 28
USER: ADFR SOLUTION from run 176
USER: SCORE 13.549788 LL:  -3.072 LR: -11.791 RR:   0.000 FEB:  -6.720
USER: RMSD 5.038669
USER: SEED 175
USER: STATUS no improvement in best in 4 clusters for 5 generations
USER: GENES 19
USER: genes 0 Translation |==|  0.41214 0.42598 0.49404
USER: genes 1 Rotation |==|  0.97581 0.62606 0.41460 0.52060
USER: genes 2 Torsion [C]-CA--CB-[OG] |==|  0.51010
USER: genes 3 Torsion [CA]-CB--OG-[HG] |==|  0.60255
USER: genes 4 Torsion [N]-CA--C-[N] |==|  0.43604
USER: genes 5 Torsion [C]-N--CA-[C] |==|  0.72236
USER: genes 6 Torsion [N]-CA--C-[N] |==|  0.01613
USER: genes 7 Torsion [C]-N--CA-[C] |==|  0.82899
USER: genes 8 Torsion [N]-CA--CB-[CG2] |==|  0.14355
USER: genes 9 Torsion [CA]-CB--CG1-[CD1] |==|  0.62335
USER: genes 10 Torsion [N]-CA--C-[O] |==|  0.91193
USER: genes 11 Torsion [N]-CA--CB-[CG2] |==|  0.76219
USER: genes 12 Torsion [CA]-CB--CG1-[CD1] |==|  0.52447
USER: genes 13 Torsion [CB]-CA--N-[C] |==|  0.26803
USER: genes 14 Torsion [N]-C--CA-[N] |==|  0.48235
USER: genes 15 Torsion [C]-CA--N-[C] |==|  0.80530
USER: genes 16 Torsion [N]-C--CA-[N] |==|  0.84412
USER: genes 17 Torsion [C]-CA--CB-[OG1] |==|  0.56858
USER: genes 18 Torsion [CA]-CB--OG1-[HG1] |==|  0.14377
ROOT
ATOM      1  CA  SER D   8      12.084  24.089  45.642  1.00  5.81 LIG 0.20  C 
ENDROOT
BRANCH 1 2
ATOM      2  CB  SER D   8      12.232  23.175  46.861  1.00  5.44 LIG 0.20  C 
BRANCH 2 3
ATOM      3 OG   SER D   8      13.570  22.746  46.993  1.00  4.91 LIG-0.40  OA
ATOM      4 HG   SER D   8      13.584  21.951  47.263  1.00  4.91 LIG 0.21  HD
ENDBRANCH 2 3
ENDBRANCH 1 2
BRANCH 1 5
ATOM      5  C   SER D   8      10.669  24.606  45.573  1.00  6.04 LIG 0.24  C 
ATOM      6  N   ILE D   9       9.782  23.786  45.031  1.00  5.23 LIG-0.35  N 
ATOM      7 H    ILE D   9       9.985  23.047  44.642  1.00  5.23 LIG 0.16  HD
ATOM      8 O    SER D   8      10.387  25.728  45.988  1.00  7.88 LIG-0.27  OA
BRANCH 6 9
ATOM      9  CA  ILE D   9       8.362  24.084  45.053  1.00  5.91 LIG 0.18  C 
BRANCH 9 10
ATOM     10  C   ILE D   9       7.717  23.286  46.177  1.00  8.30 LIG 0.24  C 
ATOM     11  N   ILE D  10       8.551  22.608  46.956  1.00  7.14 LIG-0.34  N 
ATOM     12 H    ILE D  10       9.407  22.620  46.868  1.00  7.14 LIG 0.16  HD
ATOM     13 O    ILE D   9       6.489  23.262  46.316  1.00  8.28 LIG-0.27  OA
BRANCH 11 14
ATOM     14  CA  ILE D  10       8.071  21.769  48.049  1.00  6.72 LIG 0.19  C 
BRANCH 14 15
ATOM     15  CB  ILE D  10       9.226  21.038  48.748  1.00  6.99 LIG 0.01  C 
ATOM     16  CG2 ILE D  10      10.313  22.030  49.143  1.00  9.23 LIG 0.01  C 
BRANCH 15 17
ATOM     17  CG1 ILE D  10       8.723  20.313  49.998  1.00  6.78 LIG 0.00  C 
ATOM     18  CD1 ILE D  10       9.623  20.488  51.211  1.00  7.71 LIG 0.01  C 
ENDBRANCH 15 17
ENDBRANCH 14 15
BRANCH 14 19
ATOM     19  C   ILE D  10       7.329  22.619  49.058  1.00  8.00 LIG 0.20  C 
ATOM     20 O    ILE D  10       7.673  23.792  49.235  1.00  7.10 LIG-0.65  OA
ATOM     21 OXT  ILE D  10       6.384  22.151  49.687  1.00 10.02 LIG-0.65  OA
ENDBRANCH 14 19
ENDBRANCH 11 14
ENDBRANCH 9 10
BRANCH 9 22
ATOM     22  CB  ILE D   9       7.708  23.779  43.690  1.00  4.97 LIG 0.01  C 
ATOM     23  CG2 ILE D   9       7.850  24.977  42.745  1.00  9.61 LIG 0.01  C 
BRANCH 22 24
ATOM     24  CG1 ILE D   9       8.343  22.523  43.102  1.00  5.60 LIG 0.00  C 
ATOM     25  CD1 ILE D   9       7.939  22.227  41.661  1.00  8.38 LIG 0.01  C 
ENDBRANCH 22 24
ENDBRANCH 9 22
ENDBRANCH 6 9
ENDBRANCH 1 5
BRANCH 1 26
ATOM     26  N   SER D   8      12.994  25.219  45.727  1.00  6.06 LIG-0.34  N 
ATOM     27 H    SER D   8      12.703  25.875  46.199  1.00  6.06 LIG 0.16  HD
ATOM     28  C   THR D   7      14.172  25.209  45.115  1.00 11.81 LIG 0.24  C 
ATOM     29 O    THR D   7      14.638  24.208  44.555  1.00 11.44 LIG-0.27  OA
BRANCH 28 30
ATOM     30  CA  THR D   7      14.948  26.511  45.144  1.00  8.59 LIG 0.20  C 
BRANCH 30 31
ATOM     31  N   THR D   7      16.273  26.312  44.572  1.00 15.26 LIG-0.34  N 
ATOM     32 H    THR D   7      16.391  26.691  43.809  1.00 15.26 LIG 0.16  HD
ATOM     33  C   PRO D   6      17.201  25.600  45.199  1.00 19.06 LIG 0.25  C 
ATOM     34 O    PRO D   6      17.003  25.040  46.272  1.00 17.22 LIG-0.27  OA
BRANCH 33 35
ATOM     35  CA  PRO D   6      18.561  25.502  44.513  1.00 33.07 LIG 0.35  C 
ATOM     36  N   PRO D   6      18.471  24.972  43.147  1.00 36.75 LIG 0.32  N 
ATOM     37  CD  PRO D   6      19.134  25.853  42.173  1.00 36.34 LIG 0.32  C 
ATOM     38  CG  PRO D   6      19.062  27.182  42.844  1.00 37.69 LIG 0.04  C 
ATOM     39  CB  PRO D   6      19.164  26.900  44.313  1.00 35.30 LIG 0.05  C 
ENDBRANCH 33 35
ENDBRANCH 30 31
BRANCH 30 40
ATOM     40  CB  THR D   7      14.154  27.564  44.351  1.00 10.85 LIG 0.15  C 
ATOM     41  CG2 THR D   7      13.104  28.214  45.232  1.00 12.17 LIG 0.04  C 
BRANCH 40 42
ATOM     42 OG1  THR D   7      15.051  28.570  43.870  1.00 14.88 LIG-0.39  OA
ATOM     43 HG1  THR D   7      15.690  28.204  43.464  1.00 14.88 LIG 0.21  HD
ENDBRANCH 40 42
ENDBRANCH 30 40
ENDBRANCH 28 30
ENDBRANCH 1 26
TORSDOF 17
ENDMDL
MODEL 29
USER: ADFR SOLUTION from run 102
USER: SCORE 13.572631 LL:  -3.371 LR: -11.757 RR:   0.000 FEB:  -6.686
USER: RMSD 7.394609
USER: SEED 101
USER: STATUS no improvement in best in 9 clusters for 5 generations
USER: GENES 19
USER: genes 0 Translation |==|  0.27553 0.26511 0.71301
USER: genes 1 Rotation |==|  0.95085 0.53325 0.43484 0.70344
USER: genes 2 Torsion [C]-CA--CB-[OG] |==|  0.25095
USER: genes 3 Torsion [CA]-CB--OG-[HG] |==|  0.82761
USER: genes 4 Torsion [N]-CA--C-[N] |==|  0.02292
USER: genes 5 Torsion [C]-N--CA-[C] |==|  0.57498
USER: genes 6 Torsion [N]-CA--C-[N] |==|  0.08166
USER: genes 7 Torsion [C]-N--CA-[C] |==|  0.22358
USER: genes 8 Torsion [N]-CA--CB-[CG2] |==|  0.38453
USER: genes 9 Torsion [CA]-CB--CG1-[CD1] |==|  0.43740
USER: genes 10 Torsion [N]-CA--C-[O] |==|  0.38150
USER: genes 11 Torsion [N]-CA--CB-[CG2] |==|  0.18464
USER: genes 12 Torsion [CA]-CB--CG1-[CD1] |==|  0.56640
USER: genes 13 Torsion [CB]-CA--N-[C] |==|  0.22778
USER: genes 14 Torsion [N]-C--CA-[N] |==|  0.54315
USER: genes 15 Torsion [C]-CA--N-[C] |==|  0.75479
USER: genes 16 Torsion [N]-C--CA-[N] |==|  0.09965
USER: genes 17 Torsion [C]-CA--CB-[OG1] |==|  0.65868
USER: genes 18 Torsion [CA]-CB--OG1-[HG1] |==|  0.40173
ROOT
ATOM      1  CA  SER D   8       8.703  21.797  49.419  1.00  5.81 LIG 0.20  C 
ENDROOT
BRANCH 1 2
ATOM      2  CB  SER D   8       8.389  22.000  50.903  1.00  5.44 LIG 0.20  C 
BRANCH 2 3
ATOM      3 OG   SER D   8       7.800  20.837  51.444  1.00  4.91 LIG-0.40  OA
ATOM      4 HG   SER D   8       7.072  20.683  51.053  1.00  4.91 LIG 0.21  HD
ENDBRANCH 2 3
ENDBRANCH 1 2
BRANCH 1 5
ATOM      5  C   SER D   8       7.520  22.234  48.593  1.00  6.04 LIG 0.24  C 
ATOM      6  N   ILE D   9       7.787  23.066  47.598  1.00  5.23 LIG-0.35  N 
ATOM      7 H    ILE D   9       8.554  23.432  47.470  1.00  5.23 LIG 0.16  HD
ATOM      8 O    SER D   8       6.387  21.837  48.857  1.00  7.88 LIG-0.27  OA
BRANCH 6 9
ATOM      9  CA  ILE D   9       6.776  23.431  46.624  1.00  5.91 LIG 0.18  C 
BRANCH 9 10
ATOM     10  C   ILE D   9       7.469  23.796  45.320  1.00  8.30 LIG 0.24  C 
ATOM     11  N   ILE D  10       8.623  23.183  45.088  1.00  7.14 LIG-0.34  N 
ATOM     12 H    ILE D  10       8.968  22.595  45.613  1.00  7.14 LIG 0.16  HD
ATOM     13 O    ILE D   9       6.983  24.638  44.555  1.00  8.28 LIG-0.27  OA
BRANCH 11 14
ATOM     14  CA  ILE D  10       9.416  23.464  43.896  1.00  6.72 LIG 0.19  C 
BRANCH 14 15
ATOM     15  CB  ILE D  10       8.530  23.610  42.650  1.00  6.99 LIG 0.01  C 
ATOM     16  CG2 ILE D  10       9.018  24.773  41.794  1.00  9.23 LIG 0.01  C 
BRANCH 15 17
ATOM     17  CG1 ILE D  10       8.554  22.325  41.821  1.00  6.78 LIG 0.00  C 
ATOM     18  CD1 ILE D  10       7.347  22.161  40.912  1.00  7.71 LIG 0.01  C 
ENDBRANCH 15 17
ENDBRANCH 14 15
BRANCH 14 19
ATOM     19  C   ILE D  10      10.212  24.735  44.099  1.00  8.00 LIG 0.20  C 
ATOM     20 O    ILE D  10      11.390  24.780  43.732  1.00  7.10 LIG-0.65  OA
ATOM     21 OXT  ILE D  10       9.688  25.719  44.612  1.00 10.02 LIG-0.65  OA
ENDBRANCH 14 19
ENDBRANCH 11 14
ENDBRANCH 9 10
BRANCH 9 22
ATOM     22  CB  ILE D   9       5.894  24.585  47.143  1.00  4.97 LIG 0.01  C 
ATOM     23  CG2 ILE D   9       6.716  25.872  47.279  1.00  9.61 LIG 0.01  C 
BRANCH 22 24
ATOM     24  CG1 ILE D   9       4.712  24.773  46.197  1.00  5.60 LIG 0.00  C 
ATOM     25  CD1 ILE D   9       4.096  26.169  46.227  1.00  8.38 LIG 0.01  C 
ENDBRANCH 22 24
ENDBRANCH 9 22
ENDBRANCH 6 9
ENDBRANCH 1 5
BRANCH 1 26
ATOM     26  N   SER D   8       9.866  22.573  49.024  1.00  6.06 LIG-0.34  N 
ATOM     27 H    SER D   8       9.681  23.323  48.646  1.00  6.06 LIG 0.16  HD
ATOM     28  C   THR D   7      11.100  22.135  49.241  1.00 11.81 LIG 0.24  C 
ATOM     29 O    THR D   7      11.354  21.123  49.906  1.00 11.44 LIG-0.27  OA
BRANCH 28 30
ATOM     30  CA  THR D   7      12.215  22.960  48.629  1.00  8.59 LIG 0.20  C 
BRANCH 30 31
ATOM     31  N   THR D   7      13.454  22.192  48.623  1.00 15.26 LIG-0.34  N 
ATOM     32 H    THR D   7      13.589  21.740  47.904  1.00 15.26 LIG 0.16  HD
ATOM     33  C   PRO D   6      14.286  22.209  49.657  1.00 19.06 LIG 0.25  C 
ATOM     34 O    PRO D   6      14.062  22.835  50.687  1.00 17.22 LIG-0.27  OA
BRANCH 33 35
ATOM     35  CA  PRO D   6      15.570  21.395  49.508  1.00 33.07 LIG 0.35  C 
ATOM     36  N   PRO D   6      16.103  21.421  48.141  1.00 36.75 LIG 0.32  N 
ATOM     37  CD  PRO D   6      17.515  21.830  48.112  1.00 36.34 LIG 0.32  C 
ATOM     38  CG  PRO D   6      17.639  22.642  49.356  1.00 37.69 LIG 0.04  C 
ATOM     39  CB  PRO D   6      16.699  22.015  50.343  1.00 35.30 LIG 0.05  C 
ENDBRANCH 33 35
ENDBRANCH 30 31
BRANCH 30 40
ATOM     40  CB  THR D   7      11.800  23.352  47.201  1.00 10.85 LIG 0.15  C 
ATOM     41  CG2 THR D   7      11.676  24.858  47.077  1.00 12.17 LIG 0.04  C 
BRANCH 40 42
ATOM     42 OG1  THR D   7      12.786  22.884  46.275  1.00 14.88 LIG-0.39  OA
ATOM     43 HG1  THR D   7      12.411  22.645  45.563  1.00 14.88 LIG 0.21  HD
ENDBRANCH 40 42
ENDBRANCH 30 40
ENDBRANCH 28 30
ENDBRANCH 1 26
TORSDOF 17
ENDMDL
MODEL 30
USER: ADFR SOLUTION from run 102
USER: SCORE 13.579354 LL:  -2.757 LR: -11.764 RR:   0.000 FEB:  -6.693
USER: RMSD 7.999394
USER: SEED 101
USER: STATUS no improvement in best in 9 clusters for 5 generations
USER: GENES 19
USER: genes 0 Translation |==|  0.26606 0.30831 0.61946
USER: genes 1 Rotation |==|  0.95836 0.43043 0.51767 0.68642
USER: genes 2 Torsion [C]-CA--CB-[OG] |==|  0.25184
USER: genes 3 Torsion [CA]-CB--OG-[HG] |==|  0.31134
USER: genes 4 Torsion [N]-CA--C-[N] |==|  0.99879
USER: genes 5 Torsion [C]-N--CA-[C] |==|  0.13370
USER: genes 6 Torsion [N]-CA--C-[N] |==|  0.12508
USER: genes 7 Torsion [C]-N--CA-[C] |==|  0.55190
USER: genes 8 Torsion [N]-CA--CB-[CG2] |==|  0.38578
USER: genes 9 Torsion [CA]-CB--CG1-[CD1] |==|  0.83104
USER: genes 10 Torsion [N]-CA--C-[O] |==|  0.39881
USER: genes 11 Torsion [N]-CA--CB-[CG2] |==|  0.19571
USER: genes 12 Torsion [CA]-CB--CG1-[CD1] |==|  0.05918
USER: genes 13 Torsion [CB]-CA--N-[C] |==|  0.24384
USER: genes 14 Torsion [N]-C--CA-[N] |==|  0.50556
USER: genes 15 Torsion [C]-CA--N-[C] |==|  0.74094
USER: genes 16 Torsion [N]-C--CA-[N] |==|  0.07743
USER: genes 17 Torsion [C]-CA--CB-[OG1] |==|  0.60945
USER: genes 18 Torsion [CA]-CB--OG1-[HG1] |==|  0.11367
ROOT
ATOM      1  CA  SER D   8       8.469  22.412  47.806  1.00  5.81 LIG 0.20  C 
ENDROOT
BRANCH 1 2
ATOM      2  CB  SER D   8       7.571  22.712  49.008  1.00  5.44 LIG 0.20  C 
BRANCH 2 3
ATOM      3 OG   SER D   8       6.556  21.737  49.118  1.00  4.91 LIG-0.40  OA
ATOM      4 HG   SER D   8       6.684  21.276  49.808  1.00  4.91 LIG 0.21  HD
ENDBRANCH 2 3
ENDBRANCH 1 2
BRANCH 1 5
ATOM      5  C   SER D   8       7.925  23.115  46.587  1.00  6.04 LIG 0.24  C 
ATOM      6  N   ILE D   9       8.744  23.976  46.004  1.00  5.23 LIG-0.35  N 
ATOM      7 H    ILE D   9       9.501  24.218  46.333  1.00  5.23 LIG 0.16  HD
ATOM      8 O    SER D   8       6.783  22.893  46.189  1.00  7.88 LIG-0.27  OA
BRANCH 6 9
ATOM      9  CA  ILE D   9       8.416  24.593  44.733  1.00  5.91 LIG 0.18  C 
BRANCH 9 10
ATOM     10  C   ILE D   9       6.992  25.125  44.804  1.00  8.30 LIG 0.24  C 
ATOM     11  N   ILE D  10       6.678  25.788  45.911  1.00  7.14 LIG-0.34  N 
ATOM     12 H    ILE D  10       7.231  25.942  46.551  1.00  7.14 LIG 0.16  HD
ATOM     13 O    ILE D   9       6.187  24.912  43.890  1.00  8.28 LIG-0.27  OA
BRANCH 11 14
ATOM     14  CA  ILE D  10       5.338  26.320  46.134  1.00  6.72 LIG 0.19  C 
BRANCH 14 15
ATOM     15  CB  ILE D  10       4.355  25.216  46.551  1.00  6.99 LIG 0.01  C 
ATOM     16  CG2 ILE D  10       3.438  25.722  47.659  1.00  9.23 LIG 0.01  C 
BRANCH 15 17
ATOM     17  CG1 ILE D  10       3.509  24.772  45.356  1.00  6.78 LIG 0.00  C 
ATOM     18  CD1 ILE D  10       2.663  25.886  44.758  1.00  7.71 LIG 0.01  C 
ENDBRANCH 15 17
ENDBRANCH 14 15
BRANCH 14 19
ATOM     19  C   ILE D  10       5.383  27.386  47.207  1.00  8.00 LIG 0.20  C 
ATOM     20 O    ILE D  10       4.650  28.375  47.112  1.00  7.10 LIG-0.65  OA
ATOM     21 OXT  ILE D  10       6.131  27.261  48.173  1.00 10.02 LIG-0.65  OA
ENDBRANCH 14 19
ENDBRANCH 11 14
ENDBRANCH 9 10
BRANCH 9 22
ATOM     22  CB  ILE D   9       8.595  23.598  43.568  1.00  4.97 LIG 0.01  C 
ATOM     23  CG2 ILE D   9       7.509  22.517  43.612  1.00  9.61 LIG 0.01  C 
BRANCH 22 24
ATOM     24  CG1 ILE D   9       8.568  24.365  42.250  1.00  5.60 LIG 0.00  C 
ATOM     25  CD1 ILE D   9       8.891  25.851  42.378  1.00  8.38 LIG 0.01  C 
ENDBRANCH 22 24
ENDBRANCH 9 22
ENDBRANCH 6 9
ENDBRANCH 1 5
BRANCH 1 26
ATOM     26  N   SER D   8       9.827  22.869  48.045  1.00  6.06 LIG-0.34  N 
ATOM     27 H    SER D   8       9.988  23.667  47.769  1.00  6.06 LIG 0.16  HD
ATOM     28  C   THR D   7      10.725  22.096  48.644  1.00 11.81 LIG 0.24  C 
ATOM     29 O    THR D   7      10.445  21.006  49.160  1.00 11.44 LIG-0.27  OA
BRANCH 28 30
ATOM     30  CA  THR D   7      12.143  22.629  48.679  1.00  8.59 LIG 0.20  C 
BRANCH 30 31
ATOM     31  N   THR D   7      13.021  21.659  49.321  1.00 15.26 LIG-0.34  N 
ATOM     32 H    THR D   7      13.342  21.064  48.790  1.00 15.26 LIG 0.16  HD
ATOM     33  C   PRO D   6      13.285  21.715  50.621  1.00 19.06 LIG 0.25  C 
ATOM     34 O    PRO D   6      12.793  22.553  51.369  1.00 17.22 LIG-0.27  OA
BRANCH 33 35
ATOM     35  CA  PRO D   6      14.254  20.666  51.163  1.00 33.07 LIG 0.35  C 
ATOM     36  N   PRO D   6      15.210  20.201  50.151  1.00 36.75 LIG 0.32  N 
ATOM     37  CD  PRO D   6      16.600  20.311  50.620  1.00 36.34 LIG 0.32  C 
ATOM     38  CG  PRO D   6      16.511  21.405  51.629  1.00 37.69 LIG 0.04  C 
ATOM     39  CB  PRO D   6      15.152  21.274  52.250  1.00 35.30 LIG 0.05  C 
ENDBRANCH 33 35
ENDBRANCH 30 31
BRANCH 30 40
ATOM     40  CB  THR D   7      12.591  22.909  47.234  1.00 10.85 LIG 0.15  C 
ATOM     41  CG2 THR D   7      12.454  24.385  46.912  1.00 12.17 LIG 0.04  C 
BRANCH 40 42
ATOM     42 OG1  THR D   7      13.958  22.519  47.078  1.00 14.88 LIG-0.39  OA
ATOM     43 HG1  THR D   7      14.091  21.793  47.480  1.00 14.88 LIG 0.21  HD
ENDBRANCH 40 42
ENDBRANCH 30 40
ENDBRANCH 28 30
ENDBRANCH 1 26
TORSDOF 17
ENDMDL
MODEL 31
USER: ADFR SOLUTION from run 180
USER: SCORE 13.466033 LL:  -3.094 LR: -11.732 RR:   0.000 FEB:  -6.661
USER: RMSD 5.724988
USER: SEED 179
USER: STATUS no improvement in best in 20 clusters for 5 generations
USER: GENES 19
USER: genes 0 Translation |==|  0.41932 0.42846 0.47821
USER: genes 1 Rotation |==|  0.95348 0.59482 0.35449 0.61911
USER: genes 2 Torsion [C]-CA--CB-[OG] |==|  0.22366
USER: genes 3 Torsion [CA]-CB--OG-[HG] |==|  0.06445
USER: genes 4 Torsion [N]-CA--C-[N] |==|  0.39444
USER: genes 5 Torsion [C]-N--CA-[C] |==|  0.67838
USER: genes 6 Torsion [N]-CA--C-[N] |==|  0.03550
USER: genes 7 Torsion [C]-N--CA-[C] |==|  0.83601
USER: genes 8 Torsion [N]-CA--CB-[CG2] |==|  0.16347
USER: genes 9 Torsion [CA]-CB--CG1-[CD1] |==|  0.62304
USER: genes 10 Torsion [N]-CA--C-[O] |==|  0.94030
USER: genes 11 Torsion [N]-CA--CB-[CG2] |==|  0.78811
USER: genes 12 Torsion [CA]-CB--CG1-[CD1] |==|  0.51209
USER: genes 13 Torsion [CB]-CA--N-[C] |==|  0.18074
USER: genes 14 Torsion [N]-C--CA-[N] |==|  0.04657
USER: genes 15 Torsion [C]-CA--N-[C] |==|  0.17975
USER: genes 16 Torsion [N]-C--CA-[N] |==|  0.57646
USER: genes 17 Torsion [C]-CA--CB-[OG1] |==|  0.57363
USER: genes 18 Torsion [CA]-CB--OG1-[HG1] |==|  0.95109
ROOT
ATOM      1  CA  SER D   8      12.262  24.125  45.369  1.00  5.81 LIG 0.20  C 
ENDROOT
BRANCH 1 2
ATOM      2  CB  SER D   8      12.579  23.840  46.839  1.00  5.44 LIG 0.20  C 
BRANCH 2 3
ATOM      3 OG   SER D   8      12.033  22.596  47.227  1.00  4.91 LIG-0.40  OA
ATOM      4 HG   SER D   8      11.924  22.114  46.548  1.00  4.91 LIG 0.21  HD
ENDBRANCH 2 3
ENDBRANCH 1 2
BRANCH 1 5
ATOM      5  C   SER D   8      10.855  24.654  45.254  1.00  6.04 LIG 0.24  C 
ATOM      6  N   ILE D   9       9.926  23.762  44.947  1.00  5.23 LIG-0.35  N 
ATOM      7 H    ILE D   9      10.095  22.950  44.721  1.00  5.23 LIG 0.16  HD
ATOM      8 O    SER D   8      10.615  25.848  45.425  1.00  7.88 LIG-0.27  OA
BRANCH 6 9
ATOM      9  CA  ILE D   9       8.515  24.098  44.971  1.00  5.91 LIG 0.18  C 
BRANCH 9 10
ATOM     10  C   ILE D   9       7.836  23.265  46.047  1.00  8.30 LIG 0.24  C 
ATOM     11  N   ILE D  10       8.647  22.640  46.892  1.00  7.14 LIG-0.34  N 
ATOM     12 H    ILE D  10       9.505  22.703  46.868  1.00  7.14 LIG 0.16  HD
ATOM     13 O    ILE D   9       6.604  23.167  46.093  1.00  8.28 LIG-0.27  OA
BRANCH 11 14
ATOM     14  CA  ILE D  10       8.136  21.775  47.951  1.00  6.72 LIG 0.19  C 
BRANCH 14 15
ATOM     15  CB  ILE D  10       9.277  21.165  48.779  1.00  6.99 LIG 0.01  C 
ATOM     16  CG2 ILE D  10      10.120  22.270  49.404  1.00  9.23 LIG 0.01  C 
BRANCH 15 17
ATOM     17  CG1 ILE D  10       8.715  20.269  49.885  1.00  6.78 LIG 0.00  C 
ATOM     18  CD1 ILE D  10       9.387  20.469  51.234  1.00  7.71 LIG 0.01  C 
ENDBRANCH 15 17
ENDBRANCH 14 15
BRANCH 14 19
ATOM     19  C   ILE D  10       7.222  22.567  48.860  1.00  8.00 LIG 0.20  C 
ATOM     20 O    ILE D  10       7.317  23.797  48.896  1.00  7.10 LIG-0.65  OA
ATOM     21 OXT  ILE D  10       6.381  21.992  49.546  1.00 10.02 LIG-0.65  OA
ENDBRANCH 14 19
ENDBRANCH 11 14
ENDBRANCH 9 10
BRANCH 9 22
ATOM     22  CB  ILE D   9       7.867  23.878  43.588  1.00  4.97 LIG 0.01  C 
ATOM     23  CG2 ILE D   9       8.248  25.012  42.629  1.00  9.61 LIG 0.01  C 
BRANCH 22 24
ATOM     24  CG1 ILE D   9       8.298  22.519  43.047  1.00  5.60 LIG 0.00  C 
ATOM     25  CD1 ILE D   9       7.809  22.220  41.632  1.00  8.38 LIG 0.01  C 
ENDBRANCH 22 24
ENDBRANCH 9 22
ENDBRANCH 6 9
ENDBRANCH 1 5
BRANCH 1 26
ATOM     26  N   SER D   8      13.181  25.107  44.821  1.00  6.06 LIG-0.34  N 
ATOM     27 H    SER D   8      12.813  25.849  44.591  1.00  6.06 LIG 0.16  HD
ATOM     28  C   THR D   7      14.478  24.852  44.697  1.00 11.81 LIG 0.24  C 
ATOM     29 O    THR D   7      15.017  23.837  45.157  1.00 11.44 LIG-0.27  OA
BRANCH 28 30
ATOM     30  CA  THR D   7      15.293  25.894  43.957  1.00  8.59 LIG 0.20  C 
BRANCH 30 31
ATOM     31  N   THR D   7      14.548  27.143  43.879  1.00 15.26 LIG-0.34  N 
ATOM     32 H    THR D   7      14.332  27.379  43.081  1.00 15.26 LIG 0.16  HD
ATOM     33  C   PRO D   6      14.242  27.839  44.967  1.00 19.06 LIG 0.25  C 
ATOM     34 O    PRO D   6      14.586  27.503  46.095  1.00 17.22 LIG-0.27  OA
BRANCH 33 35
ATOM     35  CA  PRO D   6      13.421  29.109  44.753  1.00 33.07 LIG 0.35  C 
ATOM     36  N   PRO D   6      13.655  30.118  45.794  1.00 36.75 LIG 0.32  N 
ATOM     37  CD  PRO D   6      14.016  31.423  45.219  1.00 36.34 LIG 0.32  C 
ATOM     38  CG  PRO D   6      14.606  31.041  43.904  1.00 37.69 LIG 0.04  C 
ATOM     39  CB  PRO D   6      13.857  29.819  43.463  1.00 35.30 LIG 0.05  C 
ENDBRANCH 33 35
ENDBRANCH 30 31
BRANCH 30 40
ATOM     40  CB  THR D   7      16.623  26.088  44.705  1.00 10.85 LIG 0.15  C 
ATOM     41  CG2 THR D   7      17.649  25.073  44.240  1.00 12.17 LIG 0.04  C 
BRANCH 40 42
ATOM     42 OG1  THR D   7      17.120  27.406  44.454  1.00 14.88 LIG-0.39  OA
ATOM     43 HG1  THR D   7      16.737  27.726  43.778  1.00 14.88 LIG 0.21  HD
ENDBRANCH 40 42
ENDBRANCH 30 40
ENDBRANCH 28 30
ENDBRANCH 1 26
TORSDOF 17
ENDMDL
MODEL 32
USER: ADFR SOLUTION from run 63
USER: SCORE 13.571658 LL:  -3.784 LR: -11.712 RR:   0.000 FEB:  -6.641
USER: RMSD 7.940595
USER: SEED 62
USER: STATUS no improvement in best in 14 clusters for 5 generations
USER: GENES 19
USER: genes 0 Translation |==|  0.25472 0.42892 0.44245
USER: genes 1 Rotation |==|  0.15040 0.47257 0.58264 0.84670
USER: genes 2 Torsion [C]-CA--CB-[OG] |==|  0.83076
USER: genes 3 Torsion [CA]-CB--OG-[HG] |==|  0.88706
USER: genes 4 Torsion [N]-CA--C-[N] |==|  0.12404
USER: genes 5 Torsion [C]-N--CA-[C] |==|  0.86248
USER: genes 6 Torsion [N]-CA--C-[N] |==|  0.88333
USER: genes 7 Torsion [C]-N--CA-[C] |==|  0.20620
USER: genes 8 Torsion [N]-CA--CB-[CG2] |==|  0.42746
USER: genes 9 Torsion [CA]-CB--CG1-[CD1] |==|  0.69845
USER: genes 10 Torsion [N]-CA--C-[O] |==|  0.32824
USER: genes 11 Torsion [N]-CA--CB-[CG2] |==|  0.72495
USER: genes 12 Torsion [CA]-CB--CG1-[CD1] |==|  0.25312
USER: genes 13 Torsion [CB]-CA--N-[C] |==|  0.38093
USER: genes 14 Torsion [N]-C--CA-[N] |==|  0.97697
USER: genes 15 Torsion [C]-CA--N-[C] |==|  0.73938
USER: genes 16 Torsion [N]-C--CA-[N] |==|  0.41514
USER: genes 17 Torsion [C]-CA--CB-[OG1] |==|  0.57493
USER: genes 18 Torsion [CA]-CB--OG1-[HG1] |==|  0.50356
ROOT
ATOM      1  CA  SER D   8       8.188  24.131  44.752  1.00  5.81 LIG 0.20  C 
ENDROOT
BRANCH 1 2
ATOM      2  CB  SER D   8       7.693  22.893  44.001  1.00  5.44 LIG 0.20  C 
BRANCH 2 3
ATOM      3 OG   SER D   8       7.885  21.734  44.784  1.00  4.91 LIG-0.40  OA
ATOM      4 HG   SER D   8       8.629  21.777  45.171  1.00  4.91 LIG 0.21  HD
ENDBRANCH 2 3
ENDBRANCH 1 2
BRANCH 1 5
ATOM      5  C   SER D   8       7.403  24.288  46.031  1.00  6.04 LIG 0.24  C 
ATOM      6  N   ILE D   9       7.904  25.136  46.915  1.00  5.23 LIG-0.35  N 
ATOM      7 H    ILE D   9       8.676  25.508  46.840  1.00  5.23 LIG 0.16  HD
ATOM      8 O    SER D   8       6.372  23.645  46.219  1.00  7.88 LIG-0.27  OA
BRANCH 6 9
ATOM      9  CA  ILE D   9       7.169  25.509  48.108  1.00  5.91 LIG 0.18  C 
BRANCH 9 10
ATOM     10  C   ILE D   9       5.760  25.915  47.703  1.00  8.30 LIG 0.24  C 
ATOM     11  N   ILE D  10       5.666  26.664  46.611  1.00  7.14 LIG-0.34  N 
ATOM     12 H    ILE D  10       6.340  26.900  46.132  1.00  7.14 LIG 0.16  HD
ATOM     13 O    ILE D   9       4.782  25.581  48.382  1.00  8.28 LIG-0.27  OA
BRANCH 11 14
ATOM     14  CA  ILE D  10       4.381  27.158  46.127  1.00  6.72 LIG 0.19  C 
BRANCH 14 15
ATOM     15  CB  ILE D  10       3.324  26.045  46.096  1.00  6.99 LIG 0.01  C 
ATOM     16  CG2 ILE D  10       1.929  26.644  46.228  1.00  9.23 LIG 0.01  C 
BRANCH 15 17
ATOM     17  CG1 ILE D  10       3.416  25.255  44.790  1.00  6.78 LIG 0.00  C 
ATOM     18  CD1 ILE D  10       2.259  25.512  43.837  1.00  7.71 LIG 0.01  C 
ENDBRANCH 15 17
ENDBRANCH 14 15
BRANCH 14 19
ATOM     19  C   ILE D  10       3.900  28.286  47.015  1.00  8.00 LIG 0.20  C 
ATOM     20 O    ILE D  10       3.739  29.412  46.534  1.00  7.10 LIG-0.65  OA
ATOM     21 OXT  ILE D  10       3.657  28.080  48.201  1.00 10.02 LIG-0.65  OA
ENDBRANCH 14 19
ENDBRANCH 11 14
ENDBRANCH 9 10
BRANCH 9 22
ATOM     22  CB  ILE D   9       7.888  26.638  48.875  1.00  4.97 LIG 0.01  C 
ATOM     23  CG2 ILE D   9       8.697  26.064  50.044  1.00  9.61 LIG 0.01  C 
BRANCH 22 24
ATOM     24  CG1 ILE D   9       8.776  27.411  47.906  1.00  5.60 LIG 0.00  C 
ATOM     25  CD1 ILE D   9       8.097  28.608  47.246  1.00  8.38 LIG 0.01  C 
ENDBRANCH 22 24
ENDBRANCH 9 22
ENDBRANCH 6 9
ENDBRANCH 1 5
BRANCH 1 26
ATOM     26  N   SER D   8       9.599  24.011  45.078  1.00  6.06 LIG-0.34  N 
ATOM     27 H    SER D   8       9.832  23.237  45.368  1.00  6.06 LIG 0.16  HD
ATOM     28  C   THR D   7      10.436  25.031  44.930  1.00 11.81 LIG 0.24  C 
ATOM     29 O    THR D   7      10.118  26.096  44.383  1.00 11.44 LIG-0.27  OA
BRANCH 28 30
ATOM     30  CA  THR D   7      11.839  24.824  45.464  1.00  8.59 LIG 0.20  C 
BRANCH 30 31
ATOM     31  N   THR D   7      11.904  23.578  46.216  1.00 15.26 LIG-0.34  N 
ATOM     32 H    THR D   7      12.061  22.881  45.737  1.00 15.26 LIG 0.16  HD
ATOM     33  C   PRO D   6      11.732  23.551  47.531  1.00 19.06 LIG 0.25  C 
ATOM     34 O    PRO D   6      11.477  24.551  48.194  1.00 17.22 LIG-0.27  OA
BRANCH 33 35
ATOM     35  CA  PRO D   6      11.867  22.187  48.206  1.00 33.07 LIG 0.35  C 
ATOM     36  N   PRO D   6      12.370  22.283  49.582  1.00 36.75 LIG 0.32  N 
ATOM     37  CD  PRO D   6      11.497  21.578  50.533  1.00 36.34 LIG 0.32  C 
ATOM     38  CG  PRO D   6      10.178  21.608  49.840  1.00 37.69 LIG 0.04  C 
ATOM     39  CB  PRO D   6      10.489  21.532  48.374  1.00 35.30 LIG 0.05  C 
ENDBRANCH 33 35
ENDBRANCH 30 31
BRANCH 30 40
ATOM     40  CB  THR D   7      12.812  24.804  44.272  1.00 10.85 LIG 0.15  C 
ATOM     41  CG2 THR D   7      13.252  26.212  43.921  1.00 12.17 LIG 0.04  C 
BRANCH 40 42
ATOM     42 OG1  THR D   7      13.961  24.023  44.612  1.00 14.88 LIG-0.39  OA
ATOM     43 HG1  THR D   7      14.502  24.026  43.969  1.00 14.88 LIG 0.21  HD
ENDBRANCH 40 42
ENDBRANCH 30 40
ENDBRANCH 28 30
ENDBRANCH 1 26
TORSDOF 17
ENDMDL
MODEL 33
USER: ADFR SOLUTION from run 148
USER: SCORE 13.746254 LL:  -4.256 LR: -11.701 RR:   0.000 FEB:  -6.630
USER: RMSD 9.170181
USER: SEED 147
USER: STATUS no improvement in best in 4 clusters for 5 generations
USER: GENES 19
USER: genes 0 Translation |==|  0.21815 0.42540 0.60310
USER: genes 1 Rotation |==|  0.66738 0.13118 0.53569 0.79100
USER: genes 2 Torsion [C]-CA--CB-[OG] |==|  0.77042
USER: genes 3 Torsion [CA]-CB--OG-[HG] |==|  0.59461
USER: genes 4 Torsion [N]-CA--C-[N] |==|  0.64067
USER: genes 5 Torsion [C]-N--CA-[C] |==|  0.62512
USER: genes 6 Torsion [N]-CA--C-[N] |==|  0.22968
USER: genes 7 Torsion [C]-N--CA-[C] |==|  0.48734
USER: genes 8 Torsion [N]-CA--CB-[CG2] |==|  0.17622
USER: genes 9 Torsion [CA]-CB--CG1-[CD1] |==|  0.55979
USER: genes 10 Torsion [N]-CA--C-[O] |==|  0.92854
USER: genes 11 Torsion [N]-CA--CB-[CG2] |==|  0.13681
USER: genes 12 Torsion [CA]-CB--CG1-[CD1] |==|  0.33344
USER: genes 13 Torsion [CB]-CA--N-[C] |==|  0.45015
USER: genes 14 Torsion [N]-C--CA-[N] |==|  0.91667
USER: genes 15 Torsion [C]-CA--N-[C] |==|  0.82989
USER: genes 16 Torsion [N]-C--CA-[N] |==|  0.79795
USER: genes 17 Torsion [C]-CA--CB-[OG1] |==|  0.34589
USER: genes 18 Torsion [CA]-CB--OG1-[HG1] |==|  0.80639
ROOT
ATOM      1  CA  SER D   8       7.283  24.081  47.523  1.00  5.81 LIG 0.20  C 
ENDROOT
BRANCH 1 2
ATOM      2  CB  SER D   8       7.701  25.550  47.433  1.00  5.44 LIG 0.20  C 
BRANCH 2 3
ATOM      3 OG   SER D   8       9.056  25.699  47.800  1.00  4.91 LIG-0.40  OA
ATOM      4 HG   SER D   8       9.162  26.435  48.190  1.00  4.91 LIG 0.21  HD
ENDBRANCH 2 3
ENDBRANCH 1 2
BRANCH 1 5
ATOM      5  C   SER D   8       7.700  23.363  46.264  1.00  6.04 LIG 0.24  C 
ATOM      6  N   ILE D   9       8.170  24.130  45.292  1.00  5.23 LIG-0.35  N 
ATOM      7 H    ILE D   9       8.155  24.990  45.308  1.00  5.23 LIG 0.16  HD
ATOM      8 O    SER D   8       7.585  22.143  46.167  1.00  7.88 LIG-0.27  OA
BRANCH 6 9
ATOM      9  CA  ILE D   9       8.762  23.561  44.096  1.00  5.91 LIG 0.18  C 
BRANCH 9 10
ATOM     10  C   ILE D   9      10.046  24.315  43.784  1.00  8.30 LIG 0.24  C 
ATOM     11  N   ILE D  10      11.123  23.924  44.455  1.00  7.14 LIG-0.34  N 
ATOM     12 H    ILE D  10      11.128  23.274  45.018  1.00  7.14 LIG 0.16  HD
ATOM     13 O    ILE D   9      10.053  25.250  42.975  1.00  8.28 LIG-0.27  OA
BRANCH 11 14
ATOM     14  CA  ILE D  10      12.414  24.582  44.286  1.00  6.72 LIG 0.19  C 
BRANCH 14 15
ATOM     15  CB  ILE D  10      12.309  26.097  44.513  1.00  6.99 LIG 0.01  C 
ATOM     16  CG2 ILE D  10      11.896  26.384  45.952  1.00  9.23 LIG 0.01  C 
BRANCH 15 17
ATOM     17  CG1 ILE D  10      13.649  26.776  44.225  1.00  6.78 LIG 0.00  C 
ATOM     18  CD1 ILE D  10      13.803  28.133  44.894  1.00  7.71 LIG 0.01  C 
ENDBRANCH 15 17
ENDBRANCH 14 15
BRANCH 14 19
ATOM     19  C   ILE D  10      13.417  23.996  45.255  1.00  8.00 LIG 0.20  C 
ATOM     20 O    ILE D  10      13.020  23.481  46.305  1.00  7.10 LIG-0.65  OA
ATOM     21 OXT  ILE D  10      14.617  24.019  44.995  1.00 10.02 LIG-0.65  OA
ENDBRANCH 14 19
ENDBRANCH 11 14
ENDBRANCH 9 10
BRANCH 9 22
ATOM     22  CB  ILE D   9       7.775  23.602  42.912  1.00  4.97 LIG 0.01  C 
ATOM     23  CG2 ILE D   9       7.165  25.001  42.769  1.00  9.61 LIG 0.01  C 
BRANCH 22 24
ATOM     24  CG1 ILE D   9       8.502  23.175  41.642  1.00  5.60 LIG 0.00  C 
ATOM     25  CD1 ILE D   9       7.915  21.940  40.964  1.00  8.38 LIG 0.01  C 
ENDBRANCH 22 24
ENDBRANCH 9 22
ENDBRANCH 6 9
ENDBRANCH 1 5
BRANCH 1 26
ATOM     26  N   SER D   8       7.908  23.433  48.663  1.00  6.06 LIG-0.34  N 
ATOM     27 H    SER D   8       8.589  23.850  48.981  1.00  6.06 LIG 0.16  HD
ATOM     28  C   THR D   7       7.444  22.290  49.154  1.00 11.81 LIG 0.24  C 
ATOM     29 O    THR D   7       6.385  21.771  48.778  1.00 11.44 LIG-0.27  OA
BRANCH 28 30
ATOM     30  CA  THR D   7       8.287  21.637  50.231  1.00  8.59 LIG 0.20  C 
BRANCH 30 31
ATOM     31  N   THR D   7       9.691  21.965  50.029  1.00 15.26 LIG-0.34  N 
ATOM     32 H    THR D   7      10.053  22.398  50.678  1.00 15.26 LIG 0.16  HD
ATOM     33  C   PRO D   6      10.336  21.610  48.924  1.00 19.06 LIG 0.25  C 
ATOM     34 O    PRO D   6       9.796  21.019  47.995  1.00 17.22 LIG-0.27  OA
BRANCH 33 35
ATOM     35  CA  PRO D   6      11.817  21.977  48.854  1.00 33.07 LIG 0.35  C 
ATOM     36  N   PRO D   6      12.036  23.414  48.649  1.00 36.75 LIG 0.32  N 
ATOM     37  CD  PRO D   6      12.947  23.977  49.657  1.00 36.34 LIG 0.32  C 
ATOM     38  CG  PRO D   6      12.769  23.044  50.806  1.00 37.69 LIG 0.04  C 
ATOM     39  CB  PRO D   6      12.504  21.699  50.198  1.00 35.30 LIG 0.05  C 
ENDBRANCH 33 35
ENDBRANCH 30 31
BRANCH 30 40
ATOM     40  CB  THR D   7       7.793  22.136  51.600  1.00 10.85 LIG 0.15  C 
ATOM     41  CG2 THR D   7       6.573  23.022  51.435  1.00 12.17 LIG 0.04  C 
BRANCH 40 42
ATOM     42 OG1  THR D   7       7.450  21.014  52.418  1.00 14.88 LIG-0.39  OA
ATOM     43 HG1  THR D   7       6.758  20.646  52.115  1.00 14.88 LIG 0.21  HD
ENDBRANCH 40 42
ENDBRANCH 30 40
ENDBRANCH 28 30
ENDBRANCH 1 26
TORSDOF 17
ENDMDL
MODEL 34
USER: ADFR SOLUTION from run 28
USER: SCORE 14.385530 LL:  -3.984 LR: -11.683 RR:   0.000 FEB:  -6.611
USER: RMSD 8.674070
USER: SEED 27
USER: STATUS no improvement in best in 14 clusters for 5 generations
USER: GENES 19
USER: genes 0 Translation |==|  0.33848 0.47905 0.56970
USER: genes 1 Rotation |==|  0.29982 0.27682 0.21937 0.78525
USER: genes 2 Torsion [C]-CA--CB-[OG] |==|  0.55112
USER: genes 3 Torsion [CA]-CB--OG-[HG] |==|  0.36191
USER: genes 4 Torsion [N]-CA--C-[N] |==|  0.73829
USER: genes 5 Torsion [C]-N--CA-[C] |==|  0.81218
USER: genes 6 Torsion [N]-CA--C-[N] |==|  0.35556
USER: genes 7 Torsion [C]-N--CA-[C] |==|  0.67331
USER: genes 8 Torsion [N]-CA--CB-[CG2] |==|  0.59120
USER: genes 9 Torsion [CA]-CB--CG1-[CD1] |==|  0.60117
USER: genes 10 Torsion [N]-CA--C-[O] |==|  0.10858
USER: genes 11 Torsion [N]-CA--CB-[CG2] |==|  0.80529
USER: genes 12 Torsion [CA]-CB--CG1-[CD1] |==|  0.48874
USER: genes 13 Torsion [CB]-CA--N-[C] |==|  0.83344
USER: genes 14 Torsion [N]-C--CA-[N] |==|  0.90378
USER: genes 15 Torsion [C]-CA--N-[C] |==|  0.83290
USER: genes 16 Torsion [N]-C--CA-[N] |==|  0.50312
USER: genes 17 Torsion [C]-CA--CB-[OG1] |==|  0.34478
USER: genes 18 Torsion [CA]-CB--OG1-[HG1] |==|  0.28378
ROOT
ATOM      1  CA  SER D   8      10.261  24.845  46.947  1.00  5.81 LIG 0.20  C 
ENDROOT
BRANCH 1 2
ATOM      2  CB  SER D   8      11.200  24.099  45.997  1.00  5.44 LIG 0.20  C 
BRANCH 2 3
ATOM      3 OG   SER D   8      12.021  23.205  46.718  1.00  4.91 LIG-0.40  OA
ATOM      4 HG   SER D   8      11.995  22.447  46.358  1.00  4.91 LIG 0.21  HD
ENDBRANCH 2 3
ENDBRANCH 1 2
BRANCH 1 5
ATOM      5  C   SER D   8       9.117  25.434  46.161  1.00  6.04 LIG 0.24  C 
ATOM      6  N   ILE D   9       8.799  24.799  45.043  1.00  5.23 LIG-0.35  N 
ATOM      7 H    ILE D   9       9.260  24.155  44.708  1.00  5.23 LIG 0.16  HD
ATOM      8 O    SER D   8       8.541  26.448  46.549  1.00  7.88 LIG-0.27  OA
BRANCH 6 9
ATOM      9  CA  ILE D   9       7.617  25.153  44.280  1.00  5.91 LIG 0.18  C 
BRANCH 9 10
ATOM     10  C   ILE D   9       6.386  24.784  45.093  1.00  8.30 LIG 0.24  C 
ATOM     11  N   ILE D  10       5.489  25.750  45.254  1.00  7.14 LIG-0.34  N 
ATOM     12 H    ILE D  10       5.563  26.536  44.911  1.00  7.14 LIG 0.16  HD
ATOM     13 O    ILE D   9       6.265  23.658  45.590  1.00  8.28 LIG-0.27  OA
BRANCH 11 14
ATOM     14  CA  ILE D  10       4.278  25.551  46.043  1.00  6.72 LIG 0.19  C 
BRANCH 14 15
ATOM     15  CB  ILE D  10       4.195  26.547  47.209  1.00  6.99 LIG 0.01  C 
ATOM     16  CG2 ILE D  10       3.498  25.901  48.401  1.00  9.23 LIG 0.01  C 
BRANCH 15 17
ATOM     17  CG1 ILE D  10       5.594  27.002  47.625  1.00  6.78 LIG 0.00  C 
ATOM     18  CD1 ILE D  10       5.750  27.209  49.124  1.00  7.71 LIG 0.01  C 
ENDBRANCH 15 17
ENDBRANCH 14 15
BRANCH 14 19
ATOM     19  C   ILE D  10       3.060  25.708  45.159  1.00  8.00 LIG 0.20  C 
ATOM     20 O    ILE D  10       3.082  25.261  44.008  1.00  7.10 LIG-0.65  OA
ATOM     21 OXT  ILE D  10       2.051  26.263  45.587  1.00 10.02 LIG-0.65  OA
ENDBRANCH 14 19
ENDBRANCH 11 14
ENDBRANCH 9 10
BRANCH 9 22
ATOM     22  CB  ILE D   9       7.617  24.462  42.901  1.00  4.97 LIG 0.01  C 
ATOM     23  CG2 ILE D   9       8.700  25.063  41.998  1.00  9.61 LIG 0.01  C 
BRANCH 22 24
ATOM     24  CG1 ILE D   9       7.817  22.963  43.095  1.00  5.60 LIG 0.00  C 
ATOM     25  CD1 ILE D   9       7.739  22.144  41.809  1.00  8.38 LIG 0.01  C 
ENDBRANCH 22 24
ENDBRANCH 9 22
ENDBRANCH 6 9
ENDBRANCH 1 5
BRANCH 1 26
ATOM     26  N   SER D   8       9.727  23.950  47.958  1.00  6.06 LIG-0.34  N 
ATOM     27 H    SER D   8       9.917  24.171  48.766  1.00  6.06 LIG 0.16  HD
ATOM     28  C   THR D   7       9.006  22.884  47.631  1.00 11.81 LIG 0.24  C 
ATOM     29 O    THR D   7       8.622  22.652  46.478  1.00 11.44 LIG-0.27  OA
BRANCH 28 30
ATOM     30  CA  THR D   7       8.654  21.945  48.768  1.00  8.59 LIG 0.20  C 
BRANCH 30 31
ATOM     31  N   THR D   7       9.746  21.900  49.731  1.00 15.26 LIG-0.34  N 
ATOM     32 H    THR D   7       9.531  22.154  50.524  1.00 15.26 LIG 0.16  HD
ATOM     33  C   PRO D   6      10.963  21.498  49.384  1.00 19.06 LIG 0.25  C 
ATOM     34 O    PRO D   6      11.258  21.170  48.240  1.00 17.22 LIG-0.27  OA
BRANCH 33 35
ATOM     35  CA  PRO D   6      12.008  21.458  50.497  1.00 33.07 LIG 0.35  C 
ATOM     36  N   PRO D   6      13.328  21.027  50.020  1.00 36.75 LIG 0.32  N 
ATOM     37  CD  PRO D   6      14.383  21.979  50.397  1.00 36.34 LIG 0.32  C 
ATOM     38  CG  PRO D   6      13.627  23.256  50.536  1.00 37.69 LIG 0.04  C 
ATOM     39  CB  PRO D   6      12.268  22.870  51.041  1.00 35.30 LIG 0.05  C 
ENDBRANCH 33 35
ENDBRANCH 30 31
BRANCH 30 40
ATOM     40  CB  THR D   7       7.356  22.444  49.424  1.00 10.85 LIG 0.15  C 
ATOM     41  CG2 THR D   7       6.805  23.640  48.672  1.00 12.17 LIG 0.04  C 
BRANCH 40 42
ATOM     42 OG1  THR D   7       6.384  21.394  49.413  1.00 14.88 LIG-0.39  OA
ATOM     43 HG1  THR D   7       6.340  21.045  50.176  1.00 14.88 LIG 0.21  HD
ENDBRANCH 40 42
ENDBRANCH 30 40
ENDBRANCH 28 30
ENDBRANCH 1 26
TORSDOF 17
ENDMDL
MODEL 35
USER: ADFR SOLUTION from run 23
USER: SCORE 13.883726 LL:  -2.868 LR: -11.653 RR:   0.000 FEB:  -6.582
USER: RMSD 5.386703
USER: SEED 22
USER: STATUS no improvement in best in 10 clusters for 5 generations
USER: GENES 19
USER: genes 0 Translation |==|  0.42777 0.39450 0.47454
USER: genes 1 Rotation |==|  0.97614 0.52373 0.39236 0.60554
USER: genes 2 Torsion [C]-CA--CB-[OG] |==|  0.50564
USER: genes 3 Torsion [CA]-CB--OG-[HG] |==|  0.68835
USER: genes 4 Torsion [N]-CA--C-[N] |==|  0.38889
USER: genes 5 Torsion [C]-N--CA-[C] |==|  0.70970
USER: genes 6 Torsion [N]-CA--C-[N] |==|  0.99978
USER: genes 7 Torsion [C]-N--CA-[C] |==|  0.85958
USER: genes 8 Torsion [N]-CA--CB-[CG2] |==|  0.09546
USER: genes 9 Torsion [CA]-CB--CG1-[CD1] |==|  0.50253
USER: genes 10 Torsion [N]-CA--C-[O] |==|  0.79120
USER: genes 11 Torsion [N]-CA--CB-[CG2] |==|  0.79321
USER: genes 12 Torsion [CA]-CB--CG1-[CD1] |==|  0.40785
USER: genes 13 Torsion [CB]-CA--N-[C] |==|  0.87319
USER: genes 14 Torsion [N]-C--CA-[N] |==|  0.90084
USER: genes 15 Torsion [C]-CA--N-[C] |==|  0.75011
USER: genes 16 Torsion [N]-C--CA-[N] |==|  0.46063
USER: genes 17 Torsion [C]-CA--CB-[OG1] |==|  0.45883
USER: genes 18 Torsion [CA]-CB--OG1-[HG1] |==|  0.43152
ROOT
ATOM      1  CA  SER D   8      12.471  23.641  45.306  1.00  5.81 LIG 0.20  C 
ENDROOT
BRANCH 1 2
ATOM      2  CB  SER D   8      12.375  23.302  46.795  1.00  5.44 LIG 0.20  C 
BRANCH 2 3
ATOM      3 OG   SER D   8      13.487  22.528  47.195  1.00  4.91 LIG-0.40  OA
ATOM      4 HG   SER D   8      13.232  21.752  47.391  1.00  4.91 LIG 0.21  HD
ENDBRANCH 2 3
ENDBRANCH 1 2
BRANCH 1 5
ATOM      5  C   SER D   8      11.301  24.508  44.913  1.00  6.04 LIG 0.24  C 
ATOM      6  N   ILE D   9      10.288  23.882  44.336  1.00  5.23 LIG-0.35  N 
ATOM      7 H    ILE D   9      10.307  23.057  44.094  1.00  5.23 LIG 0.16  HD
ATOM      8 O    SER D   8      11.320  25.720  45.116  1.00  7.88 LIG-0.27  OA
BRANCH 6 9
ATOM      9  CA  ILE D   9       9.035  24.560  44.063  1.00  5.91 LIG 0.18  C 
BRANCH 9 10
ATOM     10  C   ILE D   9       8.003  24.103  45.083  1.00  8.30 LIG 0.24  C 
ATOM     11  N   ILE D  10       8.427  23.218  45.977  1.00  7.14 LIG-0.34  N 
ATOM     12 H    ILE D  10       9.234  22.923  46.014  1.00  7.14 LIG 0.16  HD
ATOM     13 O    ILE D   9       6.840  24.521  45.042  1.00  8.28 LIG-0.27  OA
BRANCH 11 14
ATOM     14  CA  ILE D  10       7.536  22.663  46.991  1.00  6.72 LIG 0.19  C 
BRANCH 14 15
ATOM     15  CB  ILE D  10       8.307  21.821  48.018  1.00  6.99 LIG 0.01  C 
ATOM     16  CG2 ILE D  10       9.689  22.419  48.255  1.00  9.23 LIG 0.01  C 
BRANCH 15 17
ATOM     17  CG1 ILE D  10       7.546  21.764  49.344  1.00  6.78 LIG 0.00  C 
ATOM     18  CD1 ILE D  10       8.257  20.964  50.424  1.00  7.71 LIG 0.01  C 
ENDBRANCH 15 17
ENDBRANCH 14 15
BRANCH 14 19
ATOM     19  C   ILE D  10       6.810  23.784  47.702  1.00  8.00 LIG 0.20  C 
ATOM     20 O    ILE D  10       7.414  24.470  48.532  1.00  7.10 LIG-0.65  OA
ATOM     21 OXT  ILE D  10       5.632  24.019  47.446  1.00 10.02 LIG-0.65  OA
ENDBRANCH 14 19
ENDBRANCH 11 14
ENDBRANCH 9 10
BRANCH 9 22
ATOM     22  CB  ILE D   9       8.563  24.296  42.618  1.00  4.97 LIG 0.01  C 
ATOM     23  CG2 ILE D   9       9.406  25.100  41.621  1.00  9.61 LIG 0.01  C 
BRANCH 22 24
ATOM     24  CG1 ILE D   9       8.637  22.799  42.335  1.00  5.60 LIG 0.00  C 
ATOM     25  CD1 ILE D   9       7.557  22.282  41.388  1.00  8.38 LIG 0.01  C 
ENDBRANCH 22 24
ENDBRANCH 9 22
ENDBRANCH 6 9
ENDBRANCH 1 5
BRANCH 1 26
ATOM     26  N   SER D   8      13.704  24.352  45.014  1.00  6.06 LIG-0.34  N 
ATOM     27 H    SER D   8      14.123  24.066  44.320  1.00  6.06 LIG 0.16  HD
ATOM     28  C   THR D   7      14.123  25.357  45.773  1.00 11.81 LIG 0.24  C 
ATOM     29 O    THR D   7      13.444  25.848  46.684  1.00 11.44 LIG-0.27  OA
BRANCH 28 30
ATOM     30  CA  THR D   7      15.503  25.899  45.457  1.00  8.59 LIG 0.20  C 
BRANCH 30 31
ATOM     31  N   THR D   7      16.380  24.812  45.046  1.00 15.26 LIG-0.34  N 
ATOM     32 H    THR D   7      16.382  24.656  44.200  1.00 15.26 LIG 0.16  HD
ATOM     33  C   PRO D   6      17.107  24.134  45.926  1.00 19.06 LIG 0.25  C 
ATOM     34 O    PRO D   6      17.068  24.349  47.132  1.00 17.22 LIG-0.27  OA
BRANCH 33 35
ATOM     35  CA  PRO D   6      18.018  23.046  45.361  1.00 33.07 LIG 0.35  C 
ATOM     36  N   PRO D   6      19.014  22.579  46.333  1.00 36.75 LIG 0.32  N 
ATOM     37  CD  PRO D   6      18.989  21.116  46.482  1.00 36.34 LIG 0.32  C 
ATOM     38  CG  PRO D   6      17.590  20.779  46.093  1.00 37.69 LIG 0.04  C 
ATOM     39  CB  PRO D   6      17.209  21.780  45.043  1.00 35.30 LIG 0.05  C 
ENDBRANCH 33 35
ENDBRANCH 30 31
BRANCH 30 40
ATOM     40  CB  THR D   7      15.366  26.952  44.344  1.00 10.85 LIG 0.15  C 
ATOM     41  CG2 THR D   7      14.203  27.882  44.631  1.00 12.17 LIG 0.04  C 
BRANCH 40 42
ATOM     42 OG1  THR D   7      16.572  27.718  44.266  1.00 14.88 LIG-0.39  OA
ATOM     43 HG1  THR D   7      16.650  28.040  43.494  1.00 14.88 LIG 0.21  HD
ENDBRANCH 40 42
ENDBRANCH 30 40
ENDBRANCH 28 30
ENDBRANCH 1 26
TORSDOF 17
ENDMDL
MODEL 36
USER: ADFR SOLUTION from run 92
USER: SCORE 14.505618 LL:  -3.282 LR: -11.625 RR:   0.000 FEB:  -6.554
USER: RMSD 3.987353
USER: SEED 91
USER: STATUS no improvement in best in 10 clusters for 5 generations
USER: GENES 19
USER: genes 0 Translation |==|  0.47240 0.60072 0.47549
USER: genes 1 Rotation |==|  0.46497 0.33944 0.52214 0.97170
USER: genes 2 Torsion [C]-CA--CB-[OG] |==|  0.52805
USER: genes 3 Torsion [CA]-CB--OG-[HG] |==|  0.30654
USER: genes 4 Torsion [N]-CA--C-[N] |==|  0.16205
USER: genes 5 Torsion [C]-N--CA-[C] |==|  0.82640
USER: genes 6 Torsion [N]-CA--C-[N] |==|  0.35425
USER: genes 7 Torsion [C]-N--CA-[C] |==|  0.72275
USER: genes 8 Torsion [N]-CA--CB-[CG2] |==|  0.72315
USER: genes 9 Torsion [CA]-CB--CG1-[CD1] |==|  0.39472
USER: genes 10 Torsion [N]-CA--C-[O] |==|  0.45449
USER: genes 11 Torsion [N]-CA--CB-[CG2] |==|  0.08182
USER: genes 12 Torsion [CA]-CB--CG1-[CD1] |==|  0.46481
USER: genes 13 Torsion [CB]-CA--N-[C] |==|  0.77765
USER: genes 14 Torsion [N]-C--CA-[N] |==|  0.38768
USER: genes 15 Torsion [C]-CA--N-[C] |==|  0.81637
USER: genes 16 Torsion [N]-C--CA-[N] |==|  0.93747
USER: genes 17 Torsion [C]-CA--CB-[OG1] |==|  0.68961
USER: genes 18 Torsion [CA]-CB--OG1-[HG1] |==|  0.24915
ROOT
ATOM      1  CA  SER D   8      13.576  26.579  45.322  1.00  5.81 LIG 0.20  C 
ENDROOT
BRANCH 1 2
ATOM      2  CB  SER D   8      13.604  27.224  43.935  1.00  5.44 LIG 0.20  C 
BRANCH 2 3
ATOM      3 OG   SER D   8      14.617  28.206  43.870  1.00  4.91 LIG-0.40  OA
ATOM      4 HG   SER D   8      15.234  27.939  43.366  1.00  4.91 LIG 0.21  HD
ENDBRANCH 2 3
ENDBRANCH 1 2
BRANCH 1 5
ATOM      5  C   SER D   8      12.667  25.375  45.296  1.00  6.04 LIG 0.24  C 
ATOM      6  N   ILE D   9      12.554  24.714  46.438  1.00  5.23 LIG-0.35  N 
ATOM      7 H    ILE D   9      13.031  24.873  47.135  1.00  5.23 LIG 0.16  HD
ATOM      8 O    SER D   8      12.091  25.043  44.262  1.00  7.88 LIG-0.27  OA
BRANCH 6 9
ATOM      9  CA  ILE D   9      11.588  23.644  46.601  1.00  5.91 LIG 0.18  C 
BRANCH 9 10
ATOM     10  C   ILE D   9      10.191  24.221  46.432  1.00  8.30 LIG 0.24  C 
ATOM     11  N   ILE D  10       9.413  23.603  45.551  1.00  7.14 LIG-0.34  N 
ATOM     12 H    ILE D  10       9.651  22.905  45.108  1.00  7.14 LIG 0.16  HD
ATOM     13 O    ILE D   9       9.835  25.223  47.063  1.00  8.28 LIG-0.27  OA
BRANCH 11 14
ATOM     14  CA  ILE D  10       8.062  24.070  45.257  1.00  6.72 LIG 0.19  C 
BRANCH 14 15
ATOM     15  CB  ILE D  10       7.756  23.999  43.754  1.00  6.99 LIG 0.01  C 
ATOM     16  CG2 ILE D  10       7.920  25.374  43.119  1.00  9.23 LIG 0.01  C 
BRANCH 15 17
ATOM     17  CG1 ILE D  10       8.692  23.006  43.062  1.00  6.78 LIG 0.00  C 
ATOM     18  CD1 ILE D  10       8.020  22.192  41.968  1.00  7.71 LIG 0.01  C 
ENDBRANCH 15 17
ENDBRANCH 14 15
BRANCH 14 19
ATOM     19  C   ILE D  10       7.056  23.233  46.016  1.00  8.00 LIG 0.20  C 
ATOM     20 O    ILE D  10       5.899  23.644  46.148  1.00  7.10 LIG-0.65  OA
ATOM     21 OXT  ILE D  10       7.382  22.145  46.484  1.00 10.02 LIG-0.65  OA
ENDBRANCH 14 19
ENDBRANCH 11 14
ENDBRANCH 9 10
BRANCH 9 22
ATOM     22  CB  ILE D   9      11.755  22.947  47.967  1.00  4.97 LIG 0.01  C 
ATOM     23  CG2 ILE D   9      12.301  23.929  49.009  1.00  9.61 LIG 0.01  C 
BRANCH 22 24
ATOM     24  CG1 ILE D   9      10.412  22.364  48.395  1.00  5.60 LIG 0.00  C 
ATOM     25  CD1 ILE D   9      10.492  21.393  49.570  1.00  8.38 LIG 0.01  C 
ENDBRANCH 22 24
ENDBRANCH 9 22
ENDBRANCH 6 9
ENDBRANCH 1 5
BRANCH 1 26
ATOM     26  N   SER D   8      14.906  26.156  45.725  1.00  6.06 LIG-0.34  N 
ATOM     27 H    SER D   8      15.303  26.696  46.264  1.00  6.06 LIG 0.16  HD
ATOM     28  C   THR D   7      15.439  25.024  45.282  1.00 11.81 LIG 0.24  C 
ATOM     29 O    THR D   7      14.809  24.191  44.620  1.00 11.44 LIG-0.27  OA
BRANCH 28 30
ATOM     30  CA  THR D   7      16.892  24.787  45.644  1.00  8.59 LIG 0.20  C 
BRANCH 30 31
ATOM     31  N   THR D   7      17.092  23.389  46.000  1.00 15.26 LIG-0.34  N 
ATOM     32 H    THR D   7      17.594  22.952  45.455  1.00 15.26 LIG 0.16  HD
ATOM     33  C   PRO D   6      16.534  22.860  47.082  1.00 19.06 LIG 0.25  C 
ATOM     34 O    PRO D   6      15.796  23.491  47.830  1.00 17.22 LIG-0.27  OA
BRANCH 33 35
ATOM     35  CA  PRO D   6      16.857  21.394  47.365  1.00 33.07 LIG 0.35  C 
ATOM     36  N   PRO D   6      17.286  20.666  46.165  1.00 36.75 LIG 0.32  N 
ATOM     37  CD  PRO D   6      18.568  19.975  46.374  1.00 36.34 LIG 0.32  C 
ATOM     38  CG  PRO D   6      19.200  20.792  47.449  1.00 37.69 LIG 0.04  C 
ATOM     39  CB  PRO D   6      18.068  21.283  48.302  1.00 35.30 LIG 0.05  C 
ENDBRANCH 33 35
ENDBRANCH 30 31
BRANCH 30 40
ATOM     40  CB  THR D   7      17.762  25.183  44.438  1.00 10.85 LIG 0.15  C 
ATOM     41  CG2 THR D   7      18.855  26.144  44.863  1.00 12.17 LIG 0.04  C 
BRANCH 40 42
ATOM     42 OG1  THR D   7      18.360  24.009  43.880  1.00 14.88 LIG-0.39  OA
ATOM     43 HG1  THR D   7      17.851  23.686  43.294  1.00 14.88 LIG 0.21  HD
ENDBRANCH 40 42
ENDBRANCH 30 40
ENDBRANCH 28 30
ENDBRANCH 1 26
TORSDOF 17
ENDMDL
MODEL 37
USER: ADFR SOLUTION from run 143
USER: SCORE 14.048271 LL:  -3.442 LR: -11.627 RR:   0.000 FEB:  -6.556
USER: RMSD 3.999797
USER: SEED 142
USER: STATUS no improvement in best in 10 clusters for 5 generations
USER: GENES 19
USER: genes 0 Translation |==|  0.44778 0.38547 0.50882
USER: genes 1 Rotation |==|  0.99277 0.49460 0.44221 0.56172
USER: genes 2 Torsion [C]-CA--CB-[OG] |==|  0.58530
USER: genes 3 Torsion [CA]-CB--OG-[HG] |==|  0.75158
USER: genes 4 Torsion [N]-CA--C-[N] |==|  0.43669
USER: genes 5 Torsion [C]-N--CA-[C] |==|  0.75152
USER: genes 6 Torsion [N]-CA--C-[N] |==|  0.86994
USER: genes 7 Torsion [C]-N--CA-[C] |==|  0.52947
USER: genes 8 Torsion [N]-CA--CB-[CG2] |==|  0.71946
USER: genes 9 Torsion [CA]-CB--CG1-[CD1] |==|  0.61854
USER: genes 10 Torsion [N]-CA--C-[O] |==|  0.03544
USER: genes 11 Torsion [N]-CA--CB-[CG2] |==|  0.75337
USER: genes 12 Torsion [CA]-CB--CG1-[CD1] |==|  0.45656
USER: genes 13 Torsion [CB]-CA--N-[C] |==|  0.51797
USER: genes 14 Torsion [N]-C--CA-[N] |==|  0.36184
USER: genes 15 Torsion [C]-CA--N-[C] |==|  0.57530
USER: genes 16 Torsion [N]-C--CA-[N] |==|  0.05377
USER: genes 17 Torsion [C]-CA--CB-[OG1] |==|  0.66492
USER: genes 18 Torsion [CA]-CB--OG1-[HG1] |==|  0.27229
ROOT
ATOM      1  CA  SER D   8      12.966  23.512  45.897  1.00  5.81 LIG 0.20  C 
ENDROOT
BRANCH 1 2
ATOM      2  CB  SER D   8      12.504  22.966  47.250  1.00  5.44 LIG 0.20  C 
BRANCH 2 3
ATOM      3 OG   SER D   8      13.616  22.562  48.022  1.00  4.91 LIG-0.40  OA
ATOM      4 HG   SER D   8      13.791  21.757  47.859  1.00  4.91 LIG 0.21  HD
ENDBRANCH 2 3
ENDBRANCH 1 2
BRANCH 1 5
ATOM      5  C   SER D   8      11.999  24.570  45.427  1.00  6.04 LIG 0.24  C 
ATOM      6  N   ILE D   9      10.896  24.125  44.846  1.00  5.23 LIG-0.35  N 
ATOM      7 H    ILE D   9      10.759  23.301  44.641  1.00  5.23 LIG 0.16  HD
ATOM      8 O    SER D   8      12.251  25.764  45.575  1.00  7.88 LIG-0.27  OA
BRANCH 6 9
ATOM      9  CA  ILE D   9       9.808  25.020  44.500  1.00  5.91 LIG 0.18  C 
BRANCH 9 10
ATOM     10  C   ILE D   9       8.858  25.108  45.685  1.00  8.30 LIG 0.24  C 
ATOM     11  N   ILE D  10       8.518  23.951  46.240  1.00  7.14 LIG-0.34  N 
ATOM     12 H    ILE D  10       8.819  23.188  45.981  1.00  7.14 LIG 0.16  HD
ATOM     13 O    ILE D   9       8.418  26.199  46.068  1.00  8.28 LIG-0.27  OA
BRANCH 11 14
ATOM     14  CA  ILE D  10       7.584  23.880  47.359  1.00  6.72 LIG 0.19  C 
BRANCH 14 15
ATOM     15  CB  ILE D  10       6.156  24.246  46.926  1.00  6.99 LIG 0.01  C 
ATOM     16  CG2 ILE D  10       5.836  25.680  47.331  1.00  9.23 LIG 0.01  C 
BRANCH 15 17
ATOM     17  CG1 ILE D  10       6.003  24.101  45.411  1.00  6.78 LIG 0.00  C 
ATOM     18  CD1 ILE D  10       5.228  25.239  44.763  1.00  7.71 LIG 0.01  C 
ENDBRANCH 15 17
ENDBRANCH 14 15
BRANCH 14 19
ATOM     19  C   ILE D  10       7.590  22.484  47.943  1.00  8.00 LIG 0.20  C 
ATOM     20 O    ILE D  10       8.481  21.693  47.617  1.00  7.10 LIG-0.65  OA
ATOM     21 OXT  ILE D  10       6.725  22.144  48.745  1.00 10.02 LIG-0.65  OA
ENDBRANCH 14 19
ENDBRANCH 11 14
ENDBRANCH 9 10
BRANCH 9 22
ATOM     22  CB  ILE D   9       9.084  24.549  43.223  1.00  4.97 LIG 0.01  C 
ATOM     23  CG2 ILE D   9       9.748  25.145  41.976  1.00  9.61 LIG 0.01  C 
BRANCH 22 24
ATOM     24  CG1 ILE D   9       9.085  23.024  43.183  1.00  5.60 LIG 0.00  C 
ATOM     25  CD1 ILE D   9       8.095  22.418  42.192  1.00  8.38 LIG 0.01  C 
ENDBRANCH 22 24
ENDBRANCH 9 22
ENDBRANCH 6 9
ENDBRANCH 1 5
BRANCH 1 26
ATOM     26  N   SER D   8      14.292  24.097  45.998  1.00  6.06 LIG-0.34  N 
ATOM     27 H    SER D   8      14.673  23.986  46.761  1.00  6.06 LIG 0.16  HD
ATOM     28  C   THR D   7      14.845  24.746  44.981  1.00 11.81 LIG 0.24  C 
ATOM     29 O    THR D   7      14.347  24.781  43.848  1.00 11.44 LIG-0.27  OA
BRANCH 28 30
ATOM     30  CA  THR D   7      16.154  25.451  45.273  1.00  8.59 LIG 0.20  C 
BRANCH 30 31
ATOM     31  N   THR D   7      17.144  25.097  44.264  1.00 15.26 LIG-0.34  N 
ATOM     32 H    THR D   7      16.812  24.882  43.501  1.00 15.26 LIG 0.16  HD
ATOM     33  C   PRO D   6      18.444  25.115  44.530  1.00 19.06 LIG 0.25  C 
ATOM     34 O    PRO D   6      18.898  25.394  45.635  1.00 17.22 LIG-0.27  OA
BRANCH 33 35
ATOM     35  CA  PRO D   6      19.379  24.765  43.374  1.00 33.07 LIG 0.35  C 
ATOM     36  N   PRO D   6      18.735  24.903  42.062  1.00 36.75 LIG 0.32  N 
ATOM     37  CD  PRO D   6      19.520  25.753  41.155  1.00 36.34 LIG 0.32  C 
ATOM     38  CG  PRO D   6      20.280  26.617  42.103  1.00 37.69 LIG 0.04  C 
ATOM     39  CB  PRO D   6      20.546  25.761  43.306  1.00 35.30 LIG 0.05  C 
ENDBRANCH 33 35
ENDBRANCH 30 31
BRANCH 30 40
ATOM     40  CB  THR D   7      15.895  26.967  45.288  1.00 10.85 LIG 0.15  C 
ATOM     41  CG2 THR D   7      16.231  27.552  46.646  1.00 12.17 LIG 0.04  C 
BRANCH 40 42
ATOM     42 OG1  THR D   7      16.707  27.596  44.292  1.00 14.88 LIG-0.39  OA
ATOM     43 HG1  THR D   7      16.251  27.725  43.598  1.00 14.88 LIG 0.21  HD
ENDBRANCH 40 42
ENDBRANCH 30 40
ENDBRANCH 28 30
ENDBRANCH 1 26
TORSDOF 17
ENDMDL
MODEL 38
USER: ADFR SOLUTION from run 57
USER: SCORE 14.548473 LL:  -3.519 LR: -11.593 RR:   0.000 FEB:  -6.522
USER: RMSD 8.126308
USER: SEED 56
USER: STATUS no improvement in best in 8 clusters for 5 generations
USER: GENES 19
USER: genes 0 Translation |==|  0.37680 0.26888 0.64935
USER: genes 1 Rotation |==|  0.03726 0.66184 0.40191 0.50758
USER: genes 2 Torsion [C]-CA--CB-[OG] |==|  0.23798
USER: genes 3 Torsion [CA]-CB--OG-[HG] |==|  0.91817
USER: genes 4 Torsion [N]-CA--C-[N] |==|  0.32298
USER: genes 5 Torsion [C]-N--CA-[C] |==|  0.77029
USER: genes 6 Torsion [N]-CA--C-[N] |==|  0.93889
USER: genes 7 Torsion [C]-N--CA-[C] |==|  0.59675
USER: genes 8 Torsion [N]-CA--CB-[CG2] |==|  0.81250
USER: genes 9 Torsion [CA]-CB--CG1-[CD1] |==|  0.42312
USER: genes 10 Torsion [N]-CA--C-[O] |==|  0.90763
USER: genes 11 Torsion [N]-CA--CB-[CG2] |==|  0.47574
USER: genes 12 Torsion [CA]-CB--CG1-[CD1] |==|  0.65089
USER: genes 13 Torsion [CB]-CA--N-[C] |==|  0.55135
USER: genes 14 Torsion [N]-C--CA-[N] |==|  0.02207
USER: genes 15 Torsion [C]-CA--N-[C] |==|  0.75105
USER: genes 16 Torsion [N]-C--CA-[N] |==|  0.57268
USER: genes 17 Torsion [C]-CA--CB-[OG1] |==|  0.66623
USER: genes 18 Torsion [CA]-CB--OG1-[HG1] |==|  0.40663
ROOT
ATOM      1  CA  SER D   8      11.210  21.851  48.321  1.00  5.81 LIG 0.20  C 
ENDROOT
BRANCH 1 2
ATOM      2  CB  SER D   8       9.795  21.715  48.889  1.00  5.44 LIG 0.20  C 
BRANCH 2 3
ATOM      3 OG   SER D   8       8.882  21.395  47.861  1.00  4.91 LIG-0.40  OA
ATOM      4 HG   SER D   8       9.153  21.717  47.134  1.00  4.91 LIG 0.21  HD
ENDBRANCH 2 3
ENDBRANCH 1 2
BRANCH 1 5
ATOM      5  C   SER D   8      11.411  23.254  47.806  1.00  6.04 LIG 0.24  C 
ATOM      6  N   ILE D   9      11.746  23.357  46.530  1.00  5.23 LIG-0.35  N 
ATOM      7 H    ILE D   9      11.944  22.687  46.029  1.00  5.23 LIG 0.16  HD
ATOM      8 O    SER D   8      11.279  24.223  48.551  1.00  7.88 LIG-0.27  OA
BRANCH 6 9
ATOM      9  CA  ILE D   9      11.804  24.645  45.863  1.00  5.91 LIG 0.18  C 
BRANCH 9 10
ATOM     10  C   ILE D   9      10.399  25.028  45.425  1.00  8.30 LIG 0.24  C 
ATOM     11  N   ILE D  10       9.540  24.024  45.296  1.00  7.14 LIG-0.34  N 
ATOM     12 H    ILE D  10       9.732  23.203  45.466  1.00  7.14 LIG 0.16  HD
ATOM     13 O    ILE D   9      10.108  26.205  45.179  1.00  8.28 LIG-0.27  OA
BRANCH 11 14
ATOM     14  CA  ILE D  10       8.169  24.239  44.845  1.00  6.72 LIG 0.19  C 
BRANCH 14 15
ATOM     15  CB  ILE D  10       8.039  24.057  43.326  1.00  6.99 LIG 0.01  C 
ATOM     16  CG2 ILE D  10       8.789  25.166  42.599  1.00  9.23 LIG 0.01  C 
BRANCH 15 17
ATOM     17  CG1 ILE D  10       8.602  22.700  42.900  1.00  6.78 LIG 0.00  C 
ATOM     18  CD1 ILE D  10       7.964  22.142  41.637  1.00  7.71 LIG 0.01  C 
ENDBRANCH 15 17
ENDBRANCH 14 15
BRANCH 14 19
ATOM     19  C   ILE D  10       7.242  23.272  45.549  1.00  8.00 LIG 0.20  C 
ATOM     20 O    ILE D  10       7.649  22.145  45.844  1.00  7.10 LIG-0.65  OA
ATOM     21 OXT  ILE D  10       6.097  23.610  45.838  1.00 10.02 LIG-0.65  OA
ENDBRANCH 14 19
ENDBRANCH 11 14
ENDBRANCH 9 10
BRANCH 9 22
ATOM     22  CB  ILE D   9      12.783  24.611  44.672  1.00  4.97 LIG 0.01  C 
ATOM     23  CG2 ILE D   9      12.675  25.900  43.850  1.00  9.61 LIG 0.01  C 
BRANCH 22 24
ATOM     24  CG1 ILE D   9      14.199  24.398  45.197  1.00  5.60 LIG 0.00  C 
ATOM     25  CD1 ILE D   9      15.207  25.448  44.737  1.00  8.38 LIG 0.01  C 
ENDBRANCH 22 24
ENDBRANCH 9 22
ENDBRANCH 6 9
ENDBRANCH 1 5
BRANCH 1 26
ATOM     26  N   SER D   8      12.207  21.576  49.341  1.00  6.06 LIG-0.34  N 
ATOM     27 H    SER D   8      11.910  21.145  50.023  1.00  6.06 LIG 0.16  HD
ATOM     28  C   THR D   7      13.467  21.971  49.205  1.00 11.81 LIG 0.24  C 
ATOM     29 O    THR D   7      13.914  22.467  48.163  1.00 11.44 LIG-0.27  OA
BRANCH 28 30
ATOM     30  CA  THR D   7      14.361  21.770  50.412  1.00  8.59 LIG 0.20  C 
BRANCH 30 31
ATOM     31  N   THR D   7      13.659  20.996  51.427  1.00 15.26 LIG-0.34  N 
ATOM     32 H    THR D   7      13.767  20.145  51.363  1.00 15.26 LIG 0.16  HD
ATOM     33  C   PRO D   6      12.919  21.582  52.360  1.00 19.06 LIG 0.25  C 
ATOM     34 O    PRO D   6      12.751  22.795  52.416  1.00 17.22 LIG-0.27  OA
BRANCH 33 35
ATOM     35  CA  PRO D   6      12.269  20.660  53.390  1.00 33.07 LIG 0.35  C 
ATOM     36  N   PRO D   6      11.048  21.231  53.970  1.00 36.75 LIG 0.32  N 
ATOM     37  CD  PRO D   6       9.909  20.306  53.866  1.00 36.34 LIG 0.32  C 
ATOM     38  CG  PRO D   6      10.281  19.472  52.687  1.00 37.69 LIG 0.04  C 
ATOM     39  CB  PRO D   6      11.777  19.369  52.721  1.00 35.30 LIG 0.05  C 
ENDBRANCH 33 35
ENDBRANCH 30 31
BRANCH 30 40
ATOM     40  CB  THR D   7      15.641  21.050  49.952  1.00 10.85 LIG 0.15  C 
ATOM     41  CG2 THR D   7      16.863  21.902  50.236  1.00 12.17 LIG 0.04  C 
BRANCH 40 42
ATOM     42 OG1  THR D   7      15.762  19.807  50.652  1.00 14.88 LIG-0.39  OA
ATOM     43 HG1  THR D   7      16.120  19.237  50.149  1.00 14.88 LIG 0.21  HD
ENDBRANCH 40 42
ENDBRANCH 30 40
ENDBRANCH 28 30
ENDBRANCH 1 26
TORSDOF 17
ENDMDL
MODEL 39
USER: ADFR SOLUTION from run 27
USER: SCORE 14.076167 LL:  -3.455 LR: -11.574 RR:   0.000 FEB:  -6.503
USER: RMSD 5.996332
USER: SEED 26
USER: STATUS no improvement in best in 8 clusters for 5 generations
USER: GENES 19
USER: genes 0 Translation |==|  0.44141 0.55220 0.48061
USER: genes 1 Rotation |==|  0.35436 0.34467 0.27679 0.89350
USER: genes 2 Torsion [C]-CA--CB-[OG] |==|  0.64546
USER: genes 3 Torsion [CA]-CB--OG-[HG] |==|  0.54895
USER: genes 4 Torsion [N]-CA--C-[N] |==|  0.79536
USER: genes 5 Torsion [C]-N--CA-[C] |==|  0.80618
USER: genes 6 Torsion [N]-CA--C-[N] |==|  0.42349
USER: genes 7 Torsion [C]-N--CA-[C] |==|  0.86589
USER: genes 8 Torsion [N]-CA--CB-[CG2] |==|  0.76701
USER: genes 9 Torsion [CA]-CB--CG1-[CD1] |==|  0.49697
USER: genes 10 Torsion [N]-CA--C-[O] |==|  0.40648
USER: genes 11 Torsion [N]-CA--CB-[CG2] |==|  0.86789
USER: genes 12 Torsion [CA]-CB--CG1-[CD1] |==|  0.39039
USER: genes 13 Torsion [CB]-CA--N-[C] |==|  0.55556
USER: genes 14 Torsion [N]-C--CA-[N] |==|  0.11723
USER: genes 15 Torsion [C]-CA--N-[C] |==|  0.14718
USER: genes 16 Torsion [N]-C--CA-[N] |==|  0.92001
USER: genes 17 Torsion [C]-CA--CB-[OG1] |==|  0.59519
USER: genes 18 Torsion [CA]-CB--OG1-[HG1] |==|  0.84114
ROOT
ATOM      1  CA  SER D   8      12.809  25.888  45.411  1.00  5.81 LIG 0.20  C 
ENDROOT
BRANCH 1 2
ATOM      2  CB  SER D   8      13.508  25.874  44.049  1.00  5.44 LIG 0.20  C 
BRANCH 2 3
ATOM      3 OG   SER D   8      14.259  24.689  43.895  1.00  4.91 LIG-0.40  OA
ATOM      4 HG   SER D   8      14.818  24.789  43.276  1.00  4.91 LIG 0.21  HD
ENDBRANCH 2 3
ENDBRANCH 1 2
BRANCH 1 5
ATOM      5  C   SER D   8      11.338  26.158  45.215  1.00  6.04 LIG 0.24  C 
ATOM      6  N   ILE D   9      10.739  25.437  44.280  1.00  5.23 LIG-0.35  N 
ATOM      7 H    ILE D   9      11.153  24.918  43.734  1.00  5.23 LIG 0.16  HD
ATOM      8 O    SER D   8      10.759  27.010  45.887  1.00  7.88 LIG-0.27  OA
BRANCH 6 9
ATOM      9  CA  ILE D   9       9.299  25.472  44.103  1.00  5.91 LIG 0.18  C 
BRANCH 9 10
ATOM     10  C   ILE D   9       8.647  24.785  45.293  1.00  8.30 LIG 0.24  C 
ATOM     11  N   ILE D  10       7.421  25.195  45.596  1.00  7.14 LIG-0.34  N 
ATOM     12 H    ILE D  10       6.991  25.792  45.150  1.00  7.14 LIG 0.16  HD
ATOM     13 O    ILE D   9       9.252  23.923  45.940  1.00  8.28 LIG-0.27  OA
BRANCH 11 14
ATOM     14  CA  ILE D  10       6.689  24.652  46.736  1.00  6.72 LIG 0.19  C 
BRANCH 14 15
ATOM     15  CB  ILE D  10       5.218  25.095  46.724  1.00  6.99 LIG 0.01  C 
ATOM     16  CG2 ILE D  10       5.081  26.475  47.357  1.00  9.23 LIG 0.01  C 
BRANCH 15 17
ATOM     17  CG1 ILE D  10       4.684  25.140  45.291  1.00  6.78 LIG 0.00  C 
ATOM     18  CD1 ILE D  10       3.221  25.545  45.197  1.00  7.71 LIG 0.01  C 
ENDBRANCH 15 17
ENDBRANCH 14 15
BRANCH 14 19
ATOM     19  C   ILE D  10       6.759  23.141  46.716  1.00  8.00 LIG 0.20  C 
ATOM     20 O    ILE D  10       6.793  22.520  47.782  1.00  7.10 LIG-0.65  OA
ATOM     21 OXT  ILE D  10       6.768  22.535  45.648  1.00 10.02 LIG-0.65  OA
ENDBRANCH 14 19
ENDBRANCH 11 14
ENDBRANCH 9 10
BRANCH 9 22
ATOM     22  CB  ILE D   9       8.887  24.815  42.769  1.00  4.97 LIG 0.01  C 
ATOM     23  CG2 ILE D   9       9.755  25.339  41.620  1.00  9.61 LIG 0.01  C 
BRANCH 22 24
ATOM     24  CG1 ILE D   9       8.993  23.300  42.907  1.00  5.60 LIG 0.00  C 
ATOM     25  CD1 ILE D   9       7.869  22.524  42.225  1.00  8.38 LIG 0.01  C 
ENDBRANCH 22 24
ENDBRANCH 9 22
ENDBRANCH 6 9
ENDBRANCH 1 5
BRANCH 1 26
ATOM     26  N   SER D   8      12.968  24.613  46.089  1.00  6.06 LIG-0.34  N 
ATOM     27 H    SER D   8      13.622  24.136  45.801  1.00  6.06 LIG 0.16  HD
ATOM     28  C   THR D   7      12.154  24.242  47.070  1.00 11.81 LIG 0.24  C 
ATOM     29 O    THR D   7      11.305  24.993  47.569  1.00 11.44 LIG-0.27  OA
BRANCH 28 30
ATOM     30  CA  THR D   7      12.325  22.823  47.575  1.00  8.59 LIG 0.20  C 
BRANCH 30 31
ATOM     31  N   THR D   7      13.741  22.504  47.690  1.00 15.26 LIG-0.34  N 
ATOM     32 H    THR D   7      13.978  21.785  47.283  1.00 15.26 LIG 0.16  HD
ATOM     33  C   PRO D   6      14.575  23.278  48.374  1.00 19.06 LIG 0.25  C 
ATOM     34 O    PRO D   6      14.213  24.284  48.975  1.00 17.22 LIG-0.27  OA
BRANCH 33 35
ATOM     35  CA  PRO D   6      16.042  22.856  48.382  1.00 33.07 LIG 0.35  C 
ATOM     36  N   PRO D   6      16.216  21.405  48.241  1.00 36.75 LIG 0.32  N 
ATOM     37  CD  PRO D   6      17.137  21.069  47.144  1.00 36.34 LIG 0.32  C 
ATOM     38  CG  PRO D   6      17.015  22.255  46.249  1.00 37.69 LIG 0.04  C 
ATOM     39  CB  PRO D   6      16.772  23.424  47.156  1.00 35.30 LIG 0.05  C 
ENDBRANCH 33 35
ENDBRANCH 30 31
BRANCH 30 40
ATOM     40  CB  THR D   7      11.618  22.706  48.937  1.00 10.85 LIG 0.15  C 
ATOM     41  CG2 THR D   7      10.202  22.192  48.759  1.00 12.17 LIG 0.04  C 
BRANCH 40 42
ATOM     42 OG1  THR D   7      12.345  21.800  49.772  1.00 14.88 LIG-0.39  OA
ATOM     43 HG1  THR D   7      12.409  21.055  49.388  1.00 14.88 LIG 0.21  HD
ENDBRANCH 40 42
ENDBRANCH 30 40
ENDBRANCH 28 30
ENDBRANCH 1 26
TORSDOF 17
ENDMDL
MODEL 40
USER: ADFR SOLUTION from run 19
USER: SCORE 14.047203 LL:  -3.312 LR: -11.574 RR:   0.000 FEB:  -6.503
USER: RMSD 5.258563
USER: SEED 18
USER: STATUS no improvement in best in 3 clusters for 5 generations
USER: GENES 19
USER: genes 0 Translation |==|  0.47057 0.54212 0.46364
USER: genes 1 Rotation |==|  0.37655 0.35749 0.27347 0.90390
USER: genes 2 Torsion [C]-CA--CB-[OG] |==|  0.50380
USER: genes 3 Torsion [CA]-CB--OG-[HG] |==|  0.23739
USER: genes 4 Torsion [N]-CA--C-[N] |==|  0.86659
USER: genes 5 Torsion [C]-N--CA-[C] |==|  0.76899
USER: genes 6 Torsion [N]-CA--C-[N] |==|  0.46190
USER: genes 7 Torsion [C]-N--CA-[C] |==|  0.81083
USER: genes 8 Torsion [N]-CA--CB-[CG2] |==|  0.78906
USER: genes 9 Torsion [CA]-CB--CG1-[CD1] |==|  0.47906
USER: genes 10 Torsion [N]-CA--C-[O] |==|  0.48401
USER: genes 11 Torsion [N]-CA--CB-[CG2] |==|  0.28764
USER: genes 12 Torsion [CA]-CB--CG1-[CD1] |==|  0.78127
USER: genes 13 Torsion [CB]-CA--N-[C] |==|  0.22271
USER: genes 14 Torsion [N]-C--CA-[N] |==|  0.44845
USER: genes 15 Torsion [C]-CA--N-[C] |==|  0.79038
USER: genes 16 Torsion [N]-C--CA-[N] |==|  0.14294
USER: genes 17 Torsion [C]-CA--CB-[OG1] |==|  0.57441
USER: genes 18 Torsion [CA]-CB--OG1-[HG1] |==|  0.87177
ROOT
ATOM      1  CA  SER D   8      13.531  25.744  45.118  1.00  5.81 LIG 0.20  C 
ENDROOT
BRANCH 1 2
ATOM      2  CB  SER D   8      14.215  25.893  43.757  1.00  5.44 LIG 0.20  C 
BRANCH 2 3
ATOM      3 OG   SER D   8      15.596  25.625  43.870  1.00  4.91 LIG-0.40  OA
ATOM      4 HG   SER D   8      15.727  24.798  43.802  1.00  4.91 LIG 0.21  HD
ENDBRANCH 2 3
ENDBRANCH 1 2
BRANCH 1 5
ATOM      5  C   SER D   8      12.052  26.003  44.966  1.00  6.04 LIG 0.24  C 
ATOM      6  N   ILE D   9      11.359  25.047  44.366  1.00  5.23 LIG-0.35  N 
ATOM      7 H    ILE D   9      11.713  24.362  43.986  1.00  5.23 LIG 0.16  HD
ATOM      8 O    SER D   8      11.551  27.050  45.370  1.00  7.88 LIG-0.27  OA
BRANCH 6 9
ATOM      9  CA  ILE D   9       9.910  25.087  44.304  1.00  5.91 LIG 0.18  C 
BRANCH 9 10
ATOM     10  C   ILE D   9       9.353  24.527  45.604  1.00  8.30 LIG 0.24  C 
ATOM     11  N   ILE D  10       8.064  24.751  45.825  1.00  7.14 LIG-0.34  N 
ATOM     12 H    ILE D  10       7.547  25.164  45.274  1.00  7.14 LIG 0.16  HD
ATOM     13 O    ILE D   9      10.083  23.930  46.404  1.00  8.28 LIG-0.27  OA
BRANCH 11 14
ATOM     14  CA  ILE D  10       7.404  24.306  47.048  1.00  6.72 LIG 0.19  C 
BRANCH 14 15
ATOM     15  CB  ILE D  10       5.987  24.886  47.168  1.00  6.99 LIG 0.01  C 
ATOM     16  CG2 ILE D  10       6.054  26.351  47.582  1.00  9.23 LIG 0.01  C 
BRANCH 15 17
ATOM     17  CG1 ILE D  10       5.245  24.769  45.835  1.00  6.78 LIG 0.00  C 
ATOM     18  CD1 ILE D  10       3.777  25.155  45.917  1.00  7.71 LIG 0.01  C 
ENDBRANCH 15 17
ENDBRANCH 14 15
BRANCH 14 19
ATOM     19  C   ILE D  10       7.332  22.794  47.068  1.00  8.00 LIG 0.20  C 
ATOM     20 O    ILE D  10       6.903  22.220  48.074  1.00  7.10 LIG-0.65  OA
ATOM     21 OXT  ILE D  10       7.683  22.144  46.088  1.00 10.02 LIG-0.65  OA
ENDBRANCH 14 19
ENDBRANCH 11 14
ENDBRANCH 9 10
BRANCH 9 22
ATOM     22  CB  ILE D   9       9.383  24.313  43.079  1.00  4.97 LIG 0.01  C 
ATOM     23  CG2 ILE D   9       8.819  22.953  43.503  1.00  9.61 LIG 0.01  C 
BRANCH 22 24
ATOM     24  CG1 ILE D   9       8.331  25.160  42.370  1.00  5.60 LIG 0.00  C 
ATOM     25  CD1 ILE D   9       6.957  25.144  43.034  1.00  8.38 LIG 0.01  C 
ENDBRANCH 22 24
ENDBRANCH 9 22
ENDBRANCH 6 9
ENDBRANCH 1 5
BRANCH 1 26
ATOM     26  N   SER D   8      13.722  24.407  45.652  1.00  6.06 LIG-0.34  N 
ATOM     27 H    SER D   8      13.052  23.880  45.541  1.00  6.06 LIG 0.16  HD
ATOM     28  C   THR D   7      14.850  24.055  46.257  1.00 11.81 LIG 0.24  C 
ATOM     29 O    THR D   7      15.856  24.776  46.289  1.00 11.44 LIG-0.27  OA
BRANCH 28 30
ATOM     30  CA  THR D   7      14.855  22.690  46.915  1.00  8.59 LIG 0.20  C 
BRANCH 30 31
ATOM     31  N   THR D   7      16.226  22.254  47.143  1.00 15.26 LIG-0.34  N 
ATOM     32 H    THR D   7      16.486  22.309  47.961  1.00 15.26 LIG 0.16  HD
ATOM     33  C   PRO D   6      16.989  21.812  46.151  1.00 19.06 LIG 0.25  C 
ATOM     34 O    PRO D   6      16.612  21.770  44.984  1.00 17.22 LIG-0.27  OA
BRANCH 33 35
ATOM     35  CA  PRO D   6      18.393  21.345  46.529  1.00 33.07 LIG 0.35  C 
ATOM     36  N   PRO D   6      18.390  20.376  47.632  1.00 36.75 LIG 0.32  N 
ATOM     37  CD  PRO D   6      19.134  19.155  47.288  1.00 36.34 LIG 0.32  C 
ATOM     38  CG  PRO D   6      19.037  19.128  45.801  1.00 37.69 LIG 0.04  C 
ATOM     39  CB  PRO D   6      19.030  20.565  45.370  1.00 35.30 LIG 0.05  C 
ENDBRANCH 33 35
ENDBRANCH 30 31
BRANCH 30 40
ATOM     40  CB  THR D   7      14.077  22.788  48.239  1.00 10.85 LIG 0.15  C 
ATOM     41  CG2 THR D   7      12.595  22.573  48.003  1.00 12.17 LIG 0.04  C 
BRANCH 40 42
ATOM     42 OG1  THR D   7      14.558  21.791  49.146  1.00 14.88 LIG-0.39  OA
ATOM     43 HG1  THR D   7      14.623  21.056  48.745  1.00 14.88 LIG 0.21  HD
ENDBRANCH 40 42
ENDBRANCH 30 40
ENDBRANCH 28 30
ENDBRANCH 1 26
TORSDOF 17
ENDMDL
MODEL 41
USER: ADFR SOLUTION from run 3
USER: SCORE 14.414452 LL:  -3.700 LR: -11.554 RR:   0.000 FEB:  -6.483
USER: RMSD 7.243994
USER: SEED 624777
USER: STATUS searching
USER: GENES 19
USER: genes 0 Translation |==|  0.26450 0.42962 0.42618
USER: genes 1 Rotation |==|  0.23425 0.39326 0.57405 0.90312
USER: genes 2 Torsion [C]-CA--CB-[OG] |==|  0.74989
USER: genes 3 Torsion [CA]-CB--OG-[HG] |==|  0.06929
USER: genes 4 Torsion [N]-CA--C-[N] |==|  0.04413
USER: genes 5 Torsion [C]-N--CA-[C] |==|  0.78819
USER: genes 6 Torsion [N]-CA--C-[N] |==|  0.20299
USER: genes 7 Torsion [C]-N--CA-[C] |==|  0.57524
USER: genes 8 Torsion [N]-CA--CB-[CG2] |==|  0.45537
USER: genes 9 Torsion [CA]-CB--CG1-[CD1] |==|  0.40794
USER: genes 10 Torsion [N]-CA--C-[O] |==|  0.89670
USER: genes 11 Torsion [N]-CA--CB-[CG2] |==|  0.49117
USER: genes 12 Torsion [CA]-CB--CG1-[CD1] |==|  0.57106
USER: genes 13 Torsion [CB]-CA--N-[C] |==|  0.22222
USER: genes 14 Torsion [N]-C--CA-[N] |==|  0.04936
USER: genes 15 Torsion [C]-CA--N-[C] |==|  0.68502
USER: genes 16 Torsion [N]-C--CA-[N] |==|  0.26176
USER: genes 17 Torsion [C]-CA--CB-[OG1] |==|  0.58715
USER: genes 18 Torsion [CA]-CB--OG1-[HG1] |==|  0.50513
ROOT
ATOM      1  CA  SER D   8       8.430  24.141  44.472  1.00  5.81 LIG 0.20  C 
ENDROOT
BRANCH 1 2
ATOM      2  CB  SER D   8       8.312  23.314  43.189  1.00  5.44 LIG 0.20  C 
BRANCH 2 3
ATOM      3 OG   SER D   8       9.211  22.226  43.222  1.00  4.91 LIG-0.40  OA
ATOM      4 HG   SER D   8       9.384  22.030  44.020  1.00  4.91 LIG 0.21  HD
ENDBRANCH 2 3
ENDBRANCH 1 2
BRANCH 1 5
ATOM      5  C   SER D   8       7.470  23.605  45.503  1.00  6.04 LIG 0.24  C 
ATOM      6  N   ILE D   9       7.943  23.508  46.736  1.00  5.23 LIG-0.35  N 
ATOM      7 H    ILE D   9       8.767  23.636  46.947  1.00  5.23 LIG 0.16  HD
ATOM      8 O    SER D   8       6.329  23.272  45.189  1.00  7.88 LIG-0.27  OA
BRANCH 6 9
ATOM      9  CA  ILE D   9       7.082  23.170  47.854  1.00  5.91 LIG 0.18  C 
BRANCH 9 10
ATOM     10  C   ILE D   9       6.262  24.397  48.223  1.00  8.30 LIG 0.24  C 
ATOM     11  N   ILE D  10       5.287  24.715  47.380  1.00  7.14 LIG-0.34  N 
ATOM     12 H    ILE D  10       5.095  24.261  46.675  1.00  7.14 LIG 0.16  HD
ATOM     13 O    ILE D   9       6.526  25.058  49.234  1.00  8.28 LIG-0.27  OA
BRANCH 11 14
ATOM     14  CA  ILE D  10       4.445  25.889  47.587  1.00  6.72 LIG 0.19  C 
BRANCH 14 15
ATOM     15  CB  ILE D  10       5.087  27.154  46.999  1.00  6.99 LIG 0.01  C 
ATOM     16  CG2 ILE D  10       4.045  28.259  46.869  1.00  9.23 LIG 0.01  C 
BRANCH 15 17
ATOM     17  CG1 ILE D  10       6.231  27.638  47.891  1.00  6.78 LIG 0.00  C 
ATOM     18  CD1 ILE D  10       7.372  28.288  47.124  1.00  7.71 LIG 0.01  C 
ENDBRANCH 15 17
ENDBRANCH 14 15
BRANCH 14 19
ATOM     19  C   ILE D  10       3.092  25.667  46.945  1.00  8.00 LIG 0.20  C 
ATOM     20 O    ILE D  10       3.020  25.057  45.874  1.00  7.10 LIG-0.65  OA
ATOM     21 OXT  ILE D  10       2.072  26.077  47.492  1.00 10.02 LIG-0.65  OA
ENDBRANCH 14 19
ENDBRANCH 11 14
ENDBRANCH 9 10
BRANCH 9 22
ATOM     22  CB  ILE D   9       7.903  22.652  49.053  1.00  4.97 LIG 0.01  C 
ATOM     23  CG2 ILE D   9       6.989  22.374  50.251  1.00  9.61 LIG 0.01  C 
BRANCH 22 24
ATOM     24  CG1 ILE D   9       8.668  21.402  48.629  1.00  5.60 LIG 0.00  C 
ATOM     25  CD1 ILE D   9       9.009  20.454  49.775  1.00  8.38 LIG 0.01  C 
ENDBRANCH 22 24
ENDBRANCH 9 22
ENDBRANCH 6 9
ENDBRANCH 1 5
BRANCH 1 26
ATOM     26  N   SER D   8       9.779  24.079  45.007  1.00  6.06 LIG-0.34  N 
ATOM     27 H    SER D   8       9.879  23.526  45.657  1.00  6.06 LIG 0.16  HD
ATOM     28  C   THR D   7      10.759  24.826  44.512  1.00 11.81 LIG 0.24  C 
ATOM     29 O    THR D   7      10.637  25.514  43.490  1.00 11.44 LIG-0.27  OA
BRANCH 28 30
ATOM     30  CA  THR D   7      12.071  24.790  45.269  1.00  8.59 LIG 0.20  C 
BRANCH 30 31
ATOM     31  N   THR D   7      12.108  23.623  46.141  1.00 15.26 LIG-0.34  N 
ATOM     32 H    THR D   7      12.128  22.870  45.727  1.00 15.26 LIG 0.16  HD
ATOM     33  C   PRO D   6      12.110  23.743  47.463  1.00 19.06 LIG 0.25  C 
ATOM     34 O    PRO D   6      12.049  24.825  48.037  1.00 17.22 LIG-0.27  OA
BRANCH 33 35
ATOM     35  CA  PRO D   6      12.194  22.445  48.263  1.00 33.07 LIG 0.35  C 
ATOM     36  N   PRO D   6      13.570  22.097  48.636  1.00 36.75 LIG 0.32  N 
ATOM     37  CD  PRO D   6      13.700  21.852  50.081  1.00 36.34 LIG 0.32  C 
ATOM     38  CG  PRO D   6      12.578  22.656  50.644  1.00 37.69 LIG 0.04  C 
ATOM     39  CB  PRO D   6      11.486  22.602  49.617  1.00 35.30 LIG 0.05  C 
ENDBRANCH 33 35
ENDBRANCH 30 31
BRANCH 30 40
ATOM     40  CB  THR D   7      13.219  24.753  44.246  1.00 10.85 LIG 0.15  C 
ATOM     41  CG2 THR D   7      13.677  26.159  43.909  1.00 12.17 LIG 0.04  C 
BRANCH 40 42
ATOM     42 OG1  THR D   7      14.318  24.019  44.793  1.00 14.88 LIG-0.39  OA
ATOM     43 HG1  THR D   7      14.956  24.019  44.245  1.00 14.88 LIG 0.21  HD
ENDBRANCH 40 42
ENDBRANCH 30 40
ENDBRANCH 28 30
ENDBRANCH 1 26
TORSDOF 17
ENDMDL
MODEL 42
USER: ADFR SOLUTION from run 25
USER: SCORE 13.180608 LL:  -3.546 LR: -11.548 RR:   0.000 FEB:  -6.477
USER: RMSD 11.421516
USER: SEED 24
USER: STATUS no improvement in best in 9 clusters for 5 generations
USER: GENES 19
USER: genes 0 Translation |==|  0.18863 0.37958 0.57943
USER: genes 1 Rotation |==|  0.77622 0.20602 0.68114 0.73337
USER: genes 2 Torsion [C]-CA--CB-[OG] |==|  0.24353
USER: genes 3 Torsion [CA]-CB--OG-[HG] |==|  0.64569
USER: genes 4 Torsion [N]-CA--C-[N] |==|  0.66819
USER: genes 5 Torsion [C]-N--CA-[C] |==|  0.75555
USER: genes 6 Torsion [N]-CA--C-[N] |==|  0.29323
USER: genes 7 Torsion [C]-N--CA-[C] |==|  0.73703
USER: genes 8 Torsion [N]-CA--CB-[CG2] |==|  0.55230
USER: genes 9 Torsion [CA]-CB--CG1-[CD1] |==|  0.86230
USER: genes 10 Torsion [N]-CA--C-[O] |==|  0.18568
USER: genes 11 Torsion [N]-CA--CB-[CG2] |==|  0.42900
USER: genes 12 Torsion [CA]-CB--CG1-[CD1] |==|  0.86959
USER: genes 13 Torsion [CB]-CA--N-[C] |==|  0.37324
USER: genes 14 Torsion [N]-C--CA-[N] |==|  0.35704
USER: genes 15 Torsion [C]-CA--N-[C] |==|  0.84982
USER: genes 16 Torsion [N]-C--CA-[N] |==|  0.53740
USER: genes 17 Torsion [C]-CA--CB-[OG1] |==|  0.78137
USER: genes 18 Torsion [CA]-CB--OG1-[HG1] |==|  0.04833
ROOT
ATOM      1  CA  SER D   8       6.553  23.428  47.115  1.00  5.81 LIG 0.20  C 
ENDROOT
BRANCH 1 2
ATOM      2  CB  SER D   8       5.826  24.741  46.815  1.00  5.44 LIG 0.20  C 
BRANCH 2 3
ATOM      3 OG   SER D   8       4.723  24.508  45.965  1.00  4.91 LIG-0.40  OA
ATOM      4 HG   SER D   8       4.767  25.022  45.302  1.00  4.91 LIG 0.21  HD
ENDBRANCH 2 3
ENDBRANCH 1 2
BRANCH 1 5
ATOM      5  C   SER D   8       7.585  23.172  46.045  1.00  6.04 LIG 0.24  C 
ATOM      6  N   ILE D   9       7.694  24.106  45.114  1.00  5.23 LIG-0.35  N 
ATOM      7 H    ILE D   9       7.157  24.774  45.037  1.00  5.23 LIG 0.16  HD
ATOM      8 O    SER D   8       8.259  22.144  46.054  1.00  7.88 LIG-0.27  OA
BRANCH 6 9
ATOM      9  CA  ILE D   9       8.755  24.071  44.126  1.00  5.91 LIG 0.18  C 
BRANCH 9 10
ATOM     10  C   ILE D   9       9.969  24.793  44.692  1.00  8.30 LIG 0.24  C 
ATOM     11  N   ILE D  10      10.973  24.017  45.082  1.00  7.14 LIG-0.34  N 
ATOM     12 H    ILE D  10      10.973  23.160  45.008  1.00  7.14 LIG 0.16  HD
ATOM     13 O    ILE D   9       9.983  26.025  44.802  1.00  8.28 LIG-0.27  OA
BRANCH 11 14
ATOM     14  CA  ILE D  10      12.184  24.569  45.680  1.00  6.72 LIG 0.19  C 
BRANCH 14 15
ATOM     15  CB  ILE D  10      12.738  23.652  46.780  1.00  6.99 LIG 0.01  C 
ATOM     16  CG2 ILE D  10      13.687  24.431  47.683  1.00  9.23 LIG 0.01  C 
BRANCH 15 17
ATOM     17  CG1 ILE D  10      11.598  23.074  47.620  1.00  6.78 LIG 0.00  C 
ATOM     18  CD1 ILE D  10      10.608  24.119  48.109  1.00  7.71 LIG 0.01  C 
ENDBRANCH 15 17
ENDBRANCH 14 15
BRANCH 14 19
ATOM     19  C   ILE D  10      13.237  24.766  44.611  1.00  8.00 LIG 0.20  C 
ATOM     20 O    ILE D  10      13.057  25.610  43.728  1.00  7.10 LIG-0.65  OA
ATOM     21 OXT  ILE D  10      14.271  24.103  44.630  1.00 10.02 LIG-0.65  OA
ENDBRANCH 14 19
ENDBRANCH 11 14
ENDBRANCH 9 10
BRANCH 9 22
ATOM     22  CB  ILE D   9       8.295  24.692  42.791  1.00  4.97 LIG 0.01  C 
ATOM     23  CG2 ILE D   9       9.496  25.229  42.005  1.00  9.61 LIG 0.01  C 
BRANCH 22 24
ATOM     24  CG1 ILE D   9       7.526  23.644  41.993  1.00  5.60 LIG 0.00  C 
ATOM     25  CD1 ILE D   9       8.208  22.280  41.922  1.00  8.38 LIG 0.01  C 
ENDBRANCH 22 24
ENDBRANCH 9 22
ENDBRANCH 6 9
ENDBRANCH 1 5
BRANCH 1 26
ATOM     26  N   SER D   8       7.217  23.485  48.406  1.00  6.06 LIG-0.34  N 
ATOM     27 H    SER D   8       7.658  24.209  48.547  1.00  6.06 LIG 0.16  HD
ATOM     28  C   THR D   7       7.132  22.486  49.276  1.00 11.81 LIG 0.24  C 
ATOM     29 O    THR D   7       6.384  21.512  49.120  1.00 11.44 LIG-0.27  OA
BRANCH 28 30
ATOM     30  CA  THR D   7       8.006  22.601  50.508  1.00  8.59 LIG 0.20  C 
BRANCH 30 31
ATOM     31  N   THR D   7       7.202  22.406  51.707  1.00 15.26 LIG-0.34  N 
ATOM     32 H    THR D   7       7.495  21.794  52.236  1.00 15.26 LIG 0.16  HD
ATOM     33  C   PRO D   6       6.112  23.126  51.938  1.00 19.06 LIG 0.25  C 
ATOM     34 O    PRO D   6       5.691  23.972  51.156  1.00 17.22 LIG-0.27  OA
BRANCH 33 35
ATOM     35  CA  PRO D   6       5.382  22.853  53.251  1.00 33.07 LIG 0.35  C 
ATOM     36  N   PRO D   6       4.040  23.448  53.289  1.00 36.75 LIG 0.32  N 
ATOM     37  CD  PRO D   6       3.012  22.456  53.641  1.00 36.34 LIG 0.32  C 
ATOM     38  CG  PRO D   6       3.636  21.177  53.199  1.00 37.69 LIG 0.04  C 
ATOM     39  CB  PRO D   6       5.111  21.350  53.413  1.00 35.30 LIG 0.05  C 
ENDBRANCH 33 35
ENDBRANCH 30 31
BRANCH 30 40
ATOM     40  CB  THR D   7       9.121  21.545  50.410  1.00 10.85 LIG 0.15  C 
ATOM     41  CG2 THR D   7      10.269  21.896  51.337  1.00 12.17 LIG 0.04  C 
BRANCH 40 42
ATOM     42 OG1  THR D   7       8.595  20.266  50.777  1.00 14.88 LIG-0.39  OA
ATOM     43 HG1  THR D   7       7.756  20.287  50.742  1.00 14.88 LIG 0.21  HD
ENDBRANCH 40 42
ENDBRANCH 30 40
ENDBRANCH 28 30
ENDBRANCH 1 26
TORSDOF 17
ENDMDL
MODEL 43
USER: ADFR SOLUTION from run 158
USER: SCORE 13.189523 LL:  -3.433 LR: -11.509 RR:   0.000 FEB:  -6.437
USER: RMSD 7.306428
USER: SEED 157
USER: STATUS no improvement in best in 10 clusters for 5 generations
USER: GENES 19
USER: genes 0 Translation |==|  0.28875 0.28540 0.61852
USER: genes 1 Rotation |==|  0.98013 0.52567 0.48876 0.63671
USER: genes 2 Torsion [C]-CA--CB-[OG] |==|  0.06998
USER: genes 3 Torsion [CA]-CB--OG-[HG] |==|  0.82894
USER: genes 4 Torsion [N]-CA--C-[N] |==|  0.98343
USER: genes 5 Torsion [C]-N--CA-[C] |==|  0.19467
USER: genes 6 Torsion [N]-CA--C-[N] |==|  0.38156
USER: genes 7 Torsion [C]-N--CA-[C] |==|  0.17757
USER: genes 8 Torsion [N]-CA--CB-[CG2] |==|  0.56502
USER: genes 9 Torsion [CA]-CB--CG1-[CD1] |==|  0.64405
USER: genes 10 Torsion [N]-CA--C-[O] |==|  0.22137
USER: genes 11 Torsion [N]-CA--CB-[CG2] |==|  0.55809
USER: genes 12 Torsion [CA]-CB--CG1-[CD1] |==|  0.56010
USER: genes 13 Torsion [CB]-CA--N-[C] |==|  0.19857
USER: genes 14 Torsion [N]-C--CA-[N] |==|  0.94186
USER: genes 15 Torsion [C]-CA--N-[C] |==|  0.71632
USER: genes 16 Torsion [N]-C--CA-[N] |==|  0.66082
USER: genes 17 Torsion [C]-CA--CB-[OG1] |==|  0.64603
USER: genes 18 Torsion [CA]-CB--OG1-[HG1] |==|  0.80110
ROOT
ATOM      1  CA  SER D   8       9.031  22.086  47.789  1.00  5.81 LIG 0.20  C 
ENDROOT
BRANCH 1 2
ATOM      2  CB  SER D   8       8.419  21.845  49.172  1.00  5.44 LIG 0.20  C 
BRANCH 2 3
ATOM      3 OG   SER D   8       7.012  21.768  49.079  1.00  4.91 LIG-0.40  OA
ATOM      4 HG   SER D   8       6.710  22.496  48.789  1.00  4.91 LIG 0.21  HD
ENDBRANCH 2 3
ENDBRANCH 1 2
BRANCH 1 5
ATOM      5  C   SER D   8       8.015  22.763  46.903  1.00  6.04 LIG 0.24  C 
ATOM      6  N   ILE D   9       8.322  23.988  46.506  1.00  5.23 LIG-0.35  N 
ATOM      7 H    ILE D   9       8.996  24.434  46.799  1.00  5.23 LIG 0.16  HD
ATOM      8 O    SER D   8       6.969  22.195  46.597  1.00  7.88 LIG-0.27  OA
BRANCH 6 9
ATOM      9  CA  ILE D   9       7.521  24.688  45.519  1.00  5.91 LIG 0.18  C 
BRANCH 9 10
ATOM     10  C   ILE D   9       6.183  25.048  46.148  1.00  8.30 LIG 0.24  C 
ATOM     11  N   ILE D  10       5.731  26.268  45.884  1.00  7.14 LIG-0.34  N 
ATOM     12 H    ILE D  10       6.137  26.831  45.374  1.00  7.14 LIG 0.16  HD
ATOM     13 O    ILE D   9       5.588  24.249  46.880  1.00  8.28 LIG-0.27  OA
BRANCH 11 14
ATOM     14  CA  ILE D  10       4.481  26.764  46.450  1.00  6.72 LIG 0.19  C 
BRANCH 14 15
ATOM     15  CB  ILE D  10       3.297  25.859  46.082  1.00  6.99 LIG 0.01  C 
ATOM     16  CG2 ILE D  10       1.993  26.644  46.160  1.00  9.23 LIG 0.01  C 
BRANCH 15 17
ATOM     17  CG1 ILE D  10       3.469  25.301  44.668  1.00  6.78 LIG 0.00  C 
ATOM     18  CD1 ILE D  10       2.259  25.519  43.773  1.00  7.71 LIG 0.01  C 
ENDBRANCH 15 17
ENDBRANCH 14 15
BRANCH 14 19
ATOM     19  C   ILE D  10       4.600  26.848  47.957  1.00  8.00 LIG 0.20  C 
ATOM     20 O    ILE D  10       5.184  27.809  48.468  1.00  7.10 LIG-0.65  OA
ATOM     21 OXT  ILE D  10       4.108  25.976  48.667  1.00 10.02 LIG-0.65  OA
ENDBRANCH 14 19
ENDBRANCH 11 14
ENDBRANCH 9 10
BRANCH 9 22
ATOM     22  CB  ILE D   9       7.341  23.839  44.244  1.00  4.97 LIG 0.01  C 
ATOM     23  CG2 ILE D   9       6.969  24.729  43.053  1.00  9.61 LIG 0.01  C 
BRANCH 22 24
ATOM     24  CG1 ILE D   9       8.623  23.057  43.981  1.00  5.60 LIG 0.00  C 
ATOM     25  CD1 ILE D   9       8.797  22.598  42.536  1.00  8.38 LIG 0.01  C 
ENDBRANCH 22 24
ENDBRANCH 9 22
ENDBRANCH 6 9
ENDBRANCH 1 5
BRANCH 1 26
ATOM     26  N   SER D   8      10.210  22.929  47.883  1.00  6.06 LIG-0.34  N 
ATOM     27 H    SER D   8      10.103  23.725  47.577  1.00  6.06 LIG 0.16  HD
ATOM     28  C   THR D   7      11.345  22.481  48.404  1.00 11.81 LIG 0.24  C 
ATOM     29 O    THR D   7      11.447  21.382  48.966  1.00 11.44 LIG-0.27  OA
BRANCH 28 30
ATOM     30  CA  THR D   7      12.542  23.404  48.287  1.00  8.59 LIG 0.20  C 
BRANCH 30 31
ATOM     31  N   THR D   7      12.324  24.363  47.212  1.00 15.26 LIG-0.34  N 
ATOM     32 H    THR D   7      11.800  25.014  47.417  1.00 15.26 LIG 0.16  HD
ATOM     33  C   PRO D   6      12.901  24.220  46.026  1.00 19.06 LIG 0.25  C 
ATOM     34 O    PRO D   6      13.621  23.269  45.742  1.00 17.22 LIG-0.27  OA
BRANCH 33 35
ATOM     35  CA  PRO D   6      12.626  25.317  44.999  1.00 33.07 LIG 0.35  C 
ATOM     36  N   PRO D   6      12.022  24.800  43.765  1.00 36.75 LIG 0.32  N 
ATOM     37  CD  PRO D   6      10.787  25.519  43.418  1.00 36.34 LIG 0.32  C 
ATOM     38  CG  PRO D   6      10.323  26.017  44.745  1.00 37.69 LIG 0.04  C 
ATOM     39  CB  PRO D   6      11.569  26.297  45.530  1.00 35.30 LIG 0.05  C 
ENDBRANCH 33 35
ENDBRANCH 30 31
BRANCH 30 40
ATOM     40  CB  THR D   7      12.736  24.117  49.636  1.00 10.85 LIG 0.15  C 
ATOM     41  CG2 THR D   7      14.019  23.657  50.302  1.00 12.17 LIG 0.04  C 
BRANCH 40 42
ATOM     42 OG1  THR D   7      12.800  25.530  49.420  1.00 14.88 LIG-0.39  OA
ATOM     43 HG1  THR D   7      13.529  25.724  49.049  1.00 14.88 LIG 0.21  HD
ENDBRANCH 40 42
ENDBRANCH 30 40
ENDBRANCH 28 30
ENDBRANCH 1 26
TORSDOF 17
ENDMDL
MODEL 44
USER: ADFR SOLUTION from run 40
USER: SCORE 13.274745 LL:  -2.919 LR: -11.476 RR:   0.000 FEB:  -6.405
USER: RMSD 6.392595
USER: SEED 39
USER: STATUS no improvement in best in 16 clusters for 5 generations
USER: GENES 19
USER: genes 0 Translation |==|  0.34631 0.39474 0.55487
USER: genes 1 Rotation |==|  0.99516 0.49874 0.50252 0.56935
USER: genes 2 Torsion [C]-CA--CB-[OG] |==|  0.24752
USER: genes 3 Torsion [CA]-CB--OG-[HG] |==|  0.00612
USER: genes 4 Torsion [N]-CA--C-[N] |==|  0.45421
USER: genes 5 Torsion [C]-N--CA-[C] |==|  0.68052
USER: genes 6 Torsion [N]-CA--C-[N] |==|  0.42209
USER: genes 7 Torsion [C]-N--CA-[C] |==|  0.64937
USER: genes 8 Torsion [N]-CA--CB-[CG2] |==|  0.18391
USER: genes 9 Torsion [CA]-CB--CG1-[CD1] |==|  0.41040
USER: genes 10 Torsion [N]-CA--C-[O] |==|  0.61974
USER: genes 11 Torsion [N]-CA--CB-[CG2] |==|  0.74615
USER: genes 12 Torsion [CA]-CB--CG1-[CD1] |==|  0.46297
USER: genes 13 Torsion [CB]-CA--N-[C] |==|  0.20289
USER: genes 14 Torsion [N]-C--CA-[N] |==|  0.87254
USER: genes 15 Torsion [C]-CA--N-[C] |==|  0.83655
USER: genes 16 Torsion [N]-C--CA-[N] |==|  0.81109
USER: genes 17 Torsion [C]-CA--CB-[OG1] |==|  0.68601
USER: genes 18 Torsion [CA]-CB--OG1-[HG1] |==|  0.47590
ROOT
ATOM      1  CA  SER D   8      10.455  23.644  46.691  1.00  5.81 LIG 0.20  C 
ENDROOT
BRANCH 1 2
ATOM      2  CB  SER D   8       9.713  23.107  47.917  1.00  5.44 LIG 0.20  C 
BRANCH 2 3
ATOM      3 OG   SER D   8       8.953  21.968  47.571  1.00  4.91 LIG-0.40  OA
ATOM      4 HG   SER D   8       9.077  21.784  46.761  1.00  4.91 LIG 0.21  HD
ENDBRANCH 2 3
ENDBRANCH 1 2
BRANCH 1 5
ATOM      5  C   SER D   8       9.578  24.638  45.972  1.00  6.04 LIG 0.24  C 
ATOM      6  N   ILE D   9       8.583  24.124  45.266  1.00  5.23 LIG-0.35  N 
ATOM      7 H    ILE D   9       8.479  23.282  45.124  1.00  5.23 LIG 0.16  HD
ATOM      8 O    SER D   8       9.805  25.844  46.041  1.00  7.88 LIG-0.27  OA
BRANCH 6 9
ATOM      9  CA  ILE D   9       7.566  24.966  44.665  1.00  5.91 LIG 0.18  C 
BRANCH 9 10
ATOM     10  C   ILE D   9       6.230  24.659  45.323  1.00  8.30 LIG 0.24  C 
ATOM     11  N   ILE D  10       5.353  25.656  45.344  1.00  7.14 LIG-0.34  N 
ATOM     12 H    ILE D  10       5.497  26.428  44.995  1.00  7.14 LIG 0.16  HD
ATOM     13 O    ILE D   9       6.009  23.552  45.828  1.00  8.28 LIG-0.27  OA
BRANCH 11 14
ATOM     14  CA  ILE D  10       4.046  25.517  45.977  1.00  6.72 LIG 0.19  C 
BRANCH 14 15
ATOM     15  CB  ILE D  10       3.929  26.398  47.230  1.00  6.99 LIG 0.01  C 
ATOM     16  CG2 ILE D  10       3.968  27.871  46.840  1.00  9.23 LIG 0.01  C 
BRANCH 15 17
ATOM     17  CG1 ILE D  10       2.624  26.104  47.972  1.00  6.78 LIG 0.00  C 
ATOM     18  CD1 ILE D  10       2.728  26.270  49.480  1.00  7.71 LIG 0.01  C 
ENDBRANCH 15 17
ENDBRANCH 14 15
BRANCH 14 19
ATOM     19  C   ILE D  10       2.959  25.893  44.994  1.00  8.00 LIG 0.20  C 
ATOM     20 O    ILE D  10       2.014  26.593  45.371  1.00  7.10 LIG-0.65  OA
ATOM     21 OXT  ILE D  10       3.023  25.520  43.826  1.00 10.02 LIG-0.65  OA
ENDBRANCH 14 19
ENDBRANCH 11 14
ENDBRANCH 9 10
BRANCH 9 22
ATOM     22  CB  ILE D   9       7.508  24.764  43.137  1.00  4.97 LIG 0.01  C 
ATOM     23  CG2 ILE D   9       8.430  25.761  42.426  1.00  9.61 LIG 0.01  C 
BRANCH 22 24
ATOM     24  CG1 ILE D   9       7.884  23.322  42.811  1.00  5.60 LIG 0.00  C 
ATOM     25  CD1 ILE D   9       7.562  22.894  41.381  1.00  8.38 LIG 0.01  C 
ENDBRANCH 22 24
ENDBRANCH 9 22
ENDBRANCH 6 9
ENDBRANCH 1 5
BRANCH 1 26
ATOM     26  N   SER D   8      11.691  24.301  47.079  1.00  6.06 LIG-0.34  N 
ATOM     27 H    SER D   8      11.673  25.158  47.019  1.00  6.06 LIG 0.16  HD
ATOM     28  C   THR D   7      12.747  23.609  47.490  1.00 11.81 LIG 0.24  C 
ATOM     29 O    THR D   7      12.718  22.390  47.704  1.00 11.44 LIG-0.27  OA
BRANCH 28 30
ATOM     30  CA  THR D   7      14.021  24.401  47.701  1.00  8.59 LIG 0.20  C 
BRANCH 30 31
ATOM     31  N   THR D   7      14.243  25.295  46.572  1.00 15.26 LIG-0.34  N 
ATOM     32 H    THR D   7      14.287  26.128  46.781  1.00 15.26 LIG 0.16  HD
ATOM     33  C   PRO D   6      14.363  24.833  45.333  1.00 19.06 LIG 0.25  C 
ATOM     34 O    PRO D   6      14.265  23.644  45.050  1.00 17.22 LIG-0.27  OA
BRANCH 33 35
ATOM     35  CA  PRO D   6      14.634  25.870  44.245  1.00 33.07 LIG 0.35  C 
ATOM     36  N   PRO D   6      13.493  26.765  44.017  1.00 36.75 LIG 0.32  N 
ATOM     37  CD  PRO D   6      13.884  28.181  44.099  1.00 36.34 LIG 0.32  C 
ATOM     38  CG  PRO D   6      15.084  28.131  44.983  1.00 37.69 LIG 0.04  C 
ATOM     39  CB  PRO D   6      15.755  26.825  44.680  1.00 35.30 LIG 0.05  C 
ENDBRANCH 33 35
ENDBRANCH 30 31
BRANCH 30 40
ATOM     40  CB  THR D   7      13.888  25.191  49.015  1.00 10.85 LIG 0.15  C 
ATOM     41  CG2 THR D   7      15.068  24.913  49.925  1.00 12.17 LIG 0.04  C 
BRANCH 40 42
ATOM     42 OG1  THR D   7      13.839  26.591  48.723  1.00 14.88 LIG-0.39  OA
ATOM     43 HG1  THR D   7      13.647  27.017  49.422  1.00 14.88 LIG 0.21  HD
ENDBRANCH 40 42
ENDBRANCH 30 40
ENDBRANCH 28 30
ENDBRANCH 1 26
TORSDOF 17
ENDMDL
MODEL 45
USER: ADFR SOLUTION from run 163
USER: SCORE 14.343188 LL:  -3.516 LR: -11.474 RR:   0.000 FEB:  -6.403
USER: RMSD 7.017433
USER: SEED 162
USER: STATUS no improvement in best in 5 clusters for 5 generations
USER: GENES 19
USER: genes 0 Translation |==|  0.33177 0.34330 0.62797
USER: genes 1 Rotation |==|  0.93436 0.40890 0.36193 0.68432
USER: genes 2 Torsion [C]-CA--CB-[OG] |==|  0.53389
USER: genes 3 Torsion [CA]-CB--OG-[HG] |==|  0.45234
USER: genes 4 Torsion [N]-CA--C-[N] |==|  0.18913
USER: genes 5 Torsion [C]-N--CA-[C] |==|  0.82371
USER: genes 6 Torsion [N]-CA--C-[N] |==|  0.39799
USER: genes 7 Torsion [C]-N--CA-[C] |==|  0.69331
USER: genes 8 Torsion [N]-CA--CB-[CG2] |==|  0.57830
USER: genes 9 Torsion [CA]-CB--CG1-[CD1] |==|  0.31343
USER: genes 10 Torsion [N]-CA--C-[O] |==|  0.00198
USER: genes 11 Torsion [N]-CA--CB-[CG2] |==|  0.19747
USER: genes 12 Torsion [CA]-CB--CG1-[CD1] |==|  0.22772
USER: genes 13 Torsion [CB]-CA--N-[C] |==|  0.81111
USER: genes 14 Torsion [N]-C--CA-[N] |==|  0.88522
USER: genes 15 Torsion [C]-CA--N-[C] |==|  0.82015
USER: genes 16 Torsion [N]-C--CA-[N] |==|  0.12966
USER: genes 17 Torsion [C]-CA--CB-[OG1] |==|  0.48403
USER: genes 18 Torsion [CA]-CB--OG1-[HG1] |==|  0.57031
ROOT
ATOM      1  CA  SER D   8      10.095  22.911  47.952  1.00  5.81 LIG 0.20  C 
ENDROOT
BRANCH 1 2
ATOM      2  CB  SER D   8      10.068  23.282  49.437  1.00  5.44 LIG 0.20  C 
BRANCH 2 3
ATOM      3 OG   SER D   8      11.037  22.540  50.146  1.00  4.91 LIG-0.40  OA
ATOM      4 HG   SER D   8      11.180  22.903  50.890  1.00  4.91 LIG 0.21  HD
ENDBRANCH 2 3
ENDBRANCH 1 2
BRANCH 1 5
ATOM      5  C   SER D   8       9.279  23.911  47.172  1.00  6.04 LIG 0.24  C 
ATOM      6  N   ILE D   9       9.053  23.606  45.904  1.00  5.23 LIG-0.35  N 
ATOM      7 H    ILE D   9       9.420  22.943  45.495  1.00  5.23 LIG 0.16  HD
ATOM      8 O    SER D   8       8.873  24.943  47.701  1.00  7.88 LIG-0.27  OA
BRANCH 6 9
ATOM      9  CA  ILE D   9       8.146  24.388  45.086  1.00  5.91 LIG 0.18  C 
BRANCH 9 10
ATOM     10  C   ILE D   9       6.746  24.277  45.670  1.00  8.30 LIG 0.24  C 
ATOM     11  N   ILE D  10       6.004  25.376  45.607  1.00  7.14 LIG-0.34  N 
ATOM     12 H    ILE D  10       6.266  26.111  45.244  1.00  7.14 LIG 0.16  HD
ATOM     13 O    ILE D   9       6.358  23.226  46.194  1.00  8.28 LIG-0.27  OA
BRANCH 11 14
ATOM     14  CA  ILE D  10       4.656  25.426  46.163  1.00  6.72 LIG 0.19  C 
BRANCH 14 15
ATOM     15  CB  ILE D  10       4.479  26.626  47.106  1.00  6.99 LIG 0.01  C 
ATOM     16  CG2 ILE D  10       3.425  26.313  48.160  1.00  9.23 LIG 0.01  C 
BRANCH 15 17
ATOM     17  CG1 ILE D  10       5.802  26.964  47.797  1.00  6.78 LIG 0.00  C 
ATOM     18  CD1 ILE D  10       6.387  28.303  47.376  1.00  7.71 LIG 0.01  C 
ENDBRANCH 15 17
ENDBRANCH 14 15
BRANCH 14 19
ATOM     19  C   ILE D  10       3.644  25.514  45.042  1.00  8.00 LIG 0.20  C 
ATOM     20 O    ILE D  10       4.033  25.519  43.871  1.00  7.10 LIG-0.65  OA
ATOM     21 OXT  ILE D  10       2.443  25.565  45.294  1.00 10.02 LIG-0.65  OA
ENDBRANCH 14 19
ENDBRANCH 11 14
ENDBRANCH 9 10
BRANCH 9 22
ATOM     22  CB  ILE D   9       8.187  23.930  43.614  1.00  4.97 LIG 0.01  C 
ATOM     23  CG2 ILE D   9       7.524  22.556  43.459  1.00  9.61 LIG 0.01  C 
BRANCH 22 24
ATOM     24  CG1 ILE D   9       7.505  24.982  42.745  1.00  5.60 LIG 0.00  C 
ATOM     25  CD1 ILE D   9       8.393  26.167  42.376  1.00  8.38 LIG 0.01  C 
ENDBRANCH 22 24
ENDBRANCH 9 22
ENDBRANCH 6 9
ENDBRANCH 1 5
BRANCH 1 26
ATOM     26  N   SER D   8      11.455  22.912  47.442  1.00  6.06 LIG-0.34  N 
ATOM     27 H    SER D   8      11.756  22.136  47.228  1.00  6.06 LIG 0.16  HD
ATOM     28  C   THR D   7      12.153  24.036  47.326  1.00 11.81 LIG 0.24  C 
ATOM     29 O    THR D   7      11.665  25.159  47.506  1.00 11.44 LIG-0.27  OA
BRANCH 28 30
ATOM     30  CA  THR D   7      13.611  23.877  46.942  1.00  8.59 LIG 0.20  C 
BRANCH 30 31
ATOM     31  N   THR D   7      14.194  22.754  47.663  1.00 15.26 LIG-0.34  N 
ATOM     32 H    THR D   7      14.444  22.101  47.163  1.00 15.26 LIG 0.16  HD
ATOM     33  C   PRO D   6      14.318  22.766  48.985  1.00 19.06 LIG 0.25  C 
ATOM     34 O    PRO D   6      13.928  23.693  49.685  1.00 17.22 LIG-0.27  OA
BRANCH 33 35
ATOM     35  CA  PRO D   6      14.985  21.545  49.615  1.00 33.07 LIG 0.35  C 
ATOM     36  N   PRO D   6      16.217  21.150  48.921  1.00 36.75 LIG 0.32  N 
ATOM     37  CD  PRO D   6      17.353  21.033  49.847  1.00 36.34 LIG 0.32  C 
ATOM     38  CG  PRO D   6      16.961  21.953  50.953  1.00 37.69 LIG 0.04  C 
ATOM     39  CB  PRO D   6      15.466  21.870  51.037  1.00 35.30 LIG 0.05  C 
ENDBRANCH 33 35
ENDBRANCH 30 31
BRANCH 30 40
ATOM     40  CB  THR D   7      13.689  23.660  45.421  1.00 10.85 LIG 0.15  C 
ATOM     41  CG2 THR D   7      12.968  24.773  44.686  1.00 12.17 LIG 0.04  C 
BRANCH 40 42
ATOM     42 OG1  THR D   7      15.061  23.641  45.015  1.00 14.88 LIG-0.39  OA
ATOM     43 HG1  THR D   7      15.118  23.869  44.208  1.00 14.88 LIG 0.21  HD
ENDBRANCH 40 42
ENDBRANCH 30 40
ENDBRANCH 28 30
ENDBRANCH 1 26
TORSDOF 17
ENDMDL
MODEL 46
USER: ADFR SOLUTION from run 57
USER: SCORE 13.539187 LL:  -3.549 LR: -11.464 RR:   0.000 FEB:  -6.393
USER: RMSD 7.975322
USER: SEED 56
USER: STATUS no improvement in best in 8 clusters for 5 generations
USER: GENES 19
USER: genes 0 Translation |==|  0.26392 0.26276 0.63756
USER: genes 1 Rotation |==|  0.87529 0.59627 0.20287 0.60772
USER: genes 2 Torsion [C]-CA--CB-[OG] |==|  0.18653
USER: genes 3 Torsion [CA]-CB--OG-[HG] |==|  0.93702
USER: genes 4 Torsion [N]-CA--C-[N] |==|  0.90405
USER: genes 5 Torsion [C]-N--CA-[C] |==|  0.63785
USER: genes 6 Torsion [N]-CA--C-[N] |==|  0.35420
USER: genes 7 Torsion [C]-N--CA-[C] |==|  0.59585
USER: genes 8 Torsion [N]-CA--CB-[CG2] |==|  0.87541
USER: genes 9 Torsion [CA]-CB--CG1-[CD1] |==|  0.36739
USER: genes 10 Torsion [N]-CA--C-[O] |==|  0.92687
USER: genes 11 Torsion [N]-CA--CB-[CG2] |==|  0.47318
USER: genes 12 Torsion [CA]-CB--CG1-[CD1] |==|  0.78860
USER: genes 13 Torsion [CB]-CA--N-[C] |==|  0.52928
USER: genes 14 Torsion [N]-C--CA-[N] |==|  0.01905
USER: genes 15 Torsion [C]-CA--N-[C] |==|  0.65000
USER: genes 16 Torsion [N]-C--CA-[N] |==|  0.21261
USER: genes 17 Torsion [C]-CA--CB-[OG1] |==|  0.76174
USER: genes 18 Torsion [CA]-CB--OG1-[HG1] |==|  0.07312
ROOT
ATOM      1  CA  SER D   8       8.416  21.763  48.118  1.00  5.81 LIG 0.20  C 
ENDROOT
BRANCH 1 2
ATOM      2  CB  SER D   8       9.564  21.598  49.116  1.00  5.44 LIG 0.20  C 
BRANCH 2 3
ATOM      3 OG   SER D   8       9.197  20.699  50.142  1.00  4.91 LIG-0.40  OA
ATOM      4 HG   SER D   8       8.360  20.665  50.198  1.00  4.91 LIG 0.21  HD
ENDBRANCH 2 3
ENDBRANCH 1 2
BRANCH 1 5
ATOM      5  C   SER D   8       7.263  22.463  48.793  1.00  6.04 LIG 0.24  C 
ATOM      6  N   ILE D   9       7.299  23.787  48.771  1.00  5.23 LIG-0.35  N 
ATOM      7 H    ILE D   9       7.971  24.245  48.492  1.00  5.23 LIG 0.16  HD
ATOM      8 O    SER D   8       6.365  21.821  49.333  1.00  7.88 LIG-0.27  OA
BRANCH 6 9
ATOM      9  CA  ILE D   9       6.178  24.584  49.230  1.00  5.91 LIG 0.18  C 
BRANCH 9 10
ATOM     10  C   ILE D   9       5.856  25.626  48.170  1.00  8.30 LIG 0.24  C 
ATOM     11  N   ILE D  10       4.592  25.669  47.767  1.00  7.14 LIG-0.34  N 
ATOM     12 H    ILE D  10       3.969  25.168  48.086  1.00  7.14 LIG 0.16  HD
ATOM     13 O    ILE D   9       6.741  26.354  47.704  1.00  8.28 LIG-0.27  OA
BRANCH 11 14
ATOM     14  CA  ILE D  10       4.147  26.592  46.728  1.00  6.72 LIG 0.19  C 
BRANCH 14 15
ATOM     15  CB  ILE D  10       4.186  25.938  45.339  1.00  6.99 LIG 0.01  C 
ATOM     16  CG2 ILE D  10       5.492  25.173  45.156  1.00  9.23 LIG 0.01  C 
BRANCH 15 17
ATOM     17  CG1 ILE D  10       3.008  24.978  45.165  1.00  6.78 LIG 0.00  C 
ATOM     18  CD1 ILE D  10       2.261  25.158  43.853  1.00  7.71 LIG 0.01  C 
ENDBRANCH 15 17
ENDBRANCH 14 15
BRANCH 14 19
ATOM     19  C   ILE D  10       2.738  27.057  47.025  1.00  8.00 LIG 0.20  C 
ATOM     20 O    ILE D  10       1.988  26.336  47.691  1.00  7.10 LIG-0.65  OA
ATOM     21 OXT  ILE D  10       2.347  28.148  46.621  1.00 10.02 LIG-0.65  OA
ENDBRANCH 14 19
ENDBRANCH 11 14
ENDBRANCH 9 10
BRANCH 9 22
ATOM     22  CB  ILE D   9       6.479  25.235  50.596  1.00  4.97 LIG 0.01  C 
ATOM     23  CG2 ILE D   9       5.395  26.257  50.955  1.00  9.61 LIG 0.01  C 
BRANCH 22 24
ATOM     24  CG1 ILE D   9       6.593  24.143  51.654  1.00  5.60 LIG 0.00  C 
ATOM     25  CD1 ILE D   9       5.256  23.559  52.104  1.00  8.38 LIG 0.01  C 
ENDBRANCH 22 24
ENDBRANCH 9 22
ENDBRANCH 6 9
ENDBRANCH 1 5
BRANCH 1 26
ATOM     26  N   SER D   8       8.836  22.547  46.969  1.00  6.06 LIG-0.34  N 
ATOM     27 H    SER D   8       9.682  22.689  46.926  1.00  6.06 LIG 0.16  HD
ATOM     28  C   THR D   7       7.962  22.995  46.076  1.00 11.81 LIG 0.24  C 
ATOM     29 O    THR D   7       6.767  22.669  46.073  1.00 11.44 LIG-0.27  OA
BRANCH 28 30
ATOM     30  CA  THR D   7       8.509  23.939  45.024  1.00  8.59 LIG 0.20  C 
BRANCH 30 31
ATOM     31  N   THR D   7       9.959  24.024  45.140  1.00 15.26 LIG-0.34  N 
ATOM     32 H    THR D   7      10.362  23.265  45.118  1.00 15.26 LIG 0.16  HD
ATOM     33  C   PRO D   6      10.578  25.190  45.268  1.00 19.06 LIG 0.25  C 
ATOM     34 O    PRO D   6       9.983  26.261  45.329  1.00 17.22 LIG-0.27  OA
BRANCH 33 35
ATOM     35  CA  PRO D   6      12.103  25.146  45.338  1.00 33.07 LIG 0.35  C 
ATOM     36  N   PRO D   6      12.725  24.926  44.026  1.00 36.75 LIG 0.32  N 
ATOM     37  CD  PRO D   6      13.741  25.945  43.725  1.00 36.34 LIG 0.32  C 
ATOM     38  CG  PRO D   6      13.287  27.103  44.546  1.00 37.69 LIG 0.04  C 
ATOM     39  CB  PRO D   6      12.661  26.509  45.772  1.00 35.30 LIG 0.05  C 
ENDBRANCH 33 35
ENDBRANCH 30 31
BRANCH 30 40
ATOM     40  CB  THR D   7       8.094  23.412  43.639  1.00 10.85 LIG 0.15  C 
ATOM     41  CG2 THR D   7       8.027  24.548  42.636  1.00 12.17 LIG 0.04  C 
BRANCH 40 42
ATOM     42 OG1  THR D   7       9.051  22.447  43.193  1.00 14.88 LIG-0.39  OA
ATOM     43 HG1  THR D   7       9.422  22.092  43.858  1.00 14.88 LIG 0.21  HD
ENDBRANCH 40 42
ENDBRANCH 30 40
ENDBRANCH 28 30
ENDBRANCH 1 26
TORSDOF 17
ENDMDL
MODEL 47
USER: ADFR SOLUTION from run 186
USER: SCORE 14.534732 LL:  -4.831 LR: -11.462 RR:   0.000 FEB:  -6.391
USER: RMSD 8.338936
USER: SEED 185
USER: STATUS no improvement in best in 8 clusters for 5 generations
USER: GENES 19
USER: genes 0 Translation |==|  0.14770 0.60136 0.56990
USER: genes 1 Rotation |==|  0.70977 0.45133 0.66165 0.92130
USER: genes 2 Torsion [C]-CA--CB-[OG] |==|  0.02495
USER: genes 3 Torsion [CA]-CB--OG-[HG] |==|  0.54879
USER: genes 4 Torsion [N]-CA--C-[N] |==|  0.93862
USER: genes 5 Torsion [C]-N--CA-[C] |==|  0.81609
USER: genes 6 Torsion [N]-CA--C-[N] |==|  0.93578
USER: genes 7 Torsion [C]-N--CA-[C] |==|  0.77692
USER: genes 8 Torsion [N]-CA--CB-[CG2] |==|  0.26093
USER: genes 9 Torsion [CA]-CB--CG1-[CD1] |==|  0.51814
USER: genes 10 Torsion [N]-CA--C-[O] |==|  0.46349
USER: genes 11 Torsion [N]-CA--CB-[CG2] |==|  0.07397
USER: genes 12 Torsion [CA]-CB--CG1-[CD1] |==|  0.27438
USER: genes 13 Torsion [CB]-CA--N-[C] |==|  0.39450
USER: genes 14 Torsion [N]-C--CA-[N] |==|  0.81667
USER: genes 15 Torsion [C]-CA--N-[C] |==|  0.70472
USER: genes 16 Torsion [N]-C--CA-[N] |==|  0.37580
USER: genes 17 Torsion [C]-CA--CB-[OG1] |==|  0.73204
USER: genes 18 Torsion [CA]-CB--OG1-[HG1] |==|  0.15630
ROOT
ATOM      1  CA  SER D   8       5.540  26.588  46.951  1.00  5.81 LIG 0.20  C 
ENDROOT
BRANCH 1 2
ATOM      2  CB  SER D   8       4.330  27.428  46.534  1.00  5.44 LIG 0.20  C 
BRANCH 2 3
ATOM      3 OG   SER D   8       3.531  26.714  45.613  1.00  4.91 LIG-0.40  OA
ATOM      4 HG   SER D   8       3.021  27.248  45.213  1.00  4.91 LIG 0.21  HD
ENDBRANCH 2 3
ENDBRANCH 1 2
BRANCH 1 5
ATOM      5  C   SER D   8       5.617  25.357  46.083  1.00  6.04 LIG 0.24  C 
ATOM      6  N   ILE D   9       6.476  25.414  45.077  1.00  5.23 LIG-0.35  N 
ATOM      7 H    ILE D   9       6.898  26.126  44.844  1.00  5.23 LIG 0.16  HD
ATOM      8 O    SER D   8       4.907  24.380  46.311  1.00  7.88 LIG-0.27  OA
BRANCH 6 9
ATOM      9  CA  ILE D   9       6.775  24.247  44.269  1.00  5.91 LIG 0.18  C 
BRANCH 9 10
ATOM     10  C   ILE D   9       7.490  23.225  45.139  1.00  8.30 LIG 0.24  C 
ATOM     11  N   ILE D  10       8.109  23.709  46.209  1.00  7.14 LIG-0.34  N 
ATOM     12 H    ILE D  10       8.103  24.540  46.432  1.00  7.14 LIG 0.16  HD
ATOM     13 O    ILE D   9       7.505  22.027  44.831  1.00  8.28 LIG-0.27  OA
BRANCH 11 14
ATOM     14  CA  ILE D  10       8.868  22.850  47.112  1.00  6.72 LIG 0.19  C 
BRANCH 14 15
ATOM     15  CB  ILE D  10       9.898  23.653  47.921  1.00  6.99 LIG 0.01  C 
ATOM     16  CG2 ILE D  10       9.306  24.061  49.265  1.00  9.23 LIG 0.01  C 
BRANCH 15 17
ATOM     17  CG1 ILE D  10      11.161  22.822  48.155  1.00  6.78 LIG 0.00  C 
ATOM     18  CD1 ILE D  10      12.167  23.486  49.081  1.00  7.71 LIG 0.01  C 
ENDBRANCH 15 17
ENDBRANCH 14 15
BRANCH 14 19
ATOM     19  C   ILE D  10       7.923  22.144  48.060  1.00  8.00 LIG 0.20  C 
ATOM     20 O    ILE D  10       8.336  21.196  48.736  1.00  7.10 LIG-0.65  OA
ATOM     21 OXT  ILE D  10       6.759  22.519  48.168  1.00 10.02 LIG-0.65  OA
ENDBRANCH 14 19
ENDBRANCH 11 14
ENDBRANCH 9 10
BRANCH 9 22
ATOM     22  CB  ILE D   9       7.613  24.627  43.031  1.00  4.97 LIG 0.01  C 
ATOM     23  CG2 ILE D   9       8.431  25.894  43.303  1.00  9.61 LIG 0.01  C 
BRANCH 22 24
ATOM     24  CG1 ILE D   9       8.509  23.451  42.656  1.00  5.60 LIG 0.00  C 
ATOM     25  CD1 ILE D   9       7.971  22.585  41.520  1.00  8.38 LIG 0.01  C 
ENDBRANCH 22 24
ENDBRANCH 9 22
ENDBRANCH 6 9
ENDBRANCH 1 5
BRANCH 1 26
ATOM     26  N   SER D   8       6.771  27.345  46.806  1.00  6.06 LIG-0.34  N 
ATOM     27 H    SER D   8       6.795  27.856  46.115  1.00  6.06 LIG 0.16  HD
ATOM     28  C   THR D   7       7.761  27.237  47.683  1.00 11.81 LIG 0.24  C 
ATOM     29 O    THR D   7       7.661  26.607  48.744  1.00 11.44 LIG-0.27  OA
BRANCH 28 30
ATOM     30  CA  THR D   7       9.050  27.949  47.324  1.00  8.59 LIG 0.20  C 
BRANCH 30 31
ATOM     31  N   THR D   7       9.646  27.331  46.148  1.00 15.26 LIG-0.34  N 
ATOM     32 H    THR D   7       9.242  27.508  45.409  1.00 15.26 LIG 0.16  HD
ATOM     33  C   PRO D   6      10.725  26.563  46.238  1.00 19.06 LIG 0.25  C 
ATOM     34 O    PRO D   6      11.270  26.296  47.304  1.00 17.22 LIG-0.27  OA
BRANCH 33 35
ATOM     35  CA  PRO D   6      11.277  26.010  44.926  1.00 33.07 LIG 0.35  C 
ATOM     36  N   PRO D   6      12.737  26.125  44.831  1.00 36.75 LIG 0.32  N 
ATOM     37  CD  PRO D   6      13.368  24.836  44.508  1.00 36.34 LIG 0.32  C 
ATOM     38  CG  PRO D   6      12.373  23.854  45.028  1.00 37.69 LIG 0.04  C 
ATOM     39  CB  PRO D   6      11.032  24.497  44.835  1.00 35.30 LIG 0.05  C 
ENDBRANCH 33 35
ENDBRANCH 30 31
BRANCH 30 40
ATOM     40  CB  THR D   7       8.728  29.432  47.068  1.00 10.85 LIG 0.15  C 
ATOM     41  CG2 THR D   7       9.850  30.316  47.578  1.00 12.17 LIG 0.04  C 
BRANCH 40 42
ATOM     42 OG1  THR D   7       8.563  29.645  45.663  1.00 14.88 LIG-0.39  OA
ATOM     43 HG1  THR D   7       7.967  29.131  45.369  1.00 14.88 LIG 0.21  HD
ENDBRANCH 40 42
ENDBRANCH 30 40
ENDBRANCH 28 30
ENDBRANCH 1 26
TORSDOF 17
ENDMDL
MODEL 48
USER: ADFR SOLUTION from run 33
USER: SCORE 12.833065 LL:  -2.985 LR: -11.421 RR:   0.000 FEB:  -6.350
USER: RMSD 5.113851
USER: SEED 32
USER: STATUS no improvement in best in 7 clusters for 5 generations
USER: GENES 19
USER: genes 0 Translation |==|  0.42773 0.43871 0.47076
USER: genes 1 Rotation |==|  0.96512 0.54852 0.39199 0.64014
USER: genes 2 Torsion [C]-CA--CB-[OG] |==|  0.17096
USER: genes 3 Torsion [CA]-CB--OG-[HG] |==|  0.05258
USER: genes 4 Torsion [N]-CA--C-[N] |==|  0.43467
USER: genes 5 Torsion [C]-N--CA-[C] |==|  0.66108
USER: genes 6 Torsion [N]-CA--C-[N] |==|  0.16936
USER: genes 7 Torsion [C]-N--CA-[C] |==|  0.14817
USER: genes 8 Torsion [N]-CA--CB-[CG2] |==|  0.62375
USER: genes 9 Torsion [CA]-CB--CG1-[CD1] |==|  0.35914
USER: genes 10 Torsion [N]-CA--C-[O] |==|  0.55296
USER: genes 11 Torsion [N]-CA--CB-[CG2] |==|  0.78943
USER: genes 12 Torsion [CA]-CB--CG1-[CD1] |==|  0.47387
USER: genes 13 Torsion [CB]-CA--N-[C] |==|  0.20222
USER: genes 14 Torsion [N]-C--CA-[N] |==|  0.07497
USER: genes 15 Torsion [C]-CA--N-[C] |==|  0.16713
USER: genes 16 Torsion [N]-C--CA-[N] |==|  0.83979
USER: genes 17 Torsion [C]-CA--CB-[OG1] |==|  0.59798
USER: genes 18 Torsion [CA]-CB--OG1-[HG1] |==|  0.31412
ROOT
ATOM      1  CA  SER D   8      12.470  24.271  45.241  1.00  5.81 LIG 0.20  C 
ENDROOT
BRANCH 1 2
ATOM      2  CB  SER D   8      12.444  24.105  46.762  1.00  5.44 LIG 0.20  C 
BRANCH 2 3
ATOM      3 OG   SER D   8      11.368  23.276  47.147  1.00  4.91 LIG-0.40  OA
ATOM      4 HG   SER D   8      11.108  22.829  46.486  1.00  4.91 LIG 0.21  HD
ENDBRANCH 2 3
ENDBRANCH 1 2
BRANCH 1 5
ATOM      5  C   SER D   8      11.193  24.932  44.787  1.00  6.04 LIG 0.24  C 
ATOM      6  N   ILE D   9      10.148  24.132  44.645  1.00  5.23 LIG-0.35  N 
ATOM      7 H    ILE D   9      10.188  23.274  44.699  1.00  5.23 LIG 0.16  HD
ATOM      8 O    SER D   8      11.156  26.139  44.558  1.00  7.88 LIG-0.27  OA
BRANCH 6 9
ATOM      9  CA  ILE D   9       8.822  24.656  44.380  1.00  5.91 LIG 0.18  C 
BRANCH 9 10
ATOM     10  C   ILE D   9       7.885  24.186  45.483  1.00  8.30 LIG 0.24  C 
ATOM     11  N   ILE D  10       8.195  24.581  46.712  1.00  7.14 LIG-0.34  N 
ATOM     12 H    ILE D  10       8.864  25.089  46.898  1.00  7.14 LIG 0.16  HD
ATOM     13 O    ILE D   9       6.919  23.457  45.229  1.00  8.28 LIG-0.27  OA
BRANCH 11 14
ATOM     14  CA  ILE D  10       7.409  24.173  47.871  1.00  6.72 LIG 0.19  C 
BRANCH 14 15
ATOM     15  CB  ILE D  10       6.009  24.805  47.854  1.00  6.99 LIG 0.01  C 
ATOM     16  CG2 ILE D  10       5.657  25.338  49.237  1.00  9.23 LIG 0.01  C 
BRANCH 15 17
ATOM     17  CG1 ILE D  10       5.951  25.949  46.840  1.00  6.78 LIG 0.00  C 
ATOM     18  CD1 ILE D  10       4.779  25.853  45.876  1.00  7.71 LIG 0.01  C 
ENDBRANCH 15 17
ENDBRANCH 14 15
BRANCH 14 19
ATOM     19  C   ILE D  10       7.280  22.666  47.898  1.00  8.00 LIG 0.20  C 
ATOM     20 O    ILE D  10       6.384  22.144  48.569  1.00  7.10 LIG-0.65  OA
ATOM     21 OXT  ILE D  10       8.051  21.966  47.247  1.00 10.02 LIG-0.65  OA
ENDBRANCH 14 19
ENDBRANCH 11 14
ENDBRANCH 9 10
BRANCH 9 22
ATOM     22  CB  ILE D   9       8.321  24.227  42.986  1.00  4.97 LIG 0.01  C 
ATOM     23  CG2 ILE D   9       9.011  25.048  41.890  1.00  9.61 LIG 0.01  C 
BRANCH 22 24
ATOM     24  CG1 ILE D   9       8.568  22.733  42.806  1.00  5.60 LIG 0.00  C 
ATOM     25  CD1 ILE D   9       7.918  22.130  41.564  1.00  8.38 LIG 0.01  C 
ENDBRANCH 22 24
ENDBRANCH 9 22
ENDBRANCH 6 9
ENDBRANCH 1 5
BRANCH 1 26
ATOM     26  N   SER D   8      13.597  25.089  44.826  1.00  6.06 LIG-0.34  N 
ATOM     27 H    SER D   8      13.385  25.879  44.564  1.00  6.06 LIG 0.16  HD
ATOM     28  C   THR D   7      14.841  24.627  44.862  1.00 11.81 LIG 0.24  C 
ATOM     29 O    THR D   7      15.148  23.541  45.370  1.00 11.44 LIG-0.27  OA
BRANCH 28 30
ATOM     30  CA  THR D   7      15.900  25.520  44.245  1.00  8.59 LIG 0.20  C 
BRANCH 30 31
ATOM     31  N   THR D   7      15.476  26.912  44.315  1.00 15.26 LIG-0.34  N 
ATOM     32 H    THR D   7      15.402  27.300  43.550  1.00 15.26 LIG 0.16  HD
ATOM     33  C   PRO D   6      15.232  27.507  45.476  1.00 19.06 LIG 0.25  C 
ATOM     34 O    PRO D   6      15.374  26.947  46.557  1.00 17.22 LIG-0.27  OA
BRANCH 33 35
ATOM     35  CA  PRO D   6      14.754  28.956  45.409  1.00 33.07 LIG 0.35  C 
ATOM     36  N   PRO D   6      15.699  29.833  44.705  1.00 36.75 LIG 0.32  N 
ATOM     37  CD  PRO D   6      15.043  30.592  43.630  1.00 36.34 LIG 0.32  C 
ATOM     38  CG  PRO D   6      13.884  29.720  43.283  1.00 37.69 LIG 0.04  C 
ATOM     39  CB  PRO D   6      13.474  29.062  44.568  1.00 35.30 LIG 0.05  C 
ENDBRANCH 33 35
ENDBRANCH 30 31
BRANCH 30 40
ATOM     40  CB  THR D   7      17.219  25.303  45.007  1.00 10.85 LIG 0.15  C 
ATOM     41  CG2 THR D   7      18.081  24.277  44.297  1.00 12.17 LIG 0.04  C 
BRANCH 40 42
ATOM     42 OG1  THR D   7      17.930  26.542  45.084  1.00 14.88 LIG-0.39  OA
ATOM     43 HG1  THR D   7      17.961  26.799  45.883  1.00 14.88 LIG 0.21  HD
ENDBRANCH 40 42
ENDBRANCH 30 40
ENDBRANCH 28 30
ENDBRANCH 1 26
TORSDOF 17
ENDMDL
MODEL 49
USER: ADFR SOLUTION from run 10
USER: SCORE 13.476330 LL:  -2.868 LR: -11.396 RR:   0.000 FEB:  -6.325
USER: RMSD 5.258330
USER: SEED 515587
USER: STATUS no improvement in best in 6 clusters for 5 generations
USER: GENES 19
USER: genes 0 Translation |==|  0.42368 0.39320 0.48397
USER: genes 1 Rotation |==|  0.97577 0.52614 0.38573 0.59952
USER: genes 2 Torsion [C]-CA--CB-[OG] |==|  0.52182
USER: genes 3 Torsion [CA]-CB--OG-[HG] |==|  0.67608
USER: genes 4 Torsion [N]-CA--C-[N] |==|  0.38330
USER: genes 5 Torsion [C]-N--CA-[C] |==|  0.72637
USER: genes 6 Torsion [N]-CA--C-[N] |==|  0.17315
USER: genes 7 Torsion [C]-N--CA-[C] |==|  0.16505
USER: genes 8 Torsion [N]-CA--CB-[CG2] |==|  0.60837
USER: genes 9 Torsion [CA]-CB--CG1-[CD1] |==|  0.42232
USER: genes 10 Torsion [N]-CA--C-[O] |==|  0.03160
USER: genes 11 Torsion [N]-CA--CB-[CG2] |==|  0.79420
USER: genes 12 Torsion [CA]-CB--CG1-[CD1] |==|  0.45719
USER: genes 13 Torsion [CB]-CA--N-[C] |==|  0.86667
USER: genes 14 Torsion [N]-C--CA-[N] |==|  0.91128
USER: genes 15 Torsion [C]-CA--N-[C] |==|  0.74437
USER: genes 16 Torsion [N]-C--CA-[N] |==|  0.44922
USER: genes 17 Torsion [C]-CA--CB-[OG1] |==|  0.48639
USER: genes 18 Torsion [CA]-CB--OG1-[HG1] |==|  0.41672
ROOT
ATOM      1  CA  SER D   8      12.370  23.622  45.468  1.00  5.81 LIG 0.20  C 
ENDROOT
BRANCH 1 2
ATOM      2  CB  SER D   8      12.316  23.249  46.952  1.00  5.44 LIG 0.20  C 
BRANCH 2 3
ATOM      3 OG   SER D   8      13.500  22.579  47.333  1.00  4.91 LIG-0.40  OA
ATOM      4 HG   SER D   8      13.314  21.796  47.572  1.00  4.91 LIG 0.21  HD
ENDBRANCH 2 3
ENDBRANCH 1 2
BRANCH 1 5
ATOM      5  C   SER D   8      11.191  24.500  45.130  1.00  6.04 LIG 0.24  C 
ATOM      6  N   ILE D   9      10.176  23.896  44.531  1.00  5.23 LIG-0.35  N 
ATOM      7 H    ILE D   9      10.199  23.085  44.246  1.00  5.23 LIG 0.16  HD
ATOM      8 O    SER D   8      11.203  25.700  45.394  1.00  7.88 LIG-0.27  OA
BRANCH 6 9
ATOM      9  CA  ILE D   9       8.916  24.578  44.302  1.00  5.91 LIG 0.18  C 
BRANCH 9 10
ATOM     10  C   ILE D   9       7.941  24.175  45.397  1.00  8.30 LIG 0.24  C 
ATOM     11  N   ILE D  10       8.290  24.509  46.633  1.00  7.14 LIG-0.34  N 
ATOM     12 H    ILE D  10       9.005  24.945  46.829  1.00  7.14 LIG 0.16  HD
ATOM     13 O    ILE D   9       6.908  23.549  45.130  1.00  8.28 LIG-0.27  OA
BRANCH 11 14
ATOM     14  CA  ILE D  10       7.470  24.152  47.787  1.00  6.72 LIG 0.19  C 
BRANCH 14 15
ATOM     15  CB  ILE D  10       6.080  24.801  47.712  1.00  6.99 LIG 0.01  C 
ATOM     16  CG2 ILE D  10       5.642  25.264  49.096  1.00  9.23 LIG 0.01  C 
BRANCH 15 17
ATOM     17  CG1 ILE D  10       6.097  25.997  46.759  1.00  6.78 LIG 0.00  C 
ATOM     18  CD1 ILE D  10       4.754  26.276  46.103  1.00  7.71 LIG 0.01  C 
ENDBRANCH 15 17
ENDBRANCH 14 15
BRANCH 14 19
ATOM     19  C   ILE D  10       7.320  22.648  47.862  1.00  8.00 LIG 0.20  C 
ATOM     20 O    ILE D  10       8.026  21.930  47.147  1.00  7.10 LIG-0.65  OA
ATOM     21 OXT  ILE D  10       6.514  22.144  48.639  1.00 10.02 LIG-0.65  OA
ENDBRANCH 14 19
ENDBRANCH 11 14
ENDBRANCH 9 10
BRANCH 9 22
ATOM     22  CB  ILE D   9       8.360  24.264  42.898  1.00  4.97 LIG 0.01  C 
ATOM     23  CG2 ILE D   9       9.157  25.010  41.823  1.00  9.61 LIG 0.01  C 
BRANCH 22 24
ATOM     24  CG1 ILE D   9       8.394  22.755  42.676  1.00  5.60 LIG 0.00  C 
ATOM     25  CD1 ILE D   9       7.546  22.271  41.503  1.00  8.38 LIG 0.01  C 
ENDBRANCH 22 24
ENDBRANCH 9 22
ENDBRANCH 6 9
ENDBRANCH 1 5
BRANCH 1 26
ATOM     26  N   SER D   8      13.595  24.339  45.158  1.00  6.06 LIG-0.34  N 
ATOM     27 H    SER D   8      14.010  24.048  44.464  1.00  6.06 LIG 0.16  HD
ATOM     28  C   THR D   7      14.013  25.355  45.902  1.00 11.81 LIG 0.24  C 
ATOM     29 O    THR D   7      13.339  25.852  46.813  1.00 11.44 LIG-0.27  OA
BRANCH 28 30
ATOM     30  CA  THR D   7      15.386  25.903  45.568  1.00  8.59 LIG 0.20  C 
BRANCH 30 31
ATOM     31  N   THR D   7      16.242  24.831  45.077  1.00 15.26 LIG-0.34  N 
ATOM     32 H    THR D   7      16.194  24.698  44.228  1.00 15.26 LIG 0.16  HD
ATOM     33  C   PRO D   6      17.021  24.134  45.894  1.00 19.06 LIG 0.25  C 
ATOM     34 O    PRO D   6      17.053  24.316  47.106  1.00 17.22 LIG-0.27  OA
BRANCH 33 35
ATOM     35  CA  PRO D   6      17.901  23.066  45.247  1.00 33.07 LIG 0.35  C 
ATOM     36  N   PRO D   6      19.012  22.648  46.110  1.00 36.75 LIG 0.32  N 
ATOM     37  CD  PRO D   6      19.053  21.187  46.281  1.00 36.34 LIG 0.32  C 
ATOM     38  CG  PRO D   6      17.632  20.799  46.052  1.00 37.69 LIG 0.04  C 
ATOM     39  CB  PRO D   6      17.106  21.769  45.037  1.00 35.30 LIG 0.05  C 
ENDBRANCH 33 35
ENDBRANCH 30 31
BRANCH 30 40
ATOM     40  CB  THR D   7      15.223  27.010  44.512  1.00 10.85 LIG 0.15  C 
ATOM     41  CG2 THR D   7      14.248  28.066  44.995  1.00 12.17 LIG 0.04  C 
BRANCH 40 42
ATOM     42 OG1  THR D   7      16.493  27.620  44.265  1.00 14.88 LIG-0.39  OA
ATOM     43 HG1  THR D   7      16.521  27.897  43.472  1.00 14.88 LIG 0.21  HD
ENDBRANCH 40 42
ENDBRANCH 30 40
ENDBRANCH 28 30
ENDBRANCH 1 26
TORSDOF 17
ENDMDL
MODEL 50
USER: ADFR SOLUTION from run 152
USER: SCORE 13.468767 LL:  -3.936 LR: -11.398 RR:   0.000 FEB:  -6.327
USER: RMSD 8.416739
USER: SEED 151
USER: STATUS no improvement in best in 10 clusters for 5 generations
USER: GENES 19
USER: genes 0 Translation |==|  0.27736 0.44020 0.42342
USER: genes 1 Rotation |==|  0.09928 0.51730 0.54400 0.79528
USER: genes 2 Torsion [C]-CA--CB-[OG] |==|  0.81098
USER: genes 3 Torsion [CA]-CB--OG-[HG] |==|  0.89721
USER: genes 4 Torsion [N]-CA--C-[N] |==|  0.69330
USER: genes 5 Torsion [C]-N--CA-[C] |==|  0.65460
USER: genes 6 Torsion [N]-CA--C-[N] |==|  0.43826
USER: genes 7 Torsion [C]-N--CA-[C] |==|  0.63443
USER: genes 8 Torsion [N]-CA--CB-[CG2] |==|  0.10677
USER: genes 9 Torsion [CA]-CB--CG1-[CD1] |==|  0.21525
USER: genes 10 Torsion [N]-CA--C-[O] |==|  0.85891
USER: genes 11 Torsion [N]-CA--CB-[CG2] |==|  0.63910
USER: genes 12 Torsion [CA]-CB--CG1-[CD1] |==|  0.52249
USER: genes 13 Torsion [CB]-CA--N-[C] |==|  0.46990
USER: genes 14 Torsion [N]-C--CA-[N] |==|  0.94235
USER: genes 15 Torsion [C]-CA--N-[C] |==|  0.76819
USER: genes 16 Torsion [N]-C--CA-[N] |==|  0.38020
USER: genes 17 Torsion [C]-CA--CB-[OG1] |==|  0.54069
USER: genes 18 Torsion [CA]-CB--OG1-[HG1] |==|  0.51156
ROOT
ATOM      1  CA  SER D   8       8.749  24.292  44.424  1.00  5.81 LIG 0.20  C 
ENDROOT
BRANCH 1 2
ATOM      2  CB  SER D   8       8.002  23.010  44.047  1.00  5.44 LIG 0.20  C 
BRANCH 2 3
ATOM      3 OG   SER D   8       8.088  22.066  45.094  1.00  4.91 LIG-0.40  OA
ATOM      4 HG   SER D   8       8.847  22.111  45.449  1.00  4.91 LIG 0.21  HD
ENDBRANCH 2 3
ENDBRANCH 1 2
BRANCH 1 5
ATOM      5  C   SER D   8       8.018  24.985  45.547  1.00  6.04 LIG 0.24  C 
ATOM      6  N   ILE D   9       7.058  24.284  46.129  1.00  5.23 LIG-0.35  N 
ATOM      7 H    ILE D   9       6.776  23.524  45.843  1.00  5.23 LIG 0.16  HD
ATOM      8 O    SER D   8       8.308  26.134  45.872  1.00  7.88 LIG-0.27  OA
BRANCH 6 9
ATOM      9  CA  ILE D   9       6.391  24.760  47.327  1.00  5.91 LIG 0.18  C 
BRANCH 9 10
ATOM     10  C   ILE D   9       6.517  23.696  48.407  1.00  8.30 LIG 0.24  C 
ATOM     11  N   ILE D  10       6.384  24.124  49.657  1.00  7.14 LIG-0.34  N 
ATOM     12 H    ILE D  10       6.214  24.940  49.869  1.00  7.14 LIG 0.16  HD
ATOM     13 O    ILE D   9       6.759  22.519  48.116  1.00  8.28 LIG-0.27  OA
BRANCH 11 14
ATOM     14  CA  ILE D  10       6.519  23.222  50.796  1.00  6.72 LIG 0.19  C 
BRANCH 14 15
ATOM     15  CB  ILE D  10       7.837  23.456  51.548  1.00  6.99 LIG 0.01  C 
ATOM     16  CG2 ILE D  10       8.152  24.946  51.602  1.00  9.23 LIG 0.01  C 
BRANCH 15 17
ATOM     17  CG1 ILE D  10       7.747  22.906  52.973  1.00  6.78 LIG 0.00  C 
ATOM     18  CD1 ILE D  10       7.890  21.394  53.054  1.00  7.71 LIG 0.01  C 
ENDBRANCH 15 17
ENDBRANCH 14 15
BRANCH 14 19
ATOM     19  C   ILE D  10       5.357  23.419  51.745  1.00  8.00 LIG 0.20  C 
ATOM     20 O    ILE D  10       5.069  24.558  52.125  1.00  7.10 LIG-0.65  OA
ATOM     21 OXT  ILE D  10       4.695  22.457  52.124  1.00 10.02 LIG-0.65  OA
ENDBRANCH 14 19
ENDBRANCH 11 14
ENDBRANCH 9 10
BRANCH 9 22
ATOM     22  CB  ILE D   9       4.917  25.111  47.042  1.00  4.97 LIG 0.01  C 
ATOM     23  CG2 ILE D   9       4.583  26.508  47.577  1.00  9.61 LIG 0.01  C 
BRANCH 22 24
ATOM     24  CG1 ILE D   9       4.662  25.010  45.541  1.00  5.60 LIG 0.00  C 
ATOM     25  CD1 ILE D   9       3.294  25.519  45.098  1.00  8.38 LIG 0.01  C 
ENDBRANCH 22 24
ENDBRANCH 9 22
ENDBRANCH 6 9
ENDBRANCH 1 5
BRANCH 1 26
ATOM     26  N   SER D   8      10.104  23.995  44.856  1.00  6.06 LIG-0.34  N 
ATOM     27 H    SER D   8      10.261  23.160  44.985  1.00  6.06 LIG 0.16  HD
ATOM     28  C   THR D   7      11.004  24.956  45.028  1.00 11.81 LIG 0.24  C 
ATOM     29 O    THR D   7      10.808  26.135  44.708  1.00 11.44 LIG-0.27  OA
BRANCH 28 30
ATOM     30  CA  THR D   7      12.323  24.529  45.641  1.00  8.59 LIG 0.20  C 
BRANCH 30 31
ATOM     31  N   THR D   7      12.155  23.269  46.352  1.00 15.26 LIG-0.34  N 
ATOM     32 H    THR D   7      12.376  22.572  45.899  1.00 15.26 LIG 0.16  HD
ATOM     33  C   PRO D   6      11.696  23.230  47.597  1.00 19.06 LIG 0.25  C 
ATOM     34 O    PRO D   6      11.356  24.232  48.217  1.00 17.22 LIG-0.27  OA
BRANCH 33 35
ATOM     35  CA  PRO D   6      11.607  21.850  48.245  1.00 33.07 LIG 0.35  C 
ATOM     36  N   PRO D   6      12.084  21.843  49.633  1.00 36.75 LIG 0.32  N 
ATOM     37  CD  PRO D   6      11.092  21.262  50.550  1.00 36.34 LIG 0.32  C 
ATOM     38  CG  PRO D   6       9.810  21.505  49.830  1.00 37.69 LIG 0.04  C 
ATOM     39  CB  PRO D   6      10.141  21.409  48.370  1.00 35.30 LIG 0.05  C 
ENDBRANCH 33 35
ENDBRANCH 30 31
BRANCH 30 40
ATOM     40  CB  THR D   7      13.359  24.394  44.512  1.00 10.85 LIG 0.15  C 
ATOM     41  CG2 THR D   7      13.803  25.762  44.030  1.00 12.17 LIG 0.04  C 
BRANCH 40 42
ATOM     42 OG1  THR D   7      14.498  23.675  44.998  1.00 14.88 LIG-0.39  OA
ATOM     43 HG1  THR D   7      15.088  23.650  44.401  1.00 14.88 LIG 0.21  HD
ENDBRANCH 40 42
ENDBRANCH 30 40
ENDBRANCH 28 30
ENDBRANCH 1 26
TORSDOF 17
ENDMDL
MODEL 51
USER: ADFR SOLUTION from run 9
USER: SCORE 13.978485 LL:  -3.947 LR: -11.357 RR:   0.000 FEB:  -6.286
USER: RMSD 6.893390
USER: SEED 989864
USER: STATUS no improvement in best in 13 clusters for 5 generations
USER: GENES 19
USER: genes 0 Translation |==|  0.43458 0.47159 0.48669
USER: genes 1 Rotation |==|  0.37232 0.27220 0.24969 0.84518
USER: genes 2 Torsion [C]-CA--CB-[OG] |==|  0.57664
USER: genes 3 Torsion [CA]-CB--OG-[HG] |==|  0.52140
USER: genes 4 Torsion [N]-CA--C-[N] |==|  0.91007
USER: genes 5 Torsion [C]-N--CA-[C] |==|  0.79160
USER: genes 6 Torsion [N]-CA--C-[N] |==|  0.94697
USER: genes 7 Torsion [C]-N--CA-[C] |==|  0.18282
USER: genes 8 Torsion [N]-CA--CB-[CG2] |==|  0.49300
USER: genes 9 Torsion [CA]-CB--CG1-[CD1] |==|  0.30779
USER: genes 10 Torsion [N]-CA--C-[O] |==|  0.75192
USER: genes 11 Torsion [N]-CA--CB-[CG2] |==|  0.29728
USER: genes 12 Torsion [CA]-CB--CG1-[CD1] |==|  0.52536
USER: genes 13 Torsion [CB]-CA--N-[C] |==|  0.37778
USER: genes 14 Torsion [N]-C--CA-[N] |==|  0.35249
USER: genes 15 Torsion [C]-CA--N-[C] |==|  0.85356
USER: genes 16 Torsion [N]-C--CA-[N] |==|  0.26308
USER: genes 17 Torsion [C]-CA--CB-[OG1] |==|  0.69336
USER: genes 18 Torsion [CA]-CB--OG1-[HG1] |==|  0.28319
ROOT
ATOM      1  CA  SER D   8      12.640  24.739  45.515  1.00  5.81 LIG 0.20  C 
ENDROOT
BRANCH 1 2
ATOM      2  CB  SER D   8      13.759  24.549  44.489  1.00  5.44 LIG 0.20  C 
BRANCH 2 3
ATOM      3 OG   SER D   8      14.749  23.680  44.998  1.00  4.91 LIG-0.40  OA
ATOM      4 HG   SER D   8      15.405  23.665  44.474  1.00  4.91 LIG 0.21  HD
ENDBRANCH 2 3
ENDBRANCH 1 2
BRANCH 1 5
ATOM      5  C   SER D   8      11.352  25.056  44.798  1.00  6.04 LIG 0.24  C 
ATOM      6  N   ILE D   9      10.616  24.013  44.446  1.00  5.23 LIG-0.35  N 
ATOM      7 H    ILE D   9      10.876  23.196  44.514  1.00  5.23 LIG 0.16  HD
ATOM      8 O    SER D   8      11.035  26.219  44.555  1.00  7.88 LIG-0.27  OA
BRANCH 6 9
ATOM      9  CA  ILE D   9       9.281  24.175  43.903  1.00  5.91 LIG 0.18  C 
BRANCH 9 10
ATOM     10  C   ILE D   9       8.336  24.539  45.039  1.00  8.30 LIG 0.24  C 
ATOM     11  N   ILE D  10       8.768  24.255  46.262  1.00  7.14 LIG-0.34  N 
ATOM     12 H    ILE D  10       9.537  23.909  46.431  1.00  7.14 LIG 0.16  HD
ATOM     13 O    ILE D   9       7.228  25.038  44.810  1.00  8.28 LIG-0.27  OA
BRANCH 11 14
ATOM     14  CA  ILE D  10       7.952  24.512  47.444  1.00  6.72 LIG 0.19  C 
BRANCH 14 15
ATOM     15  CB  ILE D  10       7.514  25.983  47.517  1.00  6.99 LIG 0.01  C 
ATOM     16  CG2 ILE D  10       6.614  26.202  48.728  1.00  9.23 LIG 0.01  C 
BRANCH 15 17
ATOM     17  CG1 ILE D  10       8.734  26.900  47.620  1.00  6.78 LIG 0.00  C 
ATOM     18  CD1 ILE D  10       8.973  27.741  46.375  1.00  7.71 LIG 0.01  C 
ENDBRANCH 15 17
ENDBRANCH 14 15
BRANCH 14 19
ATOM     19  C   ILE D  10       6.727  23.624  47.423  1.00  8.00 LIG 0.20  C 
ATOM     20 O    ILE D  10       5.699  24.018  46.866  1.00  7.10 LIG-0.65  OA
ATOM     21 OXT  ILE D  10       6.760  22.512  47.944  1.00 10.02 LIG-0.65  OA
ENDBRANCH 14 19
ENDBRANCH 11 14
ENDBRANCH 9 10
BRANCH 9 22
ATOM     22  CB  ILE D   9       8.821  22.901  43.165  1.00  4.97 LIG 0.01  C 
ATOM     23  CG2 ILE D   9       7.760  22.157  43.986  1.00  9.61 LIG 0.01  C 
BRANCH 22 24
ATOM     24  CG1 ILE D   9       8.294  23.287  41.787  1.00  5.60 LIG 0.00  C 
ATOM     25  CD1 ILE D   9       7.604  22.151  41.035  1.00  8.38 LIG 0.01  C 
ENDBRANCH 22 24
ENDBRANCH 9 22
ENDBRANCH 6 9
ENDBRANCH 1 5
BRANCH 1 26
ATOM     26  N   SER D   8      12.453  23.537  46.309  1.00  6.06 LIG-0.34  N 
ATOM     27 H    SER D   8      12.459  22.807  45.856  1.00  6.06 LIG 0.16  HD
ATOM     28  C   THR D   7      12.291  23.591  47.626  1.00 11.81 LIG 0.24  C 
ATOM     29 O    THR D   7      12.423  24.632  48.283  1.00 11.44 LIG-0.27  OA
BRANCH 28 30
ATOM     30  CA  THR D   7      11.938  22.285  48.307  1.00  8.59 LIG 0.20  C 
BRANCH 30 31
ATOM     31  N   THR D   7      12.869  22.027  49.397  1.00 15.26 LIG-0.34  N 
ATOM     32 H    THR D   7      12.494  21.865  50.155  1.00 15.26 LIG 0.16  HD
ATOM     33  C   PRO D   6      14.183  22.046  49.209  1.00 19.06 LIG 0.25  C 
ATOM     34 O    PRO D   6      14.700  22.310  48.129  1.00 17.22 LIG-0.27  OA
BRANCH 33 35
ATOM     35  CA  PRO D   6      15.048  21.718  50.424  1.00 33.07 LIG 0.35  C 
ATOM     36  N   PRO D   6      15.433  20.303  50.480  1.00 36.75 LIG 0.32  N 
ATOM     37  CD  PRO D   6      16.888  20.137  50.621  1.00 36.34 LIG 0.32  C 
ATOM     38  CG  PRO D   6      17.413  21.396  50.021  1.00 37.69 LIG 0.04  C 
ATOM     39  CB  PRO D   6      16.395  22.451  50.338  1.00 35.30 LIG 0.05  C 
ENDBRANCH 33 35
ENDBRANCH 30 31
BRANCH 30 40
ATOM     40  CB  THR D   7      10.493  22.383  48.824  1.00 10.85 LIG 0.15  C 
ATOM     41  CG2 THR D   7       9.683  21.181  48.376  1.00 12.17 LIG 0.04  C 
BRANCH 40 42
ATOM     42 OG1  THR D   7      10.503  22.435  50.254  1.00 14.88 LIG-0.39  OA
ATOM     43 HG1  THR D   7      10.385  23.228  50.507  1.00 14.88 LIG 0.21  HD
ENDBRANCH 40 42
ENDBRANCH 30 40
ENDBRANCH 28 30
ENDBRANCH 1 26
TORSDOF 17
ENDMDL
MODEL 52
USER: ADFR SOLUTION from run 44
USER: SCORE 13.676151 LL:  -3.822 LR: -11.350 RR:   0.000 FEB:  -6.279
USER: RMSD 3.952303
USER: SEED 43
USER: STATUS searching
USER: GENES 19
USER: genes 0 Translation |==|  0.45079 0.32248 0.60004
USER: genes 1 Rotation |==|  0.95949 0.38652 0.35163 0.56304
USER: genes 2 Torsion [C]-CA--CB-[OG] |==|  0.60369
USER: genes 3 Torsion [CA]-CB--OG-[HG] |==|  0.89937
USER: genes 4 Torsion [N]-CA--C-[N] |==|  0.29031
USER: genes 5 Torsion [C]-N--CA-[C] |==|  0.70953
USER: genes 6 Torsion [N]-CA--C-[N] |==|  0.94571
USER: genes 7 Torsion [C]-N--CA-[C] |==|  0.61608
USER: genes 8 Torsion [N]-CA--CB-[CG2] |==|  0.79243
USER: genes 9 Torsion [CA]-CB--CG1-[CD1] |==|  0.62974
USER: genes 10 Torsion [N]-CA--C-[O] |==|  0.93788
USER: genes 11 Torsion [N]-CA--CB-[CG2] |==|  0.86103
USER: genes 12 Torsion [CA]-CB--CG1-[CD1] |==|  0.34275
USER: genes 13 Torsion [CB]-CA--N-[C] |==|  0.55831
USER: genes 14 Torsion [N]-C--CA-[N] |==|  0.56670
USER: genes 15 Torsion [C]-CA--N-[C] |==|  0.16299
USER: genes 16 Torsion [N]-C--CA-[N] |==|  0.47955
USER: genes 17 Torsion [C]-CA--CB-[OG1] |==|  0.60076
USER: genes 18 Torsion [CA]-CB--OG1-[HG1] |==|  0.23972
ROOT
ATOM      1  CA  SER D   8      13.041  22.614  47.471  1.00  5.81 LIG 0.20  C 
ENDROOT
BRANCH 1 2
ATOM      2  CB  SER D   8      12.849  22.330  48.962  1.00  5.44 LIG 0.20  C 
BRANCH 2 3
ATOM      3 OG   SER D   8      13.931  21.574  49.461  1.00  4.91 LIG-0.40  OA
ATOM      4 HG   SER D   8      14.185  21.028  48.876  1.00  4.91 LIG 0.21  HD
ENDBRANCH 2 3
ENDBRANCH 1 2
BRANCH 1 5
ATOM      5  C   SER D   8      12.546  24.005  47.158  1.00  6.04 LIG 0.24  C 
ATOM      6  N   ILE D   9      11.783  24.116  46.082  1.00  5.23 LIG-0.35  N 
ATOM      7 H    ILE D   9      11.646  23.479  45.521  1.00  5.23 LIG 0.16  HD
ATOM      8 O    SER D   8      12.859  24.959  47.867  1.00  7.88 LIG-0.27  OA
BRANCH 6 9
ATOM      9  CA  ILE D   9      11.103  25.357  45.760  1.00  5.91 LIG 0.18  C 
BRANCH 9 10
ATOM     10  C   ILE D   9       9.628  25.203  46.098  1.00  8.30 LIG 0.24  C 
ATOM     11  N   ILE D  10       9.186  23.956  46.205  1.00  7.14 LIG-0.34  N 
ATOM     12 H    ILE D  10       9.686  23.261  46.116  1.00  7.14 LIG 0.16  HD
ATOM     13 O    ILE D   9       8.899  26.193  46.230  1.00  8.28 LIG-0.27  OA
BRANCH 11 14
ATOM     14  CA  ILE D  10       7.786  23.657  46.486  1.00  6.72 LIG 0.19  C 
BRANCH 14 15
ATOM     15  CB  ILE D  10       7.024  23.269  45.210  1.00  6.99 LIG 0.01  C 
ATOM     16  CG2 ILE D  10       6.755  24.508  44.364  1.00  9.23 LIG 0.01  C 
BRANCH 15 17
ATOM     17  CG1 ILE D  10       7.831  22.260  44.391  1.00  6.78 LIG 0.00  C 
ATOM     18  CD1 ILE D  10       7.906  22.597  42.910  1.00  7.71 LIG 0.01  C 
ENDBRANCH 15 17
ENDBRANCH 14 15
BRANCH 14 19
ATOM     19  C   ILE D  10       7.696  22.527  47.489  1.00  8.00 LIG 0.20  C 
ATOM     20 O    ILE D  10       8.648  21.752  47.618  1.00  7.10 LIG-0.65  OA
ATOM     21 OXT  ILE D  10       6.690  22.391  48.180  1.00 10.02 LIG-0.65  OA
ENDBRANCH 14 19
ENDBRANCH 11 14
ENDBRANCH 9 10
BRANCH 9 22
ATOM     22  CB  ILE D   9      11.311  25.739  44.281  1.00  4.97 LIG 0.01  C 
ATOM     23  CG2 ILE D   9      12.799  25.681  43.914  1.00  9.61 LIG 0.01  C 
BRANCH 22 24
ATOM     24  CG1 ILE D   9      10.482  24.807  43.404  1.00  5.60 LIG 0.00  C 
ATOM     25  CD1 ILE D   9       9.497  25.519  42.481  1.00  8.38 LIG 0.01  C 
ENDBRANCH 22 24
ENDBRANCH 9 22
ENDBRANCH 6 9
ENDBRANCH 1 5
BRANCH 1 26
ATOM     26  N   SER D   8      14.442  22.519  47.100  1.00  6.06 LIG-0.34  N 
ATOM     27 H    SER D   8      14.924  22.059  47.644  1.00  6.06 LIG 0.16  HD
ATOM     28  C   THR D   7      14.913  23.104  46.006  1.00 11.81 LIG 0.24  C 
ATOM     29 O    THR D   7      14.189  23.644  45.160  1.00 11.44 LIG-0.27  OA
BRANCH 28 30
ATOM     30  CA  THR D   7      16.418  23.068  45.827  1.00  8.59 LIG 0.20  C 
BRANCH 30 31
ATOM     31  N   THR D   7      16.841  24.166  44.969  1.00 15.26 LIG-0.34  N 
ATOM     32 H    THR D   7      17.259  23.921  44.258  1.00 15.26 LIG 0.16  HD
ATOM     33  C   PRO D   6      16.590  25.431  45.283  1.00 19.06 LIG 0.25  C 
ATOM     34 O    PRO D   6      16.021  25.763  46.317  1.00 17.22 LIG-0.27  OA
BRANCH 33 35
ATOM     35  CA  PRO D   6      17.050  26.485  44.278  1.00 33.07 LIG 0.35  C 
ATOM     36  N   PRO D   6      16.582  27.835  44.618  1.00 36.75 LIG 0.32  N 
ATOM     37  CD  PRO D   6      17.689  28.802  44.662  1.00 36.34 LIG 0.32  C 
ATOM     38  CG  PRO D   6      18.861  27.934  44.971  1.00 37.69 LIG 0.04  C 
ATOM     39  CB  PRO D   6      18.579  26.621  44.303  1.00 35.30 LIG 0.05  C 
ENDBRANCH 33 35
ENDBRANCH 30 31
BRANCH 30 40
ATOM     40  CB  THR D   7      17.072  23.167  47.216  1.00 10.85 LIG 0.15  C 
ATOM     41  CG2 THR D   7      17.415  21.787  47.743  1.00 12.17 LIG 0.04  C 
BRANCH 40 42
ATOM     42 OG1  THR D   7      18.270  23.944  47.121  1.00 14.88 LIG-0.39  OA
ATOM     43 HG1  THR D   7      18.082  24.759  47.201  1.00 14.88 LIG 0.21  HD
ENDBRANCH 40 42
ENDBRANCH 30 40
ENDBRANCH 28 30
ENDBRANCH 1 26
TORSDOF 17
ENDMDL
MODEL 53
USER: ADFR SOLUTION from run 140
USER: SCORE 14.330726 LL:  -4.167 LR: -11.317 RR:   0.000 FEB:  -6.246
USER: RMSD 6.633460
USER: SEED 139
USER: STATUS no improvement in best in 11 clusters for 5 generations
USER: GENES 19
USER: genes 0 Translation |==|  0.27440 0.22998 0.70125
USER: genes 1 Rotation |==|  0.92745 0.49177 0.30171 0.66703
USER: genes 2 Torsion [C]-CA--CB-[OG] |==|  0.18231
USER: genes 3 Torsion [CA]-CB--OG-[HG] |==|  0.02531
USER: genes 4 Torsion [N]-CA--C-[N] |==|  0.85687
USER: genes 5 Torsion [C]-N--CA-[C] |==|  0.81118
USER: genes 6 Torsion [N]-CA--C-[N] |==|  0.88048
USER: genes 7 Torsion [C]-N--CA-[C] |==|  0.73569
USER: genes 8 Torsion [N]-CA--CB-[CG2] |==|  0.26631
USER: genes 9 Torsion [CA]-CB--CG1-[CD1] |==|  0.57810
USER: genes 10 Torsion [N]-CA--C-[O] |==|  0.49674
USER: genes 11 Torsion [N]-CA--CB-[CG2] |==|  0.94312
USER: genes 12 Torsion [CA]-CB--CG1-[CD1] |==|  0.73320
USER: genes 13 Torsion [CB]-CA--N-[C] |==|  0.89005
USER: genes 14 Torsion [N]-C--CA-[N] |==|  0.31573
USER: genes 15 Torsion [C]-CA--N-[C] |==|  0.54091
USER: genes 16 Torsion [N]-C--CA-[N] |==|  0.25613
USER: genes 17 Torsion [C]-CA--CB-[OG1] |==|  0.45343
USER: genes 18 Torsion [CA]-CB--OG1-[HG1] |==|  0.79840
ROOT
ATOM      1  CA  SER D   8       8.676  21.296  49.217  1.00  5.81 LIG 0.20  C 
ENDROOT
BRANCH 1 2
ATOM      2  CB  SER D   8       9.096  21.423  50.683  1.00  5.44 LIG 0.20  C 
BRANCH 2 3
ATOM      3 OG   SER D   8       8.070  20.951  51.530  1.00  4.91 LIG-0.40  OA
ATOM      4 HG   SER D   8       7.476  20.577  51.069  1.00  4.91 LIG 0.21  HD
ENDBRANCH 2 3
ENDBRANCH 1 2
BRANCH 1 5
ATOM      5  C   SER D   8       7.512  22.218  48.948  1.00  6.04 LIG 0.24  C 
ATOM      6  N   ILE D   9       7.788  23.513  48.962  1.00  5.23 LIG-0.35  N 
ATOM      7 H    ILE D   9       8.544  23.841  49.206  1.00  5.23 LIG 0.16  HD
ATOM      8 O    SER D   8       6.386  21.769  48.747  1.00  7.88 LIG-0.27  OA
BRANCH 6 9
ATOM      9  CA  ILE D   9       6.807  24.501  48.555  1.00  5.91 LIG 0.18  C 
BRANCH 9 10
ATOM     10  C   ILE D   9       6.563  24.357  47.060  1.00  8.30 LIG 0.24  C 
ATOM     11  N   ILE D  10       7.646  24.179  46.313  1.00  7.14 LIG-0.34  N 
ATOM     12 H    ILE D  10       8.444  24.122  46.630  1.00  7.14 LIG 0.16  HD
ATOM     13 O    ILE D   9       5.422  24.435  46.591  1.00  8.28 LIG-0.27  OA
BRANCH 11 14
ATOM     14  CA  ILE D  10       7.568  24.063  44.861  1.00  6.72 LIG 0.19  C 
BRANCH 14 15
ATOM     15  CB  ILE D  10       8.765  24.738  44.176  1.00  6.99 LIG 0.01  C 
ATOM     16  CG2 ILE D  10       9.843  23.705  43.869  1.00  9.23 LIG 0.01  C 
BRANCH 15 17
ATOM     17  CG1 ILE D  10       8.327  25.415  42.876  1.00  6.78 LIG 0.00  C 
ATOM     18  CD1 ILE D  10       9.429  25.505  41.832  1.00  7.71 LIG 0.01  C 
ENDBRANCH 15 17
ENDBRANCH 14 15
BRANCH 14 19
ATOM     19  C   ILE D  10       7.519  22.604  44.465  1.00  8.00 LIG 0.20  C 
ATOM     20 O    ILE D  10       7.428  22.299  43.272  1.00  7.10 LIG-0.65  OA
ATOM     21 OXT  ILE D  10       7.583  21.727  45.323  1.00 10.02 LIG-0.65  OA
ENDBRANCH 14 19
ENDBRANCH 11 14
ENDBRANCH 9 10
BRANCH 9 22
ATOM     22  CB  ILE D   9       7.267  25.927  48.921  1.00  4.97 LIG 0.01  C 
ATOM     23  CG2 ILE D   9       8.332  25.882  50.024  1.00  9.61 LIG 0.01  C 
BRANCH 22 24
ATOM     24  CG1 ILE D   9       7.789  26.620  47.667  1.00  5.60 LIG 0.00  C 
ATOM     25  CD1 ILE D   9       9.303  26.549  47.490  1.00  8.38 LIG 0.01  C 
ENDBRANCH 22 24
ENDBRANCH 9 22
ENDBRANCH 6 9
ENDBRANCH 1 5
BRANCH 1 26
ATOM     26  N   SER D   8       9.771  21.650  48.330  1.00  6.06 LIG-0.34  N 
ATOM     27 H    SER D   8       9.838  21.152  47.633  1.00  6.06 LIG 0.16  HD
ATOM     28  C   THR D   7      10.584  22.663  48.600  1.00 11.81 LIG 0.24  C 
ATOM     29 O    THR D   7      10.394  23.456  49.531  1.00 11.44 LIG-0.27  OA
BRANCH 28 30
ATOM     30  CA  THR D   7      11.782  22.818  47.684  1.00  8.59 LIG 0.20  C 
BRANCH 30 31
ATOM     31  N   THR D   7      11.663  24.049  46.915  1.00 15.26 LIG-0.34  N 
ATOM     32 H    THR D   7      11.072  24.599  47.212  1.00 15.26 LIG 0.16  HD
ATOM     33  C   PRO D   6      12.418  24.278  45.848  1.00 19.06 LIG 0.25  C 
ATOM     34 O    PRO D   6      13.234  23.468  45.420  1.00 17.22 LIG-0.27  OA
BRANCH 33 35
ATOM     35  CA  PRO D   6      12.226  25.625  45.155  1.00 33.07 LIG 0.35  C 
ATOM     36  N   PRO D   6      13.145  26.655  45.654  1.00 36.75 LIG 0.32  N 
ATOM     37  CD  PRO D   6      13.887  27.301  44.561  1.00 36.34 LIG 0.32  C 
ATOM     38  CG  PRO D   6      13.884  26.248  43.506  1.00 37.69 LIG 0.04  C 
ATOM     39  CB  PRO D   6      12.583  25.519  43.665  1.00 35.30 LIG 0.05  C 
ENDBRANCH 33 35
ENDBRANCH 30 31
BRANCH 30 40
ATOM     40  CB  THR D   7      13.054  22.825  48.549  1.00 10.85 LIG 0.15  C 
ATOM     41  CG2 THR D   7      12.976  21.754  49.620  1.00 12.17 LIG 0.04  C 
BRANCH 40 42
ATOM     42 OG1  THR D   7      14.193  22.576  47.719  1.00 14.88 LIG-0.39  OA
ATOM     43 HG1  THR D   7      14.198  21.769  47.484  1.00 14.88 LIG 0.21  HD
ENDBRANCH 40 42
ENDBRANCH 30 40
ENDBRANCH 28 30
ENDBRANCH 1 26
TORSDOF 17
ENDMDL
MODEL 54
USER: ADFR SOLUTION from run 44
USER: SCORE 13.251062 LL:  -3.350 LR: -11.266 RR:   0.000 FEB:  -6.195
USER: RMSD 5.025644
USER: SEED 43
USER: STATUS searching
USER: GENES 19
USER: genes 0 Translation |==|  0.45398 0.38296 0.51422
USER: genes 1 Rotation |==|  0.97987 0.50640 0.38875 0.58547
USER: genes 2 Torsion [C]-CA--CB-[OG] |==|  0.56223
USER: genes 3 Torsion [CA]-CB--OG-[HG] |==|  0.77524
USER: genes 4 Torsion [N]-CA--C-[N] |==|  0.36111
USER: genes 5 Torsion [C]-N--CA-[C] |==|  0.75870
USER: genes 6 Torsion [N]-CA--C-[N] |==|  0.86206
USER: genes 7 Torsion [C]-N--CA-[C] |==|  0.12157
USER: genes 8 Torsion [N]-CA--CB-[CG2] |==|  0.58316
USER: genes 9 Torsion [CA]-CB--CG1-[CD1] |==|  0.73029
USER: genes 10 Torsion [N]-CA--C-[O] |==|  0.66324
USER: genes 11 Torsion [N]-CA--CB-[CG2] |==|  0.19411
USER: genes 12 Torsion [CA]-CB--CG1-[CD1] |==|  0.73063
USER: genes 13 Torsion [CB]-CA--N-[C] |==|  0.53979
USER: genes 14 Torsion [N]-C--CA-[N] |==|  0.68305
USER: genes 15 Torsion [C]-CA--N-[C] |==|  0.16622
USER: genes 16 Torsion [N]-C--CA-[N] |==|  0.93387
USER: genes 17 Torsion [C]-CA--CB-[OG1] |==|  0.56892
USER: genes 18 Torsion [CA]-CB--OG1-[HG1] |==|  0.24440
ROOT
ATOM      1  CA  SER D   8      13.120  23.476  45.990  1.00  5.81 LIG 0.20  C 
ENDROOT
BRANCH 1 2
ATOM      2  CB  SER D   8      12.990  23.053  47.455  1.00  5.44 LIG 0.20  C 
BRANCH 2 3
ATOM      3 OG   SER D   8      14.225  22.565  47.936  1.00  4.91 LIG-0.40  OA
ATOM      4 HG   SER D   8      14.325  21.767  47.694  1.00  4.91 LIG 0.21  HD
ENDBRANCH 2 3
ENDBRANCH 1 2
BRANCH 1 5
ATOM      5  C   SER D   8      12.031  24.465  45.657  1.00  6.04 LIG 0.24  C 
ATOM      6  N   ILE D   9      11.067  24.017  44.868  1.00  5.23 LIG-0.35  N 
ATOM      7 H    ILE D   9      11.086  23.254  44.472  1.00  5.23 LIG 0.16  HD
ATOM      8 O    SER D   8      12.068  25.614  46.093  1.00  7.88 LIG-0.27  OA
BRANCH 6 9
ATOM      9  CA  ILE D   9       9.876  24.803  44.604  1.00  5.91 LIG 0.18  C 
BRANCH 9 10
ATOM     10  C   ILE D   9       8.857  24.519  45.697  1.00  8.30 LIG 0.24  C 
ATOM     11  N   ILE D  10       8.624  23.237  45.952  1.00  7.14 LIG-0.34  N 
ATOM     12 H    ILE D  10       9.027  22.589  45.555  1.00  7.14 LIG 0.16  HD
ATOM     13 O    ILE D   9       8.272  25.442  46.276  1.00  8.28 LIG-0.27  OA
BRANCH 11 14
ATOM     14  CA  ILE D  10       7.643  22.817  46.947  1.00  6.72 LIG 0.19  C 
BRANCH 14 15
ATOM     15  CB  ILE D  10       8.191  22.962  48.375  1.00  6.99 LIG 0.01  C 
ATOM     16  CG2 ILE D  10       7.562  21.915  49.286  1.00  9.23 LIG 0.01  C 
BRANCH 15 17
ATOM     17  CG1 ILE D  10       9.711  22.796  48.385  1.00  6.78 LIG 0.00  C 
ATOM     18  CD1 ILE D  10      10.171  21.394  48.754  1.00  7.71 LIG 0.01  C 
ENDBRANCH 15 17
ENDBRANCH 14 15
BRANCH 14 19
ATOM     19  C   ILE D  10       6.384  23.644  46.805  1.00  8.00 LIG 0.20  C 
ATOM     20 O    ILE D  10       5.984  24.312  47.763  1.00  7.10 LIG-0.65  OA
ATOM     21 OXT  ILE D  10       5.772  23.663  45.741  1.00 10.02 LIG-0.65  OA
ENDBRANCH 14 19
ENDBRANCH 11 14
ENDBRANCH 9 10
BRANCH 9 22
ATOM     22  CB  ILE D   9       9.308  24.500  43.203  1.00  4.97 LIG 0.01  C 
ATOM     23  CG2 ILE D   9       8.711  23.088  43.158  1.00  9.61 LIG 0.01  C 
BRANCH 22 24
ATOM     24  CG1 ILE D   9       8.269  25.559  42.847  1.00  5.60 LIG 0.00  C 
ATOM     25  CD1 ILE D   9       6.826  25.144  43.120  1.00  8.38 LIG 0.01  C 
ENDBRANCH 22 24
ENDBRANCH 9 22
ENDBRANCH 6 9
ENDBRANCH 1 5
BRANCH 1 26
ATOM     26  N   SER D   8      14.411  24.095  45.741  1.00  6.06 LIG-0.34  N 
ATOM     27 H    SER D   8      14.990  23.972  46.363  1.00  6.06 LIG 0.16  HD
ATOM     28  C   THR D   7      14.647  24.788  44.633  1.00 11.81 LIG 0.24  C 
ATOM     29 O    THR D   7      13.854  24.842  43.685  1.00 11.44 LIG-0.27  OA
BRANCH 28 30
ATOM     30  CA  THR D   7      15.973  25.520  44.576  1.00  8.59 LIG 0.20  C 
BRANCH 30 31
ATOM     31  N   THR D   7      15.745  26.958  44.564  1.00 15.26 LIG-0.34  N 
ATOM     32 H    THR D   7      16.054  27.362  43.870  1.00 15.26 LIG 0.16  HD
ATOM     33  C   PRO D   6      15.110  27.570  45.556  1.00 19.06 LIG 0.25  C 
ATOM     34 O    PRO D   6      14.704  26.983  46.554  1.00 17.22 LIG-0.27  OA
BRANCH 33 35
ATOM     35  CA  PRO D   6      14.898  29.075  45.403  1.00 33.07 LIG 0.35  C 
ATOM     36  N   PRO D   6      15.874  29.695  44.498  1.00 36.75 LIG 0.32  N 
ATOM     37  CD  PRO D   6      15.219  30.481  43.443  1.00 36.34 LIG 0.32  C 
ATOM     38  CG  PRO D   6      13.884  29.827  43.338  1.00 37.69 LIG 0.04  C 
ATOM     39  CB  PRO D   6      13.551  29.361  44.724  1.00 35.30 LIG 0.05  C 
ENDBRANCH 33 35
ENDBRANCH 30 31
BRANCH 30 40
ATOM     40  CB  THR D   7      16.809  25.101  45.798  1.00 10.85 LIG 0.15  C 
ATOM     41  CG2 THR D   7      17.555  23.812  45.516  1.00 12.17 LIG 0.04  C 
BRANCH 40 42
ATOM     42 OG1  THR D   7      17.752  26.133  46.102  1.00 14.88 LIG-0.39  OA
ATOM     43 HG1  THR D   7      17.399  26.693  46.620  1.00 14.88 LIG 0.21  HD
ENDBRANCH 40 42
ENDBRANCH 30 40
ENDBRANCH 28 30
ENDBRANCH 1 26
TORSDOF 17
ENDMDL
MODEL 55
USER: ADFR SOLUTION from run 145
USER: SCORE 13.689161 LL:  -3.219 LR: -11.267 RR:   0.000 FEB:  -6.196
USER: RMSD 6.845431
USER: SEED 144
USER: STATUS no improvement in best in 8 clusters for 5 generations
USER: GENES 19
USER: genes 0 Translation |==|  0.30574 0.28259 0.63076
USER: genes 1 Rotation |==|  0.98972 0.42589 0.56554 0.51975
USER: genes 2 Torsion [C]-CA--CB-[OG] |==|  0.06148
USER: genes 3 Torsion [CA]-CB--OG-[HG] |==|  0.67083
USER: genes 4 Torsion [N]-CA--C-[N] |==|  0.38395
USER: genes 5 Torsion [C]-N--CA-[C] |==|  0.79484
USER: genes 6 Torsion [N]-CA--C-[N] |==|  0.40764
USER: genes 7 Torsion [C]-N--CA-[C] |==|  0.21919
USER: genes 8 Torsion [N]-CA--CB-[CG2] |==|  0.46336
USER: genes 9 Torsion [CA]-CB--CG1-[CD1] |==|  0.62808
USER: genes 10 Torsion [N]-CA--C-[O] |==|  0.36151
USER: genes 11 Torsion [N]-CA--CB-[CG2] |==|  0.77642
USER: genes 12 Torsion [CA]-CB--CG1-[CD1] |==|  0.51252
USER: genes 13 Torsion [CB]-CA--N-[C] |==|  0.50656
USER: genes 14 Torsion [N]-C--CA-[N] |==|  0.44977
USER: genes 15 Torsion [C]-CA--N-[C] |==|  0.69724
USER: genes 16 Torsion [N]-C--CA-[N] |==|  0.64031
USER: genes 17 Torsion [C]-CA--CB-[OG1] |==|  0.11201
USER: genes 18 Torsion [CA]-CB--OG1-[HG1] |==|  0.78824
ROOT
ATOM      1  CA  SER D   8       9.451  22.046  48.001  1.00  5.81 LIG 0.20  C 
ENDROOT
BRANCH 1 2
ATOM      2  CB  SER D   8       8.269  21.553  48.838  1.00  5.44 LIG 0.20  C 
BRANCH 2 3
ATOM      3 OG   SER D   8       7.064  22.116  48.365  1.00  4.91 LIG-0.40  OA
ATOM      4 HG   SER D   8       6.714  22.580  48.971  1.00  4.91 LIG 0.21  HD
ENDBRANCH 2 3
ENDBRANCH 1 2
BRANCH 1 5
ATOM      5  C   SER D   8       9.079  23.341  47.322  1.00  6.04 LIG 0.24  C 
ATOM      6  N   ILE D   9       8.727  23.244  46.050  1.00  5.23 LIG-0.35  N 
ATOM      7 H    ILE D   9       8.797  22.524  45.585  1.00  5.23 LIG 0.16  HD
ATOM      8 O    SER D   8       9.121  24.406  47.933  1.00  7.88 LIG-0.27  OA
BRANCH 6 9
ATOM      9  CA  ILE D   9       8.185  24.378  45.325  1.00  5.91 LIG 0.18  C 
BRANCH 9 10
ATOM     10  C   ILE D   9       6.758  24.616  45.793  1.00  8.30 LIG 0.24  C 
ATOM     11  N   ILE D  10       6.357  25.881  45.807  1.00  7.14 LIG-0.34  N 
ATOM     12 H    ILE D  10       6.846  26.542  45.551  1.00  7.14 LIG 0.16  HD
ATOM     13 O    ILE D   9       6.044  23.675  46.161  1.00  8.28 LIG-0.27  OA
BRANCH 11 14
ATOM     14  CA  ILE D  10       5.026  26.261  46.269  1.00  6.72 LIG 0.19  C 
BRANCH 14 15
ATOM     15  CB  ILE D  10       3.951  25.300  45.742  1.00  6.99 LIG 0.01  C 
ATOM     16  CG2 ILE D  10       2.641  25.518  46.489  1.00  9.23 LIG 0.01  C 
BRANCH 15 17
ATOM     17  CG1 ILE D  10       3.723  25.519  44.245  1.00  6.78 LIG 0.00  C 
ATOM     18  CD1 ILE D  10       2.256  25.589  43.853  1.00  7.71 LIG 0.01  C 
ENDBRANCH 15 17
ENDBRANCH 14 15
BRANCH 14 19
ATOM     19  C   ILE D  10       4.994  26.272  47.782  1.00  8.00 LIG 0.20  C 
ATOM     20 O    ILE D  10       4.540  27.256  48.373  1.00  7.10 LIG-0.65  OA
ATOM     21 OXT  ILE D  10       5.402  25.304  48.417  1.00 10.02 LIG-0.65  OA
ENDBRANCH 14 19
ENDBRANCH 11 14
ENDBRANCH 9 10
BRANCH 9 22
ATOM     22  CB  ILE D   9       8.255  24.150  43.801  1.00  4.97 LIG 0.01  C 
ATOM     23  CG2 ILE D   9       9.663  24.453  43.275  1.00  9.61 LIG 0.01  C 
BRANCH 22 24
ATOM     24  CG1 ILE D   9       7.838  22.716  43.493  1.00  5.60 LIG 0.00  C 
ATOM     25  CD1 ILE D   9       7.967  22.324  42.023  1.00  8.38 LIG 0.01  C 
ENDBRANCH 22 24
ENDBRANCH 9 22
ENDBRANCH 6 9
ENDBRANCH 1 5
BRANCH 1 26
ATOM     26  N   SER D   8      10.620  22.270  48.834  1.00  6.06 LIG-0.34  N 
ATOM     27 H    SER D   8      10.509  22.071  49.663  1.00  6.06 LIG 0.16  HD
ATOM     28  C   THR D   7      11.752  22.745  48.330  1.00 11.81 LIG 0.24  C 
ATOM     29 O    THR D   7      11.944  22.897  47.117  1.00 11.44 LIG-0.27  OA
BRANCH 28 30
ATOM     30  CA  THR D   7      12.834  23.090  49.334  1.00  8.59 LIG 0.20  C 
BRANCH 30 31
ATOM     31  N   THR D   7      14.123  23.181  48.662  1.00 15.26 LIG-0.34  N 
ATOM     32 H    THR D   7      14.211  23.868  48.152  1.00 15.26 LIG 0.16  HD
ATOM     33  C   PRO D   6      15.066  22.264  48.841  1.00 19.06 LIG 0.25  C 
ATOM     34 O    PRO D   6      14.912  21.274  49.548  1.00 17.22 LIG-0.27  OA
BRANCH 33 35
ATOM     35  CA  PRO D   6      16.388  22.497  48.112  1.00 33.07 LIG 0.35  C 
ATOM     36  N   PRO D   6      16.831  21.323  47.351  1.00 36.75 LIG 0.32  N 
ATOM     37  CD  PRO D   6      17.122  21.657  45.949  1.00 36.34 LIG 0.32  C 
ATOM     38  CG  PRO D   6      16.265  22.856  45.721  1.00 37.69 LIG 0.04  C 
ATOM     39  CB  PRO D   6      16.224  23.579  47.035  1.00 35.30 LIG 0.05  C 
ENDBRANCH 33 35
ENDBRANCH 30 31
BRANCH 30 40
ATOM     40  CB  THR D   7      12.464  24.424  50.004  1.00 10.85 LIG 0.15  C 
ATOM     41  CG2 THR D   7      12.827  25.591  49.106  1.00 12.17 LIG 0.04  C 
BRANCH 40 42
ATOM     42 OG1  THR D   7      11.056  24.451  50.262  1.00 14.88 LIG-0.39  OA
ATOM     43 HG1  THR D   7      10.643  24.598  49.545  1.00 14.88 LIG 0.21  HD
ENDBRANCH 40 42
ENDBRANCH 30 40
ENDBRANCH 28 30
ENDBRANCH 1 26
TORSDOF 17
ENDMDL
