MODEL 1
USER: ADFR SOLUTION from run 104
USER: SCORE 16.727136 LL:  -4.159 LR: -14.572 RR:   0.000 FEB:  -8.308
USER: RMSD 8.209673
USER: SEED 103
USER: STATUS no improvement in best in 13 clusters for 5 generations
USER: GENES 23
USER: genes 0 Translation |==|  0.32956 0.46678 0.57791
USER: genes 1 Rotation |==|  0.14917 0.40104 0.58153 0.83238
USER: genes 2 Torsion [N]-C--CA-[N] |==|  0.00436
USER: genes 3 Torsion [C]-CA--CB-[CG2] |==|  0.29005
USER: genes 4 Torsion [CA]-CB--OG1-[HG1] |==|  0.46893
USER: genes 5 Torsion [C]-CA--N-[C] |==|  0.69178
USER: genes 6 Torsion [N]-C--CA-[CB] |==|  0.60006
USER: genes 7 Torsion [N]-C--CA-[N] |==|  0.24520
USER: genes 8 Torsion [C]-CA--CB-[CG] |==|  0.83281
USER: genes 9 Torsion [CA]-CB--CG-[CD1] |==|  0.84198
USER: genes 10 Torsion [CE2]-CZ--OH-[HH] |==|  0.63246
USER: genes 11 Torsion [C]-N--CA-[CB] |==|  0.34451
USER: genes 12 Torsion [N]-CA--CB-[OG] |==|  0.56954
USER: genes 13 Torsion [CA]-CB--OG-[HG] |==|  0.84961
USER: genes 14 Torsion [N]-CA--C-[N] |==|  0.92521
USER: genes 15 Torsion [C]-N--CA-[CB] |==|  0.53806
USER: genes 16 Torsion [N]-CA--C-[N] |==|  0.34019
USER: genes 17 Torsion [C]-N--CA-[CB] |==|  0.43449
USER: genes 18 Torsion [N]-CA--CB-[CG2] |==|  0.48743
USER: genes 19 Torsion [CA]-CB--CG1-[CD1] |==|  0.61546
USER: genes 20 Torsion [N]-CA--C-[O] |==|  0.84173
USER: genes 21 Torsion [N]-CA--CB-[CG1] |==|  0.77535
USER: genes 22 Torsion [CA]-CB--CG1-[CD1] |==|  0.59136
ROOT
ATOM      1  C   THR D   7      11.085  24.932  43.845  1.00  9.65 LIG 0.24  C 
ATOM      2 O    THR D   7      10.853  25.782  42.972  1.00 10.36 LIG-0.27  OA
ATOM      3  N   SER D   8      10.319  23.866  44.057  1.00  8.02 LIG-0.34  N 
ATOM      4 H    SER D   8      10.541  23.213  44.571  1.00  8.02 LIG 0.16  HD
ENDROOT
BRANCH 1 5
ATOM      5  CA  THR D   7      12.304  25.047  44.746  1.00 11.21 LIG 0.20  C 
BRANCH 5 6
ATOM      6  CB  THR D   7      13.570  25.146  43.874  1.00 12.81 LIG 0.15  C 
ATOM      7  CG2 THR D   7      14.104  26.568  43.838  1.00 13.23 LIG 0.04  C 
BRANCH 6 8
ATOM      8 OG1  THR D   7      14.581  24.280  44.405  1.00 15.88 LIG-0.39  OA
ATOM      9 HG1  THR D   7      15.212  24.214  43.854  1.00 15.88 LIG 0.21  HD
ENDBRANCH 6 8
ENDBRANCH 5 6
BRANCH 5 10
ATOM     10  N   THR D   7      12.400  23.916  45.655  1.00 13.33 LIG-0.34  N 
ATOM     11  C   PRO D   6      12.208  24.047  46.963  1.00 13.20 LIG 0.24  C 
ATOM     12 O    PRO D   6      11.866  25.104  47.492  1.00 14.28 LIG-0.27  OA
ATOM     13 H    THR D   7      12.589  23.170  45.272  1.00 13.33 LIG 0.16  HD
BRANCH 11 14
ATOM     14  CA  PRO D   6      12.408  22.789  47.805  1.00 20.50 LIG 0.18  C 
ATOM     15  CB  PRO D   6      11.391  22.780  48.947  1.00 26.18 LIG 0.04  C 
ATOM     16  CG  PRO D   6      12.136  23.319  50.119  1.00 30.25 LIG 0.02  C 
ATOM     17  CD  PRO D   6      13.524  22.789  49.970  1.00 26.41 LIG 0.13  C 
ATOM     18  N   PRO D   6      13.697  22.754  48.510  1.00 20.28 LIG-0.34  N 
ATOM     19  C   TYR D   5      14.883  22.763  47.888  1.00 26.16 LIG 0.26  C 
ATOM     20 O    TYR D   5      14.990  22.779  46.664  1.00 27.79 LIG-0.27  OA
BRANCH 19 21
ATOM     21  CA  TYR D   5      16.127  22.745  48.774  1.00 28.17 LIG 0.40  C 
ATOM     22  N   TYR D   5      16.513  21.373  49.078  1.00 34.40 LIG 0.61  N 
BRANCH 21 23
ATOM     23  CB  TYR D   5      17.281  23.484  48.093  1.00 23.65 LIG 0.09  C 
BRANCH 23 24
ATOM     24  CG  TYR D   5      17.694  22.891  46.764  1.00 24.31 LIG-0.06  A 
ATOM     25  CD2 TYR D   5      17.691  23.660  45.608  1.00 24.91 LIG 0.01  A 
ATOM     26  CE2 TYR D   5      18.064  23.125  44.390  1.00 24.35 LIG 0.04  A 
ATOM     27  CZ  TYR D   5      18.450  21.804  44.316  1.00 25.18 LIG 0.07  A 
ATOM     28  CE1 TYR D   5      18.463  21.014  45.449  1.00 25.68 LIG 0.04  A 
ATOM     29  CD1 TYR D   5      18.086  21.560  46.664  1.00 25.57 LIG 0.01  A 
BRANCH 27 30
ATOM     30 OH   TYR D   5      18.822  21.279  43.100  1.00 28.89 LIG-0.36  OA
ATOM     31 HH   TYR D   5      18.433  20.544  42.981  1.00 28.89 LIG 0.22  HD
ENDBRANCH 27 30
ENDBRANCH 23 24
ENDBRANCH 21 23
ENDBRANCH 19 21
ENDBRANCH 11 14
ENDBRANCH 5 10
ENDBRANCH 1 5
BRANCH 3 32
ATOM     32  CA  SER D   8       9.024  23.713  43.427  1.00  7.80 LIG 0.20  C 
BRANCH 32 33
ATOM     33  CB  SER D   8       8.952  22.407  42.644  1.00  7.43 LIG 0.20  C 
BRANCH 33 34
ATOM     34 OG   SER D   8       7.998  22.488  41.608  1.00  7.87 LIG-0.40  OA
ATOM     35 HG   SER D   8       7.258  22.725  41.926  1.00  7.87 LIG 0.21  HD
ENDBRANCH 33 34
ENDBRANCH 32 33
BRANCH 32 36
ATOM     36  C   SER D   8       7.964  23.717  44.505  1.00  7.75 LIG 0.24  C 
ATOM     37 O    SER D   8       6.817  24.091  44.263  1.00  8.57 LIG-0.27  OA
ATOM     38  N   ILE D   9       8.351  23.303  45.701  1.00  7.82 LIG-0.35  N 
ATOM     39 H    ILE D   9       9.124  22.966  45.870  1.00  7.82 LIG 0.16  HD
BRANCH 38 40
ATOM     40  CA  ILE D   9       7.466  23.392  46.847  1.00  8.70 LIG 0.18  C 
BRANCH 40 41
ATOM     41  C   ILE D   9       6.770  24.738  46.814  1.00  9.89 LIG 0.24  C 
ATOM     42  N   ILE D  10       5.445  24.701  46.795  1.00  9.26 LIG-0.34  N 
ATOM     43 H    ILE D  10       4.987  23.973  46.794  1.00  9.26 LIG 0.16  HD
ATOM     44 O    ILE D   9       7.420  25.784  46.764  1.00 11.43 LIG-0.27  OA
BRANCH 42 45
ATOM     45  CA  ILE D  10       4.638  25.910  46.774  1.00 10.77 LIG 0.19  C 
BRANCH 45 46
ATOM     46  CB  ILE D  10       3.237  25.644  46.180  1.00 11.26 LIG 0.01  C 
ATOM     47  CG2 ILE D  10       2.372  26.898  46.271  1.00 13.36 LIG 0.01  C 
BRANCH 46 48
ATOM     48  CG1 ILE D  10       3.348  25.167  44.728  1.00 10.59 LIG 0.00  C 
ATOM     49  CD1 ILE D  10       2.315  25.780  43.803  1.00 13.29 LIG 0.01  C 
ENDBRANCH 46 48
ENDBRANCH 45 46
BRANCH 45 50
ATOM     50  C   ILE D  10       4.492  26.482  48.177  1.00 10.61 LIG 0.20  C 
ATOM     51 O    ILE D  10       4.019  25.804  49.097  1.00 10.13 LIG-0.65  OA
ATOM     52 OXT  ILE D  10       4.837  27.644  48.388  1.00 13.38 LIG-0.65  OA
ENDBRANCH 45 50
ENDBRANCH 42 45
ENDBRANCH 40 41
BRANCH 40 53
ATOM     53  CB  ILE D   9       8.217  23.178  48.170  1.00  9.74 LIG 0.01  C 
ATOM     54  CG2 ILE D   9       7.458  23.823  49.324  1.00 14.85 LIG 0.01  C 
BRANCH 53 55
ATOM     55  CG1 ILE D   9       8.406  21.681  48.400  1.00  9.98 LIG 0.00  C 
ATOM     56  CD1 ILE D   9       8.380  21.270  49.854  1.00 13.31 LIG 0.01  C 
ENDBRANCH 53 55
ENDBRANCH 40 53
ENDBRANCH 38 40
ENDBRANCH 32 36
ENDBRANCH 3 32
TORSDOF 21
ENDMDL
MODEL 2
USER: ADFR SOLUTION from run 118
USER: SCORE 15.468194 LL:  -3.687 LR: -14.537 RR:   0.000 FEB:  -8.273
USER: RMSD 0.846202
USER: SEED 117
USER: STATUS no improvement in best in 3 clusters for 5 generations
USER: GENES 23
USER: genes 0 Translation |==|  0.54442 0.48870 0.62123
USER: genes 1 Rotation |==|  0.59207 0.44841 0.45813 0.98694
USER: genes 2 Torsion [N]-C--CA-[N] |==|  0.29876
USER: genes 3 Torsion [C]-CA--CB-[CG2] |==|  0.24267
USER: genes 4 Torsion [CA]-CB--OG1-[HG1] |==|  0.54951
USER: genes 5 Torsion [C]-CA--N-[C] |==|  0.67658
USER: genes 6 Torsion [N]-C--CA-[CB] |==|  0.72757
USER: genes 7 Torsion [N]-C--CA-[N] |==|  0.43842
USER: genes 8 Torsion [C]-CA--CB-[CG] |==|  0.47868
USER: genes 9 Torsion [CA]-CB--CG-[CD1] |==|  0.90995
USER: genes 10 Torsion [CE2]-CZ--OH-[HH] |==|  0.20016
USER: genes 11 Torsion [C]-N--CA-[CB] |==|  0.42778
USER: genes 12 Torsion [N]-CA--CB-[OG] |==|  0.70947
USER: genes 13 Torsion [CA]-CB--OG-[HG] |==|  0.34059
USER: genes 14 Torsion [N]-CA--C-[N] |==|  0.48297
USER: genes 15 Torsion [C]-N--CA-[CB] |==|  0.27845
USER: genes 16 Torsion [N]-CA--C-[N] |==|  0.38884
USER: genes 17 Torsion [C]-N--CA-[CB] |==|  0.30642
USER: genes 18 Torsion [N]-CA--CB-[CG2] |==|  0.79761
USER: genes 19 Torsion [CA]-CB--CG1-[CD1] |==|  0.44926
USER: genes 20 Torsion [N]-CA--C-[O] |==|  0.43306
USER: genes 21 Torsion [N]-CA--CB-[CG1] |==|  0.86163
USER: genes 22 Torsion [CA]-CB--CG1-[CD1] |==|  0.64753
ROOT
ATOM      1  C   THR D   7      17.048  25.244  44.884  1.00  9.65 LIG 0.24  C 
ATOM      2 O    THR D   7      17.123  25.653  46.053  1.00 10.36 LIG-0.27  OA
ATOM      3  N   SER D   8      16.008  25.474  44.089  1.00  8.02 LIG-0.34  N 
ATOM      4 H    SER D   8      16.003  25.302  43.246  1.00  8.02 LIG 0.16  HD
ENDROOT
BRANCH 1 5
ATOM      5  CA  THR D   7      18.178  24.442  44.261  1.00 11.21 LIG 0.20  C 
BRANCH 5 6
ATOM      6  CB  THR D   7      18.562  23.288  45.208  1.00 12.81 LIG 0.15  C 
ATOM      7  CG2 THR D   7      17.708  22.058  44.950  1.00 13.23 LIG 0.04  C 
BRANCH 6 8
ATOM      8 OG1  THR D   7      19.941  22.951  45.011  1.00 15.88 LIG-0.39  OA
ATOM      9 HG1  THR D   7      20.091  22.188  45.330  1.00 15.88 LIG 0.21  HD
ENDBRANCH 6 8
ENDBRANCH 5 6
BRANCH 5 10
ATOM     10  N   THR D   7      19.335  25.280  43.988  1.00 13.33 LIG-0.34  N 
ATOM     11  C   PRO D   6      19.775  25.489  42.752  1.00 13.20 LIG 0.24  C 
ATOM     12 O    PRO D   6      19.204  25.059  41.750  1.00 14.28 LIG-0.27  OA
ATOM     13 H    THR D   7      19.699  25.620  44.689  1.00 13.33 LIG 0.16  HD
BRANCH 11 14
ATOM     14  CA  PRO D   6      21.040  26.335  42.619  1.00 20.50 LIG 0.18  C 
ATOM     15  CB  PRO D   6      20.650  27.776  42.289  1.00 26.18 LIG 0.04  C 
ATOM     16  CG  PRO D   6      20.790  27.875  40.808  1.00 30.25 LIG 0.02  C 
ATOM     17  CD  PRO D   6      21.971  27.024  40.476  1.00 26.41 LIG 0.13  C 
ATOM     18  N   PRO D   6      21.883  25.951  41.479  1.00 20.28 LIG-0.34  N 
ATOM     19  C   TYR D   5      22.443  24.741  41.343  1.00 26.16 LIG 0.26  C 
ATOM     20 O    TYR D   5      22.310  23.853  42.182  1.00 27.79 LIG-0.27  OA
BRANCH 19 21
ATOM     21  CA  TYR D   5      23.274  24.503  40.085  1.00 28.17 LIG 0.40  C 
ATOM     22  N   TYR D   5      24.214  23.410  40.298  1.00 34.40 LIG 0.61  N 
BRANCH 21 23
ATOM     23  CB  TYR D   5      22.365  24.198  38.891  1.00 23.65 LIG 0.09  C 
BRANCH 23 24
ATOM     24  CG  TYR D   5      23.092  24.129  37.566  1.00 24.31 LIG-0.06  A 
ATOM     25  CD2 TYR D   5      22.664  23.270  36.562  1.00 24.91 LIG 0.01  A 
ATOM     26  CE2 TYR D   5      23.323  23.199  35.350  1.00 24.35 LIG 0.04  A 
ATOM     27  CZ  TYR D   5      24.427  23.995  35.127  1.00 25.18 LIG 0.07  A 
ATOM     28  CE1 TYR D   5      24.876  24.859  36.107  1.00 25.68 LIG 0.04  A 
ATOM     29  CD1 TYR D   5      24.208  24.921  37.318  1.00 25.57 LIG 0.01  A 
BRANCH 27 30
ATOM     30 OH   TYR D   5      25.077  23.920  33.917  1.00 28.89 LIG-0.36  OA
ATOM     31 HH   TYR D   5      24.604  24.278  33.322  1.00 28.89 LIG 0.22  HD
ENDBRANCH 27 30
ENDBRANCH 23 24
ENDBRANCH 21 23
ENDBRANCH 19 21
ENDBRANCH 11 14
ENDBRANCH 5 10
ENDBRANCH 1 5
BRANCH 3 32
ATOM     32  CA  SER D   8      14.772  26.044  44.585  1.00  7.80 LIG 0.20  C 
BRANCH 32 33
ATOM     33  CB  SER D   8      14.027  26.777  43.475  1.00  7.43 LIG 0.20  C 
BRANCH 33 34
ATOM     34 OG   SER D   8      14.153  28.175  43.616  1.00  7.87 LIG-0.40  OA
ATOM     35 HG   SER D   8      14.490  28.498  42.918  1.00  7.87 LIG 0.21  HD
ENDBRANCH 33 34
ENDBRANCH 32 33
BRANCH 32 36
ATOM     36  C   SER D   8      13.909  24.923  45.120  1.00  7.75 LIG 0.24  C 
ATOM     37 O    SER D   8      14.244  23.747  44.984  1.00  8.57 LIG-0.27  OA
ATOM     38  N   ILE D   9      12.792  25.290  45.727  1.00  7.82 LIG-0.35  N 
ATOM     39 H    ILE D   9      12.580  26.105  45.900  1.00  7.82 LIG 0.16  HD
BRANCH 38 40
ATOM     40  CA  ILE D   9      11.816  24.307  46.158  1.00  8.70 LIG 0.18  C 
BRANCH 40 41
ATOM     41  C   ILE D   9      10.434  24.808  45.792  1.00  9.89 LIG 0.24  C 
ATOM     42  N   ILE D  10       9.592  23.892  45.331  1.00  9.26 LIG-0.34  N 
ATOM     43 H    ILE D  10       9.796  23.063  45.232  1.00  9.26 LIG 0.16  HD
ATOM     44 O    ILE D   9      10.150  26.004  45.883  1.00 11.43 LIG-0.27  OA
BRANCH 42 45
ATOM     45  CA  ILE D  10       8.228  24.218  44.949  1.00 10.77 LIG 0.19  C 
BRANCH 45 46
ATOM     46  CB  ILE D  10       8.031  24.120  43.421  1.00 11.26 LIG 0.01  C 
ATOM     47  CG2 ILE D  10       8.717  25.289  42.718  1.00 13.36 LIG 0.01  C 
BRANCH 46 48
ATOM     48  CG1 ILE D  10       8.561  22.784  42.892  1.00 10.59 LIG 0.00  C 
ATOM     49  CD1 ILE D  10       8.030  22.415  41.521  1.00 13.29 LIG 0.01  C 
ENDBRANCH 46 48
ENDBRANCH 45 46
BRANCH 45 50
ATOM     50  C   ILE D  10       7.240  23.294  45.647  1.00 10.61 LIG 0.20  C 
ATOM     51 O    ILE D  10       6.066  23.636  45.832  1.00 10.13 LIG-0.65  OA
ATOM     52 OXT  ILE D  10       7.626  22.196  46.045  1.00 13.38 LIG-0.65  OA
ENDBRANCH 45 50
ENDBRANCH 42 45
ENDBRANCH 40 41
BRANCH 40 53
ATOM     53  CB  ILE D   9      11.928  24.008  47.661  1.00  9.74 LIG 0.01  C 
ATOM     54  CG2 ILE D   9      11.022  22.842  48.041  1.00 14.85 LIG 0.01  C 
BRANCH 53 55
ATOM     55  CG1 ILE D   9      13.385  23.711  48.004  1.00  9.98 LIG 0.00  C 
ATOM     56  CD1 ILE D   9      13.595  22.405  48.735  1.00 13.31 LIG 0.01  C 
ENDBRANCH 53 55
ENDBRANCH 40 53
ENDBRANCH 38 40
ENDBRANCH 32 36
ENDBRANCH 3 32
TORSDOF 21
ENDMDL
MODEL 3
USER: ADFR SOLUTION from run 80
USER: SCORE 16.158065 LL:  -4.815 LR: -14.537 RR:   0.000 FEB:  -8.273
USER: RMSD 8.498638
USER: SEED 79
USER: STATUS no improvement in best in 16 clusters for 5 generations
USER: GENES 23
USER: genes 0 Translation |==|  0.32115 0.47205 0.58342
USER: genes 1 Rotation |==|  0.11664 0.43878 0.57909 0.80501
USER: genes 2 Torsion [N]-C--CA-[N] |==|  0.04685
USER: genes 3 Torsion [C]-CA--CB-[CG2] |==|  0.29954
USER: genes 4 Torsion [CA]-CB--OG1-[HG1] |==|  0.53165
USER: genes 5 Torsion [C]-CA--N-[C] |==|  0.65000
USER: genes 6 Torsion [N]-C--CA-[CB] |==|  0.63165
USER: genes 7 Torsion [N]-C--CA-[N] |==|  0.33023
USER: genes 8 Torsion [C]-CA--CB-[CG] |==|  0.83002
USER: genes 9 Torsion [CA]-CB--CG-[CD1] |==|  0.85260
USER: genes 10 Torsion [CE2]-CZ--OH-[HH] |==|  0.75841
USER: genes 11 Torsion [C]-N--CA-[CB] |==|  0.43251
USER: genes 12 Torsion [N]-CA--CB-[OG] |==|  0.14039
USER: genes 13 Torsion [CA]-CB--OG-[HG] |==|  0.83881
USER: genes 14 Torsion [N]-CA--C-[N] |==|  0.61904
USER: genes 15 Torsion [C]-N--CA-[CB] |==|  0.42900
USER: genes 16 Torsion [N]-CA--C-[N] |==|  0.94150
USER: genes 17 Torsion [C]-N--CA-[CB] |==|  0.42871
USER: genes 18 Torsion [N]-CA--CB-[CG2] |==|  0.20365
USER: genes 19 Torsion [CA]-CB--CG1-[CD1] |==|  0.67684
USER: genes 20 Torsion [N]-CA--C-[O] |==|  0.91133
USER: genes 21 Torsion [N]-CA--CB-[CG1] |==|  0.81311
USER: genes 22 Torsion [CA]-CB--CG1-[CD1] |==|  0.53405
ROOT
ATOM      1  C   THR D   7      10.852  25.007  43.977  1.00  9.65 LIG 0.24  C 
ATOM      2 O    THR D   7      10.666  25.707  42.970  1.00 10.36 LIG-0.27  OA
ATOM      3  N   SER D   8       9.983  24.101  44.415  1.00  8.02 LIG-0.34  N 
ATOM      4 H    SER D   8      10.159  23.530  45.034  1.00  8.02 LIG 0.16  HD
ENDROOT
BRANCH 1 5
ATOM      5  CA  THR D   7      12.128  25.132  44.792  1.00 11.21 LIG 0.20  C 
BRANCH 5 6
ATOM      6  CB  THR D   7      13.325  25.298  43.836  1.00 12.81 LIG 0.15  C 
ATOM      7  CG2 THR D   7      13.866  26.718  43.872  1.00 13.23 LIG 0.04  C 
BRANCH 6 8
ATOM      8 OG1  THR D   7      14.367  24.390  44.216  1.00 15.88 LIG-0.39  OA
ATOM      9 HG1  THR D   7      15.072  24.583  43.802  1.00 15.88 LIG 0.21  HD
ENDBRANCH 6 8
ENDBRANCH 5 6
BRANCH 5 10
ATOM     10  N   THR D   7      12.323  23.976  45.654  1.00 13.33 LIG-0.34  N 
ATOM     11  C   PRO D   6      12.515  24.099  46.961  1.00 13.20 LIG 0.24  C 
ATOM     12 O    PRO D   6      12.470  25.177  47.552  1.00 14.28 LIG-0.27  OA
ATOM     13 H    THR D   7      12.303  23.221  45.242  1.00 13.33 LIG 0.16  HD
BRANCH 11 14
ATOM     14  CA  PRO D   6      12.774  22.805  47.732  1.00 20.50 LIG 0.18  C 
ATOM     15  CB  PRO D   6      11.892  22.777  48.980  1.00 26.18 LIG 0.04  C 
ATOM     16  CG  PRO D   6      12.778  23.254  50.079  1.00 30.25 LIG 0.02  C 
ATOM     17  CD  PRO D   6      14.125  22.699  49.756  1.00 26.41 LIG 0.13  C 
ATOM     18  N   PRO D   6      14.132  22.715  48.285  1.00 20.28 LIG-0.34  N 
ATOM     19  C   TYR D   5      15.242  22.720  47.534  1.00 26.16 LIG 0.26  C 
ATOM     20 O    TYR D   5      15.211  22.780  46.307  1.00 27.79 LIG-0.27  OA
BRANCH 19 21
ATOM     21  CA  TYR D   5      16.575  22.640  48.273  1.00 28.17 LIG 0.40  C 
ATOM     22  N   TYR D   5      17.302  21.439  47.879  1.00 34.40 LIG 0.61  N 
BRANCH 21 23
ATOM     23  CB  TYR D   5      17.418  23.887  47.995  1.00 23.65 LIG 0.09  C 
BRANCH 23 24
ATOM     24  CG  TYR D   5      17.771  24.080  46.536  1.00 24.31 LIG-0.06  A 
ATOM     25  CD2 TYR D   5      17.497  25.277  45.888  1.00 24.91 LIG 0.01  A 
ATOM     26  CE2 TYR D   5      17.813  25.460  44.556  1.00 24.35 LIG 0.04  A 
ATOM     27  CZ  TYR D   5      18.414  24.438  43.852  1.00 25.18 LIG 0.07  A 
ATOM     28  CE1 TYR D   5      18.698  23.236  44.470  1.00 25.68 LIG 0.04  A 
ATOM     29  CD1 TYR D   5      18.376  23.063  45.805  1.00 25.57 LIG 0.01  A 
BRANCH 27 30
ATOM     30 OH   TYR D   5      18.728  24.629  42.526  1.00 28.89 LIG-0.36  OA
ATOM     31 HH   TYR D   5      18.065  24.431  42.050  1.00 28.89 LIG 0.22  HD
ENDBRANCH 27 30
ENDBRANCH 23 24
ENDBRANCH 21 23
ENDBRANCH 19 21
ENDBRANCH 11 14
ENDBRANCH 5 10
ENDBRANCH 1 5
BRANCH 3 32
ATOM     32  CA  SER D   8       8.643  23.998  43.877  1.00  7.80 LIG 0.20  C 
BRANCH 32 33
ATOM     33  CB  SER D   8       8.082  22.595  44.078  1.00  7.43 LIG 0.20  C 
BRANCH 33 34
ATOM     34 OG   SER D   8       8.224  22.178  45.418  1.00  7.87 LIG-0.40  OA
ATOM     35 HG   SER D   8       9.035  22.200  45.634  1.00  7.87 LIG 0.21  HD
ENDBRANCH 33 34
ENDBRANCH 32 33
BRANCH 32 36
ATOM     36  C   SER D   8       7.763  25.001  44.587  1.00  7.75 LIG 0.24  C 
ATOM     37 O    SER D   8       8.163  26.143  44.816  1.00  8.57 LIG-0.27  OA
ATOM     38  N   ILE D   9       6.562  24.573  44.941  1.00  7.82 LIG-0.35  N 
ATOM     39 H    ILE D   9       6.237  23.807  44.722  1.00  7.82 LIG 0.16  HD
BRANCH 38 40
ATOM     40  CA  ILE D   9       5.681  25.395  45.749  1.00  8.70 LIG 0.18  C 
BRANCH 40 41
ATOM     41  C   ILE D   9       6.078  25.240  47.203  1.00  9.89 LIG 0.24  C 
ATOM     42  N   ILE D  10       6.768  24.146  47.499  1.00  9.26 LIG-0.34  N 
ATOM     43 H    ILE D  10       6.983  23.547  46.921  1.00  9.26 LIG 0.16  HD
ATOM     44 O    ILE D   9       5.730  26.069  48.045  1.00 11.43 LIG-0.27  OA
BRANCH 42 45
ATOM     45  CA  ILE D  10       7.229  23.864  48.849  1.00 10.77 LIG 0.19  C 
BRANCH 45 46
ATOM     46  CB  ILE D  10       7.415  22.348  49.076  1.00 11.26 LIG 0.01  C 
ATOM     47  CG2 ILE D  10       8.659  21.848  48.345  1.00 13.36 LIG 0.01  C 
BRANCH 46 48
ATOM     48  CG1 ILE D  10       7.503  22.033  50.573  1.00 10.59 LIG 0.00  C 
ATOM     49  CD1 ILE D  10       8.839  21.455  50.998  1.00 13.29 LIG 0.01  C 
ENDBRANCH 46 48
ENDBRANCH 45 46
BRANCH 45 50
ATOM     50  C   ILE D  10       8.541  24.583  49.129  1.00 10.61 LIG 0.20  C 
ATOM     51 O    ILE D  10       9.363  24.787  48.228  1.00 10.13 LIG-0.65  OA
ATOM     52 OXT  ILE D  10       8.789  24.950  50.277  1.00 13.38 LIG-0.65  OA
ENDBRANCH 45 50
ENDBRANCH 42 45
ENDBRANCH 40 41
BRANCH 40 53
ATOM     53  CB  ILE D   9       4.203  25.041  45.527  1.00  9.74 LIG 0.01  C 
ATOM     54  CG2 ILE D   9       3.327  25.744  46.557  1.00 14.85 LIG 0.01  C 
BRANCH 53 55
ATOM     55  CG1 ILE D   9       3.805  25.429  44.105  1.00  9.98 LIG 0.00  C 
ATOM     56  CD1 ILE D   9       2.315  25.406  43.852  1.00 13.31 LIG 0.01  C 
ENDBRANCH 53 55
ENDBRANCH 40 53
ENDBRANCH 38 40
ENDBRANCH 32 36
ENDBRANCH 3 32
TORSDOF 21
ENDMDL
MODEL 4
USER: ADFR SOLUTION from run 106
USER: SCORE 16.519738 LL:  -4.247 LR: -14.474 RR:   0.000 FEB:  -8.209
USER: RMSD 9.116139
USER: SEED 105
USER: STATUS no improvement in best in 13 clusters for 5 generations
USER: GENES 23
USER: genes 0 Translation |==|  0.30836 0.47257 0.58601
USER: genes 1 Rotation |==|  0.15956 0.40897 0.58763 0.84371
USER: genes 2 Torsion [N]-C--CA-[N] |==|  0.99382
USER: genes 3 Torsion [C]-CA--CB-[CG2] |==|  0.27992
USER: genes 4 Torsion [CA]-CB--OG1-[HG1] |==|  0.48291
USER: genes 5 Torsion [C]-CA--N-[C] |==|  0.75981
USER: genes 6 Torsion [N]-C--CA-[CB] |==|  0.54475
USER: genes 7 Torsion [N]-C--CA-[N] |==|  0.25665
USER: genes 8 Torsion [C]-CA--CB-[CG] |==|  0.79863
USER: genes 9 Torsion [CA]-CB--CG-[CD1] |==|  0.80184
USER: genes 10 Torsion [CE2]-CZ--OH-[HH] |==|  0.81671
USER: genes 11 Torsion [C]-N--CA-[CB] |==|  0.47594
USER: genes 12 Torsion [N]-CA--CB-[OG] |==|  0.14214
USER: genes 13 Torsion [CA]-CB--OG-[HG] |==|  0.84759
USER: genes 14 Torsion [N]-CA--C-[N] |==|  0.87214
USER: genes 15 Torsion [C]-N--CA-[CB] |==|  0.86492
USER: genes 16 Torsion [N]-CA--C-[N] |==|  0.47760
USER: genes 17 Torsion [C]-N--CA-[CB] |==|  0.45806
USER: genes 18 Torsion [N]-CA--CB-[CG2] |==|  0.80719
USER: genes 19 Torsion [CA]-CB--CG1-[CD1] |==|  0.73169
USER: genes 20 Torsion [N]-CA--C-[O] |==|  0.72670
USER: genes 21 Torsion [N]-CA--CB-[CG1] |==|  0.86761
USER: genes 22 Torsion [CA]-CB--CG1-[CD1] |==|  0.55445
ROOT
ATOM      1  C   THR D   7      10.497  25.014  44.039  1.00  9.65 LIG 0.24  C 
ATOM      2 O    THR D   7      10.224  25.908  43.224  1.00 10.36 LIG-0.27  OA
ATOM      3  N   SER D   8       9.737  23.942  44.240  1.00  8.02 LIG-0.34  N 
ATOM      4 H    SER D   8       9.981  23.264  44.709  1.00  8.02 LIG 0.16  HD
ENDROOT
BRANCH 1 5
ATOM      5  CA  THR D   7      11.763  25.080  44.878  1.00 11.21 LIG 0.20  C 
BRANCH 5 6
ATOM      6  CB  THR D   7      12.987  25.121  43.943  1.00 12.81 LIG 0.15  C 
ATOM      7  CG2 THR D   7      13.525  26.535  43.802  1.00 13.23 LIG 0.04  C 
BRANCH 6 8
ATOM      8 OG1  THR D   7      14.018  24.279  44.475  1.00 15.88 LIG-0.39  OA
ATOM      9 HG1  THR D   7      14.653  24.233  43.926  1.00 15.88 LIG 0.21  HD
ENDBRANCH 6 8
ENDBRANCH 5 6
BRANCH 5 10
ATOM     10  N   THR D   7      11.856  23.949  45.788  1.00 13.33 LIG-0.34  N 
ATOM     11  C   PRO D   6      11.290  23.965  46.989  1.00 13.20 LIG 0.24  C 
ATOM     12 O    PRO D   6      10.589  24.892  47.393  1.00 14.28 LIG-0.27  OA
ATOM     13 H    THR D   7      12.304  23.283  45.479  1.00 13.33 LIG 0.16  HD
BRANCH 11 14
ATOM     14  CA  PRO D   6      11.526  22.736  47.865  1.00 20.50 LIG 0.18  C 
ATOM     15  CB  PRO D   6      10.511  22.728  49.007  1.00 26.18 LIG 0.04  C 
ATOM     16  CG  PRO D   6      11.240  23.320  50.164  1.00 30.25 LIG 0.02  C 
ATOM     17  CD  PRO D   6      12.642  22.827  50.027  1.00 26.41 LIG 0.13  C 
ATOM     18  N   PRO D   6      12.815  22.758  48.568  1.00 20.28 LIG-0.34  N 
ATOM     19  C   TYR D   5      14.001  22.784  47.945  1.00 26.16 LIG 0.26  C 
ATOM     20 O    TYR D   5      14.106  22.771  46.721  1.00 27.79 LIG-0.27  OA
BRANCH 19 21
ATOM     21  CA  TYR D   5      15.245  22.825  48.830  1.00 28.17 LIG 0.40  C 
ATOM     22  N   TYR D   5      15.728  21.475  49.090  1.00 34.40 LIG 0.61  N 
BRANCH 21 23
ATOM     23  CB  TYR D   5      16.343  23.666  48.173  1.00 23.65 LIG 0.09  C 
BRANCH 23 24
ATOM     24  CG  TYR D   5      16.999  23.001  46.982  1.00 24.31 LIG-0.06  A 
ATOM     25  CD2 TYR D   5      16.764  23.457  45.692  1.00 24.91 LIG 0.01  A 
ATOM     26  CE2 TYR D   5      17.357  22.854  44.600  1.00 24.35 LIG 0.04  A 
ATOM     27  CZ  TYR D   5      18.199  21.779  44.789  1.00 25.18 LIG 0.07  A 
ATOM     28  CE1 TYR D   5      18.451  21.303  46.061  1.00 25.68 LIG 0.04  A 
ATOM     29  CD1 TYR D   5      17.851  21.914  47.148  1.00 25.57 LIG 0.01  A 
BRANCH 27 30
ATOM     30 OH   TYR D   5      18.787  21.185  43.696  1.00 28.89 LIG-0.36  OA
ATOM     31 HH   TYR D   5      18.196  20.822  43.222  1.00 28.89 LIG 0.22  HD
ENDBRANCH 27 30
ENDBRANCH 23 24
ENDBRANCH 21 23
ENDBRANCH 19 21
ENDBRANCH 11 14
ENDBRANCH 5 10
ENDBRANCH 1 5
BRANCH 3 32
ATOM     32  CA  SER D   8       8.409  23.826  43.674  1.00  7.80 LIG 0.20  C 
BRANCH 32 33
ATOM     33  CB  SER D   8       7.851  22.422  43.881  1.00  7.43 LIG 0.20  C 
BRANCH 33 34
ATOM     34 OG   SER D   8       7.953  22.028  45.232  1.00  7.87 LIG-0.40  OA
ATOM     35 HG   SER D   8       8.750  22.101  45.485  1.00  7.87 LIG 0.21  HD
ENDBRANCH 33 34
ENDBRANCH 32 33
BRANCH 32 36
ATOM     36  C   SER D   8       7.509  24.833  44.353  1.00  7.75 LIG 0.24  C 
ATOM     37 O    SER D   8       6.751  25.548  43.697  1.00  8.57 LIG-0.27  OA
ATOM     38  N   ILE D   9       7.596  24.893  45.673  1.00  7.82 LIG-0.35  N 
ATOM     39 H    ILE D   9       8.060  24.350  46.152  1.00  7.82 LIG 0.16  HD
BRANCH 38 40
ATOM     40  CA  ILE D   9       6.889  25.912  46.424  1.00  8.70 LIG 0.18  C 
BRANCH 40 41
ATOM     41  C   ILE D   9       5.419  25.548  46.464  1.00  9.89 LIG 0.24  C 
ATOM     42  N   ILE D  10       4.661  26.295  47.257  1.00  9.26 LIG-0.34  N 
ATOM     43 H    ILE D  10       4.963  26.945  47.732  1.00  9.26 LIG 0.16  HD
ATOM     44 O    ILE D   9       4.988  24.586  45.826  1.00 11.43 LIG-0.27  OA
BRANCH 42 45
ATOM     45  CA  ILE D  10       3.230  26.074  47.392  1.00 10.77 LIG 0.19  C 
BRANCH 45 46
ATOM     46  CB  ILE D  10       2.660  26.807  48.625  1.00 11.26 LIG 0.01  C 
ATOM     47  CG2 ILE D  10       3.159  26.155  49.912  1.00 13.36 LIG 0.01  C 
BRANCH 46 48
ATOM     48  CG1 ILE D  10       3.033  28.293  48.592  1.00 10.59 LIG 0.00  C 
ATOM     49  CD1 ILE D  10       4.261  28.633  49.413  1.00 13.29 LIG 0.01  C 
ENDBRANCH 46 48
ENDBRANCH 45 46
BRANCH 45 50
ATOM     50  C   ILE D  10       2.496  26.540  46.142  1.00 10.61 LIG 0.20  C 
ATOM     51 O    ILE D  10       1.945  27.647  46.100  1.00 10.13 LIG-0.65  OA
ATOM     52 OXT  ILE D  10       2.438  25.791  45.168  1.00 13.38 LIG-0.65  OA
ENDBRANCH 45 50
ENDBRANCH 42 45
ENDBRANCH 40 41
BRANCH 40 53
ATOM     53  CB  ILE D   9       7.106  27.314  45.834  1.00  9.74 LIG 0.01  C 
ATOM     54  CG2 ILE D   9       6.556  28.379  46.775  1.00 14.85 LIG 0.01  C 
BRANCH 53 55
ATOM     55  CG1 ILE D   9       8.596  27.521  45.575  1.00  9.98 LIG 0.00  C 
ATOM     56  CD1 ILE D   9       9.006  28.970  45.446  1.00 13.31 LIG 0.01  C 
ENDBRANCH 53 55
ENDBRANCH 40 53
ENDBRANCH 38 40
ENDBRANCH 32 36
ENDBRANCH 3 32
TORSDOF 21
ENDMDL
MODEL 5
USER: ADFR SOLUTION from run 91
USER: SCORE 16.127441 LL:  -3.949 LR: -14.242 RR:   0.000 FEB:  -7.978
USER: RMSD 5.342220
USER: SEED 90
USER: STATUS no improvement in best in 11 clusters for 5 generations
USER: GENES 23
USER: genes 0 Translation |==|  0.46553 0.40823 0.64101
USER: genes 1 Rotation |==|  0.10243 0.51562 0.71510 0.71312
USER: genes 2 Torsion [N]-C--CA-[N] |==|  0.25058
USER: genes 3 Torsion [C]-CA--CB-[CG2] |==|  0.28543
USER: genes 4 Torsion [CA]-CB--OG1-[HG1] |==|  0.16647
USER: genes 5 Torsion [C]-CA--N-[C] |==|  0.78889
USER: genes 6 Torsion [N]-C--CA-[CB] |==|  0.52035
USER: genes 7 Torsion [N]-C--CA-[N] |==|  0.27908
USER: genes 8 Torsion [C]-CA--CB-[CG] |==|  0.81031
USER: genes 9 Torsion [CA]-CB--CG-[CD1] |==|  0.33047
USER: genes 10 Torsion [CE2]-CZ--OH-[HH] |==|  0.93917
USER: genes 11 Torsion [C]-N--CA-[CB] |==|  0.56121
USER: genes 12 Torsion [N]-CA--CB-[OG] |==|  0.87560
USER: genes 13 Torsion [CA]-CB--OG-[HG] |==|  0.92750
USER: genes 14 Torsion [N]-CA--C-[N] |==|  0.31358
USER: genes 15 Torsion [C]-N--CA-[CB] |==|  0.41552
USER: genes 16 Torsion [N]-CA--C-[N] |==|  0.86589
USER: genes 17 Torsion [C]-N--CA-[CB] |==|  0.80121
USER: genes 18 Torsion [N]-CA--CB-[CG2] |==|  0.54268
USER: genes 19 Torsion [CA]-CB--CG1-[CD1] |==|  0.60388
USER: genes 20 Torsion [N]-CA--C-[O] |==|  0.65584
USER: genes 21 Torsion [N]-CA--CB-[CG1] |==|  0.52256
USER: genes 22 Torsion [CA]-CB--CG1-[CD1] |==|  0.70132
ROOT
ATOM      1  C   THR D   7      14.858  24.097  45.359  1.00  9.65 LIG 0.24  C 
ATOM      2 O    THR D   7      14.037  24.274  44.446  1.00 10.36 LIG-0.27  OA
ATOM      3  N   SER D   8      14.575  23.464  46.493  1.00  8.02 LIG-0.34  N 
ATOM      4 H    SER D   8      15.167  23.230  47.071  1.00  8.02 LIG 0.16  HD
ENDROOT
BRANCH 1 5
ATOM      5  CA  THR D   7      16.289  24.595  45.232  1.00 11.21 LIG 0.20  C 
BRANCH 5 6
ATOM      6  CB  THR D   7      16.300  25.896  44.406  1.00 12.81 LIG 0.15  C 
ATOM      7  CG2 THR D   7      16.462  27.114  45.300  1.00 13.23 LIG 0.04  C 
BRANCH 6 8
ATOM      8 OG1  THR D   7      17.386  25.854  43.471  1.00 15.88 LIG-0.39  OA
ATOM      9 HG1  THR D   7      17.288  25.196  42.958  1.00 15.88 LIG 0.21  HD
ENDBRANCH 6 8
ENDBRANCH 5 6
BRANCH 5 10
ATOM     10  N   THR D   7      17.146  23.594  44.617  1.00 13.33 LIG-0.34  N 
ATOM     11  C   PRO D   6      17.578  22.532  45.285  1.00 13.20 LIG 0.24  C 
ATOM     12 O    PRO D   6      17.233  22.272  46.437  1.00 14.28 LIG-0.27  OA
ATOM     13 H    THR D   7      17.342  23.755  43.795  1.00 13.33 LIG 0.16  HD
BRANCH 11 14
ATOM     14  CA  PRO D   6      18.527  21.599  44.534  1.00 20.50 LIG 0.18  C 
ATOM     15  CB  PRO D   6      18.776  20.348  45.376  1.00 26.18 LIG 0.04  C 
ATOM     16  CG  PRO D   6      20.068  20.612  46.070  1.00 30.25 LIG 0.02  C 
ATOM     17  CD  PRO D   6      20.889  21.369  45.079  1.00 26.41 LIG 0.13  C 
ATOM     18  N   PRO D   6      19.876  22.154  44.358  1.00 20.28 LIG-0.34  N 
ATOM     19  C   TYR D   5      20.133  23.281  43.681  1.00 26.16 LIG 0.26  C 
ATOM     20 O    TYR D   5      19.253  23.937  43.128  1.00 27.79 LIG-0.27  OA
BRANCH 19 21
ATOM     21  CA  TYR D   5      21.591  23.728  43.613  1.00 28.17 LIG 0.40  C 
ATOM     22  N   TYR D   5      22.176  23.359  42.330  1.00 34.40 LIG 0.61  N 
BRANCH 21 23
ATOM     23  CB  TYR D   5      21.700  25.239  43.833  1.00 23.65 LIG 0.09  C 
BRANCH 23 24
ATOM     24  CG  TYR D   5      21.118  26.068  42.708  1.00 24.31 LIG-0.06  A 
ATOM     25  CD2 TYR D   5      21.629  25.980  41.420  1.00 24.91 LIG 0.01  A 
ATOM     26  CE2 TYR D   5      21.105  26.735  40.389  1.00 24.35 LIG 0.04  A 
ATOM     27  CZ  TYR D   5      20.054  27.592  40.637  1.00 25.18 LIG 0.07  A 
ATOM     28  CE1 TYR D   5      19.526  27.701  41.909  1.00 25.68 LIG 0.04  A 
ATOM     29  CD1 TYR D   5      20.059  26.941  42.935  1.00 25.57 LIG 0.01  A 
BRANCH 27 30
ATOM     30 OH   TYR D   5      19.536  28.340  39.605  1.00 28.89 LIG-0.36  OA
ATOM     31 HH   TYR D   5      20.109  28.409  38.994  1.00 28.89 LIG 0.22  HD
ENDBRANCH 27 30
ENDBRANCH 23 24
ENDBRANCH 21 23
ENDBRANCH 19 21
ENDBRANCH 11 14
ENDBRANCH 5 10
ENDBRANCH 1 5
BRANCH 3 32
ATOM     32  CA  SER D   8      13.218  23.107  46.855  1.00  7.80 LIG 0.20  C 
BRANCH 32 33
ATOM     33  CB  SER D   8      13.094  22.905  48.361  1.00  7.43 LIG 0.20  C 
BRANCH 33 34
ATOM     34 OG   SER D   8      14.167  22.139  48.862  1.00  7.87 LIG-0.40  OA
ATOM     35 HG   SER D   8      14.469  21.647  48.252  1.00  7.87 LIG 0.21  HD
ENDBRANCH 33 34
ENDBRANCH 32 33
BRANCH 32 36
ATOM     36  C   SER D   8      12.297  24.223  46.416  1.00  7.75 LIG 0.24  C 
ATOM     37 O    SER D   8      12.347  25.331  46.948  1.00  8.57 LIG-0.27  OA
ATOM     38  N   ILE D   9      11.450  23.927  45.443  1.00  7.82 LIG-0.35  N 
ATOM     39 H    ILE D   9      11.453  23.185  45.008  1.00  7.82 LIG 0.16  HD
BRANCH 38 40
ATOM     40  CA  ILE D   9      10.424  24.866  45.032  1.00  8.70 LIG 0.18  C 
BRANCH 40 41
ATOM     41  C   ILE D   9       9.205  24.662  45.907  1.00  9.89 LIG 0.24  C 
ATOM     42  N   ILE D  10       8.803  23.407  46.053  1.00  9.26 LIG-0.34  N 
ATOM     43 H    ILE D  10       9.189  22.736  45.679  1.00  9.26 LIG 0.16  HD
ATOM     44 O    ILE D   9       8.616  25.624  46.405  1.00 11.43 LIG-0.27  OA
BRANCH 42 45
ATOM     45  CA  ILE D  10       7.655  23.052  46.872  1.00 10.77 LIG 0.19  C 
BRANCH 45 46
ATOM     46  CB  ILE D  10       7.962  23.217  48.376  1.00 11.26 LIG 0.01  C 
ATOM     47  CG2 ILE D  10       6.913  22.496  49.217  1.00 13.36 LIG 0.01  C 
BRANCH 46 48
ATOM     48  CG1 ILE D  10       9.366  22.698  48.701  1.00 10.59 LIG 0.00  C 
ATOM     49  CD1 ILE D  10       9.462  21.991  50.039  1.00 13.29 LIG 0.01  C 
ENDBRANCH 46 48
ENDBRANCH 45 46
BRANCH 45 50
ATOM     50  C   ILE D  10       6.450  23.905  46.505  1.00 10.61 LIG 0.20  C 
ATOM     51 O    ILE D  10       5.863  24.583  47.357  1.00 10.13 LIG-0.65  OA
ATOM     52 OXT  ILE D  10       6.048  23.905  45.342  1.00 13.38 LIG-0.65  OA
ENDBRANCH 45 50
ENDBRANCH 42 45
ENDBRANCH 40 41
BRANCH 40 53
ATOM     53  CB  ILE D   9      10.079  24.722  43.542  1.00  9.74 LIG 0.01  C 
ATOM     54  CG2 ILE D   9       9.438  23.365  43.273  1.00 14.85 LIG 0.01  C 
BRANCH 53 55
ATOM     55  CG1 ILE D   9       9.151  25.862  43.131  1.00  9.98 LIG 0.00  C 
ATOM     56  CD1 ILE D   9       7.720  25.439  42.891  1.00 13.31 LIG 0.01  C 
ENDBRANCH 53 55
ENDBRANCH 40 53
ENDBRANCH 38 40
ENDBRANCH 32 36
ENDBRANCH 3 32
TORSDOF 21
ENDMDL
MODEL 6
USER: ADFR SOLUTION from run 80
USER: SCORE 16.468918 LL:  -4.487 LR: -14.103 RR:   0.000 FEB:  -7.839
USER: RMSD 9.087253
USER: SEED 79
USER: STATUS no improvement in best in 16 clusters for 5 generations
USER: GENES 23
USER: genes 0 Translation |==|  0.31090 0.46732 0.60261
USER: genes 1 Rotation |==|  0.13704 0.46059 0.58659 0.83047
USER: genes 2 Torsion [N]-C--CA-[N] |==|  0.01111
USER: genes 3 Torsion [C]-CA--CB-[CG2] |==|  0.24896
USER: genes 4 Torsion [CA]-CB--OG1-[HG1] |==|  0.50088
USER: genes 5 Torsion [C]-CA--N-[C] |==|  0.74956
USER: genes 6 Torsion [N]-C--CA-[CB] |==|  0.56906
USER: genes 7 Torsion [N]-C--CA-[N] |==|  0.26445
USER: genes 8 Torsion [C]-CA--CB-[CG] |==|  0.81682
USER: genes 9 Torsion [CA]-CB--CG-[CD1] |==|  0.32165
USER: genes 10 Torsion [CE2]-CZ--OH-[HH] |==|  0.27407
USER: genes 11 Torsion [C]-N--CA-[CB] |==|  0.32719
USER: genes 12 Torsion [N]-CA--CB-[OG] |==|  0.19370
USER: genes 13 Torsion [CA]-CB--OG-[HG] |==|  0.83176
USER: genes 14 Torsion [N]-CA--C-[N] |==|  0.05526
USER: genes 15 Torsion [C]-N--CA-[CB] |==|  0.87110
USER: genes 16 Torsion [N]-CA--C-[N] |==|  0.40968
USER: genes 17 Torsion [C]-N--CA-[CB] |==|  0.33774
USER: genes 18 Torsion [N]-CA--CB-[CG2] |==|  0.38387
USER: genes 19 Torsion [CA]-CB--CG1-[CD1] |==|  0.51092
USER: genes 20 Torsion [N]-CA--C-[O] |==|  0.40018
USER: genes 21 Torsion [N]-CA--CB-[CG1] |==|  0.85066
USER: genes 22 Torsion [CA]-CB--CG1-[CD1] |==|  0.57211
ROOT
ATOM      1  C   THR D   7      10.568  24.939  44.438  1.00  9.65 LIG 0.24  C 
ATOM      2 O    THR D   7      10.326  25.757  43.536  1.00 10.36 LIG-0.27  OA
ATOM      3  N   SER D   8       9.693  24.033  44.864  1.00  8.02 LIG-0.34  N 
ATOM      4 H    SER D   8       9.894  23.389  45.397  1.00  8.02 LIG 0.16  HD
ENDROOT
BRANCH 1 5
ATOM      5  CA  THR D   7      11.923  24.909  45.124  1.00 11.21 LIG 0.20  C 
BRANCH 5 6
ATOM      6  CB  THR D   7      13.028  24.798  44.056  1.00 12.81 LIG 0.15  C 
ATOM      7  CG2 THR D   7      13.486  26.170  43.593  1.00 13.23 LIG 0.04  C 
BRANCH 6 8
ATOM      8 OG1  THR D   7      14.148  24.090  44.603  1.00 15.88 LIG-0.39  OA
ATOM      9 HG1  THR D   7      14.754  24.032  44.024  1.00 15.88 LIG 0.21  HD
ENDBRANCH 6 8
ENDBRANCH 5 6
BRANCH 5 10
ATOM     10  N   THR D   7      12.016  23.806  46.068  1.00 13.33 LIG-0.34  N 
ATOM     11  C   PRO D   6      11.665  23.939  47.341  1.00 13.20 LIG 0.24  C 
ATOM     12 O    PRO D   6      11.170  24.968  47.801  1.00 14.28 LIG-0.27  OA
ATOM     13 H    THR D   7      12.314  23.074  45.727  1.00 13.33 LIG 0.16  HD
BRANCH 11 14
ATOM     14  CA  PRO D   6      11.879  22.718  48.233  1.00 20.50 LIG 0.18  C 
ATOM     15  CB  PRO D   6      10.914  22.784  49.417  1.00 26.18 LIG 0.04  C 
ATOM     16  CG  PRO D   6      11.720  23.362  50.529  1.00 30.25 LIG 0.02  C 
ATOM     17  CD  PRO D   6      13.089  22.797  50.345  1.00 26.41 LIG 0.13  C 
ATOM     18  N   PRO D   6      13.196  22.690  48.882  1.00 20.28 LIG-0.34  N 
ATOM     19  C   TYR D   5      14.354  22.645  48.209  1.00 26.16 LIG 0.26  C 
ATOM     20 O    TYR D   5      14.406  22.602  46.982  1.00 27.79 LIG-0.27  OA
BRANCH 19 21
ATOM     21  CA  TYR D   5      15.635  22.643  49.040  1.00 28.17 LIG 0.40  C 
ATOM     22  N   TYR D   5      16.099  21.278  49.253  1.00 34.40 LIG 0.61  N 
BRANCH 21 23
ATOM     23  CB  TYR D   5      16.722  23.473  48.352  1.00 23.65 LIG 0.09  C 
BRANCH 23 24
ATOM     24  CG  TYR D   5      17.201  22.893  47.038  1.00 24.31 LIG-0.06  A 
ATOM     25  CD2 TYR D   5      17.853  21.668  46.996  1.00 24.91 LIG 0.01  A 
ATOM     26  CE2 TYR D   5      18.295  21.134  45.802  1.00 24.35 LIG 0.04  A 
ATOM     27  CZ  TYR D   5      18.086  21.824  44.627  1.00 25.18 LIG 0.07  A 
ATOM     28  CE1 TYR D   5      17.440  23.045  44.638  1.00 25.68 LIG 0.04  A 
ATOM     29  CD1 TYR D   5      17.002  23.572  45.841  1.00 25.57 LIG 0.01  A 
BRANCH 27 30
ATOM     30 OH   TYR D   5      18.528  21.283  43.441  1.00 28.89 LIG-0.36  OA
ATOM     31 HH   TYR D   5      17.888  20.905  43.050  1.00 28.89 LIG 0.22  HD
ENDBRANCH 27 30
ENDBRANCH 23 24
ENDBRANCH 21 23
ENDBRANCH 19 21
ENDBRANCH 11 14
ENDBRANCH 5 10
ENDBRANCH 1 5
BRANCH 3 32
ATOM     32  CA  SER D   8       8.303  24.058  44.461  1.00  7.80 LIG 0.20  C 
BRANCH 32 33
ATOM     33  CB  SER D   8       7.939  22.795  43.687  1.00  7.43 LIG 0.20  C 
BRANCH 33 34
ATOM     34 OG   SER D   8       7.928  21.666  44.533  1.00  7.87 LIG-0.40  OA
ATOM     35 HG   SER D   8       8.691  21.559  44.867  1.00  7.87 LIG 0.21  HD
ENDBRANCH 33 34
ENDBRANCH 32 33
BRANCH 32 36
ATOM     36  C   SER D   8       7.445  24.156  45.702  1.00  7.75 LIG 0.24  C 
ATOM     37 O    SER D   8       6.257  23.838  45.677  1.00  8.57 LIG-0.27  OA
ATOM     38  N   ILE D   9       8.050  24.602  46.791  1.00  7.82 LIG-0.35  N 
ATOM     39 H    ILE D   9       8.894  24.755  46.848  1.00  7.82 LIG 0.16  HD
BRANCH 38 40
ATOM     40  CA  ILE D   9       7.303  24.873  48.005  1.00  8.70 LIG 0.18  C 
BRANCH 40 41
ATOM     41  C   ILE D   9       6.995  23.554  48.685  1.00  9.89 LIG 0.24  C 
ATOM     42  N   ILE D  10       6.949  23.585  50.010  1.00  9.26 LIG-0.34  N 
ATOM     43 H    ILE D  10       7.088  24.294  50.476  1.00  9.26 LIG 0.16  HD
ATOM     44 O    ILE D   9       6.845  22.523  48.026  1.00 11.43 LIG-0.27  OA
BRANCH 42 45
ATOM     45  CA  ILE D  10       6.654  22.402  50.802  1.00 10.77 LIG 0.19  C 
BRANCH 45 46
ATOM     46  CB  ILE D  10       7.798  22.083  51.787  1.00 11.26 LIG 0.01  C 
ATOM     47  CG2 ILE D  10       7.235  21.673  53.146  1.00 13.36 LIG 0.01  C 
BRANCH 46 48
ATOM     48  CG1 ILE D  10       8.705  20.984  51.224  1.00 10.59 LIG 0.00  C 
ATOM     49  CD1 ILE D  10       9.801  20.547  52.178  1.00 13.29 LIG 0.01  C 
ENDBRANCH 46 48
ENDBRANCH 45 46
BRANCH 45 50
ATOM     50  C   ILE D  10       5.356  22.585  51.575  1.00 10.61 LIG 0.20  C 
ATOM     51 O    ILE D  10       4.582  21.637  51.758  1.00 10.13 LIG-0.65  OA
ATOM     52 OXT  ILE D  10       5.070  23.700  52.010  1.00 13.38 LIG-0.65  OA
ENDBRANCH 45 50
ENDBRANCH 42 45
ENDBRANCH 40 41
BRANCH 40 53
ATOM     53  CB  ILE D   9       6.023  25.675  47.724  1.00  9.74 LIG 0.01  C 
ATOM     54  CG2 ILE D   9       5.312  26.018  49.028  1.00 14.85 LIG 0.01  C 
BRANCH 53 55
ATOM     55  CG1 ILE D   9       6.386  26.935  46.943  1.00  9.98 LIG 0.00  C 
ATOM     56  CD1 ILE D   9       5.411  28.077  47.125  1.00 13.31 LIG 0.01  C 
ENDBRANCH 53 55
ENDBRANCH 40 53
ENDBRANCH 38 40
ENDBRANCH 32 36
ENDBRANCH 3 32
TORSDOF 21
ENDMDL
MODEL 7
USER: ADFR SOLUTION from run 57
USER: SCORE 16.015592 LL:  -4.590 LR: -13.927 RR:   0.000 FEB:  -7.662
USER: RMSD 7.337536
USER: SEED 56
USER: STATUS no improvement in best in 14 clusters for 5 generations
USER: GENES 23
USER: genes 0 Translation |==|  0.32925 0.46484 0.57485
USER: genes 1 Rotation |==|  0.11881 0.41371 0.59264 0.79777
USER: genes 2 Torsion [N]-C--CA-[N] |==|  0.06100
USER: genes 3 Torsion [C]-CA--CB-[CG2] |==|  0.32557
USER: genes 4 Torsion [CA]-CB--OG1-[HG1] |==|  0.41824
USER: genes 5 Torsion [C]-CA--N-[C] |==|  0.64677
USER: genes 6 Torsion [N]-C--CA-[CB] |==|  0.58939
USER: genes 7 Torsion [N]-C--CA-[N] |==|  0.36845
USER: genes 8 Torsion [C]-CA--CB-[CG] |==|  0.77820
USER: genes 9 Torsion [CA]-CB--CG-[CD1] |==|  0.31016
USER: genes 10 Torsion [CE2]-CZ--OH-[HH] |==|  0.60875
USER: genes 11 Torsion [C]-N--CA-[CB] |==|  0.28035
USER: genes 12 Torsion [N]-CA--CB-[OG] |==|  0.62775
USER: genes 13 Torsion [CA]-CB--OG-[HG] |==|  0.12103
USER: genes 14 Torsion [N]-CA--C-[N] |==|  0.96228
USER: genes 15 Torsion [C]-N--CA-[CB] |==|  0.48333
USER: genes 16 Torsion [N]-CA--C-[N] |==|  0.22895
USER: genes 17 Torsion [C]-N--CA-[CB] |==|  0.22842
USER: genes 18 Torsion [N]-CA--CB-[CG2] |==|  0.73784
USER: genes 19 Torsion [CA]-CB--CG1-[CD1] |==|  0.67019
USER: genes 20 Torsion [N]-CA--C-[O] |==|  0.42477
USER: genes 21 Torsion [N]-CA--CB-[CG1] |==|  0.51009
USER: genes 22 Torsion [CA]-CB--CG1-[CD1] |==|  0.45404
ROOT
ATOM      1  C   THR D   7      11.077  24.904  43.771  1.00  9.65 LIG 0.24  C 
ATOM      2 O    THR D   7      10.833  25.571  42.754  1.00 10.36 LIG-0.27  OA
ATOM      3  N   SER D   8      10.309  23.907  44.199  1.00  8.02 LIG-0.34  N 
ATOM      4 H    SER D   8      10.536  23.364  44.827  1.00  8.02 LIG 0.16  HD
ENDROOT
BRANCH 1 5
ATOM      5  CA  THR D   7      12.312  25.181  44.612  1.00 11.21 LIG 0.20  C 
BRANCH 5 6
ATOM      6  CB  THR D   7      13.470  25.603  43.687  1.00 12.81 LIG 0.15  C 
ATOM      7  CG2 THR D   7      13.923  27.022  43.986  1.00 13.23 LIG 0.04  C 
BRANCH 6 8
ATOM      8 OG1  THR D   7      14.575  24.709  43.872  1.00 15.88 LIG-0.39  OA
ATOM      9 HG1  THR D   7      15.014  24.655  43.157  1.00 15.88 LIG 0.21  HD
ENDBRANCH 6 8
ENDBRANCH 5 6
BRANCH 5 10
ATOM     10  N   THR D   7      12.689  24.017  45.400  1.00 13.33 LIG-0.34  N 
ATOM     11  C   PRO D   6      12.875  24.088  46.713  1.00 13.20 LIG 0.24  C 
ATOM     12 O    PRO D   6      12.673  25.108  47.370  1.00 14.28 LIG-0.27  OA
ATOM     13 H    THR D   7      12.779  23.295  44.942  1.00 13.33 LIG 0.16  HD
BRANCH 11 14
ATOM     14  CA  PRO D   6      13.335  22.804  47.400  1.00 20.50 LIG 0.18  C 
ATOM     15  CB  PRO D   6      12.763  22.758  48.817  1.00 26.18 LIG 0.04  C 
ATOM     16  CG  PRO D   6      13.864  23.261  49.685  1.00 30.25 LIG 0.02  C 
ATOM     17  CD  PRO D   6      15.115  22.738  49.062  1.00 26.41 LIG 0.13  C 
ATOM     18  N   PRO D   6      14.785  22.749  47.628  1.00 20.28 LIG-0.34  N 
ATOM     19  C   TYR D   5      15.693  22.779  46.643  1.00 26.16 LIG 0.26  C 
ATOM     20 O    TYR D   5      15.381  22.834  45.456  1.00 27.79 LIG-0.27  OA
BRANCH 19 21
ATOM     21  CA  TYR D   5      17.162  22.735  47.057  1.00 28.17 LIG 0.40  C 
ATOM     22  N   TYR D   5      17.885  21.753  46.259  1.00 34.40 LIG 0.61  N 
BRANCH 21 23
ATOM     23  CB  TYR D   5      17.803  24.117  46.909  1.00 23.65 LIG 0.09  C 
BRANCH 23 24
ATOM     24  CG  TYR D   5      18.201  24.462  45.490  1.00 24.31 LIG-0.06  A 
ATOM     25  CD2 TYR D   5      19.239  23.791  44.857  1.00 24.91 LIG 0.01  A 
ATOM     26  CE2 TYR D   5      19.609  24.102  43.563  1.00 24.35 LIG 0.04  A 
ATOM     27  CZ  TYR D   5      18.937  25.095  42.882  1.00 25.18 LIG 0.07  A 
ATOM     28  CE1 TYR D   5      17.901  25.780  43.486  1.00 25.68 LIG 0.04  A 
ATOM     29  CD1 TYR D   5      17.539  25.461  44.783  1.00 25.57 LIG 0.01  A 
BRANCH 27 30
ATOM     30 OH   TYR D   5      19.311  25.398  41.593  1.00 28.89 LIG-0.36  OA
ATOM     31 HH   TYR D   5      19.275  26.229  41.478  1.00 28.89 LIG 0.22  HD
ENDBRANCH 27 30
ENDBRANCH 23 24
ENDBRANCH 21 23
ENDBRANCH 19 21
ENDBRANCH 11 14
ENDBRANCH 5 10
ENDBRANCH 1 5
BRANCH 3 32
ATOM     32  CA  SER D   8       9.001  23.646  43.633  1.00  7.80 LIG 0.20  C 
BRANCH 32 33
ATOM     33  CB  SER D   8       9.059  22.488  42.643  1.00  7.43 LIG 0.20  C 
BRANCH 33 34
ATOM     34 OG   SER D   8       8.364  22.800  41.456  1.00  7.87 LIG-0.40  OA
ATOM     35 HG   SER D   8       8.552  23.583  41.218  1.00  7.87 LIG 0.21  HD
ENDBRANCH 33 34
ENDBRANCH 32 33
BRANCH 32 36
ATOM     36  C   SER D   8       8.052  23.304  44.759  1.00  7.75 LIG 0.24  C 
ATOM     37 O    SER D   8       6.835  23.287  44.576  1.00  8.57 LIG-0.27  OA
ATOM     38  N   ILE D   9       8.610  23.035  45.928  1.00  7.82 LIG-0.35  N 
ATOM     39 H    ILE D   9       9.458  22.966  46.055  1.00  7.82 LIG 0.16  HD
BRANCH 38 40
ATOM     40  CA  ILE D   9       7.802  22.830  47.114  1.00  8.70 LIG 0.18  C 
BRANCH 40 41
ATOM     41  C   ILE D   9       7.046  24.110  47.409  1.00  9.89 LIG 0.24  C 
ATOM     42  N   ILE D  10       5.927  24.291  46.719  1.00  9.26 LIG-0.34  N 
ATOM     43 H    ILE D  10       5.633  23.735  46.133  1.00  9.26 LIG 0.16  HD
ATOM     44 O    ILE D   9       7.488  24.935  48.210  1.00 11.43 LIG-0.27  OA
BRANCH 42 45
ATOM     45  CA  ILE D  10       5.089  25.464  46.899  1.00 10.77 LIG 0.19  C 
BRANCH 45 46
ATOM     46  CB  ILE D  10       5.620  26.668  46.091  1.00 11.26 LIG 0.01  C 
ATOM     47  CG2 ILE D  10       6.517  27.542  46.963  1.00 13.36 LIG 0.01  C 
BRANCH 46 48
ATOM     48  CG1 ILE D  10       6.375  26.191  44.846  1.00 10.59 LIG 0.00  C 
ATOM     49  CD1 ILE D  10       7.833  26.606  44.819  1.00 13.29 LIG 0.01  C 
ENDBRANCH 46 48
ENDBRANCH 45 46
BRANCH 45 50
ATOM     50  C   ILE D  10       3.655  25.168  46.482  1.00 10.61 LIG 0.20  C 
ATOM     51 O    ILE D  10       2.705  25.785  46.979  1.00 10.13 LIG-0.65  OA
ATOM     52 OXT  ILE D  10       3.444  24.289  45.648  1.00 13.38 LIG-0.65  OA
ENDBRANCH 45 50
ENDBRANCH 42 45
ENDBRANCH 40 41
BRANCH 40 53
ATOM     53  CB  ILE D   9       8.650  22.387  48.317  1.00  9.74 LIG 0.01  C 
ATOM     54  CG2 ILE D   9       9.682  23.454  48.663  1.00 14.85 LIG 0.01  C 
BRANCH 53 55
ATOM     55  CG1 ILE D   9       7.728  22.103  49.500  1.00  9.98 LIG 0.00  C 
ATOM     56  CD1 ILE D   9       8.371  21.296  50.604  1.00 13.31 LIG 0.01  C 
ENDBRANCH 53 55
ENDBRANCH 40 53
ENDBRANCH 38 40
ENDBRANCH 32 36
ENDBRANCH 3 32
TORSDOF 21
ENDMDL
MODEL 8
USER: ADFR SOLUTION from run 66
USER: SCORE 17.010822 LL:  -4.812 LR: -13.795 RR:   0.000 FEB:  -7.531
USER: RMSD 9.004256
USER: SEED 65
USER: STATUS no improvement in best in 12 clusters for 5 generations
USER: GENES 23
USER: genes 0 Translation |==|  0.31160 0.46681 0.59041
USER: genes 1 Rotation |==|  0.13242 0.44652 0.59881 0.81978
USER: genes 2 Torsion [N]-C--CA-[N] |==|  0.02512
USER: genes 3 Torsion [C]-CA--CB-[CG2] |==|  0.27311
USER: genes 4 Torsion [CA]-CB--OG1-[HG1] |==|  0.49299
USER: genes 5 Torsion [C]-CA--N-[C] |==|  0.72101
USER: genes 6 Torsion [N]-C--CA-[CB] |==|  0.57563
USER: genes 7 Torsion [N]-C--CA-[N] |==|  0.19765
USER: genes 8 Torsion [C]-CA--CB-[CG] |==|  0.13922
USER: genes 9 Torsion [CA]-CB--CG-[CD1] |==|  0.59254
USER: genes 10 Torsion [CE2]-CZ--OH-[HH] |==|  0.64606
USER: genes 11 Torsion [C]-N--CA-[CB] |==|  0.50101
USER: genes 12 Torsion [N]-CA--CB-[OG] |==|  0.07589
USER: genes 13 Torsion [CA]-CB--OG-[HG] |==|  0.85847
USER: genes 14 Torsion [N]-CA--C-[N] |==|  0.82583
USER: genes 15 Torsion [C]-N--CA-[CB] |==|  0.84220
USER: genes 16 Torsion [N]-CA--C-[N] |==|  0.45000
USER: genes 17 Torsion [C]-N--CA-[CB] |==|  0.23245
USER: genes 18 Torsion [N]-CA--CB-[CG2] |==|  0.78420
USER: genes 19 Torsion [CA]-CB--CG1-[CD1] |==|  0.37225
USER: genes 20 Torsion [N]-CA--C-[O] |==|  0.38170
USER: genes 21 Torsion [N]-CA--CB-[CG1] |==|  0.88644
USER: genes 22 Torsion [CA]-CB--CG1-[CD1] |==|  0.73146
ROOT
ATOM      1  C   THR D   7      10.587  24.932  44.145  1.00  9.65 LIG 0.24  C 
ATOM      2 O    THR D   7      10.290  25.694  43.212  1.00 10.36 LIG-0.27  OA
ATOM      3  N   SER D   8       9.783  23.976  44.600  1.00  8.02 LIG-0.34  N 
ATOM      4 H    SER D   8      10.029  23.369  45.157  1.00  8.02 LIG 0.16  HD
ENDROOT
BRANCH 1 5
ATOM      5  CA  THR D   7      11.934  25.035  44.841  1.00 11.21 LIG 0.20  C 
BRANCH 5 6
ATOM      6  CB  THR D   7      13.049  25.100  43.779  1.00 12.81 LIG 0.15  C 
ATOM      7  CG2 THR D   7      13.490  26.532  43.531  1.00 13.23 LIG 0.04  C 
BRANCH 6 8
ATOM      8 OG1  THR D   7      14.175  24.333  44.225  1.00 15.88 LIG-0.39  OA
ATOM      9 HG1  THR D   7      14.770  24.339  43.632  1.00 15.88 LIG 0.21  HD
ENDBRANCH 6 8
ENDBRANCH 5 6
BRANCH 5 10
ATOM     10  N   THR D   7      12.154  23.912  45.740  1.00 13.33 LIG-0.34  N 
ATOM     11  C   PRO D   6      11.972  24.016  47.051  1.00 13.20 LIG 0.24  C 
ATOM     12 O    PRO D   6      11.538  25.032  47.594  1.00 14.28 LIG-0.27  OA
ATOM     13 H    THR D   7      12.407  23.190  45.348  1.00 13.33 LIG 0.16  HD
BRANCH 11 14
ATOM     14  CA  PRO D   6      12.305  22.778  47.881  1.00 20.50 LIG 0.18  C 
ATOM     15  CB  PRO D   6      11.460  22.782  49.154  1.00 26.18 LIG 0.04  C 
ATOM     16  CG  PRO D   6      12.356  23.352  50.199  1.00 30.25 LIG 0.02  C 
ATOM     17  CD  PRO D   6      13.715  22.835  49.866  1.00 26.41 LIG 0.13  C 
ATOM     18  N   PRO D   6      13.681  22.772  48.397  1.00 20.28 LIG-0.34  N 
ATOM     19  C   TYR D   5      14.768  22.780  47.613  1.00 26.16 LIG 0.26  C 
ATOM     20 O    TYR D   5      14.700  22.772  46.386  1.00 27.79 LIG-0.27  OA
BRANCH 19 21
ATOM     21  CA  TYR D   5      16.124  22.793  48.315  1.00 28.17 LIG 0.40  C 
ATOM     22  N   TYR D   5      16.383  21.504  48.942  1.00 34.40 LIG 0.61  N 
BRANCH 21 23
ATOM     23  CB  TYR D   5      17.238  23.136  47.322  1.00 23.65 LIG 0.09  C 
BRANCH 23 24
ATOM     24  CG  TYR D   5      16.964  24.371  46.491  1.00 24.31 LIG-0.06  A 
ATOM     25  CD2 TYR D   5      16.250  25.440  47.017  1.00 24.91 LIG 0.01  A 
ATOM     26  CE2 TYR D   5      15.993  26.569  46.265  1.00 24.35 LIG 0.04  A 
ATOM     27  CZ  TYR D   5      16.454  26.643  44.967  1.00 25.18 LIG 0.07  A 
ATOM     28  CE1 TYR D   5      17.166  25.595  44.417  1.00 25.68 LIG 0.04  A 
ATOM     29  CD1 TYR D   5      17.417  24.468  45.180  1.00 25.57 LIG 0.01  A 
BRANCH 27 30
ATOM     30 OH   TYR D   5      16.196  27.772  44.225  1.00 28.89 LIG-0.36  OA
ATOM     31 HH   TYR D   5      15.842  27.553  43.495  1.00 28.89 LIG 0.22  HD
ENDBRANCH 27 30
ENDBRANCH 23 24
ENDBRANCH 21 23
ENDBRANCH 19 21
ENDBRANCH 11 14
ENDBRANCH 5 10
ENDBRANCH 1 5
BRANCH 3 32
ATOM     32  CA  SER D   8       8.399  23.875  44.186  1.00  7.80 LIG 0.20  C 
BRANCH 32 33
ATOM     33  CB  SER D   8       7.712  22.697  44.867  1.00  7.43 LIG 0.20  C 
BRANCH 33 34
ATOM     34 OG   SER D   8       8.315  22.405  46.108  1.00  7.87 LIG-0.40  OA
ATOM     35 HG   SER D   8       9.145  22.333  46.006  1.00  7.87 LIG 0.21  HD
ENDBRANCH 33 34
ENDBRANCH 32 33
BRANCH 32 36
ATOM     36  C   SER D   8       7.692  25.159  44.560  1.00  7.75 LIG 0.24  C 
ATOM     37 O    SER D   8       7.210  25.890  43.696  1.00  8.57 LIG-0.27  OA
ATOM     38  N   ILE D   9       7.635  25.433  45.854  1.00  7.82 LIG-0.35  N 
ATOM     39 H    ILE D   9       7.896  24.898  46.474  1.00  7.82 LIG 0.16  HD
BRANCH 38 40
ATOM     40  CA  ILE D   9       7.108  26.699  46.328  1.00  8.70 LIG 0.18  C 
BRANCH 40 41
ATOM     41  C   ILE D   9       5.629  26.756  46.006  1.00  9.89 LIG 0.24  C 
ATOM     42  N   ILE D  10       4.925  27.655  46.682  1.00  9.26 LIG-0.34  N 
ATOM     43 H    ILE D  10       5.264  28.178  47.274  1.00  9.26 LIG 0.16  HD
ATOM     44 O    ILE D   9       5.127  25.974  45.195  1.00 11.43 LIG-0.27  OA
BRANCH 42 45
ATOM     45  CA  ILE D  10       3.498  27.835  46.475  1.00 10.77 LIG 0.19  C 
BRANCH 45 46
ATOM     46  CB  ILE D  10       2.675  26.819  47.297  1.00 11.26 LIG 0.01  C 
ATOM     47  CG2 ILE D  10       2.690  25.450  46.622  1.00 13.36 LIG 0.01  C 
BRANCH 46 48
ATOM     48  CG1 ILE D  10       3.211  26.723  48.729  1.00 10.59 LIG 0.00  C 
ATOM     49  CD1 ILE D  10       2.128  26.759  49.790  1.00 13.29 LIG 0.01  C 
ENDBRANCH 46 48
ENDBRANCH 45 46
BRANCH 45 50
ATOM     50  C   ILE D  10       3.076  29.249  46.850  1.00 10.61 LIG 0.20  C 
ATOM     51 O    ILE D  10       2.287  29.888  46.144  1.00 10.13 LIG-0.65  OA
ATOM     52 OXT  ILE D  10       3.544  29.764  47.865  1.00 13.38 LIG-0.65  OA
ENDBRANCH 45 50
ENDBRANCH 42 45
ENDBRANCH 40 41
BRANCH 40 53
ATOM     53  CB  ILE D   9       7.862  27.895  45.726  1.00  9.74 LIG 0.01  C 
ATOM     54  CG2 ILE D   9       7.579  29.161  46.527  1.00 14.85 LIG 0.01  C 
BRANCH 53 55
ATOM     55  CG1 ILE D   9       9.356  27.580  45.698  1.00  9.98 LIG 0.00  C 
ATOM     56  CD1 ILE D   9      10.127  28.139  46.873  1.00 13.31 LIG 0.01  C 
ENDBRANCH 53 55
ENDBRANCH 40 53
ENDBRANCH 38 40
ENDBRANCH 32 36
ENDBRANCH 3 32
TORSDOF 21
ENDMDL
MODEL 9
USER: ADFR SOLUTION from run 106
USER: SCORE 15.316793 LL:  -4.558 LR: -13.782 RR:   0.000 FEB:  -7.517
USER: RMSD 8.487875
USER: SEED 105
USER: STATUS no improvement in best in 13 clusters for 5 generations
USER: GENES 23
USER: genes 0 Translation |==|  0.31874 0.45833 0.57563
USER: genes 1 Rotation |==|  0.11136 0.41248 0.57548 0.79258
USER: genes 2 Torsion [N]-C--CA-[N] |==|  0.05362
USER: genes 3 Torsion [C]-CA--CB-[CG2] |==|  0.31386
USER: genes 4 Torsion [CA]-CB--OG1-[HG1] |==|  0.50409
USER: genes 5 Torsion [C]-CA--N-[C] |==|  0.59837
USER: genes 6 Torsion [N]-C--CA-[CB] |==|  0.66383
USER: genes 7 Torsion [N]-C--CA-[N] |==|  0.33092
USER: genes 8 Torsion [C]-CA--CB-[CG] |==|  0.83172
USER: genes 9 Torsion [CA]-CB--CG-[CD1] |==|  0.80438
USER: genes 10 Torsion [CE2]-CZ--OH-[HH] |==|  0.84093
USER: genes 11 Torsion [C]-N--CA-[CB] |==|  0.48765
USER: genes 12 Torsion [N]-CA--CB-[OG] |==|  0.11313
USER: genes 13 Torsion [CA]-CB--OG-[HG] |==|  0.77829
USER: genes 14 Torsion [N]-CA--C-[N] |==|  0.86299
USER: genes 15 Torsion [C]-N--CA-[CB] |==|  0.29383
USER: genes 16 Torsion [N]-CA--C-[N] |==|  0.40189
USER: genes 17 Torsion [C]-N--CA-[CB] |==|  0.33303
USER: genes 18 Torsion [N]-CA--CB-[CG2] |==|  0.74334
USER: genes 19 Torsion [CA]-CB--CG1-[CD1] |==|  0.26885
USER: genes 20 Torsion [N]-CA--C-[O] |==|  0.99710
USER: genes 21 Torsion [N]-CA--CB-[CG1] |==|  0.81606
USER: genes 22 Torsion [CA]-CB--CG1-[CD1] |==|  0.56203
ROOT
ATOM      1  C   THR D   7      10.785  24.811  43.790  1.00  9.65 LIG 0.24  C 
ATOM      2 O    THR D   7      10.633  25.465  42.747  1.00 10.36 LIG-0.27  OA
ATOM      3  N   SER D   8       9.953  23.853  44.187  1.00  8.02 LIG-0.34  N 
ATOM      4 H    SER D   8      10.118  23.317  44.838  1.00  8.02 LIG 0.16  HD
ENDROOT
BRANCH 1 5
ATOM      5  CA  THR D   7      11.974  25.060  44.704  1.00 11.21 LIG 0.20  C 
BRANCH 5 6
ATOM      6  CB  THR D   7      13.219  25.352  43.845  1.00 12.81 LIG 0.15  C 
ATOM      7  CG2 THR D   7      13.684  26.788  44.020  1.00 13.23 LIG 0.04  C 
BRANCH 6 8
ATOM      8 OG1  THR D   7      14.279  24.467  44.229  1.00 15.88 LIG-0.39  OA
ATOM      9 HG1  THR D   7      14.966  24.638  43.776  1.00 15.88 LIG 0.21  HD
ENDBRANCH 6 8
ENDBRANCH 5 6
BRANCH 5 10
ATOM     10  N   THR D   7      12.216  23.924  45.580  1.00 13.33 LIG-0.34  N 
ATOM     11  C   PRO D   6      12.646  24.078  46.827  1.00 13.20 LIG 0.24  C 
ATOM     12 O    PRO D   6      12.801  25.178  47.357  1.00 14.28 LIG-0.27  OA
ATOM     13 H    THR D   7      12.056  23.160  45.220  1.00 13.33 LIG 0.16  HD
BRANCH 11 14
ATOM     14  CA  PRO D   6      12.923  22.796  47.610  1.00 20.50 LIG 0.18  C 
ATOM     15  CB  PRO D   6      12.047  22.773  48.863  1.00 26.18 LIG 0.04  C 
ATOM     16  CG  PRO D   6      12.934  23.272  49.952  1.00 30.25 LIG 0.02  C 
ATOM     17  CD  PRO D   6      14.285  22.727  49.628  1.00 26.41 LIG 0.13  C 
ATOM     18  N   PRO D   6      14.285  22.726  48.157  1.00 20.28 LIG-0.34  N 
ATOM     19  C   TYR D   5      15.390  22.734  47.399  1.00 26.16 LIG 0.26  C 
ATOM     20 O    TYR D   5      15.351  22.780  46.172  1.00 27.79 LIG-0.27  OA
BRANCH 19 21
ATOM     21  CA  TYR D   5      16.728  22.676  48.132  1.00 28.17 LIG 0.40  C 
ATOM     22  N   TYR D   5      17.468  21.482  47.743  1.00 34.40 LIG 0.61  N 
BRANCH 21 23
ATOM     23  CB  TYR D   5      17.554  23.932  47.840  1.00 23.65 LIG 0.09  C 
BRANCH 23 24
ATOM     24  CG  TYR D   5      17.884  24.125  46.375  1.00 24.31 LIG-0.06  A 
ATOM     25  CD2 TYR D   5      17.289  25.142  45.639  1.00 24.91 LIG 0.01  A 
ATOM     26  CE2 TYR D   5      17.583  25.323  44.302  1.00 24.35 LIG 0.04  A 
ATOM     27  CZ  TYR D   5      18.485  24.484  43.682  1.00 25.18 LIG 0.07  A 
ATOM     28  CE1 TYR D   5      19.091  23.464  44.389  1.00 25.68 LIG 0.04  A 
ATOM     29  CD1 TYR D   5      18.789  23.291  45.728  1.00 25.57 LIG 0.01  A 
BRANCH 27 30
ATOM     30 OH   TYR D   5      18.773  24.672  42.350  1.00 28.89 LIG-0.36  OA
ATOM     31 HH   TYR D   5      18.065  24.631  41.901  1.00 28.89 LIG 0.22  HD
ENDBRANCH 27 30
ENDBRANCH 23 24
ENDBRANCH 21 23
ENDBRANCH 19 21
ENDBRANCH 11 14
ENDBRANCH 5 10
ENDBRANCH 1 5
BRANCH 3 32
ATOM     32  CA  SER D   8       8.675  23.630  43.542  1.00  7.80 LIG 0.20  C 
BRANCH 32 33
ATOM     33  CB  SER D   8       7.979  22.406  44.126  1.00  7.43 LIG 0.20  C 
BRANCH 33 34
ATOM     34 OG   SER D   8       8.132  22.353  45.527  1.00  7.87 LIG-0.40  OA
ATOM     35 HG   SER D   8       8.891  22.048  45.715  1.00  7.87 LIG 0.21  HD
ENDBRANCH 33 34
ENDBRANCH 32 33
BRANCH 32 36
ATOM     36  C   SER D   8       7.812  24.853  43.755  1.00  7.75 LIG 0.24  C 
ATOM     37 O    SER D   8       7.230  25.388  42.811  1.00  8.57 LIG-0.27  OA
ATOM     38  N   ILE D   9       7.732  25.298  44.998  1.00  7.82 LIG-0.35  N 
ATOM     39 H    ILE D   9       8.067  24.895  45.680  1.00  7.82 LIG 0.16  HD
BRANCH 38 40
ATOM     40  CA  ILE D   9       7.050  26.541  45.306  1.00  8.70 LIG 0.18  C 
BRANCH 40 41
ATOM     41  C   ILE D   9       7.956  27.384  46.181  1.00  9.89 LIG 0.24  C 
ATOM     42  N   ILE D  10       7.897  28.693  45.980  1.00  9.26 LIG-0.34  N 
ATOM     43 H    ILE D  10       7.390  29.064  45.393  1.00  9.26 LIG 0.16  HD
ATOM     44 O    ILE D   9       8.722  26.857  46.990  1.00 11.43 LIG-0.27  OA
BRANCH 42 45
ATOM     45  CA  ILE D  10       8.698  29.631  46.750  1.00 10.77 LIG 0.19  C 
BRANCH 45 46
ATOM     46  CB  ILE D  10       9.636  30.452  45.840  1.00 11.26 LIG 0.01  C 
ATOM     47  CG2 ILE D  10      10.998  29.772  45.725  1.00 13.36 LIG 0.01  C 
BRANCH 46 48
ATOM     48  CG1 ILE D  10       9.011  30.648  44.455  1.00 10.59 LIG 0.00  C 
ATOM     49  CD1 ILE D  10       8.296  31.975  44.289  1.00 13.29 LIG 0.01  C 
ENDBRANCH 46 48
ENDBRANCH 45 46
BRANCH 45 50
ATOM     50  C   ILE D  10       7.805  30.577  47.540  1.00 10.61 LIG 0.20  C 
ATOM     51 O    ILE D  10       6.572  30.504  47.465  1.00 10.13 LIG-0.65  OA
ATOM     52 OXT  ILE D  10       8.324  31.436  48.252  1.00 13.38 LIG-0.65  OA
ENDBRANCH 45 50
ENDBRANCH 42 45
ENDBRANCH 40 41
BRANCH 40 53
ATOM     53  CB  ILE D   9       5.688  26.298  45.974  1.00  9.74 LIG 0.01  C 
ATOM     54  CG2 ILE D   9       5.100  27.611  46.478  1.00 14.85 LIG 0.01  C 
BRANCH 53 55
ATOM     55  CG1 ILE D   9       4.755  25.621  44.973  1.00  9.98 LIG 0.00  C 
ATOM     56  CD1 ILE D   9       3.286  25.799  45.280  1.00 13.31 LIG 0.01  C 
ENDBRANCH 53 55
ENDBRANCH 40 53
ENDBRANCH 38 40
ENDBRANCH 32 36
ENDBRANCH 3 32
TORSDOF 21
ENDMDL
MODEL 10
USER: ADFR SOLUTION from run 47
USER: SCORE 14.905533 LL:  -4.101 LR: -13.732 RR:   0.000 FEB:  -7.468
USER: RMSD 5.760406
USER: SEED 46
USER: STATUS no improvement in best in 10 clusters for 5 generations
USER: GENES 23
USER: genes 0 Translation |==|  0.46258 0.44740 0.61726
USER: genes 1 Rotation |==|  0.07811 0.49181 0.72243 0.64988
USER: genes 2 Torsion [N]-C--CA-[N] |==|  0.75957
USER: genes 3 Torsion [C]-CA--CB-[CG2] |==|  0.19270
USER: genes 4 Torsion [CA]-CB--OG1-[HG1] |==|  0.37649
USER: genes 5 Torsion [C]-CA--N-[C] |==|  0.84263
USER: genes 6 Torsion [N]-C--CA-[CB] |==|  0.53931
USER: genes 7 Torsion [N]-C--CA-[N] |==|  0.21219
USER: genes 8 Torsion [C]-CA--CB-[CG] |==|  0.20296
USER: genes 9 Torsion [CA]-CB--CG-[CD1] |==|  0.23782
USER: genes 10 Torsion [CE2]-CZ--OH-[HH] |==|  0.74418
USER: genes 11 Torsion [C]-N--CA-[CB] |==|  0.52925
USER: genes 12 Torsion [N]-CA--CB-[OG] |==|  0.80246
USER: genes 13 Torsion [CA]-CB--OG-[HG] |==|  0.93744
USER: genes 14 Torsion [N]-CA--C-[N] |==|  0.32472
USER: genes 15 Torsion [C]-N--CA-[CB] |==|  0.41896
USER: genes 16 Torsion [N]-CA--C-[N] |==|  0.86242
USER: genes 17 Torsion [C]-N--CA-[CB] |==|  0.77188
USER: genes 18 Torsion [N]-CA--CB-[CG2] |==|  0.55746
USER: genes 19 Torsion [CA]-CB--CG1-[CD1] |==|  0.43245
USER: genes 20 Torsion [N]-CA--C-[O] |==|  0.65758
USER: genes 21 Torsion [N]-CA--CB-[CG1] |==|  0.53937
USER: genes 22 Torsion [CA]-CB--CG1-[CD1] |==|  0.73253
ROOT
ATOM      1  C   THR D   7      14.777  24.655  44.789  1.00  9.65 LIG 0.24  C 
ATOM      2 O    THR D   7      14.003  24.482  43.835  1.00 10.36 LIG-0.27  OA
ATOM      3  N   SER D   8      14.541  24.209  46.019  1.00  8.02 LIG-0.34  N 
ATOM      4 H    SER D   8      15.125  24.218  46.651  1.00  8.02 LIG 0.16  HD
ENDROOT
BRANCH 1 5
ATOM      5  CA  THR D   7      16.089  25.399  44.608  1.00 11.21 LIG 0.20  C 
BRANCH 5 6
ATOM      6  CB  THR D   7      17.166  24.751  45.500  1.00 12.81 LIG 0.15  C 
ATOM      7  CG2 THR D   7      17.542  23.369  44.993  1.00 13.23 LIG 0.04  C 
BRANCH 6 8
ATOM      8 OG1  THR D   7      18.335  25.580  45.512  1.00 15.88 LIG-0.39  OA
ATOM      9 HG1  THR D   7      18.621  25.650  46.299  1.00 15.88 LIG 0.21  HD
ENDBRANCH 6 8
ENDBRANCH 5 6
BRANCH 5 10
ATOM     10  N   THR D   7      15.948  26.811  44.927  1.00 13.33 LIG-0.34  N 
ATOM     11  C   PRO D   6      15.056  27.583  44.318  1.00 13.20 LIG 0.24  C 
ATOM     12 O    PRO D   6      14.239  27.157  43.502  1.00 14.28 LIG-0.27  OA
ATOM     13 H    THR D   7      16.487  27.092  45.535  1.00 13.33 LIG 0.16  HD
BRANCH 11 14
ATOM     14  CA  PRO D   6      15.065  29.061  44.704  1.00 20.50 LIG 0.18  C 
ATOM     15  CB  PRO D   6      13.782  29.721  44.198  1.00 26.18 LIG 0.04  C 
ATOM     16  CG  PRO D   6      14.172  30.366  42.912  1.00 30.25 LIG 0.02  C 
ATOM     17  CD  PRO D   6      15.565  30.853  43.132  1.00 26.41 LIG 0.13  C 
ATOM     18  N   PRO D   6      16.120  29.834  44.037  1.00 20.28 LIG-0.34  N 
ATOM     19  C   TYR D   5      17.428  29.587  44.185  1.00 26.16 LIG 0.26  C 
ATOM     20 O    TYR D   5      17.855  28.696  44.916  1.00 27.79 LIG-0.27  OA
BRANCH 19 21
ATOM     21  CA  TYR D   5      18.392  30.475  43.401  1.00 28.17 LIG 0.40  C 
ATOM     22  N   TYR D   5      18.508  31.781  44.036  1.00 34.40 LIG 0.61  N 
BRANCH 21 23
ATOM     23  CB  TYR D   5      19.767  29.810  43.294  1.00 23.65 LIG 0.09  C 
BRANCH 23 24
ATOM     24  CG  TYR D   5      19.812  28.639  42.337  1.00 24.31 LIG-0.06  A 
ATOM     25  CD2 TYR D   5      19.637  27.339  42.793  1.00 24.91 LIG 0.01  A 
ATOM     26  CE2 TYR D   5      19.679  26.264  41.926  1.00 24.35 LIG 0.04  A 
ATOM     27  CZ  TYR D   5      19.897  26.480  40.582  1.00 25.18 LIG 0.07  A 
ATOM     28  CE1 TYR D   5      20.075  27.763  40.100  1.00 25.68 LIG 0.04  A 
ATOM     29  CD1 TYR D   5      20.032  28.832  40.977  1.00 25.57 LIG 0.01  A 
BRANCH 27 30
ATOM     30 OH   TYR D   5      19.936  25.405  39.725  1.00 28.89 LIG-0.36  OA
ATOM     31 HH   TYR D   5      20.728  25.139  39.644  1.00 28.89 LIG 0.22  HD
ENDBRANCH 27 30
ENDBRANCH 23 24
ENDBRANCH 21 23
ENDBRANCH 19 21
ENDBRANCH 11 14
ENDBRANCH 5 10
ENDBRANCH 1 5
BRANCH 3 32
ATOM     32  CA  SER D   8      13.257  23.662  46.405  1.00  7.80 LIG 0.20  C 
BRANCH 32 33
ATOM     33  CB  SER D   8      13.179  23.471  47.915  1.00  7.43 LIG 0.20  C 
BRANCH 33 34
ATOM     34 OG   SER D   8      14.003  22.406  48.336  1.00  7.87 LIG-0.40  OA
ATOM     35 HG   SER D   8      14.142  21.887  47.691  1.00  7.87 LIG 0.21  HD
ENDBRANCH 33 34
ENDBRANCH 32 33
BRANCH 32 36
ATOM     36  C   SER D   8      12.175  24.619  45.959  1.00  7.75 LIG 0.24  C 
ATOM     37 O    SER D   8      12.110  25.759  46.419  1.00  8.57 LIG-0.27  OA
ATOM     38  N   ILE D   9      11.321  24.153  45.062  1.00  7.82 LIG-0.35  N 
ATOM     39 H    ILE D   9      11.396  23.390  44.672  1.00  7.82 LIG 0.16  HD
BRANCH 38 40
ATOM     40  CA  ILE D   9      10.161  24.926  44.660  1.00  8.70 LIG 0.18  C 
BRANCH 40 41
ATOM     41  C   ILE D   9       9.038  24.652  45.641  1.00  9.89 LIG 0.24  C 
ATOM     42  N   ILE D  10       8.790  23.374  45.892  1.00  9.26 LIG-0.34  N 
ATOM     43 H    ILE D  10       9.221  22.724  45.529  1.00  9.26 LIG 0.16  HD
ATOM     44 O    ILE D   9       8.383  25.577  46.125  1.00 11.43 LIG-0.27  OA
BRANCH 42 45
ATOM     45  CA  ILE D  10       7.751  22.955  46.818  1.00 10.77 LIG 0.19  C 
BRANCH 45 46
ATOM     46  CB  ILE D  10       8.244  23.007  48.281  1.00 11.26 LIG 0.01  C 
ATOM     47  CG2 ILE D  10       7.380  22.115  49.168  1.00 13.36 LIG 0.01  C 
BRANCH 46 48
ATOM     48  CG1 ILE D  10       9.717  22.595  48.369  1.00 10.59 LIG 0.00  C 
ATOM     49  CD1 ILE D  10      10.435  23.149  49.585  1.00 13.29 LIG 0.01  C 
ENDBRANCH 46 48
ENDBRANCH 45 46
BRANCH 45 50
ATOM     50  C   ILE D  10       6.515  23.829  46.670  1.00 10.61 LIG 0.20  C 
ATOM     51 O    ILE D  10       6.050  24.448  47.635  1.00 10.13 LIG-0.65  OA
ATOM     52 OXT  ILE D  10       5.964  23.906  45.572  1.00 13.38 LIG-0.65  OA
ENDBRANCH 45 50
ENDBRANCH 42 45
ENDBRANCH 40 41
BRANCH 40 53
ATOM     53  CB  ILE D   9       9.737  24.615  43.217  1.00  9.74 LIG 0.01  C 
ATOM     54  CG2 ILE D   9       9.116  23.226  43.131  1.00 14.85 LIG 0.01  C 
BRANCH 53 55
ATOM     55  CG1 ILE D   9       8.760  25.688  42.742  1.00  9.98 LIG 0.00  C 
ATOM     56  CD1 ILE D   9       7.304  25.305  42.884  1.00 13.31 LIG 0.01  C 
ENDBRANCH 53 55
ENDBRANCH 40 53
ENDBRANCH 38 40
ENDBRANCH 32 36
ENDBRANCH 3 32
TORSDOF 21
ENDMDL
MODEL 11
USER: ADFR SOLUTION from run 130
USER: SCORE 14.654307 LL:  -3.968 LR: -13.702 RR:   0.000 FEB:  -7.437
USER: RMSD 5.069504
USER: SEED 129
USER: STATUS no improvement in best in 14 clusters for 5 generations
USER: GENES 23
USER: genes 0 Translation |==|  0.49744 0.39516 0.63409
USER: genes 1 Rotation |==|  0.97237 0.49747 0.48294 0.66301
USER: genes 2 Torsion [N]-C--CA-[N] |==|  0.55402
USER: genes 3 Torsion [C]-CA--CB-[CG2] |==|  0.25446
USER: genes 4 Torsion [CA]-CB--OG1-[HG1] |==|  0.44350
USER: genes 5 Torsion [C]-CA--N-[C] |==|  0.62510
USER: genes 6 Torsion [N]-C--CA-[CB] |==|  0.58353
USER: genes 7 Torsion [N]-C--CA-[N] |==|  0.43085
USER: genes 8 Torsion [C]-CA--CB-[CG] |==|  0.65250
USER: genes 9 Torsion [CA]-CB--CG-[CD1] |==|  0.24864
USER: genes 10 Torsion [CE2]-CZ--OH-[HH] |==|  0.32111
USER: genes 11 Torsion [C]-N--CA-[CB] |==|  0.27222
USER: genes 12 Torsion [N]-CA--CB-[OG] |==|  0.90529
USER: genes 13 Torsion [CA]-CB--OG-[HG] |==|  0.72944
USER: genes 14 Torsion [N]-CA--C-[N] |==|  0.42436
USER: genes 15 Torsion [C]-N--CA-[CB] |==|  0.42990
USER: genes 16 Torsion [N]-CA--C-[N] |==|  0.85232
USER: genes 17 Torsion [C]-N--CA-[CB] |==|  0.18102
USER: genes 18 Torsion [N]-CA--CB-[CG2] |==|  0.71106
USER: genes 19 Torsion [CA]-CB--CG1-[CD1] |==|  0.59754
USER: genes 20 Torsion [N]-CA--C-[O] |==|  0.56140
USER: genes 21 Torsion [N]-CA--CB-[CG1] |==|  0.49307
USER: genes 22 Torsion [CA]-CB--CG1-[CD1] |==|  0.14546
ROOT
ATOM      1  C   THR D   7      15.744  23.911  45.193  1.00  9.65 LIG 0.24  C 
ATOM      2 O    THR D   7      15.881  22.697  44.977  1.00 10.36 LIG-0.27  OA
ATOM      3  N   SER D   8      14.597  24.466  45.573  1.00  8.02 LIG-0.34  N 
ATOM      4 H    SER D   8      14.526  25.280  45.843  1.00  8.02 LIG 0.16  HD
ENDROOT
BRANCH 1 5
ATOM      5  CA  THR D   7      16.914  24.870  45.049  1.00 11.21 LIG 0.20  C 
BRANCH 5 6
ATOM      6  CB  THR D   7      16.411  26.195  44.445  1.00 12.81 LIG 0.15  C 
ATOM      7  CG2 THR D   7      16.020  27.182  45.533  1.00 13.23 LIG 0.04  C 
BRANCH 6 8
ATOM      8 OG1  THR D   7      17.446  26.772  43.638  1.00 15.88 LIG-0.39  OA
ATOM      9 HG1  THR D   7      17.107  27.321  43.099  1.00 15.88 LIG 0.21  HD
ENDBRANCH 6 8
ENDBRANCH 5 6
BRANCH 5 10
ATOM     10  N   THR D   7      17.967  24.301  44.221  1.00 13.33 LIG-0.34  N 
ATOM     11  C   PRO D   6      19.247  24.372  44.565  1.00 13.20 LIG 0.24  C 
ATOM     12 O    PRO D   6      19.634  24.849  45.631  1.00 14.28 LIG-0.27  OA
ATOM     13 H    THR D   7      17.685  23.923  43.501  1.00 13.33 LIG 0.16  HD
BRANCH 11 14
ATOM     14  CA  PRO D   6      20.249  23.793  43.568  1.00 20.50 LIG 0.18  C 
ATOM     15  CB  PRO D   6      21.466  23.264  44.326  1.00 26.18 LIG 0.04  C 
ATOM     16  CG  PRO D   6      22.471  24.361  44.238  1.00 30.25 LIG 0.02  C 
ATOM     17  CD  PRO D   6      22.277  24.952  42.881  1.00 26.41 LIG 0.13  C 
ATOM     18  N   PRO D   6      20.829  24.800  42.670  1.00 20.28 LIG-0.34  N 
ATOM     19  C   TYR D   5      20.108  25.537  41.815  1.00 26.16 LIG 0.26  C 
ATOM     20 O    TYR D   5      18.891  25.414  41.698  1.00 27.79 LIG-0.27  OA
BRANCH 19 21
ATOM     21  CA  TYR D   5      20.869  26.555  40.968  1.00 28.17 LIG 0.40  C 
ATOM     22  N   TYR D   5      20.138  26.841  39.741  1.00 34.40 LIG 0.61  N 
BRANCH 21 23
ATOM     23  CB  TYR D   5      21.104  27.843  41.761  1.00 23.65 LIG 0.09  C 
BRANCH 23 24
ATOM     24  CG  TYR D   5      20.596  29.091  41.072  1.00 24.31 LIG-0.06  A 
ATOM     25  CD2 TYR D   5      21.418  29.821  40.223  1.00 24.91 LIG 0.01  A 
ATOM     26  CE2 TYR D   5      20.962  30.963  39.593  1.00 24.35 LIG 0.04  A 
ATOM     27  CZ  TYR D   5      19.668  31.389  39.805  1.00 25.18 LIG 0.07  A 
ATOM     28  CE1 TYR D   5      18.829  30.683  40.645  1.00 25.68 LIG 0.04  A 
ATOM     29  CD1 TYR D   5      19.296  29.541  41.272  1.00 25.57 LIG 0.01  A 
BRANCH 27 30
ATOM     30 OH   TYR D   5      19.222  32.525  39.172  1.00 28.89 LIG-0.36  OA
ATOM     31 HH   TYR D   5      18.604  32.326  38.639  1.00 28.89 LIG 0.22  HD
ENDBRANCH 27 30
ENDBRANCH 23 24
ENDBRANCH 21 23
ENDBRANCH 19 21
ENDBRANCH 11 14
ENDBRANCH 5 10
ENDBRANCH 1 5
BRANCH 3 32
ATOM     32  CA  SER D   8      13.348  23.733  45.562  1.00  7.80 LIG 0.20  C 
BRANCH 32 33
ATOM     33  CB  SER D   8      13.020  23.199  46.952  1.00  7.43 LIG 0.20  C 
BRANCH 33 34
ATOM     34 OG   SER D   8      14.193  22.844  47.650  1.00  7.87 LIG-0.40  OA
ATOM     35 HG   SER D   8      14.323  22.017  47.578  1.00  7.87 LIG 0.21  HD
ENDBRANCH 33 34
ENDBRANCH 32 33
BRANCH 32 36
ATOM     36  C   SER D   8      12.249  24.666  45.106  1.00  7.75 LIG 0.24  C 
ATOM     37 O    SER D   8      12.334  25.880  45.288  1.00  8.57 LIG-0.27  OA
ATOM     38  N   ILE D   9      11.213  24.096  44.513  1.00  7.82 LIG-0.35  N 
ATOM     39 H    ILE D   9      11.171  23.262  44.308  1.00  7.82 LIG 0.16  HD
BRANCH 38 40
ATOM     40  CA  ILE D   9      10.036  24.866  44.157  1.00  8.70 LIG 0.18  C 
BRANCH 40 41
ATOM     41  C   ILE D   9       9.163  25.008  45.387  1.00  9.89 LIG 0.24  C 
ATOM     42  N   ILE D  10       8.847  23.877  46.003  1.00  9.26 LIG-0.34  N 
ATOM     43 H    ILE D  10       9.104  23.101  45.737  1.00  9.26 LIG 0.16  HD
ATOM     44 O    ILE D   9       8.750  26.113  45.745  1.00 11.43 LIG-0.27  OA
BRANCH 42 45
ATOM     45  CA  ILE D  10       8.026  23.853  47.203  1.00 10.77 LIG 0.19  C 
BRANCH 45 46
ATOM     46  CB  ILE D  10       6.591  24.344  46.914  1.00 11.26 LIG 0.01  C 
ATOM     47  CG2 ILE D  10       6.397  25.765  47.438  1.00 13.36 LIG 0.01  C 
BRANCH 46 48
ATOM     48  CG1 ILE D  10       6.287  24.274  45.414  1.00 10.59 LIG 0.00  C 
ATOM     49  CD1 ILE D  10       5.396  25.396  44.918  1.00 13.29 LIG 0.01  C 
ENDBRANCH 46 48
ENDBRANCH 45 46
BRANCH 45 50
ATOM     50  C   ILE D  10       7.972  22.449  47.788  1.00 10.61 LIG 0.20  C 
ATOM     51 O    ILE D  10       7.049  22.104  48.535  1.00 10.13 LIG-0.65  OA
ATOM     52 OXT  ILE D  10       8.873  21.655  47.522  1.00 13.38 LIG-0.65  OA
ENDBRANCH 45 50
ENDBRANCH 42 45
ENDBRANCH 40 41
BRANCH 40 53
ATOM     53  CB  ILE D   9       9.266  24.231  42.989  1.00  9.74 LIG 0.01  C 
ATOM     54  CG2 ILE D   9       8.915  22.782  43.309  1.00 14.85 LIG 0.01  C 
BRANCH 53 55
ATOM     55  CG1 ILE D   9       8.013  25.056  42.710  1.00  9.98 LIG 0.00  C 
ATOM     56  CD1 ILE D   9       8.275  26.532  42.515  1.00 13.31 LIG 0.01  C 
ENDBRANCH 53 55
ENDBRANCH 40 53
ENDBRANCH 38 40
ENDBRANCH 32 36
ENDBRANCH 3 32
TORSDOF 21
ENDMDL
MODEL 12
USER: ADFR SOLUTION from run 35
USER: SCORE 16.967991 LL:  -5.143 LR: -13.595 RR:   0.000 FEB:  -7.331
USER: RMSD 9.290550
USER: SEED 34
USER: STATUS no improvement in best in 13 clusters for 5 generations
USER: GENES 23
USER: genes 0 Translation |==|  0.30784 0.46968 0.58603
USER: genes 1 Rotation |==|  0.19088 0.38116 0.58031 0.86589
USER: genes 2 Torsion [N]-C--CA-[N] |==|  0.95292
USER: genes 3 Torsion [C]-CA--CB-[CG2] |==|  0.28858
USER: genes 4 Torsion [CA]-CB--OG1-[HG1] |==|  0.52214
USER: genes 5 Torsion [C]-CA--N-[C] |==|  0.76667
USER: genes 6 Torsion [N]-C--CA-[CB] |==|  0.53613
USER: genes 7 Torsion [N]-C--CA-[N] |==|  0.28148
USER: genes 8 Torsion [C]-CA--CB-[CG] |==|  0.81707
USER: genes 9 Torsion [CA]-CB--CG-[CD1] |==|  0.82087
USER: genes 10 Torsion [CE2]-CZ--OH-[HH] |==|  0.70249
USER: genes 11 Torsion [C]-N--CA-[CB] |==|  0.52876
USER: genes 12 Torsion [N]-CA--CB-[OG] |==|  0.10134
USER: genes 13 Torsion [CA]-CB--OG-[HG] |==|  0.85551
USER: genes 14 Torsion [N]-CA--C-[N] |==|  0.82762
USER: genes 15 Torsion [C]-N--CA-[CB] |==|  0.21055
USER: genes 16 Torsion [N]-CA--C-[N] |==|  0.85528
USER: genes 17 Torsion [C]-N--CA-[CB] |==|  0.20213
USER: genes 18 Torsion [N]-CA--CB-[CG2] |==|  0.68665
USER: genes 19 Torsion [CA]-CB--CG1-[CD1] |==|  0.47465
USER: genes 20 Torsion [N]-CA--C-[O] |==|  0.52137
USER: genes 21 Torsion [N]-CA--CB-[CG1] |==|  0.48416
USER: genes 22 Torsion [CA]-CB--CG1-[CD1] |==|  0.56138
ROOT
ATOM      1  C   THR D   7      10.483  24.973  44.040  1.00  9.65 LIG 0.24  C 
ATOM      2 O    THR D   7      10.193  25.977  43.371  1.00 10.36 LIG-0.27  OA
ATOM      3  N   SER D   8       9.787  23.840  44.008  1.00  8.02 LIG-0.34  N 
ATOM      4 H    SER D   8      10.051  23.107  44.370  1.00  8.02 LIG 0.16  HD
ENDROOT
BRANCH 1 5
ATOM      5  CA  THR D   7      11.695  24.966  44.956  1.00 11.21 LIG 0.20  C 
BRANCH 5 6
ATOM      6  CB  THR D   7      12.974  24.866  44.102  1.00 12.81 LIG 0.15  C 
ATOM      7  CG2 THR D   7      13.680  26.208  44.010  1.00 13.23 LIG 0.04  C 
BRANCH 6 8
ATOM      8 OG1  THR D   7      13.863  23.907  44.690  1.00 15.88 LIG-0.39  OA
ATOM      9 HG1  THR D   7      14.603  23.930  44.291  1.00 15.88 LIG 0.21  HD
ENDBRANCH 6 8
ENDBRANCH 5 6
BRANCH 5 10
ATOM     10  N   THR D   7      11.634  23.869  45.909  1.00 13.33 LIG-0.34  N 
ATOM     11  C   PRO D   6      10.958  23.965  47.048  1.00 13.20 LIG 0.24  C 
ATOM     12 O    PRO D   6      10.278  24.946  47.349  1.00 14.28 LIG-0.27  OA
ATOM     13 H    THR D   7      12.068  23.167  45.669  1.00 13.33 LIG 0.16  HD
BRANCH 11 14
ATOM     14  CA  PRO D   6      11.036  22.761  47.985  1.00 20.50 LIG 0.18  C 
ATOM     15  CB  PRO D   6       9.966  22.896  49.069  1.00 26.18 LIG 0.04  C 
ATOM     16  CG  PRO D   6      10.687  23.472  50.239  1.00 30.25 LIG 0.02  C 
ATOM     17  CD  PRO D   6      12.043  22.851  50.201  1.00 26.41 LIG 0.13  C 
ATOM     18  N   PRO D   6      12.284  22.700  48.757  1.00 20.28 LIG-0.34  N 
ATOM     19  C   TYR D   5      13.497  22.593  48.200  1.00 26.16 LIG 0.26  C 
ATOM     20 O    TYR D   5      13.664  22.515  46.985  1.00 27.79 LIG-0.27  OA
BRANCH 19 21
ATOM     21  CA  TYR D   5      14.693  22.564  49.149  1.00 28.17 LIG 0.40  C 
ATOM     22  N   TYR D   5      15.169  21.198  49.324  1.00 34.40 LIG 0.61  N 
BRANCH 21 23
ATOM     23  CB  TYR D   5      15.819  23.457  48.622  1.00 23.65 LIG 0.09  C 
BRANCH 23 24
ATOM     24  CG  TYR D   5      16.434  22.972  47.327  1.00 24.31 LIG-0.06  A 
ATOM     25  CD2 TYR D   5      16.325  23.719  46.162  1.00 24.91 LIG 0.01  A 
ATOM     26  CE2 TYR D   5      16.882  23.282  44.976  1.00 24.35 LIG 0.04  A 
ATOM     27  CZ  TYR D   5      17.562  22.083  44.943  1.00 25.18 LIG 0.07  A 
ATOM     28  CE1 TYR D   5      17.686  21.318  46.087  1.00 25.68 LIG 0.04  A 
ATOM     29  CD1 TYR D   5      17.124  21.765  47.269  1.00 25.57 LIG 0.01  A 
BRANCH 27 30
ATOM     30 OH   TYR D   5      18.115  21.655  43.759  1.00 28.89 LIG-0.36  OA
ATOM     31 HH   TYR D   5      17.664  21.016  43.453  1.00 28.89 LIG 0.22  HD
ENDBRANCH 27 30
ENDBRANCH 23 24
ENDBRANCH 21 23
ENDBRANCH 19 21
ENDBRANCH 11 14
ENDBRANCH 5 10
ENDBRANCH 1 5
BRANCH 3 32
ATOM     32  CA  SER D   8       8.501  23.747  43.348  1.00  7.80 LIG 0.20  C 
BRANCH 32 33
ATOM     33  CB  SER D   8       7.816  22.426  43.678  1.00  7.43 LIG 0.20  C 
BRANCH 33 34
ATOM     34 OG   SER D   8       8.068  22.042  45.012  1.00  7.87 LIG-0.40  OA
ATOM     35 HG   SER D   8       8.895  22.056  45.156  1.00  7.87 LIG 0.21  HD
ENDBRANCH 33 34
ENDBRANCH 32 33
BRANCH 32 36
ATOM     36  C   SER D   8       7.638  24.897  43.815  1.00  7.75 LIG 0.24  C 
ATOM     37 O    SER D   8       7.232  25.746  43.022  1.00  8.57 LIG-0.27  OA
ATOM     38  N   ILE D   9       7.360  24.925  45.109  1.00  7.82 LIG-0.35  N 
ATOM     39 H    ILE D   9       7.569  24.302  45.663  1.00  7.82 LIG 0.16  HD
BRANCH 38 40
ATOM     40  CA  ILE D   9       6.661  26.051  45.699  1.00  8.70 LIG 0.18  C 
BRANCH 40 41
ATOM     41  C   ILE D   9       6.905  26.039  47.194  1.00  9.89 LIG 0.24  C 
ATOM     42  N   ILE D  10       6.648  24.894  47.812  1.00  9.26 LIG-0.34  N 
ATOM     43 H    ILE D  10       6.353  24.191  47.412  1.00  9.26 LIG 0.16  HD
ATOM     44 O    ILE D   9       7.278  27.056  47.782  1.00 11.43 LIG-0.27  OA
BRANCH 42 45
ATOM     45  CA  ILE D  10       6.844  24.725  49.242  1.00 10.77 LIG 0.19  C 
BRANCH 45 46
ATOM     46  CB  ILE D  10       5.765  25.474  50.053  1.00 11.26 LIG 0.01  C 
ATOM     47  CG2 ILE D  10       6.387  26.633  50.827  1.00 13.36 LIG 0.01  C 
BRANCH 46 48
ATOM     48  CG1 ILE D  10       4.648  25.976  49.132  1.00 10.59 LIG 0.00  C 
ATOM     49  CD1 ILE D  10       3.446  26.529  49.873  1.00 13.29 LIG 0.01  C 
ENDBRANCH 46 48
ENDBRANCH 45 46
BRANCH 45 50
ATOM     50  C   ILE D  10       6.824  23.249  49.616  1.00 10.61 LIG 0.20  C 
ATOM     51 O    ILE D  10       6.832  22.890  50.800  1.00 10.13 LIG-0.65  OA
ATOM     52 OXT  ILE D  10       6.815  22.405  48.721  1.00 13.38 LIG-0.65  OA
ENDBRANCH 45 50
ENDBRANCH 42 45
ENDBRANCH 40 41
BRANCH 40 53
ATOM     53  CB  ILE D   9       5.159  26.027  45.374  1.00  9.74 LIG 0.01  C 
ATOM     54  CG2 ILE D   9       4.560  24.669  45.722  1.00 14.85 LIG 0.01  C 
BRANCH 53 55
ATOM     55  CG1 ILE D   9       4.465  27.151  46.138  1.00  9.98 LIG 0.00  C 
ATOM     56  CD1 ILE D   9       2.982  26.938  46.338  1.00 13.31 LIG 0.01  C 
ENDBRANCH 53 55
ENDBRANCH 40 53
ENDBRANCH 38 40
ENDBRANCH 32 36
ENDBRANCH 3 32
TORSDOF 21
ENDMDL
MODEL 13
USER: ADFR SOLUTION from run 116
USER: SCORE 15.940697 LL:  -4.211 LR: -13.539 RR:   0.000 FEB:  -7.274
USER: RMSD 6.283793
USER: SEED 115
USER: STATUS no improvement in best in 15 clusters for 5 generations
USER: GENES 23
USER: genes 0 Translation |==|  0.43759 0.50632 0.61592
USER: genes 1 Rotation |==|  0.98674 0.56988 0.41080 0.51548
USER: genes 2 Torsion [N]-C--CA-[N] |==|  0.47069
USER: genes 3 Torsion [C]-CA--CB-[CG2] |==|  0.25611
USER: genes 4 Torsion [CA]-CB--OG1-[HG1] |==|  0.09611
USER: genes 5 Torsion [C]-CA--N-[C] |==|  0.78012
USER: genes 6 Torsion [N]-C--CA-[CB] |==|  0.55495
USER: genes 7 Torsion [N]-C--CA-[N] |==|  0.17842
USER: genes 8 Torsion [C]-CA--CB-[CG] |==|  0.82974
USER: genes 9 Torsion [CA]-CB--CG-[CD1] |==|  0.35303
USER: genes 10 Torsion [CE2]-CZ--OH-[HH] |==|  0.99430
USER: genes 11 Torsion [C]-N--CA-[CB] |==|  0.50556
USER: genes 12 Torsion [N]-CA--CB-[OG] |==|  0.56087
USER: genes 13 Torsion [CA]-CB--OG-[HG] |==|  0.93516
USER: genes 14 Torsion [N]-CA--C-[N] |==|  0.47703
USER: genes 15 Torsion [C]-N--CA-[CB] |==|  0.44999
USER: genes 16 Torsion [N]-CA--C-[N] |==|  0.91784
USER: genes 17 Torsion [C]-N--CA-[CB] |==|  0.35469
USER: genes 18 Torsion [N]-CA--CB-[CG2] |==|  0.69585
USER: genes 19 Torsion [CA]-CB--CG1-[CD1] |==|  0.25519
USER: genes 20 Torsion [N]-CA--C-[O] |==|  0.46603
USER: genes 21 Torsion [N]-CA--CB-[CG1] |==|  0.51343
USER: genes 22 Torsion [CA]-CB--CG1-[CD1] |==|  0.39069
ROOT
ATOM      1  C   THR D   7      14.083  25.495  44.757  1.00  9.65 LIG 0.24  C 
ATOM      2 O    THR D   7      14.178  24.654  43.850  1.00 10.36 LIG-0.27  OA
ATOM      3  N   SER D   8      13.148  25.457  45.702  1.00  8.02 LIG-0.34  N 
ATOM      4 H    SER D   8      13.152  25.961  46.399  1.00  8.02 LIG 0.16  HD
ENDROOT
BRANCH 1 5
ATOM      5  CA  THR D   7      15.065  26.650  44.860  1.00 11.21 LIG 0.20  C 
BRANCH 5 6
ATOM      6  CB  THR D   7      14.327  27.970  44.562  1.00 12.81 LIG 0.15  C 
ATOM      7  CG2 THR D   7      13.802  28.607  45.838  1.00 13.23 LIG 0.04  C 
BRANCH 6 8
ATOM      8 OG1  THR D   7      15.225  28.882  43.918  1.00 15.88 LIG-0.39  OA
ATOM      9 HG1  THR D   7      15.751  28.454  43.422  1.00 15.88 LIG 0.21  HD
ENDBRANCH 6 8
ENDBRANCH 5 6
BRANCH 5 10
ATOM     10  N   THR D   7      16.185  26.478  43.948  1.00 13.33 LIG-0.34  N 
ATOM     11  C   PRO D   6      17.200  25.669  44.227  1.00 13.20 LIG 0.24  C 
ATOM     12 O    PRO D   6      17.238  24.954  45.228  1.00 14.28 LIG-0.27  OA
ATOM     13 H    THR D   7      16.127  26.942  43.226  1.00 13.33 LIG 0.16  HD
BRANCH 11 14
ATOM     14  CA  PRO D   6      18.339  25.638  43.210  1.00 20.50 LIG 0.18  C 
ATOM     15  CB  PRO D   6      19.149  24.355  43.400  1.00 26.18 LIG 0.04  C 
ATOM     16  CG  PRO D   6      20.311  24.763  44.238  1.00 30.25 LIG 0.02  C 
ATOM     17  CD  PRO D   6      20.654  26.140  43.776  1.00 26.41 LIG 0.13  C 
ATOM     18  N   PRO D   6      19.339  26.694  43.418  1.00 20.28 LIG-0.34  N 
ATOM     19  C   TYR D   5      19.060  28.003  43.358  1.00 26.16 LIG 0.26  C 
ATOM     20 O    TYR D   5      17.936  28.429  43.100  1.00 27.79 LIG-0.27  OA
BRANCH 19 21
ATOM     21  CA  TYR D   5      20.214  28.967  43.620  1.00 28.17 LIG 0.40  C 
ATOM     22  N   TYR D   5      21.234  28.830  42.589  1.00 34.40 LIG 0.61  N 
BRANCH 21 23
ATOM     23  CB  TYR D   5      19.705  30.410  43.677  1.00 23.65 LIG 0.09  C 
BRANCH 23 24
ATOM     24  CG  TYR D   5      19.061  30.886  42.392  1.00 24.31 LIG-0.06  A 
ATOM     25  CD2 TYR D   5      19.729  30.782  41.179  1.00 24.91 LIG 0.01  A 
ATOM     26  CE2 TYR D   5      19.150  31.216  40.003  1.00 24.35 LIG 0.04  A 
ATOM     27  CZ  TYR D   5      17.885  31.763  40.028  1.00 25.18 LIG 0.07  A 
ATOM     28  CE1 TYR D   5      17.197  31.881  41.220  1.00 25.68 LIG 0.04  A 
ATOM     29  CD1 TYR D   5      17.787  31.443  42.393  1.00 25.57 LIG 0.01  A 
BRANCH 27 30
ATOM     30 OH   TYR D   5      17.314  32.192  38.852  1.00 28.89 LIG-0.36  OA
ATOM     31 HH   TYR D   5      17.857  32.084  38.221  1.00 28.89 LIG 0.22  HD
ENDBRANCH 27 30
ENDBRANCH 23 24
ENDBRANCH 21 23
ENDBRANCH 19 21
ENDBRANCH 11 14
ENDBRANCH 5 10
ENDBRANCH 1 5
BRANCH 3 32
ATOM     32  CA  SER D   8      12.025  24.545  45.634  1.00  7.80 LIG 0.20  C 
BRANCH 32 33
ATOM     33  CB  SER D   8      11.088  24.750  46.819  1.00  7.43 LIG 0.20  C 
BRANCH 33 34
ATOM     34 OG   SER D   8      10.301  23.601  47.049  1.00  7.87 LIG-0.40  OA
ATOM     35 HG   SER D   8      10.248  23.152  46.342  1.00  7.87 LIG 0.21  HD
ENDBRANCH 33 34
ENDBRANCH 32 33
BRANCH 32 36
ATOM     36  C   SER D   8      11.277  24.803  44.346  1.00  7.75 LIG 0.24  C 
ATOM     37 O    SER D   8      11.557  25.767  43.634  1.00  8.57 LIG-0.27  OA
ATOM     38  N   ILE D   9      10.319  23.939  44.048  1.00  7.82 LIG-0.35  N 
ATOM     39 H    ILE D   9      10.162  23.219  44.491  1.00  7.82 LIG 0.16  HD
BRANCH 38 40
ATOM     40  CA  ILE D   9       9.441  24.157  42.914  1.00  8.70 LIG 0.18  C 
BRANCH 40 41
ATOM     41  C   ILE D   9       8.455  25.250  43.272  1.00  9.89 LIG 0.24  C 
ATOM     42  N   ILE D  10       8.143  25.348  44.558  1.00  9.26 LIG-0.34  N 
ATOM     43 H    ILE D  10       8.463  24.831  45.167  1.00  9.26 LIG 0.16  HD
ATOM     44 O    ILE D   9       7.954  25.960  42.398  1.00 11.43 LIG-0.27  OA
BRANCH 42 45
ATOM     45  CA  ILE D  10       7.220  26.354  45.056  1.00 10.77 LIG 0.19  C 
BRANCH 45 46
ATOM     46  CB  ILE D  10       6.101  25.720  45.911  1.00 11.26 LIG 0.01  C 
ATOM     47  CG2 ILE D  10       4.766  25.783  45.174  1.00 13.36 LIG 0.01  C 
BRANCH 46 48
ATOM     48  CG1 ILE D  10       6.452  24.273  46.273  1.00 10.59 LIG 0.00  C 
ATOM     49  CD1 ILE D  10       7.184  24.134  47.594  1.00 13.29 LIG 0.01  C 
ENDBRANCH 46 48
ENDBRANCH 45 46
BRANCH 45 50
ATOM     50  C   ILE D  10       7.958  27.397  45.882  1.00 10.61 LIG 0.20  C 
ATOM     51 O    ILE D  10       7.410  28.456  46.212  1.00 10.13 LIG-0.65  OA
ATOM     52 OXT  ILE D  10       9.124  27.184  46.212  1.00 13.38 LIG-0.65  OA
ENDBRANCH 45 50
ENDBRANCH 42 45
ENDBRANCH 40 41
BRANCH 40 53
ATOM     53  CB  ILE D   9       8.723  22.866  42.490  1.00  9.74 LIG 0.01  C 
ATOM     54  CG2 ILE D   9       7.832  22.356  43.617  1.00 14.85 LIG 0.01  C 
BRANCH 53 55
ATOM     55  CG1 ILE D   9       7.913  23.139  41.225  1.00  9.98 LIG 0.00  C 
ATOM     56  CD1 ILE D   9       7.943  22.013  40.217  1.00 13.31 LIG 0.01  C 
ENDBRANCH 53 55
ENDBRANCH 40 53
ENDBRANCH 38 40
ENDBRANCH 32 36
ENDBRANCH 3 32
TORSDOF 21
ENDMDL
MODEL 14
USER: ADFR SOLUTION from run 55
USER: SCORE 15.442889 LL:  -4.197 LR: -13.511 RR:   0.000 FEB:  -7.247
USER: RMSD 5.437637
USER: SEED 54
USER: STATUS no improvement in best in 2 clusters for 5 generations
USER: GENES 23
USER: genes 0 Translation |==|  0.54966 0.55501 0.58881
USER: genes 1 Rotation |==|  0.41707 0.61175 0.57140 0.97491
USER: genes 2 Torsion [N]-C--CA-[N] |==|  0.47643
USER: genes 3 Torsion [C]-CA--CB-[CG2] |==|  0.52291
USER: genes 4 Torsion [CA]-CB--OG1-[HG1] |==|  0.50854
USER: genes 5 Torsion [C]-CA--N-[C] |==|  0.62443
USER: genes 6 Torsion [N]-C--CA-[CB] |==|  0.10001
USER: genes 7 Torsion [N]-C--CA-[N] |==|  0.31193
USER: genes 8 Torsion [C]-CA--CB-[CG] |==|  0.24467
USER: genes 9 Torsion [CA]-CB--CG-[CD1] |==|  0.92376
USER: genes 10 Torsion [CE2]-CZ--OH-[HH] |==|  0.13239
USER: genes 11 Torsion [C]-N--CA-[CB] |==|  0.22222
USER: genes 12 Torsion [N]-CA--CB-[OG] |==|  0.06526
USER: genes 13 Torsion [CA]-CB--OG-[HG] |==|  0.80716
USER: genes 14 Torsion [N]-CA--C-[N] |==|  0.53724
USER: genes 15 Torsion [C]-N--CA-[CB] |==|  0.27678
USER: genes 16 Torsion [N]-CA--C-[N] |==|  0.41543
USER: genes 17 Torsion [C]-N--CA-[CB] |==|  0.30631
USER: genes 18 Torsion [N]-CA--CB-[CG2] |==|  0.78818
USER: genes 19 Torsion [CA]-CB--CG1-[CD1] |==|  0.47327
USER: genes 20 Torsion [N]-CA--C-[O] |==|  0.42723
USER: genes 21 Torsion [N]-CA--CB-[CG1] |==|  0.80742
USER: genes 22 Torsion [CA]-CB--CG1-[CD1] |==|  0.47863
ROOT
ATOM      1  C   THR D   7      17.193  26.189  44.106  1.00  9.65 LIG 0.24  C 
ATOM      2 O    THR D   7      17.413  27.315  44.578  1.00 10.36 LIG-0.27  OA
ATOM      3  N   SER D   8      16.038  25.545  44.246  1.00  8.02 LIG-0.34  N 
ATOM      4 H    SER D   8      15.838  24.825  43.820  1.00  8.02 LIG 0.16  HD
ENDROOT
BRANCH 1 5
ATOM      5  CA  THR D   7      18.254  25.454  43.304  1.00 11.21 LIG 0.20  C 
BRANCH 5 6
ATOM      6  CB  THR D   7      18.689  24.194  44.075  1.00 12.81 LIG 0.15  C 
ATOM      7  CG2 THR D   7      19.889  23.532  43.417  1.00 13.23 LIG 0.04  C 
BRANCH 6 8
ATOM      8 OG1  THR D   7      19.033  24.554  45.420  1.00 15.88 LIG-0.39  OA
ATOM      9 HG1  THR D   7      19.310  23.875  45.830  1.00 15.88 LIG 0.21  HD
ENDBRANCH 6 8
ENDBRANCH 5 6
BRANCH 5 10
ATOM     10  N   THR D   7      19.402  26.307  43.036  1.00 13.33 LIG-0.34  N 
ATOM     11  C   PRO D   6      19.969  26.366  41.837  1.00 13.20 LIG 0.24  C 
ATOM     12 O    PRO D   6      19.531  25.771  40.853  1.00 14.28 LIG-0.27  OA
ATOM     13 H    THR D   7      19.672  26.760  43.716  1.00 13.33 LIG 0.16  HD
BRANCH 11 14
ATOM     14  CA  PRO D   6      21.208  27.252  41.717  1.00 20.50 LIG 0.18  C 
ATOM     15  CB  PRO D   6      22.020  27.159  43.009  1.00 26.18 LIG 0.04  C 
ATOM     16  CG  PRO D   6      21.611  28.356  43.798  1.00 30.25 LIG 0.02  C 
ATOM     17  CD  PRO D   6      21.404  29.432  42.785  1.00 26.41 LIG 0.13  C 
ATOM     18  N   PRO D   6      20.896  28.684  41.624  1.00 20.28 LIG-0.34  N 
ATOM     19  C   TYR D   5      20.174  29.224  40.633  1.00 26.16 LIG 0.26  C 
ATOM     20 O    TYR D   5      19.727  28.560  39.701  1.00 27.79 LIG-0.27  OA
BRANCH 19 21
ATOM     21  CA  TYR D   5      19.926  30.730  40.701  1.00 28.17 LIG 0.40  C 
ATOM     22  N   TYR D   5      20.632  31.409  39.622  1.00 34.40 LIG 0.61  N 
BRANCH 21 23
ATOM     23  CB  TYR D   5      18.427  31.030  40.629  1.00 23.65 LIG 0.09  C 
BRANCH 23 24
ATOM     24  CG  TYR D   5      17.733  31.030  41.974  1.00 24.31 LIG-0.06  A 
ATOM     25  CD2 TYR D   5      16.595  31.796  42.189  1.00 24.91 LIG 0.01  A 
ATOM     26  CE2 TYR D   5      15.958  31.803  43.415  1.00 24.35 LIG 0.04  A 
ATOM     27  CZ  TYR D   5      16.456  31.036  44.447  1.00 25.18 LIG 0.07  A 
ATOM     28  CE1 TYR D   5      17.587  30.265  44.262  1.00 25.68 LIG 0.04  A 
ATOM     29  CD1 TYR D   5      18.218  30.266  43.031  1.00 25.57 LIG 0.01  A 
BRANCH 27 30
ATOM     30 OH   TYR D   5      15.814  31.047  45.664  1.00 28.89 LIG-0.36  OA
ATOM     31 HH   TYR D   5      14.989  30.943  45.547  1.00 28.89 LIG 0.22  HD
ENDBRANCH 27 30
ENDBRANCH 23 24
ENDBRANCH 21 23
ENDBRANCH 19 21
ENDBRANCH 11 14
ENDBRANCH 5 10
ENDBRANCH 1 5
BRANCH 3 32
ATOM     32  CA  SER D   8      15.001  26.012  45.143  1.00  7.80 LIG 0.20  C 
BRANCH 32 33
ATOM     33  CB  SER D   8      14.203  27.145  44.507  1.00  7.43 LIG 0.20  C 
BRANCH 33 34
ATOM     34 OG   SER D   8      14.286  27.099  43.100  1.00  7.87 LIG-0.40  OA
ATOM     35 HG   SER D   8      15.065  27.299  42.859  1.00  7.87 LIG 0.21  HD
ENDBRANCH 33 34
ENDBRANCH 32 33
BRANCH 32 36
ATOM     36  C   SER D   8      14.080  24.855  45.453  1.00  7.75 LIG 0.24  C 
ATOM     37 O    SER D   8      14.398  23.700  45.172  1.00  8.57 LIG-0.27  OA
ATOM     38  N   ILE D   9      12.931  25.166  46.032  1.00  7.82 LIG-0.35  N 
ATOM     39 H    ILE D   9      12.725  25.955  46.305  1.00  7.82 LIG 0.16  HD
BRANCH 38 40
ATOM     40  CA  ILE D   9      11.907  24.163  46.251  1.00  8.70 LIG 0.18  C 
BRANCH 40 41
ATOM     41  C   ILE D   9      10.563  24.758  45.884  1.00  9.89 LIG 0.24  C 
ATOM     42  N   ILE D  10       9.659  23.903  45.424  1.00  9.26 LIG-0.34  N 
ATOM     43 H    ILE D  10       9.806  23.062  45.325  1.00  9.26 LIG 0.16  HD
ATOM     44 O    ILE D   9      10.362  25.971  45.975  1.00 11.43 LIG-0.27  OA
BRANCH 42 45
ATOM     45  CA  ILE D  10       8.321  24.323  45.041  1.00 10.77 LIG 0.19  C 
BRANCH 45 46
ATOM     46  CB  ILE D  10       8.119  24.240  43.512  1.00 11.26 LIG 0.01  C 
ATOM     47  CG2 ILE D  10       8.815  25.407  42.818  1.00 13.36 LIG 0.01  C 
BRANCH 46 48
ATOM     48  CG1 ILE D  10       8.634  22.902  42.971  1.00 10.59 LIG 0.00  C 
ATOM     49  CD1 ILE D  10       8.265  22.646  41.523  1.00 13.29 LIG 0.01  C 
ENDBRANCH 46 48
ENDBRANCH 45 46
BRANCH 45 50
ATOM     50  C   ILE D  10       7.271  23.468  45.737  1.00 10.61 LIG 0.20  C 
ATOM     51 O    ILE D  10       6.135  23.905  45.956  1.00 10.13 LIG-0.65  OA
ATOM     52 OXT  ILE D  10       7.569  22.331  46.100  1.00 13.38 LIG-0.65  OA
ENDBRANCH 45 50
ENDBRANCH 42 45
ENDBRANCH 40 41
BRANCH 40 53
ATOM     53  CB  ILE D   9      11.917  23.640  47.696  1.00  9.74 LIG 0.01  C 
ATOM     54  CG2 ILE D   9      10.663  22.819  47.974  1.00 14.85 LIG 0.01  C 
BRANCH 53 55
ATOM     55  CG1 ILE D   9      13.180  22.813  47.919  1.00  9.98 LIG 0.00  C 
ATOM     56  CD1 ILE D   9      13.399  22.394  49.355  1.00 13.31 LIG 0.01  C 
ENDBRANCH 53 55
ENDBRANCH 40 53
ENDBRANCH 38 40
ENDBRANCH 32 36
ENDBRANCH 3 32
TORSDOF 21
ENDMDL
MODEL 15
USER: ADFR SOLUTION from run 150
USER: SCORE 15.174463 LL:  -4.292 LR: -13.443 RR:   0.000 FEB:  -7.179
USER: RMSD 12.331674
USER: SEED 149
USER: STATUS no improvement in best in 17 clusters for 5 generations
USER: GENES 23
USER: genes 0 Translation |==|  0.33235 0.48697 0.61413
USER: genes 1 Rotation |==|  0.52435 0.92001 0.75711 0.58303
USER: genes 2 Torsion [N]-C--CA-[N] |==|  0.29011
USER: genes 3 Torsion [C]-CA--CB-[CG2] |==|  0.41480
USER: genes 4 Torsion [CA]-CB--OG1-[HG1] |==|  0.47771
USER: genes 5 Torsion [C]-CA--N-[C] |==|  0.60785
USER: genes 6 Torsion [N]-C--CA-[CB] |==|  0.16516
USER: genes 7 Torsion [N]-C--CA-[N] |==|  0.43905
USER: genes 8 Torsion [C]-CA--CB-[CG] |==|  0.78120
USER: genes 9 Torsion [CA]-CB--CG-[CD1] |==|  0.16456
USER: genes 10 Torsion [CE2]-CZ--OH-[HH] |==|  0.39648
USER: genes 11 Torsion [C]-N--CA-[CB] |==|  0.50975
USER: genes 12 Torsion [N]-CA--CB-[OG] |==|  0.29330
USER: genes 13 Torsion [CA]-CB--OG-[HG] |==|  0.92771
USER: genes 14 Torsion [N]-CA--C-[N] |==|  0.45001
USER: genes 15 Torsion [C]-N--CA-[CB] |==|  0.32755
USER: genes 16 Torsion [N]-CA--C-[N] |==|  0.19177
USER: genes 17 Torsion [C]-N--CA-[CB] |==|  0.41438
USER: genes 18 Torsion [N]-CA--CB-[CG2] |==|  0.48278
USER: genes 19 Torsion [CA]-CB--CG1-[CD1] |==|  0.44570
USER: genes 20 Torsion [N]-CA--C-[O] |==|  0.31169
USER: genes 21 Torsion [N]-CA--CB-[CG1] |==|  0.82076
USER: genes 22 Torsion [CA]-CB--CG1-[CD1] |==|  0.71683
ROOT
ATOM      1  C   THR D   7      11.163  25.219  44.714  1.00  9.65 LIG 0.24  C 
ATOM      2 O    THR D   7      11.211  26.421  45.018  1.00 10.36 LIG-0.27  OA
ATOM      3  N   SER D   8      12.111  24.342  45.027  1.00  8.02 LIG-0.34  N 
ATOM      4 H    SER D   8      12.027  23.492  44.930  1.00  8.02 LIG 0.16  HD
ENDROOT
BRANCH 1 5
ATOM      5  CA  THR D   7       9.976  24.651  43.954  1.00 11.21 LIG 0.20  C 
BRANCH 5 6
ATOM      6  CB  THR D   7       9.652  25.571  42.761  1.00 12.81 LIG 0.15  C 
ATOM      7  CG2 THR D   7       9.069  24.782  41.600  1.00 13.23 LIG 0.04  C 
BRANCH 6 8
ATOM      8 OG1  THR D   7       8.708  26.567  43.172  1.00 15.88 LIG-0.39  OA
ATOM      9 HG1  THR D   7       8.613  27.134  42.559  1.00 15.88 LIG 0.21  HD
ENDBRANCH 6 8
ENDBRANCH 5 6
BRANCH 5 10
ATOM     10  N   THR D   7       8.813  24.507  44.815  1.00 13.33 LIG-0.34  N 
ATOM     11  C   PRO D   6       7.996  23.465  44.724  1.00 13.20 LIG 0.24  C 
ATOM     12 O    PRO D   6       8.195  22.515  43.968  1.00 14.28 LIG-0.27  OA
ATOM     13 H    THR D   7       8.708  25.150  45.377  1.00 13.33 LIG 0.16  HD
BRANCH 11 14
ATOM     14  CA  PRO D   6       6.777  23.479  45.645  1.00 20.50 LIG 0.18  C 
ATOM     15  CB  PRO D   6       5.934  24.719  45.346  1.00 26.18 LIG 0.04  C 
ATOM     16  CG  PRO D   6       6.347  25.713  46.377  1.00 30.25 LIG 0.02  C 
ATOM     17  CD  PRO D   6       6.598  24.908  47.609  1.00 26.41 LIG 0.13  C 
ATOM     18  N   PRO D   6       7.117  23.644  47.064  1.00 20.28 LIG-0.34  N 
ATOM     19  C   TYR D   5       7.871  22.777  47.753  1.00 26.16 LIG 0.26  C 
ATOM     20 O    TYR D   5       8.326  21.752  47.251  1.00 27.79 LIG-0.27  OA
BRANCH 19 21
ATOM     21  CA  TYR D   5       8.145  23.112  49.217  1.00 28.17 LIG 0.40  C 
ATOM     22  N   TYR D   5       8.501  21.907  49.955  1.00 34.40 LIG 0.61  N 
BRANCH 21 23
ATOM     23  CB  TYR D   5       9.262  24.154  49.329  1.00 23.65 LIG 0.09  C 
BRANCH 23 24
ATOM     24  CG  TYR D   5      10.654  23.585  49.160  1.00 24.31 LIG-0.06  A 
ATOM     25  CD2 TYR D   5      11.602  23.708  50.168  1.00 24.91 LIG 0.01  A 
ATOM     26  CE2 TYR D   5      12.875  23.194  50.020  1.00 24.35 LIG 0.04  A 
ATOM     27  CZ  TYR D   5      13.216  22.543  48.854  1.00 25.18 LIG 0.07  A 
ATOM     28  CE1 TYR D   5      12.295  22.405  47.834  1.00 25.68 LIG 0.04  A 
ATOM     29  CD1 TYR D   5      11.022  22.925  47.992  1.00 25.57 LIG 0.01  A 
BRANCH 27 30
ATOM     30 OH   TYR D   5      14.486  22.031  48.716  1.00 28.89 LIG-0.36  OA
ATOM     31 HH   TYR D   5      14.451  21.302  48.301  1.00 28.89 LIG 0.22  HD
ENDBRANCH 27 30
ENDBRANCH 23 24
ENDBRANCH 21 23
ENDBRANCH 19 21
ENDBRANCH 11 14
ENDBRANCH 5 10
ENDBRANCH 1 5
BRANCH 3 32
ATOM     32  CA  SER D   8      13.390  24.753  45.569  1.00  7.80 LIG 0.20  C 
BRANCH 32 33
ATOM     33  CB  SER D   8      14.313  23.554  45.754  1.00  7.43 LIG 0.20  C 
BRANCH 33 34
ATOM     34 OG   SER D   8      15.319  23.530  44.766  1.00  7.87 LIG-0.40  OA
ATOM     35 HG   SER D   8      15.047  23.930  44.079  1.00  7.87 LIG 0.21  HD
ENDBRANCH 33 34
ENDBRANCH 32 33
BRANCH 32 36
ATOM     36  C   SER D   8      14.022  25.736  44.610  1.00  7.75 LIG 0.24  C 
ATOM     37 O    SER D   8      13.640  25.817  43.443  1.00  8.57 LIG-0.27  OA
ATOM     38  N   ILE D   9      14.996  26.485  45.104  1.00  7.82 LIG-0.35  N 
ATOM     39 H    ILE D   9      15.223  26.498  45.933  1.00  7.82 LIG 0.16  HD
BRANCH 38 40
ATOM     40  CA  ILE D   9      15.771  27.363  44.250  1.00  8.70 LIG 0.18  C 
BRANCH 40 41
ATOM     41  C   ILE D   9      17.221  26.926  44.298  1.00  9.89 LIG 0.24  C 
ATOM     42  N   ILE D  10      17.492  25.761  43.723  1.00  9.26 LIG-0.34  N 
ATOM     43 H    ILE D  10      16.898  25.266  43.347  1.00  9.26 LIG 0.16  HD
ATOM     44 O    ILE D   9      18.068  27.606  44.881  1.00 11.43 LIG-0.27  OA
BRANCH 42 45
ATOM     45  CA  ILE D  10      18.838  25.214  43.680  1.00 10.77 LIG 0.19  C 
BRANCH 45 46
ATOM     46  CB  ILE D  10      18.820  23.670  43.694  1.00 11.26 LIG 0.01  C 
ATOM     47  CG2 ILE D  10      20.229  23.119  43.494  1.00 13.36 LIG 0.01  C 
BRANCH 46 48
ATOM     48  CG1 ILE D  10      18.216  23.149  45.002  1.00 10.59 LIG 0.00  C 
ATOM     49  CD1 ILE D  10      17.732  21.714  44.923  1.00 13.29 LIG 0.01  C 
ENDBRANCH 46 48
ENDBRANCH 45 46
BRANCH 45 50
ATOM     50  C   ILE D  10      19.574  25.700  42.440  1.00 10.61 LIG 0.20  C 
ATOM     51 O    ILE D  10      20.538  26.470  42.530  1.00 10.13 LIG-0.65  OA
ATOM     52 OXT  ILE D  10      19.190  25.329  41.331  1.00 13.38 LIG-0.65  OA
ENDBRANCH 45 50
ENDBRANCH 42 45
ENDBRANCH 40 41
BRANCH 40 53
ATOM     53  CB  ILE D   9      15.614  28.838  44.650  1.00  9.74 LIG 0.01  C 
ATOM     54  CG2 ILE D   9      16.573  29.713  43.850  1.00 14.85 LIG 0.01  C 
BRANCH 53 55
ATOM     55  CG1 ILE D   9      14.164  29.263  44.431  1.00  9.98 LIG 0.00  C 
ATOM     56  CD1 ILE D   9      13.940  30.072  43.174  1.00 13.31 LIG 0.01  C 
ENDBRANCH 53 55
ENDBRANCH 40 53
ENDBRANCH 38 40
ENDBRANCH 32 36
ENDBRANCH 3 32
TORSDOF 21
ENDMDL
MODEL 16
USER: ADFR SOLUTION from run 87
USER: SCORE 15.510684 LL:  -3.485 LR: -13.429 RR:   0.000 FEB:  -7.165
USER: RMSD 5.625508
USER: SEED 86
USER: STATUS no improvement in best in 7 clusters for 5 generations
USER: GENES 23
USER: genes 0 Translation |==|  0.45448 0.43086 0.64912
USER: genes 1 Rotation |==|  0.93586 0.62670 0.35823 0.65450
USER: genes 2 Torsion [N]-C--CA-[N] |==|  0.41760
USER: genes 3 Torsion [C]-CA--CB-[CG2] |==|  0.10317
USER: genes 4 Torsion [CA]-CB--OG1-[HG1] |==|  0.18601
USER: genes 5 Torsion [C]-CA--N-[C] |==|  0.61151
USER: genes 6 Torsion [N]-C--CA-[CB] |==|  0.82071
USER: genes 7 Torsion [N]-C--CA-[N] |==|  0.23577
USER: genes 8 Torsion [C]-CA--CB-[CG] |==|  0.83155
USER: genes 9 Torsion [CA]-CB--CG-[CD1] |==|  0.85504
USER: genes 10 Torsion [CE2]-CZ--OH-[HH] |==|  0.53126
USER: genes 11 Torsion [C]-N--CA-[CB] |==|  0.28848
USER: genes 12 Torsion [N]-CA--CB-[OG] |==|  0.78803
USER: genes 13 Torsion [CA]-CB--OG-[HG] |==|  0.86574
USER: genes 14 Torsion [N]-CA--C-[N] |==|  0.37296
USER: genes 15 Torsion [C]-N--CA-[CB] |==|  0.85986
USER: genes 16 Torsion [N]-CA--C-[N] |==|  0.35000
USER: genes 17 Torsion [C]-N--CA-[CB] |==|  0.28065
USER: genes 18 Torsion [N]-CA--CB-[CG2] |==|  0.68817
USER: genes 19 Torsion [CA]-CB--CG1-[CD1] |==|  0.48998
USER: genes 20 Torsion [N]-CA--C-[O] |==|  0.49462
USER: genes 21 Torsion [N]-CA--CB-[CG1] |==|  0.75503
USER: genes 22 Torsion [CA]-CB--CG1-[CD1] |==|  0.84386
ROOT
ATOM      1  C   THR D   7      14.552  24.420  45.554  1.00  9.65 LIG 0.24  C 
ATOM      2 O    THR D   7      14.888  23.290  45.168  1.00 10.36 LIG-0.27  OA
ATOM      3  N   SER D   8      13.765  24.636  46.603  1.00  8.02 LIG-0.34  N 
ATOM      4 H    SER D   8      13.631  25.412  46.948  1.00  8.02 LIG 0.16  HD
ENDROOT
BRANCH 1 5
ATOM      5  CA  THR D   7      15.043  25.669  44.841  1.00 11.21 LIG 0.20  C 
BRANCH 5 6
ATOM      6  CB  THR D   7      14.007  26.085  43.779  1.00 12.81 LIG 0.15  C 
ATOM      7  CG2 THR D   7      12.589  25.844  44.269  1.00 13.23 LIG 0.04  C 
BRANCH 6 8
ATOM      8 OG1  THR D   7      14.168  27.477  43.478  1.00 15.88 LIG-0.39  OA
ATOM      9 HG1  THR D   7      14.907  27.597  43.094  1.00 15.88 LIG 0.21  HD
ENDBRANCH 6 8
ENDBRANCH 5 6
BRANCH 5 10
ATOM     10  N   THR D   7      16.343  25.452  44.225  1.00 13.33 LIG-0.34  N 
ATOM     11  C   PRO D   6      17.293  26.379  44.247  1.00 13.20 LIG 0.24  C 
ATOM     12 O    PRO D   6      17.181  27.448  44.845  1.00 14.28 LIG-0.27  OA
ATOM     13 H    THR D   7      16.433  24.682  43.853  1.00 13.33 LIG 0.16  HD
BRANCH 11 14
ATOM     14  CA  PRO D   6      18.584  26.042  43.502  1.00 20.50 LIG 0.18  C 
ATOM     15  CB  PRO D   6      19.262  24.852  44.182  1.00 26.18 LIG 0.04  C 
ATOM     16  CG  PRO D   6      20.290  25.462  45.072  1.00 30.25 LIG 0.02  C 
ATOM     17  CD  PRO D   6      20.798  26.646  44.318  1.00 26.41 LIG 0.13  C 
ATOM     18  N   PRO D   6      19.602  27.096  43.589  1.00 20.28 LIG-0.34  N 
ATOM     19  C   TYR D   5      19.426  28.339  43.120  1.00 26.16 LIG 0.26  C 
ATOM     20 O    TYR D   5      18.394  28.694  42.555  1.00 27.79 LIG-0.27  OA
BRANCH 19 21
ATOM     21  CA  TYR D   5      20.581  29.319  43.311  1.00 28.17 LIG 0.40  C 
ATOM     22  N   TYR D   5      21.549  29.179  42.230  1.00 34.40 LIG 0.61  N 
BRANCH 21 23
ATOM     23  CB  TYR D   5      20.060  30.757  43.375  1.00 23.65 LIG 0.09  C 
BRANCH 23 24
ATOM     24  CG  TYR D   5      19.332  31.204  42.125  1.00 24.31 LIG-0.06  A 
ATOM     25  CD2 TYR D   5      18.061  31.758  42.200  1.00 24.91 LIG 0.01  A 
ATOM     26  CE2 TYR D   5      17.390  32.166  41.064  1.00 24.35 LIG 0.04  A 
ATOM     27  CZ  TYR D   5      17.989  32.026  39.830  1.00 25.18 LIG 0.07  A 
ATOM     28  CE1 TYR D   5      19.253  31.479  39.725  1.00 25.68 LIG 0.04  A 
ATOM     29  CD1 TYR D   5      19.916  31.072  40.869  1.00 25.57 LIG 0.01  A 
BRANCH 27 30
ATOM     30 OH   TYR D   5      17.315  32.437  38.704  1.00 28.89 LIG-0.36  OA
ATOM     31 HH   TYR D   5      17.716  32.160  38.020  1.00 28.89 LIG 0.22  HD
ENDBRANCH 27 30
ENDBRANCH 23 24
ENDBRANCH 21 23
ENDBRANCH 19 21
ENDBRANCH 11 14
ENDBRANCH 5 10
ENDBRANCH 1 5
BRANCH 3 32
ATOM     32  CA  SER D   8      13.055  23.561  47.266  1.00  7.80 LIG 0.20  C 
BRANCH 32 33
ATOM     33  CB  SER D   8      13.732  23.192  48.581  1.00  7.43 LIG 0.20  C 
BRANCH 33 34
ATOM     34 OG   SER D   8      14.898  22.431  48.356  1.00  7.87 LIG-0.40  OA
ATOM     35 HG   SER D   8      14.728  21.810  47.817  1.00  7.87 LIG 0.21  HD
ENDBRANCH 33 34
ENDBRANCH 32 33
BRANCH 32 36
ATOM     36  C   SER D   8      11.639  24.017  47.535  1.00  7.75 LIG 0.24  C 
ATOM     37 O    SER D   8      11.413  25.129  48.011  1.00  8.57 LIG-0.27  OA
ATOM     38  N   ILE D   9      10.683  23.154  47.233  1.00  7.82 LIG-0.35  N 
ATOM     39 H    ILE D   9      10.816  22.406  46.829  1.00  7.82 LIG 0.16  HD
BRANCH 38 40
ATOM     40  CA  ILE D   9       9.298  23.419  47.574  1.00  8.70 LIG 0.18  C 
BRANCH 40 41
ATOM     41  C   ILE D   9       8.772  24.495  46.646  1.00  9.89 LIG 0.24  C 
ATOM     42  N   ILE D  10       7.662  24.195  45.985  1.00  9.26 LIG-0.34  N 
ATOM     43 H    ILE D  10       7.253  23.442  46.057  1.00  9.26 LIG 0.16  HD
ATOM     44 O    ILE D   9       9.381  25.557  46.500  1.00 11.43 LIG-0.27  OA
BRANCH 42 45
ATOM     45  CA  ILE D  10       7.031  25.129  45.068  1.00 10.77 LIG 0.19  C 
BRANCH 45 46
ATOM     46  CB  ILE D  10       7.361  24.788  43.599  1.00 11.26 LIG 0.01  C 
ATOM     47  CG2 ILE D  10       8.245  25.870  42.984  1.00 13.36 LIG 0.01  C 
BRANCH 46 48
ATOM     48  CG1 ILE D  10       8.037  23.417  43.501  1.00 10.59 LIG 0.00  C 
ATOM     49  CD1 ILE D  10       8.315  22.971  42.079  1.00 13.29 LIG 0.01  C 
ENDBRANCH 46 48
ENDBRANCH 45 46
BRANCH 45 50
ATOM     50  C   ILE D  10       5.521  25.132  45.260  1.00 10.61 LIG 0.20  C 
ATOM     51 O    ILE D  10       4.795  25.886  44.600  1.00 10.13 LIG-0.65  OA
ATOM     52 OXT  ILE D  10       5.022  24.381  46.097  1.00 13.38 LIG-0.65  OA
ENDBRANCH 45 50
ENDBRANCH 42 45
ENDBRANCH 40 41
BRANCH 40 53
ATOM     53  CB  ILE D   9       9.138  23.818  49.049  1.00  9.74 LIG 0.01  C 
ATOM     54  CG2 ILE D   9       7.962  24.773  49.217  1.00 14.85 LIG 0.01  C 
BRANCH 53 55
ATOM     55  CG1 ILE D   9       8.952  22.558  49.889  1.00  9.98 LIG 0.00  C 
ATOM     56  CD1 ILE D   9       7.795  21.689  49.454  1.00 13.31 LIG 0.01  C 
ENDBRANCH 53 55
ENDBRANCH 40 53
ENDBRANCH 38 40
ENDBRANCH 32 36
ENDBRANCH 3 32
TORSDOF 21
ENDMDL
MODEL 17
USER: ADFR SOLUTION from run 136
USER: SCORE 16.425763 LL:  -4.363 LR: -13.410 RR:   0.000 FEB:  -7.145
USER: RMSD 5.028319
USER: SEED 135
USER: STATUS searching
USER: GENES 23
USER: genes 0 Translation |==|  0.48332 0.35179 0.66929
USER: genes 1 Rotation |==|  0.10183 0.55790 0.64975 0.75629
USER: genes 2 Torsion [N]-C--CA-[N] |==|  0.27821
USER: genes 3 Torsion [C]-CA--CB-[CG2] |==|  0.42054
USER: genes 4 Torsion [CA]-CB--OG1-[HG1] |==|  0.23212
USER: genes 5 Torsion [C]-CA--N-[C] |==|  0.67219
USER: genes 6 Torsion [N]-C--CA-[CB] |==|  0.55752
USER: genes 7 Torsion [N]-C--CA-[N] |==|  0.28726
USER: genes 8 Torsion [C]-CA--CB-[CG] |==|  0.78217
USER: genes 9 Torsion [CA]-CB--CG-[CD1] |==|  0.75879
USER: genes 10 Torsion [CE2]-CZ--OH-[HH] |==|  0.33002
USER: genes 11 Torsion [C]-N--CA-[CB] |==|  0.53563
USER: genes 12 Torsion [N]-CA--CB-[OG] |==|  0.95126
USER: genes 13 Torsion [CA]-CB--OG-[HG] |==|  0.90797
USER: genes 14 Torsion [N]-CA--C-[N] |==|  0.34165
USER: genes 15 Torsion [C]-N--CA-[CB] |==|  0.22772
USER: genes 16 Torsion [N]-CA--C-[N] |==|  0.00416
USER: genes 17 Torsion [C]-N--CA-[CB] |==|  0.32367
USER: genes 18 Torsion [N]-CA--CB-[CG2] |==|  0.38316
USER: genes 19 Torsion [CA]-CB--CG1-[CD1] |==|  0.15247
USER: genes 20 Torsion [N]-CA--C-[O] |==|  0.84477
USER: genes 21 Torsion [N]-CA--CB-[CG1] |==|  0.10369
USER: genes 22 Torsion [CA]-CB--CG1-[CD1] |==|  0.58707
ROOT
ATOM      1  C   THR D   7      15.352  23.293  46.038  1.00  9.65 LIG 0.24  C 
ATOM      2 O    THR D   7      14.772  23.752  45.042  1.00 10.36 LIG-0.27  OA
ATOM      3  N   SER D   8      14.720  22.748  47.073  1.00  8.02 LIG-0.34  N 
ATOM      4 H    SER D   8      15.117  22.319  47.704  1.00  8.02 LIG 0.16  HD
ENDROOT
BRANCH 1 5
ATOM      5  CA  THR D   7      16.868  23.312  46.139  1.00 11.21 LIG 0.20  C 
BRANCH 5 6
ATOM      6  CB  THR D   7      17.390  24.677  45.651  1.00 12.81 LIG 0.15  C 
ATOM      7  CG2 THR D   7      18.699  25.042  46.332  1.00 13.23 LIG 0.04  C 
BRANCH 6 8
ATOM      8 OG1  THR D   7      17.598  24.627  44.233  1.00 15.88 LIG-0.39  OA
ATOM      9 HG1  THR D   7      16.871  24.774  43.838  1.00 15.88 LIG 0.21  HD
ENDBRANCH 6 8
ENDBRANCH 5 6
BRANCH 5 10
ATOM     10  N   THR D   7      17.465  22.234  45.366  1.00 13.33 LIG-0.34  N 
ATOM     11  C   PRO D   6      18.190  21.279  45.936  1.00 13.20 LIG 0.24  C 
ATOM     12 O    PRO D   6      18.350  21.188  47.152  1.00 14.28 LIG-0.27  OA
ATOM     13 H    THR D   7      17.306  22.275  44.521  1.00 13.33 LIG 0.16  HD
BRANCH 11 14
ATOM     14  CA  PRO D   6      18.812  20.249  44.994  1.00 20.50 LIG 0.18  C 
ATOM     15  CB  PRO D   6      19.151  18.985  45.784  1.00 26.18 LIG 0.04  C 
ATOM     16  CG  PRO D   6      20.600  19.119  46.107  1.00 30.25 LIG 0.02  C 
ATOM     17  CD  PRO D   6      21.201  19.781  44.912  1.00 26.41 LIG 0.13  C 
ATOM     18  N   PRO D   6      20.115  20.661  44.455  1.00 20.28 LIG-0.34  N 
ATOM     19  C   TYR D   5      20.293  21.751  43.696  1.00 26.16 LIG 0.26  C 
ATOM     20 O    TYR D   5      19.367  22.491  43.371  1.00 27.79 LIG-0.27  OA
BRANCH 19 21
ATOM     21  CA  TYR D   5      21.719  22.045  43.235  1.00 28.17 LIG 0.40  C 
ATOM     22  N   TYR D   5      21.887  21.674  41.836  1.00 34.40 LIG 0.61  N 
BRANCH 21 23
ATOM     23  CB  TYR D   5      22.053  23.526  43.437  1.00 23.65 LIG 0.09  C 
BRANCH 23 24
ATOM     24  CG  TYR D   5      21.475  24.437  42.376  1.00 24.31 LIG-0.06  A 
ATOM     25  CD2 TYR D   5      20.242  25.051  42.558  1.00 24.91 LIG 0.01  A 
ATOM     26  CE2 TYR D   5      19.707  25.882  41.594  1.00 24.35 LIG 0.04  A 
ATOM     27  CZ  TYR D   5      20.405  26.112  40.428  1.00 25.18 LIG 0.07  A 
ATOM     28  CE1 TYR D   5      21.633  25.515  40.219  1.00 25.68 LIG 0.04  A 
ATOM     29  CD1 TYR D   5      22.160  24.683  41.191  1.00 25.57 LIG 0.01  A 
BRANCH 27 30
ATOM     30 OH   TYR D   5      19.866  26.943  39.473  1.00 28.89 LIG-0.36  OA
ATOM     31 HH   TYR D   5      20.375  27.600  39.352  1.00 28.89 LIG 0.22  HD
ENDBRANCH 27 30
ENDBRANCH 23 24
ENDBRANCH 21 23
ENDBRANCH 19 21
ENDBRANCH 11 14
ENDBRANCH 5 10
ENDBRANCH 1 5
BRANCH 3 32
ATOM     32  CA  SER D   8      13.282  22.831  47.225  1.00  7.80 LIG 0.20  C 
BRANCH 32 33
ATOM     33  CB  SER D   8      12.859  22.410  48.628  1.00  7.43 LIG 0.20  C 
BRANCH 33 34
ATOM     34 OG   SER D   8      13.884  21.684  49.271  1.00  7.87 LIG-0.40  OA
ATOM     35 HG   SER D   8      14.309  21.236  48.703  1.00  7.87 LIG 0.21  HD
ENDBRANCH 33 34
ENDBRANCH 32 33
BRANCH 32 36
ATOM     36  C   SER D   8      12.857  24.260  46.976  1.00  7.75 LIG 0.24  C 
ATOM     37 O    SER D   8      13.326  25.185  47.639  1.00  8.57 LIG-0.27  OA
ATOM     38  N   ILE D   9      11.961  24.441  46.018  1.00  7.82 LIG-0.35  N 
ATOM     39 H    ILE D   9      11.681  23.819  45.494  1.00  7.82 LIG 0.16  HD
BRANCH 38 40
ATOM     40  CA  ILE D   9      11.372  25.745  45.779  1.00  8.70 LIG 0.18  C 
BRANCH 40 41
ATOM     41  C   ILE D   9      10.017  25.550  45.132  1.00  9.89 LIG 0.24  C 
ATOM     42  N   ILE D  10       9.640  24.291  44.950  1.00  9.26 LIG-0.34  N 
ATOM     43 H    ILE D  10      10.120  23.613  45.171  1.00  9.26 LIG 0.16  HD
ATOM     44 O    ILE D   9       9.346  26.517  44.766  1.00 11.43 LIG-0.27  OA
BRANCH 42 45
ATOM     45  CA  ILE D  10       8.362  23.945  44.351  1.00 10.77 LIG 0.19  C 
BRANCH 45 46
ATOM     46  CB  ILE D  10       8.548  23.193  43.015  1.00 11.26 LIG 0.01  C 
ATOM     47  CG2 ILE D  10       7.565  22.030  42.915  1.00 13.36 LIG 0.01  C 
BRANCH 46 48
ATOM     48  CG1 ILE D  10       8.380  24.148  41.830  1.00 10.59 LIG 0.00  C 
ATOM     49  CD1 ILE D  10       9.288  25.362  41.888  1.00 13.29 LIG 0.01  C 
ENDBRANCH 46 48
ENDBRANCH 45 46
BRANCH 45 50
ATOM     50  C   ILE D  10       7.538  23.088  45.303  1.00 10.61 LIG 0.20  C 
ATOM     51 O    ILE D  10       7.986  22.030  45.760  1.00 10.13 LIG-0.65  OA
ATOM     52 OXT  ILE D  10       6.403  23.452  45.605  1.00 13.38 LIG-0.65  OA
ENDBRANCH 45 50
ENDBRANCH 42 45
ENDBRANCH 40 41
BRANCH 40 53
ATOM     53  CB  ILE D   9      12.284  26.637  44.922  1.00  9.74 LIG 0.01  C 
ATOM     54  CG2 ILE D   9      13.302  27.356  45.799  1.00 14.85 LIG 0.01  C 
BRANCH 53 55
ATOM     55  CG1 ILE D   9      12.972  25.778  43.865  1.00  9.98 LIG 0.00  C 
ATOM     56  CD1 ILE D   9      14.350  26.263  43.476  1.00 13.31 LIG 0.01  C 
ENDBRANCH 53 55
ENDBRANCH 40 53
ENDBRANCH 38 40
ENDBRANCH 32 36
ENDBRANCH 3 32
TORSDOF 21
ENDMDL
MODEL 18
USER: ADFR SOLUTION from run 136
USER: SCORE 16.422487 LL:  -4.901 LR: -13.387 RR:   0.000 FEB:  -7.122
USER: RMSD 5.033106
USER: SEED 135
USER: STATUS searching
USER: GENES 23
USER: genes 0 Translation |==|  0.48240 0.34215 0.66511
USER: genes 1 Rotation |==|  0.10578 0.57790 0.65955 0.75113
USER: genes 2 Torsion [N]-C--CA-[N] |==|  0.78526
USER: genes 3 Torsion [C]-CA--CB-[CG2] |==|  0.47023
USER: genes 4 Torsion [CA]-CB--OG1-[HG1] |==|  0.41200
USER: genes 5 Torsion [C]-CA--N-[C] |==|  0.84675
USER: genes 6 Torsion [N]-C--CA-[CB] |==|  0.66912
USER: genes 7 Torsion [N]-C--CA-[N] |==|  0.41706
USER: genes 8 Torsion [C]-CA--CB-[CG] |==|  0.78546
USER: genes 9 Torsion [CA]-CB--CG-[CD1] |==|  0.68054
USER: genes 10 Torsion [CE2]-CZ--OH-[HH] |==|  0.88146
USER: genes 11 Torsion [C]-N--CA-[CB] |==|  0.53897
USER: genes 12 Torsion [N]-CA--CB-[OG] |==|  0.92455
USER: genes 13 Torsion [CA]-CB--OG-[HG] |==|  0.97528
USER: genes 14 Torsion [N]-CA--C-[N] |==|  0.33243
USER: genes 15 Torsion [C]-N--CA-[CB] |==|  0.22402
USER: genes 16 Torsion [N]-CA--C-[N] |==|  0.00568
USER: genes 17 Torsion [C]-N--CA-[CB] |==|  0.32116
USER: genes 18 Torsion [N]-CA--CB-[CG2] |==|  0.38261
USER: genes 19 Torsion [CA]-CB--CG1-[CD1] |==|  0.15241
USER: genes 20 Torsion [N]-CA--C-[O] |==|  0.84493
USER: genes 21 Torsion [N]-CA--CB-[CG1] |==|  0.11316
USER: genes 22 Torsion [CA]-CB--CG1-[CD1] |==|  0.57979
ROOT
ATOM      1  C   THR D   7      15.327  23.156  45.938  1.00  9.65 LIG 0.24  C 
ATOM      2 O    THR D   7      14.687  23.611  44.977  1.00 10.36 LIG-0.27  OA
ATOM      3  N   SER D   8      14.759  22.663  47.034  1.00  8.02 LIG-0.34  N 
ATOM      4 H    SER D   8      15.189  22.236  47.644  1.00  8.02 LIG 0.16  HD
ENDROOT
BRANCH 1 5
ATOM      5  CA  THR D   7      16.846  23.116  45.918  1.00 11.21 LIG 0.20  C 
BRANCH 5 6
ATOM      6  CB  THR D   7      17.322  21.737  46.412  1.00 12.81 LIG 0.15  C 
ATOM      7  CG2 THR D   7      18.810  21.548  46.167  1.00 13.23 LIG 0.04  C 
BRANCH 6 8
ATOM      8 OG1  THR D   7      17.060  21.619  47.817  1.00 15.88 LIG-0.39  OA
ATOM      9 HG1  THR D   7      16.898  20.816  48.005  1.00 15.88 LIG 0.21  HD
ENDBRANCH 6 8
ENDBRANCH 5 6
BRANCH 5 10
ATOM     10  N   THR D   7      17.415  24.174  46.738  1.00 13.33 LIG-0.34  N 
ATOM     11  C   PRO D   6      17.103  25.451  46.553  1.00 13.20 LIG 0.24  C 
ATOM     12 O    PRO D   6      16.264  25.830  45.736  1.00 14.28 LIG-0.27  OA
ATOM     13 H    THR D   7      17.961  23.898  47.342  1.00 13.33 LIG 0.16  HD
BRANCH 11 14
ATOM     14  CA  PRO D   6      17.827  26.460  47.442  1.00 20.50 LIG 0.18  C 
ATOM     15  CB  PRO D   6      16.801  27.218  48.285  1.00 26.18 LIG 0.04  C 
ATOM     16  CG  PRO D   6      16.571  28.490  47.544  1.00 30.25 LIG 0.02  C 
ATOM     17  CD  PRO D   6      17.902  28.849  46.972  1.00 26.41 LIG 0.13  C 
ATOM     18  N   PRO D   6      18.493  27.532  46.690  1.00 20.28 LIG-0.34  N 
ATOM     19  C   TYR D   5      19.472  27.317  45.801  1.00 26.16 LIG 0.26  C 
ATOM     20 O    TYR D   5      19.911  26.195  45.557  1.00 27.79 LIG-0.27  OA
BRANCH 19 21
ATOM     21  CA  TYR D   5      20.041  28.543  45.091  1.00 28.17 LIG 0.40  C 
ATOM     22  N   TYR D   5      21.440  28.326  44.746  1.00 34.40 LIG 0.61  N 
BRANCH 21 23
ATOM     23  CB  TYR D   5      19.226  28.861  43.834  1.00 23.65 LIG 0.09  C 
BRANCH 23 24
ATOM     24  CG  TYR D   5      19.526  27.955  42.660  1.00 24.31 LIG-0.06  A 
ATOM     25  CD2 TYR D   5      19.235  26.598  42.715  1.00 24.91 LIG 0.01  A 
ATOM     26  CE2 TYR D   5      19.508  25.763  41.649  1.00 24.35 LIG 0.04  A 
ATOM     27  CZ  TYR D   5      20.078  26.282  40.505  1.00 25.18 LIG 0.07  A 
ATOM     28  CE1 TYR D   5      20.378  27.628  40.422  1.00 25.68 LIG 0.04  A 
ATOM     29  CD1 TYR D   5      20.102  28.455  41.497  1.00 25.57 LIG 0.01  A 
BRANCH 27 30
ATOM     30 OH   TYR D   5      20.345  25.445  39.447  1.00 28.89 LIG-0.36  OA
ATOM     31 HH   TYR D   5      20.676  24.728  39.733  1.00 28.89 LIG 0.22  HD
ENDBRANCH 27 30
ENDBRANCH 23 24
ENDBRANCH 21 23
ENDBRANCH 19 21
ENDBRANCH 11 14
ENDBRANCH 5 10
ENDBRANCH 1 5
BRANCH 3 32
ATOM     32  CA  SER D   8      13.342  22.809  47.297  1.00  7.80 LIG 0.20  C 
BRANCH 32 33
ATOM     33  CB  SER D   8      13.021  22.470  48.749  1.00  7.43 LIG 0.20  C 
BRANCH 33 34
ATOM     34 OG   SER D   8      13.958  21.558  49.277  1.00  7.87 LIG-0.40  OA
ATOM     35 HG   SER D   8      14.452  21.274  48.660  1.00  7.87 LIG 0.21  HD
ENDBRANCH 33 34
ENDBRANCH 32 33
BRANCH 32 36
ATOM     36  C   SER D   8      12.947  24.240  47.012  1.00  7.75 LIG 0.24  C 
ATOM     37 O    SER D   8      13.457  25.173  47.631  1.00  8.57 LIG-0.27  OA
ATOM     38  N   ILE D   9      12.031  24.412  46.072  1.00  7.82 LIG-0.35  N 
ATOM     39 H    ILE D   9      11.721  23.782  45.576  1.00  7.82 LIG 0.16  HD
BRANCH 38 40
ATOM     40  CA  ILE D   9      11.470  25.723  45.805  1.00  8.70 LIG 0.18  C 
BRANCH 40 41
ATOM     41  C   ILE D   9      10.106  25.543  45.169  1.00  9.89 LIG 0.24  C 
ATOM     42  N   ILE D  10       9.696  24.289  45.029  1.00  9.26 LIG-0.34  N 
ATOM     43 H    ILE D  10      10.160  23.606  45.270  1.00  9.26 LIG 0.16  HD
ATOM     44 O    ILE D   9       9.459  26.515  44.775  1.00 11.43 LIG-0.27  OA
BRANCH 42 45
ATOM     45  CA  ILE D  10       8.407  23.957  44.447  1.00 10.77 LIG 0.19  C 
BRANCH 45 46
ATOM     46  CB  ILE D  10       8.568  23.178  43.124  1.00 11.26 LIG 0.01  C 
ATOM     47  CG2 ILE D  10       7.565  22.030  43.054  1.00 13.36 LIG 0.01  C 
BRANCH 46 48
ATOM     48  CG1 ILE D  10       8.404  24.114  41.922  1.00 10.59 LIG 0.00  C 
ATOM     49  CD1 ILE D  10       9.332  25.313  41.949  1.00 13.29 LIG 0.01  C 
ENDBRANCH 46 48
ENDBRANCH 45 46
BRANCH 45 50
ATOM     50  C   ILE D  10       7.574  23.135  45.420  1.00 10.61 LIG 0.20  C 
ATOM     51 O    ILE D  10       8.006  22.077  45.894  1.00 10.13 LIG-0.65  OA
ATOM     52 OXT  ILE D  10       6.448  23.526  45.723  1.00 13.38 LIG-0.65  OA
ENDBRANCH 45 50
ENDBRANCH 42 45
ENDBRANCH 40 41
BRANCH 40 53
ATOM     53  CB  ILE D   9      12.395  26.575  44.923  1.00  9.74 LIG 0.01  C 
ATOM     54  CG2 ILE D   9      13.485  27.225  45.767  1.00 14.85 LIG 0.01  C 
BRANCH 53 55
ATOM     55  CG1 ILE D   9      12.994  25.693  43.830  1.00  9.98 LIG 0.00  C 
ATOM     56  CD1 ILE D   9      14.354  26.143  43.349  1.00 13.31 LIG 0.01  C 
ENDBRANCH 53 55
ENDBRANCH 40 53
ENDBRANCH 38 40
ENDBRANCH 32 36
ENDBRANCH 3 32
TORSDOF 21
ENDMDL
MODEL 19
USER: ADFR SOLUTION from run 36
USER: SCORE 14.939343 LL:  -3.591 LR: -13.289 RR:   0.000 FEB:  -7.025
USER: RMSD 4.205196
USER: SEED 35
USER: STATUS no improvement in best in 5 clusters for 5 generations
USER: GENES 23
USER: genes 0 Translation |==|  0.48459 0.40697 0.63612
USER: genes 1 Rotation |==|  0.09139 0.51253 0.69462 0.71213
USER: genes 2 Torsion [N]-C--CA-[N] |==|  0.29746
USER: genes 3 Torsion [C]-CA--CB-[CG2] |==|  0.53405
USER: genes 4 Torsion [CA]-CB--OG1-[HG1] |==|  0.93626
USER: genes 5 Torsion [C]-CA--N-[C] |==|  0.70408
USER: genes 6 Torsion [N]-C--CA-[CB] |==|  0.58037
USER: genes 7 Torsion [N]-C--CA-[N] |==|  0.82378
USER: genes 8 Torsion [C]-CA--CB-[CG] |==|  0.21394
USER: genes 9 Torsion [CA]-CB--CG-[CD1] |==|  0.06414
USER: genes 10 Torsion [CE2]-CZ--OH-[HH] |==|  0.39319
USER: genes 11 Torsion [C]-N--CA-[CB] |==|  0.55556
USER: genes 12 Torsion [N]-CA--CB-[OG] |==|  0.89532
USER: genes 13 Torsion [CA]-CB--OG-[HG] |==|  0.82850
USER: genes 14 Torsion [N]-CA--C-[N] |==|  0.35151
USER: genes 15 Torsion [C]-N--CA-[CB] |==|  0.43009
USER: genes 16 Torsion [N]-CA--C-[N] |==|  0.86118
USER: genes 17 Torsion [C]-N--CA-[CB] |==|  0.19454
USER: genes 18 Torsion [N]-CA--CB-[CG2] |==|  0.71758
USER: genes 19 Torsion [CA]-CB--CG1-[CD1] |==|  0.55573
USER: genes 20 Torsion [N]-CA--C-[O] |==|  0.54600
USER: genes 21 Torsion [N]-CA--CB-[CG1] |==|  0.51473
USER: genes 22 Torsion [CA]-CB--CG1-[CD1] |==|  0.61242
ROOT
ATOM      1  C   THR D   7      15.387  24.079  45.242  1.00  9.65 LIG 0.24  C 
ATOM      2 O    THR D   7      14.655  24.255  44.256  1.00 10.36 LIG-0.27  OA
ATOM      3  N   SER D   8      14.990  23.475  46.357  1.00  8.02 LIG-0.34  N 
ATOM      4 H    SER D   8      15.523  23.241  46.990  1.00  8.02 LIG 0.16  HD
ENDROOT
BRANCH 1 5
ATOM      5  CA  THR D   7      16.834  24.544  45.234  1.00 11.21 LIG 0.20  C 
BRANCH 5 6
ATOM      6  CB  THR D   7      16.892  26.012  44.770  1.00 12.81 LIG 0.15  C 
ATOM      7  CG2 THR D   7      18.317  26.435  44.457  1.00 13.23 LIG 0.04  C 
BRANCH 6 8
ATOM      8 OG1  THR D   7      16.087  26.170  43.594  1.00 15.88 LIG-0.39  OA
ATOM      9 HG1  THR D   7      16.002  25.427  43.211  1.00 15.88 LIG 0.21  HD
ENDBRANCH 6 8
ENDBRANCH 5 6
BRANCH 5 10
ATOM     10  N   THR D   7      17.656  23.707  44.375  1.00 13.33 LIG-0.34  N 
ATOM     11  C   PRO D   6      18.523  22.830  44.868  1.00 13.20 LIG 0.24  C 
ATOM     12 O    PRO D   6      18.645  22.606  46.072  1.00 14.28 LIG-0.27  OA
ATOM     13 H    THR D   7      17.529  23.832  43.533  1.00 13.33 LIG 0.16  HD
BRANCH 11 14
ATOM     14  CA  PRO D   6      19.368  22.068  43.849  1.00 20.50 LIG 0.18  C 
ATOM     15  CB  PRO D   6      19.734  20.698  44.423  1.00 26.18 LIG 0.04  C 
ATOM     16  CG  PRO D   6      21.106  20.876  44.977  1.00 30.25 LIG 0.02  C 
ATOM     17  CD  PRO D   6      21.783  21.814  44.034  1.00 26.41 LIG 0.13  C 
ATOM     18  N   PRO D   6      20.678  22.682  43.598  1.00 20.28 LIG-0.34  N 
ATOM     19  C   TYR D   5      20.837  23.915  43.099  1.00 26.16 LIG 0.26  C 
ATOM     20 O    TYR D   5      19.888  24.631  42.787  1.00 27.79 LIG-0.27  OA
BRANCH 19 21
ATOM     21  CA  TYR D   5      22.271  24.408  42.920  1.00 28.17 LIG 0.40  C 
ATOM     22  N   TYR D   5      22.940  24.502  44.211  1.00 34.40 LIG 0.61  N 
BRANCH 21 23
ATOM     23  CB  TYR D   5      23.046  23.475  41.985  1.00 23.65 LIG 0.09  C 
BRANCH 23 24
ATOM     24  CG  TYR D   5      22.719  23.661  40.519  1.00 24.31 LIG-0.06  A 
ATOM     25  CD2 TYR D   5      22.940  22.639  39.605  1.00 24.91 LIG 0.01  A 
ATOM     26  CE2 TYR D   5      22.646  22.802  38.265  1.00 24.35 LIG 0.04  A 
ATOM     27  CZ  TYR D   5      22.122  23.998  37.822  1.00 25.18 LIG 0.07  A 
ATOM     28  CE1 TYR D   5      21.893  25.032  38.709  1.00 25.68 LIG 0.04  A 
ATOM     29  CD1 TYR D   5      22.191  24.859  40.049  1.00 25.57 LIG 0.01  A 
BRANCH 27 30
ATOM     30 OH   TYR D   5      21.831  24.152  36.486  1.00 28.89 LIG-0.36  OA
ATOM     31 HH   TYR D   5      21.120  24.591  36.403  1.00 28.89 LIG 0.22  HD
ENDBRANCH 27 30
ENDBRANCH 23 24
ENDBRANCH 21 23
ENDBRANCH 19 21
ENDBRANCH 11 14
ENDBRANCH 5 10
ENDBRANCH 1 5
BRANCH 3 32
ATOM     32  CA  SER D   8      13.599  23.155  46.603  1.00  7.80 LIG 0.20  C 
BRANCH 32 33
ATOM     33  CB  SER D   8      13.346  22.936  48.091  1.00  7.43 LIG 0.20  C 
BRANCH 33 34
ATOM     34 OG   SER D   8      14.431  22.270  48.698  1.00  7.87 LIG-0.40  OA
ATOM     35 HG   SER D   8      14.527  21.513  48.348  1.00  7.87 LIG 0.21  HD
ENDBRANCH 33 34
ENDBRANCH 32 33
BRANCH 32 36
ATOM     36  C   SER D   8      12.749  24.303  46.109  1.00  7.75 LIG 0.24  C 
ATOM     37 O    SER D   8      12.960  25.455  46.486  1.00  8.57 LIG-0.27  OA
ATOM     38  N   ILE D   9      11.781  23.987  45.263  1.00  7.82 LIG-0.35  N 
ATOM     39 H    ILE D   9      11.667  23.203  44.929  1.00  7.82 LIG 0.16  HD
BRANCH 38 40
ATOM     40  CA  ILE D   9      10.814  24.976  44.828  1.00  8.70 LIG 0.18  C 
BRANCH 40 41
ATOM     41  C   ILE D   9       9.744  25.105  45.893  1.00  9.89 LIG 0.24  C 
ATOM     42  N   ILE D  10       9.208  23.967  46.314  1.00  9.26 LIG-0.34  N 
ATOM     43 H    ILE D  10       9.432  23.194  46.011  1.00  9.26 LIG 0.16  HD
ATOM     44 O    ILE D   9       9.382  26.213  46.295  1.00 11.43 LIG-0.27  OA
BRANCH 42 45
ATOM     45  CA  ILE D  10       8.179  23.928  47.339  1.00 10.77 LIG 0.19  C 
BRANCH 45 46
ATOM     46  CB  ILE D  10       6.842  24.500  46.820  1.00 11.26 LIG 0.01  C 
ATOM     47  CG2 ILE D  10       6.638  25.925  47.326  1.00 13.36 LIG 0.01  C 
BRANCH 46 48
ATOM     48  CG1 ILE D  10       6.795  24.458  45.289  1.00 10.59 LIG 0.00  C 
ATOM     49  CD1 ILE D  10       5.778  25.405  44.682  1.00 13.29 LIG 0.01  C 
ENDBRANCH 46 48
ENDBRANCH 45 46
BRANCH 45 50
ATOM     50  C   ILE D  10       7.964  22.504  47.830  1.00 10.61 LIG 0.20  C 
ATOM     51 O    ILE D  10       6.949  22.194  48.466  1.00 10.13 LIG-0.65  OA
ATOM     52 OXT  ILE D  10       8.824  21.655  47.601  1.00 13.38 LIG-0.65  OA
ENDBRANCH 45 50
ENDBRANCH 42 45
ENDBRANCH 40 41
BRANCH 40 53
ATOM     53  CB  ILE D   9      10.208  24.623  43.461  1.00  9.74 LIG 0.01  C 
ATOM     54  CG2 ILE D   9       9.439  23.309  43.542  1.00 14.85 LIG 0.01  C 
BRANCH 53 55
ATOM     55  CG1 ILE D   9       9.303  25.765  43.006  1.00  9.98 LIG 0.00  C 
ATOM     56  CD1 ILE D   9       8.018  25.313  42.350  1.00 13.31 LIG 0.01  C 
ENDBRANCH 53 55
ENDBRANCH 40 53
ENDBRANCH 38 40
ENDBRANCH 32 36
ENDBRANCH 3 32
TORSDOF 21
ENDMDL
MODEL 20
USER: ADFR SOLUTION from run 109
USER: SCORE 15.752265 LL:  -3.596 LR: -13.289 RR:   0.000 FEB:  -7.024
USER: RMSD 2.731661
USER: SEED 108
USER: STATUS searching
USER: GENES 23
USER: genes 0 Translation |==|  0.49323 0.39229 0.65109
USER: genes 1 Rotation |==|  0.92242 0.24304 0.48219 0.57222
USER: genes 2 Torsion [N]-C--CA-[N] |==|  0.89800
USER: genes 3 Torsion [C]-CA--CB-[CG2] |==|  0.00841
USER: genes 4 Torsion [CA]-CB--OG1-[HG1] |==|  0.68891
USER: genes 5 Torsion [C]-CA--N-[C] |==|  0.79296
USER: genes 6 Torsion [N]-C--CA-[CB] |==|  0.89129
USER: genes 7 Torsion [N]-C--CA-[N] |==|  0.18309
USER: genes 8 Torsion [C]-CA--CB-[CG] |==|  0.81624
USER: genes 9 Torsion [CA]-CB--CG-[CD1] |==|  0.97473
USER: genes 10 Torsion [CE2]-CZ--OH-[HH] |==|  0.78449
USER: genes 11 Torsion [C]-N--CA-[CB] |==|  0.78882
USER: genes 12 Torsion [N]-CA--CB-[OG] |==|  0.88825
USER: genes 13 Torsion [CA]-CB--OG-[HG] |==|  0.63820
USER: genes 14 Torsion [N]-CA--C-[N] |==|  0.14209
USER: genes 15 Torsion [C]-N--CA-[CB] |==|  0.51917
USER: genes 16 Torsion [N]-CA--C-[N] |==|  0.39021
USER: genes 17 Torsion [C]-N--CA-[CB] |==|  0.31878
USER: genes 18 Torsion [N]-CA--CB-[CG2] |==|  0.72434
USER: genes 19 Torsion [CA]-CB--CG1-[CD1] |==|  0.40462
USER: genes 20 Torsion [N]-CA--C-[O] |==|  0.02736
USER: genes 21 Torsion [N]-CA--CB-[CG1] |==|  0.41154
USER: genes 22 Torsion [CA]-CB--CG1-[CD1] |==|  0.23733
ROOT
ATOM      1  C   THR D   7      15.627  23.870  45.601  1.00  9.65 LIG 0.24  C 
ATOM      2 O    THR D   7      14.819  23.161  44.981  1.00 10.36 LIG-0.27  OA
ATOM      3  N   SER D   8      15.375  25.122  45.973  1.00  8.02 LIG-0.34  N 
ATOM      4 H    SER D   8      15.878  25.572  46.506  1.00  8.02 LIG 0.16  HD
ENDROOT
BRANCH 1 5
ATOM      5  CA  THR D   7      16.992  23.335  46.001  1.00 11.21 LIG 0.20  C 
BRANCH 5 6
ATOM      6  CB  THR D   7      16.916  22.774  47.434  1.00 12.81 LIG 0.15  C 
ATOM      7  CG2 THR D   7      15.501  22.854  47.982  1.00 13.23 LIG 0.04  C 
BRANCH 6 8
ATOM      8 OG1  THR D   7      17.340  21.405  47.431  1.00 15.88 LIG-0.39  OA
ATOM      9 HG1  THR D   7      16.684  20.908  47.602  1.00 15.88 LIG 0.21  HD
ENDBRANCH 6 8
ENDBRANCH 5 6
BRANCH 5 10
ATOM     10  N   THR D   7      18.013  24.367  45.914  1.00 13.33 LIG-0.34  N 
ATOM     11  C   PRO D   6      18.492  24.785  44.748  1.00 13.20 LIG 0.24  C 
ATOM     12 O    PRO D   6      18.065  24.392  43.663  1.00 14.28 LIG-0.27  OA
ATOM     13 H    THR D   7      18.271  24.674  46.674  1.00 13.33 LIG 0.16  HD
BRANCH 11 14
ATOM     14  CA  PRO D   6      19.610  25.825  44.809  1.00 20.50 LIG 0.18  C 
ATOM     15  CB  PRO D   6      19.312  26.819  45.932  1.00 26.18 LIG 0.04  C 
ATOM     16  CG  PRO D   6      18.678  27.981  45.247  1.00 30.25 LIG 0.02  C 
ATOM     17  CD  PRO D   6      19.383  28.087  43.936  1.00 26.41 LIG 0.13  C 
ATOM     18  N   PRO D   6      19.678  26.682  43.618  1.00 20.28 LIG-0.34  N 
ATOM     19  C   TYR D   5      19.910  26.218  42.382  1.00 26.16 LIG 0.26  C 
ATOM     20 O    TYR D   5      20.108  25.028  42.147  1.00 27.79 LIG-0.27  OA
BRANCH 19 21
ATOM     21  CA  TYR D   5      19.927  27.245  41.252  1.00 28.17 LIG 0.40  C 
ATOM     22  N   TYR D   5      21.052  28.157  41.413  1.00 34.40 LIG 0.61  N 
BRANCH 21 23
ATOM     23  CB  TYR D   5      19.999  26.545  39.893  1.00 23.65 LIG 0.09  C 
BRANCH 23 24
ATOM     24  CG  TYR D   5      21.294  25.800  39.651  1.00 24.31 LIG-0.06  A 
ATOM     25  CD2 TYR D   5      21.440  24.962  38.554  1.00 24.91 LIG 0.01  A 
ATOM     26  CE2 TYR D   5      22.618  24.277  38.328  1.00 24.35 LIG 0.04  A 
ATOM     27  CZ  TYR D   5      23.672  24.426  39.204  1.00 25.18 LIG 0.07  A 
ATOM     28  CE1 TYR D   5      23.556  25.253  40.304  1.00 25.68 LIG 0.04  A 
ATOM     29  CD1 TYR D   5      22.371  25.934  40.522  1.00 25.57 LIG 0.01  A 
BRANCH 27 30
ATOM     30 OH   TYR D   5      24.842  23.742  38.971  1.00 28.89 LIG-0.36  OA
ATOM     31 HH   TYR D   5      24.749  22.940  39.202  1.00 28.89 LIG 0.22  HD
ENDBRANCH 27 30
ENDBRANCH 23 24
ENDBRANCH 21 23
ENDBRANCH 19 21
ENDBRANCH 11 14
ENDBRANCH 5 10
ENDBRANCH 1 5
BRANCH 3 32
ATOM     32  CA  SER D   8      14.212  25.844  45.501  1.00  7.80 LIG 0.20  C 
BRANCH 32 33
ATOM     33  CB  SER D   8      14.407  26.307  44.061  1.00  7.43 LIG 0.20  C 
BRANCH 33 34
ATOM     34 OG   SER D   8      15.723  26.769  43.849  1.00  7.87 LIG-0.40  OA
ATOM     35 HG   SER D   8      15.699  27.520  43.476  1.00  7.87 LIG 0.21  HD
ENDBRANCH 33 34
ENDBRANCH 32 33
BRANCH 32 36
ATOM     36  C   SER D   8      13.014  24.925  45.580  1.00  7.75 LIG 0.24  C 
ATOM     37 O    SER D   8      12.275  24.765  44.609  1.00  8.57 LIG-0.27  OA
ATOM     38  N   ILE D   9      12.820  24.323  46.742  1.00  7.82 LIG-0.35  N 
ATOM     39 H    ILE D   9      13.367  24.361  47.404  1.00  7.82 LIG 0.16  HD
BRANCH 38 40
ATOM     40  CA  ILE D   9      11.630  23.529  46.985  1.00  8.70 LIG 0.18  C 
BRANCH 40 41
ATOM     41  C   ILE D   9      10.418  24.342  46.579  1.00  9.89 LIG 0.24  C 
ATOM     42  N   ILE D  10       9.452  23.672  45.966  1.00  9.26 LIG-0.34  N 
ATOM     43 H    ILE D  10       9.491  22.830  45.793  1.00  9.26 LIG 0.16  HD
ATOM     44 O    ILE D   9      10.377  25.558  46.778  1.00 11.43 LIG-0.27  OA
BRANCH 42 45
ATOM     45  CA  ILE D  10       8.223  24.312  45.528  1.00 10.77 LIG 0.19  C 
BRANCH 45 46
ATOM     46  CB  ILE D  10       8.097  24.298  43.989  1.00 11.26 LIG 0.01  C 
ATOM     47  CG2 ILE D  10       8.523  25.643  43.406  1.00 13.36 LIG 0.01  C 
BRANCH 46 48
ATOM     48  CG1 ILE D  10       8.930  23.160  43.389  1.00 10.59 LIG 0.00  C 
ATOM     49  CD1 ILE D  10       8.311  22.536  42.153  1.00 13.29 LIG 0.01  C 
ENDBRANCH 46 48
ENDBRANCH 45 46
BRANCH 45 50
ATOM     50  C   ILE D  10       7.011  23.625  46.141  1.00 10.61 LIG 0.20  C 
ATOM     51 O    ILE D  10       7.141  22.780  47.035  1.00 10.13 LIG-0.65  OA
ATOM     52 OXT  ILE D  10       5.889  23.908  45.725  1.00 13.38 LIG-0.65  OA
ENDBRANCH 45 50
ENDBRANCH 42 45
ENDBRANCH 40 41
BRANCH 40 53
ATOM     53  CB  ILE D   9      11.537  23.069  48.448  1.00  9.74 LIG 0.01  C 
ATOM     54  CG2 ILE D   9      12.300  24.026  49.357  1.00 14.85 LIG 0.01  C 
BRANCH 53 55
ATOM     55  CG1 ILE D   9      10.068  22.977  48.849  1.00  9.98 LIG 0.00  C 
ATOM     56  CD1 ILE D   9       9.411  21.661  48.497  1.00 13.31 LIG 0.01  C 
ENDBRANCH 53 55
ENDBRANCH 40 53
ENDBRANCH 38 40
ENDBRANCH 32 36
ENDBRANCH 3 32
TORSDOF 21
ENDMDL
MODEL 21
USER: ADFR SOLUTION from run 116
USER: SCORE 15.505007 LL:  -4.215 LR: -13.282 RR:   0.000 FEB:  -7.018
USER: RMSD 5.404493
USER: SEED 115
USER: STATUS no improvement in best in 15 clusters for 5 generations
USER: GENES 23
USER: genes 0 Translation |==|  0.43696 0.50725 0.61717
USER: genes 1 Rotation |==|  0.98748 0.57253 0.42461 0.53772
USER: genes 2 Torsion [N]-C--CA-[N] |==|  0.44727
USER: genes 3 Torsion [C]-CA--CB-[CG2] |==|  0.22259
USER: genes 4 Torsion [CA]-CB--OG1-[HG1] |==|  0.15220
USER: genes 5 Torsion [C]-CA--N-[C] |==|  0.80681
USER: genes 6 Torsion [N]-C--CA-[CB] |==|  0.52990
USER: genes 7 Torsion [N]-C--CA-[N] |==|  0.83986
USER: genes 8 Torsion [C]-CA--CB-[CG] |==|  0.04306
USER: genes 9 Torsion [CA]-CB--CG-[CD1] |==|  0.16762
USER: genes 10 Torsion [CE2]-CZ--OH-[HH] |==|  0.03907
USER: genes 11 Torsion [C]-N--CA-[CB] |==|  0.48909
USER: genes 12 Torsion [N]-CA--CB-[OG] |==|  0.50966
USER: genes 13 Torsion [CA]-CB--OG-[HG] |==|  0.09557
USER: genes 14 Torsion [N]-CA--C-[N] |==|  0.48074
USER: genes 15 Torsion [C]-N--CA-[CB] |==|  0.45329
USER: genes 16 Torsion [N]-CA--C-[N] |==|  0.91321
USER: genes 17 Torsion [C]-N--CA-[CB] |==|  0.35515
USER: genes 18 Torsion [N]-CA--CB-[CG2] |==|  0.69596
USER: genes 19 Torsion [CA]-CB--CG1-[CD1] |==|  0.25521
USER: genes 20 Torsion [N]-CA--C-[O] |==|  0.46598
USER: genes 21 Torsion [N]-CA--CB-[CG1] |==|  0.51347
USER: genes 22 Torsion [CA]-CB--CG1-[CD1] |==|  0.39051
ROOT
ATOM      1  C   THR D   7      14.066  25.508  44.787  1.00  9.65 LIG 0.24  C 
ATOM      2 O    THR D   7      14.243  24.604  43.956  1.00 10.36 LIG-0.27  OA
ATOM      3  N   SER D   8      13.071  25.514  45.669  1.00  8.02 LIG-0.34  N 
ATOM      4 H    SER D   8      13.015  26.069  46.323  1.00  8.02 LIG 0.16  HD
ENDROOT
BRANCH 1 5
ATOM      5  CA  THR D   7      15.009  26.697  44.864  1.00 11.21 LIG 0.20  C 
BRANCH 5 6
ATOM      6  CB  THR D   7      14.332  27.923  44.220  1.00 12.81 LIG 0.15  C 
ATOM      7  CG2 THR D   7      13.352  28.577  45.180  1.00 13.23 LIG 0.04  C 
BRANCH 6 8
ATOM      8 OG1  THR D   7      15.334  28.879  43.850  1.00 15.88 LIG-0.39  OA
ATOM      9 HG1  THR D   7      15.905  28.509  43.356  1.00 15.88 LIG 0.21  HD
ENDBRANCH 6 8
ENDBRANCH 5 6
BRANCH 5 10
ATOM     10  N   THR D   7      16.275  26.413  44.207  1.00 13.33 LIG-0.34  N 
ATOM     11  C   PRO D   6      17.148  25.547  44.708  1.00 13.20 LIG 0.24  C 
ATOM     12 O    PRO D   6      16.928  24.871  45.712  1.00 14.28 LIG-0.27  OA
ATOM     13 H    THR D   7      16.401  26.851  43.477  1.00 13.33 LIG 0.16  HD
BRANCH 11 14
ATOM     14  CA  PRO D   6      18.466  25.398  43.949  1.00 20.50 LIG 0.18  C 
ATOM     15  CB  PRO D   6      19.227  24.190  44.493  1.00 26.18 LIG 0.04  C 
ATOM     16  CG  PRO D   6      20.200  24.765  45.465  1.00 30.25 LIG 0.02  C 
ATOM     17  CD  PRO D   6      20.622  26.064  44.864  1.00 26.41 LIG 0.13  C 
ATOM     18  N   PRO D   6      19.401  26.508  44.175  1.00 20.28 LIG-0.34  N 
ATOM     19  C   TYR D   5      19.133  27.782  43.854  1.00 26.16 LIG 0.26  C 
ATOM     20 O    TYR D   5      18.081  28.123  43.320  1.00 27.79 LIG-0.27  OA
BRANCH 19 21
ATOM     21  CA  TYR D   5      20.210  28.815  44.178  1.00 28.17 LIG 0.40  C 
ATOM     22  N   TYR D   5      20.521  28.794  45.602  1.00 34.40 LIG 0.61  N 
BRANCH 21 23
ATOM     23  CB  TYR D   5      21.472  28.552  43.353  1.00 23.65 LIG 0.09  C 
BRANCH 23 24
ATOM     24  CG  TYR D   5      21.259  27.616  42.183  1.00 24.31 LIG-0.06  A 
ATOM     25  CD2 TYR D   5      21.956  26.418  42.092  1.00 24.91 LIG 0.01  A 
ATOM     26  CE2 TYR D   5      21.768  25.560  41.026  1.00 24.35 LIG 0.04  A 
ATOM     27  CZ  TYR D   5      20.872  25.892  40.032  1.00 25.18 LIG 0.07  A 
ATOM     28  CE1 TYR D   5      20.165  27.077  40.096  1.00 25.68 LIG 0.04  A 
ATOM     29  CD1 TYR D   5      20.361  27.930  41.168  1.00 25.57 LIG 0.01  A 
BRANCH 27 30
ATOM     30 OH   TYR D   5      20.690  25.031  38.975  1.00 28.89 LIG-0.36  OA
ATOM     31 HH   TYR D   5      21.028  24.285  39.160  1.00 28.89 LIG 0.22  HD
ENDBRANCH 27 30
ENDBRANCH 23 24
ENDBRANCH 21 23
ENDBRANCH 19 21
ENDBRANCH 11 14
ENDBRANCH 5 10
ENDBRANCH 1 5
BRANCH 3 32
ATOM     32  CA  SER D   8      11.977  24.567  45.599  1.00  7.80 LIG 0.20  C 
BRANCH 32 33
ATOM     33  CB  SER D   8      11.034  24.738  46.784  1.00  7.43 LIG 0.20  C 
BRANCH 33 34
ATOM     34 OG   SER D   8      10.011  23.767  46.764  1.00  7.87 LIG-0.40  OA
ATOM     35 HG   SER D   8      10.314  23.047  46.456  1.00  7.87 LIG 0.21  HD
ENDBRANCH 33 34
ENDBRANCH 32 33
BRANCH 32 36
ATOM     36  C   SER D   8      11.221  24.803  44.311  1.00  7.75 LIG 0.24  C 
ATOM     37 O    SER D   8      11.486  25.763  43.589  1.00  8.57 LIG-0.27  OA
ATOM     38  N   ILE D   9      10.273  23.924  44.025  1.00  7.82 LIG-0.35  N 
ATOM     39 H    ILE D   9      10.127  23.207  44.476  1.00  7.82 LIG 0.16  HD
BRANCH 38 40
ATOM     40  CA  ILE D   9       9.388  24.120  42.893  1.00  8.70 LIG 0.18  C 
BRANCH 40 41
ATOM     41  C   ILE D   9       8.408  25.224  43.233  1.00  9.89 LIG 0.24  C 
ATOM     42  N   ILE D  10       8.079  25.329  44.514  1.00  9.26 LIG-0.34  N 
ATOM     43 H    ILE D  10       8.385  24.811  45.129  1.00  9.26 LIG 0.16  HD
ATOM     44 O    ILE D   9       7.927  25.937  42.350  1.00 11.43 LIG-0.27  OA
BRANCH 42 45
ATOM     45  CA  ILE D  10       7.160  26.347  44.995  1.00 10.77 LIG 0.19  C 
BRANCH 45 46
ATOM     46  CB  ILE D  10       6.024  25.727  45.839  1.00 11.26 LIG 0.01  C 
ATOM     47  CG2 ILE D  10       4.699  25.798  45.086  1.00 13.36 LIG 0.01  C 
BRANCH 46 48
ATOM     48  CG1 ILE D  10       6.357  24.280  46.213  1.00 10.59 LIG 0.00  C 
ATOM     49  CD1 ILE D  10       7.071  24.141  47.544  1.00 13.29 LIG 0.01  C 
ENDBRANCH 46 48
ENDBRANCH 45 46
BRANCH 45 50
ATOM     50  C   ILE D  10       7.897  27.387  45.826  1.00 10.61 LIG 0.20  C 
ATOM     51 O    ILE D  10       7.355  28.453  46.143  1.00 10.13 LIG-0.65  OA
ATOM     52 OXT  ILE D  10       9.057  27.165  46.171  1.00 13.38 LIG-0.65  OA
ENDBRANCH 45 50
ENDBRANCH 42 45
ENDBRANCH 40 41
BRANCH 40 53
ATOM     53  CB  ILE D   9       8.663  22.823  42.501  1.00  9.74 LIG 0.01  C 
ATOM     54  CG2 ILE D   9       7.778  22.342  43.645  1.00 14.85 LIG 0.01  C 
BRANCH 53 55
ATOM     55  CG1 ILE D   9       7.846  23.071  41.236  1.00  9.98 LIG 0.00  C 
ATOM     56  CD1 ILE D   9       7.867  21.923  40.252  1.00 13.31 LIG 0.01  C 
ENDBRANCH 53 55
ENDBRANCH 40 53
ENDBRANCH 38 40
ENDBRANCH 32 36
ENDBRANCH 3 32
TORSDOF 21
ENDMDL
MODEL 22
USER: ADFR SOLUTION from run 39
USER: SCORE 15.933910 LL:  -5.676 LR: -13.279 RR:   0.000 FEB:  -7.014
USER: RMSD 8.595382
USER: SEED 38
USER: STATUS no improvement in best in 10 clusters for 5 generations
USER: GENES 23
USER: genes 0 Translation |==|  0.31131 0.46039 0.57252
USER: genes 1 Rotation |==|  0.12713 0.39755 0.59170 0.80342
USER: genes 2 Torsion [N]-C--CA-[N] |==|  0.04847
USER: genes 3 Torsion [C]-CA--CB-[CG2] |==|  0.33214
USER: genes 4 Torsion [CA]-CB--OG1-[HG1] |==|  0.49512
USER: genes 5 Torsion [C]-CA--N-[C] |==|  0.60325
USER: genes 6 Torsion [N]-C--CA-[CB] |==|  0.63823
USER: genes 7 Torsion [N]-C--CA-[N] |==|  0.21828
USER: genes 8 Torsion [C]-CA--CB-[CG] |==|  0.14016
USER: genes 9 Torsion [CA]-CB--CG-[CD1] |==|  0.08927
USER: genes 10 Torsion [CE2]-CZ--OH-[HH] |==|  0.11941
USER: genes 11 Torsion [C]-N--CA-[CB] |==|  0.50556
USER: genes 12 Torsion [N]-CA--CB-[OG] |==|  0.10529
USER: genes 13 Torsion [CA]-CB--OG-[HG] |==|  0.86013
USER: genes 14 Torsion [N]-CA--C-[N] |==|  0.73687
USER: genes 15 Torsion [C]-N--CA-[CB] |==|  0.40152
USER: genes 16 Torsion [N]-CA--C-[N] |==|  0.93073
USER: genes 17 Torsion [C]-N--CA-[CB] |==|  0.44264
USER: genes 18 Torsion [N]-CA--CB-[CG2] |==|  0.75256
USER: genes 19 Torsion [CA]-CB--CG1-[CD1] |==|  0.72694
USER: genes 20 Torsion [N]-CA--C-[O] |==|  0.47362
USER: genes 21 Torsion [N]-CA--CB-[CG1] |==|  0.71757
USER: genes 22 Torsion [CA]-CB--CG1-[CD1] |==|  0.62099
ROOT
ATOM      1  C   THR D   7      10.579  24.841  43.715  1.00  9.65 LIG 0.24  C 
ATOM      2 O    THR D   7      10.334  25.546  42.725  1.00 10.36 LIG-0.27  OA
ATOM      3  N   SER D   8       9.849  23.787  44.069  1.00  8.02 LIG-0.34  N 
ATOM      4 H    SER D   8      10.083  23.225  44.676  1.00  8.02 LIG 0.16  HD
ENDROOT
BRANCH 1 5
ATOM      5  CA  THR D   7      11.773  25.133  44.609  1.00 11.21 LIG 0.20  C 
BRANCH 5 6
ATOM      6  CB  THR D   7      12.971  25.548  43.732  1.00 12.81 LIG 0.15  C 
ATOM      7  CG2 THR D   7      13.442  26.952  44.073  1.00 13.23 LIG 0.04  C 
BRANCH 6 8
ATOM      8 OG1  THR D   7      14.051  24.628  43.938  1.00 15.88 LIG-0.39  OA
ATOM      9 HG1  THR D   7      14.696  24.839  43.443  1.00 15.88 LIG 0.21  HD
ENDBRANCH 6 8
ENDBRANCH 5 6
BRANCH 5 10
ATOM     10  N   THR D   7      12.118  23.982  45.428  1.00 13.33 LIG-0.34  N 
ATOM     11  C   PRO D   6      12.539  24.112  46.680  1.00 13.20 LIG 0.24  C 
ATOM     12 O    PRO D   6      12.600  25.194  47.264  1.00 14.28 LIG-0.27  OA
ATOM     13 H    THR D   7      12.024  23.225  45.031  1.00 13.33 LIG 0.16  HD
BRANCH 11 14
ATOM     14  CA  PRO D   6      12.931  22.822  47.400  1.00 20.50 LIG 0.18  C 
ATOM     15  CB  PRO D   6      12.237  22.774  48.761  1.00 26.18 LIG 0.04  C 
ATOM     16  CG  PRO D   6      13.261  23.266  49.724  1.00 30.25 LIG 0.02  C 
ATOM     17  CD  PRO D   6      14.559  22.739  49.209  1.00 26.41 LIG 0.13  C 
ATOM     18  N   PRO D   6      14.355  22.758  47.752  1.00 20.28 LIG-0.34  N 
ATOM     19  C   TYR D   5      15.345  22.786  46.850  1.00 26.16 LIG 0.26  C 
ATOM     20 O    TYR D   5      15.138  22.848  45.641  1.00 27.79 LIG-0.27  OA
BRANCH 19 21
ATOM     21  CA  TYR D   5      16.773  22.731  47.390  1.00 28.17 LIG 0.40  C 
ATOM     22  N   TYR D   5      17.125  21.364  47.753  1.00 34.40 LIG 0.61  N 
BRANCH 21 23
ATOM     23  CB  TYR D   5      17.759  23.278  46.356  1.00 23.65 LIG 0.09  C 
BRANCH 23 24
ATOM     24  CG  TYR D   5      17.373  24.629  45.792  1.00 24.31 LIG-0.06  A 
ATOM     25  CD2 TYR D   5      17.694  24.974  44.485  1.00 24.91 LIG 0.01  A 
ATOM     26  CE2 TYR D   5      17.348  26.205  43.964  1.00 24.35 LIG 0.04  A 
ATOM     27  CZ  TYR D   5      16.669  27.112  44.751  1.00 25.18 LIG 0.07  A 
ATOM     28  CE1 TYR D   5      16.337  26.797  46.054  1.00 25.68 LIG 0.04  A 
ATOM     29  CD1 TYR D   5      16.690  25.561  46.566  1.00 25.57 LIG 0.01  A 
BRANCH 27 30
ATOM     30 OH   TYR D   5      16.326  28.335  44.224  1.00 28.89 LIG-0.36  OA
ATOM     31 HH   TYR D   5      16.032  28.233  43.444  1.00 28.89 LIG 0.22  HD
ENDBRANCH 27 30
ENDBRANCH 23 24
ENDBRANCH 21 23
ENDBRANCH 19 21
ENDBRANCH 11 14
ENDBRANCH 5 10
ENDBRANCH 1 5
BRANCH 3 32
ATOM     32  CA  SER D   8       8.573  23.494  43.448  1.00  7.80 LIG 0.20  C 
BRANCH 32 33
ATOM     33  CB  SER D   8       7.934  22.261  44.078  1.00  7.43 LIG 0.20  C 
BRANCH 33 34
ATOM     34 OG   SER D   8       8.160  22.226  45.470  1.00  7.87 LIG-0.40  OA
ATOM     35 HG   SER D   8       8.978  22.337  45.623  1.00  7.87 LIG 0.21  HD
ENDBRANCH 33 34
ENDBRANCH 32 33
BRANCH 32 36
ATOM     36  C   SER D   8       7.664  24.688  43.634  1.00  7.75 LIG 0.24  C 
ATOM     37 O    SER D   8       7.697  25.635  42.850  1.00  8.57 LIG-0.27  OA
ATOM     38  N   ILE D   9       6.853  24.642  44.679  1.00  7.82 LIG-0.35  N 
ATOM     39 H    ILE D   9       6.761  23.957  45.191  1.00  7.82 LIG 0.16  HD
BRANCH 38 40
ATOM     40  CA  ILE D   9       6.035  25.784  45.042  1.00  8.70 LIG 0.18  C 
BRANCH 40 41
ATOM     41  C   ILE D   9       6.801  26.626  46.042  1.00  9.89 LIG 0.24  C 
ATOM     42  N   ILE D  10       7.718  25.984  46.754  1.00  9.26 LIG-0.34  N 
ATOM     43 H    ILE D  10       7.880  25.143  46.676  1.00  9.26 LIG 0.16  HD
ATOM     44 O    ILE D   9       6.538  27.820  46.196  1.00 11.43 LIG-0.27  OA
BRANCH 42 45
ATOM     45  CA  ILE D  10       8.540  26.659  47.745  1.00 10.77 LIG 0.19  C 
BRANCH 45 46
ATOM     46  CB  ILE D  10       9.132  25.659  48.762  1.00 11.26 LIG 0.01  C 
ATOM     47  CG2 ILE D  10       8.180  25.468  49.939  1.00 13.36 LIG 0.01  C 
BRANCH 46 48
ATOM     48  CG1 ILE D  10       9.436  24.318  48.088  1.00 10.59 LIG 0.00  C 
ATOM     49  CD1 ILE D  10       8.360  23.270  48.297  1.00 13.29 LIG 0.01  C 
ENDBRANCH 46 48
ENDBRANCH 45 46
BRANCH 45 50
ATOM     50  C   ILE D  10       9.670  27.425  47.072  1.00 10.61 LIG 0.20  C 
ATOM     51 O    ILE D  10      10.382  28.208  47.713  1.00 10.13 LIG-0.65  OA
ATOM     52 OXT  ILE D  10       9.864  27.270  45.867  1.00 13.38 LIG-0.65  OA
ENDBRANCH 45 50
ENDBRANCH 42 45
ENDBRANCH 40 41
BRANCH 40 53
ATOM     53  CB  ILE D   9       4.667  25.357  45.595  1.00  9.74 LIG 0.01  C 
ATOM     54  CG2 ILE D   9       4.317  26.169  46.836  1.00 14.85 LIG 0.01  C 
BRANCH 53 55
ATOM     55  CG1 ILE D   9       3.612  25.529  44.505  1.00  9.98 LIG 0.00  C 
ATOM     56  CD1 ILE D   9       2.323  26.155  44.986  1.00 13.31 LIG 0.01  C 
ENDBRANCH 53 55
ENDBRANCH 40 53
ENDBRANCH 38 40
ENDBRANCH 32 36
ENDBRANCH 3 32
TORSDOF 21
ENDMDL
MODEL 23
USER: ADFR SOLUTION from run 126
USER: SCORE 15.972339 LL:  -4.112 LR: -13.242 RR:   0.000 FEB:  -6.978
USER: RMSD 4.277029
USER: SEED 125
USER: STATUS no improvement in best in 13 clusters for 5 generations
USER: GENES 23
USER: genes 0 Translation |==|  0.47479 0.45943 0.63105
USER: genes 1 Rotation |==|  0.94400 0.29182 0.49442 0.59742
USER: genes 2 Torsion [N]-C--CA-[N] |==|  0.53296
USER: genes 3 Torsion [C]-CA--CB-[CG2] |==|  0.45008
USER: genes 4 Torsion [CA]-CB--OG1-[HG1] |==|  0.01186
USER: genes 5 Torsion [C]-CA--N-[C] |==|  0.64796
USER: genes 6 Torsion [N]-C--CA-[CB] |==|  0.56689
USER: genes 7 Torsion [N]-C--CA-[N] |==|  0.29494
USER: genes 8 Torsion [C]-CA--CB-[CG] |==|  0.81803
USER: genes 9 Torsion [CA]-CB--CG-[CD1] |==|  0.78161
USER: genes 10 Torsion [CE2]-CZ--OH-[HH] |==|  0.48055
USER: genes 11 Torsion [C]-N--CA-[CB] |==|  0.88620
USER: genes 12 Torsion [N]-CA--CB-[OG] |==|  0.90020
USER: genes 13 Torsion [CA]-CB--OG-[HG] |==|  0.20964
USER: genes 14 Torsion [N]-CA--C-[N] |==|  0.85708
USER: genes 15 Torsion [C]-N--CA-[CB] |==|  0.79444
USER: genes 16 Torsion [N]-CA--C-[N] |==|  0.17346
USER: genes 17 Torsion [C]-N--CA-[CB] |==|  0.44951
USER: genes 18 Torsion [N]-CA--CB-[CG2] |==|  0.83313
USER: genes 19 Torsion [CA]-CB--CG1-[CD1] |==|  0.48352
USER: genes 20 Torsion [N]-CA--C-[O] |==|  0.41287
USER: genes 21 Torsion [N]-CA--CB-[CG1] |==|  0.88570
USER: genes 22 Torsion [CA]-CB--CG1-[CD1] |==|  0.84618
ROOT
ATOM      1  C   THR D   7      15.115  24.827  45.120  1.00  9.65 LIG 0.24  C 
ATOM      2 O    THR D   7      14.468  23.905  44.601  1.00 10.36 LIG-0.27  OA
ATOM      3  N   SER D   8      14.604  26.023  45.393  1.00  8.02 LIG-0.34  N 
ATOM      4 H    SER D   8      15.008  26.620  45.862  1.00  8.02 LIG 0.16  HD
ENDROOT
BRANCH 1 5
ATOM      5  CA  THR D   7      16.574  24.640  45.503  1.00 11.21 LIG 0.20  C 
BRANCH 5 6
ATOM      6  CB  THR D   7      17.380  25.868  45.036  1.00 12.81 LIG 0.15  C 
ATOM      7  CG2 THR D   7      18.717  25.954  45.753  1.00 13.23 LIG 0.04  C 
BRANCH 6 8
ATOM      8 OG1  THR D   7      17.611  25.776  43.624  1.00 15.88 LIG-0.39  OA
ATOM      9 HG1  THR D   7      17.213  25.102  43.318  1.00 15.88 LIG 0.21  HD
ENDBRANCH 6 8
ENDBRANCH 5 6
BRANCH 5 10
ATOM     10  N   THR D   7      17.123  23.423  44.925  1.00 13.33 LIG-0.34  N 
ATOM     11  C   PRO D   6      17.731  22.506  45.668  1.00 13.20 LIG 0.24  C 
ATOM     12 O    PRO D   6      17.813  22.575  46.894  1.00 14.28 LIG-0.27  OA
ATOM     13 H    THR D   7      17.017  23.357  44.075  1.00 13.33 LIG 0.16  HD
BRANCH 11 14
ATOM     14  CA  PRO D   6      18.319  21.311  44.919  1.00 20.50 LIG 0.18  C 
ATOM     15  CB  PRO D   6      18.426  20.122  45.874  1.00 26.18 LIG 0.04  C 
ATOM     16  CG  PRO D   6      19.841  20.141  46.341  1.00 30.25 LIG 0.02  C 
ATOM     17  CD  PRO D   6      20.632  20.587  45.157  1.00 26.41 LIG 0.13  C 
ATOM     18  N   PRO D   6      19.708  21.515  44.488  1.00 20.28 LIG-0.34  N 
ATOM     19  C   TYR D   5      20.088  22.481  43.641  1.00 26.16 LIG 0.26  C 
ATOM     20 O    TYR D   5      19.292  23.269  43.135  1.00 27.79 LIG-0.27  OA
BRANCH 19 21
ATOM     21  CA  TYR D   5      21.577  22.566  43.314  1.00 28.17 LIG 0.40  C 
ATOM     22  N   TYR D   5      21.829  22.074  41.966  1.00 34.40 LIG 0.61  N 
BRANCH 21 23
ATOM     23  CB  TYR D   5      22.076  24.006  43.456  1.00 23.65 LIG 0.09  C 
BRANCH 23 24
ATOM     24  CG  TYR D   5      21.473  24.969  42.457  1.00 24.31 LIG-0.06  A 
ATOM     25  CD2 TYR D   5      20.442  25.825  42.824  1.00 24.91 LIG 0.01  A 
ATOM     26  CE2 TYR D   5      19.884  26.704  41.917  1.00 24.35 LIG 0.04  A 
ATOM     27  CZ  TYR D   5      20.357  26.740  40.623  1.00 25.18 LIG 0.07  A 
ATOM     28  CE1 TYR D   5      21.380  25.900  40.229  1.00 25.68 LIG 0.04  A 
ATOM     29  CD1 TYR D   5      21.931  25.022  41.145  1.00 25.57 LIG 0.01  A 
BRANCH 27 30
ATOM     30 OH   TYR D   5      19.797  27.620  39.726  1.00 28.89 LIG-0.36  OA
ATOM     31 HH   TYR D   5      20.235  27.608  39.010  1.00 28.89 LIG 0.22  HD
ENDBRANCH 27 30
ENDBRANCH 23 24
ENDBRANCH 21 23
ENDBRANCH 19 21
ENDBRANCH 11 14
ENDBRANCH 5 10
ENDBRANCH 1 5
BRANCH 3 32
ATOM     32  CA  SER D   8      13.299  26.429  44.914  1.00  7.80 LIG 0.20  C 
BRANCH 32 33
ATOM     33  CB  SER D   8      13.082  25.972  43.476  1.00  7.43 LIG 0.20  C 
BRANCH 33 34
ATOM     34 OG   SER D   8      14.280  26.041  42.734  1.00  7.87 LIG-0.40  OA
ATOM     35 HG   SER D   8      14.781  25.404  42.950  1.00  7.87 LIG 0.21  HD
ENDBRANCH 33 34
ENDBRANCH 32 33
BRANCH 32 36
ATOM     36  C   SER D   8      12.248  25.809  45.806  1.00  7.75 LIG 0.24  C 
ATOM     37 O    SER D   8      11.363  26.498  46.314  1.00  8.57 LIG-0.27  OA
ATOM     38  N   ILE D   9      12.347  24.504  46.001  1.00  7.82 LIG-0.35  N 
ATOM     39 H    ILE D   9      12.909  23.996  45.595  1.00  7.82 LIG 0.16  HD
BRANCH 38 40
ATOM     40  CA  ILE D   9      11.484  23.820  46.946  1.00  8.70 LIG 0.18  C 
BRANCH 40 41
ATOM     41  C   ILE D   9      10.051  24.228  46.672  1.00  9.89 LIG 0.24  C 
ATOM     42  N   ILE D  10       9.576  23.901  45.477  1.00  9.26 LIG-0.34  N 
ATOM     43 H    ILE D  10      10.035  23.489  44.878  1.00  9.26 LIG 0.16  HD
ATOM     44 O    ILE D   9       9.404  24.864  47.506  1.00 11.43 LIG-0.27  OA
BRANCH 42 45
ATOM     45  CA  ILE D  10       8.216  24.215  45.073  1.00 10.77 LIG 0.19  C 
BRANCH 45 46
ATOM     46  CB  ILE D  10       8.053  24.146  43.539  1.00 11.26 LIG 0.01  C 
ATOM     47  CG2 ILE D  10       8.986  25.143  42.857  1.00 13.36 LIG 0.01  C 
BRANCH 46 48
ATOM     48  CG1 ILE D  10       8.315  22.725  43.031  1.00 10.59 LIG 0.00  C 
ATOM     49  CD1 ILE D  10       8.035  22.543  41.551  1.00 13.29 LIG 0.01  C 
ENDBRANCH 46 48
ENDBRANCH 45 46
BRANCH 45 50
ATOM     50  C   ILE D  10       7.227  23.262  45.730  1.00 10.61 LIG 0.20  C 
ATOM     51 O    ILE D  10       6.081  23.628  46.017  1.00 10.13 LIG-0.65  OA
ATOM     52 OXT  ILE D  10       7.585  22.114  45.991  1.00 13.38 LIG-0.65  OA
ENDBRANCH 45 50
ENDBRANCH 42 45
ENDBRANCH 40 41
BRANCH 40 53
ATOM     53  CB  ILE D   9      11.885  24.109  48.401  1.00  9.74 LIG 0.01  C 
ATOM     54  CG2 ILE D   9      11.246  23.092  49.340  1.00 14.85 LIG 0.01  C 
BRANCH 53 55
ATOM     55  CG1 ILE D   9      13.406  24.087  48.513  1.00  9.98 LIG 0.00  C 
ATOM     56  CD1 ILE D   9      14.044  22.807  48.023  1.00 13.31 LIG 0.01  C 
ENDBRANCH 53 55
ENDBRANCH 40 53
ENDBRANCH 38 40
ENDBRANCH 32 36
ENDBRANCH 3 32
TORSDOF 21
ENDMDL
MODEL 24
USER: ADFR SOLUTION from run 39
USER: SCORE 15.346812 LL:  -5.020 LR: -13.235 RR:   0.000 FEB:  -6.971
USER: RMSD 8.572843
USER: SEED 38
USER: STATUS no improvement in best in 10 clusters for 5 generations
USER: GENES 23
USER: genes 0 Translation |==|  0.30941 0.46672 0.59291
USER: genes 1 Rotation |==|  0.12569 0.44417 0.60683 0.80881
USER: genes 2 Torsion [N]-C--CA-[N] |==|  0.04532
USER: genes 3 Torsion [C]-CA--CB-[CG2] |==|  0.29607
USER: genes 4 Torsion [CA]-CB--OG1-[HG1] |==|  0.49611
USER: genes 5 Torsion [C]-CA--N-[C] |==|  0.64444
USER: genes 6 Torsion [N]-C--CA-[CB] |==|  0.62506
USER: genes 7 Torsion [N]-C--CA-[N] |==|  0.22214
USER: genes 8 Torsion [C]-CA--CB-[CG] |==|  0.12979
USER: genes 9 Torsion [CA]-CB--CG-[CD1] |==|  0.10306
USER: genes 10 Torsion [CE2]-CZ--OH-[HH] |==|  0.09317
USER: genes 11 Torsion [C]-N--CA-[CB] |==|  0.34032
USER: genes 12 Torsion [N]-CA--CB-[OG] |==|  0.74404
USER: genes 13 Torsion [CA]-CB--OG-[HG] |==|  0.94191
USER: genes 14 Torsion [N]-CA--C-[N] |==|  0.15118
USER: genes 15 Torsion [C]-N--CA-[CB] |==|  0.86029
USER: genes 16 Torsion [N]-CA--C-[N] |==|  0.77243
USER: genes 17 Torsion [C]-N--CA-[CB] |==|  0.86345
USER: genes 18 Torsion [N]-CA--CB-[CG2] |==|  0.45529
USER: genes 19 Torsion [CA]-CB--CG1-[CD1] |==|  0.23096
USER: genes 20 Torsion [N]-CA--C-[O] |==|  0.34917
USER: genes 21 Torsion [N]-CA--CB-[CG1] |==|  0.86719
USER: genes 22 Torsion [CA]-CB--CG1-[CD1] |==|  0.44495
ROOT
ATOM      1  C   THR D   7      10.526  24.931  44.205  1.00  9.65 LIG 0.24  C 
ATOM      2 O    THR D   7      10.198  25.634  43.237  1.00 10.36 LIG-0.27  OA
ATOM      3  N   SER D   8       9.757  23.973  44.714  1.00  8.02 LIG-0.34  N 
ATOM      4 H    SER D   8      10.028  23.404  45.300  1.00  8.02 LIG 0.16  HD
ENDROOT
BRANCH 1 5
ATOM      5  CA  THR D   7      11.874  25.113  44.883  1.00 11.21 LIG 0.20  C 
BRANCH 5 6
ATOM      6  CB  THR D   7      12.954  25.343  43.809  1.00 12.81 LIG 0.15  C 
ATOM      7  CG2 THR D   7      13.405  26.794  43.784  1.00 13.23 LIG 0.04  C 
BRANCH 6 8
ATOM      8 OG1  THR D   7      14.084  24.506  44.085  1.00 15.88 LIG-0.39  OA
ATOM      9 HG1  THR D   7      14.667  24.616  43.490  1.00 15.88 LIG 0.21  HD
ENDBRANCH 6 8
ENDBRANCH 5 6
BRANCH 5 10
ATOM     10  N   THR D   7      12.213  23.963  45.707  1.00 13.33 LIG-0.34  N 
ATOM     11  C   PRO D   6      12.573  24.091  46.978  1.00 13.20 LIG 0.24  C 
ATOM     12 O    PRO D   6      12.576  25.168  47.574  1.00 14.28 LIG-0.27  OA
ATOM     13 H    THR D   7      12.159  23.208  45.299  1.00 13.33 LIG 0.16  HD
BRANCH 11 14
ATOM     14  CA  PRO D   6      12.967  22.805  47.703  1.00 20.50 LIG 0.18  C 
ATOM     15  CB  PRO D   6      12.306  22.780  49.080  1.00 26.18 LIG 0.04  C 
ATOM     16  CG  PRO D   6      13.358  23.271  50.013  1.00 30.25 LIG 0.02  C 
ATOM     17  CD  PRO D   6      14.637  22.724  49.474  1.00 26.41 LIG 0.13  C 
ATOM     18  N   PRO D   6      14.399  22.729  48.022  1.00 20.28 LIG-0.34  N 
ATOM     19  C   TYR D   5      15.368  22.736  47.096  1.00 26.16 LIG 0.26  C 
ATOM     20 O    TYR D   5      15.132  22.787  45.891  1.00 27.79 LIG-0.27  OA
BRANCH 19 21
ATOM     21  CA  TYR D   5      16.807  22.671  47.603  1.00 28.17 LIG 0.40  C 
ATOM     22  N   TYR D   5      17.164  21.300  47.941  1.00 34.40 LIG 0.61  N 
BRANCH 21 23
ATOM     23  CB  TYR D   5      17.771  23.229  46.552  1.00 23.65 LIG 0.09  C 
BRANCH 23 24
ATOM     24  CG  TYR D   5      17.330  24.545  45.949  1.00 24.31 LIG-0.06  A 
ATOM     25  CD2 TYR D   5      17.547  24.821  44.605  1.00 24.91 LIG 0.01  A 
ATOM     26  CE2 TYR D   5      17.150  26.020  44.047  1.00 24.35 LIG 0.04  A 
ATOM     27  CZ  TYR D   5      16.523  26.963  44.833  1.00 25.18 LIG 0.07  A 
ATOM     28  CE1 TYR D   5      16.294  26.717  46.173  1.00 25.68 LIG 0.04  A 
ATOM     29  CD1 TYR D   5      16.697  25.512  46.722  1.00 25.57 LIG 0.01  A 
BRANCH 27 30
ATOM     30 OH   TYR D   5      16.129  28.155  44.270  1.00 28.89 LIG-0.36  OA
ATOM     31 HH   TYR D   5      15.898  28.025  43.473  1.00 28.89 LIG 0.22  HD
ENDBRANCH 27 30
ENDBRANCH 23 24
ENDBRANCH 21 23
ENDBRANCH 19 21
ENDBRANCH 11 14
ENDBRANCH 5 10
ENDBRANCH 1 5
BRANCH 3 32
ATOM     32  CA  SER D   8       8.375  23.806  44.318  1.00  7.80 LIG 0.20  C 
BRANCH 32 33
ATOM     33  CB  SER D   8       8.133  22.405  43.767  1.00  7.43 LIG 0.20  C 
BRANCH 33 34
ATOM     34 OG   SER D   8       8.300  22.374  42.367  1.00  7.87 LIG-0.40  OA
ATOM     35 HG   SER D   8       8.219  23.150  42.057  1.00  7.87 LIG 0.21  HD
ENDBRANCH 33 34
ENDBRANCH 32 33
BRANCH 32 36
ATOM     36  C   SER D   8       7.498  24.032  45.529  1.00  7.75 LIG 0.24  C 
ATOM     37 O    SER D   8       6.677  23.186  45.882  1.00  8.57 LIG-0.27  OA
ATOM     38  N   ILE D   9       7.672  25.180  46.165  1.00  7.82 LIG-0.35  N 
ATOM     39 H    ILE D   9       8.292  25.746  45.980  1.00  7.82 LIG 0.16  HD
BRANCH 38 40
ATOM     40  CA  ILE D   9       6.798  25.572  47.254  1.00  8.70 LIG 0.18  C 
BRANCH 40 41
ATOM     41  C   ILE D   9       7.130  24.726  48.467  1.00  9.89 LIG 0.24  C 
ATOM     42  N   ILE D  10       6.584  23.518  48.495  1.00  9.26 LIG-0.34  N 
ATOM     43 H    ILE D  10       6.065  23.214  47.880  1.00  9.26 LIG 0.16  HD
ATOM     44 O    ILE D   9       7.831  25.174  49.377  1.00 11.43 LIG-0.27  OA
BRANCH 42 45
ATOM     45  CA  ILE D  10       6.819  22.588  49.587  1.00 10.77 LIG 0.19  C 
BRANCH 45 46
ATOM     46  CB  ILE D  10       8.324  22.457  49.904  1.00 11.26 LIG 0.01  C 
ATOM     47  CG2 ILE D  10       8.528  21.811  51.271  1.00 13.36 LIG 0.01  C 
BRANCH 46 48
ATOM     48  CG1 ILE D  10       9.038  21.653  48.813  1.00 10.59 LIG 0.00  C 
ATOM     49  CD1 ILE D  10       9.427  22.477  47.601  1.00 13.29 LIG 0.01  C 
ENDBRANCH 46 48
ENDBRANCH 45 46
BRANCH 45 50
ATOM     50  C   ILE D  10       6.075  23.031  50.839  1.00 10.61 LIG 0.20  C 
ATOM     51 O    ILE D  10       5.298  22.267  51.425  1.00 10.13 LIG-0.65  OA
ATOM     52 OXT  ILE D  10       6.241  24.175  51.261  1.00 13.38 LIG-0.65  OA
ENDBRANCH 45 50
ENDBRANCH 42 45
ENDBRANCH 40 41
BRANCH 40 53
ATOM     53  CB  ILE D   9       5.315  25.450  46.871  1.00  9.74 LIG 0.01  C 
ATOM     54  CG2 ILE D   9       4.435  26.087  47.940  1.00 14.85 LIG 0.01  C 
BRANCH 53 55
ATOM     55  CG1 ILE D   9       5.095  26.105  45.510  1.00  9.98 LIG 0.00  C 
ATOM     56  CD1 ILE D   9       3.833  25.660  44.806  1.00 13.31 LIG 0.01  C 
ENDBRANCH 53 55
ENDBRANCH 40 53
ENDBRANCH 38 40
ENDBRANCH 32 36
ENDBRANCH 3 32
TORSDOF 21
ENDMDL
MODEL 25
USER: ADFR SOLUTION from run 47
USER: SCORE 16.286661 LL:  -5.090 LR: -13.203 RR:   0.000 FEB:  -6.939
USER: RMSD 6.469333
USER: SEED 46
USER: STATUS no improvement in best in 10 clusters for 5 generations
USER: GENES 23
USER: genes 0 Translation |==|  0.47811 0.48230 0.62154
USER: genes 1 Rotation |==|  0.07197 0.43063 0.67800 0.67405
USER: genes 2 Torsion [N]-C--CA-[N] |==|  0.08520
USER: genes 3 Torsion [C]-CA--CB-[CG2] |==|  0.43520
USER: genes 4 Torsion [CA]-CB--OG1-[HG1] |==|  0.24573
USER: genes 5 Torsion [C]-CA--N-[C] |==|  0.65556
USER: genes 6 Torsion [N]-C--CA-[CB] |==|  0.25169
USER: genes 7 Torsion [N]-C--CA-[N] |==|  0.38660
USER: genes 8 Torsion [C]-CA--CB-[CG] |==|  0.25220
USER: genes 9 Torsion [CA]-CB--CG-[CD1] |==|  0.18498
USER: genes 10 Torsion [CE2]-CZ--OH-[HH] |==|  0.92709
USER: genes 11 Torsion [C]-N--CA-[CB] |==|  0.51706
USER: genes 12 Torsion [N]-CA--CB-[OG] |==|  0.87723
USER: genes 13 Torsion [CA]-CB--OG-[HG] |==|  0.75786
USER: genes 14 Torsion [N]-CA--C-[N] |==|  0.42545
USER: genes 15 Torsion [C]-N--CA-[CB] |==|  0.37308
USER: genes 16 Torsion [N]-CA--C-[N] |==|  0.85761
USER: genes 17 Torsion [C]-N--CA-[CB] |==|  0.78595
USER: genes 18 Torsion [N]-CA--CB-[CG2] |==|  0.56109
USER: genes 19 Torsion [CA]-CB--CG1-[CD1] |==|  0.41317
USER: genes 20 Torsion [N]-CA--C-[O] |==|  0.64060
USER: genes 21 Torsion [N]-CA--CB-[CG1] |==|  0.54029
USER: genes 22 Torsion [CA]-CB--CG1-[CD1] |==|  0.73340
ROOT
ATOM      1  C   THR D   7      15.208  25.153  44.892  1.00  9.65 LIG 0.24  C 
ATOM      2 O    THR D   7      14.692  25.103  43.765  1.00 10.36 LIG-0.27  OA
ATOM      3  N   SER D   8      14.768  24.455  45.935  1.00  8.02 LIG-0.34  N 
ATOM      4 H    SER D   8      15.193  24.390  46.679  1.00  8.02 LIG 0.16  HD
ENDROOT
BRANCH 1 5
ATOM      5  CA  THR D   7      16.420  26.029  45.160  1.00 11.21 LIG 0.20  C 
BRANCH 5 6
ATOM      6  CB  THR D   7      17.208  26.217  43.850  1.00 12.81 LIG 0.15  C 
ATOM      7  CG2 THR D   7      18.053  27.480  43.892  1.00 13.23 LIG 0.04  C 
BRANCH 6 8
ATOM      8 OG1  THR D   7      18.065  25.087  43.644  1.00 15.88 LIG-0.39  OA
ATOM      9 HG1  THR D   7      17.648  24.492  43.222  1.00 15.88 LIG 0.21  HD
ENDBRANCH 6 8
ENDBRANCH 5 6
BRANCH 5 10
ATOM     10  N   THR D   7      17.274  25.453  46.188  1.00 13.33 LIG-0.34  N 
ATOM     11  C   PRO D   6      17.602  26.124  47.285  1.00 13.20 LIG 0.24  C 
ATOM     12 O    PRO D   6      17.158  27.240  47.553  1.00 14.28 LIG-0.27  OA
ATOM     13 H    THR D   7      17.539  24.653  46.019  1.00 13.33 LIG 0.16  HD
BRANCH 11 14
ATOM     14  CA  PRO D   6      18.560  25.422  48.246  1.00 20.50 LIG 0.18  C 
ATOM     15  CB  PRO D   6      19.999  25.787  47.879  1.00 26.18 LIG 0.04  C 
ATOM     16  CG  PRO D   6      20.476  24.646  47.047  1.00 30.25 LIG 0.02  C 
ATOM     17  CD  PRO D   6      19.840  23.438  47.650  1.00 26.41 LIG 0.13  C 
ATOM     18  N   PRO D   6      18.548  23.959  48.121  1.00 20.28 LIG-0.34  N 
ATOM     19  C   TYR D   5      17.463  23.204  48.341  1.00 26.16 LIG 0.26  C 
ATOM     20 O    TYR D   5      16.385  23.680  48.690  1.00 27.79 LIG-0.27  OA
BRANCH 19 21
ATOM     21  CA  TYR D   5      17.619  21.698  48.145  1.00 28.17 LIG 0.40  C 
ATOM     22  N   TYR D   5      16.914  20.974  49.195  1.00 34.40 LIG 0.61  N 
BRANCH 21 23
ATOM     23  CB  TYR D   5      17.097  21.280  46.768  1.00 23.65 LIG 0.09  C 
BRANCH 23 24
ATOM     24  CG  TYR D   5      18.150  21.293  45.680  1.00 24.31 LIG-0.06  A 
ATOM     25  CD2 TYR D   5      18.077  22.197  44.629  1.00 24.91 LIG 0.01  A 
ATOM     26  CE2 TYR D   5      19.032  22.214  43.631  1.00 24.35 LIG 0.04  A 
ATOM     27  CZ  TYR D   5      20.081  21.321  43.677  1.00 25.18 LIG 0.07  A 
ATOM     28  CE1 TYR D   5      20.180  20.411  44.711  1.00 25.68 LIG 0.04  A 
ATOM     29  CD1 TYR D   5      19.217  20.401  45.704  1.00 25.57 LIG 0.01  A 
BRANCH 27 30
ATOM     30 OH   TYR D   5      21.030  21.346  42.681  1.00 28.89 LIG-0.36  OA
ATOM     31 HH   TYR D   5      20.690  21.655  41.978  1.00 28.89 LIG 0.22  HD
ENDBRANCH 27 30
ENDBRANCH 23 24
ENDBRANCH 21 23
ENDBRANCH 19 21
ENDBRANCH 11 14
ENDBRANCH 5 10
ENDBRANCH 1 5
BRANCH 3 32
ATOM     32  CA  SER D   8      13.513  23.733  45.901  1.00  7.80 LIG 0.20  C 
BRANCH 32 33
ATOM     33  CB  SER D   8      13.184  23.151  47.271  1.00  7.43 LIG 0.20  C 
BRANCH 33 34
ATOM     34 OG   SER D   8      14.321  22.553  47.855  1.00  7.87 LIG-0.40  OA
ATOM     35 HG   SER D   8      14.379  21.754  47.602  1.00  7.87 LIG 0.21  HD
ENDBRANCH 33 34
ENDBRANCH 32 33
BRANCH 32 36
ATOM     36  C   SER D   8      12.420  24.691  45.483  1.00  7.75 LIG 0.24  C 
ATOM     37 O    SER D   8      12.519  25.898  45.704  1.00  8.57 LIG-0.27  OA
ATOM     38  N   ILE D   9      11.374  24.151  44.880  1.00  7.82 LIG-0.35  N 
ATOM     39 H    ILE D   9      11.321  23.324  44.649  1.00  7.82 LIG 0.16  HD
BRANCH 38 40
ATOM     40  CA  ILE D   9      10.203  24.944  44.558  1.00  8.70 LIG 0.18  C 
BRANCH 40 41
ATOM     41  C   ILE D   9       9.124  24.649  45.581  1.00  9.89 LIG 0.24  C 
ATOM     42  N   ILE D  10       8.851  23.365  45.776  1.00  9.26 LIG-0.34  N 
ATOM     43 H    ILE D  10       9.244  22.725  45.357  1.00  9.26 LIG 0.16  HD
ATOM     44 O    ILE D   9       8.523  25.563  46.148  1.00 11.43 LIG-0.27  OA
BRANCH 42 45
ATOM     45  CA  ILE D  10       7.850  22.924  46.733  1.00 10.77 LIG 0.19  C 
BRANCH 45 46
ATOM     46  CB  ILE D  10       8.379  23.004  48.181  1.00 11.26 LIG 0.01  C 
ATOM     47  CG2 ILE D  10       7.585  22.071  49.092  1.00 13.36 LIG 0.01  C 
BRANCH 46 48
ATOM     48  CG1 ILE D  10       9.872  22.666  48.231  1.00 10.59 LIG 0.00  C 
ATOM     49  CD1 ILE D  10      10.627  23.390  49.329  1.00 13.29 LIG 0.01  C 
ENDBRANCH 46 48
ENDBRANCH 45 46
BRANCH 45 50
ATOM     50  C   ILE D  10       6.585  23.762  46.610  1.00 10.61 LIG 0.20  C 
ATOM     51 O    ILE D  10       6.065  24.284  47.603  1.00 10.13 LIG-0.65  OA
ATOM     52 OXT  ILE D  10       6.067  23.906  45.503  1.00 13.38 LIG-0.65  OA
ENDBRANCH 45 50
ENDBRANCH 42 45
ENDBRANCH 40 41
BRANCH 40 53
ATOM     53  CB  ILE D   9       9.709  24.684  43.127  1.00  9.74 LIG 0.01  C 
ATOM     54  CG2 ILE D   9       9.066  23.306  43.028  1.00 14.85 LIG 0.01  C 
BRANCH 53 55
ATOM     55  CG1 ILE D   9       8.728  25.783  42.729  1.00  9.98 LIG 0.00  C 
ATOM     56  CD1 ILE D   9       7.275  25.418  42.933  1.00 13.31 LIG 0.01  C 
ENDBRANCH 53 55
ENDBRANCH 40 53
ENDBRANCH 38 40
ENDBRANCH 32 36
ENDBRANCH 3 32
TORSDOF 21
ENDMDL
MODEL 26
USER: ADFR SOLUTION from run 90
USER: SCORE 15.166899 LL:  -4.315 LR: -13.202 RR:   0.000 FEB:  -6.937
USER: RMSD 9.455089
USER: SEED 89
USER: STATUS no improvement in best in 11 clusters for 5 generations
USER: GENES 23
USER: genes 0 Translation |==|  0.21796 0.34584 0.66292
USER: genes 1 Rotation |==|  0.23419 0.51944 0.90803 0.61172
USER: genes 2 Torsion [N]-C--CA-[N] |==|  0.97778
USER: genes 3 Torsion [C]-CA--CB-[CG2] |==|  0.45736
USER: genes 4 Torsion [CA]-CB--OG1-[HG1] |==|  0.05691
USER: genes 5 Torsion [C]-CA--N-[C] |==|  0.73260
USER: genes 6 Torsion [N]-C--CA-[CB] |==|  0.17768
USER: genes 7 Torsion [N]-C--CA-[N] |==|  0.83748
USER: genes 8 Torsion [C]-CA--CB-[CG] |==|  0.62944
USER: genes 9 Torsion [CA]-CB--CG-[CD1] |==|  0.25428
USER: genes 10 Torsion [CE2]-CZ--OH-[HH] |==|  0.24897
USER: genes 11 Torsion [C]-N--CA-[CB] |==|  0.54464
USER: genes 12 Torsion [N]-CA--CB-[OG] |==|  0.47234
USER: genes 13 Torsion [CA]-CB--OG-[HG] |==|  0.22793
USER: genes 14 Torsion [N]-CA--C-[N] |==|  0.87981
USER: genes 15 Torsion [C]-N--CA-[CB] |==|  0.28868
USER: genes 16 Torsion [N]-CA--C-[N] |==|  0.36193
USER: genes 17 Torsion [C]-N--CA-[CB] |==|  0.25477
USER: genes 18 Torsion [N]-CA--CB-[CG2] |==|  0.87949
USER: genes 19 Torsion [CA]-CB--CG1-[CD1] |==|  0.42761
USER: genes 20 Torsion [N]-CA--C-[O] |==|  0.95280
USER: genes 21 Torsion [N]-CA--CB-[CG1] |==|  0.83888
USER: genes 22 Torsion [CA]-CB--CG1-[CD1] |==|  0.77480
ROOT
ATOM      1  C   THR D   7       7.988  23.208  45.885  1.00  9.65 LIG 0.24  C 
ATOM      2 O    THR D   7       6.818  22.803  45.966  1.00 10.36 LIG-0.27  OA
ATOM      3  N   SER D   8       8.952  22.851  46.729  1.00  8.02 LIG-0.34  N 
ATOM      4 H    SER D   8       9.784  23.028  46.606  1.00  8.02 LIG 0.16  HD
ENDROOT
BRANCH 1 5
ATOM      5  CA  THR D   7       8.414  24.155  44.775  1.00 11.21 LIG 0.20  C 
BRANCH 5 6
ATOM      6  CB  THR D   7       8.291  23.433  43.419  1.00 12.81 LIG 0.15  C 
ATOM      7  CG2 THR D   7       8.336  24.420  42.264  1.00 13.23 LIG 0.04  C 
BRANCH 6 8
ATOM      8 OG1  THR D   7       9.368  22.498  43.280  1.00 15.88 LIG-0.39  OA
ATOM      9 HG1  THR D   7       9.682  22.317  44.038  1.00 15.88 LIG 0.21  HD
ENDBRANCH 6 8
ENDBRANCH 5 6
BRANCH 5 10
ATOM     10  N   THR D   7       9.774  24.631  44.976  1.00 13.33 LIG-0.34  N 
ATOM     11  C   PRO D   6      10.032  25.795  45.560  1.00 13.20 LIG 0.24  C 
ATOM     12 O    PRO D   6       9.160  26.519  46.038  1.00 14.28 LIG-0.27  OA
ATOM     13 H    THR D   7      10.381  24.096  44.685  1.00 13.33 LIG 0.16  HD
BRANCH 11 14
ATOM     14  CA  PRO D   6      11.503  26.198  45.643  1.00 20.50 LIG 0.18  C 
ATOM     15  CB  PRO D   6      12.052  26.392  44.229  1.00 26.18 LIG 0.04  C 
ATOM     16  CG  PRO D   6      12.735  25.107  43.910  1.00 30.25 LIG 0.02  C 
ATOM     17  CD  PRO D   6      13.341  24.662  45.200  1.00 26.41 LIG 0.13  C 
ATOM     18  N   PRO D   6      12.369  25.147  46.192  1.00 20.28 LIG-0.34  N 
ATOM     19  C   TYR D   5      12.235  24.645  47.427  1.00 26.16 LIG 0.26  C 
ATOM     20 O    TYR D   5      11.380  25.044  48.215  1.00 27.79 LIG-0.27  OA
BRANCH 19 21
ATOM     21  CA  TYR D   5      13.207  23.540  47.833  1.00 28.17 LIG 0.40  C 
ATOM     22  N   TYR D   5      13.099  22.409  46.920  1.00 34.40 LIG 0.61  N 
BRANCH 21 23
ATOM     23  CB  TYR D   5      14.643  24.071  47.855  1.00 23.65 LIG 0.09  C 
BRANCH 23 24
ATOM     24  CG  TYR D   5      15.643  23.170  47.163  1.00 24.31 LIG-0.06  A 
ATOM     25  CD2 TYR D   5      16.288  22.154  47.858  1.00 24.91 LIG 0.01  A 
ATOM     26  CE2 TYR D   5      17.204  21.330  47.234  1.00 24.35 LIG 0.04  A 
ATOM     27  CZ  TYR D   5      17.486  21.512  45.897  1.00 25.18 LIG 0.07  A 
ATOM     28  CE1 TYR D   5      16.860  22.514  45.181  1.00 25.68 LIG 0.04  A 
ATOM     29  CD1 TYR D   5      15.945  23.336  45.816  1.00 25.57 LIG 0.01  A 
BRANCH 27 30
ATOM     30 OH   TYR D   5      18.397  20.685  45.283  1.00 28.89 LIG-0.36  OA
ATOM     31 HH   TYR D   5      18.002  20.013  44.971  1.00 28.89 LIG 0.22  HD
ENDBRANCH 27 30
ENDBRANCH 23 24
ENDBRANCH 21 23
ENDBRANCH 19 21
ENDBRANCH 11 14
ENDBRANCH 5 10
ENDBRANCH 1 5
BRANCH 3 32
ATOM     32  CA  SER D   8       8.673  22.122  47.949  1.00  7.80 LIG 0.20  C 
BRANCH 32 33
ATOM     33  CB  SER D   8       9.859  22.187  48.904  1.00  7.43 LIG 0.20  C 
BRANCH 33 34
ATOM     34 OG   SER D   8       9.518  21.678  50.174  1.00  7.87 LIG-0.40  OA
ATOM     35 HG   SER D   8       9.571  20.840  50.164  1.00  7.87 LIG 0.21  HD
ENDBRANCH 33 34
ENDBRANCH 32 33
BRANCH 32 36
ATOM     36  C   SER D   8       7.458  22.737  48.607  1.00  7.75 LIG 0.24  C 
ATOM     37 O    SER D   8       6.571  22.029  49.082  1.00  8.57 LIG-0.27  OA
ATOM     38  N   ILE D   9       7.418  24.059  48.631  1.00  7.82 LIG-0.35  N 
ATOM     39 H    ILE D   9       8.062  24.568  48.375  1.00  7.82 LIG 0.16  HD
BRANCH 38 40
ATOM     40  CA  ILE D   9       6.243  24.764  49.109  1.00  8.70 LIG 0.18  C 
BRANCH 40 41
ATOM     41  C   ILE D   9       5.898  25.853  48.114  1.00  9.89 LIG 0.24  C 
ATOM     42  N   ILE D  10       4.632  25.894  47.720  1.00  9.26 LIG-0.34  N 
ATOM     43 H    ILE D  10       4.029  25.345  47.993  1.00  9.26 LIG 0.16  HD
ATOM     44 O    ILE D   9       6.767  26.612  47.680  1.00 11.43 LIG-0.27  OA
BRANCH 42 45
ATOM     45  CA  ILE D  10       4.147  26.889  46.778  1.00 10.77 LIG 0.19  C 
BRANCH 45 46
ATOM     46  CB  ILE D  10       4.229  26.378  45.324  1.00 11.26 LIG 0.01  C 
ATOM     47  CG2 ILE D  10       5.560  25.669  45.081  1.00 13.36 LIG 0.01  C 
BRANCH 46 48
ATOM     48  CG1 ILE D  10       3.055  25.445  45.011  1.00 10.59 LIG 0.00  C 
ATOM     49  CD1 ILE D  10       2.688  25.395  43.541  1.00 13.29 LIG 0.01  C 
ENDBRANCH 46 48
ENDBRANCH 45 46
BRANCH 45 50
ATOM     50  C   ILE D  10       2.709  27.275  47.098  1.00 10.61 LIG 0.20  C 
ATOM     51 O    ILE D  10       2.005  26.567  47.828  1.00 10.13 LIG-0.65  OA
ATOM     52 OXT  ILE D  10       2.241  28.301  46.606  1.00 13.38 LIG-0.65  OA
ENDBRANCH 45 50
ENDBRANCH 42 45
ENDBRANCH 40 41
BRANCH 40 53
ATOM     53  CB  ILE D   9       6.451  25.334  50.520  1.00  9.74 LIG 0.01  C 
ATOM     54  CG2 ILE D   9       5.203  26.078  50.982  1.00 14.85 LIG 0.01  C 
BRANCH 53 55
ATOM     55  CG1 ILE D   9       6.800  24.194  51.473  1.00  9.98 LIG 0.00  C 
ATOM     56  CD1 ILE D   9       5.604  23.411  51.965  1.00 13.31 LIG 0.01  C 
ENDBRANCH 53 55
ENDBRANCH 40 53
ENDBRANCH 38 40
ENDBRANCH 32 36
ENDBRANCH 3 32
TORSDOF 21
ENDMDL
MODEL 27
USER: ADFR SOLUTION from run 195
USER: SCORE 15.378703 LL:  -4.988 LR: -13.108 RR:   0.000 FEB:  -6.844
USER: RMSD 6.903563
USER: SEED 194
USER: STATUS no improvement in best in 15 clusters for 5 generations
USER: GENES 23
USER: genes 0 Translation |==|  0.38833 0.39789 0.68116
USER: genes 1 Rotation |==|  0.77923 0.10889 0.63126 0.54287
USER: genes 2 Torsion [N]-C--CA-[N] |==|  0.92736
USER: genes 3 Torsion [C]-CA--CB-[CG2] |==|  0.20378
USER: genes 4 Torsion [CA]-CB--OG1-[HG1] |==|  0.41182
USER: genes 5 Torsion [C]-CA--N-[C] |==|  0.84433
USER: genes 6 Torsion [N]-C--CA-[CB] |==|  0.67706
USER: genes 7 Torsion [N]-C--CA-[N] |==|  0.40428
USER: genes 8 Torsion [C]-CA--CB-[CG] |==|  0.17359
USER: genes 9 Torsion [CA]-CB--CG-[CD1] |==|  0.74298
USER: genes 10 Torsion [CE2]-CZ--OH-[HH] |==|  0.48621
USER: genes 11 Torsion [C]-N--CA-[CB] |==|  0.86705
USER: genes 12 Torsion [N]-CA--CB-[OG] |==|  0.91332
USER: genes 13 Torsion [CA]-CB--OG-[HG] |==|  0.64400
USER: genes 14 Torsion [N]-CA--C-[N] |==|  0.77564
USER: genes 15 Torsion [C]-N--CA-[CB] |==|  0.44642
USER: genes 16 Torsion [N]-CA--C-[N] |==|  0.67979
USER: genes 17 Torsion [C]-N--CA-[CB] |==|  0.30465
USER: genes 18 Torsion [N]-CA--CB-[CG2] |==|  0.70600
USER: genes 19 Torsion [CA]-CB--CG1-[CD1] |==|  0.50724
USER: genes 20 Torsion [N]-CA--C-[O] |==|  0.98631
USER: genes 21 Torsion [N]-CA--CB-[CG1] |==|  0.13189
USER: genes 22 Torsion [CA]-CB--CG1-[CD1] |==|  0.43955
ROOT
ATOM      1  C   THR D   7      12.716  23.950  46.323  1.00  9.65 LIG 0.24  C 
ATOM      2 O    THR D   7      12.035  23.530  45.375  1.00 10.36 LIG-0.27  OA
ATOM      3  N   SER D   8      13.255  25.165  46.361  1.00  8.02 LIG-0.34  N 
ATOM      4 H    SER D   8      13.620  25.504  47.063  1.00  8.02 LIG 0.16  HD
ENDROOT
BRANCH 1 5
ATOM      5  CA  THR D   7      12.975  23.084  47.545  1.00 11.21 LIG 0.20  C 
BRANCH 5 6
ATOM      6  CB  THR D   7      11.777  23.196  48.507  1.00 12.81 LIG 0.15  C 
ATOM      7  CG2 THR D   7      10.571  22.440  47.975  1.00 13.23 LIG 0.04  C 
BRANCH 6 8
ATOM      8 OG1  THR D   7      12.141  22.658  49.784  1.00 15.88 LIG-0.39  OA
ATOM      9 HG1  THR D   7      11.729  23.069  50.390  1.00 15.88 LIG 0.21  HD
ENDBRANCH 6 8
ENDBRANCH 5 6
BRANCH 5 10
ATOM     10  N   THR D   7      14.205  23.471  48.218  1.00 13.33 LIG-0.34  N 
ATOM     11  C   PRO D   6      15.372  23.505  47.585  1.00 13.20 LIG 0.24  C 
ATOM     12 O    PRO D   6      15.493  23.288  46.380  1.00 14.28 LIG-0.27  OA
ATOM     13 H    THR D   7      14.105  23.671  49.049  1.00 13.33 LIG 0.16  HD
BRANCH 11 14
ATOM     14  CA  PRO D   6      16.591  23.862  48.433  1.00 20.50 LIG 0.18  C 
ATOM     15  CB  PRO D   6      17.185  25.178  47.930  1.00 26.18 LIG 0.04  C 
ATOM     16  CG  PRO D   6      18.304  24.768  47.035  1.00 30.25 LIG 0.02  C 
ATOM     17  CD  PRO D   6      18.886  23.553  47.677  1.00 26.41 LIG 0.13  C 
ATOM     18  N   PRO D   6      17.706  22.917  48.284  1.00 20.28 LIG-0.34  N 
ATOM     19  C   TYR D   5      17.624  21.617  48.598  1.00 26.16 LIG 0.26  C 
ATOM     20 O    TYR D   5      16.605  21.111  49.062  1.00 27.79 LIG-0.27  OA
BRANCH 19 21
ATOM     21  CA  TYR D   5      18.872  20.770  48.361  1.00 28.17 LIG 0.40  C 
ATOM     22  N   TYR D   5      18.987  19.739  49.384  1.00 34.40 LIG 0.61  N 
BRANCH 21 23
ATOM     23  CB  TYR D   5      18.834  20.137  46.968  1.00 23.65 LIG 0.09  C 
BRANCH 23 24
ATOM     24  CG  TYR D   5      18.832  21.141  45.835  1.00 24.31 LIG-0.06  A 
ATOM     25  CD2 TYR D   5      20.023  21.632  45.315  1.00 24.91 LIG 0.01  A 
ATOM     26  CE2 TYR D   5      20.029  22.549  44.283  1.00 24.35 LIG 0.04  A 
ATOM     27  CZ  TYR D   5      18.834  22.989  43.754  1.00 25.18 LIG 0.07  A 
ATOM     28  CE1 TYR D   5      17.634  22.518  44.251  1.00 25.68 LIG 0.04  A 
ATOM     29  CD1 TYR D   5      17.639  21.600  45.286  1.00 25.57 LIG 0.01  A 
BRANCH 27 30
ATOM     30 OH   TYR D   5      18.849  23.902  42.725  1.00 28.89 LIG-0.36  OA
ATOM     31 HH   TYR D   5      18.065  24.031  42.453  1.00 28.89 LIG 0.22  HD
ENDBRANCH 27 30
ENDBRANCH 23 24
ENDBRANCH 21 23
ENDBRANCH 19 21
ENDBRANCH 11 14
ENDBRANCH 5 10
ENDBRANCH 1 5
BRANCH 3 32
ATOM     32  CA  SER D   8      13.274  26.034  45.203  1.00  7.80 LIG 0.20  C 
BRANCH 32 33
ATOM     33  CB  SER D   8      13.763  25.285  43.969  1.00  7.43 LIG 0.20  C 
BRANCH 33 34
ATOM     34 OG   SER D   8      14.690  24.281  44.318  1.00  7.87 LIG-0.40  OA
ATOM     35 HG   SER D   8      15.384  24.366  43.853  1.00  7.87 LIG 0.21  HD
ENDBRANCH 33 34
ENDBRANCH 32 33
BRANCH 32 36
ATOM     36  C   SER D   8      11.870  26.543  44.964  1.00  7.75 LIG 0.24  C 
ATOM     37 O    SER D   8      11.529  27.660  45.350  1.00  8.57 LIG-0.27  OA
ATOM     38  N   ILE D   9      11.054  25.717  44.328  1.00  7.82 LIG-0.35  N 
ATOM     39 H    ILE D   9      11.296  24.968  43.984  1.00  7.82 LIG 0.16  HD
BRANCH 38 40
ATOM     40  CA  ILE D   9       9.648  26.034  44.164  1.00  8.70 LIG 0.18  C 
BRANCH 40 41
ATOM     41  C   ILE D   9       8.944  25.799  45.484  1.00  9.89 LIG 0.24  C 
ATOM     42  N   ILE D  10       8.037  24.830  45.490  1.00  9.26 LIG-0.34  N 
ATOM     43 H    ILE D  10       7.840  24.358  44.799  1.00  9.26 LIG 0.16  HD
ATOM     44 O    ILE D   9       9.185  26.506  46.464  1.00 11.43 LIG-0.27  OA
BRANCH 42 45
ATOM     45  CA  ILE D  10       7.287  24.480  46.685  1.00 10.77 LIG 0.19  C 
BRANCH 45 46
ATOM     46  CB  ILE D  10       5.805  24.894  46.563  1.00 11.26 LIG 0.01  C 
ATOM     47  CG2 ILE D  10       5.521  26.122  47.424  1.00 13.36 LIG 0.01  C 
BRANCH 46 48
ATOM     48  CG1 ILE D  10       5.438  25.163  45.100  1.00 10.59 LIG 0.00  C 
ATOM     49  CD1 ILE D  10       4.010  25.637  44.905  1.00 13.29 LIG 0.01  C 
ENDBRANCH 46 48
ENDBRANCH 45 46
BRANCH 45 50
ATOM     50  C   ILE D  10       7.374  22.984  46.953  1.00 10.61 LIG 0.20  C 
ATOM     51 O    ILE D  10       7.940  22.224  46.158  1.00 10.13 LIG-0.65  OA
ATOM     52 OXT  ILE D  10       6.856  22.528  47.971  1.00 13.38 LIG-0.65  OA
ENDBRANCH 45 50
ENDBRANCH 42 45
ENDBRANCH 40 41
BRANCH 40 53
ATOM     53  CB  ILE D   9       9.006  25.220  43.029  1.00  9.74 LIG 0.01  C 
ATOM     54  CG2 ILE D   9       9.435  25.768  41.673  1.00 14.85 LIG 0.01  C 
BRANCH 53 55
ATOM     55  CG1 ILE D   9       9.399  23.753  43.183  1.00  9.98 LIG 0.00  C 
ATOM     56  CD1 ILE D   9       8.465  22.787  42.491  1.00 13.31 LIG 0.01  C 
ENDBRANCH 53 55
ENDBRANCH 40 53
ENDBRANCH 38 40
ENDBRANCH 32 36
ENDBRANCH 3 32
TORSDOF 21
ENDMDL
MODEL 28
USER: ADFR SOLUTION from run 110
USER: SCORE 15.707380 LL:  -4.788 LR: -13.105 RR:   0.000 FEB:  -6.840
USER: RMSD 8.323439
USER: SEED 109
USER: STATUS no improvement in best in 10 clusters for 5 generations
USER: GENES 23
USER: genes 0 Translation |==|  0.30963 0.46910 0.59039
USER: genes 1 Rotation |==|  0.06061 0.49294 0.56576 0.72927
USER: genes 2 Torsion [N]-C--CA-[N] |==|  0.12345
USER: genes 3 Torsion [C]-CA--CB-[CG2] |==|  0.30557
USER: genes 4 Torsion [CA]-CB--OG1-[HG1] |==|  0.48829
USER: genes 5 Torsion [C]-CA--N-[C] |==|  0.62215
USER: genes 6 Torsion [N]-C--CA-[CB] |==|  0.64123
USER: genes 7 Torsion [N]-C--CA-[N] |==|  0.22400
USER: genes 8 Torsion [C]-CA--CB-[CG] |==|  0.12652
USER: genes 9 Torsion [CA]-CB--CG-[CD1] |==|  0.11636
USER: genes 10 Torsion [CE2]-CZ--OH-[HH] |==|  0.10832
USER: genes 11 Torsion [C]-N--CA-[CB] |==|  0.20556
USER: genes 12 Torsion [N]-CA--CB-[OG] |==|  0.16978
USER: genes 13 Torsion [CA]-CB--OG-[HG] |==|  0.86494
USER: genes 14 Torsion [N]-CA--C-[N] |==|  0.02029
USER: genes 15 Torsion [C]-N--CA-[CB] |==|  0.45087
USER: genes 16 Torsion [N]-CA--C-[N] |==|  0.27316
USER: genes 17 Torsion [C]-N--CA-[CB] |==|  0.48153
USER: genes 18 Torsion [N]-CA--CB-[CG2] |==|  0.57466
USER: genes 19 Torsion [CA]-CB--CG1-[CD1] |==|  0.83552
USER: genes 20 Torsion [N]-CA--C-[O] |==|  0.89518
USER: genes 21 Torsion [N]-CA--CB-[CG1] |==|  0.79705
USER: genes 22 Torsion [CA]-CB--CG1-[CD1] |==|  0.19267
ROOT
ATOM      1  C   THR D   7      10.532  24.965  44.144  1.00  9.65 LIG 0.24  C 
ATOM      2 O    THR D   7      10.414  25.243  42.941  1.00 10.36 LIG-0.27  OA
ATOM      3  N   SER D   8       9.547  24.468  44.886  1.00  8.02 LIG-0.34  N 
ATOM      4 H    SER D   8       9.656  24.158  45.681  1.00  8.02 LIG 0.16  HD
ENDROOT
BRANCH 1 5
ATOM      5  CA  THR D   7      11.853  25.165  44.869  1.00 11.21 LIG 0.20  C 
BRANCH 5 6
ATOM      6  CB  THR D   7      12.965  25.418  43.832  1.00 12.81 LIG 0.15  C 
ATOM      7  CG2 THR D   7      13.451  26.857  43.886  1.00 13.23 LIG 0.04  C 
BRANCH 6 8
ATOM      8 OG1  THR D   7      14.068  24.541  44.095  1.00 15.88 LIG-0.39  OA
ATOM      9 HG1  THR D   7      14.651  24.637  43.497  1.00 15.88 LIG 0.21  HD
ENDBRANCH 6 8
ENDBRANCH 5 6
BRANCH 5 10
ATOM     10  N   THR D   7      12.184  24.017  45.698  1.00 13.33 LIG-0.34  N 
ATOM     11  C   PRO D   6      12.649  24.154  46.934  1.00 13.20 LIG 0.24  C 
ATOM     12 O    PRO D   6      12.765  25.243  47.495  1.00 14.28 LIG-0.27  OA
ATOM     13 H    THR D   7      12.051  23.257  45.318  1.00 13.33 LIG 0.16  HD
BRANCH 11 14
ATOM     14  CA  PRO D   6      13.018  22.864  47.664  1.00 20.50 LIG 0.18  C 
ATOM     15  CB  PRO D   6      12.344  22.852  49.036  1.00 26.18 LIG 0.04  C 
ATOM     16  CG  PRO D   6      13.397  23.329  49.977  1.00 30.25 LIG 0.02  C 
ATOM     17  CD  PRO D   6      14.672  22.761  49.449  1.00 26.41 LIG 0.13  C 
ATOM     18  N   PRO D   6      14.446  22.767  47.996  1.00 20.28 LIG-0.34  N 
ATOM     19  C   TYR D   5      15.422  22.757  47.078  1.00 26.16 LIG 0.26  C 
ATOM     20 O    TYR D   5      15.197  22.809  45.871  1.00 27.79 LIG-0.27  OA
BRANCH 19 21
ATOM     21  CA  TYR D   5      16.856  22.672  47.597  1.00 28.17 LIG 0.40  C 
ATOM     22  N   TYR D   5      17.195  21.294  47.927  1.00 34.40 LIG 0.61  N 
BRANCH 21 23
ATOM     23  CB  TYR D   5      17.835  23.228  46.560  1.00 23.65 LIG 0.09  C 
BRANCH 23 24
ATOM     24  CG  TYR D   5      17.400  24.540  45.943  1.00 24.31 LIG-0.06  A 
ATOM     25  CD2 TYR D   5      17.550  24.772  44.582  1.00 24.91 LIG 0.01  A 
ATOM     26  CE2 TYR D   5      17.158  25.967  44.012  1.00 24.35 LIG 0.04  A 
ATOM     27  CZ  TYR D   5      16.605  26.951  44.804  1.00 25.18 LIG 0.07  A 
ATOM     28  CE1 TYR D   5      16.445  26.749  46.161  1.00 25.68 LIG 0.04  A 
ATOM     29  CD1 TYR D   5      16.842  25.548  46.722  1.00 25.57 LIG 0.01  A 
BRANCH 27 30
ATOM     30 OH   TYR D   5      16.215  28.138  44.228  1.00 28.89 LIG-0.36  OA
ATOM     31 HH   TYR D   5      15.867  27.986  43.479  1.00 28.89 LIG 0.22  HD
ENDBRANCH 27 30
ENDBRANCH 23 24
ENDBRANCH 21 23
ENDBRANCH 19 21
ENDBRANCH 11 14
ENDBRANCH 5 10
ENDBRANCH 1 5
BRANCH 3 32
ATOM     32  CA  SER D   8       8.182  24.405  44.407  1.00  7.80 LIG 0.20  C 
BRANCH 32 33
ATOM     33  CB  SER D   8       8.020  23.299  43.370  1.00  7.43 LIG 0.20  C 
BRANCH 33 34
ATOM     34 OG   SER D   8       8.322  22.037  43.922  1.00  7.87 LIG-0.40  OA
ATOM     35 HG   SER D   8       9.053  22.078  44.333  1.00  7.87 LIG 0.21  HD
ENDBRANCH 33 34
ENDBRANCH 32 33
BRANCH 32 36
ATOM     36  C   SER D   8       7.273  24.133  45.584  1.00  7.75 LIG 0.24  C 
ATOM     37 O    SER D   8       6.075  23.905  45.419  1.00  8.57 LIG-0.27  OA
ATOM     38  N   ILE D   9       7.845  24.160  46.777  1.00  7.82 LIG-0.35  N 
ATOM     39 H    ILE D   9       8.692  24.240  46.907  1.00  7.82 LIG 0.16  HD
BRANCH 38 40
ATOM     40  CA  ILE D   9       7.055  24.053  47.989  1.00  8.70 LIG 0.18  C 
BRANCH 40 41
ATOM     41  C   ILE D   9       6.332  25.366  48.210  1.00  9.89 LIG 0.24  C 
ATOM     42  N   ILE D  10       5.069  25.404  47.806  1.00  9.26 LIG-0.34  N 
ATOM     43 H    ILE D  10       4.667  24.740  47.434  1.00  9.26 LIG 0.16  HD
ATOM     44 O    ILE D   9       6.916  26.336  48.695  1.00 11.43 LIG-0.27  OA
BRANCH 42 45
ATOM     45  CA  ILE D  10       4.242  26.589  47.960  1.00 10.77 LIG 0.19  C 
BRANCH 45 46
ATOM     46  CB  ILE D  10       2.875  26.419  47.262  1.00 11.26 LIG 0.01  C 
ATOM     47  CG2 ILE D  10       2.315  27.777  46.847  1.00 13.36 LIG 0.01  C 
BRANCH 46 48
ATOM     48  CG1 ILE D  10       3.000  25.492  46.048  1.00 10.59 LIG 0.00  C 
ATOM     49  CD1 ILE D  10       3.981  25.984  45.002  1.00 13.29 LIG 0.01  C 
ENDBRANCH 46 48
ENDBRANCH 45 46
BRANCH 45 50
ATOM     50  C   ILE D  10       4.022  26.901  49.433  1.00 10.61 LIG 0.20  C 
ATOM     51 O    ILE D  10       3.861  25.996  50.261  1.00 10.13 LIG-0.65  OA
ATOM     52 OXT  ILE D  10       3.988  28.076  49.798  1.00 13.38 LIG-0.65  OA
ENDBRANCH 45 50
ENDBRANCH 42 45
ENDBRANCH 40 41
BRANCH 40 53
ATOM     53  CB  ILE D   9       7.917  23.673  49.203  1.00  9.74 LIG 0.01  C 
ATOM     54  CG2 ILE D   9       7.159  23.942  50.499  1.00 14.85 LIG 0.01  C 
BRANCH 53 55
ATOM     55  CG1 ILE D   9       8.317  22.205  49.091  1.00  9.98 LIG 0.00  C 
ATOM     56  CD1 ILE D   9       9.299  21.915  47.979  1.00 13.31 LIG 0.01  C 
ENDBRANCH 53 55
ENDBRANCH 40 53
ENDBRANCH 38 40
ENDBRANCH 32 36
ENDBRANCH 3 32
TORSDOF 21
ENDMDL
MODEL 29
USER: ADFR SOLUTION from run 9
USER: SCORE 17.164401 LL:  -5.444 LR: -13.036 RR:   0.000 FEB:  -6.772
USER: RMSD 12.511333
USER: SEED 389582
USER: STATUS no improvement in best in 3 clusters for 5 generations
USER: GENES 23
USER: genes 0 Translation |==|  0.31495 0.50057 0.56572
USER: genes 1 Rotation |==|  0.61744 0.95346 0.33409 0.55528
USER: genes 2 Torsion [N]-C--CA-[N] |==|  0.15902
USER: genes 3 Torsion [C]-CA--CB-[CG2] |==|  0.28345
USER: genes 4 Torsion [CA]-CB--OG1-[HG1] |==|  0.35035
USER: genes 5 Torsion [C]-CA--N-[C] |==|  0.79180
USER: genes 6 Torsion [N]-C--CA-[CB] |==|  0.59059
USER: genes 7 Torsion [N]-C--CA-[N] |==|  0.32849
USER: genes 8 Torsion [C]-CA--CB-[CG] |==|  0.81947
USER: genes 9 Torsion [CA]-CB--CG-[CD1] |==|  0.74954
USER: genes 10 Torsion [CE2]-CZ--OH-[HH] |==|  0.94189
USER: genes 11 Torsion [C]-N--CA-[CB] |==|  0.25556
USER: genes 12 Torsion [N]-CA--CB-[OG] |==|  0.47578
USER: genes 13 Torsion [CA]-CB--OG-[HG] |==|  0.11627
USER: genes 14 Torsion [N]-CA--C-[N] |==|  0.99955
USER: genes 15 Torsion [C]-N--CA-[CB] |==|  0.18099
USER: genes 16 Torsion [N]-CA--C-[N] |==|  0.09999
USER: genes 17 Torsion [C]-N--CA-[CB] |==|  0.17333
USER: genes 18 Torsion [N]-CA--CB-[CG2] |==|  0.27493
USER: genes 19 Torsion [CA]-CB--CG1-[CD1] |==|  0.77239
USER: genes 20 Torsion [N]-CA--C-[O] |==|  0.51665
USER: genes 21 Torsion [N]-CA--CB-[CG1] |==|  0.53243
USER: genes 22 Torsion [CA]-CB--CG1-[CD1] |==|  0.35814
ROOT
ATOM      1  C   THR D   7      10.680  25.413  43.552  1.00  9.65 LIG 0.24  C 
ATOM      2 O    THR D   7      10.968  25.438  42.346  1.00 10.36 LIG-0.27  OA
ATOM      3  N   SER D   8      11.571  25.217  44.519  1.00  8.02 LIG-0.34  N 
ATOM      4 H    SER D   8      11.400  25.322  45.355  1.00  8.02 LIG 0.16  HD
ENDROOT
BRANCH 1 5
ATOM      5  CA  THR D   7       9.249  25.626  44.020  1.00 11.21 LIG 0.20  C 
BRANCH 5 6
ATOM      6  CB  THR D   7       8.345  25.851  42.793  1.00 12.81 LIG 0.15  C 
ATOM      7  CG2 THR D   7       7.558  24.597  42.451  1.00 13.23 LIG 0.04  C 
BRANCH 6 8
ATOM      8 OG1  THR D   7       7.428  26.918  43.069  1.00 15.88 LIG-0.39  OA
ATOM      9 HG1  THR D   7       7.484  27.499  42.464  1.00 15.88 LIG 0.21  HD
ENDBRANCH 6 8
ENDBRANCH 5 6
BRANCH 5 10
ATOM     10  N   THR D   7       9.152  26.751  44.936  1.00 13.33 LIG-0.34  N 
ATOM     11  C   PRO D   6       9.568  26.671  46.194  1.00 13.20 LIG 0.24  C 
ATOM     12 O    PRO D   6      10.129  25.678  46.658  1.00 14.28 LIG-0.27  OA
ATOM     13 H    THR D   7       8.807  27.459  44.591  1.00 13.33 LIG 0.16  HD
BRANCH 11 14
ATOM     14  CA  PRO D   6       9.343  27.908  47.062  1.00 20.50 LIG 0.18  C 
ATOM     15  CB  PRO D   6      10.477  28.023  48.080  1.00 26.18 LIG 0.04  C 
ATOM     16  CG  PRO D   6       9.928  27.419  49.327  1.00 30.25 LIG 0.02  C 
ATOM     17  CD  PRO D   6       8.488  27.807  49.340  1.00 26.41 LIG 0.13  C 
ATOM     18  N   PRO D   6       8.146  27.817  47.910  1.00 20.28 LIG-0.34  N 
ATOM     19  C   TYR D   5       6.903  27.688  47.427  1.00 26.16 LIG 0.26  C 
ATOM     20 O    TYR D   5       6.659  27.655  46.223  1.00 27.79 LIG-0.27  OA
BRANCH 19 21
ATOM     21  CA  TYR D   5       5.773  27.588  48.450  1.00 28.17 LIG 0.40  C 
ATOM     22  N   TYR D   5       4.848  28.703  48.295  1.00 34.40 LIG 0.61  N 
BRANCH 21 23
ATOM     23  CB  TYR D   5       5.032  26.256  48.301  1.00 23.65 LIG 0.09  C 
BRANCH 23 24
ATOM     24  CG  TYR D   5       4.302  26.103  46.984  1.00 24.31 LIG-0.06  A 
ATOM     25  CD2 TYR D   5       4.934  25.546  45.879  1.00 24.91 LIG 0.01  A 
ATOM     26  CE2 TYR D   5       4.275  25.405  44.674  1.00 24.35 LIG 0.04  A 
ATOM     27  CZ  TYR D   5       2.966  25.820  44.559  1.00 25.18 LIG 0.07  A 
ATOM     28  CE1 TYR D   5       2.312  26.377  45.641  1.00 25.68 LIG 0.04  A 
ATOM     29  CD1 TYR D   5       2.981  26.515  46.844  1.00 25.57 LIG 0.01  A 
BRANCH 27 30
ATOM     30 OH   TYR D   5       2.316  25.674  43.355  1.00 28.89 LIG-0.36  OA
ATOM     31 HH   TYR D   5       2.882  25.601  42.738  1.00 28.89 LIG 0.22  HD
ENDBRANCH 27 30
ENDBRANCH 23 24
ENDBRANCH 21 23
ENDBRANCH 19 21
ENDBRANCH 11 14
ENDBRANCH 5 10
ENDBRANCH 1 5
BRANCH 3 32
ATOM     32  CA  SER D   8      12.930  24.802  44.239  1.00  7.80 LIG 0.20  C 
BRANCH 32 33
ATOM     33  CB  SER D   8      13.848  26.010  44.092  1.00  7.43 LIG 0.20  C 
BRANCH 33 34
ATOM     34 OG   SER D   8      15.200  25.615  44.017  1.00  7.87 LIG-0.40  OA
ATOM     35 HG   SER D   8      15.267  24.938  43.525  1.00  7.87 LIG 0.21  HD
ENDBRANCH 33 34
ENDBRANCH 32 33
BRANCH 32 36
ATOM     36  C   SER D   8      13.411  23.935  45.380  1.00  7.75 LIG 0.24  C 
ATOM     37 O    SER D   8      14.542  23.451  45.373  1.00  8.57 LIG-0.27  OA
ATOM     38  N   ILE D   9      12.547  23.737  46.363  1.00  7.82 LIG-0.35  N 
ATOM     39 H    ILE D   9      11.784  24.129  46.423  1.00  7.82 LIG 0.16  HD
BRANCH 38 40
ATOM     40  CA  ILE D   9      12.840  22.814  47.443  1.00  8.70 LIG 0.18  C 
BRANCH 40 41
ATOM     41  C   ILE D   9      11.591  22.643  48.283  1.00  9.89 LIG 0.24  C 
ATOM     42  N   ILE D  10      10.443  22.653  47.618  1.00  9.26 LIG-0.34  N 
ATOM     43 H    ILE D  10      10.386  22.755  46.766  1.00  9.26 LIG 0.16  HD
ATOM     44 O    ILE D   9      11.662  22.548  49.510  1.00 11.43 LIG-0.27  OA
BRANCH 42 45
ATOM     45  CA  ILE D  10       9.161  22.489  48.284  1.00 10.77 LIG 0.19  C 
BRANCH 45 46
ATOM     46  CB  ILE D  10       8.895  23.634  49.286  1.00 11.26 LIG 0.01  C 
ATOM     47  CG2 ILE D  10       7.980  24.686  48.664  1.00 13.36 LIG 0.01  C 
BRANCH 46 48
ATOM     48  CG1 ILE D  10       8.289  23.088  50.582  1.00 10.59 LIG 0.00  C 
ATOM     49  CD1 ILE D  10       6.793  22.852  50.505  1.00 13.29 LIG 0.01  C 
ENDBRANCH 46 48
ENDBRANCH 45 46
BRANCH 45 50
ATOM     50  C   ILE D  10       8.031  22.434  47.267  1.00 10.61 LIG 0.20  C 
ATOM     51 O    ILE D  10       6.848  22.408  47.627  1.00 10.13 LIG-0.65  OA
ATOM     52 OXT  ILE D  10       8.305  22.399  46.068  1.00 13.38 LIG-0.65  OA
ENDBRANCH 45 50
ENDBRANCH 42 45
ENDBRANCH 40 41
BRANCH 40 53
ATOM     53  CB  ILE D   9      14.031  23.285  48.292  1.00  9.74 LIG 0.01  C 
ATOM     54  CG2 ILE D   9      13.657  24.529  49.089  1.00 14.85 LIG 0.01  C 
BRANCH 53 55
ATOM     55  CG1 ILE D   9      14.467  22.149  49.213  1.00  9.98 LIG 0.00  C 
ATOM     56  CD1 ILE D   9      15.946  21.841  49.158  1.00 13.31 LIG 0.01  C 
ENDBRANCH 53 55
ENDBRANCH 40 53
ENDBRANCH 38 40
ENDBRANCH 32 36
ENDBRANCH 3 32
TORSDOF 21
ENDMDL
MODEL 30
USER: ADFR SOLUTION from run 133
USER: SCORE 14.948308 LL:  -4.008 LR: -13.040 RR:   0.000 FEB:  -6.775
USER: RMSD 4.952940
USER: SEED 132
USER: STATUS no improvement in best in 8 clusters for 5 generations
USER: GENES 23
USER: genes 0 Translation |==|  0.44137 0.39401 0.67523
USER: genes 1 Rotation |==|  0.91596 0.64326 0.43114 0.72739
USER: genes 2 Torsion [N]-C--CA-[N] |==|  0.46740
USER: genes 3 Torsion [C]-CA--CB-[CG2] |==|  0.28639
USER: genes 4 Torsion [CA]-CB--OG1-[HG1] |==|  0.07417
USER: genes 5 Torsion [C]-CA--N-[C] |==|  0.68626
USER: genes 6 Torsion [N]-C--CA-[CB] |==|  0.77000
USER: genes 7 Torsion [N]-C--CA-[N] |==|  0.83907
USER: genes 8 Torsion [C]-CA--CB-[CG] |==|  0.06660
USER: genes 9 Torsion [CA]-CB--CG-[CD1] |==|  0.67026
USER: genes 10 Torsion [CE2]-CZ--OH-[HH] |==|  0.59653
USER: genes 11 Torsion [C]-N--CA-[CB] |==|  0.25530
USER: genes 12 Torsion [N]-CA--CB-[OG] |==|  0.71500
USER: genes 13 Torsion [CA]-CB--OG-[HG] |==|  0.08084
USER: genes 14 Torsion [N]-CA--C-[N] |==|  0.41343
USER: genes 15 Torsion [C]-N--CA-[CB] |==|  0.86090
USER: genes 16 Torsion [N]-CA--C-[N] |==|  0.78343
USER: genes 17 Torsion [C]-N--CA-[CB] |==|  0.87169
USER: genes 18 Torsion [N]-CA--CB-[CG2] |==|  0.49158
USER: genes 19 Torsion [CA]-CB--CG1-[CD1] |==|  0.74177
USER: genes 20 Torsion [N]-CA--C-[O] |==|  0.96389
USER: genes 21 Torsion [N]-CA--CB-[CG1] |==|  0.80345
USER: genes 22 Torsion [CA]-CB--CG1-[CD1] |==|  0.29931
ROOT
ATOM      1  C   THR D   7      14.188  23.895  46.180  1.00  9.65 LIG 0.24  C 
ATOM      2 O    THR D   7      14.863  22.855  46.148  1.00 10.36 LIG-0.27  OA
ATOM      3  N   SER D   8      13.094  24.040  46.921  1.00  8.02 LIG-0.34  N 
ATOM      4 H    SER D   8      12.695  24.792  47.043  1.00  8.02 LIG 0.16  HD
ENDROOT
BRANCH 1 5
ATOM      5  CA  THR D   7      14.586  25.112  45.362  1.00 11.21 LIG 0.20  C 
BRANCH 5 6
ATOM      6  CB  THR D   7      13.555  25.324  44.236  1.00 12.81 LIG 0.15  C 
ATOM      7  CG2 THR D   7      12.604  26.461  44.568  1.00 13.23 LIG 0.04  C 
BRANCH 6 8
ATOM      8 OG1  THR D   7      14.242  25.627  43.015  1.00 15.88 LIG-0.39  OA
ATOM      9 HG1  THR D   7      15.011  25.289  43.035  1.00 15.88 LIG 0.21  HD
ENDBRANCH 6 8
ENDBRANCH 5 6
BRANCH 5 10
ATOM     10  N   THR D   7      15.922  24.965  44.807  1.00 13.33 LIG-0.34  N 
ATOM     11  C   PRO D   6      16.934  25.728  45.199  1.00 13.20 LIG 0.24  C 
ATOM     12 O    PRO D   6      16.843  26.558  46.104  1.00 14.28 LIG-0.27  OA
ATOM     13 H    THR D   7      15.991  24.348  44.212  1.00 13.33 LIG 0.16  HD
BRANCH 11 14
ATOM     14  CA  PRO D   6      18.265  25.509  44.482  1.00 20.50 LIG 0.18  C 
ATOM     15  CB  PRO D   6      18.992  24.325  45.119  1.00 26.18 LIG 0.04  C 
ATOM     16  CG  PRO D   6      19.954  24.942  46.075  1.00 30.25 LIG 0.02  C 
ATOM     17  CD  PRO D   6      20.413  26.194  45.405  1.00 26.41 LIG 0.13  C 
ATOM     18  N   PRO D   6      19.216  26.615  44.661  1.00 20.28 LIG-0.34  N 
ATOM     19  C   TYR D   5      18.980  27.870  44.255  1.00 26.16 LIG 0.26  C 
ATOM     20 O    TYR D   5      17.946  28.195  43.675  1.00 27.79 LIG-0.27  OA
BRANCH 19 21
ATOM     21  CA  TYR D   5      20.068  28.903  44.538  1.00 28.17 LIG 0.40  C 
ATOM     22  N   TYR D   5      20.342  28.971  45.968  1.00 34.40 LIG 0.61  N 
BRANCH 21 23
ATOM     23  CB  TYR D   5      21.345  28.562  43.767  1.00 23.65 LIG 0.09  C 
BRANCH 23 24
ATOM     24  CG  TYR D   5      21.113  27.716  42.534  1.00 24.31 LIG-0.06  A 
ATOM     25  CD2 TYR D   5      20.324  28.180  41.489  1.00 24.91 LIG 0.01  A 
ATOM     26  CE2 TYR D   5      20.105  27.412  40.362  1.00 24.35 LIG 0.04  A 
ATOM     27  CZ  TYR D   5      20.679  26.162  40.266  1.00 25.18 LIG 0.07  A 
ATOM     28  CE1 TYR D   5      21.467  25.674  41.289  1.00 25.68 LIG 0.04  A 
ATOM     29  CD1 TYR D   5      21.680  26.451  42.415  1.00 25.57 LIG 0.01  A 
BRANCH 27 30
ATOM     30 OH   TYR D   5      20.457  25.405  39.139  1.00 28.89 LIG-0.36  OA
ATOM     31 HH   TYR D   5      20.417  24.593  39.350  1.00 28.89 LIG 0.22  HD
ENDBRANCH 27 30
ENDBRANCH 23 24
ENDBRANCH 21 23
ENDBRANCH 19 21
ENDBRANCH 11 14
ENDBRANCH 5 10
ENDBRANCH 1 5
BRANCH 3 32
ATOM     32  CA  SER D   8      12.470  22.921  47.598  1.00  7.80 LIG 0.20  C 
BRANCH 32 33
ATOM     33  CB  SER D   8      13.011  22.773  49.015  1.00  7.43 LIG 0.20  C 
BRANCH 33 34
ATOM     34 OG   SER D   8      13.944  21.719  49.096  1.00  7.87 LIG-0.40  OA
ATOM     35 HG   SER D   8      14.328  21.628  48.355  1.00  7.87 LIG 0.21  HD
ENDBRANCH 33 34
ENDBRANCH 32 33
BRANCH 32 36
ATOM     36  C   SER D   8      10.978  23.164  47.647  1.00  7.75 LIG 0.24  C 
ATOM     37 O    SER D   8      10.525  24.306  47.714  1.00  8.57 LIG-0.27  OA
ATOM     38  N   ILE D   9      10.214  22.084  47.617  1.00  7.82 LIG-0.35  N 
ATOM     39 H    ILE D   9      10.508  21.286  47.492  1.00  7.82 LIG 0.16  HD
BRANCH 38 40
ATOM     40  CA  ILE D   9       8.777  22.178  47.799  1.00  8.70 LIG 0.18  C 
BRANCH 40 41
ATOM     41  C   ILE D   9       8.171  22.768  46.542  1.00  9.89 LIG 0.24  C 
ATOM     42  N   ILE D  10       8.293  24.082  46.405  1.00  9.26 LIG-0.34  N 
ATOM     43 H    ILE D  10       8.681  24.588  46.982  1.00  9.26 LIG 0.16  HD
ATOM     44 O    ILE D   9       7.568  22.057  45.737  1.00 11.43 LIG-0.27  OA
BRANCH 42 45
ATOM     45  CA  ILE D  10       7.772  24.791  45.248  1.00 10.77 LIG 0.19  C 
BRANCH 45 46
ATOM     46  CB  ILE D  10       8.141  24.072  43.932  1.00 11.26 LIG 0.01  C 
ATOM     47  CG2 ILE D  10       7.521  24.792  42.738  1.00 13.36 LIG 0.01  C 
BRANCH 46 48
ATOM     48  CG1 ILE D  10       9.662  23.977  43.777  1.00 10.59 LIG 0.00  C 
ATOM     49  CD1 ILE D  10      10.269  25.122  42.989  1.00 13.29 LIG 0.01  C 
ENDBRANCH 46 48
ENDBRANCH 45 46
BRANCH 45 50
ATOM     50  C   ILE D  10       6.259  24.930  45.340  1.00 10.61 LIG 0.20  C 
ATOM     51 O    ILE D  10       5.607  24.280  46.166  1.00 10.13 LIG-0.65  OA
ATOM     52 OXT  ILE D  10       5.680  25.693  44.568  1.00 13.38 LIG-0.65  OA
ENDBRANCH 45 50
ENDBRANCH 42 45
ENDBRANCH 40 41
BRANCH 40 53
ATOM     53  CB  ILE D   9       8.410  23.001  49.043  1.00  9.74 LIG 0.01  C 
ATOM     54  CG2 ILE D   9       6.928  23.359  49.027  1.00 14.85 LIG 0.01  C 
BRANCH 53 55
ATOM     55  CG1 ILE D   9       8.774  22.205  50.293  1.00  9.98 LIG 0.00  C 
ATOM     56  CD1 ILE D   9       9.977  22.738  51.037  1.00 13.31 LIG 0.01  C 
ENDBRANCH 53 55
ENDBRANCH 40 53
ENDBRANCH 38 40
ENDBRANCH 32 36
ENDBRANCH 3 32
TORSDOF 21
ENDMDL
MODEL 31
USER: ADFR SOLUTION from run 8
USER: SCORE 15.323552 LL:  -4.853 LR: -13.011 RR:   0.000 FEB:  -6.747
USER: RMSD 6.910702
USER: SEED 450965
USER: STATUS no improvement in best in 15 clusters for 5 generations
USER: GENES 23
USER: genes 0 Translation |==|  0.42487 0.46805 0.64820
USER: genes 1 Rotation |==|  0.99029 0.54259 0.48484 0.58699
USER: genes 2 Torsion [N]-C--CA-[N] |==|  0.30165
USER: genes 3 Torsion [C]-CA--CB-[CG2] |==|  0.08781
USER: genes 4 Torsion [CA]-CB--OG1-[HG1] |==|  0.58111
USER: genes 5 Torsion [C]-CA--N-[C] |==|  0.75631
USER: genes 6 Torsion [N]-C--CA-[CB] |==|  0.21411
USER: genes 7 Torsion [N]-C--CA-[N] |==|  0.36998
USER: genes 8 Torsion [C]-CA--CB-[CG] |==|  0.22758
USER: genes 9 Torsion [CA]-CB--CG-[CD1] |==|  0.28777
USER: genes 10 Torsion [CE2]-CZ--OH-[HH] |==|  0.38700
USER: genes 11 Torsion [C]-N--CA-[CB] |==|  0.44521
USER: genes 12 Torsion [N]-CA--CB-[OG] |==|  0.53248
USER: genes 13 Torsion [CA]-CB--OG-[HG] |==|  0.03804
USER: genes 14 Torsion [N]-CA--C-[N] |==|  0.46101
USER: genes 15 Torsion [C]-N--CA-[CB] |==|  0.46009
USER: genes 16 Torsion [N]-CA--C-[N] |==|  0.88503
USER: genes 17 Torsion [C]-N--CA-[CB] |==|  0.39617
USER: genes 18 Torsion [N]-CA--CB-[CG2] |==|  0.24926
USER: genes 19 Torsion [CA]-CB--CG1-[CD1] |==|  0.57927
USER: genes 20 Torsion [N]-CA--C-[O] |==|  0.50343
USER: genes 21 Torsion [N]-CA--CB-[CG1] |==|  0.51502
USER: genes 22 Torsion [CA]-CB--CG1-[CD1] |==|  0.45703
ROOT
ATOM      1  C   THR D   7      13.730  24.950  45.532  1.00  9.65 LIG 0.24  C 
ATOM      2 O    THR D   7      14.035  23.903  44.941  1.00 10.36 LIG-0.27  OA
ATOM      3  N   SER D   8      12.543  25.161  46.091  1.00  8.02 LIG-0.34  N 
ATOM      4 H    SER D   8      12.368  25.827  46.605  1.00  8.02 LIG 0.16  HD
ENDROOT
BRANCH 1 5
ATOM      5  CA  THR D   7      14.727  26.088  45.673  1.00 11.21 LIG 0.20  C 
BRANCH 5 6
ATOM      6  CB  THR D   7      15.307  26.427  44.286  1.00 12.81 LIG 0.15  C 
ATOM      7  CG2 THR D   7      14.288  26.175  43.187  1.00 13.23 LIG 0.04  C 
BRANCH 6 8
ATOM      8 OG1  THR D   7      15.694  27.807  44.257  1.00 15.88 LIG-0.39  OA
ATOM      9 HG1  THR D   7      15.627  28.101  43.473  1.00 15.88 LIG 0.21  HD
ENDBRANCH 6 8
ENDBRANCH 5 6
BRANCH 5 10
ATOM     10  N   THR D   7      15.794  25.748  46.600  1.00 13.33 LIG-0.34  N 
ATOM     11  C   PRO D   6      15.688  25.967  47.905  1.00 13.20 LIG 0.24  C 
ATOM     12 O    PRO D   6      14.665  26.399  48.436  1.00 14.28 LIG-0.27  OA
ATOM     13 H    THR D   7      16.487  25.398  46.229  1.00 13.33 LIG 0.16  HD
BRANCH 11 14
ATOM     14  CA  PRO D   6      16.912  25.623  48.751  1.00 20.50 LIG 0.18  C 
ATOM     15  CB  PRO D   6      17.963  26.721  48.585  1.00 26.18 LIG 0.04  C 
ATOM     16  CG  PRO D   6      18.901  26.193  47.555  1.00 30.25 LIG 0.02  C 
ATOM     17  CD  PRO D   6      18.976  24.726  47.819  1.00 26.41 LIG 0.13  C 
ATOM     18  N   PRO D   6      17.619  24.418  48.296  1.00 20.28 LIG-0.34  N 
ATOM     19  C   TYR D   5      17.061  23.201  48.258  1.00 26.16 LIG 0.26  C 
ATOM     20 O    TYR D   5      15.907  22.989  48.624  1.00 27.79 LIG-0.27  OA
BRANCH 19 21
ATOM     21  CA  TYR D   5      17.931  22.059  47.738  1.00 28.17 LIG 0.40  C 
ATOM     22  N   TYR D   5      17.835  20.905  48.622  1.00 34.40 LIG 0.61  N 
BRANCH 21 23
ATOM     23  CB  TYR D   5      17.518  21.675  46.315  1.00 23.65 LIG 0.09  C 
BRANCH 23 24
ATOM     24  CG  TYR D   5      18.105  22.566  45.241  1.00 24.31 LIG-0.06  A 
ATOM     25  CD2 TYR D   5      17.591  23.836  45.009  1.00 24.91 LIG 0.01  A 
ATOM     26  CE2 TYR D   5      18.120  24.654  44.030  1.00 24.35 LIG 0.04  A 
ATOM     27  CZ  TYR D   5      19.178  24.208  43.267  1.00 25.18 LIG 0.07  A 
ATOM     28  CE1 TYR D   5      19.709  22.950  43.475  1.00 25.68 LIG 0.04  A 
ATOM     29  CD1 TYR D   5      19.171  22.138  44.458  1.00 25.57 LIG 0.01  A 
BRANCH 27 30
ATOM     30 OH   TYR D   5      19.700  25.030  42.295  1.00 28.89 LIG-0.36  OA
ATOM     31 HH   TYR D   5      20.538  24.971  42.298  1.00 28.89 LIG 0.22  HD
ENDBRANCH 27 30
ENDBRANCH 23 24
ENDBRANCH 21 23
ENDBRANCH 19 21
ENDBRANCH 11 14
ENDBRANCH 5 10
ENDBRANCH 1 5
BRANCH 3 32
ATOM     32  CA  SER D   8      11.423  24.268  45.876  1.00  7.80 LIG 0.20  C 
BRANCH 32 33
ATOM     33  CB  SER D   8      10.372  24.441  46.967  1.00  7.43 LIG 0.20  C 
BRANCH 33 34
ATOM     34 OG   SER D   8       9.416  23.406  46.921  1.00  7.87 LIG-0.40  OA
ATOM     35 HG   SER D   8       9.697  22.786  46.430  1.00  7.87 LIG 0.21  HD
ENDBRANCH 33 34
ENDBRANCH 32 33
BRANCH 32 36
ATOM     36  C   SER D   8      10.812  24.582  44.530  1.00  7.75 LIG 0.24  C 
ATOM     37 O    SER D   8      11.094  25.621  43.934  1.00  8.57 LIG-0.27  OA
ATOM     38  N   ILE D   9       9.968  23.681  44.051  1.00  7.82 LIG-0.35  N 
ATOM     39 H    ILE D   9       9.819  22.916  44.414  1.00  7.82 LIG 0.16  HD
BRANCH 38 40
ATOM     40  CA  ILE D   9       9.213  23.933  42.838  1.00  8.70 LIG 0.18  C 
BRANCH 40 41
ATOM     41  C   ILE D   9       8.164  24.985  43.133  1.00  9.89 LIG 0.24  C 
ATOM     42  N   ILE D  10       7.537  24.864  44.296  1.00  9.26 LIG-0.34  N 
ATOM     43 H    ILE D  10       7.694  24.233  44.859  1.00  9.26 LIG 0.16  HD
ATOM     44 O    ILE D   9       7.899  25.862  42.309  1.00 11.43 LIG-0.27  OA
BRANCH 42 45
ATOM     45  CA  ILE D  10       6.514  25.803  44.725  1.00 10.77 LIG 0.19  C 
BRANCH 45 46
ATOM     46  CB  ILE D  10       5.372  25.088  45.480  1.00 11.26 LIG 0.01  C 
ATOM     47  CG2 ILE D  10       5.676  25.029  46.975  1.00 13.36 LIG 0.01  C 
BRANCH 46 48
ATOM     48  CG1 ILE D  10       4.034  25.790  45.227  1.00 10.59 LIG 0.00  C 
ATOM     49  CD1 ILE D  10       3.043  25.646  46.365  1.00 13.29 LIG 0.01  C 
ENDBRANCH 46 48
ENDBRANCH 45 46
BRANCH 45 50
ATOM     50  C   ILE D  10       7.114  26.880  45.617  1.00 10.61 LIG 0.20  C 
ATOM     51 O    ILE D  10       6.408  27.768  46.109  1.00 10.13 LIG-0.65  OA
ATOM     52 OXT  ILE D  10       8.325  26.871  45.835  1.00 13.38 LIG-0.65  OA
ENDBRANCH 45 50
ENDBRANCH 42 45
ENDBRANCH 40 41
BRANCH 40 53
ATOM     53  CB  ILE D   9       8.582  22.648  42.279  1.00  9.74 LIG 0.01  C 
ATOM     54  CG2 ILE D   9       7.578  22.073  43.271  1.00 14.85 LIG 0.01  C 
BRANCH 53 55
ATOM     55  CG1 ILE D   9       7.920  22.960  40.939  1.00  9.98 LIG 0.00  C 
ATOM     56  CD1 ILE D   9       7.588  21.737  40.114  1.00 13.31 LIG 0.01  C 
ENDBRANCH 53 55
ENDBRANCH 40 53
ENDBRANCH 38 40
ENDBRANCH 32 36
ENDBRANCH 3 32
TORSDOF 21
ENDMDL
MODEL 32
USER: ADFR SOLUTION from run 91
USER: SCORE 15.369569 LL:  -4.232 LR: -12.996 RR:   0.000 FEB:  -6.731
USER: RMSD 5.710455
USER: SEED 90
USER: STATUS no improvement in best in 11 clusters for 5 generations
USER: GENES 23
USER: genes 0 Translation |==|  0.41796 0.44071 0.64012
USER: genes 1 Rotation |==|  0.02255 0.59368 0.61483 0.50897
USER: genes 2 Torsion [N]-C--CA-[N] |==|  0.37822
USER: genes 3 Torsion [C]-CA--CB-[CG2] |==|  0.22782
USER: genes 4 Torsion [CA]-CB--OG1-[HG1] |==|  0.16375
USER: genes 5 Torsion [C]-CA--N-[C] |==|  0.66344
USER: genes 6 Torsion [N]-C--CA-[CB] |==|  0.63362
USER: genes 7 Torsion [N]-C--CA-[N] |==|  0.30784
USER: genes 8 Torsion [C]-CA--CB-[CG] |==|  0.80833
USER: genes 9 Torsion [CA]-CB--CG-[CD1] |==|  0.30114
USER: genes 10 Torsion [CE2]-CZ--OH-[HH] |==|  0.91076
USER: genes 11 Torsion [C]-N--CA-[CB] |==|  0.56111
USER: genes 12 Torsion [N]-CA--CB-[OG] |==|  0.01500
USER: genes 13 Torsion [CA]-CB--OG-[HG] |==|  0.51618
USER: genes 14 Torsion [N]-CA--C-[N] |==|  0.33079
USER: genes 15 Torsion [C]-N--CA-[CB] |==|  0.45475
USER: genes 16 Torsion [N]-CA--C-[N] |==|  0.90336
USER: genes 17 Torsion [C]-N--CA-[CB] |==|  0.32510
USER: genes 18 Torsion [N]-CA--CB-[CG2] |==|  0.31068
USER: genes 19 Torsion [CA]-CB--CG1-[CD1] |==|  0.61055
USER: genes 20 Torsion [N]-CA--C-[O] |==|  0.43099
USER: genes 21 Torsion [N]-CA--CB-[CG1] |==|  0.51792
USER: genes 22 Torsion [CA]-CB--CG1-[CD1] |==|  0.54004
ROOT
ATOM      1  C   THR D   7      13.538  24.560  45.338  1.00  9.65 LIG 0.24  C 
ATOM      2 O    THR D   7      13.000  23.838  44.485  1.00 10.36 LIG-0.27  OA
ATOM      3  N   SER D   8      12.884  25.109  46.357  1.00  8.02 LIG-0.34  N 
ATOM      4 H    SER D   8      13.271  25.505  47.015  1.00  8.02 LIG 0.16  HD
ENDROOT
BRANCH 1 5
ATOM      5  CA  THR D   7      15.027  24.863  45.282  1.00 11.21 LIG 0.20  C 
BRANCH 5 6
ATOM      6  CB  THR D   7      15.281  25.957  44.227  1.00 12.81 LIG 0.15  C 
ATOM      7  CG2 THR D   7      15.015  27.341  44.795  1.00 13.23 LIG 0.04  C 
BRANCH 6 8
ATOM      8 OG1  THR D   7      16.643  25.885  43.786  1.00 15.88 LIG-0.39  OA
ATOM      9 HG1  THR D   7      16.792  25.124  43.461  1.00 15.88 LIG 0.21  HD
ENDBRANCH 6 8
ENDBRANCH 5 6
BRANCH 5 10
ATOM     10  N   THR D   7      15.800  23.670  44.973  1.00 13.33 LIG-0.34  N 
ATOM     11  C   PRO D   6      16.740  23.211  45.790  1.00 13.20 LIG 0.24  C 
ATOM     12 O    PRO D   6      16.978  23.706  46.891  1.00 14.28 LIG-0.27  OA
ATOM     13 H    THR D   7      15.593  23.299  44.225  1.00 13.33 LIG 0.16  HD
BRANCH 11 14
ATOM     14  CA  PRO D   6      17.519  21.989  45.306  1.00 20.50 LIG 0.18  C 
ATOM     15  CB  PRO D   6      17.573  20.950  46.427  1.00 26.18 LIG 0.04  C 
ATOM     16  CG  PRO D   6      18.898  21.163  47.074  1.00 30.25 LIG 0.02  C 
ATOM     17  CD  PRO D   6      19.819  21.523  45.956  1.00 26.41 LIG 0.13  C 
ATOM     18  N   PRO D   6      18.937  22.265  45.042  1.00 20.28 LIG-0.34  N 
ATOM     19  C   TYR D   5      19.364  23.144  44.125  1.00 26.16 LIG 0.26  C 
ATOM     20 O    TYR D   5      18.595  23.781  43.409  1.00 27.79 LIG-0.27  OA
BRANCH 19 21
ATOM     21  CA  TYR D   5      20.875  23.325  43.994  1.00 28.17 LIG 0.40  C 
ATOM     22  N   TYR D   5      21.342  22.783  42.725  1.00 34.40 LIG 0.61  N 
BRANCH 21 23
ATOM     23  CB  TYR D   5      21.249  24.805  44.112  1.00 23.65 LIG 0.09  C 
BRANCH 23 24
ATOM     24  CG  TYR D   5      20.795  25.650  42.941  1.00 24.31 LIG-0.06  A 
ATOM     25  CD2 TYR D   5      21.411  25.539  41.701  1.00 24.91 LIG 0.01  A 
ATOM     26  CE2 TYR D   5      21.004  26.308  40.628  1.00 24.35 LIG 0.04  A 
ATOM     27  CZ  TYR D   5      19.967  27.203  40.786  1.00 25.18 LIG 0.07  A 
ATOM     28  CE1 TYR D   5      19.337  27.336  42.008  1.00 25.68 LIG 0.04  A 
ATOM     29  CD1 TYR D   5      19.753  26.561  43.076  1.00 25.57 LIG 0.01  A 
BRANCH 27 30
ATOM     30 OH   TYR D   5      19.567  27.964  39.712  1.00 28.89 LIG-0.36  OA
ATOM     31 HH   TYR D   5      20.228  28.128  39.221  1.00 28.89 LIG 0.22  HD
ENDBRANCH 27 30
ENDBRANCH 23 24
ENDBRANCH 21 23
ENDBRANCH 19 21
ENDBRANCH 11 14
ENDBRANCH 5 10
ENDBRANCH 1 5
BRANCH 3 32
ATOM     32  CA  SER D   8      11.439  25.086  46.443  1.00  7.80 LIG 0.20  C 
BRANCH 32 33
ATOM     33  CB  SER D   8      10.931  26.197  47.356  1.00  7.43 LIG 0.20  C 
BRANCH 33 34
ATOM     34 OG   SER D   8      11.988  27.031  47.778  1.00  7.87 LIG-0.40  OA
ATOM     35 HG   SER D   8      11.701  27.584  48.340  1.00  7.87 LIG 0.21  HD
ENDBRANCH 33 34
ENDBRANCH 32 33
BRANCH 32 36
ATOM     36  C   SER D   8      10.873  25.274  45.054  1.00  7.75 LIG 0.24  C 
ATOM     37 O    SER D   8      11.103  26.297  44.410  1.00  8.57 LIG-0.27  OA
ATOM     38  N   ILE D   9      10.127  24.282  44.592  1.00  7.82 LIG-0.35  N 
ATOM     39 H    ILE D   9      10.020  23.530  44.994  1.00  7.82 LIG 0.16  HD
BRANCH 38 40
ATOM     40  CA  ILE D   9       9.417  24.404  43.333  1.00  8.70 LIG 0.18  C 
BRANCH 40 41
ATOM     41  C   ILE D   9       8.247  25.346  43.530  1.00  9.89 LIG 0.24  C 
ATOM     42  N   ILE D  10       7.659  25.296  44.718  1.00  9.26 LIG-0.34  N 
ATOM     43 H    ILE D  10       7.904  24.766  45.349  1.00  9.26 LIG 0.16  HD
ATOM     44 O    ILE D   9       7.858  26.071  42.612  1.00 11.43 LIG-0.27  OA
BRANCH 42 45
ATOM     45  CA  ILE D  10       6.531  26.147  45.059  1.00 10.77 LIG 0.19  C 
BRANCH 45 46
ATOM     46  CB  ILE D  10       5.263  25.315  45.349  1.00 11.26 LIG 0.01  C 
ATOM     47  CG2 ILE D  10       4.890  25.408  46.827  1.00 13.36 LIG 0.01  C 
BRANCH 46 48
ATOM     48  CG1 ILE D  10       4.099  25.779  44.467  1.00 10.59 LIG 0.00  C 
ATOM     49  CD1 ILE D  10       2.764  25.812  45.185  1.00 13.29 LIG 0.01  C 
ENDBRANCH 46 48
ENDBRANCH 45 46
BRANCH 45 50
ATOM     50  C   ILE D  10       6.858  27.010  46.270  1.00 10.61 LIG 0.20  C 
ATOM     51 O    ILE D  10       6.278  28.086  46.462  1.00 10.13 LIG-0.65  OA
ATOM     52 OXT  ILE D  10       7.724  26.633  47.057  1.00 13.38 LIG-0.65  OA
ENDBRANCH 45 50
ENDBRANCH 42 45
ENDBRANCH 40 41
BRANCH 40 53
ATOM     53  CB  ILE D   9       8.957  23.038  42.801  1.00  9.74 LIG 0.01  C 
ATOM     54  CG2 ILE D   9       7.948  22.407  43.753  1.00 14.85 LIG 0.01  C 
BRANCH 53 55
ATOM     55  CG1 ILE D   9       8.363  23.220  41.407  1.00  9.98 LIG 0.00  C 
ATOM     56  CD1 ILE D   9       7.569  22.032  40.913  1.00 13.31 LIG 0.01  C 
ENDBRANCH 53 55
ENDBRANCH 40 53
ENDBRANCH 38 40
ENDBRANCH 32 36
ENDBRANCH 3 32
TORSDOF 21
ENDMDL
MODEL 33
USER: ADFR SOLUTION from run 5
USER: SCORE 15.045212 LL:  -3.803 LR: -12.958 RR:   0.000 FEB:  -6.694
USER: RMSD 6.063843
USER: SEED 621620
USER: STATUS searching
USER: GENES 23
USER: genes 0 Translation |==|  0.39803 0.41776 0.64192
USER: genes 1 Rotation |==|  0.02396 0.51329 0.64956 0.52893
USER: genes 2 Torsion [N]-C--CA-[N] |==|  0.34004
USER: genes 3 Torsion [C]-CA--CB-[CG2] |==|  0.25991
USER: genes 4 Torsion [CA]-CB--OG1-[HG1] |==|  0.10193
USER: genes 5 Torsion [C]-CA--N-[C] |==|  0.76959
USER: genes 6 Torsion [N]-C--CA-[CB] |==|  0.58170
USER: genes 7 Torsion [N]-C--CA-[N] |==|  0.17537
USER: genes 8 Torsion [C]-CA--CB-[CG] |==|  0.80544
USER: genes 9 Torsion [CA]-CB--CG-[CD1] |==|  0.80844
USER: genes 10 Torsion [CE2]-CZ--OH-[HH] |==|  0.97090
USER: genes 11 Torsion [C]-N--CA-[CB] |==|  0.49064
USER: genes 12 Torsion [N]-CA--CB-[OG] |==|  0.98984
USER: genes 13 Torsion [CA]-CB--OG-[HG] |==|  0.66790
USER: genes 14 Torsion [N]-CA--C-[N] |==|  0.46802
USER: genes 15 Torsion [C]-N--CA-[CB] |==|  0.23888
USER: genes 16 Torsion [N]-CA--C-[N] |==|  0.39057
USER: genes 17 Torsion [C]-N--CA-[CB] |==|  0.34117
USER: genes 18 Torsion [N]-CA--CB-[CG2] |==|  0.83542
USER: genes 19 Torsion [CA]-CB--CG1-[CD1] |==|  0.32071
USER: genes 20 Torsion [N]-CA--C-[O] |==|  0.56559
USER: genes 21 Torsion [N]-CA--CB-[CG1] |==|  0.07179
USER: genes 22 Torsion [CA]-CB--CG1-[CD1] |==|  0.46532
ROOT
ATOM      1  C   THR D   7      12.985  24.233  45.381  1.00  9.65 LIG 0.24  C 
ATOM      2 O    THR D   7      12.556  23.527  44.456  1.00 10.36 LIG-0.27  OA
ATOM      3  N   SER D   8      12.351  24.397  46.538  1.00  8.02 LIG-0.34  N 
ATOM      4 H    SER D   8      12.700  24.781  47.224  1.00  8.02 LIG 0.16  HD
ENDROOT
BRANCH 1 5
ATOM      5  CA  THR D   7      14.310  24.967  45.256  1.00 11.21 LIG 0.20  C 
BRANCH 5 6
ATOM      6  CB  THR D   7      14.197  26.030  44.146  1.00 12.81 LIG 0.15  C 
ATOM      7  CG2 THR D   7      13.805  27.382  44.718  1.00 13.23 LIG 0.04  C 
BRANCH 6 8
ATOM      8 OG1  THR D   7      15.458  26.153  43.475  1.00 15.88 LIG-0.39  OA
ATOM      9 HG1  THR D   7      15.819  25.396  43.417  1.00 15.88 LIG 0.21  HD
ENDBRANCH 6 8
ENDBRANCH 5 6
BRANCH 5 10
ATOM     10  N   THR D   7      15.401  24.048  44.969  1.00 13.33 LIG-0.34  N 
ATOM     11  C   PRO D   6      16.016  23.366  45.929  1.00 13.20 LIG 0.24  C 
ATOM     12 O    PRO D   6      15.669  23.399  47.109  1.00 14.28 LIG-0.27  OA
ATOM     13 H    THR D   7      15.605  23.991  44.136  1.00 13.33 LIG 0.16  HD
BRANCH 11 14
ATOM     14  CA  PRO D   6      17.188  22.490  45.491  1.00 20.50 LIG 0.18  C 
ATOM     15  CB  PRO D   6      17.303  21.294  46.436  1.00 26.18 LIG 0.04  C 
ATOM     16  CG  PRO D   6      18.355  21.688  47.416  1.00 30.25 LIG 0.02  C 
ATOM     17  CD  PRO D   6      19.345  22.475  46.623  1.00 26.41 LIG 0.13  C 
ATOM     18  N   PRO D   6      18.494  23.148  45.629  1.00 20.28 LIG-0.34  N 
ATOM     19  C   TYR D   5      18.834  24.268  44.977  1.00 26.16 LIG 0.26  C 
ATOM     20 O    TYR D   5      18.079  24.829  44.187  1.00 27.79 LIG-0.27  OA
BRANCH 19 21
ATOM     21  CA  TYR D   5      20.226  24.832  45.253  1.00 28.17 LIG 0.40  C 
ATOM     22  N   TYR D   5      21.249  23.887  44.824  1.00 34.40 LIG 0.61  N 
BRANCH 21 23
ATOM     23  CB  TYR D   5      20.411  26.175  44.543  1.00 23.65 LIG 0.09  C 
BRANCH 23 24
ATOM     24  CG  TYR D   5      20.505  26.068  43.036  1.00 24.31 LIG-0.06  A 
ATOM     25  CD2 TYR D   5      19.488  26.552  42.222  1.00 24.91 LIG 0.01  A 
ATOM     26  CE2 TYR D   5      19.565  26.455  40.847  1.00 24.35 LIG 0.04  A 
ATOM     27  CZ  TYR D   5      20.670  25.871  40.265  1.00 25.18 LIG 0.07  A 
ATOM     28  CE1 TYR D   5      21.696  25.380  41.049  1.00 25.68 LIG 0.04  A 
ATOM     29  CD1 TYR D   5      21.608  25.481  42.426  1.00 25.57 LIG 0.01  A 
BRANCH 27 30
ATOM     30 OH   TYR D   5      20.739  25.780  38.894  1.00 28.89 LIG-0.36  OA
ATOM     31 HH   TYR D   5      19.995  25.983  38.561  1.00 28.89 LIG 0.22  HD
ENDBRANCH 27 30
ENDBRANCH 23 24
ENDBRANCH 21 23
ENDBRANCH 19 21
ENDBRANCH 11 14
ENDBRANCH 5 10
ENDBRANCH 1 5
BRANCH 3 32
ATOM     32  CA  SER D   8      10.994  23.935  46.742  1.00  7.80 LIG 0.20  C 
BRANCH 32 33
ATOM     33  CB  SER D   8      10.547  24.179  48.179  1.00  7.43 LIG 0.20  C 
BRANCH 33 34
ATOM     34 OG   SER D   8      11.598  24.714  48.954  1.00  7.87 LIG-0.40  OA
ATOM     35 HG   SER D   8      11.770  24.193  49.590  1.00  7.87 LIG 0.21  HD
ENDBRANCH 33 34
ENDBRANCH 32 33
BRANCH 32 36
ATOM     36  C   SER D   8      10.085  24.685  45.795  1.00  7.75 LIG 0.24  C 
ATOM     37 O    SER D   8      10.490  25.669  45.177  1.00  8.57 LIG-0.27  OA
ATOM     38  N   ILE D   9       8.851  24.219  45.684  1.00  7.82 LIG-0.35  N 
ATOM     39 H    ILE D   9       8.574  23.491  46.047  1.00  7.82 LIG 0.16  HD
BRANCH 38 40
ATOM     40  CA  ILE D   9       7.848  24.933  44.916  1.00  8.70 LIG 0.18  C 
BRANCH 40 41
ATOM     41  C   ILE D   9       6.487  24.646  45.517  1.00  9.89 LIG 0.24  C 
ATOM     42  N   ILE D  10       5.650  25.673  45.566  1.00  9.26 LIG-0.34  N 
ATOM     43 H    ILE D  10       5.846  26.462  45.287  1.00  9.26 LIG 0.16  HD
ATOM     44 O    ILE D   9       6.217  23.530  45.966  1.00 11.43 LIG-0.27  OA
BRANCH 42 45
ATOM     45  CA  ILE D  10       4.305  25.550  46.105  1.00 10.77 LIG 0.19  C 
BRANCH 45 46
ATOM     46  CB  ILE D  10       4.069  26.542  47.264  1.00 11.26 LIG 0.01  C 
ATOM     47  CG2 ILE D  10       5.067  26.293  48.392  1.00 13.36 LIG 0.01  C 
BRANCH 46 48
ATOM     48  CG1 ILE D  10       4.163  27.988  46.767  1.00 10.59 LIG 0.00  C 
ATOM     49  CD1 ILE D  10       2.861  28.757  46.874  1.00 13.29 LIG 0.01  C 
ENDBRANCH 46 48
ENDBRANCH 45 46
BRANCH 45 50
ATOM     50  C   ILE D  10       3.268  25.788  45.017  1.00 10.61 LIG 0.20  C 
ATOM     51 O    ILE D  10       2.121  26.157  45.297  1.00 10.13 LIG-0.65  OA
ATOM     52 OXT  ILE D  10       3.577  25.592  43.842  1.00 13.38 LIG-0.65  OA
ENDBRANCH 45 50
ENDBRANCH 42 45
ENDBRANCH 40 41
BRANCH 40 53
ATOM     53  CB  ILE D   9       7.896  24.562  43.426  1.00  9.74 LIG 0.01  C 
ATOM     54  CG2 ILE D   9       8.710  25.589  42.648  1.00 14.85 LIG 0.01  C 
BRANCH 53 55
ATOM     55  CG1 ILE D   9       8.486  23.162  43.279  1.00  9.98 LIG 0.00  C 
ATOM     56  CD1 ILE D   9       8.315  22.561  41.902  1.00 13.31 LIG 0.01  C 
ENDBRANCH 53 55
ENDBRANCH 40 53
ENDBRANCH 38 40
ENDBRANCH 32 36
ENDBRANCH 3 32
TORSDOF 21
ENDMDL
MODEL 34
USER: ADFR SOLUTION from run 24
USER: SCORE 14.899107 LL:  -4.671 LR: -12.907 RR:   0.000 FEB:  -6.642
USER: RMSD 6.230249
USER: SEED 23
USER: STATUS no improvement in best in 7 clusters for 5 generations
USER: GENES 23
USER: genes 0 Translation |==|  0.45794 0.58641 0.59694
USER: genes 1 Rotation |==|  0.97255 0.62827 0.54606 0.59014
USER: genes 2 Torsion [N]-C--CA-[N] |==|  0.48661
USER: genes 3 Torsion [C]-CA--CB-[CG2] |==|  0.28878
USER: genes 4 Torsion [CA]-CB--OG1-[HG1] |==|  0.80230
USER: genes 5 Torsion [C]-CA--N-[C] |==|  0.61572
USER: genes 6 Torsion [N]-C--CA-[CB] |==|  0.21668
USER: genes 7 Torsion [N]-C--CA-[N] |==|  0.38870
USER: genes 8 Torsion [C]-CA--CB-[CG] |==|  0.73185
USER: genes 9 Torsion [CA]-CB--CG-[CD1] |==|  0.24997
USER: genes 10 Torsion [CE2]-CZ--OH-[HH] |==|  0.53658
USER: genes 11 Torsion [C]-N--CA-[CB] |==|  0.22763
USER: genes 12 Torsion [N]-CA--CB-[OG] |==|  0.79230
USER: genes 13 Torsion [CA]-CB--OG-[HG] |==|  0.97797
USER: genes 14 Torsion [N]-CA--C-[N] |==|  0.56364
USER: genes 15 Torsion [C]-N--CA-[CB] |==|  0.26608
USER: genes 16 Torsion [N]-CA--C-[N] |==|  0.20207
USER: genes 17 Torsion [C]-N--CA-[CB] |==|  0.43584
USER: genes 18 Torsion [N]-CA--CB-[CG2] |==|  0.51552
USER: genes 19 Torsion [CA]-CB--CG1-[CD1] |==|  0.25615
USER: genes 20 Torsion [N]-CA--C-[O] |==|  0.94113
USER: genes 21 Torsion [N]-CA--CB-[CG1] |==|  0.11490
USER: genes 22 Torsion [CA]-CB--CG1-[CD1] |==|  0.42673
ROOT
ATOM      1  C   THR D   7      14.648  26.636  44.301  1.00  9.65 LIG 0.24  C 
ATOM      2 O    THR D   7      15.423  25.806  43.803  1.00 10.36 LIG-0.27  OA
ATOM      3  N   SER D   8      13.390  26.362  44.636  1.00  8.02 LIG-0.34  N 
ATOM      4 H    SER D   8      12.891  26.893  45.093  1.00  8.02 LIG 0.16  HD
ENDROOT
BRANCH 1 5
ATOM      5  CA  THR D   7      15.101  28.059  44.584  1.00 11.21 LIG 0.20  C 
BRANCH 5 6
ATOM      6  CB  THR D   7      14.253  29.036  43.745  1.00 12.81 LIG 0.15  C 
ATOM      7  CG2 THR D   7      13.211  29.735  44.601  1.00 13.23 LIG 0.04  C 
BRANCH 6 8
ATOM      8 OG1  THR D   7      15.111  30.020  43.153  1.00 15.88 LIG-0.39  OA
ATOM      9 HG1  THR D   7      15.392  30.542  43.748  1.00 15.88 LIG 0.21  HD
ENDBRANCH 6 8
ENDBRANCH 5 6
BRANCH 5 10
ATOM     10  N   THR D   7      16.515  28.234  44.292  1.00 13.33 LIG-0.34  N 
ATOM     11  C   PRO D   6      17.316  28.932  45.088  1.00 13.20 LIG 0.24  C 
ATOM     12 O    PRO D   6      16.949  29.416  46.158  1.00 14.28 LIG-0.27  OA
ATOM     13 H    THR D   7      16.776  27.849  43.568  1.00 13.33 LIG 0.16  HD
BRANCH 11 14
ATOM     14  CA  PRO D   6      18.762  29.090  44.622  1.00 20.50 LIG 0.18  C 
ATOM     15  CB  PRO D   6      18.828  30.165  43.538  1.00 26.18 LIG 0.04  C 
ATOM     16  CG  PRO D   6      18.815  29.408  42.255  1.00 30.25 LIG 0.02  C 
ATOM     17  CD  PRO D   6      19.604  28.171  42.530  1.00 26.41 LIG 0.13  C 
ATOM     18  N   PRO D   6      19.291  27.901  43.941  1.00 20.28 LIG-0.34  N 
ATOM     19  C   TYR D   5      19.405  26.700  44.525  1.00 26.16 LIG 0.26  C 
ATOM     20 O    TYR D   5      19.091  26.500  45.696  1.00 27.79 LIG-0.27  OA
BRANCH 19 21
ATOM     21  CA  TYR D   5      19.956  25.564  43.665  1.00 28.17 LIG 0.40  C 
ATOM     22  N   TYR D   5      20.863  24.733  44.445  1.00 34.40 LIG 0.61  N 
BRANCH 21 23
ATOM     23  CB  TYR D   5      18.814  24.718  43.097  1.00 23.65 LIG 0.09  C 
BRANCH 23 24
ATOM     24  CG  TYR D   5      18.510  23.473  43.902  1.00 24.31 LIG-0.06  A 
ATOM     25  CD2 TYR D   5      19.148  22.271  43.624  1.00 24.91 LIG 0.01  A 
ATOM     26  CE2 TYR D   5      18.875  21.130  44.352  1.00 24.35 LIG 0.04  A 
ATOM     27  CZ  TYR D   5      17.955  21.180  45.378  1.00 25.18 LIG 0.07  A 
ATOM     28  CE1 TYR D   5      17.305  22.361  45.678  1.00 25.68 LIG 0.04  A 
ATOM     29  CD1 TYR D   5      17.585  23.499  44.941  1.00 25.57 LIG 0.01  A 
BRANCH 27 30
ATOM     30 OH   TYR D   5      17.690  20.039  46.100  1.00 28.89 LIG-0.36  OA
ATOM     31 HH   TYR D   5      16.998  20.154  46.562  1.00 28.89 LIG 0.22  HD
ENDBRANCH 27 30
ENDBRANCH 23 24
ENDBRANCH 21 23
ENDBRANCH 19 21
ENDBRANCH 11 14
ENDBRANCH 5 10
ENDBRANCH 1 5
BRANCH 3 32
ATOM     32  CA  SER D   8      12.746  25.124  44.252  1.00  7.80 LIG 0.20  C 
BRANCH 32 33
ATOM     33  CB  SER D   8      13.120  23.997  45.209  1.00  7.43 LIG 0.20  C 
BRANCH 33 34
ATOM     34 OG   SER D   8      14.437  23.549  44.977  1.00  7.87 LIG-0.40  OA
ATOM     35 HG   SER D   8      14.738  23.912  44.282  1.00  7.87 LIG 0.21  HD
ENDBRANCH 33 34
ENDBRANCH 32 33
BRANCH 32 36
ATOM     36  C   SER D   8      11.249  25.335  44.279  1.00  7.75 LIG 0.24  C 
ATOM     37 O    SER D   8      10.768  26.463  44.176  1.00  8.57 LIG-0.27  OA
ATOM     38  N   ILE D   9      10.511  24.245  44.420  1.00  7.82 LIG-0.35  N 
ATOM     39 H    ILE D   9      10.825  23.445  44.415  1.00  7.82 LIG 0.16  HD
BRANCH 38 40
ATOM     40  CA  ILE D   9       9.074  24.332  44.600  1.00  8.70 LIG 0.18  C 
BRANCH 40 41
ATOM     41  C   ILE D   9       8.652  23.291  45.617  1.00  9.89 LIG 0.24  C 
ATOM     42  N   ILE D  10       8.979  23.550  46.876  1.00  9.26 LIG-0.34  N 
ATOM     43 H    ILE D  10       9.408  24.253  47.123  1.00  9.26 LIG 0.16  HD
ATOM     44 O    ILE D   9       8.082  22.257  45.264  1.00 11.43 LIG-0.27  OA
BRANCH 42 45
ATOM     45  CA  ILE D  10       8.633  22.652  47.965  1.00 10.77 LIG 0.19  C 
BRANCH 45 46
ATOM     46  CB  ILE D  10       9.569  22.847  49.177  1.00 11.26 LIG 0.01  C 
ATOM     47  CG2 ILE D  10       9.276  21.803  50.252  1.00 13.36 LIG 0.01  C 
BRANCH 46 48
ATOM     48  CG1 ILE D  10      11.037  22.780  48.743  1.00 10.59 LIG 0.00  C 
ATOM     49  CD1 ILE D  10      11.635  24.131  48.402  1.00 13.29 LIG 0.01  C 
ENDBRANCH 46 48
ENDBRANCH 45 46
BRANCH 45 50
ATOM     50  C   ILE D  10       7.190  22.867  48.400  1.00 10.61 LIG 0.20  C 
ATOM     51 O    ILE D  10       6.599  23.924  48.152  1.00 10.13 LIG-0.65  OA
ATOM     52 OXT  ILE D  10       6.613  21.976  49.022  1.00 13.38 LIG-0.65  OA
ENDBRANCH 45 50
ENDBRANCH 42 45
ENDBRANCH 40 41
BRANCH 40 53
ATOM     53  CB  ILE D   9       8.320  24.162  43.272  1.00  9.74 LIG 0.01  C 
ATOM     54  CG2 ILE D   9       8.306  25.473  42.495  1.00 14.85 LIG 0.01  C 
BRANCH 53 55
ATOM     55  CG1 ILE D   9       8.978  23.047  42.464  1.00  9.98 LIG 0.00  C 
ATOM     56  CD1 ILE D   9       8.046  22.352  41.496  1.00 13.31 LIG 0.01  C 
ENDBRANCH 53 55
ENDBRANCH 40 53
ENDBRANCH 38 40
ENDBRANCH 32 36
ENDBRANCH 3 32
TORSDOF 21
ENDMDL
MODEL 35
USER: ADFR SOLUTION from run 18
USER: SCORE 15.383261 LL:  -3.934 LR: -12.903 RR:   0.000 FEB:  -6.639
USER: RMSD 3.427654
USER: SEED 17
USER: STATUS no improvement in best in 8 clusters for 5 generations
USER: GENES 23
USER: genes 0 Translation |==|  0.49939 0.40931 0.65148
USER: genes 1 Rotation |==|  0.64681 0.33135 0.33461 0.91551
USER: genes 2 Torsion [N]-C--CA-[N] |==|  0.14237
USER: genes 3 Torsion [C]-CA--CB-[CG2] |==|  0.53743
USER: genes 4 Torsion [CA]-CB--OG1-[HG1] |==|  0.82203
USER: genes 5 Torsion [C]-CA--N-[C] |==|  0.15000
USER: genes 6 Torsion [N]-C--CA-[CB] |==|  0.70020
USER: genes 7 Torsion [N]-C--CA-[N] |==|  0.84715
USER: genes 8 Torsion [C]-CA--CB-[CG] |==|  0.03675
USER: genes 9 Torsion [CA]-CB--CG-[CD1] |==|  0.67684
USER: genes 10 Torsion [CE2]-CZ--OH-[HH] |==|  0.74352
USER: genes 11 Torsion [C]-N--CA-[CB] |==|  0.54615
USER: genes 12 Torsion [N]-CA--CB-[OG] |==|  0.06777
USER: genes 13 Torsion [CA]-CB--OG-[HG] |==|  0.95451
USER: genes 14 Torsion [N]-CA--C-[N] |==|  0.86904
USER: genes 15 Torsion [C]-N--CA-[CB] |==|  0.88113
USER: genes 16 Torsion [N]-CA--C-[N] |==|  0.35969
USER: genes 17 Torsion [C]-N--CA-[CB] |==|  0.32365
USER: genes 18 Torsion [N]-CA--CB-[CG2] |==|  0.67126
USER: genes 19 Torsion [CA]-CB--CG1-[CD1] |==|  0.44354
USER: genes 20 Torsion [N]-CA--C-[O] |==|  0.98007
USER: genes 21 Torsion [N]-CA--CB-[CG1] |==|  0.76243
USER: genes 22 Torsion [CA]-CB--CG1-[CD1] |==|  0.41923
ROOT
ATOM      1  C   THR D   7      15.798  24.113  45.610  1.00  9.65 LIG 0.24  C 
ATOM      2 O    THR D   7      15.507  24.233  46.811  1.00 10.36 LIG-0.27  OA
ATOM      3  N   SER D   8      15.490  25.015  44.684  1.00  8.02 LIG-0.34  N 
ATOM      4 H    SER D   8      15.794  24.998  43.880  1.00  8.02 LIG 0.16  HD
ENDROOT
BRANCH 1 5
ATOM      5  CA  THR D   7      16.561  22.898  45.107  1.00 11.21 LIG 0.20  C 
BRANCH 5 6
ATOM      6  CB  THR D   7      16.985  22.033  46.310  1.00 12.81 LIG 0.15  C 
ATOM      7  CG2 THR D   7      18.019  20.996  45.904  1.00 13.23 LIG 0.04  C 
BRANCH 6 8
ATOM      8 OG1  THR D   7      17.540  22.876  47.328  1.00 15.88 LIG-0.39  OA
ATOM      9 HG1  THR D   7      18.242  23.237  47.041  1.00 15.88 LIG 0.21  HD
ENDBRANCH 6 8
ENDBRANCH 5 6
BRANCH 5 10
ATOM     10  N   THR D   7      17.724  23.288  44.326  1.00 13.33 LIG-0.34  N 
ATOM     11  C   PRO D   6      18.644  24.119  44.803  1.00 13.20 LIG 0.24  C 
ATOM     12 O    PRO D   6      18.626  24.560  45.952  1.00 14.28 LIG-0.27  OA
ATOM     13 H    THR D   7      17.758  22.936  43.543  1.00 13.33 LIG 0.16  HD
BRANCH 11 14
ATOM     14  CA  PRO D   6      19.776  24.494  43.848  1.00 20.50 LIG 0.18  C 
ATOM     15  CB  PRO D   6      21.064  23.804  44.298  1.00 26.18 LIG 0.04  C 
ATOM     16  CG  PRO D   6      21.791  24.839  45.086  1.00 30.25 LIG 0.02  C 
ATOM     17  CD  PRO D   6      21.500  26.127  44.391  1.00 26.41 LIG 0.13  C 
ATOM     18  N   PRO D   6      20.131  25.919  43.893  1.00 20.28 LIG-0.34  N 
ATOM     19  C   TYR D   5      19.280  26.907  43.584  1.00 26.16 LIG 0.26  C 
ATOM     20 O    TYR D   5      18.127  26.696  43.214  1.00 27.79 LIG-0.27  OA
BRANCH 19 21
ATOM     21  CA  TYR D   5      19.808  28.335  43.704  1.00 28.17 LIG 0.40  C 
ATOM     22  N   TYR D   5      20.333  28.570  45.043  1.00 34.40 LIG 0.61  N 
BRANCH 21 23
ATOM     23  CB  TYR D   5      20.889  28.597  42.654  1.00 23.65 LIG 0.09  C 
BRANCH 23 24
ATOM     24  CG  TYR D   5      20.963  27.544  41.569  1.00 24.31 LIG-0.06  A 
ATOM     25  CD2 TYR D   5      19.896  27.337  40.703  1.00 24.91 LIG 0.01  A 
ATOM     26  CE2 TYR D   5      19.955  26.377  39.713  1.00 24.35 LIG 0.04  A 
ATOM     27  CZ  TYR D   5      21.091  25.608  39.574  1.00 25.18 LIG 0.07  A 
ATOM     28  CE1 TYR D   5      22.166  25.791  40.421  1.00 25.68 LIG 0.04  A 
ATOM     29  CD1 TYR D   5      22.097  26.755  41.411  1.00 25.57 LIG 0.01  A 
BRANCH 27 30
ATOM     30 OH   TYR D   5      21.141  24.654  38.584  1.00 28.89 LIG-0.36  OA
ATOM     31 HH   TYR D   5      20.880  23.917  38.890  1.00 28.89 LIG 0.22  HD
ENDBRANCH 27 30
ENDBRANCH 23 24
ENDBRANCH 21 23
ENDBRANCH 19 21
ENDBRANCH 11 14
ENDBRANCH 5 10
ENDBRANCH 1 5
BRANCH 3 32
ATOM     32  CA  SER D   8      14.598  26.123  44.958  1.00  7.80 LIG 0.20  C 
BRANCH 32 33
ATOM     33  CB  SER D   8      14.098  26.751  43.661  1.00  7.43 LIG 0.20  C 
BRANCH 33 34
ATOM     34 OG   SER D   8      14.148  25.827  42.597  1.00  7.87 LIG-0.40  OA
ATOM     35 HG   SER D   8      14.642  25.182  42.808  1.00  7.87 LIG 0.21  HD
ENDBRANCH 33 34
ENDBRANCH 32 33
BRANCH 32 36
ATOM     36  C   SER D   8      13.423  25.605  45.756  1.00  7.75 LIG 0.24  C 
ATOM     37 O    SER D   8      13.035  26.194  46.765  1.00  8.57 LIG-0.27  OA
ATOM     38  N   ILE D   9      12.856  24.498  45.304  1.00  7.82 LIG-0.35  N 
ATOM     39 H    ILE D   9      13.062  24.117  44.561  1.00  7.82 LIG 0.16  HD
BRANCH 38 40
ATOM     40  CA  ILE D   9      11.813  23.828  46.058  1.00  8.70 LIG 0.18  C 
BRANCH 40 41
ATOM     41  C   ILE D   9      10.502  24.543  45.805  1.00  9.89 LIG 0.24  C 
ATOM     42  N   ILE D  10       9.483  23.771  45.449  1.00  9.26 LIG-0.34  N 
ATOM     43 H    ILE D  10       9.542  22.918  45.356  1.00  9.26 LIG 0.16  HD
ATOM     44 O    ILE D   9      10.424  25.770  45.887  1.00 11.43 LIG-0.27  OA
BRANCH 42 45
ATOM     45  CA  ILE D  10       8.160  24.310  45.184  1.00 10.77 LIG 0.19  C 
BRANCH 45 46
ATOM     46  CB  ILE D  10       7.744  24.085  43.714  1.00 11.26 LIG 0.01  C 
ATOM     47  CG2 ILE D  10       7.520  25.423  43.012  1.00 13.36 LIG 0.01  C 
BRANCH 46 48
ATOM     48  CG1 ILE D  10       8.798  23.256  42.974  1.00 10.59 LIG 0.00  C 
ATOM     49  CD1 ILE D  10       8.277  22.584  41.718  1.00 13.29 LIG 0.01  C 
ENDBRANCH 46 48
ENDBRANCH 45 46
BRANCH 45 50
ATOM     50  C   ILE D  10       7.127  23.674  46.104  1.00 10.61 LIG 0.20  C 
ATOM     51 O    ILE D  10       7.427  22.731  46.846  1.00 10.13 LIG-0.65  OA
ATOM     52 OXT  ILE D  10       5.973  24.101  46.094  1.00 13.38 LIG-0.65  OA
ENDBRANCH 45 50
ENDBRANCH 42 45
ENDBRANCH 40 41
BRANCH 40 53
ATOM     53  CB  ILE D   9      12.141  23.766  47.558  1.00  9.74 LIG 0.01  C 
ATOM     54  CG2 ILE D   9      10.859  23.728  48.382  1.00 14.85 LIG 0.01  C 
BRANCH 53 55
ATOM     55  CG1 ILE D   9      13.010  22.540  47.828  1.00  9.98 LIG 0.00  C 
ATOM     56  CD1 ILE D   9      13.947  22.694  49.004  1.00 13.31 LIG 0.01  C 
ENDBRANCH 53 55
ENDBRANCH 40 53
ENDBRANCH 38 40
ENDBRANCH 32 36
ENDBRANCH 3 32
TORSDOF 21
ENDMDL
MODEL 36
USER: ADFR SOLUTION from run 87
USER: SCORE 14.878079 LL:  -3.984 LR: -12.870 RR:   0.000 FEB:  -6.606
USER: RMSD 5.706060
USER: SEED 86
USER: STATUS no improvement in best in 7 clusters for 5 generations
USER: GENES 23
USER: genes 0 Translation |==|  0.45320 0.42903 0.64609
USER: genes 1 Rotation |==|  0.94014 0.62243 0.36687 0.65351
USER: genes 2 Torsion [N]-C--CA-[N] |==|  0.41910
USER: genes 3 Torsion [C]-CA--CB-[CG2] |==|  0.10476
USER: genes 4 Torsion [CA]-CB--OG1-[HG1] |==|  0.14139
USER: genes 5 Torsion [C]-CA--N-[C] |==|  0.60080
USER: genes 6 Torsion [N]-C--CA-[CB] |==|  0.82487
USER: genes 7 Torsion [N]-C--CA-[N] |==|  0.24067
USER: genes 8 Torsion [C]-CA--CB-[CG] |==|  0.83317
USER: genes 9 Torsion [CA]-CB--CG-[CD1] |==|  0.85509
USER: genes 10 Torsion [CE2]-CZ--OH-[HH] |==|  0.53101
USER: genes 11 Torsion [C]-N--CA-[CB] |==|  0.23740
USER: genes 12 Torsion [N]-CA--CB-[OG] |==|  0.86012
USER: genes 13 Torsion [CA]-CB--OG-[HG] |==|  0.68997
USER: genes 14 Torsion [N]-CA--C-[N] |==|  0.03257
USER: genes 15 Torsion [C]-N--CA-[CB] |==|  0.44947
USER: genes 16 Torsion [N]-CA--C-[N] |==|  0.92778
USER: genes 17 Torsion [C]-N--CA-[CB] |==|  0.51729
USER: genes 18 Torsion [N]-CA--CB-[CG2] |==|  0.44210
USER: genes 19 Torsion [CA]-CB--CG1-[CD1] |==|  0.90298
USER: genes 20 Torsion [N]-CA--C-[O] |==|  0.82227
USER: genes 21 Torsion [N]-CA--CB-[CG1] |==|  0.18443
USER: genes 22 Torsion [CA]-CB--CG1-[CD1] |==|  0.29444
ROOT
ATOM      1  C   THR D   7      14.516  24.394  45.481  1.00  9.65 LIG 0.24  C 
ATOM      2 O    THR D   7      14.857  23.265  45.094  1.00 10.36 LIG-0.27  OA
ATOM      3  N   SER D   8      13.691  24.604  46.502  1.00  8.02 LIG-0.34  N 
ATOM      4 H    SER D   8      13.550  25.378  46.851  1.00  8.02 LIG 0.16  HD
ENDROOT
BRANCH 1 5
ATOM      5  CA  THR D   7      15.046  25.647  44.804  1.00 11.21 LIG 0.20  C 
BRANCH 5 6
ATOM      6  CB  THR D   7      14.050  26.094  43.717  1.00 12.81 LIG 0.15  C 
ATOM      7  CG2 THR D   7      12.614  25.879  44.164  1.00 13.23 LIG 0.04  C 
BRANCH 6 8
ATOM      8 OG1  THR D   7      14.250  27.485  43.434  1.00 15.88 LIG-0.39  OA
ATOM      9 HG1  THR D   7      15.064  27.626  43.282  1.00 15.88 LIG 0.21  HD
ENDBRANCH 6 8
ENDBRANCH 5 6
BRANCH 5 10
ATOM     10  N   THR D   7      16.362  25.421  44.226  1.00 13.33 LIG-0.34  N 
ATOM     11  C   PRO D   6      17.300  26.361  44.226  1.00 13.20 LIG 0.24  C 
ATOM     12 O    PRO D   6      17.160  27.455  44.773  1.00 14.28 LIG-0.27  OA
ATOM     13 H    THR D   7      16.471  24.637  43.891  1.00 13.33 LIG 0.16  HD
BRANCH 11 14
ATOM     14  CA  PRO D   6      18.610  26.009  43.524  1.00 20.50 LIG 0.18  C 
ATOM     15  CB  PRO D   6      19.271  24.836  44.249  1.00 26.18 LIG 0.04  C 
ATOM     16  CG  PRO D   6      20.274  25.467  45.152  1.00 30.25 LIG 0.02  C 
ATOM     17  CD  PRO D   6      20.801  26.634  44.386  1.00 26.41 LIG 0.13  C 
ATOM     18  N   PRO D   6      19.625  27.067  43.615  1.00 20.28 LIG-0.34  N 
ATOM     19  C   TYR D   5      19.460  28.299  43.113  1.00 26.16 LIG 0.26  C 
ATOM     20 O    TYR D   5      18.444  28.639  42.513  1.00 27.79 LIG-0.27  OA
BRANCH 19 21
ATOM     21  CA  TYR D   5      20.609  29.284  43.313  1.00 28.17 LIG 0.40  C 
ATOM     22  N   TYR D   5      21.586  29.150  42.240  1.00 34.40 LIG 0.61  N 
BRANCH 21 23
ATOM     23  CB  TYR D   5      20.080  30.720  43.375  1.00 23.65 LIG 0.09  C 
BRANCH 23 24
ATOM     24  CG  TYR D   5      19.348  31.160  42.125  1.00 24.31 LIG-0.06  A 
ATOM     25  CD2 TYR D   5      18.073  31.706  42.202  1.00 24.91 LIG 0.01  A 
ATOM     26  CE2 TYR D   5      17.397  32.108  41.066  1.00 24.35 LIG 0.04  A 
ATOM     27  CZ  TYR D   5      17.995  31.968  39.832  1.00 25.18 LIG 0.07  A 
ATOM     28  CE1 TYR D   5      19.261  31.427  39.725  1.00 25.68 LIG 0.04  A 
ATOM     29  CD1 TYR D   5      19.929  31.027  40.869  1.00 25.57 LIG 0.01  A 
BRANCH 27 30
ATOM     30 OH   TYR D   5      17.316  32.372  38.705  1.00 28.89 LIG-0.36  OA
ATOM     31 HH   TYR D   5      17.717  32.096  38.021  1.00 28.89 LIG 0.22  HD
ENDBRANCH 27 30
ENDBRANCH 23 24
ENDBRANCH 21 23
ENDBRANCH 19 21
ENDBRANCH 11 14
ENDBRANCH 5 10
ENDBRANCH 1 5
BRANCH 3 32
ATOM     32  CA  SER D   8      12.945  23.529  47.122  1.00  7.80 LIG 0.20  C 
BRANCH 32 33
ATOM     33  CB  SER D   8      13.780  22.835  48.192  1.00  7.43 LIG 0.20  C 
BRANCH 33 34
ATOM     34 OG   SER D   8      15.051  22.479  47.693  1.00  7.87 LIG-0.40  OA
ATOM     35 HG   SER D   8      15.107  21.643  47.639  1.00  7.87 LIG 0.21  HD
ENDBRANCH 33 34
ENDBRANCH 32 33
BRANCH 32 36
ATOM     36  C   SER D   8      11.699  24.110  47.750  1.00  7.75 LIG 0.24  C 
ATOM     37 O    SER D   8      11.006  23.441  48.516  1.00  8.57 LIG-0.27  OA
ATOM     38  N   ILE D   9      11.411  25.359  47.420  1.00  7.82 LIG-0.35  N 
ATOM     39 H    ILE D   9      11.922  25.865  46.950  1.00  7.82 LIG 0.16  HD
BRANCH 38 40
ATOM     40  CA  ILE D   9      10.171  25.979  47.846  1.00  8.70 LIG 0.18  C 
BRANCH 40 41
ATOM     41  C   ILE D   9       9.040  25.417  47.009  1.00  9.89 LIG 0.24  C 
ATOM     42  N   ILE D  10       9.379  24.967  45.808  1.00  9.26 LIG-0.34  N 
ATOM     43 H    ILE D  10      10.181  24.989  45.500  1.00  9.26 LIG 0.16  HD
ATOM     44 O    ILE D   9       7.879  25.430  47.424  1.00 11.43 LIG-0.27  OA
BRANCH 42 45
ATOM     45  CA  ILE D  10       8.406  24.389  44.895  1.00 10.77 LIG 0.19  C 
BRANCH 45 46
ATOM     46  CB  ILE D  10       9.088  23.809  43.637  1.00 11.26 LIG 0.01  C 
ATOM     47  CG2 ILE D  10       8.180  22.785  42.962  1.00 13.36 LIG 0.01  C 
BRANCH 46 48
ATOM     48  CG1 ILE D  10       9.462  24.928  42.661  1.00 10.59 LIG 0.00  C 
ATOM     49  CD1 ILE D  10       8.471  26.075  42.636  1.00 13.29 LIG 0.01  C 
ENDBRANCH 46 48
ENDBRANCH 45 46
BRANCH 45 50
ATOM     50  C   ILE D  10       7.605  23.295  45.587  1.00 10.61 LIG 0.20  C 
ATOM     51 O    ILE D  10       8.152  22.262  45.992  1.00 10.13 LIG-0.65  OA
ATOM     52 OXT  ILE D  10       6.392  23.440  45.728  1.00 13.38 LIG-0.65  OA
ENDBRANCH 45 50
ENDBRANCH 42 45
ENDBRANCH 40 41
BRANCH 40 53
ATOM     53  CB  ILE D   9      10.234  27.511  47.752  1.00  9.74 LIG 0.01  C 
ATOM     54  CG2 ILE D   9      11.409  28.046  48.562  1.00 14.85 LIG 0.01  C 
BRANCH 53 55
ATOM     55  CG1 ILE D   9      10.342  27.918  46.285  1.00  9.98 LIG 0.00  C 
ATOM     56  CD1 ILE D   9       9.071  28.498  45.708  1.00 13.31 LIG 0.01  C 
ENDBRANCH 53 55
ENDBRANCH 40 53
ENDBRANCH 38 40
ENDBRANCH 32 36
ENDBRANCH 3 32
TORSDOF 21
ENDMDL
MODEL 37
USER: ADFR SOLUTION from run 183
USER: SCORE 15.893270 LL:  -3.913 LR: -12.836 RR:   0.000 FEB:  -6.571
USER: RMSD 4.740824
USER: SEED 182
USER: STATUS no improvement in best in 7 clusters for 5 generations
USER: GENES 23
USER: genes 0 Translation |==|  0.47879 0.36119 0.69235
USER: genes 1 Rotation |==|  0.23141 0.59866 0.52069 0.90951
USER: genes 2 Torsion [N]-C--CA-[N] |==|  0.46490
USER: genes 3 Torsion [C]-CA--CB-[CG2] |==|  0.89238
USER: genes 4 Torsion [CA]-CB--OG1-[HG1] |==|  0.15831
USER: genes 5 Torsion [C]-CA--N-[C] |==|  0.75210
USER: genes 6 Torsion [N]-C--CA-[CB] |==|  0.20281
USER: genes 7 Torsion [N]-C--CA-[N] |==|  0.82533
USER: genes 8 Torsion [C]-CA--CB-[CG] |==|  0.10254
USER: genes 9 Torsion [CA]-CB--CG-[CD1] |==|  0.15861
USER: genes 10 Torsion [CE2]-CZ--OH-[HH] |==|  0.76065
USER: genes 11 Torsion [C]-N--CA-[CB] |==|  0.17896
USER: genes 12 Torsion [N]-CA--CB-[OG] |==|  0.09608
USER: genes 13 Torsion [CA]-CB--OG-[HG] |==|  0.13860
USER: genes 14 Torsion [N]-CA--C-[N] |==|  0.63502
USER: genes 15 Torsion [C]-N--CA-[CB] |==|  0.17778
USER: genes 16 Torsion [N]-CA--C-[N] |==|  0.07517
USER: genes 17 Torsion [C]-N--CA-[CB] |==|  0.25221
USER: genes 18 Torsion [N]-CA--CB-[CG2] |==|  0.79943
USER: genes 19 Torsion [CA]-CB--CG1-[CD1] |==|  0.60958
USER: genes 20 Torsion [N]-CA--C-[O] |==|  0.00406
USER: genes 21 Torsion [N]-CA--CB-[CG1] |==|  0.55103
USER: genes 22 Torsion [CA]-CB--CG1-[CD1] |==|  0.66971
ROOT
ATOM      1  C   THR D   7      15.226  23.427  46.591  1.00  9.65 LIG 0.24  C 
ATOM      2 O    THR D   7      15.423  24.559  46.124  1.00 10.36 LIG-0.27  OA
ATOM      3  N   SER D   8      14.042  23.003  47.021  1.00  8.02 LIG-0.34  N 
ATOM      4 H    SER D   8      13.874  22.185  47.229  1.00  8.02 LIG 0.16  HD
ENDROOT
BRANCH 1 5
ATOM      5  CA  THR D   7      16.356  22.416  46.694  1.00 11.21 LIG 0.20  C 
BRANCH 5 6
ATOM      6  CB  THR D   7      16.717  22.209  48.178  1.00 12.81 LIG 0.15  C 
ATOM      7  CG2 THR D   7      16.659  23.519  48.946  1.00 13.23 LIG 0.04  C 
BRANCH 6 8
ATOM      8 OG1  THR D   7      15.796  21.280  48.765  1.00 15.88 LIG-0.39  OA
ATOM      9 HG1  THR D   7      15.813  20.559  48.334  1.00 15.88 LIG 0.21  HD
ENDBRANCH 6 8
ENDBRANCH 5 6
BRANCH 5 10
ATOM     10  N   THR D   7      17.525  22.847  45.943  1.00 13.33 LIG-0.34  N 
ATOM     11  C   PRO D   6      17.690  22.537  44.662  1.00 13.20 LIG 0.24  C 
ATOM     12 O    PRO D   6      16.847  21.935  43.999  1.00 14.28 LIG-0.27  OA
ATOM     13 H    THR D   7      18.086  23.312  46.399  1.00 13.33 LIG 0.16  HD
BRANCH 11 14
ATOM     14  CA  PRO D   6      18.996  22.999  44.018  1.00 20.50 LIG 0.18  C 
ATOM     15  CB  PRO D   6      20.146  22.135  44.536  1.00 26.18 LIG 0.04  C 
ATOM     16  CG  PRO D   6      20.755  22.938  45.634  1.00 30.25 LIG 0.02  C 
ATOM     17  CD  PRO D   6      20.655  24.354  45.176  1.00 26.41 LIG 0.13  C 
ATOM     18  N   PRO D   6      19.397  24.355  44.414  1.00 20.28 LIG-0.34  N 
ATOM     19  C   TYR D   5      18.662  25.448  44.168  1.00 26.16 LIG 0.26  C 
ATOM     20 O    TYR D   5      17.591  25.405  43.567  1.00 27.79 LIG-0.27  OA
BRANCH 19 21
ATOM     21  CA  TYR D   5      19.217  26.780  44.668  1.00 28.17 LIG 0.40  C 
ATOM     22  N   TYR D   5      19.318  26.774  46.121  1.00 34.40 LIG 0.61  N 
BRANCH 21 23
ATOM     23  CB  TYR D   5      20.586  27.059  44.041  1.00 23.65 LIG 0.09  C 
BRANCH 23 24
ATOM     24  CG  TYR D   5      20.707  26.609  42.601  1.00 24.31 LIG-0.06  A 
ATOM     25  CD2 TYR D   5      21.699  25.718  42.213  1.00 24.91 LIG 0.01  A 
ATOM     26  CE2 TYR D   5      21.817  25.305  40.901  1.00 24.35 LIG 0.04  A 
ATOM     27  CZ  TYR D   5      20.935  25.780  39.954  1.00 25.18 LIG 0.07  A 
ATOM     28  CE1 TYR D   5      19.939  26.668  40.310  1.00 25.68 LIG 0.04  A 
ATOM     29  CD1 TYR D   5      19.829  27.077  41.627  1.00 25.57 LIG 0.01  A 
BRANCH 27 30
ATOM     30 OH   TYR D   5      21.059  25.362  38.649  1.00 28.89 LIG-0.36  OA
ATOM     31 HH   TYR D   5      21.611  25.852  38.248  1.00 28.89 LIG 0.22  HD
ENDBRANCH 27 30
ENDBRANCH 23 24
ENDBRANCH 21 23
ENDBRANCH 19 21
ENDBRANCH 11 14
ENDBRANCH 5 10
ENDBRANCH 1 5
BRANCH 3 32
ATOM     32  CA  SER D   8      12.916  23.899  47.179  1.00  7.80 LIG 0.20  C 
BRANCH 32 33
ATOM     33  CB  SER D   8      12.484  24.471  45.834  1.00  7.43 LIG 0.20  C 
BRANCH 33 34
ATOM     34 OG   SER D   8      12.655  23.526  44.801  1.00  7.87 LIG-0.40  OA
ATOM     35 HG   SER D   8      12.305  22.797  45.028  1.00  7.87 LIG 0.21  HD
ENDBRANCH 33 34
ENDBRANCH 32 33
BRANCH 32 36
ATOM     36  C   SER D   8      11.771  23.126  47.792  1.00  7.75 LIG 0.24  C 
ATOM     37 O    SER D   8      11.944  22.420  48.785  1.00  8.57 LIG-0.27  OA
ATOM     38  N   ILE D   9      10.596  23.257  47.196  1.00  7.82 LIG-0.35  N 
ATOM     39 H    ILE D   9      10.439  23.804  46.552  1.00  7.82 LIG 0.16  HD
BRANCH 38 40
ATOM     40  CA  ILE D   9       9.456  22.459  47.605  1.00  8.70 LIG 0.18  C 
BRANCH 40 41
ATOM     41  C   ILE D   9       8.325  22.699  46.626  1.00  9.89 LIG 0.24  C 
ATOM     42  N   ILE D  10       8.688  23.053  45.400  1.00  9.26 LIG-0.34  N 
ATOM     43 H    ILE D  10       9.506  23.152  45.155  1.00  9.26 LIG 0.16  HD
ATOM     44 O    ILE D   9       7.149  22.609  46.984  1.00 11.43 LIG-0.27  OA
BRANCH 42 45
ATOM     45  CA  ILE D  10       7.717  23.306  44.348  1.00 10.77 LIG 0.19  C 
BRANCH 45 46
ATOM     46  CB  ILE D  10       7.301  24.792  44.310  1.00 11.26 LIG 0.01  C 
ATOM     47  CG2 ILE D  10       6.412  25.129  45.503  1.00 13.36 LIG 0.01  C 
BRANCH 46 48
ATOM     48  CG1 ILE D  10       8.537  25.698  44.282  1.00 10.59 LIG 0.00  C 
ATOM     49  CD1 ILE D  10       8.398  26.947  45.131  1.00 13.29 LIG 0.01  C 
ENDBRANCH 46 48
ENDBRANCH 45 46
BRANCH 45 50
ATOM     50  C   ILE D  10       8.278  22.902  42.992  1.00 10.61 LIG 0.20  C 
ATOM     51 O    ILE D  10       9.406  22.405  42.889  1.00 10.13 LIG-0.65  OA
ATOM     52 OXT  ILE D  10       7.600  23.091  41.983  1.00 13.38 LIG-0.65  OA
ENDBRANCH 45 50
ENDBRANCH 42 45
ENDBRANCH 40 41
BRANCH 40 53
ATOM     53  CB  ILE D   9       9.028  22.768  49.048  1.00  9.74 LIG 0.01  C 
ATOM     54  CG2 ILE D   9       8.282  24.096  49.109  1.00 14.85 LIG 0.01  C 
BRANCH 53 55
ATOM     55  CG1 ILE D   9       8.163  21.623  49.568  1.00  9.98 LIG 0.00  C 
ATOM     56  CD1 ILE D   9       6.759  22.033  49.950  1.00 13.31 LIG 0.01  C 
ENDBRANCH 53 55
ENDBRANCH 40 53
ENDBRANCH 38 40
ENDBRANCH 32 36
ENDBRANCH 3 32
TORSDOF 21
ENDMDL
MODEL 38
USER: ADFR SOLUTION from run 66
USER: SCORE 16.235798 LL:  -4.996 LR: -12.800 RR:   0.000 FEB:  -6.536
USER: RMSD 9.091268
USER: SEED 65
USER: STATUS no improvement in best in 12 clusters for 5 generations
USER: GENES 23
USER: genes 0 Translation |==|  0.30781 0.48134 0.59784
USER: genes 1 Rotation |==|  0.19233 0.42254 0.61778 0.86805
USER: genes 2 Torsion [N]-C--CA-[N] |==|  0.97429
USER: genes 3 Torsion [C]-CA--CB-[CG2] |==|  0.27819
USER: genes 4 Torsion [CA]-CB--OG1-[HG1] |==|  0.49172
USER: genes 5 Torsion [C]-CA--N-[C] |==|  0.72561
USER: genes 6 Torsion [N]-C--CA-[CB] |==|  0.57031
USER: genes 7 Torsion [N]-C--CA-[N] |==|  0.19337
USER: genes 8 Torsion [C]-CA--CB-[CG] |==|  0.14787
USER: genes 9 Torsion [CA]-CB--CG-[CD1] |==|  0.59384
USER: genes 10 Torsion [CE2]-CZ--OH-[HH] |==|  0.64723
USER: genes 11 Torsion [C]-N--CA-[CB] |==|  0.48447
USER: genes 12 Torsion [N]-CA--CB-[OG] |==|  0.16976
USER: genes 13 Torsion [CA]-CB--OG-[HG] |==|  0.77714
USER: genes 14 Torsion [N]-CA--C-[N] |==|  0.51111
USER: genes 15 Torsion [C]-N--CA-[CB] |==|  0.50717
USER: genes 16 Torsion [N]-CA--C-[N] |==|  0.39082
USER: genes 17 Torsion [C]-N--CA-[CB] |==|  0.24476
USER: genes 18 Torsion [N]-CA--CB-[CG2] |==|  0.74555
USER: genes 19 Torsion [CA]-CB--CG1-[CD1] |==|  0.48824
USER: genes 20 Torsion [N]-CA--C-[O] |==|  0.56086
USER: genes 21 Torsion [N]-CA--CB-[CG1] |==|  0.81388
USER: genes 22 Torsion [CA]-CB--CG1-[CD1] |==|  0.45736
ROOT
ATOM      1  C   THR D   7      10.482  25.139  44.323  1.00  9.65 LIG 0.24  C 
ATOM      2 O    THR D   7      10.042  26.106  43.682  1.00 10.36 LIG-0.27  OA
ATOM      3  N   SER D   8       9.810  24.005  44.500  1.00  8.02 LIG-0.34  N 
ATOM      4 H    SER D   8      10.156  23.292  44.835  1.00  8.02 LIG 0.16  HD
ENDROOT
BRANCH 1 5
ATOM      5  CA  THR D   7      11.863  25.183  44.956  1.00 11.21 LIG 0.20  C 
BRANCH 5 6
ATOM      6  CB  THR D   7      12.927  25.234  43.843  1.00 12.81 LIG 0.15  C 
ATOM      7  CG2 THR D   7      13.437  26.650  43.633  1.00 13.23 LIG 0.04  C 
BRANCH 6 8
ATOM      8 OG1  THR D   7      14.028  24.388  44.199  1.00 15.88 LIG-0.39  OA
ATOM      9 HG1  THR D   7      14.591  24.383  43.575  1.00 15.88 LIG 0.21  HD
ENDBRANCH 6 8
ENDBRANCH 5 6
BRANCH 5 10
ATOM     10  N   THR D   7      12.087  24.035  45.820  1.00 13.33 LIG-0.34  N 
ATOM     11  C   PRO D   6      11.940  24.108  47.138  1.00 13.20 LIG 0.24  C 
ATOM     12 O    PRO D   6      11.536  25.116  47.717  1.00 14.28 LIG-0.27  OA
ATOM     13 H    THR D   7      12.319  23.319  45.404  1.00 13.33 LIG 0.16  HD
BRANCH 11 14
ATOM     14  CA  PRO D   6      12.275  22.844  47.927  1.00 20.50 LIG 0.18  C 
ATOM     15  CB  PRO D   6      11.497  22.852  49.244  1.00 26.18 LIG 0.04  C 
ATOM     16  CG  PRO D   6      12.465  23.374  50.250  1.00 30.25 LIG 0.02  C 
ATOM     17  CD  PRO D   6      13.787  22.818  49.836  1.00 26.41 LIG 0.13  C 
ATOM     18  N   PRO D   6      13.674  22.784  48.370  1.00 20.28 LIG-0.34  N 
ATOM     19  C   TYR D   5      14.718  22.771  47.530  1.00 26.16 LIG 0.26  C 
ATOM     20 O    TYR D   5      14.586  22.789  46.309  1.00 27.79 LIG-0.27  OA
BRANCH 19 21
ATOM     21  CA  TYR D   5      16.109  22.727  48.159  1.00 28.17 LIG 0.40  C 
ATOM     22  N   TYR D   5      16.343  21.430  48.782  1.00 34.40 LIG 0.61  N 
BRANCH 21 23
ATOM     23  CB  TYR D   5      17.183  23.014  47.107  1.00 23.65 LIG 0.09  C 
BRANCH 23 24
ATOM     24  CG  TYR D   5      16.960  24.295  46.333  1.00 24.31 LIG-0.06  A 
ATOM     25  CD2 TYR D   5      16.379  25.402  46.939  1.00 24.91 LIG 0.01  A 
ATOM     26  CE2 TYR D   5      16.170  26.574  46.239  1.00 24.35 LIG 0.04  A 
ATOM     27  CZ  TYR D   5      16.544  26.653  44.914  1.00 25.18 LIG 0.07  A 
ATOM     28  CE1 TYR D   5      17.123  25.568  44.285  1.00 25.68 LIG 0.04  A 
ATOM     29  CD1 TYR D   5      17.327  24.398  44.996  1.00 25.57 LIG 0.01  A 
BRANCH 27 30
ATOM     30 OH   TYR D   5      16.333  27.824  44.224  1.00 28.89 LIG-0.36  OA
ATOM     31 HH   TYR D   5      15.907  27.662  43.519  1.00 28.89 LIG 0.22  HD
ENDBRANCH 27 30
ENDBRANCH 23 24
ENDBRANCH 21 23
ENDBRANCH 19 21
ENDBRANCH 11 14
ENDBRANCH 5 10
ENDBRANCH 1 5
BRANCH 3 32
ATOM     32  CA  SER D   8       8.414  23.875  44.139  1.00  7.80 LIG 0.20  C 
BRANCH 32 33
ATOM     33  CB  SER D   8       7.937  22.438  44.320  1.00  7.43 LIG 0.20  C 
BRANCH 33 34
ATOM     34 OG   SER D   8       8.055  22.030  45.665  1.00  7.87 LIG-0.40  OA
ATOM     35 HG   SER D   8       8.850  21.812  45.824  1.00  7.87 LIG 0.21  HD
ENDBRANCH 33 34
ENDBRANCH 32 33
BRANCH 32 36
ATOM     36  C   SER D   8       7.602  24.794  45.023  1.00  7.75 LIG 0.24  C 
ATOM     37 O    SER D   8       8.152  25.544  45.829  1.00  8.57 LIG-0.27  OA
ATOM     38  N   ILE D   9       6.289  24.732  44.874  1.00  7.82 LIG-0.35  N 
ATOM     39 H    ILE D   9       5.892  24.273  44.265  1.00  7.82 LIG 0.16  HD
BRANCH 38 40
ATOM     40  CA  ILE D   9       5.400  25.460  45.760  1.00  8.70 LIG 0.18  C 
BRANCH 40 41
ATOM     41  C   ILE D   9       5.735  25.088  47.190  1.00  9.89 LIG 0.24  C 
ATOM     42  N   ILE D  10       5.694  26.081  48.069  1.00  9.26 LIG-0.34  N 
ATOM     43 H    ILE D  10       5.499  26.893  47.862  1.00  9.26 LIG 0.16  HD
ATOM     44 O    ILE D   9       6.065  23.938  47.484  1.00 11.43 LIG-0.27  OA
BRANCH 42 45
ATOM     45  CA  ILE D  10       5.979  25.879  49.479  1.00 10.77 LIG 0.19  C 
BRANCH 45 46
ATOM     46  CB  ILE D  10       7.487  26.026  49.777  1.00 11.26 LIG 0.01  C 
ATOM     47  CG2 ILE D  10       8.185  24.671  49.680  1.00 13.36 LIG 0.01  C 
BRANCH 46 48
ATOM     48  CG1 ILE D  10       8.131  27.035  48.821  1.00 10.59 LIG 0.00  C 
ATOM     49  CD1 ILE D  10       9.593  27.311  49.116  1.00 13.29 LIG 0.01  C 
ENDBRANCH 46 48
ENDBRANCH 45 46
BRANCH 45 50
ATOM     50  C   ILE D  10       5.197  26.866  50.333  1.00 10.61 LIG 0.20  C 
ATOM     51 O    ILE D  10       5.564  27.152  51.479  1.00 10.13 LIG-0.65  OA
ATOM     52 OXT  ILE D  10       4.174  27.374  49.875  1.00 13.38 LIG-0.65  OA
ENDBRANCH 45 50
ENDBRANCH 42 45
ENDBRANCH 40 41
BRANCH 40 53
ATOM     53  CB  ILE D   9       3.922  25.189  45.438  1.00  9.74 LIG 0.01  C 
ATOM     54  CG2 ILE D   9       3.025  25.773  46.524  1.00 14.85 LIG 0.01  C 
BRANCH 53 55
ATOM     55  CG1 ILE D   9       3.592  25.780  44.070  1.00  9.98 LIG 0.00  C 
ATOM     56  CD1 ILE D   9       2.297  25.277  43.475  1.00 13.31 LIG 0.01  C 
ENDBRANCH 53 55
ENDBRANCH 40 53
ENDBRANCH 38 40
ENDBRANCH 32 36
ENDBRANCH 3 32
TORSDOF 21
ENDMDL
MODEL 39
USER: ADFR SOLUTION from run 126
USER: SCORE 14.993520 LL:  -4.540 LR: -12.797 RR:   0.000 FEB:  -6.532
USER: RMSD 3.897021
USER: SEED 125
USER: STATUS no improvement in best in 13 clusters for 5 generations
USER: GENES 23
USER: genes 0 Translation |==|  0.54573 0.43566 0.62692
USER: genes 1 Rotation |==|  0.68502 0.42131 0.40641 0.94812
USER: genes 2 Torsion [N]-C--CA-[N] |==|  0.25145
USER: genes 3 Torsion [C]-CA--CB-[CG2] |==|  0.82544
USER: genes 4 Torsion [CA]-CB--OG1-[HG1] |==|  0.40331
USER: genes 5 Torsion [C]-CA--N-[C] |==|  0.69678
USER: genes 6 Torsion [N]-C--CA-[CB] |==|  0.53923
USER: genes 7 Torsion [N]-C--CA-[N] |==|  0.40532
USER: genes 8 Torsion [C]-CA--CB-[CG] |==|  0.86318
USER: genes 9 Torsion [CA]-CB--CG-[CD1] |==|  0.85030
USER: genes 10 Torsion [CE2]-CZ--OH-[HH] |==|  0.50397
USER: genes 11 Torsion [C]-N--CA-[CB] |==|  0.48152
USER: genes 12 Torsion [N]-CA--CB-[OG] |==|  0.12177
USER: genes 13 Torsion [CA]-CB--OG-[HG] |==|  0.98670
USER: genes 14 Torsion [N]-CA--C-[N] |==|  0.50447
USER: genes 15 Torsion [C]-N--CA-[CB] |==|  0.26209
USER: genes 16 Torsion [N]-CA--C-[N] |==|  0.40022
USER: genes 17 Torsion [C]-N--CA-[CB] |==|  0.30541
USER: genes 18 Torsion [N]-CA--CB-[CG2] |==|  0.82248
USER: genes 19 Torsion [CA]-CB--CG1-[CD1] |==|  0.47948
USER: genes 20 Torsion [N]-CA--C-[O] |==|  0.44906
USER: genes 21 Torsion [N]-CA--CB-[CG1] |==|  0.81338
USER: genes 22 Torsion [CA]-CB--CG1-[CD1] |==|  0.32666
ROOT
ATOM      1  C   THR D   7      17.084  24.488  45.021  1.00  9.65 LIG 0.24  C 
ATOM      2 O    THR D   7      17.049  24.395  46.258  1.00 10.36 LIG-0.27  OA
ATOM      3  N   SER D   8      16.229  25.220  44.313  1.00  8.02 LIG-0.34  N 
ATOM      4 H    SER D   8      16.324  25.388  43.475  1.00  8.02 LIG 0.16  HD
ENDROOT
BRANCH 1 5
ATOM      5  CA  THR D   7      18.145  23.762  44.211  1.00 11.21 LIG 0.20  C 
BRANCH 5 6
ATOM      6  CB  THR D   7      18.487  22.429  44.904  1.00 12.81 LIG 0.15  C 
ATOM      7  CG2 THR D   7      19.083  22.662  46.282  1.00 13.23 LIG 0.04  C 
BRANCH 6 8
ATOM      8 OG1  THR D   7      17.295  21.643  45.035  1.00 15.88 LIG-0.39  OA
ATOM      9 HG1  THR D   7      17.485  20.829  44.947  1.00 15.88 LIG 0.21  HD
ENDBRANCH 6 8
ENDBRANCH 5 6
BRANCH 5 10
ATOM     10  N   THR D   7      19.342  24.575  44.054  1.00 13.33 LIG-0.34  N 
ATOM     11  C   PRO D   6      19.679  25.112  42.888  1.00 13.20 LIG 0.24  C 
ATOM     12 O    PRO D   6      18.978  25.030  41.879  1.00 14.28 LIG-0.27  OA
ATOM     13 H    THR D   7      19.800  24.671  44.776  1.00 13.33 LIG 0.16  HD
BRANCH 11 14
ATOM     14  CA  PRO D   6      20.996  25.884  42.854  1.00 20.50 LIG 0.18  C 
ATOM     15  CB  PRO D   6      21.060  26.716  41.573  1.00 26.18 LIG 0.04  C 
ATOM     16  CG  PRO D   6      21.866  25.893  40.629  1.00 30.25 LIG 0.02  C 
ATOM     17  CD  PRO D   6      22.897  25.230  41.479  1.00 26.41 LIG 0.13  C 
ATOM     18  N   PRO D   6      22.179  25.020  42.746  1.00 20.28 LIG-0.34  N 
ATOM     19  C   TYR D   5      22.514  24.102  43.663  1.00 26.16 LIG 0.26  C 
ATOM     20 O    TYR D   5      21.863  23.923  44.689  1.00 27.79 LIG-0.27  OA
BRANCH 19 21
ATOM     21  CA  TYR D   5      23.766  23.273  43.383  1.00 28.17 LIG 0.40  C 
ATOM     22  N   TYR D   5      24.456  22.961  44.628  1.00 34.40 LIG 0.61  N 
BRANCH 21 23
ATOM     23  CB  TYR D   5      23.401  21.986  42.639  1.00 23.65 LIG 0.09  C 
BRANCH 23 24
ATOM     24  CG  TYR D   5      22.262  21.213  43.268  1.00 24.31 LIG-0.06  A 
ATOM     25  CD2 TYR D   5      21.147  20.854  42.521  1.00 24.91 LIG 0.01  A 
ATOM     26  CE2 TYR D   5      20.102  20.151  43.088  1.00 24.35 LIG 0.04  A 
ATOM     27  CZ  TYR D   5      20.162  19.795  44.418  1.00 25.18 LIG 0.07  A 
ATOM     28  CE1 TYR D   5      21.258  20.139  45.186  1.00 25.68 LIG 0.04  A 
ATOM     29  CD1 TYR D   5      22.299  20.844  44.608  1.00 25.57 LIG 0.01  A 
BRANCH 27 30
ATOM     30 OH   TYR D   5      19.117  19.093  44.975  1.00 28.89 LIG-0.36  OA
ATOM     31 HH   TYR D   5      19.272  18.959  45.790  1.00 28.89 LIG 0.22  HD
ENDBRANCH 27 30
ENDBRANCH 23 24
ENDBRANCH 21 23
ENDBRANCH 19 21
ENDBRANCH 11 14
ENDBRANCH 5 10
ENDBRANCH 1 5
BRANCH 3 32
ATOM     32  CA  SER D   8      15.046  25.808  44.907  1.00  7.80 LIG 0.20  C 
BRANCH 32 33
ATOM     33  CB  SER D   8      14.339  26.724  43.915  1.00  7.43 LIG 0.20  C 
BRANCH 33 34
ATOM     34 OG   SER D   8      14.267  26.132  42.637  1.00  7.87 LIG-0.40  OA
ATOM     35 HG   SER D   8      14.687  25.405  42.641  1.00  7.87 LIG 0.21  HD
ENDBRANCH 33 34
ENDBRANCH 32 33
BRANCH 32 36
ATOM     36  C   SER D   8      14.114  24.692  45.320  1.00  7.75 LIG 0.24  C 
ATOM     37 O    SER D   8      14.427  23.513  45.157  1.00  8.57 LIG-0.27  OA
ATOM     38  N   ILE D   9      12.962  25.066  45.854  1.00  7.82 LIG-0.35  N 
ATOM     39 H    ILE D   9      12.759  25.879  46.046  1.00  7.82 LIG 0.16  HD
BRANCH 38 40
ATOM     40  CA  ILE D   9      11.928  24.096  46.161  1.00  8.70 LIG 0.18  C 
BRANCH 40 41
ATOM     41  C   ILE D   9      10.581  24.711  45.845  1.00  9.89 LIG 0.24  C 
ATOM     42  N   ILE D  10       9.668  23.882  45.355  1.00  9.26 LIG-0.34  N 
ATOM     43 H    ILE D  10       9.812  23.047  45.210  1.00  9.26 LIG 0.16  HD
ATOM     44 O    ILE D   9      10.384  25.918  46.002  1.00 11.43 LIG-0.27  OA
BRANCH 42 45
ATOM     45  CA  ILE D  10       8.326  24.323  45.014  1.00 10.77 LIG 0.19  C 
BRANCH 45 46
ATOM     46  CB  ILE D  10       8.103  24.327  43.486  1.00 11.26 LIG 0.01  C 
ATOM     47  CG2 ILE D  10       9.028  25.339  42.815  1.00 13.36 LIG 0.01  C 
BRANCH 46 48
ATOM     48  CG1 ILE D  10       8.320  22.927  42.905  1.00 10.59 LIG 0.00  C 
ATOM     49  CD1 ILE D  10       7.949  22.809  41.439  1.00 13.29 LIG 0.01  C 
ENDBRANCH 46 48
ENDBRANCH 45 46
BRANCH 45 50
ATOM     50  C   ILE D  10       7.285  23.430  45.675  1.00 10.61 LIG 0.20  C 
ATOM     51 O    ILE D  10       6.112  23.803  45.803  1.00 10.13 LIG-0.65  OA
ATOM     52 OXT  ILE D  10       7.625  22.327  46.100  1.00 13.38 LIG-0.65  OA
ENDBRANCH 45 50
ENDBRANCH 42 45
ENDBRANCH 40 41
BRANCH 40 53
ATOM     53  CB  ILE D   9      12.004  23.620  47.620  1.00  9.74 LIG 0.01  C 
ATOM     54  CG2 ILE D   9      10.773  22.794  47.975  1.00 14.85 LIG 0.01  C 
BRANCH 53 55
ATOM     55  CG1 ILE D   9      13.286  22.815  47.817  1.00  9.98 LIG 0.00  C 
ATOM     56  CD1 ILE D   9      14.248  23.420  48.813  1.00 13.31 LIG 0.01  C 
ENDBRANCH 53 55
ENDBRANCH 40 53
ENDBRANCH 38 40
ENDBRANCH 32 36
ENDBRANCH 3 32
TORSDOF 21
ENDMDL
MODEL 40
USER: ADFR SOLUTION from run 109
USER: SCORE 15.689647 LL:  -3.948 LR: -12.792 RR:   0.000 FEB:  -6.528
USER: RMSD 3.788205
USER: SEED 108
USER: STATUS searching
USER: GENES 23
USER: genes 0 Translation |==|  0.48942 0.40280 0.65132
USER: genes 1 Rotation |==|  0.92512 0.24678 0.48533 0.57025
USER: genes 2 Torsion [N]-C--CA-[N] |==|  0.93050
USER: genes 3 Torsion [C]-CA--CB-[CG2] |==|  0.96508
USER: genes 4 Torsion [CA]-CB--OG1-[HG1] |==|  0.53991
USER: genes 5 Torsion [C]-CA--N-[C] |==|  0.80434
USER: genes 6 Torsion [N]-C--CA-[CB] |==|  0.76201
USER: genes 7 Torsion [N]-C--CA-[N] |==|  0.44554
USER: genes 8 Torsion [C]-CA--CB-[CG] |==|  0.34943
USER: genes 9 Torsion [CA]-CB--CG-[CD1] |==|  0.07893
USER: genes 10 Torsion [CE2]-CZ--OH-[HH] |==|  0.91419
USER: genes 11 Torsion [C]-N--CA-[CB] |==|  0.78491
USER: genes 12 Torsion [N]-CA--CB-[OG] |==|  0.19393
USER: genes 13 Torsion [CA]-CB--OG-[HG] |==|  0.84920
USER: genes 14 Torsion [N]-CA--C-[N] |==|  0.13935
USER: genes 15 Torsion [C]-N--CA-[CB] |==|  0.51667
USER: genes 16 Torsion [N]-CA--C-[N] |==|  0.40151
USER: genes 17 Torsion [C]-N--CA-[CB] |==|  0.32566
USER: genes 18 Torsion [N]-CA--CB-[CG2] |==|  0.70959
USER: genes 19 Torsion [CA]-CB--CG1-[CD1] |==|  0.44641
USER: genes 20 Torsion [N]-CA--C-[O] |==|  0.99513
USER: genes 21 Torsion [N]-CA--CB-[CG1] |==|  0.37884
USER: genes 22 Torsion [CA]-CB--CG1-[CD1] |==|  0.28414
ROOT
ATOM      1  C   THR D   7      15.521  24.020  45.607  1.00  9.65 LIG 0.24  C 
ATOM      2 O    THR D   7      14.736  23.297  44.975  1.00 10.36 LIG-0.27  OA
ATOM      3  N   SER D   8      15.240  25.265  45.978  1.00  8.02 LIG-0.34  N 
ATOM      4 H    SER D   8      15.727  25.724  46.518  1.00  8.02 LIG 0.16  HD
ENDROOT
BRANCH 1 5
ATOM      5  CA  THR D   7      16.892  23.511  46.023  1.00 11.21 LIG 0.20  C 
BRANCH 5 6
ATOM      6  CB  THR D   7      16.753  22.687  47.318  1.00 12.81 LIG 0.15  C 
ATOM      7  CG2 THR D   7      15.385  22.881  47.950  1.00 13.23 LIG 0.04  C 
BRANCH 6 8
ATOM      8 OG1  THR D   7      16.938  21.297  47.018  1.00 15.88 LIG-0.39  OA
ATOM      9 HG1  THR D   7      16.673  20.833  47.667  1.00 15.88 LIG 0.21  HD
ENDBRANCH 6 8
ENDBRANCH 5 6
BRANCH 5 10
ATOM     10  N   THR D   7      17.829  24.606  46.216  1.00 13.33 LIG-0.34  N 
ATOM     11  C   PRO D   6      18.297  25.318  45.198  1.00 13.20 LIG 0.24  C 
ATOM     12 O    PRO D   6      17.925  25.159  44.035  1.00 14.28 LIG-0.27  OA
ATOM     13 H    THR D   7      18.045  24.746  47.037  1.00 13.33 LIG 0.16  HD
BRANCH 11 14
ATOM     14  CA  PRO D   6      19.327  26.393  45.540  1.00 20.50 LIG 0.18  C 
ATOM     15  CB  PRO D   6      18.599  27.677  45.939  1.00 26.18 LIG 0.04  C 
ATOM     16  CG  PRO D   6      18.592  28.506  44.701  1.00 30.25 LIG 0.02  C 
ATOM     17  CD  PRO D   6      19.900  28.225  44.041  1.00 26.41 LIG 0.13  C 
ATOM     18  N   PRO D   6      20.137  26.816  44.391  1.00 20.28 LIG-0.34  N 
ATOM     19  C   TYR D   5      20.939  25.990  43.704  1.00 26.16 LIG 0.26  C 
ATOM     20 O    TYR D   5      21.078  24.805  43.998  1.00 27.79 LIG-0.27  OA
BRANCH 19 21
ATOM     21  CA  TYR D   5      21.696  26.589  42.521  1.00 28.17 LIG 0.40  C 
ATOM     22  N   TYR D   5      22.836  25.752  42.172  1.00 34.40 LIG 0.61  N 
BRANCH 21 23
ATOM     23  CB  TYR D   5      20.766  26.752  41.316  1.00 23.65 LIG 0.09  C 
BRANCH 23 24
ATOM     24  CG  TYR D   5      20.733  28.155  40.749  1.00 24.31 LIG-0.06  A 
ATOM     25  CD2 TYR D   5      19.602  28.635  40.100  1.00 24.91 LIG 0.01  A 
ATOM     26  CE2 TYR D   5      19.565  29.913  39.578  1.00 24.35 LIG 0.04  A 
ATOM     27  CZ  TYR D   5      20.666  30.733  39.702  1.00 25.18 LIG 0.07  A 
ATOM     28  CE1 TYR D   5      21.804  30.282  40.342  1.00 25.68 LIG 0.04  A 
ATOM     29  CD1 TYR D   5      21.832  29.000  40.861  1.00 25.57 LIG 0.01  A 
BRANCH 27 30
ATOM     30 OH   TYR D   5      20.620  32.005  39.181  1.00 28.89 LIG-0.36  OA
ATOM     31 HH   TYR D   5      20.120  32.014  38.507  1.00 28.89 LIG 0.22  HD
ENDBRANCH 27 30
ENDBRANCH 23 24
ENDBRANCH 21 23
ENDBRANCH 19 21
ENDBRANCH 11 14
ENDBRANCH 5 10
ENDBRANCH 1 5
BRANCH 3 32
ATOM     32  CA  SER D   8      14.069  25.966  45.492  1.00  7.80 LIG 0.20  C 
BRANCH 32 33
ATOM     33  CB  SER D   8      14.286  26.466  44.068  1.00  7.43 LIG 0.20  C 
BRANCH 33 34
ATOM     34 OG   SER D   8      14.325  25.393  43.153  1.00  7.87 LIG-0.40  OA
ATOM     35 HG   SER D   8      14.903  24.836  43.399  1.00  7.87 LIG 0.21  HD
ENDBRANCH 33 34
ENDBRANCH 32 33
BRANCH 32 36
ATOM     36  C   SER D   8      12.896  25.013  45.521  1.00  7.75 LIG 0.24  C 
ATOM     37 O    SER D   8      12.174  24.868  44.534  1.00  8.57 LIG-0.27  OA
ATOM     38  N   ILE D   9      12.703  24.364  46.658  1.00  7.82 LIG-0.35  N 
ATOM     39 H    ILE D   9      13.239  24.393  47.329  1.00  7.82 LIG 0.16  HD
BRANCH 38 40
ATOM     40  CA  ILE D   9      11.532  23.530  46.855  1.00  8.70 LIG 0.18  C 
BRANCH 40 41
ATOM     41  C   ILE D   9      10.302  24.332  46.482  1.00  9.89 LIG 0.24  C 
ATOM     42  N   ILE D  10       9.321  23.650  45.906  1.00  9.26 LIG-0.34  N 
ATOM     43 H    ILE D  10       9.360  22.807  45.740  1.00  9.26 LIG 0.16  HD
ATOM     44 O    ILE D   9      10.259  25.549  46.672  1.00 11.43 LIG-0.27  OA
BRANCH 42 45
ATOM     45  CA  ILE D  10       8.074  24.278  45.502  1.00 10.77 LIG 0.19  C 
BRANCH 45 46
ATOM     46  CB  ILE D  10       7.869  24.195  43.974  1.00 11.26 LIG 0.01  C 
ATOM     47  CG2 ILE D  10       8.145  25.548  43.324  1.00 13.36 LIG 0.01  C 
BRANCH 46 48
ATOM     48  CG1 ILE D  10       8.765  23.111  43.367  1.00 10.59 LIG 0.00  C 
ATOM     49  CD1 ILE D  10       8.315  22.643  41.997  1.00 13.29 LIG 0.01  C 
ENDBRANCH 46 48
ENDBRANCH 45 46
BRANCH 45 50
ATOM     50  C   ILE D  10       6.892  23.628  46.207  1.00 10.61 LIG 0.20  C 
ATOM     51 O    ILE D  10       7.054  22.674  46.978  1.00 10.13 LIG-0.65  OA
ATOM     52 OXT  ILE D  10       5.758  24.053  45.990  1.00 13.38 LIG-0.65  OA
ENDBRANCH 45 50
ENDBRANCH 42 45
ENDBRANCH 40 41
BRANCH 40 53
ATOM     53  CB  ILE D   9      11.443  22.997  48.293  1.00  9.74 LIG 0.01  C 
ATOM     54  CG2 ILE D   9      12.406  23.753  49.202  1.00 14.85 LIG 0.01  C 
BRANCH 53 55
ATOM     55  CG1 ILE D   9      10.004  23.125  48.785  1.00  9.98 LIG 0.00  C 
ATOM     56  CD1 ILE D   9       9.227  21.828  48.769  1.00 13.31 LIG 0.01  C 
ENDBRANCH 53 55
ENDBRANCH 40 53
ENDBRANCH 38 40
ENDBRANCH 32 36
ENDBRANCH 3 32
TORSDOF 21
ENDMDL
MODEL 41
USER: ADFR SOLUTION from run 118
USER: SCORE 14.529346 LL:  -4.014 LR: -12.768 RR:   0.000 FEB:  -6.503
USER: RMSD 4.838252
USER: SEED 117
USER: STATUS no improvement in best in 3 clusters for 5 generations
USER: GENES 23
USER: genes 0 Translation |==|  0.49211 0.52132 0.63189
USER: genes 1 Rotation |==|  0.49823 0.49668 0.71880 0.94957
USER: genes 2 Torsion [N]-C--CA-[N] |==|  0.43977
USER: genes 3 Torsion [C]-CA--CB-[CG2] |==|  0.29223
USER: genes 4 Torsion [CA]-CB--OG1-[HG1] |==|  0.11832
USER: genes 5 Torsion [C]-CA--N-[C] |==|  0.58925
USER: genes 6 Torsion [N]-C--CA-[CB] |==|  0.77459
USER: genes 7 Torsion [N]-C--CA-[N] |==|  0.47544
USER: genes 8 Torsion [C]-CA--CB-[CG] |==|  0.86427
USER: genes 9 Torsion [CA]-CB--CG-[CD1] |==|  0.83202
USER: genes 10 Torsion [CE2]-CZ--OH-[HH] |==|  0.47942
USER: genes 11 Torsion [C]-N--CA-[CB] |==|  0.87222
USER: genes 12 Torsion [N]-CA--CB-[OG] |==|  0.79002
USER: genes 13 Torsion [CA]-CB--OG-[HG] |==|  0.71752
USER: genes 14 Torsion [N]-CA--C-[N] |==|  0.44727
USER: genes 15 Torsion [C]-N--CA-[CB] |==|  0.28128
USER: genes 16 Torsion [N]-CA--C-[N] |==|  0.85719
USER: genes 17 Torsion [C]-N--CA-[CB] |==|  0.78850
USER: genes 18 Torsion [N]-CA--CB-[CG2] |==|  0.55138
USER: genes 19 Torsion [CA]-CB--CG1-[CD1] |==|  0.39393
USER: genes 20 Torsion [N]-CA--C-[O] |==|  0.63591
USER: genes 21 Torsion [N]-CA--CB-[CG1] |==|  0.52612
USER: genes 22 Torsion [CA]-CB--CG1-[CD1] |==|  0.67955
ROOT
ATOM      1  C   THR D   7      15.596  25.709  45.140  1.00  9.65 LIG 0.24  C 
ATOM      2 O    THR D   7      15.051  26.366  46.040  1.00 10.36 LIG-0.27  OA
ATOM      3  N   SER D   8      15.045  24.641  44.571  1.00  8.02 LIG-0.34  N 
ATOM      4 H    SER D   8      15.360  24.259  43.868  1.00  8.02 LIG 0.16  HD
ENDROOT
BRANCH 1 5
ATOM      5  CA  THR D   7      16.964  26.099  44.605  1.00 11.21 LIG 0.20  C 
BRANCH 5 6
ATOM      6  CB  THR D   7      18.032  25.182  45.231  1.00 12.81 LIG 0.15  C 
ATOM      7  CG2 THR D   7      18.526  24.150  44.232  1.00 13.23 LIG 0.04  C 
BRANCH 6 8
ATOM      8 OG1  THR D   7      19.142  25.978  45.670  1.00 15.88 LIG-0.39  OA
ATOM      9 HG1  THR D   7      18.856  26.672  46.047  1.00 15.88 LIG 0.21  HD
ENDBRANCH 6 8
ENDBRANCH 5 6
BRANCH 5 10
ATOM     10  N   THR D   7      17.265  27.494  44.883  1.00 13.33 LIG-0.34  N 
ATOM     11  C   PRO D   6      18.005  28.231  44.064  1.00 13.20 LIG 0.24  C 
ATOM     12 O    PRO D   6      18.428  27.820  42.983  1.00 14.28 LIG-0.27  OA
ATOM     13 H    THR D   7      16.923  27.790  45.615  1.00 13.33 LIG 0.16  HD
BRANCH 11 14
ATOM     14  CA  PRO D   6      18.297  29.660  44.516  1.00 20.50 LIG 0.18  C 
ATOM     15  CB  PRO D   6      17.096  30.547  44.188  1.00 26.18 LIG 0.04  C 
ATOM     16  CG  PRO D   6      17.453  31.203  42.898  1.00 30.25 LIG 0.02  C 
ATOM     17  CD  PRO D   6      18.922  31.448  42.985  1.00 26.41 LIG 0.13  C 
ATOM     18  N   PRO D   6      19.392  30.298  43.772  1.00 20.28 LIG-0.34  N 
ATOM     19  C   TYR D   5      20.649  29.836  43.761  1.00 26.16 LIG 0.26  C 
ATOM     20 O    TYR D   5      20.996  28.843  44.397  1.00 27.79 LIG-0.27  OA
BRANCH 19 21
ATOM     21  CA  TYR D   5      21.661  30.609  42.917  1.00 28.17 LIG 0.40  C 
ATOM     22  N   TYR D   5      23.010  30.119  43.168  1.00 34.40 LIG 0.61  N 
BRANCH 21 23
ATOM     23  CB  TYR D   5      21.320  30.490  41.429  1.00 23.65 LIG 0.09  C 
BRANCH 23 24
ATOM     24  CG  TYR D   5      21.058  29.073  40.969  1.00 24.31 LIG-0.06  A 
ATOM     25  CD2 TYR D   5      19.829  28.714  40.430  1.00 24.91 LIG 0.01  A 
ATOM     26  CE2 TYR D   5      19.581  27.422  40.010  1.00 24.35 LIG 0.04  A 
ATOM     27  CZ  TYR D   5      20.569  26.467  40.123  1.00 25.18 LIG 0.07  A 
ATOM     28  CE1 TYR D   5      21.801  26.795  40.655  1.00 25.68 LIG 0.04  A 
ATOM     29  CD1 TYR D   5      22.038  28.092  41.074  1.00 25.57 LIG 0.01  A 
BRANCH 27 30
ATOM     30 OH   TYR D   5      20.315  25.183  39.700  1.00 28.89 LIG-0.36  OA
ATOM     31 HH   TYR D   5      21.023  24.732  39.730  1.00 28.89 LIG 0.22  HD
ENDBRANCH 27 30
ENDBRANCH 23 24
ENDBRANCH 21 23
ENDBRANCH 19 21
ENDBRANCH 11 14
ENDBRANCH 5 10
ENDBRANCH 1 5
BRANCH 3 32
ATOM     32  CA  SER D   8      13.846  24.022  45.097  1.00  7.80 LIG 0.20  C 
BRANCH 32 33
ATOM     33  CB  SER D   8      13.942  23.852  46.609  1.00  7.43 LIG 0.20  C 
BRANCH 33 34
ATOM     34 OG   SER D   8      14.794  22.780  46.947  1.00  7.87 LIG-0.40  OA
ATOM     35 HG   SER D   8      14.333  22.109  47.153  1.00  7.87 LIG 0.21  HD
ENDBRANCH 33 34
ENDBRANCH 32 33
BRANCH 32 36
ATOM     36  C   SER D   8      12.665  24.904  44.760  1.00  7.75 LIG 0.24  C 
ATOM     37 O    SER D   8      12.824  26.087  44.461  1.00  8.57 LIG-0.27  OA
ATOM     38  N   ILE D   9      11.476  24.326  44.812  1.00  7.82 LIG-0.35  N 
ATOM     39 H    ILE D   9      11.351  23.485  44.943  1.00  7.82 LIG 0.16  HD
BRANCH 38 40
ATOM     40  CA  ILE D   9      10.259  25.099  44.647  1.00  8.70 LIG 0.18  C 
BRANCH 40 41
ATOM     41  C   ILE D   9       9.267  24.668  45.708  1.00  9.89 LIG 0.24  C 
ATOM     42  N   ILE D  10       9.049  23.363  45.797  1.00  9.26 LIG-0.34  N 
ATOM     43 H    ILE D  10       9.429  22.780  45.292  1.00  9.26 LIG 0.16  HD
ATOM     44 O    ILE D   9       8.679  25.501  46.400  1.00 11.43 LIG-0.27  OA
BRANCH 42 45
ATOM     45  CA  ILE D  10       8.132  22.796  46.773  1.00 10.77 LIG 0.19  C 
BRANCH 45 46
ATOM     46  CB  ILE D  10       8.753  22.780  48.187  1.00 11.26 LIG 0.01  C 
ATOM     47  CG2 ILE D  10       8.005  21.799  49.086  1.00 13.36 LIG 0.01  C 
BRANCH 46 48
ATOM     48  CG1 ILE D  10      10.242  22.426  48.119  1.00 10.59 LIG 0.00  C 
ATOM     49  CD1 ILE D  10      11.099  23.199  49.102  1.00 13.29 LIG 0.01  C 
ENDBRANCH 46 48
ENDBRANCH 45 46
BRANCH 45 50
ATOM     50  C   ILE D  10       6.828  23.580  46.802  1.00 10.61 LIG 0.20  C 
ATOM     51 O    ILE D  10       6.337  23.965  47.870  1.00 10.13 LIG-0.65  OA
ATOM     52 OXT  ILE D  10       6.248  23.817  45.743  1.00 13.38 LIG-0.65  OA
ENDBRANCH 45 50
ENDBRANCH 42 45
ENDBRANCH 40 41
BRANCH 40 53
ATOM     53  CB  ILE D   9       9.674  24.952  43.234  1.00  9.74 LIG 0.01  C 
ATOM     54  CG2 ILE D   9       9.184  23.527  43.006  1.00 14.85 LIG 0.01  C 
BRANCH 53 55
ATOM     55  CG1 ILE D   9       8.543  25.962  43.055  1.00  9.98 LIG 0.00  C 
ATOM     56  CD1 ILE D   9       7.182  25.336  42.857  1.00 13.31 LIG 0.01  C 
ENDBRANCH 53 55
ENDBRANCH 40 53
ENDBRANCH 38 40
ENDBRANCH 32 36
ENDBRANCH 3 32
TORSDOF 21
ENDMDL
MODEL 42
USER: ADFR SOLUTION from run 57
USER: SCORE 16.066846 LL:  -5.703 LR: -12.768 RR:   0.000 FEB:  -6.504
USER: RMSD 9.879821
USER: SEED 56
USER: STATUS no improvement in best in 14 clusters for 5 generations
USER: GENES 23
USER: genes 0 Translation |==|  0.31396 0.46766 0.57948
USER: genes 1 Rotation |==|  0.14761 0.41324 0.57885 0.83478
USER: genes 2 Torsion [N]-C--CA-[N] |==|  0.00054
USER: genes 3 Torsion [C]-CA--CB-[CG2] |==|  0.26259
USER: genes 4 Torsion [CA]-CB--OG1-[HG1] |==|  0.49770
USER: genes 5 Torsion [C]-CA--N-[C] |==|  0.75234
USER: genes 6 Torsion [N]-C--CA-[CB] |==|  0.55822
USER: genes 7 Torsion [N]-C--CA-[N] |==|  0.37228
USER: genes 8 Torsion [C]-CA--CB-[CG] |==|  0.03895
USER: genes 9 Torsion [CA]-CB--CG-[CD1] |==|  0.21070
USER: genes 10 Torsion [CE2]-CZ--OH-[HH] |==|  0.03032
USER: genes 11 Torsion [C]-N--CA-[CB] |==|  0.45639
USER: genes 12 Torsion [N]-CA--CB-[OG] |==|  0.14434
USER: genes 13 Torsion [CA]-CB--OG-[HG] |==|  0.89094
USER: genes 14 Torsion [N]-CA--C-[N] |==|  0.90239
USER: genes 15 Torsion [C]-N--CA-[CB] |==|  0.85445
USER: genes 16 Torsion [N]-CA--C-[N] |==|  0.51626
USER: genes 17 Torsion [C]-N--CA-[CB] |==|  0.46994
USER: genes 18 Torsion [N]-CA--CB-[CG2] |==|  0.73523
USER: genes 19 Torsion [CA]-CB--CG1-[CD1] |==|  0.24534
USER: genes 20 Torsion [N]-CA--C-[O] |==|  0.70515
USER: genes 21 Torsion [N]-CA--CB-[CG1] |==|  0.89523
USER: genes 22 Torsion [CA]-CB--CG1-[CD1] |==|  0.81617
ROOT
ATOM      1  C   THR D   7      10.652  24.944  43.882  1.00  9.65 LIG 0.24  C 
ATOM      2 O    THR D   7      10.435  25.802  43.013  1.00 10.36 LIG-0.27  OA
ATOM      3  N   SER D   8       9.846  23.914  44.118  1.00  8.02 LIG-0.34  N 
ATOM      4 H    SER D   8      10.051  23.253  44.629  1.00  8.02 LIG 0.16  HD
ENDROOT
BRANCH 1 5
ATOM      5  CA  THR D   7      11.898  25.008  44.752  1.00 11.21 LIG 0.20  C 
BRANCH 5 6
ATOM      6  CB  THR D   7      13.146  25.014  43.848  1.00 12.81 LIG 0.15  C 
ATOM      7  CG2 THR D   7      13.617  26.431  43.569  1.00 13.23 LIG 0.04  C 
BRANCH 6 8
ATOM      8 OG1  THR D   7      14.201  24.287  44.491  1.00 15.88 LIG-0.39  OA
ATOM      9 HG1  THR D   7      14.879  24.279  43.994  1.00 15.88 LIG 0.21  HD
ENDBRANCH 6 8
ENDBRANCH 5 6
BRANCH 5 10
ATOM     10  N   THR D   7      11.951  23.893  45.685  1.00 13.33 LIG-0.34  N 
ATOM     11  C   PRO D   6      11.400  23.959  46.891  1.00 13.20 LIG 0.24  C 
ATOM     12 O    PRO D   6      10.745  24.925  47.282  1.00 14.28 LIG-0.27  OA
ATOM     13 H    THR D   7      12.366  23.202  45.385  1.00 13.33 LIG 0.16  HD
BRANCH 11 14
ATOM     14  CA  PRO D   6      11.592  22.740  47.790  1.00 20.50 LIG 0.18  C 
ATOM     15  CB  PRO D   6      10.513  22.738  48.873  1.00 26.18 LIG 0.04  C 
ATOM     16  CG  PRO D   6      11.173  23.343  50.064  1.00 30.25 LIG 0.02  C 
ATOM     17  CD  PRO D   6      12.583  22.857  50.012  1.00 26.41 LIG 0.13  C 
ATOM     18  N   PRO D   6      12.839  22.775  48.566  1.00 20.28 LIG-0.34  N 
ATOM     19  C   TYR D   5      14.058  22.802  48.011  1.00 26.16 LIG 0.26  C 
ATOM     20 O    TYR D   5      14.233  22.778  46.795  1.00 27.79 LIG-0.27  OA
BRANCH 19 21
ATOM     21  CA  TYR D   5      15.249  22.858  48.964  1.00 28.17 LIG 0.40  C 
ATOM     22  N   TYR D   5      16.269  21.898  48.560  1.00 34.40 LIG 0.61  N 
BRANCH 21 23
ATOM     23  CB  TYR D   5      15.836  24.271  49.007  1.00 23.65 LIG 0.09  C 
BRANCH 23 24
ATOM     24  CG  TYR D   5      14.941  25.328  48.397  1.00 24.31 LIG-0.06  A 
ATOM     25  CD2 TYR D   5      15.215  25.857  47.142  1.00 24.91 LIG 0.01  A 
ATOM     26  CE2 TYR D   5      14.405  26.823  46.579  1.00 24.35 LIG 0.04  A 
ATOM     27  CZ  TYR D   5      13.300  27.273  47.270  1.00 25.18 LIG 0.07  A 
ATOM     28  CE1 TYR D   5      13.003  26.767  48.520  1.00 25.68 LIG 0.04  A 
ATOM     29  CD1 TYR D   5      13.822  25.799  49.076  1.00 25.57 LIG 0.01  A 
BRANCH 27 30
ATOM     30 OH   TYR D   5      12.497  28.235  46.702  1.00 28.89 LIG-0.36  OA
ATOM     31 HH   TYR D   5      12.709  28.337  45.896  1.00 28.89 LIG 0.22  HD
ENDBRANCH 27 30
ENDBRANCH 23 24
ENDBRANCH 21 23
ENDBRANCH 19 21
ENDBRANCH 11 14
ENDBRANCH 5 10
ENDBRANCH 1 5
BRANCH 3 32
ATOM     32  CA  SER D   8       8.530  23.817  43.523  1.00  7.80 LIG 0.20  C 
BRANCH 32 33
ATOM     33  CB  SER D   8       7.985  22.397  43.637  1.00  7.43 LIG 0.20  C 
BRANCH 33 34
ATOM     34 OG   SER D   8       8.051  21.933  44.967  1.00  7.87 LIG-0.40  OA
ATOM     35 HG   SER D   8       8.768  22.192  45.319  1.00  7.87 LIG 0.21  HD
ENDBRANCH 33 34
ENDBRANCH 32 33
BRANCH 32 36
ATOM     36  C   SER D   8       7.607  24.773  44.243  1.00  7.75 LIG 0.24  C 
ATOM     37 O    SER D   8       6.717  25.370  43.637  1.00  8.57 LIG-0.27  OA
ATOM     38  N   ILE D   9       7.821  24.921  45.540  1.00  7.82 LIG-0.35  N 
ATOM     39 H    ILE D   9       8.385  24.456  45.994  1.00  7.82 LIG 0.16  HD
BRANCH 38 40
ATOM     40  CA  ILE D   9       7.095  25.913  46.311  1.00  8.70 LIG 0.18  C 
BRANCH 40 41
ATOM     41  C   ILE D   9       5.657  25.457  46.448  1.00  9.89 LIG 0.24  C 
ATOM     42  N   ILE D  10       4.831  26.319  47.027  1.00  9.26 LIG-0.34  N 
ATOM     43 H    ILE D  10       5.075  27.090  47.320  1.00  9.26 LIG 0.16  HD
ATOM     44 O    ILE D   9       5.311  24.333  46.077  1.00 11.43 LIG-0.27  OA
BRANCH 42 45
ATOM     45  CA  ILE D  10       3.420  26.029  47.219  1.00 10.77 LIG 0.19  C 
BRANCH 45 46
ATOM     46  CB  ILE D  10       2.751  27.067  48.145  1.00 11.26 LIG 0.01  C 
ATOM     47  CG2 ILE D  10       2.723  26.560  49.585  1.00 13.36 LIG 0.01  C 
BRANCH 46 48
ATOM     48  CG1 ILE D  10       3.477  28.414  48.060  1.00 10.59 LIG 0.00  C 
ATOM     49  CD1 ILE D  10       2.955  29.321  46.963  1.00 13.29 LIG 0.01  C 
ENDBRANCH 46 48
ENDBRANCH 45 46
BRANCH 45 50
ATOM     50  C   ILE D  10       2.691  25.999  45.883  1.00 10.61 LIG 0.20  C 
ATOM     51 O    ILE D  10       1.940  26.921  45.545  1.00 10.13 LIG-0.65  OA
ATOM     52 OXT  ILE D  10       2.845  25.031  45.139  1.00 13.38 LIG-0.65  OA
ENDBRANCH 45 50
ENDBRANCH 42 45
ENDBRANCH 40 41
BRANCH 40 53
ATOM     53  CB  ILE D   9       7.186  27.310  45.678  1.00  9.74 LIG 0.01  C 
ATOM     54  CG2 ILE D   9       6.857  28.384  46.709  1.00 14.85 LIG 0.01  C 
BRANCH 53 55
ATOM     55  CG1 ILE D   9       8.585  27.507  45.102  1.00  9.98 LIG 0.00  C 
ATOM     56  CD1 ILE D   9       9.682  27.550  46.142  1.00 13.31 LIG 0.01  C 
ENDBRANCH 53 55
ENDBRANCH 40 53
ENDBRANCH 38 40
ENDBRANCH 32 36
ENDBRANCH 3 32
TORSDOF 21
ENDMDL
MODEL 43
USER: ADFR SOLUTION from run 136
USER: SCORE 16.171408 LL:  -5.318 LR: -12.764 RR:   0.000 FEB:  -6.499
USER: RMSD 6.963050
USER: SEED 135
USER: STATUS searching
USER: GENES 23
USER: genes 0 Translation |==|  0.48231 0.34213 0.66509
USER: genes 1 Rotation |==|  0.10485 0.57518 0.66038 0.74997
USER: genes 2 Torsion [N]-C--CA-[N] |==|  0.78465
USER: genes 3 Torsion [C]-CA--CB-[CG2] |==|  0.46886
USER: genes 4 Torsion [CA]-CB--OG1-[HG1] |==|  0.41175
USER: genes 5 Torsion [C]-CA--N-[C] |==|  0.84693
USER: genes 6 Torsion [N]-C--CA-[CB] |==|  0.77156
USER: genes 7 Torsion [N]-C--CA-[N] |==|  0.25606
USER: genes 8 Torsion [C]-CA--CB-[CG] |==|  0.30718
USER: genes 9 Torsion [CA]-CB--CG-[CD1] |==|  0.84388
USER: genes 10 Torsion [CE2]-CZ--OH-[HH] |==|  0.13067
USER: genes 11 Torsion [C]-N--CA-[CB] |==|  0.53418
USER: genes 12 Torsion [N]-CA--CB-[OG] |==|  0.95204
USER: genes 13 Torsion [CA]-CB--OG-[HG] |==|  0.90159
USER: genes 14 Torsion [N]-CA--C-[N] |==|  0.33224
USER: genes 15 Torsion [C]-N--CA-[CB] |==|  0.22773
USER: genes 16 Torsion [N]-CA--C-[N] |==|  0.00345
USER: genes 17 Torsion [C]-N--CA-[CB] |==|  0.32576
USER: genes 18 Torsion [N]-CA--CB-[CG2] |==|  0.37662
USER: genes 19 Torsion [CA]-CB--CG1-[CD1] |==|  0.15322
USER: genes 20 Torsion [N]-CA--C-[O] |==|  0.85607
USER: genes 21 Torsion [N]-CA--CB-[CG1] |==|  0.11722
USER: genes 22 Torsion [CA]-CB--CG1-[CD1] |==|  0.58707
ROOT
ATOM      1  C   THR D   7      15.324  23.155  45.937  1.00  9.65 LIG 0.24  C 
ATOM      2 O    THR D   7      14.682  23.601  44.974  1.00 10.36 LIG-0.27  OA
ATOM      3  N   SER D   8      14.759  22.658  47.033  1.00  8.02 LIG-0.34  N 
ATOM      4 H    SER D   8      15.192  22.237  47.645  1.00  8.02 LIG 0.16  HD
ENDROOT
BRANCH 1 5
ATOM      5  CA  THR D   7      16.844  23.135  45.923  1.00 11.21 LIG 0.20  C 
BRANCH 5 6
ATOM      6  CB  THR D   7      17.336  21.764  46.426  1.00 12.81 LIG 0.15  C 
ATOM      7  CG2 THR D   7      18.824  21.588  46.176  1.00 13.23 LIG 0.04  C 
BRANCH 6 8
ATOM      8 OG1  THR D   7      17.081  21.655  47.832  1.00 15.88 LIG-0.39  OA
ATOM      9 HG1  THR D   7      16.926  20.852  48.028  1.00 15.88 LIG 0.21  HD
ENDBRANCH 6 8
ENDBRANCH 5 6
BRANCH 5 10
ATOM     10  N   THR D   7      17.397  24.204  46.739  1.00 13.33 LIG-0.34  N 
ATOM     11  C   PRO D   6      17.069  25.476  46.547  1.00 13.20 LIG 0.24  C 
ATOM     12 O    PRO D   6      16.227  25.840  45.726  1.00 14.28 LIG-0.27  OA
ATOM     13 H    THR D   7      17.945  23.938  47.345  1.00 13.33 LIG 0.16  HD
BRANCH 11 14
ATOM     14  CA  PRO D   6      17.778  26.499  47.433  1.00 20.50 LIG 0.18  C 
ATOM     15  CB  PRO D   6      17.070  26.571  48.785  1.00 26.18 LIG 0.04  C 
ATOM     16  CG  PRO D   6      16.161  27.747  48.673  1.00 30.25 LIG 0.02  C 
ATOM     17  CD  PRO D   6      16.914  28.738  47.850  1.00 26.41 LIG 0.13  C 
ATOM     18  N   PRO D   6      17.677  27.876  46.933  1.00 20.28 LIG-0.34  N 
ATOM     19  C   TYR D   5      18.162  28.274  45.749  1.00 26.16 LIG 0.26  C 
ATOM     20 O    TYR D   5      18.755  27.514  44.987  1.00 27.79 LIG-0.27  OA
BRANCH 19 21
ATOM     21  CA  TYR D   5      17.952  29.740  45.374  1.00 28.17 LIG 0.40  C 
ATOM     22  N   TYR D   5      19.093  30.540  45.799  1.00 34.40 LIG 0.61  N 
BRANCH 21 23
ATOM     23  CB  TYR D   5      17.734  29.882  43.865  1.00 23.65 LIG 0.09  C 
BRANCH 23 24
ATOM     24  CG  TYR D   5      16.326  30.281  43.482  1.00 24.31 LIG-0.06  A 
ATOM     25  CD2 TYR D   5      16.090  31.415  42.715  1.00 24.91 LIG 0.01  A 
ATOM     26  CE2 TYR D   5      14.807  31.787  42.363  1.00 24.35 LIG 0.04  A 
ATOM     27  CZ  TYR D   5      13.738  31.022  42.775  1.00 25.18 LIG 0.07  A 
ATOM     28  CE1 TYR D   5      13.941  29.889  43.539  1.00 25.68 LIG 0.04  A 
ATOM     29  CD1 TYR D   5      15.231  29.525  43.887  1.00 25.57 LIG 0.01  A 
BRANCH 27 30
ATOM     30 OH   TYR D   5      12.464  31.398  42.419  1.00 28.89 LIG-0.36  OA
ATOM     31 HH   TYR D   5      12.445  31.584  41.600  1.00 28.89 LIG 0.22  HD
ENDBRANCH 27 30
ENDBRANCH 23 24
ENDBRANCH 21 23
ENDBRANCH 19 21
ENDBRANCH 11 14
ENDBRANCH 5 10
ENDBRANCH 1 5
BRANCH 3 32
ATOM     32  CA  SER D   8      13.339  22.786  47.291  1.00  7.80 LIG 0.20  C 
BRANCH 32 33
ATOM     33  CB  SER D   8      13.012  22.405  48.730  1.00  7.43 LIG 0.20  C 
BRANCH 33 34
ATOM     34 OG   SER D   8      14.064  21.668  49.313  1.00  7.87 LIG-0.40  OA
ATOM     35 HG   SER D   8      14.416  21.174  48.732  1.00  7.87 LIG 0.21  HD
ENDBRANCH 33 34
ENDBRANCH 32 33
BRANCH 32 36
ATOM     36  C   SER D   8      12.936  24.222  47.043  1.00  7.75 LIG 0.24  C 
ATOM     37 O    SER D   8      13.435  25.140  47.692  1.00  8.57 LIG-0.27  OA
ATOM     38  N   ILE D   9      12.026  24.415  46.101  1.00  7.82 LIG-0.35  N 
ATOM     39 H    ILE D   9      11.724  23.796  45.586  1.00  7.82 LIG 0.16  HD
BRANCH 38 40
ATOM     40  CA  ILE D   9      11.457  25.729  45.868  1.00  8.70 LIG 0.18  C 
BRANCH 40 41
ATOM     41  C   ILE D   9      10.085  25.556  45.248  1.00  9.89 LIG 0.24  C 
ATOM     42  N   ILE D  10       9.684  24.304  45.074  1.00  9.26 LIG-0.34  N 
ATOM     43 H    ILE D  10      10.157  23.618  45.286  1.00  9.26 LIG 0.16  HD
ATOM     44 O    ILE D   9       9.424  26.534  44.894  1.00 11.43 LIG-0.27  OA
BRANCH 42 45
ATOM     45  CA  ILE D  10       8.388  23.979  44.501  1.00 10.77 LIG 0.19  C 
BRANCH 45 46
ATOM     46  CB  ILE D  10       8.536  23.207  43.172  1.00 11.26 LIG 0.01  C 
ATOM     47  CG2 ILE D  10       7.566  22.030  43.127  1.00 13.36 LIG 0.01  C 
BRANCH 46 48
ATOM     48  CG1 ILE D  10       8.311  24.140  41.977  1.00 10.59 LIG 0.00  C 
ATOM     49  CD1 ILE D  10       9.208  25.363  41.979  1.00 13.29 LIG 0.01  C 
ENDBRANCH 46 48
ENDBRANCH 45 46
BRANCH 45 50
ATOM     50  C   ILE D  10       7.562  23.152  45.476  1.00 10.61 LIG 0.20  C 
ATOM     51 O    ILE D  10       8.024  22.130  45.997  1.00 10.13 LIG-0.65  OA
ATOM     52 OXT  ILE D  10       6.412  23.505  45.735  1.00 13.38 LIG-0.65  OA
ENDBRANCH 45 50
ENDBRANCH 42 45
ENDBRANCH 40 41
BRANCH 40 53
ATOM     53  CB  ILE D   9      12.368  26.600  44.989  1.00  9.74 LIG 0.01  C 
ATOM     54  CG2 ILE D   9      13.489  27.208  45.824  1.00 14.85 LIG 0.01  C 
BRANCH 53 55
ATOM     55  CG1 ILE D   9      12.924  25.750  43.851  1.00  9.98 LIG 0.00  C 
ATOM     56  CD1 ILE D   9      14.303  26.162  43.388  1.00 13.31 LIG 0.01  C 
ENDBRANCH 53 55
ENDBRANCH 40 53
ENDBRANCH 38 40
ENDBRANCH 32 36
ENDBRANCH 3 32
TORSDOF 21
ENDMDL
MODEL 44
USER: ADFR SOLUTION from run 36
USER: SCORE 14.742605 LL:  -4.215 LR: -12.750 RR:   0.000 FEB:  -6.485
USER: RMSD 5.818511
USER: SEED 35
USER: STATUS no improvement in best in 5 clusters for 5 generations
USER: GENES 23
USER: genes 0 Translation |==|  0.47223 0.42127 0.63888
USER: genes 1 Rotation |==|  0.07397 0.47323 0.68573 0.68245
USER: genes 2 Torsion [N]-C--CA-[N] |==|  0.31799
USER: genes 3 Torsion [C]-CA--CB-[CG2] |==|  0.54038
USER: genes 4 Torsion [CA]-CB--OG1-[HG1] |==|  0.57143
USER: genes 5 Torsion [C]-CA--N-[C] |==|  0.60028
USER: genes 6 Torsion [N]-C--CA-[CB] |==|  0.57634
USER: genes 7 Torsion [N]-C--CA-[N] |==|  0.26198
USER: genes 8 Torsion [C]-CA--CB-[CG] |==|  0.19743
USER: genes 9 Torsion [CA]-CB--CG-[CD1] |==|  0.05380
USER: genes 10 Torsion [CE2]-CZ--OH-[HH] |==|  0.93272
USER: genes 11 Torsion [C]-N--CA-[CB] |==|  0.52222
USER: genes 12 Torsion [N]-CA--CB-[OG] |==|  0.93059
USER: genes 13 Torsion [CA]-CB--OG-[HG] |==|  0.79531
USER: genes 14 Torsion [N]-CA--C-[N] |==|  0.34502
USER: genes 15 Torsion [C]-N--CA-[CB] |==|  0.42426
USER: genes 16 Torsion [N]-CA--C-[N] |==|  0.87137
USER: genes 17 Torsion [C]-N--CA-[CB] |==|  0.78623
USER: genes 18 Torsion [N]-CA--CB-[CG2] |==|  0.54473
USER: genes 19 Torsion [CA]-CB--CG1-[CD1] |==|  0.44336
USER: genes 20 Torsion [N]-CA--C-[O] |==|  0.15468
USER: genes 21 Torsion [N]-CA--CB-[CG1] |==|  0.53463
USER: genes 22 Torsion [CA]-CB--CG1-[CD1] |==|  0.70414
ROOT
ATOM      1  C   THR D   7      15.044  24.283  45.308  1.00  9.65 LIG 0.24  C 
ATOM      2 O    THR D   7      14.422  24.280  44.235  1.00 10.36 LIG-0.27  OA
ATOM      3  N   SER D   8      14.610  23.685  46.413  1.00  8.02 LIG-0.34  N 
ATOM      4 H    SER D   8      15.090  23.578  47.119  1.00  8.02 LIG 0.16  HD
ENDROOT
BRANCH 1 5
ATOM      5  CA  THR D   7      16.390  24.978  45.430  1.00 11.21 LIG 0.20  C 
BRANCH 5 6
ATOM      6  CB  THR D   7      16.231  26.461  45.041  1.00 12.81 LIG 0.15  C 
ATOM      7  CG2 THR D   7      17.582  27.114  44.800  1.00 13.23 LIG 0.04  C 
BRANCH 6 8
ATOM      8 OG1  THR D   7      15.445  26.556  43.846  1.00 15.88 LIG-0.39  OA
ATOM      9 HG1  THR D   7      15.637  27.266  43.440  1.00 15.88 LIG 0.21  HD
ENDBRANCH 6 8
ENDBRANCH 5 6
BRANCH 5 10
ATOM     10  N   THR D   7      17.396  24.339  44.596  1.00 13.33 LIG-0.34  N 
ATOM     11  C   PRO D   6      18.662  24.232  44.980  1.00 13.20 LIG 0.24  C 
ATOM     12 O    PRO D   6      19.066  24.592  46.085  1.00 14.28 LIG-0.27  OA
ATOM     13 H    THR D   7      17.096  24.042  43.846  1.00 13.33 LIG 0.16  HD
BRANCH 11 14
ATOM     14  CA  PRO D   6      19.622  23.598  43.974  1.00 20.50 LIG 0.18  C 
ATOM     15  CB  PRO D   6      20.775  22.936  44.728  1.00 26.18 LIG 0.04  C 
ATOM     16  CG  PRO D   6      21.876  23.939  44.690  1.00 30.25 LIG 0.02  C 
ATOM     17  CD  PRO D   6      21.758  24.590  43.352  1.00 26.41 LIG 0.13  C 
ATOM     18  N   PRO D   6      20.305  24.578  43.119  1.00 20.28 LIG-0.34  N 
ATOM     19  C   TYR D   5      19.666  25.406  42.283  1.00 26.16 LIG 0.26  C 
ATOM     20 O    TYR D   5      18.445  25.398  42.147  1.00 27.79 LIG-0.27  OA
BRANCH 19 21
ATOM     21  CA  TYR D   5      20.529  26.378  41.481  1.00 28.17 LIG 0.40  C 
ATOM     22  N   TYR D   5      20.843  25.818  40.173  1.00 34.40 LIG 0.61  N 
BRANCH 21 23
ATOM     23  CB  TYR D   5      19.818  27.725  41.326  1.00 23.65 LIG 0.09  C 
BRANCH 23 24
ATOM     24  CG  TYR D   5      19.739  28.530  42.606  1.00 24.31 LIG-0.06  A 
ATOM     25  CD2 TYR D   5      18.812  29.555  42.747  1.00 24.91 LIG 0.01  A 
ATOM     26  CE2 TYR D   5      18.735  30.295  43.910  1.00 24.35 LIG 0.04  A 
ATOM     27  CZ  TYR D   5      19.590  30.015  44.955  1.00 25.18 LIG 0.07  A 
ATOM     28  CE1 TYR D   5      20.522  29.002  44.843  1.00 25.68 LIG 0.04  A 
ATOM     29  CD1 TYR D   5      20.592  28.266  43.672  1.00 25.57 LIG 0.01  A 
BRANCH 27 30
ATOM     30 OH   TYR D   5      19.506  30.756  46.111  1.00 28.89 LIG-0.36  OA
ATOM     31 HH   TYR D   5      19.166  31.504  45.940  1.00 28.89 LIG 0.22  HD
ENDBRANCH 27 30
ENDBRANCH 23 24
ENDBRANCH 21 23
ENDBRANCH 19 21
ENDBRANCH 11 14
ENDBRANCH 5 10
ENDBRANCH 1 5
BRANCH 3 32
ATOM     32  CA  SER D   8      13.267  23.155  46.523  1.00  7.80 LIG 0.20  C 
BRANCH 32 33
ATOM     33  CB  SER D   8      12.975  22.706  47.950  1.00  7.43 LIG 0.20  C 
BRANCH 33 34
ATOM     34 OG   SER D   8      14.165  22.381  48.635  1.00  7.87 LIG-0.40  OA
ATOM     35 HG   SER D   8      14.460  21.648  48.351  1.00  7.87 LIG 0.21  HD
ENDBRANCH 33 34
ENDBRANCH 32 33
BRANCH 32 36
ATOM     36  C   SER D   8      12.291  24.238  46.123  1.00  7.75 LIG 0.24  C 
ATOM     37 O    SER D   8      12.294  25.332  46.687  1.00  8.57 LIG-0.27  OA
ATOM     38  N   ILE D   9      11.450  23.931  45.148  1.00  7.82 LIG-0.35  N 
ATOM     39 H    ILE D   9      11.484  23.203  44.691  1.00  7.82 LIG 0.16  HD
BRANCH 38 40
ATOM     40  CA  ILE D   9      10.379  24.833  44.771  1.00  8.70 LIG 0.18  C 
BRANCH 40 41
ATOM     41  C   ILE D   9       9.205  24.601  45.700  1.00  9.89 LIG 0.24  C 
ATOM     42  N   ILE D  10       8.875  23.332  45.907  1.00  9.26 LIG-0.34  N 
ATOM     43 H    ILE D  10       9.283  22.668  45.543  1.00  9.26 LIG 0.16  HD
ATOM     44 O    ILE D   9       8.584  25.549  46.184  1.00 11.43 LIG-0.27  OA
BRANCH 42 45
ATOM     45  CA  ILE D  10       7.779  22.951  46.782  1.00 10.77 LIG 0.19  C 
BRANCH 45 46
ATOM     46  CB  ILE D  10       8.178  23.063  48.269  1.00 11.26 LIG 0.01  C 
ATOM     47  CG2 ILE D  10       7.190  22.299  49.146  1.00 13.36 LIG 0.01  C 
BRANCH 46 48
ATOM     48  CG1 ILE D  10       9.604  22.548  48.486  1.00 10.59 LIG 0.00  C 
ATOM     49  CD1 ILE D  10      10.249  23.052  49.763  1.00 13.29 LIG 0.01  C 
ENDBRANCH 46 48
ENDBRANCH 45 46
BRANCH 45 50
ATOM     50  C   ILE D  10       6.556  23.818  46.520  1.00 10.61 LIG 0.20  C 
ATOM     51 O    ILE D  10       6.065  23.905  45.388  1.00 10.13 LIG-0.65  OA
ATOM     52 OXT  ILE D  10       6.062  24.454  47.450  1.00 13.38 LIG-0.65  OA
ENDBRANCH 45 50
ENDBRANCH 42 45
ENDBRANCH 40 41
BRANCH 40 53
ATOM     53  CB  ILE D   9       9.975  24.661  43.299  1.00  9.74 LIG 0.01  C 
ATOM     54  CG2 ILE D   9       9.271  23.325  43.092  1.00 14.85 LIG 0.01  C 
BRANCH 53 55
ATOM     55  CG1 ILE D   9       9.081  25.827  42.886  1.00  9.98 LIG 0.00  C 
ATOM     56  CD1 ILE D   9       7.622  25.463  42.731  1.00 13.31 LIG 0.01  C 
ENDBRANCH 53 55
ENDBRANCH 40 53
ENDBRANCH 38 40
ENDBRANCH 32 36
ENDBRANCH 3 32
TORSDOF 21
ENDMDL
MODEL 45
USER: ADFR SOLUTION from run 135
USER: SCORE 15.012142 LL:  -4.271 LR: -12.725 RR:   0.000 FEB:  -6.460
USER: RMSD 5.833736
USER: SEED 134
USER: STATUS no improvement in best in 6 clusters for 5 generations
USER: GENES 23
USER: genes 0 Translation |==|  0.42634 0.45617 0.63351
USER: genes 1 Rotation |==|  0.97546 0.43641 0.37513 0.56556
USER: genes 2 Torsion [N]-C--CA-[N] |==|  0.92311
USER: genes 3 Torsion [C]-CA--CB-[CG2] |==|  0.94004
USER: genes 4 Torsion [CA]-CB--OG1-[HG1] |==|  0.92830
USER: genes 5 Torsion [C]-CA--N-[C] |==|  0.82022
USER: genes 6 Torsion [N]-C--CA-[CB] |==|  0.54806
USER: genes 7 Torsion [N]-C--CA-[N] |==|  0.19187
USER: genes 8 Torsion [C]-CA--CB-[CG] |==|  0.26040
USER: genes 9 Torsion [CA]-CB--CG-[CD1] |==|  0.14365
USER: genes 10 Torsion [CE2]-CZ--OH-[HH] |==|  0.05065
USER: genes 11 Torsion [C]-N--CA-[CB] |==|  0.51667
USER: genes 12 Torsion [N]-CA--CB-[OG] |==|  0.02123
USER: genes 13 Torsion [CA]-CB--OG-[HG] |==|  0.23709
USER: genes 14 Torsion [N]-CA--C-[N] |==|  0.33895
USER: genes 15 Torsion [C]-N--CA-[CB] |==|  0.48980
USER: genes 16 Torsion [N]-CA--C-[N] |==|  0.89549
USER: genes 17 Torsion [C]-N--CA-[CB] |==|  0.34907
USER: genes 18 Torsion [N]-CA--CB-[CG2] |==|  0.44993
USER: genes 19 Torsion [CA]-CB--CG1-[CD1] |==|  0.70975
USER: genes 20 Torsion [N]-CA--C-[O] |==|  0.86721
USER: genes 21 Torsion [N]-CA--CB-[CG1] |==|  0.50379
USER: genes 22 Torsion [CA]-CB--CG1-[CD1] |==|  0.34191
ROOT
ATOM      1  C   THR D   7      13.771  24.780  45.179  1.00  9.65 LIG 0.24  C 
ATOM      2 O    THR D   7      13.323  23.785  44.590  1.00 10.36 LIG-0.27  OA
ATOM      3  N   SER D   8      13.096  25.453  46.107  1.00  8.02 LIG-0.34  N 
ATOM      4 H    SER D   8      13.445  26.062  46.603  1.00  8.02 LIG 0.16  HD
ENDROOT
BRANCH 1 5
ATOM      5  CA  THR D   7      15.166  25.305  44.881  1.00 11.21 LIG 0.20  C 
BRANCH 5 6
ATOM      6  CB  THR D   7      16.191  24.528  45.730  1.00 12.81 LIG 0.15  C 
ATOM      7  CG2 THR D   7      15.531  23.889  46.940  1.00 13.23 LIG 0.04  C 
BRANCH 6 8
ATOM      8 OG1  THR D   7      16.791  23.503  44.928  1.00 15.88 LIG-0.39  OA
ATOM      9 HG1  THR D   7      16.264  23.284  44.311  1.00 15.88 LIG 0.21  HD
ENDBRANCH 6 8
ENDBRANCH 5 6
BRANCH 5 10
ATOM     10  N   THR D   7      15.264  26.732  45.147  1.00 13.33 LIG-0.34  N 
ATOM     11  C   PRO D   6      14.571  27.625  44.451  1.00 13.20 LIG 0.24  C 
ATOM     12 O    PRO D   6      13.746  27.319  43.591  1.00 14.28 LIG-0.27  OA
ATOM     13 H    THR D   7      15.803  26.936  45.785  1.00 13.33 LIG 0.16  HD
BRANCH 11 14
ATOM     14  CA  PRO D   6      14.824  29.093  44.793  1.00 20.50 LIG 0.18  C 
ATOM     15  CB  PRO D   6      13.679  29.943  44.241  1.00 26.18 LIG 0.04  C 
ATOM     16  CG  PRO D   6      14.191  30.469  42.945  1.00 30.25 LIG 0.02  C 
ATOM     17  CD  PRO D   6      15.643  30.722  43.178  1.00 26.41 LIG 0.13  C 
ATOM     18  N   PRO D   6      16.005  29.654  44.123  1.00 20.28 LIG-0.34  N 
ATOM     19  C   TYR D   5      17.250  29.194  44.305  1.00 26.16 LIG 0.26  C 
ATOM     20 O    TYR D   5      17.509  28.269  45.071  1.00 27.79 LIG-0.27  OA
BRANCH 19 21
ATOM     21  CA  TYR D   5      18.361  29.881  43.514  1.00 28.17 LIG 0.40  C 
ATOM     22  N   TYR D   5      18.569  31.237  44.004  1.00 34.40 LIG 0.61  N 
BRANCH 21 23
ATOM     23  CB  TYR D   5      19.661  29.077  43.606  1.00 23.65 LIG 0.09  C 
BRANCH 23 24
ATOM     24  CG  TYR D   5      19.864  28.102  42.467  1.00 24.31 LIG-0.06  A 
ATOM     25  CD2 TYR D   5      20.159  26.767  42.714  1.00 24.91 LIG 0.01  A 
ATOM     26  CE2 TYR D   5      20.348  25.872  41.679  1.00 24.35 LIG 0.04  A 
ATOM     27  CZ  TYR D   5      20.241  26.305  40.375  1.00 25.18 LIG 0.07  A 
ATOM     28  CE1 TYR D   5      19.950  27.627  40.098  1.00 25.68 LIG 0.04  A 
ATOM     29  CD1 TYR D   5      19.763  28.516  41.143  1.00 25.57 LIG 0.01  A 
BRANCH 27 30
ATOM     30 OH   TYR D   5      20.429  25.407  39.350  1.00 28.89 LIG-0.36  OA
ATOM     31 HH   TYR D   5      20.350  24.625  39.645  1.00 28.89 LIG 0.22  HD
ENDBRANCH 27 30
ENDBRANCH 23 24
ENDBRANCH 21 23
ENDBRANCH 19 21
ENDBRANCH 11 14
ENDBRANCH 5 10
ENDBRANCH 1 5
BRANCH 3 32
ATOM     32  CA  SER D   8      11.692  25.209  46.363  1.00  7.80 LIG 0.20  C 
BRANCH 32 33
ATOM     33  CB  SER D   8      11.140  26.215  47.367  1.00  7.43 LIG 0.20  C 
BRANCH 33 34
ATOM     34 OG   SER D   8      12.087  27.221  47.652  1.00  7.87 LIG-0.40  OA
ATOM     35 HG   SER D   8      12.032  27.829  47.076  1.00  7.87 LIG 0.21  HD
ENDBRANCH 33 34
ENDBRANCH 32 33
BRANCH 32 36
ATOM     36  C   SER D   8      10.939  25.332  45.057  1.00  7.75 LIG 0.24  C 
ATOM     37 O    SER D   8      10.978  26.372  44.400  1.00  8.57 LIG-0.27  OA
ATOM     38  N   ILE D   9      10.249  24.266  44.683  1.00  7.82 LIG-0.35  N 
ATOM     39 H    ILE D   9      10.273  23.508  45.087  1.00  7.82 LIG 0.16  HD
BRANCH 38 40
ATOM     40  CA  ILE D   9       9.377  24.309  43.524  1.00  8.70 LIG 0.18  C 
BRANCH 40 41
ATOM     41  C   ILE D   9       8.316  25.365  43.758  1.00  9.89 LIG 0.24  C 
ATOM     42  N   ILE D  10       7.859  25.458  45.000  1.00  9.26 LIG-0.34  N 
ATOM     43 H    ILE D  10       8.127  24.957  45.646  1.00  9.26 LIG 0.16  HD
ATOM     44 O    ILE D   9       7.891  26.051  42.827  1.00 11.43 LIG-0.27  OA
BRANCH 42 45
ATOM     45  CA  ILE D  10       6.848  26.430  45.381  1.00 10.77 LIG 0.19  C 
BRANCH 45 46
ATOM     46  CB  ILE D  10       5.642  25.752  46.066  1.00 11.26 LIG 0.01  C 
ATOM     47  CG2 ILE D  10       4.822  26.779  46.843  1.00 13.36 LIG 0.01  C 
BRANCH 46 48
ATOM     48  CG1 ILE D  10       4.769  25.032  45.034  1.00 10.59 LIG 0.00  C 
ATOM     49  CD1 ILE D  10       3.481  25.762  44.707  1.00 13.29 LIG 0.01  C 
ENDBRANCH 46 48
ENDBRANCH 45 46
BRANCH 45 50
ATOM     50  C   ILE D  10       7.437  27.478  46.315  1.00 10.61 LIG 0.20  C 
ATOM     51 O    ILE D  10       8.124  27.150  47.291  1.00 10.13 LIG-0.65  OA
ATOM     52 OXT  ILE D  10       7.210  28.667  46.100  1.00 13.38 LIG-0.65  OA
ENDBRANCH 45 50
ENDBRANCH 42 45
ENDBRANCH 40 41
BRANCH 40 53
ATOM     53  CB  ILE D   9       8.751  22.937  43.227  1.00  9.74 LIG 0.01  C 
ATOM     54  CG2 ILE D   9       7.947  22.448  44.426  1.00 14.85 LIG 0.01  C 
BRANCH 53 55
ATOM     55  CG1 ILE D   9       7.876  23.046  41.982  1.00  9.98 LIG 0.00  C 
ATOM     56  CD1 ILE D   9       8.255  22.090  40.874  1.00 13.31 LIG 0.01  C 
ENDBRANCH 53 55
ENDBRANCH 40 53
ENDBRANCH 38 40
ENDBRANCH 32 36
ENDBRANCH 3 32
TORSDOF 21
ENDMDL
MODEL 46
USER: ADFR SOLUTION from run 35
USER: SCORE 15.682917 LL:  -5.426 LR: -12.722 RR:   0.000 FEB:  -6.457
USER: RMSD 9.005919
USER: SEED 34
USER: STATUS no improvement in best in 13 clusters for 5 generations
USER: GENES 23
USER: genes 0 Translation |==|  0.31929 0.46460 0.58036
USER: genes 1 Rotation |==|  0.15255 0.39672 0.58274 0.83431
USER: genes 2 Torsion [N]-C--CA-[N] |==|  0.99439
USER: genes 3 Torsion [C]-CA--CB-[CG2] |==|  0.28457
USER: genes 4 Torsion [CA]-CB--OG1-[HG1] |==|  0.49786
USER: genes 5 Torsion [C]-CA--N-[C] |==|  0.77358
USER: genes 6 Torsion [N]-C--CA-[CB] |==|  0.52962
USER: genes 7 Torsion [N]-C--CA-[N] |==|  0.25443
USER: genes 8 Torsion [C]-CA--CB-[CG] |==|  0.83551
USER: genes 9 Torsion [CA]-CB--CG-[CD1] |==|  0.86158
USER: genes 10 Torsion [CE2]-CZ--OH-[HH] |==|  0.56533
USER: genes 11 Torsion [C]-N--CA-[CB] |==|  0.53526
USER: genes 12 Torsion [N]-CA--CB-[OG] |==|  0.09749
USER: genes 13 Torsion [CA]-CB--OG-[HG] |==|  0.85335
USER: genes 14 Torsion [N]-CA--C-[N] |==|  0.87298
USER: genes 15 Torsion [C]-N--CA-[CB] |==|  0.39698
USER: genes 16 Torsion [N]-CA--C-[N] |==|  0.84769
USER: genes 17 Torsion [C]-N--CA-[CB] |==|  0.17814
USER: genes 18 Torsion [N]-CA--CB-[CG2] |==|  0.28690
USER: genes 19 Torsion [CA]-CB--CG1-[CD1] |==|  0.26139
USER: genes 20 Torsion [N]-CA--C-[O] |==|  0.42314
USER: genes 21 Torsion [N]-CA--CB-[CG1] |==|  0.75407
USER: genes 22 Torsion [CA]-CB--CG1-[CD1] |==|  0.05011
ROOT
ATOM      1  C   THR D   7      10.800  24.901  43.904  1.00  9.65 LIG 0.24  C 
ATOM      2 O    THR D   7      10.557  25.761  43.044  1.00 10.36 LIG-0.27  OA
ATOM      3  N   SER D   8      10.052  23.819  44.095  1.00  8.02 LIG-0.34  N 
ATOM      4 H    SER D   8      10.281  23.162  44.600  1.00  8.02 LIG 0.16  HD
ENDROOT
BRANCH 1 5
ATOM      5  CA  THR D   7      12.013  25.022  44.812  1.00 11.21 LIG 0.20  C 
BRANCH 5 6
ATOM      6  CB  THR D   7      13.289  25.065  43.949  1.00 12.81 LIG 0.15  C 
ATOM      7  CG2 THR D   7      13.825  26.482  43.830  1.00 13.23 LIG 0.04  C 
BRANCH 6 8
ATOM      8 OG1  THR D   7      14.293  24.233  44.545  1.00 15.88 LIG-0.39  OA
ATOM      9 HG1  THR D   7      14.986  24.247  44.070  1.00 15.88 LIG 0.21  HD
ENDBRANCH 6 8
ENDBRANCH 5 6
BRANCH 5 10
ATOM     10  N   THR D   7      12.078  23.920  45.760  1.00 13.33 LIG-0.34  N 
ATOM     11  C   PRO D   6      11.366  23.915  46.881  1.00 13.20 LIG 0.24  C 
ATOM     12 O    PRO D   6      10.550  24.791  47.167  1.00 14.28 LIG-0.27  OA
ATOM     13 H    THR D   7      12.611  23.286  45.529  1.00 13.33 LIG 0.16  HD
BRANCH 11 14
ATOM     14  CA  PRO D   6      11.584  22.726  47.815  1.00 20.50 LIG 0.18  C 
ATOM     15  CB  PRO D   6      10.513  22.740  48.906  1.00 26.18 LIG 0.04  C 
ATOM     16  CG  PRO D   6      11.171  23.392  50.073  1.00 30.25 LIG 0.02  C 
ATOM     17  CD  PRO D   6      12.588  22.927  50.025  1.00 26.41 LIG 0.13  C 
ATOM     18  N   PRO D   6      12.836  22.806  48.580  1.00 20.28 LIG-0.34  N 
ATOM     19  C   TYR D   5      14.051  22.835  48.015  1.00 26.16 LIG 0.26  C 
ATOM     20 O    TYR D   5      14.217  22.777  46.799  1.00 27.79 LIG-0.27  OA
BRANCH 19 21
ATOM     21  CA  TYR D   5      15.247  22.940  48.958  1.00 28.17 LIG 0.40  C 
ATOM     22  N   TYR D   5      15.734  21.612  49.310  1.00 34.40 LIG 0.61  N 
BRANCH 21 23
ATOM     23  CB  TYR D   5      16.366  23.764  48.315  1.00 23.65 LIG 0.09  C 
BRANCH 23 24
ATOM     24  CG  TYR D   5      16.875  23.196  47.007  1.00 24.31 LIG-0.06  A 
ATOM     25  CD2 TYR D   5      16.992  23.998  45.879  1.00 24.91 LIG 0.01  A 
ATOM     26  CE2 TYR D   5      17.453  23.486  44.682  1.00 24.35 LIG 0.04  A 
ATOM     27  CZ  TYR D   5      17.807  22.156  44.600  1.00 25.18 LIG 0.07  A 
ATOM     28  CE1 TYR D   5      17.701  21.335  45.705  1.00 25.68 LIG 0.04  A 
ATOM     29  CD1 TYR D   5      17.237  21.857  46.900  1.00 25.57 LIG 0.01  A 
BRANCH 27 30
ATOM     30 OH   TYR D   5      18.268  21.655  43.404  1.00 28.89 LIG-0.36  OA
ATOM     31 HH   TYR D   5      18.143  20.825  43.382  1.00 28.89 LIG 0.22  HD
ENDBRANCH 27 30
ENDBRANCH 23 24
ENDBRANCH 21 23
ENDBRANCH 19 21
ENDBRANCH 11 14
ENDBRANCH 5 10
ENDBRANCH 1 5
BRANCH 3 32
ATOM     32  CA  SER D   8       8.762  23.655  43.457  1.00  7.80 LIG 0.20  C 
BRANCH 32 33
ATOM     33  CB  SER D   8       7.991  22.497  44.081  1.00  7.43 LIG 0.20  C 
BRANCH 33 34
ATOM     34 OG   SER D   8       8.243  22.405  45.465  1.00  7.87 LIG-0.40  OA
ATOM     35 HG   SER D   8       9.072  22.379  45.598  1.00  7.87 LIG 0.21  HD
ENDBRANCH 33 34
ENDBRANCH 32 33
BRANCH 32 36
ATOM     36  C   SER D   8       7.977  24.936  43.627  1.00  7.75 LIG 0.24  C 
ATOM     37 O    SER D   8       7.375  25.438  42.679  1.00  8.57 LIG-0.27  OA
ATOM     38  N   ILE D   9       7.988  25.467  44.839  1.00  7.82 LIG-0.35  N 
ATOM     39 H    ILE D   9       8.337  25.091  45.529  1.00  7.82 LIG 0.16  HD
BRANCH 38 40
ATOM     40  CA  ILE D   9       7.391  26.764  45.093  1.00  8.70 LIG 0.18  C 
BRANCH 40 41
ATOM     41  C   ILE D   9       8.468  27.822  44.975  1.00  9.89 LIG 0.24  C 
ATOM     42  N   ILE D  10       9.540  27.642  45.737  1.00  9.26 LIG-0.34  N 
ATOM     43 H    ILE D  10       9.636  26.978  46.275  1.00  9.26 LIG 0.16  HD
ATOM     44 O    ILE D   9       8.315  28.802  44.244  1.00 11.43 LIG-0.27  OA
BRANCH 42 45
ATOM     45  CA  ILE D  10      10.661  28.566  45.725  1.00 10.77 LIG 0.19  C 
BRANCH 45 46
ATOM     46  CB  ILE D  10      10.248  29.963  46.237  1.00 11.26 LIG 0.01  C 
ATOM     47  CG2 ILE D  10      10.737  30.174  47.667  1.00 13.36 LIG 0.01  C 
BRANCH 46 48
ATOM     48  CG1 ILE D  10      10.788  31.059  45.312  1.00 10.59 LIG 0.00  C 
ATOM     49  CD1 ILE D  10       9.803  31.499  44.246  1.00 13.29 LIG 0.01  C 
ENDBRANCH 46 48
ENDBRANCH 45 46
BRANCH 45 50
ATOM     50  C   ILE D  10      11.804  28.033  46.578  1.00 10.61 LIG 0.20  C 
ATOM     51 O    ILE D  10      12.978  28.340  46.337  1.00 10.13 LIG-0.65  OA
ATOM     52 OXT  ILE D  10      11.551  27.272  47.511  1.00 13.38 LIG-0.65  OA
ENDBRANCH 45 50
ENDBRANCH 42 45
ENDBRANCH 40 41
BRANCH 40 53
ATOM     53  CB  ILE D   9       6.696  26.817  46.463  1.00  9.74 LIG 0.01  C 
ATOM     54  CG2 ILE D   9       6.764  28.226  47.040  1.00 14.85 LIG 0.01  C 
BRANCH 53 55
ATOM     55  CG1 ILE D   9       5.251  26.351  46.307  1.00  9.98 LIG 0.00  C 
ATOM     56  CD1 ILE D   9       4.984  25.575  45.038  1.00 13.31 LIG 0.01  C 
ENDBRANCH 53 55
ENDBRANCH 40 53
ENDBRANCH 38 40
ENDBRANCH 32 36
ENDBRANCH 3 32
TORSDOF 21
ENDMDL
MODEL 47
USER: ADFR SOLUTION from run 136
USER: SCORE 16.724860 LL:  -5.003 LR: -12.712 RR:   0.000 FEB:  -6.448
USER: RMSD 10.124858
USER: SEED 135
USER: STATUS searching
USER: GENES 23
USER: genes 0 Translation |==|  0.48314 0.34342 0.66525
USER: genes 1 Rotation |==|  0.10752 0.57121 0.65521 0.75845
USER: genes 2 Torsion [N]-C--CA-[N] |==|  0.96637
USER: genes 3 Torsion [C]-CA--CB-[CG2] |==|  0.39802
USER: genes 4 Torsion [CA]-CB--OG1-[HG1] |==|  0.43341
USER: genes 5 Torsion [C]-CA--N-[C] |==|  0.80980
USER: genes 6 Torsion [N]-C--CA-[CB] |==|  0.00237
USER: genes 7 Torsion [N]-C--CA-[N] |==|  0.27168
USER: genes 8 Torsion [C]-CA--CB-[CG] |==|  0.35940
USER: genes 9 Torsion [CA]-CB--CG-[CD1] |==|  0.56606
USER: genes 10 Torsion [CE2]-CZ--OH-[HH] |==|  0.72777
USER: genes 11 Torsion [C]-N--CA-[CB] |==|  0.54011
USER: genes 12 Torsion [N]-CA--CB-[OG] |==|  0.95118
USER: genes 13 Torsion [CA]-CB--OG-[HG] |==|  0.91311
USER: genes 14 Torsion [N]-CA--C-[N] |==|  0.33446
USER: genes 15 Torsion [C]-N--CA-[CB] |==|  0.22773
USER: genes 16 Torsion [N]-CA--C-[N] |==|  0.01038
USER: genes 17 Torsion [C]-N--CA-[CB] |==|  0.31833
USER: genes 18 Torsion [N]-CA--CB-[CG2] |==|  0.37472
USER: genes 19 Torsion [CA]-CB--CG1-[CD1] |==|  0.17660
USER: genes 20 Torsion [N]-CA--C-[O] |==|  0.85701
USER: genes 21 Torsion [N]-CA--CB-[CG1] |==|  0.10335
USER: genes 22 Torsion [CA]-CB--CG1-[CD1] |==|  0.59260
ROOT
ATOM      1  C   THR D   7      15.347  23.174  45.941  1.00  9.65 LIG 0.24  C 
ATOM      2 O    THR D   7      14.734  23.659  44.977  1.00 10.36 LIG-0.27  OA
ATOM      3  N   SER D   8      14.748  22.645  47.004  1.00  8.02 LIG-0.34  N 
ATOM      4 H    SER D   8      15.161  22.199  47.612  1.00  8.02 LIG 0.16  HD
ENDROOT
BRANCH 1 5
ATOM      5  CA  THR D   7      16.866  23.137  45.965  1.00 11.21 LIG 0.20  C 
BRANCH 5 6
ATOM      6  CB  THR D   7      17.365  22.132  44.909  1.00 12.81 LIG 0.15  C 
ATOM      7  CG2 THR D   7      18.641  22.620  44.243  1.00 13.23 LIG 0.04  C 
BRANCH 6 8
ATOM      8 OG1  THR D   7      17.618  20.869  45.538  1.00 15.88 LIG-0.39  OA
ATOM      9 HG1  THR D   7      17.567  20.256  44.966  1.00 15.88 LIG 0.21  HD
ENDBRANCH 6 8
ENDBRANCH 5 6
BRANCH 5 10
ATOM     10  N   THR D   7      17.368  22.781  47.283  1.00 13.33 LIG-0.34  N 
ATOM     11  C   PRO D   6      17.242  23.593  48.326  1.00 13.20 LIG 0.24  C 
ATOM     12 O    PRO D   6      16.635  24.662  48.280  1.00 14.28 LIG-0.27  OA
ATOM     13 H    THR D   7      17.746  22.009  47.320  1.00 13.33 LIG 0.16  HD
BRANCH 11 14
ATOM     14  CA  PRO D   6      17.876  23.118  49.632  1.00 20.50 LIG 0.18  C 
ATOM     15  CB  PRO D   6      18.551  21.766  49.403  1.00 26.18 LIG 0.04  C 
ATOM     16  CG  PRO D   6      17.555  20.763  49.873  1.00 30.25 LIG 0.02  C 
ATOM     17  CD  PRO D   6      16.894  21.399  51.051  1.00 26.41 LIG 0.13  C 
ATOM     18  N   PRO D   6      16.895  22.824  50.686  1.00 20.28 LIG-0.34  N 
ATOM     19  C   TYR D   5      16.057  23.736  51.195  1.00 26.16 LIG 0.26  C 
ATOM     20 O    TYR D   5      16.056  24.911  50.833  1.00 27.79 LIG-0.27  OA
BRANCH 19 21
ATOM     21  CA  TYR D   5      15.086  23.256  52.271  1.00 28.17 LIG 0.40  C 
ATOM     22  N   TYR D   5      15.602  23.569  53.597  1.00 34.40 LIG 0.61  N 
BRANCH 21 23
ATOM     23  CB  TYR D   5      13.708  23.893  52.073  1.00 23.65 LIG 0.09  C 
BRANCH 23 24
ATOM     24  CG  TYR D   5      12.565  22.900  52.070  1.00 24.31 LIG-0.06  A 
ATOM     25  CD2 TYR D   5      12.691  21.667  52.697  1.00 24.91 LIG 0.01  A 
ATOM     26  CE2 TYR D   5      11.654  20.755  52.697  1.00 24.35 LIG 0.04  A 
ATOM     27  CZ  TYR D   5      10.469  21.070  52.067  1.00 25.18 LIG 0.07  A 
ATOM     28  CE1 TYR D   5      10.315  22.288  51.434  1.00 25.68 LIG 0.04  A 
ATOM     29  CD1 TYR D   5      11.361  23.194  51.439  1.00 25.57 LIG 0.01  A 
BRANCH 27 30
ATOM     30 OH   TYR D   5       9.440  20.156  52.073  1.00 28.89 LIG-0.36  OA
ATOM     31 HH   TYR D   5       9.440  19.729  51.350  1.00 28.89 LIG 0.22  HD
ENDBRANCH 27 30
ENDBRANCH 23 24
ENDBRANCH 21 23
ENDBRANCH 19 21
ENDBRANCH 11 14
ENDBRANCH 5 10
ENDBRANCH 1 5
BRANCH 3 32
ATOM     32  CA  SER D   8      13.324  22.780  47.230  1.00  7.80 LIG 0.20  C 
BRANCH 32 33
ATOM     33  CB  SER D   8      12.963  22.404  48.662  1.00  7.43 LIG 0.20  C 
BRANCH 33 34
ATOM     34 OG   SER D   8      13.996  21.658  49.268  1.00  7.87 LIG-0.40  OA
ATOM     35 HG   SER D   8      14.392  21.203  48.684  1.00  7.87 LIG 0.21  HD
ENDBRANCH 33 34
ENDBRANCH 32 33
BRANCH 32 36
ATOM     36  C   SER D   8      12.932  24.217  46.969  1.00  7.75 LIG 0.24  C 
ATOM     37 O    SER D   8      13.431  25.136  47.617  1.00  8.57 LIG-0.27  OA
ATOM     38  N   ILE D   9      12.032  24.409  46.018  1.00  7.82 LIG-0.35  N 
ATOM     39 H    ILE D   9      11.731  23.790  45.504  1.00  7.82 LIG 0.16  HD
BRANCH 38 40
ATOM     40  CA  ILE D   9      11.474  25.725  45.771  1.00  8.70 LIG 0.18  C 
BRANCH 40 41
ATOM     41  C   ILE D   9      10.107  25.558  45.139  1.00  9.89 LIG 0.24  C 
ATOM     42  N   ILE D  10       9.677  24.309  45.016  1.00  9.26 LIG-0.34  N 
ATOM     43 H    ILE D  10      10.131  23.622  45.266  1.00  9.26 LIG 0.16  HD
ATOM     44 O    ILE D   9       9.475  26.534  44.732  1.00 11.43 LIG-0.27  OA
BRANCH 42 45
ATOM     45  CA  ILE D  10       8.382  23.989  44.440  1.00 10.77 LIG 0.19  C 
BRANCH 45 46
ATOM     46  CB  ILE D  10       8.530  23.212  43.114  1.00 11.26 LIG 0.01  C 
ATOM     47  CG2 ILE D  10       7.565  22.030  43.077  1.00 13.36 LIG 0.01  C 
BRANCH 46 48
ATOM     48  CG1 ILE D  10       8.298  24.138  41.916  1.00 10.59 LIG 0.00  C 
ATOM     49  CD1 ILE D  10       9.319  25.253  41.798  1.00 13.29 LIG 0.01  C 
ENDBRANCH 46 48
ENDBRANCH 45 46
BRANCH 45 50
ATOM     50  C   ILE D  10       7.548  23.172  45.415  1.00 10.61 LIG 0.20  C 
ATOM     51 O    ILE D  10       8.003  22.151  45.946  1.00 10.13 LIG-0.65  OA
ATOM     52 OXT  ILE D  10       6.396  23.528  45.663  1.00 13.38 LIG-0.65  OA
ENDBRANCH 45 50
ENDBRANCH 42 45
ENDBRANCH 40 41
BRANCH 40 53
ATOM     53  CB  ILE D   9      12.398  26.586  44.896  1.00  9.74 LIG 0.01  C 
ATOM     54  CG2 ILE D   9      13.441  27.290  45.756  1.00 14.85 LIG 0.01  C 
BRANCH 53 55
ATOM     55  CG1 ILE D   9      13.057  25.698  43.843  1.00  9.98 LIG 0.00  C 
ATOM     56  CD1 ILE D   9      14.461  26.117  43.472  1.00 13.31 LIG 0.01  C 
ENDBRANCH 53 55
ENDBRANCH 40 53
ENDBRANCH 38 40
ENDBRANCH 32 36
ENDBRANCH 3 32
TORSDOF 21
ENDMDL
MODEL 48
USER: ADFR SOLUTION from run 56
USER: SCORE 15.615562 LL:  -5.453 LR: -12.684 RR:   0.000 FEB:  -6.420
USER: RMSD 9.378079
USER: SEED 55
USER: STATUS no improvement in best in 8 clusters for 5 generations
USER: GENES 23
USER: genes 0 Translation |==|  0.31011 0.46763 0.58543
USER: genes 1 Rotation |==|  0.16636 0.37612 0.56628 0.84488
USER: genes 2 Torsion [N]-C--CA-[N] |==|  0.97785
USER: genes 3 Torsion [C]-CA--CB-[CG2] |==|  0.30930
USER: genes 4 Torsion [CA]-CB--OG1-[HG1] |==|  0.93181
USER: genes 5 Torsion [C]-CA--N-[C] |==|  0.74682
USER: genes 6 Torsion [N]-C--CA-[CB] |==|  0.53865
USER: genes 7 Torsion [N]-C--CA-[N] |==|  0.28110
USER: genes 8 Torsion [C]-CA--CB-[CG] |==|  0.81825
USER: genes 9 Torsion [CA]-CB--CG-[CD1] |==|  0.82620
USER: genes 10 Torsion [CE2]-CZ--OH-[HH] |==|  0.66623
USER: genes 11 Torsion [C]-N--CA-[CB] |==|  0.50578
USER: genes 12 Torsion [N]-CA--CB-[OG] |==|  0.11749
USER: genes 13 Torsion [CA]-CB--OG-[HG] |==|  0.76513
USER: genes 14 Torsion [N]-CA--C-[N] |==|  0.81365
USER: genes 15 Torsion [C]-N--CA-[CB] |==|  0.30000
USER: genes 16 Torsion [N]-CA--C-[N] |==|  0.36007
USER: genes 17 Torsion [C]-N--CA-[CB] |==|  0.26076
USER: genes 18 Torsion [N]-CA--CB-[CG2] |==|  0.67262
USER: genes 19 Torsion [CA]-CB--CG1-[CD1] |==|  0.22782
USER: genes 20 Torsion [N]-CA--C-[O] |==|  0.97086
USER: genes 21 Torsion [N]-CA--CB-[CG1] |==|  0.75500
USER: genes 22 Torsion [CA]-CB--CG1-[CD1] |==|  0.50505
ROOT
ATOM      1  C   THR D   7      10.546  24.944  44.025  1.00  9.65 LIG 0.24  C 
ATOM      2 O    THR D   7      10.355  25.878  43.232  1.00 10.36 LIG-0.27  OA
ATOM      3  N   SER D   8       9.807  23.839  44.052  1.00  8.02 LIG-0.34  N 
ATOM      4 H    SER D   8      10.009  23.140  44.512  1.00  8.02 LIG 0.16  HD
ENDROOT
BRANCH 1 5
ATOM      5  CA  THR D   7      11.676  24.995  45.039  1.00 11.21 LIG 0.20  C 
BRANCH 5 6
ATOM      6  CB  THR D   7      13.025  24.986  44.294  1.00 12.81 LIG 0.15  C 
ATOM      7  CG2 THR D   7      13.739  26.321  44.431  1.00 13.23 LIG 0.04  C 
BRANCH 6 8
ATOM      8 OG1  THR D   7      13.858  23.952  44.832  1.00 15.88 LIG-0.39  OA
ATOM      9 HG1  THR D   7      13.623  23.784  45.621  1.00 15.88 LIG 0.21  HD
ENDBRANCH 6 8
ENDBRANCH 5 6
BRANCH 5 10
ATOM     10  N   THR D   7      11.604  23.882  45.972  1.00 13.33 LIG-0.34  N 
ATOM     11  C   PRO D   6      10.943  23.969  47.120  1.00 13.20 LIG 0.24  C 
ATOM     12 O    PRO D   6      10.287  24.956  47.449  1.00 14.28 LIG-0.27  OA
ATOM     13 H    THR D   7      12.022  23.176  45.713  1.00 13.33 LIG 0.16  HD
BRANCH 11 14
ATOM     14  CA  PRO D   6      11.009  22.745  48.033  1.00 20.50 LIG 0.18  C 
ATOM     15  CB  PRO D   6       9.940  22.869  49.118  1.00 26.18 LIG 0.04  C 
ATOM     16  CG  PRO D   6      10.665  23.414  50.301  1.00 30.25 LIG 0.02  C 
ATOM     17  CD  PRO D   6      12.015  22.780  50.250  1.00 26.41 LIG 0.13  C 
ATOM     18  N   PRO D   6      12.255  22.656  48.805  1.00 20.28 LIG-0.34  N 
ATOM     19  C   TYR D   5      13.468  22.548  48.246  1.00 26.16 LIG 0.26  C 
ATOM     20 O    TYR D   5      13.635  22.492  47.030  1.00 27.79 LIG-0.27  OA
BRANCH 19 21
ATOM     21  CA  TYR D   5      14.662  22.487  49.196  1.00 28.17 LIG 0.40  C 
ATOM     22  N   TYR D   5      15.123  21.113  49.345  1.00 34.40 LIG 0.61  N 
BRANCH 21 23
ATOM     23  CB  TYR D   5      15.799  23.377  48.685  1.00 23.65 LIG 0.09  C 
BRANCH 23 24
ATOM     24  CG  TYR D   5      16.403  22.914  47.377  1.00 24.31 LIG-0.06  A 
ATOM     25  CD2 TYR D   5      16.335  23.708  46.240  1.00 24.91 LIG 0.01  A 
ATOM     26  CE2 TYR D   5      16.882  23.291  45.042  1.00 24.35 LIG 0.04  A 
ATOM     27  CZ  TYR D   5      17.510  22.066  44.968  1.00 25.18 LIG 0.07  A 
ATOM     28  CE1 TYR D   5      17.593  21.255  46.083  1.00 25.68 LIG 0.04  A 
ATOM     29  CD1 TYR D   5      17.041  21.681  47.279  1.00 25.57 LIG 0.01  A 
BRANCH 27 30
ATOM     30 OH   TYR D   5      18.054  21.659  43.772  1.00 28.89 LIG-0.36  OA
ATOM     31 HH   TYR D   5      17.690  20.942  43.528  1.00 28.89 LIG 0.22  HD
ENDBRANCH 27 30
ENDBRANCH 23 24
ENDBRANCH 21 23
ENDBRANCH 19 21
ENDBRANCH 11 14
ENDBRANCH 5 10
ENDBRANCH 1 5
BRANCH 3 32
ATOM     32  CA  SER D   8       8.578  23.717  43.296  1.00  7.80 LIG 0.20  C 
BRANCH 32 33
ATOM     33  CB  SER D   8       7.913  22.370  43.552  1.00  7.43 LIG 0.20  C 
BRANCH 33 34
ATOM     34 OG   SER D   8       7.963  22.030  44.920  1.00  7.87 LIG-0.40  OA
ATOM     35 HG   SER D   8       8.699  21.664  45.092  1.00  7.87 LIG 0.21  HD
ENDBRANCH 33 34
ENDBRANCH 32 33
BRANCH 32 36
ATOM     36  C   SER D   8       7.645  24.830  43.718  1.00  7.75 LIG 0.24  C 
ATOM     37 O    SER D   8       7.344  25.733  42.937  1.00  8.57 LIG-0.27  OA
ATOM     38  N   ILE D   9       7.189  24.767  44.958  1.00  7.82 LIG-0.35  N 
ATOM     39 H    ILE D   9       7.325  24.106  45.491  1.00  7.82 LIG 0.16  HD
BRANCH 38 40
ATOM     40  CA  ILE D   9       6.401  25.847  45.522  1.00  8.70 LIG 0.18  C 
BRANCH 40 41
ATOM     41  C   ILE D   9       7.013  26.247  46.849  1.00  9.89 LIG 0.24  C 
ATOM     42  N   ILE D  10       7.239  27.544  47.012  1.00  9.26 LIG-0.34  N 
ATOM     43 H    ILE D  10       7.064  28.138  46.415  1.00  9.26 LIG 0.16  HD
ATOM     44 O    ILE D   9       7.313  25.397  47.689  1.00 11.43 LIG-0.27  OA
BRANCH 42 45
ATOM     45  CA  ILE D  10       7.811  28.082  48.236  1.00 10.77 LIG 0.19  C 
BRANCH 45 46
ATOM     46  CB  ILE D  10       9.346  28.219  48.129  1.00 11.26 LIG 0.01  C 
ATOM     47  CG2 ILE D  10      10.034  27.336  49.166  1.00 13.36 LIG 0.01  C 
BRANCH 46 48
ATOM     48  CG1 ILE D  10       9.822  27.867  46.716  1.00 10.59 LIG 0.00  C 
ATOM     49  CD1 ILE D  10       9.687  29.006  45.724  1.00 13.29 LIG 0.01  C 
ENDBRANCH 46 48
ENDBRANCH 45 46
BRANCH 45 50
ATOM     50  C   ILE D  10       7.204  29.439  48.561  1.00 10.61 LIG 0.20  C 
ATOM     51 O    ILE D  10       6.492  30.033  47.742  1.00 10.13 LIG-0.65  OA
ATOM     52 OXT  ILE D  10       7.441  29.955  49.652  1.00 13.38 LIG-0.65  OA
ENDBRANCH 45 50
ENDBRANCH 42 45
ENDBRANCH 40 41
BRANCH 40 53
ATOM     53  CB  ILE D   9       4.923  25.457  45.677  1.00  9.74 LIG 0.01  C 
ATOM     54  CG2 ILE D   9       4.304  26.181  46.868  1.00 14.85 LIG 0.01  C 
BRANCH 53 55
ATOM     55  CG1 ILE D   9       4.182  25.786  44.384  1.00  9.98 LIG 0.00  C 
ATOM     56  CD1 ILE D   9       2.701  25.487  44.427  1.00 13.31 LIG 0.01  C 
ENDBRANCH 53 55
ENDBRANCH 40 53
ENDBRANCH 38 40
ENDBRANCH 32 36
ENDBRANCH 3 32
TORSDOF 21
ENDMDL
MODEL 49
USER: ADFR SOLUTION from run 90
USER: SCORE 15.828805 LL:  -5.623 LR: -12.669 RR:   0.000 FEB:  -6.405
USER: RMSD 10.319463
USER: SEED 89
USER: STATUS no improvement in best in 11 clusters for 5 generations
USER: GENES 23
USER: genes 0 Translation |==|  0.21693 0.34751 0.64980
USER: genes 1 Rotation |==|  0.25012 0.52875 0.92148 0.59534
USER: genes 2 Torsion [N]-C--CA-[N] |==|  0.97505
USER: genes 3 Torsion [C]-CA--CB-[CG2] |==|  0.46299
USER: genes 4 Torsion [CA]-CB--OG1-[HG1] |==|  0.10494
USER: genes 5 Torsion [C]-CA--N-[C] |==|  0.78709
USER: genes 6 Torsion [N]-C--CA-[CB] |==|  0.00146
USER: genes 7 Torsion [N]-C--CA-[N] |==|  0.41715
USER: genes 8 Torsion [C]-CA--CB-[CG] |==|  0.34925
USER: genes 9 Torsion [CA]-CB--CG-[CD1] |==|  0.48241
USER: genes 10 Torsion [CE2]-CZ--OH-[HH] |==|  0.71459
USER: genes 11 Torsion [C]-N--CA-[CB] |==|  0.55046
USER: genes 12 Torsion [N]-CA--CB-[OG] |==|  0.93724
USER: genes 13 Torsion [CA]-CB--OG-[HG] |==|  0.86249
USER: genes 14 Torsion [N]-CA--C-[N] |==|  0.86175
USER: genes 15 Torsion [C]-N--CA-[CB] |==|  0.30506
USER: genes 16 Torsion [N]-CA--C-[N] |==|  0.35615
USER: genes 17 Torsion [C]-N--CA-[CB] |==|  0.24510
USER: genes 18 Torsion [N]-CA--CB-[CG2] |==|  0.90003
USER: genes 19 Torsion [CA]-CB--CG1-[CD1] |==|  0.37917
USER: genes 20 Torsion [N]-CA--C-[O] |==|  0.93760
USER: genes 21 Torsion [N]-CA--CB-[CG1] |==|  0.16335
USER: genes 22 Torsion [CA]-CB--CG1-[CD1] |==|  0.75343
ROOT
ATOM      1  C   THR D   7       7.960  23.232  45.570  1.00  9.65 LIG 0.24  C 
ATOM      2 O    THR D   7       6.822  22.784  45.778  1.00 10.36 LIG-0.27  OA
ATOM      3  N   SER D   8       9.011  22.958  46.337  1.00  8.02 LIG-0.34  N 
ATOM      4 H    SER D   8       9.820  23.162  46.130  1.00  8.02 LIG 0.16  HD
ENDROOT
BRANCH 1 5
ATOM      5  CA  THR D   7       8.240  24.138  44.383  1.00 11.21 LIG 0.20  C 
BRANCH 5 6
ATOM      6  CB  THR D   7       8.052  23.337  43.080  1.00 12.81 LIG 0.15  C 
ATOM      7  CG2 THR D   7       7.997  24.256  41.871  1.00 13.23 LIG 0.04  C 
BRANCH 6 8
ATOM      8 OG1  THR D   7       9.143  22.421  42.923  1.00 15.88 LIG-0.39  OA
ATOM      9 HG1  THR D   7       9.357  22.109  43.674  1.00 15.88 LIG 0.21  HD
ENDBRANCH 6 8
ENDBRANCH 5 6
BRANCH 5 10
ATOM     10  N   THR D   7       9.582  24.697  44.446  1.00 13.33 LIG-0.34  N 
ATOM     11  C   PRO D   6       9.888  25.697  45.263  1.00 13.20 LIG 0.24  C 
ATOM     12 O    PRO D   6       9.095  26.174  46.074  1.00 14.28 LIG-0.27  OA
ATOM     13 H    THR D   7      10.145  24.324  43.914  1.00 13.33 LIG 0.16  HD
BRANCH 11 14
ATOM     14  CA  PRO D   6      11.318  26.228  45.175  1.00 20.50 LIG 0.18  C 
ATOM     15  CB  PRO D   6      12.080  25.447  44.105  1.00 26.18 LIG 0.04  C 
ATOM     16  CG  PRO D   6      12.834  24.409  44.862  1.00 30.25 LIG 0.02  C 
ATOM     17  CD  PRO D   6      13.237  25.076  46.135  1.00 26.41 LIG 0.13  C 
ATOM     18  N   PRO D   6      12.109  25.985  46.389  1.00 20.28 LIG-0.34  N 
ATOM     19  C   TYR D   5      11.791  26.478  47.593  1.00 26.16 LIG 0.26  C 
ATOM     20 O    TYR D   5      10.813  27.199  47.777  1.00 27.79 LIG-0.27  OA
BRANCH 19 21
ATOM     21  CA  TYR D   5      12.711  26.110  48.755  1.00 28.17 LIG 0.40  C 
ATOM     22  N   TYR D   5      12.719  27.172  49.752  1.00 34.40 LIG 0.61  N 
BRANCH 21 23
ATOM     23  CB  TYR D   5      12.273  24.787  49.388  1.00 23.65 LIG 0.09  C 
BRANCH 23 24
ATOM     24  CG  TYR D   5      13.370  23.748  49.466  1.00 24.31 LIG-0.06  A 
ATOM     25  CD2 TYR D   5      14.606  23.971  48.874  1.00 24.91 LIG 0.01  A 
ATOM     26  CE2 TYR D   5      15.612  23.026  48.939  1.00 24.35 LIG 0.04  A 
ATOM     27  CZ  TYR D   5      15.391  21.840  49.605  1.00 25.18 LIG 0.07  A 
ATOM     28  CE1 TYR D   5      14.171  21.590  50.203  1.00 25.68 LIG 0.04  A 
ATOM     29  CD1 TYR D   5      13.170  22.543  50.131  1.00 25.57 LIG 0.01  A 
BRANCH 27 30
ATOM     30 OH   TYR D   5      16.399  20.905  49.666  1.00 28.89 LIG-0.36  OA
ATOM     31 HH   TYR D   5      16.244  20.289  49.117  1.00 28.89 LIG 0.22  HD
ENDBRANCH 27 30
ENDBRANCH 23 24
ENDBRANCH 21 23
ENDBRANCH 19 21
ENDBRANCH 11 14
ENDBRANCH 5 10
ENDBRANCH 1 5
BRANCH 3 32
ATOM     32  CA  SER D   8       8.877  22.281  47.611  1.00  7.80 LIG 0.20  C 
BRANCH 32 33
ATOM     33  CB  SER D   8      10.120  22.486  48.469  1.00  7.43 LIG 0.20  C 
BRANCH 33 34
ATOM     34 OG   SER D   8      11.239  22.809  47.673  1.00  7.87 LIG-0.40  OA
ATOM     35 HG   SER D   8      11.302  22.259  47.042  1.00  7.87 LIG 0.21  HD
ENDBRANCH 33 34
ENDBRANCH 32 33
BRANCH 32 36
ATOM     36  C   SER D   8       7.669  22.842  48.326  1.00  7.75 LIG 0.24  C 
ATOM     37 O    SER D   8       6.812  22.097  48.801  1.00  8.57 LIG-0.27  OA
ATOM     38  N   ILE D   9       7.599  24.162  48.401  1.00  7.82 LIG-0.35  N 
ATOM     39 H    ILE D   9       8.224  24.695  48.145  1.00  7.82 LIG 0.16  HD
BRANCH 38 40
ATOM     40  CA  ILE D   9       6.423  24.820  48.938  1.00  8.70 LIG 0.18  C 
BRANCH 40 41
ATOM     41  C   ILE D   9       5.937  25.838  47.927  1.00  9.89 LIG 0.24  C 
ATOM     42  N   ILE D  10       4.654  25.760  47.600  1.00  9.26 LIG-0.34  N 
ATOM     43 H    ILE D  10       4.115  25.174  47.924  1.00  9.26 LIG 0.16  HD
ATOM     44 O    ILE D   9       6.716  26.648  47.421  1.00 11.43 LIG-0.27  OA
BRANCH 42 45
ATOM     45  CA  ILE D  10       4.040  26.675  46.653  1.00 10.77 LIG 0.19  C 
BRANCH 45 46
ATOM     46  CB  ILE D  10       4.167  26.156  45.204  1.00 11.26 LIG 0.01  C 
ATOM     47  CG2 ILE D  10       5.505  25.449  45.006  1.00 13.36 LIG 0.01  C 
BRANCH 46 48
ATOM     48  CG1 ILE D  10       3.004  25.220  44.860  1.00 10.59 LIG 0.00  C 
ATOM     49  CD1 ILE D  10       2.409  25.463  43.487  1.00 13.29 LIG 0.01  C 
ENDBRANCH 46 48
ENDBRANCH 45 46
BRANCH 45 50
ATOM     50  C   ILE D  10       2.570  26.886  46.987  1.00 10.61 LIG 0.20  C 
ATOM     51 O    ILE D  10       1.940  26.055  47.652  1.00 10.13 LIG-0.65  OA
ATOM     52 OXT  ILE D  10       2.000  27.894  46.571  1.00 13.38 LIG-0.65  OA
ENDBRANCH 45 50
ENDBRANCH 42 45
ENDBRANCH 40 41
BRANCH 40 53
ATOM     53  CB  ILE D   9       6.703  25.470  50.302  1.00  9.74 LIG 0.01  C 
ATOM     54  CG2 ILE D   9       7.057  24.406  51.335  1.00 14.85 LIG 0.01  C 
BRANCH 53 55
ATOM     55  CG1 ILE D   9       7.829  26.489  50.148  1.00  9.98 LIG 0.00  C 
ATOM     56  CD1 ILE D   9       9.214  25.912  50.335  1.00 13.31 LIG 0.01  C 
ENDBRANCH 53 55
ENDBRANCH 40 53
ENDBRANCH 38 40
ENDBRANCH 32 36
ENDBRANCH 3 32
TORSDOF 21
ENDMDL
MODEL 50
USER: ADFR SOLUTION from run 86
USER: SCORE 15.118962 LL:  -4.714 LR: -12.634 RR:   0.000 FEB:  -6.370
USER: RMSD 2.923651
USER: SEED 85
USER: STATUS no improvement in best in 3 clusters for 5 generations
USER: GENES 23
USER: genes 0 Translation |==|  0.54670 0.54563 0.60732
USER: genes 1 Rotation |==|  0.39792 0.57577 0.56371 0.97935
USER: genes 2 Torsion [N]-C--CA-[N] |==|  0.42993
USER: genes 3 Torsion [C]-CA--CB-[CG2] |==|  0.31652
USER: genes 4 Torsion [CA]-CB--OG1-[HG1] |==|  0.77722
USER: genes 5 Torsion [C]-CA--N-[C] |==|  0.61274
USER: genes 6 Torsion [N]-C--CA-[CB] |==|  0.57433
USER: genes 7 Torsion [N]-C--CA-[N] |==|  0.36377
USER: genes 8 Torsion [C]-CA--CB-[CG] |==|  0.16196
USER: genes 9 Torsion [CA]-CB--CG-[CD1] |==|  0.18133
USER: genes 10 Torsion [CE2]-CZ--OH-[HH] |==|  0.23318
USER: genes 11 Torsion [C]-N--CA-[CB] |==|  0.23458
USER: genes 12 Torsion [N]-CA--CB-[OG] |==|  0.06920
USER: genes 13 Torsion [CA]-CB--OG-[HG] |==|  0.77552
USER: genes 14 Torsion [N]-CA--C-[N] |==|  0.51666
USER: genes 15 Torsion [C]-N--CA-[CB] |==|  0.26483
USER: genes 16 Torsion [N]-CA--C-[N] |==|  0.37927
USER: genes 17 Torsion [C]-N--CA-[CB] |==|  0.35246
USER: genes 18 Torsion [N]-CA--CB-[CG2] |==|  0.83313
USER: genes 19 Torsion [CA]-CB--CG1-[CD1] |==|  0.55229
USER: genes 20 Torsion [N]-CA--C-[O] |==|  0.92967
USER: genes 21 Torsion [N]-CA--CB-[CG1] |==|  0.76702
USER: genes 22 Torsion [CA]-CB--CG1-[CD1] |==|  0.36831
ROOT
ATOM      1  C   THR D   7      17.111  26.055  44.551  1.00  9.65 LIG 0.24  C 
ATOM      2 O    THR D   7      17.249  27.209  44.986  1.00 10.36 LIG-0.27  OA
ATOM      3  N   SER D   8      15.952  25.405  44.544  1.00  8.02 LIG-0.34  N 
ATOM      4 H    SER D   8      15.824  24.659  44.134  1.00  8.02 LIG 0.16  HD
ENDROOT
BRANCH 1 5
ATOM      5  CA  THR D   7      18.288  25.292  43.966  1.00 11.21 LIG 0.20  C 
BRANCH 5 6
ATOM      6  CB  THR D   7      18.871  24.358  45.045  1.00 12.81 LIG 0.15  C 
ATOM      7  CG2 THR D   7      18.674  22.898  44.673  1.00 13.23 LIG 0.04  C 
BRANCH 6 8
ATOM      8 OG1  THR D   7      20.273  24.619  45.192  1.00 15.88 LIG-0.39  OA
ATOM      9 HG1  THR D   7      20.696  24.232  44.578  1.00 15.88 LIG 0.21  HD
ENDBRANCH 6 8
ENDBRANCH 5 6
BRANCH 5 10
ATOM     10  N   THR D   7      19.314  26.197  43.470  1.00 13.33 LIG-0.34  N 
ATOM     11  C   PRO D   6      19.961  25.969  42.334  1.00 13.20 LIG 0.24  C 
ATOM     12 O    PRO D   6      19.699  25.030  41.583  1.00 14.28 LIG-0.27  OA
ATOM     13 H    THR D   7      19.456  26.879  43.974  1.00 13.33 LIG 0.16  HD
BRANCH 11 14
ATOM     14  CA  PRO D   6      21.060  26.967  41.970  1.00 20.50 LIG 0.18  C 
ATOM     15  CB  PRO D   6      21.231  26.995  40.451  1.00 26.18 LIG 0.04  C 
ATOM     16  CG  PRO D   6      22.383  26.089  40.184  1.00 30.25 LIG 0.02  C 
ATOM     17  CD  PRO D   6      23.314  26.302  41.331  1.00 26.41 LIG 0.13  C 
ATOM     18  N   PRO D   6      22.392  26.570  42.445  1.00 20.28 LIG-0.34  N 
ATOM     19  C   TYR D   5      22.699  26.405  43.738  1.00 26.16 LIG 0.26  C 
ATOM     20 O    TYR D   5      21.888  26.594  44.642  1.00 27.79 LIG-0.27  OA
BRANCH 19 21
ATOM     21  CA  TYR D   5      24.128  25.969  44.058  1.00 28.17 LIG 0.40  C 
ATOM     22  N   TYR D   5      24.697  26.819  45.095  1.00 34.40 LIG 0.61  N 
BRANCH 21 23
ATOM     23  CB  TYR D   5      24.156  24.502  44.496  1.00 23.65 LIG 0.09  C 
BRANCH 23 24
ATOM     24  CG  TYR D   5      23.596  23.542  43.468  1.00 24.31 LIG-0.06  A 
ATOM     25  CD2 TYR D   5      22.440  22.817  43.726  1.00 24.91 LIG 0.01  A 
ATOM     26  CE2 TYR D   5      21.924  21.937  42.795  1.00 24.35 LIG 0.04  A 
ATOM     27  CZ  TYR D   5      22.563  21.773  41.585  1.00 25.18 LIG 0.07  A 
ATOM     28  CE1 TYR D   5      23.715  22.481  41.301  1.00 25.68 LIG 0.04  A 
ATOM     29  CD1 TYR D   5      24.224  23.359  42.241  1.00 25.57 LIG 0.01  A 
BRANCH 27 30
ATOM     30 OH   TYR D   5      22.042  20.896  40.662  1.00 28.89 LIG-0.36  OA
ATOM     31 HH   TYR D   5      21.440  21.280  40.219  1.00 28.89 LIG 0.22  HD
ENDBRANCH 27 30
ENDBRANCH 23 24
ENDBRANCH 21 23
ENDBRANCH 19 21
ENDBRANCH 11 14
ENDBRANCH 5 10
ENDBRANCH 1 5
BRANCH 3 32
ATOM     32  CA  SER D   8      14.785  25.906  45.241  1.00  7.80 LIG 0.20  C 
BRANCH 32 33
ATOM     33  CB  SER D   8      14.029  26.912  44.380  1.00  7.43 LIG 0.20  C 
BRANCH 33 34
ATOM     34 OG   SER D   8      14.275  26.694  43.008  1.00  7.87 LIG-0.40  OA
ATOM     35 HG   SER D   8      15.010  27.040  42.797  1.00  7.87 LIG 0.21  HD
ENDBRANCH 33 34
ENDBRANCH 32 33
BRANCH 32 36
ATOM     36  C   SER D   8      13.883  24.738  45.566  1.00  7.75 LIG 0.24  C 
ATOM     37 O    SER D   8      14.238  23.582  45.339  1.00  8.57 LIG-0.27  OA
ATOM     38  N   ILE D   9      12.709  25.041  46.097  1.00  7.82 LIG-0.35  N 
ATOM     39 H    ILE D   9      12.475  25.834  46.334  1.00  7.82 LIG 0.16  HD
BRANCH 38 40
ATOM     40  CA  ILE D   9      11.703  24.021  46.323  1.00  8.70 LIG 0.18  C 
BRANCH 40 41
ATOM     41  C   ILE D   9      10.344  24.603  45.993  1.00  9.89 LIG 0.24  C 
ATOM     42  N   ILE D  10       9.533  23.818  45.296  1.00  9.26 LIG-0.34  N 
ATOM     43 H    ILE D  10       9.746  23.028  45.030  1.00  9.26 LIG 0.16  HD
ATOM     44 O    ILE D   9      10.051  25.753  46.326  1.00 11.43 LIG-0.27  OA
BRANCH 42 45
ATOM     45  CA  ILE D  10       8.194  24.233  44.914  1.00 10.77 LIG 0.19  C 
BRANCH 45 46
ATOM     46  CB  ILE D  10       7.966  24.077  43.394  1.00 11.26 LIG 0.01  C 
ATOM     47  CG2 ILE D  10       8.962  24.932  42.614  1.00 13.36 LIG 0.01  C 
BRANCH 46 48
ATOM     48  CG1 ILE D  10       8.075  22.606  42.980  1.00 10.59 LIG 0.00  C 
ATOM     49  CD1 ILE D  10       8.315  22.405  41.496  1.00 13.29 LIG 0.01  C 
ENDBRANCH 46 48
ENDBRANCH 45 46
BRANCH 45 50
ATOM     50  C   ILE D  10       7.147  23.426  45.668  1.00 10.61 LIG 0.20  C 
ATOM     51 O    ILE D  10       7.401  22.295  46.100  1.00 10.13 LIG-0.65  OA
ATOM     52 OXT  ILE D  10       6.026  23.905  45.833  1.00 13.38 LIG-0.65  OA
ENDBRANCH 45 50
ENDBRANCH 42 45
ENDBRANCH 40 41
BRANCH 40 53
ATOM     53  CB  ILE D   9      11.751  23.477  47.759  1.00  9.74 LIG 0.01  C 
ATOM     54  CG2 ILE D   9      10.382  22.948  48.174  1.00 14.85 LIG 0.01  C 
BRANCH 53 55
ATOM     55  CG1 ILE D   9      12.814  22.386  47.845  1.00  9.98 LIG 0.00  C 
ATOM     56  CD1 ILE D   9      13.747  22.523  49.026  1.00 13.31 LIG 0.01  C 
ENDBRANCH 53 55
ENDBRANCH 40 53
ENDBRANCH 38 40
ENDBRANCH 32 36
ENDBRANCH 3 32
TORSDOF 21
ENDMDL
MODEL 51
USER: ADFR SOLUTION from run 191
USER: SCORE 14.530541 LL:  -4.955 LR: -12.631 RR:   0.000 FEB:  -6.367
USER: RMSD 6.972303
USER: SEED 190
USER: STATUS no improvement in best in 6 clusters for 5 generations
USER: GENES 23
USER: genes 0 Translation |==|  0.43190 0.47736 0.63650
USER: genes 1 Rotation |==|  0.03113 0.40944 0.62842 0.57394
USER: genes 2 Torsion [N]-C--CA-[N] |==|  0.12094
USER: genes 3 Torsion [C]-CA--CB-[CG2] |==|  0.48857
USER: genes 4 Torsion [CA]-CB--OG1-[HG1] |==|  0.45674
USER: genes 5 Torsion [C]-CA--N-[C] |==|  0.12778
USER: genes 6 Torsion [N]-C--CA-[CB] |==|  0.86946
USER: genes 7 Torsion [N]-C--CA-[N] |==|  0.35018
USER: genes 8 Torsion [C]-CA--CB-[CG] |==|  0.11992
USER: genes 9 Torsion [CA]-CB--CG-[CD1] |==|  0.19677
USER: genes 10 Torsion [CE2]-CZ--OH-[HH] |==|  0.02483
USER: genes 11 Torsion [C]-N--CA-[CB] |==|  0.42802
USER: genes 12 Torsion [N]-CA--CB-[OG] |==|  0.87952
USER: genes 13 Torsion [CA]-CB--OG-[HG] |==|  0.77231
USER: genes 14 Torsion [N]-CA--C-[N] |==|  0.46061
USER: genes 15 Torsion [C]-N--CA-[CB] |==|  0.34190
USER: genes 16 Torsion [N]-CA--C-[N] |==|  0.13321
USER: genes 17 Torsion [C]-N--CA-[CB] |==|  0.31299
USER: genes 18 Torsion [N]-CA--CB-[CG2] |==|  0.98695
USER: genes 19 Torsion [CA]-CB--CG1-[CD1] |==|  0.65175
USER: genes 20 Torsion [N]-CA--C-[O] |==|  0.91454
USER: genes 21 Torsion [N]-CA--CB-[CG1] |==|  0.12523
USER: genes 22 Torsion [CA]-CB--CG1-[CD1] |==|  0.57436
ROOT
ATOM      1  C   THR D   7      13.925  25.082  45.251  1.00  9.65 LIG 0.24  C 
ATOM      2 O    THR D   7      13.808  24.594  44.116  1.00 10.36 LIG-0.27  OA
ATOM      3  N   SER D   8      13.218  24.680  46.302  1.00  8.02 LIG-0.34  N 
ATOM      4 H    SER D   8      13.381  24.926  47.110  1.00  8.02 LIG 0.16  HD
ENDROOT
BRANCH 1 5
ATOM      5  CA  THR D   7      14.924  26.195  45.526  1.00 11.21 LIG 0.20  C 
BRANCH 5 6
ATOM      6  CB  THR D   7      15.899  26.304  44.337  1.00 12.81 LIG 0.15  C 
ATOM      7  CG2 THR D   7      16.857  27.469  44.517  1.00 13.23 LIG 0.04  C 
BRANCH 6 8
ATOM      8 OG1  THR D   7      16.653  25.090  44.229  1.00 15.88 LIG-0.39  OA
ATOM      9 HG1  THR D   7      17.023  25.056  43.475  1.00 15.88 LIG 0.21  HD
ENDBRANCH 6 8
ENDBRANCH 5 6
BRANCH 5 10
ATOM     10  N   THR D   7      15.654  25.959  46.762  1.00 13.33 LIG-0.34  N 
ATOM     11  C   PRO D   6      16.175  24.774  47.055  1.00 13.20 LIG 0.24  C 
ATOM     12 O    PRO D   6      16.148  23.815  46.285  1.00 14.28 LIG-0.27  OA
ATOM     13 H    THR D   7      15.714  26.648  47.273  1.00 13.33 LIG 0.16  HD
BRANCH 11 14
ATOM     14  CA  PRO D   6      16.855  24.653  48.417  1.00 20.50 LIG 0.18  C 
ATOM     15  CB  PRO D   6      17.782  25.850  48.626  1.00 26.18 LIG 0.04  C 
ATOM     16  CG  PRO D   6      19.134  25.352  48.243  1.00 30.25 LIG 0.02  C 
ATOM     17  CD  PRO D   6      19.165  23.932  48.701  1.00 26.41 LIG 0.13  C 
ATOM     18  N   PRO D   6      17.769  23.506  48.515  1.00 20.28 LIG-0.34  N 
ATOM     19  C   TYR D   5      17.378  22.232  48.379  1.00 26.16 LIG 0.26  C 
ATOM     20 O    TYR D   5      16.208  21.916  48.178  1.00 27.79 LIG-0.27  OA
BRANCH 19 21
ATOM     21  CA  TYR D   5      18.463  21.163  48.489  1.00 28.17 LIG 0.40  C 
ATOM     22  N   TYR D   5      18.097  20.172  49.493  1.00 34.40 LIG 0.61  N 
BRANCH 21 23
ATOM     23  CB  TYR D   5      18.691  20.488  47.133  1.00 23.65 LIG 0.09  C 
BRANCH 23 24
ATOM     24  CG  TYR D   5      18.733  21.451  45.966  1.00 24.31 LIG-0.06  A 
ATOM     25  CD2 TYR D   5      17.700  21.492  45.039  1.00 24.91 LIG 0.01  A 
ATOM     26  CE2 TYR D   5      17.732  22.365  43.970  1.00 24.35 LIG 0.04  A 
ATOM     27  CZ  TYR D   5      18.806  23.217  43.816  1.00 25.18 LIG 0.07  A 
ATOM     28  CE1 TYR D   5      19.848  23.198  44.723  1.00 25.68 LIG 0.04  A 
ATOM     29  CD1 TYR D   5      19.806  22.318  45.790  1.00 25.57 LIG 0.01  A 
BRANCH 27 30
ATOM     30 OH   TYR D   5      18.829  24.085  42.750  1.00 28.89 LIG-0.36  OA
ATOM     31 HH   TYR D   5      18.085  24.071  42.360  1.00 28.89 LIG 0.22  HD
ENDBRANCH 27 30
ENDBRANCH 23 24
ENDBRANCH 21 23
ENDBRANCH 19 21
ENDBRANCH 11 14
ENDBRANCH 5 10
ENDBRANCH 1 5
BRANCH 3 32
ATOM     32  CA  SER D   8      12.092  23.778  46.171  1.00  7.80 LIG 0.20  C 
BRANCH 32 33
ATOM     33  CB  SER D   8      11.870  22.996  47.461  1.00  7.43 LIG 0.20  C 
BRANCH 33 34
ATOM     34 OG   SER D   8      13.093  22.537  47.994  1.00  7.87 LIG-0.40  OA
ATOM     35 HG   SER D   8      13.322  21.830  47.602  1.00  7.87 LIG 0.21  HD
ENDBRANCH 33 34
ENDBRANCH 32 33
BRANCH 32 36
ATOM     36  C   SER D   8      10.859  24.594  45.855  1.00  7.75 LIG 0.24  C 
ATOM     37 O    SER D   8      10.854  25.816  46.005  1.00  8.57 LIG-0.27  OA
ATOM     38  N   ILE D   9       9.810  23.915  45.420  1.00  7.82 LIG-0.35  N 
ATOM     39 H    ILE D   9       9.819  23.076  45.236  1.00  7.82 LIG 0.16  HD
BRANCH 38 40
ATOM     40  CA  ILE D   9       8.529  24.566  45.216  1.00  8.70 LIG 0.18  C 
BRANCH 40 41
ATOM     41  C   ILE D   9       7.542  24.009  46.222  1.00  9.89 LIG 0.24  C 
ATOM     42  N   ILE D  10       7.966  23.954  47.477  1.00  9.26 LIG-0.34  N 
ATOM     43 H    ILE D  10       8.749  24.206  47.728  1.00  9.26 LIG 0.16  HD
ATOM     44 O    ILE D   9       6.437  23.599  45.862  1.00 11.43 LIG-0.27  OA
BRANCH 42 45
ATOM     45  CA  ILE D  10       7.129  23.455  48.556  1.00 10.77 LIG 0.19  C 
BRANCH 45 46
ATOM     46  CB  ILE D  10       7.674  22.128  49.126  1.00 11.26 LIG 0.01  C 
ATOM     47  CG2 ILE D  10       8.878  21.654  48.317  1.00 13.36 LIG 0.01  C 
BRANCH 46 48
ATOM     48  CG1 ILE D  10       8.044  22.287  50.604  1.00 10.59 LIG 0.00  C 
ATOM     49  CD1 ILE D  10       9.471  21.885  50.924  1.00 13.29 LIG 0.01  C 
ENDBRANCH 46 48
ENDBRANCH 45 46
BRANCH 45 50
ATOM     50  C   ILE D  10       7.026  24.482  49.674  1.00 10.61 LIG 0.20  C 
ATOM     51 O    ILE D  10       7.956  25.263  49.913  1.00 10.13 LIG-0.65  OA
ATOM     52 OXT  ILE D  10       6.005  24.521  50.359  1.00 13.38 LIG-0.65  OA
ENDBRANCH 45 50
ENDBRANCH 42 45
ENDBRANCH 40 41
BRANCH 40 53
ATOM     53  CB  ILE D   9       8.023  24.397  43.776  1.00  9.74 LIG 0.01  C 
ATOM     54  CG2 ILE D   9       8.756  25.350  42.839  1.00 14.85 LIG 0.01  C 
BRANCH 53 55
ATOM     55  CG1 ILE D   9       8.213  22.944  43.347  1.00  9.98 LIG 0.00  C 
ATOM     56  CD1 ILE D   9       8.373  22.756  41.856  1.00 13.31 LIG 0.01  C 
ENDBRANCH 53 55
ENDBRANCH 40 53
ENDBRANCH 38 40
ENDBRANCH 32 36
ENDBRANCH 3 32
TORSDOF 21
ENDMDL
MODEL 52
USER: ADFR SOLUTION from run 103
USER: SCORE 17.118143 LL:  -4.825 LR: -12.619 RR:   0.000 FEB:  -6.355
USER: RMSD 10.860440
USER: SEED 102
USER: STATUS no improvement in best in 3 clusters for 5 generations
USER: GENES 23
USER: genes 0 Translation |==|  0.22189 0.32468 0.73464
USER: genes 1 Rotation |==|  0.76245 0.17012 0.59890 0.75003
USER: genes 2 Torsion [N]-C--CA-[N] |==|  0.04516
USER: genes 3 Torsion [C]-CA--CB-[CG2] |==|  0.90492
USER: genes 4 Torsion [CA]-CB--OG1-[HG1] |==|  0.52585
USER: genes 5 Torsion [C]-CA--N-[C] |==|  0.69178
USER: genes 6 Torsion [N]-C--CA-[CB] |==|  0.04913
USER: genes 7 Torsion [N]-C--CA-[N] |==|  0.29264
USER: genes 8 Torsion [C]-CA--CB-[CG] |==|  0.25914
USER: genes 9 Torsion [CA]-CB--CG-[CD1] |==|  0.96872
USER: genes 10 Torsion [CE2]-CZ--OH-[HH] |==|  0.85572
USER: genes 11 Torsion [C]-N--CA-[CB] |==|  0.85192
USER: genes 12 Torsion [N]-CA--CB-[OG] |==|  0.91650
USER: genes 13 Torsion [CA]-CB--OG-[HG] |==|  0.92793
USER: genes 14 Torsion [N]-CA--C-[N] |==|  0.35000
USER: genes 15 Torsion [C]-N--CA-[CB] |==|  0.86588
USER: genes 16 Torsion [N]-CA--C-[N] |==|  0.87879
USER: genes 17 Torsion [C]-N--CA-[CB] |==|  0.34652
USER: genes 18 Torsion [N]-CA--CB-[CG2] |==|  0.41866
USER: genes 19 Torsion [CA]-CB--CG1-[CD1] |==|  0.65835
USER: genes 20 Torsion [N]-CA--C-[O] |==|  0.41087
USER: genes 21 Torsion [N]-CA--CB-[CG1] |==|  0.82891
USER: genes 22 Torsion [CA]-CB--CG1-[CD1] |==|  0.61495
ROOT
ATOM      1  C   THR D   7       8.097  22.907  47.606  1.00  9.65 LIG 0.24  C 
ATOM      2 O    THR D   7       6.963  22.405  47.605  1.00 10.36 LIG-0.27  OA
ATOM      3  N   SER D   8       8.485  23.854  46.758  1.00  8.02 LIG-0.34  N 
ATOM      4 H    SER D   8       9.222  24.290  46.833  1.00  8.02 LIG 0.16  HD
ENDROOT
BRANCH 1 5
ATOM      5  CA  THR D   7       9.146  22.469  48.616  1.00 11.21 LIG 0.20  C 
BRANCH 5 6
ATOM      6  CB  THR D   7       8.478  22.290  49.993  1.00 12.81 LIG 0.15  C 
ATOM      7  CG2 THR D   7       7.359  23.298  50.198  1.00 13.23 LIG 0.04  C 
BRANCH 6 8
ATOM      8 OG1  THR D   7       7.938  20.965  50.090  1.00 15.88 LIG-0.39  OA
ATOM      9 HG1  THR D   7       7.466  20.905  50.782  1.00 15.88 LIG 0.21  HD
ENDBRANCH 6 8
ENDBRANCH 5 6
BRANCH 5 10
ATOM     10  N   THR D   7      10.234  23.430  48.701  1.00 13.33 LIG-0.34  N 
ATOM     11  C   PRO D   6      11.455  23.149  48.262  1.00 13.20 LIG 0.24  C 
ATOM     12 O    PRO D   6      11.742  22.098  47.689  1.00 14.28 LIG-0.27  OA
ATOM     13 H    THR D   7      10.015  24.182  49.056  1.00 13.33 LIG 0.16  HD
BRANCH 11 14
ATOM     14  CA  PRO D   6      12.516  24.227  48.477  1.00 20.50 LIG 0.18  C 
ATOM     15  CB  PRO D   6      12.027  25.211  49.540  1.00 26.18 LIG 0.04  C 
ATOM     16  CG  PRO D   6      11.458  26.350  48.766  1.00 30.25 LIG 0.02  C 
ATOM     17  CD  PRO D   6      12.340  26.480  47.568  1.00 26.41 LIG 0.13  C 
ATOM     18  N   PRO D   6      12.725  25.085  47.303  1.00 20.28 LIG-0.34  N 
ATOM     19  C   TYR D   5      13.148  24.629  46.117  1.00 26.16 LIG 0.26  C 
ATOM     20 O    TYR D   5      13.418  23.447  45.919  1.00 27.79 LIG-0.27  OA
BRANCH 19 21
ATOM     21  CA  TYR D   5      13.292  25.656  44.995  1.00 28.17 LIG 0.40  C 
ATOM     22  N   TYR D   5      14.699  25.954  44.759  1.00 34.40 LIG 0.61  N 
BRANCH 21 23
ATOM     23  CB  TYR D   5      12.634  25.143  43.711  1.00 23.65 LIG 0.09  C 
BRANCH 23 24
ATOM     24  CG  TYR D   5      11.197  25.587  43.537  1.00 24.31 LIG-0.06  A 
ATOM     25  CD2 TYR D   5      10.537  25.407  42.328  1.00 24.91 LIG 0.01  A 
ATOM     26  CE2 TYR D   5       9.227  25.811  42.161  1.00 24.35 LIG 0.04  A 
ATOM     27  CZ  TYR D   5       8.556  26.402  43.210  1.00 25.18 LIG 0.07  A 
ATOM     28  CE1 TYR D   5       9.187  26.594  44.424  1.00 25.68 LIG 0.04  A 
ATOM     29  CD1 TYR D   5      10.501  26.187  44.581  1.00 25.57 LIG 0.01  A 
BRANCH 27 30
ATOM     30 OH   TYR D   5       7.251  26.800  43.036  1.00 28.89 LIG-0.36  OA
ATOM     31 HH   TYR D   5       7.193  27.280  42.349  1.00 28.89 LIG 0.22  HD
ENDBRANCH 27 30
ENDBRANCH 23 24
ENDBRANCH 21 23
ENDBRANCH 19 21
ENDBRANCH 11 14
ENDBRANCH 5 10
ENDBRANCH 1 5
BRANCH 3 32
ATOM     32  CA  SER D   8       7.682  24.237  45.615  1.00  7.80 LIG 0.20  C 
BRANCH 32 33
ATOM     33  CB  SER D   8       7.323  23.019  44.770  1.00  7.43 LIG 0.20  C 
BRANCH 33 34
ATOM     34 OG   SER D   8       8.325  22.030  44.854  1.00  7.87 LIG-0.40  OA
ATOM     35 HG   SER D   8       9.061  22.390  45.038  1.00  7.87 LIG 0.21  HD
ENDBRANCH 33 34
ENDBRANCH 32 33
BRANCH 32 36
ATOM     36  C   SER D   8       6.417  24.896  46.117  1.00  7.75 LIG 0.24  C 
ATOM     37 O    SER D   8       5.688  24.327  46.929  1.00  8.57 LIG-0.27  OA
ATOM     38  N   ILE D   9       6.157  26.098  45.630  1.00  7.82 LIG-0.35  N 
ATOM     39 H    ILE D   9       6.692  26.542  45.125  1.00  7.82 LIG 0.16  HD
BRANCH 38 40
ATOM     40  CA  ILE D   9       4.906  26.771  45.928  1.00  8.70 LIG 0.18  C 
BRANCH 40 41
ATOM     41  C   ILE D   9       4.964  27.288  47.351  1.00  9.89 LIG 0.24  C 
ATOM     42  N   ILE D  10       5.465  26.450  48.249  1.00  9.26 LIG-0.34  N 
ATOM     43 H    ILE D  10       5.740  25.657  48.061  1.00  9.26 LIG 0.16  HD
ATOM     44 O    ILE D   9       4.525  28.404  47.636  1.00 11.43 LIG-0.27  OA
BRANCH 42 45
ATOM     45  CA  ILE D  10       5.596  26.807  49.652  1.00 10.77 LIG 0.19  C 
BRANCH 45 46
ATOM     46  CB  ILE D  10       4.883  25.785  50.563  1.00 11.26 LIG 0.01  C 
ATOM     47  CG2 ILE D  10       5.573  25.710  51.923  1.00 13.36 LIG 0.01  C 
BRANCH 46 48
ATOM     48  CG1 ILE D  10       3.403  26.145  50.726  1.00 10.59 LIG 0.00  C 
ATOM     49  CD1 ILE D  10       2.975  26.335  52.168  1.00 13.29 LIG 0.01  C 
ENDBRANCH 46 48
ENDBRANCH 45 46
BRANCH 45 50
ATOM     50  C   ILE D  10       7.063  26.902  50.047  1.00 10.61 LIG 0.20  C 
ATOM     51 O    ILE D  10       7.441  27.701  50.912  1.00 10.13 LIG-0.65  OA
ATOM     52 OXT  ILE D  10       7.883  26.179  49.482  1.00 13.38 LIG-0.65  OA
ENDBRANCH 45 50
ENDBRANCH 42 45
ENDBRANCH 40 41
BRANCH 40 53
ATOM     53  CB  ILE D   9       3.695  25.852  45.711  1.00  9.74 LIG 0.01  C 
ATOM     54  CG2 ILE D   9       2.410  26.556  46.130  1.00 14.85 LIG 0.01  C 
BRANCH 53 55
ATOM     55  CG1 ILE D   9       3.643  25.432  44.244  1.00  9.98 LIG 0.00  C 
ATOM     56  CD1 ILE D   9       2.252  25.432  43.650  1.00 13.31 LIG 0.01  C 
ENDBRANCH 53 55
ENDBRANCH 40 53
ENDBRANCH 38 40
ENDBRANCH 32 36
ENDBRANCH 3 32
TORSDOF 21
ENDMDL
MODEL 53
USER: ADFR SOLUTION from run 93
USER: SCORE 13.109495 LL:  -3.094 LR: -12.599 RR:   0.000 FEB:  -6.335
USER: RMSD 5.092961
USER: SEED 92
USER: STATUS no improvement in best in 17 clusters for 5 generations
USER: GENES 23
USER: genes 0 Translation |==|  0.47665 0.56951 0.62188
USER: genes 1 Rotation |==|  0.00822 0.41746 0.46352 0.50291
USER: genes 2 Torsion [N]-C--CA-[N] |==|  0.47778
USER: genes 3 Torsion [C]-CA--CB-[CG2] |==|  0.54655
USER: genes 4 Torsion [CA]-CB--OG1-[HG1] |==|  0.93365
USER: genes 5 Torsion [C]-CA--N-[C] |==|  0.61237
USER: genes 6 Torsion [N]-C--CA-[CB] |==|  0.46479
USER: genes 7 Torsion [N]-C--CA-[N] |==|  0.86965
USER: genes 8 Torsion [C]-CA--CB-[CG] |==|  0.17615
USER: genes 9 Torsion [CA]-CB--CG-[CD1] |==|  0.57740
USER: genes 10 Torsion [CE2]-CZ--OH-[HH] |==|  0.76979
USER: genes 11 Torsion [C]-N--CA-[CB] |==|  0.26097
USER: genes 12 Torsion [N]-CA--CB-[OG] |==|  0.85647
USER: genes 13 Torsion [CA]-CB--OG-[HG] |==|  0.35453
USER: genes 14 Torsion [N]-CA--C-[N] |==|  0.49845
USER: genes 15 Torsion [C]-N--CA-[CB] |==|  0.42125
USER: genes 16 Torsion [N]-CA--C-[N] |==|  0.88171
USER: genes 17 Torsion [C]-N--CA-[CB] |==|  0.79404
USER: genes 18 Torsion [N]-CA--CB-[CG2] |==|  0.56283
USER: genes 19 Torsion [CA]-CB--CG1-[CD1] |==|  0.74936
USER: genes 20 Torsion [N]-CA--C-[O] |==|  0.03780
USER: genes 21 Torsion [N]-CA--CB-[CG1] |==|  0.18368
USER: genes 22 Torsion [CA]-CB--CG1-[CD1] |==|  0.57602
ROOT
ATOM      1  C   THR D   7      15.167  26.396  44.900  1.00  9.65 LIG 0.24  C 
ATOM      2 O    THR D   7      15.741  25.710  44.040  1.00 10.36 LIG-0.27  OA
ATOM      3  N   SER D   8      13.909  26.198  45.281  1.00  8.02 LIG-0.34  N 
ATOM      4 H    SER D   8      13.548  26.585  45.959  1.00  8.02 LIG 0.16  HD
ENDROOT
BRANCH 1 5
ATOM      5  CA  THR D   7      15.890  27.531  45.606  1.00 11.21 LIG 0.20  C 
BRANCH 5 6
ATOM      6  CB  THR D   7      15.224  28.868  45.228  1.00 12.81 LIG 0.15  C 
ATOM      7  CG2 THR D   7      16.126  30.045  45.558  1.00 13.23 LIG 0.04  C 
BRANCH 6 8
ATOM      8 OG1  THR D   7      14.938  28.875  43.823  1.00 15.88 LIG-0.39  OA
ATOM      9 HG1  THR D   7      15.453  28.339  43.430  1.00 15.88 LIG 0.21  HD
ENDBRANCH 6 8
ENDBRANCH 5 6
BRANCH 5 10
ATOM     10  N   THR D   7      17.304  27.553  45.265  1.00 13.33 LIG-0.34  N 
ATOM     11  C   PRO D   6      18.241  27.805  46.172  1.00 13.20 LIG 0.24  C 
ATOM     12 O    PRO D   6      17.999  27.962  47.368  1.00 14.28 LIG-0.27  OA
ATOM     13 H    THR D   7      17.470  27.391  44.437  1.00 13.33 LIG 0.16  HD
BRANCH 11 14
ATOM     14  CA  PRO D   6      19.679  27.864  45.659  1.00 20.50 LIG 0.18  C 
ATOM     15  CB  PRO D   6      20.575  28.464  46.742  1.00 26.18 LIG 0.04  C 
ATOM     16  CG  PRO D   6      20.703  29.902  46.371  1.00 30.25 LIG 0.02  C 
ATOM     17  CD  PRO D   6      20.740  29.913  44.879  1.00 26.41 LIG 0.13  C 
ATOM     18  N   PRO D   6      19.861  28.786  44.531  1.00 20.28 LIG-0.34  N 
ATOM     19  C   TYR D   5      19.239  28.648  43.352  1.00 26.16 LIG 0.26  C 
ATOM     20 O    TYR D   5      18.475  27.717  43.111  1.00 27.79 LIG-0.27  OA
BRANCH 19 21
ATOM     21  CA  TYR D   5      19.526  29.710  42.292  1.00 28.17 LIG 0.40  C 
ATOM     22  N   TYR D   5      19.431  31.043  42.872  1.00 34.40 LIG 0.61  N 
BRANCH 21 23
ATOM     23  CB  TYR D   5      20.912  29.494  41.678  1.00 23.65 LIG 0.09  C 
BRANCH 23 24
ATOM     24  CG  TYR D   5      21.057  28.186  40.931  1.00 24.31 LIG-0.06  A 
ATOM     25  CD2 TYR D   5      19.956  27.575  40.343  1.00 24.91 LIG 0.01  A 
ATOM     26  CE2 TYR D   5      20.080  26.380  39.662  1.00 24.35 LIG 0.04  A 
ATOM     27  CZ  TYR D   5      21.317  25.779  39.558  1.00 25.18 LIG 0.07  A 
ATOM     28  CE1 TYR D   5      22.428  26.363  40.133  1.00 25.68 LIG 0.04  A 
ATOM     29  CD1 TYR D   5      22.293  27.560  40.814  1.00 25.57 LIG 0.01  A 
BRANCH 27 30
ATOM     30 OH   TYR D   5      21.432  24.590  38.876  1.00 28.89 LIG-0.36  OA
ATOM     31 HH   TYR D   5      21.223  23.954  39.384  1.00 28.89 LIG 0.22  HD
ENDBRANCH 27 30
ENDBRANCH 23 24
ENDBRANCH 21 23
ENDBRANCH 19 21
ENDBRANCH 11 14
ENDBRANCH 5 10
ENDBRANCH 1 5
BRANCH 3 32
ATOM     32  CA  SER D   8      13.024  25.297  44.572  1.00  7.80 LIG 0.20  C 
BRANCH 32 33
ATOM     33  CB  SER D   8      13.041  23.910  45.204  1.00  7.43 LIG 0.20  C 
BRANCH 33 34
ATOM     34 OG   SER D   8      14.360  23.433  45.350  1.00  7.87 LIG-0.40  OA
ATOM     35 HG   SER D   8      14.485  23.190  46.144  1.00  7.87 LIG 0.21  HD
ENDBRANCH 33 34
ENDBRANCH 32 33
BRANCH 32 36
ATOM     36  C   SER D   8      11.623  25.861  44.626  1.00  7.75 LIG 0.24  C 
ATOM     37 O    SER D   8      11.387  26.915  45.217  1.00  8.57 LIG-0.27  OA
ATOM     38  N   ILE D   9      10.688  25.155  44.009  1.00  7.82 LIG-0.35  N 
ATOM     39 H    ILE D   9      10.846  24.461  43.527  1.00  7.82 LIG 0.16  HD
BRANCH 38 40
ATOM     40  CA  ILE D   9       9.288  25.519  44.108  1.00  8.70 LIG 0.18  C 
BRANCH 40 41
ATOM     41  C   ILE D   9       8.720  24.907  45.372  1.00  9.89 LIG 0.24  C 
ATOM     42  N   ILE D  10       9.087  23.657  45.623  1.00  9.26 LIG-0.34  N 
ATOM     43 H    ILE D  10       9.607  23.201  45.113  1.00  9.26 LIG 0.16  HD
ATOM     44 O    ILE D   9       7.932  25.537  46.081  1.00 11.43 LIG-0.27  OA
BRANCH 42 45
ATOM     45  CA  ILE D  10       8.633  22.940  46.803  1.00 10.77 LIG 0.19  C 
BRANCH 45 46
ATOM     46  CB  ILE D  10       9.347  23.440  48.078  1.00 11.26 LIG 0.01  C 
ATOM     47  CG2 ILE D  10       9.308  22.371  49.166  1.00 13.36 LIG 0.01  C 
BRANCH 46 48
ATOM     48  CG1 ILE D  10      10.793  23.840  47.765  1.00 10.59 LIG 0.00  C 
ATOM     49  CD1 ILE D  10      11.788  22.707  47.919  1.00 13.29 LIG 0.01  C 
ENDBRANCH 46 48
ENDBRANCH 45 46
BRANCH 45 50
ATOM     50  C   ILE D  10       7.128  23.089  46.976  1.00 10.61 LIG 0.20  C 
ATOM     51 O    ILE D  10       6.420  23.527  46.061  1.00 10.13 LIG-0.65  OA
ATOM     52 OXT  ILE D  10       6.615  22.780  48.051  1.00 13.38 LIG-0.65  OA
ENDBRANCH 45 50
ENDBRANCH 42 45
ENDBRANCH 40 41
BRANCH 40 53
ATOM     53  CB  ILE D   9       8.494  25.086  42.866  1.00  9.74 LIG 0.01  C 
ATOM     54  CG2 ILE D   9       9.111  25.680  41.605  1.00 14.85 LIG 0.01  C 
BRANCH 53 55
ATOM     55  CG1 ILE D   9       8.462  23.561  42.800  1.00  9.98 LIG 0.00  C 
ATOM     56  CD1 ILE D   9       8.321  23.005  41.401  1.00 13.31 LIG 0.01  C 
ENDBRANCH 53 55
ENDBRANCH 40 53
ENDBRANCH 38 40
ENDBRANCH 32 36
ENDBRANCH 3 32
TORSDOF 21
ENDMDL
