MODEL 1
USER: ADFR SOLUTION from run 89
USER: SCORE 20.538622 LL:  -5.014 LR: -18.206 RR:   0.000 FEB:  -8.362
USER: RMSD 10.224094
USER: SEED 88
USER: STATUS searching
USER: GENES 35
USER: genes 0 Translation |==|  0.72218 0.61506 0.55671
USER: genes 1 Rotation |==|  0.08528 0.34935 0.50275 0.73516
USER: genes 2 Torsion [N]-C--CA-[N] |==|  0.90298
USER: genes 3 Torsion [C]-CA--CB-[CG] |==|  0.95917
USER: genes 4 Torsion [CA]-CB--CG-[CD] |==|  0.40128
USER: genes 5 Torsion [CB]-CG--CD-[NE] |==|  0.11554
USER: genes 6 Torsion [CG]-CD--NE-[HE] |==|  0.14000
USER: genes 7 Torsion [C]-CA--N-[C] |==|  0.81037
USER: genes 8 Torsion [N]-C--CA-[N] |==|  0.13757
USER: genes 9 Torsion [C]-CA--CB-[CG] |==|  0.31493
USER: genes 10 Torsion [CA]-CB--CG-[CD] |==|  0.26763
USER: genes 11 Torsion [CB]-CG--CD-[NE] |==|  0.96033
USER: genes 12 Torsion [CG]-CD--NE-[HE] |==|  0.16117
USER: genes 13 Torsion [C]-CA--N-[C] |==|  0.14247
USER: genes 14 Torsion [N]-C--CA-[N] |==|  0.92877
USER: genes 15 Torsion [C]-CA--CB-[CG2] |==|  0.82509
USER: genes 16 Torsion [CA]-CB--OG1-[HG1] |==|  0.96004
USER: genes 17 Torsion [C]-N--CA-[CB] |==|  0.88889
USER: genes 18 Torsion [N]-CA--C-[N] |==|  0.88013
USER: genes 19 Torsion [C]-N--CA-[CB] |==|  0.83825
USER: genes 20 Torsion [N]-CA--CB-[CG2] |==|  0.57799
USER: genes 21 Torsion [CA]-CB--OG1-[HG1] |==|  0.11766
USER: genes 22 Torsion [N]-CA--C-[N] |==|  0.11519
USER: genes 23 Torsion [C]-N--CA-[C] |==|  0.54059
USER: genes 24 Torsion [N]-CA--C-[N] |==|  0.90833
USER: genes 25 Torsion [C]-N--CA-[C] |==|  0.56964
USER: genes 26 Torsion [N]-CA--CB-[CG] |==|  0.01558
USER: genes 27 Torsion [CA]-CB--CG-[CD1] |==|  0.34163
USER: genes 28 Torsion [N]-CA--C-[O] |==|  0.40275
USER: genes 29 Torsion [N]-CA--CB-[CG] |==|  0.71284
USER: genes 30 Torsion [CA]-CB--CG-[CD] |==|  0.77047
USER: genes 31 Torsion [CB]-CG--CD-[NE2] |==|  0.43728
USER: genes 32 Torsion [N]-CA--CB-[CG] |==|  0.66104
USER: genes 33 Torsion [CA]-CB--CG-[CD] |==|  0.81852
USER: genes 34 Torsion [CB]-CG--CD-[OE1] |==|  0.51986
ROOT
ATOM      1  C   ARG C   6      29.676  21.717  25.878  1.00 27.90 LIG 0.24  C 
ATOM      2 O    ARG C   6      30.223  20.627  25.731  1.00 25.69 LIG-0.27  OA
ATOM      3  N   GLU C   7      30.245  22.863  25.521  1.00 23.63 LIG-0.35  N 
ATOM      4 H    GLU C   7      29.834  23.619  25.507  1.00 23.63 LIG 0.16  HD
ENDROOT
BRANCH 1 5
ATOM      5  CA  ARG C   6      28.275  21.811  26.482  1.00 28.24 LIG 0.18  C 
BRANCH 5 6
ATOM      6  CB  ARG C   6      27.236  21.794  25.359  1.00 28.37 LIG 0.04  C 
BRANCH 6 7
ATOM      7  CG  ARG C   6      27.818  22.045  23.986  1.00 35.92 LIG 0.02  C 
BRANCH 7 8
ATOM      8  CD  ARG C   6      27.091  21.226  22.938  1.00 41.81 LIG 0.14  C 
BRANCH 8 9
ATOM      9  NE  ARG C   6      25.649  21.235  23.178  1.00 46.88 LIG-0.23  N 
ATOM     10 HE   ARG C   6      25.267  21.996  23.298  1.00 46.88 LIG 0.18  HD
ATOM     11  CZ  ARG C   6      24.890  20.145  23.225  1.00 47.79 LIG 0.67  C 
ATOM     12  NH2 ARG C   6      23.587  20.253  23.445  1.00 52.15 LIG-0.23  N 
ATOM     13  NH1 ARG C   6      25.434  18.948  23.054  1.00 41.40 LIG-0.23  N 
ATOM     14 1HH2 ARG C   6      23.233  21.028  23.557  1.00 52.15 LIG 0.17  HD
ATOM     15 2HH2 ARG C   6      23.095  19.547  23.476  1.00 52.15 LIG 0.17  HD
ATOM     16 2HH1 ARG C   6      24.942  18.244  23.085  1.00 41.40 LIG 0.17  HD
ATOM     17 1HH1 ARG C   6      26.279  18.876  22.912  1.00 41.40 LIG 0.17  HD
ENDBRANCH 8 9
ENDBRANCH 7 8
ENDBRANCH 6 7
ENDBRANCH 5 6
BRANCH 5 18
ATOM     18  N   ARG C   6      28.118  23.015  27.288  1.00 41.74 LIG-0.35  N 
ATOM     19  C   ARG C   5      28.764  23.186  28.437  1.00 53.56 LIG 0.24  C 
ATOM     20 O    ARG C   5      29.530  22.347  28.908  1.00 51.79 LIG-0.27  OA
ATOM     21 H    ARG C   6      27.577  23.594  26.953  1.00 41.74 LIG 0.16  HD
BRANCH 19 22
ATOM     22  CA  ARG C   5      28.518  24.517  29.148  1.00 62.48 LIG 0.18  C 
BRANCH 22 23
ATOM     23  CB  ARG C   5      29.217  24.504  30.509  1.00 65.36 LIG 0.04  C 
BRANCH 23 24
ATOM     24  CG  ARG C   5      30.372  25.499  30.606  1.00 67.86 LIG 0.02  C 
BRANCH 24 25
ATOM     25  CD  ARG C   5      29.939  26.805  31.254  1.00 67.74 LIG 0.14  C 
BRANCH 25 26
ATOM     26  NE  ARG C   5      28.486  26.914  31.314  1.00 69.26 LIG-0.23  N 
ATOM     27 HE   ARG C   5      28.053  26.299  31.731  1.00 69.26 LIG 0.18  HD
ATOM     28  CZ  ARG C   5      27.787  27.902  30.768  1.00 72.53 LIG 0.67  C 
ATOM     29  NH1 ARG C   5      26.464  27.915  30.868  1.00 70.69 LIG-0.23  N 
ATOM     30  NH2 ARG C   5      28.412  28.880  30.123  1.00 74.37 LIG-0.23  N 
ATOM     31 2HH1 ARG C   5      26.012  28.556  30.513  1.00 70.69 LIG 0.17  HD
ATOM     32 1HH1 ARG C   5      26.058  27.283  31.286  1.00 70.69 LIG 0.17  HD
ATOM     33 1HH2 ARG C   5      29.269  28.873  30.059  1.00 74.37 LIG 0.17  HD
ATOM     34 2HH2 ARG C   5      27.960  29.519  29.769  1.00 74.37 LIG 0.17  HD
ENDBRANCH 25 26
ENDBRANCH 24 25
ENDBRANCH 23 24
ENDBRANCH 22 23
BRANCH 22 35
ATOM     35  N   ARG C   5      27.101  24.858  29.284  1.00 62.98 LIG-0.35  N 
ATOM     36  C   THR C   4      26.233  23.989  29.797  1.00 71.37 LIG 0.26  C 
ATOM     37 O    THR C   4      26.574  22.883  30.220  1.00 72.41 LIG-0.27  OA
ATOM     38 H    ARG C   5      26.893  25.646  29.009  1.00 62.98 LIG 0.16  HD
BRANCH 36 39
ATOM     39  CA  THR C   4      24.766  24.423  29.845  1.00 77.23 LIG 0.43  C 
ATOM     40  N   THR C   4      24.647  25.878  29.886  1.00 78.75 LIG 0.62  N 
BRANCH 39 41
ATOM     41  CB  THR C   4      24.017  23.822  28.627  1.00 73.87 LIG 0.16  C 
ATOM     42  CG2 THR C   4      24.583  24.361  27.319  1.00 73.94 LIG 0.04  C 
BRANCH 41 43
ATOM     43 OG1  THR C   4      24.127  22.393  28.640  1.00 74.59 LIG-0.39  OA
ATOM     44 HG1  THR C   4      24.729  22.164  29.179  1.00 74.59 LIG 0.21  HD
ENDBRANCH 41 43
ENDBRANCH 39 41
ENDBRANCH 36 39
ENDBRANCH 22 35
ENDBRANCH 19 22
ENDBRANCH 5 18
ENDBRANCH 1 5
BRANCH 3 45
ATOM     45  CA  GLU C   7      31.642  22.931  25.117  1.00 24.11 LIG 0.18  C 
BRANCH 45 46
ATOM     46  C   GLU C   7      31.757  22.506  23.662  1.00 31.12 LIG 0.24  C 
ATOM     47 O    GLU C   7      32.470  23.134  22.881  1.00 26.64 LIG-0.27  OA
ATOM     48  N   THR C   8      31.050  21.443  23.295  1.00 26.11 LIG-0.34  N 
ATOM     49 H    THR C   8      30.531  21.002  23.820  1.00 26.11 LIG 0.16  HD
BRANCH 48 50
ATOM     50  CA  THR C   8      31.110  20.936  21.927  1.00 18.32 LIG 0.20  C 
BRANCH 50 51
ATOM     51  CB  THR C   8      30.690  22.015  20.914  1.00 19.43 LIG 0.15  C 
ATOM     52  CG2 THR C   8      30.095  21.377  19.666  1.00 20.66 LIG 0.04  C 
BRANCH 51 53
ATOM     53 OG1  THR C   8      29.717  22.870  21.521  1.00 16.70 LIG-0.39  OA
ATOM     54 HG1  THR C   8      29.947  23.042  22.310  1.00 16.70 LIG 0.21  HD
ENDBRANCH 51 53
ENDBRANCH 50 51
BRANCH 50 55
ATOM     55  C   THR C   8      32.499  20.462  21.560  1.00 17.75 LIG 0.24  C 
ATOM     56  N   GLN C   9      33.154  19.777  22.489  1.00 18.17 LIG-0.35  N 
ATOM     57 H    GLN C   9      32.854  19.622  23.279  1.00 18.17 LIG 0.16  HD
ATOM     58 O    THR C   8      32.966  20.694  20.451  1.00 18.31 LIG-0.27  OA
BRANCH 56 59
ATOM     59  CA  GLN C   9      34.475  19.225  22.215  1.00 20.01 LIG 0.18  C 
BRANCH 59 60
ATOM     60  C   GLN C   9      34.824  18.202  23.297  1.00 23.96 LIG 0.24  C 
ATOM     61 O    GLN C   9      35.504  17.216  23.022  1.00 22.16 LIG-0.27  OA
ATOM     62  N   LEU C  10      34.353  18.438  24.520  1.00 18.63 LIG-0.34  N 
ATOM     63 H    LEU C  10      33.746  19.023  24.692  1.00 18.63 LIG 0.16  HD
BRANCH 62 64
ATOM     64  CA  LEU C  10      34.830  17.717  25.696  1.00 17.73 LIG 0.18  C 
BRANCH 64 65
ATOM     65  CB  LEU C  10      36.100  18.402  26.235  1.00 25.34 LIG 0.04  C 
BRANCH 65 66
ATOM     66  CG  LEU C  10      36.606  19.707  25.639  1.00 39.39 LIG-0.02  C 
ATOM     67  CD1 LEU C  10      36.722  20.793  26.688  1.00 48.08 LIG 0.01  C 
ATOM     68  CD2 LEU C  10      37.941  19.460  24.966  1.00 37.51 LIG 0.01  C 
ENDBRANCH 65 66
ENDBRANCH 64 65
BRANCH 64 69
ATOM     69  C   LEU C  10      33.796  17.693  26.802  1.00 24.54 LIG 0.20  C 
ATOM     70 O    LEU C  10      33.674  16.710  27.544  1.00 20.83 LIG-0.65  OA
ATOM     71 OXT  LEU C  10      33.024  18.648  26.949  1.00 16.98 LIG-0.65  OA
ENDBRANCH 64 69
ENDBRANCH 62 64
ENDBRANCH 59 60
BRANCH 59 72
ATOM     72  CB  GLN C   9      35.519  20.342  22.151  1.00 28.41 LIG 0.04  C 
BRANCH 72 73
ATOM     73  CG  GLN C   9      35.937  20.693  20.741  1.00 32.25 LIG 0.10  C 
BRANCH 73 74
ATOM     74  CD  GLN C   9      37.000  19.761  20.197  1.00 38.89 LIG 0.21  C 
ATOM     75 OE1  GLN C   9      37.729  19.113  20.954  1.00 37.39 LIG-0.27  OA
ATOM     76  NE2 GLN C   9      37.093  19.684  18.873  1.00 32.46 LIG-0.37  N 
ATOM     77 22HE GLN C   9      37.677  19.168  18.512  1.00 32.46 LIG 0.16  HD
ATOM     78 21HE GLN C   9      36.567  20.152  18.377  1.00 32.46 LIG 0.16  HD
ENDBRANCH 73 74
ENDBRANCH 72 73
ENDBRANCH 59 72
ENDBRANCH 56 59
ENDBRANCH 50 55
ENDBRANCH 48 50
ENDBRANCH 45 46
BRANCH 45 79
ATOM     79  CB  GLU C   7      32.519  22.031  25.990  1.00 23.92 LIG 0.04  C 
BRANCH 79 80
ATOM     80  CG  GLU C   7      33.643  22.772  26.707  1.00 19.46 LIG 0.12  C 
BRANCH 80 81
ATOM     81  CD  GLU C   7      34.678  23.355  25.756  1.00 36.59 LIG 0.17  C 
ATOM     82 OE1  GLU C   7      35.711  23.865  26.235  1.00 43.07 LIG-0.65  OA
ATOM     83 OE2  GLU C   7      34.464  23.294  24.525  1.00 30.47 LIG-0.65  OA
ENDBRANCH 80 81
ENDBRANCH 79 80
ENDBRANCH 45 79
ENDBRANCH 3 45
TORSDOF 33
ENDMDL
MODEL 2
USER: ADFR SOLUTION from run 174
USER: SCORE 19.773023 LL:  -4.891 LR: -17.539 RR:   0.000 FEB:  -7.695
USER: RMSD 9.897414
USER: SEED 173
USER: STATUS no improvement in best in 11 clusters for 5 generations
USER: GENES 35
USER: genes 0 Translation |==|  0.67860 0.63243 0.44190
USER: genes 1 Rotation |==|  0.19058 0.71161 0.43733 0.82488
USER: genes 2 Torsion [N]-C--CA-[N] |==|  0.53369
USER: genes 3 Torsion [C]-CA--CB-[CG] |==|  0.51717
USER: genes 4 Torsion [CA]-CB--CG-[CD] |==|  0.79995
USER: genes 5 Torsion [CB]-CG--CD-[NE] |==|  0.46479
USER: genes 6 Torsion [CG]-CD--NE-[HE] |==|  0.25395
USER: genes 7 Torsion [C]-CA--N-[C] |==|  0.19444
USER: genes 8 Torsion [N]-C--CA-[N] |==|  0.04232
USER: genes 9 Torsion [C]-CA--CB-[CG] |==|  0.91193
USER: genes 10 Torsion [CA]-CB--CG-[CD] |==|  0.63093
USER: genes 11 Torsion [CB]-CG--CD-[NE] |==|  0.23739
USER: genes 12 Torsion [CG]-CD--NE-[HE] |==|  0.17374
USER: genes 13 Torsion [C]-CA--N-[C] |==|  0.76654
USER: genes 14 Torsion [N]-C--CA-[N] |==|  0.49261
USER: genes 15 Torsion [C]-CA--CB-[CG2] |==|  0.20699
USER: genes 16 Torsion [CA]-CB--OG1-[HG1] |==|  0.80903
USER: genes 17 Torsion [C]-N--CA-[CB] |==|  0.37440
USER: genes 18 Torsion [N]-CA--C-[N] |==|  0.94280
USER: genes 19 Torsion [C]-N--CA-[CB] |==|  0.85126
USER: genes 20 Torsion [N]-CA--CB-[CG2] |==|  0.59954
USER: genes 21 Torsion [CA]-CB--OG1-[HG1] |==|  0.44197
USER: genes 22 Torsion [N]-CA--C-[N] |==|  0.35753
USER: genes 23 Torsion [C]-N--CA-[C] |==|  0.63423
USER: genes 24 Torsion [N]-CA--C-[N] |==|  0.36902
USER: genes 25 Torsion [C]-N--CA-[C] |==|  0.49394
USER: genes 26 Torsion [N]-CA--CB-[CG] |==|  0.10908
USER: genes 27 Torsion [CA]-CB--CG-[CD1] |==|  0.27686
USER: genes 28 Torsion [N]-CA--C-[O] |==|  0.61305
USER: genes 29 Torsion [N]-CA--CB-[CG] |==|  0.56233
USER: genes 30 Torsion [CA]-CB--CG-[CD] |==|  0.19021
USER: genes 31 Torsion [CB]-CG--CD-[NE2] |==|  0.54134
USER: genes 32 Torsion [N]-CA--CB-[CG] |==|  0.27967
USER: genes 33 Torsion [CA]-CB--CG-[CD] |==|  0.77332
USER: genes 34 Torsion [CB]-CG--CD-[OE1] |==|  0.42727
ROOT
ATOM      1  C   ARG C   6      28.303  22.108  23.811  1.00 27.90 LIG 0.24  C 
ATOM      2 O    ARG C   6      27.276  21.721  23.258  1.00 25.69 LIG-0.27  OA
ATOM      3  N   GLU C   7      29.485  22.128  23.204  1.00 23.63 LIG-0.35  N 
ATOM      4 H    GLU C   7      30.186  22.503  23.533  1.00 23.63 LIG 0.16  HD
ENDROOT
BRANCH 1 5
ATOM      5  CA  ARG C   6      28.270  22.607  25.256  1.00 28.24 LIG 0.18  C 
BRANCH 5 6
ATOM      6  CB  ARG C   6      29.436  21.989  26.031  1.00 28.37 LIG 0.04  C 
BRANCH 6 7
ATOM      7  CG  ARG C   6      29.416  22.298  27.511  1.00 35.92 LIG 0.02  C 
BRANCH 7 8
ATOM      8  CD  ARG C   6      29.777  23.748  27.761  1.00 41.81 LIG 0.14  C 
BRANCH 8 9
ATOM      9  NE  ARG C   6      29.473  24.130  29.139  1.00 46.88 LIG-0.23  N 
ATOM     10 HE   ARG C   6      30.095  24.042  29.726  1.00 46.88 LIG 0.18  HD
ATOM     11  CZ  ARG C   6      28.300  24.604  29.544  1.00 47.79 LIG 0.67  C 
ATOM     12  NH2 ARG C   6      28.119  24.929  30.817  1.00 52.15 LIG-0.23  N 
ATOM     13  NH1 ARG C   6      27.307  24.753  28.678  1.00 41.40 LIG-0.23  N 
ATOM     14 1HH2 ARG C   6      28.761  24.832  31.381  1.00 52.15 LIG 0.17  HD
ATOM     15 2HH2 ARG C   6      27.359  25.236  31.080  1.00 52.15 LIG 0.17  HD
ATOM     16 2HH1 ARG C   6      26.548  25.060  28.941  1.00 41.40 LIG 0.17  HD
ATOM     17 1HH1 ARG C   6      27.423  24.543  27.852  1.00 41.40 LIG 0.17  HD
ENDBRANCH 8 9
ENDBRANCH 7 8
ENDBRANCH 6 7
ENDBRANCH 5 6
BRANCH 5 18
ATOM     18  N   ARG C   6      27.009  22.280  25.908  1.00 41.74 LIG-0.35  N 
ATOM     19  C   ARG C   5      26.681  21.032  26.229  1.00 53.56 LIG 0.24  C 
ATOM     20 O    ARG C   5      27.406  20.067  25.995  1.00 51.79 LIG-0.27  OA
ATOM     21 H    ARG C   6      26.507  22.961  26.063  1.00 41.74 LIG 0.16  HD
BRANCH 19 22
ATOM     22  CA  ARG C   5      25.338  20.858  26.939  1.00 62.48 LIG 0.18  C 
BRANCH 22 23
ATOM     23  CB  ARG C   5      24.640  19.604  26.405  1.00 65.36 LIG 0.04  C 
BRANCH 23 24
ATOM     24  CG  ARG C   5      24.956  19.314  24.939  1.00 67.86 LIG 0.02  C 
BRANCH 24 25
ATOM     25  CD  ARG C   5      23.699  19.003  24.142  1.00 67.74 LIG 0.14  C 
BRANCH 25 26
ATOM     26  NE  ARG C   5      23.057  20.221  23.661  1.00 69.26 LIG-0.23  N 
ATOM     27 HE   ARG C   5      23.497  20.718  23.114  1.00 69.26 LIG 0.18  HD
ATOM     28  CZ  ARG C   5      21.838  20.613  24.011  1.00 72.53 LIG 0.67  C 
ATOM     29  NH1 ARG C   5      21.337  21.743  23.526  1.00 70.69 LIG-0.23  N 
ATOM     30  NH2 ARG C   5      21.116  19.873  24.845  1.00 74.37 LIG-0.23  N 
ATOM     31 2HH1 ARG C   5      20.547  21.995  23.754  1.00 70.69 LIG 0.17  HD
ATOM     32 1HH1 ARG C   5      21.803  22.222  22.985  1.00 70.69 LIG 0.17  HD
ATOM     33 1HH2 ARG C   5      21.439  19.140  25.158  1.00 74.37 LIG 0.17  HD
ATOM     34 2HH2 ARG C   5      20.327  20.127  25.071  1.00 74.37 LIG 0.17  HD
ENDBRANCH 25 26
ENDBRANCH 24 25
ENDBRANCH 23 24
ENDBRANCH 22 23
BRANCH 22 35
ATOM     35  N   ARG C   5      24.467  22.030  26.844  1.00 62.98 LIG-0.35  N 
ATOM     36  C   THR C   4      24.593  23.048  27.692  1.00 71.37 LIG 0.26  C 
ATOM     37 O    THR C   4      25.464  23.082  28.563  1.00 72.41 LIG-0.27  OA
ATOM     38 H    ARG C   5      23.887  21.997  26.210  1.00 62.98 LIG 0.16  HD
BRANCH 36 39
ATOM     39  CA  THR C   4      23.597  24.202  27.541  1.00 77.23 LIG 0.43  C 
ATOM     40  N   THR C   4      23.808  25.217  28.569  1.00 78.75 LIG 0.62  N 
BRANCH 39 41
ATOM     41  CB  THR C   4      23.720  24.798  26.115  1.00 73.87 LIG 0.16  C 
ATOM     42  CG2 THR C   4      23.085  23.876  25.082  1.00 73.94 LIG 0.04  C 
BRANCH 41 43
ATOM     43 OG1  THR C   4      23.083  26.081  26.064  1.00 74.59 LIG-0.39  OA
ATOM     44 HG1  THR C   4      22.252  25.984  26.140  1.00 74.59 LIG 0.21  HD
ENDBRANCH 41 43
ENDBRANCH 39 41
ENDBRANCH 36 39
ENDBRANCH 22 35
ENDBRANCH 19 22
ENDBRANCH 5 18
ENDBRANCH 1 5
BRANCH 3 45
ATOM     45  CA  GLU C   7      29.689  21.503  21.905  1.00 24.11 LIG 0.18  C 
BRANCH 45 46
ATOM     46  C   GLU C   7      30.436  20.193  22.100  1.00 31.12 LIG 0.24  C 
ATOM     47 O    GLU C   7      30.395  19.315  21.239  1.00 26.64 LIG-0.27  OA
ATOM     48  N   THR C   8      31.114  20.057  23.234  1.00 26.11 LIG-0.34  N 
ATOM     49 H    THR C   8      31.141  20.650  23.856  1.00 26.11 LIG 0.16  HD
BRANCH 48 50
ATOM     50  CA  THR C   8      31.887  18.849  23.508  1.00 18.32 LIG 0.20  C 
BRANCH 50 51
ATOM     51  CB  THR C   8      31.021  17.587  23.356  1.00 19.43 LIG 0.15  C 
ATOM     52  CG2 THR C   8      31.417  16.538  24.385  1.00 20.66 LIG 0.04  C 
BRANCH 51 53
ATOM     53 OG1  THR C   8      29.647  17.940  23.541  1.00 16.70 LIG-0.39  OA
ATOM     54 HG1  THR C   8      29.157  17.355  23.191  1.00 16.70 LIG 0.21  HD
ENDBRANCH 51 53
ENDBRANCH 50 51
BRANCH 50 55
ATOM     55  C   THR C   8      33.076  18.717  22.582  1.00 17.75 LIG 0.24  C 
ATOM     56  N   GLN C   9      34.252  18.500  23.158  1.00 18.17 LIG-0.35  N 
ATOM     57 H    GLN C   9      34.378  18.466  24.007  1.00 18.17 LIG 0.16  HD
ATOM     58 O    THR C   8      32.934  18.790  21.367  1.00 18.31 LIG-0.27  OA
BRANCH 56 59
ATOM     59  CA  GLN C   9      35.451  18.298  22.353  1.00 20.01 LIG 0.18  C 
BRANCH 59 60
ATOM     60  C   GLN C   9      36.194  17.062  22.863  1.00 23.96 LIG 0.24  C 
ATOM     61 O    GLN C   9      36.397  16.914  24.066  1.00 22.16 LIG-0.27  OA
ATOM     62  N   LEU C  10      36.599  16.184  21.947  1.00 18.63 LIG-0.34  N 
ATOM     63 H    LEU C  10      36.614  16.350  21.103  1.00 18.63 LIG 0.16  HD
BRANCH 62 64
ATOM     64  CA  LEU C  10      37.060  14.844  22.296  1.00 17.73 LIG 0.18  C 
BRANCH 64 65
ATOM     65  CB  LEU C  10      35.948  14.106  23.065  1.00 25.34 LIG 0.04  C 
BRANCH 65 66
ATOM     66  CG  LEU C  10      34.486  14.250  22.670  1.00 39.39 LIG-0.02  C 
ATOM     67  CD1 LEU C  10      34.013  13.074  21.842  1.00 48.08 LIG 0.01  C 
ATOM     68  CD2 LEU C  10      33.647  14.402  23.922  1.00 37.51 LIG 0.01  C 
ENDBRANCH 65 66
ENDBRANCH 64 65
BRANCH 64 69
ATOM     69  C   LEU C  10      37.412  14.030  21.068  1.00 24.54 LIG 0.20  C 
ATOM     70 O    LEU C  10      37.110  12.833  20.985  1.00 20.83 LIG-0.65  OA
ATOM     71 OXT  LEU C  10      38.051  14.548  20.146  1.00 16.98 LIG-0.65  OA
ENDBRANCH 64 69
ENDBRANCH 62 64
ENDBRANCH 59 60
BRANCH 59 72
ATOM     72  CB  GLN C   9      36.343  19.540  22.401  1.00 28.41 LIG 0.04  C 
BRANCH 72 73
ATOM     73  CG  GLN C   9      37.289  19.646  21.226  1.00 32.25 LIG 0.10  C 
BRANCH 73 74
ATOM     74  CD  GLN C   9      36.571  19.918  19.921  1.00 38.89 LIG 0.21  C 
ATOM     75 OE1  GLN C   9      35.397  20.303  19.905  1.00 37.39 LIG-0.27  OA
ATOM     76  NE2 GLN C   9      37.277  19.723  18.810  1.00 32.46 LIG-0.37  N 
ATOM     77 22HE GLN C   9      36.918  19.866  18.043  1.00 32.46 LIG 0.16  HD
ATOM     78 21HE GLN C   9      38.092  19.454  18.861  1.00 32.46 LIG 0.16  HD
ENDBRANCH 73 74
ENDBRANCH 72 73
ENDBRANCH 59 72
ENDBRANCH 56 59
ENDBRANCH 50 55
ENDBRANCH 48 50
ENDBRANCH 45 46
BRANCH 45 79
ATOM     79  CB  GLU C   7      30.480  22.415  20.966  1.00 23.92 LIG 0.04  C 
BRANCH 79 80
ATOM     80  CG  GLU C   7      31.957  22.051  20.851  1.00 19.46 LIG 0.12  C 
BRANCH 80 81
ATOM     81  CD  GLU C   7      32.798  22.595  21.997  1.00 36.59 LIG 0.17  C 
ATOM     82 OE1  GLU C   7      33.850  21.999  22.302  1.00 43.07 LIG-0.65  OA
ATOM     83 OE2  GLU C   7      32.411  23.627  22.588  1.00 30.47 LIG-0.65  OA
ENDBRANCH 80 81
ENDBRANCH 79 80
ENDBRANCH 45 79
ENDBRANCH 3 45
TORSDOF 33
ENDMDL
MODEL 3
USER: ADFR SOLUTION from run 174
USER: SCORE 21.105612 LL:  -6.699 LR: -17.134 RR:   0.000 FEB:  -7.290
USER: RMSD 9.716598
USER: SEED 173
USER: STATUS no improvement in best in 11 clusters for 5 generations
USER: GENES 35
USER: genes 0 Translation |==|  0.67792 0.63206 0.43893
USER: genes 1 Rotation |==|  0.19306 0.71881 0.44466 0.82381
USER: genes 2 Torsion [N]-C--CA-[N] |==|  0.48510
USER: genes 3 Torsion [C]-CA--CB-[CG] |==|  0.36211
USER: genes 4 Torsion [CA]-CB--CG-[CD] |==|  0.91945
USER: genes 5 Torsion [CB]-CG--CD-[NE] |==|  0.76606
USER: genes 6 Torsion [CG]-CD--NE-[HE] |==|  0.26358
USER: genes 7 Torsion [C]-CA--N-[C] |==|  0.16366
USER: genes 8 Torsion [N]-C--CA-[N] |==|  0.43669
USER: genes 9 Torsion [C]-CA--CB-[CG] |==|  0.31778
USER: genes 10 Torsion [CA]-CB--CG-[CD] |==|  0.63737
USER: genes 11 Torsion [CB]-CG--CD-[NE] |==|  0.43531
USER: genes 12 Torsion [CG]-CD--NE-[HE] |==|  0.86543
USER: genes 13 Torsion [C]-CA--N-[C] |==|  0.72851
USER: genes 14 Torsion [N]-C--CA-[N] |==|  0.23936
USER: genes 15 Torsion [C]-CA--CB-[CG2] |==|  0.53261
USER: genes 16 Torsion [CA]-CB--OG1-[HG1] |==|  0.24545
USER: genes 17 Torsion [C]-N--CA-[CB] |==|  0.37384
USER: genes 18 Torsion [N]-CA--C-[N] |==|  0.95443
USER: genes 19 Torsion [C]-N--CA-[CB] |==|  0.85521
USER: genes 20 Torsion [N]-CA--CB-[CG2] |==|  0.57553
USER: genes 21 Torsion [CA]-CB--OG1-[HG1] |==|  0.44582
USER: genes 22 Torsion [N]-CA--C-[N] |==|  0.35212
USER: genes 23 Torsion [C]-N--CA-[C] |==|  0.62275
USER: genes 24 Torsion [N]-CA--C-[N] |==|  0.35723
USER: genes 25 Torsion [C]-N--CA-[C] |==|  0.49070
USER: genes 26 Torsion [N]-CA--CB-[CG] |==|  0.10886
USER: genes 27 Torsion [CA]-CB--CG-[CD1] |==|  0.26445
USER: genes 28 Torsion [N]-CA--C-[O] |==|  0.60888
USER: genes 29 Torsion [N]-CA--CB-[CG] |==|  0.56300
USER: genes 30 Torsion [CA]-CB--CG-[CD] |==|  0.18131
USER: genes 31 Torsion [CB]-CG--CD-[NE2] |==|  0.54294
USER: genes 32 Torsion [N]-CA--CB-[CG] |==|  0.26762
USER: genes 33 Torsion [CA]-CB--CG-[CD] |==|  0.78766
USER: genes 34 Torsion [CB]-CG--CD-[OE1] |==|  0.42792
ROOT
ATOM      1  C   ARG C   6      28.281  22.099  23.758  1.00 27.90 LIG 0.24  C 
ATOM      2 O    ARG C   6      27.233  21.727  23.236  1.00 25.69 LIG-0.27  OA
ATOM      3  N   GLU C   7      29.440  22.128  23.108  1.00 23.63 LIG-0.35  N 
ATOM      4 H    GLU C   7      30.154  22.494  23.417  1.00 23.63 LIG 0.16  HD
ENDROOT
BRANCH 1 5
ATOM      5  CA  ARG C   6      28.305  22.570  25.212  1.00 28.24 LIG 0.18  C 
BRANCH 5 6
ATOM      6  CB  ARG C   6      29.193  21.633  26.033  1.00 28.37 LIG 0.04  C 
BRANCH 6 7
ATOM      7  CG  ARG C   6      30.215  22.350  26.885  1.00 35.92 LIG 0.02  C 
BRANCH 7 8
ATOM      8  CD  ARG C   6      30.611  23.668  26.251  1.00 41.81 LIG 0.14  C 
BRANCH 8 9
ATOM      9  NE  ARG C   6      31.663  23.471  25.255  1.00 46.88 LIG-0.23  N 
ATOM     10 HE   ARG C   6      31.426  23.381  24.434  1.00 46.88 LIG 0.18  HD
ATOM     11  CZ  ARG C   6      32.961  23.421  25.536  1.00 47.79 LIG 0.67  C 
ATOM     12  NH2 ARG C   6      33.844  23.243  24.562  1.00 52.15 LIG-0.23  N 
ATOM     13  NH1 ARG C   6      33.377  23.549  26.788  1.00 41.40 LIG-0.23  N 
ATOM     14 1HH2 ARG C   6      33.576  23.159  23.749  1.00 52.15 LIG 0.17  HD
ATOM     15 2HH2 ARG C   6      34.684  23.210  24.743  1.00 52.15 LIG 0.17  HD
ATOM     16 2HH1 ARG C   6      34.217  23.516  26.968  1.00 41.40 LIG 0.17  HD
ATOM     17 1HH1 ARG C   6      32.806  23.664  27.421  1.00 41.40 LIG 0.17  HD
ENDBRANCH 8 9
ENDBRANCH 7 8
ENDBRANCH 6 7
ENDBRANCH 5 6
BRANCH 5 18
ATOM     18  N   ARG C   6      26.966  22.614  25.783  1.00 41.74 LIG-0.35  N 
ATOM     19  C   ARG C   5      26.189  21.537  25.850  1.00 53.56 LIG 0.24  C 
ATOM     20 O    ARG C   5      26.535  20.433  25.433  1.00 51.79 LIG-0.27  OA
ATOM     21 H    ARG C   6      26.730  23.391  26.068  1.00 41.74 LIG 0.16  HD
BRANCH 19 22
ATOM     22  CA  ARG C   5      24.823  21.740  26.508  1.00 62.48 LIG 0.18  C 
BRANCH 22 23
ATOM     23  CB  ARG C   5      24.992  21.778  28.029  1.00 65.36 LIG 0.04  C 
BRANCH 23 24
ATOM     24  CG  ARG C   5      24.651  23.135  28.642  1.00 67.86 LIG 0.02  C 
BRANCH 24 25
ATOM     25  CD  ARG C   5      25.743  23.620  29.581  1.00 67.74 LIG 0.14  C 
BRANCH 25 26
ATOM     26  NE  ARG C   5      25.713  25.070  29.732  1.00 69.26 LIG-0.23  N 
ATOM     27 HE   ARG C   5      25.667  25.548  29.019  1.00 69.26 LIG 0.18  HD
ATOM     28  CZ  ARG C   5      25.752  25.701  30.900  1.00 72.53 LIG 0.67  C 
ATOM     29  NH1 ARG C   5      25.727  27.028  30.939  1.00 70.69 LIG-0.23  N 
ATOM     30  NH2 ARG C   5      25.812  25.006  32.029  1.00 74.37 LIG-0.23  N 
ATOM     31 2HH1 ARG C   5      25.751  27.436  31.696  1.00 70.69 LIG 0.17  HD
ATOM     32 1HH1 ARG C   5      25.686  27.479  30.209  1.00 70.69 LIG 0.17  HD
ATOM     33 1HH2 ARG C   5      25.827  24.147  32.005  1.00 74.37 LIG 0.17  HD
ATOM     34 2HH2 ARG C   5      25.837  25.415  32.785  1.00 74.37 LIG 0.17  HD
ENDBRANCH 25 26
ENDBRANCH 24 25
ENDBRANCH 23 24
ENDBRANCH 22 23
BRANCH 22 35
ATOM     35  N   ARG C   5      23.826  20.745  26.110  1.00 62.98 LIG-0.35  N 
ATOM     36  C   THR C   4      22.939  21.008  25.153  1.00 71.37 LIG 0.26  C 
ATOM     37 O    THR C   4      22.934  22.070  24.528  1.00 72.41 LIG-0.27  OA
ATOM     38 H    ARG C   5      23.869  20.001  26.539  1.00 62.98 LIG 0.16  HD
BRANCH 36 39
ATOM     39  CA  THR C   4      21.905  19.920  24.850  1.00 77.23 LIG 0.43  C 
ATOM     40  N   THR C   4      20.748  20.031  25.734  1.00 78.75 LIG 0.62  N 
BRANCH 39 41
ATOM     41  CB  THR C   4      21.494  20.011  23.357  1.00 73.87 LIG 0.16  C 
ATOM     42  CG2 THR C   4      20.268  19.150  23.076  1.00 73.94 LIG 0.04  C 
BRANCH 41 43
ATOM     43 OG1  THR C   4      21.208  21.372  23.009  1.00 74.59 LIG-0.39  OA
ATOM     44 HG1  THR C   4      21.915  21.752  22.760  1.00 74.59 LIG 0.21  HD
ENDBRANCH 41 43
ENDBRANCH 39 41
ENDBRANCH 36 39
ENDBRANCH 22 35
ENDBRANCH 19 22
ENDBRANCH 5 18
ENDBRANCH 1 5
BRANCH 3 45
ATOM     45  CA  GLU C   7      29.593  21.528  21.790  1.00 24.11 LIG 0.18  C 
BRANCH 45 46
ATOM     46  C   GLU C   7      30.346  20.215  21.930  1.00 31.12 LIG 0.24  C 
ATOM     47 O    GLU C   7      30.333  19.386  21.021  1.00 26.64 LIG-0.27  OA
ATOM     48  N   THR C   8      30.998  20.021  23.071  1.00 26.11 LIG-0.34  N 
ATOM     49 H    THR C   8      31.005  20.579  23.725  1.00 26.11 LIG 0.16  HD
BRANCH 48 50
ATOM     50  CA  THR C   8      31.775  18.805  23.296  1.00 18.32 LIG 0.20  C 
BRANCH 50 51
ATOM     51  CB  THR C   8      30.933  17.548  23.019  1.00 19.43 LIG 0.15  C 
ATOM     52  CG2 THR C   8      31.439  16.371  23.843  1.00 20.66 LIG 0.04  C 
BRANCH 51 53
ATOM     53 OG1  THR C   8      29.569  17.815  23.361  1.00 16.70 LIG-0.39  OA
ATOM     54 HG1  THR C   8      29.070  17.259  22.978  1.00 16.70 LIG 0.21  HD
ENDBRANCH 51 53
ENDBRANCH 50 51
BRANCH 50 55
ATOM     55  C   THR C   8      33.005  18.749  22.418  1.00 17.75 LIG 0.24  C 
ATOM     56  N   GLN C   9      34.162  18.545  23.034  1.00 18.17 LIG-0.35  N 
ATOM     57 H    GLN C   9      34.253  18.480  23.887  1.00 18.17 LIG 0.16  HD
ATOM     58 O    THR C   8      32.912  18.869  21.201  1.00 18.31 LIG-0.27  OA
BRANCH 56 59
ATOM     59  CA  GLN C   9      35.400  18.415  22.275  1.00 20.01 LIG 0.18  C 
BRANCH 59 60
ATOM     60  C   GLN C   9      36.210  17.244  22.834  1.00 23.96 LIG 0.24  C 
ATOM     61 O    GLN C   9      36.447  17.174  24.039  1.00 22.16 LIG-0.27  OA
ATOM     62  N   LEU C  10      36.634  16.334  21.959  1.00 18.63 LIG-0.34  N 
ATOM     63 H    LEU C  10      36.622  16.453  21.107  1.00 18.63 LIG 0.16  HD
BRANCH 62 64
ATOM     64  CA  LEU C  10      37.163  15.038  22.371  1.00 17.73 LIG 0.18  C 
BRANCH 64 65
ATOM     65  CB  LEU C  10      36.115  14.309  23.232  1.00 25.34 LIG 0.04  C 
BRANCH 65 66
ATOM     66  CG  LEU C  10      34.633  14.372  22.894  1.00 39.39 LIG-0.02  C 
ATOM     67  CD1 LEU C  10      34.197  13.181  22.068  1.00 48.08 LIG 0.01  C 
ATOM     68  CD2 LEU C  10      33.835  14.461  24.179  1.00 37.51 LIG 0.01  C 
ENDBRANCH 65 66
ENDBRANCH 64 65
BRANCH 64 69
ATOM     69  C   LEU C  10      37.498  14.161  21.182  1.00 24.54 LIG 0.20  C 
ATOM     70 O    LEU C  10      37.267  12.946  21.198  1.00 20.83 LIG-0.65  OA
ATOM     71 OXT  LEU C  10      38.052  14.649  20.191  1.00 16.98 LIG-0.65  OA
ENDBRANCH 64 69
ENDBRANCH 62 64
ENDBRANCH 59 60
BRANCH 59 72
ATOM     72  CB  GLN C   9      36.200  19.718  22.328  1.00 28.41 LIG 0.04  C 
BRANCH 72 73
ATOM     73  CG  GLN C   9      37.172  19.873  21.181  1.00 32.25 LIG 0.10  C 
BRANCH 73 74
ATOM     74  CD  GLN C   9      36.479  19.996  19.840  1.00 38.89 LIG 0.21  C 
ATOM     75 OE1  GLN C   9      35.273  20.253  19.765  1.00 37.39 LIG-0.27  OA
ATOM     76  NE2 GLN C   9      37.242  19.816  18.765  1.00 32.46 LIG-0.37  N 
ATOM     77 22HE GLN C   9      36.899  19.878  17.980  1.00 32.46 LIG 0.16  HD
ATOM     78 21HE GLN C   9      38.079  19.638  18.857  1.00 32.46 LIG 0.16  HD
ENDBRANCH 73 74
ENDBRANCH 72 73
ENDBRANCH 59 72
ENDBRANCH 56 59
ENDBRANCH 50 55
ENDBRANCH 48 50
ENDBRANCH 45 46
BRANCH 45 79
ATOM     79  CB  GLU C   7      30.348  22.458  20.838  1.00 23.92 LIG 0.04  C 
BRANCH 79 80
ATOM     80  CG  GLU C   7      31.840  22.161  20.739  1.00 19.46 LIG 0.12  C 
BRANCH 80 81
ATOM     81  CD  GLU C   7      32.630  22.657  21.942  1.00 36.59 LIG 0.17  C 
ATOM     82 OE1  GLU C   7      33.700  22.086  22.232  1.00 43.07 LIG-0.65  OA
ATOM     83 OE2  GLU C   7      32.184  23.627  22.594  1.00 30.47 LIG-0.65  OA
ENDBRANCH 80 81
ENDBRANCH 79 80
ENDBRANCH 45 79
ENDBRANCH 3 45
TORSDOF 33
ENDMDL
MODEL 4
USER: ADFR SOLUTION from run 137
USER: SCORE 19.093637 LL:  -6.546 LR: -17.045 RR:   0.000 FEB:  -7.202
USER: RMSD 9.208870
USER: SEED 136
USER: STATUS no improvement in best in 1 clusters for 5 generations
USER: GENES 35
USER: genes 0 Translation |==|  0.65501 0.62199 0.42244
USER: genes 1 Rotation |==|  0.19659 0.63366 0.42553 0.86679
USER: genes 2 Torsion [N]-C--CA-[N] |==|  0.42617
USER: genes 3 Torsion [C]-CA--CB-[CG] |==|  0.14410
USER: genes 4 Torsion [CA]-CB--CG-[CD] |==|  0.26562
USER: genes 5 Torsion [CB]-CG--CD-[NE] |==|  0.65972
USER: genes 6 Torsion [CG]-CD--NE-[HE] |==|  0.74154
USER: genes 7 Torsion [C]-CA--N-[C] |==|  0.50871
USER: genes 8 Torsion [N]-C--CA-[N] |==|  0.12533
USER: genes 9 Torsion [C]-CA--CB-[CG] |==|  0.25605
USER: genes 10 Torsion [CA]-CB--CG-[CD] |==|  0.59337
USER: genes 11 Torsion [CB]-CG--CD-[NE] |==|  0.30527
USER: genes 12 Torsion [CG]-CD--NE-[HE] |==|  0.22230
USER: genes 13 Torsion [C]-CA--N-[C] |==|  0.21333
USER: genes 14 Torsion [N]-C--CA-[N] |==|  0.51001
USER: genes 15 Torsion [C]-CA--CB-[CG2] |==|  0.90145
USER: genes 16 Torsion [CA]-CB--OG1-[HG1] |==|  0.94467
USER: genes 17 Torsion [C]-N--CA-[CB] |==|  0.48889
USER: genes 18 Torsion [N]-CA--C-[N] |==|  0.88213
USER: genes 19 Torsion [C]-N--CA-[CB] |==|  0.32120
USER: genes 20 Torsion [N]-CA--CB-[CG2] |==|  0.61976
USER: genes 21 Torsion [CA]-CB--OG1-[HG1] |==|  0.34170
USER: genes 22 Torsion [N]-CA--C-[N] |==|  0.27651
USER: genes 23 Torsion [C]-N--CA-[C] |==|  0.59252
USER: genes 24 Torsion [N]-CA--C-[N] |==|  0.48618
USER: genes 25 Torsion [C]-N--CA-[C] |==|  0.17269
USER: genes 26 Torsion [N]-CA--CB-[CG] |==|  0.75235
USER: genes 27 Torsion [CA]-CB--CG-[CD1] |==|  0.46864
USER: genes 28 Torsion [N]-CA--C-[O] |==|  0.00837
USER: genes 29 Torsion [N]-CA--CB-[CG] |==|  0.20438
USER: genes 30 Torsion [CA]-CB--CG-[CD] |==|  0.76148
USER: genes 31 Torsion [CB]-CG--CD-[NE2] |==|  0.67739
USER: genes 32 Torsion [N]-CA--CB-[CG] |==|  0.15652
USER: genes 33 Torsion [CA]-CB--CG-[CD] |==|  0.49927
USER: genes 34 Torsion [CB]-CG--CD-[OE1] |==|  0.80982
ROOT
ATOM      1  C   ARG C   6      27.560  21.873  23.461  1.00 27.90 LIG 0.24  C 
ATOM      2 O    ARG C   6      26.829  21.375  22.608  1.00 25.69 LIG-0.27  OA
ATOM      3  N   GLU C   7      28.845  22.135  23.246  1.00 23.63 LIG-0.35  N 
ATOM      4 H    GLU C   7      29.338  22.588  23.785  1.00 23.63 LIG 0.16  HD
ENDROOT
BRANCH 1 5
ATOM      5  CA  ARG C   6      27.013  22.234  24.842  1.00 28.24 LIG 0.18  C 
BRANCH 5 6
ATOM      6  CB  ARG C   6      27.301  21.090  25.816  1.00 28.37 LIG 0.04  C 
BRANCH 6 7
ATOM      7  CG  ARG C   6      28.748  20.654  25.836  1.00 35.92 LIG 0.02  C 
BRANCH 7 8
ATOM      8  CD  ARG C   6      29.499  21.340  26.959  1.00 41.81 LIG 0.14  C 
BRANCH 8 9
ATOM      9  NE  ARG C   6      30.641  22.090  26.440  1.00 46.88 LIG-0.23  N 
ATOM     10 HE   ARG C   6      31.404  21.694  26.415  1.00 46.88 LIG 0.18  HD
ATOM     11  CZ  ARG C   6      30.579  23.344  26.003  1.00 47.79 LIG 0.67  C 
ATOM     12  NH2 ARG C   6      31.671  23.941  25.544  1.00 52.15 LIG-0.23  N 
ATOM     13  NH1 ARG C   6      29.427  24.000  26.026  1.00 41.40 LIG-0.23  N 
ATOM     14 1HH2 ARG C   6      32.419  23.518  25.529  1.00 52.15 LIG 0.17  HD
ATOM     15 2HH2 ARG C   6      31.630  24.753  25.261  1.00 52.15 LIG 0.17  HD
ATOM     16 2HH1 ARG C   6      29.388  24.811  25.743  1.00 41.40 LIG 0.17  HD
ATOM     17 1HH1 ARG C   6      28.719  23.614  26.323  1.00 41.40 LIG 0.17  HD
ENDBRANCH 8 9
ENDBRANCH 7 8
ENDBRANCH 6 7
ENDBRANCH 5 6
BRANCH 5 18
ATOM     18  N   ARG C   6      25.582  22.503  24.798  1.00 41.74 LIG-0.35  N 
ATOM     19  C   ARG C   5      24.903  22.897  25.871  1.00 53.56 LIG 0.24  C 
ATOM     20 O    ARG C   5      25.424  23.056  26.974  1.00 51.79 LIG-0.27  OA
ATOM     21 H    ARG C   6      25.225  22.385  24.025  1.00 41.74 LIG 0.16  HD
BRANCH 19 22
ATOM     22  CA  ARG C   5      23.414  23.170  25.655  1.00 62.48 LIG 0.18  C 
BRANCH 22 23
ATOM     23  CB  ARG C   5      22.732  23.369  27.011  1.00 65.36 LIG 0.04  C 
BRANCH 23 24
ATOM     24  CG  ARG C   5      22.678  24.831  27.452  1.00 67.86 LIG 0.02  C 
BRANCH 24 25
ATOM     25  CD  ARG C   5      22.794  24.969  28.962  1.00 67.74 LIG 0.14  C 
BRANCH 25 26
ATOM     26  NE  ARG C   5      24.073  25.555  29.348  1.00 69.26 LIG-0.23  N 
ATOM     27 HE   ARG C   5      24.159  26.408  29.288  1.00 69.26 LIG 0.18  HD
ATOM     28  CZ  ARG C   5      25.114  24.856  29.785  1.00 72.53 LIG 0.67  C 
ATOM     29  NH1 ARG C   5      26.242  25.476  30.107  1.00 70.69 LIG-0.23  N 
ATOM     30  NH2 ARG C   5      25.026  23.537  29.904  1.00 74.37 LIG-0.23  N 
ATOM     31 2HH1 ARG C   5      26.916  25.022  30.391  1.00 70.69 LIG 0.17  HD
ATOM     32 1HH1 ARG C   5      26.300  26.330  30.032  1.00 70.69 LIG 0.17  HD
ATOM     33 1HH2 ARG C   5      24.294  23.135  29.697  1.00 74.37 LIG 0.17  HD
ATOM     34 2HH2 ARG C   5      25.700  23.085  30.187  1.00 74.37 LIG 0.17  HD
ENDBRANCH 25 26
ENDBRANCH 24 25
ENDBRANCH 23 24
ENDBRANCH 22 23
BRANCH 22 35
ATOM     35  N   ARG C   5      22.736  22.140  24.867  1.00 62.98 LIG-0.35  N 
ATOM     36  C   THR C   4      22.405  20.970  25.408  1.00 71.37 LIG 0.26  C 
ATOM     37 O    THR C   4      22.608  20.707  26.595  1.00 72.41 LIG-0.27  OA
ATOM     38 H    ARG C   5      22.578  22.358  24.050  1.00 62.98 LIG 0.16  HD
BRANCH 36 39
ATOM     39  CA  THR C   4      21.748  19.941  24.484  1.00 77.23 LIG 0.43  C 
ATOM     40  N   THR C   4      21.361  18.741  25.221  1.00 78.75 LIG 0.62  N 
BRANCH 39 41
ATOM     41  CB  THR C   4      20.531  20.595  23.778  1.00 73.87 LIG 0.16  C 
ATOM     42  CG2 THR C   4      19.825  21.575  24.705  1.00 73.94 LIG 0.04  C 
BRANCH 41 43
ATOM     43 OG1  THR C   4      20.962  21.284  22.597  1.00 74.59 LIG-0.39  OA
ATOM     44 HG1  THR C   4      21.786  21.440  22.648  1.00 74.59 LIG 0.21  HD
ENDBRANCH 41 43
ENDBRANCH 39 41
ENDBRANCH 36 39
ENDBRANCH 22 35
ENDBRANCH 19 22
ENDBRANCH 5 18
ENDBRANCH 1 5
BRANCH 3 45
ATOM     45  CA  GLU C   7      29.533  21.665  22.052  1.00 24.11 LIG 0.18  C 
BRANCH 45 46
ATOM     46  C   GLU C   7      29.532  20.145  22.049  1.00 31.12 LIG 0.24  C 
ATOM     47 O    GLU C   7      29.299  19.521  21.015  1.00 26.64 LIG-0.27  OA
ATOM     48  N   THR C   8      29.788  19.547  23.207  1.00 26.11 LIG-0.34  N 
ATOM     49 H    THR C   8      29.936  19.963  23.944  1.00 26.11 LIG 0.16  HD
BRANCH 48 50
ATOM     50  CA  THR C   8      29.839  18.091  23.307  1.00 18.32 LIG 0.20  C 
BRANCH 50 51
ATOM     51  CB  THR C   8      31.250  17.607  23.684  1.00 19.43 LIG 0.15  C 
ATOM     52  CG2 THR C   8      31.642  16.396  22.849  1.00 20.66 LIG 0.04  C 
BRANCH 51 53
ATOM     53 OG1  THR C   8      32.183  18.667  23.453  1.00 16.70 LIG-0.39  OA
ATOM     54 HG1  THR C   8      32.595  18.837  24.164  1.00 16.70 LIG 0.21  HD
ENDBRANCH 51 53
ENDBRANCH 50 51
BRANCH 50 55
ATOM     55  C   THR C   8      28.869  17.561  24.340  1.00 17.75 LIG 0.24  C 
ATOM     56  N   GLN C   9      27.719  17.085  23.881  1.00 18.17 LIG-0.35  N 
ATOM     57 H    GLN C   9      27.485  17.093  23.054  1.00 18.17 LIG 0.16  HD
ATOM     58 O    THR C   8      29.160  17.564  25.531  1.00 18.31 LIG-0.27  OA
BRANCH 56 59
ATOM     59  CA  GLN C   9      26.740  16.497  24.788  1.00 20.01 LIG 0.18  C 
BRANCH 59 60
ATOM     60  C   GLN C   9      26.003  15.368  24.064  1.00 23.96 LIG 0.24  C 
ATOM     61 O    GLN C   9      26.213  15.156  22.872  1.00 22.16 LIG-0.27  OA
ATOM     62  N   LEU C  10      25.141  14.655  24.786  1.00 18.63 LIG-0.34  N 
ATOM     63 H    LEU C  10      24.861  14.892  25.564  1.00 18.63 LIG 0.16  HD
BRANCH 62 64
ATOM     64  CA  LEU C  10      24.586  13.389  24.317  1.00 17.73 LIG 0.18  C 
BRANCH 64 65
ATOM     65  CB  LEU C  10      23.860  13.615  22.978  1.00 25.34 LIG 0.04  C 
BRANCH 65 66
ATOM     66  CG  LEU C  10      22.387  13.997  22.933  1.00 39.39 LIG-0.02  C 
ATOM     67  CD1 LEU C  10      21.965  14.430  21.545  1.00 48.08 LIG 0.01  C 
ATOM     68  CD2 LEU C  10      21.557  12.823  23.410  1.00 37.51 LIG 0.01  C 
ENDBRANCH 65 66
ENDBRANCH 64 65
BRANCH 64 69
ATOM     69  C   LEU C  10      25.661  12.344  24.106  1.00 24.54 LIG 0.20  C 
ATOM     70 O    LEU C  10      26.846  12.580  24.377  1.00 20.83 LIG-0.65  OA
ATOM     71 OXT  LEU C  10      25.371  11.248  23.615  1.00 16.98 LIG-0.65  OA
ENDBRANCH 64 69
ENDBRANCH 62 64
ENDBRANCH 59 60
BRANCH 59 72
ATOM     72  CB  GLN C   9      25.764  17.565  25.288  1.00 28.41 LIG 0.04  C 
BRANCH 72 73
ATOM     73  CG  GLN C   9      24.766  18.003  24.240  1.00 32.25 LIG 0.10  C 
BRANCH 73 74
ATOM     74  CD  GLN C   9      25.299  19.106  23.350  1.00 38.89 LIG 0.21  C 
ATOM     75 OE1  GLN C   9      26.268  18.916  22.607  1.00 37.39 LIG-0.27  OA
ATOM     76  NE2 GLN C   9      24.664  20.273  23.416  1.00 32.46 LIG-0.37  N 
ATOM     77 22HE GLN C   9      24.924  20.932  22.929  1.00 32.46 LIG 0.16  HD
ATOM     78 21HE GLN C   9      23.993  20.367  23.946  1.00 32.46 LIG 0.16  HD
ENDBRANCH 73 74
ENDBRANCH 72 73
ENDBRANCH 59 72
ENDBRANCH 56 59
ENDBRANCH 50 55
ENDBRANCH 48 50
ENDBRANCH 45 46
BRANCH 45 79
ATOM     79  CB  GLU C   7      30.971  22.182  21.997  1.00 23.92 LIG 0.04  C 
BRANCH 79 80
ATOM     80  CG  GLU C   7      31.804  21.821  23.222  1.00 19.46 LIG 0.12  C 
BRANCH 80 81
ATOM     81  CD  GLU C   7      33.234  22.338  23.148  1.00 36.59 LIG 0.17  C 
ATOM     82 OE1  GLU C   7      34.008  21.837  22.307  1.00 43.07 LIG-0.65  OA
ATOM     83 OE2  GLU C   7      33.582  23.255  23.924  1.00 30.47 LIG-0.65  OA
ENDBRANCH 80 81
ENDBRANCH 79 80
ENDBRANCH 45 79
ENDBRANCH 3 45
TORSDOF 33
ENDMDL
MODEL 5
USER: ADFR SOLUTION from run 180
USER: SCORE 21.168035 LL:  -4.986 LR: -16.757 RR:   0.000 FEB:  -6.913
USER: RMSD 12.678656
USER: SEED 179
USER: STATUS no improvement in best in 2 clusters for 5 generations
USER: GENES 35
USER: genes 0 Translation |==|  0.80228 0.66591 0.38958
USER: genes 1 Rotation |==|  0.47951 0.16440 0.86886 0.52988
USER: genes 2 Torsion [N]-C--CA-[N] |==|  0.88182
USER: genes 3 Torsion [C]-CA--CB-[CG] |==|  0.05083
USER: genes 4 Torsion [CA]-CB--CG-[CD] |==|  0.42917
USER: genes 5 Torsion [CB]-CG--CD-[NE] |==|  0.57514
USER: genes 6 Torsion [CG]-CD--NE-[HE] |==|  0.02787
USER: genes 7 Torsion [C]-CA--N-[C] |==|  0.78049
USER: genes 8 Torsion [N]-C--CA-[N] |==|  0.38827
USER: genes 9 Torsion [C]-CA--CB-[CG] |==|  0.50762
USER: genes 10 Torsion [CA]-CB--CG-[CD] |==|  0.47825
USER: genes 11 Torsion [CB]-CG--CD-[NE] |==|  0.69669
USER: genes 12 Torsion [CG]-CD--NE-[HE] |==|  0.30168
USER: genes 13 Torsion [C]-CA--N-[C] |==|  0.68271
USER: genes 14 Torsion [N]-C--CA-[N] |==|  0.74744
USER: genes 15 Torsion [C]-CA--CB-[CG2] |==|  0.29145
USER: genes 16 Torsion [CA]-CB--OG1-[HG1] |==|  0.45940
USER: genes 17 Torsion [C]-N--CA-[CB] |==|  0.17212
USER: genes 18 Torsion [N]-CA--C-[N] |==|  0.10364
USER: genes 19 Torsion [C]-N--CA-[CB] |==|  0.85556
USER: genes 20 Torsion [N]-CA--CB-[CG2] |==|  0.54215
USER: genes 21 Torsion [CA]-CB--OG1-[HG1] |==|  0.54917
USER: genes 22 Torsion [N]-CA--C-[N] |==|  0.38320
USER: genes 23 Torsion [C]-N--CA-[C] |==|  0.61425
USER: genes 24 Torsion [N]-CA--C-[N] |==|  0.40910
USER: genes 25 Torsion [C]-N--CA-[C] |==|  0.62534
USER: genes 26 Torsion [N]-CA--CB-[CG] |==|  0.76576
USER: genes 27 Torsion [CA]-CB--CG-[CD1] |==|  0.63867
USER: genes 28 Torsion [N]-CA--C-[O] |==|  0.18406
USER: genes 29 Torsion [N]-CA--CB-[CG] |==|  0.70747
USER: genes 30 Torsion [CA]-CB--CG-[CD] |==|  0.77992
USER: genes 31 Torsion [CB]-CG--CD-[NE2] |==|  0.46806
USER: genes 32 Torsion [N]-CA--CB-[CG] |==|  0.22611
USER: genes 33 Torsion [CA]-CB--CG-[CD] |==|  0.75699
USER: genes 34 Torsion [CB]-CG--CD-[OE1] |==|  0.30863
ROOT
ATOM      1  C   ARG C   6      32.199  22.861  22.869  1.00 27.90 LIG 0.24  C 
ATOM      2 O    ARG C   6      32.444  23.679  21.986  1.00 25.69 LIG-0.27  OA
ATOM      3  N   GLU C   7      31.128  22.075  22.847  1.00 23.63 LIG-0.35  N 
ATOM      4 H    GLU C   7      31.002  21.420  23.390  1.00 23.63 LIG 0.16  HD
ENDROOT
BRANCH 1 5
ATOM      5  CA  ARG C   6      33.141  22.694  24.061  1.00 28.24 LIG 0.18  C 
BRANCH 5 6
ATOM      6  CB  ARG C   6      34.029  21.468  23.837  1.00 28.37 LIG 0.04  C 
BRANCH 6 7
ATOM      7  CG  ARG C   6      34.088  21.012  22.396  1.00 35.92 LIG 0.02  C 
BRANCH 7 8
ATOM      8  CD  ARG C   6      35.378  20.265  22.122  1.00 41.81 LIG 0.14  C 
BRANCH 8 9
ATOM      9  NE  ARG C   6      35.755  20.377  20.715  1.00 46.88 LIG-0.23  N 
ATOM     10 HE   ARG C   6      35.320  20.934  20.226  1.00 46.88 LIG 0.18  HD
ATOM     11  CZ  ARG C   6      36.727  19.675  20.141  1.00 47.79 LIG 0.67  C 
ATOM     12  NH2 ARG C   6      37.001  19.848  18.855  1.00 52.15 LIG-0.23  N 
ATOM     13  NH1 ARG C   6      37.424  18.799  20.852  1.00 41.40 LIG-0.23  N 
ATOM     14 1HH2 ARG C   6      36.550  20.415  18.392  1.00 52.15 LIG 0.17  HD
ATOM     15 2HH2 ARG C   6      37.630  19.394  18.484  1.00 52.15 LIG 0.17  HD
ATOM     16 2HH1 ARG C   6      38.052  18.345  20.479  1.00 41.40 LIG 0.17  HD
ATOM     17 1HH1 ARG C   6      37.248  18.685  21.686  1.00 41.40 LIG 0.17  HD
ENDBRANCH 8 9
ENDBRANCH 7 8
ENDBRANCH 6 7
ENDBRANCH 5 6
BRANCH 5 18
ATOM     18  N   ARG C   6      32.407  22.554  25.311  1.00 41.74 LIG-0.35  N 
ATOM     19  C   ARG C   5      31.887  23.599  25.947  1.00 53.56 LIG 0.24  C 
ATOM     20 O    ARG C   5      31.992  24.754  25.537  1.00 51.79 LIG-0.27  OA
ATOM     21 H    ARG C   6      32.342  21.744  25.593  1.00 41.74 LIG 0.16  HD
BRANCH 19 22
ATOM     22  CA  ARG C   5      31.116  23.284  27.229  1.00 62.48 LIG 0.18  C 
BRANCH 22 23
ATOM     23  CB  ARG C   5      29.623  23.170  26.910  1.00 65.36 LIG 0.04  C 
BRANCH 23 24
ATOM     24  CG  ARG C   5      28.758  22.921  28.144  1.00 67.86 LIG 0.02  C 
BRANCH 24 25
ATOM     25  CD  ARG C   5      27.275  23.003  27.820  1.00 67.74 LIG 0.14  C 
BRANCH 25 26
ATOM     26  NE  ARG C   5      26.669  24.199  28.394  1.00 69.26 LIG-0.23  N 
ATOM     27 HE   ARG C   5      26.439  24.831  27.858  1.00 69.26 LIG 0.18  HD
ATOM     28  CZ  ARG C   5      26.448  24.376  29.692  1.00 72.53 LIG 0.67  C 
ATOM     29  NH1 ARG C   5      25.897  25.503  30.125  1.00 70.69 LIG-0.23  N 
ATOM     30  NH2 ARG C   5      26.777  23.425  30.557  1.00 74.37 LIG-0.23  N 
ATOM     31 2HH1 ARG C   5      25.754  25.616  30.965  1.00 70.69 LIG 0.17  HD
ATOM     32 1HH1 ARG C   5      25.682  26.119  29.565  1.00 70.69 LIG 0.17  HD
ATOM     33 1HH2 ARG C   5      27.133  22.694  30.278  1.00 74.37 LIG 0.17  HD
ATOM     34 2HH2 ARG C   5      26.634  23.539  31.397  1.00 74.37 LIG 0.17  HD
ENDBRANCH 25 26
ENDBRANCH 24 25
ENDBRANCH 23 24
ENDBRANCH 22 23
BRANCH 22 35
ATOM     35  N   ARG C   5      31.355  24.243  28.309  1.00 62.98 LIG-0.35  N 
ATOM     36  C   THR C   4      31.972  23.874  29.429  1.00 71.37 LIG 0.26  C 
ATOM     37 O    THR C   4      32.410  22.735  29.601  1.00 72.41 LIG-0.27  OA
ATOM     38 H    ARG C   5      31.068  25.038  28.154  1.00 62.98 LIG 0.16  HD
BRANCH 36 39
ATOM     39  CA  THR C   4      32.124  24.939  30.519  1.00 77.23 LIG 0.43  C 
ATOM     40  N   THR C   4      33.381  25.668  30.372  1.00 78.75 LIG 0.62  N 
BRANCH 39 41
ATOM     41  CB  THR C   4      30.902  25.893  30.472  1.00 73.87 LIG 0.16  C 
ATOM     42  CG2 THR C   4      29.944  25.608  31.622  1.00 73.94 LIG 0.04  C 
BRANCH 41 43
ATOM     43 OG1  THR C   4      31.341  27.256  30.546  1.00 74.59 LIG-0.39  OA
ATOM     44 HG1  THR C   4      30.712  27.765  30.323  1.00 74.59 LIG 0.21  HD
ENDBRANCH 41 43
ENDBRANCH 39 41
ENDBRANCH 36 39
ENDBRANCH 22 35
ENDBRANCH 19 22
ENDBRANCH 5 18
ENDBRANCH 1 5
BRANCH 3 45
ATOM     45  CA  GLU C   7      30.058  22.267  21.878  1.00 24.11 LIG 0.18  C 
BRANCH 45 46
ATOM     46  C   GLU C   7      28.949  21.266  22.163  1.00 31.12 LIG 0.24  C 
ATOM     47 O    GLU C   7      28.326  20.743  21.240  1.00 26.64 LIG-0.27  OA
ATOM     48  N   THR C   8      28.698  21.003  23.440  1.00 26.11 LIG-0.34  N 
ATOM     49 H    THR C   8      29.108  21.371  24.100  1.00 26.11 LIG 0.16  HD
BRANCH 48 50
ATOM     50  CA  THR C   8      27.672  20.037  23.822  1.00 18.32 LIG 0.20  C 
BRANCH 50 51
ATOM     51  CB  THR C   8      26.331  20.347  23.133  1.00 19.43 LIG 0.15  C 
ATOM     52  CG2 THR C   8      25.195  19.588  23.805  1.00 20.66 LIG 0.04  C 
BRANCH 51 53
ATOM     53 OG1  THR C   8      26.078  21.753  23.218  1.00 16.70 LIG-0.39  OA
ATOM     54 HG1  THR C   8      25.265  21.901  23.071  1.00 16.70 LIG 0.21  HD
ENDBRANCH 51 53
ENDBRANCH 50 51
BRANCH 50 55
ATOM     55  C   THR C   8      28.067  18.621  23.463  1.00 17.75 LIG 0.24  C 
ATOM     56  N   GLN C   9      27.804  17.687  24.368  1.00 18.17 LIG-0.35  N 
ATOM     57 H    GLN C   9      27.462  17.843  25.142  1.00 18.17 LIG 0.16  HD
ATOM     58 O    THR C   8      28.584  18.371  22.380  1.00 18.31 LIG-0.27  OA
BRANCH 56 59
ATOM     59  CA  GLN C   9      28.090  16.284  24.097  1.00 20.01 LIG 0.18  C 
BRANCH 59 60
ATOM     60  C   GLN C   9      26.938  15.427  24.625  1.00 23.96 LIG 0.24  C 
ATOM     61 O    GLN C   9      26.321  15.770  25.631  1.00 22.16 LIG-0.27  OA
ATOM     62  N   LEU C  10      26.658  14.315  23.948  1.00 18.63 LIG-0.34  N 
ATOM     63 H    LEU C  10      27.178  13.977  23.351  1.00 18.63 LIG 0.16  HD
BRANCH 62 64
ATOM     64  CA  LEU C  10      25.428  13.558  24.159  1.00 17.73 LIG 0.18  C 
BRANCH 64 65
ATOM     65  CB  LEU C  10      24.466  13.808  22.983  1.00 25.34 LIG 0.04  C 
BRANCH 65 66
ATOM     66  CG  LEU C  10      23.549  15.022  22.957  1.00 39.39 LIG-0.02  C 
ATOM     67  CD1 LEU C  10      22.117  14.634  22.652  1.00 48.08 LIG 0.01  C 
ATOM     68  CD2 LEU C  10      23.642  15.742  24.287  1.00 37.51 LIG 0.01  C 
ENDBRANCH 65 66
ENDBRANCH 64 65
BRANCH 64 69
ATOM     69  C   LEU C  10      25.690  12.070  24.254  1.00 24.54 LIG 0.20  C 
ATOM     70 O    LEU C  10      26.332  11.591  25.197  1.00 20.83 LIG-0.65  OA
ATOM     71 OXT  LEU C  10      25.298  11.314  23.357  1.00 16.98 LIG-0.65  OA
ENDBRANCH 64 69
ENDBRANCH 62 64
ENDBRANCH 59 60
BRANCH 59 72
ATOM     72  CB  GLN C   9      29.421  15.877  24.733  1.00 28.41 LIG 0.04  C 
BRANCH 72 73
ATOM     73  CG  GLN C   9      30.544  15.725  23.732  1.00 32.25 LIG 0.10  C 
BRANCH 73 74
ATOM     74  CD  GLN C   9      30.489  14.408  22.987  1.00 38.89 LIG 0.21  C 
ATOM     75 OE1  GLN C   9      29.734  13.500  23.349  1.00 37.39 LIG-0.27  OA
ATOM     76  NE2 GLN C   9      31.290  14.296  21.932  1.00 32.46 LIG-0.37  N 
ATOM     77 22HE GLN C   9      31.296  13.570  21.472  1.00 32.46 LIG 0.16  HD
ATOM     78 21HE GLN C   9      31.803  14.950  21.709  1.00 32.46 LIG 0.16  HD
ENDBRANCH 73 74
ENDBRANCH 72 73
ENDBRANCH 59 72
ENDBRANCH 56 59
ENDBRANCH 50 55
ENDBRANCH 48 50
ENDBRANCH 45 46
BRANCH 45 79
ATOM     79  CB  GLU C   7      30.563  22.086  20.446  1.00 23.92 LIG 0.04  C 
BRANCH 79 80
ATOM     80  CG  GLU C   7      30.659  20.629  20.005  1.00 19.46 LIG 0.12  C 
BRANCH 80 81
ATOM     81  CD  GLU C   7      31.992  19.984  20.358  1.00 36.59 LIG 0.17  C 
ATOM     82 OE1  GLU C   7      32.013  19.095  21.233  1.00 43.07 LIG-0.65  OA
ATOM     83 OE2  GLU C   7      33.020  20.359  19.752  1.00 30.47 LIG-0.65  OA
ENDBRANCH 80 81
ENDBRANCH 79 80
ENDBRANCH 45 79
ENDBRANCH 3 45
TORSDOF 33
ENDMDL
MODEL 6
USER: ADFR SOLUTION from run 133
USER: SCORE 20.315384 LL:  -5.398 LR: -16.518 RR:   0.000 FEB:  -6.674
USER: RMSD 6.532597
USER: SEED 132
USER: STATUS no improvement in best in 2 clusters for 5 generations
USER: GENES 35
USER: genes 0 Translation |==|  0.55289 0.46364 0.50559
USER: genes 1 Rotation |==|  0.40876 0.57243 0.28020 0.93372
USER: genes 2 Torsion [N]-C--CA-[N] |==|  0.38333
USER: genes 3 Torsion [C]-CA--CB-[CG] |==|  0.78779
USER: genes 4 Torsion [CA]-CB--CG-[CD] |==|  0.36412
USER: genes 5 Torsion [CB]-CG--CD-[NE] |==|  0.42989
USER: genes 6 Torsion [CG]-CD--NE-[HE] |==|  0.98409
USER: genes 7 Torsion [C]-CA--N-[C] |==|  0.87204
USER: genes 8 Torsion [N]-C--CA-[N] |==|  0.98052
USER: genes 9 Torsion [C]-CA--CB-[CG] |==|  0.24457
USER: genes 10 Torsion [CA]-CB--CG-[CD] |==|  0.76214
USER: genes 11 Torsion [CB]-CG--CD-[NE] |==|  0.61371
USER: genes 12 Torsion [CG]-CD--NE-[HE] |==|  0.86067
USER: genes 13 Torsion [C]-CA--N-[C] |==|  0.80882
USER: genes 14 Torsion [N]-C--CA-[N] |==|  0.12897
USER: genes 15 Torsion [C]-CA--CB-[CG2] |==|  0.24048
USER: genes 16 Torsion [CA]-CB--OG1-[HG1] |==|  0.81148
USER: genes 17 Torsion [C]-N--CA-[CB] |==|  0.89668
USER: genes 18 Torsion [N]-CA--C-[N] |==|  0.85815
USER: genes 19 Torsion [C]-N--CA-[CB] |==|  0.83097
USER: genes 20 Torsion [N]-CA--CB-[CG2] |==|  0.34298
USER: genes 21 Torsion [CA]-CB--OG1-[HG1] |==|  0.66980
USER: genes 22 Torsion [N]-CA--C-[N] |==|  0.46035
USER: genes 23 Torsion [C]-N--CA-[C] |==|  0.63583
USER: genes 24 Torsion [N]-CA--C-[N] |==|  0.14324
USER: genes 25 Torsion [C]-N--CA-[C] |==|  0.69825
USER: genes 26 Torsion [N]-CA--CB-[CG] |==|  0.32120
USER: genes 27 Torsion [CA]-CB--CG-[CD1] |==|  0.29925
USER: genes 28 Torsion [N]-CA--C-[O] |==|  0.93279
USER: genes 29 Torsion [N]-CA--CB-[CG] |==|  0.69576
USER: genes 30 Torsion [CA]-CB--CG-[CD] |==|  0.88940
USER: genes 31 Torsion [CB]-CG--CD-[NE2] |==|  0.37909
USER: genes 32 Torsion [N]-CA--CB-[CG] |==|  0.77169
USER: genes 33 Torsion [CA]-CB--CG-[CD] |==|  0.40015
USER: genes 34 Torsion [CB]-CG--CD-[OE1] |==|  0.64465
ROOT
ATOM      1  C   ARG C   6      24.343  18.310  24.958  1.00 27.90 LIG 0.24  C 
ATOM      2 O    ARG C   6      24.446  18.687  23.793  1.00 25.69 LIG-0.27  OA
ATOM      3  N   GLU C   7      25.357  17.783  25.637  1.00 23.63 LIG-0.35  N 
ATOM      4 H    GLU C   7      25.337  17.625  26.482  1.00 23.63 LIG 0.16  HD
ENDROOT
BRANCH 1 5
ATOM      5  CA  ARG C   6      23.017  18.441  25.706  1.00 28.24 LIG 0.18  C 
BRANCH 5 6
ATOM      6  CB  ARG C   6      22.094  17.289  25.306  1.00 28.37 LIG 0.04  C 
BRANCH 6 7
ATOM      7  CG  ARG C   6      21.462  17.457  23.943  1.00 35.92 LIG 0.02  C 
BRANCH 7 8
ATOM      8  CD  ARG C   6      21.622  16.195  23.118  1.00 41.81 LIG 0.14  C 
BRANCH 8 9
ATOM      9  NE  ARG C   6      20.571  16.097  22.108  1.00 46.88 LIG-0.23  N 
ATOM     10 HE   ARG C   6      19.945  16.687  22.121  1.00 46.88 LIG 0.18  HD
ATOM     11  CZ  ARG C   6      20.518  15.156  21.170  1.00 47.79 LIG 0.67  C 
ATOM     12  NH2 ARG C   6      19.525  15.151  20.291  1.00 52.15 LIG-0.23  N 
ATOM     13  NH1 ARG C   6      21.456  14.221  21.112  1.00 41.40 LIG-0.23  N 
ATOM     14 1HH2 ARG C   6      18.915  15.757  20.327  1.00 52.15 LIG 0.17  HD
ATOM     15 2HH2 ARG C   6      19.490  14.542  19.684  1.00 52.15 LIG 0.17  HD
ATOM     16 2HH1 ARG C   6      21.420  13.613  20.505  1.00 41.40 LIG 0.17  HD
ATOM     17 1HH1 ARG C   6      22.100  14.223  21.682  1.00 41.40 LIG 0.17  HD
ENDBRANCH 8 9
ENDBRANCH 7 8
ENDBRANCH 6 7
ENDBRANCH 5 6
BRANCH 5 18
ATOM     18  N   ARG C   6      22.369  19.716  25.431  1.00 41.74 LIG-0.35  N 
ATOM     19  C   ARG C   5      23.034  20.867  25.457  1.00 53.56 LIG 0.24  C 
ATOM     20 O    ARG C   5      24.233  20.944  25.719  1.00 51.79 LIG-0.27  OA
ATOM     21 H    ARG C   6      21.530  19.654  25.253  1.00 41.74 LIG 0.16  HD
BRANCH 19 22
ATOM     22  CA  ARG C   5      22.220  22.115  25.113  1.00 62.48 LIG 0.18  C 
BRANCH 22 23
ATOM     23  CB  ARG C   5      22.201  23.059  26.319  1.00 65.36 LIG 0.04  C 
BRANCH 23 24
ATOM     24  CG  ARG C   5      23.382  24.028  26.346  1.00 67.86 LIG 0.02  C 
BRANCH 24 25
ATOM     25  CD  ARG C   5      24.604  23.410  27.006  1.00 67.74 LIG 0.14  C 
BRANCH 25 26
ATOM     26  NE  ARG C   5      25.286  24.368  27.870  1.00 69.26 LIG-0.23  N 
ATOM     27 HE   ARG C   5      25.473  25.141  27.544  1.00 69.26 LIG 0.18  HD
ATOM     28  CZ  ARG C   5      25.638  24.123  29.126  1.00 72.53 LIG 0.67  C 
ATOM     29  NH1 ARG C   5      26.263  25.055  29.835  1.00 70.69 LIG-0.23  N 
ATOM     30  NH2 ARG C   5      25.362  22.947  29.677  1.00 74.37 LIG-0.23  N 
ATOM     31 2HH1 ARG C   5      26.490  24.895  30.649  1.00 70.69 LIG 0.17  HD
ATOM     32 1HH1 ARG C   5      26.442  25.817  29.480  1.00 70.69 LIG 0.17  HD
ATOM     33 1HH2 ARG C   5      24.955  22.343  29.219  1.00 74.37 LIG 0.17  HD
ATOM     34 2HH2 ARG C   5      25.589  22.789  30.490  1.00 74.37 LIG 0.17  HD
ENDBRANCH 25 26
ENDBRANCH 24 25
ENDBRANCH 23 24
ENDBRANCH 22 23
BRANCH 22 35
ATOM     35  N   ARG C   5      20.862  21.822  24.650  1.00 62.98 LIG-0.35  N 
ATOM     36  C   THR C   4      20.651  21.235  23.474  1.00 71.37 LIG 0.26  C 
ATOM     37 O    THR C   4      21.572  20.872  22.739  1.00 72.41 LIG-0.27  OA
ATOM     38 H    ARG C   5      20.238  22.057  25.193  1.00 62.98 LIG 0.16  HD
BRANCH 36 39
ATOM     39  CA  THR C   4      19.193  21.022  23.059  1.00 77.23 LIG 0.43  C 
ATOM     40  N   THR C   4      18.401  22.229  23.276  1.00 78.75 LIG 0.62  N 
BRANCH 39 41
ATOM     41  CB  THR C   4      19.147  20.568  21.576  1.00 73.87 LIG 0.16  C 
ATOM     42  CG2 THR C   4      19.297  19.056  21.464  1.00 73.94 LIG 0.04  C 
BRANCH 41 43
ATOM     43 OG1  THR C   4      17.907  20.968  20.979  1.00 74.59 LIG-0.39  OA
ATOM     44 HG1  THR C   4      17.277  20.534  21.325  1.00 74.59 LIG 0.21  HD
ENDBRANCH 41 43
ENDBRANCH 39 41
ENDBRANCH 36 39
ENDBRANCH 22 35
ENDBRANCH 19 22
ENDBRANCH 5 18
ENDBRANCH 1 5
BRANCH 3 45
ATOM     45  CA  GLU C   7      26.610  17.425  24.987  1.00 24.11 LIG 0.18  C 
BRANCH 45 46
ATOM     46  C   GLU C   7      27.488  18.662  24.894  1.00 31.12 LIG 0.24  C 
ATOM     47 O    GLU C   7      28.651  18.636  25.294  1.00 26.64 LIG-0.27  OA
ATOM     48  N   THR C   8      26.932  19.750  24.371  1.00 26.11 LIG-0.34  N 
ATOM     49 H    THR C   8      26.117  19.795  24.103  1.00 26.11 LIG 0.16  HD
BRANCH 48 50
ATOM     50  CA  THR C   8      27.697  20.983  24.211  1.00 18.32 LIG 0.20  C 
BRANCH 50 51
ATOM     51  CB  THR C   8      28.195  21.509  25.569  1.00 19.43 LIG 0.15  C 
ATOM     52  CG2 THR C   8      29.710  21.666  25.560  1.00 20.66 LIG 0.04  C 
BRANCH 51 53
ATOM     53 OG1  THR C   8      27.588  22.779  25.828  1.00 16.70 LIG-0.39  OA
ATOM     54 HG1  THR C   8      28.184  23.367  25.894  1.00 16.70 LIG 0.21  HD
ENDBRANCH 51 53
ENDBRANCH 50 51
BRANCH 50 55
ATOM     55  C   THR C   8      28.899  20.791  23.313  1.00 17.75 LIG 0.24  C 
ATOM     56  N   GLN C   9      29.487  21.895  22.869  1.00 18.17 LIG-0.35  N 
ATOM     57 H    GLN C   9      29.209  22.692  23.031  1.00 18.17 LIG 0.16  HD
ATOM     58 O    THR C   8      29.302  19.666  23.039  1.00 18.31 LIG-0.27  OA
BRANCH 56 59
ATOM     59  CA  GLN C   9      30.689  21.820  22.046  1.00 20.01 LIG 0.18  C 
BRANCH 59 60
ATOM     60  C   GLN C   9      31.742  22.775  22.611  1.00 23.96 LIG 0.24  C 
ATOM     61 O    GLN C   9      32.296  23.591  21.876  1.00 22.16 LIG-0.27  OA
ATOM     62  N   LEU C  10      32.016  22.667  23.909  1.00 18.63 LIG-0.34  N 
ATOM     63 H    LEU C  10      31.765  22.002  24.395  1.00 18.63 LIG 0.16  HD
BRANCH 62 64
ATOM     64  CA  LEU C  10      32.774  23.680  24.637  1.00 17.73 LIG 0.18  C 
BRANCH 64 65
ATOM     65  CB  LEU C  10      32.029  24.043  25.934  1.00 25.34 LIG 0.04  C 
BRANCH 65 66
ATOM     66  CG  LEU C  10      32.634  23.751  27.300  1.00 39.39 LIG-0.02  C 
ATOM     67  CD1 LEU C  10      33.094  25.018  27.989  1.00 48.08 LIG 0.01  C 
ATOM     68  CD2 LEU C  10      31.615  23.014  28.145  1.00 37.51 LIG 0.01  C 
ENDBRANCH 65 66
ENDBRANCH 64 65
BRANCH 64 69
ATOM     69  C   LEU C  10      34.160  23.192  25.003  1.00 24.54 LIG 0.20  C 
ATOM     70 O    LEU C  10      34.407  21.984  25.108  1.00 20.83 LIG-0.65  OA
ATOM     71 OXT  LEU C  10      35.059  24.006  25.246  1.00 16.98 LIG-0.65  OA
ENDBRANCH 64 69
ENDBRANCH 62 64
ENDBRANCH 59 60
BRANCH 59 72
ATOM     72  CB  GLN C   9      30.360  22.155  20.589  1.00 28.41 LIG 0.04  C 
BRANCH 72 73
ATOM     73  CG  GLN C   9      30.436  20.959  19.667  1.00 32.25 LIG 0.10  C 
BRANCH 73 74
ATOM     74  CD  GLN C   9      31.604  20.049  19.986  1.00 38.89 LIG 0.21  C 
ATOM     75 OE1  GLN C   9      32.721  20.508  20.241  1.00 37.39 LIG-0.27  OA
ATOM     76  NE2 GLN C   9      31.350  18.743  19.977  1.00 32.46 LIG-0.37  N 
ATOM     77 22HE GLN C   9      31.976  18.182  20.154  1.00 32.46 LIG 0.16  HD
ATOM     78 21HE GLN C   9      30.558  18.460  19.795  1.00 32.46 LIG 0.16  HD
ENDBRANCH 73 74
ENDBRANCH 72 73
ENDBRANCH 59 72
ENDBRANCH 56 59
ENDBRANCH 50 55
ENDBRANCH 48 50
ENDBRANCH 45 46
BRANCH 45 79
ATOM     79  CB  GLU C   7      26.369  16.855  23.588  1.00 23.92 LIG 0.04  C 
BRANCH 79 80
ATOM     80  CG  GLU C   7      25.999  15.376  23.580  1.00 19.46 LIG 0.12  C 
BRANCH 80 81
ATOM     81  CD  GLU C   7      24.986  15.018  22.502  1.00 36.59 LIG 0.17  C 
ATOM     82 OE1  GLU C   7      23.958  14.393  22.832  1.00 43.07 LIG-0.65  OA
ATOM     83 OE2  GLU C   7      25.213  15.372  21.324  1.00 30.47 LIG-0.65  OA
ENDBRANCH 80 81
ENDBRANCH 79 80
ENDBRANCH 45 79
ENDBRANCH 3 45
TORSDOF 33
ENDMDL
MODEL 7
USER: ADFR SOLUTION from run 174
USER: SCORE 21.251695 LL:  -7.558 LR: -16.317 RR:   0.000 FEB:  -6.473
USER: RMSD 10.190918
USER: SEED 173
USER: STATUS no improvement in best in 11 clusters for 5 generations
USER: GENES 35
USER: genes 0 Translation |==|  0.67858 0.63334 0.43488
USER: genes 1 Rotation |==|  0.19063 0.71601 0.43773 0.82210
USER: genes 2 Torsion [N]-C--CA-[N] |==|  0.51186
USER: genes 3 Torsion [C]-CA--CB-[CG] |==|  0.38656
USER: genes 4 Torsion [CA]-CB--CG-[CD] |==|  0.86522
USER: genes 5 Torsion [CB]-CG--CD-[NE] |==|  0.80168
USER: genes 6 Torsion [CG]-CD--NE-[HE] |==|  0.25654
USER: genes 7 Torsion [C]-CA--N-[C] |==|  0.17996
USER: genes 8 Torsion [N]-C--CA-[N] |==|  0.03137
USER: genes 9 Torsion [C]-CA--CB-[CG] |==|  0.85170
USER: genes 10 Torsion [CA]-CB--CG-[CD] |==|  0.26261
USER: genes 11 Torsion [CB]-CG--CD-[NE] |==|  0.19501
USER: genes 12 Torsion [CG]-CD--NE-[HE] |==|  0.24902
USER: genes 13 Torsion [C]-CA--N-[C] |==|  0.65841
USER: genes 14 Torsion [N]-C--CA-[N] |==|  0.65048
USER: genes 15 Torsion [C]-CA--CB-[CG2] |==|  0.20359
USER: genes 16 Torsion [CA]-CB--OG1-[HG1] |==|  0.01910
USER: genes 17 Torsion [C]-N--CA-[CB] |==|  0.37228
USER: genes 18 Torsion [N]-CA--C-[N] |==|  0.94974
USER: genes 19 Torsion [C]-N--CA-[CB] |==|  0.85469
USER: genes 20 Torsion [N]-CA--CB-[CG2] |==|  0.58844
USER: genes 21 Torsion [CA]-CB--OG1-[HG1] |==|  0.44263
USER: genes 22 Torsion [N]-CA--C-[N] |==|  0.35749
USER: genes 23 Torsion [C]-N--CA-[C] |==|  0.62831
USER: genes 24 Torsion [N]-CA--C-[N] |==|  0.36261
USER: genes 25 Torsion [C]-N--CA-[C] |==|  0.49449
USER: genes 26 Torsion [N]-CA--CB-[CG] |==|  0.10996
USER: genes 27 Torsion [CA]-CB--CG-[CD1] |==|  0.26892
USER: genes 28 Torsion [N]-CA--C-[O] |==|  0.60423
USER: genes 29 Torsion [N]-CA--CB-[CG] |==|  0.56500
USER: genes 30 Torsion [CA]-CB--CG-[CD] |==|  0.18184
USER: genes 31 Torsion [CB]-CG--CD-[NE2] |==|  0.54333
USER: genes 32 Torsion [N]-CA--CB-[CG] |==|  0.26315
USER: genes 33 Torsion [CA]-CB--CG-[CD] |==|  0.79061
USER: genes 34 Torsion [CB]-CG--CD-[OE1] |==|  0.43204
ROOT
ATOM      1  C   ARG C   6      28.302  22.128  23.685  1.00 27.90 LIG 0.24  C 
ATOM      2 O    ARG C   6      27.262  21.752  23.151  1.00 25.69 LIG-0.27  OA
ATOM      3  N   GLU C   7      29.474  22.133  23.058  1.00 23.63 LIG-0.35  N 
ATOM      4 H    GLU C   7      30.185  22.501  23.372  1.00 23.63 LIG 0.16  HD
ENDROOT
BRANCH 1 5
ATOM      5  CA  ARG C   6      28.300  22.633  25.128  1.00 28.24 LIG 0.18  C 
BRANCH 5 6
ATOM      6  CB  ARG C   6      29.345  21.861  25.936  1.00 28.37 LIG 0.04  C 
BRANCH 6 7
ATOM      7  CG  ARG C   6      30.134  22.723  26.896  1.00 35.92 LIG 0.02  C 
BRANCH 7 8
ATOM      8  CD  ARG C   6      30.650  23.967  26.200  1.00 41.81 LIG 0.14  C 
BRANCH 8 9
ATOM      9  NE  ARG C   6      31.723  23.634  25.266  1.00 46.88 LIG-0.23  N 
ATOM     10 HE   ARG C   6      31.509  23.475  24.448  1.00 46.88 LIG 0.18  HD
ATOM     11  CZ  ARG C   6      33.008  23.559  25.597  1.00 47.79 LIG 0.67  C 
ATOM     12  NH2 ARG C   6      33.914  23.253  24.677  1.00 52.15 LIG-0.23  N 
ATOM     13  NH1 ARG C   6      33.388  23.789  26.846  1.00 41.40 LIG-0.23  N 
ATOM     14 1HH2 ARG C   6      33.669  23.103  23.866  1.00 52.15 LIG 0.17  HD
ATOM     15 2HH2 ARG C   6      34.746  23.204  24.891  1.00 52.15 LIG 0.17  HD
ATOM     16 2HH1 ARG C   6      34.220  23.740  27.058  1.00 41.40 LIG 0.17  HD
ATOM     17 1HH1 ARG C   6      32.803  23.987  27.443  1.00 41.40 LIG 0.17  HD
ENDBRANCH 8 9
ENDBRANCH 7 8
ENDBRANCH 6 7
ENDBRANCH 5 6
BRANCH 5 18
ATOM     18  N   ARG C   6      26.988  22.489  25.744  1.00 41.74 LIG-0.35  N 
ATOM     19  C   ARG C   5      26.436  21.300  25.963  1.00 53.56 LIG 0.24  C 
ATOM     20 O    ARG C   5      26.981  20.241  25.659  1.00 51.79 LIG-0.27  OA
ATOM     21 H    ARG C   6      26.613  23.235  25.950  1.00 41.74 LIG 0.16  HD
BRANCH 19 22
ATOM     22  CA  ARG C   5      25.070  21.316  26.649  1.00 62.48 LIG 0.18  C 
BRANCH 22 23
ATOM     23  CB  ARG C   5      24.138  20.322  25.951  1.00 65.36 LIG 0.04  C 
BRANCH 23 24
ATOM     24  CG  ARG C   5      24.042  20.542  24.442  1.00 67.86 LIG 0.02  C 
BRANCH 24 25
ATOM     25  CD  ARG C   5      25.018  19.661  23.680  1.00 67.74 LIG 0.14  C 
BRANCH 25 26
ATOM     26  NE  ARG C   5      24.623  18.257  23.732  1.00 69.26 LIG-0.23  N 
ATOM     27 HE   ARG C   5      24.100  17.963  23.117  1.00 69.26 LIG 0.18  HD
ATOM     28  CZ  ARG C   5      25.020  17.404  24.669  1.00 72.53 LIG 0.67  C 
ATOM     29  NH1 ARG C   5      24.603  16.144  24.640  1.00 70.69 LIG-0.23  N 
ATOM     30  NH2 ARG C   5      25.837  17.809  25.634  1.00 74.37 LIG-0.23  N 
ATOM     31 2HH1 ARG C   5      24.861  15.592  25.247  1.00 70.69 LIG 0.17  HD
ATOM     32 1HH1 ARG C   5      24.076  15.880  24.014  1.00 70.69 LIG 0.17  HD
ATOM     33 1HH2 ARG C   5      26.109  18.624  25.652  1.00 74.37 LIG 0.17  HD
ATOM     34 2HH2 ARG C   5      26.093  17.256  26.240  1.00 74.37 LIG 0.17  HD
ENDBRANCH 25 26
ENDBRANCH 24 25
ENDBRANCH 23 24
ENDBRANCH 22 23
BRANCH 22 35
ATOM     35  N   ARG C   5      24.465  22.647  26.723  1.00 62.98 LIG-0.35  N 
ATOM     36  C   THR C   4      24.114  23.176  27.893  1.00 71.37 LIG 0.26  C 
ATOM     37 O    THR C   4      24.314  22.605  28.966  1.00 72.41 LIG-0.27  OA
ATOM     38 H    ARG C   5      24.363  23.038  25.964  1.00 62.98 LIG 0.16  HD
BRANCH 36 39
ATOM     39  CA  THR C   4      23.439  24.550  27.856  1.00 77.23 LIG 0.43  C 
ATOM     40  N   THR C   4      24.137  25.503  28.715  1.00 78.75 LIG 0.62  N 
BRANCH 39 41
ATOM     41  CB  THR C   4      23.373  25.046  26.388  1.00 73.87 LIG 0.16  C 
ATOM     42  CG2 THR C   4      22.320  24.277  25.600  1.00 73.94 LIG 0.04  C 
BRANCH 41 43
ATOM     43 OG1  THR C   4      23.063  26.445  26.357  1.00 74.59 LIG-0.39  OA
ATOM     44 HG1  THR C   4      23.068  26.751  27.139  1.00 74.59 LIG 0.21  HD
ENDBRANCH 41 43
ENDBRANCH 39 41
ENDBRANCH 36 39
ENDBRANCH 22 35
ENDBRANCH 19 22
ENDBRANCH 5 18
ENDBRANCH 1 5
BRANCH 3 45
ATOM     45  CA  GLU C   7      29.649  21.501  21.758  1.00 24.11 LIG 0.18  C 
BRANCH 45 46
ATOM     46  C   GLU C   7      30.400  20.192  21.943  1.00 31.12 LIG 0.24  C 
ATOM     47 O    GLU C   7      30.377  19.328  21.068  1.00 26.64 LIG-0.27  OA
ATOM     48  N   THR C   8      31.063  20.042  23.084  1.00 26.11 LIG-0.34  N 
ATOM     49 H    THR C   8      31.077  20.625  23.716  1.00 26.11 LIG 0.16  HD
BRANCH 48 50
ATOM     50  CA  THR C   8      31.840  18.835  23.350  1.00 18.32 LIG 0.20  C 
BRANCH 50 51
ATOM     51  CB  THR C   8      30.992  17.569  23.136  1.00 19.43 LIG 0.15  C 
ATOM     52  CG2 THR C   8      31.432  16.462  24.084  1.00 20.66 LIG 0.04  C 
BRANCH 51 53
ATOM     53 OG1  THR C   8      29.617  17.883  23.378  1.00 16.70 LIG-0.39  OA
ATOM     54 HG1  THR C   8      29.129  17.311  23.004  1.00 16.70 LIG 0.21  HD
ENDBRANCH 51 53
ENDBRANCH 50 51
BRANCH 50 55
ATOM     55  C   THR C   8      33.059  18.739  22.460  1.00 17.75 LIG 0.24  C 
ATOM     56  N   GLN C   9      34.218  18.518  23.068  1.00 18.17 LIG-0.35  N 
ATOM     57 H    GLN C   9      34.316  18.462  23.920  1.00 18.17 LIG 0.16  HD
ATOM     58 O    THR C   8      32.956  18.844  21.244  1.00 18.31 LIG-0.27  OA
BRANCH 56 59
ATOM     59  CA  GLN C   9      35.444  18.349  22.297  1.00 20.01 LIG 0.18  C 
BRANCH 59 60
ATOM     60  C   GLN C   9      36.210  17.138  22.833  1.00 23.96 LIG 0.24  C 
ATOM     61 O    GLN C   9      36.420  17.023  24.039  1.00 22.16 LIG-0.27  OA
ATOM     62  N   LEU C  10      36.625  16.246  21.937  1.00 18.63 LIG-0.34  N 
ATOM     63 H    LEU C  10      36.634  16.392  21.089  1.00 18.63 LIG 0.16  HD
BRANCH 62 64
ATOM     64  CA  LEU C  10      37.110  14.922  22.315  1.00 17.73 LIG 0.18  C 
BRANCH 64 65
ATOM     65  CB  LEU C  10      36.012  14.183  23.102  1.00 25.34 LIG 0.04  C 
BRANCH 65 66
ATOM     66  CG  LEU C  10      34.548  14.286  22.702  1.00 39.39 LIG-0.02  C 
ATOM     67  CD1 LEU C  10      34.118  13.114  21.846  1.00 48.08 LIG 0.01  C 
ATOM     68  CD2 LEU C  10      33.698  14.384  23.952  1.00 37.51 LIG 0.01  C 
ENDBRANCH 65 66
ENDBRANCH 64 65
BRANCH 64 69
ATOM     69  C   LEU C  10      37.475  14.087  21.106  1.00 24.54 LIG 0.20  C 
ATOM     70 O    LEU C  10      37.245  12.871  21.074  1.00 20.83 LIG-0.65  OA
ATOM     71 OXT  LEU C  10      38.052  14.609  20.145  1.00 16.98 LIG-0.65  OA
ENDBRANCH 64 69
ENDBRANCH 62 64
ENDBRANCH 59 60
BRANCH 59 72
ATOM     72  CB  GLN C   9      36.297  19.619  22.365  1.00 28.41 LIG 0.04  C 
BRANCH 72 73
ATOM     73  CG  GLN C   9      37.255  19.760  21.204  1.00 32.25 LIG 0.10  C 
BRANCH 73 74
ATOM     74  CD  GLN C   9      36.545  19.946  19.880  1.00 38.89 LIG 0.21  C 
ATOM     75 OE1  GLN C   9      35.351  20.258  19.833  1.00 37.39 LIG-0.27  OA
ATOM     76  NE2 GLN C   9      37.280  19.758  18.788  1.00 32.46 LIG-0.37  N 
ATOM     77 22HE GLN C   9      36.927  19.853  18.010  1.00 32.46 LIG 0.16  HD
ATOM     78 21HE GLN C   9      38.110  19.541  18.860  1.00 32.46 LIG 0.16  HD
ENDBRANCH 73 74
ENDBRANCH 72 73
ENDBRANCH 59 72
ENDBRANCH 56 59
ENDBRANCH 50 55
ENDBRANCH 48 50
ENDBRANCH 45 46
BRANCH 45 79
ATOM     79  CB  GLU C   7      30.418  22.407  20.795  1.00 23.92 LIG 0.04  C 
BRANCH 79 80
ATOM     80  CG  GLU C   7      31.918  22.136  20.757  1.00 19.46 LIG 0.12  C 
BRANCH 80 81
ATOM     81  CD  GLU C   7      32.654  22.671  21.977  1.00 36.59 LIG 0.17  C 
ATOM     82 OE1  GLU C   7      33.737  22.144  22.301  1.00 43.07 LIG-0.65  OA
ATOM     83 OE2  GLU C   7      32.154  23.628  22.608  1.00 30.47 LIG-0.65  OA
ENDBRANCH 80 81
ENDBRANCH 79 80
ENDBRANCH 45 79
ENDBRANCH 3 45
TORSDOF 33
ENDMDL
MODEL 8
USER: ADFR SOLUTION from run 167
USER: SCORE 18.739501 LL:  -5.456 LR: -16.298 RR:   0.000 FEB:  -6.454
USER: RMSD 11.160275
USER: SEED 166
USER: STATUS no improvement in best in 4 clusters for 5 generations
USER: GENES 35
USER: genes 0 Translation |==|  0.67567 0.55094 0.35880
USER: genes 1 Rotation |==|  0.47685 0.48696 0.01005 0.59614
USER: genes 2 Torsion [N]-C--CA-[N] |==|  0.04660
USER: genes 3 Torsion [C]-CA--CB-[CG] |==|  0.24416
USER: genes 4 Torsion [CA]-CB--CG-[CD] |==|  0.60917
USER: genes 5 Torsion [CB]-CG--CD-[NE] |==|  0.00770
USER: genes 6 Torsion [CG]-CD--NE-[HE] |==|  0.79885
USER: genes 7 Torsion [C]-CA--N-[C] |==|  0.18114
USER: genes 8 Torsion [N]-C--CA-[N] |==|  0.13257
USER: genes 9 Torsion [C]-CA--CB-[CG] |==|  0.53252
USER: genes 10 Torsion [CA]-CB--CG-[CD] |==|  0.84109
USER: genes 11 Torsion [CB]-CG--CD-[NE] |==|  0.32128
USER: genes 12 Torsion [CG]-CD--NE-[HE] |==|  0.75386
USER: genes 13 Torsion [C]-CA--N-[C] |==|  0.13584
USER: genes 14 Torsion [N]-C--CA-[N] |==|  0.92536
USER: genes 15 Torsion [C]-CA--CB-[CG2] |==|  0.65830
USER: genes 16 Torsion [CA]-CB--OG1-[HG1] |==|  0.50796
USER: genes 17 Torsion [C]-N--CA-[CB] |==|  0.22644
USER: genes 18 Torsion [N]-CA--C-[N] |==|  0.27848
USER: genes 19 Torsion [C]-N--CA-[CB] |==|  0.43046
USER: genes 20 Torsion [N]-CA--CB-[CG2] |==|  0.47071
USER: genes 21 Torsion [CA]-CB--OG1-[HG1] |==|  0.36814
USER: genes 22 Torsion [N]-CA--C-[N] |==|  0.84531
USER: genes 23 Torsion [C]-N--CA-[C] |==|  0.66100
USER: genes 24 Torsion [N]-CA--C-[N] |==|  0.34463
USER: genes 25 Torsion [C]-N--CA-[C] |==|  0.70161
USER: genes 26 Torsion [N]-CA--CB-[CG] |==|  0.04667
USER: genes 27 Torsion [CA]-CB--CG-[CD1] |==|  0.43933
USER: genes 28 Torsion [N]-CA--C-[O] |==|  0.00717
USER: genes 29 Torsion [N]-CA--CB-[CG] |==|  0.09623
USER: genes 30 Torsion [CA]-CB--CG-[CD] |==|  0.30287
USER: genes 31 Torsion [CB]-CG--CD-[NE2] |==|  0.44552
USER: genes 32 Torsion [N]-CA--CB-[CG] |==|  0.43447
USER: genes 33 Torsion [CA]-CB--CG-[CD] |==|  0.27441
USER: genes 34 Torsion [CB]-CG--CD-[OE1] |==|  0.76970
ROOT
ATOM      1  C   ARG C   6      28.211  20.274  22.315  1.00 27.90 LIG 0.24  C 
ATOM      2 O    ARG C   6      28.570  19.528  21.408  1.00 25.69 LIG-0.27  OA
ATOM      3  N   GLU C   7      27.461  19.863  23.333  1.00 23.63 LIG-0.35  N 
ATOM      4 H    GLU C   7      27.301  20.337  24.032  1.00 23.63 LIG 0.16  HD
ENDROOT
BRANCH 1 5
ATOM      5  CA  ARG C   6      28.627  21.745  22.326  1.00 28.24 LIG 0.18  C 
BRANCH 5 6
ATOM      6  CB  ARG C   6      30.087  21.862  21.886  1.00 28.37 LIG 0.04  C 
BRANCH 6 7
ATOM      7  CG  ARG C   6      30.267  21.982  20.390  1.00 35.92 LIG 0.02  C 
BRANCH 7 8
ATOM      8  CD  ARG C   6      31.469  21.184  19.928  1.00 41.81 LIG 0.14  C 
BRANCH 8 9
ATOM      9  NE  ARG C   6      32.080  20.468  21.046  1.00 46.88 LIG-0.23  N 
ATOM     10 HE   ARG C   6      32.518  20.928  21.626  1.00 46.88 LIG 0.18  HD
ATOM     11  CZ  ARG C   6      32.003  19.154  21.226  1.00 47.79 LIG 0.67  C 
ATOM     12  NH2 ARG C   6      32.587  18.593  22.277  1.00 52.15 LIG-0.23  N 
ATOM     13  NH1 ARG C   6      31.345  18.400  20.357  1.00 41.40 LIG-0.23  N 
ATOM     14 1HH2 ARG C   6      33.016  19.080  22.842  1.00 52.15 LIG 0.17  HD
ATOM     15 2HH2 ARG C   6      32.538  17.742  22.394  1.00 52.15 LIG 0.17  HD
ATOM     16 2HH1 ARG C   6      31.297  17.550  20.475  1.00 41.40 LIG 0.17  HD
ATOM     17 1HH1 ARG C   6      30.966  18.762  19.675  1.00 41.40 LIG 0.17  HD
ENDBRANCH 8 9
ENDBRANCH 7 8
ENDBRANCH 6 7
ENDBRANCH 5 6
BRANCH 5 18
ATOM     18  N   ARG C   6      28.454  22.342  23.644  1.00 41.74 LIG-0.35  N 
ATOM     19  C   ARG C   5      29.164  21.948  24.697  1.00 53.56 LIG 0.24  C 
ATOM     20 O    ARG C   5      30.007  21.054  24.642  1.00 51.79 LIG-0.27  OA
ATOM     21 H    ARG C   6      27.860  22.962  23.674  1.00 41.74 LIG 0.16  HD
BRANCH 19 22
ATOM     22  CA  ARG C   5      28.890  22.695  26.003  1.00 62.48 LIG 0.18  C 
BRANCH 22 23
ATOM     23  CB  ARG C   5      29.642  22.011  27.147  1.00 65.36 LIG 0.04  C 
BRANCH 23 24
ATOM     24  CG  ARG C   5      29.215  22.501  28.530  1.00 67.86 LIG 0.02  C 
BRANCH 24 25
ATOM     25  CD  ARG C   5      29.389  24.005  28.674  1.00 67.74 LIG 0.14  C 
BRANCH 25 26
ATOM     26  NE  ARG C   5      28.107  24.674  28.862  1.00 69.26 LIG-0.23  N 
ATOM     27 HE   ARG C   5      27.675  24.923  28.161  1.00 69.26 LIG 0.18  HD
ATOM     28  CZ  ARG C   5      27.562  24.926  30.047  1.00 72.53 LIG 0.67  C 
ATOM     29  NH1 ARG C   5      26.392  25.548  30.122  1.00 70.69 LIG-0.23  N 
ATOM     30  NH2 ARG C   5      28.185  24.552  31.158  1.00 74.37 LIG-0.23  N 
ATOM     31 2HH1 ARG C   5      26.039  25.710  30.890  1.00 70.69 LIG 0.17  HD
ATOM     32 1HH1 ARG C   5      25.986  25.789  29.403  1.00 70.69 LIG 0.17  HD
ATOM     33 1HH2 ARG C   5      28.942  24.147  31.110  1.00 74.37 LIG 0.17  HD
ATOM     34 2HH2 ARG C   5      27.832  24.715  31.924  1.00 74.37 LIG 0.17  HD
ENDBRANCH 25 26
ENDBRANCH 24 25
ENDBRANCH 23 24
ENDBRANCH 22 23
BRANCH 22 35
ATOM     35  N   ARG C   5      27.466  22.833  26.313  1.00 62.98 LIG-0.35  N 
ATOM     36  C   THR C   4      26.648  21.785  26.259  1.00 71.37 LIG 0.26  C 
ATOM     37 O    THR C   4      27.043  20.648  25.991  1.00 72.41 LIG-0.27  OA
ATOM     38 H    ARG C   5      27.220  23.629  26.526  1.00 62.98 LIG 0.16  HD
BRANCH 36 39
ATOM     39  CA  THR C   4      25.167  22.046  26.548  1.00 77.23 LIG 0.43  C 
ATOM     40  N   THR C   4      24.997  23.207  27.418  1.00 78.75 LIG 0.62  N 
BRANCH 39 41
ATOM     41  CB  THR C   4      24.409  22.222  25.206  1.00 73.87 LIG 0.16  C 
ATOM     42  CG2 THR C   4      23.695  23.567  25.156  1.00 73.94 LIG 0.04  C 
BRANCH 41 43
ATOM     43 OG1  THR C   4      25.327  22.130  24.109  1.00 74.59 LIG-0.39  OA
ATOM     44 HG1  THR C   4      24.917  22.265  23.389  1.00 74.59 LIG 0.21  HD
ENDBRANCH 41 43
ENDBRANCH 39 41
ENDBRANCH 36 39
ENDBRANCH 22 35
ENDBRANCH 19 22
ENDBRANCH 5 18
ENDBRANCH 1 5
BRANCH 3 45
ATOM     45  CA  GLU C   7      26.840  18.546  23.343  1.00 24.11 LIG 0.18  C 
BRANCH 45 46
ATOM     46  C   GLU C   7      25.649  18.570  24.288  1.00 31.12 LIG 0.24  C 
ATOM     47 O    GLU C   7      25.812  18.469  25.503  1.00 26.64 LIG-0.27  OA
ATOM     48  N   THR C   8      24.450  18.697  23.731  1.00 26.11 LIG-0.34  N 
ATOM     49 H    THR C   8      24.313  18.750  22.884  1.00 26.11 LIG 0.16  HD
BRANCH 48 50
ATOM     50  CA  THR C   8      23.242  18.758  24.550  1.00 18.32 LIG 0.20  C 
BRANCH 50 51
ATOM     51  CB  THR C   8      22.109  19.498  23.818  1.00 19.43 LIG 0.15  C 
ATOM     52  CG2 THR C   8      20.792  19.331  24.563  1.00 20.66 LIG 0.04  C 
BRANCH 51 53
ATOM     53 OG1  THR C   8      22.437  20.889  23.738  1.00 16.70 LIG-0.39  OA
ATOM     54 HG1  THR C   8      22.310  21.162  22.954  1.00 16.70 LIG 0.21  HD
ENDBRANCH 51 53
ENDBRANCH 50 51
BRANCH 50 55
ATOM     55  C   THR C   8      22.740  17.380  24.920  1.00 17.75 LIG 0.24  C 
ATOM     56  N   GLN C   9      22.500  16.549  23.914  1.00 18.17 LIG-0.35  N 
ATOM     57 H    GLN C   9      22.578  16.757  23.084  1.00 18.17 LIG 0.16  HD
ATOM     58 O    THR C   8      22.589  17.064  26.095  1.00 18.31 LIG-0.27  OA
BRANCH 56 59
ATOM     59  CA  GLN C   9      22.070  15.178  24.165  1.00 20.01 LIG 0.18  C 
BRANCH 59 60
ATOM     60  C   GLN C   9      23.066  14.215  23.516  1.00 23.96 LIG 0.24  C 
ATOM     61 O    GLN C   9      23.313  14.297  22.315  1.00 22.16 LIG-0.27  OA
ATOM     62  N   LEU C  10      23.627  13.307  24.312  1.00 18.63 LIG-0.34  N 
ATOM     63 H    LEU C  10      23.345  13.129  25.105  1.00 18.63 LIG 0.16  HD
BRANCH 62 64
ATOM     64  CA  LEU C  10      24.787  12.519  23.905  1.00 17.73 LIG 0.18  C 
BRANCH 64 65
ATOM     65  CB  LEU C  10      25.837  12.538  25.031  1.00 25.34 LIG 0.04  C 
BRANCH 65 66
ATOM     66  CG  LEU C  10      25.470  12.958  26.446  1.00 39.39 LIG-0.02  C 
ATOM     67  CD1 LEU C  10      26.452  12.416  27.463  1.00 48.08 LIG 0.01  C 
ATOM     68  CD2 LEU C  10      25.402  14.470  26.512  1.00 37.51 LIG 0.01  C 
ENDBRANCH 65 66
ENDBRANCH 64 65
BRANCH 64 69
ATOM     69  C   LEU C  10      24.419  11.078  23.620  1.00 24.54 LIG 0.20  C 
ATOM     70 O    LEU C  10      23.246  10.690  23.691  1.00 20.83 LIG-0.65  OA
ATOM     71 OXT  LEU C  10      25.302  10.255  23.353  1.00 16.98 LIG-0.65  OA
ENDBRANCH 64 69
ENDBRANCH 62 64
ENDBRANCH 59 60
BRANCH 59 72
ATOM     72  CB  GLN C   9      20.654  14.956  23.630  1.00 28.41 LIG 0.04  C 
BRANCH 72 73
ATOM     73  CG  GLN C   9      20.362  15.731  22.365  1.00 32.25 LIG 0.10  C 
BRANCH 73 74
ATOM     74  CD  GLN C   9      20.261  14.841  21.143  1.00 38.89 LIG 0.21  C 
ATOM     75 OE1  GLN C   9      20.744  13.704  21.140  1.00 37.39 LIG-0.27  OA
ATOM     76  NE2 GLN C   9      19.626  15.354  20.094  1.00 32.46 LIG-0.37  N 
ATOM     77 22HE GLN C   9      19.538  14.889  19.376  1.00 32.46 LIG 0.16  HD
ATOM     78 21HE GLN C   9      19.302  16.150  20.134  1.00 32.46 LIG 0.16  HD
ENDBRANCH 73 74
ENDBRANCH 72 73
ENDBRANCH 59 72
ENDBRANCH 56 59
ENDBRANCH 50 55
ENDBRANCH 48 50
ENDBRANCH 45 46
BRANCH 45 79
ATOM     79  CB  GLU C   7      27.829  17.466  23.784  1.00 23.92 LIG 0.04  C 
BRANCH 79 80
ATOM     80  CG  GLU C   7      27.165  16.219  24.358  1.00 19.46 LIG 0.12  C 
BRANCH 80 81
ATOM     81  CD  GLU C   7      27.051  15.084  23.351  1.00 36.59 LIG 0.17  C 
ATOM     82 OE1  GLU C   7      26.094  15.089  22.550  1.00 43.07 LIG-0.65  OA
ATOM     83 OE2  GLU C   7      27.925  14.190  23.352  1.00 30.47 LIG-0.65  OA
ENDBRANCH 80 81
ENDBRANCH 79 80
ENDBRANCH 45 79
ENDBRANCH 3 45
TORSDOF 33
ENDMDL
MODEL 9
USER: ADFR SOLUTION from run 90
USER: SCORE 19.904179 LL:  -6.291 LR: -16.280 RR:   0.000 FEB:  -6.436
USER: RMSD 9.676074
USER: SEED 89
USER: STATUS searching
USER: GENES 35
USER: genes 0 Translation |==|  0.68537 0.60729 0.52361
USER: genes 1 Rotation |==|  0.05308 0.39867 0.46904 0.69757
USER: genes 2 Torsion [N]-C--CA-[N] |==|  0.38846
USER: genes 3 Torsion [C]-CA--CB-[CG] |==|  0.04556
USER: genes 4 Torsion [CA]-CB--CG-[CD] |==|  0.26802
USER: genes 5 Torsion [CB]-CG--CD-[NE] |==|  0.10541
USER: genes 6 Torsion [CG]-CD--NE-[HE] |==|  0.74424
USER: genes 7 Torsion [C]-CA--N-[C] |==|  0.80025
USER: genes 8 Torsion [N]-C--CA-[N] |==|  0.83660
USER: genes 9 Torsion [C]-CA--CB-[CG] |==|  0.05240
USER: genes 10 Torsion [CA]-CB--CG-[CD] |==|  0.67924
USER: genes 11 Torsion [CB]-CG--CD-[NE] |==|  0.55772
USER: genes 12 Torsion [CG]-CD--NE-[HE] |==|  0.19950
USER: genes 13 Torsion [C]-CA--N-[C] |==|  0.83082
USER: genes 14 Torsion [N]-C--CA-[N] |==|  0.39510
USER: genes 15 Torsion [C]-CA--CB-[CG2] |==|  0.83269
USER: genes 16 Torsion [CA]-CB--OG1-[HG1] |==|  0.32470
USER: genes 17 Torsion [C]-N--CA-[CB] |==|  0.81066
USER: genes 18 Torsion [N]-CA--C-[N] |==|  0.20669
USER: genes 19 Torsion [C]-N--CA-[CB] |==|  0.46582
USER: genes 20 Torsion [N]-CA--CB-[CG2] |==|  0.13799
USER: genes 21 Torsion [CA]-CB--OG1-[HG1] |==|  0.96199
USER: genes 22 Torsion [N]-CA--C-[N] |==|  0.97390
USER: genes 23 Torsion [C]-N--CA-[C] |==|  0.75156
USER: genes 24 Torsion [N]-CA--C-[N] |==|  0.43924
USER: genes 25 Torsion [C]-N--CA-[C] |==|  0.52704
USER: genes 26 Torsion [N]-CA--CB-[CG] |==|  0.76572
USER: genes 27 Torsion [CA]-CB--CG-[CD1] |==|  0.43849
USER: genes 28 Torsion [N]-CA--C-[O] |==|  0.02362
USER: genes 29 Torsion [N]-CA--CB-[CG] |==|  0.48754
USER: genes 30 Torsion [CA]-CB--CG-[CD] |==|  0.22981
USER: genes 31 Torsion [CB]-CG--CD-[NE2] |==|  0.63131
USER: genes 32 Torsion [N]-CA--CB-[CG] |==|  0.55363
USER: genes 33 Torsion [CA]-CB--CG-[CD] |==|  0.06370
USER: genes 34 Torsion [CB]-CG--CD-[OE1] |==|  0.21530
ROOT
ATOM      1  C   ARG C   6      28.516  21.542  25.282  1.00 27.90 LIG 0.24  C 
ATOM      2 O    ARG C   6      28.759  20.338  25.330  1.00 25.69 LIG-0.27  OA
ATOM      3  N   GLU C   7      29.386  22.435  24.822  1.00 23.63 LIG-0.35  N 
ATOM      4 H    GLU C   7      29.192  23.259  24.671  1.00 23.63 LIG 0.16  HD
ENDROOT
BRANCH 1 5
ATOM      5  CA  ARG C   6      27.165  22.084  25.749  1.00 28.24 LIG 0.18  C 
BRANCH 5 6
ATOM      6  CB  ARG C   6      27.181  22.241  27.271  1.00 28.37 LIG 0.04  C 
BRANCH 6 7
ATOM      7  CG  ARG C   6      28.568  22.217  27.873  1.00 35.92 LIG 0.02  C 
BRANCH 7 8
ATOM      8  CD  ARG C   6      29.084  23.627  28.088  1.00 41.81 LIG 0.14  C 
BRANCH 8 9
ATOM      9  NE  ARG C   6      28.009  24.512  28.531  1.00 46.88 LIG-0.23  N 
ATOM     10 HE   ARG C   6      27.572  24.945  27.930  1.00 46.88 LIG 0.18  HD
ATOM     11  CZ  ARG C   6      27.662  24.693  29.801  1.00 47.79 LIG 0.67  C 
ATOM     12  NH2 ARG C   6      26.667  25.515  30.107  1.00 52.15 LIG-0.23  N 
ATOM     13  NH1 ARG C   6      28.309  24.053  30.765  1.00 41.40 LIG-0.23  N 
ATOM     14 1HH2 ARG C   6      26.247  25.932  29.483  1.00 52.15 LIG 0.17  HD
ATOM     15 2HH2 ARG C   6      26.443  25.632  30.929  1.00 52.15 LIG 0.17  HD
ATOM     16 2HH1 ARG C   6      28.085  24.171  31.586  1.00 41.40 LIG 0.17  HD
ATOM     17 1HH1 ARG C   6      28.955  23.520  30.569  1.00 41.40 LIG 0.17  HD
ENDBRANCH 8 9
ENDBRANCH 7 8
ENDBRANCH 6 7
ENDBRANCH 5 6
BRANCH 5 18
ATOM     18  N   ARG C   6      26.070  21.212  25.350  1.00 41.74 LIG-0.35  N 
ATOM     19  C   ARG C   5      25.667  21.115  24.087  1.00 53.56 LIG 0.24  C 
ATOM     20 O    ARG C   5      26.178  21.753  23.168  1.00 51.79 LIG-0.27  OA
ATOM     21 H    ARG C   6      25.715  20.773  25.999  1.00 41.74 LIG 0.16  HD
BRANCH 19 22
ATOM     22  CA  ARG C   5      24.527  20.130  23.824  1.00 62.48 LIG 0.18  C 
BRANCH 22 23
ATOM     23  CB  ARG C   5      23.254  20.632  24.511  1.00 65.36 LIG 0.04  C 
BRANCH 23 24
ATOM     24  CG  ARG C   5      23.300  22.118  24.859  1.00 67.86 LIG 0.02  C 
BRANCH 24 25
ATOM     25  CD  ARG C   5      23.261  22.348  26.361  1.00 67.74 LIG 0.14  C 
BRANCH 25 26
ATOM     26  NE  ARG C   5      22.821  23.700  26.684  1.00 69.26 LIG-0.23  N 
ATOM     27 HE   ARG C   5      21.992  23.894  26.559  1.00 69.26 LIG 0.18  HD
ATOM     28  CZ  ARG C   5      23.616  24.652  27.158  1.00 72.53 LIG 0.67  C 
ATOM     29  NH1 ARG C   5      23.127  25.859  27.417  1.00 70.69 LIG-0.23  N 
ATOM     30  NH2 ARG C   5      24.900  24.398  27.377  1.00 74.37 LIG-0.23  N 
ATOM     31 2HH1 ARG C   5      23.643  26.475  27.724  1.00 70.69 LIG 0.17  HD
ATOM     32 1HH1 ARG C   5      22.295  26.025  27.277  1.00 70.69 LIG 0.17  HD
ATOM     33 1HH2 ARG C   5      25.217  23.616  27.212  1.00 74.37 LIG 0.17  HD
ATOM     34 2HH2 ARG C   5      25.414  25.014  27.684  1.00 74.37 LIG 0.17  HD
ENDBRANCH 25 26
ENDBRANCH 24 25
ENDBRANCH 23 24
ENDBRANCH 22 23
BRANCH 22 35
ATOM     35  N   ARG C   5      24.835  18.755  24.219  1.00 62.98 LIG-0.35  N 
ATOM     36  C   THR C   4      25.847  18.093  23.664  1.00 71.37 LIG 0.26  C 
ATOM     37 O    THR C   4      26.596  18.605  22.830  1.00 72.41 LIG-0.27  OA
ATOM     38 H    ARG C   5      24.317  18.430  24.824  1.00 62.98 LIG 0.16  HD
BRANCH 36 39
ATOM     39  CA  THR C   4      26.051  16.642  24.107  1.00 77.23 LIG 0.43  C 
ATOM     40  N   THR C   4      26.461  15.800  22.987  1.00 78.75 LIG 0.62  N 
BRANCH 39 41
ATOM     41  CB  THR C   4      27.088  16.603  25.260  1.00 73.87 LIG 0.16  C 
ATOM     42  CG2 THR C   4      28.428  17.169  24.807  1.00 73.94 LIG 0.04  C 
BRANCH 41 43
ATOM     43 OG1  THR C   4      26.607  17.360  26.378  1.00 74.59 LIG-0.39  OA
ATOM     44 HG1  THR C   4      26.502  16.850  27.037  1.00 74.59 LIG 0.21  HD
ENDBRANCH 41 43
ENDBRANCH 39 41
ENDBRANCH 36 39
ENDBRANCH 22 35
ENDBRANCH 19 22
ENDBRANCH 5 18
ENDBRANCH 1 5
BRANCH 3 45
ATOM     45  CA  GLU C   7      30.767  22.079  24.531  1.00 24.11 LIG 0.18  C 
BRANCH 45 46
ATOM     46  C   GLU C   7      30.782  20.878  23.599  1.00 31.12 LIG 0.24  C 
ATOM     47 O    GLU C   7      31.086  19.763  24.020  1.00 26.64 LIG-0.27  OA
ATOM     48  N   THR C   8      30.459  21.105  22.331  1.00 26.11 LIG-0.34  N 
ATOM     49 H    THR C   8      30.261  21.879  22.013  1.00 26.11 LIG 0.16  HD
BRANCH 48 50
ATOM     50  CA  THR C   8      30.415  20.016  21.359  1.00 18.32 LIG 0.20  C 
BRANCH 50 51
ATOM     51  CB  THR C   8      29.732  20.460  20.055  1.00 19.43 LIG 0.15  C 
ATOM     52  CG2 THR C   8      30.325  21.772  19.558  1.00 20.66 LIG 0.04  C 
BRANCH 51 53
ATOM     53 OG1  THR C   8      29.920  19.448  19.061  1.00 16.70 LIG-0.39  OA
ATOM     54 HG1  THR C   8      30.512  18.910  19.318  1.00 16.70 LIG 0.21  HD
ENDBRANCH 51 53
ENDBRANCH 50 51
BRANCH 50 55
ATOM     55  C   THR C   8      31.799  19.510  21.015  1.00 17.75 LIG 0.24  C 
ATOM     56  N   GLN C   9      32.820  20.225  21.470  1.00 18.17 LIG-0.35  N 
ATOM     57 H    GLN C   9      32.740  20.961  21.908  1.00 18.17 LIG 0.16  HD
ATOM     58 O    THR C   8      31.945  18.480  20.366  1.00 18.31 LIG-0.27  OA
BRANCH 56 59
ATOM     59  CA  GLN C   9      34.193  19.792  21.244  1.00 20.01 LIG 0.18  C 
BRANCH 59 60
ATOM     60  C   GLN C   9      34.629  18.889  22.400  1.00 23.96 LIG 0.24  C 
ATOM     61 O    GLN C   9      34.055  18.952  23.485  1.00 22.16 LIG-0.27  OA
ATOM     62  N   LEU C  10      35.643  18.059  22.164  1.00 18.63 LIG-0.34  N 
ATOM     63 H    LEU C  10      36.157  18.120  21.477  1.00 18.63 LIG 0.16  HD
BRANCH 62 64
ATOM     64  CA  LEU C  10      35.979  16.958  23.061  1.00 17.73 LIG 0.18  C 
BRANCH 64 65
ATOM     65  CB  LEU C  10      34.880  15.882  22.982  1.00 25.34 LIG 0.04  C 
BRANCH 65 66
ATOM     66  CG  LEU C  10      33.611  15.987  23.815  1.00 39.39 LIG-0.02  C 
ATOM     67  CD1 LEU C  10      32.482  15.175  23.218  1.00 48.08 LIG 0.01  C 
ATOM     68  CD2 LEU C  10      33.910  15.539  25.231  1.00 37.51 LIG 0.01  C 
ENDBRANCH 65 66
ENDBRANCH 64 65
BRANCH 64 69
ATOM     69  C   LEU C  10      37.302  16.317  22.697  1.00 24.54 LIG 0.20  C 
ATOM     70 O    LEU C  10      38.044  16.819  21.843  1.00 20.83 LIG-0.65  OA
ATOM     71 OXT  LEU C  10      37.638  15.250  23.223  1.00 16.98 LIG-0.65  OA
ENDBRANCH 64 69
ENDBRANCH 62 64
ENDBRANCH 59 60
BRANCH 59 72
ATOM     72  CB  GLN C   9      35.120  21.002  21.107  1.00 28.41 LIG 0.04  C 
BRANCH 72 73
ATOM     73  CG  GLN C   9      36.580  20.629  20.978  1.00 32.25 LIG 0.10  C 
BRANCH 73 74
ATOM     74  CD  GLN C   9      36.966  20.260  19.562  1.00 38.89 LIG 0.21  C 
ATOM     75 OE1  GLN C   9      36.636  20.967  18.604  1.00 37.39 LIG-0.27  OA
ATOM     76  NE2 GLN C   9      37.677  19.145  19.418  1.00 32.46 LIG-0.37  N 
ATOM     77 22HE GLN C   9      37.925  18.891  18.635  1.00 32.46 LIG 0.16  HD
ATOM     78 21HE GLN C   9      37.889  18.678  20.109  1.00 32.46 LIG 0.16  HD
ENDBRANCH 73 74
ENDBRANCH 72 73
ENDBRANCH 59 72
ENDBRANCH 56 59
ENDBRANCH 50 55
ENDBRANCH 48 50
ENDBRANCH 45 46
BRANCH 45 79
ATOM     79  CB  GLU C   7      31.540  21.751  25.810  1.00 23.92 LIG 0.04  C 
BRANCH 79 80
ATOM     80  CG  GLU C   7      33.055  21.826  25.652  1.00 19.46 LIG 0.12  C 
BRANCH 80 81
ATOM     81  CD  GLU C   7      33.493  22.712  24.495  1.00 36.59 LIG 0.17  C 
ATOM     82 OE1  GLU C   7      33.464  23.951  24.646  1.00 43.07 LIG-0.65  OA
ATOM     83 OE2  GLU C   7      33.876  22.170  23.435  1.00 30.47 LIG-0.65  OA
ENDBRANCH 80 81
ENDBRANCH 79 80
ENDBRANCH 45 79
ENDBRANCH 3 45
TORSDOF 33
ENDMDL
MODEL 10
USER: ADFR SOLUTION from run 58
USER: SCORE 18.867458 LL:  -4.814 LR: -16.233 RR:   0.000 FEB:  -6.389
USER: RMSD 7.669575
USER: SEED 57
USER: STATUS no improvement in best in 14 clusters for 5 generations
USER: GENES 35
USER: genes 0 Translation |==|  0.60276 0.65578 0.60378
USER: genes 1 Rotation |==|  0.08856 0.53776 0.35472 0.74122
USER: genes 2 Torsion [N]-C--CA-[N] |==|  0.44461
USER: genes 3 Torsion [C]-CA--CB-[CG] |==|  0.55920
USER: genes 4 Torsion [CA]-CB--CG-[CD] |==|  0.58453
USER: genes 5 Torsion [CB]-CG--CD-[NE] |==|  0.22108
USER: genes 6 Torsion [CG]-CD--NE-[HE] |==|  0.18710
USER: genes 7 Torsion [C]-CA--N-[C] |==|  0.64755
USER: genes 8 Torsion [N]-C--CA-[N] |==|  0.96328
USER: genes 9 Torsion [C]-CA--CB-[CG] |==|  0.26130
USER: genes 10 Torsion [CA]-CB--CG-[CD] |==|  0.59559
USER: genes 11 Torsion [CB]-CG--CD-[NE] |==|  0.06580
USER: genes 12 Torsion [CG]-CD--NE-[HE] |==|  0.79422
USER: genes 13 Torsion [C]-CA--N-[C] |==|  0.82516
USER: genes 14 Torsion [N]-C--CA-[N] |==|  0.72179
USER: genes 15 Torsion [C]-CA--CB-[CG2] |==|  0.47405
USER: genes 16 Torsion [CA]-CB--OG1-[HG1] |==|  0.54901
USER: genes 17 Torsion [C]-N--CA-[CB] |==|  0.25316
USER: genes 18 Torsion [N]-CA--C-[N] |==|  0.98286
USER: genes 19 Torsion [C]-N--CA-[CB] |==|  0.87222
USER: genes 20 Torsion [N]-CA--CB-[CG2] |==|  0.52681
USER: genes 21 Torsion [CA]-CB--OG1-[HG1] |==|  0.65714
USER: genes 22 Torsion [N]-CA--C-[N] |==|  0.89545
USER: genes 23 Torsion [C]-N--CA-[C] |==|  0.54409
USER: genes 24 Torsion [N]-CA--C-[N] |==|  0.88282
USER: genes 25 Torsion [C]-N--CA-[C] |==|  0.16198
USER: genes 26 Torsion [N]-CA--CB-[CG] |==|  0.51879
USER: genes 27 Torsion [CA]-CB--CG-[CD1] |==|  0.24653
USER: genes 28 Torsion [N]-CA--C-[O] |==|  0.00419
USER: genes 29 Torsion [N]-CA--CB-[CG] |==|  0.62371
USER: genes 30 Torsion [CA]-CB--CG-[CD] |==|  0.36541
USER: genes 31 Torsion [CB]-CG--CD-[NE2] |==|  0.86456
USER: genes 32 Torsion [N]-CA--CB-[CG] |==|  0.68419
USER: genes 33 Torsion [CA]-CB--CG-[CD] |==|  0.32259
USER: genes 34 Torsion [CB]-CG--CD-[OE1] |==|  0.42479
ROOT
ATOM      1  C   ARG C   6      25.914  22.633  26.725  1.00 27.90 LIG 0.24  C 
ATOM      2 O    ARG C   6      25.411  21.581  26.338  1.00 25.69 LIG-0.27  OA
ATOM      3  N   GLU C   7      27.219  22.874  26.663  1.00 23.63 LIG-0.35  N 
ATOM      4 H    GLU C   7      27.573  23.643  26.817  1.00 23.63 LIG 0.16  HD
ENDROOT
BRANCH 1 5
ATOM      5  CA  ARG C   6      25.042  23.749  27.301  1.00 28.24 LIG 0.18  C 
BRANCH 5 6
ATOM      6  CB  ARG C   6      25.159  23.747  28.826  1.00 28.37 LIG 0.04  C 
BRANCH 6 7
ATOM      7  CG  ARG C   6      24.004  24.425  29.528  1.00 35.92 LIG 0.02  C 
BRANCH 7 8
ATOM      8  CD  ARG C   6      24.461  25.047  30.833  1.00 41.81 LIG 0.14  C 
BRANCH 8 9
ATOM      9  NE  ARG C   6      25.128  26.325  30.594  1.00 46.88 LIG-0.23  N 
ATOM     10 HE   ARG C   6      24.652  26.978  30.298  1.00 46.88 LIG 0.18  HD
ATOM     11  CZ  ARG C   6      26.422  26.547  30.805  1.00 47.79 LIG 0.67  C 
ATOM     12  NH2 ARG C   6      26.938  27.745  30.563  1.00 52.15 LIG-0.23  N 
ATOM     13  NH1 ARG C   6      27.199  25.572  31.255  1.00 41.40 LIG-0.23  N 
ATOM     14 1HH2 ARG C   6      26.435  28.378  30.270  1.00 52.15 LIG 0.17  HD
ATOM     15 2HH2 ARG C   6      27.775  27.888  30.699  1.00 52.15 LIG 0.17  HD
ATOM     16 2HH1 ARG C   6      28.035  25.716  31.391  1.00 41.40 LIG 0.17  HD
ATOM     17 1HH1 ARG C   6      26.866  24.795  31.412  1.00 41.40 LIG 0.17  HD
ENDBRANCH 8 9
ENDBRANCH 7 8
ENDBRANCH 6 7
ENDBRANCH 5 6
BRANCH 5 18
ATOM     18  N   ARG C   6      23.648  23.597  26.908  1.00 41.74 LIG-0.35  N 
ATOM     19  C   ARG C   5      22.965  24.580  26.329  1.00 53.56 LIG 0.24  C 
ATOM     20 O    ARG C   5      23.451  25.684  26.089  1.00 51.79 LIG-0.27  OA
ATOM     21 H    ARG C   6      23.315  22.824  27.084  1.00 41.74 LIG 0.16  HD
BRANCH 19 22
ATOM     22  CA  ARG C   5      21.521  24.253  25.946  1.00 62.48 LIG 0.18  C 
BRANCH 22 23
ATOM     23  CB  ARG C   5      20.566  25.061  26.829  1.00 65.36 LIG 0.04  C 
BRANCH 23 24
ATOM     24  CG  ARG C   5      20.124  26.378  26.193  1.00 67.86 LIG 0.02  C 
BRANCH 24 25
ATOM     25  CD  ARG C   5      19.937  27.471  27.233  1.00 67.74 LIG 0.14  C 
BRANCH 25 26
ATOM     26  NE  ARG C   5      20.720  27.205  28.435  1.00 69.26 LIG-0.23  N 
ATOM     27 HE   ARG C   5      20.444  26.587  28.966  1.00 69.26 LIG 0.18  HD
ATOM     28  CZ  ARG C   5      21.831  27.853  28.762  1.00 72.53 LIG 0.67  C 
ATOM     29  NH1 ARG C   5      22.474  27.547  29.882  1.00 70.69 LIG-0.23  N 
ATOM     30  NH2 ARG C   5      22.302  28.807  27.968  1.00 74.37 LIG-0.23  N 
ATOM     31 2HH1 ARG C   5      23.194  27.967  30.093  1.00 70.69 LIG 0.17  HD
ATOM     32 1HH1 ARG C   5      22.171  26.928  30.396  1.00 70.69 LIG 0.17  HD
ATOM     33 1HH2 ARG C   5      21.887  29.005  27.242  1.00 74.37 LIG 0.17  HD
ATOM     34 2HH2 ARG C   5      23.021  29.227  28.180  1.00 74.37 LIG 0.17  HD
ENDBRANCH 25 26
ENDBRANCH 24 25
ENDBRANCH 23 24
ENDBRANCH 22 23
BRANCH 22 35
ATOM     35  N   ARG C   5      21.208  22.824  25.998  1.00 62.98 LIG-0.35  N 
ATOM     36  C   THR C   4      21.828  21.957  25.200  1.00 71.37 LIG 0.26  C 
ATOM     37 O    THR C   4      22.716  22.296  24.415  1.00 72.41 LIG-0.27  OA
ATOM     38 H    ARG C   5      20.608  22.608  26.574  1.00 62.98 LIG 0.16  HD
BRANCH 36 39
ATOM     39  CA  THR C   4      21.390  20.493  25.295  1.00 77.23 LIG 0.43  C 
ATOM     40  N   THR C   4      22.321  19.716  26.107  1.00 78.75 LIG 0.62  N 
BRANCH 39 41
ATOM     41  CB  THR C   4      19.947  20.429  25.861  1.00 73.87 LIG 0.16  C 
ATOM     42  CG2 THR C   4      19.384  19.017  25.759  1.00 73.94 LIG 0.04  C 
BRANCH 41 43
ATOM     43 OG1  THR C   4      19.940  20.846  27.232  1.00 74.59 LIG-0.39  OA
ATOM     44 HG1  THR C   4      19.230  20.588  27.600  1.00 74.59 LIG 0.21  HD
ENDBRANCH 41 43
ENDBRANCH 39 41
ENDBRANCH 36 39
ENDBRANCH 22 35
ENDBRANCH 19 22
ENDBRANCH 5 18
ENDBRANCH 1 5
BRANCH 3 45
ATOM     45  CA  GLU C   7      28.175  21.830  26.320  1.00 24.11 LIG 0.18  C 
BRANCH 45 46
ATOM     46  C   GLU C   7      29.478  22.093  27.058  1.00 31.12 LIG 0.24  C 
ATOM     47 O    GLU C   7      30.396  21.275  27.017  1.00 26.64 LIG-0.27  OA
ATOM     48  N   THR C   8      29.558  23.230  27.740  1.00 26.11 LIG-0.34  N 
ATOM     49 H    THR C   8      28.921  23.806  27.797  1.00 26.11 LIG 0.16  HD
BRANCH 48 50
ATOM     50  CA  THR C   8      30.775  23.591  28.461  1.00 18.32 LIG 0.20  C 
BRANCH 50 51
ATOM     51  CB  THR C   8      31.311  22.402  29.278  1.00 19.43 LIG 0.15  C 
ATOM     52  CG2 THR C   8      32.432  22.851  30.205  1.00 20.66 LIG 0.04  C 
BRANCH 51 53
ATOM     53 OG1  THR C   8      30.244  21.852  30.055  1.00 16.70 LIG-0.39  OA
ATOM     54 HG1  THR C   8      30.458  21.854  30.867  1.00 16.70 LIG 0.21  HD
ENDBRANCH 51 53
ENDBRANCH 50 51
BRANCH 50 55
ATOM     55  C   THR C   8      31.871  24.051  27.526  1.00 17.75 LIG 0.24  C 
ATOM     56  N   GLN C   9      31.966  23.412  26.367  1.00 18.17 LIG-0.35  N 
ATOM     57 H    GLN C   9      31.473  22.745  26.139  1.00 18.17 LIG 0.16  HD
ATOM     58 O    THR C   8      32.609  24.980  27.836  1.00 18.31 LIG-0.27  OA
BRANCH 56 59
ATOM     59  CA  GLN C   9      32.950  23.817  25.370  1.00 20.01 LIG 0.18  C 
BRANCH 59 60
ATOM     60  C   GLN C   9      32.581  23.196  24.022  1.00 23.96 LIG 0.24  C 
ATOM     61 O    GLN C   9      32.661  23.860  22.991  1.00 22.16 LIG-0.27  OA
ATOM     62  N   LEU C  10      32.175  21.927  24.037  1.00 18.63 LIG-0.34  N 
ATOM     63 H    LEU C  10      31.955  21.506  24.754  1.00 18.63 LIG 0.16  HD
BRANCH 62 64
ATOM     64  CA  LEU C  10      32.064  21.126  22.822  1.00 17.73 LIG 0.18  C 
BRANCH 64 65
ATOM     65  CB  LEU C  10      31.028  21.768  21.880  1.00 25.34 LIG 0.04  C 
BRANCH 65 66
ATOM     66  CG  LEU C  10      30.588  21.073  20.601  1.00 39.39 LIG-0.02  C 
ATOM     67  CD1 LEU C  10      29.408  20.154  20.841  1.00 48.08 LIG 0.01  C 
ATOM     68  CD2 LEU C  10      30.255  22.119  19.557  1.00 37.51 LIG 0.01  C 
ENDBRANCH 65 66
ENDBRANCH 64 65
BRANCH 64 69
ATOM     69  C   LEU C  10      33.384  21.031  22.086  1.00 24.54 LIG 0.20  C 
ATOM     70 O    LEU C  10      34.406  21.567  22.532  1.00 20.83 LIG-0.65  OA
ATOM     71 OXT  LEU C  10      33.445  20.448  20.998  1.00 16.98 LIG-0.65  OA
ENDBRANCH 64 69
ENDBRANCH 62 64
ENDBRANCH 59 60
BRANCH 59 72
ATOM     72  CB  GLN C   9      34.356  23.400  25.807  1.00 28.41 LIG 0.04  C 
BRANCH 72 73
ATOM     73  CG  GLN C   9      35.392  24.483  25.607  1.00 32.25 LIG 0.10  C 
BRANCH 73 74
ATOM     74  CD  GLN C   9      36.254  24.700  26.833  1.00 38.89 LIG 0.21  C 
ATOM     75 OE1  GLN C   9      37.486  24.752  26.747  1.00 37.39 LIG-0.27  OA
ATOM     76  NE2 GLN C   9      35.610  24.834  27.988  1.00 32.46 LIG-0.37  N 
ATOM     77 22HE GLN C   9      36.051  24.963  28.714  1.00 32.46 LIG 0.16  HD
ATOM     78 21HE GLN C   9      34.751  24.792  28.009  1.00 32.46 LIG 0.16  HD
ENDBRANCH 73 74
ENDBRANCH 72 73
ENDBRANCH 59 72
ENDBRANCH 56 59
ENDBRANCH 50 55
ENDBRANCH 48 50
ENDBRANCH 45 46
BRANCH 45 79
ATOM     79  CB  GLU C   7      28.434  21.784  24.813  1.00 23.92 LIG 0.04  C 
BRANCH 79 80
ATOM     80  CG  GLU C   7      27.938  20.509  24.141  1.00 19.46 LIG 0.12  C 
BRANCH 80 81
ATOM     81  CD  GLU C   7      26.833  20.759  23.125  1.00 36.59 LIG 0.17  C 
ATOM     82 OE1  GLU C   7      26.698  19.958  22.178  1.00 43.07 LIG-0.65  OA
ATOM     83 OE2  GLU C   7      26.090  21.753  23.279  1.00 30.47 LIG-0.65  OA
ENDBRANCH 80 81
ENDBRANCH 79 80
ENDBRANCH 45 79
ENDBRANCH 3 45
TORSDOF 33
ENDMDL
