MODEL 1
USER: ADFR SOLUTION from run 99
USER: SCORE 15.965008 LL:  -2.988 LR: -14.480 RR:   0.000 FEB:  -7.917
USER: RMSD 11.739903
USER: SEED 98
USER: STATUS no improvement in best in 7 clusters for 5 generations
USER: GENES 24
USER: genes 0 Translation |==|  0.66388 0.87274 0.45048
USER: genes 1 Rotation |==|  0.15981 0.85833 0.47813 0.57340
USER: genes 2 Torsion [C]-N--CA-[CB] |==|  0.17238
USER: genes 3 Torsion [N]-CA--CB-[CG2] |==|  0.18340
USER: genes 4 Torsion [CA]-CB--OG1-[HG1] |==|  0.03803
USER: genes 5 Torsion [N]-CA--C-[N] |==|  0.47178
USER: genes 6 Torsion [C]-N--CA-[C] |==|  0.69352
USER: genes 7 Torsion [N]-CA--CB-[CG] |==|  0.49357
USER: genes 8 Torsion [CA]-CB--CG-[CD] |==|  0.61029
USER: genes 9 Torsion [CB]-CG--CD-[OE1] |==|  0.22927
USER: genes 10 Torsion [N]-CA--C-[N] |==|  0.00501
USER: genes 11 Torsion [C]-N--CA-[CB] |==|  0.24420
USER: genes 12 Torsion [N]-CA--CB-[CG2] |==|  0.04624
USER: genes 13 Torsion [N]-CA--C-[OXT] |==|  0.85273
USER: genes 14 Torsion [N]-C--CA-[N] |==|  0.83333
USER: genes 15 Torsion [C]-CA--N-[C] |==|  0.72441
USER: genes 16 Torsion [N]-C--CA-[N] |==|  0.20653
USER: genes 17 Torsion [C]-CA--CB-[CG] |==|  0.28355
USER: genes 18 Torsion [CA]-CB--CG-[CD] |==|  0.61525
USER: genes 19 Torsion [CB]-CG--CD-[NE] |==|  0.61319
USER: genes 20 Torsion [CG]-CD--NE-[HE] |==|  0.14847
USER: genes 21 Torsion [C]-CA--CB-[CG] |==|  0.02851
USER: genes 22 Torsion [CA]-CB--CG-[CD] |==|  0.24857
USER: genes 23 Torsion [CB]-CG--CD-[OE2] |==|  0.76628
ROOT
ATOM      1  C   GLU D   7      25.114  33.594   1.637  1.00 11.94 LIG 0.24  C 
ATOM      2 O    GLU D   7      25.449  33.884   0.489  1.00 14.56 LIG-0.27  OA
ATOM      3  N   THR D   8      24.749  32.364   1.995  1.00  6.63 LIG-0.34  N 
ATOM      4 H    THR D   8      24.532  32.144   2.798  1.00  6.63 LIG 0.16  HD
ENDROOT
BRANCH 3 5
ATOM      5  CA  THR D   8      24.686  31.268   1.036  1.00  8.00 LIG 0.20  C 
BRANCH 5 6
ATOM      6  CB  THR D   8      26.069  30.981   0.431  1.00  7.16 LIG 0.15  C 
ATOM      7  CG2 THR D   8      27.028  30.454   1.488  1.00  8.54 LIG 0.04  C 
BRANCH 6 8
ATOM      8 OG1  THR D   8      25.932  29.998  -0.612  1.00  7.76 LIG-0.39  OA
ATOM      9 HG1  THR D   8      25.120  29.914  -0.813  1.00  7.76 LIG 0.21  HD
ENDBRANCH 6 8
ENDBRANCH 5 6
BRANCH 5 10
ATOM     10  C   THR D   8      24.166  29.994   1.697  1.00  6.30 LIG 0.24  C 
ATOM     11 O    THR D   8      24.035  29.926   2.927  1.00  7.25 LIG-0.27  OA
ATOM     12  N   GLN D   9      23.868  28.988   0.878  1.00  7.34 LIG-0.35  N 
ATOM     13 H    GLN D   9      23.881  29.047   0.021  1.00  7.34 LIG 0.16  HD
BRANCH 12 14
ATOM     14  CA  GLN D   9      23.489  27.679   1.384  1.00  6.42 LIG 0.18  C 
BRANCH 14 15
ATOM     15  CB  GLN D   9      22.199  27.233   0.698  1.00  8.55 LIG 0.04  C 
BRANCH 15 16
ATOM     16  CG  GLN D   9      21.728  25.860   1.099  1.00 10.19 LIG 0.10  C 
BRANCH 16 17
ATOM     17  CD  GLN D   9      21.177  25.068  -0.075  1.00 10.51 LIG 0.21  C 
ATOM     18 OE1  GLN D   9      21.926  24.454  -0.847  1.00 10.16 LIG-0.27  OA
ATOM     19  NE2 GLN D   9      19.853  25.068  -0.205  1.00 11.61 LIG-0.37  N 
ATOM     20 22HE GLN D   9      19.484  24.629  -0.846  1.00 11.61 LIG 0.16  HD
ATOM     21 21HE GLN D   9      19.367  25.507   0.353  1.00 11.61 LIG 0.16  HD
ENDBRANCH 16 17
ENDBRANCH 15 16
ENDBRANCH 14 15
BRANCH 14 22
ATOM     22  C   GLN D   9      24.593  26.691   1.086  1.00  5.32 LIG 0.24  C 
ATOM     23 O    GLN D   9      24.468  25.513   1.402  1.00  6.01 LIG-0.27  OA
ATOM     24  N   VAL D  10      25.683  27.167   0.478  1.00  6.34 LIG-0.34  N 
ATOM     25 H    VAL D  10      25.783  27.990   0.249  1.00  6.34 LIG 0.16  HD
BRANCH 24 26
ATOM     26  CA  VAL D  10      26.816  26.307   0.148  1.00  7.66 LIG 0.19  C 
BRANCH 26 27
ATOM     27  CB  VAL D  10      26.659  25.637  -1.240  1.00  6.96 LIG 0.01  C 
ATOM     28  CG1 VAL D  10      26.289  24.177  -1.082  1.00  7.91 LIG 0.01  C 
ATOM     29  CG2 VAL D  10      25.586  26.352  -2.070  1.00  7.70 LIG 0.01  C 
ENDBRANCH 26 27
BRANCH 26 30
ATOM     30  C   VAL D  10      28.137  27.069   0.172  1.00  6.04 LIG 0.20  C 
ATOM     31 OXT  VAL D  10      28.284  28.110  -0.478  1.00  6.83 LIG-0.65  OA
ATOM     32 O    VAL D  10      29.069  26.619   0.845  1.00  6.68 LIG-0.65  OA
ENDBRANCH 26 30
ENDBRANCH 24 26
ENDBRANCH 14 22
ENDBRANCH 12 14
ENDBRANCH 5 10
ENDBRANCH 3 5
BRANCH 1 33
ATOM     33  CA  GLU D   7      25.120  34.655   2.730  1.00 10.87 LIG 0.18  C 
BRANCH 33 34
ATOM     34  N   GLU D   7      23.774  34.783   3.282  1.00 12.61 LIG-0.35  N 
ATOM     35  C   ARG D   6      22.952  35.756   2.900  1.00 15.63 LIG 0.26  C 
ATOM     36 O    ARG D   6      23.238  36.565   2.021  1.00 17.14 LIG-0.27  OA
ATOM     37 H    GLU D   7      23.570  34.183   3.862  1.00 12.61 LIG 0.16  HD
BRANCH 35 38
ATOM     38  CA  ARG D   6      21.609  35.835   3.618  1.00 20.39 LIG 0.40  C 
ATOM     39  N   ARG D   6      21.753  36.366   4.970  1.00 31.26 LIG 0.61  N 
BRANCH 38 40
ATOM     40  CB  ARG D   6      20.608  36.669   2.817  1.00 20.29 LIG 0.05  C 
BRANCH 40 41
ATOM     41  CG  ARG D   6      19.595  35.834   2.053  1.00 28.41 LIG 0.02  C 
BRANCH 41 42
ATOM     42  CD  ARG D   6      19.344  36.388   0.656  1.00 36.78 LIG 0.14  C 
BRANCH 42 43
ATOM     43  NE  ARG D   6      17.935  36.342   0.271  1.00 40.20 LIG-0.23  N 
ATOM     44  CZ  ARG D   6      17.488  35.778  -0.847  1.00 47.18 LIG 0.67  C 
ATOM     45  NH2 ARG D   6      16.190  35.780  -1.125  1.00 45.83 LIG-0.23  N 
ATOM     46  NH1 ARG D   6      18.341  35.214  -1.693  1.00 52.71 LIG-0.23  N 
ATOM     47 1HH2 ARG D   6      15.634  36.146  -0.581  1.00 45.83 LIG 0.17  HD
ATOM     48 2HH2 ARG D   6      15.905  35.414  -1.849  1.00 45.83 LIG 0.17  HD
ATOM     49 1HH1 ARG D   6      19.183  35.213  -1.518  1.00 52.71 LIG 0.17  HD
ATOM     50 2HH1 ARG D   6      18.052  34.849  -2.415  1.00 52.71 LIG 0.17  HD
ATOM     51 HE   ARG D   6      17.361  36.702   0.801  1.00 40.20 LIG 0.18  HD
ENDBRANCH 42 43
ENDBRANCH 41 42
ENDBRANCH 40 41
ENDBRANCH 38 40
ENDBRANCH 35 38
ENDBRANCH 33 34
BRANCH 33 52
ATOM     52  CB  GLU D   7      26.099  34.273   3.836  1.00 13.53 LIG 0.04  C 
BRANCH 52 53
ATOM     53  CG  GLU D   7      26.999  33.106   3.508  1.00 15.67 LIG 0.12  C 
BRANCH 53 54
ATOM     54  CD  GLU D   7      28.283  33.556   2.836  1.00 22.62 LIG 0.17  C 
ATOM     55 OE2  GLU D   7      28.282  33.747   1.605  1.00 20.96 LIG-0.65  OA
ATOM     56 OE1  GLU D   7      29.292  33.745   3.549  1.00 32.46 LIG-0.65  OA
ENDBRANCH 53 54
ENDBRANCH 52 53
ENDBRANCH 33 52
ENDBRANCH 1 33
TORSDOF 22
ENDMDL
MODEL 2
USER: ADFR SOLUTION from run 114
USER: SCORE 17.268713 LL:  -3.879 LR: -14.046 RR:   0.000 FEB:  -7.483
USER: RMSD 7.383350
USER: SEED 113
USER: STATUS no improvement in best in 4 clusters for 5 generations
USER: GENES 24
USER: genes 0 Translation |==|  0.39224 0.55418 0.38861
USER: genes 1 Rotation |==|  0.01843 0.57895 0.40489 0.55303
USER: genes 2 Torsion [C]-N--CA-[CB] |==|  0.80000
USER: genes 3 Torsion [N]-CA--CB-[CG2] |==|  0.63445
USER: genes 4 Torsion [CA]-CB--OG1-[HG1] |==|  0.25053
USER: genes 5 Torsion [N]-CA--C-[N] |==|  0.19473
USER: genes 6 Torsion [C]-N--CA-[C] |==|  0.79795
USER: genes 7 Torsion [N]-CA--CB-[CG] |==|  0.37681
USER: genes 8 Torsion [CA]-CB--CG-[CD] |==|  0.28158
USER: genes 9 Torsion [CB]-CG--CD-[OE1] |==|  0.30067
USER: genes 10 Torsion [N]-CA--C-[N] |==|  0.40102
USER: genes 11 Torsion [C]-N--CA-[CB] |==|  0.30898
USER: genes 12 Torsion [N]-CA--CB-[CG2] |==|  0.01621
USER: genes 13 Torsion [N]-CA--C-[OXT] |==|  0.47997
USER: genes 14 Torsion [N]-C--CA-[N] |==|  0.38126
USER: genes 15 Torsion [C]-CA--N-[C] |==|  0.62712
USER: genes 16 Torsion [N]-C--CA-[N] |==|  0.34527
USER: genes 17 Torsion [C]-CA--CB-[CG] |==|  0.59636
USER: genes 18 Torsion [CA]-CB--CG-[CD] |==|  0.59126
USER: genes 19 Torsion [CB]-CG--CD-[NE] |==|  0.27005
USER: genes 20 Torsion [CG]-CD--NE-[HE] |==|  0.97802
USER: genes 21 Torsion [C]-CA--CB-[CG] |==|  0.79028
USER: genes 22 Torsion [CA]-CB--CG-[CD] |==|  0.77598
USER: genes 23 Torsion [CB]-CG--CD-[OE2] |==|  0.77371
ROOT
ATOM      1  C   GLU D   7      19.002  25.710   0.523  1.00 11.94 LIG 0.24  C 
ATOM      2 O    GLU D   7      19.384  25.930  -0.626  1.00 14.56 LIG-0.27  OA
ATOM      3  N   THR D   8      19.743  25.059   1.420  1.00  6.63 LIG-0.34  N 
ATOM      4 H    THR D   8      19.497  24.916   2.231  1.00  6.63 LIG 0.16  HD
ENDROOT
BRANCH 3 5
ATOM      5  CA  THR D   8      21.059  24.526   1.090  1.00  8.00 LIG 0.20  C 
BRANCH 5 6
ATOM      6  CB  THR D   8      20.946  23.300   0.171  1.00  7.16 LIG 0.15  C 
ATOM      7  CG2 THR D   8      21.802  22.152   0.687  1.00  8.54 LIG 0.04  C 
BRANCH 6 8
ATOM      8 OG1  THR D   8      19.572  22.875   0.118  1.00  7.76 LIG-0.39  OA
ATOM      9 HG1  THR D   8      19.182  23.267  -0.515  1.00  7.76 LIG 0.21  HD
ENDBRANCH 6 8
ENDBRANCH 5 6
BRANCH 5 10
ATOM     10  C   THR D   8      21.918  25.581   0.397  1.00  6.30 LIG 0.24  C 
ATOM     11 O    THR D   8      22.198  25.478  -0.806  1.00  7.25 LIG-0.27  OA
ATOM     12  N   GLN D   9      22.330  26.593   1.155  1.00  7.34 LIG-0.35  N 
ATOM     13 H    GLN D   9      22.080  26.717   1.968  1.00  7.34 LIG 0.16  HD
BRANCH 12 14
ATOM     14  CA  GLN D   9      23.259  27.593   0.653  1.00  6.42 LIG 0.18  C 
BRANCH 14 15
ATOM     15  CB  GLN D   9      23.293  28.774   1.623  1.00  8.55 LIG 0.04  C 
BRANCH 15 16
ATOM     16  CG  GLN D   9      24.677  29.284   1.927  1.00 10.19 LIG 0.10  C 
BRANCH 16 17
ATOM     17  CD  GLN D   9      25.014  30.546   1.151  1.00 10.51 LIG 0.21  C 
ATOM     18 OE1  GLN D   9      25.086  31.648   1.712  1.00 10.16 LIG-0.27  OA
ATOM     19  NE2 GLN D   9      25.237  30.386  -0.150  1.00 11.61 LIG-0.37  N 
ATOM     20 22HE GLN D   9      25.442  31.064  -0.639  1.00 11.61 LIG 0.16  HD
ATOM     21 21HE GLN D   9      25.177  29.603  -0.504  1.00 11.61 LIG 0.16  HD
ENDBRANCH 16 17
ENDBRANCH 15 16
ENDBRANCH 14 15
BRANCH 14 22
ATOM     22  C   GLN D   9      24.637  26.982   0.545  1.00  5.32 LIG 0.24  C 
ATOM     23 O    GLN D   9      25.016  26.164   1.375  1.00  6.01 LIG-0.27  OA
ATOM     24  N   VAL D  10      25.396  27.382  -0.478  1.00  6.34 LIG-0.34  N 
ATOM     25 H    VAL D  10      25.144  27.954  -1.069  1.00  6.34 LIG 0.16  HD
BRANCH 24 26
ATOM     26  CA  VAL D  10      26.749  26.867  -0.679  1.00  7.66 LIG 0.19  C 
BRANCH 26 27
ATOM     27  CB  VAL D  10      26.852  25.965  -1.934  1.00  6.96 LIG 0.01  C 
ATOM     28  CG1 VAL D  10      27.201  24.546  -1.536  1.00  7.91 LIG 0.01  C 
ATOM     29  CG2 VAL D  10      25.533  25.969  -2.716  1.00  7.70 LIG 0.01  C 
ENDBRANCH 26 27
BRANCH 26 30
ATOM     30  C   VAL D  10      27.774  27.989  -0.803  1.00  6.04 LIG 0.20  C 
ATOM     31 OXT  VAL D  10      28.985  27.744  -0.845  1.00  6.83 LIG-0.65  OA
ATOM     32 O    VAL D  10      27.373  29.156  -0.848  1.00  6.68 LIG-0.65  OA
ENDBRANCH 26 30
ENDBRANCH 24 26
ENDBRANCH 14 22
ENDBRANCH 12 14
ENDBRANCH 5 10
ENDBRANCH 3 5
BRANCH 1 33
ATOM     33  CA  GLU D   7      17.637  26.201   0.987  1.00 10.87 LIG 0.18  C 
BRANCH 33 34
ATOM     34  N   GLU D   7      17.418  27.555   0.485  1.00 12.61 LIG-0.35  N 
ATOM     35  C   ARG D   6      16.943  28.521   1.265  1.00 15.63 LIG 0.26  C 
ATOM     36 O    ARG D   6      16.721  28.363   2.463  1.00 17.14 LIG-0.27  OA
ATOM     37 H    GLU D   7      17.621  27.663  -0.343  1.00 12.61 LIG 0.16  HD
BRANCH 35 38
ATOM     38  CA  ARG D   6      16.673  29.865   0.598  1.00 20.39 LIG 0.40  C 
ATOM     39  N   ARG D   6      15.292  30.296   0.798  1.00 31.26 LIG 0.61  N 
BRANCH 38 40
ATOM     40  CB  ARG D   6      17.647  30.932   1.101  1.00 20.29 LIG 0.05  C 
BRANCH 40 41
ATOM     41  CG  ARG D   6      17.032  32.317   1.201  1.00 28.41 LIG 0.02  C 
BRANCH 41 42
ATOM     42  CD  ARG D   6      18.052  33.411   0.908  1.00 36.78 LIG 0.14  C 
BRANCH 42 43
ATOM     43  NE  ARG D   6      17.993  33.887  -0.472  1.00 40.20 LIG-0.23  N 
ATOM     44  CZ  ARG D   6      18.673  34.936  -0.926  1.00 47.18 LIG 0.67  C 
ATOM     45  NH2 ARG D   6      18.564  35.307  -2.196  1.00 45.83 LIG-0.23  N 
ATOM     46  NH1 ARG D   6      19.464  35.619  -0.107  1.00 52.71 LIG-0.23  N 
ATOM     47 1HH2 ARG D   6      18.052  34.869  -2.729  1.00 45.83 LIG 0.17  HD
ATOM     48 2HH2 ARG D   6      19.006  35.986  -2.485  1.00 45.83 LIG 0.17  HD
ATOM     49 1HH1 ARG D   6      19.535  35.384   0.717  1.00 52.71 LIG 0.17  HD
ATOM     50 2HH1 ARG D   6      19.904  36.297  -0.400  1.00 52.71 LIG 0.17  HD
ATOM     51 HE   ARG D   6      17.487  33.464  -1.024  1.00 40.20 LIG 0.18  HD
ENDBRANCH 42 43
ENDBRANCH 41 42
ENDBRANCH 40 41
ENDBRANCH 38 40
ENDBRANCH 35 38
ENDBRANCH 33 34
BRANCH 33 52
ATOM     52  CB  GLU D   7      16.538  25.275   0.477  1.00 13.53 LIG 0.04  C 
BRANCH 52 53
ATOM     53  CG  GLU D   7      16.210  25.432  -0.989  1.00 15.67 LIG 0.12  C 
BRANCH 53 54
ATOM     54  CD  GLU D   7      15.292  26.614  -1.238  1.00 22.62 LIG 0.17  C 
ATOM     55 OE2  GLU D   7      14.067  26.473  -1.054  1.00 20.96 LIG-0.65  OA
ATOM     56 OE1  GLU D   7      15.802  27.698  -1.593  1.00 32.46 LIG-0.65  OA
ENDBRANCH 53 54
ENDBRANCH 52 53
ENDBRANCH 33 52
ENDBRANCH 1 33
TORSDOF 22
ENDMDL
MODEL 3
USER: ADFR SOLUTION from run 48
USER: SCORE 16.578099 LL:  -3.594 LR: -13.811 RR:   0.000 FEB:  -7.248
USER: RMSD 7.091309
USER: SEED 47
USER: STATUS no improvement in best in 15 clusters for 5 generations
USER: GENES 24
USER: genes 0 Translation |==|  0.43242 0.52793 0.38366
USER: genes 1 Rotation |==|  0.90385 0.73860 0.60251 0.63953
USER: genes 2 Torsion [C]-N--CA-[CB] |==|  0.53889
USER: genes 3 Torsion [N]-CA--CB-[CG2] |==|  0.52645
USER: genes 4 Torsion [CA]-CB--OG1-[HG1] |==|  0.90281
USER: genes 5 Torsion [N]-CA--C-[N] |==|  0.37240
USER: genes 6 Torsion [C]-N--CA-[C] |==|  0.76802
USER: genes 7 Torsion [N]-CA--CB-[CG] |==|  0.48931
USER: genes 8 Torsion [CA]-CB--CG-[CD] |==|  0.13713
USER: genes 9 Torsion [CB]-CG--CD-[OE1] |==|  0.14527
USER: genes 10 Torsion [N]-CA--C-[N] |==|  0.85170
USER: genes 11 Torsion [C]-N--CA-[CB] |==|  0.18178
USER: genes 12 Torsion [N]-CA--CB-[CG2] |==|  0.04578
USER: genes 13 Torsion [N]-CA--C-[OXT] |==|  0.51520
USER: genes 14 Torsion [N]-C--CA-[N] |==|  0.13620
USER: genes 15 Torsion [C]-CA--N-[C] |==|  0.14662
USER: genes 16 Torsion [N]-C--CA-[N] |==|  0.16198
USER: genes 17 Torsion [C]-CA--CB-[CG] |==|  0.40513
USER: genes 18 Torsion [CA]-CB--CG-[CD] |==|  0.58506
USER: genes 19 Torsion [CB]-CG--CD-[NE] |==|  0.72262
USER: genes 20 Torsion [CG]-CD--NE-[HE] |==|  0.03507
USER: genes 21 Torsion [C]-CA--CB-[CG] |==|  0.48828
USER: genes 22 Torsion [CA]-CB--CG-[CD] |==|  0.25781
USER: genes 23 Torsion [CB]-CG--CD-[OE2] |==|  0.74990
ROOT
ATOM      1  C   GLU D   7      19.906  25.060   0.434  1.00 11.94 LIG 0.24  C 
ATOM      2 O    GLU D   7      20.580  24.640  -0.505  1.00 14.56 LIG-0.27  OA
ATOM      3  N   THR D   8      20.195  26.188   1.083  1.00  6.63 LIG-0.34  N 
ATOM      4 H    THR D   8      19.721  26.503   1.728  1.00  6.63 LIG 0.16  HD
ENDROOT
BRANCH 3 5
ATOM      5  CA  THR D   8      21.361  26.994   0.747  1.00  8.00 LIG 0.20  C 
BRANCH 5 6
ATOM      6  CB  THR D   8      21.657  28.027   1.845  1.00  7.16 LIG 0.15  C 
ATOM      7  CG2 THR D   8      22.721  29.015   1.391  1.00  8.54 LIG 0.04  C 
BRANCH 6 8
ATOM      8 OG1  THR D   8      20.448  28.746   2.153  1.00  7.76 LIG-0.39  OA
ATOM      9 HG1  THR D   8      19.994  28.844   1.453  1.00  7.76 LIG 0.21  HD
ENDBRANCH 6 8
ENDBRANCH 5 6
BRANCH 5 10
ATOM     10  C   THR D   8      22.596  26.115   0.557  1.00  6.30 LIG 0.24  C 
ATOM     11 O    THR D   8      22.865  25.218   1.368  1.00  7.25 LIG-0.27  OA
ATOM     12  N   GLN D   9      23.340  26.372  -0.515  1.00  7.34 LIG-0.35  N 
ATOM     13 H    GLN D   9      23.124  26.938  -1.125  1.00  7.34 LIG 0.16  HD
BRANCH 12 14
ATOM     14  CA  GLN D   9      24.608  25.699  -0.744  1.00  6.42 LIG 0.18  C 
BRANCH 14 15
ATOM     15  CB  GLN D   9      24.929  25.732  -2.237  1.00  8.55 LIG 0.04  C 
BRANCH 15 16
ATOM     16  CG  GLN D   9      26.269  25.143  -2.594  1.00 10.19 LIG 0.10  C 
BRANCH 16 17
ATOM     17  CD  GLN D   9      26.489  23.776  -1.968  1.00 10.51 LIG 0.21  C 
ATOM     18 OE1  GLN D   9      25.660  22.866  -2.099  1.00 10.16 LIG-0.27  OA
ATOM     19  NE2 GLN D   9      27.624  23.624  -1.291  1.00 11.61 LIG-0.37  N 
ATOM     20 22HE GLN D   9      27.807  22.869  -0.922  1.00 11.61 LIG 0.16  HD
ATOM     21 21HE GLN D   9      28.175  24.282  -1.222  1.00 11.61 LIG 0.16  HD
ENDBRANCH 16 17
ENDBRANCH 15 16
ENDBRANCH 14 15
BRANCH 14 22
ATOM     22  C   GLN D   9      25.696  26.411   0.028  1.00  5.32 LIG 0.24  C 
ATOM     23 O    GLN D   9      26.415  25.786   0.798  1.00  6.01 LIG-0.27  OA
ATOM     24  N   VAL D  10      25.817  27.726  -0.173  1.00  6.34 LIG-0.34  N 
ATOM     25 H    VAL D  10      25.321  28.177  -0.711  1.00  6.34 LIG 0.16  HD
BRANCH 24 26
ATOM     26  CA  VAL D  10      26.827  28.519   0.524  1.00  7.66 LIG 0.19  C 
BRANCH 26 27
ATOM     27  CB  VAL D  10      28.268  28.122   0.117  1.00  6.96 LIG 0.01  C 
ATOM     28  CG1 VAL D  10      28.924  27.316   1.218  1.00  7.91 LIG 0.01  C 
ATOM     29  CG2 VAL D  10      28.261  27.307  -1.182  1.00  7.70 LIG 0.01  C 
ENDBRANCH 26 27
BRANCH 26 30
ATOM     30  C   VAL D  10      26.647  30.014   0.278  1.00  6.04 LIG 0.20  C 
ATOM     31 OXT  VAL D  10      27.468  30.833   0.705  1.00  6.83 LIG-0.65  OA
ATOM     32 O    VAL D  10      25.654  30.396  -0.348  1.00  6.68 LIG-0.65  OA
ENDBRANCH 26 30
ENDBRANCH 24 26
ENDBRANCH 14 22
ENDBRANCH 12 14
ENDBRANCH 5 10
ENDBRANCH 3 5
BRANCH 1 33
ATOM     33  CA  GLU D   7      18.670  24.299   0.895  1.00 10.87 LIG 0.18  C 
BRANCH 33 34
ATOM     34  N   GLU D   7      17.546  25.226   0.997  1.00 12.61 LIG-0.35  N 
ATOM     35  C   ARG D   6      17.197  26.015  -0.015  1.00 15.63 LIG 0.26  C 
ATOM     36 O    ARG D   6      17.744  25.973  -1.114  1.00 17.14 LIG-0.27  OA
ATOM     37 H    GLU D   7      17.143  25.212   1.756  1.00 12.61 LIG 0.16  HD
BRANCH 35 38
ATOM     38  CA  ARG D   6      16.064  27.002   0.250  1.00 20.39 LIG 0.40  C 
ATOM     39  N   ARG D   6      16.380  27.895   1.360  1.00 31.26 LIG 0.61  N 
BRANCH 38 40
ATOM     40  CB  ARG D   6      15.733  27.806  -1.008  1.00 20.29 LIG 0.05  C 
BRANCH 40 41
ATOM     41  CG  ARG D   6      14.259  28.149  -1.141  1.00 28.41 LIG 0.02  C 
BRANCH 41 42
ATOM     42  CD  ARG D   6      13.829  28.242  -2.599  1.00 36.78 LIG 0.14  C 
BRANCH 42 43
ATOM     43  NE  ARG D   6      13.754  29.619  -3.082  1.00 40.20 LIG-0.23  N 
ATOM     44  CZ  ARG D   6      13.179  29.975  -4.227  1.00 47.18 LIG 0.67  C 
ATOM     45  NH2 ARG D   6      13.154  31.249  -4.597  1.00 45.83 LIG-0.23  N 
ATOM     46  NH1 ARG D   6      12.629  29.053  -5.008  1.00 52.71 LIG-0.23  N 
ATOM     47 1HH2 ARG D   6      13.511  31.850  -4.095  1.00 45.83 LIG 0.17  HD
ATOM     48 2HH2 ARG D   6      12.780  31.475  -5.338  1.00 45.83 LIG 0.17  HD
ATOM     49 1HH1 ARG D   6      12.645  28.226  -4.774  1.00 52.71 LIG 0.17  HD
ATOM     50 2HH1 ARG D   6      12.256  29.282  -5.748  1.00 52.71 LIG 0.17  HD
ATOM     51 HE   ARG D   6      14.105  30.236  -2.597  1.00 40.20 LIG 0.18  HD
ENDBRANCH 42 43
ENDBRANCH 41 42
ENDBRANCH 40 41
ENDBRANCH 38 40
ENDBRANCH 35 38
ENDBRANCH 33 34
BRANCH 33 52
ATOM     52  CB  GLU D   7      18.333  23.185  -0.091  1.00 13.53 LIG 0.04  C 
BRANCH 52 53
ATOM     53  CG  GLU D   7      17.180  22.303   0.323  1.00 15.67 LIG 0.12  C 
BRANCH 53 54
ATOM     54  CD  GLU D   7      15.862  22.794  -0.244  1.00 22.62 LIG 0.17  C 
ATOM     55 OE2  GLU D   7      15.187  23.605   0.419  1.00 20.96 LIG-0.65  OA
ATOM     56 OE1  GLU D   7      15.513  22.387  -1.373  1.00 32.46 LIG-0.65  OA
ENDBRANCH 53 54
ENDBRANCH 52 53
ENDBRANCH 33 52
ENDBRANCH 1 33
TORSDOF 22
ENDMDL
MODEL 4
USER: ADFR SOLUTION from run 9
USER: SCORE 16.373626 LL:  -4.484 LR: -13.742 RR:   0.000 FEB:  -7.180
USER: RMSD 12.691722
USER: SEED 96252
USER: STATUS no improvement in best in 10 clusters for 5 generations
USER: GENES 24
USER: genes 0 Translation |==|  0.74276 0.72511 0.42326
USER: genes 1 Rotation |==|  0.05180 0.67817 0.61348 0.56705
USER: genes 2 Torsion [C]-N--CA-[CB] |==|  0.52845
USER: genes 3 Torsion [N]-CA--CB-[CG2] |==|  0.67027
USER: genes 4 Torsion [CA]-CB--OG1-[HG1] |==|  0.17865
USER: genes 5 Torsion [N]-CA--C-[N] |==|  0.76208
USER: genes 6 Torsion [C]-N--CA-[C] |==|  0.61778
USER: genes 7 Torsion [N]-CA--CB-[CG] |==|  0.03507
USER: genes 8 Torsion [CA]-CB--CG-[CD] |==|  0.24820
USER: genes 9 Torsion [CB]-CG--CD-[OE1] |==|  0.10829
USER: genes 10 Torsion [N]-CA--C-[N] |==|  0.29860
USER: genes 11 Torsion [C]-N--CA-[CB] |==|  0.40998
USER: genes 12 Torsion [N]-CA--CB-[CG2] |==|  0.93395
USER: genes 13 Torsion [N]-CA--C-[OXT] |==|  0.64330
USER: genes 14 Torsion [N]-C--CA-[N] |==|  0.13649
USER: genes 15 Torsion [C]-CA--N-[C] |==|  0.76448
USER: genes 16 Torsion [N]-C--CA-[N] |==|  0.74709
USER: genes 17 Torsion [C]-CA--CB-[CG] |==|  0.58777
USER: genes 18 Torsion [CA]-CB--CG-[CD] |==|  0.46467
USER: genes 19 Torsion [CB]-CG--CD-[NE] |==|  0.83319
USER: genes 20 Torsion [CG]-CD--NE-[HE] |==|  0.13969
USER: genes 21 Torsion [C]-CA--CB-[CG] |==|  0.67998
USER: genes 22 Torsion [CA]-CB--CG-[CD] |==|  0.19582
USER: genes 23 Torsion [CB]-CG--CD-[OE2] |==|  0.15887
ROOT
ATOM      1  C   GLU D   7      26.889  29.940   1.147  1.00 11.94 LIG 0.24  C 
ATOM      2 O    GLU D   7      26.430  30.504   0.155  1.00 14.56 LIG-0.27  OA
ATOM      3  N   THR D   8      27.713  28.896   1.068  1.00  6.63 LIG-0.34  N 
ATOM      4 H    THR D   8      28.057  28.505   1.753  1.00  6.63 LIG 0.16  HD
ENDROOT
BRANCH 3 5
ATOM      5  CA  THR D   8      28.107  28.319  -0.211  1.00  8.00 LIG 0.20  C 
BRANCH 5 6
ATOM      6  CB  THR D   8      28.847  26.988  -0.015  1.00  7.16 LIG 0.15  C 
ATOM      7  CG2 THR D   8      30.264  27.066  -0.564  1.00  8.54 LIG 0.04  C 
BRANCH 6 8
ATOM      8 OG1  THR D   8      28.903  26.682   1.390  1.00  7.76 LIG-0.39  OA
ATOM      9 HG1  THR D   8      28.124  26.560   1.682  1.00  7.76 LIG 0.21  HD
ENDBRANCH 6 8
ENDBRANCH 5 6
BRANCH 5 10
ATOM     10  C   THR D   8      26.887  28.076  -1.098  1.00  6.30 LIG 0.24  C 
ATOM     11 O    THR D   8      26.534  28.919  -1.934  1.00  7.25 LIG-0.27  OA
ATOM     12  N   GLN D   9      26.251  26.922  -0.916  1.00  7.34 LIG-0.35  N 
ATOM     13 H    GLN D   9      26.529  26.297  -0.396  1.00  7.34 LIG 0.16  HD
BRANCH 12 14
ATOM     14  CA  GLN D   9      25.004  26.622  -1.600  1.00  6.42 LIG 0.18  C 
BRANCH 14 15
ATOM     15  CB  GLN D   9      25.288  25.673  -2.764  1.00  8.55 LIG 0.04  C 
BRANCH 15 16
ATOM     16  CG  GLN D   9      26.663  25.059  -2.737  1.00 10.19 LIG 0.10  C 
BRANCH 16 17
ATOM     17  CD  GLN D   9      26.702  23.754  -1.958  1.00 10.51 LIG 0.21  C 
ATOM     18 OE1  GLN D   9      25.776  22.936  -2.025  1.00 10.16 LIG-0.27  OA
ATOM     19  NE2 GLN D   9      27.791  23.551  -1.222  1.00 11.61 LIG-0.37  N 
ATOM     20 22HE GLN D   9      27.873  22.826  -0.766  1.00 11.61 LIG 0.16  HD
ATOM     21 21HE GLN D   9      28.414  24.145  -1.202  1.00 11.61 LIG 0.16  HD
ENDBRANCH 16 17
ENDBRANCH 15 16
ENDBRANCH 14 15
BRANCH 14 22
ATOM     22  C   GLN D   9      24.048  25.967  -0.630  1.00  5.32 LIG 0.24  C 
ATOM     23 O    GLN D   9      24.235  24.812  -0.265  1.00  6.01 LIG-0.27  OA
ATOM     24  N   VAL D  10      23.015  26.702  -0.210  1.00  6.34 LIG-0.34  N 
ATOM     25 H    VAL D  10      22.872  27.514  -0.454  1.00  6.34 LIG 0.16  HD
BRANCH 24 26
ATOM     26  CA  VAL D  10      22.022  26.171   0.722  1.00  7.66 LIG 0.19  C 
BRANCH 26 27
ATOM     27  CB  VAL D  10      21.452  27.266   1.657  1.00  6.96 LIG 0.01  C 
ATOM     28  CG1 VAL D  10      21.163  26.690   3.028  1.00  7.91 LIG 0.01  C 
ATOM     29  CG2 VAL D  10      22.436  28.435   1.789  1.00  7.70 LIG 0.01  C 
ENDBRANCH 26 27
BRANCH 26 30
ATOM     30  C   VAL D  10      20.861  25.499  -0.003  1.00  6.04 LIG 0.20  C 
ATOM     31 OXT  VAL D  10      19.690  25.802   0.253  1.00  6.83 LIG-0.65  OA
ATOM     32 O    VAL D  10      21.111  24.633  -0.847  1.00  6.68 LIG-0.65  OA
ENDBRANCH 26 30
ENDBRANCH 24 26
ENDBRANCH 14 22
ENDBRANCH 12 14
ENDBRANCH 5 10
ENDBRANCH 3 5
BRANCH 1 33
ATOM     33  CA  GLU D   7      26.540  30.436   2.544  1.00 10.87 LIG 0.18  C 
BRANCH 33 34
ATOM     34  N   GLU D   7      27.769  30.596   3.317  1.00 12.61 LIG-0.35  N 
ATOM     35  C   ARG D   6      28.326  29.576   3.963  1.00 15.63 LIG 0.26  C 
ATOM     36 O    ARG D   6      27.890  28.430   3.902  1.00 17.14 LIG-0.27  OA
ATOM     37 H    GLU D   7      28.088  31.394   3.314  1.00 12.61 LIG 0.16  HD
BRANCH 35 38
ATOM     38  CA  ARG D   6      29.555  29.894   4.808  1.00 20.39 LIG 0.40  C 
ATOM     39  N   ARG D   6      30.787  29.740   4.042  1.00 31.26 LIG 0.61  N 
BRANCH 38 40
ATOM     40  CB  ARG D   6      29.463  31.300   5.401  1.00 20.29 LIG 0.05  C 
BRANCH 40 41
ATOM     41  CG  ARG D   6      30.813  31.976   5.575  1.00 28.41 LIG 0.02  C 
BRANCH 41 42
ATOM     42  CD  ARG D   6      30.667  33.464   5.868  1.00 36.78 LIG 0.14  C 
BRANCH 42 43
ATOM     43  NE  ARG D   6      29.978  34.187   4.802  1.00 40.20 LIG-0.23  N 
ATOM     44  CZ  ARG D   6      30.438  35.303   4.242  1.00 47.18 LIG 0.67  C 
ATOM     45  NH2 ARG D   6      29.750  35.902   3.278  1.00 45.83 LIG-0.23  N 
ATOM     46  NH1 ARG D   6      31.589  35.824   4.651  1.00 52.71 LIG-0.23  N 
ATOM     47 1HH2 ARG D   6      29.004  35.569   3.012  1.00 45.83 LIG 0.17  HD
ATOM     48 2HH2 ARG D   6      30.052  36.623   2.919  1.00 45.83 LIG 0.17  HD
ATOM     49 1HH1 ARG D   6      32.036  35.440   5.277  1.00 52.71 LIG 0.17  HD
ATOM     50 2HH1 ARG D   6      31.887  36.544   4.289  1.00 52.71 LIG 0.17  HD
ATOM     51 HE   ARG D   6      29.229  33.872   4.519  1.00 40.20 LIG 0.18  HD
ENDBRANCH 42 43
ENDBRANCH 41 42
ENDBRANCH 40 41
ENDBRANCH 38 40
ENDBRANCH 35 38
ENDBRANCH 33 34
BRANCH 33 52
ATOM     52  CB  GLU D   7      25.801  31.768   2.466  1.00 13.53 LIG 0.04  C 
BRANCH 52 53
ATOM     53  CG  GLU D   7      26.540  32.937   3.073  1.00 15.67 LIG 0.12  C 
BRANCH 53 54
ATOM     54  CD  GLU D   7      27.743  33.337   2.239  1.00 22.62 LIG 0.17  C 
ATOM     55 OE2  GLU D   7      27.570  33.645   1.044  1.00 20.96 LIG-0.65  OA
ATOM     56 OE1  GLU D   7      28.864  33.369   2.791  1.00 32.46 LIG-0.65  OA
ENDBRANCH 53 54
ENDBRANCH 52 53
ENDBRANCH 33 52
ENDBRANCH 1 33
TORSDOF 22
ENDMDL
MODEL 5
USER: ADFR SOLUTION from run 8
USER: SCORE 16.638238 LL:  -3.824 LR: -13.677 RR:   0.000 FEB:  -7.115
USER: RMSD 7.135310
USER: SEED 961730
USER: STATUS no improvement in best in 21 clusters for 5 generations
USER: GENES 24
USER: genes 0 Translation |==|  0.51238 0.54338 0.37088
USER: genes 1 Rotation |==|  0.91812 0.74851 0.57839 0.58527
USER: genes 2 Torsion [C]-N--CA-[CB] |==|  0.50018
USER: genes 3 Torsion [N]-CA--CB-[CG2] |==|  0.50186
USER: genes 4 Torsion [CA]-CB--OG1-[HG1] |==|  0.93262
USER: genes 5 Torsion [N]-CA--C-[N] |==|  0.42564
USER: genes 6 Torsion [C]-N--CA-[C] |==|  0.68048
USER: genes 7 Torsion [N]-CA--CB-[CG] |==|  0.75684
USER: genes 8 Torsion [CA]-CB--CG-[CD] |==|  0.91658
USER: genes 9 Torsion [CB]-CG--CD-[OE1] |==|  0.33519
USER: genes 10 Torsion [N]-CA--C-[N] |==|  0.41362
USER: genes 11 Torsion [C]-N--CA-[CB] |==|  0.35338
USER: genes 12 Torsion [N]-CA--CB-[CG2] |==|  0.73942
USER: genes 13 Torsion [N]-CA--C-[OXT] |==|  0.90809
USER: genes 14 Torsion [N]-C--CA-[N] |==|  0.32577
USER: genes 15 Torsion [C]-CA--N-[C] |==|  0.75562
USER: genes 16 Torsion [N]-C--CA-[N] |==|  0.12401
USER: genes 17 Torsion [C]-CA--CB-[CG] |==|  0.22354
USER: genes 18 Torsion [CA]-CB--CG-[CD] |==|  0.51140
USER: genes 19 Torsion [CB]-CG--CD-[NE] |==|  0.64972
USER: genes 20 Torsion [CG]-CD--NE-[HE] |==|  0.75338
USER: genes 21 Torsion [C]-CA--CB-[CG] |==|  0.45218
USER: genes 22 Torsion [CA]-CB--CG-[CD] |==|  0.15054
USER: genes 23 Torsion [CB]-CG--CD-[OE2] |==|  0.63148
ROOT
ATOM      1  C   GLU D   7      21.705  25.443   0.204  1.00 11.94 LIG 0.24  C 
ATOM      2 O    GLU D   7      22.177  25.176  -0.901  1.00 14.56 LIG-0.27  OA
ATOM      3  N   THR D   8      22.111  26.483   0.932  1.00  6.63 LIG-0.34  N 
ATOM      4 H    THR D   8      21.776  26.692   1.696  1.00  6.63 LIG 0.16  HD
ENDROOT
BRANCH 3 5
ATOM      5  CA  THR D   8      23.178  27.368   0.482  1.00  8.00 LIG 0.20  C 
BRANCH 5 6
ATOM      6  CB  THR D   8      23.446  28.479   1.509  1.00  7.16 LIG 0.15  C 
ATOM      7  CG2 THR D   8      24.549  29.411   1.028  1.00  8.54 LIG 0.04  C 
BRANCH 6 8
ATOM      8 OG1  THR D   8      22.240  29.240   1.706  1.00  7.76 LIG-0.39  OA
ATOM      9 HG1  THR D   8      21.749  29.169   1.028  1.00  7.76 LIG 0.21  HD
ENDBRANCH 6 8
ENDBRANCH 5 6
BRANCH 5 10
ATOM     10  C   THR D   8      24.472  26.591   0.253  1.00  6.30 LIG 0.24  C 
ATOM     11 O    THR D   8      24.698  25.541   0.870  1.00  7.25 LIG-0.27  OA
ATOM     12  N   GLN D   9      25.317  27.106  -0.637  1.00  7.34 LIG-0.35  N 
ATOM     13 H    GLN D   9      25.139  27.790  -1.127  1.00  7.34 LIG 0.16  HD
BRANCH 12 14
ATOM     14  CA  GLN D   9      26.637  26.539  -0.853  1.00  6.42 LIG 0.18  C 
BRANCH 14 15
ATOM     15  CB  GLN D   9      26.802  26.209  -2.336  1.00  8.55 LIG 0.04  C 
BRANCH 15 16
ATOM     16  CG  GLN D   9      26.311  24.838  -2.722  1.00 10.19 LIG 0.10  C 
BRANCH 16 17
ATOM     17  CD  GLN D   9      26.436  23.834  -1.588  1.00 10.51 LIG 0.21  C 
ATOM     18 OE1  GLN D   9      25.446  23.244  -1.137  1.00 10.16 LIG-0.27  OA
ATOM     19  NE2 GLN D   9      27.668  23.628  -1.130  1.00 11.61 LIG-0.37  N 
ATOM     20 22HE GLN D   9      27.802  23.063  -0.495  1.00 11.61 LIG 0.16  HD
ATOM     21 21HE GLN D   9      28.331  24.058  -1.470  1.00 11.61 LIG 0.16  HD
ENDBRANCH 16 17
ENDBRANCH 15 16
ENDBRANCH 14 15
BRANCH 14 22
ATOM     22  C   GLN D   9      27.686  27.544  -0.435  1.00  5.32 LIG 0.24  C 
ATOM     23 O    GLN D   9      27.467  28.745  -0.545  1.00  6.01 LIG-0.27  OA
ATOM     24  N   VAL D  10      28.834  27.057   0.042  1.00  6.34 LIG-0.34  N 
ATOM     25 H    VAL D  10      29.001  26.218   0.128  1.00  6.34 LIG 0.16  HD
BRANCH 24 26
ATOM     26  CA  VAL D  10      29.922  27.934   0.469  1.00  7.66 LIG 0.19  C 
BRANCH 26 27
ATOM     27  CB  VAL D  10      30.404  27.612   1.906  1.00  6.96 LIG 0.01  C 
ATOM     28  CG1 VAL D  10      31.901  27.820   2.019  1.00  7.91 LIG 0.01  C 
ATOM     29  CG2 VAL D  10      29.685  28.496   2.931  1.00  7.70 LIG 0.01  C 
ENDBRANCH 26 27
BRANCH 26 30
ATOM     30  C   VAL D  10      31.119  27.857  -0.473  1.00  6.04 LIG 0.20  C 
ATOM     31 OXT  VAL D  10      31.409  26.804  -1.050  1.00  6.83 LIG-0.65  OA
ATOM     32 O    VAL D  10      31.806  28.869  -0.640  1.00  6.68 LIG-0.65  OA
ENDBRANCH 26 30
ENDBRANCH 24 26
ENDBRANCH 14 22
ENDBRANCH 12 14
ENDBRANCH 5 10
ENDBRANCH 3 5
BRANCH 1 33
ATOM     33  CA  GLU D   7      20.595  24.583   0.794  1.00 10.87 LIG 0.18  C 
BRANCH 33 34
ATOM     34  N   GLU D   7      19.424  24.648  -0.075  1.00 12.61 LIG-0.35  N 
ATOM     35  C   ARG D   6      18.501  25.595   0.066  1.00 15.63 LIG 0.26  C 
ATOM     36 O    ARG D   6      18.601  26.508   0.881  1.00 17.14 LIG-0.27  OA
ATOM     37 H    GLU D   7      19.390  24.030  -0.671  1.00 12.61 LIG 0.16  HD
BRANCH 35 38
ATOM     38  CA  ARG D   6      17.282  25.499  -0.845  1.00 20.39 LIG 0.40  C 
ATOM     39  N   ARG D   6      16.769  24.134  -0.913  1.00 31.26 LIG 0.61  N 
BRANCH 38 40
ATOM     40  CB  ARG D   6      16.183  26.463  -0.393  1.00 20.29 LIG 0.05  C 
BRANCH 40 41
ATOM     41  CG  ARG D   6      16.406  27.895  -0.847  1.00 28.41 LIG 0.02  C 
BRANCH 41 42
ATOM     42  CD  ARG D   6      15.345  28.837  -0.292  1.00 36.78 LIG 0.14  C 
BRANCH 42 43
ATOM     43  NE  ARG D   6      14.676  29.615  -1.332  1.00 40.20 LIG-0.23  N 
ATOM     44  CZ  ARG D   6      13.564  29.229  -1.951  1.00 47.18 LIG 0.67  C 
ATOM     45  NH2 ARG D   6      13.018  29.994  -2.887  1.00 45.83 LIG-0.23  N 
ATOM     46  NH1 ARG D   6      12.998  28.071  -1.635  1.00 52.71 LIG-0.23  N 
ATOM     47 1HH2 ARG D   6      13.383  30.744  -3.097  1.00 45.83 LIG 0.17  HD
ATOM     48 2HH2 ARG D   6      12.299  29.740  -3.285  1.00 45.83 LIG 0.17  HD
ATOM     49 1HH1 ARG D   6      13.350  27.570  -1.030  1.00 52.71 LIG 0.17  HD
ATOM     50 2HH1 ARG D   6      12.279  27.820  -2.034  1.00 52.71 LIG 0.17  HD
ATOM     51 HE   ARG D   6      15.024  30.369  -1.557  1.00 40.20 LIG 0.18  HD
ENDBRANCH 42 43
ENDBRANCH 41 42
ENDBRANCH 40 41
ENDBRANCH 38 40
ENDBRANCH 35 38
ENDBRANCH 33 34
BRANCH 33 52
ATOM     52  CB  GLU D   7      21.059  23.136   0.930  1.00 13.53 LIG 0.04  C 
BRANCH 52 53
ATOM     53  CG  GLU D   7      20.221  22.290   1.859  1.00 15.67 LIG 0.12  C 
BRANCH 53 54
ATOM     54  CD  GLU D   7      18.752  22.324   1.482  1.00 22.62 LIG 0.17  C 
ATOM     55 OE2  GLU D   7      17.907  22.518   2.376  1.00 20.96 LIG-0.65  OA
ATOM     56 OE1  GLU D   7      18.444  22.183   0.279  1.00 32.46 LIG-0.65  OA
ENDBRANCH 53 54
ENDBRANCH 52 53
ENDBRANCH 33 52
ENDBRANCH 1 33
TORSDOF 22
ENDMDL
MODEL 6
USER: ADFR SOLUTION from run 75
USER: SCORE 15.757804 LL:  -3.390 LR: -13.615 RR:   0.000 FEB:  -7.052
USER: RMSD 5.836006
USER: SEED 74
USER: STATUS no improvement in best in 14 clusters for 5 generations
USER: GENES 24
USER: genes 0 Translation |==|  0.37596 0.44532 0.41497
USER: genes 1 Rotation |==|  0.59435 0.55060 0.55101 0.98573
USER: genes 2 Torsion [C]-N--CA-[CB] |==|  0.24854
USER: genes 3 Torsion [N]-CA--CB-[CG2] |==|  0.47256
USER: genes 4 Torsion [CA]-CB--OG1-[HG1] |==|  0.26742
USER: genes 5 Torsion [N]-CA--C-[N] |==|  0.38566
USER: genes 6 Torsion [C]-N--CA-[C] |==|  0.73540
USER: genes 7 Torsion [N]-CA--CB-[CG] |==|  0.57521
USER: genes 8 Torsion [CA]-CB--CG-[CD] |==|  0.74913
USER: genes 9 Torsion [CB]-CG--CD-[OE1] |==|  0.76787
USER: genes 10 Torsion [N]-CA--C-[N] |==|  0.35260
USER: genes 11 Torsion [C]-N--CA-[CB] |==|  0.33166
USER: genes 12 Torsion [N]-CA--CB-[CG2] |==|  0.02042
USER: genes 13 Torsion [N]-CA--C-[OXT] |==|  0.92330
USER: genes 14 Torsion [N]-C--CA-[N] |==|  0.90889
USER: genes 15 Torsion [C]-CA--N-[C] |==|  0.77778
USER: genes 16 Torsion [N]-C--CA-[N] |==|  0.23992
USER: genes 17 Torsion [C]-CA--CB-[CG] |==|  0.75834
USER: genes 18 Torsion [CA]-CB--CG-[CD] |==|  0.64409
USER: genes 19 Torsion [CB]-CG--CD-[NE] |==|  0.52691
USER: genes 20 Torsion [CG]-CD--NE-[HE] |==|  0.11164
USER: genes 21 Torsion [C]-CA--CB-[CG] |==|  0.40900
USER: genes 22 Torsion [CA]-CB--CG-[CD] |==|  0.33102
USER: genes 23 Torsion [CB]-CG--CD-[OE2] |==|  0.72582
ROOT
ATOM      1  C   GLU D   7      18.636  23.016   0.997  1.00 11.94 LIG 0.24  C 
ATOM      2 O    GLU D   7      18.806  22.562   2.128  1.00 14.56 LIG-0.27  OA
ATOM      3  N   THR D   8      19.590  23.659   0.325  1.00  6.63 LIG-0.34  N 
ATOM      4 H    THR D   8      19.491  23.963  -0.474  1.00  6.63 LIG 0.16  HD
ENDROOT
BRANCH 3 5
ATOM      5  CA  THR D   8      20.906  23.905   0.900  1.00  8.00 LIG 0.20  C 
BRANCH 5 6
ATOM      6  CB  THR D   8      21.869  22.746   0.598  1.00  7.16 LIG 0.15  C 
ATOM      7  CG2 THR D   8      23.295  23.108   0.984  1.00  8.54 LIG 0.04  C 
BRANCH 6 8
ATOM      8 OG1  THR D   8      21.459  21.586   1.344  1.00  7.76 LIG-0.39  OA
ATOM      9 HG1  THR D   8      20.987  21.090   0.857  1.00  7.76 LIG 0.21  HD
ENDBRANCH 6 8
ENDBRANCH 5 6
BRANCH 5 10
ATOM     10  C   THR D   8      21.509  25.197   0.353  1.00  6.30 LIG 0.24  C 
ATOM     11 O    THR D   8      21.397  25.489  -0.845  1.00  7.25 LIG-0.27  OA
ATOM     12  N   GLN D   9      22.142  25.968   1.233  1.00  7.34 LIG-0.35  N 
ATOM     13 H    GLN D   9      22.160  25.816   2.079  1.00  7.34 LIG 0.16  HD
BRANCH 12 14
ATOM     14  CA  GLN D   9      22.870  27.156   0.821  1.00  6.42 LIG 0.18  C 
BRANCH 14 15
ATOM     15  CB  GLN D   9      22.727  28.229   1.901  1.00  8.55 LIG 0.04  C 
BRANCH 15 16
ATOM     16  CG  GLN D   9      22.844  29.640   1.388  1.00 10.19 LIG 0.10  C 
BRANCH 16 17
ATOM     17  CD  GLN D   9      24.274  30.153   1.416  1.00 10.51 LIG 0.21  C 
ATOM     18 OE1  GLN D   9      24.767  30.633   2.446  1.00 10.16 LIG-0.27  OA
ATOM     19  NE2 GLN D   9      24.953  30.039   0.278  1.00 11.61 LIG-0.37  N 
ATOM     20 22HE GLN D   9      25.771  30.305   0.237  1.00 11.61 LIG 0.16  HD
ATOM     21 21HE GLN D   9      24.575  29.700  -0.417  1.00 11.61 LIG 0.16  HD
ENDBRANCH 16 17
ENDBRANCH 15 16
ENDBRANCH 14 15
BRANCH 14 22
ATOM     22  C   GLN D   9      24.330  26.808   0.640  1.00  5.32 LIG 0.24  C 
ATOM     23 O    GLN D   9      24.950  26.258   1.543  1.00  6.01 LIG-0.27  OA
ATOM     24  N   VAL D  10      24.887  27.131  -0.530  1.00  6.34 LIG-0.34  N 
ATOM     25 H    VAL D  10      24.465  27.514  -1.174  1.00  6.34 LIG 0.16  HD
BRANCH 24 26
ATOM     26  CA  VAL D  10      26.293  26.851  -0.816  1.00  7.66 LIG 0.19  C 
BRANCH 26 27
ATOM     27  CB  VAL D  10      26.466  25.904  -2.029  1.00  6.96 LIG 0.01  C 
ATOM     28  CG1 VAL D  10      27.059  24.582  -1.586  1.00  7.91 LIG 0.01  C 
ATOM     29  CG2 VAL D  10      25.122  25.656  -2.723  1.00  7.70 LIG 0.01  C 
ENDBRANCH 26 27
BRANCH 26 30
ATOM     30  C   VAL D  10      27.087  28.126  -1.077  1.00  6.04 LIG 0.20  C 
ATOM     31 OXT  VAL D  10      26.539  29.136  -1.533  1.00  6.83 LIG-0.65  OA
ATOM     32 O    VAL D  10      28.298  28.129  -0.838  1.00  6.68 LIG-0.65  OA
ENDBRANCH 26 30
ENDBRANCH 24 26
ENDBRANCH 14 22
ENDBRANCH 12 14
ENDBRANCH 5 10
ENDBRANCH 3 5
BRANCH 1 33
ATOM     33  CA  GLU D   7      17.298  22.841   0.292  1.00 10.87 LIG 0.18  C 
BRANCH 33 34
ATOM     34  N   GLU D   7      17.055  23.994  -0.571  1.00 12.61 LIG-0.35  N 
ATOM     35  C   ARG D   6      16.599  25.145  -0.087  1.00 15.63 LIG 0.26  C 
ATOM     36 O    ARG D   6      16.415  25.339   1.112  1.00 17.14 LIG-0.27  OA
ATOM     37 H    GLU D   7      17.232  23.859  -1.401  1.00 12.61 LIG 0.16  HD
BRANCH 35 38
ATOM     38  CA  ARG D   6      16.301  26.242  -1.104  1.00 20.39 LIG 0.40  C 
ATOM     39  N   ARG D   6      14.950  26.121  -1.643  1.00 31.26 LIG 0.61  N 
BRANCH 38 40
ATOM     40  CB  ARG D   6      16.514  27.628  -0.493  1.00 20.29 LIG 0.05  C 
BRANCH 40 41
ATOM     41  CG  ARG D   6      15.290  28.170   0.226  1.00 28.41 LIG 0.02  C 
BRANCH 41 42
ATOM     42  CD  ARG D   6      14.927  29.570  -0.253  1.00 36.78 LIG 0.14  C 
BRANCH 42 43
ATOM     43  NE  ARG D   6      13.900  30.203   0.571  1.00 40.20 LIG-0.23  N 
ATOM     44  CZ  ARG D   6      12.903  30.937   0.084  1.00 47.18 LIG 0.67  C 
ATOM     45  NH2 ARG D   6      12.010  31.480   0.901  1.00 45.83 LIG-0.23  N 
ATOM     46  NH1 ARG D   6      12.802  31.132  -1.225  1.00 52.71 LIG-0.23  N 
ATOM     47 1HH2 ARG D   6      12.073  31.358   1.750  1.00 45.83 LIG 0.17  HD
ATOM     48 2HH2 ARG D   6      11.367  31.954   0.581  1.00 45.83 LIG 0.17  HD
ATOM     49 1HH1 ARG D   6      13.380  30.784  -1.758  1.00 52.71 LIG 0.17  HD
ATOM     50 2HH1 ARG D   6      12.158  31.605  -1.541  1.00 52.71 LIG 0.17  HD
ATOM     51 HE   ARG D   6      13.943  30.094   1.423  1.00 40.20 LIG 0.18  HD
ENDBRANCH 42 43
ENDBRANCH 41 42
ENDBRANCH 40 41
ENDBRANCH 38 40
ENDBRANCH 35 38
ENDBRANCH 33 34
BRANCH 33 52
ATOM     52  CB  GLU D   7      17.299  21.562  -0.541  1.00 13.53 LIG 0.04  C 
BRANCH 52 53
ATOM     53  CG  GLU D   7      15.960  20.872  -0.638  1.00 15.67 LIG 0.12  C 
BRANCH 53 54
ATOM     54  CD  GLU D   7      15.475  20.780  -2.073  1.00 22.62 LIG 0.17  C 
ATOM     55 OE2  GLU D   7      14.648  21.618  -2.482  1.00 20.96 LIG-0.65  OA
ATOM     56 OE1  GLU D   7      15.945  19.881  -2.803  1.00 32.46 LIG-0.65  OA
ENDBRANCH 53 54
ENDBRANCH 52 53
ENDBRANCH 33 52
ENDBRANCH 1 33
TORSDOF 22
ENDMDL
MODEL 7
USER: ADFR SOLUTION from run 122
USER: SCORE 16.225334 LL:  -4.030 LR: -13.435 RR:   0.000 FEB:  -6.872
USER: RMSD 6.967674
USER: SEED 121
USER: STATUS no improvement in best in 20 clusters for 5 generations
USER: GENES 24
USER: genes 0 Translation |==|  0.51459 0.53099 0.37195
USER: genes 1 Rotation |==|  0.90897 0.77665 0.57520 0.52353
USER: genes 2 Torsion [C]-N--CA-[CB] |==|  0.45106
USER: genes 3 Torsion [N]-CA--CB-[CG2] |==|  0.55210
USER: genes 4 Torsion [CA]-CB--OG1-[HG1] |==|  0.84711
USER: genes 5 Torsion [N]-CA--C-[N] |==|  0.41174
USER: genes 6 Torsion [C]-N--CA-[C] |==|  0.70436
USER: genes 7 Torsion [N]-CA--CB-[CG] |==|  0.80938
USER: genes 8 Torsion [CA]-CB--CG-[CD] |==|  0.89176
USER: genes 9 Torsion [CB]-CG--CD-[OE1] |==|  0.34922
USER: genes 10 Torsion [N]-CA--C-[N] |==|  0.01365
USER: genes 11 Torsion [C]-N--CA-[CB] |==|  0.42168
USER: genes 12 Torsion [N]-CA--CB-[CG2] |==|  0.56927
USER: genes 13 Torsion [N]-CA--C-[OXT] |==|  0.47731
USER: genes 14 Torsion [N]-C--CA-[N] |==|  0.34502
USER: genes 15 Torsion [C]-CA--N-[C] |==|  0.72877
USER: genes 16 Torsion [N]-C--CA-[N] |==|  0.18083
USER: genes 17 Torsion [C]-CA--CB-[CG] |==|  0.21641
USER: genes 18 Torsion [CA]-CB--CG-[CD] |==|  0.42495
USER: genes 19 Torsion [CB]-CG--CD-[NE] |==|  0.64481
USER: genes 20 Torsion [CG]-CD--NE-[HE] |==|  0.14778
USER: genes 21 Torsion [C]-CA--CB-[CG] |==|  0.42721
USER: genes 22 Torsion [CA]-CB--CG-[CD] |==|  0.07927
USER: genes 23 Torsion [CB]-CG--CD-[OE2] |==|  0.19679
ROOT
ATOM      1  C   GLU D   7      21.755  25.136   0.223  1.00 11.94 LIG 0.24  C 
ATOM      2 O    GLU D   7      22.077  25.133  -0.964  1.00 14.56 LIG-0.27  OA
ATOM      3  N   THR D   8      22.128  26.094   1.071  1.00  6.63 LIG-0.34  N 
ATOM      4 H    THR D   8      21.893  26.119   1.898  1.00  6.63 LIG 0.16  HD
ENDROOT
BRANCH 3 5
ATOM      5  CA  THR D   8      22.981  27.201   0.657  1.00  8.00 LIG 0.20  C 
BRANCH 5 6
ATOM      6  CB  THR D   8      22.906  28.364   1.658  1.00  7.16 LIG 0.15  C 
ATOM      7  CG2 THR D   8      23.402  29.657   1.028  1.00  8.54 LIG 0.04  C 
BRANCH 6 8
ATOM      8 OG1  THR D   8      21.541  28.537   2.077  1.00  7.76 LIG-0.39  OA
ATOM      9 HG1  THR D   8      21.051  28.642   1.403  1.00  7.76 LIG 0.21  HD
ENDBRANCH 6 8
ENDBRANCH 5 6
BRANCH 5 10
ATOM     10  C   THR D   8      24.436  26.753   0.534  1.00  6.30 LIG 0.24  C 
ATOM     11 O    THR D   8      24.887  25.861   1.267  1.00  7.25 LIG-0.27  OA
ATOM     12  N   GLN D   9      25.164  27.369  -0.393  1.00  7.34 LIG-0.35  N 
ATOM     13 H    GLN D   9      24.844  27.932  -0.958  1.00  7.34 LIG 0.16  HD
BRANCH 12 14
ATOM     14  CA  GLN D   9      26.592  27.131  -0.525  1.00  6.42 LIG 0.18  C 
BRANCH 14 15
ATOM     15  CB  GLN D   9      26.927  26.913  -2.000  1.00  8.55 LIG 0.04  C 
BRANCH 15 16
ATOM     16  CG  GLN D   9      26.384  25.631  -2.574  1.00 10.19 LIG 0.10  C 
BRANCH 16 17
ATOM     17  CD  GLN D   9      26.477  24.470  -1.597  1.00 10.51 LIG 0.21  C 
ATOM     18 OE1  GLN D   9      25.481  23.799  -1.298  1.00 10.16 LIG-0.27  OA
ATOM     19  NE2 GLN D   9      27.687  24.222  -1.105  1.00 11.61 LIG-0.37  N 
ATOM     20 22HE GLN D   9      27.802  23.571  -0.554  1.00 11.61 LIG 0.16  HD
ATOM     21 21HE GLN D   9      28.355  24.712  -1.337  1.00 11.61 LIG 0.16  HD
ENDBRANCH 16 17
ENDBRANCH 15 16
ENDBRANCH 14 15
BRANCH 14 22
ATOM     22  C   GLN D   9      27.347  28.331  -0.002  1.00  5.32 LIG 0.24  C 
ATOM     23 O    GLN D   9      28.568  28.380  -0.097  1.00  6.01 LIG-0.27  OA
ATOM     24  N   VAL D  10      26.624  29.304   0.557  1.00  6.34 LIG-0.34  N 
ATOM     25 H    VAL D  10      25.767  29.285   0.628  1.00  6.34 LIG 0.16  HD
BRANCH 24 26
ATOM     26  CA  VAL D  10      27.246  30.507   1.104  1.00  7.66 LIG 0.19  C 
BRANCH 26 27
ATOM     27  CB  VAL D  10      26.300  31.732   1.051  1.00  6.96 LIG 0.01  C 
ATOM     28  CG1 VAL D  10      25.368  31.731   2.245  1.00  7.91 LIG 0.01  C 
ATOM     29  CG2 VAL D  10      27.103  33.038   1.028  1.00  7.70 LIG 0.01  C 
ENDBRANCH 26 27
BRANCH 26 30
ATOM     30  C   VAL D  10      27.702  30.308   2.547  1.00  6.04 LIG 0.20  C 
ATOM     31 OXT  VAL D  10      28.381  31.164   3.123  1.00  6.83 LIG-0.65  OA
ATOM     32 O    VAL D  10      27.388  29.265   3.128  1.00  6.68 LIG-0.65  OA
ENDBRANCH 26 30
ENDBRANCH 24 26
ENDBRANCH 14 22
ENDBRANCH 12 14
ENDBRANCH 5 10
ENDBRANCH 3 5
BRANCH 1 33
ATOM     33  CA  GLU D   7      20.879  24.024   0.785  1.00 10.87 LIG 0.18  C 
BRANCH 33 34
ATOM     34  N   GLU D   7      19.653  23.935  -0.003  1.00 12.61 LIG-0.35  N 
ATOM     35  C   ARG D   6      18.524  24.515   0.393  1.00 15.63 LIG 0.26  C 
ATOM     36 O    ARG D   6      18.450  25.214   1.400  1.00 17.14 LIG-0.27  OA
ATOM     37 H    GLU D   7      19.730  23.482  -0.729  1.00 12.61 LIG 0.16  HD
BRANCH 35 38
ATOM     38  CA  ARG D   6      17.292  24.271  -0.472  1.00 20.39 LIG 0.40  C 
ATOM     39  N   ARG D   6      16.895  22.866  -0.456  1.00 31.26 LIG 0.61  N 
BRANCH 38 40
ATOM     40  CB  ARG D   6      16.129  25.162  -0.034  1.00 20.29 LIG 0.05  C 
BRANCH 40 41
ATOM     41  CG  ARG D   6      16.249  26.598  -0.515  1.00 28.41 LIG 0.02  C 
BRANCH 41 42
ATOM     42  CD  ARG D   6      14.885  27.261  -0.662  1.00 36.78 LIG 0.14  C 
BRANCH 42 43
ATOM     43  NE  ARG D   6      14.690  27.873  -1.975  1.00 40.20 LIG-0.23  N 
ATOM     44  CZ  ARG D   6      14.322  29.138  -2.158  1.00 47.18 LIG 0.67  C 
ATOM     45  NH2 ARG D   6      14.165  29.619  -3.385  1.00 45.83 LIG-0.23  N 
ATOM     46  NH1 ARG D   6      14.107  29.924  -1.110  1.00 52.71 LIG-0.23  N 
ATOM     47 1HH2 ARG D   6      14.301  29.112  -4.066  1.00 45.83 LIG 0.17  HD
ATOM     48 2HH2 ARG D   6      13.927  30.438  -3.499  1.00 45.83 LIG 0.17  HD
ATOM     49 1HH1 ARG D   6      14.205  29.616  -0.314  1.00 52.71 LIG 0.17  HD
ATOM     50 2HH1 ARG D   6      13.870  30.742  -1.228  1.00 52.71 LIG 0.17  HD
ATOM     51 HE   ARG D   6      14.821  27.385  -2.671  1.00 40.20 LIG 0.18  HD
ENDBRANCH 42 43
ENDBRANCH 41 42
ENDBRANCH 40 41
ENDBRANCH 38 40
ENDBRANCH 35 38
ENDBRANCH 33 34
BRANCH 33 52
ATOM     52  CB  GLU D   7      21.619  22.691   0.744  1.00 13.53 LIG 0.04  C 
BRANCH 52 53
ATOM     53  CG  GLU D   7      21.169  21.687   1.778  1.00 15.67 LIG 0.12  C 
BRANCH 53 54
ATOM     54  CD  GLU D   7      19.713  21.884   2.159  1.00 22.62 LIG 0.17  C 
ATOM     55 OE2  GLU D   7      18.831  21.590   1.330  1.00 20.96 LIG-0.65  OA
ATOM     56 OE1  GLU D   7      19.451  22.310   3.304  1.00 32.46 LIG-0.65  OA
ENDBRANCH 53 54
ENDBRANCH 52 53
ENDBRANCH 33 52
ENDBRANCH 1 33
TORSDOF 22
ENDMDL
MODEL 8
USER: ADFR SOLUTION from run 23
USER: SCORE 15.416845 LL:  -3.979 LR: -13.364 RR:   0.000 FEB:  -6.802
USER: RMSD 4.277580
USER: SEED 22
USER: STATUS no improvement in best in 10 clusters for 5 generations
USER: GENES 24
USER: genes 0 Translation |==|  0.35061 0.54697 0.33544
USER: genes 1 Rotation |==|  0.18788 0.43436 0.46568 0.88353
USER: genes 2 Torsion [C]-N--CA-[CB] |==|  0.20332
USER: genes 3 Torsion [N]-CA--CB-[CG2] |==|  0.23176
USER: genes 4 Torsion [CA]-CB--OG1-[HG1] |==|  0.12168
USER: genes 5 Torsion [N]-CA--C-[N] |==|  0.43504
USER: genes 6 Torsion [C]-N--CA-[C] |==|  0.63935
USER: genes 7 Torsion [N]-CA--CB-[CG] |==|  0.45960
USER: genes 8 Torsion [CA]-CB--CG-[CD] |==|  0.12866
USER: genes 9 Torsion [CB]-CG--CD-[OE1] |==|  0.13812
USER: genes 10 Torsion [N]-CA--C-[N] |==|  0.79283
USER: genes 11 Torsion [C]-N--CA-[CB] |==|  0.14035
USER: genes 12 Torsion [N]-CA--CB-[CG2] |==|  0.56028
USER: genes 13 Torsion [N]-CA--C-[OXT] |==|  0.93734
USER: genes 14 Torsion [N]-C--CA-[N] |==|  0.12755
USER: genes 15 Torsion [C]-CA--N-[C] |==|  0.63334
USER: genes 16 Torsion [N]-C--CA-[N] |==|  0.12297
USER: genes 17 Torsion [C]-CA--CB-[CG] |==|  0.42396
USER: genes 18 Torsion [CA]-CB--CG-[CD] |==|  0.41490
USER: genes 19 Torsion [CB]-CG--CD-[NE] |==|  0.37889
USER: genes 20 Torsion [CG]-CD--NE-[HE] |==|  0.71391
USER: genes 21 Torsion [C]-CA--CB-[CG] |==|  0.52524
USER: genes 22 Torsion [CA]-CB--CG-[CD] |==|  0.21749
USER: genes 23 Torsion [CB]-CG--CD-[OE2] |==|  0.13003
ROOT
ATOM      1  C   GLU D   7      18.066  25.531  -0.434  1.00 11.94 LIG 0.24  C 
ATOM      2 O    GLU D   7      17.806  26.718  -0.241  1.00 14.56 LIG-0.27  OA
ATOM      3  N   THR D   8      19.304  25.042  -0.371  1.00  6.63 LIG-0.34  N 
ATOM      4 H    THR D   8      19.496  24.211  -0.485  1.00  6.63 LIG 0.16  HD
ENDROOT
BRANCH 3 5
ATOM      5  CA  THR D   8      20.456  25.893  -0.100  1.00  8.00 LIG 0.20  C 
BRANCH 5 6
ATOM      6  CB  THR D   8      20.490  26.327   1.373  1.00  7.16 LIG 0.15  C 
ATOM      7  CG2 THR D   8      21.134  25.257   2.242  1.00  8.54 LIG 0.04  C 
BRANCH 6 8
ATOM      8 OG1  THR D   8      21.249  27.545   1.487  1.00  7.76 LIG-0.39  OA
ATOM      9 HG1  THR D   8      21.030  28.071   0.870  1.00  7.76 LIG 0.21  HD
ENDBRANCH 6 8
ENDBRANCH 5 6
BRANCH 5 10
ATOM     10  C   THR D   8      21.759  25.167  -0.427  1.00  6.30 LIG 0.24  C 
ATOM     11 O    THR D   8      21.807  23.929  -0.446  1.00  7.25 LIG-0.27  OA
ATOM     12  N   GLN D   9      22.811  25.939  -0.688  1.00  7.34 LIG-0.35  N 
ATOM     13 H    GLN D   9      22.773  26.795  -0.755  1.00  7.34 LIG 0.16  HD
BRANCH 12 14
ATOM     14  CA  GLN D   9      24.138  25.379  -0.886  1.00  6.42 LIG 0.18  C 
BRANCH 14 15
ATOM     15  CB  GLN D   9      24.531  25.532  -2.354  1.00  8.55 LIG 0.04  C 
BRANCH 15 16
ATOM     16  CG  GLN D   9      25.996  25.314  -2.628  1.00 10.19 LIG 0.10  C 
BRANCH 16 17
ATOM     17  CD  GLN D   9      26.537  24.071  -1.941  1.00 10.51 LIG 0.21  C 
ATOM     18 OE1  GLN D   9      25.961  22.979  -2.036  1.00 10.16 LIG-0.27  OA
ATOM     19  NE2 GLN D   9      27.663  24.233  -1.251  1.00 11.61 LIG-0.37  N 
ATOM     20 22HE GLN D   9      28.021  23.562  -0.849  1.00 11.61 LIG 0.16  HD
ATOM     21 21HE GLN D   9      28.033  25.008  -1.208  1.00 11.61 LIG 0.16  HD
ENDBRANCH 16 17
ENDBRANCH 15 16
ENDBRANCH 14 15
BRANCH 14 22
ATOM     22  C   GLN D   9      25.126  26.120  -0.013  1.00  5.32 LIG 0.24  C 
ATOM     23 O    GLN D   9      25.565  25.595   1.003  1.00  6.01 LIG-0.27  OA
ATOM     24  N   VAL D  10      25.476  27.347  -0.405  1.00  6.34 LIG-0.34  N 
ATOM     25 H    VAL D  10      25.178  27.727  -1.117  1.00  6.34 LIG 0.16  HD
BRANCH 24 26
ATOM     26  CA  VAL D  10      26.416  28.160   0.363  1.00  7.66 LIG 0.19  C 
BRANCH 26 27
ATOM     27  CB  VAL D  10      27.716  27.389   0.702  1.00  6.96 LIG 0.01  C 
ATOM     28  CG1 VAL D  10      28.653  27.386  -0.489  1.00  7.91 LIG 0.01  C 
ATOM     29  CG2 VAL D  10      28.422  28.018   1.909  1.00  7.70 LIG 0.01  C 
ENDBRANCH 26 27
BRANCH 26 30
ATOM     30  C   VAL D  10      26.791  29.445  -0.369  1.00  6.04 LIG 0.20  C 
ATOM     31 OXT  VAL D  10      26.676  29.535  -1.596  1.00  6.83 LIG-0.65  OA
ATOM     32 O    VAL D  10      27.225  30.395   0.287  1.00  6.68 LIG-0.65  OA
ENDBRANCH 26 30
ENDBRANCH 24 26
ENDBRANCH 14 22
ENDBRANCH 12 14
ENDBRANCH 5 10
ENDBRANCH 3 5
BRANCH 1 33
ATOM     33  CA  GLU D   7      16.951  24.541  -0.744  1.00 10.87 LIG 0.18  C 
BRANCH 33 34
ATOM     34  N   GLU D   7      17.126  23.348   0.079  1.00 12.61 LIG-0.35  N 
ATOM     35  C   ARG D   6      17.066  22.125  -0.441  1.00 15.63 LIG 0.26  C 
ATOM     36 O    ARG D   6      16.927  21.918  -1.644  1.00 17.14 LIG-0.27  OA
ATOM     37 H    GLU D   7      17.269  23.509   0.911  1.00 12.61 LIG 0.16  HD
BRANCH 35 38
ATOM     38  CA  ARG D   6      17.174  20.962   0.538  1.00 20.39 LIG 0.40  C 
ATOM     39  N   ARG D   6      16.354  21.182   1.726  1.00 31.26 LIG 0.61  N 
BRANCH 38 40
ATOM     40  CB  ARG D   6      16.799  19.641  -0.136  1.00 20.29 LIG 0.05  C 
BRANCH 40 41
ATOM     41  CG  ARG D   6      17.471  18.429   0.486  1.00 28.41 LIG 0.02  C 
BRANCH 41 42
ATOM     42  CD  ARG D   6      16.605  17.180   0.369  1.00 36.78 LIG 0.14  C 
BRANCH 42 43
ATOM     43  NE  ARG D   6      17.365  15.998  -0.031  1.00 40.20 LIG-0.23  N 
ATOM     44  CZ  ARG D   6      18.149  15.305   0.790  1.00 47.18 LIG 0.67  C 
ATOM     45  NH2 ARG D   6      18.808  14.241   0.349  1.00 45.83 LIG-0.23  N 
ATOM     46  NH1 ARG D   6      18.276  15.679   2.058  1.00 52.71 LIG-0.23  N 
ATOM     47 1HH2 ARG D   6      18.729  13.997  -0.472  1.00 45.83 LIG 0.17  HD
ATOM     48 2HH2 ARG D   6      19.313  13.796   0.884  1.00 45.83 LIG 0.17  HD
ATOM     49 1HH1 ARG D   6      17.853  16.369   2.347  1.00 52.71 LIG 0.17  HD
ATOM     50 2HH1 ARG D   6      18.782  15.231   2.589  1.00 52.71 LIG 0.17  HD
ATOM     51 HE   ARG D   6      17.302  15.735  -0.848  1.00 40.20 LIG 0.18  HD
ENDBRANCH 42 43
ENDBRANCH 41 42
ENDBRANCH 40 41
ENDBRANCH 38 40
ENDBRANCH 35 38
ENDBRANCH 33 34
BRANCH 33 52
ATOM     52  CB  GLU D   7      15.589  25.168  -0.463  1.00 13.53 LIG 0.04  C 
BRANCH 52 53
ATOM     53  CG  GLU D   7      14.426  24.208  -0.530  1.00 15.67 LIG 0.12  C 
BRANCH 53 54
ATOM     54  CD  GLU D   7      14.322  23.360   0.725  1.00 22.62 LIG 0.17  C 
ATOM     55 OE2  GLU D   7      14.408  23.918   1.835  1.00 20.96 LIG-0.65  OA
ATOM     56 OE1  GLU D   7      14.126  22.133   0.597  1.00 32.46 LIG-0.65  OA
ENDBRANCH 53 54
ENDBRANCH 52 53
ENDBRANCH 33 52
ENDBRANCH 1 33
TORSDOF 22
ENDMDL
MODEL 9
USER: ADFR SOLUTION from run 23
USER: SCORE 15.062222 LL:  -3.889 LR: -13.301 RR:   0.000 FEB:  -6.738
USER: RMSD 6.441190
USER: SEED 22
USER: STATUS no improvement in best in 10 clusters for 5 generations
USER: GENES 24
USER: genes 0 Translation |==|  0.35036 0.51622 0.35095
USER: genes 1 Rotation |==|  0.12978 0.42044 0.51118 0.82631
USER: genes 2 Torsion [C]-N--CA-[CB] |==|  0.21343
USER: genes 3 Torsion [N]-CA--CB-[CG2] |==|  0.17426
USER: genes 4 Torsion [CA]-CB--OG1-[HG1] |==|  0.30655
USER: genes 5 Torsion [N]-CA--C-[N] |==|  0.46956
USER: genes 6 Torsion [C]-N--CA-[C] |==|  0.65976
USER: genes 7 Torsion [N]-CA--CB-[CG] |==|  0.47016
USER: genes 8 Torsion [CA]-CB--CG-[CD] |==|  0.12999
USER: genes 9 Torsion [CB]-CG--CD-[OE1] |==|  0.12958
USER: genes 10 Torsion [N]-CA--C-[N] |==|  0.77138
USER: genes 11 Torsion [C]-N--CA-[CB] |==|  0.15839
USER: genes 12 Torsion [N]-CA--CB-[CG2] |==|  0.52991
USER: genes 13 Torsion [N]-CA--C-[OXT] |==|  0.43420
USER: genes 14 Torsion [N]-C--CA-[N] |==|  0.54971
USER: genes 15 Torsion [C]-CA--N-[C] |==|  0.63665
USER: genes 16 Torsion [N]-C--CA-[N] |==|  0.33473
USER: genes 17 Torsion [C]-CA--CB-[CG] |==|  0.36662
USER: genes 18 Torsion [CA]-CB--CG-[CD] |==|  0.71727
USER: genes 19 Torsion [CB]-CG--CD-[NE] |==|  0.37040
USER: genes 20 Torsion [CG]-CD--NE-[HE] |==|  0.86986
USER: genes 21 Torsion [C]-CA--CB-[CG] |==|  0.48916
USER: genes 22 Torsion [CA]-CB--CG-[CD] |==|  0.26305
USER: genes 23 Torsion [CB]-CG--CD-[OE2] |==|  0.25866
ROOT
ATOM      1  C   GLU D   7      18.060  24.771  -0.155  1.00 11.94 LIG 0.24  C 
ATOM      2 O    GLU D   7      17.649  25.912  -0.356  1.00 14.56 LIG-0.27  OA
ATOM      3  N   THR D   8      19.355  24.480  -0.027  1.00  6.63 LIG-0.34  N 
ATOM      4 H    THR D   8      19.654  23.690   0.133  1.00  6.63 LIG 0.16  HD
ENDROOT
BRANCH 3 5
ATOM      5  CA  THR D   8      20.389  25.499  -0.151  1.00  8.00 LIG 0.20  C 
BRANCH 5 6
ATOM      6  CB  THR D   8      20.474  26.361   1.118  1.00  7.16 LIG 0.15  C 
ATOM      7  CG2 THR D   8      20.869  25.520   2.322  1.00  8.54 LIG 0.04  C 
BRANCH 6 8
ATOM      8 OG1  THR D   8      21.457  27.394   0.921  1.00  7.76 LIG-0.39  OA
ATOM      9 HG1  THR D   8      21.074  28.140   0.867  1.00  7.76 LIG 0.21  HD
ENDBRANCH 6 8
ENDBRANCH 5 6
BRANCH 5 10
ATOM     10  C   THR D   8      21.754  24.864  -0.403  1.00  6.30 LIG 0.24  C 
ATOM     11 O    THR D   8      21.915  23.642  -0.282  1.00  7.25 LIG-0.27  OA
ATOM     12  N   GLN D   9      22.732  25.694  -0.757  1.00  7.34 LIG-0.35  N 
ATOM     13 H    GLN D   9      22.616  26.530  -0.920  1.00  7.34 LIG 0.16  HD
BRANCH 12 14
ATOM     14  CA  GLN D   9      24.105  25.239  -0.899  1.00  6.42 LIG 0.18  C 
BRANCH 14 15
ATOM     15  CB  GLN D   9      24.548  25.433  -2.349  1.00  8.55 LIG 0.04  C 
BRANCH 15 16
ATOM     16  CG  GLN D   9      26.024  25.241  -2.575  1.00 10.19 LIG 0.10  C 
BRANCH 16 17
ATOM     17  CD  GLN D   9      26.556  23.982  -1.908  1.00 10.51 LIG 0.21  C 
ATOM     18 OE1  GLN D   9      25.966  22.899  -2.014  1.00 10.16 LIG-0.27  OA
ATOM     19  NE2 GLN D   9      27.689  24.122  -1.225  1.00 11.61 LIG-0.37  N 
ATOM     20 22HE GLN D   9      28.041  23.441  -0.834  1.00 11.61 LIG 0.16  HD
ATOM     21 21HE GLN D   9      28.068  24.892  -1.175  1.00 11.61 LIG 0.16  HD
ENDBRANCH 16 17
ENDBRANCH 15 16
ENDBRANCH 14 15
BRANCH 14 22
ATOM     22  C   GLN D   9      24.995  26.047   0.018  1.00  5.32 LIG 0.24  C 
ATOM     23 O    GLN D   9      25.314  25.603   1.115  1.00  6.01 LIG-0.27  OA
ATOM     24  N   VAL D  10      25.395  27.241  -0.426  1.00  6.34 LIG-0.34  N 
ATOM     25 H    VAL D  10      25.182  27.564  -1.194  1.00  6.34 LIG 0.16  HD
BRANCH 24 26
ATOM     26  CA  VAL D  10      26.250  28.112   0.377  1.00  7.66 LIG 0.19  C 
BRANCH 26 27
ATOM     27  CB  VAL D  10      27.575  27.420   0.784  1.00  6.96 LIG 0.01  C 
ATOM     28  CG1 VAL D  10      28.461  27.224  -0.429  1.00  7.91 LIG 0.01  C 
ATOM     29  CG2 VAL D  10      28.322  28.250   1.835  1.00  7.70 LIG 0.01  C 
ENDBRANCH 26 27
BRANCH 26 30
ATOM     30  C   VAL D  10      26.584  29.411  -0.349  1.00  6.04 LIG 0.20  C 
ATOM     31 OXT  VAL D  10      26.904  30.427   0.278  1.00  6.83 LIG-0.65  OA
ATOM     32 O    VAL D  10      26.515  29.435  -1.581  1.00  6.68 LIG-0.65  OA
ENDBRANCH 26 30
ENDBRANCH 24 26
ENDBRANCH 14 22
ENDBRANCH 12 14
ENDBRANCH 5 10
ENDBRANCH 3 5
BRANCH 1 33
ATOM     33  CA  GLU D   7      17.080  23.612  -0.023  1.00 10.87 LIG 0.18  C 
BRANCH 33 34
ATOM     34  N   GLU D   7      15.795  24.002  -0.597  1.00 12.61 LIG-0.35  N 
ATOM     35  C   ARG D   6      14.653  23.823   0.060  1.00 15.63 LIG 0.26  C 
ATOM     36 O    ARG D   6      14.604  23.385   1.206  1.00 17.14 LIG-0.27  OA
ATOM     37 H    GLU D   7      15.849  24.350  -1.381  1.00 12.61 LIG 0.16  HD
BRANCH 35 38
ATOM     38  CA  ARG D   6      13.374  24.187  -0.686  1.00 20.39 LIG 0.40  C 
ATOM     39  N   ARG D   6      12.482  23.039  -0.815  1.00 31.26 LIG 0.61  N 
BRANCH 38 40
ATOM     40  CB  ARG D   6      12.654  25.351  -0.002  1.00 20.29 LIG 0.05  C 
BRANCH 40 41
ATOM     41  CG  ARG D   6      12.230  26.451  -0.960  1.00 28.41 LIG 0.02  C 
BRANCH 41 42
ATOM     42  CD  ARG D   6      13.173  27.646  -0.903  1.00 36.78 LIG 0.14  C 
BRANCH 42 43
ATOM     43  NE  ARG D   6      13.568  28.122  -2.226  1.00 40.20 LIG-0.23  N 
ATOM     44  CZ  ARG D   6      13.558  29.401  -2.590  1.00 47.18 LIG 0.67  C 
ATOM     45  NH2 ARG D   6      13.931  29.753  -3.814  1.00 45.83 LIG-0.23  N 
ATOM     46  NH1 ARG D   6      13.169  30.333  -1.728  1.00 52.71 LIG-0.23  N 
ATOM     47 1HH2 ARG D   6      14.181  29.152  -4.377  1.00 45.83 LIG 0.17  HD
ATOM     48 2HH2 ARG D   6      13.923  30.581  -4.045  1.00 45.83 LIG 0.17  HD
ATOM     49 1HH1 ARG D   6      12.924  30.109  -0.935  1.00 52.71 LIG 0.17  HD
ATOM     50 2HH1 ARG D   6      13.163  31.160  -1.962  1.00 52.71 LIG 0.17  HD
ATOM     51 HE   ARG D   6      13.822  27.539  -2.805  1.00 40.20 LIG 0.18  HD
ENDBRANCH 42 43
ENDBRANCH 41 42
ENDBRANCH 40 41
ENDBRANCH 38 40
ENDBRANCH 35 38
ENDBRANCH 33 34
BRANCH 33 52
ATOM     52  CB  GLU D   7      17.616  22.378  -0.742  1.00 13.53 LIG 0.04  C 
BRANCH 52 53
ATOM     53  CG  GLU D   7      16.762  21.141  -0.595  1.00 15.67 LIG 0.12  C 
BRANCH 53 54
ATOM     54  CD  GLU D   7      15.799  20.979  -1.756  1.00 22.62 LIG 0.17  C 
ATOM     55 OE2  GLU D   7      16.144  20.285  -2.731  1.00 20.96 LIG-0.65  OA
ATOM     56 OE1  GLU D   7      14.679  21.529  -1.680  1.00 32.46 LIG-0.65  OA
ENDBRANCH 53 54
ENDBRANCH 52 53
ENDBRANCH 33 52
ENDBRANCH 1 33
TORSDOF 22
ENDMDL
MODEL 10
USER: ADFR SOLUTION from run 151
USER: SCORE 16.212850 LL:  -4.077 LR: -13.287 RR:   0.000 FEB:  -6.725
USER: RMSD 11.098600
USER: SEED 150
USER: STATUS no improvement in best in 23 clusters for 5 generations
USER: GENES 24
USER: genes 0 Translation |==|  0.62917 0.56920 0.28634
USER: genes 1 Rotation |==|  0.59481 0.03795 0.61175 0.62262
USER: genes 2 Torsion [C]-N--CA-[CB] |==|  0.16577
USER: genes 3 Torsion [N]-CA--CB-[CG2] |==|  0.15656
USER: genes 4 Torsion [CA]-CB--OG1-[HG1] |==|  0.13447
USER: genes 5 Torsion [N]-CA--C-[N] |==|  0.19907
USER: genes 6 Torsion [C]-N--CA-[C] |==|  0.79445
USER: genes 7 Torsion [N]-CA--CB-[CG] |==|  0.80118
USER: genes 8 Torsion [CA]-CB--CG-[CD] |==|  0.15165
USER: genes 9 Torsion [CB]-CG--CD-[OE1] |==|  0.65485
USER: genes 10 Torsion [N]-CA--C-[N] |==|  0.85817
USER: genes 11 Torsion [C]-N--CA-[CB] |==|  0.27661
USER: genes 12 Torsion [N]-CA--CB-[CG2] |==|  0.06565
USER: genes 13 Torsion [N]-CA--C-[OXT] |==|  0.60731
USER: genes 14 Torsion [N]-C--CA-[N] |==|  0.95886
USER: genes 15 Torsion [C]-CA--N-[C] |==|  0.66892
USER: genes 16 Torsion [N]-C--CA-[N] |==|  0.23384
USER: genes 17 Torsion [C]-CA--CB-[CG] |==|  0.45375
USER: genes 18 Torsion [CA]-CB--CG-[CD] |==|  0.24527
USER: genes 19 Torsion [CB]-CG--CD-[NE] |==|  0.10734
USER: genes 20 Torsion [CG]-CD--NE-[HE] |==|  0.89537
USER: genes 21 Torsion [C]-CA--CB-[CG] |==|  0.44939
USER: genes 22 Torsion [CA]-CB--CG-[CD] |==|  0.17968
USER: genes 23 Torsion [CB]-CG--CD-[OE2] |==|  0.70516
ROOT
ATOM      1  C   GLU D   7      24.333  26.082  -1.318  1.00 11.94 LIG 0.24  C 
ATOM      2 O    GLU D   7      23.982  25.491  -2.338  1.00 14.56 LIG-0.27  OA
ATOM      3  N   THR D   8      23.531  26.249  -0.267  1.00  6.63 LIG-0.34  N 
ATOM      4 H    THR D   8      23.771  26.642   0.460  1.00  6.63 LIG 0.16  HD
ENDROOT
BRANCH 3 5
ATOM      5  CA  THR D   8      22.155  25.770  -0.263  1.00  8.00 LIG 0.20  C 
BRANCH 5 6
ATOM      6  CB  THR D   8      22.097  24.249  -0.472  1.00  7.16 LIG 0.15  C 
ATOM      7  CG2 THR D   8      22.921  23.522   0.581  1.00  8.54 LIG 0.04  C 
BRANCH 6 8
ATOM      8 OG1  THR D   8      20.728  23.813  -0.381  1.00  7.76 LIG-0.39  OA
ATOM      9 HG1  THR D   8      20.244  24.306  -0.860  1.00  7.76 LIG 0.21  HD
ENDBRANCH 6 8
ENDBRANCH 5 6
BRANCH 5 10
ATOM     10  C   THR D   8      21.462  26.110   1.054  1.00  6.30 LIG 0.24  C 
ATOM     11 O    THR D   8      21.205  25.225   1.881  1.00  7.25 LIG-0.27  OA
ATOM     12  N   GLN D   9      21.165  27.393   1.247  1.00  7.34 LIG-0.35  N 
ATOM     13 H    GLN D   9      21.406  28.026   0.718  1.00  7.34 LIG 0.16  HD
BRANCH 12 14
ATOM     14  CA  GLN D   9      20.390  27.832   2.396  1.00  6.42 LIG 0.18  C 
BRANCH 14 15
ATOM     15  CB  GLN D   9      20.510  29.350   2.528  1.00  8.55 LIG 0.04  C 
BRANCH 15 16
ATOM     16  CG  GLN D   9      21.862  29.824   2.993  1.00 10.19 LIG 0.10  C 
BRANCH 16 17
ATOM     17  CD  GLN D   9      22.993  29.304   2.122  1.00 10.51 LIG 0.21  C 
ATOM     18 OE1  GLN D   9      23.938  28.667   2.606  1.00 10.16 LIG-0.27  OA
ATOM     19  NE2 GLN D   9      22.891  29.566   0.822  1.00 11.61 LIG-0.37  N 
ATOM     20 22HE GLN D   9      23.498  29.288   0.279  1.00 11.61 LIG 0.16  HD
ATOM     21 21HE GLN D   9      22.218  30.012   0.524  1.00 11.61 LIG 0.16  HD
ENDBRANCH 16 17
ENDBRANCH 15 16
ENDBRANCH 14 15
BRANCH 14 22
ATOM     22  C   GLN D   9      18.942  27.451   2.195  1.00  5.32 LIG 0.24  C 
ATOM     23 O    GLN D   9      18.338  26.840   3.070  1.00  6.01 LIG-0.27  OA
ATOM     24  N   VAL D  10      18.378  27.805   1.037  1.00  6.34 LIG-0.34  N 
ATOM     25 H    VAL D  10      18.788  28.235   0.416  1.00  6.34 LIG 0.16  HD
BRANCH 24 26
ATOM     26  CA  VAL D  10      16.987  27.482   0.729  1.00  7.66 LIG 0.19  C 
BRANCH 26 27
ATOM     27  CB  VAL D  10      16.040  28.685   0.968  1.00  6.96 LIG 0.01  C 
ATOM     28  CG1 VAL D  10      15.369  28.566   2.322  1.00  7.91 LIG 0.01  C 
ATOM     29  CG2 VAL D  10      16.811  30.008   0.892  1.00  7.70 LIG 0.01  C 
ENDBRANCH 26 27
BRANCH 26 30
ATOM     30  C   VAL D  10      16.816  27.009  -0.711  1.00  6.04 LIG 0.20  C 
ATOM     31 OXT  VAL D  10      15.831  27.343  -1.378  1.00  6.83 LIG-0.65  OA
ATOM     32 O    VAL D  10      17.678  26.272  -1.198  1.00  6.68 LIG-0.65  OA
ENDBRANCH 26 30
ENDBRANCH 24 26
ENDBRANCH 14 22
ENDBRANCH 12 14
ENDBRANCH 5 10
ENDBRANCH 3 5
BRANCH 1 33
ATOM     33  CA  GLU D   7      25.743  26.646  -1.203  1.00 10.87 LIG 0.18  C 
BRANCH 33 34
ATOM     34  N   GLU D   7      25.801  27.568  -0.071  1.00 12.61 LIG-0.35  N 
ATOM     35  C   ARG D   6      26.111  28.851  -0.230  1.00 15.63 LIG 0.26  C 
ATOM     36 O    ARG D   6      26.303  29.360  -1.331  1.00 17.14 LIG-0.27  OA
ATOM     37 H    GLU D   7      25.619  27.208   0.688  1.00 12.61 LIG 0.16  HD
BRANCH 35 38
ATOM     38  CA  ARG D   6      26.226  29.687   1.040  1.00 20.39 LIG 0.40  C 
ATOM     39  N   ARG D   6      27.549  29.563   1.646  1.00 31.26 LIG 0.61  N 
BRANCH 38 40
ATOM     40  CB  ARG D   6      25.898  31.154   0.762  1.00 20.29 LIG 0.05  C 
BRANCH 40 41
ATOM     41  CG  ARG D   6      25.602  31.959   2.016  1.00 28.41 LIG 0.02  C 
BRANCH 41 42
ATOM     42  CD  ARG D   6      26.868  32.553   2.620  1.00 36.78 LIG 0.14  C 
BRANCH 42 43
ATOM     43  NE  ARG D   6      27.810  33.029   1.611  1.00 40.20 LIG-0.23  N 
ATOM     44  CZ  ARG D   6      28.548  34.128   1.741  1.00 47.18 LIG 0.67  C 
ATOM     45  NH2 ARG D   6      29.382  34.494   0.776  1.00 45.83 LIG-0.23  N 
ATOM     46  NH1 ARG D   6      28.450  34.865   2.841  1.00 52.71 LIG-0.23  N 
ATOM     47 1HH2 ARG D   6      29.447  34.020   0.062  1.00 45.83 LIG 0.17  HD
ATOM     48 2HH2 ARG D   6      29.857  35.205   0.865  1.00 45.83 LIG 0.17  HD
ATOM     49 1HH1 ARG D   6      27.909  34.633   3.468  1.00 52.71 LIG 0.17  HD
ATOM     50 2HH1 ARG D   6      28.927  35.575   2.927  1.00 52.71 LIG 0.17  HD
ATOM     51 HE   ARG D   6      27.892  32.570   0.887  1.00 40.20 LIG 0.18  HD
ENDBRANCH 42 43
ENDBRANCH 41 42
ENDBRANCH 40 41
ENDBRANCH 38 40
ENDBRANCH 35 38
ENDBRANCH 33 34
BRANCH 33 52
ATOM     52  CB  GLU D   7      26.753  25.520  -1.004  1.00 13.53 LIG 0.04  C 
BRANCH 52 53
ATOM     53  CG  GLU D   7      28.184  25.895  -1.305  1.00 15.67 LIG 0.12  C 
BRANCH 53 54
ATOM     54  CD  GLU D   7      28.703  26.951  -0.347  1.00 22.62 LIG 0.17  C 
ATOM     55 OE2  GLU D   7      28.844  28.118  -0.759  1.00 20.96 LIG-0.65  OA
ATOM     56 OE1  GLU D   7      28.947  26.615   0.831  1.00 32.46 LIG-0.65  OA
ENDBRANCH 53 54
ENDBRANCH 52 53
ENDBRANCH 33 52
ENDBRANCH 1 33
TORSDOF 22
ENDMDL
MODEL 11
USER: ADFR SOLUTION from run 99
USER: SCORE 15.966597 LL:  -3.724 LR: -13.273 RR:   0.000 FEB:  -6.710
USER: RMSD 9.956527
USER: SEED 98
USER: STATUS no improvement in best in 7 clusters for 5 generations
USER: GENES 24
USER: genes 0 Translation |==|  0.64669 0.84749 0.45880
USER: genes 1 Rotation |==|  0.13077 0.82875 0.51402 0.57345
USER: genes 2 Torsion [C]-N--CA-[CB] |==|  0.18379
USER: genes 3 Torsion [N]-CA--CB-[CG2] |==|  0.18454
USER: genes 4 Torsion [CA]-CB--OG1-[HG1] |==|  0.02642
USER: genes 5 Torsion [N]-CA--C-[N] |==|  0.43334
USER: genes 6 Torsion [C]-N--CA-[C] |==|  0.74233
USER: genes 7 Torsion [N]-CA--CB-[CG] |==|  0.56185
USER: genes 8 Torsion [CA]-CB--CG-[CD] |==|  0.66268
USER: genes 9 Torsion [CB]-CG--CD-[OE1] |==|  0.25059
USER: genes 10 Torsion [N]-CA--C-[N] |==|  0.00909
USER: genes 11 Torsion [C]-N--CA-[CB] |==|  0.25028
USER: genes 12 Torsion [N]-CA--CB-[CG2] |==|  0.05512
USER: genes 13 Torsion [N]-CA--C-[OXT] |==|  0.32476
USER: genes 14 Torsion [N]-C--CA-[N] |==|  0.94844
USER: genes 15 Torsion [C]-CA--N-[C] |==|  0.78281
USER: genes 16 Torsion [N]-C--CA-[N] |==|  0.31707
USER: genes 17 Torsion [C]-CA--CB-[CG] |==|  0.07004
USER: genes 18 Torsion [CA]-CB--CG-[CD] |==|  0.50524
USER: genes 19 Torsion [CB]-CG--CD-[NE] |==|  0.30849
USER: genes 20 Torsion [CG]-CD--NE-[HE] |==|  0.20022
USER: genes 21 Torsion [C]-CA--CB-[CG] |==|  0.87355
USER: genes 22 Torsion [CA]-CB--CG-[CD] |==|  0.33432
USER: genes 23 Torsion [CB]-CG--CD-[OE2] |==|  0.78699
ROOT
ATOM      1  C   GLU D   7      24.728  32.969   1.786  1.00 11.94 LIG 0.24  C 
ATOM      2 O    GLU D   7      24.898  33.399   0.646  1.00 14.56 LIG-0.27  OA
ATOM      3  N   THR D   8      24.625  31.670   2.062  1.00  6.63 LIG-0.34  N 
ATOM      4 H    THR D   8      24.525  31.355   2.857  1.00  6.63 LIG 0.16  HD
ENDROOT
BRANCH 3 5
ATOM      5  CA  THR D   8      24.672  30.654   1.018  1.00  8.00 LIG 0.20  C 
BRANCH 5 6
ATOM      6  CB  THR D   8      26.057  30.607   0.353  1.00  7.16 LIG 0.15  C 
ATOM      7  CG2 THR D   8      27.116  30.125   1.333  1.00  8.54 LIG 0.04  C 
BRANCH 6 8
ATOM      8 OG1  THR D   8      26.010  29.706  -0.769  1.00  7.76 LIG-0.39  OA
ATOM      9 HG1  THR D   8      25.213  29.486  -0.919  1.00  7.76 LIG 0.21  HD
ENDBRANCH 6 8
ENDBRANCH 5 6
BRANCH 5 10
ATOM     10  C   THR D   8      24.354  29.272   1.585  1.00  6.30 LIG 0.24  C 
ATOM     11 O    THR D   8      24.528  29.026   2.786  1.00  7.25 LIG-0.27  OA
ATOM     12  N   GLN D   9      23.885  28.377   0.720  1.00  7.34 LIG-0.35  N 
ATOM     13 H    GLN D   9      23.687  28.556  -0.097  1.00  7.34 LIG 0.16  HD
BRANCH 12 14
ATOM     14  CA  GLN D   9      23.666  26.991   1.100  1.00  6.42 LIG 0.18  C 
BRANCH 14 15
ATOM     15  CB  GLN D   9      22.472  26.442   0.321  1.00  8.55 LIG 0.04  C 
BRANCH 15 16
ATOM     16  CG  GLN D   9      21.810  25.251   0.962  1.00 10.19 LIG 0.10  C 
BRANCH 16 17
ATOM     17  CD  GLN D   9      21.802  24.031   0.055  1.00 10.51 LIG 0.21  C 
ATOM     18 OE1  GLN D   9      22.728  23.210   0.072  1.00 10.16 LIG-0.27  OA
ATOM     19  NE2 GLN D   9      20.740  23.904  -0.735  1.00 11.61 LIG-0.37  N 
ATOM     20 22HE GLN D   9      20.677  23.228  -1.264  1.00 11.61 LIG 0.16  HD
ATOM     21 21HE GLN D   9      20.117  24.496  -0.718  1.00 11.61 LIG 0.16  HD
ENDBRANCH 16 17
ENDBRANCH 15 16
ENDBRANCH 14 15
BRANCH 14 22
ATOM     22  C   GLN D   9      24.902  26.184   0.774  1.00  5.32 LIG 0.24  C 
ATOM     23 O    GLN D   9      24.915  24.973   0.963  1.00  6.01 LIG-0.27  OA
ATOM     24  N   VAL D  10      25.950  26.853   0.287  1.00  6.34 LIG-0.34  N 
ATOM     25 H    VAL D  10      25.954  27.702   0.147  1.00  6.34 LIG 0.16  HD
BRANCH 24 26
ATOM     26  CA  VAL D  10      27.200  26.180  -0.056  1.00  7.66 LIG 0.19  C 
BRANCH 26 27
ATOM     27  CB  VAL D  10      27.220  25.696  -1.527  1.00  6.96 LIG 0.01  C 
ATOM     28  CG1 VAL D  10      26.943  24.208  -1.597  1.00  7.91 LIG 0.01  C 
ATOM     29  CG2 VAL D  10      26.180  26.451  -2.363  1.00  7.70 LIG 0.01  C 
ENDBRANCH 26 27
BRANCH 26 30
ATOM     30  C   VAL D  10      28.413  27.074   0.177  1.00  6.04 LIG 0.20  C 
ATOM     31 OXT  VAL D  10      29.276  26.773   1.009  1.00  6.83 LIG-0.65  OA
ATOM     32 O    VAL D  10      28.512  28.119  -0.473  1.00  6.68 LIG-0.65  OA
ENDBRANCH 26 30
ENDBRANCH 24 26
ENDBRANCH 14 22
ENDBRANCH 12 14
ENDBRANCH 5 10
ENDBRANCH 3 5
BRANCH 1 33
ATOM     33  CA  GLU D   7      24.643  33.930   2.965  1.00 10.87 LIG 0.18  C 
BRANCH 33 34
ATOM     34  N   GLU D   7      24.031  33.245   4.100  1.00 12.61 LIG-0.35  N 
ATOM     35  C   ARG D   6      22.717  33.054   4.176  1.00 15.63 LIG 0.26  C 
ATOM     36 O    ARG D   6      21.943  33.376   3.278  1.00 17.14 LIG-0.27  OA
ATOM     37 H    GLU D   7      24.589  32.983   4.699  1.00 12.61 LIG 0.16  HD
BRANCH 35 38
ATOM     38  CA  ARG D   6      22.195  32.407   5.454  1.00 20.39 LIG 0.40  C 
ATOM     39  N   ARG D   6      21.359  33.328   6.219  1.00 31.26 LIG 0.61  N 
BRANCH 38 40
ATOM     40  CB  ARG D   6      21.429  31.120   5.144  1.00 20.29 LIG 0.05  C 
BRANCH 40 41
ATOM     41  CG  ARG D   6      21.848  30.463   3.839  1.00 28.41 LIG 0.02  C 
BRANCH 41 42
ATOM     42  CD  ARG D   6      21.029  29.212   3.548  1.00 36.78 LIG 0.14  C 
BRANCH 42 43
ATOM     43  NE  ARG D   6      20.130  29.375   2.408  1.00 40.20 LIG-0.23  N 
ATOM     44  CZ  ARG D   6      18.808  29.482   2.514  1.00 47.18 LIG 0.67  C 
ATOM     45  NH2 ARG D   6      18.059  29.627   1.428  1.00 45.83 LIG-0.23  N 
ATOM     46  NH1 ARG D   6      18.233  29.441   3.710  1.00 52.71 LIG-0.23  N 
ATOM     47 1HH2 ARG D   6      18.427  29.652   0.651  1.00 45.83 LIG 0.17  HD
ATOM     48 2HH2 ARG D   6      17.205  29.696   1.501  1.00 45.83 LIG 0.17  HD
ATOM     49 1HH1 ARG D   6      18.715  29.345   4.415  1.00 52.71 LIG 0.17  HD
ATOM     50 2HH1 ARG D   6      17.379  29.511   3.778  1.00 52.71 LIG 0.17  HD
ATOM     51 HE   ARG D   6      20.476  29.403   1.621  1.00 40.20 LIG 0.18  HD
ENDBRANCH 42 43
ENDBRANCH 41 42
ENDBRANCH 40 41
ENDBRANCH 38 40
ENDBRANCH 35 38
ENDBRANCH 33 34
BRANCH 33 52
ATOM     52  CB  GLU D   7      26.034  34.426   3.348  1.00 13.53 LIG 0.04  C 
BRANCH 52 53
ATOM     53  CG  GLU D   7      27.089  33.349   3.423  1.00 15.67 LIG 0.12  C 
BRANCH 53 54
ATOM     54  CD  GLU D   7      28.230  33.610   2.457  1.00 22.62 LIG 0.17  C 
ATOM     55 OE2  GLU D   7      28.058  33.372   1.246  1.00 20.96 LIG-0.65  OA
ATOM     56 OE1  GLU D   7      29.296  34.080   2.910  1.00 32.46 LIG-0.65  OA
ENDBRANCH 53 54
ENDBRANCH 52 53
ENDBRANCH 33 52
ENDBRANCH 1 33
TORSDOF 22
ENDMDL
MODEL 12
USER: ADFR SOLUTION from run 17
USER: SCORE 15.909087 LL:  -4.226 LR: -13.217 RR:   0.000 FEB:  -6.655
USER: RMSD 11.455673
USER: SEED 16
USER: STATUS no improvement in best in 12 clusters for 5 generations
USER: GENES 24
USER: genes 0 Translation |==|  0.65460 0.54481 0.27541
USER: genes 1 Rotation |==|  0.61752 0.06147 0.69723 0.57056
USER: genes 2 Torsion [C]-N--CA-[CB] |==|  0.20860
USER: genes 3 Torsion [N]-CA--CB-[CG2] |==|  0.21306
USER: genes 4 Torsion [CA]-CB--OG1-[HG1] |==|  0.64037
USER: genes 5 Torsion [N]-CA--C-[N] |==|  0.43916
USER: genes 6 Torsion [C]-N--CA-[C] |==|  0.69109
USER: genes 7 Torsion [N]-CA--CB-[CG] |==|  0.33397
USER: genes 8 Torsion [CA]-CB--CG-[CD] |==|  0.39260
USER: genes 9 Torsion [CB]-CG--CD-[OE1] |==|  0.02155
USER: genes 10 Torsion [N]-CA--C-[N] |==|  0.89621
USER: genes 11 Torsion [C]-N--CA-[CB] |==|  0.40804
USER: genes 12 Torsion [N]-CA--CB-[CG2] |==|  0.89134
USER: genes 13 Torsion [N]-CA--C-[OXT] |==|  0.46594
USER: genes 14 Torsion [N]-C--CA-[N] |==|  0.99153
USER: genes 15 Torsion [C]-CA--N-[C] |==|  0.64572
USER: genes 16 Torsion [N]-C--CA-[N] |==|  0.85142
USER: genes 17 Torsion [C]-CA--CB-[CG] |==|  0.39117
USER: genes 18 Torsion [CA]-CB--CG-[CD] |==|  0.95432
USER: genes 19 Torsion [CB]-CG--CD-[NE] |==|  0.69530
USER: genes 20 Torsion [CG]-CD--NE-[HE] |==|  0.20553
USER: genes 21 Torsion [C]-CA--CB-[CG] |==|  0.44093
USER: genes 22 Torsion [CA]-CB--CG-[CD] |==|  0.24347
USER: genes 23 Torsion [CB]-CG--CD-[OE2] |==|  0.71510
ROOT
ATOM      1  C   GLU D   7      24.906  25.478  -1.515  1.00 11.94 LIG 0.24  C 
ATOM      2 O    GLU D   7      24.935  24.586  -2.362  1.00 14.56 LIG-0.27  OA
ATOM      3  N   THR D   8      23.857  25.686  -0.718  1.00  6.63 LIG-0.34  N 
ATOM      4 H    THR D   8      23.832  26.293  -0.109  1.00  6.63 LIG 0.16  HD
ENDROOT
BRANCH 3 5
ATOM      5  CA  THR D   8      22.643  24.885  -0.818  1.00  8.00 LIG 0.20  C 
BRANCH 5 6
ATOM      6  CB  THR D   8      22.849  23.488  -0.215  1.00  7.16 LIG 0.15  C 
ATOM      7  CG2 THR D   8      22.819  23.540   1.306  1.00  8.54 LIG 0.04  C 
BRANCH 6 8
ATOM      8 OG1  THR D   8      21.801  22.616  -0.677  1.00  7.76 LIG-0.39  OA
ATOM      9 HG1  THR D   8      21.452  22.224  -0.020  1.00  7.76 LIG 0.21  HD
ENDBRANCH 6 8
ENDBRANCH 5 6
BRANCH 5 10
ATOM     10  C   THR D   8      21.481  25.564  -0.096  1.00  6.30 LIG 0.24  C 
ATOM     11 O    THR D   8      21.690  26.407   0.787  1.00  7.25 LIG-0.27  OA
ATOM     12  N   GLN D   9      20.260  25.197  -0.476  1.00  7.34 LIG-0.35  N 
ATOM     13 H    GLN D   9      20.100  24.673  -1.138  1.00  7.34 LIG 0.16  HD
BRANCH 12 14
ATOM     14  CA  GLN D   9      19.072  25.668   0.217  1.00  6.42 LIG 0.18  C 
BRANCH 14 15
ATOM     15  CB  GLN D   9      18.092  26.241  -0.805  1.00  8.55 LIG 0.04  C 
BRANCH 15 16
ATOM     16  CG  GLN D   9      16.754  25.549  -0.834  1.00 10.19 LIG 0.10  C 
BRANCH 16 17
ATOM     17  CD  GLN D   9      15.602  26.519  -1.036  1.00 10.51 LIG 0.21  C 
ATOM     18 OE1  GLN D   9      15.802  27.712  -1.299  1.00 10.16 LIG-0.27  OA
ATOM     19  NE2 GLN D   9      14.382  26.001  -0.926  1.00 11.61 LIG-0.37  N 
ATOM     20 22HE GLN D   9      13.690  26.501  -1.039  1.00 11.61 LIG 0.16  HD
ATOM     21 21HE GLN D   9      14.284  25.166  -0.742  1.00 11.61 LIG 0.16  HD
ENDBRANCH 16 17
ENDBRANCH 15 16
ENDBRANCH 14 15
BRANCH 14 22
ATOM     22  C   GLN D   9      18.429  24.509   0.946  1.00  5.32 LIG 0.24  C 
ATOM     23 O    GLN D   9      17.922  24.680   2.048  1.00  6.01 LIG-0.27  OA
ATOM     24  N   VAL D  10      18.452  23.323   0.334  1.00  6.34 LIG-0.34  N 
ATOM     25 H    VAL D  10      18.802  23.189  -0.440  1.00  6.34 LIG 0.16  HD
BRANCH 24 26
ATOM     26  CA  VAL D  10      17.870  22.131   0.946  1.00  7.66 LIG 0.19  C 
BRANCH 26 27
ATOM     27  CB  VAL D  10      17.270  21.166  -0.107  1.00  6.96 LIG 0.01  C 
ATOM     28  CG1 VAL D  10      16.285  20.218   0.548  1.00  7.91 LIG 0.01  C 
ATOM     29  CG2 VAL D  10      16.565  21.947  -1.222  1.00  7.70 LIG 0.01  C 
ENDBRANCH 26 27
BRANCH 26 30
ATOM     30  C   VAL D  10      18.888  21.364   1.783  1.00  6.04 LIG 0.20  C 
ATOM     31 OXT  VAL D  10      18.532  20.464   2.551  1.00  6.83 LIG-0.65  OA
ATOM     32 O    VAL D  10      20.081  21.667   1.689  1.00  6.68 LIG-0.65  OA
ENDBRANCH 26 30
ENDBRANCH 24 26
ENDBRANCH 14 22
ENDBRANCH 12 14
ENDBRANCH 5 10
ENDBRANCH 3 5
BRANCH 1 33
ATOM     33  CA  GLU D   7      26.106  26.396  -1.323  1.00 10.87 LIG 0.18  C 
BRANCH 33 34
ATOM     34  N   GLU D   7      25.791  27.391  -0.302  1.00 12.61 LIG-0.35  N 
ATOM     35  C   ARG D   6      25.949  28.693  -0.523  1.00 15.63 LIG 0.26  C 
ATOM     36 O    ARG D   6      26.302  29.148  -1.607  1.00 17.14 LIG-0.27  OA
ATOM     37 H    GLU D   7      25.501  27.062   0.437  1.00 12.61 LIG 0.16  HD
BRANCH 35 38
ATOM     38  CA  ARG D   6      25.672  29.623   0.654  1.00 20.39 LIG 0.40  C 
ATOM     39  N   ARG D   6      24.349  29.387   1.224  1.00 31.26 LIG 0.61  N 
BRANCH 38 40
ATOM     40  CB  ARG D   6      26.751  29.484   1.728  1.00 20.29 LIG 0.05  C 
BRANCH 40 41
ATOM     41  CG  ARG D   6      27.148  30.804   2.366  1.00 28.41 LIG 0.02  C 
BRANCH 41 42
ATOM     42  CD  ARG D   6      26.688  31.995   1.535  1.00 36.78 LIG 0.14  C 
BRANCH 42 43
ATOM     43  NE  ARG D   6      27.795  32.701   0.893  1.00 40.20 LIG-0.23  N 
ATOM     44  CZ  ARG D   6      28.253  33.884   1.292  1.00 47.18 LIG 0.67  C 
ATOM     45  NH2 ARG D   6      29.264  34.461   0.654  1.00 45.83 LIG-0.23  N 
ATOM     46  NH1 ARG D   6      27.696  34.495   2.331  1.00 52.71 LIG-0.23  N 
ATOM     47 1HH2 ARG D   6      29.626  34.069  -0.021  1.00 45.83 LIG 0.17  HD
ATOM     48 2HH2 ARG D   6      29.557  35.226   0.916  1.00 45.83 LIG 0.17  HD
ATOM     49 1HH1 ARG D   6      27.040  34.126   2.745  1.00 52.71 LIG 0.17  HD
ATOM     50 2HH1 ARG D   6      27.993  35.259   2.589  1.00 52.71 LIG 0.17  HD
ATOM     51 HE   ARG D   6      28.173  32.328   0.216  1.00 40.20 LIG 0.18  HD
ENDBRANCH 42 43
ENDBRANCH 41 42
ENDBRANCH 40 41
ENDBRANCH 38 40
ENDBRANCH 35 38
ENDBRANCH 33 34
BRANCH 33 52
ATOM     52  CB  GLU D   7      27.329  25.589  -0.899  1.00 13.53 LIG 0.04  C 
BRANCH 52 53
ATOM     53  CG  GLU D   7      28.653  26.266  -1.161  1.00 15.67 LIG 0.12  C 
BRANCH 53 54
ATOM     54  CD  GLU D   7      29.070  27.158  -0.006  1.00 22.62 LIG 0.17  C 
ATOM     55 OE2  GLU D   7      28.924  28.390  -0.116  1.00 20.96 LIG-0.65  OA
ATOM     56 OE1  GLU D   7      29.520  26.619   1.028  1.00 32.46 LIG-0.65  OA
ENDBRANCH 53 54
ENDBRANCH 52 53
ENDBRANCH 33 52
ENDBRANCH 1 33
TORSDOF 22
ENDMDL
MODEL 13
USER: ADFR SOLUTION from run 114
USER: SCORE 17.836857 LL:  -5.000 LR: -13.182 RR:   0.000 FEB:  -6.620
USER: RMSD 6.039963
USER: SEED 113
USER: STATUS no improvement in best in 4 clusters for 5 generations
USER: GENES 24
USER: genes 0 Translation |==|  0.38727 0.54201 0.41025
USER: genes 1 Rotation |==|  0.01905 0.55416 0.41088 0.58836
USER: genes 2 Torsion [C]-N--CA-[CB] |==|  0.77640
USER: genes 3 Torsion [N]-CA--CB-[CG2] |==|  0.71244
USER: genes 4 Torsion [CA]-CB--OG1-[HG1] |==|  0.19599
USER: genes 5 Torsion [N]-CA--C-[N] |==|  0.21925
USER: genes 6 Torsion [C]-N--CA-[C] |==|  0.77268
USER: genes 7 Torsion [N]-CA--CB-[CG] |==|  0.37059
USER: genes 8 Torsion [CA]-CB--CG-[CD] |==|  0.25749
USER: genes 9 Torsion [CB]-CG--CD-[OE1] |==|  0.27717
USER: genes 10 Torsion [N]-CA--C-[N] |==|  0.33956
USER: genes 11 Torsion [C]-N--CA-[CB] |==|  0.36030
USER: genes 12 Torsion [N]-CA--CB-[CG2] |==|  0.02580
USER: genes 13 Torsion [N]-CA--C-[OXT] |==|  0.92399
USER: genes 14 Torsion [N]-C--CA-[N] |==|  0.36157
USER: genes 15 Torsion [C]-CA--N-[C] |==|  0.83411
USER: genes 16 Torsion [N]-C--CA-[N] |==|  0.60991
USER: genes 17 Torsion [C]-CA--CB-[CG] |==|  0.27978
USER: genes 18 Torsion [CA]-CB--CG-[CD] |==|  0.57821
USER: genes 19 Torsion [CB]-CG--CD-[NE] |==|  0.82917
USER: genes 20 Torsion [CG]-CD--NE-[HE] |==|  0.91085
USER: genes 21 Torsion [C]-CA--CB-[CG] |==|  0.83229
USER: genes 22 Torsion [CA]-CB--CG-[CD] |==|  0.75918
USER: genes 23 Torsion [CB]-CG--CD-[OE2] |==|  0.79949
ROOT
ATOM      1  C   GLU D   7      18.890  25.409   0.913  1.00 11.94 LIG 0.24  C 
ATOM      2 O    GLU D   7      19.245  25.812  -0.194  1.00 14.56 LIG-0.27  OA
ATOM      3  N   THR D   8      19.704  24.751   1.737  1.00  6.63 LIG-0.34  N 
ATOM      4 H    THR D   8      19.475  24.481   2.522  1.00  6.63 LIG 0.16  HD
ENDROOT
BRANCH 3 5
ATOM      5  CA  THR D   8      21.077  24.427   1.370  1.00  8.00 LIG 0.20  C 
BRANCH 5 6
ATOM      6  CB  THR D   8      21.133  23.182   0.471  1.00  7.16 LIG 0.15  C 
ATOM      7  CG2 THR D   8      21.594  21.964   1.257  1.00  8.54 LIG 0.04  C 
BRANCH 6 8
ATOM      8 OG1  THR D   8      19.821  22.929  -0.064  1.00  7.76 LIG-0.39  OA
ATOM      9 HG1  THR D   8      19.628  23.521  -0.628  1.00  7.76 LIG 0.21  HD
ENDBRANCH 6 8
ENDBRANCH 5 6
BRANCH 5 10
ATOM     10  C   THR D   8      21.734  25.593   0.633  1.00  6.30 LIG 0.24  C 
ATOM     11 O    THR D   8      21.840  25.582  -0.601  1.00  7.25 LIG-0.27  OA
ATOM     12  N   GLN D   9      22.168  26.596   1.391  1.00  7.34 LIG-0.35  N 
ATOM     13 H    GLN D   9      22.032  26.652   2.237  1.00  7.34 LIG 0.16  HD
BRANCH 12 14
ATOM     14  CA  GLN D   9      22.926  27.703   0.830  1.00  6.42 LIG 0.18  C 
BRANCH 14 15
ATOM     15  CB  GLN D   9      22.815  28.908   1.763  1.00  8.55 LIG 0.04  C 
BRANCH 15 16
ATOM     16  CG  GLN D   9      24.126  29.591   2.049  1.00 10.19 LIG 0.10  C 
BRANCH 16 17
ATOM     17  CD  GLN D   9      24.405  30.738   1.091  1.00 10.51 LIG 0.21  C 
ATOM     18 OE1  GLN D   9      24.195  31.914   1.415  1.00 10.16 LIG-0.27  OA
ATOM     19  NE2 GLN D   9      24.896  30.395  -0.097  1.00 11.61 LIG-0.37  N 
ATOM     20 22HE GLN D   9      25.082  31.002  -0.677  1.00 11.61 LIG 0.16  HD
ATOM     21 21HE GLN D   9      25.028  29.565  -0.285  1.00 11.61 LIG 0.16  HD
ENDBRANCH 16 17
ENDBRANCH 15 16
ENDBRANCH 14 15
BRANCH 14 22
ATOM     22  C   GLN D   9      24.376  27.295   0.694  1.00  5.32 LIG 0.24  C 
ATOM     23 O    GLN D   9      25.008  26.931   1.679  1.00  6.01 LIG-0.27  OA
ATOM     24  N   VAL D  10      24.909  27.360  -0.528  1.00  6.34 LIG-0.34  N 
ATOM     25 H    VAL D  10      24.478  27.611  -1.228  1.00  6.34 LIG 0.16  HD
BRANCH 24 26
ATOM     26  CA  VAL D  10      26.303  26.999  -0.778  1.00  7.66 LIG 0.19  C 
BRANCH 26 27
ATOM     27  CB  VAL D  10      26.448  26.003  -1.955  1.00  6.96 LIG 0.01  C 
ATOM     28  CG1 VAL D  10      26.920  24.655  -1.450  1.00  7.91 LIG 0.01  C 
ATOM     29  CG2 VAL D  10      25.115  25.836  -2.694  1.00  7.70 LIG 0.01  C 
ENDBRANCH 26 27
BRANCH 26 30
ATOM     30  C   VAL D  10      27.166  28.223  -1.068  1.00  6.04 LIG 0.20  C 
ATOM     31 OXT  VAL D  10      26.677  29.244  -1.564  1.00  6.83 LIG-0.65  OA
ATOM     32 O    VAL D  10      28.372  28.171  -0.811  1.00  6.68 LIG-0.65  OA
ENDBRANCH 26 30
ENDBRANCH 24 26
ENDBRANCH 14 22
ENDBRANCH 12 14
ENDBRANCH 5 10
ENDBRANCH 3 5
BRANCH 1 33
ATOM     33  CA  GLU D   7      17.474  25.668   1.408  1.00 10.87 LIG 0.18  C 
BRANCH 33 34
ATOM     34  N   GLU D   7      17.150  27.079   1.221  1.00 12.61 LIG-0.35  N 
ATOM     35  C   ARG D   6      17.861  28.042   1.801  1.00 15.63 LIG 0.26  C 
ATOM     36 O    ARG D   6      18.865  27.818   2.471  1.00 17.14 LIG-0.27  OA
ATOM     37 H    GLU D   7      16.472  27.223   0.712  1.00 12.61 LIG 0.16  HD
BRANCH 35 38
ATOM     38  CA  ARG D   6      17.365  29.470   1.601  1.00 20.39 LIG 0.40  C 
ATOM     39  N   ARG D   6      18.473  30.399   1.398  1.00 31.26 LIG 0.61  N 
BRANCH 38 40
ATOM     40  CB  ARG D   6      16.378  29.549   0.435  1.00 20.29 LIG 0.05  C 
BRANCH 40 41
ATOM     41  CG  ARG D   6      14.924  29.596   0.871  1.00 28.41 LIG 0.02  C 
BRANCH 41 42
ATOM     42  CD  ARG D   6      13.997  29.000  -0.181  1.00 36.78 LIG 0.14  C 
BRANCH 42 43
ATOM     43  NE  ARG D   6      14.043  29.722  -1.451  1.00 40.20 LIG-0.23  N 
ATOM     44  CZ  ARG D   6      13.870  29.148  -2.639  1.00 47.18 LIG 0.67  C 
ATOM     45  NH2 ARG D   6      13.927  29.874  -3.748  1.00 45.83 LIG-0.23  N 
ATOM     46  NH1 ARG D   6      13.643  27.842  -2.717  1.00 52.71 LIG-0.23  N 
ATOM     47 1HH2 ARG D   6      14.076  30.719  -3.702  1.00 45.83 LIG 0.17  HD
ATOM     48 2HH2 ARG D   6      13.815  29.498  -4.514  1.00 45.83 LIG 0.17  HD
ATOM     49 1HH1 ARG D   6      13.608  27.368  -2.001  1.00 52.71 LIG 0.17  HD
ATOM     50 2HH1 ARG D   6      13.531  27.471  -3.484  1.00 52.71 LIG 0.17  HD
ATOM     51 HE   ARG D   6      14.190  30.569  -1.429  1.00 40.20 LIG 0.18  HD
ENDBRANCH 42 43
ENDBRANCH 41 42
ENDBRANCH 40 41
ENDBRANCH 38 40
ENDBRANCH 35 38
ENDBRANCH 33 34
BRANCH 33 52
ATOM     52  CB  GLU D   7      16.477  24.803   0.643  1.00 13.53 LIG 0.04  C 
BRANCH 52 53
ATOM     53  CG  GLU D   7      16.446  25.042  -0.847  1.00 15.67 LIG 0.12  C 
BRANCH 53 54
ATOM     54  CD  GLU D   7      15.502  26.171  -1.218  1.00 22.62 LIG 0.17  C 
ATOM     55 OE2  GLU D   7      14.274  25.979  -1.135  1.00 20.96 LIG-0.65  OA
ATOM     56 OE1  GLU D   7      15.994  27.266  -1.567  1.00 32.46 LIG-0.65  OA
ENDBRANCH 53 54
ENDBRANCH 52 53
ENDBRANCH 33 52
ENDBRANCH 1 33
TORSDOF 22
ENDMDL
MODEL 14
USER: ADFR SOLUTION from run 75
USER: SCORE 16.251776 LL:  -4.328 LR: -13.149 RR:   0.000 FEB:  -6.586
USER: RMSD 4.834584
USER: SEED 74
USER: STATUS no improvement in best in 14 clusters for 5 generations
USER: GENES 24
USER: genes 0 Translation |==|  0.37610 0.43783 0.42165
USER: genes 1 Rotation |==|  0.57813 0.54747 0.55310 0.98869
USER: genes 2 Torsion [C]-N--CA-[CB] |==|  0.24396
USER: genes 3 Torsion [N]-CA--CB-[CG2] |==|  0.50809
USER: genes 4 Torsion [CA]-CB--OG1-[HG1] |==|  0.17457
USER: genes 5 Torsion [N]-CA--C-[N] |==|  0.39147
USER: genes 6 Torsion [C]-N--CA-[C] |==|  0.74157
USER: genes 7 Torsion [N]-CA--CB-[CG] |==|  0.58164
USER: genes 8 Torsion [CA]-CB--CG-[CD] |==|  0.71268
USER: genes 9 Torsion [CB]-CG--CD-[OE1] |==|  0.77159
USER: genes 10 Torsion [N]-CA--C-[N] |==|  0.41111
USER: genes 11 Torsion [C]-N--CA-[CB] |==|  0.27961
USER: genes 12 Torsion [N]-CA--CB-[CG2] |==|  0.03753
USER: genes 13 Torsion [N]-CA--C-[OXT] |==|  0.91936
USER: genes 14 Torsion [N]-C--CA-[N] |==|  0.90797
USER: genes 15 Torsion [C]-CA--N-[C] |==|  0.77436
USER: genes 16 Torsion [N]-C--CA-[N] |==|  0.29008
USER: genes 17 Torsion [C]-CA--CB-[CG] |==|  0.77780
USER: genes 18 Torsion [CA]-CB--CG-[CD] |==|  0.34526
USER: genes 19 Torsion [CB]-CG--CD-[NE] |==|  0.85684
USER: genes 20 Torsion [CG]-CD--NE-[HE] |==|  0.83253
USER: genes 21 Torsion [C]-CA--CB-[CG] |==|  0.42906
USER: genes 22 Torsion [CA]-CB--CG-[CD] |==|  0.25707
USER: genes 23 Torsion [CB]-CG--CD-[OE2] |==|  0.74281
ROOT
ATOM      1  C   GLU D   7      18.639  22.830   1.118  1.00 11.94 LIG 0.24  C 
ATOM      2 O    GLU D   7      18.789  22.451   2.278  1.00 14.56 LIG-0.27  OA
ATOM      3  N   THR D   8      19.601  23.441   0.426  1.00  6.63 LIG-0.34  N 
ATOM      4 H    THR D   8      19.516  23.693  -0.392  1.00  6.63 LIG 0.16  HD
ENDROOT
BRANCH 3 5
ATOM      5  CA  THR D   8      20.902  23.738   1.013  1.00  8.00 LIG 0.20  C 
BRANCH 5 6
ATOM      6  CB  THR D   8      21.870  22.558   0.841  1.00  7.16 LIG 0.15  C 
ATOM      7  CG2 THR D   8      23.203  22.844   1.516  1.00  8.54 LIG 0.04  C 
BRANCH 6 8
ATOM      8 OG1  THR D   8      21.287  21.380   1.428  1.00  7.76 LIG-0.39  OA
ATOM      9 HG1  THR D   8      20.580  21.184   1.020  1.00  7.76 LIG 0.21  HD
ENDBRANCH 6 8
ENDBRANCH 5 6
BRANCH 5 10
ATOM     10  C   THR D   8      21.521  24.977   0.369  1.00  6.30 LIG 0.24  C 
ATOM     11 O    THR D   8      21.409  25.181  -0.847  1.00  7.25 LIG-0.27  OA
ATOM     12  N   GLN D   9      22.169  25.802   1.188  1.00  7.34 LIG-0.35  N 
ATOM     13 H    GLN D   9      22.188  25.713   2.043  1.00  7.34 LIG 0.16  HD
BRANCH 12 14
ATOM     14  CA  GLN D   9      22.912  26.946   0.687  1.00  6.42 LIG 0.18  C 
BRANCH 14 15
ATOM     15  CB  GLN D   9      22.835  28.078   1.710  1.00  8.55 LIG 0.04  C 
BRANCH 15 16
ATOM     16  CG  GLN D   9      22.915  29.458   1.110  1.00 10.19 LIG 0.10  C 
BRANCH 16 17
ATOM     17  CD  GLN D   9      24.279  30.099   1.305  1.00 10.51 LIG 0.21  C 
ATOM     18 OE1  GLN D   9      24.579  30.666   2.363  1.00 10.16 LIG-0.27  OA
ATOM     19  NE2 GLN D   9      25.119  29.996   0.279  1.00 11.61 LIG-0.37  N 
ATOM     20 22HE GLN D   9      25.909  30.332   0.335  1.00 11.61 LIG 0.16  HD
ATOM     21 21HE GLN D   9      24.873  29.594  -0.441  1.00 11.61 LIG 0.16  HD
ENDBRANCH 16 17
ENDBRANCH 15 16
ENDBRANCH 14 15
BRANCH 14 22
ATOM     22  C   GLN D   9      24.355  26.547   0.475  1.00  5.32 LIG 0.24  C 
ATOM     23 O    GLN D   9      24.877  25.710   1.203  1.00  6.01 LIG-0.27  OA
ATOM     24  N   VAL D  10      25.009  27.151  -0.521  1.00  6.34 LIG-0.34  N 
ATOM     25 H    VAL D  10      24.656  27.738  -1.040  1.00  6.34 LIG 0.16  HD
BRANCH 24 26
ATOM     26  CA  VAL D  10      26.409  26.852  -0.813  1.00  7.66 LIG 0.19  C 
BRANCH 26 27
ATOM     27  CB  VAL D  10      26.563  25.885  -2.013  1.00  6.96 LIG 0.01  C 
ATOM     28  CG1 VAL D  10      27.003  24.517  -1.535  1.00  7.91 LIG 0.01  C 
ATOM     29  CG2 VAL D  10      25.243  25.759  -2.783  1.00  7.70 LIG 0.01  C 
ENDBRANCH 26 27
BRANCH 26 30
ATOM     30  C   VAL D  10      27.213  28.115  -1.102  1.00  6.04 LIG 0.20  C 
ATOM     31 OXT  VAL D  10      26.676  29.115  -1.592  1.00  6.83 LIG-0.65  OA
ATOM     32 O    VAL D  10      28.421  28.119  -0.847  1.00  6.68 LIG-0.65  OA
ENDBRANCH 26 30
ENDBRANCH 24 26
ENDBRANCH 14 22
ENDBRANCH 12 14
ENDBRANCH 5 10
ENDBRANCH 3 5
BRANCH 1 33
ATOM     33  CA  GLU D   7      17.319  22.595   0.397  1.00 10.87 LIG 0.18  C 
BRANCH 33 34
ATOM     34  N   GLU D   7      17.079  23.693  -0.537  1.00 12.61 LIG-0.35  N 
ATOM     35  C   ARG D   6      16.575  24.855  -0.134  1.00 15.63 LIG 0.26  C 
ATOM     36 O    ARG D   6      16.341  25.108   1.045  1.00 17.14 LIG-0.27  OA
ATOM     37 H    GLU D   7      17.291  23.518  -1.351  1.00 12.61 LIG 0.16  HD
BRANCH 35 38
ATOM     38  CA  ARG D   6      16.288  25.887  -1.220  1.00 20.39 LIG 0.40  C 
ATOM     39  N   ARG D   6      14.859  25.985  -1.501  1.00 31.26 LIG 0.61  N 
BRANCH 38 40
ATOM     40  CB  ARG D   6      16.856  27.255  -0.840  1.00 20.29 LIG 0.05  C 
BRANCH 40 41
ATOM     41  CG  ARG D   6      15.983  28.026   0.135  1.00 28.41 LIG 0.02  C 
BRANCH 41 42
ATOM     42  CD  ARG D   6      16.752  28.429   1.387  1.00 36.78 LIG 0.14  C 
BRANCH 42 43
ATOM     43  NE  ARG D   6      17.445  27.306   2.014  1.00 40.20 LIG-0.23  N 
ATOM     44  CZ  ARG D   6      18.762  27.248   2.187  1.00 47.18 LIG 0.67  C 
ATOM     45  NH2 ARG D   6      19.317  26.190   2.765  1.00 45.83 LIG-0.23  N 
ATOM     46  NH1 ARG D   6      19.529  28.252   1.778  1.00 52.71 LIG-0.23  N 
ATOM     47 1HH2 ARG D   6      18.823  25.537   3.030  1.00 45.83 LIG 0.17  HD
ATOM     48 2HH2 ARG D   6      20.169  26.158   2.876  1.00 45.83 LIG 0.17  HD
ATOM     49 1HH1 ARG D   6      19.175  28.938   1.401  1.00 52.71 LIG 0.17  HD
ATOM     50 2HH1 ARG D   6      20.381  28.215   1.890  1.00 52.71 LIG 0.17  HD
ATOM     51 HE   ARG D   6      16.971  26.641   2.287  1.00 40.20 LIG 0.18  HD
ENDBRANCH 42 43
ENDBRANCH 41 42
ENDBRANCH 40 41
ENDBRANCH 38 40
ENDBRANCH 35 38
ENDBRANCH 33 34
BRANCH 33 52
ATOM     52  CB  GLU D   7      17.354  21.271  -0.360  1.00 13.53 LIG 0.04  C 
BRANCH 52 53
ATOM     53  CG  GLU D   7      16.002  20.641  -0.593  1.00 15.67 LIG 0.12  C 
BRANCH 53 54
ATOM     54  CD  GLU D   7      15.411  21.051  -1.929  1.00 22.62 LIG 0.17  C 
ATOM     55 OE2  GLU D   7      14.657  22.042  -1.973  1.00 20.96 LIG-0.65  OA
ATOM     56 OE1  GLU D   7      15.725  20.394  -2.945  1.00 32.46 LIG-0.65  OA
ENDBRANCH 53 54
ENDBRANCH 52 53
ENDBRANCH 33 52
ENDBRANCH 1 33
TORSDOF 22
ENDMDL
MODEL 15
USER: ADFR SOLUTION from run 47
USER: SCORE 16.628875 LL:  -4.684 LR: -13.015 RR:   0.000 FEB:  -6.452
USER: RMSD 6.958803
USER: SEED 46
USER: STATUS 1 or 2 clusters left
USER: GENES 24
USER: genes 0 Translation |==|  0.48118 0.54768 0.39207
USER: genes 1 Rotation |==|  0.98027 0.50619 0.59117 0.60483
USER: genes 2 Torsion [C]-N--CA-[CB] |==|  0.83333
USER: genes 3 Torsion [N]-CA--CB-[CG2] |==|  0.60873
USER: genes 4 Torsion [CA]-CB--OG1-[HG1] |==|  0.35283
USER: genes 5 Torsion [N]-CA--C-[N] |==|  0.44723
USER: genes 6 Torsion [C]-N--CA-[C] |==|  0.20384
USER: genes 7 Torsion [N]-CA--CB-[CG] |==|  0.70338
USER: genes 8 Torsion [CA]-CB--CG-[CD] |==|  0.19201
USER: genes 9 Torsion [CB]-CG--CD-[OE1] |==|  0.21411
USER: genes 10 Torsion [N]-CA--C-[N] |==|  0.03107
USER: genes 11 Torsion [C]-N--CA-[CB] |==|  0.42962
USER: genes 12 Torsion [N]-CA--CB-[CG2] |==|  0.25848
USER: genes 13 Torsion [N]-CA--C-[OXT] |==|  0.42817
USER: genes 14 Torsion [N]-C--CA-[N] |==|  0.14296
USER: genes 15 Torsion [C]-CA--N-[C] |==|  0.57778
USER: genes 16 Torsion [N]-C--CA-[N] |==|  0.90648
USER: genes 17 Torsion [C]-CA--CB-[CG] |==|  0.01097
USER: genes 18 Torsion [CA]-CB--CG-[CD] |==|  0.30498
USER: genes 19 Torsion [CB]-CG--CD-[NE] |==|  0.33740
USER: genes 20 Torsion [CG]-CD--NE-[HE] |==|  0.81181
USER: genes 21 Torsion [C]-CA--CB-[CG] |==|  0.36204
USER: genes 22 Torsion [CA]-CB--CG-[CD] |==|  0.32420
USER: genes 23 Torsion [CB]-CG--CD-[OE2] |==|  0.05204
ROOT
ATOM      1  C   GLU D   7      21.003  25.549   0.585  1.00 11.94 LIG 0.24  C 
ATOM      2 O    GLU D   7      21.324  25.050  -0.493  1.00 14.56 LIG-0.27  OA
ATOM      3  N   THR D   8      21.873  25.753   1.575  1.00  6.63 LIG-0.34  N 
ATOM      4 H    THR D   8      21.666  26.119   2.325  1.00  6.63 LIG 0.16  HD
ENDROOT
BRANCH 3 5
ATOM      5  CA  THR D   8      23.273  25.365   1.463  1.00  8.00 LIG 0.20  C 
BRANCH 5 6
ATOM      6  CB  THR D   8      23.412  23.853   1.229  1.00  7.16 LIG 0.15  C 
ATOM      7  CG2 THR D   8      24.591  23.287   2.006  1.00  8.54 LIG 0.04  C 
BRANCH 6 8
ATOM      8 OG1  THR D   8      22.206  23.196   1.660  1.00  7.76 LIG-0.39  OA
ATOM      9 HG1  THR D   8      21.911  22.714   1.038  1.00  7.76 LIG 0.21  HD
ENDBRANCH 6 8
ENDBRANCH 5 6
BRANCH 5 10
ATOM     10  C   THR D   8      23.954  26.103   0.312  1.00  6.30 LIG 0.24  C 
ATOM     11 O    THR D   8      23.284  26.629  -0.586  1.00  7.25 LIG-0.27  OA
ATOM     12  N   GLN D   9      25.284  26.142   0.346  1.00  7.34 LIG-0.35  N 
ATOM     13 H    GLN D   9      25.756  25.849   1.002  1.00  7.34 LIG 0.16  HD
BRANCH 12 14
ATOM     14  CA  GLN D   9      26.058  26.698  -0.751  1.00  6.42 LIG 0.18  C 
BRANCH 14 15
ATOM     15  CB  GLN D   9      25.524  26.143  -2.071  1.00  8.55 LIG 0.04  C 
BRANCH 15 16
ATOM     16  CG  GLN D   9      26.420  25.122  -2.720  1.00 10.19 LIG 0.10  C 
BRANCH 16 17
ATOM     17  CD  GLN D   9      26.474  23.817  -1.941  1.00 10.51 LIG 0.21  C 
ATOM     18 OE1  GLN D   9      25.549  22.997  -1.993  1.00 10.16 LIG-0.27  OA
ATOM     19  NE2 GLN D   9      27.575  23.616  -1.222  1.00 11.61 LIG-0.37  N 
ATOM     20 22HE GLN D   9      27.665  22.891  -0.768  1.00 11.61 LIG 0.16  HD
ATOM     21 21HE GLN D   9      28.197  24.211  -1.211  1.00 11.61 LIG 0.16  HD
ENDBRANCH 16 17
ENDBRANCH 15 16
ENDBRANCH 14 15
BRANCH 14 22
ATOM     22  C   GLN D   9      25.927  28.204  -0.741  1.00  5.32 LIG 0.24  C 
ATOM     23 O    GLN D   9      26.331  28.865  -1.691  1.00  6.01 LIG-0.27  OA
ATOM     24  N   VAL D  10      25.365  28.754   0.338  1.00  6.34 LIG-0.34  N 
ATOM     25 H    VAL D  10      25.074  28.304   1.011  1.00  6.34 LIG 0.16  HD
BRANCH 24 26
ATOM     26  CA  VAL D  10      25.193  30.200   0.463  1.00  7.66 LIG 0.19  C 
BRANCH 26 27
ATOM     27  CB  VAL D  10      24.025  30.572   1.410  1.00  6.96 LIG 0.01  C 
ATOM     28  CG1 VAL D  10      22.974  29.481   1.404  1.00  7.91 LIG 0.01  C 
ATOM     29  CG2 VAL D  10      24.533  30.788   2.841  1.00  7.70 LIG 0.01  C 
ENDBRANCH 26 27
BRANCH 26 30
ATOM     30  C   VAL D  10      26.461  30.883   0.965  1.00  6.04 LIG 0.20  C 
ATOM     31 OXT  VAL D  10      26.693  32.068   0.700  1.00  6.83 LIG-0.65  OA
ATOM     32 O    VAL D  10      27.264  30.226   1.634  1.00  6.68 LIG-0.65  OA
ENDBRANCH 26 30
ENDBRANCH 24 26
ENDBRANCH 14 22
ENDBRANCH 12 14
ENDBRANCH 5 10
ENDBRANCH 3 5
BRANCH 1 33
ATOM     33  CA  GLU D   7      19.565  25.983   0.835  1.00 10.87 LIG 0.18  C 
BRANCH 33 34
ATOM     34  N   GLU D   7      19.554  27.367   1.300  1.00 12.61 LIG-0.35  N 
ATOM     35  C   ARG D   6      18.589  27.832   2.087  1.00 15.63 LIG 0.26  C 
ATOM     36 O    ARG D   6      17.687  27.124   2.527  1.00 17.14 LIG-0.27  OA
ATOM     37 H    GLU D   7      20.217  27.839   1.022  1.00 12.61 LIG 0.16  HD
BRANCH 35 38
ATOM     38  CA  ARG D   6      18.644  29.318   2.428  1.00 20.39 LIG 0.40  C 
ATOM     39  N   ARG D   6      20.020  29.794   2.531  1.00 31.26 LIG 0.61  N 
BRANCH 38 40
ATOM     40  CB  ARG D   6      17.866  30.144   1.402  1.00 20.29 LIG 0.05  C 
BRANCH 40 41
ATOM     41  CG  ARG D   6      17.152  29.302   0.358  1.00 28.41 LIG 0.02  C 
BRANCH 41 42
ATOM     42  CD  ARG D   6      15.640  29.336   0.541  1.00 36.78 LIG 0.14  C 
BRANCH 42 43
ATOM     43  NE  ARG D   6      14.937  29.837  -0.638  1.00 40.20 LIG-0.23  N 
ATOM     44  CZ  ARG D   6      14.149  29.090  -1.406  1.00 47.18 LIG 0.67  C 
ATOM     45  NH2 ARG D   6      13.545  29.620  -2.462  1.00 45.83 LIG-0.23  N 
ATOM     46  NH1 ARG D   6      13.966  27.807  -1.119  1.00 52.71 LIG-0.23  N 
ATOM     47 1HH2 ARG D   6      13.663  30.450  -2.653  1.00 45.83 LIG 0.17  HD
ATOM     48 2HH2 ARG D   6      13.036  29.133  -2.956  1.00 45.83 LIG 0.17  HD
ATOM     49 1HH1 ARG D   6      14.357  27.459  -0.437  1.00 52.71 LIG 0.17  HD
ATOM     50 2HH1 ARG D   6      13.456  27.324  -1.614  1.00 52.71 LIG 0.17  HD
ATOM     51 HE   ARG D   6      15.039  30.665  -0.848  1.00 40.20 LIG 0.18  HD
ENDBRANCH 42 43
ENDBRANCH 41 42
ENDBRANCH 40 41
ENDBRANCH 38 40
ENDBRANCH 35 38
ENDBRANCH 33 34
BRANCH 33 52
ATOM     52  CB  GLU D   7      18.743  25.860  -0.445  1.00 13.53 LIG 0.04  C 
BRANCH 52 53
ATOM     53  CG  GLU D   7      17.435  25.124  -0.286  1.00 15.67 LIG 0.12  C 
BRANCH 53 54
ATOM     54  CD  GLU D   7      16.245  26.020  -0.575  1.00 22.62 LIG 0.17  C 
ATOM     55 OE2  GLU D   7      16.426  27.069  -1.222  1.00 20.96 LIG-0.65  OA
ATOM     56 OE1  GLU D   7      15.118  25.658  -0.174  1.00 32.46 LIG-0.65  OA
ENDBRANCH 53 54
ENDBRANCH 52 53
ENDBRANCH 33 52
ENDBRANCH 1 33
TORSDOF 22
ENDMDL
MODEL 16
USER: ADFR SOLUTION from run 73
USER: SCORE 16.125120 LL:  -4.870 LR: -13.012 RR:   0.000 FEB:  -6.449
USER: RMSD 10.172990
USER: SEED 72
USER: STATUS searching
USER: GENES 24
USER: genes 0 Translation |==|  0.64795 0.55970 0.26105
USER: genes 1 Rotation |==|  0.64371 0.08440 0.72366 0.58122
USER: genes 2 Torsion [C]-N--CA-[CB] |==|  0.20976
USER: genes 3 Torsion [N]-CA--CB-[CG2] |==|  0.22822
USER: genes 4 Torsion [CA]-CB--OG1-[HG1] |==|  0.70043
USER: genes 5 Torsion [N]-CA--C-[N] |==|  0.42222
USER: genes 6 Torsion [C]-N--CA-[C] |==|  0.68366
USER: genes 7 Torsion [N]-CA--CB-[CG] |==|  0.35895
USER: genes 8 Torsion [CA]-CB--CG-[CD] |==|  0.39585
USER: genes 9 Torsion [CB]-CG--CD-[OE1] |==|  0.04098
USER: genes 10 Torsion [N]-CA--C-[N] |==|  0.89122
USER: genes 11 Torsion [C]-N--CA-[CB] |==|  0.40512
USER: genes 12 Torsion [N]-CA--CB-[CG2] |==|  0.90256
USER: genes 13 Torsion [N]-CA--C-[OXT] |==|  0.97716
USER: genes 14 Torsion [N]-C--CA-[N] |==|  0.06197
USER: genes 15 Torsion [C]-CA--N-[C] |==|  0.60006
USER: genes 16 Torsion [N]-C--CA-[N] |==|  0.28684
USER: genes 17 Torsion [C]-CA--CB-[CG] |==|  0.25859
USER: genes 18 Torsion [CA]-CB--CG-[CD] |==|  0.98486
USER: genes 19 Torsion [CB]-CG--CD-[NE] |==|  0.56925
USER: genes 20 Torsion [CG]-CD--NE-[HE] |==|  0.24091
USER: genes 21 Torsion [C]-CA--CB-[CG] |==|  0.74810
USER: genes 22 Torsion [CA]-CB--CG-[CD] |==|  0.75894
USER: genes 23 Torsion [CB]-CG--CD-[OE2] |==|  0.99167
ROOT
ATOM      1  C   GLU D   7      24.756  25.847  -1.773  1.00 11.94 LIG 0.24  C 
ATOM      2 O    GLU D   7      24.837  24.862  -2.507  1.00 14.56 LIG-0.27  OA
ATOM      3  N   THR D   8      23.740  26.041  -0.933  1.00  6.63 LIG-0.34  N 
ATOM      4 H    THR D   8      23.681  26.714  -0.400  1.00  6.63 LIG 0.16  HD
ENDROOT
BRANCH 3 5
ATOM      5  CA  THR D   8      22.623  25.109  -0.846  1.00  8.00 LIG 0.20  C 
BRANCH 5 6
ATOM      6  CB  THR D   8      23.021  23.834  -0.087  1.00  7.16 LIG 0.15  C 
ATOM      7  CG2 THR D   8      22.939  24.047   1.417  1.00  8.54 LIG 0.04  C 
BRANCH 6 8
ATOM      8 OG1  THR D   8      22.132  22.766  -0.461  1.00  7.76 LIG-0.39  OA
ATOM      9 HG1  THR D   8      21.612  22.596   0.177  1.00  7.76 LIG 0.21  HD
ENDBRANCH 6 8
ENDBRANCH 5 6
BRANCH 5 10
ATOM     10  C   THR D   8      21.431  25.749  -0.137  1.00  6.30 LIG 0.24  C 
ATOM     11 O    THR D   8      21.601  26.645   0.701  1.00  7.25 LIG-0.27  OA
ATOM     12  N   GLN D   9      20.230  25.290  -0.477  1.00  7.34 LIG-0.35  N 
ATOM     13 H    GLN D   9      20.093  24.725  -1.110  1.00  7.34 LIG 0.16  HD
BRANCH 12 14
ATOM     14  CA  GLN D   9      19.025  25.720   0.215  1.00  6.42 LIG 0.18  C 
BRANCH 14 15
ATOM     15  CB  GLN D   9      18.021  26.244  -0.811  1.00  8.55 LIG 0.04  C 
BRANCH 15 16
ATOM     16  CG  GLN D   9      16.644  25.647  -0.688  1.00 10.19 LIG 0.10  C 
BRANCH 16 17
ATOM     17  CD  GLN D   9      15.544  26.659  -0.963  1.00 10.51 LIG 0.21  C 
ATOM     18 OE1  GLN D   9      15.788  27.743  -1.507  1.00 10.16 LIG-0.27  OA
ATOM     19  NE2 GLN D   9      14.318  26.297  -0.596  1.00 11.61 LIG-0.37  N 
ATOM     20 22HE GLN D   9      13.654  26.826  -0.735  1.00 11.61 LIG 0.16  HD
ATOM     21 21HE GLN D   9      14.189  25.533  -0.220  1.00 11.61 LIG 0.16  HD
ENDBRANCH 16 17
ENDBRANCH 15 16
ENDBRANCH 14 15
BRANCH 14 22
ATOM     22  C   GLN D   9      18.431  24.544   0.956  1.00  5.32 LIG 0.24  C 
ATOM     23 O    GLN D   9      17.949  24.699   2.072  1.00  6.01 LIG-0.27  OA
ATOM     24  N   VAL D  10      18.466  23.360   0.339  1.00  6.34 LIG-0.34  N 
ATOM     25 H    VAL D  10      18.799  23.237  -0.444  1.00  6.34 LIG 0.16  HD
BRANCH 24 26
ATOM     26  CA  VAL D  10      17.929  22.153   0.963  1.00  7.66 LIG 0.19  C 
BRANCH 26 27
ATOM     27  CB  VAL D  10      17.302  21.188  -0.074  1.00  6.96 LIG 0.01  C 
ATOM     28  CG1 VAL D  10      16.287  20.283   0.594  1.00  7.91 LIG 0.01  C 
ATOM     29  CG2 VAL D  10      16.625  21.970  -1.205  1.00  7.70 LIG 0.01  C 
ENDBRANCH 26 27
BRANCH 26 30
ATOM     30  C   VAL D  10      18.994  21.395   1.749  1.00  6.04 LIG 0.20  C 
ATOM     31 OXT  VAL D  10      20.184  21.722   1.689  1.00  6.83 LIG-0.65  OA
ATOM     32 O    VAL D  10      18.646  20.433   2.441  1.00  6.68 LIG-0.65  OA
ENDBRANCH 26 30
ENDBRANCH 24 26
ENDBRANCH 14 22
ENDBRANCH 12 14
ENDBRANCH 5 10
ENDBRANCH 3 5
BRANCH 1 33
ATOM     33  CA  GLU D   7      25.852  26.904  -1.781  1.00 10.87 LIG 0.18  C 
BRANCH 33 34
ATOM     34  N   GLU D   7      25.829  27.630  -0.514  1.00 12.61 LIG-0.35  N 
ATOM     35  C   ARG D   6      26.093  28.931  -0.449  1.00 15.63 LIG 0.26  C 
ATOM     36 O    ARG D   6      26.307  29.619  -1.443  1.00 17.14 LIG-0.27  OA
ATOM     37 H    GLU D   7      25.632  27.145   0.168  1.00 12.61 LIG 0.16  HD
BRANCH 35 38
ATOM     38  CA  ARG D   6      26.126  29.551   0.944  1.00 20.39 LIG 0.40  C 
ATOM     39  N   ARG D   6      27.494  29.780   1.398  1.00 31.26 LIG 0.61  N 
BRANCH 38 40
ATOM     40  CB  ARG D   6      25.323  30.852   0.984  1.00 20.29 LIG 0.05  C 
BRANCH 40 41
ATOM     41  CG  ARG D   6      23.879  30.663   1.417  1.00 28.41 LIG 0.02  C 
BRANCH 41 42
ATOM     42  CD  ARG D   6      23.527  29.190   1.586  1.00 36.78 LIG 0.14  C 
BRANCH 42 43
ATOM     43  NE  ARG D   6      22.099  28.925   1.426  1.00 40.20 LIG-0.23  N 
ATOM     44  CZ  ARG D   6      21.232  28.889   2.434  1.00 47.18 LIG 0.67  C 
ATOM     45  NH2 ARG D   6      19.949  28.641   2.206  1.00 45.83 LIG-0.23  N 
ATOM     46  NH1 ARG D   6      21.651  29.099   3.677  1.00 52.71 LIG-0.23  N 
ATOM     47 1HH2 ARG D   6      19.674  28.503   1.403  1.00 45.83 LIG 0.17  HD
ATOM     48 2HH2 ARG D   6      19.392  28.619   2.861  1.00 45.83 LIG 0.17  HD
ATOM     49 1HH1 ARG D   6      22.482  29.258   3.829  1.00 52.71 LIG 0.17  HD
ATOM     50 2HH1 ARG D   6      21.091  29.077   4.329  1.00 52.71 LIG 0.17  HD
ATOM     51 HE   ARG D   6      21.802  28.784   0.632  1.00 40.20 LIG 0.18  HD
ENDBRANCH 42 43
ENDBRANCH 41 42
ENDBRANCH 40 41
ENDBRANCH 38 40
ENDBRANCH 35 38
ENDBRANCH 33 34
BRANCH 33 52
ATOM     52  CB  GLU D   7      27.217  26.254  -1.980  1.00 13.53 LIG 0.04  C 
BRANCH 52 53
ATOM     53  CG  GLU D   7      27.925  25.869  -0.703  1.00 15.67 LIG 0.12  C 
BRANCH 53 54
ATOM     54  CD  GLU D   7      28.738  27.020  -0.141  1.00 22.62 LIG 0.17  C 
ATOM     55 OE2  GLU D   7      28.789  28.088  -0.779  1.00 20.96 LIG-0.65  OA
ATOM     56 OE1  GLU D   7      29.308  26.862   0.960  1.00 32.46 LIG-0.65  OA
ENDBRANCH 53 54
ENDBRANCH 52 53
ENDBRANCH 33 52
ENDBRANCH 1 33
TORSDOF 22
ENDMDL
MODEL 17
USER: ADFR SOLUTION from run 80
USER: SCORE 16.229160 LL:  -4.227 LR: -12.900 RR:   0.000 FEB:  -6.337
USER: RMSD 6.462477
USER: SEED 79
USER: STATUS no improvement in best in 21 clusters for 5 generations
USER: GENES 24
USER: genes 0 Translation |==|  0.45312 0.53539 0.37561
USER: genes 1 Rotation |==|  0.91677 0.73792 0.61566 0.57949
USER: genes 2 Torsion [C]-N--CA-[CB] |==|  0.51991
USER: genes 3 Torsion [N]-CA--CB-[CG2] |==|  0.35811
USER: genes 4 Torsion [CA]-CB--OG1-[HG1] |==|  0.95977
USER: genes 5 Torsion [N]-CA--C-[N] |==|  0.36394
USER: genes 6 Torsion [C]-N--CA-[C] |==|  0.69309
USER: genes 7 Torsion [N]-CA--CB-[CG] |==|  0.52101
USER: genes 8 Torsion [CA]-CB--CG-[CD] |==|  0.17091
USER: genes 9 Torsion [CB]-CG--CD-[OE1] |==|  0.16339
USER: genes 10 Torsion [N]-CA--C-[N] |==|  0.98975
USER: genes 11 Torsion [C]-N--CA-[CB] |==|  0.51026
USER: genes 12 Torsion [N]-CA--CB-[CG2] |==|  0.46220
USER: genes 13 Torsion [N]-CA--C-[OXT] |==|  0.78112
USER: genes 14 Torsion [N]-C--CA-[N] |==|  0.30327
USER: genes 15 Torsion [C]-CA--N-[C] |==|  0.74444
USER: genes 16 Torsion [N]-C--CA-[N] |==|  0.19171
USER: genes 17 Torsion [C]-CA--CB-[CG] |==|  0.21864
USER: genes 18 Torsion [CA]-CB--CG-[CD] |==|  0.66164
USER: genes 19 Torsion [CB]-CG--CD-[NE] |==|  0.27799
USER: genes 20 Torsion [CG]-CD--NE-[HE] |==|  0.13350
USER: genes 21 Torsion [C]-CA--CB-[CG] |==|  0.47738
USER: genes 22 Torsion [CA]-CB--CG-[CD] |==|  0.17024
USER: genes 23 Torsion [CB]-CG--CD-[OE2] |==|  0.68164
ROOT
ATOM      1  C   GLU D   7      20.372  25.245   0.289  1.00 11.94 LIG 0.24  C 
ATOM      2 O    GLU D   7      20.975  25.084  -0.771  1.00 14.56 LIG-0.27  OA
ATOM      3  N   THR D   8      20.685  26.204   1.160  1.00  6.63 LIG-0.34  N 
ATOM      4 H    THR D   8      20.259  26.340   1.895  1.00  6.63 LIG 0.16  HD
ENDROOT
BRANCH 3 5
ATOM      5  CA  THR D   8      21.796  27.119   0.933  1.00  8.00 LIG 0.20  C 
BRANCH 5 6
ATOM      6  CB  THR D   8      22.046  28.004   2.163  1.00  7.16 LIG 0.15  C 
ATOM      7  CG2 THR D   8      23.511  27.966   2.573  1.00  8.54 LIG 0.04  C 
BRANCH 6 8
ATOM      8 OG1  THR D   8      21.680  29.361   1.850  1.00  7.76 LIG-0.39  OA
ATOM      9 HG1  THR D   8      21.593  29.443   1.019  1.00  7.76 LIG 0.21  HD
ENDBRANCH 6 8
ENDBRANCH 5 6
BRANCH 5 10
ATOM     10  C   THR D   8      23.077  26.353   0.612  1.00  6.30 LIG 0.24  C 
ATOM     11 O    THR D   8      23.441  25.404   1.319  1.00  7.25 LIG-0.27  OA
ATOM     12  N   GLN D   9      23.755  26.764  -0.457  1.00  7.34 LIG-0.35  N 
ATOM     13 H    GLN D   9      23.475  27.369  -1.000  1.00  7.34 LIG 0.16  HD
BRANCH 12 14
ATOM     14  CA  GLN D   9      25.054  26.208  -0.797  1.00  6.42 LIG 0.18  C 
BRANCH 14 15
ATOM     15  CB  GLN D   9      25.048  25.786  -2.265  1.00  8.55 LIG 0.04  C 
BRANCH 15 16
ATOM     16  CG  GLN D   9      26.277  25.030  -2.696  1.00 10.19 LIG 0.10  C 
BRANCH 16 17
ATOM     17  CD  GLN D   9      26.454  23.726  -1.935  1.00 10.51 LIG 0.21  C 
ATOM     18 OE1  GLN D   9      25.586  22.844  -1.957  1.00 10.16 LIG-0.27  OA
ATOM     19  NE2 GLN D   9      27.596  23.596  -1.265  1.00 11.61 LIG-0.37  N 
ATOM     20 22HE GLN D   9      27.756  22.876  -0.823  1.00 11.61 LIG 0.16  HD
ATOM     21 21HE GLN D   9      28.175  24.233  -1.274  1.00 11.61 LIG 0.16  HD
ENDBRANCH 16 17
ENDBRANCH 15 16
ENDBRANCH 14 15
BRANCH 14 22
ATOM     22  C   GLN D   9      26.119  27.257  -0.572  1.00  5.32 LIG 0.24  C 
ATOM     23 O    GLN D   9      27.302  26.978  -0.729  1.00  6.01 LIG-0.27  OA
ATOM     24  N   VAL D  10      25.703  28.470  -0.199  1.00  6.34 LIG-0.34  N 
ATOM     25 H    VAL D  10      24.877  28.681  -0.088  1.00  6.34 LIG 0.16  HD
BRANCH 24 26
ATOM     26  CA  VAL D  10      26.642  29.560   0.055  1.00  7.66 LIG 0.19  C 
BRANCH 26 27
ATOM     27  CB  VAL D  10      25.932  30.840   0.562  1.00  6.96 LIG 0.01  C 
ATOM     28  CG1 VAL D  10      24.912  30.490   1.626  1.00  7.91 LIG 0.01  C 
ATOM     29  CG2 VAL D  10      26.947  31.836   1.133  1.00  7.70 LIG 0.01  C 
ENDBRANCH 26 27
BRANCH 26 30
ATOM     30  C   VAL D  10      27.714  29.167   1.067  1.00  6.04 LIG 0.20  C 
ATOM     31 OXT  VAL D  10      27.472  29.157   2.278  1.00  6.83 LIG-0.65  OA
ATOM     32 O    VAL D  10      28.838  28.869   0.653  1.00  6.68 LIG-0.65  OA
ENDBRANCH 26 30
ENDBRANCH 24 26
ENDBRANCH 14 22
ENDBRANCH 12 14
ENDBRANCH 5 10
ENDBRANCH 3 5
BRANCH 1 33
ATOM     33  CA  GLU D   7      19.201  24.342   0.653  1.00 10.87 LIG 0.18  C 
BRANCH 33 34
ATOM     34  N   GLU D   7      18.072  24.643  -0.223  1.00 12.61 LIG-0.35  N 
ATOM     35  C   ARG D   6      17.144  25.533   0.113  1.00 15.63 LIG 0.26  C 
ATOM     36 O    ARG D   6      17.204  26.204   1.140  1.00 17.14 LIG-0.27  OA
ATOM     37 H    GLU D   7      18.067  24.199  -0.960  1.00 12.61 LIG 0.16  HD
BRANCH 35 38
ATOM     38  CA  ARG D   6      15.969  25.689  -0.847  1.00 20.39 LIG 0.40  C 
ATOM     39  N   ARG D   6      15.114  24.505  -0.846  1.00 31.26 LIG 0.61  N 
BRANCH 38 40
ATOM     40  CB  ARG D   6      15.154  26.940  -0.516  1.00 20.29 LIG 0.05  C 
BRANCH 40 41
ATOM     41  CG  ARG D   6      15.784  28.227  -1.019  1.00 28.41 LIG 0.02  C 
BRANCH 41 42
ATOM     42  CD  ARG D   6      16.046  29.210   0.115  1.00 36.78 LIG 0.14  C 
BRANCH 42 43
ATOM     43  NE  ARG D   6      17.438  29.209   0.557  1.00 40.20 LIG-0.23  N 
ATOM     44  CZ  ARG D   6      17.813  29.140   1.831  1.00 47.18 LIG 0.67  C 
ATOM     45  NH2 ARG D   6      19.101  29.145   2.152  1.00 45.83 LIG-0.23  N 
ATOM     46  NH1 ARG D   6      16.897  29.069   2.789  1.00 52.71 LIG-0.23  N 
ATOM     47 1HH2 ARG D   6      19.697  29.192   1.535  1.00 45.83 LIG 0.17  HD
ATOM     48 2HH2 ARG D   6      19.338  29.099   2.977  1.00 45.83 LIG 0.17  HD
ATOM     49 1HH1 ARG D   6      16.061  29.068   2.586  1.00 52.71 LIG 0.17  HD
ATOM     50 2HH1 ARG D   6      17.138  29.023   3.613  1.00 52.71 LIG 0.17  HD
ATOM     51 HE   ARG D   6      18.052  29.256  -0.043  1.00 40.20 LIG 0.18  HD
ENDBRANCH 42 43
ENDBRANCH 41 42
ENDBRANCH 40 41
ENDBRANCH 38 40
ENDBRANCH 35 38
ENDBRANCH 33 34
BRANCH 33 52
ATOM     52  CB  GLU D   7      19.594  22.876   0.506  1.00 13.53 LIG 0.04  C 
BRANCH 52 53
ATOM     53  CG  GLU D   7      18.572  21.893   1.025  1.00 15.67 LIG 0.12  C 
BRANCH 53 54
ATOM     54  CD  GLU D   7      17.253  22.008   0.284  1.00 22.62 LIG 0.17  C 
ATOM     55 OE2  GLU D   7      16.245  22.393   0.908  1.00 20.96 LIG-0.65  OA
ATOM     56 OE1  GLU D   7      17.230  21.736  -0.936  1.00 32.46 LIG-0.65  OA
ENDBRANCH 53 54
ENDBRANCH 52 53
ENDBRANCH 33 52
ENDBRANCH 1 33
TORSDOF 22
ENDMDL
MODEL 18
USER: ADFR SOLUTION from run 116
USER: SCORE 16.526003 LL:  -4.505 LR: -12.728 RR:   0.000 FEB:  -6.166
USER: RMSD 11.808324
USER: SEED 115
USER: STATUS searching
USER: GENES 24
USER: genes 0 Translation |==|  0.76751 0.60779 0.34518
USER: genes 1 Rotation |==|  0.64846 0.64355 0.07495 0.66335
USER: genes 2 Torsion [C]-N--CA-[CB] |==|  0.87751
USER: genes 3 Torsion [N]-CA--CB-[CG2] |==|  0.52652
USER: genes 4 Torsion [CA]-CB--OG1-[HG1] |==|  0.40234
USER: genes 5 Torsion [N]-CA--C-[N] |==|  0.84646
USER: genes 6 Torsion [C]-N--CA-[C] |==|  0.65661
USER: genes 7 Torsion [N]-CA--CB-[CG] |==|  0.81247
USER: genes 8 Torsion [CA]-CB--CG-[CD] |==|  0.79804
USER: genes 9 Torsion [CB]-CG--CD-[OE1] |==|  0.08765
USER: genes 10 Torsion [N]-CA--C-[N] |==|  0.45725
USER: genes 11 Torsion [C]-N--CA-[CB] |==|  0.54045
USER: genes 12 Torsion [N]-CA--CB-[CG2] |==|  0.44458
USER: genes 13 Torsion [N]-CA--C-[OXT] |==|  0.37414
USER: genes 14 Torsion [N]-C--CA-[N] |==|  0.32870
USER: genes 15 Torsion [C]-CA--N-[C] |==|  0.77936
USER: genes 16 Torsion [N]-C--CA-[N] |==|  0.93022
USER: genes 17 Torsion [C]-CA--CB-[CG] |==|  0.75697
USER: genes 18 Torsion [CA]-CB--CG-[CD] |==|  0.62206
USER: genes 19 Torsion [CB]-CG--CD-[NE] |==|  0.54979
USER: genes 20 Torsion [CG]-CD--NE-[HE] |==|  0.27641
USER: genes 21 Torsion [C]-CA--CB-[CG] |==|  0.18960
USER: genes 22 Torsion [CA]-CB--CG-[CD] |==|  0.32814
USER: genes 23 Torsion [CB]-CG--CD-[OE2] |==|  0.07264
ROOT
ATOM      1  C   GLU D   7      27.446  27.037  -0.259  1.00 11.94 LIG 0.24  C 
ATOM      2 O    GLU D   7      27.132  26.250   0.633  1.00 14.56 LIG-0.27  OA
ATOM      3  N   THR D   8      27.048  26.894  -1.522  1.00  6.63 LIG-0.34  N 
ATOM      4 H    THR D   8      27.243  27.448  -2.151  1.00  6.63 LIG 0.16  HD
ENDROOT
BRANCH 3 5
ATOM      5  CA  THR D   8      26.231  25.766  -1.950  1.00  8.00 LIG 0.20  C 
BRANCH 5 6
ATOM      6  CB  THR D   8      26.750  24.448  -1.354  1.00  7.16 LIG 0.15  C 
ATOM      7  CG2 THR D   8      26.048  23.253  -1.981  1.00  8.54 LIG 0.04  C 
BRANCH 6 8
ATOM      8 OG1  THR D   8      28.164  24.345  -1.597  1.00  7.76 LIG-0.39  OA
ATOM      9 HG1  THR D   8      28.534  23.965  -0.945  1.00  7.76 LIG 0.21  HD
ENDBRANCH 6 8
ENDBRANCH 5 6
BRANCH 5 10
ATOM     10  C   THR D   8      24.775  25.954  -1.530  1.00  6.30 LIG 0.24  C 
ATOM     11 O    THR D   8      23.863  25.904  -2.366  1.00  7.25 LIG-0.27  OA
ATOM     12  N   GLN D   9      24.562  26.167  -0.234  1.00  7.34 LIG-0.35  N 
ATOM     13 H    GLN D   9      25.175  26.127   0.367  1.00  7.34 LIG 0.16  HD
BRANCH 12 14
ATOM     14  CA  GLN D   9      23.241  26.491   0.279  1.00  6.42 LIG 0.18  C 
BRANCH 14 15
ATOM     15  CB  GLN D   9      22.782  25.376   1.218  1.00  8.55 LIG 0.04  C 
BRANCH 15 16
ATOM     16  CG  GLN D   9      22.518  24.061   0.532  1.00 10.19 LIG 0.10  C 
BRANCH 16 17
ATOM     17  CD  GLN D   9      21.244  24.082  -0.296  1.00 10.51 LIG 0.21  C 
ATOM     18 OE1  GLN D   9      20.851  25.118  -0.847  1.00 10.16 LIG-0.27  OA
ATOM     19  NE2 GLN D   9      20.599  22.923  -0.398  1.00 11.61 LIG-0.37  N 
ATOM     20 22HE GLN D   9      19.876  22.872  -0.862  1.00 11.61 LIG 0.16  HD
ATOM     21 21HE GLN D   9      20.905  22.224   0.000  1.00 11.61 LIG 0.16  HD
ENDBRANCH 16 17
ENDBRANCH 15 16
ENDBRANCH 14 15
BRANCH 14 22
ATOM     22  C   GLN D   9      23.306  27.798   1.034  1.00  5.32 LIG 0.24  C 
ATOM     23 O    GLN D   9      24.389  28.257   1.380  1.00  6.01 LIG-0.27  OA
ATOM     24  N   VAL D  10      22.145  28.403   1.298  1.00  6.34 LIG-0.34  N 
ATOM     25 H    VAL D  10      21.379  28.095   1.060  1.00  6.34 LIG 0.16  HD
BRANCH 24 26
ATOM     26  CA  VAL D  10      22.086  29.666   2.029  1.00  7.66 LIG 0.19  C 
BRANCH 26 27
ATOM     27  CB  VAL D  10      20.654  29.988   2.527  1.00  6.96 LIG 0.01  C 
ATOM     28  CG1 VAL D  10      19.963  28.725   2.997  1.00  7.91 LIG 0.01  C 
ATOM     29  CG2 VAL D  10      20.693  31.009   3.670  1.00  7.70 LIG 0.01  C 
ENDBRANCH 26 27
BRANCH 26 30
ATOM     30  C   VAL D  10      23.030  29.678   3.227  1.00  6.04 LIG 0.20  C 
ATOM     31 OXT  VAL D  10      23.753  30.653   3.459  1.00  6.83 LIG-0.65  OA
ATOM     32 O    VAL D  10      23.069  28.685   3.960  1.00  6.68 LIG-0.65  OA
ENDBRANCH 26 30
ENDBRANCH 24 26
ENDBRANCH 14 22
ENDBRANCH 12 14
ENDBRANCH 5 10
ENDBRANCH 3 5
BRANCH 1 33
ATOM     33  CA  GLU D   7      28.312  28.250   0.056  1.00 10.87 LIG 0.18  C 
BRANCH 33 34
ATOM     34  N   GLU D   7      27.619  29.097   1.023  1.00 12.61 LIG-0.35  N 
ATOM     35  C   ARG D   6      26.648  29.927   0.655  1.00 15.63 LIG 0.26  C 
ATOM     36 O    ARG D   6      26.226  29.992  -0.496  1.00 17.14 LIG-0.27  OA
ATOM     37 H    GLU D   7      27.894  29.007   1.833  1.00 12.61 LIG 0.16  HD
BRANCH 35 38
ATOM     38  CA  ARG D   6      26.068  30.822   1.745  1.00 20.39 LIG 0.40  C 
ATOM     39  N   ARG D   6      26.241  30.235   3.071  1.00 31.26 LIG 0.61  N 
BRANCH 38 40
ATOM     40  CB  ARG D   6      26.686  32.220   1.693  1.00 20.29 LIG 0.05  C 
BRANCH 40 41
ATOM     41  CG  ARG D   6      27.969  32.349   2.495  1.00 28.41 LIG 0.02  C 
BRANCH 41 42
ATOM     42  CD  ARG D   6      28.000  33.635   3.312  1.00 36.78 LIG 0.14  C 
BRANCH 42 43
ATOM     43  NE  ARG D   6      29.345  33.995   3.753  1.00 40.20 LIG-0.23  N 
ATOM     44  CZ  ARG D   6      29.952  33.456   4.806  1.00 47.18 LIG 0.67  C 
ATOM     45  NH2 ARG D   6      31.177  33.838   5.143  1.00 45.83 LIG-0.23  N 
ATOM     46  NH1 ARG D   6      29.329  32.532   5.528  1.00 52.71 LIG-0.23  N 
ATOM     47 1HH2 ARG D   6      31.583  34.438   4.679  1.00 45.83 LIG 0.17  HD
ATOM     48 2HH2 ARG D   6      31.565  33.487   5.825  1.00 45.83 LIG 0.17  HD
ATOM     49 1HH1 ARG D   6      28.535  32.283   5.315  1.00 52.71 LIG 0.17  HD
ATOM     50 2HH1 ARG D   6      29.721  32.182   6.209  1.00 52.71 LIG 0.17  HD
ATOM     51 HE   ARG D   6      29.771  34.593   3.303  1.00 40.20 LIG 0.18  HD
ENDBRANCH 42 43
ENDBRANCH 41 42
ENDBRANCH 40 41
ENDBRANCH 38 40
ENDBRANCH 35 38
ENDBRANCH 33 34
BRANCH 33 52
ATOM     52  CB  GLU D   7      29.658  27.810   0.623  1.00 13.53 LIG 0.04  C 
BRANCH 52 53
ATOM     53  CG  GLU D   7      30.557  27.101  -0.361  1.00 15.67 LIG 0.12  C 
BRANCH 53 54
ATOM     54  CD  GLU D   7      31.852  27.859  -0.589  1.00 22.62 LIG 0.17  C 
ATOM     55 OE2  GLU D   7      32.275  28.608   0.312  1.00 20.96 LIG-0.65  OA
ATOM     56 OE1  GLU D   7      32.462  27.683  -1.665  1.00 32.46 LIG-0.65  OA
ENDBRANCH 53 54
ENDBRANCH 52 53
ENDBRANCH 33 52
ENDBRANCH 1 33
TORSDOF 22
ENDMDL
MODEL 19
USER: ADFR SOLUTION from run 114
USER: SCORE 16.592194 LL:  -4.472 LR: -12.703 RR:   0.000 FEB:  -6.140
USER: RMSD 5.812863
USER: SEED 113
USER: STATUS no improvement in best in 4 clusters for 5 generations
USER: GENES 24
USER: genes 0 Translation |==|  0.38418 0.55360 0.39589
USER: genes 1 Rotation |==|  0.01829 0.57073 0.40318 0.55985
USER: genes 2 Torsion [C]-N--CA-[CB] |==|  0.79221
USER: genes 3 Torsion [N]-CA--CB-[CG2] |==|  0.66779
USER: genes 4 Torsion [CA]-CB--OG1-[HG1] |==|  0.21690
USER: genes 5 Torsion [N]-CA--C-[N] |==|  0.19307
USER: genes 6 Torsion [C]-N--CA-[C] |==|  0.79088
USER: genes 7 Torsion [N]-CA--CB-[CG] |==|  0.37621
USER: genes 8 Torsion [CA]-CB--CG-[CD] |==|  0.29326
USER: genes 9 Torsion [CB]-CG--CD-[OE1] |==|  0.27854
USER: genes 10 Torsion [N]-CA--C-[N] |==|  0.41902
USER: genes 11 Torsion [C]-N--CA-[CB] |==|  0.30347
USER: genes 12 Torsion [N]-CA--CB-[CG2] |==|  0.99209
USER: genes 13 Torsion [N]-CA--C-[OXT] |==|  0.48116
USER: genes 14 Torsion [N]-C--CA-[N] |==|  0.40250
USER: genes 15 Torsion [C]-CA--N-[C] |==|  0.59480
USER: genes 16 Torsion [N]-C--CA-[N] |==|  0.23296
USER: genes 17 Torsion [C]-CA--CB-[CG] |==|  0.29225
USER: genes 18 Torsion [CA]-CB--CG-[CD] |==|  0.75976
USER: genes 19 Torsion [CB]-CG--CD-[NE] |==|  0.19496
USER: genes 20 Torsion [CG]-CD--NE-[HE] |==|  0.10299
USER: genes 21 Torsion [C]-CA--CB-[CG] |==|  0.79999
USER: genes 22 Torsion [CA]-CB--CG-[CD] |==|  0.78288
USER: genes 23 Torsion [CB]-CG--CD-[OE2] |==|  0.75967
ROOT
ATOM      1  C   GLU D   7      18.821  25.696   0.654  1.00 11.94 LIG 0.24  C 
ATOM      2 O    GLU D   7      19.211  25.951  -0.485  1.00 14.56 LIG-0.27  OA
ATOM      3  N   THR D   8      19.573  25.055   1.549  1.00  6.63 LIG-0.34  N 
ATOM      4 H    THR D   8      19.320  24.888   2.354  1.00  6.63 LIG 0.16  HD
ENDROOT
BRANCH 3 5
ATOM      5  CA  THR D   8      20.911  24.576   1.229  1.00  8.00 LIG 0.20  C 
BRANCH 5 6
ATOM      6  CB  THR D   8      20.854  23.322   0.342  1.00  7.16 LIG 0.15  C 
ATOM      7  CG2 THR D   8      21.521  22.139   1.028  1.00  8.54 LIG 0.04  C 
BRANCH 6 8
ATOM      8 OG1  THR D   8      19.478  22.997   0.073  1.00  7.76 LIG-0.39  OA
ATOM      9 HG1  THR D   8      19.180  23.509  -0.522  1.00  7.76 LIG 0.21  HD
ENDBRANCH 6 8
ENDBRANCH 5 6
BRANCH 5 10
ATOM     10  C   THR D   8      21.718  25.652   0.506  1.00  6.30 LIG 0.24  C 
ATOM     11 O    THR D   8      22.009  25.526  -0.692  1.00  7.25 LIG-0.27  OA
ATOM     12  N   GLN D   9      22.073  26.708   1.233  1.00  7.34 LIG-0.35  N 
ATOM     13 H    GLN D   9      21.813  26.843   2.041  1.00  7.34 LIG 0.16  HD
BRANCH 12 14
ATOM     14  CA  GLN D   9      22.951  27.738   0.704  1.00  6.42 LIG 0.18  C 
BRANCH 14 15
ATOM     15  CB  GLN D   9      22.870  28.972   1.601  1.00  8.55 LIG 0.04  C 
BRANCH 15 16
ATOM     16  CG  GLN D   9      24.205  29.590   1.924  1.00 10.19 LIG 0.10  C 
BRANCH 16 17
ATOM     17  CD  GLN D   9      24.448  30.882   1.161  1.00 10.51 LIG 0.21  C 
ATOM     18 OE1  GLN D   9      24.283  31.986   1.695  1.00 10.16 LIG-0.27  OA
ATOM     19  NE2 GLN D   9      24.858  30.744  -0.097  1.00 11.61 LIG-0.37  N 
ATOM     20 22HE GLN D   9      25.020  31.441  -0.575  1.00 11.61 LIG 0.16  HD
ATOM     21 21HE GLN D   9      24.961  29.958  -0.432  1.00 11.61 LIG 0.16  HD
ENDBRANCH 16 17
ENDBRANCH 15 16
ENDBRANCH 14 15
BRANCH 14 22
ATOM     22  C   GLN D   9      24.370  27.218   0.678  1.00  5.32 LIG 0.24  C 
ATOM     23 O    GLN D   9      24.737  26.385   1.499  1.00  6.01 LIG-0.27  OA
ATOM     24  N   VAL D  10      25.178  27.712  -0.263  1.00  6.34 LIG-0.34  N 
ATOM     25 H    VAL D  10      24.935  28.295  -0.847  1.00  6.34 LIG 0.16  HD
BRANCH 24 26
ATOM     26  CA  VAL D  10      26.572  27.291  -0.379  1.00  7.66 LIG 0.19  C 
BRANCH 26 27
ATOM     27  CB  VAL D  10      26.818  26.417  -1.634  1.00  6.96 LIG 0.01  C 
ATOM     28  CG1 VAL D  10      27.436  25.091  -1.240  1.00  7.91 LIG 0.01  C 
ATOM     29  CG2 VAL D  10      25.507  26.168  -2.388  1.00  7.70 LIG 0.01  C 
ENDBRANCH 26 27
BRANCH 26 30
ATOM     30  C   VAL D  10      27.527  28.480  -0.421  1.00  6.04 LIG 0.20  C 
ATOM     31 OXT  VAL D  10      28.751  28.315  -0.392  1.00  6.83 LIG-0.65  OA
ATOM     32 O    VAL D  10      27.052  29.618  -0.472  1.00  6.68 LIG-0.65  OA
ENDBRANCH 26 30
ENDBRANCH 24 26
ENDBRANCH 14 22
ENDBRANCH 12 14
ENDBRANCH 5 10
ENDBRANCH 3 5
BRANCH 1 33
ATOM     33  CA  GLU D   7      17.433  26.128   1.107  1.00 10.87 LIG 0.18  C 
BRANCH 33 34
ATOM     34  N   GLU D   7      17.098  27.403   0.478  1.00 12.61 LIG-0.35  N 
ATOM     35  C   ARG D   6      16.365  28.320   1.104  1.00 15.63 LIG 0.26  C 
ATOM     36 O    ARG D   6      15.980  28.189   2.262  1.00 17.14 LIG-0.27  OA
ATOM     37 H    GLU D   7      17.413  27.500  -0.316  1.00 12.61 LIG 0.16  HD
BRANCH 35 38
ATOM     38  CA  ARG D   6      16.009  29.569   0.305  1.00 20.39 LIG 0.40  C 
ATOM     39  N   ARG D   6      14.830  29.355  -0.529  1.00 31.26 LIG 0.61  N 
BRANCH 38 40
ATOM     40  CB  ARG D   6      15.802  30.770   1.229  1.00 20.29 LIG 0.05  C 
BRANCH 40 41
ATOM     41  CG  ARG D   6      16.952  31.762   1.203  1.00 28.41 LIG 0.02  C 
BRANCH 41 42
ATOM     42  CD  ARG D   6      18.051  31.382   2.187  1.00 36.78 LIG 0.14  C 
BRANCH 42 43
ATOM     43  NE  ARG D   6      18.790  30.190   1.779  1.00 40.20 LIG-0.23  N 
ATOM     44  CZ  ARG D   6      19.237  29.266   2.626  1.00 47.18 LIG 0.67  C 
ATOM     45  NH2 ARG D   6      19.903  28.210   2.175  1.00 45.83 LIG-0.23  N 
ATOM     46  NH1 ARG D   6      19.020  29.400   3.928  1.00 52.71 LIG-0.23  N 
ATOM     47 1HH2 ARG D   6      20.047  28.120   1.332  1.00 45.83 LIG 0.17  HD
ATOM     48 2HH2 ARG D   6      20.190  27.615   2.726  1.00 45.83 LIG 0.17  HD
ATOM     49 1HH1 ARG D   6      18.592  30.084   4.225  1.00 52.71 LIG 0.17  HD
ATOM     50 2HH1 ARG D   6      19.309  28.803   4.476  1.00 52.71 LIG 0.17  HD
ATOM     51 HE   ARG D   6      18.946  30.079   0.941  1.00 40.20 LIG 0.18  HD
ENDBRANCH 42 43
ENDBRANCH 41 42
ENDBRANCH 40 41
ENDBRANCH 38 40
ENDBRANCH 35 38
ENDBRANCH 33 34
BRANCH 33 52
ATOM     52  CB  GLU D   7      16.397  25.075   0.726  1.00 13.53 LIG 0.04  C 
BRANCH 52 53
ATOM     53  CG  GLU D   7      16.086  25.001  -0.750  1.00 15.67 LIG 0.12  C 
BRANCH 53 54
ATOM     54  CD  GLU D   7      15.154  26.115  -1.187  1.00 22.62 LIG 0.17  C 
ATOM     55 OE2  GLU D   7      13.924  25.944  -1.085  1.00 20.96 LIG-0.65  OA
ATOM     56 OE1  GLU D   7      15.656  27.178  -1.610  1.00 32.46 LIG-0.65  OA
ENDBRANCH 53 54
ENDBRANCH 52 53
ENDBRANCH 33 52
ENDBRANCH 1 33
TORSDOF 22
ENDMDL
MODEL 20
USER: ADFR SOLUTION from run 48
USER: SCORE 16.129655 LL:  -5.269 LR: -12.683 RR:   0.000 FEB:  -6.120
USER: RMSD 5.111875
USER: SEED 47
USER: STATUS no improvement in best in 15 clusters for 5 generations
USER: GENES 24
USER: genes 0 Translation |==|  0.45016 0.50787 0.36240
USER: genes 1 Rotation |==|  0.88520 0.75815 0.64913 0.61287
USER: genes 2 Torsion [C]-N--CA-[CB] |==|  0.53922
USER: genes 3 Torsion [N]-CA--CB-[CG2] |==|  0.50144
USER: genes 4 Torsion [CA]-CB--OG1-[HG1] |==|  0.87192
USER: genes 5 Torsion [N]-CA--C-[N] |==|  0.35559
USER: genes 6 Torsion [C]-N--CA-[C] |==|  0.73724
USER: genes 7 Torsion [N]-CA--CB-[CG] |==|  0.52698
USER: genes 8 Torsion [CA]-CB--CG-[CD] |==|  0.16228
USER: genes 9 Torsion [CB]-CG--CD-[OE1] |==|  0.14119
USER: genes 10 Torsion [N]-CA--C-[N] |==|  0.78947
USER: genes 11 Torsion [C]-N--CA-[CB] |==|  0.78615
USER: genes 12 Torsion [N]-CA--CB-[CG2] |==|  0.88126
USER: genes 13 Torsion [N]-CA--C-[OXT] |==|  0.16762
USER: genes 14 Torsion [N]-C--CA-[N] |==|  0.69978
USER: genes 15 Torsion [C]-CA--N-[C] |==|  0.18353
USER: genes 16 Torsion [N]-C--CA-[N] |==|  0.40804
USER: genes 17 Torsion [C]-CA--CB-[CG] |==|  0.09832
USER: genes 18 Torsion [CA]-CB--CG-[CD] |==|  0.27328
USER: genes 19 Torsion [CB]-CG--CD-[NE] |==|  0.58954
USER: genes 20 Torsion [CG]-CD--NE-[HE] |==|  0.99411
USER: genes 21 Torsion [C]-CA--CB-[CG] |==|  0.38085
USER: genes 22 Torsion [CA]-CB--CG-[CD] |==|  0.12977
USER: genes 23 Torsion [CB]-CG--CD-[OE2] |==|  0.77229
ROOT
ATOM      1  C   GLU D   7      20.306  24.564   0.051  1.00 11.94 LIG 0.24  C 
ATOM      2 O    GLU D   7      21.117  24.401  -0.859  1.00 14.56 LIG-0.27  OA
ATOM      3  N   THR D   8      20.336  25.617   0.867  1.00  6.63 LIG-0.34  N 
ATOM      4 H    THR D   8      19.763  25.753   1.495  1.00  6.63 LIG 0.16  HD
ENDROOT
BRANCH 3 5
ATOM      5  CA  THR D   8      21.364  26.644   0.762  1.00  8.00 LIG 0.20  C 
BRANCH 5 6
ATOM      6  CB  THR D   8      21.383  27.540   2.010  1.00  7.16 LIG 0.15  C 
ATOM      7  CG2 THR D   8      22.449  28.619   1.890  1.00  8.54 LIG 0.04  C 
BRANCH 6 8
ATOM      8 OG1  THR D   8      20.095  28.165   2.162  1.00  7.76 LIG-0.39  OA
ATOM      9 HG1  THR D   8      19.842  28.470   1.421  1.00  7.76 LIG 0.21  HD
ENDBRANCH 6 8
ENDBRANCH 5 6
BRANCH 5 10
ATOM     10  C   THR D   8      22.746  26.018   0.587  1.00  6.30 LIG 0.24  C 
ATOM     11 O    THR D   8      23.148  25.145   1.368  1.00  7.25 LIG-0.27  OA
ATOM     12  N   GLN D   9      23.466  26.464  -0.439  1.00  7.34 LIG-0.35  N 
ATOM     13 H    GLN D   9      23.170  27.011  -1.032  1.00  7.34 LIG 0.16  HD
BRANCH 12 14
ATOM     14  CA  GLN D   9      24.844  26.048  -0.641  1.00  6.42 LIG 0.18  C 
BRANCH 14 15
ATOM     15  CB  GLN D   9      25.122  25.953  -2.141  1.00  8.55 LIG 0.04  C 
BRANCH 15 16
ATOM     16  CG  GLN D   9      26.441  25.311  -2.485  1.00 10.19 LIG 0.10  C 
BRANCH 16 17
ATOM     17  CD  GLN D   9      26.563  23.901  -1.933  1.00 10.51 LIG 0.21  C 
ATOM     18 OE1  GLN D   9      25.680  23.055  -2.123  1.00 10.16 LIG-0.27  OA
ATOM     19  NE2 GLN D   9      27.676  23.639  -1.253  1.00 11.61 LIG-0.37  N 
ATOM     20 22HE GLN D   9      27.805  22.854  -0.924  1.00 11.61 LIG 0.16  HD
ATOM     21 21HE GLN D   9      28.268  24.254  -1.142  1.00 11.61 LIG 0.16  HD
ENDBRANCH 16 17
ENDBRANCH 15 16
ENDBRANCH 14 15
BRANCH 14 22
ATOM     22  C   GLN D   9      25.769  27.066  -0.015  1.00  5.32 LIG 0.24  C 
ATOM     23 O    GLN D   9      26.321  26.824   1.052  1.00  6.01 LIG-0.27  OA
ATOM     24  N   VAL D  10      25.938  28.215  -0.674  1.00  6.34 LIG-0.34  N 
ATOM     25 H    VAL D  10      25.559  28.398  -1.424  1.00  6.34 LIG 0.16  HD
BRANCH 24 26
ATOM     26  CA  VAL D  10      26.801  29.276  -0.161  1.00  7.66 LIG 0.19  C 
BRANCH 26 27
ATOM     27  CB  VAL D  10      26.131  30.072   0.987  1.00  6.96 LIG 0.01  C 
ATOM     28  CG1 VAL D  10      26.868  31.374   1.226  1.00  7.91 LIG 0.01  C 
ATOM     29  CG2 VAL D  10      24.663  30.367   0.660  1.00  7.70 LIG 0.01  C 
ENDBRANCH 26 27
BRANCH 26 30
ATOM     30  C   VAL D  10      28.136  28.734   0.340  1.00  6.04 LIG 0.20  C 
ATOM     31 OXT  VAL D  10      28.905  28.135  -0.420  1.00  6.83 LIG-0.65  OA
ATOM     32 O    VAL D  10      28.432  28.893   1.528  1.00  6.68 LIG-0.65  OA
ENDBRANCH 26 30
ENDBRANCH 24 26
ENDBRANCH 14 22
ENDBRANCH 12 14
ENDBRANCH 5 10
ENDBRANCH 3 5
BRANCH 1 33
ATOM     33  CA  GLU D   7      19.191  23.551   0.278  1.00 10.87 LIG 0.18  C 
BRANCH 33 34
ATOM     34  N   GLU D   7      19.758  22.333   0.851  1.00 12.61 LIG-0.35  N 
ATOM     35  C   ARG D   6      20.298  22.318   2.066  1.00 15.63 LIG 0.26  C 
ATOM     36 O    ARG D   6      20.297  23.296   2.808  1.00 17.14 LIG-0.27  OA
ATOM     37 H    GLU D   7      19.710  21.644   0.338  1.00 12.61 LIG 0.16  HD
BRANCH 35 38
ATOM     38  CA  ARG D   6      20.937  21.007   2.512  1.00 20.39 LIG 0.40  C 
ATOM     39  N   ARG D   6      22.088  21.239   3.379  1.00 31.26 LIG 0.61  N 
BRANCH 38 40
ATOM     40  CB  ARG D   6      19.914  20.107   3.206  1.00 20.29 LIG 0.05  C 
BRANCH 40 41
ATOM     41  CG  ARG D   6      18.518  20.204   2.615  1.00 28.41 LIG 0.02  C 
BRANCH 41 42
ATOM     42  CD  ARG D   6      18.235  19.068   1.641  1.00 36.78 LIG 0.14  C 
BRANCH 42 43
ATOM     43  NE  ARG D   6      17.343  19.462   0.553  1.00 40.20 LIG-0.23  N 
ATOM     44  CZ  ARG D   6      16.983  18.656  -0.443  1.00 47.18 LIG 0.67  C 
ATOM     45  NH2 ARG D   6      16.169  19.090  -1.396  1.00 45.83 LIG-0.23  N 
ATOM     46  NH1 ARG D   6      17.443  17.411  -0.487  1.00 52.71 LIG-0.23  N 
ATOM     47 1HH2 ARG D   6      15.870  19.896  -1.372  1.00 45.83 LIG 0.17  HD
ATOM     48 2HH2 ARG D   6      15.939  18.565  -2.037  1.00 45.83 LIG 0.17  HD
ATOM     49 1HH1 ARG D   6      17.973  17.126   0.127  1.00 52.71 LIG 0.17  HD
ATOM     50 2HH1 ARG D   6      17.210  16.889  -1.129  1.00 52.71 LIG 0.17  HD
ATOM     51 HE   ARG D   6      17.032  20.264   0.556  1.00 40.20 LIG 0.18  HD
ENDBRANCH 42 43
ENDBRANCH 41 42
ENDBRANCH 40 41
ENDBRANCH 38 40
ENDBRANCH 35 38
ENDBRANCH 33 34
BRANCH 33 52
ATOM     52  CB  GLU D   7      18.136  24.123   1.220  1.00 13.53 LIG 0.04  C 
BRANCH 52 53
ATOM     53  CG  GLU D   7      16.709  23.853   0.807  1.00 15.67 LIG 0.12  C 
BRANCH 53 54
ATOM     54  CD  GLU D   7      16.500  22.403   0.414  1.00 22.62 LIG 0.17  C 
ATOM     55 OE2  GLU D   7      16.814  22.040  -0.736  1.00 20.96 LIG-0.65  OA
ATOM     56 OE1  GLU D   7      16.043  21.615   1.270  1.00 32.46 LIG-0.65  OA
ENDBRANCH 53 54
ENDBRANCH 52 53
ENDBRANCH 33 52
ENDBRANCH 1 33
TORSDOF 22
ENDMDL
MODEL 21
USER: ADFR SOLUTION from run 75
USER: SCORE 15.311265 LL:  -3.940 LR: -12.605 RR:   0.000 FEB:  -6.042
USER: RMSD 2.690018
USER: SEED 74
USER: STATUS no improvement in best in 14 clusters for 5 generations
USER: GENES 24
USER: genes 0 Translation |==|  0.34665 0.50091 0.38727
USER: genes 1 Rotation |==|  0.55784 0.49441 0.48929 0.99650
USER: genes 2 Torsion [C]-N--CA-[CB] |==|  0.27019
USER: genes 3 Torsion [N]-CA--CB-[CG2] |==|  0.78365
USER: genes 4 Torsion [CA]-CB--OG1-[HG1] |==|  0.99378
USER: genes 5 Torsion [N]-CA--C-[N] |==|  0.33929
USER: genes 6 Torsion [C]-N--CA-[C] |==|  0.82089
USER: genes 7 Torsion [N]-CA--CB-[CG] |==|  0.60252
USER: genes 8 Torsion [CA]-CB--CG-[CD] |==|  0.77124
USER: genes 9 Torsion [CB]-CG--CD-[OE1] |==|  0.77481
USER: genes 10 Torsion [N]-CA--C-[N] |==|  0.41519
USER: genes 11 Torsion [C]-N--CA-[CB] |==|  0.20374
USER: genes 12 Torsion [N]-CA--CB-[CG2] |==|  0.45566
USER: genes 13 Torsion [N]-CA--C-[OXT] |==|  0.89801
USER: genes 14 Torsion [N]-C--CA-[N] |==|  0.36195
USER: genes 15 Torsion [C]-CA--N-[C] |==|  0.76774
USER: genes 16 Torsion [N]-C--CA-[N] |==|  0.11813
USER: genes 17 Torsion [C]-CA--CB-[CG] |==|  0.18935
USER: genes 18 Torsion [CA]-CB--CG-[CD] |==|  0.19860
USER: genes 19 Torsion [CB]-CG--CD-[NE] |==|  0.37491
USER: genes 20 Torsion [CG]-CD--NE-[HE] |==|  0.86124
USER: genes 21 Torsion [C]-CA--CB-[CG] |==|  0.49157
USER: genes 22 Torsion [CA]-CB--CG-[CD] |==|  0.19316
USER: genes 23 Torsion [CB]-CG--CD-[OE2] |==|  0.68747
ROOT
ATOM      1  C   GLU D   7      17.977  24.392   0.499  1.00 11.94 LIG 0.24  C 
ATOM      2 O    GLU D   7      17.821  24.115   1.687  1.00 14.56 LIG-0.27  OA
ATOM      3  N   THR D   8      19.172  24.644  -0.034  1.00  6.63 LIG-0.34  N 
ATOM      4 H    THR D   8      19.297  24.819  -0.867  1.00  6.63 LIG 0.16  HD
ENDROOT
BRANCH 3 5
ATOM      5  CA  THR D   8      20.388  24.646   0.768  1.00  8.00 LIG 0.20  C 
BRANCH 5 6
ATOM      6  CB  THR D   8      21.125  23.302   0.663  1.00  7.16 LIG 0.15  C 
ATOM      7  CG2 THR D   8      20.457  22.245   1.530  1.00  8.54 LIG 0.04  C 
BRANCH 6 8
ATOM      8 OG1  THR D   8      21.111  22.863  -0.708  1.00  7.76 LIG-0.39  OA
ATOM      9 HG1  THR D   8      20.677  23.412  -1.174  1.00  7.76 LIG 0.21  HD
ENDBRANCH 6 8
ENDBRANCH 5 6
BRANCH 5 10
ATOM     10  C   THR D   8      21.335  25.759   0.322  1.00  6.30 LIG 0.24  C 
ATOM     11 O    THR D   8      21.739  25.815  -0.847  1.00  7.25 LIG-0.27  OA
ATOM     12  N   GLN D   9      21.681  26.643   1.254  1.00  7.34 LIG-0.35  N 
ATOM     13 H    GLN D   9      21.348  26.661   2.046  1.00  7.34 LIG 0.16  HD
BRANCH 12 14
ATOM     14  CA  GLN D   9      22.674  27.673   0.997  1.00  6.42 LIG 0.18  C 
BRANCH 14 15
ATOM     15  CB  GLN D   9      22.770  28.590   2.215  1.00  8.55 LIG 0.04  C 
BRANCH 15 16
ATOM     16  CG  GLN D   9      22.993  30.041   1.880  1.00 10.19 LIG 0.10  C 
BRANCH 16 17
ATOM     17  CD  GLN D   9      24.455  30.358   1.613  1.00 10.51 LIG 0.21  C 
ATOM     18 OE1  GLN D   9      25.253  30.548   2.540  1.00 10.16 LIG-0.27  OA
ATOM     19  NE2 GLN D   9      24.815  30.402   0.333  1.00 11.61 LIG-0.37  N 
ATOM     20 22HE GLN D   9      25.632  30.568   0.121  1.00 11.61 LIG 0.16  HD
ATOM     21 21HE GLN D   9      24.230  30.265  -0.283  1.00 11.61 LIG 0.16  HD
ENDBRANCH 16 17
ENDBRANCH 15 16
ENDBRANCH 14 15
BRANCH 14 22
ATOM     22  C   GLN D   9      24.014  27.020   0.744  1.00  5.32 LIG 0.24  C 
ATOM     23 O    GLN D   9      24.295  25.958   1.288  1.00  6.01 LIG-0.27  OA
ATOM     24  N   VAL D  10      24.850  27.655  -0.080  1.00  6.34 LIG-0.34  N 
ATOM     25 H    VAL D  10      24.667  28.399  -0.471  1.00  6.34 LIG 0.16  HD
BRANCH 24 26
ATOM     26  CA  VAL D  10      26.175  27.123  -0.391  1.00  7.66 LIG 0.19  C 
BRANCH 26 27
ATOM     27  CB  VAL D  10      26.107  25.899  -1.338  1.00  6.96 LIG 0.01  C 
ATOM     28  CG1 VAL D  10      25.096  26.139  -2.440  1.00  7.91 LIG 0.01  C 
ATOM     29  CG2 VAL D  10      27.481  25.612  -1.955  1.00  7.70 LIG 0.01  C 
ENDBRANCH 26 27
BRANCH 26 30
ATOM     30  C   VAL D  10      27.078  28.177  -1.025  1.00  6.04 LIG 0.20  C 
ATOM     31 OXT  VAL D  10      26.625  29.015  -1.811  1.00  6.83 LIG-0.65  OA
ATOM     32 O    VAL D  10      28.281  28.169  -0.747  1.00  6.68 LIG-0.65  OA
ENDBRANCH 26 30
ENDBRANCH 24 26
ENDBRANCH 14 22
ENDBRANCH 12 14
ENDBRANCH 5 10
ENDBRANCH 3 5
BRANCH 1 33
ATOM     33  CA  GLU D   7      16.781  24.439  -0.443  1.00 10.87 LIG 0.18  C 
BRANCH 33 34
ATOM     34  N   GLU D   7      15.985  23.227  -0.271  1.00 12.61 LIG-0.35  N 
ATOM     35  C   ARG D   6      16.291  22.095  -0.897  1.00 15.63 LIG 0.26  C 
ATOM     36 O    ARG D   6      17.289  21.972  -1.602  1.00 17.14 LIG-0.27  OA
ATOM     37 H    GLU D   7      15.316  23.315   0.262  1.00 12.61 LIG 0.16  HD
BRANCH 35 38
ATOM     38  CA  ARG D   6      15.329  20.928  -0.704  1.00 20.39 LIG 0.40  C 
ATOM     39  N   ARG D   6      13.937  21.361  -0.779  1.00 31.26 LIG 0.61  N 
BRANCH 38 40
ATOM     40  CB  ARG D   6      15.601  19.820  -1.723  1.00 20.29 LIG 0.05  C 
BRANCH 40 41
ATOM     41  CG  ARG D   6      16.927  19.109  -1.509  1.00 28.41 LIG 0.02  C 
BRANCH 41 42
ATOM     42  CD  ARG D   6      16.900  18.220  -0.272  1.00 36.78 LIG 0.14  C 
BRANCH 42 43
ATOM     43  NE  ARG D   6      17.485  16.903  -0.507  1.00 40.20 LIG-0.23  N 
ATOM     44  CZ  ARG D   6      18.407  16.348   0.276  1.00 47.18 LIG 0.67  C 
ATOM     45  NH2 ARG D   6      18.891  15.145  -0.007  1.00 45.83 LIG-0.23  N 
ATOM     46  NH1 ARG D   6      18.849  17.001   1.344  1.00 52.71 LIG-0.23  N 
ATOM     47 1HH2 ARG D   6      18.608  14.720  -0.699  1.00 45.83 LIG 0.17  HD
ATOM     48 2HH2 ARG D   6      19.486  14.791   0.502  1.00 45.83 LIG 0.17  HD
ATOM     49 1HH1 ARG D   6      18.540  17.781   1.529  1.00 52.71 LIG 0.17  HD
ATOM     50 2HH1 ARG D   6      19.444  16.643   1.851  1.00 52.71 LIG 0.17  HD
ATOM     51 HE   ARG D   6      17.218  16.459  -1.194  1.00 40.20 LIG 0.18  HD
ENDBRANCH 42 43
ENDBRANCH 41 42
ENDBRANCH 40 41
ENDBRANCH 38 40
ENDBRANCH 35 38
ENDBRANCH 33 34
BRANCH 33 52
ATOM     52  CB  GLU D   7      15.923  25.667  -0.152  1.00 13.53 LIG 0.04  C 
BRANCH 52 53
ATOM     53  CG  GLU D   7      14.747  25.850  -1.080  1.00 15.67 LIG 0.12  C 
BRANCH 53 54
ATOM     54  CD  GLU D   7      13.683  24.791  -0.857  1.00 22.62 LIG 0.17  C 
ATOM     55 OE2  GLU D   7      13.475  23.950  -1.752  1.00 20.96 LIG-0.65  OA
ATOM     56 OE1  GLU D   7      13.070  24.785   0.233  1.00 32.46 LIG-0.65  OA
ENDBRANCH 53 54
ENDBRANCH 52 53
ENDBRANCH 33 52
ENDBRANCH 1 33
TORSDOF 22
ENDMDL
MODEL 22
USER: ADFR SOLUTION from run 117
USER: SCORE 15.786373 LL:  -4.202 LR: -12.583 RR:   0.000 FEB:  -6.021
USER: RMSD 8.315480
USER: SEED 116
USER: STATUS no improvement in best in 7 clusters for 5 generations
USER: GENES 24
USER: genes 0 Translation |==|  0.71727 0.70320 0.35879
USER: genes 1 Rotation |==|  0.70402 0.81279 0.80664 0.62849
USER: genes 2 Torsion [C]-N--CA-[CB] |==|  0.56244
USER: genes 3 Torsion [N]-CA--CB-[CG2] |==|  0.08374
USER: genes 4 Torsion [CA]-CB--OG1-[HG1] |==|  0.57767
USER: genes 5 Torsion [N]-CA--C-[N] |==|  0.82591
USER: genes 6 Torsion [C]-N--CA-[C] |==|  0.67778
USER: genes 7 Torsion [N]-CA--CB-[CG] |==|  0.51964
USER: genes 8 Torsion [CA]-CB--CG-[CD] |==|  0.14779
USER: genes 9 Torsion [CB]-CG--CD-[OE1] |==|  0.02338
USER: genes 10 Torsion [N]-CA--C-[N] |==|  0.06154
USER: genes 11 Torsion [C]-N--CA-[CB] |==|  0.30215
USER: genes 12 Torsion [N]-CA--CB-[CG2] |==|  0.89679
USER: genes 13 Torsion [N]-CA--C-[OXT] |==|  0.95042
USER: genes 14 Torsion [N]-C--CA-[N] |==|  0.00298
USER: genes 15 Torsion [C]-CA--N-[C] |==|  0.76420
USER: genes 16 Torsion [N]-C--CA-[N] |==|  0.71390
USER: genes 17 Torsion [C]-CA--CB-[CG] |==|  0.25984
USER: genes 18 Torsion [CA]-CB--CG-[CD] |==|  0.19496
USER: genes 19 Torsion [CB]-CG--CD-[NE] |==|  0.23349
USER: genes 20 Torsion [CG]-CD--NE-[HE] |==|  0.00343
USER: genes 21 Torsion [C]-CA--CB-[CG] |==|  0.47453
USER: genes 22 Torsion [CA]-CB--CG-[CD] |==|  0.21110
USER: genes 23 Torsion [CB]-CG--CD-[OE2] |==|  0.08388
ROOT
ATOM      1  C   GLU D   7      26.316  29.398  -0.014  1.00 11.94 LIG 0.24  C 
ATOM      2 O    GLU D   7      27.387  29.979  -0.178  1.00 14.56 LIG-0.27  OA
ATOM      3  N   THR D   8      25.221  30.013   0.434  1.00  6.63 LIG-0.34  N 
ATOM      4 H    THR D   8      24.460  29.623   0.534  1.00  6.63 LIG 0.16  HD
ENDROOT
BRANCH 3 5
ATOM      5  CA  THR D   8      25.223  31.424   0.797  1.00  8.00 LIG 0.20  C 
BRANCH 5 6
ATOM      6  CB  THR D   8      24.077  31.749   1.767  1.00  7.16 LIG 0.15  C 
ATOM      7  CG2 THR D   8      23.742  30.547   2.636  1.00  8.54 LIG 0.04  C 
BRANCH 6 8
ATOM      8 OG1  THR D   8      24.473  32.846   2.612  1.00  7.76 LIG-0.39  OA
ATOM      9 HG1  THR D   8      24.071  32.792   3.348  1.00  7.76 LIG 0.21  HD
ENDBRANCH 6 8
ENDBRANCH 5 6
BRANCH 5 10
ATOM     10  C   THR D   8      26.546  31.817   1.452  1.00  6.30 LIG 0.24  C 
ATOM     11 O    THR D   8      27.287  32.659   0.926  1.00  7.25 LIG-0.27  OA
ATOM     12  N   GLN D   9      26.836  31.209   2.599  1.00  7.34 LIG-0.35  N 
ATOM     13 H    GLN D   9      26.297  30.682   3.013  1.00  7.34 LIG 0.16  HD
BRANCH 12 14
ATOM     14  CA  GLN D   9      28.119  31.394   3.257  1.00  6.42 LIG 0.18  C 
BRANCH 14 15
ATOM     15  CB  GLN D   9      27.881  31.890   4.683  1.00  8.55 LIG 0.04  C 
BRANCH 15 16
ATOM     16  CG  GLN D   9      29.137  32.281   5.418  1.00 10.19 LIG 0.10  C 
BRANCH 16 17
ATOM     17  CD  GLN D   9      29.977  33.282   4.643  1.00 10.51 LIG 0.21  C 
ATOM     18 OE1  GLN D   9      29.553  33.815   3.609  1.00 10.16 LIG-0.27  OA
ATOM     19  NE2 GLN D   9      31.175  33.552   5.153  1.00 11.61 LIG-0.37  N 
ATOM     20 22HE GLN D   9      31.691  34.119   4.762  1.00 11.61 LIG 0.16  HD
ATOM     21 21HE GLN D   9      31.434  33.161   5.874  1.00 11.61 LIG 0.16  HD
ENDBRANCH 16 17
ENDBRANCH 15 16
ENDBRANCH 14 15
BRANCH 14 22
ATOM     22  C   GLN D   9      28.855  30.074   3.293  1.00  5.32 LIG 0.24  C 
ATOM     23 O    GLN D   9      29.740  29.884   4.119  1.00  6.01 LIG-0.27  OA
ATOM     24  N   VAL D  10      28.495  29.157   2.391  1.00  6.34 LIG-0.34  N 
ATOM     25 H    VAL D  10      27.875  29.275   1.807  1.00  6.34 LIG 0.16  HD
BRANCH 24 26
ATOM     26  CA  VAL D  10      29.143  27.849   2.325  1.00  7.66 LIG 0.19  C 
BRANCH 26 27
ATOM     27  CB  VAL D  10      28.214  26.710   2.816  1.00  6.96 LIG 0.01  C 
ATOM     28  CG1 VAL D  10      29.032  25.504   3.229  1.00  7.91 LIG 0.01  C 
ATOM     29  CG2 VAL D  10      27.357  27.178   3.998  1.00  7.70 LIG 0.01  C 
ENDBRANCH 26 27
BRANCH 26 30
ATOM     30  C   VAL D  10      29.614  27.516   0.913  1.00  6.04 LIG 0.20  C 
ATOM     31 OXT  VAL D  10      29.169  28.123  -0.067  1.00  6.83 LIG-0.65  OA
ATOM     32 O    VAL D  10      30.445  26.615   0.763  1.00  6.68 LIG-0.65  OA
ENDBRANCH 26 30
ENDBRANCH 24 26
ENDBRANCH 14 22
ENDBRANCH 12 14
ENDBRANCH 5 10
ENDBRANCH 3 5
BRANCH 1 33
ATOM     33  CA  GLU D   7      26.186  27.916  -0.340  1.00 10.87 LIG 0.18  C 
BRANCH 33 34
ATOM     34  N   GLU D   7      24.811  27.489  -0.098  1.00 12.61 LIG-0.35  N 
ATOM     35  C   ARG D   6      24.396  27.121   1.110  1.00 15.63 LIG 0.26  C 
ATOM     36 O    ARG D   6      25.111  27.176   2.107  1.00 17.14 LIG-0.27  OA
ATOM     37 H    GLU D   7      24.308  27.500  -0.796  1.00 12.61 LIG 0.16  HD
BRANCH 35 38
ATOM     38  CA  ARG D   6      22.963  26.610   1.212  1.00 20.39 LIG 0.40  C 
ATOM     39  N   ARG D   6      22.072  27.619   1.779  1.00 31.26 LIG 0.61  N 
BRANCH 38 40
ATOM     40  CB  ARG D   6      22.449  26.145  -0.151  1.00 20.29 LIG 0.05  C 
BRANCH 40 41
ATOM     41  CG  ARG D   6      22.643  24.659  -0.400  1.00 28.41 LIG 0.02  C 
BRANCH 41 42
ATOM     42  CD  ARG D   6      21.725  23.814   0.474  1.00 36.78 LIG 0.14  C 
BRANCH 42 43
ATOM     43  NE  ARG D   6      20.390  23.651  -0.097  1.00 40.20 LIG-0.23  N 
ATOM     44  CZ  ARG D   6      19.407  22.976   0.492  1.00 47.18 LIG 0.67  C 
ATOM     45  NH2 ARG D   6      18.220  22.873  -0.094  1.00 45.83 LIG-0.23  N 
ATOM     46  NH1 ARG D   6      19.612  22.398   1.669  1.00 52.71 LIG-0.23  N 
ATOM     47 1HH2 ARG D   6      18.084  23.244  -0.857  1.00 45.83 LIG 0.17  HD
ATOM     48 2HH2 ARG D   6      17.588  22.435   0.291  1.00 45.83 LIG 0.17  HD
ATOM     49 1HH1 ARG D   6      20.380  22.460   2.051  1.00 52.71 LIG 0.17  HD
ATOM     50 2HH1 ARG D   6      18.977  21.961   2.050  1.00 52.71 LIG 0.17  HD
ATOM     51 HE   ARG D   6      20.230  24.014  -0.860  1.00 40.20 LIG 0.18  HD
ENDBRANCH 42 43
ENDBRANCH 41 42
ENDBRANCH 40 41
ENDBRANCH 38 40
ENDBRANCH 35 38
ENDBRANCH 33 34
BRANCH 33 52
ATOM     52  CB  GLU D   7      26.559  27.658  -1.797  1.00 13.53 LIG 0.04  C 
BRANCH 52 53
ATOM     53  CG  GLU D   7      26.676  26.199  -2.169  1.00 15.67 LIG 0.12  C 
BRANCH 53 54
ATOM     54  CD  GLU D   7      25.315  25.547  -2.325  1.00 22.62 LIG 0.17  C 
ATOM     55 OE2  GLU D   7      24.355  26.243  -2.706  1.00 20.96 LIG-0.65  OA
ATOM     56 OE1  GLU D   7      25.213  24.323  -2.089  1.00 32.46 LIG-0.65  OA
ENDBRANCH 53 54
ENDBRANCH 52 53
ENDBRANCH 33 52
ENDBRANCH 1 33
TORSDOF 22
ENDMDL
MODEL 23
USER: ADFR SOLUTION from run 170
USER: SCORE 15.325968 LL:  -4.224 LR: -12.532 RR:   0.000 FEB:  -5.970
USER: RMSD 5.402299
USER: SEED 169
USER: STATUS no improvement in best in 26 clusters for 5 generations
USER: GENES 24
USER: genes 0 Translation |==|  0.54350 0.43477 0.46051
USER: genes 1 Rotation |==|  0.56111 0.96397 0.55321 0.66784
USER: genes 2 Torsion [C]-N--CA-[CB] |==|  0.49811
USER: genes 3 Torsion [N]-CA--CB-[CG2] |==|  0.41938
USER: genes 4 Torsion [CA]-CB--OG1-[HG1] |==|  0.73894
USER: genes 5 Torsion [N]-CA--C-[N] |==|  0.89662
USER: genes 6 Torsion [C]-N--CA-[C] |==|  0.82438
USER: genes 7 Torsion [N]-CA--CB-[CG] |==|  0.47950
USER: genes 8 Torsion [CA]-CB--CG-[CD] |==|  0.19007
USER: genes 9 Torsion [CB]-CG--CD-[OE1] |==|  0.25720
USER: genes 10 Torsion [N]-CA--C-[N] |==|  0.38039
USER: genes 11 Torsion [C]-N--CA-[CB] |==|  0.25210
USER: genes 12 Torsion [N]-CA--CB-[CG2] |==|  0.01756
USER: genes 13 Torsion [N]-CA--C-[OXT] |==|  0.92110
USER: genes 14 Torsion [N]-C--CA-[N] |==|  0.13888
USER: genes 15 Torsion [C]-CA--N-[C] |==|  0.16460
USER: genes 16 Torsion [N]-C--CA-[N] |==|  0.91206
USER: genes 17 Torsion [C]-CA--CB-[CG] |==|  0.45346
USER: genes 18 Torsion [CA]-CB--CG-[CD] |==|  0.73969
USER: genes 19 Torsion [CB]-CG--CD-[NE] |==|  0.24069
USER: genes 20 Torsion [CG]-CD--NE-[HE] |==|  0.93748
USER: genes 21 Torsion [C]-CA--CB-[CG] |==|  0.51148
USER: genes 22 Torsion [CA]-CB--CG-[CD] |==|  0.24923
USER: genes 23 Torsion [CB]-CG--CD-[OE2] |==|  0.73134
ROOT
ATOM      1  C   GLU D   7      22.406  22.754   1.817  1.00 11.94 LIG 0.24  C 
ATOM      2 O    GLU D   7      23.292  22.858   0.970  1.00 14.56 LIG-0.27  OA
ATOM      3  N   THR D   8      21.163  23.196   1.623  1.00  6.63 LIG-0.34  N 
ATOM      4 H    THR D   8      20.530  23.112   2.199  1.00  6.63 LIG 0.16  HD
ENDROOT
BRANCH 3 5
ATOM      5  CA  THR D   8      20.769  23.871   0.393  1.00  8.00 LIG 0.20  C 
BRANCH 5 6
ATOM      6  CB  THR D   8      19.283  24.259   0.425  1.00  7.16 LIG 0.15  C 
ATOM      7  CG2 THR D   8      19.026  25.500  -0.417  1.00  8.54 LIG 0.04  C 
BRANCH 6 8
ATOM      8 OG1  THR D   8      18.500  23.168  -0.093  1.00  7.76 LIG-0.39  OA
ATOM      9 HG1  THR D   8      18.365  23.285  -0.914  1.00  7.76 LIG 0.21  HD
ENDBRANCH 6 8
ENDBRANCH 5 6
BRANCH 5 10
ATOM     10  C   THR D   8      21.600  25.134   0.173  1.00  6.30 LIG 0.24  C 
ATOM     11 O    THR D   8      21.955  25.468  -0.965  1.00  7.25 LIG-0.27  OA
ATOM     12  N   GLN D   9      21.905  25.833   1.264  1.00  7.34 LIG-0.35  N 
ATOM     13 H    GLN D   9      21.601  25.656   2.048  1.00  7.34 LIG 0.16  HD
BRANCH 12 14
ATOM     14  CA  GLN D   9      22.797  26.979   1.210  1.00  6.42 LIG 0.18  C 
BRANCH 14 15
ATOM     15  CB  GLN D   9      22.884  27.610   2.600  1.00  8.55 LIG 0.04  C 
BRANCH 15 16
ATOM     16  CG  GLN D   9      23.914  28.702   2.719  1.00 10.19 LIG 0.10  C 
BRANCH 16 17
ATOM     17  CD  GLN D   9      23.540  29.943   1.924  1.00 10.51 LIG 0.21  C 
ATOM     18 OE1  GLN D   9      22.915  30.877   2.443  1.00 10.16 LIG-0.27  OA
ATOM     19  NE2 GLN D   9      23.939  29.960   0.655  1.00 11.61 LIG-0.37  N 
ATOM     20 22HE GLN D   9      23.764  30.641   0.159  1.00 11.61 LIG 0.16  HD
ATOM     21 21HE GLN D   9      24.372  29.291   0.331  1.00 11.61 LIG 0.16  HD
ENDBRANCH 16 17
ENDBRANCH 15 16
ENDBRANCH 14 15
BRANCH 14 22
ATOM     22  C   GLN D   9      24.169  26.522   0.771  1.00  5.32 LIG 0.24  C 
ATOM     23 O    GLN D   9      24.657  25.499   1.237  1.00  6.01 LIG-0.27  OA
ATOM     24  N   VAL D  10      24.801  27.283  -0.127  1.00  6.34 LIG-0.34  N 
ATOM     25 H    VAL D  10      24.471  28.002  -0.464  1.00  6.34 LIG 0.16  HD
BRANCH 24 26
ATOM     26  CA  VAL D  10      26.135  26.945  -0.618  1.00  7.66 LIG 0.19  C 
BRANCH 26 27
ATOM     27  CB  VAL D  10      26.084  26.059  -1.888  1.00  6.96 LIG 0.01  C 
ATOM     28  CG1 VAL D  10      26.675  24.693  -1.601  1.00  7.91 LIG 0.01  C 
ATOM     29  CG2 VAL D  10      24.642  25.900  -2.383  1.00  7.70 LIG 0.01  C 
ENDBRANCH 26 27
BRANCH 26 30
ATOM     30  C   VAL D  10      26.961  28.189  -0.928  1.00  6.04 LIG 0.20  C 
ATOM     31 OXT  VAL D  10      26.418  29.246  -1.268  1.00  6.83 LIG-0.65  OA
ATOM     32 O    VAL D  10      28.191  28.119  -0.845  1.00  6.68 LIG-0.65  OA
ENDBRANCH 26 30
ENDBRANCH 24 26
ENDBRANCH 14 22
ENDBRANCH 12 14
ENDBRANCH 5 10
ENDBRANCH 3 5
BRANCH 1 33
ATOM     33  CA  GLU D   7      22.694  22.083   3.153  1.00 10.87 LIG 0.18  C 
BRANCH 33 34
ATOM     34  N   GLU D   7      21.677  21.068   3.410  1.00 12.61 LIG-0.35  N 
ATOM     35  C   ARG D   6      21.481  20.048   2.579  1.00 15.63 LIG 0.26  C 
ATOM     36 O    ARG D   6      22.177  19.854   1.586  1.00 17.14 LIG-0.27  OA
ATOM     37 H    GLU D   7      21.228  21.190   4.133  1.00 12.61 LIG 0.16  HD
BRANCH 35 38
ATOM     38  CA  ARG D   6      20.328  19.108   2.913  1.00 20.39 LIG 0.40  C 
ATOM     39  N   ARG D   6      20.115  19.010   4.354  1.00 31.26 LIG 0.61  N 
BRANCH 38 40
ATOM     40  CB  ARG D   6      19.042  19.547   2.210  1.00 20.29 LIG 0.05  C 
BRANCH 40 41
ATOM     41  CG  ARG D   6      17.976  18.466   2.162  1.00 28.41 LIG 0.02  C 
BRANCH 41 42
ATOM     42  CD  ARG D   6      18.040  17.664   0.869  1.00 36.78 LIG 0.14  C 
BRANCH 42 43
ATOM     43  NE  ARG D   6      18.976  16.544   0.941  1.00 40.20 LIG-0.23  N 
ATOM     44  CZ  ARG D   6      18.913  15.471   0.157  1.00 47.18 LIG 0.67  C 
ATOM     45  NH2 ARG D   6      19.801  14.494   0.286  1.00 45.83 LIG-0.23  N 
ATOM     46  NH1 ARG D   6      17.956  15.374  -0.758  1.00 52.71 LIG-0.23  N 
ATOM     47 1HH2 ARG D   6      20.422  14.553   0.879  1.00 45.83 LIG 0.17  HD
ATOM     48 2HH2 ARG D   6      19.757  13.802  -0.223  1.00 45.83 LIG 0.17  HD
ATOM     49 1HH1 ARG D   6      17.376  16.003  -0.843  1.00 52.71 LIG 0.17  HD
ATOM     50 2HH1 ARG D   6      17.915  14.681  -1.265  1.00 52.71 LIG 0.17  HD
ATOM     51 HE   ARG D   6      19.605  16.581   1.526  1.00 40.20 LIG 0.18  HD
ENDBRANCH 42 43
ENDBRANCH 41 42
ENDBRANCH 40 41
ENDBRANCH 38 40
ENDBRANCH 35 38
ENDBRANCH 33 34
BRANCH 33 52
ATOM     52  CB  GLU D   7      24.077  21.437   3.137  1.00 13.53 LIG 0.04  C 
BRANCH 52 53
ATOM     53  CG  GLU D   7      24.424  20.658   4.382  1.00 15.67 LIG 0.12  C 
BRANCH 53 54
ATOM     54  CD  GLU D   7      23.998  19.205   4.276  1.00 22.62 LIG 0.17  C 
ATOM     55 OE2  GLU D   7      22.911  18.860   4.777  1.00 20.96 LIG-0.65  OA
ATOM     56 OE1  GLU D   7      24.743  18.411   3.663  1.00 32.46 LIG-0.65  OA
ENDBRANCH 53 54
ENDBRANCH 52 53
ENDBRANCH 33 52
ENDBRANCH 1 33
TORSDOF 22
ENDMDL
MODEL 24
USER: ADFR SOLUTION from run 81
USER: SCORE 16.637510 LL:  -4.760 LR: -12.518 RR:   0.000 FEB:  -5.955
USER: RMSD 9.800837
USER: SEED 80
USER: STATUS no improvement in best in 15 clusters for 5 generations
USER: GENES 24
USER: genes 0 Translation |==|  0.70391 0.68842 0.38161
USER: genes 1 Rotation |==|  0.64933 0.69785 0.22720 0.83784
USER: genes 2 Torsion [C]-N--CA-[CB] |==|  0.88889
USER: genes 3 Torsion [N]-CA--CB-[CG2] |==|  0.50989
USER: genes 4 Torsion [CA]-CB--OG1-[HG1] |==|  0.09991
USER: genes 5 Torsion [N]-CA--C-[N] |==|  0.88178
USER: genes 6 Torsion [C]-N--CA-[C] |==|  0.58464
USER: genes 7 Torsion [N]-CA--CB-[CG] |==|  0.99329
USER: genes 8 Torsion [CA]-CB--CG-[CD] |==|  0.71410
USER: genes 9 Torsion [CB]-CG--CD-[OE1] |==|  0.00582
USER: genes 10 Torsion [N]-CA--C-[N] |==|  0.45251
USER: genes 11 Torsion [C]-N--CA-[CB] |==|  0.54256
USER: genes 12 Torsion [N]-CA--CB-[CG2] |==|  0.09697
USER: genes 13 Torsion [N]-CA--C-[OXT] |==|  0.34481
USER: genes 14 Torsion [N]-C--CA-[N] |==|  0.38668
USER: genes 15 Torsion [C]-CA--N-[C] |==|  0.77805
USER: genes 16 Torsion [N]-C--CA-[N] |==|  0.84881
USER: genes 17 Torsion [C]-CA--CB-[CG] |==|  0.33091
USER: genes 18 Torsion [CA]-CB--CG-[CD] |==|  0.07472
USER: genes 19 Torsion [CB]-CG--CD-[NE] |==|  0.72180
USER: genes 20 Torsion [CG]-CD--NE-[HE] |==|  0.26174
USER: genes 21 Torsion [C]-CA--CB-[CG] |==|  0.40675
USER: genes 22 Torsion [CA]-CB--CG-[CD] |==|  0.57516
USER: genes 23 Torsion [CB]-CG--CD-[OE2] |==|  0.80682
ROOT
ATOM      1  C   GLU D   7      26.015  29.032   0.397  1.00 11.94 LIG 0.24  C 
ATOM      2 O    GLU D   7      26.258  28.071   1.125  1.00 14.56 LIG-0.27  OA
ATOM      3  N   THR D   8      26.162  28.992  -0.927  1.00  6.63 LIG-0.34  N 
ATOM      4 H    THR D   8      25.976  29.650  -1.449  1.00  6.63 LIG 0.16  HD
ENDROOT
BRANCH 3 5
ATOM      5  CA  THR D   8      26.659  27.806  -1.612  1.00  8.00 LIG 0.20  C 
BRANCH 5 6
ATOM      6  CB  THR D   8      27.801  27.148  -0.823  1.00  7.16 LIG 0.15  C 
ATOM      7  CG2 THR D   8      28.376  25.961  -1.583  1.00  8.54 LIG 0.04  C 
BRANCH 6 8
ATOM      8 OG1  THR D   8      28.843  28.117  -0.606  1.00  7.76 LIG-0.39  OA
ATOM      9 HG1  THR D   8      28.501  28.874  -0.479  1.00  7.76 LIG 0.21  HD
ENDBRANCH 6 8
ENDBRANCH 5 6
BRANCH 5 10
ATOM     10  C   THR D   8      25.544  26.780  -1.806  1.00  6.30 LIG 0.24  C 
ATOM     11 O    THR D   8      25.426  26.168  -2.876  1.00  7.25 LIG-0.27  OA
ATOM     12  N   GLN D   9      24.732  26.592  -0.769  1.00  7.34 LIG-0.35  N 
ATOM     13 H    GLN D   9      24.849  26.952   0.003  1.00  7.34 LIG 0.16  HD
BRANCH 12 14
ATOM     14  CA  GLN D   9      23.556  25.744  -0.864  1.00  6.42 LIG 0.18  C 
BRANCH 14 15
ATOM     15  CB  GLN D   9      23.936  24.317  -0.473  1.00  8.55 LIG 0.04  C 
BRANCH 15 16
ATOM     16  CG  GLN D   9      25.396  24.133  -0.152  1.00 10.19 LIG 0.10  C 
BRANCH 16 17
ATOM     17  CD  GLN D   9      26.160  23.464  -1.283  1.00 10.51 LIG 0.21  C 
ATOM     18 OE1  GLN D   9      25.603  23.162  -2.347  1.00 10.16 LIG-0.27  OA
ATOM     19  NE2 GLN D   9      27.452  23.242  -1.058  1.00 11.61 LIG-0.37  N 
ATOM     20 22HE GLN D   9      27.937  22.874  -1.666  1.00 11.61 LIG 0.16  HD
ATOM     21 21HE GLN D   9      27.803  23.466  -0.305  1.00 11.61 LIG 0.16  HD
ENDBRANCH 16 17
ENDBRANCH 15 16
ENDBRANCH 14 15
BRANCH 14 22
ATOM     22  C   GLN D   9      22.490  26.263   0.073  1.00  5.32 LIG 0.24  C 
ATOM     23 O    GLN D   9      22.786  27.038   0.976  1.00  6.01 LIG-0.27  OA
ATOM     24  N   VAL D  10      21.242  25.834  -0.133  1.00  6.34 LIG-0.34  N 
ATOM     25 H    VAL D  10      21.018  25.293  -0.763  1.00  6.34 LIG 0.16  HD
BRANCH 24 26
ATOM     26  CA  VAL D  10      20.132  26.262   0.715  1.00  7.66 LIG 0.19  C 
BRANCH 26 27
ATOM     27  CB  VAL D  10      18.880  25.366   0.538  1.00  6.96 LIG 0.01  C 
ATOM     28  CG1 VAL D  10      18.033  25.867  -0.614  1.00  7.91 LIG 0.01  C 
ATOM     29  CG2 VAL D  10      19.285  23.910   0.282  1.00  7.70 LIG 0.01  C 
ENDBRANCH 26 27
BRANCH 26 30
ATOM     30  C   VAL D  10      20.514  26.274   2.192  1.00  6.04 LIG 0.20  C 
ATOM     31 OXT  VAL D  10      20.390  27.298   2.873  1.00  6.83 LIG-0.65  OA
ATOM     32 O    VAL D  10      20.965  25.241   2.696  1.00  6.68 LIG-0.65  OA
ENDBRANCH 26 30
ENDBRANCH 24 26
ENDBRANCH 14 22
ENDBRANCH 12 14
ENDBRANCH 5 10
ENDBRANCH 3 5
BRANCH 1 33
ATOM     33  CA  GLU D   7      25.505  30.338   0.992  1.00 10.87 LIG 0.18  C 
BRANCH 33 34
ATOM     34  N   GLU D   7      24.544  30.041   2.051  1.00 12.61 LIG-0.35  N 
ATOM     35  C   ARG D   6      23.282  29.721   1.779  1.00 15.63 LIG 0.26  C 
ATOM     36 O    ARG D   6      22.858  29.590   0.634  1.00 17.14 LIG-0.27  OA
ATOM     37 H    GLU D   7      24.866  30.091   2.846  1.00 12.61 LIG 0.16  HD
BRANCH 35 38
ATOM     38  CA  ARG D   6      22.357  29.522   2.975  1.00 20.39 LIG 0.40  C 
ATOM     39  N   ARG D   6      22.895  28.542   3.913  1.00 31.26 LIG 0.61  N 
BRANCH 38 40
ATOM     40  CB  ARG D   6      22.085  30.850   3.683  1.00 20.29 LIG 0.05  C 
BRANCH 40 41
ATOM     41  CG  ARG D   6      20.617  31.243   3.698  1.00 28.41 LIG 0.02  C 
BRANCH 41 42
ATOM     42  CD  ARG D   6      19.705  30.025   3.625  1.00 36.78 LIG 0.14  C 
BRANCH 42 43
ATOM     43  NE  ARG D   6      19.182  29.787   2.281  1.00 40.20 LIG-0.23  N 
ATOM     44  CZ  ARG D   6      18.088  30.368   1.796  1.00 47.18 LIG 0.67  C 
ATOM     45  NH2 ARG D   6      17.677  30.098   0.564  1.00 45.83 LIG-0.23  N 
ATOM     46  NH1 ARG D   6      17.401  31.220   2.548  1.00 52.71 LIG-0.23  N 
ATOM     47 1HH2 ARG D   6      18.118  29.546   0.074  1.00 45.83 LIG 0.17  HD
ATOM     48 2HH2 ARG D   6      16.969  30.476   0.254  1.00 45.83 LIG 0.17  HD
ATOM     49 1HH1 ARG D   6      17.662  31.395   3.348  1.00 52.71 LIG 0.17  HD
ATOM     50 2HH1 ARG D   6      16.694  31.596   2.234  1.00 52.71 LIG 0.17  HD
ATOM     51 HE   ARG D   6      19.607  29.238   1.774  1.00 40.20 LIG 0.18  HD
ENDBRANCH 42 43
ENDBRANCH 41 42
ENDBRANCH 40 41
ENDBRANCH 38 40
ENDBRANCH 35 38
ENDBRANCH 33 34
BRANCH 33 52
ATOM     52  CB  GLU D   7      26.663  31.153   1.559  1.00 13.53 LIG 0.04  C 
BRANCH 52 53
ATOM     53  CG  GLU D   7      26.501  32.649   1.440  1.00 15.67 LIG 0.12  C 
BRANCH 53 54
ATOM     54  CD  GLU D   7      27.840  33.359   1.383  1.00 22.62 LIG 0.17  C 
ATOM     55 OE2  GLU D   7      28.550  33.386   2.406  1.00 20.96 LIG-0.65  OA
ATOM     56 OE1  GLU D   7      28.195  33.871   0.299  1.00 32.46 LIG-0.65  OA
ENDBRANCH 53 54
ENDBRANCH 52 53
ENDBRANCH 33 52
ENDBRANCH 1 33
TORSDOF 22
ENDMDL
MODEL 25
USER: ADFR SOLUTION from run 106
USER: SCORE 15.816419 LL:  -4.388 LR: -12.519 RR:   0.000 FEB:  -5.956
USER: RMSD 5.867671
USER: SEED 105
USER: STATUS no improvement in best in 9 clusters for 5 generations
USER: GENES 24
USER: genes 0 Translation |==|  0.51660 0.48070 0.40781
USER: genes 1 Rotation |==|  0.87126 0.83047 0.52946 0.54574
USER: genes 2 Torsion [C]-N--CA-[CB] |==|  0.47825
USER: genes 3 Torsion [N]-CA--CB-[CG2] |==|  0.21760
USER: genes 4 Torsion [CA]-CB--OG1-[HG1] |==|  0.92714
USER: genes 5 Torsion [N]-CA--C-[N] |==|  0.47497
USER: genes 6 Torsion [C]-N--CA-[C] |==|  0.66667
USER: genes 7 Torsion [N]-CA--CB-[CG] |==|  0.65869
USER: genes 8 Torsion [CA]-CB--CG-[CD] |==|  0.08733
USER: genes 9 Torsion [CB]-CG--CD-[OE1] |==|  0.19404
USER: genes 10 Torsion [N]-CA--C-[N] |==|  0.99142
USER: genes 11 Torsion [C]-N--CA-[CB] |==|  0.43605
USER: genes 12 Torsion [N]-CA--CB-[CG2] |==|  0.51295
USER: genes 13 Torsion [N]-CA--C-[OXT] |==|  0.42851
USER: genes 14 Torsion [N]-C--CA-[N] |==|  0.32991
USER: genes 15 Torsion [C]-CA--N-[C] |==|  0.73352
USER: genes 16 Torsion [N]-C--CA-[N] |==|  0.75075
USER: genes 17 Torsion [C]-CA--CB-[CG] |==|  0.26160
USER: genes 18 Torsion [CA]-CB--CG-[CD] |==|  0.58270
USER: genes 19 Torsion [CB]-CG--CD-[NE] |==|  0.78636
USER: genes 20 Torsion [CG]-CD--NE-[HE] |==|  0.95520
USER: genes 21 Torsion [C]-CA--CB-[CG] |==|  0.47531
USER: genes 22 Torsion [CA]-CB--CG-[CD] |==|  0.37118
USER: genes 23 Torsion [CB]-CG--CD-[OE2] |==|  0.66088
ROOT
ATOM      1  C   GLU D   7      21.801  23.891   0.869  1.00 11.94 LIG 0.24  C 
ATOM      2 O    GLU D   7      22.040  23.698  -0.322  1.00 14.56 LIG-0.27  OA
ATOM      3  N   THR D   8      21.980  25.072   1.461  1.00  6.63 LIG-0.34  N 
ATOM      4 H    THR D   8      21.797  25.225   2.287  1.00  6.63 LIG 0.16  HD
ENDROOT
BRANCH 3 5
ATOM      5  CA  THR D   8      22.510  26.222   0.740  1.00  8.00 LIG 0.20  C 
BRANCH 5 6
ATOM      6  CB  THR D   8      22.434  27.496   1.596  1.00  7.16 LIG 0.15  C 
ATOM      7  CG2 THR D   8      23.556  27.531   2.623  1.00  8.54 LIG 0.04  C 
BRANCH 6 8
ATOM      8 OG1  THR D   8      22.544  28.647   0.739  1.00  7.76 LIG-0.39  OA
ATOM      9 HG1  THR D   8      22.969  28.440   0.044  1.00  7.76 LIG 0.21  HD
ENDBRANCH 6 8
ENDBRANCH 5 6
BRANCH 5 10
ATOM     10  C   THR D   8      23.965  25.990   0.337  1.00  6.30 LIG 0.24  C 
ATOM     11 O    THR D   8      24.590  25.009   0.761  1.00  7.25 LIG-0.27  OA
ATOM     12  N   GLN D   9      24.497  26.892  -0.485  1.00  7.34 LIG-0.35  N 
ATOM     13 H    GLN D   9      24.052  27.532  -0.847  1.00  7.34 LIG 0.16  HD
BRANCH 12 14
ATOM     14  CA  GLN D   9      25.905  26.861  -0.842  1.00  6.42 LIG 0.18  C 
BRANCH 14 15
ATOM     15  CB  GLN D   9      26.033  26.702  -2.356  1.00  8.55 LIG 0.04  C 
BRANCH 15 16
ATOM     16  CG  GLN D   9      26.834  25.501  -2.785  1.00 10.19 LIG 0.10  C 
BRANCH 16 17
ATOM     17  CD  GLN D   9      26.708  24.340  -1.812  1.00 10.51 LIG 0.21  C 
ATOM     18 OE1  GLN D   9      25.651  23.707  -1.698  1.00 10.16 LIG-0.27  OA
ATOM     19  NE2 GLN D   9      27.802  24.048  -1.114  1.00 11.61 LIG-0.37  N 
ATOM     20 22HE GLN D   9      27.793  23.395  -0.554  1.00 11.61 LIG 0.16  HD
ATOM     21 21HE GLN D   9      28.518  24.512  -1.222  1.00 11.61 LIG 0.16  HD
ENDBRANCH 16 17
ENDBRANCH 15 16
ENDBRANCH 14 15
BRANCH 14 22
ATOM     22  C   GLN D   9      26.557  28.154  -0.408  1.00  5.32 LIG 0.24  C 
ATOM     23 O    GLN D   9      27.763  28.318  -0.557  1.00  6.01 LIG-0.27  OA
ATOM     24  N   VAL D  10      25.762  29.079   0.137  1.00  6.34 LIG-0.34  N 
ATOM     25 H    VAL D  10      24.915  28.979   0.246  1.00  6.34 LIG 0.16  HD
BRANCH 24 26
ATOM     26  CA  VAL D  10      26.282  30.363   0.601  1.00  7.66 LIG 0.19  C 
BRANCH 26 27
ATOM     27  CB  VAL D  10      25.185  31.455   0.653  1.00  6.96 LIG 0.01  C 
ATOM     28  CG1 VAL D  10      24.113  31.078   1.656  1.00  7.91 LIG 0.01  C 
ATOM     29  CG2 VAL D  10      25.787  32.813   1.032  1.00  7.70 LIG 0.01  C 
ENDBRANCH 26 27
BRANCH 26 30
ATOM     30  C   VAL D  10      26.924  30.254   1.980  1.00  6.04 LIG 0.20  C 
ATOM     31 OXT  VAL D  10      27.802  31.047   2.338  1.00  6.83 LIG-0.65  OA
ATOM     32 O    VAL D  10      26.560  29.346   2.733  1.00  6.68 LIG-0.65  OA
ENDBRANCH 26 30
ENDBRANCH 24 26
ENDBRANCH 14 22
ENDBRANCH 12 14
ENDBRANCH 5 10
ENDBRANCH 3 5
BRANCH 1 33
ATOM     33  CA  GLU D   7      21.258  22.763   1.736  1.00 10.87 LIG 0.18  C 
BRANCH 33 34
ATOM     34  N   GLU D   7      19.977  22.315   1.196  1.00 12.61 LIG-0.35  N 
ATOM     35  C   ARG D   6      18.821  22.774   1.666  1.00 15.63 LIG 0.26  C 
ATOM     36 O    ARG D   6      18.750  23.644   2.530  1.00 17.14 LIG-0.27  OA
ATOM     37 H    GLU D   7      20.042  21.741   0.560  1.00 12.61 LIG 0.16  HD
BRANCH 35 38
ATOM     38  CA  ARG D   6      17.554  22.160   1.080  1.00 20.39 LIG 0.40  C 
ATOM     39  N   ARG D   6      17.097  22.893  -0.097  1.00 31.26 LIG 0.61  N 
BRANCH 38 40
ATOM     40  CB  ARG D   6      17.767  20.684   0.743  1.00 20.29 LIG 0.05  C 
BRANCH 40 41
ATOM     41  CG  ARG D   6      17.336  19.739   1.851  1.00 28.41 LIG 0.02  C 
BRANCH 41 42
ATOM     42  CD  ARG D   6      18.159  18.456   1.854  1.00 36.78 LIG 0.14  C 
BRANCH 42 43
ATOM     43  NE  ARG D   6      17.759  17.523   0.804  1.00 40.20 LIG-0.23  N 
ATOM     44  CZ  ARG D   6      18.501  16.495   0.401  1.00 47.18 LIG 0.67  C 
ATOM     45  NH2 ARG D   6      18.067  15.691  -0.562  1.00 45.83 LIG-0.23  N 
ATOM     46  NH1 ARG D   6      19.683  16.271   0.961  1.00 52.71 LIG-0.23  N 
ATOM     47 1HH2 ARG D   6      17.302  15.834  -0.929  1.00 45.83 LIG 0.17  HD
ATOM     48 2HH2 ARG D   6      18.550  15.028  -0.819  1.00 45.83 LIG 0.17  HD
ATOM     49 1HH1 ARG D   6      19.970  16.790   1.584  1.00 52.71 LIG 0.17  HD
ATOM     50 2HH1 ARG D   6      20.163  15.606   0.702  1.00 52.71 LIG 0.17  HD
ATOM     51 HE   ARG D   6      16.998  17.646   0.423  1.00 40.20 LIG 0.18  HD
ENDBRANCH 42 43
ENDBRANCH 41 42
ENDBRANCH 40 41
ENDBRANCH 38 40
ENDBRANCH 35 38
ENDBRANCH 33 34
BRANCH 33 52
ATOM     52  CB  GLU D   7      22.241  21.598   1.770  1.00 13.53 LIG 0.04  C 
BRANCH 52 53
ATOM     53  CG  GLU D   7      21.902  20.515   2.766  1.00 15.67 LIG 0.12  C 
BRANCH 53 54
ATOM     54  CD  GLU D   7      22.018  19.131   2.156  1.00 22.62 LIG 0.17  C 
ATOM     55 OE2  GLU D   7      21.019  18.386   2.161  1.00 20.96 LIG-0.65  OA
ATOM     56 OE1  GLU D   7      23.108  18.797   1.644  1.00 32.46 LIG-0.65  OA
ENDBRANCH 53 54
ENDBRANCH 52 53
ENDBRANCH 33 52
ENDBRANCH 1 33
TORSDOF 22
ENDMDL
MODEL 26
USER: ADFR SOLUTION from run 195
USER: SCORE 16.634086 LL:  -6.134 LR: -12.485 RR:   0.000 FEB:  -5.923
USER: RMSD 11.453396
USER: SEED 194
USER: STATUS no improvement in best in 5 clusters for 5 generations
USER: GENES 24
USER: genes 0 Translation |==|  0.75962 0.62210 0.29247
USER: genes 1 Rotation |==|  0.79375 0.17917 0.26486 0.57406
USER: genes 2 Torsion [C]-N--CA-[CB] |==|  0.52778
USER: genes 3 Torsion [N]-CA--CB-[CG2] |==|  0.53390
USER: genes 4 Torsion [CA]-CB--OG1-[HG1] |==|  0.40737
USER: genes 5 Torsion [N]-CA--C-[N] |==|  0.84831
USER: genes 6 Torsion [C]-N--CA-[C] |==|  0.69342
USER: genes 7 Torsion [N]-CA--CB-[CG] |==|  0.83565
USER: genes 8 Torsion [CA]-CB--CG-[CD] |==|  0.80564
USER: genes 9 Torsion [CB]-CG--CD-[OE1] |==|  0.07557
USER: genes 10 Torsion [N]-CA--C-[N] |==|  0.37722
USER: genes 11 Torsion [C]-N--CA-[CB] |==|  0.82238
USER: genes 12 Torsion [N]-CA--CB-[CG2] |==|  0.89648
USER: genes 13 Torsion [N]-CA--C-[OXT] |==|  0.13161
USER: genes 14 Torsion [N]-C--CA-[N] |==|  0.75500
USER: genes 15 Torsion [C]-CA--N-[C] |==|  0.71360
USER: genes 16 Torsion [N]-C--CA-[N] |==|  0.89780
USER: genes 17 Torsion [C]-CA--CB-[CG] |==|  0.26642
USER: genes 18 Torsion [CA]-CB--CG-[CD] |==|  0.01839
USER: genes 19 Torsion [CB]-CG--CD-[NE] |==|  0.74985
USER: genes 20 Torsion [CG]-CD--NE-[HE] |==|  0.27370
USER: genes 21 Torsion [C]-CA--CB-[CG] |==|  0.53417
USER: genes 22 Torsion [CA]-CB--CG-[CD] |==|  0.21350
USER: genes 23 Torsion [CB]-CG--CD-[OE2] |==|  0.55220
ROOT
ATOM      1  C   GLU D   7      27.268  27.391  -1.207  1.00 11.94 LIG 0.24  C 
ATOM      2 O    GLU D   7      26.393  28.027  -1.793  1.00 14.56 LIG-0.27  OA
ATOM      3  N   THR D   8      27.304  26.059  -1.187  1.00  6.63 LIG-0.34  N 
ATOM      4 H    THR D   8      27.921  25.602  -0.799  1.00  6.63 LIG 0.16  HD
ENDROOT
BRANCH 3 5
ATOM      5  CA  THR D   8      26.278  25.251  -1.833  1.00  8.00 LIG 0.20  C 
BRANCH 5 6
ATOM      6  CB  THR D   8      26.418  23.769  -1.453  1.00  7.16 LIG 0.15  C 
ATOM      7  CG2 THR D   8      25.552  22.893  -2.347  1.00  8.54 LIG 0.04  C 
BRANCH 6 8
ATOM      8 OG1  THR D   8      27.794  23.373  -1.597  1.00  7.76 LIG-0.39  OA
ATOM      9 HG1  THR D   8      27.983  22.797  -1.016  1.00  7.76 LIG 0.21  HD
ENDBRANCH 6 8
ENDBRANCH 5 6
BRANCH 5 10
ATOM     10  C   THR D   8      24.881  25.727  -1.442  1.00  6.30 LIG 0.24  C 
ATOM     11 O    THR D   8      24.048  26.026  -2.309  1.00  7.25 LIG-0.27  OA
ATOM     12  N   GLN D   9      24.627  25.792  -0.137  1.00  7.34 LIG-0.35  N 
ATOM     13 H    GLN D   9      25.167  25.515   0.471  1.00  7.34 LIG 0.16  HD
BRANCH 12 14
ATOM     14  CA  GLN D   9      23.385  26.351   0.371  1.00  6.42 LIG 0.18  C 
BRANCH 14 15
ATOM     15  CB  GLN D   9      22.768  25.372   1.368  1.00  8.55 LIG 0.04  C 
BRANCH 15 16
ATOM     16  CG  GLN D   9      22.463  24.014   0.793  1.00 10.19 LIG 0.10  C 
BRANCH 16 17
ATOM     17  CD  GLN D   9      21.309  24.047  -0.196  1.00 10.51 LIG 0.21  C 
ATOM     18 OE1  GLN D   9      21.041  25.070  -0.839  1.00 10.16 LIG-0.27  OA
ATOM     19  NE2 GLN D   9      20.627  22.912  -0.329  1.00 11.61 LIG-0.37  N 
ATOM     20 22HE GLN D   9      19.968  22.869  -0.881  1.00 11.61 LIG 0.16  HD
ATOM     21 21HE GLN D   9      20.844  22.222   0.137  1.00 11.61 LIG 0.16  HD
ENDBRANCH 16 17
ENDBRANCH 15 16
ENDBRANCH 14 15
BRANCH 14 22
ATOM     22  C   GLN D   9      23.676  27.665   1.060  1.00  5.32 LIG 0.24  C 
ATOM     23 O    GLN D   9      24.631  27.763   1.822  1.00  6.01 LIG-0.27  OA
ATOM     24  N   VAL D  10      22.850  28.681   0.799  1.00  6.34 LIG-0.34  N 
ATOM     25 H    VAL D  10      22.178  28.627   0.265  1.00  6.34 LIG 0.16  HD
BRANCH 24 26
ATOM     26  CA  VAL D  10      23.028  29.994   1.413  1.00  7.66 LIG 0.19  C 
BRANCH 26 27
ATOM     27  CB  VAL D  10      22.853  29.949   2.952  1.00  6.96 LIG 0.01  C 
ATOM     28  CG1 VAL D  10      22.526  31.329   3.486  1.00  7.91 LIG 0.01  C 
ATOM     29  CG2 VAL D  10      21.741  28.970   3.345  1.00  7.70 LIG 0.01  C 
ENDBRANCH 26 27
BRANCH 26 30
ATOM     30  C   VAL D  10      24.395  30.592   1.097  1.00  6.04 LIG 0.20  C 
ATOM     31 OXT  VAL D  10      24.836  30.597  -0.057  1.00  6.83 LIG-0.65  OA
ATOM     32 O    VAL D  10      25.064  31.061   2.022  1.00  6.68 LIG-0.65  OA
ENDBRANCH 26 30
ENDBRANCH 24 26
ENDBRANCH 14 22
ENDBRANCH 12 14
ENDBRANCH 5 10
ENDBRANCH 3 5
BRANCH 1 33
ATOM     33  CA  GLU D   7      28.389  28.119  -0.477  1.00 10.87 LIG 0.18  C 
BRANCH 33 34
ATOM     34  N   GLU D   7      28.009  28.308   0.920  1.00 12.61 LIG-0.35  N 
ATOM     35  C   ARG D   6      27.589  29.485   1.376  1.00 15.63 LIG 0.26  C 
ATOM     36 O    ARG D   6      27.430  30.463   0.652  1.00 17.14 LIG-0.27  OA
ATOM     37 H    GLU D   7      28.081  27.603   1.406  1.00 12.61 LIG 0.16  HD
BRANCH 35 38
ATOM     38  CA  ARG D   6      27.310  29.574   2.873  1.00 20.39 LIG 0.40  C 
ATOM     39  N   ARG D   6      26.726  28.338   3.385  1.00 31.26 LIG 0.61  N 
BRANCH 38 40
ATOM     40  CB  ARG D   6      28.581  29.928   3.647  1.00 20.29 LIG 0.05  C 
BRANCH 40 41
ATOM     41  CG  ARG D   6      28.720  31.412   3.942  1.00 28.41 LIG 0.02  C 
BRANCH 41 42
ATOM     42  CD  ARG D   6      27.474  32.189   3.536  1.00 36.78 LIG 0.14  C 
BRANCH 42 43
ATOM     43  NE  ARG D   6      27.531  32.675   2.160  1.00 40.20 LIG-0.23  N 
ATOM     44  CZ  ARG D   6      28.173  33.779   1.787  1.00 47.18 LIG 0.67  C 
ATOM     45  NH2 ARG D   6      28.177  34.154   0.514  1.00 45.83 LIG-0.23  N 
ATOM     46  NH1 ARG D   6      28.809  34.513   2.692  1.00 52.71 LIG-0.23  N 
ATOM     47 1HH2 ARG D   6      27.764  33.683  -0.075  1.00 45.83 LIG 0.17  HD
ATOM     48 2HH2 ARG D   6      28.593  34.869   0.278  1.00 45.83 LIG 0.17  HD
ATOM     49 1HH1 ARG D   6      28.807  34.275   3.518  1.00 52.71 LIG 0.17  HD
ATOM     50 2HH1 ARG D   6      29.225  35.227   2.451  1.00 52.71 LIG 0.17  HD
ATOM     51 HE   ARG D   6      27.126  32.219   1.553  1.00 40.20 LIG 0.18  HD
ENDBRANCH 42 43
ENDBRANCH 41 42
ENDBRANCH 40 41
ENDBRANCH 38 40
ENDBRANCH 35 38
ENDBRANCH 33 34
BRANCH 33 52
ATOM     52  CB  GLU D   7      29.685  27.317  -0.557  1.00 13.53 LIG 0.04  C 
BRANCH 52 53
ATOM     53  CG  GLU D   7      30.779  27.792   0.369  1.00 15.67 LIG 0.12  C 
BRANCH 53 54
ATOM     54  CD  GLU D   7      30.533  27.358   1.802  1.00 22.62 LIG 0.17  C 
ATOM     55 OE2  GLU D   7      31.131  27.951   2.720  1.00 20.96 LIG-0.65  OA
ATOM     56 OE1  GLU D   7      29.717  26.435   2.011  1.00 32.46 LIG-0.65  OA
ENDBRANCH 53 54
ENDBRANCH 52 53
ENDBRANCH 33 52
ENDBRANCH 1 33
TORSDOF 22
ENDMDL
MODEL 27
USER: ADFR SOLUTION from run 165
USER: SCORE 16.177909 LL:  -5.289 LR: -12.491 RR:   0.000 FEB:  -5.928
USER: RMSD 9.728933
USER: SEED 164
USER: STATUS no improvement in best in 8 clusters for 5 generations
USER: GENES 24
USER: genes 0 Translation |==|  0.71523 0.72933 0.41215
USER: genes 1 Rotation |==|  0.04132 0.66200 0.58965 0.57301
USER: genes 2 Torsion [C]-N--CA-[CB] |==|  0.52229
USER: genes 3 Torsion [N]-CA--CB-[CG2] |==|  0.69349
USER: genes 4 Torsion [CA]-CB--OG1-[HG1] |==|  0.32062
USER: genes 5 Torsion [N]-CA--C-[N] |==|  0.78041
USER: genes 6 Torsion [C]-N--CA-[C] |==|  0.60311
USER: genes 7 Torsion [N]-CA--CB-[CG] |==|  0.03609
USER: genes 8 Torsion [CA]-CB--CG-[CD] |==|  0.25226
USER: genes 9 Torsion [CB]-CG--CD-[OE1] |==|  0.08577
USER: genes 10 Torsion [N]-CA--C-[N] |==|  0.25364
USER: genes 11 Torsion [C]-N--CA-[CB] |==|  0.85907
USER: genes 12 Torsion [N]-CA--CB-[CG2] |==|  0.64260
USER: genes 13 Torsion [N]-CA--C-[OXT] |==|  0.93083
USER: genes 14 Torsion [N]-C--CA-[N] |==|  0.89182
USER: genes 15 Torsion [C]-CA--N-[C] |==|  0.83381
USER: genes 16 Torsion [N]-C--CA-[N] |==|  0.82240
USER: genes 17 Torsion [C]-CA--CB-[CG] |==|  0.26378
USER: genes 18 Torsion [CA]-CB--CG-[CD] |==|  0.76838
USER: genes 19 Torsion [CB]-CG--CD-[NE] |==|  0.38604
USER: genes 20 Torsion [CG]-CD--NE-[HE] |==|  0.19391
USER: genes 21 Torsion [C]-CA--CB-[CG] |==|  0.20621
USER: genes 22 Torsion [CA]-CB--CG-[CD] |==|  0.62020
USER: genes 23 Torsion [CB]-CG--CD-[OE2] |==|  0.34989
ROOT
ATOM      1  C   GLU D   7      26.270  30.045   0.947  1.00 11.94 LIG 0.24  C 
ATOM      2 O    GLU D   7      25.894  30.583  -0.094  1.00 14.56 LIG-0.27  OA
ATOM      3  N   THR D   8      27.153  29.047   0.968  1.00  6.63 LIG-0.34  N 
ATOM      4 H    THR D   8      27.439  28.676   1.689  1.00  6.63 LIG 0.16  HD
ENDROOT
BRANCH 3 5
ATOM      5  CA  THR D   8      27.718  28.492  -0.256  1.00  8.00 LIG 0.20  C 
BRANCH 5 6
ATOM      6  CB  THR D   8      28.549  27.234   0.038  1.00  7.16 LIG 0.15  C 
ATOM      7  CG2 THR D   8      30.032  27.497  -0.180  1.00  8.54 LIG 0.04  C 
BRANCH 6 8
ATOM      8 OG1  THR D   8      28.337  26.837   1.405  1.00  7.76 LIG-0.39  OA
ATOM      9 HG1  THR D   8      27.958  26.088   1.425  1.00  7.76 LIG 0.21  HD
ENDBRANCH 6 8
ENDBRANCH 5 6
BRANCH 5 10
ATOM     10  C   THR D   8      26.617  28.131  -1.250  1.00  6.30 LIG 0.24  C 
ATOM     11 O    THR D   8      26.358  28.876  -2.206  1.00  7.25 LIG-0.27  OA
ATOM     12  N   GLN D   9      25.975  26.987  -1.026  1.00  7.34 LIG-0.35  N 
ATOM     13 H    GLN D   9      26.196  26.426  -0.414  1.00  7.34 LIG 0.16  HD
BRANCH 12 14
ATOM     14  CA  GLN D   9      24.823  26.591  -1.818  1.00  6.42 LIG 0.18  C 
BRANCH 14 15
ATOM     15  CB  GLN D   9      25.279  25.634  -2.918  1.00  8.55 LIG 0.04  C 
BRANCH 15 16
ATOM     16  CG  GLN D   9      26.677  25.104  -2.736  1.00 10.19 LIG 0.10  C 
BRANCH 16 17
ATOM     17  CD  GLN D   9      26.708  23.804  -1.949  1.00 10.51 LIG 0.21  C 
ATOM     18 OE1  GLN D   9      25.772  22.996  -2.002  1.00 10.16 LIG-0.27  OA
ATOM     19  NE2 GLN D   9      27.802  23.592  -1.222  1.00 11.61 LIG-0.37  N 
ATOM     20 22HE GLN D   9      27.880  22.869  -0.763  1.00 11.61 LIG 0.16  HD
ATOM     21 21HE GLN D   9      28.432  24.179  -1.211  1.00 11.61 LIG 0.16  HD
ENDBRANCH 16 17
ENDBRANCH 15 16
ENDBRANCH 14 15
BRANCH 14 22
ATOM     22  C   GLN D   9      23.819  25.899  -0.924  1.00  5.32 LIG 0.24  C 
ATOM     23 O    GLN D   9      23.882  24.688  -0.748  1.00  6.01 LIG-0.27  OA
ATOM     24  N   VAL D  10      22.883  26.666  -0.360  1.00  6.34 LIG-0.34  N 
ATOM     25 H    VAL D  10      22.827  27.517  -0.472  1.00  6.34 LIG 0.16  HD
BRANCH 24 26
ATOM     26  CA  VAL D  10      21.856  26.106   0.515  1.00  7.66 LIG 0.19  C 
BRANCH 26 27
ATOM     27  CB  VAL D  10      21.136  24.894  -0.127  1.00  6.96 LIG 0.01  C 
ATOM     28  CG1 VAL D  10      21.522  23.614   0.585  1.00  7.91 LIG 0.01  C 
ATOM     29  CG2 VAL D  10      19.614  25.073  -0.071  1.00  7.70 LIG 0.01  C 
ENDBRANCH 26 27
BRANCH 26 30
ATOM     30  C   VAL D  10      22.427  25.674   1.862  1.00  6.04 LIG 0.20  C 
ATOM     31 OXT  VAL D  10      23.619  25.374   1.981  1.00  6.83 LIG-0.65  OA
ATOM     32 O    VAL D  10      21.669  25.615   2.835  1.00  6.68 LIG-0.65  OA
ENDBRANCH 26 30
ENDBRANCH 24 26
ENDBRANCH 14 22
ENDBRANCH 12 14
ENDBRANCH 5 10
ENDBRANCH 3 5
BRANCH 1 33
ATOM     33  CA  GLU D   7      25.740  30.522   2.293  1.00 10.87 LIG 0.18  C 
BRANCH 33 34
ATOM     34  N   GLU D   7      25.534  29.368   3.164  1.00 12.61 LIG-0.35  N 
ATOM     35  C   ARG D   6      24.700  28.385   2.836  1.00 15.63 LIG 0.26  C 
ATOM     36 O    ARG D   6      24.104  28.346   1.764  1.00 17.14 LIG-0.27  OA
ATOM     37 H    GLU D   7      25.993  29.385   3.890  1.00 12.61 LIG 0.16  HD
BRANCH 35 38
ATOM     38  CA  ARG D   6      24.505  27.283   3.872  1.00 20.39 LIG 0.40  C 
ATOM     39  N   ARG D   6      25.743  26.549   4.114  1.00 31.26 LIG 0.61  N 
BRANCH 38 40
ATOM     40  CB  ARG D   6      23.954  27.852   5.180  1.00 20.29 LIG 0.05  C 
BRANCH 40 41
ATOM     41  CG  ARG D   6      22.441  27.767   5.291  1.00 28.41 LIG 0.02  C 
BRANCH 41 42
ATOM     42  CD  ARG D   6      21.756  28.931   4.586  1.00 36.78 LIG 0.14  C 
BRANCH 42 43
ATOM     43  NE  ARG D   6      20.566  28.523   3.843  1.00 40.20 LIG-0.23  N 
ATOM     44  CZ  ARG D   6      20.486  28.510   2.515  1.00 47.18 LIG 0.67  C 
ATOM     45  NH2 ARG D   6      19.367  28.126   1.914  1.00 45.83 LIG-0.23  N 
ATOM     46  NH1 ARG D   6      21.530  28.885   1.785  1.00 52.71 LIG-0.23  N 
ATOM     47 1HH2 ARG D   6      18.688  27.884   2.384  1.00 45.83 LIG 0.17  HD
ATOM     48 2HH2 ARG D   6      19.320  28.119   1.056  1.00 45.83 LIG 0.17  HD
ATOM     49 1HH1 ARG D   6      22.256  29.136   2.170  1.00 52.71 LIG 0.17  HD
ATOM     50 2HH1 ARG D   6      21.479  28.876   0.927  1.00 52.71 LIG 0.17  HD
ATOM     51 HE   ARG D   6      19.874  28.277   4.292  1.00 40.20 LIG 0.18  HD
ENDBRANCH 42 43
ENDBRANCH 41 42
ENDBRANCH 40 41
ENDBRANCH 38 40
ENDBRANCH 35 38
ENDBRANCH 33 34
BRANCH 33 52
ATOM     52  CB  GLU D   7      26.726  31.489   2.940  1.00 13.53 LIG 0.04  C 
BRANCH 52 53
ATOM     53  CG  GLU D   7      26.760  32.865   2.320  1.00 15.67 LIG 0.12  C 
BRANCH 53 54
ATOM     54  CD  GLU D   7      28.180  33.372   2.150  1.00 22.62 LIG 0.17  C 
ATOM     55 OE2  GLU D   7      28.551  33.753   1.023  1.00 20.96 LIG-0.65  OA
ATOM     56 OE1  GLU D   7      28.920  33.414   3.156  1.00 32.46 LIG-0.65  OA
ENDBRANCH 53 54
ENDBRANCH 52 53
ENDBRANCH 33 52
ENDBRANCH 1 33
TORSDOF 22
ENDMDL
