MODEL 1
USER: ADFR SOLUTION from run 50
USER: SCORE 23.606917 LL:  -4.736 LR: -20.001 RR:   0.000 FEB: -14.631
USER: RMSD 12.574094
USER: SEED 49
USER: STATUS no improvement in best in 4 clusters for 5 generations
USER: GENES 20
USER: genes 0 Translation |==|  0.42850 0.63296 0.46537
USER: genes 1 Rotation |==|  0.85762 0.43570 0.21883 0.69727
USER: genes 2 Torsion [C]-N--CA-[CB] |==|  0.76364
USER: genes 3 Torsion [N]-CA--C-[N] |==|  0.15177
USER: genes 4 Torsion [N]-CA--C-[O] |==|  0.07735
USER: genes 5 Torsion [C]-N--CA-[C] |==|  0.12794
USER: genes 6 Torsion [N]-CA--C-[N] |==|  0.17070
USER: genes 7 Torsion [N]-CA--C-[O] |==|  0.66070
USER: genes 8 Torsion [N]-CA--CB-[CG] |==|  0.83922
USER: genes 9 Torsion [CA]-CB--CG-[CD1] |==|  0.13613
USER: genes 10 Torsion [N]-CA--CB-[CG] |==|  0.63201
USER: genes 11 Torsion [CA]-CB--CG-[CD2] |==|  0.95238
USER: genes 12 Torsion [O]-C--CA-[CB] |==|  0.10730
USER: genes 13 Torsion [N]-C--CA-[N] |==|  0.12180
USER: genes 14 Torsion [C]-CA--CB-[CG] |==|  0.50853
USER: genes 15 Torsion [CA]-CB--CG-[CD] |==|  0.32873
USER: genes 16 Torsion [CB]-CG--CD-[NE] |==|  0.56965
USER: genes 17 Torsion [CG]-CD--NE-[HE] |==|  0.29983
USER: genes 18 Torsion [C]-CA--N-[C] |==|  0.62262
USER: genes 19 Torsion [N]-C--CA-[CB] |==|  0.91841
ROOT
ATOM      1  C   PRO C  17     -12.900  11.745 -11.441  1.00 34.10 LIG 0.24  C 
ATOM      2 O    PRO C  17     -13.383  11.943 -10.328  1.00 31.91 LIG-0.27  OA
ATOM      3  N   LEU C  18     -11.646  11.374 -11.618  1.00 30.88 LIG-0.35  N 
ATOM      4 H    LEU C  18     -11.288  11.289 -12.394  1.00 30.88 LIG 0.16  HD
ENDROOT
BRANCH 3 5
ATOM      5  CA  LEU C  18     -10.738  11.068 -10.522  1.00 30.78 LIG 0.18  C 
BRANCH 5 6
ATOM      6  C   LEU C  18     -11.408  10.369  -9.352  1.00 33.73 LIG 0.24  C 
ATOM      7  N   PRO C  19     -12.099   9.226  -9.605  1.00 33.17 LIG-0.34  N 
ATOM      8  CA  PRO C  19     -12.714   8.476  -8.490  1.00 33.85 LIG 0.18  C 
ATOM      9  CD  PRO C  19     -12.369   8.583 -10.915  1.00 35.22 LIG 0.13  C 
ATOM     10  CB  PRO C  19     -13.640   7.477  -9.190  1.00 35.69 LIG 0.04  C 
ATOM     11  CG  PRO C  19     -13.112   7.332 -10.564  1.00 39.92 LIG 0.02  C 
ATOM     12 O    LEU C  18     -11.221  10.804  -8.213  1.00 31.40 LIG-0.27  OA
BRANCH 8 13
ATOM     13  C   PRO C  19     -11.708   7.798  -7.547  1.00 39.47 LIG 0.24  C 
ATOM     14  N   PHE C  20     -12.149   6.723  -6.891  1.00 41.20 LIG-0.35  N 
ATOM     15 H    PHE C  20     -12.948   6.418  -6.992  1.00 41.20 LIG 0.16  HD
ATOM     16 O    PRO C  19     -10.580   8.252  -7.388  1.00 36.20 LIG-0.27  OA
BRANCH 14 17
ATOM     17  CA  PHE C  20     -11.357   5.942  -5.943  1.00 43.59 LIG 0.18  C 
BRANCH 17 18
ATOM     18  C   PHE C  20     -10.627   6.896  -4.979  1.00 48.54 LIG 0.24  C 
ATOM     19  N   PRO C  21     -11.341   7.723  -4.171  1.00 46.41 LIG-0.34  N 
ATOM     20  CA  PRO C  21     -10.642   8.603  -3.204  1.00 51.72 LIG 0.17  C 
ATOM     21  CD  PRO C  21     -12.803   7.919  -4.100  1.00 49.19 LIG 0.13  C 
ATOM     22  CB  PRO C  21     -11.788   9.337  -2.487  1.00 52.56 LIG 0.04  C 
ATOM     23  CG  PRO C  21     -12.949   9.233  -3.392  1.00 54.82 LIG 0.02  C 
ATOM     24 O    PHE C  20      -9.395   6.861  -4.949  1.00 48.67 LIG-0.27  OA
BRANCH 20 25
ATOM     25  C   PRO C  21      -9.777   7.852  -2.191  1.00 87.57 LIG 0.22  C 
ATOM     26 O    PRO C  21      -9.984   7.987  -0.986  1.00 58.80 LIG-0.29  OA
ENDBRANCH 20 25
ENDBRANCH 17 18
BRANCH 17 27
ATOM     27  CB  PHE C  20     -10.353   5.058  -6.726  1.00 46.79 LIG 0.07  C 
BRANCH 27 28
ATOM     28  CG  PHE C  20     -10.923   4.086  -7.740  1.00 50.46 LIG-0.06  A 
ATOM     29  CD2 PHE C  20     -10.488   2.763  -7.783  1.00 54.33 LIG 0.01  A 
ATOM     30  CE2 PHE C  20     -11.017   1.866  -8.720  1.00 57.68 LIG 0.00  A 
ATOM     31  CZ  PHE C  20     -11.963   2.295  -9.633  1.00 55.81 LIG 0.00  A 
ATOM     32  CE1 PHE C  20     -12.394   3.605  -9.613  1.00 56.05 LIG 0.00  A 
ATOM     33  CD1 PHE C  20     -11.858   4.504  -8.683  1.00 54.84 LIG 0.01  A 
ENDBRANCH 27 28
ENDBRANCH 17 27
ENDBRANCH 14 17
ENDBRANCH 8 13
ENDBRANCH 5 6
BRANCH 5 34
ATOM     34  CB  LEU C  18     -10.103  12.365 -10.025  1.00 31.46 LIG 0.04  C 
BRANCH 34 35
ATOM     35  CG  LEU C  18      -8.609  12.347  -9.833  1.00 36.62 LIG-0.02  C 
ATOM     36  CD2 LEU C  18      -8.108  10.912  -9.779  1.00 38.91 LIG 0.01  C 
ATOM     37  CD1 LEU C  18      -8.238  13.102  -8.553  1.00 36.98 LIG 0.01  C 
ENDBRANCH 34 35
ENDBRANCH 5 34
ENDBRANCH 3 5
BRANCH 1 38
ATOM     38  CA  PRO C  17     -13.690  11.994 -12.718  1.00 33.71 LIG 0.18  C 
ATOM     39  CB  PRO C  17     -14.572  13.244 -12.637  1.00 36.04 LIG 0.04  C 
ATOM     40  CG  PRO C  17     -16.003  12.751 -12.581  1.00 41.66 LIG 0.02  C 
ATOM     41  CD  PRO C  17     -16.001  11.252 -12.621  1.00 37.74 LIG 0.13  C 
ATOM     42  N   PRO C  17     -14.632  10.929 -13.078  1.00 35.06 LIG-0.34  N 
ATOM     43  C   ARG C  16     -14.181   9.863 -13.767  1.00 37.80 LIG 0.24  C 
ATOM     44 O    ARG C  16     -12.996   9.783 -14.080  1.00 34.25 LIG-0.27  OA
BRANCH 43 45
ATOM     45  CA  ARG C  16     -15.155   8.749 -14.196  1.00 39.10 LIG 0.18  C 
BRANCH 45 46
ATOM     46  CB  ARG C  16     -14.492   7.848 -15.254  1.00 42.59 LIG 0.04  C 
BRANCH 46 47
ATOM     47  CG  ARG C  16     -15.392   6.749 -15.809  1.00 54.51 LIG 0.02  C 
BRANCH 47 48
ATOM     48  CD  ARG C  16     -15.616   6.894 -17.302  1.00 71.70 LIG 0.14  C 
BRANCH 48 49
ATOM     49  NE  ARG C  16     -16.873   6.264 -17.719  1.00 86.72 LIG-0.23  N 
ATOM     50 HE   ARG C  16     -17.523   6.782 -17.941  1.00 86.72 LIG 0.18  HD
ATOM     51  CZ  ARG C  16     -17.082   4.951 -17.779  1.00 98.48 LIG 0.67  C 
ATOM     52  NH2 ARG C  16     -18.261   4.477 -18.162  1.00 86.10 LIG-0.23  N 
ATOM     53  NH1 ARG C  16     -16.117   4.102 -17.449  1.00 81.98 LIG-0.23  N 
ATOM     54 2HH2 ARG C  16     -18.391   3.628 -18.199  1.00 86.10 LIG 0.17  HD
ATOM     55 1HH2 ARG C  16     -18.895   5.019 -18.373  1.00 86.10 LIG 0.17  HD
ATOM     56 1HH1 ARG C  16     -15.351   4.400 -17.194  1.00 81.98 LIG 0.17  HD
ATOM     57 2HH1 ARG C  16     -16.257   3.255 -17.490  1.00 81.98 LIG 0.17  HD
ENDBRANCH 48 49
ENDBRANCH 47 48
ENDBRANCH 46 47
ENDBRANCH 45 46
BRANCH 45 58
ATOM     58  N   ARG C  16     -16.382   9.353 -14.726  1.00 40.87 LIG-0.35  N 
ATOM     59  C   PRO C  15     -17.637   8.942 -14.430  1.00 47.02 LIG 0.25  C 
ATOM     60 O    PRO C  15     -17.880   7.981 -13.699  1.00 46.36 LIG-0.27  OA
ATOM     61 H    ARG C  16     -16.229  10.011 -15.257  1.00 40.87 LIG 0.16  HD
BRANCH 59 62
ATOM     62  CA  PRO C  15     -18.792   9.758 -15.016  1.00 46.56 LIG 0.35  C 
ATOM     63  N   PRO C  15     -19.960   9.840 -14.127  1.00 47.38 LIG 0.32  N 
ATOM     64  CD  PRO C  15     -20.221  11.227 -13.700  1.00 49.28 LIG 0.32  C 
ATOM     65  CG  PRO C  15     -19.558  12.041 -14.768  1.00 53.38 LIG 0.04  C 
ATOM     66  CB  PRO C  15     -18.382  11.228 -15.204  1.00 48.49 LIG 0.05  C 
ENDBRANCH 59 62
ENDBRANCH 45 58
ENDBRANCH 43 45
ENDBRANCH 1 38
TORSDOF 18
ENDMDL
MODEL 2
USER: ADFR SOLUTION from run 5
USER: SCORE 23.662413 LL:  -4.730 LR: -19.940 RR:   0.000 FEB: -14.571
USER: RMSD 12.722171
USER: SEED 153432
USER: STATUS searching
USER: GENES 20
USER: genes 0 Translation |==|  0.41948 0.64620 0.46510
USER: genes 1 Rotation |==|  0.86445 0.47533 0.20981 0.67990
USER: genes 2 Torsion [C]-N--CA-[CB] |==|  0.73911
USER: genes 3 Torsion [N]-CA--C-[N] |==|  0.16986
USER: genes 4 Torsion [N]-CA--C-[O] |==|  0.13228
USER: genes 5 Torsion [C]-N--CA-[C] |==|  0.61289
USER: genes 6 Torsion [N]-CA--C-[N] |==|  0.84623
USER: genes 7 Torsion [N]-CA--C-[O] |==|  0.56394
USER: genes 8 Torsion [N]-CA--CB-[CG] |==|  0.91376
USER: genes 9 Torsion [CA]-CB--CG-[CD1] |==|  0.20787
USER: genes 10 Torsion [N]-CA--CB-[CG] |==|  0.59940
USER: genes 11 Torsion [CA]-CB--CG-[CD2] |==|  0.95984
USER: genes 12 Torsion [O]-C--CA-[CB] |==|  0.99655
USER: genes 13 Torsion [N]-C--CA-[N] |==|  0.45541
USER: genes 14 Torsion [C]-CA--CB-[CG] |==|  0.45559
USER: genes 15 Torsion [CA]-CB--CG-[CD] |==|  0.80048
USER: genes 16 Torsion [CB]-CG--CD-[NE] |==|  0.47376
USER: genes 17 Torsion [CG]-CD--NE-[HE] |==|  0.79698
USER: genes 18 Torsion [C]-CA--N-[C] |==|  0.80409
USER: genes 19 Torsion [N]-C--CA-[CB] |==|  0.74643
ROOT
ATOM      1  C   PRO C  17     -13.062  11.984 -11.449  1.00 34.10 LIG 0.24  C 
ATOM      2 O    PRO C  17     -13.479  11.977 -10.293  1.00 31.91 LIG-0.27  OA
ATOM      3  N   LEU C  18     -11.804  11.730 -11.756  1.00 30.88 LIG-0.35  N 
ATOM      4 H    LEU C  18     -11.496  11.788 -12.556  1.00 30.88 LIG 0.16  HD
ENDROOT
BRANCH 3 5
ATOM      5  CA  LEU C  18     -10.807  11.324 -10.776  1.00 30.78 LIG 0.18  C 
BRANCH 5 6
ATOM      6  C   LEU C  18     -11.390  10.591  -9.580  1.00 33.73 LIG 0.24  C 
ATOM      7  N   PRO C  19     -12.043   9.422  -9.809  1.00 33.17 LIG-0.34  N 
ATOM      8  CA  PRO C  19     -12.572   8.640  -8.670  1.00 33.85 LIG 0.18  C 
ATOM      9  CD  PRO C  19     -12.349   8.774 -11.109  1.00 35.22 LIG 0.13  C 
ATOM     10  CB  PRO C  19     -13.488   7.606  -9.333  1.00 35.69 LIG 0.04  C 
ATOM     11  CG  PRO C  19     -13.022   7.492 -10.732  1.00 39.92 LIG 0.02  C 
ATOM     12 O    LEU C  18     -11.166  11.027  -8.449  1.00 31.40 LIG-0.27  OA
BRANCH 8 13
ATOM     13  C   PRO C  19     -11.494   8.000  -7.782  1.00 39.47 LIG 0.24  C 
ATOM     14  N   PHE C  20     -11.691   6.724  -7.445  1.00 41.20 LIG-0.35  N 
ATOM     15 H    PHE C  20     -12.377   6.278  -7.712  1.00 41.20 LIG 0.16  HD
ATOM     16 O    PRO C  19     -10.531   8.648  -7.384  1.00 36.20 LIG-0.27  OA
BRANCH 14 17
ATOM     17  CA  PHE C  20     -10.793   5.937  -6.602  1.00 43.59 LIG 0.18  C 
BRANCH 17 18
ATOM     18  C   PHE C  20     -10.668   4.514  -7.177  1.00 48.54 LIG 0.24  C 
ATOM     19  N   PRO C  21     -11.784   3.766  -7.390  1.00 46.41 LIG-0.34  N 
ATOM     20  CA  PRO C  21     -11.670   2.417  -7.994  1.00 51.72 LIG 0.17  C 
ATOM     21  CD  PRO C  21     -13.191   4.089  -7.084  1.00 49.19 LIG 0.13  C 
ATOM     22  CB  PRO C  21     -13.128   1.936  -8.084  1.00 52.56 LIG 0.04  C 
ATOM     23  CG  PRO C  21     -13.873   2.755  -7.108  1.00 54.82 LIG 0.02  C 
ATOM     24 O    PHE C  20      -9.542   4.096  -7.457  1.00 48.67 LIG-0.27  OA
BRANCH 20 25
ATOM     25  C   PRO C  21     -11.021   2.408  -9.380  1.00 87.57 LIG 0.22  C 
ATOM     26 O    PRO C  21     -11.239   1.477 -10.153  1.00 58.80 LIG-0.29  OA
ENDBRANCH 20 25
ENDBRANCH 17 18
BRANCH 17 27
ATOM     27  CB  PHE C  20     -11.347   5.911  -5.154  1.00 46.79 LIG 0.07  C 
BRANCH 27 28
ATOM     28  CG  PHE C  20     -12.127   7.123  -4.684  1.00 50.46 LIG-0.06  A 
ATOM     29  CD2 PHE C  20     -11.578   8.012  -3.764  1.00 54.33 LIG 0.01  A 
ATOM     30  CE2 PHE C  20     -12.300   9.132  -3.332  1.00 57.68 LIG 0.00  A 
ATOM     31  CZ  PHE C  20     -13.583   9.352  -3.799  1.00 55.81 LIG 0.00  A 
ATOM     32  CE1 PHE C  20     -14.147   8.474  -4.700  1.00 56.05 LIG 0.00  A 
ATOM     33  CD1 PHE C  20     -13.429   7.349  -5.124  1.00 54.84 LIG 0.01  A 
ENDBRANCH 27 28
ENDBRANCH 17 27
ENDBRANCH 14 17
ENDBRANCH 8 13
ENDBRANCH 5 6
BRANCH 5 34
ATOM     34  CB  LEU C  18     -10.062  12.562 -10.281  1.00 31.46 LIG 0.04  C 
BRANCH 34 35
ATOM     35  CG  LEU C  18      -8.595  12.386  -9.985  1.00 36.62 LIG-0.02  C 
ATOM     36  CD2 LEU C  18      -8.253  10.906  -9.911  1.00 38.91 LIG 0.01  C 
ATOM     37  CD1 LEU C  18      -8.240  13.094  -8.674  1.00 36.98 LIG 0.01  C 
ENDBRANCH 34 35
ENDBRANCH 5 34
ENDBRANCH 3 5
BRANCH 1 38
ATOM     38  CA  PRO C  17     -13.951  12.368 -12.624  1.00 33.71 LIG 0.18  C 
ATOM     39  CB  PRO C  17     -15.385  12.703 -12.199  1.00 36.04 LIG 0.04  C 
ATOM     40  CG  PRO C  17     -16.254  11.573 -12.708  1.00 41.66 LIG 0.02  C 
ATOM     41  CD  PRO C  17     -15.387  10.576 -13.416  1.00 37.74 LIG 0.13  C 
ATOM     42  N   PRO C  17     -14.127  11.320 -13.634  1.00 35.06 LIG-0.34  N 
ATOM     43  C   ARG C  16     -13.200  11.183 -14.601  1.00 37.80 LIG 0.24  C 
ATOM     44 O    ARG C  16     -12.218  11.921 -14.629  1.00 34.25 LIG-0.27  OA
BRANCH 43 45
ATOM     45  CA  ARG C  16     -13.378  10.118 -15.700  1.00 39.10 LIG 0.18  C 
BRANCH 45 46
ATOM     46  CB  ARG C  16     -13.095   8.717 -15.127  1.00 42.59 LIG 0.04  C 
BRANCH 46 47
ATOM     47  CG  ARG C  16     -13.599   7.563 -15.988  1.00 54.51 LIG 0.02  C 
BRANCH 47 48
ATOM     48  CD  ARG C  16     -15.111   7.445 -15.957  1.00 71.70 LIG 0.14  C 
BRANCH 48 49
ATOM     49  NE  ARG C  16     -15.595   6.484 -16.954  1.00 86.72 LIG-0.23  N 
ATOM     50 HE   ARG C  16     -15.569   6.721 -17.780  1.00 86.72 LIG 0.18  HD
ATOM     51  CZ  ARG C  16     -16.070   5.273 -16.673  1.00 98.48 LIG 0.67  C 
ATOM     52  NH2 ARG C  16     -16.494   4.477 -17.647  1.00 86.10 LIG-0.23  N 
ATOM     53  NH1 ARG C  16     -16.134   4.852 -15.416  1.00 81.98 LIG-0.23  N 
ATOM     54 2HH2 ARG C  16     -16.800   3.696 -17.460  1.00 86.10 LIG 0.17  HD
ATOM     55 1HH2 ARG C  16     -16.462   4.743 -18.464  1.00 86.10 LIG 0.17  HD
ATOM     56 1HH1 ARG C  16     -15.868   5.363 -14.777  1.00 81.98 LIG 0.17  HD
ATOM     57 2HH1 ARG C  16     -16.442   4.069 -15.240  1.00 81.98 LIG 0.17  HD
ENDBRANCH 48 49
ENDBRANCH 47 48
ENDBRANCH 46 47
ENDBRANCH 45 46
BRANCH 45 58
ATOM     58  N   ARG C  16     -12.473  10.414 -16.816  1.00 40.87 LIG-0.35  N 
ATOM     59  C   PRO C  15     -12.613  11.453 -17.671  1.00 47.02 LIG 0.25  C 
ATOM     60 O    PRO C  15     -13.549  12.252 -17.619  1.00 46.36 LIG-0.27  OA
ATOM     61 H    ARG C  16     -11.827   9.850 -16.881  1.00 40.87 LIG 0.16  HD
BRANCH 59 62
ATOM     62  CA  PRO C  15     -11.513  11.644 -18.719  1.00 46.56 LIG 0.35  C 
ATOM     63  N   PRO C  15     -11.980  12.314 -19.941  1.00 47.38 LIG 0.32  N 
ATOM     64  CD  PRO C  15     -11.315  13.615 -20.136  1.00 49.28 LIG 0.32  C 
ATOM     65  CG  PRO C  15     -10.054  13.473 -19.339  1.00 53.38 LIG 0.04  C 
ATOM     66  CB  PRO C  15     -10.415  12.583 -18.193  1.00 48.49 LIG 0.05  C 
ENDBRANCH 59 62
ENDBRANCH 45 58
ENDBRANCH 43 45
ENDBRANCH 1 38
TORSDOF 18
ENDMDL
MODEL 3
USER: ADFR SOLUTION from run 5
USER: SCORE 23.821481 LL:  -4.660 LR: -19.891 RR:   0.000 FEB: -14.522
USER: RMSD 12.587630
USER: SEED 153432
USER: STATUS searching
USER: GENES 20
USER: genes 0 Translation |==|  0.42225 0.64738 0.46695
USER: genes 1 Rotation |==|  0.87333 0.47153 0.21626 0.67120
USER: genes 2 Torsion [C]-N--CA-[CB] |==|  0.73940
USER: genes 3 Torsion [N]-CA--C-[N] |==|  0.16852
USER: genes 4 Torsion [N]-CA--C-[O] |==|  0.06724
USER: genes 5 Torsion [C]-N--CA-[C] |==|  0.13562
USER: genes 6 Torsion [N]-CA--C-[N] |==|  0.17222
USER: genes 7 Torsion [N]-CA--C-[O] |==|  0.59678
USER: genes 8 Torsion [N]-CA--CB-[CG] |==|  0.82659
USER: genes 9 Torsion [CA]-CB--CG-[CD1] |==|  0.64615
USER: genes 10 Torsion [N]-CA--CB-[CG] |==|  0.61950
USER: genes 11 Torsion [CA]-CB--CG-[CD2] |==|  0.93649
USER: genes 12 Torsion [O]-C--CA-[CB] |==|  0.00845
USER: genes 13 Torsion [N]-C--CA-[N] |==|  0.44410
USER: genes 14 Torsion [C]-CA--CB-[CG] |==|  0.46325
USER: genes 15 Torsion [CA]-CB--CG-[CD] |==|  0.79915
USER: genes 16 Torsion [CB]-CG--CD-[NE] |==|  0.47471
USER: genes 17 Torsion [CG]-CD--NE-[HE] |==|  0.79635
USER: genes 18 Torsion [C]-CA--N-[C] |==|  0.80409
USER: genes 19 Torsion [N]-C--CA-[CB] |==|  0.74643
ROOT
ATOM      1  C   PRO C  17     -13.012  12.005 -11.390  1.00 34.10 LIG 0.24  C 
ATOM      2 O    PRO C  17     -13.482  11.975 -10.254  1.00 31.91 LIG-0.27  OA
ATOM      3  N   LEU C  18     -11.746  11.733 -11.645  1.00 30.88 LIG-0.35  N 
ATOM      4 H    LEU C  18     -11.400  11.807 -12.428  1.00 30.88 LIG 0.16  HD
ENDROOT
BRANCH 3 5
ATOM      5  CA  LEU C  18     -10.804  11.280 -10.632  1.00 30.78 LIG 0.18  C 
BRANCH 5 6
ATOM      6  C   LEU C  18     -11.456  10.524  -9.487  1.00 33.73 LIG 0.24  C 
ATOM      7  N   PRO C  19     -12.128   9.380  -9.782  1.00 33.17 LIG-0.34  N 
ATOM      8  CA  PRO C  19     -12.725   8.577  -8.694  1.00 33.85 LIG 0.18  C 
ATOM      9  CD  PRO C  19     -12.393   8.784 -11.115  1.00 35.22 LIG 0.13  C 
ATOM     10  CB  PRO C  19     -13.637   7.589  -9.429  1.00 35.69 LIG 0.04  C 
ATOM     11  CG  PRO C  19     -13.113   7.507 -10.809  1.00 39.92 LIG 0.02  C 
ATOM     12 O    LEU C  18     -11.271  10.918  -8.333  1.00 31.40 LIG-0.27  OA
BRANCH 8 13
ATOM     13  C   PRO C  19     -11.703   7.880  -7.782  1.00 39.47 LIG 0.24  C 
ATOM     14  N   PHE C  20     -12.144   6.816  -7.109  1.00 41.20 LIG-0.35  N 
ATOM     15 H    PHE C  20     -12.951   6.528  -7.182  1.00 41.20 LIG 0.16  HD
ATOM     16 O    PRO C  19     -10.560   8.311  -7.663  1.00 36.20 LIG-0.27  OA
BRANCH 14 17
ATOM     17  CA  PHE C  20     -11.337   6.021  -6.184  1.00 43.59 LIG 0.18  C 
BRANCH 17 18
ATOM     18  C   PHE C  20     -10.610   6.960  -5.204  1.00 48.54 LIG 0.24  C 
ATOM     19  N   PRO C  21     -11.327   7.753  -4.364  1.00 46.41 LIG-0.34  N 
ATOM     20  CA  PRO C  21     -10.629   8.617  -3.382  1.00 51.72 LIG 0.17  C 
ATOM     21  CD  PRO C  21     -12.790   7.923  -4.269  1.00 49.19 LIG 0.13  C 
ATOM     22  CB  PRO C  21     -11.777   9.312  -2.630  1.00 52.56 LIG 0.04  C 
ATOM     23  CG  PRO C  21     -12.947   9.214  -3.523  1.00 54.82 LIG 0.02  C 
ATOM     24 O    PHE C  20      -9.377   6.945  -5.191  1.00 48.67 LIG-0.27  OA
BRANCH 20 25
ATOM     25  C   PRO C  21      -9.738   7.852  -2.401  1.00 87.57 LIG 0.22  C 
ATOM     26 O    PRO C  21      -9.627   8.242  -1.240  1.00 58.80 LIG-0.29  OA
ENDBRANCH 20 25
ENDBRANCH 17 18
BRANCH 17 27
ATOM     27  CB  PHE C  20     -10.329   5.166  -6.995  1.00 46.79 LIG 0.07  C 
BRANCH 27 28
ATOM     28  CG  PHE C  20     -10.899   4.137  -7.951  1.00 50.46 LIG-0.06  A 
ATOM     29  CD2 PHE C  20     -11.883   4.487  -8.872  1.00 54.33 LIG 0.01  A 
ATOM     30  CE2 PHE C  20     -12.408   3.534  -9.756  1.00 57.68 LIG 0.00  A 
ATOM     31  CZ  PHE C  20     -11.969   2.224  -9.703  1.00 55.81 LIG 0.00  A 
ATOM     32  CE1 PHE C  20     -11.005   1.858  -8.788  1.00 56.05 LIG 0.00  A 
ATOM     33  CD1 PHE C  20     -10.488   2.808  -7.898  1.00 54.84 LIG 0.01  A 
ENDBRANCH 27 28
ENDBRANCH 17 27
ENDBRANCH 14 17
ENDBRANCH 8 13
ENDBRANCH 5 6
BRANCH 5 34
ATOM     34  CB  LEU C  18     -10.061  12.489 -10.066  1.00 31.46 LIG 0.04  C 
BRANCH 34 35
ATOM     35  CG  LEU C  18      -8.577  12.327  -9.865  1.00 36.62 LIG-0.02  C 
ATOM     36  CD2 LEU C  18      -8.227  10.852  -9.737  1.00 38.91 LIG 0.01  C 
ATOM     37  CD1 LEU C  18      -8.132  13.102  -8.622  1.00 36.98 LIG 0.01  C 
ENDBRANCH 34 35
ENDBRANCH 5 34
ENDBRANCH 3 5
BRANCH 1 38
ATOM     38  CA  PRO C  17     -13.838  12.440 -12.593  1.00 33.71 LIG 0.18  C 
ATOM     39  CB  PRO C  17     -15.251  12.893 -12.211  1.00 36.04 LIG 0.04  C 
ATOM     40  CG  PRO C  17     -16.193  11.826 -12.729  1.00 41.66 LIG 0.02  C 
ATOM     41  CD  PRO C  17     -15.389  10.754 -13.400  1.00 37.74 LIG 0.13  C 
ATOM     42  N   PRO C  17     -14.069  11.394 -13.594  1.00 35.06 LIG-0.34  N 
ATOM     43  C   ARG C  16     -13.131  11.170 -14.534  1.00 37.80 LIG 0.24  C 
ATOM     44 O    ARG C  16     -12.093  11.828 -14.544  1.00 34.25 LIG-0.27  OA
BRANCH 43 45
ATOM     45  CA  ARG C  16     -13.364  10.106 -15.623  1.00 39.10 LIG 0.18  C 
BRANCH 45 46
ATOM     46  CB  ARG C  16     -13.107   8.700 -15.050  1.00 42.59 LIG 0.04  C 
BRANCH 46 47
ATOM     47  CG  ARG C  16     -13.605   7.554 -15.926  1.00 54.51 LIG 0.02  C 
BRANCH 47 48
ATOM     48  CD  ARG C  16     -15.117   7.445 -15.918  1.00 71.70 LIG 0.14  C 
BRANCH 48 49
ATOM     49  NE  ARG C  16     -15.591   6.487 -16.923  1.00 86.72 LIG-0.23  N 
ATOM     50 HE   ARG C  16     -15.555   6.725 -17.748  1.00 86.72 LIG 0.18  HD
ATOM     51  CZ  ARG C  16     -16.073   5.276 -16.650  1.00 98.48 LIG 0.67  C 
ATOM     52  NH2 ARG C  16     -16.487   4.484 -17.631  1.00 86.10 LIG-0.23  N 
ATOM     53  NH1 ARG C  16     -16.154   4.853 -15.395  1.00 81.98 LIG-0.23  N 
ATOM     54 2HH2 ARG C  16     -16.798   3.703 -17.450  1.00 86.10 LIG 0.17  HD
ATOM     55 1HH2 ARG C  16     -16.444   4.751 -18.447  1.00 86.10 LIG 0.17  HD
ATOM     56 1HH1 ARG C  16     -15.895   5.362 -14.752  1.00 81.98 LIG 0.17  HD
ATOM     57 2HH1 ARG C  16     -16.466   4.071 -15.225  1.00 81.98 LIG 0.17  HD
ENDBRANCH 48 49
ENDBRANCH 47 48
ENDBRANCH 46 47
ENDBRANCH 45 46
BRANCH 45 58
ATOM     58  N   ARG C  16     -12.477  10.371 -16.761  1.00 40.87 LIG-0.35  N 
ATOM     59  C   PRO C  15     -12.606  11.411 -17.618  1.00 47.02 LIG 0.25  C 
ATOM     60 O    PRO C  15     -13.519  12.235 -17.548  1.00 46.36 LIG-0.27  OA
ATOM     61 H    ARG C  16     -11.848   9.789 -16.837  1.00 40.87 LIG 0.16  HD
BRANCH 59 62
ATOM     62  CA  PRO C  15     -11.526  11.565 -18.691  1.00 46.56 LIG 0.35  C 
ATOM     63  N   PRO C  15     -12.002  12.243 -19.905  1.00 47.38 LIG 0.32  N 
ATOM     64  CD  PRO C  15     -11.305  13.525 -20.121  1.00 49.28 LIG 0.32  C 
ATOM     65  CG  PRO C  15     -10.031  13.350 -19.352  1.00 53.38 LIG 0.04  C 
ATOM     66  CB  PRO C  15     -10.391  12.476 -18.195  1.00 48.49 LIG 0.05  C 
ENDBRANCH 59 62
ENDBRANCH 45 58
ENDBRANCH 43 45
ENDBRANCH 1 38
TORSDOF 18
ENDMDL
MODEL 4
USER: ADFR SOLUTION from run 79
USER: SCORE 21.789655 LL:  -4.685 LR: -19.885 RR:   0.000 FEB: -14.515
USER: RMSD 12.862830
USER: SEED 78
USER: STATUS no improvement in best in 6 clusters for 5 generations
USER: GENES 20
USER: genes 0 Translation |==|  0.48351 0.57693 0.42780
USER: genes 1 Rotation |==|  0.81669 0.87616 0.59008 0.51001
USER: genes 2 Torsion [C]-N--CA-[CB] |==|  0.34743
USER: genes 3 Torsion [N]-CA--C-[N] |==|  0.15629
USER: genes 4 Torsion [N]-CA--C-[O] |==|  0.14362
USER: genes 5 Torsion [C]-N--CA-[C] |==|  0.60631
USER: genes 6 Torsion [N]-CA--C-[N] |==|  0.86042
USER: genes 7 Torsion [N]-CA--C-[O] |==|  0.61172
USER: genes 8 Torsion [N]-CA--CB-[CG] |==|  0.87549
USER: genes 9 Torsion [CA]-CB--CG-[CD1] |==|  0.74815
USER: genes 10 Torsion [N]-CA--CB-[CG] |==|  0.63316
USER: genes 11 Torsion [CA]-CB--CG-[CD2] |==|  0.95122
USER: genes 12 Torsion [O]-C--CA-[CB] |==|  0.53324
USER: genes 13 Torsion [N]-C--CA-[N] |==|  0.13198
USER: genes 14 Torsion [C]-CA--CB-[CG] |==|  0.41282
USER: genes 15 Torsion [CA]-CB--CG-[CD] |==|  0.48236
USER: genes 16 Torsion [CB]-CG--CD-[NE] |==|  0.61656
USER: genes 17 Torsion [CG]-CD--NE-[HE] |==|  0.77909
USER: genes 18 Torsion [C]-CA--N-[C] |==|  0.61111
USER: genes 19 Torsion [N]-C--CA-[CB] |==|  0.06355
ROOT
ATOM      1  C   PRO C  17     -11.910  10.737 -12.652  1.00 34.10 LIG 0.24  C 
ATOM      2 O    PRO C  17     -11.119   9.854 -12.978  1.00 31.91 LIG-0.27  OA
ATOM      3  N   LEU C  18     -11.893  11.303 -11.461  1.00 30.88 LIG-0.35  N 
ATOM      4 H    LEU C  18     -12.479  11.880 -11.208  1.00 30.88 LIG 0.16  HD
ENDROOT
BRANCH 3 5
ATOM      5  CA  LEU C  18     -10.887  11.015 -10.449  1.00 30.78 LIG 0.18  C 
BRANCH 5 6
ATOM      6  C   LEU C  18     -11.440  10.306  -9.225  1.00 33.73 LIG 0.24  C 
ATOM      7  N   PRO C  19     -12.102   9.134  -9.414  1.00 33.17 LIG-0.34  N 
ATOM      8  CA  PRO C  19     -12.602   8.375  -8.248  1.00 33.85 LIG 0.18  C 
ATOM      9  CD  PRO C  19     -12.443   8.463 -10.693  1.00 35.22 LIG 0.13  C 
ATOM     10  CB  PRO C  19     -13.537   7.331  -8.866  1.00 35.69 LIG 0.04  C 
ATOM     11  CG  PRO C  19     -13.108   7.189 -10.274  1.00 39.92 LIG 0.02  C 
ATOM     12 O    LEU C  18     -11.186  10.762  -8.108  1.00 31.40 LIG-0.27  OA
BRANCH 8 13
ATOM     13  C   PRO C  19     -11.502   7.749  -7.376  1.00 39.47 LIG 0.24  C 
ATOM     14  N   PHE C  20     -11.651   6.456  -7.080  1.00 41.20 LIG-0.35  N 
ATOM     15 H    PHE C  20     -12.318   5.993  -7.363  1.00 41.20 LIG 0.16  HD
ATOM     16 O    PRO C  19     -10.566   8.421  -6.954  1.00 36.20 LIG-0.27  OA
BRANCH 14 17
ATOM     17  CA  PHE C  20     -10.725   5.678  -6.259  1.00 43.59 LIG 0.18  C 
BRANCH 17 18
ATOM     18  C   PHE C  20     -10.590   4.261  -6.844  1.00 48.54 LIG 0.24  C 
ATOM     19  N   PRO C  21     -11.703   3.537  -7.138  1.00 46.41 LIG-0.34  N 
ATOM     20  CA  PRO C  21     -11.576   2.194  -7.753  1.00 51.72 LIG 0.17  C 
ATOM     21  CD  PRO C  21     -13.121   3.883  -6.917  1.00 49.19 LIG 0.13  C 
ATOM     22  CB  PRO C  21     -13.034   1.742  -7.941  1.00 52.56 LIG 0.04  C 
ATOM     23  CG  PRO C  21     -13.824   2.562  -7.003  1.00 54.82 LIG 0.02  C 
ATOM     24 O    PHE C  20      -9.456   3.825  -7.059  1.00 48.67 LIG-0.27  OA
BRANCH 20 25
ATOM     25  C   PRO C  21     -10.841   2.190  -9.094  1.00 87.57 LIG 0.22  C 
ATOM     26 O    PRO C  21     -11.242   1.476 -10.012  1.00 58.80 LIG-0.29  OA
ENDBRANCH 20 25
ENDBRANCH 17 18
BRANCH 17 27
ATOM     27  CB  PHE C  20     -11.251   5.635  -4.801  1.00 46.79 LIG 0.07  C 
BRANCH 27 28
ATOM     28  CG  PHE C  20     -11.753   6.935  -4.203  1.00 50.46 LIG-0.06  A 
ATOM     29  CD2 PHE C  20     -13.073   7.338  -4.379  1.00 54.33 LIG 0.01  A 
ATOM     30  CE2 PHE C  20     -13.535   8.540  -3.824  1.00 57.68 LIG 0.00  A 
ATOM     31  CZ  PHE C  20     -12.671   9.352  -3.114  1.00 55.81 LIG 0.00  A 
ATOM     32  CE1 PHE C  20     -11.356   8.974  -2.942  1.00 56.05 LIG 0.00  A 
ATOM     33  CD1 PHE C  20     -10.892   7.779  -3.505  1.00 54.84 LIG 0.01  A 
ENDBRANCH 27 28
ENDBRANCH 17 27
ENDBRANCH 14 17
ENDBRANCH 8 13
ENDBRANCH 5 6
BRANCH 5 34
ATOM     34  CB  LEU C  18     -10.233  12.322 -10.009  1.00 31.46 LIG 0.04  C 
BRANCH 34 35
ATOM     35  CG  LEU C  18      -8.727  12.333  -9.960  1.00 36.62 LIG-0.02  C 
ATOM     36  CD2 LEU C  18      -8.197  10.907  -9.948  1.00 38.91 LIG 0.01  C 
ATOM     37  CD1 LEU C  18      -8.252  13.101  -8.723  1.00 36.98 LIG 0.01  C 
ENDBRANCH 34 35
ENDBRANCH 5 34
ENDBRANCH 3 5
BRANCH 1 38
ATOM     38  CA  PRO C  17     -13.032  11.194 -13.573  1.00 33.71 LIG 0.18  C 
ATOM     39  CB  PRO C  17     -13.704  12.485 -13.094  1.00 36.04 LIG 0.04  C 
ATOM     40  CG  PRO C  17     -15.088  12.094 -12.619  1.00 41.66 LIG 0.02  C 
ATOM     41  CD  PRO C  17     -15.259  10.615 -12.794  1.00 37.74 LIG 0.13  C 
ATOM     42  N   PRO C  17     -14.148  10.252 -13.701  1.00 35.06 LIG-0.34  N 
ATOM     43  C   ARG C  16     -14.057   9.248 -14.594  1.00 37.80 LIG 0.24  C 
ATOM     44 O    ARG C  16     -13.047   9.120 -15.283  1.00 34.25 LIG-0.27  OA
BRANCH 43 45
ATOM     45  CA  ARG C  16     -15.230   8.267 -14.780  1.00 39.10 LIG 0.18  C 
BRANCH 45 46
ATOM     46  CB  ARG C  16     -14.992   7.391 -16.025  1.00 42.59 LIG 0.04  C 
BRANCH 46 47
ATOM     47  CG  ARG C  16     -15.576   5.986 -15.936  1.00 54.51 LIG 0.02  C 
BRANCH 47 48
ATOM     48  CD  ARG C  16     -15.445   5.228 -17.243  1.00 71.70 LIG 0.14  C 
BRANCH 48 49
ATOM     49  NE  ARG C  16     -16.666   4.477 -17.553  1.00 86.72 LIG-0.23  N 
ATOM     50 HE   ARG C  16     -16.785   3.727 -17.150  1.00 86.72 LIG 0.18  HD
ATOM     51  CZ  ARG C  16     -17.603   4.872 -18.412  1.00 98.48 LIG 0.67  C 
ATOM     52  NH2 ARG C  16     -18.671   4.115 -18.633  1.00 86.10 LIG-0.23  N 
ATOM     53  NH1 ARG C  16     -17.475   6.020 -19.065  1.00 81.98 LIG-0.23  N 
ATOM     54 2HH2 ARG C  16     -19.273   4.374 -19.189  1.00 86.10 LIG 0.17  HD
ATOM     55 1HH2 ARG C  16     -18.761   3.367 -18.220  1.00 86.10 LIG 0.17  HD
ATOM     56 1HH1 ARG C  16     -16.783   6.515 -18.933  1.00 81.98 LIG 0.17  HD
ATOM     57 2HH1 ARG C  16     -18.083   6.270 -19.618  1.00 81.98 LIG 0.17  HD
ENDBRANCH 48 49
ENDBRANCH 47 48
ENDBRANCH 46 47
ENDBRANCH 45 46
BRANCH 45 58
ATOM     58  N   ARG C  16     -16.480   9.022 -14.911  1.00 40.87 LIG-0.35  N 
ATOM     59  C   PRO C  15     -17.662   8.666 -14.355  1.00 47.02 LIG 0.25  C 
ATOM     60 O    PRO C  15     -17.817   7.635 -13.699  1.00 46.36 LIG-0.27  OA
ATOM     61 H    ARG C  16     -16.393   9.733 -15.386  1.00 40.87 LIG 0.16  HD
BRANCH 59 62
ATOM     62  CA  PRO C  15     -18.834   9.634 -14.533  1.00 46.56 LIG 0.35  C 
ATOM     63  N   PRO C  15     -18.976  10.590 -13.426  1.00 47.38 LIG 0.32  N 
ATOM     64  CD  PRO C  15     -18.770  11.979 -13.877  1.00 49.28 LIG 0.32  C 
ATOM     65  CG  PRO C  15     -19.056  11.903 -15.346  1.00 53.38 LIG 0.04  C 
ATOM     66  CB  PRO C  15     -18.615  10.536 -15.759  1.00 48.49 LIG 0.05  C 
ENDBRANCH 59 62
ENDBRANCH 45 58
ENDBRANCH 43 45
ENDBRANCH 1 38
TORSDOF 18
ENDMDL
MODEL 5
USER: ADFR SOLUTION from run 179
USER: SCORE 23.089889 LL:  -4.527 LR: -19.374 RR:   0.000 FEB: -14.005
USER: RMSD 2.312393
USER: SEED 178
USER: STATUS no improvement in best in 7 clusters for 5 generations
USER: GENES 20
USER: genes 0 Translation |==|  0.44316 0.42673 0.50923
USER: genes 1 Rotation |==|  0.54401 0.34742 0.58415 0.96659
USER: genes 2 Torsion [C]-N--CA-[CB] |==|  0.49493
USER: genes 3 Torsion [N]-CA--C-[N] |==|  0.40956
USER: genes 4 Torsion [N]-CA--C-[O] |==|  0.88056
USER: genes 5 Torsion [C]-N--CA-[C] |==|  0.79053
USER: genes 6 Torsion [N]-CA--C-[N] |==|  0.35491
USER: genes 7 Torsion [N]-CA--C-[O] |==|  0.88609
USER: genes 8 Torsion [N]-CA--CB-[CG] |==|  0.56973
USER: genes 9 Torsion [CA]-CB--CG-[CD1] |==|  0.95100
USER: genes 10 Torsion [N]-CA--CB-[CG] |==|  0.72761
USER: genes 11 Torsion [CA]-CB--CG-[CD2] |==|  0.37987
USER: genes 12 Torsion [O]-C--CA-[CB] |==|  0.10826
USER: genes 13 Torsion [N]-C--CA-[N] |==|  0.42996
USER: genes 14 Torsion [C]-CA--CB-[CG] |==|  0.36161
USER: genes 15 Torsion [CA]-CB--CG-[CD] |==|  0.80297
USER: genes 16 Torsion [CB]-CG--CD-[NE] |==|  0.71547
USER: genes 17 Torsion [CG]-CD--NE-[HE] |==|  0.95766
USER: genes 18 Torsion [C]-CA--N-[C] |==|  0.82094
USER: genes 19 Torsion [N]-C--CA-[CB] |==|  0.57624
ROOT
ATOM      1  C   PRO C  17     -12.636   8.033 -10.026  1.00 34.10 LIG 0.24  C 
ATOM      2 O    PRO C  17     -13.799   8.173 -10.400  1.00 31.91 LIG-0.27  OA
ATOM      3  N   LEU C  18     -11.687   8.906 -10.308  1.00 30.88 LIG-0.35  N 
ATOM      4 H    LEU C  18     -10.863   8.786 -10.097  1.00 30.88 LIG 0.16  HD
ENDROOT
BRANCH 3 5
ATOM      5  CA  LEU C  18     -11.934  10.162 -11.001  1.00 30.78 LIG 0.18  C 
BRANCH 5 6
ATOM      6  C   LEU C  18     -12.520   9.986 -12.391  1.00 33.73 LIG 0.24  C 
ATOM      7  N   PRO C  19     -13.378  10.938 -12.845  1.00 33.17 LIG-0.34  N 
ATOM      8  CA  PRO C  19     -13.924  10.843 -14.215  1.00 33.85 LIG 0.18  C 
ATOM      9  CD  PRO C  19     -13.903  12.125 -12.124  1.00 35.22 LIG 0.13  C 
ATOM     10  CB  PRO C  19     -15.056  11.875 -14.228  1.00 35.69 LIG 0.04  C 
ATOM     11  CG  PRO C  19     -14.744  12.830 -13.143  1.00 39.92 LIG 0.02  C 
ATOM     12 O    LEU C  18     -12.126   9.049 -13.088  1.00 31.40 LIG-0.27  OA
BRANCH 8 13
ATOM     13  C   PRO C  19     -12.893  11.074 -15.330  1.00 39.47 LIG 0.24  C 
ATOM     14  N   PHE C  20     -12.929  10.217 -16.352  1.00 41.20 LIG-0.35  N 
ATOM     15 H    PHE C  20     -13.499   9.574 -16.394  1.00 41.20 LIG 0.16  HD
ATOM     16 O    PRO C  19     -12.066  11.977 -15.253  1.00 36.20 LIG-0.27  OA
BRANCH 14 17
ATOM     17  CA  PHE C  20     -12.031  10.257 -17.505  1.00 43.59 LIG 0.18  C 
BRANCH 17 18
ATOM     18  C   PHE C  20     -12.450  11.405 -18.441  1.00 48.54 LIG 0.24  C 
ATOM     19  N   PRO C  21     -11.532  12.324 -18.843  1.00 46.41 LIG-0.34  N 
ATOM     20  CA  PRO C  21     -11.920  13.399 -19.787  1.00 51.72 LIG 0.17  C 
ATOM     21  CD  PRO C  21     -10.113  12.450 -18.457  1.00 49.19 LIG 0.13  C 
ATOM     22  CB  PRO C  21     -10.616  14.186 -19.997  1.00 52.56 LIG 0.04  C 
ATOM     23  CG  PRO C  21      -9.767  13.859 -18.836  1.00 54.82 LIG 0.02  C 
ATOM     24 O    PHE C  20     -13.621  11.444 -18.826  1.00 48.67 LIG-0.27  OA
BRANCH 20 25
ATOM     25  C   PRO C  21     -12.455  12.889 -21.126  1.00 87.57 LIG 0.22  C 
ATOM     26 O    PRO C  21     -11.916  11.932 -21.678  1.00 58.80 LIG-0.29  OA
ENDBRANCH 20 25
ENDBRANCH 17 18
BRANCH 17 27
ATOM     27  CB  PHE C  20     -12.081   8.890 -18.236  1.00 46.79 LIG 0.07  C 
BRANCH 27 28
ATOM     28  CG  PHE C  20     -10.869   8.493 -19.056  1.00 50.46 LIG-0.06  A 
ATOM     29  CD2 PHE C  20     -10.643   7.162 -19.395  1.00 54.33 LIG 0.01  A 
ATOM     30  CE2 PHE C  20      -9.522   6.797 -20.153  1.00 57.68 LIG 0.00  A 
ATOM     31  CZ  PHE C  20      -8.613   7.759 -20.552  1.00 55.81 LIG 0.00  A 
ATOM     32  CE1 PHE C  20      -8.815   9.080 -20.214  1.00 56.05 LIG 0.00  A 
ATOM     33  CD1 PHE C  20      -9.929   9.443 -19.447  1.00 54.84 LIG 0.01  A 
ENDBRANCH 27 28
ENDBRANCH 17 27
ENDBRANCH 14 17
ENDBRANCH 8 13
ENDBRANCH 5 6
BRANCH 5 34
ATOM     34  CB  LEU C  18     -10.622  10.935 -11.113  1.00 31.46 LIG 0.04  C 
BRANCH 34 35
ATOM     35  CG  LEU C  18     -10.389  12.010 -10.083  1.00 36.62 LIG-0.02  C 
ATOM     36  CD2 LEU C  18      -8.955  11.947  -9.581  1.00 38.91 LIG 0.01  C 
ATOM     37  CD1 LEU C  18     -11.379  11.847  -8.927  1.00 36.98 LIG 0.01  C 
ENDBRANCH 34 35
ENDBRANCH 5 34
ENDBRANCH 3 5
BRANCH 1 38
ATOM     38  CA  PRO C  17     -12.174   6.793  -9.273  1.00 33.71 LIG 0.18  C 
ATOM     39  CB  PRO C  17     -12.810   5.505  -9.805  1.00 36.04 LIG 0.04  C 
ATOM     40  CG  PRO C  17     -13.779   5.037  -8.739  1.00 41.66 LIG 0.02  C 
ATOM     41  CD  PRO C  17     -13.744   6.005  -7.595  1.00 37.74 LIG 0.13  C 
ATOM     42  N   PRO C  17     -12.508   6.779  -7.846  1.00 35.06 LIG-0.34  N 
ATOM     43  C   ARG C  16     -11.690   7.402  -6.977  1.00 37.80 LIG 0.24  C 
ATOM     44 O    ARG C  16     -10.684   7.982  -7.379  1.00 34.25 LIG-0.27  OA
BRANCH 43 45
ATOM     45  CA  ARG C  16     -11.992   7.368  -5.466  1.00 39.10 LIG 0.18  C 
BRANCH 45 46
ATOM     46  CB  ARG C  16     -13.009   8.468  -5.108  1.00 42.59 LIG 0.04  C 
BRANCH 46 47
ATOM     47  CG  ARG C  16     -14.195   7.992  -4.277  1.00 54.51 LIG 0.02  C 
BRANCH 47 48
ATOM     48  CD  ARG C  16     -15.145   7.126  -5.081  1.00 71.70 LIG 0.14  C 
BRANCH 48 49
ATOM     49  NE  ARG C  16     -16.340   7.874  -5.487  1.00 86.72 LIG-0.23  N 
ATOM     50 HE   ARG C  16     -16.497   8.620  -5.089  1.00 86.72 LIG 0.18  HD
ATOM     51  CZ  ARG C  16     -17.198   7.483  -6.426  1.00 98.48 LIG 0.67  C 
ATOM     52  NH2 ARG C  16     -18.258   8.227  -6.717  1.00 86.10 LIG-0.23  N 
ATOM     53  NH1 ARG C  16     -17.009   6.341  -7.074  1.00 81.98 LIG-0.23  N 
ATOM     54 2HH2 ARG C  16     -18.810   7.970  -7.324  1.00 86.10 LIG 0.17  HD
ATOM     55 1HH2 ARG C  16     -18.393   8.966  -6.298  1.00 86.10 LIG 0.17  HD
ATOM     56 1HH1 ARG C  16     -16.329   5.848  -6.889  1.00 81.98 LIG 0.17  HD
ATOM     57 2HH1 ARG C  16     -17.567   6.093  -7.680  1.00 81.98 LIG 0.17  HD
ENDBRANCH 48 49
ENDBRANCH 47 48
ENDBRANCH 46 47
ENDBRANCH 45 46
BRANCH 45 58
ATOM     58  N   ARG C  16     -10.745   7.552  -4.716  1.00 40.87 LIG-0.35  N 
ATOM     59  C   PRO C  15      -9.702   6.689  -4.725  1.00 47.02 LIG 0.25  C 
ATOM     60 O    PRO C  15      -9.708   5.628  -5.350  1.00 46.36 LIG-0.27  OA
ATOM     61 H    ARG C  16     -10.736   8.278  -4.256  1.00 40.87 LIG 0.16  HD
BRANCH 59 62
ATOM     62  CA  PRO C  15      -8.452   7.102  -3.945  1.00 46.56 LIG 0.35  C 
ATOM     63  N   PRO C  15      -8.446   6.624  -2.555  1.00 47.38 LIG 0.32  N 
ATOM     64  CD  PRO C  15      -7.341   5.679  -2.310  1.00 49.28 LIG 0.32  C 
ATOM     65  CG  PRO C  15      -6.360   6.018  -3.390  1.00 53.38 LIG 0.04  C 
ATOM     66  CB  PRO C  15      -7.193   6.458  -4.550  1.00 48.49 LIG 0.05  C 
ENDBRANCH 59 62
ENDBRANCH 45 58
ENDBRANCH 43 45
ENDBRANCH 1 38
TORSDOF 18
ENDMDL
MODEL 6
USER: ADFR SOLUTION from run 195
USER: SCORE 22.359923 LL:  -3.728 LR: -19.353 RR:   0.000 FEB: -13.983
USER: RMSD 13.596676
USER: SEED 194
USER: STATUS no improvement in best in 12 clusters for 5 generations
USER: GENES 20
USER: genes 0 Translation |==|  0.45442 0.61012 0.34160
USER: genes 1 Rotation |==|  0.62450 0.95119 0.64014 0.60624
USER: genes 2 Torsion [C]-N--CA-[CB] |==|  0.50556
USER: genes 3 Torsion [N]-CA--C-[N] |==|  0.46561
USER: genes 4 Torsion [N]-CA--C-[O] |==|  0.99626
USER: genes 5 Torsion [C]-N--CA-[C] |==|  0.79774
USER: genes 6 Torsion [N]-CA--C-[N] |==|  0.39895
USER: genes 7 Torsion [N]-CA--C-[O] |==|  0.27262
USER: genes 8 Torsion [N]-CA--CB-[CG] |==|  0.66404
USER: genes 9 Torsion [CA]-CB--CG-[CD1] |==|  0.50310
USER: genes 10 Torsion [N]-CA--CB-[CG] |==|  0.83922
USER: genes 11 Torsion [CA]-CB--CG-[CD2] |==|  0.71890
USER: genes 12 Torsion [O]-C--CA-[CB] |==|  0.31259
USER: genes 13 Torsion [N]-C--CA-[N] |==|  0.08292
USER: genes 14 Torsion [C]-CA--CB-[CG] |==|  0.22788
USER: genes 15 Torsion [CA]-CB--CG-[CD] |==|  0.50905
USER: genes 16 Torsion [CB]-CG--CD-[NE] |==|  0.58334
USER: genes 17 Torsion [CG]-CD--NE-[HE] |==|  0.99422
USER: genes 18 Torsion [C]-CA--N-[C] |==|  0.65808
USER: genes 19 Torsion [N]-C--CA-[CB] |==|  0.70338
ROOT
ATOM      1  C   PRO C  17     -12.434  11.334 -15.432  1.00 34.10 LIG 0.24  C 
ATOM      2 O    PRO C  17     -11.265  11.228 -15.065  1.00 31.91 LIG-0.27  OA
ATOM      3  N   LEU C  18     -13.405  11.707 -14.620  1.00 30.88 LIG-0.35  N 
ATOM      4 H    LEU C  18     -14.231  11.729 -14.857  1.00 30.88 LIG 0.16  HD
ENDROOT
BRANCH 3 5
ATOM      5  CA  LEU C  18     -13.183  12.120 -13.242  1.00 30.78 LIG 0.18  C 
BRANCH 5 6
ATOM      6  C   LEU C  18     -12.462  11.080 -12.402  1.00 33.73 LIG 0.24  C 
ATOM      7  N   PRO C  19     -11.983  11.463 -11.190  1.00 33.17 LIG-0.34  N 
ATOM      8  CA  PRO C  19     -11.331  10.471 -10.310  1.00 33.85 LIG 0.18  C 
ATOM      9  CD  PRO C  19     -11.994  12.817 -10.579  1.00 35.22 LIG 0.13  C 
ATOM     10  CB  PRO C  19     -10.663  11.326  -9.228  1.00 35.69 LIG 0.04  C 
ATOM     11  CG  PRO C  19     -11.393  12.612  -9.223  1.00 39.92 LIG 0.02  C 
ATOM     12 O    LEU C  18     -12.425   9.915 -12.803  1.00 31.40 LIG-0.27  OA
BRANCH 8 13
ATOM     13  C   PRO C  19     -12.280   9.411  -9.731  1.00 39.47 LIG 0.24  C 
ATOM     14  N   PHE C  20     -11.715   8.459  -8.985  1.00 41.20 LIG-0.35  N 
ATOM     15 H    PHE C  20     -10.870   8.439  -8.829  1.00 41.20 LIG 0.16  HD
ATOM     16 O    PRO C  19     -13.482   9.431  -9.978  1.00 36.20 LIG-0.27  OA
BRANCH 14 17
ATOM     17  CA  PHE C  20     -12.438   7.357  -8.353  1.00 43.59 LIG 0.18  C 
BRANCH 17 18
ATOM     18  C   PHE C  20     -13.250   7.895  -7.161  1.00 48.54 LIG 0.24  C 
ATOM     19  N   PRO C  21     -14.474   7.373  -6.880  1.00 46.41 LIG-0.34  N 
ATOM     20  CA  PRO C  21     -15.233   7.852  -5.700  1.00 51.72 LIG 0.17  C 
ATOM     21  CD  PRO C  21     -15.237   6.346  -7.615  1.00 49.19 LIG 0.13  C 
ATOM     22  CB  PRO C  21     -16.518   7.008  -5.729  1.00 52.56 LIG 0.04  C 
ATOM     23  CG  PRO C  21     -16.639   6.524  -7.117  1.00 54.82 LIG 0.02  C 
ATOM     24 O    PHE C  20     -12.746   8.781  -6.467  1.00 48.67 LIG-0.27  OA
BRANCH 20 25
ATOM     25  C   PRO C  21     -14.502   7.661  -4.369  1.00 87.57 LIG 0.22  C 
ATOM     26 O    PRO C  21     -13.887   8.600  -3.867  1.00 58.80 LIG-0.29  OA
ENDBRANCH 20 25
ENDBRANCH 17 18
BRANCH 17 27
ATOM     27  CB  PHE C  20     -11.423   6.277  -7.900  1.00 46.79 LIG 0.07  C 
BRANCH 27 28
ATOM     28  CG  PHE C  20     -11.585   4.883  -8.474  1.00 50.46 LIG-0.06  A 
ATOM     29  CD2 PHE C  20     -12.625   4.589  -9.352  1.00 54.33 LIG 0.01  A 
ATOM     30  CE2 PHE C  20     -12.772   3.301  -9.882  1.00 57.68 LIG 0.00  A 
ATOM     31  CZ  PHE C  20     -11.896   2.296  -9.515  1.00 55.81 LIG 0.00  A 
ATOM     32  CE1 PHE C  20     -10.869   2.566  -8.636  1.00 56.05 LIG 0.00  A 
ATOM     33  CD1 PHE C  20     -10.728   3.852  -8.099  1.00 54.84 LIG 0.01  A 
ENDBRANCH 27 28
ENDBRANCH 17 27
ENDBRANCH 14 17
ENDBRANCH 8 13
ENDBRANCH 5 6
BRANCH 5 34
ATOM     34  CB  LEU C  18     -14.530  12.432 -12.593  1.00 31.46 LIG 0.04  C 
BRANCH 34 35
ATOM     35  CG  LEU C  18     -15.366  13.492 -13.263  1.00 36.62 LIG-0.02  C 
ATOM     36  CD2 LEU C  18     -15.241  14.807 -12.509  1.00 38.91 LIG 0.01  C 
ATOM     37  CD1 LEU C  18     -16.827  13.038 -13.330  1.00 36.98 LIG 0.01  C 
ENDBRANCH 34 35
ENDBRANCH 5 34
ENDBRANCH 3 5
BRANCH 1 38
ATOM     38  CA  PRO C  17     -12.873  10.963 -16.842  1.00 33.71 LIG 0.18  C 
ATOM     39  CB  PRO C  17     -13.788   9.735 -16.875  1.00 36.04 LIG 0.04  C 
ATOM     40  CG  PRO C  17     -12.978   8.617 -17.497  1.00 41.66 LIG 0.02  C 
ATOM     41  CD  PRO C  17     -11.612   9.137 -17.830  1.00 37.74 LIG 0.13  C 
ATOM     42  N   PRO C  17     -11.782  10.605 -17.754  1.00 35.06 LIG-0.34  N 
ATOM     43  C   ARG C  16     -11.122  11.584 -18.401  1.00 37.80 LIG 0.24  C 
ATOM     44 O    ARG C  16     -11.426  12.761 -18.221  1.00 34.25 LIG-0.27  OA
BRANCH 43 45
ATOM     45  CA  ARG C  16      -9.999  11.236 -19.396  1.00 39.10 LIG 0.18  C 
BRANCH 45 46
ATOM     46  CB  ARG C  16      -9.895  12.329 -20.476  1.00 42.59 LIG 0.04  C 
BRANCH 46 47
ATOM     47  CG  ARG C  16      -9.094  13.559 -20.061  1.00 54.51 LIG 0.02  C 
BRANCH 47 48
ATOM     48  CD  ARG C  16      -9.094  14.630 -21.135  1.00 71.70 LIG 0.14  C 
BRANCH 48 49
ATOM     49  NE  ARG C  16      -7.862  15.425 -21.100  1.00 86.72 LIG-0.23  N 
ATOM     50 HE   ARG C  16      -7.288  15.242 -20.487  1.00 86.72 LIG 0.18  HD
ATOM     51  CZ  ARG C  16      -7.568  16.407 -21.949  1.00 98.48 LIG 0.67  C 
ATOM     52  NH2 ARG C  16      -6.427  17.076 -21.831  1.00 86.10 LIG-0.23  N 
ATOM     53  NH1 ARG C  16      -8.415  16.734 -22.917  1.00 81.98 LIG-0.23  N 
ATOM     54 2HH2 ARG C  16      -6.242  17.709 -22.381  1.00 86.10 LIG 0.17  HD
ATOM     55 1HH2 ARG C  16      -5.874  16.875 -21.203  1.00 86.10 LIG 0.17  HD
ATOM     56 1HH1 ARG C  16      -9.159  16.311 -22.998  1.00 81.98 LIG 0.17  HD
ATOM     57 2HH1 ARG C  16      -8.219  17.369 -23.462  1.00 81.98 LIG 0.17  HD
ENDBRANCH 48 49
ENDBRANCH 47 48
ENDBRANCH 46 47
ENDBRANCH 45 46
BRANCH 45 58
ATOM     58  N   ARG C  16     -10.277   9.931 -20.006  1.00 40.87 LIG-0.35  N 
ATOM     59  C   PRO C  15      -9.440   8.867 -19.974  1.00 47.02 LIG 0.25  C 
ATOM     60 O    PRO C  15      -8.327   8.898 -19.448  1.00 46.36 LIG-0.27  OA
ATOM     61 H    ARG C  16     -11.041   9.901 -20.399  1.00 40.87 LIG 0.16  HD
BRANCH 59 62
ATOM     62  CA  PRO C  15      -9.949   7.564 -20.594  1.00 46.56 LIG 0.35  C 
ATOM     63  N   PRO C  15      -8.939   6.870 -21.406  1.00 47.38 LIG 0.32  N 
ATOM     64  CD  PRO C  15      -8.592   5.555 -20.834  1.00 49.28 LIG 0.32  C 
ATOM     65  CG  PRO C  15      -9.790   5.223 -19.998  1.00 53.38 LIG 0.04  C 
ATOM     66  CB  PRO C  15     -10.296   6.539 -19.501  1.00 48.49 LIG 0.05  C 
ENDBRANCH 59 62
ENDBRANCH 45 58
ENDBRANCH 43 45
ENDBRANCH 1 38
TORSDOF 18
ENDMDL
MODEL 7
USER: ADFR SOLUTION from run 113
USER: SCORE 22.462982 LL:  -4.124 LR: -19.298 RR:   0.000 FEB: -13.929
USER: RMSD 3.405669
USER: SEED 112
USER: STATUS no improvement in best in 7 clusters for 5 generations
USER: GENES 20
USER: genes 0 Translation |==|  0.44794 0.43487 0.51326
USER: genes 1 Rotation |==|  0.53564 0.33471 0.59582 0.96068
USER: genes 2 Torsion [C]-N--CA-[CB] |==|  0.50565
USER: genes 3 Torsion [N]-CA--C-[N] |==|  0.40192
USER: genes 4 Torsion [N]-CA--C-[O] |==|  0.89711
USER: genes 5 Torsion [C]-N--CA-[C] |==|  0.78544
USER: genes 6 Torsion [N]-CA--C-[N] |==|  0.36023
USER: genes 7 Torsion [N]-CA--C-[O] |==|  0.84878
USER: genes 8 Torsion [N]-CA--CB-[CG] |==|  0.58127
USER: genes 9 Torsion [CA]-CB--CG-[CD1] |==|  0.45054
USER: genes 10 Torsion [N]-CA--CB-[CG] |==|  0.84933
USER: genes 11 Torsion [CA]-CB--CG-[CD2] |==|  0.74435
USER: genes 12 Torsion [O]-C--CA-[CB] |==|  0.11461
USER: genes 13 Torsion [N]-C--CA-[N] |==|  0.92685
USER: genes 14 Torsion [C]-CA--CB-[CG] |==|  0.18217
USER: genes 15 Torsion [CA]-CB--CG-[CD] |==|  0.32614
USER: genes 16 Torsion [CB]-CG--CD-[NE] |==|  0.93348
USER: genes 17 Torsion [CG]-CD--NE-[HE] |==|  0.26480
USER: genes 18 Torsion [C]-CA--N-[C] |==|  0.68333
USER: genes 19 Torsion [N]-C--CA-[CB] |==|  0.12103
ROOT
ATOM      1  C   PRO C  17     -12.550   8.180  -9.896  1.00 34.10 LIG 0.24  C 
ATOM      2 O    PRO C  17     -13.690   8.267 -10.348  1.00 31.91 LIG-0.27  OA
ATOM      3  N   LEU C  18     -11.613   9.075 -10.148  1.00 30.88 LIG-0.35  N 
ATOM      4 H    LEU C  18     -10.801   8.989  -9.881  1.00 30.88 LIG 0.16  HD
ENDROOT
BRANCH 3 5
ATOM      5  CA  LEU C  18     -11.854  10.297 -10.900  1.00 30.78 LIG 0.18  C 
BRANCH 5 6
ATOM      6  C   LEU C  18     -12.431  10.057 -12.285  1.00 33.73 LIG 0.24  C 
ATOM      7  N   PRO C  19     -13.328  10.958 -12.764  1.00 33.17 LIG-0.34  N 
ATOM      8  CA  PRO C  19     -13.868  10.801 -14.132  1.00 33.85 LIG 0.18  C 
ATOM      9  CD  PRO C  19     -13.905  12.140 -12.077  1.00 35.22 LIG 0.13  C 
ATOM     10  CB  PRO C  19     -15.044  11.783 -14.173  1.00 35.69 LIG 0.04  C 
ATOM     11  CG  PRO C  19     -14.774  12.780 -13.114  1.00 39.92 LIG 0.02  C 
ATOM     12 O    LEU C  18     -11.995   9.119 -12.956  1.00 31.40 LIG-0.27  OA
BRANCH 8 13
ATOM     13  C   PRO C  19     -12.847  11.046 -15.252  1.00 39.47 LIG 0.24  C 
ATOM     14  N   PHE C  20     -12.927  10.235 -16.309  1.00 41.20 LIG-0.35  N 
ATOM     15 H    PHE C  20     -13.518   9.613 -16.367  1.00 41.20 LIG 0.16  HD
ATOM     16 O    PRO C  19     -11.990  11.918 -15.152  1.00 36.20 LIG-0.27  OA
BRANCH 14 17
ATOM     17  CA  PHE C  20     -12.045  10.294 -17.473  1.00 43.59 LIG 0.18  C 
BRANCH 17 18
ATOM     18  C   PHE C  20     -12.469  11.466 -18.377  1.00 48.54 LIG 0.24  C 
ATOM     19  N   PRO C  21     -11.543  12.365 -18.804  1.00 46.41 LIG-0.34  N 
ATOM     20  CA  PRO C  21     -11.939  13.463 -19.718  1.00 51.72 LIG 0.17  C 
ATOM     21  CD  PRO C  21     -10.107  12.448 -18.473  1.00 49.19 LIG 0.13  C 
ATOM     22  CB  PRO C  21     -10.623  14.218 -19.970  1.00 52.56 LIG 0.04  C 
ATOM     23  CG  PRO C  21      -9.738  13.852 -18.848  1.00 54.82 LIG 0.02  C 
ATOM     24 O    PHE C  20     -13.652  11.541 -18.715  1.00 48.67 LIG-0.27  OA
BRANCH 20 25
ATOM     25  C   PRO C  21     -12.540  12.986 -21.041  1.00 87.57 LIG 0.22  C 
ATOM     26 O    PRO C  21     -11.918  12.195 -21.748  1.00 58.80 LIG-0.29  OA
ENDBRANCH 20 25
ENDBRANCH 17 18
BRANCH 17 27
ATOM     27  CB  PHE C  20     -12.115   8.945 -18.234  1.00 46.79 LIG 0.07  C 
BRANCH 27 28
ATOM     28  CG  PHE C  20     -10.882   8.512 -19.002  1.00 50.46 LIG-0.06  A 
ATOM     29  CD2 PHE C  20      -9.911   9.438 -19.373  1.00 54.33 LIG 0.01  A 
ATOM     30  CE2 PHE C  20      -8.771   9.035 -20.082  1.00 57.68 LIG 0.00  A 
ATOM     31  CZ  PHE C  20      -8.613   7.710 -20.444  1.00 55.81 LIG 0.00  A 
ATOM     32  CE1 PHE C  20      -9.572   6.782 -20.096  1.00 56.05 LIG 0.00  A 
ATOM     33  CD1 PHE C  20     -10.715   7.187 -19.397  1.00 54.84 LIG 0.01  A 
ENDBRANCH 27 28
ENDBRANCH 17 27
ENDBRANCH 14 17
ENDBRANCH 8 13
ENDBRANCH 5 6
BRANCH 5 34
ATOM     34  CB  LEU C  18     -10.540  11.064 -11.039  1.00 31.46 LIG 0.04  C 
BRANCH 34 35
ATOM     35  CG  LEU C  18      -9.806  11.368  -9.759  1.00 36.62 LIG-0.02  C 
ATOM     36  CD2 LEU C  18     -10.225  12.731  -9.230  1.00 38.91 LIG 0.01  C 
ATOM     37  CD1 LEU C  18      -8.294  11.318 -10.000  1.00 36.98 LIG 0.01  C 
ENDBRANCH 34 35
ENDBRANCH 5 34
ENDBRANCH 3 5
BRANCH 1 38
ATOM     38  CA  PRO C  17     -12.099   6.982  -9.071  1.00 33.71 LIG 0.18  C 
ATOM     39  CB  PRO C  17     -12.612   5.650  -9.629  1.00 36.04 LIG 0.04  C 
ATOM     40  CG  PRO C  17     -13.653   5.152  -8.648  1.00 41.66 LIG 0.02  C 
ATOM     41  CD  PRO C  17     -13.781   6.144  -7.531  1.00 37.74 LIG 0.13  C 
ATOM     42  N   PRO C  17     -12.568   6.978  -7.682  1.00 35.06 LIG-0.34  N 
ATOM     43  C   ARG C  16     -11.872   7.663  -6.755  1.00 37.80 LIG 0.24  C 
ATOM     44 O    ARG C  16     -10.863   8.288  -7.074  1.00 34.25 LIG-0.27  OA
BRANCH 43 45
ATOM     45  CA  ARG C  16     -12.316   7.643  -5.280  1.00 39.10 LIG 0.18  C 
BRANCH 45 46
ATOM     46  CB  ARG C  16     -11.537   6.561  -4.510  1.00 42.59 LIG 0.04  C 
BRANCH 46 47
ATOM     47  CG  ARG C  16     -10.039   6.819  -4.390  1.00 54.51 LIG 0.02  C 
BRANCH 47 48
ATOM     48  CD  ARG C  16      -9.601   6.985  -2.948  1.00 71.70 LIG 0.14  C 
BRANCH 48 49
ATOM     49  NE  ARG C  16     -10.714   7.416  -2.095  1.00 86.72 LIG-0.23  N 
ATOM     50 HE   ARG C  16     -11.150   6.808  -1.671  1.00 86.72 LIG 0.18  HD
ATOM     51  CZ  ARG C  16     -11.099   8.680  -1.931  1.00 98.48 LIG 0.67  C 
ATOM     52  NH2 ARG C  16     -12.127   8.970  -1.143  1.00 86.10 LIG-0.23  N 
ATOM     53  NH1 ARG C  16     -10.465   9.662  -2.559  1.00 81.98 LIG-0.23  N 
ATOM     54 2HH2 ARG C  16     -12.372   9.788  -1.039  1.00 86.10 LIG 0.17  HD
ATOM     55 1HH2 ARG C  16     -12.548   8.340  -0.735  1.00 86.10 LIG 0.17  HD
ATOM     56 1HH1 ARG C  16      -9.802   9.484  -3.077  1.00 81.98 LIG 0.17  HD
ATOM     57 2HH1 ARG C  16     -10.718  10.476  -2.449  1.00 81.98 LIG 0.17  HD
ENDBRANCH 48 49
ENDBRANCH 47 48
ENDBRANCH 46 47
ENDBRANCH 45 46
BRANCH 45 58
ATOM     58  N   ARG C  16     -13.759   7.391  -5.210  1.00 40.87 LIG-0.35  N 
ATOM     59  C   PRO C  15     -14.679   8.277  -4.762  1.00 47.02 LIG 0.25  C 
ATOM     60 O    PRO C  15     -14.389   9.393  -4.329  1.00 46.36 LIG-0.27  OA
ATOM     61 H    ARG C  16     -13.975   6.606  -5.487  1.00 40.87 LIG 0.16  HD
BRANCH 59 62
ATOM     62  CA  PRO C  15     -16.148   7.857  -4.849  1.00 46.56 LIG 0.35  C 
ATOM     63  N   PRO C  15     -16.675   7.852  -6.222  1.00 47.38 LIG 0.32  N 
ATOM     64  CD  PRO C  15     -17.067   6.495  -6.648  1.00 49.28 LIG 0.32  C 
ATOM     65  CG  PRO C  15     -17.298   5.786  -5.348  1.00 53.38 LIG 0.04  C 
ATOM     66  CB  PRO C  15     -16.328   6.400  -4.391  1.00 48.49 LIG 0.05  C 
ENDBRANCH 59 62
ENDBRANCH 45 58
ENDBRANCH 43 45
ENDBRANCH 1 38
TORSDOF 18
ENDMDL
MODEL 8
USER: ADFR SOLUTION from run 48
USER: SCORE 21.757529 LL:  -4.099 LR: -19.280 RR:   0.000 FEB: -13.911
USER: RMSD 14.138295
USER: SEED 47
USER: STATUS no improvement in best in 12 clusters for 5 generations
USER: GENES 20
USER: genes 0 Translation |==|  0.44960 0.48496 0.51646
USER: genes 1 Rotation |==|  0.99158 0.44583 0.46216 0.56309
USER: genes 2 Torsion [C]-N--CA-[CB] |==|  0.25139
USER: genes 3 Torsion [N]-CA--C-[N] |==|  0.38662
USER: genes 4 Torsion [N]-CA--C-[O] |==|  0.80934
USER: genes 5 Torsion [C]-N--CA-[C] |==|  0.65300
USER: genes 6 Torsion [N]-CA--C-[N] |==|  0.13283
USER: genes 7 Torsion [N]-CA--C-[O] |==|  0.88244
USER: genes 8 Torsion [N]-CA--CB-[CG] |==|  0.51455
USER: genes 9 Torsion [CA]-CB--CG-[CD1] |==|  0.62407
USER: genes 10 Torsion [N]-CA--CB-[CG] |==|  0.77246
USER: genes 11 Torsion [CA]-CB--CG-[CD2] |==|  0.85143
USER: genes 12 Torsion [O]-C--CA-[CB] |==|  0.29012
USER: genes 13 Torsion [N]-C--CA-[N] |==|  0.31122
USER: genes 14 Torsion [C]-CA--CB-[CG] |==|  0.35657
USER: genes 15 Torsion [CA]-CB--CG-[CD] |==|  0.52572
USER: genes 16 Torsion [CB]-CG--CD-[NE] |==|  0.87511
USER: genes 17 Torsion [CG]-CD--NE-[HE] |==|  0.06932
USER: genes 18 Torsion [C]-CA--N-[C] |==|  0.76166
USER: genes 19 Torsion [N]-C--CA-[CB] |==|  0.37849
ROOT
ATOM      1  C   PRO C  17     -12.520   9.081  -9.793  1.00 34.10 LIG 0.24  C 
ATOM      2 O    PRO C  17     -13.706   8.757  -9.802  1.00 31.91 LIG-0.27  OA
ATOM      3  N   LEU C  18     -11.686   8.706  -8.842  1.00 30.88 LIG-0.35  N 
ATOM      4 H    LEU C  18     -10.871   8.976  -8.801  1.00 30.88 LIG 0.16  HD
ENDROOT
BRANCH 3 5
ATOM      5  CA  LEU C  18     -12.053   7.799  -7.765  1.00 30.78 LIG 0.18  C 
BRANCH 5 6
ATOM      6  C   LEU C  18     -11.330   8.080  -6.459  1.00 33.73 LIG 0.24  C 
ATOM      7  N   PRO C  19     -12.044   7.994  -5.306  1.00 33.17 LIG-0.34  N 
ATOM      8  CA  PRO C  19     -11.369   8.195  -4.006  1.00 33.85 LIG 0.18  C 
ATOM      9  CD  PRO C  19     -13.496   7.733  -5.137  1.00 35.22 LIG 0.13  C 
ATOM     10  CB  PRO C  19     -12.527   8.340  -3.013  1.00 35.69 LIG 0.04  C 
ATOM     11  CG  PRO C  19     -13.691   7.690  -3.653  1.00 39.92 LIG 0.02  C 
ATOM     12 O    LEU C  18     -10.113   8.276  -6.484  1.00 31.40 LIG-0.27  OA
BRANCH 8 13
ATOM     13  C   PRO C  19     -10.386   7.080  -3.619  1.00 39.47 LIG 0.24  C 
ATOM     14  N   PHE C  20      -9.091   7.400  -3.650  1.00 41.20 LIG-0.35  N 
ATOM     15 H    PHE C  20      -8.817   8.185  -3.867  1.00 41.20 LIG 0.16  HD
ATOM     16 O    PRO C  19     -10.782   5.954  -3.334  1.00 36.20 LIG-0.27  OA
BRANCH 14 17
ATOM     17  CA  PHE C  20      -7.998   6.483  -3.328  1.00 43.59 LIG 0.18  C 
BRANCH 17 18
ATOM     18  C   PHE C  20      -7.121   7.102  -2.224  1.00 48.54 LIG 0.24  C 
ATOM     19  N   PRO C  21      -7.698   7.633  -1.114  1.00 46.41 LIG-0.34  N 
ATOM     20  CA  PRO C  21      -6.853   8.181  -0.026  1.00 51.72 LIG 0.17  C 
ATOM     21  CD  PRO C  21      -9.131   7.783  -0.793  1.00 49.19 LIG 0.13  C 
ATOM     22  CB  PRO C  21      -7.873   8.646   1.027  1.00 52.56 LIG 0.04  C 
ATOM     23  CG  PRO C  21      -9.143   8.813   0.296  1.00 54.82 LIG 0.02  C 
ATOM     24 O    PHE C  20      -5.897   7.073  -2.370  1.00 48.67 LIG-0.27  OA
BRANCH 20 25
ATOM     25  C   PRO C  21      -5.887   7.163   0.584  1.00 87.57 LIG 0.22  C 
ATOM     26 O    PRO C  21      -6.268   6.018   0.817  1.00 58.80 LIG-0.29  OA
ENDBRANCH 20 25
ENDBRANCH 17 18
BRANCH 17 27
ATOM     27  CB  PHE C  20      -7.174   6.204  -4.610  1.00 46.79 LIG 0.07  C 
BRANCH 27 28
ATOM     28  CG  PHE C  20      -6.063   5.177  -4.515  1.00 50.46 LIG-0.06  A 
ATOM     29  CD2 PHE C  20      -6.252   3.983  -3.824  1.00 54.33 LIG 0.01  A 
ATOM     30  CE2 PHE C  20      -5.224   3.035  -3.738  1.00 57.68 LIG 0.00  A 
ATOM     31  CZ  PHE C  20      -3.996   3.289  -4.321  1.00 55.81 LIG 0.00  A 
ATOM     32  CE1 PHE C  20      -3.788   4.473  -4.998  1.00 56.05 LIG 0.00  A 
ATOM     33  CD1 PHE C  20      -4.812   5.424  -5.075  1.00 54.84 LIG 0.01  A 
ENDBRANCH 27 28
ENDBRANCH 17 27
ENDBRANCH 14 17
ENDBRANCH 8 13
ENDBRANCH 5 6
BRANCH 5 34
ATOM     34  CB  LEU C  18     -11.754   6.366  -8.197  1.00 31.46 LIG 0.04  C 
BRANCH 34 35
ATOM     35  CG  LEU C  18     -12.793   5.698  -9.061  1.00 36.62 LIG-0.02  C 
ATOM     36  CD2 LEU C  18     -14.156   5.778  -8.391  1.00 38.91 LIG 0.01  C 
ATOM     37  CD1 LEU C  18     -12.397   4.241  -9.319  1.00 36.98 LIG 0.01  C 
ENDBRANCH 34 35
ENDBRANCH 5 34
ENDBRANCH 3 5
BRANCH 1 38
ATOM     38  CA  PRO C  17     -11.932  10.016 -10.842  1.00 33.71 LIG 0.18  C 
ATOM     39  CB  PRO C  17     -11.687  11.430 -10.306  1.00 36.04 LIG 0.04  C 
ATOM     40  CG  PRO C  17     -12.710  12.322 -10.977  1.00 41.66 LIG 0.02  C 
ATOM     41  CD  PRO C  17     -13.557  11.487 -11.889  1.00 37.74 LIG 0.13  C 
ATOM     42  N   PRO C  17     -12.780  10.235 -12.018  1.00 35.06 LIG-0.34  N 
ATOM     43  C   ARG C  16     -12.735   9.348 -13.030  1.00 37.80 LIG 0.24  C 
ATOM     44 O    ARG C  16     -12.000   8.366 -12.963  1.00 34.25 LIG-0.27  OA
BRANCH 43 45
ATOM     45  CA  ARG C  16     -13.583   9.574 -14.296  1.00 39.10 LIG 0.18  C 
BRANCH 45 46
ATOM     46  CB  ARG C  16     -14.446   8.330 -14.581  1.00 42.59 LIG 0.04  C 
BRANCH 46 47
ATOM     47  CG  ARG C  16     -15.930   8.618 -14.785  1.00 54.51 LIG 0.02  C 
BRANCH 47 48
ATOM     48  CD  ARG C  16     -16.757   7.348 -14.836  1.00 71.70 LIG 0.14  C 
BRANCH 48 49
ATOM     49  NE  ARG C  16     -16.126   6.331 -15.684  1.00 86.72 LIG-0.23  N 
ATOM     50 HE   ARG C  16     -15.274   6.374 -15.791  1.00 86.72 LIG 0.18  HD
ATOM     51  CZ  ARG C  16     -16.776   5.346 -16.299  1.00 98.48 LIG 0.67  C 
ATOM     52  NH2 ARG C  16     -16.116   4.477 -17.055  1.00 86.10 LIG-0.23  N 
ATOM     53  NH1 ARG C  16     -18.091   5.227 -16.172  1.00 81.98 LIG-0.23  N 
ATOM     54 2HH2 ARG C  16     -16.540   3.842 -17.450  1.00 86.10 LIG 0.17  HD
ATOM     55 1HH2 ARG C  16     -15.264   4.549 -17.149  1.00 86.10 LIG 0.17  HD
ATOM     56 1HH1 ARG C  16     -18.529   5.788 -15.689  1.00 81.98 LIG 0.17  HD
ATOM     57 2HH1 ARG C  16     -18.506   4.589 -16.571  1.00 81.98 LIG 0.17  HD
ENDBRANCH 48 49
ENDBRANCH 47 48
ENDBRANCH 46 47
ENDBRANCH 45 46
BRANCH 45 58
ATOM     58  N   ARG C  16     -12.698   9.859 -15.431  1.00 40.87 LIG-0.35  N 
ATOM     59  C   PRO C  15     -12.221  11.085 -15.751  1.00 47.02 LIG 0.25  C 
ATOM     60 O    PRO C  15     -12.514  12.108 -15.131  1.00 46.36 LIG-0.27  OA
ATOM     61 H    ARG C  16     -12.503   9.158 -15.888  1.00 40.87 LIG 0.16  HD
BRANCH 59 62
ATOM     62  CA  PRO C  15     -11.238  11.164 -16.921  1.00 46.56 LIG 0.35  C 
ATOM     63  N   PRO C  15     -11.308  10.006 -17.823  1.00 47.38 LIG 0.32  N 
ATOM     64  CD  PRO C  15     -11.747  10.396 -19.176  1.00 49.28 LIG 0.32  C 
ATOM     65  CG  PRO C  15     -11.404  11.853 -19.236  1.00 53.38 LIG 0.04  C 
ATOM     66  CB  PRO C  15     -11.576  12.352 -17.838  1.00 48.49 LIG 0.05  C 
ENDBRANCH 59 62
ENDBRANCH 45 58
ENDBRANCH 43 45
ENDBRANCH 1 38
TORSDOF 18
ENDMDL
MODEL 9
USER: ADFR SOLUTION from run 183
USER: SCORE 22.624655 LL:  -4.820 LR: -19.226 RR:   0.000 FEB: -13.857
USER: RMSD 13.509602
USER: SEED 182
USER: STATUS no improvement in best in 6 clusters for 5 generations
USER: GENES 20
USER: genes 0 Translation |==|  0.43385 0.64684 0.41639
USER: genes 1 Rotation |==|  0.31202 0.10246 0.28619 0.60446
USER: genes 2 Torsion [C]-N--CA-[CB] |==|  0.20000
USER: genes 3 Torsion [N]-CA--C-[N] |==|  0.21662
USER: genes 4 Torsion [N]-CA--C-[O] |==|  0.98641
USER: genes 5 Torsion [C]-N--CA-[C] |==|  0.78559
USER: genes 6 Torsion [N]-CA--C-[N] |==|  0.44258
USER: genes 7 Torsion [N]-CA--C-[O] |==|  0.25732
USER: genes 8 Torsion [N]-CA--CB-[CG] |==|  0.54063
USER: genes 9 Torsion [CA]-CB--CG-[CD1] |==|  0.22102
USER: genes 10 Torsion [N]-CA--CB-[CG] |==|  0.57232
USER: genes 11 Torsion [CA]-CB--CG-[CD2] |==|  0.00497
USER: genes 12 Torsion [O]-C--CA-[CB] |==|  0.71737
USER: genes 13 Torsion [N]-C--CA-[N] |==|  0.19777
USER: genes 14 Torsion [C]-CA--CB-[CG] |==|  0.63939
USER: genes 15 Torsion [CA]-CB--CG-[CD] |==|  0.29466
USER: genes 16 Torsion [CB]-CG--CD-[NE] |==|  0.21715
USER: genes 17 Torsion [CG]-CD--NE-[HE] |==|  0.75858
USER: genes 18 Torsion [C]-CA--N-[C] |==|  0.70639
USER: genes 19 Torsion [N]-C--CA-[CB] |==|  0.08596
ROOT
ATOM      1  C   PRO C  17     -12.804  11.995 -13.021  1.00 34.10 LIG 0.24  C 
ATOM      2 O    PRO C  17     -11.719  11.980 -13.599  1.00 31.91 LIG-0.27  OA
ATOM      3  N   LEU C  18     -12.938  11.665 -11.750  1.00 30.88 LIG-0.35  N 
ATOM      4 H    LEU C  18     -13.701  11.620 -11.356  1.00 30.88 LIG 0.16  HD
ENDROOT
BRANCH 3 5
ATOM      5  CA  LEU C  18     -11.815  11.343 -10.882  1.00 30.78 LIG 0.18  C 
BRANCH 5 6
ATOM      6  C   LEU C  18     -12.223  10.684  -9.576  1.00 33.73 LIG 0.24  C 
ATOM      7  N   PRO C  19     -12.546   9.364  -9.604  1.00 33.17 LIG-0.34  N 
ATOM      8  CA  PRO C  19     -12.888   8.664  -8.348  1.00 33.85 LIG 0.18  C 
ATOM      9  CD  PRO C  19     -12.637   8.461 -10.779  1.00 35.22 LIG 0.13  C 
ATOM     10  CB  PRO C  19     -13.487   7.336  -8.822  1.00 35.69 LIG 0.04  C 
ATOM     11  CG  PRO C  19     -12.966   7.125 -10.190  1.00 39.92 LIG 0.02  C 
ATOM     12 O    LEU C  18     -12.152  11.337  -8.533  1.00 31.40 LIG-0.27  OA
BRANCH 8 13
ATOM     13  C   PRO C  19     -11.708   8.475  -7.382  1.00 39.47 LIG 0.24  C 
ATOM     14  N   PHE C  20     -12.004   7.974  -6.182  1.00 41.20 LIG-0.35  N 
ATOM     15 H    PHE C  20     -12.807   7.761  -5.957  1.00 41.20 LIG 0.16  HD
ATOM     16 O    PRO C  19     -10.569   8.804  -7.698  1.00 36.20 LIG-0.27  OA
BRANCH 14 17
ATOM     17  CA  PHE C  20     -11.031   7.727  -5.118  1.00 43.59 LIG 0.18  C 
BRANCH 17 18
ATOM     18  C   PHE C  20     -10.247   6.440  -5.432  1.00 48.54 LIG 0.24  C 
ATOM     19  N   PRO C  21      -9.038   6.222  -4.849  1.00 46.41 LIG-0.34  N 
ATOM     20  CA  PRO C  21      -8.306   4.958  -5.107  1.00 51.72 LIG 0.17  C 
ATOM     21  CD  PRO C  21      -8.268   7.102  -3.949  1.00 49.19 LIG 0.13  C 
ATOM     22  CB  PRO C  21      -7.030   5.099  -4.259  1.00 52.56 LIG 0.04  C 
ATOM     23  CG  PRO C  21      -6.877   6.546  -4.015  1.00 54.82 LIG 0.02  C 
ATOM     24 O    PHE C  20     -10.759   5.618  -6.195  1.00 48.67 LIG-0.27  OA
BRANCH 20 25
ATOM     25  C   PRO C  21      -9.075   3.699  -4.705  1.00 87.57 LIG 0.22  C 
ATOM     26 O    PRO C  21      -9.774   3.116  -5.533  1.00 58.80 LIG-0.29  OA
ENDBRANCH 20 25
ENDBRANCH 17 18
BRANCH 17 27
ATOM     27  CB  PHE C  20     -11.777   7.614  -3.763  1.00 46.79 LIG 0.07  C 
BRANCH 27 28
ATOM     28  CG  PHE C  20     -10.943   7.699  -2.500  1.00 50.46 LIG-0.06  A 
ATOM     29  CD2 PHE C  20     -10.627   6.552  -1.776  1.00 54.33 LIG 0.01  A 
ATOM     30  CE2 PHE C  20      -9.855   6.632  -0.609  1.00 57.68 LIG 0.00  A 
ATOM     31  CZ  PHE C  20      -9.421   7.862  -0.149  1.00 55.81 LIG 0.00  A 
ATOM     32  CE1 PHE C  20      -9.737   9.008  -0.846  1.00 56.05 LIG 0.00  A 
ATOM     33  CD1 PHE C  20     -10.516   8.929  -2.007  1.00 54.84 LIG 0.01  A 
ENDBRANCH 27 28
ENDBRANCH 17 27
ENDBRANCH 14 17
ENDBRANCH 8 13
ENDBRANCH 5 6
BRANCH 5 34
ATOM     34  CB  LEU C  18     -11.044  12.624 -10.569  1.00 31.46 LIG 0.04  C 
BRANCH 34 35
ATOM     35  CG  LEU C  18      -9.585  12.460 -10.228  1.00 36.62 LIG-0.02  C 
ATOM     36  CD2 LEU C  18      -9.192  10.993 -10.320  1.00 38.91 LIG 0.01  C 
ATOM     37  CD1 LEU C  18      -9.313  13.010  -8.825  1.00 36.98 LIG 0.01  C 
ENDBRANCH 34 35
ENDBRANCH 5 34
ENDBRANCH 3 5
BRANCH 1 38
ATOM     38  CA  PRO C  17     -14.101  12.319 -13.748  1.00 33.71 LIG 0.18  C 
ATOM     39  CB  PRO C  17     -14.580  13.753 -13.497  1.00 36.04 LIG 0.04  C 
ATOM     40  CG  PRO C  17     -15.815  13.643 -12.628  1.00 41.66 LIG 0.02  C 
ATOM     41  CD  PRO C  17     -16.085  12.195 -12.350  1.00 37.74 LIG 0.13  C 
ATOM     42  N   PRO C  17     -15.251  11.498 -13.354  1.00 35.06 LIG-0.34  N 
ATOM     43  C   ARG C  16     -15.425  10.296 -13.936  1.00 37.80 LIG 0.24  C 
ATOM     44 O    ARG C  16     -14.626   9.892 -14.777  1.00 34.25 LIG-0.27  OA
BRANCH 43 45
ATOM     45  CA  ARG C  16     -16.646   9.429 -13.573  1.00 39.10 LIG 0.18  C 
BRANCH 45 46
ATOM     46  CB  ARG C  16     -16.454   7.998 -14.109  1.00 42.59 LIG 0.04  C 
BRANCH 46 47
ATOM     47  CG  ARG C  16     -17.632   7.454 -14.910  1.00 54.51 LIG 0.02  C 
BRANCH 47 48
ATOM     48  CD  ARG C  16     -17.342   7.413 -16.398  1.00 71.70 LIG 0.14  C 
BRANCH 48 49
ATOM     49  NE  ARG C  16     -16.500   6.265 -16.749  1.00 86.72 LIG-0.23  N 
ATOM     50 HE   ARG C  16     -15.647   6.365 -16.695  1.00 86.72 LIG 0.18  HD
ATOM     51  CZ  ARG C  16     -16.958   5.080 -17.145  1.00 98.48 LIG 0.67  C 
ATOM     52  NH2 ARG C  16     -16.113   4.102 -17.449  1.00 86.10 LIG-0.23  N 
ATOM     53  NH1 ARG C  16     -18.263   4.865 -17.247  1.00 81.98 LIG-0.23  N 
ATOM     54 2HH2 ARG C  16     -16.414   3.338 -17.705  1.00 86.10 LIG 0.17  HD
ATOM     55 1HH2 ARG C  16     -15.265   4.233 -17.392  1.00 86.10 LIG 0.17  HD
ATOM     56 1HH1 ARG C  16     -18.819   5.494 -17.058  1.00 81.98 LIG 0.17  HD
ATOM     57 2HH1 ARG C  16     -18.554   4.098 -17.503  1.00 81.98 LIG 0.17  HD
ENDBRANCH 48 49
ENDBRANCH 47 48
ENDBRANCH 46 47
ENDBRANCH 45 46
BRANCH 45 58
ATOM     58  N   ARG C  16     -17.857  10.035 -14.137  1.00 40.87 LIG-0.35  N 
ATOM     59  C   PRO C  15     -18.797  10.696 -13.422  1.00 47.02 LIG 0.25  C 
ATOM     60 O    PRO C  15     -18.745  10.831 -12.199  1.00 46.36 LIG-0.27  OA
ATOM     61 H    ARG C  16     -17.919   9.928 -14.988  1.00 40.87 LIG 0.16  HD
BRANCH 59 62
ATOM     62  CA  PRO C  15     -19.946  11.333 -14.206  1.00 46.56 LIG 0.35  C 
ATOM     63  N   PRO C  15     -19.629  12.671 -14.727  1.00 47.38 LIG 0.32  N 
ATOM     64  CD  PRO C  15     -19.638  12.696 -16.202  1.00 49.28 LIG 0.32  C 
ATOM     65  CG  PRO C  15     -20.501  11.524 -16.555  1.00 53.38 LIG 0.04  C 
ATOM     66  CB  PRO C  15     -20.258  10.521 -15.474  1.00 48.49 LIG 0.05  C 
ENDBRANCH 59 62
ENDBRANCH 45 58
ENDBRANCH 43 45
ENDBRANCH 1 38
TORSDOF 18
ENDMDL
MODEL 10
USER: ADFR SOLUTION from run 64
USER: SCORE 20.863863 LL:  -4.169 LR: -19.212 RR:   0.000 FEB: -13.843
USER: RMSD 14.159690
USER: SEED 63
USER: STATUS no improvement in best in 41 clusters for 5 generations
USER: GENES 20
USER: genes 0 Translation |==|  0.45261 0.47806 0.50603
USER: genes 1 Rotation |==|  0.99370 0.46461 0.47461 0.56603
USER: genes 2 Torsion [C]-N--CA-[CB] |==|  0.29386
USER: genes 3 Torsion [N]-CA--C-[N] |==|  0.35484
USER: genes 4 Torsion [N]-CA--C-[O] |==|  0.80314
USER: genes 5 Torsion [C]-N--CA-[C] |==|  0.18889
USER: genes 6 Torsion [N]-CA--C-[N] |==|  0.32123
USER: genes 7 Torsion [N]-CA--C-[O] |==|  0.28630
USER: genes 8 Torsion [N]-CA--CB-[CG] |==|  0.72756
USER: genes 9 Torsion [CA]-CB--CG-[CD1] |==|  0.45910
USER: genes 10 Torsion [N]-CA--CB-[CG] |==|  0.69955
USER: genes 11 Torsion [CA]-CB--CG-[CD2] |==|  0.00950
USER: genes 12 Torsion [O]-C--CA-[CB] |==|  0.30454
USER: genes 13 Torsion [N]-C--CA-[N] |==|  0.32537
USER: genes 14 Torsion [C]-CA--CB-[CG] |==|  0.37947
USER: genes 15 Torsion [CA]-CB--CG-[CD] |==|  0.58572
USER: genes 16 Torsion [CB]-CG--CD-[NE] |==|  0.72183
USER: genes 17 Torsion [CG]-CD--NE-[HE] |==|  0.74993
USER: genes 18 Torsion [C]-CA--N-[C] |==|  0.76949
USER: genes 19 Torsion [N]-C--CA-[CB] |==|  0.46037
ROOT
ATOM      1  C   PRO C  17     -12.466   8.957 -10.130  1.00 34.10 LIG 0.24  C 
ATOM      2 O    PRO C  17     -13.620   8.537 -10.180  1.00 31.91 LIG-0.27  OA
ATOM      3  N   LEU C  18     -11.642   8.660  -9.143  1.00 30.88 LIG-0.35  N 
ATOM      4 H    LEU C  18     -10.853   8.996  -9.074  1.00 30.88 LIG 0.16  HD
ENDROOT
BRANCH 3 5
ATOM      5  CA  LEU C  18     -11.976   7.735  -8.070  1.00 30.78 LIG 0.18  C 
BRANCH 5 6
ATOM      6  C   LEU C  18     -11.648   8.265  -6.684  1.00 33.73 LIG 0.24  C 
ATOM      7  N   PRO C  19     -12.633   8.247  -5.748  1.00 33.17 LIG-0.34  N 
ATOM      8  CA  PRO C  19     -12.344   8.693  -4.368  1.00 33.85 LIG 0.18  C 
ATOM      9  CD  PRO C  19     -14.052   7.843  -5.909  1.00 35.22 LIG 0.13  C 
ATOM     10  CB  PRO C  19     -13.731   8.829  -3.732  1.00 35.69 LIG 0.04  C 
ATOM     11  CG  PRO C  19     -14.629   7.970  -4.534  1.00 39.92 LIG 0.02  C 
ATOM     12 O    LEU C  18     -10.488   8.597  -6.434  1.00 31.40 LIG-0.27  OA
BRANCH 8 13
ATOM     13  C   PRO C  19     -11.414   7.759  -3.579  1.00 39.47 LIG 0.24  C 
ATOM     14  N   PHE C  20     -10.172   8.202  -3.374  1.00 41.20 LIG-0.35  N 
ATOM     15 H    PHE C  20      -9.903   8.967  -3.660  1.00 41.20 LIG 0.16  HD
ATOM     16 O    PRO C  19     -11.794   6.657  -3.196  1.00 36.20 LIG-0.27  OA
BRANCH 14 17
ATOM     17  CA  PHE C  20      -9.132   7.465  -2.657  1.00 43.59 LIG 0.18  C 
BRANCH 17 18
ATOM     18  C   PHE C  20      -8.723   6.228  -3.479  1.00 48.54 LIG 0.24  C 
ATOM     19  N   PRO C  21      -7.461   6.127  -3.973  1.00 46.41 LIG-0.34  N 
ATOM     20  CA  PRO C  21      -7.049   4.913  -4.718  1.00 51.72 LIG 0.17  C 
ATOM     21  CD  PRO C  21      -6.354   7.101  -3.902  1.00 49.19 LIG 0.13  C 
ATOM     22  CB  PRO C  21      -5.577   5.185  -5.071  1.00 52.56 LIG 0.04  C 
ATOM     23  CG  PRO C  21      -5.416   6.649  -4.980  1.00 54.82 LIG 0.02  C 
ATOM     24 O    PHE C  20      -9.560   5.338  -3.645  1.00 48.67 LIG-0.27  OA
BRANCH 20 25
ATOM     25  C   PRO C  21      -7.171   3.617  -3.913  1.00 87.57 LIG 0.22  C 
ATOM     26 O    PRO C  21      -8.111   2.852  -4.121  1.00 58.80 LIG-0.29  OA
ENDBRANCH 20 25
ENDBRANCH 17 18
BRANCH 17 27
ATOM     27  CB  PHE C  20      -9.667   7.059  -1.260  1.00 46.79 LIG 0.07  C 
BRANCH 27 28
ATOM     28  CG  PHE C  20      -9.283   7.936  -0.085  1.00 50.46 LIG-0.06  A 
ATOM     29  CD2 PHE C  20      -8.221   8.831  -0.179  1.00 54.33 LIG 0.01  A 
ATOM     30  CE2 PHE C  20      -7.868   9.641   0.908  1.00 57.68 LIG 0.00  A 
ATOM     31  CZ  PHE C  20      -8.560   9.539   2.101  1.00 55.81 LIG 0.00  A 
ATOM     32  CE1 PHE C  20      -9.606   8.648   2.216  1.00 56.05 LIG 0.00  A 
ATOM     33  CD1 PHE C  20      -9.952   7.832   1.133  1.00 54.84 LIG 0.01  A 
ENDBRANCH 27 28
ENDBRANCH 17 27
ENDBRANCH 14 17
ENDBRANCH 8 13
ENDBRANCH 5 6
BRANCH 5 34
ATOM     34  CB  LEU C  18     -11.222   6.425  -8.288  1.00 31.46 LIG 0.04  C 
BRANCH 34 35
ATOM     35  CG  LEU C  18     -12.049   5.244  -8.727  1.00 36.62 LIG-0.02  C 
ATOM     36  CD2 LEU C  18     -13.493   5.670  -8.939  1.00 38.91 LIG 0.01  C 
ATOM     37  CD1 LEU C  18     -11.957   4.127  -7.684  1.00 36.98 LIG 0.01  C 
ENDBRANCH 34 35
ENDBRANCH 5 34
ENDBRANCH 3 5
BRANCH 1 38
ATOM     38  CA  PRO C  17     -11.916   9.927 -11.166  1.00 33.71 LIG 0.18  C 
ATOM     39  CB  PRO C  17     -11.689  11.333 -10.600  1.00 36.04 LIG 0.04  C 
ATOM     40  CG  PRO C  17     -12.741  12.220 -11.232  1.00 41.66 LIG 0.02  C 
ATOM     41  CD  PRO C  17     -13.588  11.390 -12.148  1.00 37.74 LIG 0.13  C 
ATOM     42  N   PRO C  17     -12.789  10.157 -12.321  1.00 35.06 LIG-0.34  N 
ATOM     43  C   ARG C  16     -12.745   9.295 -13.355  1.00 37.80 LIG 0.24  C 
ATOM     44 O    ARG C  16     -11.989   8.327 -13.324  1.00 34.25 LIG-0.27  OA
BRANCH 43 45
ATOM     45  CA  ARG C  16     -13.619   9.534 -14.600  1.00 39.10 LIG 0.18  C 
BRANCH 45 46
ATOM     46  CB  ARG C  16     -14.555   8.331 -14.825  1.00 42.59 LIG 0.04  C 
BRANCH 46 47
ATOM     47  CG  ARG C  16     -15.990   8.699 -15.186  1.00 54.51 LIG 0.02  C 
BRANCH 47 48
ATOM     48  CD  ARG C  16     -16.987   7.673 -14.685  1.00 71.70 LIG 0.14  C 
BRANCH 48 49
ATOM     49  NE  ARG C  16     -17.403   6.761 -15.756  1.00 86.72 LIG-0.23  N 
ATOM     50 HE   ARG C  16     -18.090   6.983 -16.224  1.00 86.72 LIG 0.18  HD
ATOM     51  CZ  ARG C  16     -16.796   5.615 -16.057  1.00 98.48 LIG 0.67  C 
ATOM     52  NH2 ARG C  16     -17.255   4.852 -17.041  1.00 86.10 LIG-0.23  N 
ATOM     53  NH1 ARG C  16     -15.732   5.219 -15.370  1.00 81.98 LIG-0.23  N 
ATOM     54 2HH2 ARG C  16     -16.859   4.113 -17.231  1.00 86.10 LIG 0.17  HD
ATOM     55 1HH2 ARG C  16     -17.947   5.097 -17.488  1.00 86.10 LIG 0.17  HD
ATOM     56 1HH1 ARG C  16     -15.431   5.703 -14.726  1.00 81.98 LIG 0.17  HD
ATOM     57 2HH1 ARG C  16     -15.344   4.478 -15.568  1.00 81.98 LIG 0.17  HD
ENDBRANCH 48 49
ENDBRANCH 47 48
ENDBRANCH 46 47
ENDBRANCH 45 46
BRANCH 45 58
ATOM     58  N   ARG C  16     -12.757   9.743 -15.768  1.00 40.87 LIG-0.35  N 
ATOM     59  C   PRO C  15     -12.184  10.922 -16.105  1.00 47.02 LIG 0.25  C 
ATOM     60 O    PRO C  15     -12.358  11.964 -15.473  1.00 46.36 LIG-0.27  OA
ATOM     61 H    ARG C  16     -12.645   9.029 -16.234  1.00 40.87 LIG 0.16  HD
BRANCH 59 62
ATOM     62  CA  PRO C  15     -11.245  10.918 -17.313  1.00 46.56 LIG 0.35  C 
ATOM     63  N   PRO C  15     -11.824  10.276 -18.502  1.00 47.38 LIG 0.32  N 
ATOM     64  CD  PRO C  15     -11.987  11.235 -19.612  1.00 49.28 LIG 0.32  C 
ATOM     65  CG  PRO C  15     -10.998  12.309 -19.279  1.00 53.38 LIG 0.04  C 
ATOM     66  CB  PRO C  15     -10.956  12.353 -17.786  1.00 48.49 LIG 0.05  C 
ENDBRANCH 59 62
ENDBRANCH 45 58
ENDBRANCH 43 45
ENDBRANCH 1 38
TORSDOF 18
ENDMDL
MODEL 11
USER: ADFR SOLUTION from run 41
USER: SCORE 22.045004 LL:  -4.412 LR: -19.178 RR:   0.000 FEB: -13.808
USER: RMSD 14.242022
USER: SEED 40
USER: STATUS no improvement in best in 21 clusters for 5 generations
USER: GENES 20
USER: genes 0 Translation |==|  0.46199 0.50048 0.50576
USER: genes 1 Rotation |==|  0.97131 0.36412 0.48966 0.59643
USER: genes 2 Torsion [C]-N--CA-[CB] |==|  0.22548
USER: genes 3 Torsion [N]-CA--C-[N] |==|  0.46111
USER: genes 4 Torsion [N]-CA--C-[O] |==|  0.84891
USER: genes 5 Torsion [C]-N--CA-[C] |==|  0.59449
USER: genes 6 Torsion [N]-CA--C-[N] |==|  0.14026
USER: genes 7 Torsion [N]-CA--C-[O] |==|  0.84087
USER: genes 8 Torsion [N]-CA--CB-[CG] |==|  0.48273
USER: genes 9 Torsion [CA]-CB--CG-[CD1] |==|  0.65540
USER: genes 10 Torsion [N]-CA--CB-[CG] |==|  0.10401
USER: genes 11 Torsion [CA]-CB--CG-[CD2] |==|  0.56469
USER: genes 12 Torsion [O]-C--CA-[CB] |==|  0.34680
USER: genes 13 Torsion [N]-C--CA-[N] |==|  0.87505
USER: genes 14 Torsion [C]-CA--CB-[CG] |==|  0.48594
USER: genes 15 Torsion [CA]-CB--CG-[CD] |==|  0.57106
USER: genes 16 Torsion [CB]-CG--CD-[NE] |==|  0.73065
USER: genes 17 Torsion [CG]-CD--NE-[HE] |==|  0.01210
USER: genes 18 Torsion [C]-CA--N-[C] |==|  0.84063
USER: genes 19 Torsion [N]-C--CA-[CB] |==|  0.15703
ROOT
ATOM      1  C   PRO C  17     -12.297   9.361 -10.138  1.00 34.10 LIG 0.24  C 
ATOM      2 O    PRO C  17     -13.518   9.398 -10.278  1.00 31.91 LIG-0.27  OA
ATOM      3  N   LEU C  18     -11.720   8.953  -9.024  1.00 30.88 LIG-0.35  N 
ATOM      4 H    LEU C  18     -10.870   8.978  -8.900  1.00 30.88 LIG 0.16  HD
ENDROOT
BRANCH 3 5
ATOM      5  CA  LEU C  18     -12.457   8.419  -7.888  1.00 30.78 LIG 0.18  C 
BRANCH 5 6
ATOM      6  C   LEU C  18     -11.710   8.528  -6.570  1.00 33.73 LIG 0.24  C 
ATOM      7  N   PRO C  19     -12.412   8.332  -5.423  1.00 33.17 LIG-0.34  N 
ATOM      8  CA  PRO C  19     -11.715   8.365  -4.120  1.00 33.85 LIG 0.18  C 
ATOM      9  CD  PRO C  19     -13.868   8.095  -5.262  1.00 35.22 LIG 0.13  C 
ATOM     10  CB  PRO C  19     -12.855   8.428  -3.099  1.00 35.69 LIG 0.04  C 
ATOM     11  CG  PRO C  19     -14.046   7.889  -3.790  1.00 39.92 LIG 0.02  C 
ATOM     12 O    LEU C  18     -10.488   8.691  -6.592  1.00 31.40 LIG-0.27  OA
BRANCH 8 13
ATOM     13  C   PRO C  19     -10.761   7.185  -3.877  1.00 39.47 LIG 0.24  C 
ATOM     14  N   PHE C  20      -9.495   7.500  -3.599  1.00 41.20 LIG-0.35  N 
ATOM     15 H    PHE C  20      -9.223   8.315  -3.551  1.00 41.20 LIG 0.16  HD
ATOM     16 O    PRO C  19     -11.148   6.025  -3.972  1.00 36.20 LIG-0.27  OA
BRANCH 14 17
ATOM     17  CA  PHE C  20      -8.431   6.529  -3.347  1.00 43.59 LIG 0.18  C 
BRANCH 17 18
ATOM     18  C   PHE C  20      -7.453   7.102  -2.305  1.00 48.54 LIG 0.24  C 
ATOM     19  N   PRO C  21      -7.926   7.612  -1.136  1.00 46.41 LIG-0.34  N 
ATOM     20  CA  PRO C  21      -6.983   8.114  -0.108  1.00 51.72 LIG 0.17  C 
ATOM     21  CD  PRO C  21      -9.324   7.776  -0.693  1.00 49.19 LIG 0.13  C 
ATOM     22  CB  PRO C  21      -7.903   8.567   1.038  1.00 52.56 LIG 0.04  C 
ATOM     23  CG  PRO C  21      -9.226   8.775   0.420  1.00 54.82 LIG 0.02  C 
ATOM     24 O    PHE C  20      -6.246   7.057  -2.553  1.00 48.67 LIG-0.27  OA
BRANCH 20 25
ATOM     25  C   PRO C  21      -5.989   7.064   0.392  1.00 87.57 LIG 0.22  C 
ATOM     26 O    PRO C  21      -6.400   6.014   0.884  1.00 58.80 LIG-0.29  OA
ENDBRANCH 20 25
ENDBRANCH 17 18
BRANCH 17 27
ATOM     27  CB  PHE C  20      -7.707   6.210  -4.680  1.00 46.79 LIG 0.07  C 
BRANCH 27 28
ATOM     28  CG  PHE C  20      -6.474   5.330  -4.611  1.00 50.46 LIG-0.06  A 
ATOM     29  CD2 PHE C  20      -6.519   4.087  -3.985  1.00 54.33 LIG 0.01  A 
ATOM     30  CE2 PHE C  20      -5.378   3.275  -3.923  1.00 57.68 LIG 0.00  A 
ATOM     31  CZ  PHE C  20      -4.184   3.716  -4.463  1.00 55.81 LIG 0.00  A 
ATOM     32  CE1 PHE C  20      -4.119   4.950  -5.074  1.00 56.05 LIG 0.00  A 
ATOM     33  CD1 PHE C  20      -5.256   5.766  -5.127  1.00 54.84 LIG 0.01  A 
ENDBRANCH 27 28
ENDBRANCH 17 27
ENDBRANCH 14 17
ENDBRANCH 8 13
ENDBRANCH 5 6
BRANCH 5 34
ATOM     34  CB  LEU C  18     -12.782   6.950  -8.151  1.00 31.46 LIG 0.04  C 
BRANCH 34 35
ATOM     35  CG  LEU C  18     -11.722   6.147  -8.859  1.00 36.62 LIG-0.02  C 
ATOM     36  CD2 LEU C  18     -12.353   4.947  -9.549  1.00 38.91 LIG 0.01  C 
ATOM     37  CD1 LEU C  18     -10.651   5.701  -7.860  1.00 36.98 LIG 0.01  C 
ENDBRANCH 34 35
ENDBRANCH 5 34
ENDBRANCH 3 5
BRANCH 1 38
ATOM     38  CA  PRO C  17     -11.346   9.862 -11.216  1.00 33.71 LIG 0.18  C 
ATOM     39  CB  PRO C  17     -10.367  10.921 -10.697  1.00 36.04 LIG 0.04  C 
ATOM     40  CG  PRO C  17     -10.787  12.233 -11.326  1.00 41.66 LIG 0.02  C 
ATOM     41  CD  PRO C  17     -11.984  11.992 -12.196  1.00 37.74 LIG 0.13  C 
ATOM     42  N   PRO C  17     -11.995  10.521 -12.354  1.00 35.06 LIG-0.34  N 
ATOM     43  C   ARG C  16     -12.468   9.765 -13.363  1.00 37.80 LIG 0.24  C 
ATOM     44 O    ARG C  16     -12.363   8.542 -13.324  1.00 34.25 LIG-0.27  OA
BRANCH 43 45
ATOM     45  CA  ARG C  16     -13.117  10.431 -14.592  1.00 39.10 LIG 0.18  C 
BRANCH 45 46
ATOM     46  CB  ARG C  16     -12.028  11.016 -15.511  1.00 42.59 LIG 0.04  C 
BRANCH 46 47
ATOM     47  CG  ARG C  16     -12.546  11.596 -16.823  1.00 54.51 LIG 0.02  C 
BRANCH 47 48
ATOM     48  CD  ARG C  16     -11.490  11.580 -17.911  1.00 71.70 LIG 0.14  C 
BRANCH 48 49
ATOM     49  NE  ARG C  16     -10.812  12.876 -18.020  1.00 86.72 LIG-0.23  N 
ATOM     50 HE   ARG C  16     -11.018  13.482 -17.446  1.00 86.72 LIG 0.18  HD
ATOM     51  CZ  ARG C  16      -9.899  13.181 -18.939  1.00 98.48 LIG 0.67  C 
ATOM     52  NH2 ARG C  16      -9.347  14.387 -18.961  1.00 86.10 LIG-0.23  N 
ATOM     53  NH1 ARG C  16      -9.539  12.285 -19.850  1.00 81.98 LIG-0.23  N 
ATOM     54 2HH2 ARG C  16      -8.758  14.579 -19.557  1.00 86.10 LIG 0.17  HD
ATOM     55 1HH2 ARG C  16      -9.578  14.976 -18.379  1.00 86.10 LIG 0.17  HD
ATOM     56 1HH1 ARG C  16      -9.896  11.502 -19.848  1.00 81.98 LIG 0.17  HD
ATOM     57 2HH1 ARG C  16      -8.950  12.488 -20.442  1.00 81.98 LIG 0.17  HD
ENDBRANCH 48 49
ENDBRANCH 47 48
ENDBRANCH 46 47
ENDBRANCH 45 46
BRANCH 45 58
ATOM     58  N   ARG C  16     -14.037  11.482 -14.146  1.00 40.87 LIG-0.35  N 
ATOM     59  C   PRO C  15     -15.085  11.291 -13.311  1.00 47.02 LIG 0.25  C 
ATOM     60 O    PRO C  15     -15.396  10.189 -12.858  1.00 46.36 LIG-0.27  OA
ATOM     61 H    ARG C  16     -13.847  12.254 -14.473  1.00 40.87 LIG 0.16  HD
BRANCH 59 62
ATOM     62  CA  PRO C  15     -15.877  12.533 -12.893  1.00 46.56 LIG 0.35  C 
ATOM     63  N   PRO C  15     -15.061  13.542 -12.203  1.00 47.38 LIG 0.32  N 
ATOM     64  CD  PRO C  15     -14.988  14.800 -12.971  1.00 49.28 LIG 0.32  C 
ATOM     65  CG  PRO C  15     -16.206  14.736 -13.840  1.00 53.38 LIG 0.04  C 
ATOM     66  CB  PRO C  15     -16.405  13.283 -14.127  1.00 48.49 LIG 0.05  C 
ENDBRANCH 59 62
ENDBRANCH 45 58
ENDBRANCH 43 45
ENDBRANCH 1 38
TORSDOF 18
ENDMDL
MODEL 12
USER: ADFR SOLUTION from run 150
USER: SCORE 23.199899 LL:  -4.791 LR: -19.109 RR:   0.000 FEB: -13.739
USER: RMSD 13.313777
USER: SEED 149
USER: STATUS no improvement in best in 10 clusters for 5 generations
USER: GENES 20
USER: genes 0 Translation |==|  0.44726 0.48494 0.50159
USER: genes 1 Rotation |==|  0.01604 0.59284 0.58461 0.50251
USER: genes 2 Torsion [C]-N--CA-[CB] |==|  0.56012
USER: genes 3 Torsion [N]-CA--C-[N] |==|  0.38655
USER: genes 4 Torsion [N]-CA--C-[O] |==|  0.85592
USER: genes 5 Torsion [C]-N--CA-[C] |==|  0.62681
USER: genes 6 Torsion [N]-CA--C-[N] |==|  0.42420
USER: genes 7 Torsion [N]-CA--C-[O] |==|  0.96149
USER: genes 8 Torsion [N]-CA--CB-[CG] |==|  0.78525
USER: genes 9 Torsion [CA]-CB--CG-[CD1] |==|  0.19619
USER: genes 10 Torsion [N]-CA--CB-[CG] |==|  0.56101
USER: genes 11 Torsion [CA]-CB--CG-[CD2] |==|  0.51549
USER: genes 12 Torsion [O]-C--CA-[CB] |==|  0.26860
USER: genes 13 Torsion [N]-C--CA-[N] |==|  0.85000
USER: genes 14 Torsion [C]-CA--CB-[CG] |==|  0.52985
USER: genes 15 Torsion [CA]-CB--CG-[CD] |==|  0.23027
USER: genes 16 Torsion [CB]-CG--CD-[NE] |==|  0.08080
USER: genes 17 Torsion [CG]-CD--NE-[HE] |==|  0.02846
USER: genes 18 Torsion [C]-CA--N-[C] |==|  0.83244
USER: genes 19 Torsion [N]-C--CA-[CB] |==|  0.33826
ROOT
ATOM      1  C   PRO C  17     -12.562   9.081 -10.273  1.00 34.10 LIG 0.24  C 
ATOM      2 O    PRO C  17     -13.783   8.987 -10.168  1.00 31.91 LIG-0.27  OA
ATOM      3  N   LEU C  18     -11.728   8.319  -9.591  1.00 30.88 LIG-0.35  N 
ATOM      4 H    LEU C  18     -10.874   8.419  -9.618  1.00 30.88 LIG 0.16  HD
ENDROOT
BRANCH 3 5
ATOM      5  CA  LEU C  18     -12.160   7.234  -8.723  1.00 30.78 LIG 0.18  C 
BRANCH 5 6
ATOM      6  C   LEU C  18     -13.446   7.529  -7.971  1.00 33.73 LIG 0.24  C 
ATOM      7  N   PRO C  19     -14.358   6.529  -7.853  1.00 33.17 LIG-0.34  N 
ATOM      8  CA  PRO C  19     -15.596   6.750  -7.076  1.00 33.85 LIG 0.18  C 
ATOM      9  CD  PRO C  19     -14.313   5.166  -8.440  1.00 35.22 LIG 0.13  C 
ATOM     10  CB  PRO C  19     -16.475   5.550  -7.443  1.00 35.69 LIG 0.04  C 
ATOM     11  CG  PRO C  19     -15.548   4.501  -7.918  1.00 39.92 LIG 0.02  C 
ATOM     12 O    LEU C  18     -13.571   8.623  -7.416  1.00 31.40 LIG-0.27  OA
BRANCH 8 13
ATOM     13  C   PRO C  19     -15.380   6.890  -5.561  1.00 39.47 LIG 0.24  C 
ATOM     14  N   PHE C  20     -15.889   7.985  -4.993  1.00 41.20 LIG-0.35  N 
ATOM     15 H    PHE C  20     -16.320   8.579  -5.443  1.00 41.20 LIG 0.16  HD
ATOM     16 O    PRO C  19     -14.743   6.053  -4.929  1.00 36.20 LIG-0.27  OA
BRANCH 14 17
ATOM     17  CA  PHE C  20     -15.786   8.312  -3.572  1.00 43.59 LIG 0.18  C 
BRANCH 17 18
ATOM     18  C   PHE C  20     -17.159   8.776  -3.053  1.00 48.54 LIG 0.24  C 
ATOM     19  N   PRO C  21     -17.483   8.608  -1.743  1.00 46.41 LIG-0.34  N 
ATOM     20  CA  PRO C  21     -18.782   9.103  -1.229  1.00 51.72 LIG 0.17  C 
ATOM     21  CD  PRO C  21     -16.708   7.953  -0.671  1.00 49.19 LIG 0.13  C 
ATOM     22  CB  PRO C  21     -18.742   8.745   0.266  1.00 52.56 LIG 0.04  C 
ATOM     23  CG  PRO C  21     -17.734   7.674   0.386  1.00 54.82 LIG 0.02  C 
ATOM     24 O    PHE C  20     -17.928   9.320  -3.848  1.00 48.67 LIG-0.27  OA
BRANCH 20 25
ATOM     25  C   PRO C  21     -18.991  10.608  -1.410  1.00 87.57 LIG 0.22  C 
ATOM     26 O    PRO C  21     -18.039  11.329  -1.700  1.00 58.80 LIG-0.29  OA
ENDBRANCH 20 25
ENDBRANCH 17 18
BRANCH 17 27
ATOM     27  CB  PHE C  20     -14.711   9.413  -3.380  1.00 46.79 LIG 0.07  C 
BRANCH 27 28
ATOM     28  CG  PHE C  20     -13.258   8.987  -3.440  1.00 50.46 LIG-0.06  A 
ATOM     29  CD2 PHE C  20     -12.456   9.023  -2.303  1.00 54.33 LIG 0.01  A 
ATOM     30  CE2 PHE C  20     -11.113   8.628  -2.360  1.00 57.68 LIG 0.00  A 
ATOM     31  CZ  PHE C  20     -10.562   8.221  -3.561  1.00 55.81 LIG 0.00  A 
ATOM     32  CE1 PHE C  20     -11.337   8.193  -4.700  1.00 56.05 LIG 0.00  A 
ATOM     33  CD1 PHE C  20     -12.677   8.597  -4.644  1.00 54.84 LIG 0.01  A 
ENDBRANCH 27 28
ENDBRANCH 17 27
ENDBRANCH 14 17
ENDBRANCH 8 13
ENDBRANCH 5 6
BRANCH 5 34
ATOM     34  CB  LEU C  18     -11.055   6.933  -7.713  1.00 31.46 LIG 0.04  C 
BRANCH 34 35
ATOM     35  CG  LEU C  18     -11.076   5.563  -7.087  1.00 36.62 LIG-0.02  C 
ATOM     36  CD2 LEU C  18     -10.006   5.465  -6.011  1.00 38.91 LIG 0.01  C 
ATOM     37  CD1 LEU C  18     -10.866   4.494  -8.163  1.00 36.98 LIG 0.01  C 
ENDBRANCH 34 35
ENDBRANCH 5 34
ENDBRANCH 3 5
BRANCH 1 38
ATOM     38  CA  PRO C  17     -11.907  10.146 -11.142  1.00 33.71 LIG 0.18  C 
ATOM     39  CB  PRO C  17     -11.476  11.381 -10.344  1.00 36.04 LIG 0.04  C 
ATOM     40  CG  PRO C  17     -12.410  12.499 -10.755  1.00 41.66 LIG 0.02  C 
ATOM     41  CD  PRO C  17     -13.384  11.971 -11.765  1.00 37.74 LIG 0.13  C 
ATOM     42  N   PRO C  17     -12.766  10.697 -12.194  1.00 35.06 LIG-0.34  N 
ATOM     43  C   ARG C  16     -12.864  10.044 -13.367  1.00 37.80 LIG 0.24  C 
ATOM     44 O    ARG C  16     -12.249   8.995 -13.547  1.00 34.25 LIG-0.27  OA
BRANCH 43 45
ATOM     45  CA  ARG C  16     -13.725  10.621 -14.507  1.00 39.10 LIG 0.18  C 
BRANCH 45 46
ATOM     46  CB  ARG C  16     -13.090  11.917 -15.043  1.00 42.59 LIG 0.04  C 
BRANCH 46 47
ATOM     47  CG  ARG C  16     -13.977  12.716 -15.992  1.00 54.51 LIG 0.02  C 
BRANCH 47 48
ATOM     48  CD  ARG C  16     -14.958  13.601 -15.248  1.00 71.70 LIG 0.14  C 
BRANCH 48 49
ATOM     49  NE  ARG C  16     -14.426  14.016 -13.945  1.00 86.72 LIG-0.23  N 
ATOM     50 HE   ARG C  16     -13.597  13.851 -13.783  1.00 86.72 LIG 0.18  HD
ATOM     51  CZ  ARG C  16     -15.130  14.629 -12.997  1.00 98.48 LIG 0.67  C 
ATOM     52  NH2 ARG C  16     -14.560  14.957 -11.845  1.00 86.10 LIG-0.23  N 
ATOM     53  NH1 ARG C  16     -16.413  14.910 -13.190  1.00 81.98 LIG-0.23  N 
ATOM     54 2HH2 ARG C  16     -15.019  15.352 -11.235  1.00 86.10 LIG 0.17  HD
ATOM     55 1HH2 ARG C  16     -13.731  14.774 -11.708  1.00 86.10 LIG 0.17  HD
ATOM     56 1HH1 ARG C  16     -16.793  14.696 -13.931  1.00 81.98 LIG 0.17  HD
ATOM     57 2HH1 ARG C  16     -16.863  15.306 -12.574  1.00 81.98 LIG 0.17  HD
ENDBRANCH 48 49
ENDBRANCH 47 48
ENDBRANCH 46 47
ENDBRANCH 45 46
BRANCH 45 58
ATOM     58  N   ARG C  16     -15.082  10.876 -14.011  1.00 40.87 LIG-0.35  N 
ATOM     59  C   PRO C  15     -15.912   9.934 -13.507  1.00 47.02 LIG 0.25  C 
ATOM     60 O    PRO C  15     -15.620   8.739 -13.444  1.00 46.36 LIG-0.27  OA
ATOM     61 H    ARG C  16     -15.309  11.704 -14.070  1.00 40.87 LIG 0.16  HD
BRANCH 59 62
ATOM     62  CA  PRO C  15     -17.258  10.415 -12.958  1.00 46.56 LIG 0.35  C 
ATOM     63  N   PRO C  15     -17.507  11.845 -13.190  1.00 47.38 LIG 0.32  N 
ATOM     64  CD  PRO C  15     -18.669  12.058 -14.072  1.00 49.28 LIG 0.32  C 
ATOM     65  CG  PRO C  15     -19.449  10.788 -13.917  1.00 53.38 LIG 0.04  C 
ATOM     66  CB  PRO C  15     -18.423   9.726 -13.689  1.00 48.49 LIG 0.05  C 
ENDBRANCH 59 62
ENDBRANCH 45 58
ENDBRANCH 43 45
ENDBRANCH 1 38
TORSDOF 18
ENDMDL
MODEL 13
USER: ADFR SOLUTION from run 17
USER: SCORE 22.092992 LL:  -4.949 LR: -19.110 RR:   0.000 FEB: -13.741
USER: RMSD 12.957989
USER: SEED 16
USER: STATUS no improvement in best in 14 clusters for 5 generations
USER: GENES 20
USER: genes 0 Translation |==|  0.31401 0.66862 0.39802
USER: genes 1 Rotation |==|  0.15492 0.74210 0.76483 0.54663
USER: genes 2 Torsion [C]-N--CA-[CB] |==|  0.33766
USER: genes 3 Torsion [N]-CA--C-[N] |==|  0.17813
USER: genes 4 Torsion [N]-CA--C-[O] |==|  0.00010
USER: genes 5 Torsion [C]-N--CA-[C] |==|  0.72360
USER: genes 6 Torsion [N]-CA--C-[N] |==|  0.32926
USER: genes 7 Torsion [N]-CA--C-[O] |==|  0.99279
USER: genes 8 Torsion [N]-CA--CB-[CG] |==|  0.75577
USER: genes 9 Torsion [CA]-CB--CG-[CD1] |==|  0.53360
USER: genes 10 Torsion [N]-CA--CB-[CG] |==|  0.83321
USER: genes 11 Torsion [CA]-CB--CG-[CD2] |==|  0.86230
USER: genes 12 Torsion [O]-C--CA-[CB] |==|  0.88077
USER: genes 13 Torsion [N]-C--CA-[N] |==|  0.36383
USER: genes 14 Torsion [C]-CA--CB-[CG] |==|  0.23084
USER: genes 15 Torsion [CA]-CB--CG-[CD] |==|  0.55651
USER: genes 16 Torsion [CB]-CG--CD-[NE] |==|  0.61023
USER: genes 17 Torsion [CG]-CD--NE-[HE] |==|  0.04821
USER: genes 18 Torsion [C]-CA--N-[C] |==|  0.73334
USER: genes 19 Torsion [N]-C--CA-[CB] |==|  0.66478
ROOT
ATOM      1  C   PRO C  17     -14.961  12.387 -13.613  1.00 34.10 LIG 0.24  C 
ATOM      2 O    PRO C  17     -15.526  12.908 -12.654  1.00 31.91 LIG-0.27  OA
ATOM      3  N   LEU C  18     -14.703  11.094 -13.672  1.00 30.88 LIG-0.35  N 
ATOM      4 H    LEU C  18     -14.259  10.734 -14.313  1.00 30.88 LIG 0.16  HD
ENDROOT
BRANCH 3 5
ATOM      5  CA  LEU C  18     -15.141  10.143 -12.661  1.00 30.78 LIG 0.18  C 
BRANCH 5 6
ATOM      6  C   LEU C  18     -13.997   9.461 -11.930  1.00 33.73 LIG 0.24  C 
ATOM      7  N   PRO C  19     -13.177  10.234 -11.171  1.00 33.17 LIG-0.34  N 
ATOM      8  CA  PRO C  19     -12.090   9.607 -10.390  1.00 33.85 LIG 0.18  C 
ATOM      9  CD  PRO C  19     -13.190  11.710 -11.009  1.00 35.22 LIG 0.13  C 
ATOM     10  CB  PRO C  19     -11.225  10.793  -9.952  1.00 35.69 LIG 0.04  C 
ATOM     11  CG  PRO C  19     -12.107  11.979 -10.011  1.00 39.92 LIG 0.02  C 
ATOM     12 O    LEU C  18     -13.915   8.231 -11.972  1.00 31.40 LIG-0.27  OA
BRANCH 8 13
ATOM     13  C   PRO C  19     -12.567   8.748  -9.209  1.00 39.47 LIG 0.24  C 
ATOM     14  N   PHE C  20     -11.614   8.135  -8.504  1.00 41.20 LIG-0.35  N 
ATOM     15 H    PHE C  20     -10.778   8.218  -8.692  1.00 41.20 LIG 0.16  HD
ATOM     16 O    PRO C  19     -13.761   8.614  -8.962  1.00 36.20 LIG-0.27  OA
BRANCH 14 17
ATOM     17  CA  PHE C  20     -11.857   7.267  -7.353  1.00 43.59 LIG 0.18  C 
BRANCH 17 18
ATOM     18  C   PHE C  20     -11.621   8.062  -6.055  1.00 48.54 LIG 0.24  C 
ATOM     19  N   PRO C  21     -12.641   8.243  -5.174  1.00 46.41 LIG-0.34  N 
ATOM     20  CA  PRO C  21     -12.402   8.960  -3.899  1.00 51.72 LIG 0.17  C 
ATOM     21  CD  PRO C  21     -14.052   7.827  -5.288  1.00 49.19 LIG 0.13  C 
ATOM     22  CB  PRO C  21     -13.772   8.923  -3.200  1.00 52.56 LIG 0.04  C 
ATOM     23  CG  PRO C  21     -14.754   8.678  -4.274  1.00 54.82 LIG 0.02  C 
ATOM     24 O    PHE C  20     -10.488   8.497  -5.837  1.00 48.67 LIG-0.27  OA
BRANCH 20 25
ATOM     25  C   PRO C  21     -11.336   8.317  -3.011  1.00 87.57 LIG 0.22  C 
ATOM     26 O    PRO C  21     -10.798   7.267  -3.360  1.00 58.80 LIG-0.29  OA
ENDBRANCH 20 25
ENDBRANCH 17 18
BRANCH 17 27
ATOM     27  CB  PHE C  20     -10.917   6.037  -7.436  1.00 46.79 LIG 0.07  C 
BRANCH 27 28
ATOM     28  CG  PHE C  20     -11.411   4.834  -8.215  1.00 50.46 LIG-0.06  A 
ATOM     29  CD2 PHE C  20     -12.564   4.911  -8.992  1.00 54.33 LIG 0.01  A 
ATOM     30  CE2 PHE C  20     -13.018   3.798  -9.712  1.00 57.68 LIG 0.00  A 
ATOM     31  CZ  PHE C  20     -12.335   2.599  -9.636  1.00 55.81 LIG 0.00  A 
ATOM     32  CE1 PHE C  20     -11.199   2.501  -8.860  1.00 56.05 LIG 0.00  A 
ATOM     33  CD1 PHE C  20     -10.751   3.610  -8.133  1.00 54.84 LIG 0.01  A 
ENDBRANCH 27 28
ENDBRANCH 17 27
ENDBRANCH 14 17
ENDBRANCH 8 13
ENDBRANCH 5 6
BRANCH 5 34
ATOM     34  CB  LEU C  18     -16.010   9.076 -13.324  1.00 31.46 LIG 0.04  C 
BRANCH 34 35
ATOM     35  CG  LEU C  18     -17.259   9.563 -14.010  1.00 36.62 LIG-0.02  C 
ATOM     36  CD2 LEU C  18     -18.040  10.480 -13.081  1.00 38.91 LIG 0.01  C 
ATOM     37  CD1 LEU C  18     -18.115   8.370 -14.444  1.00 36.98 LIG 0.01  C 
ENDBRANCH 34 35
ENDBRANCH 5 34
ENDBRANCH 3 5
BRANCH 1 38
ATOM     38  CA  PRO C  17     -14.435  13.208 -14.783  1.00 33.71 LIG 0.18  C 
ATOM     39  CB  PRO C  17     -15.415  14.298 -15.230  1.00 36.04 LIG 0.04  C 
ATOM     40  CG  PRO C  17     -15.951  13.861 -16.577  1.00 41.66 LIG 0.02  C 
ATOM     41  CD  PRO C  17     -15.329  12.547 -16.944  1.00 37.74 LIG 0.13  C 
ATOM     42  N   PRO C  17     -14.186  12.444 -16.009  1.00 35.06 LIG-0.34  N 
ATOM     43  C   ARG C  16     -13.010  11.803 -16.152  1.00 37.80 LIG 0.24  C 
ATOM     44 O    ARG C  16     -12.164  11.852 -15.262  1.00 34.25 LIG-0.27  OA
BRANCH 43 45
ATOM     45  CA  ARG C  16     -12.703  11.027 -17.447  1.00 39.10 LIG 0.18  C 
BRANCH 45 46
ATOM     46  CB  ARG C  16     -12.767   9.511 -17.181  1.00 42.59 LIG 0.04  C 
BRANCH 46 47
ATOM     47  CG  ARG C  16     -14.170   8.915 -17.230  1.00 54.51 LIG 0.02  C 
BRANCH 47 48
ATOM     48  CD  ARG C  16     -14.254   7.589 -16.501  1.00 71.70 LIG 0.14  C 
BRANCH 48 49
ATOM     49  NE  ARG C  16     -15.100   6.632 -17.223  1.00 86.72 LIG-0.23  N 
ATOM     50 HE   ARG C  16     -15.270   6.796 -18.050  1.00 86.72 LIG 0.18  HD
ATOM     51  CZ  ARG C  16     -15.623   5.530 -16.692  1.00 98.48 LIG 0.67  C 
ATOM     52  NH2 ARG C  16     -16.386   4.729 -17.426  1.00 86.10 LIG-0.23  N 
ATOM     53  NH1 ARG C  16     -15.396   5.224 -15.421  1.00 81.98 LIG-0.23  N 
ATOM     54 2HH2 ARG C  16     -16.722   4.018 -17.078  1.00 86.10 LIG 0.17  HD
ATOM     55 1HH2 ARG C  16     -16.543   4.921 -18.249  1.00 86.10 LIG 0.17  HD
ATOM     56 1HH1 ARG C  16     -14.909   5.740 -14.935  1.00 81.98 LIG 0.17  HD
ATOM     57 2HH1 ARG C  16     -15.737   4.511 -15.083  1.00 81.98 LIG 0.17  HD
ENDBRANCH 48 49
ENDBRANCH 47 48
ENDBRANCH 46 47
ENDBRANCH 45 46
BRANCH 45 58
ATOM     58  N   ARG C  16     -11.375  11.410 -17.940  1.00 40.87 LIG-0.35  N 
ATOM     59  C   PRO C  15     -11.142  12.351 -18.885  1.00 47.02 LIG 0.25  C 
ATOM     60 O    PRO C  15     -12.039  12.969 -19.460  1.00 46.36 LIG-0.27  OA
ATOM     61 H    ARG C  16     -10.739  10.969 -17.565  1.00 40.87 LIG 0.16  HD
BRANCH 59 62
ATOM     62  CA  PRO C  15      -9.679  12.669 -19.202  1.00 46.56 LIG 0.35  C 
ATOM     63  N   PRO C  15      -9.337  12.496 -20.621  1.00 47.38 LIG 0.32  N 
ATOM     64  CD  PRO C  15      -8.942  13.773 -21.245  1.00 49.28 LIG 0.32  C 
ATOM     65  CG  PRO C  15      -8.511  14.602 -20.074  1.00 53.38 LIG 0.04  C 
ATOM     66  CB  PRO C  15      -9.375  14.154 -18.939  1.00 48.49 LIG 0.05  C 
ENDBRANCH 59 62
ENDBRANCH 45 58
ENDBRANCH 43 45
ENDBRANCH 1 38
TORSDOF 18
ENDMDL
MODEL 14
USER: ADFR SOLUTION from run 98
USER: SCORE 21.558910 LL:  -4.367 LR: -19.090 RR:   0.000 FEB: -13.720
USER: RMSD 3.631131
USER: SEED 97
USER: STATUS no improvement in best in 12 clusters for 5 generations
USER: GENES 20
USER: genes 0 Translation |==|  0.45102 0.43203 0.51644
USER: genes 1 Rotation |==|  0.54328 0.43735 0.54837 0.99179
USER: genes 2 Torsion [C]-N--CA-[CB] |==|  0.42333
USER: genes 3 Torsion [N]-CA--C-[N] |==|  0.43602
USER: genes 4 Torsion [N]-CA--C-[O] |==|  0.00545
USER: genes 5 Torsion [C]-N--CA-[C] |==|  0.22084
USER: genes 6 Torsion [N]-CA--C-[N] |==|  0.10000
USER: genes 7 Torsion [N]-CA--C-[O] |==|  0.88833
USER: genes 8 Torsion [N]-CA--CB-[CG] |==|  0.58128
USER: genes 9 Torsion [CA]-CB--CG-[CD1] |==|  0.58225
USER: genes 10 Torsion [N]-CA--CB-[CG] |==|  0.83818
USER: genes 11 Torsion [CA]-CB--CG-[CD2] |==|  0.72442
USER: genes 12 Torsion [O]-C--CA-[CB] |==|  0.18283
USER: genes 13 Torsion [N]-C--CA-[N] |==|  0.38026
USER: genes 14 Torsion [C]-CA--CB-[CG] |==|  0.14682
USER: genes 15 Torsion [CA]-CB--CG-[CD] |==|  0.17557
USER: genes 16 Torsion [CB]-CG--CD-[NE] |==|  0.43012
USER: genes 17 Torsion [CG]-CD--NE-[HE] |==|  0.86320
USER: genes 18 Torsion [C]-CA--N-[C] |==|  0.83580
USER: genes 19 Torsion [N]-C--CA-[CB] |==|  0.83343
ROOT
ATOM      1  C   PRO C  17     -12.495   8.128  -9.794  1.00 34.10 LIG 0.24  C 
ATOM      2 O    PRO C  17     -13.689   8.408  -9.719  1.00 31.91 LIG-0.27  OA
ATOM      3  N   LEU C  18     -11.628   8.877 -10.450  1.00 30.88 LIG-0.35  N 
ATOM      4 H    LEU C  18     -10.803   8.658 -10.553  1.00 30.88 LIG 0.16  HD
ENDROOT
BRANCH 3 5
ATOM      5  CA  LEU C  18     -11.972  10.150 -11.066  1.00 30.78 LIG 0.18  C 
BRANCH 5 6
ATOM      6  C   LEU C  18     -12.533  10.015 -12.471  1.00 33.73 LIG 0.24  C 
ATOM      7  N   PRO C  19     -13.309  11.024 -12.946  1.00 33.17 LIG-0.34  N 
ATOM      8  CA  PRO C  19     -13.824  10.967 -14.330  1.00 33.85 LIG 0.18  C 
ATOM      9  CD  PRO C  19     -13.769  12.245 -12.238  1.00 35.22 LIG 0.13  C 
ATOM     10  CB  PRO C  19     -14.880  12.077 -14.372  1.00 35.69 LIG 0.04  C 
ATOM     11  CG  PRO C  19     -14.531  13.007 -13.277  1.00 39.92 LIG 0.02  C 
ATOM     12 O    LEU C  18     -12.186   9.052 -13.159  1.00 31.40 LIG-0.27  OA
BRANCH 8 13
ATOM     13  C   PRO C  19     -12.749  11.126 -15.417  1.00 39.47 LIG 0.24  C 
ATOM     14  N   PHE C  20     -13.178  11.081 -16.679  1.00 41.20 LIG-0.35  N 
ATOM     15 H    PHE C  20     -14.008  10.977 -16.880  1.00 41.20 LIG 0.16  HD
ATOM     16 O    PRO C  19     -11.564  11.249 -15.125  1.00 36.20 LIG-0.27  OA
BRANCH 14 17
ATOM     17  CA  PHE C  20     -12.319  11.201 -17.856  1.00 43.59 LIG 0.18  C 
BRANCH 17 18
ATOM     18  C   PHE C  20     -11.626   9.853 -18.123  1.00 48.54 LIG 0.24  C 
ATOM     19  N   PRO C  21     -12.290   8.689 -17.890  1.00 46.41 LIG-0.34  N 
ATOM     20  CA  PRO C  21     -11.644   7.390 -18.197  1.00 51.72 LIG 0.17  C 
ATOM     21  CD  PRO C  21     -13.639   8.486 -17.327  1.00 49.19 LIG 0.13  C 
ATOM     22  CB  PRO C  21     -12.716   6.354 -17.822  1.00 52.56 LIG 0.04  C 
ATOM     23  CG  PRO C  21     -13.628   7.050 -16.895  1.00 54.82 LIG 0.02  C 
ATOM     24 O    PHE C  20     -10.477   9.868 -18.572  1.00 48.67 LIG-0.27  OA
BRANCH 20 25
ATOM     25  C   PRO C  21     -11.238   7.228 -19.663  1.00 87.57 LIG 0.22  C 
ATOM     26 O    PRO C  21     -11.982   7.631 -20.555  1.00 58.80 LIG-0.29  OA
ENDBRANCH 20 25
ENDBRANCH 17 18
BRANCH 17 27
ATOM     27  CB  PHE C  20     -11.282  12.328 -17.616  1.00 46.79 LIG 0.07  C 
BRANCH 27 28
ATOM     28  CG  PHE C  20     -10.774  13.079 -18.831  1.00 50.46 LIG-0.06  A 
ATOM     29  CD2 PHE C  20     -11.558  13.197 -19.976  1.00 54.33 LIG 0.01  A 
ATOM     30  CE2 PHE C  20     -11.087  13.893 -21.098  1.00 57.68 LIG 0.00  A 
ATOM     31  CZ  PHE C  20      -9.821  14.449 -21.086  1.00 55.81 LIG 0.00  A 
ATOM     32  CE1 PHE C  20      -9.026  14.329 -19.966  1.00 56.05 LIG 0.00  A 
ATOM     33  CD1 PHE C  20      -9.493  13.626 -18.849  1.00 54.84 LIG 0.01  A 
ENDBRANCH 27 28
ENDBRANCH 17 27
ENDBRANCH 14 17
ENDBRANCH 8 13
ENDBRANCH 5 6
BRANCH 5 34
ATOM     34  CB  LEU C  18     -10.728  11.034 -11.113  1.00 31.46 LIG 0.04  C 
BRANCH 34 35
ATOM     35  CG  LEU C  18     -10.071  11.334  -9.791  1.00 36.62 LIG-0.02  C 
ATOM     36  CD2 LEU C  18     -10.495  12.709  -9.299  1.00 38.91 LIG 0.01  C 
ATOM     37  CD1 LEU C  18      -8.548  11.252  -9.935  1.00 36.98 LIG 0.01  C 
ENDBRANCH 34 35
ENDBRANCH 5 34
ENDBRANCH 3 5
BRANCH 1 38
ATOM     38  CA  PRO C  17     -11.927   6.845  -9.203  1.00 33.71 LIG 0.18  C 
ATOM     39  CB  PRO C  17     -12.447   5.587  -9.906  1.00 36.04 LIG 0.04  C 
ATOM     40  CG  PRO C  17     -13.373   4.902  -8.923  1.00 41.66 LIG 0.02  C 
ATOM     41  CD  PRO C  17     -13.425   5.711  -7.662  1.00 37.74 LIG 0.13  C 
ATOM     42  N   PRO C  17     -12.261   6.615  -7.794  1.00 35.06 LIG-0.34  N 
ATOM     43  C   ARG C  16     -11.502   7.188  -6.840  1.00 37.80 LIG 0.24  C 
ATOM     44 O    ARG C  16     -10.550   7.900  -7.150  1.00 34.25 LIG-0.27  OA
BRANCH 43 45
ATOM     45  CA  ARG C  16     -11.802   6.930  -5.351  1.00 39.10 LIG 0.18  C 
BRANCH 45 46
ATOM     46  CB  ARG C  16     -12.556   8.132  -4.751  1.00 42.59 LIG 0.04  C 
BRANCH 46 47
ATOM     47  CG  ARG C  16     -13.806   8.548  -5.519  1.00 54.51 LIG 0.02  C 
BRANCH 47 48
ATOM     48  CD  ARG C  16     -14.861   7.459  -5.528  1.00 71.70 LIG 0.14  C 
BRANCH 48 49
ATOM     49  NE  ARG C  16     -16.206   8.016  -5.713  1.00 86.72 LIG-0.23  N 
ATOM     50 HE   ARG C  16     -16.435   8.676  -5.212  1.00 86.72 LIG 0.18  HD
ATOM     51  CZ  ARG C  16     -17.095   7.574  -6.598  1.00 98.48 LIG 0.67  C 
ATOM     52  NH2 ARG C  16     -18.293   8.139  -6.684  1.00 86.10 LIG-0.23  N 
ATOM     53  NH1 ARG C  16     -16.798   6.558  -7.398  1.00 81.98 LIG-0.23  N 
ATOM     54 2HH2 ARG C  16     -18.865   7.850  -7.257  1.00 86.10 LIG 0.17  HD
ATOM     55 1HH2 ARG C  16     -18.497   8.795  -6.166  1.00 86.10 LIG 0.17  HD
ATOM     56 1HH1 ARG C  16     -16.027   6.181  -7.347  1.00 81.98 LIG 0.17  HD
ATOM     57 2HH1 ARG C  16     -17.377   6.277  -7.969  1.00 81.98 LIG 0.17  HD
ENDBRANCH 48 49
ENDBRANCH 47 48
ENDBRANCH 46 47
ENDBRANCH 45 46
BRANCH 45 58
ATOM     58  N   ARG C  16     -10.545   6.697  -4.634  1.00 40.87 LIG-0.35  N 
ATOM     59  C   PRO C  15      -9.663   5.710  -4.917  1.00 47.02 LIG 0.25  C 
ATOM     60 O    PRO C  15      -9.847   4.872  -5.800  1.00 46.36 LIG-0.27  OA
ATOM     61 H    ARG C  16     -10.413   7.261  -3.998  1.00 40.87 LIG 0.16  HD
BRANCH 59 62
ATOM     62  CA  PRO C  15      -8.363   5.686  -4.110  1.00 46.56 LIG 0.35  C 
ATOM     63  N   PRO C  15      -7.423   4.644  -4.546  1.00 47.38 LIG 0.32  N 
ATOM     64  CD  PRO C  15      -6.174   5.225  -5.074  1.00 49.28 LIG 0.32  C 
ATOM     65  CG  PRO C  15      -6.140   6.582  -4.441  1.00 53.38 LIG 0.04  C 
ATOM     66  CB  PRO C  15      -7.572   6.989  -4.310  1.00 48.49 LIG 0.05  C 
ENDBRANCH 59 62
ENDBRANCH 45 58
ENDBRANCH 43 45
ENDBRANCH 1 38
TORSDOF 18
ENDMDL
MODEL 15
USER: ADFR SOLUTION from run 84
USER: SCORE 23.643877 LL:  -5.238 LR: -19.084 RR:   0.000 FEB: -13.715
USER: RMSD 12.806577
USER: SEED 83
USER: STATUS no improvement in best in 5 clusters for 5 generations
USER: GENES 20
USER: genes 0 Translation |==|  0.47098 0.48865 0.50877
USER: genes 1 Rotation |==|  0.84831 0.72664 0.73781 0.64408
USER: genes 2 Torsion [C]-N--CA-[CB] |==|  0.84133
USER: genes 3 Torsion [N]-CA--C-[N] |==|  0.39890
USER: genes 4 Torsion [N]-CA--C-[O] |==|  0.74847
USER: genes 5 Torsion [C]-N--CA-[C] |==|  0.17222
USER: genes 6 Torsion [N]-CA--C-[N] |==|  0.18269
USER: genes 7 Torsion [N]-CA--C-[O] |==|  0.85662
USER: genes 8 Torsion [N]-CA--CB-[CG] |==|  0.87641
USER: genes 9 Torsion [CA]-CB--CG-[CD1] |==|  0.77235
USER: genes 10 Torsion [N]-CA--CB-[CG] |==|  0.56091
USER: genes 11 Torsion [CA]-CB--CG-[CD2] |==|  0.73554
USER: genes 12 Torsion [O]-C--CA-[CB] |==|  0.55939
USER: genes 13 Torsion [N]-C--CA-[N] |==|  0.08280
USER: genes 14 Torsion [C]-CA--CB-[CG] |==|  0.27695
USER: genes 15 Torsion [CA]-CB--CG-[CD] |==|  0.09777
USER: genes 16 Torsion [CB]-CG--CD-[NE] |==|  0.47302
USER: genes 17 Torsion [CG]-CD--NE-[HE] |==|  0.23009
USER: genes 18 Torsion [C]-CA--N-[C] |==|  0.16973
USER: genes 19 Torsion [N]-C--CA-[CB] |==|  0.22818
ROOT
ATOM      1  C   PRO C  17     -12.135   9.148 -10.041  1.00 34.10 LIG 0.24  C 
ATOM      2 O    PRO C  17     -11.821   7.963 -10.137  1.00 31.91 LIG-0.27  OA
ATOM      3  N   LEU C  18     -12.767   9.635  -8.990  1.00 30.88 LIG-0.35  N 
ATOM      4 H    LEU C  18     -13.039  10.449  -8.942  1.00 30.88 LIG 0.16  HD
ENDROOT
BRANCH 3 5
ATOM      5  CA  LEU C  18     -13.069   8.850  -7.801  1.00 30.78 LIG 0.18  C 
BRANCH 5 6
ATOM      6  C   LEU C  18     -11.835   8.383  -7.049  1.00 33.73 LIG 0.24  C 
ATOM      7  N   PRO C  19     -11.895   8.345  -5.692  1.00 33.17 LIG-0.34  N 
ATOM      8  CA  PRO C  19     -10.741   7.836  -4.919  1.00 33.85 LIG 0.18  C 
ATOM      9  CD  PRO C  19     -13.001   8.783  -4.804  1.00 35.22 LIG 0.13  C 
ATOM     10  CB  PRO C  19     -11.059   8.248  -3.478  1.00 35.69 LIG 0.04  C 
ATOM     11  CG  PRO C  19     -12.524   8.441  -3.427  1.00 39.92 LIG 0.02  C 
ATOM     12 O    LEU C  18     -10.870   7.966  -7.693  1.00 31.40 LIG-0.27  OA
BRANCH 8 13
ATOM     13  C   PRO C  19     -10.490   6.328  -5.068  1.00 39.47 LIG 0.24  C 
ATOM     14  N   PHE C  20      -9.715   5.959  -6.089  1.00 41.20 LIG-0.35  N 
ATOM     15 H    PHE C  20      -9.368   6.528  -6.633  1.00 41.20 LIG 0.16  HD
ATOM     16 O    PRO C  19     -11.008   5.519  -4.305  1.00 36.20 LIG-0.27  OA
BRANCH 14 17
ATOM     17  CA  PHE C  20      -9.363   4.576  -6.411  1.00 43.59 LIG 0.18  C 
BRANCH 17 18
ATOM     18  C   PHE C  20     -10.642   3.787  -6.744  1.00 48.54 LIG 0.24  C 
ATOM     19  N   PRO C  21     -11.367   4.103  -7.851  1.00 46.41 LIG-0.34  N 
ATOM     20  CA  PRO C  21     -12.569   3.310  -8.203  1.00 51.72 LIG 0.17  C 
ATOM     21  CD  PRO C  21     -11.152   5.193  -8.822  1.00 49.19 LIG 0.13  C 
ATOM     22  CB  PRO C  21     -13.066   3.964  -9.503  1.00 52.56 LIG 0.04  C 
ATOM     23  CG  PRO C  21     -12.476   5.316  -9.514  1.00 54.82 LIG 0.02  C 
ATOM     24 O    PHE C  20     -10.963   2.858  -6.000  1.00 48.67 LIG-0.27  OA
BRANCH 20 25
ATOM     25  C   PRO C  21     -12.289   1.823  -8.431  1.00 87.57 LIG 0.22  C 
ATOM     26 O    PRO C  21     -11.397   1.477  -9.203  1.00 58.80 LIG-0.29  OA
ENDBRANCH 20 25
ENDBRANCH 17 18
BRANCH 17 27
ATOM     27  CB  PHE C  20      -8.614   3.949  -5.207  1.00 46.79 LIG 0.07  C 
BRANCH 27 28
ATOM     28  CG  PHE C  20      -7.540   4.786  -4.542  1.00 50.46 LIG-0.06  A 
ATOM     29  CD2 PHE C  20      -7.825   5.546  -3.411  1.00 54.33 LIG 0.01  A 
ATOM     30  CE2 PHE C  20      -6.830   6.318  -2.797  1.00 57.68 LIG 0.00  A 
ATOM     31  CZ  PHE C  20      -5.554   6.352  -3.327  1.00 55.81 LIG 0.00  A 
ATOM     32  CE1 PHE C  20      -5.257   5.616  -4.455  1.00 56.05 LIG 0.00  A 
ATOM     33  CD1 PHE C  20      -6.254   4.853  -5.074  1.00 54.84 LIG 0.01  A 
ENDBRANCH 27 28
ENDBRANCH 17 27
ENDBRANCH 14 17
ENDBRANCH 8 13
ENDBRANCH 5 6
BRANCH 5 34
ATOM     34  CB  LEU C  18     -13.893   7.630  -8.207  1.00 31.46 LIG 0.04  C 
BRANCH 34 35
ATOM     35  CG  LEU C  18     -14.720   6.991  -7.121  1.00 36.62 LIG-0.02  C 
ATOM     36  CD2 LEU C  18     -13.955   5.834  -6.497  1.00 38.91 LIG 0.01  C 
ATOM     37  CD1 LEU C  18     -16.056   6.514  -7.696  1.00 36.98 LIG 0.01  C 
ENDBRANCH 34 35
ENDBRANCH 5 34
ENDBRANCH 3 5
BRANCH 1 38
ATOM     38  CA  PRO C  17     -11.894  10.140 -11.171  1.00 33.71 LIG 0.18  C 
ATOM     39  CB  PRO C  17     -11.863  11.593 -10.687  1.00 36.04 LIG 0.04  C 
ATOM     40  CG  PRO C  17     -13.125  12.244 -11.213  1.00 41.66 LIG 0.02  C 
ATOM     41  CD  PRO C  17     -13.908  11.227 -11.988  1.00 37.74 LIG 0.13  C 
ATOM     42  N   PRO C  17     -12.923  10.146 -12.216  1.00 35.06 LIG-0.34  N 
ATOM     43  C   ARG C  16     -12.843   9.249 -13.217  1.00 37.80 LIG 0.24  C 
ATOM     44 O    ARG C  16     -11.926   8.432 -13.246  1.00 34.25 LIG-0.27  OA
BRANCH 43 45
ATOM     45  CA  ARG C  16     -13.885   9.258 -14.351  1.00 39.10 LIG 0.18  C 
BRANCH 45 46
ATOM     46  CB  ARG C  16     -13.258   8.711 -15.647  1.00 42.59 LIG 0.04  C 
BRANCH 46 47
ATOM     47  CG  ARG C  16     -13.589   7.253 -15.949  1.00 54.51 LIG 0.02  C 
BRANCH 47 48
ATOM     48  CD  ARG C  16     -14.996   6.887 -15.519  1.00 71.70 LIG 0.14  C 
BRANCH 48 49
ATOM     49  NE  ARG C  16     -15.381   5.561 -16.018  1.00 86.72 LIG-0.23  N 
ATOM     50 HE   ARG C  16     -15.126   4.876 -15.565  1.00 86.72 LIG 0.18  HD
ATOM     51  CZ  ARG C  16     -16.096   5.342 -17.118  1.00 98.48 LIG 0.67  C 
ATOM     52  NH2 ARG C  16     -16.387   4.102 -17.492  1.00 86.10 LIG-0.23  N 
ATOM     53  NH1 ARG C  16     -16.519   6.359 -17.858  1.00 81.98 LIG-0.23  N 
ATOM     54 2HH2 ARG C  16     -16.849   3.966 -18.204  1.00 86.10 LIG 0.17  HD
ATOM     55 1HH2 ARG C  16     -16.113   3.436 -17.023  1.00 86.10 LIG 0.17  HD
ATOM     56 1HH1 ARG C  16     -16.331   7.166 -17.627  1.00 81.98 LIG 0.17  HD
ATOM     57 2HH1 ARG C  16     -16.980   6.212 -18.568  1.00 81.98 LIG 0.17  HD
ENDBRANCH 48 49
ENDBRANCH 47 48
ENDBRANCH 46 47
ENDBRANCH 45 46
BRANCH 45 58
ATOM     58  N   ARG C  16     -14.375  10.626 -14.551  1.00 40.87 LIG-0.35  N 
ATOM     59  C   PRO C  15     -13.605  11.680 -14.911  1.00 47.02 LIG 0.25  C 
ATOM     60 O    PRO C  15     -12.387  11.601 -15.078  1.00 46.36 LIG-0.27  OA
ATOM     61 H    ARG C  16     -15.221  10.702 -14.414  1.00 40.87 LIG 0.16  HD
BRANCH 59 62
ATOM     62  CA  PRO C  15     -14.319  13.011 -15.155  1.00 46.56 LIG 0.35  C 
ATOM     63  N   PRO C  15     -15.665  12.857 -15.725  1.00 47.38 LIG 0.32  N 
ATOM     64  CD  PRO C  15     -16.705  13.357 -14.807  1.00 49.28 LIG 0.32  C 
ATOM     65  CG  PRO C  15     -15.952  14.313 -13.933  1.00 53.38 LIG 0.04  C 
ATOM     66  CB  PRO C  15     -14.574  13.745 -13.828  1.00 48.49 LIG 0.05  C 
ENDBRANCH 59 62
ENDBRANCH 45 58
ENDBRANCH 43 45
ENDBRANCH 1 38
TORSDOF 18
ENDMDL
MODEL 16
USER: ADFR SOLUTION from run 168
USER: SCORE 22.058172 LL:  -4.317 LR: -19.067 RR:   0.000 FEB: -13.698
USER: RMSD 1.695413
USER: SEED 167
USER: STATUS no improvement in best in 8 clusters for 5 generations
USER: GENES 20
USER: genes 0 Translation |==|  0.44519 0.43643 0.52025
USER: genes 1 Rotation |==|  0.52980 0.43301 0.53170 0.99358
USER: genes 2 Torsion [C]-N--CA-[CB] |==|  0.42872
USER: genes 3 Torsion [N]-CA--C-[N] |==|  0.41129
USER: genes 4 Torsion [N]-CA--C-[O] |==|  0.88873
USER: genes 5 Torsion [C]-N--CA-[C] |==|  0.78234
USER: genes 6 Torsion [N]-CA--C-[N] |==|  0.35908
USER: genes 7 Torsion [N]-CA--C-[O] |==|  0.87940
USER: genes 8 Torsion [N]-CA--CB-[CG] |==|  0.58396
USER: genes 9 Torsion [CA]-CB--CG-[CD1] |==|  0.44801
USER: genes 10 Torsion [N]-CA--CB-[CG] |==|  0.81969
USER: genes 11 Torsion [CA]-CB--CG-[CD2] |==|  0.74783
USER: genes 12 Torsion [O]-C--CA-[CB] |==|  0.16705
USER: genes 13 Torsion [N]-C--CA-[N] |==|  0.38333
USER: genes 14 Torsion [C]-CA--CB-[CG] |==|  0.38571
USER: genes 15 Torsion [CA]-CB--CG-[CD] |==|  0.30439
USER: genes 16 Torsion [CB]-CG--CD-[NE] |==|  0.85119
USER: genes 17 Torsion [CG]-CD--NE-[HE] |==|  0.76946
USER: genes 18 Torsion [C]-CA--N-[C] |==|  0.80643
USER: genes 19 Torsion [N]-C--CA-[CB] |==|  0.86417
ROOT
ATOM      1  C   PRO C  17     -12.600   8.208  -9.671  1.00 34.10 LIG 0.24  C 
ATOM      2 O    PRO C  17     -13.771   8.578  -9.628  1.00 31.91 LIG-0.27  OA
ATOM      3  N   LEU C  18     -11.670   8.860 -10.343  1.00 30.88 LIG-0.35  N 
ATOM      4 H    LEU C  18     -10.863   8.576 -10.422  1.00 30.88 LIG 0.16  HD
ENDROOT
BRANCH 3 5
ATOM      5  CA  LEU C  18     -11.910  10.127 -11.019  1.00 30.78 LIG 0.18  C 
BRANCH 5 6
ATOM      6  C   LEU C  18     -12.503   9.973 -12.409  1.00 33.73 LIG 0.24  C 
ATOM      7  N   PRO C  19     -13.345  10.943 -12.852  1.00 33.17 LIG-0.34  N 
ATOM      8  CA  PRO C  19     -13.896  10.870 -14.222  1.00 33.85 LIG 0.18  C 
ATOM      9  CD  PRO C  19     -13.849  12.132 -12.120  1.00 35.22 LIG 0.13  C 
ATOM     10  CB  PRO C  19     -15.011  11.921 -14.223  1.00 35.69 LIG 0.04  C 
ATOM     11  CG  PRO C  19     -14.680  12.860 -13.130  1.00 39.92 LIG 0.02  C 
ATOM     12 O    LEU C  18     -12.126   9.035 -13.115  1.00 31.40 LIG-0.27  OA
BRANCH 8 13
ATOM     13  C   PRO C  19     -12.863  11.093 -15.337  1.00 39.47 LIG 0.24  C 
ATOM     14  N   PHE C  20     -12.956  10.285 -16.395  1.00 41.20 LIG-0.35  N 
ATOM     15 H    PHE C  20     -13.560   9.677 -16.457  1.00 41.20 LIG 0.16  HD
ATOM     16 O    PRO C  19     -11.988  11.946 -15.231  1.00 36.20 LIG-0.27  OA
BRANCH 14 17
ATOM     17  CA  PHE C  20     -12.066  10.327 -17.555  1.00 43.59 LIG 0.18  C 
BRANCH 17 18
ATOM     18  C   PHE C  20     -12.478  11.492 -18.473  1.00 48.54 LIG 0.24  C 
ATOM     19  N   PRO C  21     -11.545  12.386 -18.897  1.00 46.41 LIG-0.34  N 
ATOM     20  CA  PRO C  21     -11.929  13.477 -19.825  1.00 51.72 LIG 0.17  C 
ATOM     21  CD  PRO C  21     -10.113  12.468 -18.551  1.00 49.19 LIG 0.13  C 
ATOM     22  CB  PRO C  21     -10.608  14.226 -20.069  1.00 52.56 LIG 0.04  C 
ATOM     23  CG  PRO C  21      -9.737  13.868 -18.933  1.00 54.82 LIG 0.02  C 
ATOM     24 O    PHE C  20     -13.657  11.567 -18.825  1.00 48.67 LIG-0.27  OA
BRANCH 20 25
ATOM     25  C   PRO C  21     -12.516  12.989 -21.151  1.00 87.57 LIG 0.22  C 
ATOM     26 O    PRO C  21     -11.993  12.048 -21.744  1.00 58.80 LIG-0.29  OA
ENDBRANCH 20 25
ENDBRANCH 17 18
BRANCH 17 27
ATOM     27  CB  PHE C  20     -12.141   8.970 -18.301  1.00 46.79 LIG 0.07  C 
BRANCH 27 28
ATOM     28  CG  PHE C  20     -10.899   8.510 -19.039  1.00 50.46 LIG-0.06  A 
ATOM     29  CD2 PHE C  20      -9.916   9.421 -19.417  1.00 54.33 LIG 0.01  A 
ATOM     30  CE2 PHE C  20      -8.768   8.994 -20.098  1.00 57.68 LIG 0.00  A 
ATOM     31  CZ  PHE C  20      -8.613   7.660 -20.425  1.00 55.81 LIG 0.00  A 
ATOM     32  CE1 PHE C  20      -9.583   6.747 -20.071  1.00 56.05 LIG 0.00  A 
ATOM     33  CD1 PHE C  20     -10.735   7.175 -19.399  1.00 54.84 LIG 0.01  A 
ENDBRANCH 27 28
ENDBRANCH 17 27
ENDBRANCH 14 17
ENDBRANCH 8 13
ENDBRANCH 5 6
BRANCH 5 34
ATOM     34  CB  LEU C  18     -10.593  10.892 -11.126  1.00 31.46 LIG 0.04  C 
BRANCH 34 35
ATOM     35  CG  LEU C  18      -9.969  11.333  -9.827  1.00 36.62 LIG-0.02  C 
ATOM     36  CD2 LEU C  18     -10.460  12.724  -9.459  1.00 38.91 LIG 0.01  C 
ATOM     37  CD1 LEU C  18      -8.442  11.308  -9.947  1.00 36.98 LIG 0.01  C 
ENDBRANCH 34 35
ENDBRANCH 5 34
ENDBRANCH 3 5
BRANCH 1 38
ATOM     38  CA  PRO C  17     -12.138   6.913  -9.015  1.00 33.71 LIG 0.18  C 
ATOM     39  CB  PRO C  17     -12.845   5.677  -9.581  1.00 36.04 LIG 0.04  C 
ATOM     40  CG  PRO C  17     -13.768   5.178  -8.488  1.00 41.66 LIG 0.02  C 
ATOM     41  CD  PRO C  17     -13.638   6.078  -7.296  1.00 37.74 LIG 0.13  C 
ATOM     42  N   PRO C  17     -12.392   6.827  -7.574  1.00 35.06 LIG-0.34  N 
ATOM     43  C   ARG C  16     -11.507   7.375  -6.720  1.00 37.80 LIG 0.24  C 
ATOM     44 O    ARG C  16     -10.506   7.946  -7.146  1.00 34.25 LIG-0.27  OA
BRANCH 43 45
ATOM     45  CA  ARG C  16     -11.725   7.263  -5.199  1.00 39.10 LIG 0.18  C 
BRANCH 45 46
ATOM     46  CB  ARG C  16     -12.320   8.576  -4.655  1.00 42.59 LIG 0.04  C 
BRANCH 46 47
ATOM     47  CG  ARG C  16     -13.418   8.393  -3.612  1.00 54.51 LIG 0.02  C 
BRANCH 47 48
ATOM     48  CD  ARG C  16     -12.963   8.806  -2.226  1.00 71.70 LIG 0.14  C 
BRANCH 48 49
ATOM     49  NE  ARG C  16     -11.723   8.124  -1.842  1.00 86.72 LIG-0.23  N 
ATOM     50 HE   ARG C  16     -11.789   7.329  -1.519  1.00 86.72 LIG 0.18  HD
ATOM     51  CZ  ARG C  16     -10.503   8.643  -1.957  1.00 98.48 LIG 0.67  C 
ATOM     52  NH2 ARG C  16      -9.440   7.948  -1.573  1.00 86.10 LIG-0.23  N 
ATOM     53  NH1 ARG C  16     -10.338   9.864  -2.449  1.00 81.98 LIG-0.23  N 
ATOM     54 2HH2 ARG C  16      -8.654   8.288  -1.649  1.00 86.10 LIG 0.17  HD
ATOM     55 1HH2 ARG C  16      -9.537   7.158  -1.248  1.00 86.10 LIG 0.17  HD
ATOM     56 1HH1 ARG C  16     -11.021  10.325  -2.695  1.00 81.98 LIG 0.17  HD
ATOM     57 2HH1 ARG C  16      -9.547  10.195  -2.521  1.00 81.98 LIG 0.17  HD
ENDBRANCH 48 49
ENDBRANCH 47 48
ENDBRANCH 46 47
ENDBRANCH 45 46
BRANCH 45 58
ATOM     58  N   ARG C  16     -10.448   6.963  -4.544  1.00 40.87 LIG-0.35  N 
ATOM     59  C   PRO C  15      -9.784   5.788  -4.643  1.00 47.02 LIG 0.25  C 
ATOM     60 O    PRO C  15     -10.210   4.822  -5.277  1.00 46.36 LIG-0.27  OA
ATOM     61 H    ARG C  16     -10.149   7.621  -4.078  1.00 40.87 LIG 0.16  HD
BRANCH 59 62
ATOM     62  CA  PRO C  15      -8.420   5.700  -3.956  1.00 46.56 LIG 0.35  C 
ATOM     63  N   PRO C  15      -7.617   4.550  -4.395  1.00 47.38 LIG 0.32  N 
ATOM     64  CD  PRO C  15      -6.380   4.978  -5.074  1.00 49.28 LIG 0.32  C 
ATOM     65  CG  PRO C  15      -6.170   6.366  -4.551  1.00 53.38 LIG 0.04  C 
ATOM     66  CB  PRO C  15      -7.544   6.909  -4.324  1.00 48.49 LIG 0.05  C 
ENDBRANCH 59 62
ENDBRANCH 45 58
ENDBRANCH 43 45
ENDBRANCH 1 38
TORSDOF 18
ENDMDL
MODEL 17
USER: ADFR SOLUTION from run 94
USER: SCORE 22.491840 LL:  -4.637 LR: -19.058 RR:   0.000 FEB: -13.688
USER: RMSD 13.859344
USER: SEED 93
USER: STATUS no improvement in best in 17 clusters for 5 generations
USER: GENES 20
USER: genes 0 Translation |==|  0.44157 0.48303 0.50093
USER: genes 1 Rotation |==|  0.97465 0.39276 0.38818 0.52646
USER: genes 2 Torsion [C]-N--CA-[CB] |==|  0.57802
USER: genes 3 Torsion [N]-CA--C-[N] |==|  0.35057
USER: genes 4 Torsion [N]-CA--C-[O] |==|  0.89210
USER: genes 5 Torsion [C]-N--CA-[C] |==|  0.60615
USER: genes 6 Torsion [N]-CA--C-[N] |==|  0.14965
USER: genes 7 Torsion [N]-CA--C-[O] |==|  0.97846
USER: genes 8 Torsion [N]-CA--CB-[CG] |==|  0.78444
USER: genes 9 Torsion [CA]-CB--CG-[CD1] |==|  0.19326
USER: genes 10 Torsion [N]-CA--CB-[CG] |==|  0.64565
USER: genes 11 Torsion [CA]-CB--CG-[CD2] |==|  0.02014
USER: genes 12 Torsion [O]-C--CA-[CB] |==|  0.21511
USER: genes 13 Torsion [N]-C--CA-[N] |==|  0.29447
USER: genes 14 Torsion [C]-CA--CB-[CG] |==|  0.60123
USER: genes 15 Torsion [CA]-CB--CG-[CD] |==|  0.36739
USER: genes 16 Torsion [CB]-CG--CD-[NE] |==|  0.25196
USER: genes 17 Torsion [CG]-CD--NE-[HE] |==|  0.69789
USER: genes 18 Torsion [C]-CA--N-[C] |==|  0.80677
USER: genes 19 Torsion [N]-C--CA-[CB] |==|  0.32040
ROOT
ATOM      1  C   PRO C  17     -12.665   9.047 -10.294  1.00 34.10 LIG 0.24  C 
ATOM      2 O    PRO C  17     -13.863   9.024 -10.021  1.00 31.91 LIG-0.27  OA
ATOM      3  N   LEU C  18     -11.773   8.316  -9.651  1.00 30.88 LIG-0.35  N 
ATOM      4 H    LEU C  18     -10.929   8.370  -9.800  1.00 30.88 LIG 0.16  HD
ENDROOT
BRANCH 3 5
ATOM      5  CA  LEU C  18     -12.123   7.343  -8.627  1.00 30.78 LIG 0.18  C 
BRANCH 5 6
ATOM      6  C   LEU C  18     -13.378   7.701  -7.849  1.00 33.73 LIG 0.24  C 
ATOM      7  N   PRO C  19     -14.369   6.774  -7.782  1.00 33.17 LIG-0.34  N 
ATOM      8  CA  PRO C  19     -15.582   7.052  -6.983  1.00 33.85 LIG 0.18  C 
ATOM      9  CD  PRO C  19     -14.440   5.448  -8.445  1.00 35.22 LIG 0.13  C 
ATOM     10  CB  PRO C  19     -16.559   5.952  -7.412  1.00 35.69 LIG 0.04  C 
ATOM     11  CG  PRO C  19     -15.724   4.858  -7.953  1.00 39.92 LIG 0.02  C 
ATOM     12 O    LEU C  18     -13.410   8.767  -7.232  1.00 31.40 LIG-0.27  OA
BRANCH 8 13
ATOM     13  C   PRO C  19     -15.351   7.087  -5.465  1.00 39.47 LIG 0.24  C 
ATOM     14  N   PHE C  20     -15.995   8.044  -4.794  1.00 41.20 LIG-0.35  N 
ATOM     15 H    PHE C  20     -16.515   8.608  -5.183  1.00 41.20 LIG 0.16  HD
ATOM     16 O    PRO C  19     -14.588   6.296  -4.919  1.00 36.20 LIG-0.27  OA
BRANCH 14 17
ATOM     17  CA  PHE C  20     -15.903   8.255  -3.350  1.00 43.59 LIG 0.18  C 
BRANCH 17 18
ATOM     18  C   PHE C  20     -17.286   8.656  -2.804  1.00 48.54 LIG 0.24  C 
ATOM     19  N   PRO C  21     -18.369   7.874  -3.055  1.00 46.41 LIG-0.34  N 
ATOM     20  CA  PRO C  21     -19.691   8.229  -2.484  1.00 51.72 LIG 0.17  C 
ATOM     21  CD  PRO C  21     -18.461   6.650  -3.874  1.00 49.19 LIG 0.13  C 
ATOM     22  CB  PRO C  21     -20.613   7.101  -2.976  1.00 52.56 LIG 0.04  C 
ATOM     23  CG  PRO C  21     -19.930   6.516  -4.145  1.00 54.82 LIG 0.02  C 
ATOM     24 O    PHE C  20     -17.366   9.679  -2.119  1.00 48.67 LIG-0.27  OA
BRANCH 20 25
ATOM     25  C   PRO C  21     -19.710   8.303  -0.956  1.00 87.57 LIG 0.22  C 
ATOM     26 O    PRO C  21     -18.728   7.939  -0.312  1.00 58.80 LIG-0.29  OA
ENDBRANCH 20 25
ENDBRANCH 17 18
BRANCH 17 27
ATOM     27  CB  PHE C  20     -14.846   9.352  -3.063  1.00 46.79 LIG 0.07  C 
BRANCH 27 28
ATOM     28  CG  PHE C  20     -13.386   8.951  -3.141  1.00 50.46 LIG-0.06  A 
ATOM     29  CD2 PHE C  20     -12.590   8.930  -2.000  1.00 54.33 LIG 0.01  A 
ATOM     30  CE2 PHE C  20     -11.241   8.558  -2.074  1.00 57.68 LIG 0.00  A 
ATOM     31  CZ  PHE C  20     -10.679   8.232  -3.295  1.00 55.81 LIG 0.00  A 
ATOM     32  CE1 PHE C  20     -11.450   8.261  -4.437  1.00 56.05 LIG 0.00  A 
ATOM     33  CD1 PHE C  20     -12.795   8.642  -4.364  1.00 54.84 LIG 0.01  A 
ENDBRANCH 27 28
ENDBRANCH 17 27
ENDBRANCH 14 17
ENDBRANCH 8 13
ENDBRANCH 5 6
BRANCH 5 34
ATOM     34  CB  LEU C  18     -10.957   7.209  -7.649  1.00 31.46 LIG 0.04  C 
BRANCH 34 35
ATOM     35  CG  LEU C  18     -10.459   5.810  -7.391  1.00 36.62 LIG-0.02  C 
ATOM     36  CD2 LEU C  18     -11.145   4.832  -8.331  1.00 38.91 LIG 0.01  C 
ATOM     37  CD1 LEU C  18     -10.710   5.429  -5.929  1.00 36.98 LIG 0.01  C 
ENDBRANCH 34 35
ENDBRANCH 5 34
ENDBRANCH 3 5
BRANCH 1 38
ATOM     38  CA  PRO C  17     -12.095   9.987 -11.347  1.00 33.71 LIG 0.18  C 
ATOM     39  CB  PRO C  17     -11.953  11.427 -10.842  1.00 36.04 LIG 0.04  C 
ATOM     40  CG  PRO C  17     -13.002  12.239 -11.572  1.00 41.66 LIG 0.02  C 
ATOM     41  CD  PRO C  17     -13.766  11.332 -12.489  1.00 37.74 LIG 0.13  C 
ATOM     42  N   PRO C  17     -12.912  10.125 -12.557  1.00 35.06 LIG-0.34  N 
ATOM     43  C   ARG C  16     -12.779   9.217 -13.542  1.00 37.80 LIG 0.24  C 
ATOM     44 O    ARG C  16     -11.991   8.282 -13.423  1.00 34.25 LIG-0.27  OA
BRANCH 43 45
ATOM     45  CA  ARG C  16     -13.593   9.360 -14.843  1.00 39.10 LIG 0.18  C 
BRANCH 45 46
ATOM     46  CB  ARG C  16     -14.250   8.014 -15.203  1.00 42.59 LIG 0.04  C 
BRANCH 46 47
ATOM     47  CG  ARG C  16     -14.311   7.714 -16.697  1.00 54.51 LIG 0.02  C 
BRANCH 47 48
ATOM     48  CD  ARG C  16     -13.833   6.311 -17.018  1.00 71.70 LIG 0.14  C 
BRANCH 48 49
ATOM     49  NE  ARG C  16     -14.942   5.350 -17.003  1.00 86.72 LIG-0.23  N 
ATOM     50 HE   ARG C  16     -14.972   4.788 -16.353  1.00 86.72 LIG 0.18  HD
ATOM     51  CZ  ARG C  16     -15.904   5.286 -17.920  1.00 98.48 LIG 0.67  C 
ATOM     52  NH2 ARG C  16     -16.862   4.373 -17.823  1.00 86.10 LIG-0.23  N 
ATOM     53  NH1 ARG C  16     -15.911   6.129 -18.945  1.00 81.98 LIG-0.23  N 
ATOM     54 2HH2 ARG C  16     -17.481   4.335 -18.419  1.00 86.10 LIG 0.17  HD
ATOM     55 1HH2 ARG C  16     -16.863   3.819 -17.166  1.00 86.10 LIG 0.17  HD
ATOM     56 1HH1 ARG C  16     -15.291   6.721 -19.020  1.00 81.98 LIG 0.17  HD
ATOM     57 2HH1 ARG C  16     -16.535   6.083 -19.534  1.00 81.98 LIG 0.17  HD
ENDBRANCH 48 49
ENDBRANCH 47 48
ENDBRANCH 46 47
ENDBRANCH 45 46
BRANCH 45 58
ATOM     58  N   ARG C  16     -12.709   9.809 -15.923  1.00 40.87 LIG-0.35  N 
ATOM     59  C   PRO C  15     -12.153  11.040 -16.008  1.00 47.02 LIG 0.25  C 
ATOM     60 O    PRO C  15     -12.364  11.935 -15.188  1.00 46.36 LIG-0.27  OA
ATOM     61 H    ARG C  16     -12.571   9.202 -16.517  1.00 40.87 LIG 0.16  HD
BRANCH 59 62
ATOM     62  CA  PRO C  15     -11.187  11.289 -17.168  1.00 46.56 LIG 0.35  C 
ATOM     63  N   PRO C  15     -10.997  10.115 -18.032  1.00 47.38 LIG 0.32  N 
ATOM     64  CD  PRO C  15     -11.482  10.365 -19.402  1.00 49.28 LIG 0.32  C 
ATOM     65  CG  PRO C  15     -11.450  11.859 -19.506  1.00 53.38 LIG 0.04  C 
ATOM     66  CB  PRO C  15     -11.749  12.352 -18.127  1.00 48.49 LIG 0.05  C 
ENDBRANCH 59 62
ENDBRANCH 45 58
ENDBRANCH 43 45
ENDBRANCH 1 38
TORSDOF 18
ENDMDL
MODEL 18
USER: ADFR SOLUTION from run 104
USER: SCORE 22.489986 LL:  -4.223 LR: -19.007 RR:   0.000 FEB: -13.637
USER: RMSD 12.886608
USER: SEED 103
USER: STATUS no improvement in best in 10 clusters for 5 generations
USER: GENES 20
USER: genes 0 Translation |==|  0.41241 0.65697 0.37556
USER: genes 1 Rotation |==|  0.61246 0.90207 0.74886 0.61729
USER: genes 2 Torsion [C]-N--CA-[CB] |==|  0.55001
USER: genes 3 Torsion [N]-CA--C-[N] |==|  0.32473
USER: genes 4 Torsion [N]-CA--C-[O] |==|  0.03946
USER: genes 5 Torsion [C]-N--CA-[C] |==|  0.71315
USER: genes 6 Torsion [N]-CA--C-[N] |==|  0.34106
USER: genes 7 Torsion [N]-CA--C-[O] |==|  0.44496
USER: genes 8 Torsion [N]-CA--CB-[CG] |==|  0.71025
USER: genes 9 Torsion [CA]-CB--CG-[CD1] |==|  0.53195
USER: genes 10 Torsion [N]-CA--CB-[CG] |==|  0.03189
USER: genes 11 Torsion [CA]-CB--CG-[CD2] |==|  0.55153
USER: genes 12 Torsion [O]-C--CA-[CB] |==|  0.55230
USER: genes 13 Torsion [N]-C--CA-[N] |==|  0.45235
USER: genes 14 Torsion [C]-CA--CB-[CG] |==|  0.45178
USER: genes 15 Torsion [CA]-CB--CG-[CD] |==|  0.71586
USER: genes 16 Torsion [CB]-CG--CD-[NE] |==|  0.80206
USER: genes 17 Torsion [CG]-CD--NE-[HE] |==|  0.14623
USER: genes 18 Torsion [C]-CA--N-[C] |==|  0.55948
USER: genes 19 Torsion [N]-C--CA-[CB] |==|  0.80615
ROOT
ATOM      1  C   PRO C  17     -13.190  12.178 -14.337  1.00 34.10 LIG 0.24  C 
ATOM      2 O    PRO C  17     -12.103  11.960 -13.805  1.00 31.91 LIG-0.27  OA
ATOM      3  N   LEU C  18     -14.329  12.145 -13.671  1.00 30.88 LIG-0.35  N 
ATOM      4 H    LEU C  18     -15.095  12.241 -14.049  1.00 30.88 LIG 0.16  HD
ENDROOT
BRANCH 3 5
ATOM      5  CA  LEU C  18     -14.411  11.945 -12.232  1.00 30.78 LIG 0.18  C 
BRANCH 5 6
ATOM      6  C   LEU C  18     -13.436  10.906 -11.705  1.00 33.73 LIG 0.24  C 
ATOM      7  N   PRO C  19     -12.479  11.318 -10.832  1.00 33.17 LIG-0.34  N 
ATOM      8  CA  PRO C  19     -11.549  10.332 -10.242  1.00 33.85 LIG 0.18  C 
ATOM      9  CD  PRO C  19     -12.189  12.697 -10.364  1.00 35.22 LIG 0.13  C 
ATOM     10  CB  PRO C  19     -10.461  11.199  -9.598  1.00 35.69 LIG 0.04  C 
ATOM     11  CG  PRO C  19     -11.081  12.522  -9.373  1.00 39.92 LIG 0.02  C 
ATOM     12 O    LEU C  18     -13.608   9.723 -12.006  1.00 31.40 LIG-0.27  OA
BRANCH 8 13
ATOM     13  C   PRO C  19     -12.199   9.356  -9.250  1.00 39.47 LIG 0.24  C 
ATOM     14  N   PHE C  20     -11.363   8.626  -8.510  1.00 41.20 LIG-0.35  N 
ATOM     15 H    PHE C  20     -10.508   8.697  -8.575  1.00 41.20 LIG 0.16  HD
ATOM     16 O    PRO C  19     -13.418   9.240  -9.179  1.00 36.20 LIG-0.27  OA
BRANCH 14 17
ATOM     17  CA  PHE C  20     -11.778   7.635  -7.518  1.00 43.59 LIG 0.18  C 
BRANCH 17 18
ATOM     18  C   PHE C  20     -11.611   8.225  -6.105  1.00 48.54 LIG 0.24  C 
ATOM     19  N   PRO C  21     -12.678   8.291  -5.266  1.00 46.41 LIG-0.34  N 
ATOM     20  CA  PRO C  21     -12.507   8.808  -3.887  1.00 51.72 LIG 0.17  C 
ATOM     21  CD  PRO C  21     -14.084   7.923  -5.520  1.00 49.19 LIG 0.13  C 
ATOM     22  CB  PRO C  21     -13.916   8.693  -3.280  1.00 52.56 LIG 0.04  C 
ATOM     23  CG  PRO C  21     -14.836   8.627  -4.431  1.00 54.82 LIG 0.02  C 
ATOM     24 O    PHE C  20     -10.488   8.602  -5.762  1.00 48.67 LIG-0.27  OA
BRANCH 20 25
ATOM     25  C   PRO C  21     -11.501   8.021  -3.046  1.00 87.57 LIG 0.22  C 
ATOM     26 O    PRO C  21     -10.999   8.535  -2.048  1.00 58.80 LIG-0.29  OA
ENDBRANCH 20 25
ENDBRANCH 17 18
BRANCH 17 27
ATOM     27  CB  PHE C  20     -10.926   6.351  -7.694  1.00 46.79 LIG 0.07  C 
BRANCH 27 28
ATOM     28  CG  PHE C  20     -11.589   5.161  -8.360  1.00 50.46 LIG-0.06  A 
ATOM     29  CD2 PHE C  20     -12.840   5.284  -8.959  1.00 54.33 LIG 0.01  A 
ATOM     30  CE2 PHE C  20     -13.450   4.182  -9.574  1.00 57.68 LIG 0.00  A 
ATOM     31  CZ  PHE C  20     -12.823   2.950  -9.569  1.00 55.81 LIG 0.00  A 
ATOM     32  CE1 PHE C  20     -11.590   2.808  -8.968  1.00 56.05 LIG 0.00  A 
ATOM     33  CD1 PHE C  20     -10.985   3.906  -8.344  1.00 54.84 LIG 0.01  A 
ENDBRANCH 27 28
ENDBRANCH 17 27
ENDBRANCH 14 17
ENDBRANCH 8 13
ENDBRANCH 5 6
BRANCH 5 34
ATOM     34  CB  LEU C  18     -15.831  11.520 -11.868  1.00 31.46 LIG 0.04  C 
BRANCH 34 35
ATOM     35  CG  LEU C  18     -16.730  11.140 -13.016  1.00 36.62 LIG-0.02  C 
ATOM     36  CD2 LEU C  18     -18.185  11.189 -12.576  1.00 38.91 LIG 0.01  C 
ATOM     37  CD1 LEU C  18     -16.362   9.745 -13.528  1.00 36.98 LIG 0.01  C 
ENDBRANCH 34 35
ENDBRANCH 5 34
ENDBRANCH 3 5
BRANCH 1 38
ATOM     38  CA  PRO C  17     -13.319  12.423 -15.834  1.00 33.71 LIG 0.18  C 
ATOM     39  CB  PRO C  17     -14.636  13.110 -16.211  1.00 36.04 LIG 0.04  C 
ATOM     40  CG  PRO C  17     -15.466  12.071 -16.934  1.00 41.66 LIG 0.02  C 
ATOM     41  CD  PRO C  17     -14.691  10.789 -16.996  1.00 37.74 LIG 0.13  C 
ATOM     42  N   PRO C  17     -13.314  11.212 -16.661  1.00 35.06 LIG-0.34  N 
ATOM     43  C   ARG C  16     -12.134  10.674 -17.024  1.00 37.80 LIG 0.24  C 
ATOM     44 O    ARG C  16     -11.079  11.188 -16.660  1.00 34.25 LIG-0.27  OA
BRANCH 43 45
ATOM     45  CA  ARG C  16     -12.096   9.426 -17.927  1.00 39.10 LIG 0.18  C 
BRANCH 45 46
ATOM     46  CB  ARG C  16     -12.472   8.175 -17.111  1.00 42.59 LIG 0.04  C 
BRANCH 46 47
ATOM     47  CG  ARG C  16     -12.873   6.965 -17.950  1.00 54.51 LIG 0.02  C 
BRANCH 47 48
ATOM     48  CD  ARG C  16     -14.376   6.767 -17.984  1.00 71.70 LIG 0.14  C 
BRANCH 48 49
ATOM     49  NE  ARG C  16     -14.885   6.297 -16.691  1.00 86.72 LIG-0.23  N 
ATOM     50 HE   ARG C  16     -14.673   6.750 -15.991  1.00 86.72 LIG 0.18  HD
ATOM     51  CZ  ARG C  16     -15.650   5.221 -16.521  1.00 98.48 LIG 0.67  C 
ATOM     52  NH2 ARG C  16     -16.054   4.871 -15.307  1.00 86.10 LIG-0.23  N 
ATOM     53  NH1 ARG C  16     -16.009   4.482 -17.563  1.00 81.98 LIG-0.23  N 
ATOM     54 2HH2 ARG C  16     -16.548   4.175 -15.202  1.00 86.10 LIG 0.17  HD
ATOM     55 1HH2 ARG C  16     -15.821   5.339 -14.624  1.00 86.10 LIG 0.17  HD
ATOM     56 1HH1 ARG C  16     -15.748   4.698 -18.354  1.00 81.98 LIG 0.17  HD
ATOM     57 2HH1 ARG C  16     -16.504   3.789 -17.448  1.00 81.98 LIG 0.17  HD
ENDBRANCH 48 49
ENDBRANCH 47 48
ENDBRANCH 46 47
ENDBRANCH 45 46
BRANCH 45 58
ATOM     58  N   ARG C  16     -10.755   9.284 -18.504  1.00 40.87 LIG-0.35  N 
ATOM     59  C   PRO C  15     -10.466   8.582 -19.625  1.00 47.02 LIG 0.25  C 
ATOM     60 O    PRO C  15     -11.309   7.954 -20.266  1.00 46.36 LIG-0.27  OA
ATOM     61 H    ARG C  16     -10.151   9.698 -18.054  1.00 40.87 LIG 0.16  HD
BRANCH 59 62
ATOM     62  CA  PRO C  15      -9.017   8.626 -20.118  1.00 46.56 LIG 0.35  C 
ATOM     63  N   PRO C  15      -8.761   7.736 -21.260  1.00 47.38 LIG 0.32  N 
ATOM     64  CD  PRO C  15      -8.377   8.496 -22.464  1.00 49.28 LIG 0.32  C 
ATOM     65  CG  PRO C  15      -7.863   9.785 -21.902  1.00 53.38 LIG 0.04  C 
ATOM     66  CB  PRO C  15      -8.669  10.020 -20.665  1.00 48.49 LIG 0.05  C 
ENDBRANCH 59 62
ENDBRANCH 45 58
ENDBRANCH 43 45
ENDBRANCH 1 38
TORSDOF 18
ENDMDL
MODEL 19
USER: ADFR SOLUTION from run 50
USER: SCORE 22.713761 LL:  -4.539 LR: -18.998 RR:   0.000 FEB: -13.629
USER: RMSD 13.155526
USER: SEED 49
USER: STATUS no improvement in best in 4 clusters for 5 generations
USER: GENES 20
USER: genes 0 Translation |==|  0.42226 0.63353 0.46542
USER: genes 1 Rotation |==|  0.85463 0.43239 0.21628 0.69791
USER: genes 2 Torsion [C]-N--CA-[CB] |==|  0.76280
USER: genes 3 Torsion [N]-CA--C-[N] |==|  0.19122
USER: genes 4 Torsion [N]-CA--C-[O] |==|  0.07731
USER: genes 5 Torsion [C]-N--CA-[C] |==|  0.16111
USER: genes 6 Torsion [N]-CA--C-[N] |==|  0.14992
USER: genes 7 Torsion [N]-CA--C-[O] |==|  0.83114
USER: genes 8 Torsion [N]-CA--CB-[CG] |==|  0.49505
USER: genes 9 Torsion [CA]-CB--CG-[CD1] |==|  0.68168
USER: genes 10 Torsion [N]-CA--CB-[CG] |==|  0.64175
USER: genes 11 Torsion [CA]-CB--CG-[CD2] |==|  0.94980
USER: genes 12 Torsion [O]-C--CA-[CB] |==|  0.10053
USER: genes 13 Torsion [N]-C--CA-[N] |==|  0.12193
USER: genes 14 Torsion [C]-CA--CB-[CG] |==|  0.50751
USER: genes 15 Torsion [CA]-CB--CG-[CD] |==|  0.32584
USER: genes 16 Torsion [CB]-CG--CD-[NE] |==|  0.57307
USER: genes 17 Torsion [CG]-CD--NE-[HE] |==|  0.30313
USER: genes 18 Torsion [C]-CA--N-[C] |==|  0.62800
USER: genes 19 Torsion [N]-C--CA-[CB] |==|  0.92369
ROOT
ATOM      1  C   PRO C  17     -13.012  11.756 -11.439  1.00 34.10 LIG 0.24  C 
ATOM      2 O    PRO C  17     -13.482  11.974 -10.324  1.00 31.91 LIG-0.27  OA
ATOM      3  N   LEU C  18     -11.765  11.365 -11.622  1.00 30.88 LIG-0.35  N 
ATOM      4 H    LEU C  18     -11.416  11.265 -12.401  1.00 30.88 LIG 0.16  HD
ENDROOT
BRANCH 3 5
ATOM      5  CA  LEU C  18     -10.851  11.061 -10.531  1.00 30.78 LIG 0.18  C 
BRANCH 5 6
ATOM      6  C   LEU C  18     -11.522  10.392  -9.343  1.00 33.73 LIG 0.24  C 
ATOM      7  N   PRO C  19     -11.979   9.123  -9.503  1.00 33.17 LIG-0.34  N 
ATOM      8  CA  PRO C  19     -12.581   8.408  -8.358  1.00 33.85 LIG 0.18  C 
ATOM      9  CD  PRO C  19     -11.990   8.294 -10.735  1.00 35.22 LIG 0.13  C 
ATOM     10  CB  PRO C  19     -13.243   7.185  -8.999  1.00 35.69 LIG 0.04  C 
ATOM     11  CG  PRO C  19     -12.549   6.980 -10.289  1.00 39.92 LIG 0.02  C 
ATOM     12 O    LEU C  18     -11.537  10.982  -8.261  1.00 31.40 LIG-0.27  OA
BRANCH 8 13
ATOM     13  C   PRO C  19     -11.588   8.035  -7.247  1.00 39.47 LIG 0.24  C 
ATOM     14  N   PHE C  20     -11.913   6.981  -6.496  1.00 41.20 LIG-0.35  N 
ATOM     15 H    PHE C  20     -12.633   6.528  -6.626  1.00 41.20 LIG 0.16  HD
ATOM     16 O    PRO C  19     -10.575   8.699  -7.050  1.00 36.20 LIG-0.27  OA
BRANCH 14 17
ATOM     17  CA  PHE C  20     -11.112   6.469  -5.385  1.00 43.59 LIG 0.18  C 
BRANCH 17 18
ATOM     18  C   PHE C  20     -10.916   7.584  -4.341  1.00 48.54 LIG 0.24  C 
ATOM     19  N   PRO C  21     -11.995   8.232  -3.827  1.00 46.41 LIG-0.34  N 
ATOM     20  CA  PRO C  21     -11.812   9.267  -2.782  1.00 51.72 LIG 0.17  C 
ATOM     21  CD  PRO C  21     -13.422   8.078  -4.171  1.00 49.19 LIG 0.13  C 
ATOM     22  CB  PRO C  21     -13.247   9.721  -2.465  1.00 52.56 LIG 0.04  C 
ATOM     23  CG  PRO C  21     -14.051   9.330  -3.639  1.00 54.82 LIG 0.02  C 
ATOM     24 O    PHE C  20      -9.767   7.843  -3.975  1.00 48.67 LIG-0.27  OA
BRANCH 20 25
ATOM     25  C   PRO C  21     -11.124   8.758  -1.514  1.00 87.57 LIG 0.22  C 
ATOM     26 O    PRO C  21     -11.642   7.860  -0.853  1.00 58.80 LIG-0.29  OA
ENDBRANCH 20 25
ENDBRANCH 17 18
BRANCH 17 27
ATOM     27  CB  PHE C  20      -9.751   5.964  -5.929  1.00 46.79 LIG 0.07  C 
BRANCH 27 28
ATOM     28  CG  PHE C  20      -8.753   5.429  -4.922  1.00 50.46 LIG-0.06  A 
ATOM     29  CD2 PHE C  20      -9.042   4.300  -4.161  1.00 54.33 LIG 0.01  A 
ATOM     30  CE2 PHE C  20      -8.117   3.806  -3.231  1.00 57.68 LIG 0.00  A 
ATOM     31  CZ  PHE C  20      -6.912   4.456  -3.042  1.00 55.81 LIG 0.00  A 
ATOM     32  CE1 PHE C  20      -6.614   5.584  -3.778  1.00 56.05 LIG 0.00  A 
ATOM     33  CD1 PHE C  20      -7.543   6.082  -4.699  1.00 54.84 LIG 0.01  A 
ENDBRANCH 27 28
ENDBRANCH 17 27
ENDBRANCH 14 17
ENDBRANCH 8 13
ENDBRANCH 5 6
BRANCH 5 34
ATOM     34  CB  LEU C  18     -10.189  12.354 -10.061  1.00 31.46 LIG 0.04  C 
BRANCH 34 35
ATOM     35  CG  LEU C  18      -8.685  12.337  -9.963  1.00 36.62 LIG-0.02  C 
ATOM     36  CD2 LEU C  18      -8.182  10.902  -9.932  1.00 38.91 LIG 0.01  C 
ATOM     37  CD1 LEU C  18      -8.236  13.100  -8.714  1.00 36.98 LIG 0.01  C 
ENDBRANCH 34 35
ENDBRANCH 5 34
ENDBRANCH 3 5
BRANCH 1 38
ATOM     38  CA  PRO C  17     -13.810  11.999 -12.713  1.00 33.71 LIG 0.18  C 
ATOM     39  CB  PRO C  17     -14.720  13.228 -12.617  1.00 36.04 LIG 0.04  C 
ATOM     40  CG  PRO C  17     -16.140  12.703 -12.563  1.00 41.66 LIG 0.02  C 
ATOM     41  CD  PRO C  17     -16.105  11.205 -12.617  1.00 37.74 LIG 0.13  C 
ATOM     42  N   PRO C  17     -14.729  10.917 -13.081  1.00 35.06 LIG-0.34  N 
ATOM     43  C   ARG C  16     -14.257   9.868 -13.780  1.00 37.80 LIG 0.24  C 
ATOM     44 O    ARG C  16     -13.071   9.816 -14.097  1.00 34.25 LIG-0.27  OA
BRANCH 43 45
ATOM     45  CA  ARG C  16     -15.207   8.737 -14.217  1.00 39.10 LIG 0.18  C 
BRANCH 45 46
ATOM     46  CB  ARG C  16     -14.526   7.860 -15.285  1.00 42.59 LIG 0.04  C 
BRANCH 46 47
ATOM     47  CG  ARG C  16     -15.400   6.741 -15.842  1.00 54.51 LIG 0.02  C 
BRANCH 47 48
ATOM     48  CD  ARG C  16     -15.657   6.903 -17.328  1.00 71.70 LIG 0.14  C 
BRANCH 48 49
ATOM     49  NE  ARG C  16     -16.915   6.264 -17.728  1.00 86.72 LIG-0.23  N 
ATOM     50 HE   ARG C  16     -17.570   6.777 -17.945  1.00 86.72 LIG 0.18  HD
ATOM     51  CZ  ARG C  16     -17.117   4.949 -17.780  1.00 98.48 LIG 0.67  C 
ATOM     52  NH2 ARG C  16     -18.297   4.466 -18.147  1.00 86.10 LIG-0.23  N 
ATOM     53  NH1 ARG C  16     -16.143   4.108 -17.457  1.00 81.98 LIG-0.23  N 
ATOM     54 2HH2 ARG C  16     -18.423   3.616 -18.179  1.00 86.10 LIG 0.17  HD
ATOM     55 1HH2 ARG C  16     -18.936   5.003 -18.352  1.00 86.10 LIG 0.17  HD
ATOM     56 1HH1 ARG C  16     -15.376   4.411 -17.212  1.00 81.98 LIG 0.17  HD
ATOM     57 2HH1 ARG C  16     -16.279   3.260 -17.492  1.00 81.98 LIG 0.17  HD
ENDBRANCH 48 49
ENDBRANCH 47 48
ENDBRANCH 46 47
ENDBRANCH 45 46
BRANCH 45 58
ATOM     58  N   ARG C  16     -16.448   9.318 -14.740  1.00 40.87 LIG-0.35  N 
ATOM     59  C   PRO C  15     -17.695   8.901 -14.418  1.00 47.02 LIG 0.25  C 
ATOM     60 O    PRO C  15     -17.916   7.952 -13.664  1.00 46.36 LIG-0.27  OA
ATOM     61 H    ARG C  16     -16.309   9.967 -15.287  1.00 40.87 LIG 0.16  HD
BRANCH 59 62
ATOM     62  CA  PRO C  15     -18.866   9.694 -15.001  1.00 46.56 LIG 0.35  C 
ATOM     63  N   PRO C  15     -20.004   9.820 -14.079  1.00 47.38 LIG 0.32  N 
ATOM     64  CD  PRO C  15     -20.248  11.226 -13.706  1.00 49.28 LIG 0.32  C 
ATOM     65  CG  PRO C  15     -19.618  11.989 -14.831  1.00 53.38 LIG 0.04  C 
ATOM     66  CB  PRO C  15     -18.459  11.153 -15.268  1.00 48.49 LIG 0.05  C 
ENDBRANCH 59 62
ENDBRANCH 45 58
ENDBRANCH 43 45
ENDBRANCH 1 38
TORSDOF 18
ENDMDL
MODEL 20
USER: ADFR SOLUTION from run 199
USER: SCORE 22.264455 LL:  -5.258 LR: -18.993 RR:   0.000 FEB: -13.624
USER: RMSD 13.060633
USER: SEED 198
USER: STATUS no improvement in best in 3 clusters for 5 generations
USER: GENES 20
USER: genes 0 Translation |==|  0.48635 0.49218 0.44258
USER: genes 1 Rotation |==|  0.74231 0.84707 0.76320 0.53940
USER: genes 2 Torsion [C]-N--CA-[CB] |==|  0.26153
USER: genes 3 Torsion [N]-CA--C-[N] |==|  0.33176
USER: genes 4 Torsion [N]-CA--C-[O] |==|  0.76757
USER: genes 5 Torsion [C]-N--CA-[C] |==|  0.60614
USER: genes 6 Torsion [N]-CA--C-[N] |==|  0.16014
USER: genes 7 Torsion [N]-CA--C-[O] |==|  0.22684
USER: genes 8 Torsion [N]-CA--CB-[CG] |==|  0.80601
USER: genes 9 Torsion [CA]-CB--CG-[CD1] |==|  0.20704
USER: genes 10 Torsion [N]-CA--CB-[CG] |==|  0.99363
USER: genes 11 Torsion [CA]-CB--CG-[CD2] |==|  0.68024
USER: genes 12 Torsion [O]-C--CA-[CB] |==|  0.73717
USER: genes 13 Torsion [N]-C--CA-[N] |==|  0.11039
USER: genes 14 Torsion [C]-CA--CB-[CG] |==|  0.20887
USER: genes 15 Torsion [CA]-CB--CG-[CD] |==|  0.68426
USER: genes 16 Torsion [CB]-CG--CD-[NE] |==|  0.67102
USER: genes 17 Torsion [CG]-CD--NE-[HE] |==|  0.74120
USER: genes 18 Torsion [C]-CA--N-[C] |==|  0.64445
USER: genes 19 Torsion [N]-C--CA-[CB] |==|  0.07658
ROOT
ATOM      1  C   PRO C  17     -11.859   9.211 -12.176  1.00 34.10 LIG 0.24  C 
ATOM      2 O    PRO C  17     -10.810   8.582 -12.299  1.00 31.91 LIG-0.27  OA
ATOM      3  N   LEU C  18     -12.600   9.153 -11.086  1.00 30.88 LIG-0.35  N 
ATOM      4 H    LEU C  18     -13.361   9.546 -11.016  1.00 30.88 LIG 0.16  HD
ENDROOT
BRANCH 3 5
ATOM      5  CA  LEU C  18     -12.211   8.421  -9.889  1.00 30.78 LIG 0.18  C 
BRANCH 5 6
ATOM      6  C   LEU C  18     -13.376   7.764  -9.171  1.00 33.73 LIG 0.24  C 
ATOM      7  N   PRO C  19     -13.358   6.412  -9.035  1.00 33.17 LIG-0.34  N 
ATOM      8  CA  PRO C  19     -14.438   5.733  -8.288  1.00 33.85 LIG 0.18  C 
ATOM      9  CD  PRO C  19     -12.370   5.444  -9.575  1.00 35.22 LIG 0.13  C 
ATOM     10  CB  PRO C  19     -14.242   4.252  -8.630  1.00 35.69 LIG 0.04  C 
ATOM     11  CG  PRO C  19     -12.831   4.119  -9.053  1.00 39.92 LIG 0.02  C 
ATOM     12 O    LEU C  18     -14.237   8.480  -8.655  1.00 31.40 LIG-0.27  OA
BRANCH 8 13
ATOM     13  C   PRO C  19     -14.432   6.001  -6.775  1.00 39.47 LIG 0.24  C 
ATOM     14  N   PHE C  20     -15.214   6.996  -6.352  1.00 41.20 LIG-0.35  N 
ATOM     15 H    PHE C  20     -15.700   7.460  -6.889  1.00 41.20 LIG 0.16  HD
ATOM     16 O    PRO C  19     -13.717   5.354  -6.017  1.00 36.20 LIG-0.27  OA
BRANCH 14 17
ATOM     17  CA  PHE C  20     -15.344   7.418  -4.958  1.00 43.59 LIG 0.18  C 
BRANCH 17 18
ATOM     18  C   PHE C  20     -16.810   7.793  -4.672  1.00 48.54 LIG 0.24  C 
ATOM     19  N   PRO C  21     -17.797   6.880  -4.874  1.00 46.41 LIG-0.34  N 
ATOM     20  CA  PRO C  21     -19.202   7.220  -4.548  1.00 51.72 LIG 0.17  C 
ATOM     21  CD  PRO C  21     -17.699   5.512  -5.419  1.00 49.19 LIG 0.13  C 
ATOM     22  CB  PRO C  21     -19.976   5.936  -4.891  1.00 52.56 LIG 0.04  C 
ATOM     23  CG  PRO C  21     -19.107   5.191  -5.822  1.00 54.82 LIG 0.02  C 
ATOM     24 O    PHE C  20     -17.047   8.921  -4.235  1.00 48.67 LIG-0.27  OA
BRANCH 20 25
ATOM     25  C   PRO C  21     -19.427   7.601  -3.083  1.00 87.57 LIG 0.22  C 
ATOM     26 O    PRO C  21     -19.177   8.742  -2.699  1.00 58.80 LIG-0.29  OA
ENDBRANCH 20 25
ENDBRANCH 17 18
BRANCH 17 27
ATOM     27  CB  PHE C  20     -14.397   8.618  -4.699  1.00 46.79 LIG 0.07  C 
BRANCH 27 28
ATOM     28  CG  PHE C  20     -12.907   8.342  -4.697  1.00 50.46 LIG-0.06  A 
ATOM     29  CD2 PHE C  20     -12.180   8.357  -3.509  1.00 54.33 LIG 0.01  A 
ATOM     30  CE2 PHE C  20     -10.803   8.101  -3.508  1.00 57.68 LIG 0.00  A 
ATOM     31  CZ  PHE C  20     -10.144   7.854  -4.698  1.00 55.81 LIG 0.00  A 
ATOM     32  CE1 PHE C  20     -10.845   7.849  -5.885  1.00 56.05 LIG 0.00  A 
ATOM     33  CD1 PHE C  20     -12.220   8.115  -5.887  1.00 54.84 LIG 0.01  A 
ENDBRANCH 27 28
ENDBRANCH 17 27
ENDBRANCH 14 17
ENDBRANCH 8 13
ENDBRANCH 5 6
BRANCH 5 34
ATOM     34  CB  LEU C  18     -11.513   9.378  -8.925  1.00 31.46 LIG 0.04  C 
BRANCH 34 35
ATOM     35  CG  LEU C  18     -11.328  10.794  -9.405  1.00 36.62 LIG-0.02  C 
ATOM     36  CD2 LEU C  18      -9.847  11.103  -9.558  1.00 38.91 LIG 0.01  C 
ATOM     37  CD1 LEU C  18     -11.989  11.767  -8.425  1.00 36.98 LIG 0.01  C 
ENDBRANCH 34 35
ENDBRANCH 5 34
ENDBRANCH 3 5
BRANCH 1 38
ATOM     38  CA  PRO C  17     -12.435  10.050 -13.309  1.00 33.71 LIG 0.18  C 
ATOM     39  CB  PRO C  17     -12.023  11.523 -13.225  1.00 36.04 LIG 0.04  C 
ATOM     40  CG  PRO C  17     -13.271  12.293 -12.847  1.00 41.66 LIG 0.02  C 
ATOM     41  CD  PRO C  17     -14.409  11.328 -12.698  1.00 37.74 LIG 0.13  C 
ATOM     42  N   PRO C  17     -13.899  10.103 -13.354  1.00 35.06 LIG-0.34  N 
ATOM     43  C   ARG C  16     -14.570   9.114 -13.974  1.00 37.80 LIG 0.24  C 
ATOM     44 O    ARG C  16     -13.962   8.177 -14.486  1.00 34.25 LIG-0.27  OA
BRANCH 43 45
ATOM     45  CA  ARG C  16     -16.107   9.164 -14.074  1.00 39.10 LIG 0.18  C 
BRANCH 45 46
ATOM     46  CB  ARG C  16     -16.593   8.215 -15.186  1.00 42.59 LIG 0.04  C 
BRANCH 46 47
ATOM     47  CG  ARG C  16     -16.549   6.734 -14.824  1.00 54.51 LIG 0.02  C 
BRANCH 47 48
ATOM     48  CD  ARG C  16     -15.537   5.972 -15.656  1.00 71.70 LIG 0.14  C 
BRANCH 48 49
ATOM     49  NE  ARG C  16     -16.181   4.928 -16.461  1.00 86.72 LIG-0.23  N 
ATOM     50 HE   ARG C  16     -16.224   4.137 -16.125  1.00 86.72 LIG 0.18  HD
ATOM     51  CZ  ARG C  16     -16.704   5.115 -17.670  1.00 98.48 LIG 0.67  C 
ATOM     52  NH2 ARG C  16     -17.259   4.102 -18.324  1.00 86.10 LIG-0.23  N 
ATOM     53  NH1 ARG C  16     -16.667   6.313 -18.239  1.00 81.98 LIG-0.23  N 
ATOM     54 2HH2 ARG C  16     -17.595   4.228 -19.106  1.00 86.10 LIG 0.17  HD
ATOM     55 1HH2 ARG C  16     -17.282   3.320 -17.967  1.00 86.10 LIG 0.17  HD
ATOM     56 1HH1 ARG C  16     -16.305   6.975 -17.826  1.00 81.98 LIG 0.17  HD
ATOM     57 2HH1 ARG C  16     -17.007   6.428 -19.020  1.00 81.98 LIG 0.17  HD
ENDBRANCH 48 49
ENDBRANCH 47 48
ENDBRANCH 46 47
ENDBRANCH 45 46
BRANCH 45 58
ATOM     58  N   ARG C  16     -16.533  10.541 -14.346  1.00 40.87 LIG-0.35  N 
ATOM     59  C   PRO C  15     -17.461  11.219 -13.632  1.00 47.02 LIG 0.25  C 
ATOM     60 O    PRO C  15     -18.078  10.728 -12.686  1.00 46.36 LIG-0.27  OA
ATOM     61 H    ARG C  16     -16.128  10.889 -15.019  1.00 40.87 LIG 0.16  HD
BRANCH 59 62
ATOM     62  CA  PRO C  15     -17.705  12.679 -14.019  1.00 46.56 LIG 0.35  C 
ATOM     63  N   PRO C  15     -16.817  13.624 -13.326  1.00 47.38 LIG 0.32  N 
ATOM     64  CD  PRO C  15     -15.932  14.331 -14.271  1.00 49.28 LIG 0.32  C 
ATOM     65  CG  PRO C  15     -16.669  14.222 -15.570  1.00 53.38 LIG 0.04  C 
ATOM     66  CB  PRO C  15     -17.384  12.911 -15.505  1.00 48.49 LIG 0.05  C 
ENDBRANCH 59 62
ENDBRANCH 45 58
ENDBRANCH 43 45
ENDBRANCH 1 38
TORSDOF 18
ENDMDL
MODEL 21
USER: ADFR SOLUTION from run 119
USER: SCORE 22.247952 LL:  -3.872 LR: -18.959 RR:   0.000 FEB: -13.590
USER: RMSD 13.251968
USER: SEED 118
USER: STATUS no improvement in best in 7 clusters for 5 generations
USER: GENES 20
USER: genes 0 Translation |==|  0.40658 0.64684 0.44789
USER: genes 1 Rotation |==|  0.93377 0.57997 0.29688 0.61913
USER: genes 2 Torsion [C]-N--CA-[CB] |==|  0.61967
USER: genes 3 Torsion [N]-CA--C-[N] |==|  0.24709
USER: genes 4 Torsion [N]-CA--C-[O] |==|  0.01749
USER: genes 5 Torsion [C]-N--CA-[C] |==|  0.82204
USER: genes 6 Torsion [N]-CA--C-[N] |==|  0.44100
USER: genes 7 Torsion [N]-CA--C-[O] |==|  0.25008
USER: genes 8 Torsion [N]-CA--CB-[CG] |==|  0.95549
USER: genes 9 Torsion [CA]-CB--CG-[CD1] |==|  0.72965
USER: genes 10 Torsion [N]-CA--CB-[CG] |==|  0.49790
USER: genes 11 Torsion [CA]-CB--CG-[CD2] |==|  0.51838
USER: genes 12 Torsion [O]-C--CA-[CB] |==|  0.11437
USER: genes 13 Torsion [N]-C--CA-[N] |==|  0.44554
USER: genes 14 Torsion [C]-CA--CB-[CG] |==|  0.42441
USER: genes 15 Torsion [CA]-CB--CG-[CD] |==|  0.41934
USER: genes 16 Torsion [CB]-CG--CD-[NE] |==|  0.49628
USER: genes 17 Torsion [CG]-CD--NE-[HE] |==|  0.18578
USER: genes 18 Torsion [C]-CA--N-[C] |==|  0.79665
USER: genes 19 Torsion [N]-C--CA-[CB] |==|  0.83085
ROOT
ATOM      1  C   PRO C  17     -13.294  11.995 -12.005  1.00 34.10 LIG 0.24  C 
ATOM      2 O    PRO C  17     -13.887  11.301 -11.182  1.00 31.91 LIG-0.27  OA
ATOM      3  N   LEU C  18     -11.995  12.216 -11.946  1.00 30.88 LIG-0.35  N 
ATOM      4 H    LEU C  18     -11.585  12.746 -12.485  1.00 30.88 LIG 0.16  HD
ENDROOT
BRANCH 3 5
ATOM      5  CA  LEU C  18     -11.118  11.591 -10.967  1.00 30.78 LIG 0.18  C 
BRANCH 5 6
ATOM      6  C   LEU C  18     -11.860  10.957  -9.802  1.00 33.73 LIG 0.24  C 
ATOM      7  N   PRO C  19     -12.253   9.663  -9.928  1.00 33.17 LIG-0.34  N 
ATOM      8  CA  PRO C  19     -12.921   8.984  -8.797  1.00 33.85 LIG 0.18  C 
ATOM      9  CD  PRO C  19     -12.129   8.771 -11.109  1.00 35.22 LIG 0.13  C 
ATOM     10  CB  PRO C  19     -13.480   7.701  -9.421  1.00 35.69 LIG 0.04  C 
ATOM     11  CG  PRO C  19     -12.672   7.459 -10.637  1.00 39.92 LIG 0.02  C 
ATOM     12 O    LEU C  18     -11.989  11.602  -8.759  1.00 31.40 LIG-0.27  OA
BRANCH 8 13
ATOM     13  C   PRO C  19     -12.010   8.712  -7.590  1.00 39.47 LIG 0.24  C 
ATOM     14  N   PHE C  20     -12.554   8.020  -6.587  1.00 41.20 LIG-0.35  N 
ATOM     15 H    PHE C  20     -13.365   7.734  -6.612  1.00 41.20 LIG 0.16  HD
ATOM     16 O    PRO C  19     -10.863   9.145  -7.549  1.00 36.20 LIG-0.27  OA
BRANCH 14 17
ATOM     17  CA  PHE C  20     -11.863   7.665  -5.348  1.00 43.59 LIG 0.18  C 
BRANCH 17 18
ATOM     18  C   PHE C  20     -10.689   6.723  -5.669  1.00 48.54 LIG 0.24  C 
ATOM     19  N   PRO C  21      -9.658   6.598  -4.792  1.00 46.41 LIG-0.34  N 
ATOM     20  CA  PRO C  21      -8.553   5.650  -5.074  1.00 51.72 LIG 0.17  C 
ATOM     21  CD  PRO C  21      -9.428   7.311  -3.520  1.00 49.19 LIG 0.13  C 
ATOM     22  CB  PRO C  21      -7.631   5.794  -3.851  1.00 52.56 LIG 0.04  C 
ATOM     23  CG  PRO C  21      -7.967   7.102  -3.257  1.00 54.82 LIG 0.02  C 
ATOM     24 O    PHE C  20     -10.732   6.077  -6.719  1.00 48.67 LIG-0.27  OA
BRANCH 20 25
ATOM     25  C   PRO C  21      -9.004   4.197  -5.231  1.00 87.57 LIG 0.22  C 
ATOM     26 O    PRO C  21      -9.318   3.768  -6.339  1.00 58.80 LIG-0.29  OA
ENDBRANCH 20 25
ENDBRANCH 17 18
BRANCH 17 27
ATOM     27  CB  PHE C  20     -12.870   6.997  -4.377  1.00 46.79 LIG 0.07  C 
BRANCH 27 28
ATOM     28  CG  PHE C  20     -14.346   7.168  -4.678  1.00 50.46 LIG-0.06  A 
ATOM     29  CD2 PHE C  20     -14.975   6.378  -5.636  1.00 54.33 LIG 0.01  A 
ATOM     30  CE2 PHE C  20     -16.340   6.536  -5.912  1.00 57.68 LIG 0.00  A 
ATOM     31  CZ  PHE C  20     -17.073   7.503  -5.249  1.00 55.81 LIG 0.00  A 
ATOM     32  CE1 PHE C  20     -16.463   8.304  -4.306  1.00 56.05 LIG 0.00  A 
ATOM     33  CD1 PHE C  20     -15.096   8.152  -4.038  1.00 54.84 LIG 0.01  A 
ENDBRANCH 27 28
ENDBRANCH 17 27
ENDBRANCH 14 17
ENDBRANCH 8 13
ENDBRANCH 5 6
BRANCH 5 34
ATOM     34  CB  LEU C  18     -10.149  12.639 -10.424  1.00 31.46 LIG 0.04  C 
BRANCH 34 35
ATOM     35  CG  LEU C  18      -9.172  12.168  -9.378  1.00 36.62 LIG-0.02  C 
ATOM     36  CD2 LEU C  18      -8.393  13.351  -8.824  1.00 38.91 LIG 0.01  C 
ATOM     37  CD1 LEU C  18      -8.225  11.126  -9.981  1.00 36.98 LIG 0.01  C 
ENDBRANCH 34 35
ENDBRANCH 5 34
ENDBRANCH 3 5
BRANCH 1 38
ATOM     38  CA  PRO C  17     -14.028  12.728 -13.119  1.00 33.71 LIG 0.18  C 
ATOM     39  CB  PRO C  17     -15.339  13.367 -12.647  1.00 36.04 LIG 0.04  C 
ATOM     40  CG  PRO C  17     -16.455  12.563 -13.280  1.00 41.66 LIG 0.02  C 
ATOM     41  CD  PRO C  17     -15.854  11.467 -14.108  1.00 37.74 LIG 0.13  C 
ATOM     42  N   PRO C  17     -14.441  11.884 -14.245  1.00 35.06 LIG-0.34  N 
ATOM     43  C   ARG C  16     -13.558  11.628 -15.228  1.00 37.80 LIG 0.24  C 
ATOM     44 O    ARG C  16     -12.420  12.088 -15.175  1.00 34.25 LIG-0.27  OA
BRANCH 43 45
ATOM     45  CA  ARG C  16     -13.976  10.779 -16.444  1.00 39.10 LIG 0.18  C 
BRANCH 45 46
ATOM     46  CB  ARG C  16     -13.986   9.286 -16.066  1.00 42.59 LIG 0.04  C 
BRANCH 46 47
ATOM     47  CG  ARG C  16     -14.951   8.430 -16.880  1.00 54.51 LIG 0.02  C 
BRANCH 47 48
ATOM     48  CD  ARG C  16     -14.473   6.997 -17.010  1.00 71.70 LIG 0.14  C 
BRANCH 48 49
ATOM     49  NE  ARG C  16     -15.426   6.179 -17.768  1.00 86.72 LIG-0.23  N 
ATOM     50 HE   ARG C  16     -15.530   6.361 -18.602  1.00 86.72 LIG 0.18  HD
ATOM     51  CZ  ARG C  16     -16.141   5.178 -17.260  1.00 98.48 LIG 0.67  C 
ATOM     52  NH2 ARG C  16     -16.986   4.502 -18.027  1.00 86.10 LIG-0.23  N 
ATOM     53  NH1 ARG C  16     -16.023   4.852 -15.979  1.00 81.98 LIG-0.23  N 
ATOM     54 2HH2 ARG C  16     -17.446   3.856 -17.694  1.00 86.10 LIG 0.17  HD
ATOM     55 1HH2 ARG C  16     -17.074   4.709 -18.857  1.00 86.10 LIG 0.17  HD
ATOM     56 1HH1 ARG C  16     -15.482   5.288 -15.472  1.00 81.98 LIG 0.17  HD
ATOM     57 2HH1 ARG C  16     -16.487   4.204 -15.656  1.00 81.98 LIG 0.17  HD
ENDBRANCH 48 49
ENDBRANCH 47 48
ENDBRANCH 46 47
ENDBRANCH 45 46
BRANCH 45 58
ATOM     58  N   ARG C  16     -13.048  11.026 -17.552  1.00 40.87 LIG-0.35  N 
ATOM     59  C   PRO C  15     -13.012  12.157 -18.295  1.00 47.02 LIG 0.25  C 
ATOM     60 O    PRO C  15     -13.792  13.096 -18.135  1.00 46.36 LIG-0.27  OA
ATOM     61 H    ARG C  16     -12.512  10.369 -17.692  1.00 40.87 LIG 0.16  HD
BRANCH 59 62
ATOM     62  CA  PRO C  15     -11.911  12.260 -19.353  1.00 46.56 LIG 0.35  C 
ATOM     63  N   PRO C  15     -11.898  13.548 -20.060  1.00 47.38 LIG 0.32  N 
ATOM     64  CD  PRO C  15     -10.651  14.295 -19.807  1.00 49.28 LIG 0.32  C 
ATOM     65  CG  PRO C  15      -9.689  13.220 -19.404  1.00 53.38 LIG 0.04  C 
ATOM     66  CB  PRO C  15     -10.520  12.197 -18.699  1.00 48.49 LIG 0.05  C 
ENDBRANCH 59 62
ENDBRANCH 45 58
ENDBRANCH 43 45
ENDBRANCH 1 38
TORSDOF 18
ENDMDL
MODEL 22
USER: ADFR SOLUTION from run 41
USER: SCORE 21.703571 LL:  -4.395 LR: -18.940 RR:   0.000 FEB: -13.570
USER: RMSD 13.935663
USER: SEED 40
USER: STATUS no improvement in best in 21 clusters for 5 generations
USER: GENES 20
USER: genes 0 Translation |==|  0.46393 0.49890 0.50935
USER: genes 1 Rotation |==|  0.97367 0.36746 0.48983 0.58928
USER: genes 2 Torsion [C]-N--CA-[CB] |==|  0.23023
USER: genes 3 Torsion [N]-CA--C-[N] |==|  0.46242
USER: genes 4 Torsion [N]-CA--C-[O] |==|  0.84252
USER: genes 5 Torsion [C]-N--CA-[C] |==|  0.60706
USER: genes 6 Torsion [N]-CA--C-[N] |==|  0.12521
USER: genes 7 Torsion [N]-CA--C-[O] |==|  0.84547
USER: genes 8 Torsion [N]-CA--CB-[CG] |==|  0.50210
USER: genes 9 Torsion [CA]-CB--CG-[CD1] |==|  0.63513
USER: genes 10 Torsion [N]-CA--CB-[CG] |==|  0.13191
USER: genes 11 Torsion [CA]-CB--CG-[CD2] |==|  0.54588
USER: genes 12 Torsion [O]-C--CA-[CB] |==|  0.35300
USER: genes 13 Torsion [N]-C--CA-[N] |==|  0.34444
USER: genes 14 Torsion [C]-CA--CB-[CG] |==|  0.33156
USER: genes 15 Torsion [CA]-CB--CG-[CD] |==|  0.07249
USER: genes 16 Torsion [CB]-CG--CD-[NE] |==|  0.72745
USER: genes 17 Torsion [CG]-CD--NE-[HE] |==|  0.27179
USER: genes 18 Torsion [C]-CA--N-[C] |==|  0.62858
USER: genes 19 Torsion [N]-C--CA-[CB] |==|  0.52602
ROOT
ATOM      1  C   PRO C  17     -12.262   9.332 -10.022  1.00 34.10 LIG 0.24  C 
ATOM      2 O    PRO C  17     -13.482   9.356 -10.169  1.00 31.91 LIG-0.27  OA
ATOM      3  N   LEU C  18     -11.686   8.901  -8.916  1.00 30.88 LIG-0.35  N 
ATOM      4 H    LEU C  18     -10.837   8.935  -8.787  1.00 30.88 LIG 0.16  HD
ENDROOT
BRANCH 3 5
ATOM      5  CA  LEU C  18     -12.421   8.323  -7.801  1.00 30.78 LIG 0.18  C 
BRANCH 5 6
ATOM      6  C   LEU C  18     -11.701   8.442  -6.469  1.00 33.73 LIG 0.24  C 
ATOM      7  N   PRO C  19     -12.412   8.194  -5.338  1.00 33.17 LIG-0.34  N 
ATOM      8  CA  PRO C  19     -11.739   8.234  -4.022  1.00 33.85 LIG 0.18  C 
ATOM      9  CD  PRO C  19     -13.859   7.889  -5.206  1.00 35.22 LIG 0.13  C 
ATOM     10  CB  PRO C  19     -12.898   8.228  -3.020  1.00 35.69 LIG 0.04  C 
ATOM     11  CG  PRO C  19     -14.052   7.648  -3.741  1.00 39.92 LIG 0.02  C 
ATOM     12 O    LEU C  18     -10.488   8.660  -6.467  1.00 31.40 LIG-0.27  OA
BRANCH 8 13
ATOM     13  C   PRO C  19     -10.738   7.094  -3.784  1.00 39.47 LIG 0.24  C 
ATOM     14  N   PHE C  20      -9.480   7.460  -3.526  1.00 41.20 LIG-0.35  N 
ATOM     15 H    PHE C  20      -9.240   8.285  -3.487  1.00 41.20 LIG 0.16  HD
ATOM     16 O    PRO C  19     -11.081   5.919  -3.865  1.00 36.20 LIG-0.27  OA
BRANCH 14 17
ATOM     17  CA  PHE C  20      -8.376   6.533  -3.280  1.00 43.59 LIG 0.18  C 
BRANCH 17 18
ATOM     18  C   PHE C  20      -7.469   7.101  -2.174  1.00 48.54 LIG 0.24  C 
ATOM     19  N   PRO C  21      -8.018   7.626  -1.046  1.00 46.41 LIG-0.34  N 
ATOM     20  CA  PRO C  21      -7.145   8.123   0.044  1.00 51.72 LIG 0.17  C 
ATOM     21  CD  PRO C  21      -9.443   7.812  -0.707  1.00 49.19 LIG 0.13  C 
ATOM     22  CB  PRO C  21      -8.140   8.597   1.117  1.00 52.56 LIG 0.04  C 
ATOM     23  CG  PRO C  21      -9.412   8.819   0.404  1.00 54.82 LIG 0.02  C 
ATOM     24 O    PHE C  20      -6.248   7.037  -2.333  1.00 48.67 LIG-0.27  OA
BRANCH 20 25
ATOM     25  C   PRO C  21      -6.206   7.063   0.622  1.00 87.57 LIG 0.22  C 
ATOM     26 O    PRO C  21      -6.664   6.010   1.062  1.00 58.80 LIG-0.29  OA
ENDBRANCH 20 25
ENDBRANCH 17 18
BRANCH 17 27
ATOM     27  CB  PHE C  20      -7.589   6.320  -4.598  1.00 46.79 LIG 0.07  C 
BRANCH 27 28
ATOM     28  CG  PHE C  20      -6.407   5.372  -4.559  1.00 50.46 LIG-0.06  A 
ATOM     29  CD2 PHE C  20      -6.511   4.128  -3.943  1.00 54.33 LIG 0.01  A 
ATOM     30  CE2 PHE C  20      -5.417   3.252  -3.908  1.00 57.68 LIG 0.00  A 
ATOM     31  CZ  PHE C  20      -4.210   3.630  -4.467  1.00 55.81 LIG 0.00  A 
ATOM     32  CE1 PHE C  20      -4.086   4.864  -5.069  1.00 56.05 LIG 0.00  A 
ATOM     33  CD1 PHE C  20      -5.176   5.742  -5.094  1.00 54.84 LIG 0.01  A 
ENDBRANCH 27 28
ENDBRANCH 17 27
ENDBRANCH 14 17
ENDBRANCH 8 13
ENDBRANCH 5 6
BRANCH 5 34
ATOM     34  CB  LEU C  18     -12.686   6.847  -8.090  1.00 31.46 LIG 0.04  C 
BRANCH 34 35
ATOM     35  CG  LEU C  18     -11.510   6.039  -8.573  1.00 36.62 LIG-0.02  C 
ATOM     36  CD2 LEU C  18     -11.993   4.738  -9.195  1.00 38.91 LIG 0.01  C 
ATOM     37  CD1 LEU C  18     -10.553   5.765  -7.409  1.00 36.98 LIG 0.01  C 
ENDBRANCH 34 35
ENDBRANCH 5 34
ENDBRANCH 3 5
BRANCH 1 38
ATOM     38  CA  PRO C  17     -11.312   9.879 -11.079  1.00 33.71 LIG 0.18  C 
ATOM     39  CB  PRO C  17     -10.316  10.896 -10.513  1.00 36.04 LIG 0.04  C 
ATOM     40  CG  PRO C  17     -10.724  12.245 -11.067  1.00 41.66 LIG 0.02  C 
ATOM     41  CD  PRO C  17     -11.930  12.065 -11.939  1.00 37.74 LIG 0.13  C 
ATOM     42  N   PRO C  17     -11.961  10.605 -12.176  1.00 35.06 LIG-0.34  N 
ATOM     43  C   ARG C  16     -12.450   9.910 -13.220  1.00 37.80 LIG 0.24  C 
ATOM     44 O    ARG C  16     -12.361   8.685 -13.247  1.00 34.25 LIG-0.27  OA
BRANCH 43 45
ATOM     45  CA  ARG C  16     -13.100  10.648 -14.406  1.00 39.10 LIG 0.18  C 
BRANCH 45 46
ATOM     46  CB  ARG C  16     -14.600  10.308 -14.481  1.00 42.59 LIG 0.04  C 
BRANCH 46 47
ATOM     47  CG  ARG C  16     -15.533  11.506 -14.337  1.00 54.51 LIG 0.02  C 
BRANCH 47 48
ATOM     48  CD  ARG C  16     -14.873  12.800 -14.773  1.00 71.70 LIG 0.14  C 
BRANCH 48 49
ATOM     49  NE  ARG C  16     -14.353  13.551 -13.625  1.00 86.72 LIG-0.23  N 
ATOM     50 HE   ARG C  16     -13.517  13.470 -13.442  1.00 86.72 LIG 0.18  HD
ATOM     51  CZ  ARG C  16     -15.081  14.349 -12.847  1.00 98.48 LIG 0.67  C 
ATOM     52  NH2 ARG C  16     -14.520  14.980 -11.824  1.00 86.10 LIG-0.23  N 
ATOM     53  NH1 ARG C  16     -16.377  14.513 -13.080  1.00 81.98 LIG-0.23  N 
ATOM     54 2HH2 ARG C  16     -14.994  15.494 -11.324  1.00 86.10 LIG 0.17  HD
ATOM     55 1HH2 ARG C  16     -13.682  14.876 -11.661  1.00 86.10 LIG 0.17  HD
ATOM     56 1HH1 ARG C  16     -16.751  14.103 -13.737  1.00 81.98 LIG 0.17  HD
ATOM     57 2HH1 ARG C  16     -16.842  15.029 -12.574  1.00 81.98 LIG 0.17  HD
ENDBRANCH 48 49
ENDBRANCH 47 48
ENDBRANCH 46 47
ENDBRANCH 45 46
BRANCH 45 58
ATOM     58  N   ARG C  16     -12.420  10.266 -15.648  1.00 40.87 LIG-0.35  N 
ATOM     59  C   PRO C  15     -12.013  11.132 -16.606  1.00 47.02 LIG 0.25  C 
ATOM     60 O    PRO C  15     -12.206  12.347 -16.546  1.00 46.36 LIG-0.27  OA
ATOM     61 H    ARG C  16     -12.300   9.418 -15.716  1.00 40.87 LIG 0.16  HD
BRANCH 59 62
ATOM     62  CA  PRO C  15     -11.242  10.546 -17.791  1.00 46.56 LIG 0.35  C 
ATOM     63  N   PRO C  15     -12.090   9.793 -18.726  1.00 47.38 LIG 0.32  N 
ATOM     64  CD  PRO C  15     -12.123  10.424 -20.058  1.00 49.28 LIG 0.32  C 
ATOM     65  CG  PRO C  15     -10.863  11.234 -20.080  1.00 53.38 LIG 0.04  C 
ATOM     66  CB  PRO C  15     -10.651  11.665 -18.665  1.00 48.49 LIG 0.05  C 
ENDBRANCH 59 62
ENDBRANCH 45 58
ENDBRANCH 43 45
ENDBRANCH 1 38
TORSDOF 18
ENDMDL
MODEL 23
USER: ADFR SOLUTION from run 104
USER: SCORE 22.567388 LL:  -4.283 LR: -18.928 RR:   0.000 FEB: -13.558
USER: RMSD 12.612092
USER: SEED 103
USER: STATUS no improvement in best in 10 clusters for 5 generations
USER: GENES 20
USER: genes 0 Translation |==|  0.43013 0.62608 0.34443
USER: genes 1 Rotation |==|  0.61267 0.95352 0.65228 0.59183
USER: genes 2 Torsion [C]-N--CA-[CB] |==|  0.50556
USER: genes 3 Torsion [N]-CA--C-[N] |==|  0.45659
USER: genes 4 Torsion [N]-CA--C-[O] |==|  0.99530
USER: genes 5 Torsion [C]-N--CA-[C] |==|  0.79785
USER: genes 6 Torsion [N]-CA--C-[N] |==|  0.38451
USER: genes 7 Torsion [N]-CA--C-[O] |==|  0.34582
USER: genes 8 Torsion [N]-CA--CB-[CG] |==|  0.64372
USER: genes 9 Torsion [CA]-CB--CG-[CD1] |==|  0.52311
USER: genes 10 Torsion [N]-CA--CB-[CG] |==|  0.77514
USER: genes 11 Torsion [CA]-CB--CG-[CD2] |==|  0.18432
USER: genes 12 Torsion [O]-C--CA-[CB] |==|  0.62159
USER: genes 13 Torsion [N]-C--CA-[N] |==|  0.48312
USER: genes 14 Torsion [C]-CA--CB-[CG] |==|  0.43814
USER: genes 15 Torsion [CA]-CB--CG-[CD] |==|  0.02180
USER: genes 16 Torsion [CB]-CG--CD-[NE] |==|  0.50569
USER: genes 17 Torsion [CG]-CD--NE-[HE] |==|  0.84038
USER: genes 18 Torsion [C]-CA--N-[C] |==|  0.76488
USER: genes 19 Torsion [N]-C--CA-[CB] |==|  0.65685
ROOT
ATOM      1  C   PRO C  17     -12.871  11.621 -15.341  1.00 34.10 LIG 0.24  C 
ATOM      2 O    PRO C  17     -11.687  11.583 -15.011  1.00 31.91 LIG-0.27  OA
ATOM      3  N   LEU C  18     -13.841  11.887 -14.487  1.00 30.88 LIG-0.35  N 
ATOM      4 H    LEU C  18     -14.673  11.860 -14.700  1.00 30.88 LIG 0.16  HD
ENDROOT
BRANCH 3 5
ATOM      5  CA  LEU C  18     -13.608  12.253 -13.097  1.00 30.78 LIG 0.18  C 
BRANCH 5 6
ATOM      6  C   LEU C  18     -12.789  11.232 -12.327  1.00 33.73 LIG 0.24  C 
ATOM      7  N   PRO C  19     -12.246  11.616 -11.142  1.00 33.17 LIG-0.34  N 
ATOM      8  CA  PRO C  19     -11.496  10.638 -10.325  1.00 33.85 LIG 0.18  C 
ATOM      9  CD  PRO C  19     -12.270  12.958 -10.508  1.00 35.22 LIG 0.13  C 
ATOM     10  CB  PRO C  19     -10.792  11.504  -9.276  1.00 35.69 LIG 0.04  C 
ATOM     11  CG  PRO C  19     -11.572  12.758  -9.199  1.00 39.92 LIG 0.02  C 
ATOM     12 O    LEU C  18     -12.732  10.075 -12.750  1.00 31.40 LIG-0.27  OA
BRANCH 8 13
ATOM     13  C   PRO C  19     -12.360   9.531  -9.704  1.00 39.47 LIG 0.24  C 
ATOM     14  N   PHE C  20     -11.707   8.588  -9.021  1.00 41.20 LIG-0.35  N 
ATOM     15 H    PHE C  20     -10.852   8.598  -8.926  1.00 41.20 LIG 0.16  HD
ATOM     16 O    PRO C  19     -13.576   9.508  -9.864  1.00 36.20 LIG-0.27  OA
BRANCH 14 17
ATOM     17  CA  PHE C  20     -12.340   7.446  -8.363  1.00 43.59 LIG 0.18  C 
BRANCH 17 18
ATOM     18  C   PHE C  20     -13.085   7.929  -7.105  1.00 48.54 LIG 0.24  C 
ATOM     19  N   PRO C  21     -14.313   7.429  -6.808  1.00 46.41 LIG-0.34  N 
ATOM     20  CA  PRO C  21     -15.009   7.852  -5.569  1.00 51.72 LIG 0.17  C 
ATOM     21  CD  PRO C  21     -15.140   6.477  -7.576  1.00 49.19 LIG 0.13  C 
ATOM     22  CB  PRO C  21     -16.322   7.053  -5.599  1.00 52.56 LIG 0.04  C 
ATOM     23  CG  PRO C  21     -16.515   6.666  -7.009  1.00 54.82 LIG 0.02  C 
ATOM     24 O    PHE C  20     -12.523   8.751  -6.377  1.00 48.67 LIG-0.27  OA
BRANCH 20 25
ATOM     25  C   PRO C  21     -14.233   7.550  -4.285  1.00 87.57 LIG 0.22  C 
ATOM     26 O    PRO C  21     -13.979   8.456  -3.494  1.00 58.80 LIG-0.29  OA
ENDBRANCH 20 25
ENDBRANCH 17 18
BRANCH 17 27
ATOM     27  CB  PHE C  20     -11.254   6.399  -8.006  1.00 46.79 LIG 0.07  C 
BRANCH 27 28
ATOM     28  CG  PHE C  20     -11.489   4.970  -8.454  1.00 50.46 LIG-0.06  A 
ATOM     29  CD2 PHE C  20     -12.575   4.645  -9.262  1.00 54.33 LIG 0.01  A 
ATOM     30  CE2 PHE C  20     -12.790   3.324  -9.677  1.00 57.68 LIG 0.00  A 
ATOM     31  CZ  PHE C  20     -11.934   2.321  -9.262  1.00 55.81 LIG 0.00  A 
ATOM     32  CE1 PHE C  20     -10.862   2.622  -8.450  1.00 56.05 LIG 0.00  A 
ATOM     33  CD1 PHE C  20     -10.653   3.941  -8.028  1.00 54.84 LIG 0.01  A 
ENDBRANCH 27 28
ENDBRANCH 17 27
ENDBRANCH 14 17
ENDBRANCH 8 13
ENDBRANCH 5 6
BRANCH 5 34
ATOM     34  CB  LEU C  18     -14.953  12.438 -12.398  1.00 31.46 LIG 0.04  C 
BRANCH 34 35
ATOM     35  CG  LEU C  18     -15.642  13.761 -12.613  1.00 36.62 LIG-0.02  C 
ATOM     36  CD2 LEU C  18     -16.058  13.900 -14.070  1.00 38.91 LIG 0.01  C 
ATOM     37  CD1 LEU C  18     -14.712  14.906 -12.201  1.00 36.98 LIG 0.01  C 
ENDBRANCH 34 35
ENDBRANCH 5 34
ENDBRANCH 3 5
BRANCH 1 38
ATOM     38  CA  PRO C  17     -13.325  11.283 -16.754  1.00 33.71 LIG 0.18  C 
ATOM     39  CB  PRO C  17     -14.367  12.267 -17.294  1.00 36.04 LIG 0.04  C 
ATOM     40  CG  PRO C  17     -15.677  11.509 -17.354  1.00 41.66 LIG 0.02  C 
ATOM     41  CD  PRO C  17     -15.450  10.111 -16.864  1.00 37.74 LIG 0.13  C 
ATOM     42  N   PRO C  17     -13.977   9.977 -16.897  1.00 35.06 LIG-0.34  N 
ATOM     43  C   ARG C  16     -13.214   8.880 -17.062  1.00 37.80 LIG 0.24  C 
ATOM     44 O    ARG C  16     -11.989   8.974 -17.085  1.00 34.25 LIG-0.27  OA
BRANCH 43 45
ATOM     45  CA  ARG C  16     -13.871   7.501 -17.257  1.00 39.10 LIG 0.18  C 
BRANCH 45 46
ATOM     46  CB  ARG C  16     -14.651   7.106 -15.989  1.00 42.59 LIG 0.04  C 
BRANCH 46 47
ATOM     47  CG  ARG C  16     -15.750   6.072 -16.213  1.00 54.51 LIG 0.02  C 
BRANCH 47 48
ATOM     48  CD  ARG C  16     -15.721   5.503 -17.618  1.00 71.70 LIG 0.14  C 
BRANCH 48 49
ATOM     49  NE  ARG C  16     -16.812   4.547 -17.833  1.00 86.72 LIG-0.23  N 
ATOM     50 HE   ARG C  16     -16.858   3.870 -17.305  1.00 86.72 LIG 0.18  HD
ATOM     51  CZ  ARG C  16     -17.737   4.651 -18.784  1.00 98.48 LIG 0.67  C 
ATOM     52  NH2 ARG C  16     -18.682   3.727 -18.904  1.00 86.10 LIG-0.23  N 
ATOM     53  NH1 ARG C  16     -17.719   5.674 -19.629  1.00 81.98 LIG-0.23  N 
ATOM     54 2HH2 ARG C  16     -19.277   3.799 -19.520  1.00 86.10 LIG 0.17  HD
ATOM     55 1HH2 ARG C  16     -18.699   3.057 -18.365  1.00 86.10 LIG 0.17  HD
ATOM     56 1HH1 ARG C  16     -17.107   6.275 -19.563  1.00 81.98 LIG 0.17  HD
ATOM     57 2HH1 ARG C  16     -18.319   5.737 -20.241  1.00 81.98 LIG 0.17  HD
ENDBRANCH 48 49
ENDBRANCH 47 48
ENDBRANCH 46 47
ENDBRANCH 45 46
BRANCH 45 58
ATOM     58  N   ARG C  16     -12.836   6.506 -17.558  1.00 40.87 LIG-0.35  N 
ATOM     59  C   PRO C  15     -12.332   6.262 -18.790  1.00 47.02 LIG 0.25  C 
ATOM     60 O    PRO C  15     -12.723   6.837 -19.807  1.00 46.36 LIG-0.27  OA
ATOM     61 H    ARG C  16     -12.570   6.079 -16.861  1.00 40.87 LIG 0.16  HD
BRANCH 59 62
ATOM     62  CA  PRO C  15     -11.193   5.245 -18.886  1.00 46.56 LIG 0.35  C 
ATOM     63  N   PRO C  15     -11.505   4.097 -19.751  1.00 47.38 LIG 0.32  N 
ATOM     64  CD  PRO C  15     -10.614   4.043 -20.925  1.00 49.28 LIG 0.32  C 
ATOM     65  CG  PRO C  15      -9.418   4.826 -20.478  1.00 53.38 LIG 0.04  C 
ATOM     66  CB  PRO C  15      -9.958   5.870 -19.555  1.00 48.49 LIG 0.05  C 
ENDBRANCH 59 62
ENDBRANCH 45 58
ENDBRANCH 43 45
ENDBRANCH 1 38
TORSDOF 18
ENDMDL
MODEL 24
USER: ADFR SOLUTION from run 98
USER: SCORE 20.977419 LL:  -3.921 LR: -18.857 RR:   0.000 FEB: -13.488
USER: RMSD 4.464923
USER: SEED 97
USER: STATUS no improvement in best in 12 clusters for 5 generations
USER: GENES 20
USER: genes 0 Translation |==|  0.44977 0.45012 0.52560
USER: genes 1 Rotation |==|  0.54033 0.42437 0.56680 0.98805
USER: genes 2 Torsion [C]-N--CA-[CB] |==|  0.43892
USER: genes 3 Torsion [N]-CA--C-[N] |==|  0.44743
USER: genes 4 Torsion [N]-CA--C-[O] |==|  0.01682
USER: genes 5 Torsion [C]-N--CA-[C] |==|  0.21146
USER: genes 6 Torsion [N]-CA--C-[N] |==|  0.11313
USER: genes 7 Torsion [N]-CA--C-[O] |==|  0.76164
USER: genes 8 Torsion [N]-CA--CB-[CG] |==|  0.57959
USER: genes 9 Torsion [CA]-CB--CG-[CD1] |==|  0.56297
USER: genes 10 Torsion [N]-CA--CB-[CG] |==|  0.86083
USER: genes 11 Torsion [CA]-CB--CG-[CD2] |==|  0.72231
USER: genes 12 Torsion [O]-C--CA-[CB] |==|  0.18454
USER: genes 13 Torsion [N]-C--CA-[N] |==|  0.93030
USER: genes 14 Torsion [C]-CA--CB-[CG] |==|  0.22693
USER: genes 15 Torsion [CA]-CB--CG-[CD] |==|  0.28371
USER: genes 16 Torsion [CB]-CG--CD-[NE] |==|  0.88460
USER: genes 17 Torsion [CG]-CD--NE-[HE] |==|  0.27808
USER: genes 18 Torsion [C]-CA--N-[C] |==|  0.77137
USER: genes 19 Torsion [N]-C--CA-[CB] |==|  0.73947
ROOT
ATOM      1  C   PRO C  17     -12.517   8.454  -9.498  1.00 34.10 LIG 0.24  C 
ATOM      2 O    PRO C  17     -13.730   8.652  -9.499  1.00 31.91 LIG-0.27  OA
ATOM      3  N   LEU C  18     -11.665   9.252 -10.113  1.00 30.88 LIG-0.35  N 
ATOM      4 H    LEU C  18     -10.822   9.088 -10.163  1.00 30.88 LIG 0.16  HD
ENDROOT
BRANCH 3 5
ATOM      5  CA  LEU C  18     -12.056  10.491 -10.770  1.00 30.78 LIG 0.18  C 
BRANCH 5 6
ATOM      6  C   LEU C  18     -12.646  10.286 -12.155  1.00 33.73 LIG 0.24  C 
ATOM      7  N   PRO C  19     -13.389  11.293 -12.684  1.00 33.17 LIG-0.34  N 
ATOM      8  CA  PRO C  19     -13.930  11.166 -14.054  1.00 33.85 LIG 0.18  C 
ATOM      9  CD  PRO C  19     -13.787  12.576 -12.053  1.00 35.22 LIG 0.13  C 
ATOM     10  CB  PRO C  19     -14.941  12.313 -14.154  1.00 35.69 LIG 0.04  C 
ATOM     11  CG  PRO C  19     -14.535  13.299 -13.129  1.00 39.92 LIG 0.02  C 
ATOM     12 O    LEU C  18     -12.350   9.267 -12.782  1.00 31.40 LIG-0.27  OA
BRANCH 8 13
ATOM     13  C   PRO C  19     -12.869  11.208 -15.164  1.00 39.47 LIG 0.24  C 
ATOM     14  N   PHE C  20     -13.327  11.183 -16.417  1.00 41.20 LIG-0.35  N 
ATOM     15 H    PHE C  20     -14.167  11.152 -16.599  1.00 41.20 LIG 0.16  HD
ATOM     16 O    PRO C  19     -11.671  11.227 -14.899  1.00 36.20 LIG-0.27  OA
BRANCH 14 17
ATOM     17  CA  PHE C  20     -12.486  11.205 -17.613  1.00 43.59 LIG 0.18  C 
BRANCH 17 18
ATOM     18  C   PHE C  20     -11.857   9.815 -17.821  1.00 48.54 LIG 0.24  C 
ATOM     19  N   PRO C  21     -12.598   8.695 -17.610  1.00 46.41 LIG-0.34  N 
ATOM     20  CA  PRO C  21     -12.011   7.357 -17.862  1.00 51.72 LIG 0.17  C 
ATOM     21  CD  PRO C  21     -13.986   8.578 -17.121  1.00 49.19 LIG 0.13  C 
ATOM     22  CB  PRO C  21     -13.160   6.389 -17.533  1.00 52.56 LIG 0.04  C 
ATOM     23  CG  PRO C  21     -14.081   7.152 -16.668  1.00 54.82 LIG 0.02  C 
ATOM     24 O    PHE C  20     -10.687   9.758 -18.206  1.00 48.67 LIG-0.27  OA
BRANCH 20 25
ATOM     25  C   PRO C  21     -11.535   7.147 -19.301  1.00 87.57 LIG 0.22  C 
ATOM     26 O    PRO C  21     -12.327   6.763 -20.160  1.00 58.80 LIG-0.29  OA
ENDBRANCH 20 25
ENDBRANCH 17 18
BRANCH 17 27
ATOM     27  CB  PHE C  20     -11.396  12.296 -17.448  1.00 46.79 LIG 0.07  C 
BRANCH 27 28
ATOM     28  CG  PHE C  20     -10.869  12.951 -18.710  1.00 50.46 LIG-0.06  A 
ATOM     29  CD2 PHE C  20     -11.601  12.912 -19.893  1.00 54.33 LIG 0.01  A 
ATOM     30  CE2 PHE C  20     -11.112  13.519 -21.058  1.00 57.68 LIG 0.00  A 
ATOM     31  CZ  PHE C  20      -9.879  14.143 -21.048  1.00 55.81 LIG 0.00  A 
ATOM     32  CE1 PHE C  20      -9.134  14.179 -19.888  1.00 56.05 LIG 0.00  A 
ATOM     33  CD1 PHE C  20      -9.619  13.564 -18.727  1.00 54.84 LIG 0.01  A 
ENDBRANCH 27 28
ENDBRANCH 17 27
ENDBRANCH 14 17
ENDBRANCH 8 13
ENDBRANCH 5 6
BRANCH 5 34
ATOM     34  CB  LEU C  18     -10.837  11.403 -10.882  1.00 31.46 LIG 0.04  C 
BRANCH 34 35
ATOM     35  CG  LEU C  18     -10.044  11.617  -9.618  1.00 36.62 LIG-0.02  C 
ATOM     36  CD2 LEU C  18     -10.417  12.952  -8.991  1.00 38.91 LIG 0.01  C 
ATOM     37  CD1 LEU C  18      -8.545  11.561  -9.927  1.00 36.98 LIG 0.01  C 
ENDBRANCH 34 35
ENDBRANCH 5 34
ENDBRANCH 3 5
BRANCH 1 38
ATOM     38  CA  PRO C  17     -11.902   7.220  -8.853  1.00 33.71 LIG 0.18  C 
ATOM     39  CB  PRO C  17     -12.279   5.922  -9.575  1.00 36.04 LIG 0.04  C 
ATOM     40  CG  PRO C  17     -13.219   5.179  -8.649  1.00 41.66 LIG 0.02  C 
ATOM     41  CD  PRO C  17     -13.418   5.992  -7.405  1.00 37.74 LIG 0.13  C 
ATOM     42  N   PRO C  17     -12.315   6.977  -7.468  1.00 35.06 LIG-0.34  N 
ATOM     43  C   ARG C  16     -11.668   7.611  -6.472  1.00 37.80 LIG 0.24  C 
ATOM     44 O    ARG C  16     -10.750   8.388  -6.724  1.00 34.25 LIG-0.27  OA
BRANCH 43 45
ATOM     45  CA  ARG C  16     -12.052   7.344  -5.004  1.00 39.10 LIG 0.18  C 
BRANCH 45 46
ATOM     46  CB  ARG C  16     -11.106   6.292  -4.395  1.00 42.59 LIG 0.04  C 
BRANCH 46 47
ATOM     47  CG  ARG C  16      -9.767   6.841  -3.914  1.00 54.51 LIG 0.02  C 
BRANCH 47 48
ATOM     48  CD  ARG C  16      -9.726   7.008  -2.407  1.00 71.70 LIG 0.14  C 
BRANCH 48 49
ATOM     49  NE  ARG C  16     -10.985   7.559  -1.894  1.00 86.72 LIG-0.23  N 
ATOM     50 HE   ARG C  16     -11.547   7.009  -1.546  1.00 86.72 LIG 0.18  HD
ATOM     51  CZ  ARG C  16     -11.320   8.846  -1.926  1.00 98.48 LIG 0.67  C 
ATOM     52  NH2 ARG C  16     -12.489   9.247  -1.443  1.00 86.10 LIG-0.23  N 
ATOM     53  NH1 ARG C  16     -10.493   9.742  -2.451  1.00 81.98 LIG-0.23  N 
ATOM     54 2HH2 ARG C  16     -12.701  10.080  -1.466  1.00 86.10 LIG 0.17  HD
ATOM     55 1HH2 ARG C  16     -13.034   8.674  -1.106  1.00 86.10 LIG 0.17  HD
ATOM     56 1HH1 ARG C  16      -9.735   9.491  -2.772  1.00 81.98 LIG 0.17  HD
ATOM     57 2HH1 ARG C  16     -10.714  10.572  -2.469  1.00 81.98 LIG 0.17  HD
ENDBRANCH 48 49
ENDBRANCH 47 48
ENDBRANCH 46 47
ENDBRANCH 45 46
BRANCH 45 58
ATOM     58  N   ARG C  16     -13.444   6.887  -4.940  1.00 40.87 LIG-0.35  N 
ATOM     59  C   PRO C  15     -14.527   7.699  -4.953  1.00 47.02 LIG 0.25  C 
ATOM     60 O    PRO C  15     -14.450   8.928  -4.986  1.00 46.36 LIG-0.27  OA
ATOM     61 H    ARG C  16     -13.513   6.031  -4.892  1.00 40.87 LIG 0.16  HD
BRANCH 59 62
ATOM     62  CA  PRO C  15     -15.901   7.025  -4.968  1.00 46.56 LIG 0.35  C 
ATOM     63  N   PRO C  15     -16.949   7.821  -4.314  1.00 47.38 LIG 0.32  N 
ATOM     64  CD  PRO C  15     -17.999   8.226  -5.268  1.00 49.28 LIG 0.32  C 
ATOM     65  CG  PRO C  15     -17.870   7.212  -6.362  1.00 53.38 LIG 0.04  C 
ATOM     66  CB  PRO C  15     -16.417   6.869  -6.408  1.00 48.49 LIG 0.05  C 
ENDBRANCH 59 62
ENDBRANCH 45 58
ENDBRANCH 43 45
ENDBRANCH 1 38
TORSDOF 18
ENDMDL
MODEL 25
USER: ADFR SOLUTION from run 9
USER: SCORE 22.413799 LL:  -4.196 LR: -18.837 RR:   0.000 FEB: -13.467
USER: RMSD 13.739884
USER: SEED 14929
USER: STATUS no improvement in best in 4 clusters for 5 generations
USER: GENES 20
USER: genes 0 Translation |==|  0.40525 0.63744 0.45738
USER: genes 1 Rotation |==|  0.92540 0.58757 0.29194 0.63446
USER: genes 2 Torsion [C]-N--CA-[CB] |==|  0.62927
USER: genes 3 Torsion [N]-CA--C-[N] |==|  0.23564
USER: genes 4 Torsion [N]-CA--C-[O] |==|  0.93406
USER: genes 5 Torsion [C]-N--CA-[C] |==|  0.76808
USER: genes 6 Torsion [N]-CA--C-[N] |==|  0.36383
USER: genes 7 Torsion [N]-CA--C-[O] |==|  0.91395
USER: genes 8 Torsion [N]-CA--CB-[CG] |==|  0.50503
USER: genes 9 Torsion [CA]-CB--CG-[CD1] |==|  0.63189
USER: genes 10 Torsion [N]-CA--CB-[CG] |==|  0.61621
USER: genes 11 Torsion [CA]-CB--CG-[CD2] |==|  0.94730
USER: genes 12 Torsion [O]-C--CA-[CB] |==|  0.09196
USER: genes 13 Torsion [N]-C--CA-[N] |==|  0.46563
USER: genes 14 Torsion [C]-CA--CB-[CG] |==|  0.49343
USER: genes 15 Torsion [CA]-CB--CG-[CD] |==|  0.53093
USER: genes 16 Torsion [CB]-CG--CD-[NE] |==|  0.42472
USER: genes 17 Torsion [CG]-CD--NE-[HE] |==|  0.10494
USER: genes 18 Torsion [C]-CA--N-[C] |==|  0.77612
USER: genes 19 Torsion [N]-C--CA-[CB] |==|  0.77725
ROOT
ATOM      1  C   PRO C  17     -13.319  11.826 -11.699  1.00 34.10 LIG 0.24  C 
ATOM      2 O    PRO C  17     -13.852  11.146 -10.824  1.00 31.91 LIG-0.27  OA
ATOM      3  N   LEU C  18     -12.031  12.116 -11.690  1.00 30.88 LIG-0.35  N 
ATOM      4 H    LEU C  18     -11.665  12.637 -12.267  1.00 30.88 LIG 0.16  HD
ENDROOT
BRANCH 3 5
ATOM      5  CA  LEU C  18     -11.097  11.589 -10.706  1.00 30.78 LIG 0.18  C 
BRANCH 5 6
ATOM      6  C   LEU C  18     -11.772  10.906  -9.529  1.00 33.73 LIG 0.24  C 
ATOM      7  N   PRO C  19     -12.122   9.601  -9.667  1.00 33.17 LIG-0.34  N 
ATOM      8  CA  PRO C  19     -12.723   8.876  -8.527  1.00 33.85 LIG 0.18  C 
ATOM      9  CD  PRO C  19     -12.007   8.736 -10.868  1.00 35.22 LIG 0.13  C 
ATOM     10  CB  PRO C  19     -13.257   7.585  -9.156  1.00 35.69 LIG 0.04  C 
ATOM     11  CG  PRO C  19     -12.485   7.396 -10.404  1.00 39.92 LIG 0.02  C 
ATOM     12 O    LEU C  18     -11.888  11.526  -8.469  1.00 31.40 LIG-0.27  OA
BRANCH 8 13
ATOM     13  C   PRO C  19     -11.761   8.617  -7.358  1.00 39.47 LIG 0.24  C 
ATOM     14  N   PHE C  20     -12.322   8.470  -6.156  1.00 41.20 LIG-0.35  N 
ATOM     15 H    PHE C  20     -13.173   8.511  -6.037  1.00 41.20 LIG 0.16  HD
ATOM     16 O    PRO C  19     -10.547   8.585  -7.529  1.00 36.20 LIG-0.27  OA
BRANCH 14 17
ATOM     17  CA  PHE C  20     -11.585   8.227  -4.916  1.00 43.59 LIG 0.18  C 
BRANCH 17 18
ATOM     18  C   PHE C  20     -11.285   6.723  -4.787  1.00 48.54 LIG 0.24  C 
ATOM     19  N   PRO C  21     -10.025   6.303  -4.492  1.00 46.41 LIG-0.34  N 
ATOM     20  CA  PRO C  21      -9.746   4.858  -4.313  1.00 51.72 LIG 0.17  C 
ATOM     21  CD  PRO C  21      -8.796   7.102  -4.324  1.00 49.19 LIG 0.13  C 
ATOM     22  CB  PRO C  21      -8.246   4.818  -3.974  1.00 52.56 LIG 0.04  C 
ATOM     23  CG  PRO C  21      -7.696   6.094  -4.472  1.00 54.82 LIG 0.02  C 
ATOM     24 O    PHE C  20     -12.217   5.929  -4.930  1.00 48.67 LIG-0.27  OA
BRANCH 20 25
ATOM     25  C   PRO C  21     -10.560   4.200  -3.198  1.00 87.57 LIG 0.22  C 
ATOM     26 O    PRO C  21     -10.897   4.856  -2.214  1.00 58.80 LIG-0.29  OA
ENDBRANCH 20 25
ENDBRANCH 17 18
BRANCH 17 27
ATOM     27  CB  PHE C  20     -12.424   8.737  -3.717  1.00 46.79 LIG 0.07  C 
BRANCH 27 28
ATOM     28  CG  PHE C  20     -11.813   8.615  -2.336  1.00 50.46 LIG-0.06  A 
ATOM     29  CD2 PHE C  20     -10.488   8.977  -2.107  1.00 54.33 LIG 0.01  A 
ATOM     30  CE2 PHE C  20      -9.925   8.864  -0.829  1.00 57.68 LIG 0.00  A 
ATOM     31  CZ  PHE C  20     -10.677   8.364   0.218  1.00 55.81 LIG 0.00  A 
ATOM     32  CE1 PHE C  20     -11.987   7.987   0.006  1.00 56.05 LIG 0.00  A 
ATOM     33  CD1 PHE C  20     -12.546   8.091  -1.274  1.00 54.84 LIG 0.01  A 
ENDBRANCH 27 28
ENDBRANCH 17 27
ENDBRANCH 14 17
ENDBRANCH 8 13
ENDBRANCH 5 6
BRANCH 5 34
ATOM     34  CB  LEU C  18     -10.227  12.730 -10.183  1.00 31.46 LIG 0.04  C 
BRANCH 34 35
ATOM     35  CG  LEU C  18      -8.762  12.426 -10.007  1.00 36.62 LIG-0.02  C 
ATOM     36  CD2 LEU C  18      -8.545  10.922  -9.949  1.00 38.91 LIG 0.01  C 
ATOM     37  CD1 LEU C  18      -8.238  13.102  -8.737  1.00 36.98 LIG 0.01  C 
ENDBRANCH 34 35
ENDBRANCH 5 34
ENDBRANCH 3 5
BRANCH 1 38
ATOM     38  CA  PRO C  17     -14.119  12.461 -12.827  1.00 33.71 LIG 0.18  C 
ATOM     39  CB  PRO C  17     -15.528  12.878 -12.393  1.00 36.04 LIG 0.04  C 
ATOM     40  CG  PRO C  17     -16.485  11.926 -13.079  1.00 41.66 LIG 0.02  C 
ATOM     41  CD  PRO C  17     -15.693  10.954 -13.902  1.00 37.74 LIG 0.13  C 
ATOM     42  N   PRO C  17     -14.359  11.588 -13.981  1.00 35.06 LIG-0.34  N 
ATOM     43  C   ARG C  16     -13.413  11.492 -14.935  1.00 37.80 LIG 0.24  C 
ATOM     44 O    ARG C  16     -12.363  12.122 -14.833  1.00 34.25 LIG-0.27  OA
BRANCH 43 45
ATOM     45  CA  ARG C  16     -13.654  10.616 -16.179  1.00 39.10 LIG 0.18  C 
BRANCH 45 46
ATOM     46  CB  ARG C  16     -13.623   9.127 -15.788  1.00 42.59 LIG 0.04  C 
BRANCH 46 47
ATOM     47  CG  ARG C  16     -13.907   8.162 -16.935  1.00 54.51 LIG 0.02  C 
BRANCH 47 48
ATOM     48  CD  ARG C  16     -14.130   6.744 -16.446  1.00 71.70 LIG 0.14  C 
BRANCH 48 49
ATOM     49  NE  ARG C  16     -14.989   5.989 -17.365  1.00 86.72 LIG-0.23  N 
ATOM     50 HE   ARG C  16     -14.888   6.126 -18.208  1.00 86.72 LIG 0.18  HD
ATOM     51  CZ  ARG C  16     -15.912   5.106 -16.990  1.00 98.48 LIG 0.67  C 
ATOM     52  NH2 ARG C  16     -16.647   4.478 -17.898  1.00 86.10 LIG-0.23  N 
ATOM     53  NH1 ARG C  16     -16.113   4.852 -15.703  1.00 81.98 LIG-0.23  N 
ATOM     54 2HH2 ARG C  16     -17.243   3.909 -17.651  1.00 86.10 LIG 0.17  HD
ATOM     55 1HH2 ARG C  16     -16.529   4.641 -18.734  1.00 86.10 LIG 0.17  HD
ATOM     56 1HH1 ARG C  16     -15.646   5.258 -15.106  1.00 81.98 LIG 0.17  HD
ATOM     57 2HH1 ARG C  16     -16.710   4.281 -15.466  1.00 81.98 LIG 0.17  HD
ENDBRANCH 48 49
ENDBRANCH 47 48
ENDBRANCH 46 47
ENDBRANCH 45 46
BRANCH 45 58
ATOM     58  N   ARG C  16     -12.628  10.908 -17.186  1.00 40.87 LIG-0.35  N 
ATOM     59  C   PRO C  15     -12.651  11.965 -18.032  1.00 47.02 LIG 0.25  C 
ATOM     60 O    PRO C  15     -13.570  12.784 -18.065  1.00 46.36 LIG-0.27  OA
ATOM     61 H    ARG C  16     -11.991  10.331 -17.191  1.00 40.87 LIG 0.16  HD
BRANCH 59 62
ATOM     62  CA  PRO C  15     -11.442  12.146 -18.952  1.00 46.56 LIG 0.35  C 
ATOM     63  N   PRO C  15     -11.693  13.062 -20.074  1.00 47.38 LIG 0.32  N 
ATOM     64  CD  PRO C  15     -10.837  14.261 -19.998  1.00 49.28 LIG 0.32  C 
ATOM     65  CG  PRO C  15      -9.690  13.805 -19.150  1.00 53.38 LIG 0.04  C 
ATOM     66  CB  PRO C  15     -10.278  12.813 -18.199  1.00 48.49 LIG 0.05  C 
ENDBRANCH 59 62
ENDBRANCH 45 58
ENDBRANCH 43 45
ENDBRANCH 1 38
TORSDOF 18
ENDMDL
MODEL 26
USER: ADFR SOLUTION from run 47
USER: SCORE 21.520959 LL:  -4.945 LR: -18.831 RR:   0.000 FEB: -13.462
USER: RMSD 3.691267
USER: SEED 46
USER: STATUS no improvement in best in 8 clusters for 5 generations
USER: GENES 20
USER: genes 0 Translation |==|  0.44461 0.43019 0.51915
USER: genes 1 Rotation |==|  0.53191 0.42749 0.54477 0.99165
USER: genes 2 Torsion [C]-N--CA-[CB] |==|  0.37242
USER: genes 3 Torsion [N]-CA--C-[N] |==|  0.27310
USER: genes 4 Torsion [N]-CA--C-[O] |==|  0.15013
USER: genes 5 Torsion [C]-N--CA-[C] |==|  0.64674
USER: genes 6 Torsion [N]-CA--C-[N] |==|  0.17116
USER: genes 7 Torsion [N]-CA--C-[O] |==|  0.69588
USER: genes 8 Torsion [N]-CA--CB-[CG] |==|  0.78457
USER: genes 9 Torsion [CA]-CB--CG-[CD1] |==|  0.76158
USER: genes 10 Torsion [N]-CA--CB-[CG] |==|  0.68198
USER: genes 11 Torsion [CA]-CB--CG-[CD2] |==|  0.16362
USER: genes 12 Torsion [O]-C--CA-[CB] |==|  0.18269
USER: genes 13 Torsion [N]-C--CA-[N] |==|  0.37778
USER: genes 14 Torsion [C]-CA--CB-[CG] |==|  0.33182
USER: genes 15 Torsion [CA]-CB--CG-[CD] |==|  0.86514
USER: genes 16 Torsion [CB]-CG--CD-[NE] |==|  0.65535
USER: genes 17 Torsion [CG]-CD--NE-[HE] |==|  0.97874
USER: genes 18 Torsion [C]-CA--N-[C] |==|  0.85206
USER: genes 19 Torsion [N]-C--CA-[CB] |==|  0.82869
ROOT
ATOM      1  C   PRO C  17     -12.610   8.095  -9.706  1.00 34.10 LIG 0.24  C 
ATOM      2 O    PRO C  17     -13.800   8.404  -9.693  1.00 31.91 LIG-0.27  OA
ATOM      3  N   LEU C  18     -11.699   8.798 -10.353  1.00 30.88 LIG-0.35  N 
ATOM      4 H    LEU C  18     -10.876   8.556 -10.412  1.00 30.88 LIG 0.16  HD
ENDROOT
BRANCH 3 5
ATOM      5  CA  LEU C  18     -11.987  10.053 -11.032  1.00 30.78 LIG 0.18  C 
BRANCH 5 6
ATOM      6  C   LEU C  18     -12.061   9.925 -12.544  1.00 33.73 LIG 0.24  C 
ATOM      7  N   PRO C  19     -13.290   9.815 -13.113  1.00 33.17 LIG-0.34  N 
ATOM      8  CA  PRO C  19     -13.415   9.753 -14.585  1.00 33.85 LIG 0.18  C 
ATOM      9  CD  PRO C  19     -14.611   9.719 -12.444  1.00 35.22 LIG 0.13  C 
ATOM     10  CB  PRO C  19     -14.867   9.316 -14.808  1.00 35.69 LIG 0.04  C 
ATOM     11  CG  PRO C  19     -15.593   9.684 -13.573  1.00 39.92 LIG 0.02  C 
ATOM     12 O    LEU C  18     -11.022  10.024 -13.199  1.00 31.40 LIG-0.27  OA
BRANCH 8 13
ATOM     13  C   PRO C  19     -13.067  11.061 -15.310  1.00 39.47 LIG 0.24  C 
ATOM     14  N   PHE C  20     -13.981  11.520 -16.168  1.00 41.20 LIG-0.35  N 
ATOM     15 H    PHE C  20     -14.727  11.113 -16.306  1.00 41.20 LIG 0.16  HD
ATOM     16 O    PRO C  19     -11.992  11.623 -15.127  1.00 36.20 LIG-0.27  OA
BRANCH 14 17
ATOM     17  CA  PHE C  20     -13.840  12.738 -16.963  1.00 43.59 LIG 0.18  C 
BRANCH 17 18
ATOM     18  C   PHE C  20     -15.073  13.635 -16.747  1.00 48.54 LIG 0.24  C 
ATOM     19  N   PRO C  21     -15.355  14.115 -15.506  1.00 46.41 LIG-0.34  N 
ATOM     20  CA  PRO C  21     -16.509  15.023 -15.305  1.00 51.72 LIG 0.17  C 
ATOM     21  CD  PRO C  21     -14.663  13.852 -14.229  1.00 49.19 LIG 0.13  C 
ATOM     22  CB  PRO C  21     -16.460  15.345 -13.802  1.00 52.56 LIG 0.04  C 
ATOM     23  CG  PRO C  21     -15.667  14.260 -13.193  1.00 54.82 LIG 0.02  C 
ATOM     24 O    PHE C  20     -15.765  13.919 -17.727  1.00 48.67 LIG-0.27  OA
BRANCH 20 25
ATOM     25  C   PRO C  21     -16.439  16.312 -16.127  1.00 87.57 LIG 0.22  C 
ATOM     26 O    PRO C  21     -16.234  17.387 -15.567  1.00 58.80 LIG-0.29  OA
ENDBRANCH 20 25
ENDBRANCH 17 18
BRANCH 17 27
ATOM     27  CB  PHE C  20     -13.681  12.355 -18.457  1.00 46.79 LIG 0.07  C 
BRANCH 27 28
ATOM     28  CG  PHE C  20     -12.323  11.851 -18.906  1.00 50.46 LIG-0.06  A 
ATOM     29  CD2 PHE C  20     -12.030  10.489 -18.900  1.00 54.33 LIG 0.01  A 
ATOM     30  CE2 PHE C  20     -10.775  10.025 -19.317  1.00 57.68 LIG 0.00  A 
ATOM     31  CZ  PHE C  20      -9.802  10.923 -19.715  1.00 55.81 LIG 0.00  A 
ATOM     32  CE1 PHE C  20     -10.071  12.275 -19.713  1.00 56.05 LIG 0.00  A 
ATOM     33  CD1 PHE C  20     -11.322  12.739 -19.288  1.00 54.84 LIG 0.01  A 
ENDBRANCH 27 28
ENDBRANCH 17 27
ENDBRANCH 14 17
ENDBRANCH 8 13
ENDBRANCH 5 6
BRANCH 5 34
ATOM     34  CB  LEU C  18     -10.908  11.072 -10.674  1.00 31.46 LIG 0.04  C 
BRANCH 34 35
ATOM     35  CG  LEU C  18     -11.357  12.268  -9.875  1.00 36.62 LIG-0.02  C 
ATOM     36  CD2 LEU C  18     -11.973  11.814  -8.561  1.00 38.91 LIG 0.01  C 
ATOM     37  CD1 LEU C  18     -12.357  13.094 -10.689  1.00 36.98 LIG 0.01  C 
ENDBRANCH 34 35
ENDBRANCH 5 34
ENDBRANCH 3 5
BRANCH 1 38
ATOM     38  CA  PRO C  17     -12.099   6.824  -9.043  1.00 33.71 LIG 0.18  C 
ATOM     39  CB  PRO C  17     -12.620   5.551  -9.718  1.00 36.04 LIG 0.04  C 
ATOM     40  CG  PRO C  17     -13.601   4.927  -8.748  1.00 41.66 LIG 0.02  C 
ATOM     41  CD  PRO C  17     -13.685   5.787  -7.523  1.00 37.74 LIG 0.13  C 
ATOM     42  N   PRO C  17     -12.495   6.658  -7.641  1.00 35.06 LIG-0.34  N 
ATOM     43  C   ARG C  16     -11.762   7.251  -6.679  1.00 37.80 LIG 0.24  C 
ATOM     44 O    ARG C  16     -10.781   7.928  -6.976  1.00 34.25 LIG-0.27  OA
BRANCH 43 45
ATOM     45  CA  ARG C  16     -12.129   7.060  -5.196  1.00 39.10 LIG 0.18  C 
BRANCH 45 46
ATOM     46  CB  ARG C  16     -12.857   8.310  -4.668  1.00 42.59 LIG 0.04  C 
BRANCH 46 47
ATOM     47  CG  ARG C  16     -14.273   8.056  -4.160  1.00 54.51 LIG 0.02  C 
BRANCH 47 48
ATOM     48  CD  ARG C  16     -15.095   7.244  -5.142  1.00 71.70 LIG 0.14  C 
BRANCH 48 49
ATOM     49  NE  ARG C  16     -16.333   7.940  -5.509  1.00 86.72 LIG-0.23  N 
ATOM     50 HE   ARG C  16     -16.528   8.659  -5.079  1.00 86.72 LIG 0.18  HD
ATOM     51  CZ  ARG C  16     -17.177   7.540  -6.457  1.00 98.48 LIG 0.67  C 
ATOM     52  NH2 ARG C  16     -18.279   8.235  -6.710  1.00 86.10 LIG-0.23  N 
ATOM     53  NH1 ARG C  16     -16.930   6.438  -7.154  1.00 81.98 LIG-0.23  N 
ATOM     54 2HH2 ARG C  16     -18.821   7.972  -7.324  1.00 86.10 LIG 0.17  HD
ATOM     55 1HH2 ARG C  16     -18.451   8.947  -6.260  1.00 86.10 LIG 0.17  HD
ATOM     56 1HH1 ARG C  16     -16.222   5.977  -6.993  1.00 81.98 LIG 0.17  HD
ATOM     57 2HH1 ARG C  16     -17.478   6.184  -7.765  1.00 81.98 LIG 0.17  HD
ENDBRANCH 48 49
ENDBRANCH 47 48
ENDBRANCH 46 47
ENDBRANCH 45 46
BRANCH 45 58
ATOM     58  N   ARG C  16     -10.910   6.806  -4.421  1.00 40.87 LIG-0.35  N 
ATOM     59  C   PRO C  15      -9.999   5.845  -4.703  1.00 47.02 LIG 0.25  C 
ATOM     60 O    PRO C  15     -10.122   5.050  -5.636  1.00 46.36 LIG-0.27  OA
ATOM     61 H    ARG C  16     -10.822   7.338  -3.751  1.00 40.87 LIG 0.16  HD
BRANCH 59 62
ATOM     62  CA  PRO C  15      -8.746   5.795  -3.826  1.00 46.56 LIG 0.35  C 
ATOM     63  N   PRO C  15      -7.786   4.761  -4.237  1.00 47.38 LIG 0.32  N 
ATOM     64  CD  PRO C  15      -6.508   5.351  -4.679  1.00 49.28 LIG 0.32  C 
ATOM     65  CG  PRO C  15      -6.506   6.692  -4.011  1.00 53.38 LIG 0.04  C 
ATOM     66  CB  PRO C  15      -7.942   7.100  -3.949  1.00 48.49 LIG 0.05  C 
ENDBRANCH 59 62
ENDBRANCH 45 58
ENDBRANCH 43 45
ENDBRANCH 1 38
TORSDOF 18
ENDMDL
MODEL 27
USER: ADFR SOLUTION from run 50
USER: SCORE 22.445289 LL:  -4.508 LR: -18.834 RR:   0.000 FEB: -13.464
USER: RMSD 12.628497
USER: SEED 49
USER: STATUS no improvement in best in 4 clusters for 5 generations
USER: GENES 20
USER: genes 0 Translation |==|  0.41739 0.61802 0.47119
USER: genes 1 Rotation |==|  0.85617 0.45009 0.21641 0.70057
USER: genes 2 Torsion [C]-N--CA-[CB] |==|  0.75856
USER: genes 3 Torsion [N]-CA--C-[N] |==|  0.15346
USER: genes 4 Torsion [N]-CA--C-[O] |==|  0.06827
USER: genes 5 Torsion [C]-N--CA-[C] |==|  0.13978
USER: genes 6 Torsion [N]-CA--C-[N] |==|  0.15556
USER: genes 7 Torsion [N]-CA--C-[O] |==|  0.70284
USER: genes 8 Torsion [N]-CA--CB-[CG] |==|  0.84292
USER: genes 9 Torsion [CA]-CB--CG-[CD1] |==|  0.66851
USER: genes 10 Torsion [N]-CA--CB-[CG] |==|  0.65226
USER: genes 11 Torsion [CA]-CB--CG-[CD2] |==|  0.93495
USER: genes 12 Torsion [O]-C--CA-[CB] |==|  0.95230
USER: genes 13 Torsion [N]-C--CA-[N] |==|  0.07554
USER: genes 14 Torsion [C]-CA--CB-[CG] |==|  0.64820
USER: genes 15 Torsion [CA]-CB--CG-[CD] |==|  0.35819
USER: genes 16 Torsion [CB]-CG--CD-[NE] |==|  0.04897
USER: genes 17 Torsion [CG]-CD--NE-[HE] |==|  0.73108
USER: genes 18 Torsion [C]-CA--N-[C] |==|  0.62836
USER: genes 19 Torsion [N]-C--CA-[CB] |==|  0.74702
ROOT
ATOM      1  C   PRO C  17     -13.100  11.476 -11.253  1.00 34.10 LIG 0.24  C 
ATOM      2 O    PRO C  17     -13.552  11.629 -10.120  1.00 31.91 LIG-0.27  OA
ATOM      3  N   LEU C  18     -11.838  11.164 -11.481  1.00 30.88 LIG-0.35  N 
ATOM      4 H    LEU C  18     -11.504  11.112 -12.271  1.00 30.88 LIG 0.16  HD
ENDROOT
BRANCH 3 5
ATOM      5  CA  LEU C  18     -10.880  10.877 -10.424  1.00 30.78 LIG 0.18  C 
BRANCH 5 6
ATOM      6  C   LEU C  18     -11.487  10.163  -9.228  1.00 33.73 LIG 0.24  C 
ATOM      7  N   PRO C  19     -12.153   9.000  -9.454  1.00 33.17 LIG-0.34  N 
ATOM      8  CA  PRO C  19     -12.706   8.236  -8.315  1.00 33.85 LIG 0.18  C 
ATOM      9  CD  PRO C  19     -12.451   8.344 -10.752  1.00 35.22 LIG 0.13  C 
ATOM     10  CB  PRO C  19     -13.628   7.208  -8.979  1.00 35.69 LIG 0.04  C 
ATOM     11  CG  PRO C  19     -13.146   7.074 -10.371  1.00 39.92 LIG 0.02  C 
ATOM     12 O    LEU C  18     -11.271  10.607  -8.099  1.00 31.40 LIG-0.27  OA
BRANCH 8 13
ATOM     13  C   PRO C  19     -11.648   7.591  -7.407  1.00 39.47 LIG 0.24  C 
ATOM     14  N   PHE C  20     -12.053   6.546  -6.682  1.00 41.20 LIG-0.35  N 
ATOM     15 H    PHE C  20     -12.857   6.243  -6.721  1.00 41.20 LIG 0.16  HD
ATOM     16 O    PRO C  19     -10.510   8.043  -7.336  1.00 36.20 LIG-0.27  OA
BRANCH 14 17
ATOM     17  CA  PHE C  20     -11.208   5.800  -5.752  1.00 43.59 LIG 0.18  C 
BRANCH 17 18
ATOM     18  C   PHE C  20     -10.498   6.784  -4.804  1.00 48.54 LIG 0.24  C 
ATOM     19  N   PRO C  21     -11.227   7.658  -4.061  1.00 46.41 LIG-0.34  N 
ATOM     20  CA  PRO C  21     -10.549   8.569  -3.107  1.00 51.72 LIG 0.17  C 
ATOM     21  CD  PRO C  21     -12.686   7.880  -4.055  1.00 49.19 LIG 0.13  C 
ATOM     22  CB  PRO C  21     -11.708   9.352  -2.468  1.00 52.56 LIG 0.04  C 
ATOM     23  CG  PRO C  21     -12.835   9.226  -3.411  1.00 54.82 LIG 0.02  C 
ATOM     24 O    PHE C  20      -9.268   6.731  -4.725  1.00 48.67 LIG-0.27  OA
BRANCH 20 25
ATOM     25  C   PRO C  21      -9.736   7.849  -2.029  1.00 87.57 LIG 0.22  C 
ATOM     26 O    PRO C  21     -10.148   7.813  -0.871  1.00 58.80 LIG-0.29  OA
ENDBRANCH 20 25
ENDBRANCH 17 18
BRANCH 17 27
ATOM     27  CB  PHE C  20     -10.184   4.959  -6.557  1.00 46.79 LIG 0.07  C 
BRANCH 27 28
ATOM     28  CG  PHE C  20     -10.734   3.985  -7.581  1.00 50.46 LIG-0.06  A 
ATOM     29  CD2 PHE C  20     -11.541   4.428  -8.626  1.00 54.33 LIG 0.01  A 
ATOM     30  CE2 PHE C  20     -12.047   3.527  -9.572  1.00 57.68 LIG 0.00  A 
ATOM     31  CZ  PHE C  20     -11.769   2.177  -9.460  1.00 55.81 LIG 0.00  A 
ATOM     32  CE1 PHE C  20     -10.984   1.719  -8.424  1.00 56.05 LIG 0.00  A 
ATOM     33  CD1 PHE C  20     -10.486   2.619  -7.473  1.00 54.84 LIG 0.01  A 
ENDBRANCH 27 28
ENDBRANCH 17 27
ENDBRANCH 14 17
ENDBRANCH 8 13
ENDBRANCH 5 6
BRANCH 5 34
ATOM     34  CB  LEU C  18     -10.252  12.186  -9.951  1.00 31.46 LIG 0.04  C 
BRANCH 34 35
ATOM     35  CG  LEU C  18      -8.747  12.255  -9.983  1.00 36.62 LIG-0.02  C 
ATOM     36  CD2 LEU C  18      -8.160  10.852  -9.931  1.00 38.91 LIG 0.01  C 
ATOM     37  CD1 LEU C  18      -8.239  13.102  -8.813  1.00 36.98 LIG 0.01  C 
ENDBRANCH 34 35
ENDBRANCH 5 34
ENDBRANCH 3 5
BRANCH 1 38
ATOM     38  CA  PRO C  17     -13.944  11.716 -12.497  1.00 33.71 LIG 0.18  C 
ATOM     39  CB  PRO C  17     -15.447  11.741 -12.199  1.00 36.04 LIG 0.04  C 
ATOM     40  CG  PRO C  17     -16.022  10.478 -12.805  1.00 41.66 LIG 0.02  C 
ATOM     41  CD  PRO C  17     -14.913   9.701 -13.448  1.00 37.74 LIG 0.13  C 
ATOM     42  N   PRO C  17     -13.816  10.691 -13.537  1.00 35.06 LIG-0.34  N 
ATOM     43  C   ARG C  16     -12.801  10.776 -14.418  1.00 37.80 LIG 0.24  C 
ATOM     44 O    ARG C  16     -11.990  11.696 -14.343  1.00 34.25 LIG-0.27  OA
BRANCH 43 45
ATOM     45  CA  ARG C  16     -12.665   9.737 -15.547  1.00 39.10 LIG 0.18  C 
BRANCH 45 46
ATOM     46  CB  ARG C  16     -12.022  10.387 -16.786  1.00 42.59 LIG 0.04  C 
BRANCH 46 47
ATOM     47  CG  ARG C  16     -12.812  10.213 -18.079  1.00 54.51 LIG 0.02  C 
BRANCH 47 48
ATOM     48  CD  ARG C  16     -13.033  11.531 -18.795  1.00 71.70 LIG 0.14  C 
BRANCH 48 49
ATOM     49  NE  ARG C  16     -12.107  12.564 -18.317  1.00 86.72 LIG-0.23  N 
ATOM     50 HE   ARG C  16     -12.394  13.107 -17.716  1.00 86.72 LIG 0.18  HD
ATOM     51  CZ  ARG C  16     -10.857  12.721 -18.746  1.00 98.48 LIG 0.67  C 
ATOM     52  NH2 ARG C  16     -10.099  13.694 -18.257  1.00 86.10 LIG-0.23  N 
ATOM     53  NH1 ARG C  16     -10.359  11.912 -19.673  1.00 81.98 LIG-0.23  N 
ATOM     54 2HH2 ARG C  16      -9.292  13.791 -18.537  1.00 86.10 LIG 0.17  HD
ATOM     55 1HH2 ARG C  16     -10.414  14.226 -17.660  1.00 86.10 LIG 0.17  HD
ATOM     56 1HH1 ARG C  16     -10.845  11.283 -20.000  1.00 81.98 LIG 0.17  HD
ATOM     57 2HH1 ARG C  16      -9.551  12.018 -19.946  1.00 81.98 LIG 0.17  HD
ENDBRANCH 48 49
ENDBRANCH 47 48
ENDBRANCH 46 47
ENDBRANCH 45 46
BRANCH 45 58
ATOM     58  N   ARG C  16     -13.989   9.197 -15.874  1.00 40.87 LIG-0.35  N 
ATOM     59  C   PRO C  15     -14.269   7.883 -16.038  1.00 47.02 LIG 0.25  C 
ATOM     60 O    PRO C  15     -13.420   6.995 -15.961  1.00 46.36 LIG-0.27  OA
ATOM     61 H    ARG C  16     -14.588   9.808 -15.955  1.00 40.87 LIG 0.16  HD
BRANCH 59 62
ATOM     62  CA  PRO C  15     -15.733   7.512 -16.290  1.00 46.56 LIG 0.35  C 
ATOM     63  N   PRO C  15     -15.897   6.264 -17.051  1.00 47.38 LIG 0.32  N 
ATOM     64  CD  PRO C  15     -16.579   5.228 -16.254  1.00 49.28 LIG 0.32  C 
ATOM     65  CG  PRO C  15     -17.317   6.025 -15.223  1.00 53.38 LIG 0.04  C 
ATOM     66  CB  PRO C  15     -16.458   7.221 -14.966  1.00 48.49 LIG 0.05  C 
ENDBRANCH 59 62
ENDBRANCH 45 58
ENDBRANCH 43 45
ENDBRANCH 1 38
TORSDOF 18
ENDMDL
MODEL 28
USER: ADFR SOLUTION from run 79
USER: SCORE 22.122963 LL:  -4.367 LR: -18.775 RR:   0.000 FEB: -13.406
USER: RMSD 13.186774
USER: SEED 78
USER: STATUS no improvement in best in 6 clusters for 5 generations
USER: GENES 20
USER: genes 0 Translation |==|  0.46248 0.62565 0.42987
USER: genes 1 Rotation |==|  0.41880 0.08683 0.26607 0.63407
USER: genes 2 Torsion [C]-N--CA-[CB] |==|  0.15731
USER: genes 3 Torsion [N]-CA--C-[N] |==|  0.12518
USER: genes 4 Torsion [N]-CA--C-[O] |==|  0.14131
USER: genes 5 Torsion [C]-N--CA-[C] |==|  0.60856
USER: genes 6 Torsion [N]-CA--C-[N] |==|  0.87525
USER: genes 7 Torsion [N]-CA--C-[O] |==|  0.60907
USER: genes 8 Torsion [N]-CA--CB-[CG] |==|  0.87699
USER: genes 9 Torsion [CA]-CB--CG-[CD1] |==|  0.74065
USER: genes 10 Torsion [N]-CA--CB-[CG] |==|  0.59553
USER: genes 11 Torsion [CA]-CB--CG-[CD2] |==|  0.98837
USER: genes 12 Torsion [O]-C--CA-[CB] |==|  0.53716
USER: genes 13 Torsion [N]-C--CA-[N] |==|  0.10556
USER: genes 14 Torsion [C]-CA--CB-[CG] |==|  0.27214
USER: genes 15 Torsion [CA]-CB--CG-[CD] |==|  0.15581
USER: genes 16 Torsion [CB]-CG--CD-[NE] |==|  0.48889
USER: genes 17 Torsion [CG]-CD--NE-[HE] |==|  0.20866
USER: genes 18 Torsion [C]-CA--N-[C] |==|  0.65033
USER: genes 19 Torsion [N]-C--CA-[CB] |==|  0.81561
ROOT
ATOM      1  C   PRO C  17     -12.288  11.614 -12.586  1.00 34.10 LIG 0.24  C 
ATOM      2 O    PRO C  17     -11.238  12.118 -12.977  1.00 31.91 LIG-0.27  OA
ATOM      3  N   LEU C  18     -12.400  11.019 -11.413  1.00 30.88 LIG-0.35  N 
ATOM      4 H    LEU C  18     -13.115  10.616 -11.158  1.00 30.88 LIG 0.16  HD
ENDROOT
BRANCH 3 5
ATOM      5  CA  LEU C  18     -11.329  10.982 -10.428  1.00 30.78 LIG 0.18  C 
BRANCH 5 6
ATOM      6  C   LEU C  18     -11.710  10.274  -9.139  1.00 33.73 LIG 0.24  C 
ATOM      7  N   PRO C  19     -12.372   9.091  -9.236  1.00 33.17 LIG-0.34  N 
ATOM      8  CA  PRO C  19     -12.708   8.334  -8.011  1.00 33.85 LIG 0.18  C 
ATOM      9  CD  PRO C  19     -12.863   8.406 -10.458  1.00 35.22 LIG 0.13  C 
ATOM     10  CB  PRO C  19     -13.698   7.272  -8.500  1.00 35.69 LIG 0.04  C 
ATOM     11  CG  PRO C  19     -13.449   7.125  -9.950  1.00 39.92 LIG 0.02  C 
ATOM     12 O    LEU C  18     -11.323  10.743  -8.067  1.00 31.40 LIG-0.27  OA
BRANCH 8 13
ATOM     13  C   PRO C  19     -11.497   7.731  -7.283  1.00 39.47 LIG 0.24  C 
ATOM     14  N   PHE C  20     -11.594   6.443  -6.948  1.00 41.20 LIG-0.35  N 
ATOM     15 H    PHE C  20     -12.289   5.971  -7.132  1.00 41.20 LIG 0.16  HD
ATOM     16 O    PRO C  19     -10.519   8.416  -7.000  1.00 36.20 LIG-0.27  OA
BRANCH 14 17
ATOM     17  CA  PHE C  20     -10.560   5.686  -6.243  1.00 43.59 LIG 0.18  C 
BRANCH 17 18
ATOM     18  C   PHE C  20     -10.478   4.265  -6.831  1.00 48.54 LIG 0.24  C 
ATOM     19  N   PRO C  21     -11.617   3.564  -7.078  1.00 46.41 LIG-0.34  N 
ATOM     20  CA  PRO C  21     -11.542   2.218  -7.695  1.00 51.72 LIG 0.17  C 
ATOM     21  CD  PRO C  21     -13.017   3.940  -6.801  1.00 49.19 LIG 0.13  C 
ATOM     22  CB  PRO C  21     -13.015   1.796  -7.824  1.00 52.56 LIG 0.04  C 
ATOM     23  CG  PRO C  21     -13.750   2.633  -6.857  1.00 54.82 LIG 0.02  C 
ATOM     24 O    PHE C  20      -9.363   3.806  -7.090  1.00 48.67 LIG-0.27  OA
BRANCH 20 25
ATOM     25  C   PRO C  21     -10.862   2.197  -9.065  1.00 87.57 LIG 0.22  C 
ATOM     26 O    PRO C  21     -11.303   1.477  -9.959  1.00 58.80 LIG-0.29  OA
ENDBRANCH 20 25
ENDBRANCH 17 18
BRANCH 17 27
ATOM     27  CB  PHE C  20     -10.899   5.649  -4.731  1.00 46.79 LIG 0.07  C 
BRANCH 27 28
ATOM     28  CG  PHE C  20     -11.353   6.943  -4.086  1.00 50.46 LIG-0.06  A 
ATOM     29  CD2 PHE C  20     -12.686   7.341  -4.148  1.00 54.33 LIG 0.01  A 
ATOM     30  CE2 PHE C  20     -13.104   8.538  -3.550  1.00 57.68 LIG 0.00  A 
ATOM     31  CZ  PHE C  20     -12.186   9.352  -2.913  1.00 55.81 LIG 0.00  A 
ATOM     32  CE1 PHE C  20     -10.860   8.980  -2.855  1.00 56.05 LIG 0.00  A 
ATOM     33  CD1 PHE C  20     -10.440   7.789  -3.461  1.00 54.84 LIG 0.01  A 
ENDBRANCH 27 28
ENDBRANCH 17 27
ENDBRANCH 14 17
ENDBRANCH 8 13
ENDBRANCH 5 6
BRANCH 5 34
ATOM     34  CB  LEU C  18     -10.904  12.411 -10.099  1.00 31.46 LIG 0.04  C 
BRANCH 34 35
ATOM     35  CG  LEU C  18      -9.442  12.622  -9.802  1.00 36.62 LIG-0.02  C 
ATOM     36  CD2 LEU C  18      -8.713  11.287  -9.801  1.00 38.91 LIG 0.01  C 
ATOM     37  CD1 LEU C  18      -9.281  13.332  -8.455  1.00 36.98 LIG 0.01  C 
ENDBRANCH 34 35
ENDBRANCH 5 34
ENDBRANCH 3 5
BRANCH 1 38
ATOM     38  CA  PRO C  17     -13.533  11.561 -13.461  1.00 33.71 LIG 0.18  C 
ATOM     39  CB  PRO C  17     -14.796  11.194 -12.675  1.00 36.04 LIG 0.04  C 
ATOM     40  CG  PRO C  17     -15.180   9.797 -13.114  1.00 41.66 LIG 0.02  C 
ATOM     41  CD  PRO C  17     -14.186   9.318 -14.129  1.00 37.74 LIG 0.13  C 
ATOM     42  N   PRO C  17     -13.491  10.560 -14.533  1.00 35.06 LIG-0.34  N 
ATOM     43  C   ARG C  16     -12.893  10.875 -15.697  1.00 37.80 LIG 0.24  C 
ATOM     44 O    ARG C  16     -12.383  11.982 -15.854  1.00 34.25 LIG-0.27  OA
BRANCH 43 45
ATOM     45  CA  ARG C  16     -12.871   9.860 -16.856  1.00 39.10 LIG 0.18  C 
BRANCH 45 46
ATOM     46  CB  ARG C  16     -12.609  10.588 -18.188  1.00 42.59 LIG 0.04  C 
BRANCH 46 47
ATOM     47  CG  ARG C  16     -11.159  10.553 -18.659  1.00 54.51 LIG 0.02  C 
BRANCH 47 48
ATOM     48  CD  ARG C  16     -10.632   9.137 -18.782  1.00 71.70 LIG 0.14  C 
BRANCH 48 49
ATOM     49  NE  ARG C  16      -9.269   9.116 -19.325  1.00 86.72 LIG-0.23  N 
ATOM     50 HE   ARG C  16      -8.629   9.348 -18.801  1.00 86.72 LIG 0.18  HD
ATOM     51  CZ  ARG C  16      -8.953   8.764 -20.569  1.00 98.48 LIG 0.67  C 
ATOM     52  NH2 ARG C  16      -7.688   8.787 -20.970  1.00 86.10 LIG-0.23  N 
ATOM     53  NH1 ARG C  16      -9.898   8.396 -21.424  1.00 81.98 LIG-0.23  N 
ATOM     54 2HH2 ARG C  16      -7.488   8.559 -21.774  1.00 86.10 LIG 0.17  HD
ATOM     55 1HH2 ARG C  16      -7.068   9.029 -20.425  1.00 86.10 LIG 0.17  HD
ATOM     56 1HH1 ARG C  16     -10.722   8.384 -21.175  1.00 81.98 LIG 0.17  HD
ATOM     57 2HH1 ARG C  16      -9.688   8.170 -22.226  1.00 81.98 LIG 0.17  HD
ENDBRANCH 48 49
ENDBRANCH 47 48
ENDBRANCH 46 47
ENDBRANCH 45 46
BRANCH 45 58
ATOM     58  N   ARG C  16     -14.149   9.143 -16.900  1.00 40.87 LIG-0.35  N 
ATOM     59  C   PRO C  15     -14.282   7.796 -16.881  1.00 47.02 LIG 0.25  C 
ATOM     60 O    PRO C  15     -13.325   7.022 -16.858  1.00 46.36 LIG-0.27  OA
ATOM     61 H    ARG C  16     -14.827   9.670 -16.941  1.00 40.87 LIG 0.16  HD
BRANCH 59 62
ATOM     62  CA  PRO C  15     -15.707   7.239 -16.846  1.00 46.56 LIG 0.35  C 
ATOM     63  N   PRO C  15     -15.762   5.771 -16.879  1.00 47.38 LIG 0.32  N 
ATOM     64  CD  PRO C  15     -16.347   5.221 -15.641  1.00 49.28 LIG 0.32  C 
ATOM     65  CG  PRO C  15     -17.149   6.367 -15.107  1.00 53.38 LIG 0.04  C 
ATOM     66  CB  PRO C  15     -16.399   7.593 -15.518  1.00 48.49 LIG 0.05  C 
ENDBRANCH 59 62
ENDBRANCH 45 58
ENDBRANCH 43 45
ENDBRANCH 1 38
TORSDOF 18
ENDMDL
MODEL 29
USER: ADFR SOLUTION from run 55
USER: SCORE 21.450944 LL:  -4.291 LR: -18.762 RR:   0.000 FEB: -13.393
USER: RMSD 13.743453
USER: SEED 54
USER: STATUS no improvement in best in 19 clusters for 5 generations
USER: GENES 20
USER: genes 0 Translation |==|  0.45241 0.51906 0.42809
USER: genes 1 Rotation |==|  0.19598 0.15241 0.30830 0.50173
USER: genes 2 Torsion [C]-N--CA-[CB] |==|  0.27597
USER: genes 3 Torsion [N]-CA--C-[N] |==|  0.41424
USER: genes 4 Torsion [N]-CA--C-[O] |==|  0.09407
USER: genes 5 Torsion [C]-N--CA-[C] |==|  0.17774
USER: genes 6 Torsion [N]-CA--C-[N] |==|  0.11866
USER: genes 7 Torsion [N]-CA--C-[O] |==|  0.44134
USER: genes 8 Torsion [N]-CA--CB-[CG] |==|  0.80830
USER: genes 9 Torsion [CA]-CB--CG-[CD1] |==|  0.72496
USER: genes 10 Torsion [N]-CA--CB-[CG] |==|  0.04793
USER: genes 11 Torsion [CA]-CB--CG-[CD2] |==|  0.59214
USER: genes 12 Torsion [O]-C--CA-[CB] |==|  0.37163
USER: genes 13 Torsion [N]-C--CA-[N] |==|  0.50178
USER: genes 14 Torsion [C]-CA--CB-[CG] |==|  0.31304
USER: genes 15 Torsion [CA]-CB--CG-[CD] |==|  0.61319
USER: genes 16 Torsion [CB]-CG--CD-[NE] |==|  0.53202
USER: genes 17 Torsion [CG]-CD--NE-[HE] |==|  0.06996
USER: genes 18 Torsion [C]-CA--N-[C] |==|  0.71773
USER: genes 19 Torsion [N]-C--CA-[CB] |==|  0.67456
ROOT
ATOM      1  C   PRO C  17     -12.470   9.695 -12.643  1.00 34.10 LIG 0.24  C 
ATOM      2 O    PRO C  17     -11.604   8.934 -13.070  1.00 31.91 LIG-0.27  OA
ATOM      3  N   LEU C  18     -12.743   9.814 -11.357  1.00 30.88 LIG-0.35  N 
ATOM      4 H    LEU C  18     -13.384  10.302 -11.058  1.00 30.88 LIG 0.16  HD
ENDROOT
BRANCH 3 5
ATOM      5  CA  LEU C  18     -11.992   9.135 -10.312  1.00 30.78 LIG 0.18  C 
BRANCH 5 6
ATOM      6  C   LEU C  18     -12.863   8.574  -9.201  1.00 33.73 LIG 0.24  C 
ATOM      7  N   PRO C  19     -12.438   7.451  -8.566  1.00 33.17 LIG-0.34  N 
ATOM      8  CA  PRO C  19     -13.220   6.904  -7.437  1.00 33.85 LIG 0.18  C 
ATOM      9  CD  PRO C  19     -11.245   6.618  -8.863  1.00 35.22 LIG 0.13  C 
ATOM     10  CB  PRO C  19     -12.619   5.512  -7.218  1.00 35.69 LIG 0.04  C 
ATOM     11  CG  PRO C  19     -11.261   5.563  -7.802  1.00 39.92 LIG 0.02  C 
ATOM     12 O    LEU C  18     -13.862   9.207  -8.853  1.00 31.40 LIG-0.27  OA
BRANCH 8 13
ATOM     13  C   PRO C  19     -13.197   7.770  -6.168  1.00 39.47 LIG 0.24  C 
ATOM     14  N   PHE C  20     -13.272   7.116  -5.008  1.00 41.20 LIG-0.35  N 
ATOM     15 H    PHE C  20     -13.324   6.258  -4.966  1.00 41.20 LIG 0.16  HD
ATOM     16 O    PRO C  19     -13.149   8.994  -6.235  1.00 36.20 LIG-0.27  OA
BRANCH 14 17
ATOM     17  CA  PHE C  20     -13.276   7.752  -3.691  1.00 43.59 LIG 0.18  C 
BRANCH 17 18
ATOM     18  C   PHE C  20     -14.538   8.623  -3.548  1.00 48.54 LIG 0.24  C 
ATOM     19  N   PRO C  21     -15.739   8.157  -3.982  1.00 46.41 LIG-0.34  N 
ATOM     20  CA  PRO C  21     -16.963   8.972  -3.796  1.00 51.72 LIG 0.17  C 
ATOM     21  CD  PRO C  21     -16.049   6.890  -4.672  1.00 49.19 LIG 0.13  C 
ATOM     22  CB  PRO C  21     -18.078   8.092  -4.387  1.00 52.56 LIG 0.04  C 
ATOM     23  CG  PRO C  21     -17.394   7.142  -5.285  1.00 54.82 LIG 0.02  C 
ATOM     24 O    PHE C  20     -14.424   9.727  -3.011  1.00 48.67 LIG-0.27  OA
BRANCH 20 25
ATOM     25  C   PRO C  21     -17.271   9.310  -2.336  1.00 87.57 LIG 0.22  C 
ATOM     26 O    PRO C  21     -17.996  10.266  -2.066  1.00 58.80 LIG-0.29  OA
ENDBRANCH 20 25
ENDBRANCH 17 18
BRANCH 17 27
ATOM     27  CB  PHE C  20     -11.988   8.598  -3.531  1.00 46.79 LIG 0.07  C 
BRANCH 27 28
ATOM     28  CG  PHE C  20     -10.673   7.853  -3.419  1.00 50.46 LIG-0.06  A 
ATOM     29  CD2 PHE C  20     -10.049   7.332  -4.550  1.00 54.33 LIG 0.01  A 
ATOM     30  CE2 PHE C  20      -8.833   6.644  -4.444  1.00 57.68 LIG 0.00  A 
ATOM     31  CZ  PHE C  20      -8.252   6.452  -3.204  1.00 55.81 LIG 0.00  A 
ATOM     32  CE1 PHE C  20      -8.863   6.948  -2.072  1.00 56.05 LIG 0.00  A 
ATOM     33  CD1 PHE C  20     -10.083   7.627  -2.178  1.00 54.84 LIG 0.01  A 
ENDBRANCH 27 28
ENDBRANCH 17 27
ENDBRANCH 14 17
ENDBRANCH 8 13
ENDBRANCH 5 6
BRANCH 5 34
ATOM     34  CB  LEU C  18     -10.987  10.113  -9.706  1.00 31.46 LIG 0.04  C 
BRANCH 34 35
ATOM     35  CG  LEU C  18     -11.232  11.575  -9.974  1.00 36.62 LIG-0.02  C 
ATOM     36  CD2 LEU C  18      -9.907  12.314 -10.079  1.00 38.91 LIG 0.01  C 
ATOM     37  CD1 LEU C  18     -12.101  12.171  -8.862  1.00 36.98 LIG 0.01  C 
ENDBRANCH 34 35
ENDBRANCH 5 34
ENDBRANCH 3 5
BRANCH 1 38
ATOM     38  CA  PRO C  17     -13.359  10.507 -13.574  1.00 33.71 LIG 0.18  C 
ATOM     39  CB  PRO C  17     -14.839  10.450 -13.180  1.00 36.04 LIG 0.04  C 
ATOM     40  CG  PRO C  17     -15.531   9.625 -14.245  1.00 41.66 LIG 0.02  C 
ATOM     41  CD  PRO C  17     -14.513   9.185 -15.254  1.00 37.74 LIG 0.13  C 
ATOM     42  N   PRO C  17     -13.357  10.065 -14.972  1.00 35.06 LIG-0.34  N 
ATOM     43  C   ARG C  16     -12.386  10.504 -15.795  1.00 37.80 LIG 0.24  C 
ATOM     44 O    ARG C  16     -11.511  11.258 -15.375  1.00 34.25 LIG-0.27  OA
BRANCH 43 45
ATOM     45  CA  ARG C  16     -12.381  10.090 -17.278  1.00 39.10 LIG 0.18  C 
BRANCH 45 46
ATOM     46  CB  ARG C  16     -12.348   8.554 -17.396  1.00 42.59 LIG 0.04  C 
BRANCH 46 47
ATOM     47  CG  ARG C  16     -13.615   7.932 -17.975  1.00 54.51 LIG 0.02  C 
BRANCH 47 48
ATOM     48  CD  ARG C  16     -14.008   6.659 -17.251  1.00 71.70 LIG 0.14  C 
BRANCH 48 49
ATOM     49  NE  ARG C  16     -15.055   5.931 -17.977  1.00 86.72 LIG-0.23  N 
ATOM     50 HE   ARG C  16     -15.113   6.058 -18.825  1.00 86.72 LIG 0.18  HD
ATOM     51  CZ  ARG C  16     -15.920   5.088 -17.418  1.00 98.48 LIG 0.67  C 
ATOM     52  NH2 ARG C  16     -16.839   4.483 -18.159  1.00 86.10 LIG-0.23  N 
ATOM     53  NH1 ARG C  16     -15.880   4.852 -16.113  1.00 81.98 LIG-0.23  N 
ATOM     54 2HH2 ARG C  16     -17.396   3.939 -17.794  1.00 86.10 LIG 0.17  HD
ATOM     55 1HH2 ARG C  16     -16.878   4.633 -19.005  1.00 86.10 LIG 0.17  HD
ATOM     56 1HH1 ARG C  16     -15.292   5.244 -15.623  1.00 81.98 LIG 0.17  HD
ATOM     57 2HH1 ARG C  16     -16.441   4.307 -15.758  1.00 81.98 LIG 0.17  HD
ENDBRANCH 48 49
ENDBRANCH 47 48
ENDBRANCH 46 47
ENDBRANCH 45 46
BRANCH 45 58
ATOM     58  N   ARG C  16     -11.219  10.685 -17.947  1.00 40.87 LIG-0.35  N 
ATOM     59  C   PRO C  15     -11.260  11.782 -18.739  1.00 47.02 LIG 0.25  C 
ATOM     60 O    PRO C  15     -12.301  12.382 -19.011  1.00 46.36 LIG-0.27  OA
ATOM     61 H    ARG C  16     -10.488  10.262 -17.786  1.00 40.87 LIG 0.16  HD
BRANCH 59 62
ATOM     62  CA  PRO C  15      -9.924  12.302 -19.275  1.00 46.56 LIG 0.35  C 
ATOM     63  N   PRO C  15      -9.905  12.468 -20.735  1.00 47.38 LIG 0.32  N 
ATOM     64  CD  PRO C  15      -9.723  13.880 -21.119  1.00 49.28 LIG 0.32  C 
ATOM     65  CG  PRO C  15      -9.078  14.480 -19.907  1.00 53.38 LIG 0.04  C 
ATOM     66  CB  PRO C  15      -9.640  13.719 -18.750  1.00 48.49 LIG 0.05  C 
ENDBRANCH 59 62
ENDBRANCH 45 58
ENDBRANCH 43 45
ENDBRANCH 1 38
TORSDOF 18
ENDMDL
MODEL 30
USER: ADFR SOLUTION from run 186
USER: SCORE 23.351132 LL:  -4.902 LR: -18.741 RR:   0.000 FEB: -13.371
USER: RMSD 13.152689
USER: SEED 185
USER: STATUS no improvement in best in 10 clusters for 5 generations
USER: GENES 20
USER: genes 0 Translation |==|  0.47110 0.47059 0.49360
USER: genes 1 Rotation |==|  0.99642 0.49043 0.55004 0.53123
USER: genes 2 Torsion [C]-N--CA-[CB] |==|  0.54463
USER: genes 3 Torsion [N]-CA--C-[N] |==|  0.45368
USER: genes 4 Torsion [N]-CA--C-[O] |==|  0.31731
USER: genes 5 Torsion [C]-N--CA-[C] |==|  0.14509
USER: genes 6 Torsion [N]-CA--C-[N] |==|  0.12139
USER: genes 7 Torsion [N]-CA--C-[O] |==|  0.80169
USER: genes 8 Torsion [N]-CA--CB-[CG] |==|  0.77374
USER: genes 9 Torsion [CA]-CB--CG-[CD1] |==|  0.76445
USER: genes 10 Torsion [N]-CA--CB-[CG] |==|  0.67792
USER: genes 11 Torsion [CA]-CB--CG-[CD2] |==|  0.00170
USER: genes 12 Torsion [O]-C--CA-[CB] |==|  0.39733
USER: genes 13 Torsion [N]-C--CA-[N] |==|  0.47416
USER: genes 14 Torsion [C]-CA--CB-[CG] |==|  0.47646
USER: genes 15 Torsion [CA]-CB--CG-[CD] |==|  0.89429
USER: genes 16 Torsion [CB]-CG--CD-[NE] |==|  0.85441
USER: genes 17 Torsion [CG]-CD--NE-[HE] |==|  0.25303
USER: genes 18 Torsion [C]-CA--N-[C] |==|  0.77542
USER: genes 19 Torsion [N]-C--CA-[CB] |==|  0.81431
ROOT
ATOM      1  C   PRO C  17     -12.133   8.823 -10.530  1.00 34.10 LIG 0.24  C 
ATOM      2 O    PRO C  17     -13.149   8.283 -10.965  1.00 31.91 LIG-0.27  OA
ATOM      3  N   LEU C  18     -11.585   8.487  -9.378  1.00 30.88 LIG-0.35  N 
ATOM      4 H    LEU C  18     -10.909   8.898  -9.043  1.00 30.88 LIG 0.16  HD
ENDROOT
BRANCH 3 5
ATOM      5  CA  LEU C  18     -12.064   7.388  -8.552  1.00 30.78 LIG 0.18  C 
BRANCH 5 6
ATOM      6  C   LEU C  18     -13.578   7.315  -8.453  1.00 33.73 LIG 0.24  C 
ATOM      7  N   PRO C  19     -14.131   6.155  -8.009  1.00 33.17 LIG-0.34  N 
ATOM      8  CA  PRO C  19     -15.596   6.059  -7.835  1.00 33.85 LIG 0.18  C 
ATOM      9  CD  PRO C  19     -13.452   4.880  -7.671  1.00 35.22 LIG 0.13  C 
ATOM     10  CB  PRO C  19     -15.842   4.558  -7.647  1.00 35.69 LIG 0.04  C 
ATOM     11  CG  PRO C  19     -14.555   3.994  -7.184  1.00 39.92 LIG 0.02  C 
ATOM     12 O    LEU C  18     -14.238   8.331  -8.681  1.00 31.40 LIG-0.27  OA
BRANCH 8 13
ATOM     13  C   PRO C  19     -16.158   6.905  -6.683  1.00 39.47 LIG 0.24  C 
ATOM     14  N   PHE C  20     -15.814   6.523  -5.451  1.00 41.20 LIG-0.35  N 
ATOM     15 H    PHE C  20     -15.302   5.847  -5.305  1.00 41.20 LIG 0.16  HD
ATOM     16 O    PRO C  19     -16.907   7.852  -6.896  1.00 36.20 LIG-0.27  OA
BRANCH 14 17
ATOM     17  CA  PHE C  20     -16.248   7.184  -4.222  1.00 43.59 LIG 0.18  C 
BRANCH 17 18
ATOM     18  C   PHE C  20     -17.782   7.318  -4.228  1.00 48.54 LIG 0.24  C 
ATOM     19  N   PRO C  21     -18.554   6.272  -4.625  1.00 46.41 LIG-0.34  N 
ATOM     20  CA  PRO C  21     -20.033   6.380  -4.580  1.00 51.72 LIG 0.17  C 
ATOM     21  CD  PRO C  21     -18.138   4.955  -5.145  1.00 49.19 LIG 0.13  C 
ATOM     22  CB  PRO C  21     -20.512   5.005  -5.074  1.00 52.56 LIG 0.04  C 
ATOM     23  CG  PRO C  21     -19.373   4.436  -5.819  1.00 54.82 LIG 0.02  C 
ATOM     24 O    PHE C  20     -18.275   8.381  -3.841  1.00 48.67 LIG-0.27  OA
BRANCH 20 25
ATOM     25  C   PRO C  21     -20.594   6.669  -3.186  1.00 87.57 LIG 0.22  C 
ATOM     26 O    PRO C  21     -20.571   5.795  -2.322  1.00 58.80 LIG-0.29  OA
ENDBRANCH 20 25
ENDBRANCH 17 18
BRANCH 17 27
ATOM     27  CB  PHE C  20     -15.564   8.572  -4.121  1.00 46.79 LIG 0.07  C 
BRANCH 27 28
ATOM     28  CG  PHE C  20     -14.144   8.612  -3.593  1.00 50.46 LIG-0.06  A 
ATOM     29  CD2 PHE C  20     -13.057   8.564  -4.463  1.00 54.33 LIG 0.01  A 
ATOM     30  CE2 PHE C  20     -11.745   8.602  -3.973  1.00 57.68 LIG 0.00  A 
ATOM     31  CZ  PHE C  20     -11.516   8.662  -2.611  1.00 55.81 LIG 0.00  A 
ATOM     32  CE1 PHE C  20     -12.580   8.696  -1.735  1.00 56.05 LIG 0.00  A 
ATOM     33  CD1 PHE C  20     -13.891   8.648  -2.224  1.00 54.84 LIG 0.01  A 
ENDBRANCH 27 28
ENDBRANCH 17 27
ENDBRANCH 14 17
ENDBRANCH 8 13
ENDBRANCH 5 6
BRANCH 5 34
ATOM     34  CB  LEU C  18     -11.483   7.530  -7.147  1.00 31.46 LIG 0.04  C 
BRANCH 34 35
ATOM     35  CG  LEU C  18     -10.552   6.435  -6.695  1.00 36.62 LIG-0.02  C 
ATOM     36  CD2 LEU C  18     -10.388   5.402  -7.800  1.00 38.91 LIG 0.01  C 
ATOM     37  CD1 LEU C  18     -11.092   5.786  -5.418  1.00 36.98 LIG 0.01  C 
ENDBRANCH 34 35
ENDBRANCH 5 34
ENDBRANCH 3 5
BRANCH 1 38
ATOM     38  CA  PRO C  17     -11.467   9.986 -11.251  1.00 33.71 LIG 0.18  C 
ATOM     39  CB  PRO C  17     -10.895  11.032 -10.288  1.00 36.04 LIG 0.04  C 
ATOM     40  CG  PRO C  17     -11.774  12.258 -10.421  1.00 41.66 LIG 0.02  C 
ATOM     41  CD  PRO C  17     -12.851  11.975 -11.425  1.00 37.74 LIG 0.13  C 
ATOM     42  N   PRO C  17     -12.356  10.766 -12.118  1.00 35.06 LIG-0.34  N 
ATOM     43  C   ARG C  16     -12.582  10.339 -13.375  1.00 37.80 LIG 0.24  C 
ATOM     44 O    ARG C  16     -12.057   9.306 -13.784  1.00 34.25 LIG-0.27  OA
BRANCH 43 45
ATOM     45  CA  ARG C  16     -13.478  11.159 -14.323  1.00 39.10 LIG 0.18  C 
BRANCH 45 46
ATOM     46  CB  ARG C  16     -14.935  11.133 -13.824  1.00 42.59 LIG 0.04  C 
BRANCH 46 47
ATOM     47  CG  ARG C  16     -15.879  12.074 -14.565  1.00 54.51 LIG 0.02  C 
BRANCH 47 48
ATOM     48  CD  ARG C  16     -15.214  13.390 -14.917  1.00 71.70 LIG 0.14  C 
BRANCH 48 49
ATOM     49  NE  ARG C  16     -14.598  14.012 -13.740  1.00 86.72 LIG-0.23  N 
ATOM     50 HE   ARG C  16     -13.775  13.824 -13.575  1.00 86.72 LIG 0.18  HD
ATOM     51  CZ  ARG C  16     -15.219  14.847 -12.910  1.00 98.48 LIG 0.67  C 
ATOM     52  NH2 ARG C  16     -14.577  15.352 -11.864  1.00 86.10 LIG-0.23  N 
ATOM     53  NH1 ARG C  16     -16.488  15.175 -13.113  1.00 81.98 LIG-0.23  N 
ATOM     54 2HH2 ARG C  16     -14.982  15.891 -11.330  1.00 86.10 LIG 0.17  HD
ATOM     55 1HH2 ARG C  16     -13.756  15.141 -11.720  1.00 86.10 LIG 0.17  HD
ATOM     56 1HH1 ARG C  16     -16.915  14.848 -13.785  1.00 81.98 LIG 0.17  HD
ATOM     57 2HH1 ARG C  16     -16.884  15.715 -12.574  1.00 81.98 LIG 0.17  HD
ENDBRANCH 48 49
ENDBRANCH 47 48
ENDBRANCH 46 47
ENDBRANCH 45 46
BRANCH 45 58
ATOM     58  N   ARG C  16     -13.386  10.608 -15.679  1.00 40.87 LIG-0.35  N 
ATOM     59  C   PRO C  15     -12.383  10.865 -16.552  1.00 47.02 LIG 0.25  C 
ATOM     60 O    PRO C  15     -11.448  11.627 -16.303  1.00 46.36 LIG-0.27  OA
ATOM     61 H    ARG C  16     -14.045  10.093 -15.876  1.00 40.87 LIG 0.16  HD
BRANCH 59 62
ATOM     62  CA  PRO C  15     -12.421  10.124 -17.890  1.00 46.56 LIG 0.35  C 
ATOM     63  N   PRO C  15     -11.333  10.506 -18.801  1.00 47.38 LIG 0.32  N 
ATOM     64  CD  PRO C  15     -10.434   9.371 -19.082  1.00 49.28 LIG 0.32  C 
ATOM     65  CG  PRO C  15     -11.293   8.179 -18.789  1.00 53.38 LIG 0.04  C 
ATOM     66  CB  PRO C  15     -12.202   8.615 -17.686  1.00 48.49 LIG 0.05  C 
ENDBRANCH 59 62
ENDBRANCH 45 58
ENDBRANCH 43 45
ENDBRANCH 1 38
TORSDOF 18
ENDMDL
MODEL 31
USER: ADFR SOLUTION from run 3
USER: SCORE 22.597033 LL:  -4.423 LR: -18.728 RR:   0.000 FEB: -13.359
USER: RMSD 13.090048
USER: SEED 199931
USER: STATUS 1 or 2 clusters left
USER: GENES 20
USER: genes 0 Translation |==|  0.37783 0.52336 0.36909
USER: genes 1 Rotation |==|  0.71254 0.94108 0.48026 0.59944
USER: genes 2 Torsion [C]-N--CA-[CB] |==|  0.52857
USER: genes 3 Torsion [N]-CA--C-[N] |==|  0.44459
USER: genes 4 Torsion [N]-CA--C-[O] |==|  0.92815
USER: genes 5 Torsion [C]-N--CA-[C] |==|  0.56208
USER: genes 6 Torsion [N]-CA--C-[N] |==|  0.42360
USER: genes 7 Torsion [N]-CA--C-[O] |==|  0.21729
USER: genes 8 Torsion [N]-CA--CB-[CG] |==|  0.18860
USER: genes 9 Torsion [CA]-CB--CG-[CD1] |==|  0.90341
USER: genes 10 Torsion [N]-CA--CB-[CG] |==|  0.85122
USER: genes 11 Torsion [CA]-CB--CG-[CD2] |==|  0.62019
USER: genes 12 Torsion [O]-C--CA-[CB] |==|  0.37447
USER: genes 13 Torsion [N]-C--CA-[N] |==|  0.11700
USER: genes 14 Torsion [C]-CA--CB-[CG] |==|  0.23037
USER: genes 15 Torsion [CA]-CB--CG-[CD] |==|  0.70895
USER: genes 16 Torsion [CB]-CG--CD-[NE] |==|  0.62578
USER: genes 17 Torsion [CG]-CD--NE-[HE] |==|  0.10428
USER: genes 18 Torsion [C]-CA--N-[C] |==|  0.16667
USER: genes 19 Torsion [N]-C--CA-[CB] |==|  0.54364
ROOT
ATOM      1  C   PRO C  17     -13.812   9.773 -14.546  1.00 34.10 LIG 0.24  C 
ATOM      2 O    PRO C  17     -12.713   9.258 -14.350  1.00 31.91 LIG-0.27  OA
ATOM      3  N   LEU C  18     -14.215  10.857 -13.910  1.00 30.88 LIG-0.35  N 
ATOM      4 H    LEU C  18     -15.002  11.188 -14.002  1.00 30.88 LIG 0.16  HD
ENDROOT
BRANCH 3 5
ATOM      5  CA  LEU C  18     -13.372  11.606 -12.990  1.00 30.78 LIG 0.18  C 
BRANCH 5 6
ATOM      6  C   LEU C  18     -12.660  10.735 -11.969  1.00 33.73 LIG 0.24  C 
ATOM      7  N   PRO C  19     -11.563  11.248 -11.351  1.00 33.17 LIG-0.34  N 
ATOM      8  CA  PRO C  19     -10.875  10.463 -10.304  1.00 33.85 LIG 0.18  C 
ATOM      9  CD  PRO C  19     -10.890  12.548 -11.595  1.00 35.22 LIG 0.13  C 
ATOM     10  CB  PRO C  19      -9.553  11.210 -10.099  1.00 35.69 LIG 0.04  C 
ATOM     11  CG  PRO C  19      -9.790  12.588 -10.581  1.00 39.92 LIG 0.02  C 
ATOM     12 O    LEU C  18     -13.155   9.647 -11.668  1.00 31.40 LIG-0.27  OA
BRANCH 8 13
ATOM     13  C   PRO C  19     -11.675  10.298  -9.003  1.00 39.47 LIG 0.24  C 
ATOM     14  N   PHE C  20     -11.416   9.200  -8.289  1.00 41.20 LIG-0.35  N 
ATOM     15 H    PHE C  20     -10.832   8.619  -8.534  1.00 41.20 LIG 0.16  HD
ATOM     16 O    PRO C  19     -12.526  11.117  -8.671  1.00 36.20 LIG-0.27  OA
BRANCH 14 17
ATOM     17  CA  PHE C  20     -12.073   8.851  -7.030  1.00 43.59 LIG 0.18  C 
BRANCH 17 18
ATOM     18  C   PHE C  20     -11.178   7.881  -6.238  1.00 48.54 LIG 0.24  C 
ATOM     19  N   PRO C  21     -11.251   7.842  -4.881  1.00 46.41 LIG-0.34  N 
ATOM     20  CA  PRO C  21     -10.429   6.871  -4.120  1.00 51.72 LIG 0.17  C 
ATOM     21  CD  PRO C  21     -12.060   8.675  -3.970  1.00 49.19 LIG 0.13  C 
ATOM     22  CB  PRO C  21     -10.822   7.133  -2.656  1.00 52.56 LIG 0.04  C 
ATOM     23  CG  PRO C  21     -11.394   8.492  -2.640  1.00 54.82 LIG 0.02  C 
ATOM     24 O    PHE C  20     -10.425   7.137  -6.870  1.00 48.67 LIG-0.27  OA
BRANCH 20 25
ATOM     25  C   PRO C  21     -10.693   5.409  -4.487  1.00 87.57 LIG 0.22  C 
ATOM     26 O    PRO C  21     -10.207   4.937  -5.513  1.00 58.80 LIG-0.29  OA
ENDBRANCH 20 25
ENDBRANCH 17 18
BRANCH 17 27
ATOM     27  CB  PHE C  20     -13.455   8.217  -7.336  1.00 46.79 LIG 0.07  C 
BRANCH 27 28
ATOM     28  CG  PHE C  20     -13.464   6.858  -8.008  1.00 50.46 LIG-0.06  A 
ATOM     29  CD2 PHE C  20     -14.418   5.902  -7.671  1.00 54.33 LIG 0.01  A 
ATOM     30  CE2 PHE C  20     -14.426   4.647  -8.294  1.00 57.68 LIG 0.00  A 
ATOM     31  CZ  PHE C  20     -13.465   4.336  -9.238  1.00 55.81 LIG 0.00  A 
ATOM     32  CE1 PHE C  20     -12.504   5.267  -9.574  1.00 56.05 LIG 0.00  A 
ATOM     33  CD1 PHE C  20     -12.491   6.517  -8.944  1.00 54.84 LIG 0.01  A 
ENDBRANCH 27 28
ENDBRANCH 17 27
ENDBRANCH 14 17
ENDBRANCH 8 13
ENDBRANCH 5 6
BRANCH 5 34
ATOM     34  CB  LEU C  18     -14.229  12.632 -12.252  1.00 31.46 LIG 0.04  C 
BRANCH 34 35
ATOM     35  CG  LEU C  18     -15.048  13.560 -13.112  1.00 36.62 LIG-0.02  C 
ATOM     36  CD2 LEU C  18     -14.959  14.981 -12.575  1.00 38.91 LIG 0.01  C 
ATOM     37  CD1 LEU C  18     -16.503  13.084 -13.153  1.00 36.98 LIG 0.01  C 
ENDBRANCH 34 35
ENDBRANCH 5 34
ENDBRANCH 3 5
BRANCH 1 38
ATOM     38  CA  PRO C  17     -14.838   9.151 -15.483  1.00 33.71 LIG 0.18  C 
ATOM     39  CB  PRO C  17     -16.250   9.130 -14.888  1.00 36.04 LIG 0.04  C 
ATOM     40  CG  PRO C  17     -16.562   7.680 -14.583  1.00 41.66 LIG 0.02  C 
ATOM     41  CD  PRO C  17     -15.383   6.839 -14.971  1.00 37.74 LIG 0.13  C 
ATOM     42  N   PRO C  17     -14.589   7.748 -15.828  1.00 35.06 LIG-0.34  N 
ATOM     43  C   ARG C  16     -13.746   7.463 -16.838  1.00 37.80 LIG 0.24  C 
ATOM     44 O    ARG C  16     -13.188   8.368 -17.455  1.00 34.25 LIG-0.27  OA
BRANCH 43 45
ATOM     45  CA  ARG C  16     -13.496   6.000 -17.251  1.00 39.10 LIG 0.18  C 
BRANCH 45 46
ATOM     46  CB  ARG C  16     -12.840   5.950 -18.643  1.00 42.59 LIG 0.04  C 
BRANCH 46 47
ATOM     47  CG  ARG C  16     -11.328   6.147 -18.642  1.00 54.51 LIG 0.02  C 
BRANCH 47 48
ATOM     48  CD  ARG C  16     -10.931   7.527 -19.129  1.00 71.70 LIG 0.14  C 
BRANCH 48 49
ATOM     49  NE  ARG C  16      -9.820   7.460 -20.085  1.00 86.72 LIG-0.23  N 
ATOM     50 HE   ARG C  16      -9.812   6.804 -20.641  1.00 86.72 LIG 0.18  HD
ATOM     51  CZ  ARG C  16      -8.825   8.341 -20.155  1.00 98.48 LIG 0.67  C 
ATOM     52  NH2 ARG C  16      -7.858   8.189 -21.052  1.00 86.10 LIG-0.23  N 
ATOM     53  NH1 ARG C  16      -8.783   9.374 -19.324  1.00 81.98 LIG-0.23  N 
ATOM     54 2HH2 ARG C  16      -7.217   8.761 -21.093  1.00 86.10 LIG 0.17  HD
ATOM     55 1HH2 ARG C  16      -7.873   7.520 -21.591  1.00 86.10 LIG 0.17  HD
ATOM     56 1HH1 ARG C  16      -9.401   9.478 -18.735  1.00 81.98 LIG 0.17  HD
ATOM     57 2HH1 ARG C  16      -8.138   9.940 -19.374  1.00 81.98 LIG 0.17  HD
ENDBRANCH 48 49
ENDBRANCH 47 48
ENDBRANCH 46 47
ENDBRANCH 45 46
BRANCH 45 58
ATOM     58  N   ARG C  16     -14.768   5.270 -17.252  1.00 40.87 LIG-0.35  N 
ATOM     59  C   PRO C  15     -15.840   5.584 -18.017  1.00 47.02 LIG 0.25  C 
ATOM     60 O    PRO C  15     -15.867   6.551 -18.779  1.00 46.36 LIG-0.27  OA
ATOM     61 H    ARG C  16     -14.773   4.606 -16.706  1.00 40.87 LIG 0.16  HD
BRANCH 59 62
ATOM     62  CA  PRO C  15     -17.047   4.647 -17.939  1.00 46.56 LIG 0.35  C 
ATOM     63  N   PRO C  15     -17.892   4.878 -16.758  1.00 47.38 LIG 0.32  N 
ATOM     64  CD  PRO C  15     -19.245   5.327 -17.137  1.00 49.28 LIG 0.32  C 
ATOM     65  CG  PRO C  15     -19.384   4.832 -18.544  1.00 53.38 LIG 0.04  C 
ATOM     66  CB  PRO C  15     -18.005   4.892 -19.117  1.00 48.49 LIG 0.05  C 
ENDBRANCH 59 62
ENDBRANCH 45 58
ENDBRANCH 43 45
ENDBRANCH 1 38
TORSDOF 18
ENDMDL
MODEL 32
USER: ADFR SOLUTION from run 17
USER: SCORE 23.139325 LL:  -5.397 LR: -18.703 RR:   0.000 FEB: -13.334
USER: RMSD 12.443841
USER: SEED 16
USER: STATUS no improvement in best in 14 clusters for 5 generations
USER: GENES 20
USER: genes 0 Translation |==|  0.43784 0.61644 0.34587
USER: genes 1 Rotation |==|  0.59993 0.96247 0.64060 0.57981
USER: genes 2 Torsion [C]-N--CA-[CB] |==|  0.48935
USER: genes 3 Torsion [N]-CA--C-[N] |==|  0.47283
USER: genes 4 Torsion [N]-CA--C-[O] |==|  0.98589
USER: genes 5 Torsion [C]-N--CA-[C] |==|  0.79601
USER: genes 6 Torsion [N]-CA--C-[N] |==|  0.36891
USER: genes 7 Torsion [N]-CA--C-[O] |==|  0.94745
USER: genes 8 Torsion [N]-CA--CB-[CG] |==|  0.64726
USER: genes 9 Torsion [CA]-CB--CG-[CD1] |==|  0.51647
USER: genes 10 Torsion [N]-CA--CB-[CG] |==|  0.78427
USER: genes 11 Torsion [CA]-CB--CG-[CD2] |==|  0.14743
USER: genes 12 Torsion [O]-C--CA-[CB] |==|  0.74588
USER: genes 13 Torsion [N]-C--CA-[N] |==|  0.85000
USER: genes 14 Torsion [C]-CA--CB-[CG] |==|  0.11521
USER: genes 15 Torsion [CA]-CB--CG-[CD] |==|  0.23655
USER: genes 16 Torsion [CB]-CG--CD-[NE] |==|  0.12536
USER: genes 17 Torsion [CG]-CD--NE-[HE] |==|  0.17125
USER: genes 18 Torsion [C]-CA--N-[C] |==|  0.85494
USER: genes 19 Torsion [N]-C--CA-[CB] |==|  0.09251
ROOT
ATOM      1  C   PRO C  17     -12.732  11.448 -15.295  1.00 34.10 LIG 0.24  C 
ATOM      2 O    PRO C  17     -11.535  11.497 -15.019  1.00 31.91 LIG-0.27  OA
ATOM      3  N   LEU C  18     -13.678  11.701 -14.410  1.00 30.88 LIG-0.35  N 
ATOM      4 H    LEU C  18     -14.516  11.613 -14.583  1.00 30.88 LIG 0.16  HD
ENDROOT
BRANCH 3 5
ATOM      5  CA  LEU C  18     -13.408  12.153 -13.054  1.00 30.78 LIG 0.18  C 
BRANCH 5 6
ATOM      6  C   LEU C  18     -12.613  11.158 -12.226  1.00 33.73 LIG 0.24  C 
ATOM      7  N   PRO C  19     -12.138  11.570 -11.022  1.00 33.17 LIG-0.34  N 
ATOM      8  CA  PRO C  19     -11.413  10.618 -10.153  1.00 33.85 LIG 0.18  C 
ATOM      9  CD  PRO C  19     -12.218  12.921 -10.411  1.00 35.22 LIG 0.13  C 
ATOM     10  CB  PRO C  19     -10.780  11.513  -9.082  1.00 35.69 LIG 0.04  C 
ATOM     11  CG  PRO C  19     -11.585  12.753  -9.065  1.00 39.92 LIG 0.02  C 
ATOM     12 O    LEU C  18     -12.513   9.997 -12.628  1.00 31.40 LIG-0.27  OA
BRANCH 8 13
ATOM     13  C   PRO C  19     -12.289   9.505  -9.559  1.00 39.47 LIG 0.24  C 
ATOM     14  N   PHE C  20     -11.647   8.546  -8.888  1.00 41.20 LIG-0.35  N 
ATOM     15 H    PHE C  20     -10.793   8.550  -8.785  1.00 41.20 LIG 0.16  HD
ATOM     16 O    PRO C  19     -13.503   9.491  -9.730  1.00 36.20 LIG-0.27  OA
BRANCH 14 17
ATOM     17  CA  PHE C  20     -12.291   7.396  -8.256  1.00 43.59 LIG 0.18  C 
BRANCH 17 18
ATOM     18  C   PHE C  20     -13.030   7.857  -6.987  1.00 48.54 LIG 0.24  C 
ATOM     19  N   PRO C  21     -14.308   7.453  -6.759  1.00 46.41 LIG-0.34  N 
ATOM     20  CA  PRO C  21     -15.003   7.851  -5.511  1.00 51.72 LIG 0.17  C 
ATOM     21  CD  PRO C  21     -15.191   6.636  -7.615  1.00 49.19 LIG 0.13  C 
ATOM     22  CB  PRO C  21     -16.381   7.180  -5.633  1.00 52.56 LIG 0.04  C 
ATOM     23  CG  PRO C  21     -16.561   6.910  -7.072  1.00 54.82 LIG 0.02  C 
ATOM     24 O    PHE C  20     -12.422   8.572  -6.187  1.00 48.67 LIG-0.27  OA
BRANCH 20 25
ATOM     25  C   PRO C  21     -14.299   7.392  -4.232  1.00 87.57 LIG 0.22  C 
ATOM     26 O    PRO C  21     -13.474   6.481  -4.279  1.00 58.80 LIG-0.29  OA
ENDBRANCH 20 25
ENDBRANCH 17 18
BRANCH 17 27
ATOM     27  CB  PHE C  20     -11.216   6.330  -7.924  1.00 46.79 LIG 0.07  C 
BRANCH 27 28
ATOM     28  CG  PHE C  20     -11.452   4.920  -8.430  1.00 50.46 LIG-0.06  A 
ATOM     29  CD2 PHE C  20     -12.556   4.624  -9.226  1.00 54.33 LIG 0.01  A 
ATOM     30  CE2 PHE C  20     -12.771   3.320  -9.695  1.00 57.68 LIG 0.00  A 
ATOM     31  CZ  PHE C  20     -11.898   2.306  -9.346  1.00 55.81 LIG 0.00  A 
ATOM     32  CE1 PHE C  20     -10.808   2.580  -8.548  1.00 56.05 LIG 0.00  A 
ATOM     33  CD1 PHE C  20     -10.599   3.880  -8.072  1.00 54.84 LIG 0.01  A 
ENDBRANCH 27 28
ENDBRANCH 17 27
ENDBRANCH 14 17
ENDBRANCH 8 13
ENDBRANCH 5 6
BRANCH 5 34
ATOM     34  CB  LEU C  18     -14.733  12.435 -12.349  1.00 31.46 LIG 0.04  C 
BRANCH 34 35
ATOM     35  CG  LEU C  18     -15.417  13.730 -12.703  1.00 36.62 LIG-0.02  C 
ATOM     36  CD2 LEU C  18     -15.576  13.838 -14.212  1.00 38.91 LIG 0.01  C 
ATOM     37  CD1 LEU C  18     -14.613  14.912 -12.154  1.00 36.98 LIG 0.01  C 
ENDBRANCH 34 35
ENDBRANCH 5 34
ENDBRANCH 3 5
BRANCH 1 38
ATOM     38  CA  PRO C  17     -13.226  11.009 -16.666  1.00 33.71 LIG 0.18  C 
ATOM     39  CB  PRO C  17     -13.405  12.181 -17.636  1.00 36.04 LIG 0.04  C 
ATOM     40  CG  PRO C  17     -14.897  12.345 -17.834  1.00 41.66 LIG 0.02  C 
ATOM     41  CD  PRO C  17     -15.611  11.314 -17.012  1.00 37.74 LIG 0.13  C 
ATOM     42  N   PRO C  17     -14.538  10.355 -16.669  1.00 35.06 LIG-0.34  N 
ATOM     43  C   ARG C  16     -14.612   9.036 -16.409  1.00 37.80 LIG 0.24  C 
ATOM     44 O    ARG C  16     -13.593   8.394 -16.164  1.00 34.25 LIG-0.27  OA
BRANCH 43 45
ATOM     45  CA  ARG C  16     -15.971   8.313 -16.446  1.00 39.10 LIG 0.18  C 
BRANCH 45 46
ATOM     46  CB  ARG C  16     -16.506   8.271 -17.890  1.00 42.59 LIG 0.04  C 
BRANCH 46 47
ATOM     47  CG  ARG C  16     -15.454   7.962 -18.950  1.00 54.51 LIG 0.02  C 
BRANCH 47 48
ATOM     48  CD  ARG C  16     -15.240   6.471 -19.126  1.00 71.70 LIG 0.14  C 
BRANCH 48 49
ATOM     49  NE  ARG C  16     -16.516   5.750 -19.189  1.00 86.72 LIG-0.23  N 
ATOM     50 HE   ARG C  16     -17.051   5.943 -19.834  1.00 86.72 LIG 0.18  HD
ATOM     51  CZ  ARG C  16     -16.906   4.818 -18.323  1.00 98.48 LIG 0.67  C 
ATOM     52  NH2 ARG C  16     -18.086   4.226 -18.460  1.00 86.10 LIG-0.23  N 
ATOM     53  NH1 ARG C  16     -16.123   4.476 -17.307  1.00 81.98 LIG-0.23  N 
ATOM     54 2HH2 ARG C  16     -18.333   3.625 -17.898  1.00 86.10 LIG 0.17  HD
ATOM     55 1HH2 ARG C  16     -18.603   4.445 -19.112  1.00 86.10 LIG 0.17  HD
ATOM     56 1HH1 ARG C  16     -15.359   4.858 -17.206  1.00 81.98 LIG 0.17  HD
ATOM     57 2HH1 ARG C  16     -16.379   3.874 -16.751  1.00 81.98 LIG 0.17  HD
ENDBRANCH 48 49
ENDBRANCH 47 48
ENDBRANCH 46 47
ENDBRANCH 45 46
BRANCH 45 58
ATOM     58  N   ARG C  16     -16.916   9.007 -15.565  1.00 40.87 LIG-0.35  N 
ATOM     59  C   PRO C  15     -16.681   9.316 -14.268  1.00 47.02 LIG 0.25  C 
ATOM     60 O    PRO C  15     -15.644   9.011 -13.678  1.00 46.36 LIG-0.27  OA
ATOM     61 H    ARG C  16     -17.655   9.205 -15.957  1.00 40.87 LIG 0.16  HD
BRANCH 59 62
ATOM     62  CA  PRO C  15     -17.759  10.121 -13.539  1.00 46.56 LIG 0.35  C 
ATOM     63  N   PRO C  15     -17.676  11.568 -13.786  1.00 47.38 LIG 0.32  N 
ATOM     64  CD  PRO C  15     -18.872  12.070 -14.487  1.00 49.28 LIG 0.32  C 
ATOM     65  CG  PRO C  15     -19.910  11.038 -14.165  1.00 53.38 LIG 0.04  C 
ATOM     66  CB  PRO C  15     -19.160   9.751 -14.055  1.00 48.49 LIG 0.05  C 
ENDBRANCH 59 62
ENDBRANCH 45 58
ENDBRANCH 43 45
ENDBRANCH 1 38
TORSDOF 18
ENDMDL
MODEL 33
USER: ADFR SOLUTION from run 168
USER: SCORE 21.452674 LL:  -4.489 LR: -18.669 RR:   0.000 FEB: -13.300
USER: RMSD 3.366450
USER: SEED 167
USER: STATUS no improvement in best in 8 clusters for 5 generations
USER: GENES 20
USER: genes 0 Translation |==|  0.44157 0.40996 0.52765
USER: genes 1 Rotation |==|  0.50127 0.49150 0.59243 0.99131
USER: genes 2 Torsion [C]-N--CA-[CB] |==|  0.27548
USER: genes 3 Torsion [N]-CA--C-[N] |==|  0.32718
USER: genes 4 Torsion [N]-CA--C-[O] |==|  0.20928
USER: genes 5 Torsion [C]-N--CA-[C] |==|  0.63334
USER: genes 6 Torsion [N]-CA--C-[N] |==|  0.19275
USER: genes 7 Torsion [N]-CA--C-[O] |==|  0.71308
USER: genes 8 Torsion [N]-CA--CB-[CG] |==|  0.81151
USER: genes 9 Torsion [CA]-CB--CG-[CD1] |==|  0.23345
USER: genes 10 Torsion [N]-CA--CB-[CG] |==|  0.02842
USER: genes 11 Torsion [CA]-CB--CG-[CD2] |==|  0.60197
USER: genes 12 Torsion [O]-C--CA-[CB] |==|  0.19822
USER: genes 13 Torsion [N]-C--CA-[N] |==|  0.37807
USER: genes 14 Torsion [C]-CA--CB-[CG] |==|  0.38745
USER: genes 15 Torsion [CA]-CB--CG-[CD] |==|  0.31858
USER: genes 16 Torsion [CB]-CG--CD-[NE] |==|  0.79879
USER: genes 17 Torsion [CG]-CD--NE-[HE] |==|  0.75862
USER: genes 18 Torsion [C]-CA--N-[C] |==|  0.82485
USER: genes 19 Torsion [N]-C--CA-[CB] |==|  0.56666
ROOT
ATOM      1  C   PRO C  17     -12.665   7.731  -9.432  1.00 34.10 LIG 0.24  C 
ATOM      2 O    PRO C  17     -13.863   7.838  -9.178  1.00 31.91 LIG-0.27  OA
ATOM      3  N   LEU C  18     -12.071   8.438 -10.376  1.00 30.88 LIG-0.35  N 
ATOM      4 H    LEU C  18     -11.248   8.328 -10.595  1.00 30.88 LIG 0.16  HD
ENDROOT
BRANCH 3 5
ATOM      5  CA  LEU C  18     -12.743   9.477 -11.142  1.00 30.78 LIG 0.18  C 
BRANCH 5 6
ATOM      6  C   LEU C  18     -12.385   9.473 -12.619  1.00 33.73 LIG 0.24  C 
ATOM      7  N   PRO C  19     -13.382   9.244 -13.514  1.00 33.17 LIG-0.34  N 
ATOM      8  CA  PRO C  19     -13.094   9.294 -14.963  1.00 33.85 LIG 0.18  C 
ATOM      9  CD  PRO C  19     -14.802   8.906 -13.246  1.00 35.22 LIG 0.13  C 
ATOM     10  CB  PRO C  19     -14.344   8.681 -15.603  1.00 35.69 LIG 0.04  C 
ATOM     11  CG  PRO C  19     -15.425   8.834 -14.606  1.00 39.92 LIG 0.02  C 
ATOM     12 O    LEU C  18     -11.237   9.773 -12.952  1.00 31.40 LIG-0.27  OA
BRANCH 8 13
ATOM     13  C   PRO C  19     -12.775  10.697 -15.501  1.00 39.47 LIG 0.24  C 
ATOM     14  N   PHE C  20     -13.727  11.276 -16.235  1.00 41.20 LIG-0.35  N 
ATOM     15 H    PHE C  20     -14.481  10.894 -16.396  1.00 41.20 LIG 0.16  HD
ATOM     16 O    PRO C  19     -11.689  11.227 -15.290  1.00 36.20 LIG-0.27  OA
BRANCH 14 17
ATOM     17  CA  PHE C  20     -13.619  12.600 -16.846  1.00 43.59 LIG 0.18  C 
BRANCH 17 18
ATOM     18  C   PHE C  20     -14.891  13.411 -16.537  1.00 48.54 LIG 0.24  C 
ATOM     19  N   PRO C  21     -15.137  13.834 -15.268  1.00 46.41 LIG-0.34  N 
ATOM     20  CA  PRO C  21     -16.333  14.661 -14.979  1.00 51.72 LIG 0.17  C 
ATOM     21  CD  PRO C  21     -14.365  13.576 -14.037  1.00 49.19 LIG 0.13  C 
ATOM     22  CB  PRO C  21     -16.225  14.939 -13.471  1.00 52.56 LIG 0.04  C 
ATOM     23  CG  PRO C  21     -15.337  13.888 -12.939  1.00 54.82 LIG 0.02  C 
ATOM     24 O    PHE C  20     -15.649  13.681 -17.471  1.00 48.67 LIG-0.27  OA
BRANCH 20 25
ATOM     25  C   PRO C  21     -16.384  15.976 -15.760  1.00 87.57 LIG 0.22  C 
ATOM     26 O    PRO C  21     -16.104  17.034 -15.199  1.00 58.80 LIG-0.29  OA
ENDBRANCH 20 25
ENDBRANCH 17 18
BRANCH 17 27
ATOM     27  CB  PHE C  20     -13.412  12.440 -18.374  1.00 46.79 LIG 0.07  C 
BRANCH 27 28
ATOM     28  CG  PHE C  20     -12.100  11.841 -18.840  1.00 50.46 LIG-0.06  A 
ATOM     29  CD2 PHE C  20     -11.057  12.656 -19.274  1.00 54.33 LIG 0.01  A 
ATOM     30  CE2 PHE C  20      -9.845  12.100 -19.704  1.00 57.68 LIG 0.00  A 
ATOM     31  CZ  PHE C  20      -9.682  10.727 -19.726  1.00 55.81 LIG 0.00  A 
ATOM     32  CE1 PHE C  20     -10.709   9.905 -19.314  1.00 56.05 LIG 0.00  A 
ATOM     33  CD1 PHE C  20     -11.924  10.460 -18.893  1.00 54.84 LIG 0.01  A 
ENDBRANCH 27 28
ENDBRANCH 17 27
ENDBRANCH 14 17
ENDBRANCH 8 13
ENDBRANCH 5 6
BRANCH 5 34
ATOM     34  CB  LEU C  18     -12.390  10.840 -10.552  1.00 31.46 LIG 0.04  C 
BRANCH 34 35
ATOM     35  CG  LEU C  18     -11.291  10.857  -9.521  1.00 36.62 LIG-0.02  C 
ATOM     36  CD2 LEU C  18     -11.607  11.880  -8.441  1.00 38.91 LIG 0.01  C 
ATOM     37  CD1 LEU C  18      -9.951  11.172 -10.194  1.00 36.98 LIG 0.01  C 
ENDBRANCH 34 35
ENDBRANCH 5 34
ENDBRANCH 3 5
BRANCH 1 38
ATOM     38  CA  PRO C  17     -11.779   6.710  -8.732  1.00 33.71 LIG 0.18  C 
ATOM     39  CB  PRO C  17     -12.070   5.272  -9.171  1.00 36.04 LIG 0.04  C 
ATOM     40  CG  PRO C  17     -12.731   4.592  -7.989  1.00 41.66 LIG 0.02  C 
ATOM     41  CD  PRO C  17     -12.847   5.578  -6.866  1.00 37.74 LIG 0.13  C 
ATOM     42  N   PRO C  17     -11.927   6.663  -7.274  1.00 35.06 LIG-0.34  N 
ATOM     43  C   ARG C  16     -11.230   7.533  -6.518  1.00 37.80 LIG 0.24  C 
ATOM     44 O    ARG C  16     -10.489   8.358  -7.045  1.00 34.25 LIG-0.27  OA
BRANCH 43 45
ATOM     45  CA  ARG C  16     -11.332   7.479  -4.981  1.00 39.10 LIG 0.18  C 
BRANCH 45 46
ATOM     46  CB  ARG C  16     -12.260   8.601  -4.476  1.00 42.59 LIG 0.04  C 
BRANCH 46 47
ATOM     47  CG  ARG C  16     -13.193   8.192  -3.341  1.00 54.51 LIG 0.02  C 
BRANCH 47 48
ATOM     48  CD  ARG C  16     -12.882   8.928  -2.053  1.00 71.70 LIG 0.14  C 
BRANCH 48 49
ATOM     49  NE  ARG C  16     -11.638   8.444  -1.444  1.00 86.72 LIG-0.23  N 
ATOM     50 HE   ARG C  16     -11.690   7.766  -0.918  1.00 86.72 LIG 0.18  HD
ATOM     51  CZ  ARG C  16     -10.436   8.977  -1.648  1.00 98.48 LIG 0.67  C 
ATOM     52  NH2 ARG C  16      -9.368   8.472  -1.043  1.00 86.10 LIG-0.23  N 
ATOM     53  NH1 ARG C  16     -10.293  10.025  -2.449  1.00 81.98 LIG-0.23  N 
ATOM     54 2HH2 ARG C  16      -8.594   8.820  -1.177  1.00 86.10 LIG 0.17  HD
ATOM     55 1HH2 ARG C  16      -9.451   7.796  -0.517  1.00 86.10 LIG 0.17  HD
ATOM     56 1HH1 ARG C  16     -10.980  10.363  -2.841  1.00 81.98 LIG 0.17  HD
ATOM     57 2HH1 ARG C  16      -9.514  10.365  -2.577  1.00 81.98 LIG 0.17  HD
ENDBRANCH 48 49
ENDBRANCH 47 48
ENDBRANCH 46 47
ENDBRANCH 45 46
BRANCH 45 58
ATOM     58  N   ARG C  16      -9.993   7.613  -4.399  1.00 40.87 LIG-0.35  N 
ATOM     59  C   PRO C  15      -8.979   6.736  -4.580  1.00 47.02 LIG 0.25  C 
ATOM     60 O    PRO C  15      -9.090   5.700  -5.237  1.00 46.36 LIG-0.27  OA
ATOM     61 H    ARG C  16      -9.907   8.321  -3.917  1.00 40.87 LIG 0.16  HD
BRANCH 59 62
ATOM     62  CA  PRO C  15      -7.627   7.098  -3.959  1.00 46.56 LIG 0.35  C 
ATOM     63  N   PRO C  15      -7.478   6.634  -2.573  1.00 47.38 LIG 0.32  N 
ATOM     64  CD  PRO C  15      -6.395   5.641  -2.445  1.00 49.28 LIG 0.32  C 
ATOM     65  CG  PRO C  15      -5.535   5.923  -3.639  1.00 53.38 LIG 0.04  C 
ATOM     66  CB  PRO C  15      -6.480   6.389  -4.699  1.00 48.49 LIG 0.05  C 
ENDBRANCH 59 62
ENDBRANCH 45 58
ENDBRANCH 43 45
ENDBRANCH 1 38
TORSDOF 18
ENDMDL
MODEL 34
USER: ADFR SOLUTION from run 152
USER: SCORE 21.781244 LL:  -4.175 LR: -18.626 RR:   0.000 FEB: -13.256
USER: RMSD 13.500001
USER: SEED 151
USER: STATUS searching
USER: GENES 20
USER: genes 0 Translation |==|  0.45905 0.64032 0.44127
USER: genes 1 Rotation |==|  0.38406 0.10706 0.23893 0.61833
USER: genes 2 Torsion [C]-N--CA-[CB] |==|  0.16563
USER: genes 3 Torsion [N]-CA--C-[N] |==|  0.20513
USER: genes 4 Torsion [N]-CA--C-[O] |==|  0.06802
USER: genes 5 Torsion [C]-N--CA-[C] |==|  0.16101
USER: genes 6 Torsion [N]-CA--C-[N] |==|  0.11667
USER: genes 7 Torsion [N]-CA--C-[O] |==|  0.25161
USER: genes 8 Torsion [N]-CA--CB-[CG] |==|  0.49826
USER: genes 9 Torsion [CA]-CB--CG-[CD1] |==|  0.19778
USER: genes 10 Torsion [N]-CA--CB-[CG] |==|  0.66191
USER: genes 11 Torsion [CA]-CB--CG-[CD2] |==|  0.93372
USER: genes 12 Torsion [O]-C--CA-[CB] |==|  0.55305
USER: genes 13 Torsion [N]-C--CA-[N] |==|  0.49934
USER: genes 14 Torsion [C]-CA--CB-[CG] |==|  0.44941
USER: genes 15 Torsion [CA]-CB--CG-[CD] |==|  0.82074
USER: genes 16 Torsion [CB]-CG--CD-[NE] |==|  0.51280
USER: genes 17 Torsion [CG]-CD--NE-[HE] |==|  0.76537
USER: genes 18 Torsion [C]-CA--N-[C] |==|  0.79968
USER: genes 19 Torsion [N]-C--CA-[CB] |==|  0.87431
ROOT
ATOM      1  C   PRO C  17     -12.350  11.878 -12.218  1.00 34.10 LIG 0.24  C 
ATOM      2 O    PRO C  17     -11.228  12.209 -12.594  1.00 31.91 LIG-0.27  OA
ATOM      3  N   LEU C  18     -12.559  11.221 -11.093  1.00 30.88 LIG-0.35  N 
ATOM      4 H    LEU C  18     -13.334  10.937 -10.853  1.00 30.88 LIG 0.16  HD
ENDROOT
BRANCH 3 5
ATOM      5  CA  LEU C  18     -11.504  10.906 -10.140  1.00 30.78 LIG 0.18  C 
BRANCH 5 6
ATOM      6  C   LEU C  18     -11.987  10.116  -8.936  1.00 33.73 LIG 0.24  C 
ATOM      7  N   PRO C  19     -12.286   8.803  -9.116  1.00 33.17 LIG-0.34  N 
ATOM      8  CA  PRO C  19     -12.698   7.977  -7.961  1.00 33.85 LIG 0.18  C 
ATOM      9  CD  PRO C  19     -12.286   8.021 -10.378  1.00 35.22 LIG 0.13  C 
ATOM     10  CB  PRO C  19     -13.244   6.698  -8.604  1.00 35.69 LIG 0.04  C 
ATOM     11  CG  PRO C  19     -12.632   6.630  -9.949  1.00 39.92 LIG 0.02  C 
ATOM     12 O    LEU C  18     -11.994  10.662  -7.831  1.00 31.40 LIG-0.27  OA
BRANCH 8 13
ATOM     13  C   PRO C  19     -11.580   7.703  -6.943  1.00 39.47 LIG 0.24  C 
ATOM     14  N   PHE C  20     -11.741   6.628  -6.168  1.00 41.20 LIG-0.35  N 
ATOM     15 H    PHE C  20     -12.425   6.111  -6.235  1.00 41.20 LIG 0.16  HD
ATOM     16 O    PRO C  19     -10.619   8.458  -6.835  1.00 36.20 LIG-0.27  OA
BRANCH 14 17
ATOM     17  CA  PHE C  20     -10.801   6.200  -5.133  1.00 43.59 LIG 0.18  C 
BRANCH 17 18
ATOM     18  C   PHE C  20     -10.616   7.334  -4.110  1.00 48.54 LIG 0.24  C 
ATOM     19  N   PRO C  21     -11.691   8.049  -3.684  1.00 46.41 LIG-0.34  N 
ATOM     20  CA  PRO C  21     -11.523   9.105  -2.657  1.00 51.72 LIG 0.17  C 
ATOM     21  CD  PRO C  21     -13.100   7.953  -4.115  1.00 49.19 LIG 0.13  C 
ATOM     22  CB  PRO C  21     -12.951   9.637  -2.446  1.00 52.56 LIG 0.04  C 
ATOM     23  CG  PRO C  21     -13.697   9.250  -3.659  1.00 54.82 LIG 0.02  C 
ATOM     24 O    PHE C  20      -9.480   7.548  -3.678  1.00 48.67 LIG-0.27  OA
BRANCH 20 25
ATOM     25  C   PRO C  21     -10.942   8.602  -1.335  1.00 87.57 LIG 0.22  C 
ATOM     26 O    PRO C  21      -9.725   8.602  -1.159  1.00 58.80 LIG-0.29  OA
ENDBRANCH 20 25
ENDBRANCH 17 18
BRANCH 17 27
ATOM     27  CB  PHE C  20      -9.454   5.816  -5.797  1.00 46.79 LIG 0.07  C 
BRANCH 27 28
ATOM     28  CG  PHE C  20      -8.333   5.355  -4.886  1.00 50.46 LIG-0.06  A 
ATOM     29  CD2 PHE C  20      -7.199   6.140  -4.697  1.00 54.33 LIG 0.01  A 
ATOM     30  CE2 PHE C  20      -6.164   5.712  -3.853  1.00 57.68 LIG 0.00  A 
ATOM     31  CZ  PHE C  20      -6.252   4.488  -3.217  1.00 55.81 LIG 0.00  A 
ATOM     32  CE1 PHE C  20      -7.362   3.692  -3.403  1.00 56.05 LIG 0.00  A 
ATOM     33  CD1 PHE C  20      -8.391   4.115  -4.254  1.00 54.84 LIG 0.01  A 
ENDBRANCH 27 28
ENDBRANCH 17 27
ENDBRANCH 14 17
ENDBRANCH 8 13
ENDBRANCH 5 6
BRANCH 5 34
ATOM     34  CB  LEU C  18     -10.867  12.206  -9.655  1.00 31.46 LIG 0.04  C 
BRANCH 34 35
ATOM     35  CG  LEU C  18      -9.386  12.352  -9.888  1.00 36.62 LIG-0.02  C 
ATOM     36  CD2 LEU C  18      -8.742  10.980 -10.019  1.00 38.91 LIG 0.01  C 
ATOM     37  CD1 LEU C  18      -8.753  13.144  -8.741  1.00 36.98 LIG 0.01  C 
ENDBRANCH 34 35
ENDBRANCH 5 34
ENDBRANCH 3 5
BRANCH 1 38
ATOM     38  CA  PRO C  17     -13.591  12.127 -13.064  1.00 33.71 LIG 0.18  C 
ATOM     39  CB  PRO C  17     -14.886  12.075 -12.248  1.00 36.04 LIG 0.04  C 
ATOM     40  CG  PRO C  17     -15.606  10.812 -12.671  1.00 41.66 LIG 0.02  C 
ATOM     41  CD  PRO C  17     -14.781  10.108 -13.706  1.00 37.74 LIG 0.13  C 
ATOM     42  N   PRO C  17     -13.817  11.147 -14.132  1.00 35.06 LIG-0.34  N 
ATOM     43  C   ARG C  16     -13.188  11.309 -15.311  1.00 37.80 LIG 0.24  C 
ATOM     44 O    ARG C  16     -12.430  12.261 -15.485  1.00 34.25 LIG-0.27  OA
BRANCH 43 45
ATOM     45  CA  ARG C  16     -13.438  10.320 -16.465  1.00 39.10 LIG 0.18  C 
BRANCH 45 46
ATOM     46  CB  ARG C  16     -13.071   8.891 -16.023  1.00 42.59 LIG 0.04  C 
BRANCH 46 47
ATOM     47  CG  ARG C  16     -13.666   7.784 -16.887  1.00 54.51 LIG 0.02  C 
BRANCH 47 48
ATOM     48  CD  ARG C  16     -15.180   7.752 -16.812  1.00 71.70 LIG 0.14  C 
BRANCH 48 49
ATOM     49  NE  ARG C  16     -15.731   6.617 -17.561  1.00 86.72 LIG-0.23  N 
ATOM     50 HE   ARG C  16     -15.852   6.719 -18.406  1.00 86.72 LIG 0.18  HD
ATOM     51  CZ  ARG C  16     -16.056   5.442 -17.028  1.00 98.48 LIG 0.67  C 
ATOM     52  NH2 ARG C  16     -16.558   4.477 -17.788  1.00 86.10 LIG-0.23  N 
ATOM     53  NH1 ARG C  16     -15.892   5.226 -15.729  1.00 81.98 LIG-0.23  N 
ATOM     54 2HH2 ARG C  16     -16.766   3.720 -17.439  1.00 86.10 LIG 0.17  HD
ATOM     55 1HH2 ARG C  16     -16.673   4.609 -18.630  1.00 86.10 LIG 0.17  HD
ATOM     56 1HH1 ARG C  16     -15.573   5.847 -15.226  1.00 81.98 LIG 0.17  HD
ATOM     57 2HH1 ARG C  16     -16.103   4.465 -15.390  1.00 81.98 LIG 0.17  HD
ENDBRANCH 48 49
ENDBRANCH 47 48
ENDBRANCH 46 47
ENDBRANCH 45 46
BRANCH 45 58
ATOM     58  N   ARG C  16     -12.644  10.721 -17.631  1.00 40.87 LIG-0.35  N 
ATOM     59  C   PRO C  15     -12.902  11.796 -18.411  1.00 47.02 LIG 0.25  C 
ATOM     60 O    PRO C  15     -13.867  12.542 -18.238  1.00 46.36 LIG-0.27  OA
ATOM     61 H    ARG C  16     -11.979  10.195 -17.780  1.00 40.87 LIG 0.16  HD
BRANCH 59 62
ATOM     62  CA  PRO C  15     -11.904  12.099 -19.531  1.00 46.56 LIG 0.35  C 
ATOM     63  N   PRO C  15     -11.990  13.477 -20.035  1.00 47.38 LIG 0.32  N 
ATOM     64  CD  PRO C  15     -10.746  14.228 -19.780  1.00 49.28 LIG 0.32  C 
ATOM     65  CG  PRO C  15      -9.723  13.145 -19.627  1.00 53.38 LIG 0.04  C 
ATOM     66  CB  PRO C  15     -10.458  11.996 -19.016  1.00 48.49 LIG 0.05  C 
ENDBRANCH 59 62
ENDBRANCH 45 58
ENDBRANCH 43 45
ENDBRANCH 1 38
TORSDOF 18
ENDMDL
MODEL 35
USER: ADFR SOLUTION from run 103
USER: SCORE 21.363600 LL:  -4.551 LR: -18.627 RR:   0.000 FEB: -13.257
USER: RMSD 4.301447
USER: SEED 102
USER: STATUS no improvement in best in 13 clusters for 5 generations
USER: GENES 20
USER: genes 0 Translation |==|  0.45044 0.43183 0.52491
USER: genes 1 Rotation |==|  0.53460 0.43822 0.57281 0.98958
USER: genes 2 Torsion [C]-N--CA-[CB] |==|  0.40315
USER: genes 3 Torsion [N]-CA--C-[N] |==|  0.41713
USER: genes 4 Torsion [N]-CA--C-[O] |==|  0.90634
USER: genes 5 Torsion [C]-N--CA-[C] |==|  0.77986
USER: genes 6 Torsion [N]-CA--C-[N] |==|  0.40392
USER: genes 7 Torsion [N]-CA--C-[O] |==|  0.26397
USER: genes 8 Torsion [N]-CA--CB-[CG] |==|  0.49725
USER: genes 9 Torsion [CA]-CB--CG-[CD1] |==|  0.28170
USER: genes 10 Torsion [N]-CA--CB-[CG] |==|  0.72051
USER: genes 11 Torsion [CA]-CB--CG-[CD2] |==|  0.40359
USER: genes 12 Torsion [O]-C--CA-[CB] |==|  0.17609
USER: genes 13 Torsion [N]-C--CA-[N] |==|  0.91872
USER: genes 14 Torsion [C]-CA--CB-[CG] |==|  0.09912
USER: genes 15 Torsion [CA]-CB--CG-[CD] |==|  0.37878
USER: genes 16 Torsion [CB]-CG--CD-[NE] |==|  0.59593
USER: genes 17 Torsion [CG]-CD--NE-[HE] |==|  0.23027
USER: genes 18 Torsion [C]-CA--N-[C] |==|  0.79292
USER: genes 19 Torsion [N]-C--CA-[CB] |==|  0.67847
ROOT
ATOM      1  C   PRO C  17     -12.505   8.125  -9.521  1.00 34.10 LIG 0.24  C 
ATOM      2 O    PRO C  17     -13.721   8.295  -9.467  1.00 31.91 LIG-0.27  OA
ATOM      3  N   LEU C  18     -11.704   8.920 -10.204  1.00 30.88 LIG-0.35  N 
ATOM      4 H    LEU C  18     -10.861   8.774 -10.291  1.00 30.88 LIG 0.16  HD
ENDROOT
BRANCH 3 5
ATOM      5  CA  LEU C  18     -12.158  10.126 -10.881  1.00 30.78 LIG 0.18  C 
BRANCH 5 6
ATOM      6  C   LEU C  18     -12.522   9.906 -12.339  1.00 33.73 LIG 0.24  C 
ATOM      7  N   PRO C  19     -13.483  10.700 -12.880  1.00 33.17 LIG-0.34  N 
ATOM      8  CA  PRO C  19     -13.827  10.566 -14.312  1.00 33.85 LIG 0.18  C 
ATOM      9  CD  PRO C  19     -14.311  11.734 -12.211  1.00 35.22 LIG 0.13  C 
ATOM     10  CB  PRO C  19     -15.125  11.368 -14.452  1.00 35.69 LIG 0.04  C 
ATOM     11  CG  PRO C  19     -15.138  12.314 -13.315  1.00 39.92 LIG 0.02  C 
ATOM     12 O    LEU C  18     -11.872   9.092 -12.997  1.00 31.40 LIG-0.27  OA
BRANCH 8 13
ATOM     13  C   PRO C  19     -12.728  11.037 -15.278  1.00 39.47 LIG 0.24  C 
ATOM     14  N   PHE C  20     -12.603  10.342 -16.410  1.00 41.20 LIG-0.35  N 
ATOM     15 H    PHE C  20     -13.109   9.672 -16.597  1.00 41.20 LIG 0.16  HD
ATOM     16 O    PRO C  19     -11.992  11.977 -14.994  1.00 36.20 LIG-0.27  OA
BRANCH 14 17
ATOM     17  CA  PHE C  20     -11.616  10.619 -17.453  1.00 43.59 LIG 0.18  C 
BRANCH 17 18
ATOM     18  C   PHE C  20     -12.100  11.800 -18.313  1.00 48.54 LIG 0.24  C 
ATOM     19  N   PRO C  21     -11.200  12.681 -18.826  1.00 46.41 LIG-0.34  N 
ATOM     20  CA  PRO C  21     -11.659  13.788 -19.700  1.00 51.72 LIG 0.17  C 
ATOM     21  CD  PRO C  21      -9.738  12.734 -18.633  1.00 49.19 LIG 0.13  C 
ATOM     22  CB  PRO C  21     -10.357  14.515 -20.076  1.00 52.56 LIG 0.04  C 
ATOM     23  CG  PRO C  21      -9.378  14.130 -19.042  1.00 54.82 LIG 0.02  C 
ATOM     24 O    PHE C  20     -13.308  11.900 -18.537  1.00 48.67 LIG-0.27  OA
BRANCH 20 25
ATOM     25  C   PRO C  21     -12.392  13.325 -20.960  1.00 87.57 LIG 0.22  C 
ATOM     26 O    PRO C  21     -13.620  13.260 -20.967  1.00 58.80 LIG-0.29  OA
ENDBRANCH 20 25
ENDBRANCH 17 18
BRANCH 17 27
ATOM     27  CB  PHE C  20     -11.414   9.344 -18.312  1.00 46.79 LIG 0.07  C 
BRANCH 27 28
ATOM     28  CG  PHE C  20     -10.439   9.432 -19.470  1.00 50.46 LIG-0.06  A 
ATOM     29  CD2 PHE C  20     -10.824   9.994 -20.685  1.00 54.33 LIG 0.01  A 
ATOM     30  CE2 PHE C  20      -9.921  10.075 -21.754  1.00 57.68 LIG 0.00  A 
ATOM     31  CZ  PHE C  20      -8.641   9.571 -21.619  1.00 55.81 LIG 0.00  A 
ATOM     32  CE1 PHE C  20      -8.248   8.999 -20.428  1.00 56.05 LIG 0.00  A 
ATOM     33  CD1 PHE C  20      -9.153   8.909 -19.363  1.00 54.84 LIG 0.01  A 
ENDBRANCH 27 28
ENDBRANCH 17 27
ENDBRANCH 14 17
ENDBRANCH 8 13
ENDBRANCH 5 6
BRANCH 5 34
ATOM     34  CB  LEU C  18     -11.061  11.186 -10.800  1.00 31.46 LIG 0.04  C 
BRANCH 34 35
ATOM     35  CG  LEU C  18     -11.239  12.254  -9.753  1.00 36.62 LIG-0.02  C 
ATOM     36  CD2 LEU C  18      -9.886  12.661  -9.190  1.00 38.91 LIG 0.01  C 
ATOM     37  CD1 LEU C  18     -12.161  11.746  -8.641  1.00 36.98 LIG 0.01  C 
ENDBRANCH 34 35
ENDBRANCH 5 34
ENDBRANCH 3 5
BRANCH 1 38
ATOM     38  CA  PRO C  17     -11.828   6.928  -8.866  1.00 33.71 LIG 0.18  C 
ATOM     39  CB  PRO C  17     -12.266   5.592  -9.476  1.00 36.04 LIG 0.04  C 
ATOM     40  CG  PRO C  17     -13.114   4.904  -8.427  1.00 41.66 LIG 0.02  C 
ATOM     41  CD  PRO C  17     -13.200   5.786  -7.218  1.00 37.74 LIG 0.13  C 
ATOM     42  N   PRO C  17     -12.111   6.764  -7.437  1.00 35.06 LIG-0.34  N 
ATOM     43  C   ARG C  16     -11.377   7.452  -6.542  1.00 37.80 LIG 0.24  C 
ATOM     44 O    ARG C  16     -10.489   8.212  -6.922  1.00 34.25 LIG-0.27  OA
BRANCH 43 45
ATOM     45  CA  ARG C  16     -11.623   7.269  -5.033  1.00 39.10 LIG 0.18  C 
BRANCH 45 46
ATOM     46  CB  ARG C  16     -10.692   6.176  -4.476  1.00 42.59 LIG 0.04  C 
BRANCH 46 47
ATOM     47  CG  ARG C  16      -9.306   6.135  -5.113  1.00 54.51 LIG 0.02  C 
BRANCH 47 48
ATOM     48  CD  ARG C  16      -8.209   5.957  -4.082  1.00 71.70 LIG 0.14  C 
BRANCH 48 49
ATOM     49  NE  ARG C  16      -6.993   6.683  -4.462  1.00 86.72 LIG-0.23  N 
ATOM     50 HE   ARG C  16      -6.954   7.521  -4.273  1.00 86.72 LIG 0.18  HD
ATOM     51  CZ  ARG C  16      -5.945   6.141  -5.077  1.00 98.48 LIG 0.67  C 
ATOM     52  NH2 ARG C  16      -4.891   6.885  -5.388  1.00 86.10 LIG-0.23  N 
ATOM     53  NH1 ARG C  16      -5.946   4.852  -5.393  1.00 81.98 LIG-0.23  N 
ATOM     54 2HH2 ARG C  16      -4.216   6.530  -5.785  1.00 86.10 LIG 0.17  HD
ATOM     55 1HH2 ARG C  16      -4.883   7.722  -5.192  1.00 86.10 LIG 0.17  HD
ATOM     56 1HH1 ARG C  16      -6.626   4.362  -5.201  1.00 81.98 LIG 0.17  HD
ATOM     57 2HH1 ARG C  16      -5.266   4.507  -5.790  1.00 81.98 LIG 0.17  HD
ENDBRANCH 48 49
ENDBRANCH 47 48
ENDBRANCH 46 47
ENDBRANCH 45 46
BRANCH 45 58
ATOM     58  N   ARG C  16     -13.029   6.915  -4.808  1.00 40.87 LIG-0.35  N 
ATOM     59  C   PRO C  15     -14.068   7.778  -4.895  1.00 47.02 LIG 0.25  C 
ATOM     60 O    PRO C  15     -13.932   8.977  -5.143  1.00 46.36 LIG-0.27  OA
ATOM     61 H    ARG C  16     -13.137   6.086  -4.609  1.00 40.87 LIG 0.16  HD
BRANCH 59 62
ATOM     62  CA  PRO C  15     -15.471   7.197  -4.711  1.00 46.56 LIG 0.35  C 
ATOM     63  N   PRO C  15     -16.276   7.917  -3.713  1.00 47.38 LIG 0.32  N 
ATOM     64  CD  PRO C  15     -17.461   8.549  -4.323  1.00 49.28 LIG 0.32  C 
ATOM     65  CG  PRO C  15     -17.665   7.748  -5.572  1.00 53.38 LIG 0.04  C 
ATOM     66  CB  PRO C  15     -16.294   7.338  -6.003  1.00 48.49 LIG 0.05  C 
ENDBRANCH 59 62
ENDBRANCH 45 58
ENDBRANCH 43 45
ENDBRANCH 1 38
TORSDOF 18
ENDMDL
MODEL 36
USER: ADFR SOLUTION from run 14
USER: SCORE 21.771341 LL:  -3.929 LR: -18.630 RR:   0.000 FEB: -13.260
USER: RMSD 13.763425
USER: SEED 918875
USER: STATUS no improvement in best in 18 clusters for 5 generations
USER: GENES 20
USER: genes 0 Translation |==|  0.44167 0.47113 0.50971
USER: genes 1 Rotation |==|  0.98687 0.43073 0.41539 0.53162
USER: genes 2 Torsion [C]-N--CA-[CB] |==|  0.57231
USER: genes 3 Torsion [N]-CA--C-[N] |==|  0.37482
USER: genes 4 Torsion [N]-CA--C-[O] |==|  0.84144
USER: genes 5 Torsion [C]-N--CA-[C] |==|  0.61872
USER: genes 6 Torsion [N]-CA--C-[N] |==|  0.41776
USER: genes 7 Torsion [N]-CA--C-[O] |==|  0.93923
USER: genes 8 Torsion [N]-CA--CB-[CG] |==|  0.78466
USER: genes 9 Torsion [CA]-CB--CG-[CD1] |==|  0.20008
USER: genes 10 Torsion [N]-CA--CB-[CG] |==|  0.67146
USER: genes 11 Torsion [CA]-CB--CG-[CD2] |==|  0.93724
USER: genes 12 Torsion [O]-C--CA-[CB] |==|  0.26261
USER: genes 13 Torsion [N]-C--CA-[N] |==|  0.05688
USER: genes 14 Torsion [C]-CA--CB-[CG] |==|  0.27667
USER: genes 15 Torsion [CA]-CB--CG-[CD] |==|  0.09389
USER: genes 16 Torsion [CB]-CG--CD-[NE] |==|  0.44365
USER: genes 17 Torsion [CG]-CD--NE-[HE] |==|  0.82042
USER: genes 18 Torsion [C]-CA--N-[C] |==|  0.21039
USER: genes 19 Torsion [N]-C--CA-[CB] |==|  0.17540
ROOT
ATOM      1  C   PRO C  17     -12.663   8.832 -10.011  1.00 34.10 LIG 0.24  C 
ATOM      2 O    PRO C  17     -13.863   8.612  -9.860  1.00 31.91 LIG-0.27  OA
ATOM      3  N   LEU C  18     -11.734   8.257  -9.271  1.00 30.88 LIG-0.35  N 
ATOM      4 H    LEU C  18     -10.899   8.449  -9.335  1.00 30.88 LIG 0.16  HD
ENDROOT
BRANCH 3 5
ATOM      5  CA  LEU C  18     -12.022   7.238  -8.272  1.00 30.78 LIG 0.18  C 
BRANCH 5 6
ATOM      6  C   LEU C  18     -13.370   7.411  -7.596  1.00 33.73 LIG 0.24  C 
ATOM      7  N   PRO C  19     -14.150   6.309  -7.441  1.00 33.17 LIG-0.34  N 
ATOM      8  CA  PRO C  19     -15.442   6.417  -6.731  1.00 33.85 LIG 0.18  C 
ATOM      9  CD  PRO C  19     -13.901   4.928  -7.923  1.00 35.22 LIG 0.13  C 
ATOM     10  CB  PRO C  19     -16.141   5.089  -7.043  1.00 35.69 LIG 0.04  C 
ATOM     11  CG  PRO C  19     -15.064   4.142  -7.403  1.00 39.92 LIG 0.02  C 
ATOM     12 O    LEU C  18     -13.663   8.514  -7.128  1.00 31.40 LIG-0.27  OA
BRANCH 8 13
ATOM     13  C   PRO C  19     -15.321   6.687  -5.223  1.00 39.47 LIG 0.24  C 
ATOM     14  N   PHE C  20     -15.905   7.800  -4.776  1.00 41.20 LIG-0.35  N 
ATOM     15 H    PHE C  20     -16.332   8.337  -5.296  1.00 41.20 LIG 0.16  HD
ATOM     16 O    PRO C  19     -14.690   5.932  -4.491  1.00 36.20 LIG-0.27  OA
BRANCH 14 17
ATOM     17  CA  PHE C  20     -15.897   8.244  -3.383  1.00 43.59 LIG 0.18  C 
BRANCH 17 18
ATOM     18  C   PHE C  20     -17.298   8.755  -3.002  1.00 48.54 LIG 0.24  C 
ATOM     19  N   PRO C  21     -17.732   8.655  -1.717  1.00 46.41 LIG-0.34  N 
ATOM     20  CA  PRO C  21     -19.059   9.197  -1.337  1.00 51.72 LIG 0.17  C 
ATOM     21  CD  PRO C  21     -17.062   8.039  -0.555  1.00 49.19 LIG 0.13  C 
ATOM     22  CB  PRO C  21     -19.149   8.909   0.172  1.00 52.56 LIG 0.04  C 
ATOM     23  CG  PRO C  21     -18.177   7.828   0.424  1.00 54.82 LIG 0.02  C 
ATOM     24 O    PHE C  20     -17.987   9.274  -3.883  1.00 48.67 LIG-0.27  OA
BRANCH 20 25
ATOM     25  C   PRO C  21     -19.220  10.694  -1.602  1.00 87.57 LIG 0.22  C 
ATOM     26 O    PRO C  21     -18.226  11.411  -1.699  1.00 58.80 LIG-0.29  OA
ENDBRANCH 20 25
ENDBRANCH 17 18
BRANCH 17 27
ATOM     27  CB  PHE C  20     -14.827   9.352  -3.208  1.00 46.79 LIG 0.07  C 
BRANCH 27 28
ATOM     28  CG  PHE C  20     -13.378   8.916  -3.126  1.00 50.46 LIG-0.06  A 
ATOM     29  CD2 PHE C  20     -12.669   9.019  -1.932  1.00 54.33 LIG 0.01  A 
ATOM     30  CE2 PHE C  20     -11.329   8.614  -1.858  1.00 57.68 LIG 0.00  A 
ATOM     31  CZ  PHE C  20     -10.689   8.130  -2.983  1.00 55.81 LIG 0.00  A 
ATOM     32  CE1 PHE C  20     -11.372   8.035  -4.177  1.00 56.05 LIG 0.00  A 
ATOM     33  CD1 PHE C  20     -12.708   8.449  -4.253  1.00 54.84 LIG 0.01  A 
ENDBRANCH 27 28
ENDBRANCH 17 27
ENDBRANCH 14 17
ENDBRANCH 8 13
ENDBRANCH 5 6
BRANCH 5 34
ATOM     34  CB  LEU C  18     -10.928   7.261  -7.207  1.00 31.46 LIG 0.04  C 
BRANCH 34 35
ATOM     35  CG  LEU C  18     -10.113   6.002  -7.058  1.00 36.62 LIG-0.02  C 
ATOM     36  CD2 LEU C  18     -10.892   4.812  -7.597  1.00 38.91 LIG 0.01  C 
ATOM     37  CD1 LEU C  18      -9.744   5.791  -5.587  1.00 36.98 LIG 0.01  C 
ENDBRANCH 34 35
ENDBRANCH 5 34
ENDBRANCH 3 5
BRANCH 1 38
ATOM     38  CA  PRO C  17     -12.151   9.856 -11.015  1.00 33.71 LIG 0.18  C 
ATOM     39  CB  PRO C  17     -11.906  11.232 -10.387  1.00 36.04 LIG 0.04  C 
ATOM     40  CG  PRO C  17     -12.981  12.147 -10.934  1.00 41.66 LIG 0.02  C 
ATOM     41  CD  PRO C  17     -13.860  11.362 -11.861  1.00 37.74 LIG 0.13  C 
ATOM     42  N   PRO C  17     -13.066  10.142 -12.125  1.00 35.06 LIG-0.34  N 
ATOM     43  C   ARG C  16     -13.058   9.334 -13.203  1.00 37.80 LIG 0.24  C 
ATOM     44 O    ARG C  16     -12.301   8.367 -13.248  1.00 34.25 LIG-0.27  OA
BRANCH 43 45
ATOM     45  CA  ARG C  16     -13.977   9.633 -14.402  1.00 39.10 LIG 0.18  C 
BRANCH 45 46
ATOM     46  CB  ARG C  16     -13.248   9.306 -15.719  1.00 42.59 LIG 0.04  C 
BRANCH 46 47
ATOM     47  CG  ARG C  16     -13.614   7.959 -16.332  1.00 54.51 LIG 0.02  C 
BRANCH 47 48
ATOM     48  CD  ARG C  16     -15.064   7.593 -16.084  1.00 71.70 LIG 0.14  C 
BRANCH 48 49
ATOM     49  NE  ARG C  16     -15.535   6.584 -17.039  1.00 86.72 LIG-0.23  N 
ATOM     50 HE   ARG C  16     -15.568   6.808 -17.869  1.00 86.72 LIG 0.18  HD
ATOM     51  CZ  ARG C  16     -15.914   5.350 -16.716  1.00 98.48 LIG 0.67  C 
ATOM     52  NH2 ARG C  16     -16.334   4.511 -17.655  1.00 86.10 LIG-0.23  N 
ATOM     53  NH1 ARG C  16     -15.884   4.948 -15.452  1.00 81.98 LIG-0.23  N 
ATOM     54 2HH2 ARG C  16     -16.578   3.715 -17.441  1.00 86.10 LIG 0.17  HD
ATOM     55 1HH2 ARG C  16     -16.363   4.764 -18.476  1.00 86.10 LIG 0.17  HD
ATOM     56 1HH1 ARG C  16     -15.619   5.486 -14.836  1.00 81.98 LIG 0.17  HD
ATOM     57 2HH1 ARG C  16     -16.129   4.150 -15.249  1.00 81.98 LIG 0.17  HD
ENDBRANCH 48 49
ENDBRANCH 47 48
ENDBRANCH 46 47
ENDBRANCH 45 46
BRANCH 45 58
ATOM     58  N   ARG C  16     -14.378  11.043 -14.369  1.00 40.87 LIG-0.35  N 
ATOM     59  C   PRO C  15     -13.584  12.082 -14.717  1.00 47.02 LIG 0.25  C 
ATOM     60 O    PRO C  15     -12.412  11.949 -15.072  1.00 46.36 LIG-0.27  OA
ATOM     61 H    ARG C  16     -15.187  11.154 -14.100  1.00 40.87 LIG 0.16  HD
BRANCH 59 62
ATOM     62  CA  PRO C  15     -14.215  13.476 -14.699  1.00 46.56 LIG 0.35  C 
ATOM     63  N   PRO C  15     -15.460  13.565 -15.475  1.00 47.38 LIG 0.32  N 
ATOM     64  CD  PRO C  15     -16.616  13.879 -14.614  1.00 49.28 LIG 0.32  C 
ATOM     65  CG  PRO C  15     -15.983  14.525 -13.420  1.00 53.38 LIG 0.04  C 
ATOM     66  CB  PRO C  15     -14.653  13.858 -13.275  1.00 48.49 LIG 0.05  C 
ENDBRANCH 59 62
ENDBRANCH 45 58
ENDBRANCH 43 45
ENDBRANCH 1 38
TORSDOF 18
ENDMDL
MODEL 37
USER: ADFR SOLUTION from run 36
USER: SCORE 22.427979 LL:  -4.799 LR: -18.589 RR:   0.000 FEB: -13.220
USER: RMSD 13.241160
USER: SEED 35
USER: STATUS no improvement in best in 6 clusters for 5 generations
USER: GENES 20
USER: genes 0 Translation |==|  0.45911 0.52210 0.50906
USER: genes 1 Rotation |==|  0.88804 0.31947 0.24169 0.51051
USER: genes 2 Torsion [C]-N--CA-[CB] |==|  0.84560
USER: genes 3 Torsion [N]-CA--C-[N] |==|  0.37105
USER: genes 4 Torsion [N]-CA--C-[O] |==|  0.87954
USER: genes 5 Torsion [C]-N--CA-[C] |==|  0.18768
USER: genes 6 Torsion [N]-CA--C-[N] |==|  0.51138
USER: genes 7 Torsion [N]-CA--C-[O] |==|  0.85110
USER: genes 8 Torsion [N]-CA--CB-[CG] |==|  0.87522
USER: genes 9 Torsion [CA]-CB--CG-[CD1] |==|  0.77437
USER: genes 10 Torsion [N]-CA--CB-[CG] |==|  0.43999
USER: genes 11 Torsion [CA]-CB--CG-[CD2] |==|  0.63335
USER: genes 12 Torsion [O]-C--CA-[CB] |==|  0.09139
USER: genes 13 Torsion [N]-C--CA-[N] |==|  0.10000
USER: genes 14 Torsion [C]-CA--CB-[CG] |==|  0.40246
USER: genes 15 Torsion [CA]-CB--CG-[CD] |==|  0.87284
USER: genes 16 Torsion [CB]-CG--CD-[NE] |==|  0.58913
USER: genes 17 Torsion [CG]-CD--NE-[HE] |==|  0.29951
USER: genes 18 Torsion [C]-CA--N-[C] |==|  0.15023
USER: genes 19 Torsion [N]-C--CA-[CB] |==|  0.22444
ROOT
ATOM      1  C   PRO C  17     -12.349   9.750 -10.032  1.00 34.10 LIG 0.24  C 
ATOM      2 O    PRO C  17     -13.095  10.077  -9.111  1.00 31.91 LIG-0.27  OA
ATOM      3  N   LEU C  18     -11.636   8.639 -10.012  1.00 30.88 LIG-0.35  N 
ATOM      4 H    LEU C  18     -11.072   8.434 -10.626  1.00 30.88 LIG 0.16  HD
ENDROOT
BRANCH 3 5
ATOM      5  CA  LEU C  18     -11.728   7.646  -8.951  1.00 30.78 LIG 0.18  C 
BRANCH 5 6
ATOM      6  C   LEU C  18     -13.074   6.944  -8.890  1.00 33.73 LIG 0.24  C 
ATOM      7  N   PRO C  19     -13.079   5.591  -8.766  1.00 33.17 LIG-0.34  N 
ATOM      8  CA  PRO C  19     -14.363   4.869  -8.638  1.00 33.85 LIG 0.18  C 
ATOM      9  CD  PRO C  19     -11.923   4.660  -8.762  1.00 35.22 LIG 0.13  C 
ATOM     10  CB  PRO C  19     -13.978   3.401  -8.847  1.00 35.69 LIG 0.04  C 
ATOM     11  CG  PRO C  19     -12.536   3.314  -8.533  1.00 39.92 LIG 0.02  C 
ATOM     12 O    LEU C  18     -14.099   7.627  -8.854  1.00 31.40 LIG-0.27  OA
BRANCH 8 13
ATOM     13  C   PRO C  19     -15.099   5.110  -7.311  1.00 39.47 LIG 0.24  C 
ATOM     14  N   PHE C  20     -16.409   5.352  -7.400  1.00 41.20 LIG-0.35  N 
ATOM     15 H    PHE C  20     -16.823   5.367  -8.154  1.00 41.20 LIG 0.16  HD
ATOM     16 O    PRO C  19     -14.498   5.113  -6.242  1.00 36.20 LIG-0.27  OA
BRANCH 14 17
ATOM     17  CA  PHE C  20     -17.287   5.616  -6.261  1.00 43.59 LIG 0.18  C 
BRANCH 17 18
ATOM     18  C   PHE C  20     -16.913   6.970  -5.631  1.00 48.54 LIG 0.24  C 
ATOM     19  N   PRO C  21     -17.542   7.390  -4.501  1.00 46.41 LIG-0.34  N 
ATOM     20  CA  PRO C  21     -17.145   8.667  -3.861  1.00 51.72 LIG 0.17  C 
ATOM     21  CD  PRO C  21     -18.644   6.749  -3.758  1.00 49.19 LIG 0.13  C 
ATOM     22  CB  PRO C  21     -18.060   8.755  -2.628  1.00 52.56 LIG 0.04  C 
ATOM     23  CG  PRO C  21     -19.198   7.861  -2.919  1.00 54.82 LIG 0.02  C 
ATOM     24 O    PHE C  20     -16.020   7.633  -6.163  1.00 48.67 LIG-0.27  OA
BRANCH 20 25
ATOM     25  C   PRO C  21     -15.676   8.722  -3.437  1.00 87.57 LIG 0.22  C 
ATOM     26 O    PRO C  21     -15.211   7.838  -2.719  1.00 58.80 LIG-0.29  OA
ENDBRANCH 20 25
ENDBRANCH 17 18
BRANCH 17 27
ATOM     27  CB  PHE C  20     -17.151   4.461  -5.236  1.00 46.79 LIG 0.07  C 
BRANCH 27 28
ATOM     28  CG  PHE C  20     -17.158   3.045  -5.776  1.00 50.46 LIG-0.06  A 
ATOM     29  CD2 PHE C  20     -15.966   2.369  -6.021  1.00 54.33 LIG 0.01  A 
ATOM     30  CE2 PHE C  20     -15.975   1.059  -6.519  1.00 57.68 LIG 0.00  A 
ATOM     31  CZ  PHE C  20     -17.175   0.432  -6.797  1.00 55.81 LIG 0.00  A 
ATOM     32  CE1 PHE C  20     -18.365   1.092  -6.574  1.00 56.05 LIG 0.00  A 
ATOM     33  CD1 PHE C  20     -18.355   2.405  -6.085  1.00 54.84 LIG 0.01  A 
ENDBRANCH 27 28
ENDBRANCH 17 27
ENDBRANCH 14 17
ENDBRANCH 8 13
ENDBRANCH 5 6
BRANCH 5 34
ATOM     34  CB  LEU C  18     -11.463   8.324  -7.609  1.00 31.46 LIG 0.04  C 
BRANCH 34 35
ATOM     35  CG  LEU C  18     -11.992   7.618  -6.388  1.00 36.62 LIG-0.02  C 
ATOM     36  CD2 LEU C  18     -12.737   8.603  -5.500  1.00 38.91 LIG 0.01  C 
ATOM     37  CD1 LEU C  18     -10.837   6.962  -5.624  1.00 36.98 LIG 0.01  C 
ENDBRANCH 34 35
ENDBRANCH 5 34
ENDBRANCH 3 5
BRANCH 1 38
ATOM     38  CA  PRO C  17     -12.123  10.645 -11.243  1.00 33.71 LIG 0.18  C 
ATOM     39  CB  PRO C  17     -12.183  12.136 -10.898  1.00 36.04 LIG 0.04  C 
ATOM     40  CG  PRO C  17     -13.459  12.665 -11.518  1.00 41.66 LIG 0.02  C 
ATOM     41  CD  PRO C  17     -14.161  11.539 -12.215  1.00 37.74 LIG 0.13  C 
ATOM     42  N   PRO C  17     -13.115  10.498 -12.312  1.00 35.06 LIG-0.34  N 
ATOM     43  C   ARG C  16     -12.955   9.517 -13.221  1.00 37.80 LIG 0.24  C 
ATOM     44 O    ARG C  16     -11.996   8.753 -13.148  1.00 34.25 LIG-0.27  OA
BRANCH 43 45
ATOM     45  CA  ARG C  16     -13.958   9.365 -14.381  1.00 39.10 LIG 0.18  C 
BRANCH 45 46
ATOM     46  CB  ARG C  16     -13.304   8.596 -15.545  1.00 42.59 LIG 0.04  C 
BRANCH 46 47
ATOM     47  CG  ARG C  16     -14.249   7.677 -16.311  1.00 54.51 LIG 0.02  C 
BRANCH 47 48
ATOM     48  CD  ARG C  16     -15.113   6.844 -15.384  1.00 71.70 LIG 0.14  C 
BRANCH 48 49
ATOM     49  NE  ARG C  16     -15.419   5.534 -15.969  1.00 86.72 LIG-0.23  N 
ATOM     50 HE   ARG C  16     -15.030   4.846 -15.630  1.00 86.72 LIG 0.18  HD
ATOM     51  CZ  ARG C  16     -16.257   5.332 -16.983  1.00 98.48 LIG 0.67  C 
ATOM     52  NH2 ARG C  16     -16.462   4.106 -17.449  1.00 86.10 LIG-0.23  N 
ATOM     53  NH1 ARG C  16     -16.887   6.355 -17.546  1.00 81.98 LIG-0.23  N 
ATOM     54 2HH2 ARG C  16     -17.004   3.981 -18.105  1.00 86.10 LIG 0.17  HD
ATOM     55 1HH2 ARG C  16     -16.054   3.438 -17.095  1.00 86.10 LIG 0.17  HD
ATOM     56 1HH1 ARG C  16     -16.757   7.154 -17.256  1.00 81.98 LIG 0.17  HD
ATOM     57 2HH1 ARG C  16     -17.427   6.219 -18.201  1.00 81.98 LIG 0.17  HD
ENDBRANCH 48 49
ENDBRANCH 47 48
ENDBRANCH 46 47
ENDBRANCH 45 46
BRANCH 45 58
ATOM     58  N   ARG C  16     -14.399  10.692 -14.821  1.00 40.87 LIG-0.35  N 
ATOM     59  C   PRO C  15     -13.574  11.699 -15.192  1.00 47.02 LIG 0.25  C 
ATOM     60 O    PRO C  15     -12.346  11.611 -15.166  1.00 46.36 LIG-0.27  OA
ATOM     61 H    ARG C  16     -15.255  10.777 -14.822  1.00 40.87 LIG 0.16  HD
BRANCH 59 62
ATOM     62  CA  PRO C  15     -14.231  12.983 -15.704  1.00 46.56 LIG 0.35  C 
ATOM     63  N   PRO C  15     -15.463  12.744 -16.470  1.00 47.38 LIG 0.32  N 
ATOM     64  CD  PRO C  15     -16.640  13.330 -15.802  1.00 49.28 LIG 0.32  C 
ATOM     65  CG  PRO C  15     -16.042  14.391 -14.931  1.00 53.38 LIG 0.04  C 
ATOM     66  CB  PRO C  15     -14.703  13.860 -14.532  1.00 48.49 LIG 0.05  C 
ENDBRANCH 59 62
ENDBRANCH 45 58
ENDBRANCH 43 45
ENDBRANCH 1 38
TORSDOF 18
ENDMDL
MODEL 38
USER: ADFR SOLUTION from run 108
USER: SCORE 21.102847 LL:  -4.787 LR: -18.581 RR:   0.000 FEB: -13.212
USER: RMSD 13.426731
USER: SEED 107
USER: STATUS no improvement in best in 6 clusters for 5 generations
USER: GENES 20
USER: genes 0 Translation |==|  0.47988 0.57192 0.42600
USER: genes 1 Rotation |==|  0.81779 0.87622 0.58529 0.51406
USER: genes 2 Torsion [C]-N--CA-[CB] |==|  0.34716
USER: genes 3 Torsion [N]-CA--C-[N] |==|  0.17789
USER: genes 4 Torsion [N]-CA--C-[O] |==|  0.84637
USER: genes 5 Torsion [C]-N--CA-[C] |==|  0.85456
USER: genes 6 Torsion [N]-CA--C-[N] |==|  0.38889
USER: genes 7 Torsion [N]-CA--C-[O] |==|  0.94859
USER: genes 8 Torsion [N]-CA--CB-[CG] |==|  0.12261
USER: genes 9 Torsion [CA]-CB--CG-[CD1] |==|  0.28460
USER: genes 10 Torsion [N]-CA--CB-[CG] |==|  0.63275
USER: genes 11 Torsion [CA]-CB--CG-[CD2] |==|  0.95510
USER: genes 12 Torsion [O]-C--CA-[CB] |==|  0.52591
USER: genes 13 Torsion [N]-C--CA-[N] |==|  0.15651
USER: genes 14 Torsion [C]-CA--CB-[CG] |==|  0.77902
USER: genes 15 Torsion [CA]-CB--CG-[CD] |==|  0.54897
USER: genes 16 Torsion [CB]-CG--CD-[NE] |==|  0.24626
USER: genes 17 Torsion [CG]-CD--NE-[HE] |==|  0.21033
USER: genes 18 Torsion [C]-CA--N-[C] |==|  0.64611
USER: genes 19 Torsion [N]-C--CA-[CB] |==|  0.88664
ROOT
ATOM      1  C   PRO C  17     -11.975  10.646 -12.711  1.00 34.10 LIG 0.24  C 
ATOM      2 O    PRO C  17     -11.190   9.751 -13.015  1.00 31.91 LIG-0.27  OA
ATOM      3  N   LEU C  18     -11.954  11.242 -11.533  1.00 30.88 LIG-0.35  N 
ATOM      4 H    LEU C  18     -12.535  11.829 -11.295  1.00 30.88 LIG 0.16  HD
ENDROOT
BRANCH 3 5
ATOM      5  CA  LEU C  18     -10.949  10.972 -10.515  1.00 30.78 LIG 0.18  C 
BRANCH 5 6
ATOM      6  C   LEU C  18     -11.506  10.299  -9.273  1.00 33.73 LIG 0.24  C 
ATOM      7  N   PRO C  19     -12.033   9.054  -9.407  1.00 33.17 LIG-0.34  N 
ATOM      8  CA  PRO C  19     -12.529   8.333  -8.215  1.00 33.85 LIG 0.18  C 
ATOM      9  CD  PRO C  19     -12.223   8.260 -10.647  1.00 35.22 LIG 0.13  C 
ATOM     10  CB  PRO C  19     -13.314   7.155  -8.802  1.00 35.69 LIG 0.04  C 
ATOM     11  CG  PRO C  19     -12.783   6.958 -10.168  1.00 39.92 LIG 0.02  C 
ATOM     12 O    LEU C  18     -11.371  10.859  -8.183  1.00 31.40 LIG-0.27  OA
BRANCH 8 13
ATOM     13  C   PRO C  19     -11.431   7.890  -7.236  1.00 39.47 LIG 0.24  C 
ATOM     14  N   PHE C  20     -11.548   8.331  -5.982  1.00 41.20 LIG-0.35  N 
ATOM     15 H    PHE C  20     -12.201   8.830  -5.729  1.00 41.20 LIG 0.16  HD
ATOM     16 O    PRO C  19     -10.488   7.199  -7.609  1.00 36.20 LIG-0.27  OA
BRANCH 14 17
ATOM     17  CA  PHE C  20     -10.607   8.034  -4.903  1.00 43.59 LIG 0.18  C 
BRANCH 17 18
ATOM     18  C   PHE C  20     -10.397   6.511  -4.813  1.00 48.54 LIG 0.24  C 
ATOM     19  N   PRO C  21      -9.157   6.009  -4.575  1.00 46.41 LIG-0.34  N 
ATOM     20  CA  PRO C  21      -8.962   4.546  -4.433  1.00 51.72 LIG 0.17  C 
ATOM     21  CD  PRO C  21      -7.874   6.726  -4.438  1.00 49.19 LIG 0.13  C 
ATOM     22  CB  PRO C  21      -7.456   4.406  -4.152  1.00 52.56 LIG 0.04  C 
ATOM     23  CG  PRO C  21      -6.846   5.655  -4.647  1.00 54.82 LIG 0.02  C 
ATOM     24 O    PHE C  20     -11.383   5.780  -4.936  1.00 48.67 LIG-0.27  OA
BRANCH 20 25
ATOM     25  C   PRO C  21      -9.774   3.916  -3.301  1.00 87.57 LIG 0.22  C 
ATOM     26 O    PRO C  21     -10.229   4.623  -2.404  1.00 58.80 LIG-0.29  OA
ENDBRANCH 20 25
ENDBRANCH 17 18
BRANCH 17 27
ATOM     27  CB  PHE C  20     -11.162   8.604  -3.573  1.00 46.79 LIG 0.07  C 
BRANCH 27 28
ATOM     28  CG  PHE C  20     -12.632   8.382  -3.279  1.00 50.46 LIG-0.06  A 
ATOM     29  CD2 PHE C  20     -13.607   9.186  -3.864  1.00 54.33 LIG 0.01  A 
ATOM     30  CE2 PHE C  20     -14.966   8.978  -3.592  1.00 57.68 LIG 0.00  A 
ATOM     31  CZ  PHE C  20     -15.351   7.982  -2.713  1.00 55.81 LIG 0.00  A 
ATOM     32  CE1 PHE C  20     -14.399   7.186  -2.114  1.00 56.05 LIG 0.00  A 
ATOM     33  CD1 PHE C  20     -13.041   7.400  -2.379  1.00 54.84 LIG 0.01  A 
ENDBRANCH 27 28
ENDBRANCH 17 27
ENDBRANCH 14 17
ENDBRANCH 8 13
ENDBRANCH 5 6
BRANCH 5 34
ATOM     34  CB  LEU C  18     -10.284  12.285 -10.110  1.00 31.46 LIG 0.04  C 
BRANCH 34 35
ATOM     35  CG  LEU C  18      -8.778  12.285 -10.059  1.00 36.62 LIG-0.02  C 
ATOM     36  CD2 LEU C  18      -8.259  10.855 -10.043  1.00 38.91 LIG 0.01  C 
ATOM     37  CD1 LEU C  18      -8.298  13.053  -8.824  1.00 36.98 LIG 0.01  C 
ENDBRANCH 34 35
ENDBRANCH 5 34
ENDBRANCH 3 5
BRANCH 1 38
ATOM     38  CA  PRO C  17     -13.096  11.089 -13.642  1.00 33.71 LIG 0.18  C 
ATOM     39  CB  PRO C  17     -13.801  12.360 -13.160  1.00 36.04 LIG 0.04  C 
ATOM     40  CG  PRO C  17     -15.182  11.935 -12.706  1.00 41.66 LIG 0.02  C 
ATOM     41  CD  PRO C  17     -15.319  10.454 -12.897  1.00 37.74 LIG 0.13  C 
ATOM     42  N   PRO C  17     -14.189  10.124 -13.793  1.00 35.06 LIG-0.34  N 
ATOM     43  C   ARG C  16     -14.064   9.130 -14.693  1.00 37.80 LIG 0.24  C 
ATOM     44 O    ARG C  16     -13.044   9.031 -15.370  1.00 34.25 LIG-0.27  OA
BRANCH 43 45
ATOM     45  CA  ARG C  16     -15.214   8.126 -14.904  1.00 39.10 LIG 0.18  C 
BRANCH 45 46
ATOM     46  CB  ARG C  16     -14.841   7.125 -16.014  1.00 42.59 LIG 0.04  C 
BRANCH 46 47
ATOM     47  CG  ARG C  16     -15.018   7.654 -17.433  1.00 54.51 LIG 0.02  C 
BRANCH 47 48
ATOM     48  CD  ARG C  16     -15.057   6.537 -18.458  1.00 71.70 LIG 0.14  C 
BRANCH 48 49
ATOM     49  NE  ARG C  16     -16.423   6.040 -18.659  1.00 86.72 LIG-0.23  N 
ATOM     50 HE   ARG C  16     -16.959   6.526 -19.124  1.00 86.72 LIG 0.18  HD
ATOM     51  CZ  ARG C  16     -16.893   4.893 -18.174  1.00 98.48 LIG 0.67  C 
ATOM     52  NH2 ARG C  16     -18.149   4.534 -18.403  1.00 86.10 LIG-0.23  N 
ATOM     53  NH1 ARG C  16     -16.113   4.102 -17.449  1.00 81.98 LIG-0.23  N 
ATOM     54 2HH2 ARG C  16     -18.448   3.792 -18.088  1.00 86.10 LIG 0.17  HD
ATOM     55 1HH2 ARG C  16     -18.665   5.042 -18.867  1.00 86.10 LIG 0.17  HD
ATOM     56 1HH1 ARG C  16     -15.299   4.328 -17.290  1.00 81.98 LIG 0.17  HD
ATOM     57 2HH1 ARG C  16     -16.421   3.362 -17.139  1.00 81.98 LIG 0.17  HD
ENDBRANCH 48 49
ENDBRANCH 47 48
ENDBRANCH 46 47
ENDBRANCH 45 46
BRANCH 45 58
ATOM     58  N   ARG C  16     -16.438   8.854 -15.253  1.00 40.87 LIG-0.35  N 
ATOM     59  C   PRO C  15     -17.628   8.713 -14.623  1.00 47.02 LIG 0.25  C 
ATOM     60 O    PRO C  15     -17.815   7.922 -13.699  1.00 46.36 LIG-0.27  OA
ATOM     61 H    ARG C  16     -16.329   9.394 -15.913  1.00 40.87 LIG 0.16  HD
BRANCH 59 62
ATOM     62  CA  PRO C  15     -18.767   9.628 -15.079  1.00 46.56 LIG 0.35  C 
ATOM     63  N   PRO C  15     -19.807   9.821 -14.057  1.00 47.38 LIG 0.32  N 
ATOM     64  CD  PRO C  15     -19.888  11.229 -13.624  1.00 49.28 LIG 0.32  C 
ATOM     65  CG  PRO C  15     -19.289  11.973 -14.778  1.00 53.38 LIG 0.04  C 
ATOM     66  CB  PRO C  15     -18.252  11.054 -15.339  1.00 48.49 LIG 0.05  C 
ENDBRANCH 59 62
ENDBRANCH 45 58
ENDBRANCH 43 45
ENDBRANCH 1 38
TORSDOF 18
ENDMDL
MODEL 39
USER: ADFR SOLUTION from run 48
USER: SCORE 20.829519 LL:  -4.063 LR: -18.575 RR:   0.000 FEB: -13.205
USER: RMSD 14.098680
USER: SEED 47
USER: STATUS no improvement in best in 12 clusters for 5 generations
USER: GENES 20
USER: genes 0 Translation |==|  0.45185 0.49306 0.51656
USER: genes 1 Rotation |==|  0.99076 0.43386 0.45798 0.55492
USER: genes 2 Torsion [C]-N--CA-[CB] |==|  0.26087
USER: genes 3 Torsion [N]-CA--C-[N] |==|  0.38877
USER: genes 4 Torsion [N]-CA--C-[O] |==|  0.80098
USER: genes 5 Torsion [C]-N--CA-[C] |==|  0.64444
USER: genes 6 Torsion [N]-CA--C-[N] |==|  0.14356
USER: genes 7 Torsion [N]-CA--C-[O] |==|  0.87343
USER: genes 8 Torsion [N]-CA--CB-[CG] |==|  0.50480
USER: genes 9 Torsion [CA]-CB--CG-[CD1] |==|  0.64221
USER: genes 10 Torsion [N]-CA--CB-[CG] |==|  0.75916
USER: genes 11 Torsion [CA]-CB--CG-[CD2] |==|  0.85226
USER: genes 12 Torsion [O]-C--CA-[CB] |==|  0.28889
USER: genes 13 Torsion [N]-C--CA-[N] |==|  0.08271
USER: genes 14 Torsion [C]-CA--CB-[CG] |==|  0.27398
USER: genes 15 Torsion [CA]-CB--CG-[CD] |==|  0.16492
USER: genes 16 Torsion [CB]-CG--CD-[NE] |==|  0.63674
USER: genes 17 Torsion [CG]-CD--NE-[HE] |==|  0.30088
USER: genes 18 Torsion [C]-CA--N-[C] |==|  0.64031
USER: genes 19 Torsion [N]-C--CA-[CB] |==|  0.73829
ROOT
ATOM      1  C   PRO C  17     -12.480   9.227  -9.790  1.00 34.10 LIG 0.24  C 
ATOM      2 O    PRO C  17     -13.681   8.965  -9.799  1.00 31.91 LIG-0.27  OA
ATOM      3  N   LEU C  18     -11.660   8.781  -8.857  1.00 30.88 LIG-0.35  N 
ATOM      4 H    LEU C  18     -10.832   9.006  -8.815  1.00 30.88 LIG 0.16  HD
ENDROOT
BRANCH 3 5
ATOM      5  CA  LEU C  18     -12.067   7.862  -7.804  1.00 30.78 LIG 0.18  C 
BRANCH 5 6
ATOM      6  C   LEU C  18     -11.382   8.118  -6.473  1.00 33.73 LIG 0.24  C 
ATOM      7  N   PRO C  19     -12.127   8.006  -5.342  1.00 33.17 LIG-0.34  N 
ATOM      8  CA  PRO C  19     -11.489   8.183  -4.020  1.00 33.85 LIG 0.18  C 
ATOM      9  CD  PRO C  19     -13.582   7.738  -5.219  1.00 35.22 LIG 0.13  C 
ATOM     10  CB  PRO C  19     -12.675   8.304  -3.058  1.00 35.69 LIG 0.04  C 
ATOM     11  CG  PRO C  19     -13.818   7.664  -3.743  1.00 39.92 LIG 0.02  C 
ATOM     12 O    LEU C  18     -10.165   8.319  -6.460  1.00 31.40 LIG-0.27  OA
BRANCH 8 13
ATOM     13  C   PRO C  19     -10.514   7.063  -3.629  1.00 39.47 LIG 0.24  C 
ATOM     14  N   PHE C  20      -9.216   7.370  -3.677  1.00 41.20 LIG-0.35  N 
ATOM     15 H    PHE C  20      -8.936   8.150  -3.908  1.00 41.20 LIG 0.16  HD
ATOM     16 O    PRO C  19     -10.918   5.945  -3.325  1.00 36.20 LIG-0.27  OA
BRANCH 14 17
ATOM     17  CA  PHE C  20      -8.129   6.446  -3.354  1.00 43.59 LIG 0.18  C 
BRANCH 17 18
ATOM     18  C   PHE C  20      -7.190   7.102  -2.325  1.00 48.54 LIG 0.24  C 
ATOM     19  N   PRO C  21      -7.700   7.635  -1.183  1.00 46.41 LIG-0.34  N 
ATOM     20  CA  PRO C  21      -6.792   8.218  -0.166  1.00 51.72 LIG 0.17  C 
ATOM     21  CD  PRO C  21      -9.109   7.754  -0.761  1.00 49.19 LIG 0.13  C 
ATOM     22  CB  PRO C  21      -7.745   8.674   0.952  1.00 52.56 LIG 0.04  C 
ATOM     23  CG  PRO C  21      -9.069   8.799   0.313  1.00 54.82 LIG 0.02  C 
ATOM     24 O    PHE C  20      -5.979   7.101  -2.559  1.00 48.67 LIG-0.27  OA
BRANCH 20 25
ATOM     25  C   PRO C  21      -5.759   7.233   0.385  1.00 87.57 LIG 0.22  C 
ATOM     26 O    PRO C  21      -6.106   6.101   0.716  1.00 58.80 LIG-0.29  OA
ENDBRANCH 20 25
ENDBRANCH 17 18
BRANCH 17 27
ATOM     27  CB  PHE C  20      -7.369   6.081  -4.655  1.00 46.79 LIG 0.07  C 
BRANCH 27 28
ATOM     28  CG  PHE C  20      -6.222   5.096  -4.539  1.00 50.46 LIG-0.06  A 
ATOM     29  CD2 PHE C  20      -6.380   3.895  -3.852  1.00 54.33 LIG 0.01  A 
ATOM     30  CE2 PHE C  20      -5.319   2.986  -3.747  1.00 57.68 LIG 0.00  A 
ATOM     31  CZ  PHE C  20      -4.091   3.286  -4.307  1.00 55.81 LIG 0.00  A 
ATOM     32  CE1 PHE C  20      -3.914   4.477  -4.979  1.00 56.05 LIG 0.00  A 
ATOM     33  CD1 PHE C  20      -4.971   5.390  -5.075  1.00 54.84 LIG 0.01  A 
ENDBRANCH 27 28
ENDBRANCH 17 27
ENDBRANCH 14 17
ENDBRANCH 8 13
ENDBRANCH 5 6
BRANCH 5 34
ATOM     34  CB  LEU C  18     -11.768   6.432  -8.247  1.00 31.46 LIG 0.04  C 
BRANCH 34 35
ATOM     35  CG  LEU C  18     -12.836   5.746  -9.059  1.00 36.62 LIG-0.02  C 
ATOM     36  CD2 LEU C  18     -14.168   5.814  -8.328  1.00 38.91 LIG 0.01  C 
ATOM     37  CD1 LEU C  18     -12.434   4.292  -9.326  1.00 36.98 LIG 0.01  C 
ENDBRANCH 34 35
ENDBRANCH 5 34
ENDBRANCH 3 5
BRANCH 1 38
ATOM     38  CA  PRO C  17     -11.850  10.161 -10.815  1.00 33.71 LIG 0.18  C 
ATOM     39  CB  PRO C  17     -11.538  11.547 -10.242  1.00 36.04 LIG 0.04  C 
ATOM     40  CG  PRO C  17     -12.520  12.504 -10.886  1.00 41.66 LIG 0.02  C 
ATOM     41  CD  PRO C  17     -13.407  11.734 -11.817  1.00 37.74 LIG 0.13  C 
ATOM     42  N   PRO C  17     -12.689  10.451 -11.982  1.00 35.06 LIG-0.34  N 
ATOM     43  C   ARG C  16     -12.688   9.590 -13.018  1.00 37.80 LIG 0.24  C 
ATOM     44 O    ARG C  16     -11.999   8.573 -12.979  1.00 34.25 LIG-0.27  OA
BRANCH 43 45
ATOM     45  CA  ARG C  16     -13.526   9.889 -14.275  1.00 39.10 LIG 0.18  C 
BRANCH 45 46
ATOM     46  CB  ARG C  16     -12.872   9.242 -15.510  1.00 42.59 LIG 0.04  C 
BRANCH 46 47
ATOM     47  CG  ARG C  16     -13.481   7.907 -15.928  1.00 54.51 LIG 0.02  C 
BRANCH 47 48
ATOM     48  CD  ARG C  16     -14.956   8.031 -16.260  1.00 71.70 LIG 0.14  C 
BRANCH 48 49
ATOM     49  NE  ARG C  16     -15.748   7.004 -15.575  1.00 86.72 LIG-0.23  N 
ATOM     50 HE   ARG C  16     -16.252   7.257 -14.926  1.00 86.72 LIG 0.18  HD
ATOM     51  CZ  ARG C  16     -15.745   5.710 -15.886  1.00 98.48 LIG 0.67  C 
ATOM     52  NH2 ARG C  16     -16.492   4.854 -15.200  1.00 86.10 LIG-0.23  N 
ATOM     53  NH1 ARG C  16     -14.987   5.260 -16.878  1.00 81.98 LIG-0.23  N 
ATOM     54 2HH2 ARG C  16     -16.486   4.019 -15.404  1.00 86.10 LIG 0.17  HD
ATOM     55 1HH2 ARG C  16     -16.982   5.135 -14.551  1.00 86.10 LIG 0.17  HD
ATOM     56 1HH1 ARG C  16     -14.495   5.805 -17.325  1.00 81.98 LIG 0.17  HD
ATOM     57 2HH1 ARG C  16     -14.989   4.423 -17.074  1.00 81.98 LIG 0.17  HD
ENDBRANCH 48 49
ENDBRANCH 47 48
ENDBRANCH 46 47
ENDBRANCH 45 46
BRANCH 45 58
ATOM     58  N   ARG C  16     -13.640  11.341 -14.451  1.00 40.87 LIG-0.35  N 
ATOM     59  C   PRO C  15     -14.801  12.008 -14.649  1.00 47.02 LIG 0.25  C 
ATOM     60 O    PRO C  15     -15.895  11.450 -14.737  1.00 46.36 LIG-0.27  OA
ATOM     61 H    ARG C  16     -12.880  11.742 -14.416  1.00 40.87 LIG 0.16  HD
BRANCH 59 62
ATOM     62  CA  PRO C  15     -14.721  13.535 -14.723  1.00 46.56 LIG 0.35  C 
ATOM     63  N   PRO C  15     -15.753  14.133 -15.582  1.00 47.38 LIG 0.32  N 
ATOM     64  CD  PRO C  15     -16.670  14.993 -14.811  1.00 49.28 LIG 0.32  C 
ATOM     65  CG  PRO C  15     -15.862  15.352 -13.602  1.00 53.38 LIG 0.04  C 
ATOM     66  CB  PRO C  15     -14.994  14.162 -13.345  1.00 48.49 LIG 0.05  C 
ENDBRANCH 59 62
ENDBRANCH 45 58
ENDBRANCH 43 45
ENDBRANCH 1 38
TORSDOF 18
ENDMDL
MODEL 40
USER: ADFR SOLUTION from run 47
USER: SCORE 21.030453 LL:  -4.726 LR: -18.564 RR:   0.000 FEB: -13.194
USER: RMSD 4.555889
USER: SEED 46
USER: STATUS no improvement in best in 8 clusters for 5 generations
USER: GENES 20
USER: genes 0 Translation |==|  0.44862 0.42332 0.52775
USER: genes 1 Rotation |==|  0.51860 0.44736 0.54583 0.99475
USER: genes 2 Torsion [C]-N--CA-[CB] |==|  0.34222
USER: genes 3 Torsion [N]-CA--C-[N] |==|  0.28019
USER: genes 4 Torsion [N]-CA--C-[O] |==|  0.18290
USER: genes 5 Torsion [C]-N--CA-[C] |==|  0.63565
USER: genes 6 Torsion [N]-CA--C-[N] |==|  0.16555
USER: genes 7 Torsion [N]-CA--C-[O] |==|  0.64496
USER: genes 8 Torsion [N]-CA--CB-[CG] |==|  0.79971
USER: genes 9 Torsion [CA]-CB--CG-[CD1] |==|  0.22193
USER: genes 10 Torsion [N]-CA--CB-[CG] |==|  0.62956
USER: genes 11 Torsion [CA]-CB--CG-[CD2] |==|  0.21344
USER: genes 12 Torsion [O]-C--CA-[CB] |==|  0.20840
USER: genes 13 Torsion [N]-C--CA-[N] |==|  0.92423
USER: genes 14 Torsion [C]-CA--CB-[CG] |==|  0.17401
USER: genes 15 Torsion [CA]-CB--CG-[CD] |==|  0.23619
USER: genes 16 Torsion [CB]-CG--CD-[NE] |==|  0.97987
USER: genes 17 Torsion [CG]-CD--NE-[HE] |==|  0.17904
USER: genes 18 Torsion [C]-CA--N-[C] |==|  0.77990
USER: genes 19 Torsion [N]-C--CA-[CB] |==|  0.69736
ROOT
ATOM      1  C   PRO C  17     -12.538   7.972  -9.429  1.00 34.10 LIG 0.24  C 
ATOM      2 O    PRO C  17     -13.724   8.283  -9.345  1.00 31.91 LIG-0.27  OA
ATOM      3  N   LEU C  18     -11.680   8.632 -10.184  1.00 30.88 LIG-0.35  N 
ATOM      4 H    LEU C  18     -10.863   8.386 -10.290  1.00 30.88 LIG 0.16  HD
ENDROOT
BRANCH 3 5
ATOM      5  CA  LEU C  18     -12.021   9.844 -10.914  1.00 30.78 LIG 0.18  C 
BRANCH 5 6
ATOM      6  C   LEU C  18     -11.951   9.686 -12.423  1.00 33.73 LIG 0.24  C 
ATOM      7  N   PRO C  19     -13.117   9.506 -13.098  1.00 33.17 LIG-0.34  N 
ATOM      8  CA  PRO C  19     -13.106   9.412 -14.573  1.00 33.85 LIG 0.18  C 
ATOM      9  CD  PRO C  19     -14.488   9.358 -12.548  1.00 35.22 LIG 0.13  C 
ATOM     10  CB  PRO C  19     -14.510   8.901 -14.916  1.00 35.69 LIG 0.04  C 
ATOM     11  CG  PRO C  19     -15.361   9.255 -13.759  1.00 39.92 LIG 0.02  C 
ATOM     12 O    LEU C  18     -10.863   9.824 -12.985  1.00 31.40 LIG-0.27  OA
BRANCH 8 13
ATOM     13  C   PRO C  19     -12.756  10.723 -15.293  1.00 39.47 LIG 0.24  C 
ATOM     14  N   PHE C  20     -13.715  11.249 -16.057  1.00 41.20 LIG-0.35  N 
ATOM     15 H    PHE C  20     -14.489  10.883 -16.141  1.00 41.20 LIG 0.16  HD
ATOM     16 O    PRO C  19     -11.642  11.227 -15.189  1.00 36.20 LIG-0.27  OA
BRANCH 14 17
ATOM     17  CA  PHE C  20     -13.581  12.482 -16.832  1.00 43.59 LIG 0.18  C 
BRANCH 17 18
ATOM     18  C   PHE C  20     -14.797  13.388 -16.563  1.00 48.54 LIG 0.24  C 
ATOM     19  N   PRO C  21     -15.063  13.812 -15.299  1.00 46.41 LIG-0.34  N 
ATOM     20  CA  PRO C  21     -16.201  14.729 -15.047  1.00 51.72 LIG 0.17  C 
ATOM     21  CD  PRO C  21     -14.369  13.476 -14.041  1.00 49.19 LIG 0.13  C 
ATOM     22  CB  PRO C  21     -16.137  14.977 -13.530  1.00 52.56 LIG 0.04  C 
ATOM     23  CG  PRO C  21     -15.359  13.850 -12.980  1.00 54.82 LIG 0.02  C 
ATOM     24 O    PHE C  20     -15.490  13.731 -17.524  1.00 48.67 LIG-0.27  OA
BRANCH 20 25
ATOM     25  C   PRO C  21     -16.113  16.054 -15.806  1.00 87.57 LIG 0.22  C 
ATOM     26 O    PRO C  21     -16.225  17.118 -15.199  1.00 58.80 LIG-0.29  OA
ENDBRANCH 20 25
ENDBRANCH 17 18
BRANCH 17 27
ATOM     27  CB  PHE C  20     -13.466  12.127 -18.337  1.00 46.79 LIG 0.07  C 
BRANCH 27 28
ATOM     28  CG  PHE C  20     -12.170  11.499 -18.808  1.00 50.46 LIG-0.06  A 
ATOM     29  CD2 PHE C  20     -11.217  12.253 -19.487  1.00 54.33 LIG 0.01  A 
ATOM     30  CE2 PHE C  20     -10.018  11.671 -19.921  1.00 57.68 LIG 0.00  A 
ATOM     31  CZ  PHE C  20      -9.782  10.327 -19.699  1.00 55.81 LIG 0.00  A 
ATOM     32  CE1 PHE C  20     -10.721   9.562 -19.040  1.00 56.05 LIG 0.00  A 
ATOM     33  CD1 PHE C  20     -11.923  10.142 -18.616  1.00 54.84 LIG 0.01  A 
ENDBRANCH 27 28
ENDBRANCH 17 27
ENDBRANCH 14 17
ENDBRANCH 8 13
ENDBRANCH 5 6
BRANCH 5 34
ATOM     34  CB  LEU C  18     -11.074  10.965 -10.490  1.00 31.46 LIG 0.04  C 
BRANCH 34 35
ATOM     35  CG  LEU C  18     -11.711  12.292 -10.171  1.00 36.62 LIG-0.02  C 
ATOM     36  CD2 LEU C  18     -12.362  12.240  -8.797  1.00 38.91 LIG 0.01  C 
ATOM     37  CD1 LEU C  18     -12.739  12.650 -11.248  1.00 36.98 LIG 0.01  C 
ENDBRANCH 34 35
ENDBRANCH 5 34
ENDBRANCH 3 5
BRANCH 1 38
ATOM     38  CA  PRO C  17     -11.975   6.742  -8.730  1.00 33.71 LIG 0.18  C 
ATOM     39  CB  PRO C  17     -12.362   5.434  -9.426  1.00 36.04 LIG 0.04  C 
ATOM     40  CG  PRO C  17     -13.350   4.741  -8.511  1.00 41.66 LIG 0.02  C 
ATOM     41  CD  PRO C  17     -13.567   5.595  -7.298  1.00 37.74 LIG 0.13  C 
ATOM     42  N   PRO C  17     -12.439   6.550  -7.352  1.00 35.06 LIG-0.34  N 
ATOM     43  C   ARG C  16     -11.807   7.196  -6.354  1.00 37.80 LIG 0.24  C 
ATOM     44 O    ARG C  16     -10.862   7.943  -6.598  1.00 34.25 LIG-0.27  OA
BRANCH 43 45
ATOM     45  CA  ARG C  16     -12.245   6.982  -4.892  1.00 39.10 LIG 0.18  C 
BRANCH 45 46
ATOM     46  CB  ARG C  16     -11.382   5.885  -4.240  1.00 42.59 LIG 0.04  C 
BRANCH 46 47
ATOM     47  CG  ARG C  16      -9.896   6.216  -4.148  1.00 54.51 LIG 0.02  C 
BRANCH 47 48
ATOM     48  CD  ARG C  16      -9.567   7.030  -2.912  1.00 71.70 LIG 0.14  C 
BRANCH 48 49
ATOM     49  NE  ARG C  16     -10.782   7.444  -2.202  1.00 86.72 LIG-0.23  N 
ATOM     50 HE   ARG C  16     -11.273   6.826  -1.861  1.00 86.72 LIG 0.18  HD
ATOM     51  CZ  ARG C  16     -11.180   8.704  -2.047  1.00 98.48 LIG 0.67  C 
ATOM     52  NH2 ARG C  16     -12.303   8.977  -1.395  1.00 86.10 LIG-0.23  N 
ATOM     53  NH1 ARG C  16     -10.464   9.701  -2.552  1.00 81.98 LIG-0.23  N 
ATOM     54 2HH2 ARG C  16     -12.556   9.793  -1.298  1.00 86.10 LIG 0.17  HD
ATOM     55 1HH2 ARG C  16     -12.778   8.338  -1.069  1.00 86.10 LIG 0.17  HD
ATOM     56 1HH1 ARG C  16      -9.738   9.534  -2.982  1.00 81.98 LIG 0.17  HD
ATOM     57 2HH1 ARG C  16     -10.726  10.513  -2.449  1.00 81.98 LIG 0.17  HD
ENDBRANCH 48 49
ENDBRANCH 47 48
ENDBRANCH 46 47
ENDBRANCH 45 46
BRANCH 45 58
ATOM     58  N   ARG C  16     -13.664   6.612  -4.858  1.00 40.87 LIG-0.35  N 
ATOM     59  C   PRO C  15     -14.694   7.482  -4.974  1.00 47.02 LIG 0.25  C 
ATOM     60 O    PRO C  15     -14.541   8.699  -5.088  1.00 46.36 LIG-0.27  OA
ATOM     61 H    ARG C  16     -13.787   5.767  -4.754  1.00 40.87 LIG 0.16  HD
BRANCH 59 62
ATOM     62  CA  PRO C  15     -16.104   6.890  -5.002  1.00 46.56 LIG 0.35  C 
ATOM     63  N   PRO C  15     -17.059   7.612  -4.149  1.00 47.38 LIG 0.32  N 
ATOM     64  CD  PRO C  15     -18.140   8.227  -4.943  1.00 49.28 LIG 0.32  C 
ATOM     65  CG  PRO C  15     -18.143   7.411  -6.199  1.00 53.38 LIG 0.04  C 
ATOM     66  CB  PRO C  15     -16.719   7.009  -6.407  1.00 48.49 LIG 0.05  C 
ENDBRANCH 59 62
ENDBRANCH 45 58
ENDBRANCH 43 45
ENDBRANCH 1 38
TORSDOF 18
ENDMDL
MODEL 41
USER: ADFR SOLUTION from run 53
USER: SCORE 22.166512 LL:  -4.330 LR: -18.549 RR:   0.000 FEB: -13.179
USER: RMSD 13.100524
USER: SEED 52
USER: STATUS no improvement in best in 15 clusters for 5 generations
USER: GENES 20
USER: genes 0 Translation |==|  0.44302 0.45227 0.49218
USER: genes 1 Rotation |==|  0.02287 0.62162 0.57793 0.53851
USER: genes 2 Torsion [C]-N--CA-[CB] |==|  0.54548
USER: genes 3 Torsion [N]-CA--C-[N] |==|  0.46900
USER: genes 4 Torsion [N]-CA--C-[O] |==|  0.80762
USER: genes 5 Torsion [C]-N--CA-[C] |==|  0.10050
USER: genes 6 Torsion [N]-CA--C-[N] |==|  0.15755
USER: genes 7 Torsion [N]-CA--C-[O] |==|  0.77443
USER: genes 8 Torsion [N]-CA--CB-[CG] |==|  0.00432
USER: genes 9 Torsion [CA]-CB--CG-[CD1] |==|  0.84879
USER: genes 10 Torsion [N]-CA--CB-[CG] |==|  0.60809
USER: genes 11 Torsion [CA]-CB--CG-[CD2] |==|  0.43866
USER: genes 12 Torsion [O]-C--CA-[CB] |==|  0.32510
USER: genes 13 Torsion [N]-C--CA-[N] |==|  0.41520
USER: genes 14 Torsion [C]-CA--CB-[CG] |==|  0.32144
USER: genes 15 Torsion [CA]-CB--CG-[CD] |==|  0.11966
USER: genes 16 Torsion [CB]-CG--CD-[NE] |==|  0.35826
USER: genes 17 Torsion [CG]-CD--NE-[HE] |==|  0.14903
USER: genes 18 Torsion [C]-CA--N-[C] |==|  0.83889
USER: genes 19 Torsion [N]-C--CA-[CB] |==|  0.67207
ROOT
ATOM      1  C   PRO C  17     -12.639   8.493 -10.576  1.00 34.10 LIG 0.24  C 
ATOM      2 O    PRO C  17     -13.865   8.564 -10.531  1.00 31.91 LIG-0.27  OA
ATOM      3  N   LEU C  18     -11.956   7.549  -9.957  1.00 30.88 LIG-0.35  N 
ATOM      4 H    LEU C  18     -11.097   7.527  -9.939  1.00 30.88 LIG 0.16  HD
ENDROOT
BRANCH 3 5
ATOM      5  CA  LEU C  18     -12.581   6.446  -9.240  1.00 30.78 LIG 0.18  C 
BRANCH 5 6
ATOM      6  C   LEU C  18     -13.781   6.863  -8.407  1.00 33.73 LIG 0.24  C 
ATOM      7  N   PRO C  19     -14.567   5.882  -7.891  1.00 33.17 LIG-0.34  N 
ATOM      8  CA  PRO C  19     -15.708   6.237  -7.021  1.00 33.85 LIG 0.18  C 
ATOM      9  CD  PRO C  19     -14.466   4.415  -8.094  1.00 35.22 LIG 0.13  C 
ATOM     10  CB  PRO C  19     -16.507   4.933  -6.918  1.00 35.69 LIG 0.04  C 
ATOM     11  CG  PRO C  19     -15.551   3.849  -7.232  1.00 39.92 LIG 0.02  C 
ATOM     12 O    LEU C  18     -13.939   8.058  -8.150  1.00 31.40 LIG-0.27  OA
BRANCH 8 13
ATOM     13  C   PRO C  19     -15.312   6.803  -5.649  1.00 39.47 LIG 0.24  C 
ATOM     14  N   PHE C  20     -15.538   8.105  -5.463  1.00 41.20 LIG-0.35  N 
ATOM     15 H    PHE C  20     -15.891   8.602  -6.070  1.00 41.20 LIG 0.16  HD
ATOM     16 O    PRO C  19     -14.786   6.095  -4.797  1.00 36.20 LIG-0.27  OA
BRANCH 14 17
ATOM     17  CA  PHE C  20     -15.225   8.838  -4.237  1.00 43.59 LIG 0.18  C 
BRANCH 17 18
ATOM     18  C   PHE C  20     -13.919   8.290  -3.633  1.00 48.54 LIG 0.24  C 
ATOM     19  N   PRO C  21     -12.780   8.278  -4.374  1.00 46.41 LIG-0.34  N 
ATOM     20  CA  PRO C  21     -11.509   7.801  -3.777  1.00 51.72 LIG 0.17  C 
ATOM     21  CD  PRO C  21     -12.583   8.673  -5.783  1.00 49.19 LIG 0.13  C 
ATOM     22  CB  PRO C  21     -10.488   7.971  -4.914  1.00 52.56 LIG 0.04  C 
ATOM     23  CG  PRO C  21     -11.284   8.023  -6.154  1.00 54.82 LIG 0.02  C 
ATOM     24 O    PHE C  20     -13.940   7.896  -2.465  1.00 48.67 LIG-0.27  OA
BRANCH 20 25
ATOM     25  C   PRO C  21     -11.067   8.589  -2.543  1.00 87.57 LIG 0.22  C 
ATOM     26 O    PRO C  21     -10.483   9.663  -2.676  1.00 58.80 LIG-0.29  OA
ENDBRANCH 20 25
ENDBRANCH 17 18
BRANCH 17 27
ATOM     27  CB  PHE C  20     -16.407   8.697  -3.244  1.00 46.79 LIG 0.07  C 
BRANCH 27 28
ATOM     28  CG  PHE C  20     -17.584   7.846  -3.677  1.00 50.46 LIG-0.06  A 
ATOM     29  CD2 PHE C  20     -18.001   6.761  -2.910  1.00 54.33 LIG 0.01  A 
ATOM     30  CE2 PHE C  20     -19.091   5.976  -3.312  1.00 57.68 LIG 0.00  A 
ATOM     31  CZ  PHE C  20     -19.748   6.259  -4.495  1.00 55.81 LIG 0.00  A 
ATOM     32  CE1 PHE C  20     -19.339   7.320  -5.274  1.00 56.05 LIG 0.00  A 
ATOM     33  CD1 PHE C  20     -18.244   8.098  -4.877  1.00 54.84 LIG 0.01  A 
ENDBRANCH 27 28
ENDBRANCH 17 27
ENDBRANCH 14 17
ENDBRANCH 8 13
ENDBRANCH 5 6
BRANCH 5 34
ATOM     34  CB  LEU C  18     -11.546   5.796  -8.325  1.00 31.46 LIG 0.04  C 
BRANCH 34 35
ATOM     35  CG  LEU C  18     -11.596   4.294  -8.220  1.00 36.62 LIG-0.02  C 
ATOM     36  CD2 LEU C  18     -10.250   3.759  -7.758  1.00 38.91 LIG 0.01  C 
ATOM     37  CD1 LEU C  18     -11.988   3.689  -9.572  1.00 36.98 LIG 0.01  C 
ENDBRANCH 34 35
ENDBRANCH 5 34
ENDBRANCH 3 5
BRANCH 1 38
ATOM     38  CA  PRO C  17     -11.796   9.543 -11.287  1.00 33.71 LIG 0.18  C 
ATOM     39  CB  PRO C  17     -10.857  10.293 -10.337  1.00 36.04 LIG 0.04  C 
ATOM     40  CG  PRO C  17     -11.403  11.700 -10.223  1.00 41.66 LIG 0.02  C 
ATOM     41  CD  PRO C  17     -12.637  11.811 -11.067  1.00 37.74 LIG 0.13  C 
ATOM     42  N   PRO C  17     -12.561  10.614 -11.933  1.00 35.06 LIG-0.34  N 
ATOM     43  C   ARG C  16     -13.049  10.413 -13.172  1.00 37.80 LIG 0.24  C 
ATOM     44 O    ARG C  16     -12.862   9.344 -13.747  1.00 34.25 LIG-0.27  OA
BRANCH 43 45
ATOM     45  CA  ARG C  16     -13.821  11.535 -13.892  1.00 39.10 LIG 0.18  C 
BRANCH 45 46
ATOM     46  CB  ARG C  16     -15.319  11.450 -13.547  1.00 42.59 LIG 0.04  C 
BRANCH 46 47
ATOM     47  CG  ARG C  16     -15.864  12.646 -12.774  1.00 54.51 LIG 0.02  C 
BRANCH 47 48
ATOM     48  CD  ARG C  16     -15.354  13.963 -13.325  1.00 71.70 LIG 0.14  C 
BRANCH 48 49
ATOM     49  NE  ARG C  16     -16.453  14.900 -13.582  1.00 86.72 LIG-0.23  N 
ATOM     50 HE   ARG C  16     -16.995  15.064 -12.935  1.00 86.72 LIG 0.18  HD
ATOM     51  CZ  ARG C  16     -16.673  15.514 -14.742  1.00 98.48 LIG 0.67  C 
ATOM     52  NH2 ARG C  16     -17.703  16.339 -14.879  1.00 86.10 LIG-0.23  N 
ATOM     53  NH1 ARG C  16     -15.870  15.300 -15.777  1.00 81.98 LIG-0.23  N 
ATOM     54 2HH2 ARG C  16     -17.841  16.734 -15.630  1.00 86.10 LIG 0.17  HD
ATOM     55 1HH2 ARG C  16     -18.232  16.480 -14.216  1.00 86.10 LIG 0.17  HD
ATOM     56 1HH1 ARG C  16     -15.204  14.762 -15.700  1.00 81.98 LIG 0.17  HD
ATOM     57 2HH1 ARG C  16     -16.017  15.699 -16.524  1.00 81.98 LIG 0.17  HD
ENDBRANCH 48 49
ENDBRANCH 47 48
ENDBRANCH 46 47
ENDBRANCH 45 46
BRANCH 45 58
ATOM     58  N   ARG C  16     -13.615  11.416 -15.340  1.00 40.87 LIG-0.35  N 
ATOM     59  C   PRO C  15     -12.410  11.441 -15.955  1.00 47.02 LIG 0.25  C 
ATOM     60 O    PRO C  15     -11.347  11.602 -15.354  1.00 46.36 LIG-0.27  OA
ATOM     61 H    ARG C  16     -14.351  11.327 -15.775  1.00 40.87 LIG 0.16  HD
BRANCH 59 62
ATOM     62  CA  PRO C  15     -12.398  11.212 -17.468  1.00 46.56 LIG 0.35  C 
ATOM     63  N   PRO C  15     -11.707  12.274 -18.214  1.00 47.38 LIG 0.32  N 
ATOM     64  CD  PRO C  15     -10.511  11.760 -18.909  1.00 49.28 LIG 0.32  C 
ATOM     65  CG  PRO C  15     -10.797  10.295 -19.036  1.00 53.38 LIG 0.04  C 
ATOM     66  CB  PRO C  15     -11.598   9.947 -17.823  1.00 48.49 LIG 0.05  C 
ENDBRANCH 59 62
ENDBRANCH 45 58
ENDBRANCH 43 45
ENDBRANCH 1 38
TORSDOF 18
ENDMDL
MODEL 42
USER: ADFR SOLUTION from run 127
USER: SCORE 23.347827 LL:  -5.016 LR: -18.555 RR:   0.000 FEB: -13.185
USER: RMSD 12.973885
USER: SEED 126
USER: STATUS no improvement in best in 15 clusters for 5 generations
USER: GENES 20
USER: genes 0 Translation |==|  0.47612 0.47903 0.52013
USER: genes 1 Rotation |==|  0.84095 0.72620 0.75499 0.63254
USER: genes 2 Torsion [C]-N--CA-[CB] |==|  0.85739
USER: genes 3 Torsion [N]-CA--C-[N] |==|  0.35606
USER: genes 4 Torsion [N]-CA--C-[O] |==|  0.70969
USER: genes 5 Torsion [C]-N--CA-[C] |==|  0.80764
USER: genes 6 Torsion [N]-CA--C-[N] |==|  0.90248
USER: genes 7 Torsion [N]-CA--C-[O] |==|  0.91068
USER: genes 8 Torsion [N]-CA--CB-[CG] |==|  0.76880
USER: genes 9 Torsion [CA]-CB--CG-[CD1] |==|  0.21511
USER: genes 10 Torsion [N]-CA--CB-[CG] |==|  0.58022
USER: genes 11 Torsion [CA]-CB--CG-[CD2] |==|  0.79597
USER: genes 12 Torsion [O]-C--CA-[CB] |==|  0.56819
USER: genes 13 Torsion [N]-C--CA-[N] |==|  0.08325
USER: genes 14 Torsion [C]-CA--CB-[CG] |==|  0.30216
USER: genes 15 Torsion [CA]-CB--CG-[CD] |==|  0.14679
USER: genes 16 Torsion [CB]-CG--CD-[NE] |==|  0.42552
USER: genes 17 Torsion [CG]-CD--NE-[HE] |==|  0.78931
USER: genes 18 Torsion [C]-CA--N-[C] |==|  0.17778
USER: genes 19 Torsion [N]-C--CA-[CB] |==|  0.21000
ROOT
ATOM      1  C   PRO C  17     -12.043   8.975  -9.675  1.00 34.10 LIG 0.24  C 
ATOM      2 O    PRO C  17     -11.660   7.816  -9.821  1.00 31.91 LIG-0.27  OA
ATOM      3  N   LEU C  18     -12.741   9.367  -8.626  1.00 30.88 LIG-0.35  N 
ATOM      4 H    LEU C  18     -13.059  10.162  -8.546  1.00 30.88 LIG 0.16  HD
ENDROOT
BRANCH 3 5
ATOM      5  CA  LEU C  18     -13.048   8.502  -7.497  1.00 30.78 LIG 0.18  C 
BRANCH 5 6
ATOM      6  C   LEU C  18     -11.839   8.171  -6.638  1.00 33.73 LIG 0.24  C 
ATOM      7  N   PRO C  19     -11.936   8.380  -5.298  1.00 33.17 LIG-0.34  N 
ATOM      8  CA  PRO C  19     -10.809   8.013  -4.414  1.00 33.85 LIG 0.18  C 
ATOM      9  CD  PRO C  19     -13.060   8.979  -4.537  1.00 35.22 LIG 0.13  C 
ATOM     10  CB  PRO C  19     -11.161   8.682  -3.081  1.00 35.69 LIG 0.04  C 
ATOM     11  CG  PRO C  19     -12.624   8.890  -3.107  1.00 39.92 LIG 0.02  C 
ATOM     12 O    LEU C  18     -10.862   7.638  -7.167  1.00 31.40 LIG-0.27  OA
BRANCH 8 13
ATOM     13  C   PRO C  19     -10.571   6.502  -4.279  1.00 39.47 LIG 0.24  C 
ATOM     14  N   PHE C  20     -10.024   5.896  -5.335  1.00 41.20 LIG-0.35  N 
ATOM     15 H    PHE C  20      -9.808   6.323  -6.049  1.00 41.20 LIG 0.16  HD
ATOM     16 O    PRO C  19     -10.904   5.893  -3.267  1.00 36.20 LIG-0.27  OA
BRANCH 14 17
ATOM     17  CA  PHE C  20      -9.725   4.467  -5.413  1.00 43.59 LIG 0.18  C 
BRANCH 17 18
ATOM     18  C   PHE C  20      -8.568   4.132  -4.455  1.00 48.54 LIG 0.24  C 
ATOM     19  N   PRO C  21      -7.565   5.029  -4.260  1.00 46.41 LIG-0.34  N 
ATOM     20  CA  PRO C  21      -6.479   4.732  -3.296  1.00 51.72 LIG 0.17  C 
ATOM     21  CD  PRO C  21      -7.352   6.339  -4.907  1.00 49.19 LIG 0.13  C 
ATOM     22  CB  PRO C  21      -5.587   5.984  -3.358  1.00 52.56 LIG 0.04  C 
ATOM     23  CG  PRO C  21      -5.905   6.630  -4.645  1.00 54.82 LIG 0.02  C 
ATOM     24 O    PHE C  20      -8.599   3.052  -3.860  1.00 48.67 LIG-0.27  OA
BRANCH 20 25
ATOM     25  C   PRO C  21      -6.963   4.495  -1.865  1.00 87.57 LIG 0.22  C 
ATOM     26 O    PRO C  21      -7.955   5.089  -1.446  1.00 58.80 LIG-0.29  OA
ENDBRANCH 20 25
ENDBRANCH 17 18
BRANCH 17 27
ATOM     27  CB  PHE C  20      -9.366   4.102  -6.877  1.00 46.79 LIG 0.07  C 
BRANCH 27 28
ATOM     28  CG  PHE C  20     -10.513   3.835  -7.831  1.00 50.46 LIG-0.06  A 
ATOM     29  CD2 PHE C  20     -10.827   2.536  -8.223  1.00 54.33 LIG 0.01  A 
ATOM     30  CE2 PHE C  20     -11.889   2.291  -9.104  1.00 57.68 LIG 0.00  A 
ATOM     31  CZ  PHE C  20     -12.621   3.346  -9.616  1.00 55.81 LIG 0.00  A 
ATOM     32  CE1 PHE C  20     -12.314   4.640  -9.250  1.00 56.05 LIG 0.00  A 
ATOM     33  CD1 PHE C  20     -11.247   4.885  -8.377  1.00 54.84 LIG 0.01  A 
ENDBRANCH 27 28
ENDBRANCH 17 27
ENDBRANCH 14 17
ENDBRANCH 8 13
ENDBRANCH 5 6
BRANCH 5 34
ATOM     34  CB  LEU C  18     -13.656   7.201  -8.016  1.00 31.46 LIG 0.04  C 
BRANCH 34 35
ATOM     35  CG  LEU C  18     -14.618   6.498  -7.094  1.00 36.62 LIG-0.02  C 
ATOM     36  CD2 LEU C  18     -13.858   5.844  -5.950  1.00 38.91 LIG 0.01  C 
ATOM     37  CD1 LEU C  18     -15.425   5.459  -7.878  1.00 36.98 LIG 0.01  C 
ENDBRANCH 34 35
ENDBRANCH 5 34
ENDBRANCH 3 5
BRANCH 1 38
ATOM     38  CA  PRO C  17     -11.812  10.040 -10.737  1.00 33.71 LIG 0.18  C 
ATOM     39  CB  PRO C  17     -11.803  11.460 -10.161  1.00 36.04 LIG 0.04  C 
ATOM     40  CG  PRO C  17     -13.072  12.126 -10.650  1.00 41.66 LIG 0.02  C 
ATOM     41  CD  PRO C  17     -13.837  11.150 -11.492  1.00 37.74 LIG 0.13  C 
ATOM     42  N   PRO C  17     -12.836  10.100 -11.785  1.00 35.06 LIG-0.34  N 
ATOM     43  C   ARG C  16     -12.740   9.270 -12.840  1.00 37.80 LIG 0.24  C 
ATOM     44 O    ARG C  16     -11.812   8.469 -12.918  1.00 34.25 LIG-0.27  OA
BRANCH 43 45
ATOM     45  CA  ARG C  16     -13.778   9.338 -13.977  1.00 39.10 LIG 0.18  C 
BRANCH 45 46
ATOM     46  CB  ARG C  16     -13.139   8.880 -15.302  1.00 42.59 LIG 0.04  C 
BRANCH 46 47
ATOM     47  CG  ARG C  16     -13.622   7.524 -15.806  1.00 54.51 LIG 0.02  C 
BRANCH 47 48
ATOM     48  CD  ARG C  16     -15.134   7.450 -15.891  1.00 71.70 LIG 0.14  C 
BRANCH 48 49
ATOM     49  NE  ARG C  16     -15.568   6.486 -16.907  1.00 86.72 LIG-0.23  N 
ATOM     50 HE   ARG C  16     -15.505   6.722 -17.732  1.00 86.72 LIG 0.18  HD
ATOM     51  CZ  ARG C  16     -16.052   5.274 -16.647  1.00 98.48 LIG 0.67  C 
ATOM     52  NH2 ARG C  16     -16.427   4.475 -17.638  1.00 86.10 LIG-0.23  N 
ATOM     53  NH1 ARG C  16     -16.172   4.854 -15.394  1.00 81.98 LIG-0.23  N 
ATOM     54 2HH2 ARG C  16     -16.739   3.693 -17.465  1.00 86.10 LIG 0.17  HD
ATOM     55 1HH2 ARG C  16     -16.359   4.740 -18.453  1.00 86.10 LIG 0.17  HD
ATOM     56 1HH1 ARG C  16     -15.937   5.367 -14.744  1.00 81.98 LIG 0.17  HD
ATOM     57 2HH1 ARG C  16     -16.485   4.070 -15.232  1.00 81.98 LIG 0.17  HD
ENDBRANCH 48 49
ENDBRANCH 47 48
ENDBRANCH 46 47
ENDBRANCH 45 46
BRANCH 45 58
ATOM     58  N   ARG C  16     -14.284  10.710 -14.093  1.00 40.87 LIG-0.35  N 
ATOM     59  C   PRO C  15     -13.536  11.784 -14.438  1.00 47.02 LIG 0.25  C 
ATOM     60 O    PRO C  15     -12.326  11.722 -14.660  1.00 46.36 LIG-0.27  OA
ATOM     61 H    ARG C  16     -15.123  10.773 -13.917  1.00 40.87 LIG 0.16  HD
BRANCH 59 62
ATOM     62  CA  PRO C  15     -14.267  13.119 -14.591  1.00 46.56 LIG 0.35  C 
ATOM     63  N   PRO C  15     -15.575  12.998 -15.249  1.00 47.38 LIG 0.32  N 
ATOM     64  CD  PRO C  15     -16.676  13.385 -14.347  1.00 49.28 LIG 0.32  C 
ATOM     65  CG  PRO C  15     -15.996  14.263 -13.342  1.00 53.38 LIG 0.04  C 
ATOM     66  CB  PRO C  15     -14.613  13.713 -13.215  1.00 48.49 LIG 0.05  C 
ENDBRANCH 59 62
ENDBRANCH 45 58
ENDBRANCH 43 45
ENDBRANCH 1 38
TORSDOF 18
ENDMDL
MODEL 43
USER: ADFR SOLUTION from run 195
USER: SCORE 22.654640 LL:  -5.019 LR: -18.539 RR:   0.000 FEB: -13.169
USER: RMSD 12.703812
USER: SEED 194
USER: STATUS no improvement in best in 12 clusters for 5 generations
USER: GENES 20
USER: genes 0 Translation |==|  0.41287 0.63218 0.36356
USER: genes 1 Rotation |==|  0.52550 0.90559 0.77054 0.60796
USER: genes 2 Torsion [C]-N--CA-[CB] |==|  0.52222
USER: genes 3 Torsion [N]-CA--C-[N] |==|  0.30182
USER: genes 4 Torsion [N]-CA--C-[O] |==|  0.03913
USER: genes 5 Torsion [C]-N--CA-[C] |==|  0.70404
USER: genes 6 Torsion [N]-CA--C-[N] |==|  0.33693
USER: genes 7 Torsion [N]-CA--C-[O] |==|  0.32125
USER: genes 8 Torsion [N]-CA--CB-[CG] |==|  0.72313
USER: genes 9 Torsion [CA]-CB--CG-[CD1] |==|  0.54180
USER: genes 10 Torsion [N]-CA--CB-[CG] |==|  0.77649
USER: genes 11 Torsion [CA]-CB--CG-[CD2] |==|  0.35606
USER: genes 12 Torsion [O]-C--CA-[CB] |==|  0.61792
USER: genes 13 Torsion [N]-C--CA-[N] |==|  0.91496
USER: genes 14 Torsion [C]-CA--CB-[CG] |==|  0.23110
USER: genes 15 Torsion [CA]-CB--CG-[CD] |==|  0.73618
USER: genes 16 Torsion [CB]-CG--CD-[NE] |==|  0.93042
USER: genes 17 Torsion [CG]-CD--NE-[HE] |==|  0.84528
USER: genes 18 Torsion [C]-CA--N-[C] |==|  0.79187
USER: genes 19 Torsion [N]-C--CA-[CB] |==|  0.69883
ROOT
ATOM      1  C   PRO C  17     -13.181  11.731 -14.724  1.00 34.10 LIG 0.24  C 
ATOM      2 O    PRO C  17     -12.181  11.862 -14.022  1.00 31.91 LIG-0.27  OA
ATOM      3  N   LEU C  18     -14.342  11.329 -14.243  1.00 30.88 LIG-0.35  N 
ATOM      4 H    LEU C  18     -15.029  11.182 -14.738  1.00 30.88 LIG 0.16  HD
ENDROOT
BRANCH 3 5
ATOM      5  CA  LEU C  18     -14.584  11.091 -12.827  1.00 30.78 LIG 0.18  C 
BRANCH 5 6
ATOM      6  C   LEU C  18     -13.542  10.201 -12.172  1.00 33.73 LIG 0.24  C 
ATOM      7  N   PRO C  19     -12.671  10.776 -11.303  1.00 33.17 LIG-0.34  N 
ATOM      8  CA  PRO C  19     -11.680   9.939 -10.592  1.00 33.85 LIG 0.18  C 
ATOM      9  CD  PRO C  19     -12.533  12.211 -10.948  1.00 35.22 LIG 0.13  C 
ATOM     10  CB  PRO C  19     -10.710  10.958  -9.986  1.00 35.69 LIG 0.04  C 
ATOM     11  CG  PRO C  19     -11.461  12.230  -9.903  1.00 39.92 LIG 0.02  C 
ATOM     12 O    LEU C  18     -13.588   8.985 -12.374  1.00 31.40 LIG-0.27  OA
BRANCH 8 13
ATOM     13  C   PRO C  19     -12.283   8.991  -9.544  1.00 39.47 LIG 0.24  C 
ATOM     14  N   PHE C  20     -11.418   8.409  -8.711  1.00 41.20 LIG-0.35  N 
ATOM     15 H    PHE C  20     -10.571   8.557  -8.750  1.00 41.20 LIG 0.16  HD
ATOM     16 O    PRO C  19     -13.488   8.765  -9.509  1.00 36.20 LIG-0.27  OA
BRANCH 14 17
ATOM     17  CA  PHE C  20     -11.784   7.469  -7.652  1.00 43.59 LIG 0.18  C 
BRANCH 17 18
ATOM     18  C   PHE C  20     -11.657   8.166  -6.285  1.00 48.54 LIG 0.24  C 
ATOM     19  N   PRO C  21     -12.739   8.260  -5.467  1.00 46.41 LIG-0.34  N 
ATOM     20  CA  PRO C  21     -12.606   8.882  -4.127  1.00 51.72 LIG 0.17  C 
ATOM     21  CD  PRO C  21     -14.130   7.830  -5.713  1.00 49.19 LIG 0.13  C 
ATOM     22  CB  PRO C  21     -14.020   8.767  -3.533  1.00 52.56 LIG 0.04  C 
ATOM     23  CG  PRO C  21     -14.919   8.589  -4.689  1.00 54.82 LIG 0.02  C 
ATOM     24 O    PHE C  20     -10.552   8.602  -5.954  1.00 48.67 LIG-0.27  OA
BRANCH 20 25
ATOM     25  C   PRO C  21     -11.590   8.190  -3.217  1.00 87.57 LIG 0.22  C 
ATOM     26 O    PRO C  21     -10.581   8.792  -2.854  1.00 58.80 LIG-0.29  OA
ENDBRANCH 20 25
ENDBRANCH 17 18
BRANCH 17 27
ATOM     27  CB  PHE C  20     -10.863   6.225  -7.736  1.00 46.79 LIG 0.07  C 
BRANCH 27 28
ATOM     28  CG  PHE C  20     -11.421   4.989  -8.414  1.00 50.46 LIG-0.06  A 
ATOM     29  CD2 PHE C  20     -12.593   5.054  -9.163  1.00 54.33 LIG 0.01  A 
ATOM     30  CE2 PHE C  20     -13.107   3.911  -9.790  1.00 57.68 LIG 0.00  A 
ATOM     31  CZ  PHE C  20     -12.464   2.695  -9.648  1.00 55.81 LIG 0.00  A 
ATOM     32  CE1 PHE C  20     -11.310   2.610  -8.898  1.00 56.05 LIG 0.00  A 
ATOM     33  CD1 PHE C  20     -10.802   3.751  -8.264  1.00 54.84 LIG 0.01  A 
ENDBRANCH 27 28
ENDBRANCH 17 27
ENDBRANCH 14 17
ENDBRANCH 8 13
ENDBRANCH 5 6
BRANCH 5 34
ATOM     34  CB  LEU C  18     -15.959  10.450 -12.657  1.00 31.46 LIG 0.04  C 
BRANCH 34 35
ATOM     35  CG  LEU C  18     -17.141  11.384 -12.695  1.00 36.62 LIG-0.02  C 
ATOM     36  CD2 LEU C  18     -18.168  10.883 -13.700  1.00 38.91 LIG 0.01  C 
ATOM     37  CD1 LEU C  18     -16.676  12.799 -13.050  1.00 36.98 LIG 0.01  C 
ENDBRANCH 34 35
ENDBRANCH 5 34
ENDBRANCH 3 5
BRANCH 1 38
ATOM     38  CA  PRO C  17     -13.143  11.946 -16.231  1.00 33.71 LIG 0.18  C 
ATOM     39  CB  PRO C  17     -14.353  12.729 -16.750  1.00 36.04 LIG 0.04  C 
ATOM     40  CG  PRO C  17     -15.194  11.742 -17.533  1.00 41.66 LIG 0.02  C 
ATOM     41  CD  PRO C  17     -14.529  10.400 -17.493  1.00 37.74 LIG 0.13  C 
ATOM     42  N   PRO C  17     -13.160  10.716 -17.030  1.00 35.06 LIG-0.34  N 
ATOM     43  C   ARG C  16     -12.000  10.073 -17.264  1.00 37.80 LIG 0.24  C 
ATOM     44 O    ARG C  16     -10.946  10.508 -16.806  1.00 34.25 LIG-0.27  OA
BRANCH 43 45
ATOM     45  CA  ARG C  16     -11.980   8.802 -18.134  1.00 39.10 LIG 0.18  C 
BRANCH 45 46
ATOM     46  CB  ARG C  16     -11.733   9.177 -19.608  1.00 42.59 LIG 0.04  C 
BRANCH 46 47
ATOM     47  CG  ARG C  16     -10.267   9.376 -19.977  1.00 54.51 LIG 0.02  C 
BRANCH 47 48
ATOM     48  CD  ARG C  16      -9.851  10.832 -19.902  1.00 71.70 LIG 0.14  C 
BRANCH 48 49
ATOM     49  NE  ARG C  16     -10.999  11.728 -20.081  1.00 86.72 LIG-0.23  N 
ATOM     50 HE   ARG C  16     -11.469  11.634 -20.795  1.00 86.72 LIG 0.18  HD
ATOM     51  CZ  ARG C  16     -11.366  12.674 -19.220  1.00 98.48 LIG 0.67  C 
ATOM     52  NH2 ARG C  16     -12.417  13.442 -19.477  1.00 86.10 LIG-0.23  N 
ATOM     53  NH1 ARG C  16     -10.679  12.866 -18.101  1.00 81.98 LIG-0.23  N 
ATOM     54 2HH2 ARG C  16     -12.650  14.052 -18.917  1.00 86.10 LIG 0.17  HD
ATOM     55 1HH2 ARG C  16     -12.865  13.330 -20.202  1.00 86.10 LIG 0.17  HD
ATOM     56 1HH1 ARG C  16      -9.993  12.377 -17.929  1.00 81.98 LIG 0.17  HD
ATOM     57 2HH1 ARG C  16     -10.920  13.478 -17.549  1.00 81.98 LIG 0.17  HD
ENDBRANCH 48 49
ENDBRANCH 47 48
ENDBRANCH 46 47
ENDBRANCH 45 46
BRANCH 45 58
ATOM     58  N   ARG C  16     -13.255   8.091 -17.988  1.00 40.87 LIG-0.35  N 
ATOM     59  C   PRO C  15     -13.615   7.363 -16.905  1.00 47.02 LIG 0.25  C 
ATOM     60 O    PRO C  15     -12.882   7.192 -15.931  1.00 46.36 LIG-0.27  OA
ATOM     61 H    ARG C  16     -13.768   8.181 -18.672  1.00 40.87 LIG 0.16  HD
BRANCH 59 62
ATOM     62  CA  PRO C  15     -15.025   6.769 -16.906  1.00 46.56 LIG 0.35  C 
ATOM     63  N   PRO C  15     -15.071   5.371 -16.453  1.00 47.38 LIG 0.32  N 
ATOM     64  CD  PRO C  15     -15.849   5.227 -15.209  1.00 49.28 LIG 0.32  C 
ATOM     65  CG  PRO C  15     -16.731   6.438 -15.220  1.00 53.38 LIG 0.04  C 
ATOM     66  CB  PRO C  15     -15.926   7.500 -15.897  1.00 48.49 LIG 0.05  C 
ENDBRANCH 59 62
ENDBRANCH 45 58
ENDBRANCH 43 45
ENDBRANCH 1 38
TORSDOF 18
ENDMDL
MODEL 44
USER: ADFR SOLUTION from run 77
USER: SCORE 21.240391 LL:  -4.000 LR: -18.522 RR:   0.000 FEB: -13.152
USER: RMSD 14.400451
USER: SEED 76
USER: STATUS no improvement in best in 16 clusters for 5 generations
USER: GENES 20
USER: genes 0 Translation |==|  0.43458 0.47015 0.49878
USER: genes 1 Rotation |==|  0.99596 0.50687 0.46904 0.55492
USER: genes 2 Torsion [C]-N--CA-[CB] |==|  0.27441
USER: genes 3 Torsion [N]-CA--C-[N] |==|  0.43713
USER: genes 4 Torsion [N]-CA--C-[O] |==|  0.04548
USER: genes 5 Torsion [C]-N--CA-[C] |==|  0.86093
USER: genes 6 Torsion [N]-CA--C-[N] |==|  0.35838
USER: genes 7 Torsion [N]-CA--C-[O] |==|  0.94726
USER: genes 8 Torsion [N]-CA--CB-[CG] |==|  0.66167
USER: genes 9 Torsion [CA]-CB--CG-[CD1] |==|  0.28681
USER: genes 10 Torsion [N]-CA--CB-[CG] |==|  0.68703
USER: genes 11 Torsion [CA]-CB--CG-[CD2] |==|  0.02557
USER: genes 12 Torsion [O]-C--CA-[CB] |==|  0.29287
USER: genes 13 Torsion [N]-C--CA-[N] |==|  0.08188
USER: genes 14 Torsion [C]-CA--CB-[CG] |==|  0.35970
USER: genes 15 Torsion [CA]-CB--CG-[CD] |==|  0.73047
USER: genes 16 Torsion [CB]-CG--CD-[NE] |==|  0.35907
USER: genes 17 Torsion [CG]-CD--NE-[HE] |==|  0.64213
USER: genes 18 Torsion [C]-CA--N-[C] |==|  0.17578
USER: genes 19 Torsion [N]-C--CA-[CB] |==|  0.26456
ROOT
ATOM      1  C   PRO C  17     -12.790   8.815 -10.363  1.00 34.10 LIG 0.24  C 
ATOM      2 O    PRO C  17     -13.863   8.215 -10.396  1.00 31.91 LIG-0.27  OA
ATOM      3  N   LEU C  18     -11.885   8.605  -9.426  1.00 30.88 LIG-0.35  N 
ATOM      4 H    LEU C  18     -11.159   9.061  -9.366  1.00 30.88 LIG 0.16  HD
ENDROOT
BRANCH 3 5
ATOM      5  CA  LEU C  18     -12.018   7.584  -8.397  1.00 30.78 LIG 0.18  C 
BRANCH 5 6
ATOM      6  C   LEU C  18     -11.557   8.040  -7.023  1.00 33.73 LIG 0.24  C 
ATOM      7  N   PRO C  19     -12.049   7.386  -5.939  1.00 33.17 LIG-0.34  N 
ATOM      8  CA  PRO C  19     -11.582   7.751  -4.585  1.00 33.85 LIG 0.18  C 
ATOM      9  CD  PRO C  19     -13.067   6.305  -5.896  1.00 35.22 LIG 0.13  C 
ATOM     10  CB  PRO C  19     -12.573   7.045  -3.654  1.00 35.69 LIG 0.04  C 
ATOM     11  CG  PRO C  19     -13.154   5.940  -4.447  1.00 39.92 LIG 0.02  C 
ATOM     12 O    LEU C  18     -10.688   8.911  -6.947  1.00 31.40 LIG-0.27  OA
BRANCH 8 13
ATOM     13  C   PRO C  19     -10.120   7.378  -4.293  1.00 39.47 LIG 0.24  C 
ATOM     14  N   PHE C  20      -9.749   7.411  -3.012  1.00 41.20 LIG-0.35  N 
ATOM     15 H    PHE C  20     -10.294   7.622  -2.380  1.00 41.20 LIG 0.16  HD
ATOM     16 O    PRO C  19      -9.341   7.102  -5.200  1.00 36.20 LIG-0.27  OA
BRANCH 14 17
ATOM     17  CA  PHE C  20      -8.405   7.101  -2.525  1.00 43.59 LIG 0.18  C 
BRANCH 17 18
ATOM     18  C   PHE C  20      -7.944   5.757  -3.119  1.00 48.54 LIG 0.24  C 
ATOM     19  N   PRO C  21      -6.736   5.665  -3.735  1.00 46.41 LIG-0.34  N 
ATOM     20  CA  PRO C  21      -6.266   4.360  -4.259  1.00 51.72 LIG 0.17  C 
ATOM     21  CD  PRO C  21      -5.747   6.727  -4.004  1.00 49.19 LIG 0.13  C 
ATOM     22  CB  PRO C  21      -4.879   4.681  -4.841  1.00 52.56 LIG 0.04  C 
ATOM     23  CG  PRO C  21      -4.878   6.137  -5.074  1.00 54.82 LIG 0.02  C 
ATOM     24 O    PHE C  20      -8.686   4.780  -2.992  1.00 48.67 LIG-0.27  OA
BRANCH 20 25
ATOM     25  C   PRO C  21      -6.156   3.265  -3.196  1.00 87.57 LIG 0.22  C 
ATOM     26 O    PRO C  21      -6.101   3.568  -2.005  1.00 58.80 LIG-0.29  OA
ENDBRANCH 20 25
ENDBRANCH 17 18
BRANCH 17 27
ATOM     27  CB  PHE C  20      -8.424   7.054  -0.976  1.00 46.79 LIG 0.07  C 
BRANCH 27 28
ATOM     28  CG  PHE C  20      -7.495   7.998  -0.239  1.00 50.46 LIG-0.06  A 
ATOM     29  CD2 PHE C  20      -6.141   7.705  -0.103  1.00 54.33 LIG 0.01  A 
ATOM     30  CE2 PHE C  20      -5.283   8.580   0.578  1.00 57.68 LIG 0.00  A 
ATOM     31  CZ  PHE C  20      -5.784   9.736   1.148  1.00 55.81 LIG 0.00  A 
ATOM     32  CE1 PHE C  20      -7.125  10.034   1.035  1.00 56.05 LIG 0.00  A 
ATOM     33  CD1 PHE C  20      -7.983   9.155   0.363  1.00 54.84 LIG 0.01  A 
ENDBRANCH 27 28
ENDBRANCH 17 27
ENDBRANCH 14 17
ENDBRANCH 8 13
ENDBRANCH 5 6
BRANCH 5 34
ATOM     34  CB  LEU C  18     -11.209   6.356  -8.807  1.00 31.46 LIG 0.04  C 
BRANCH 34 35
ATOM     35  CG  LEU C  18     -11.998   5.115  -9.136  1.00 36.62 LIG-0.02  C 
ATOM     36  CD2 LEU C  18     -13.482   5.443  -9.197  1.00 38.91 LIG 0.01  C 
ATOM     37  CD1 LEU C  18     -11.723   4.030  -8.090  1.00 36.98 LIG 0.01  C 
ENDBRANCH 34 35
ENDBRANCH 5 34
ENDBRANCH 3 5
BRANCH 1 38
ATOM     38  CA  PRO C  17     -12.450   9.914 -11.360  1.00 33.71 LIG 0.18  C 
ATOM     39  CB  PRO C  17     -12.527  11.316 -10.747  1.00 36.04 LIG 0.04  C 
ATOM     40  CG  PRO C  17     -13.739  11.984 -11.363  1.00 41.66 LIG 0.02  C 
ATOM     41  CD  PRO C  17     -14.387  11.026 -12.317  1.00 37.74 LIG 0.13  C 
ATOM     42  N   PRO C  17     -13.345   9.995 -12.519  1.00 35.06 LIG-0.34  N 
ATOM     43  C   ARG C  16     -13.115   9.198 -13.579  1.00 37.80 LIG 0.24  C 
ATOM     44 O    ARG C  16     -12.173   8.409 -13.570  1.00 34.25 LIG-0.27  OA
BRANCH 43 45
ATOM     45  CA  ARG C  16     -14.013   9.290 -14.828  1.00 39.10 LIG 0.18  C 
BRANCH 45 46
ATOM     46  CB  ARG C  16     -13.214   8.890 -16.082  1.00 42.59 LIG 0.04  C 
BRANCH 46 47
ATOM     47  CG  ARG C  16     -13.892   7.845 -16.963  1.00 54.51 LIG 0.02  C 
BRANCH 47 48
ATOM     48  CD  ARG C  16     -13.387   6.444 -16.679  1.00 71.70 LIG 0.14  C 
BRANCH 48 49
ATOM     49  NE  ARG C  16     -14.495   5.509 -16.453  1.00 86.72 LIG-0.23  N 
ATOM     50 HE   ARG C  16     -14.468   5.023 -15.744  1.00 86.72 LIG 0.18  HD
ATOM     51  CZ  ARG C  16     -15.538   5.358 -17.266  1.00 98.48 LIG 0.67  C 
ATOM     52  NH2 ARG C  16     -16.488   4.477 -16.979  1.00 86.10 LIG-0.23  N 
ATOM     53  NH1 ARG C  16     -15.635   6.080 -18.375  1.00 81.98 LIG-0.23  N 
ATOM     54 2HH2 ARG C  16     -17.160   4.383 -17.507  1.00 86.10 LIG 0.17  HD
ATOM     55 1HH2 ARG C  16     -16.432   4.000 -16.266  1.00 86.10 LIG 0.17  HD
ATOM     56 1HH1 ARG C  16     -15.021   6.649 -18.573  1.00 81.98 LIG 0.17  HD
ATOM     57 2HH1 ARG C  16     -16.311   5.978 -18.896  1.00 81.98 LIG 0.17  HD
ENDBRANCH 48 49
ENDBRANCH 47 48
ENDBRANCH 46 47
ENDBRANCH 45 46
BRANCH 45 58
ATOM     58  N   ARG C  16     -14.529  10.657 -14.957  1.00 40.87 LIG-0.35  N 
ATOM     59  C   PRO C  15     -13.766  11.756 -15.161  1.00 47.02 LIG 0.25  C 
ATOM     60 O    PRO C  15     -12.537  11.723 -15.226  1.00 46.36 LIG-0.27  OA
ATOM     61 H    ARG C  16     -15.385  10.699 -14.889  1.00 40.87 LIG 0.16  HD
BRANCH 59 62
ATOM     62  CA  PRO C  15     -14.500  13.085 -15.357  1.00 46.56 LIG 0.35  C 
ATOM     63  N   PRO C  15     -15.902  12.924 -15.768  1.00 47.38 LIG 0.32  N 
ATOM     64  CD  PRO C  15     -16.831  13.451 -14.752  1.00 49.28 LIG 0.32  C 
ATOM     65  CG  PRO C  15     -15.983  14.425 -13.992  1.00 53.38 LIG 0.04  C 
ATOM     66  CB  PRO C  15     -14.603  13.852 -14.028  1.00 48.49 LIG 0.05  C 
ENDBRANCH 59 62
ENDBRANCH 45 58
ENDBRANCH 43 45
ENDBRANCH 1 38
TORSDOF 18
ENDMDL
MODEL 45
USER: ADFR SOLUTION from run 77
USER: SCORE 21.346129 LL:  -4.892 LR: -18.490 RR:   0.000 FEB: -13.120
USER: RMSD 13.549200
USER: SEED 76
USER: STATUS no improvement in best in 16 clusters for 5 generations
USER: GENES 20
USER: genes 0 Translation |==|  0.45249 0.50300 0.51135
USER: genes 1 Rotation |==|  0.99143 0.43044 0.46701 0.55065
USER: genes 2 Torsion [C]-N--CA-[CB] |==|  0.26096
USER: genes 3 Torsion [N]-CA--C-[N] |==|  0.37032
USER: genes 4 Torsion [N]-CA--C-[O] |==|  0.83374
USER: genes 5 Torsion [C]-N--CA-[C] |==|  0.59490
USER: genes 6 Torsion [N]-CA--C-[N] |==|  0.14878
USER: genes 7 Torsion [N]-CA--C-[O] |==|  0.92075
USER: genes 8 Torsion [N]-CA--CB-[CG] |==|  0.77962
USER: genes 9 Torsion [CA]-CB--CG-[CD1] |==|  0.25181
USER: genes 10 Torsion [N]-CA--CB-[CG] |==|  0.72613
USER: genes 11 Torsion [CA]-CB--CG-[CD2] |==|  0.86723
USER: genes 12 Torsion [O]-C--CA-[CB] |==|  0.31444
USER: genes 13 Torsion [N]-C--CA-[N] |==|  0.83334
USER: genes 14 Torsion [C]-CA--CB-[CG] |==|  0.53052
USER: genes 15 Torsion [CA]-CB--CG-[CD] |==|  0.23778
USER: genes 16 Torsion [CB]-CG--CD-[NE] |==|  0.07416
USER: genes 17 Torsion [CG]-CD--NE-[HE] |==|  0.03343
USER: genes 18 Torsion [C]-CA--N-[C] |==|  0.79548
USER: genes 19 Torsion [N]-C--CA-[CB] |==|  0.35611
ROOT
ATOM      1  C   PRO C  17     -12.468   9.406  -9.958  1.00 34.10 LIG 0.24  C 
ATOM      2 O    PRO C  17     -13.671   9.157 -10.017  1.00 31.91 LIG-0.27  OA
ATOM      3  N   LEU C  18     -11.690   8.941  -8.998  1.00 30.88 LIG-0.35  N 
ATOM      4 H    LEU C  18     -10.862   9.157  -8.921  1.00 30.88 LIG 0.16  HD
ENDROOT
BRANCH 3 5
ATOM      5  CA  LEU C  18     -12.148   8.015  -7.973  1.00 30.78 LIG 0.18  C 
BRANCH 5 6
ATOM      6  C   LEU C  18     -11.514   8.250  -6.613  1.00 33.73 LIG 0.24  C 
ATOM      7  N   PRO C  19     -12.330   8.270  -5.526  1.00 33.17 LIG-0.34  N 
ATOM      8  CA  PRO C  19     -11.751   8.431  -4.175  1.00 33.85 LIG 0.18  C 
ATOM      9  CD  PRO C  19     -13.810   8.171  -5.482  1.00 35.22 LIG 0.13  C 
ATOM     10  CB  PRO C  19     -12.967   8.724  -3.291  1.00 35.69 LIG 0.04  C 
ATOM     11  CG  PRO C  19     -14.136   8.186  -4.021  1.00 39.92 LIG 0.02  C 
ATOM     12 O    LEU C  18     -10.285   8.314  -6.533  1.00 31.40 LIG-0.27  OA
BRANCH 8 13
ATOM     13  C   PRO C  19     -10.933   7.227  -3.685  1.00 39.47 LIG 0.24  C 
ATOM     14  N   PHE C  20      -9.643   7.456  -3.433  1.00 41.20 LIG-0.35  N 
ATOM     15 H    PHE C  20      -9.285   8.232  -3.531  1.00 41.20 LIG 0.16  HD
ATOM     16 O    PRO C  19     -11.442   6.116  -3.571  1.00 36.20 LIG-0.27  OA
BRANCH 14 17
ATOM     17  CA  PHE C  20      -8.692   6.446  -2.969  1.00 43.59 LIG 0.18  C 
BRANCH 17 18
ATOM     18  C   PHE C  20      -7.671   7.102  -2.022  1.00 48.54 LIG 0.24  C 
ATOM     19  N   PRO C  21      -8.101   7.818  -0.949  1.00 46.41 LIG-0.34  N 
ATOM     20  CA  PRO C  21      -7.119   8.405  -0.005  1.00 51.72 LIG 0.17  C 
ATOM     21  CD  PRO C  21      -9.482   8.148  -0.545  1.00 49.19 LIG 0.13  C 
ATOM     22  CB  PRO C  21      -7.999   9.093   1.051  1.00 52.56 LIG 0.04  C 
ATOM     23  CG  PRO C  21      -9.308   9.297   0.401  1.00 54.82 LIG 0.02  C 
ATOM     24 O    PHE C  20      -6.471   6.934  -2.253  1.00 48.67 LIG-0.27  OA
BRANCH 20 25
ATOM     25  C   PRO C  21      -6.200   7.376   0.657  1.00 87.57 LIG 0.22  C 
ATOM     26 O    PRO C  21      -6.593   6.224   0.831  1.00 58.80 LIG-0.29  OA
ENDBRANCH 20 25
ENDBRANCH 17 18
BRANCH 17 27
ATOM     27  CB  PHE C  20      -7.991   5.807  -4.195  1.00 46.79 LIG 0.07  C 
BRANCH 27 28
ATOM     28  CG  PHE C  20      -8.756   4.745  -4.961  1.00 50.46 LIG-0.06  A 
ATOM     29  CD2 PHE C  20      -8.622   3.397  -4.637  1.00 54.33 LIG 0.01  A 
ATOM     30  CE2 PHE C  20      -9.331   2.417  -5.345  1.00 57.68 LIG 0.00  A 
ATOM     31  CZ  PHE C  20     -10.154   2.781  -6.395  1.00 55.81 LIG 0.00  A 
ATOM     32  CE1 PHE C  20     -10.287   4.110  -6.738  1.00 56.05 LIG 0.00  A 
ATOM     33  CD1 PHE C  20      -9.571   5.088  -6.036  1.00 54.84 LIG 0.01  A 
ENDBRANCH 27 28
ENDBRANCH 17 27
ENDBRANCH 14 17
ENDBRANCH 8 13
ENDBRANCH 5 6
BRANCH 5 34
ATOM     34  CB  LEU C  18     -11.846   6.587  -8.419  1.00 31.46 LIG 0.04  C 
BRANCH 34 35
ATOM     35  CG  LEU C  18     -12.988   5.823  -9.038  1.00 36.62 LIG-0.02  C 
ATOM     36  CD2 LEU C  18     -14.234   5.963  -8.177  1.00 38.91 LIG 0.01  C 
ATOM     37  CD1 LEU C  18     -12.602   4.351  -9.203  1.00 36.98 LIG 0.01  C 
ENDBRANCH 34 35
ENDBRANCH 5 34
ENDBRANCH 3 5
BRANCH 1 38
ATOM     38  CA  PRO C  17     -11.789  10.344 -10.946  1.00 33.71 LIG 0.18  C 
ATOM     39  CB  PRO C  17     -11.284  11.633 -10.290  1.00 36.04 LIG 0.04  C 
ATOM     40  CG  PRO C  17     -12.179  12.746 -10.795  1.00 41.66 LIG 0.02  C 
ATOM     41  CD  PRO C  17     -13.200  12.162 -11.724  1.00 37.74 LIG 0.13  C 
ATOM     42  N   PRO C  17     -12.650  10.824 -12.032  1.00 35.06 LIG-0.34  N 
ATOM     43  C   ARG C  16     -12.807  10.058 -13.129  1.00 37.80 LIG 0.24  C 
ATOM     44 O    ARG C  16     -12.243   8.969 -13.211  1.00 34.25 LIG-0.27  OA
BRANCH 43 45
ATOM     45  CA  ARG C  16     -13.671  10.554 -14.304  1.00 39.10 LIG 0.18  C 
BRANCH 45 46
ATOM     46  CB  ARG C  16     -13.071  11.846 -14.890  1.00 42.59 LIG 0.04  C 
BRANCH 46 47
ATOM     47  CG  ARG C  16     -13.973  12.575 -15.881  1.00 54.51 LIG 0.02  C 
BRANCH 47 48
ATOM     48  CD  ARG C  16     -14.946  13.509 -15.187  1.00 71.70 LIG 0.14  C 
BRANCH 48 49
ATOM     49  NE  ARG C  16     -14.420  13.971 -13.898  1.00 86.72 LIG-0.23  N 
ATOM     50 HE   ARG C  16     -13.591  13.820 -13.730  1.00 86.72 LIG 0.18  HD
ATOM     51  CZ  ARG C  16     -15.132  14.608 -12.972  1.00 98.48 LIG 0.67  C 
ATOM     52  NH2 ARG C  16     -14.567  14.979 -11.830  1.00 86.10 LIG-0.23  N 
ATOM     53  NH1 ARG C  16     -16.417  14.870 -13.176  1.00 81.98 LIG-0.23  N 
ATOM     54 2HH2 ARG C  16     -15.031  15.390 -11.234  1.00 86.10 LIG 0.17  HD
ATOM     55 1HH2 ARG C  16     -13.736  14.809 -11.686  1.00 86.10 LIG 0.17  HD
ATOM     56 1HH1 ARG C  16     -16.794  14.628 -13.910  1.00 81.98 LIG 0.17  HD
ATOM     57 2HH1 ARG C  16     -16.872  15.281 -12.574  1.00 81.98 LIG 0.17  HD
ENDBRANCH 48 49
ENDBRANCH 47 48
ENDBRANCH 46 47
ENDBRANCH 45 46
BRANCH 45 58
ATOM     58  N   ARG C  16     -15.042  10.786 -13.836  1.00 40.87 LIG-0.35  N 
ATOM     59  C   PRO C  15     -15.934   9.812 -13.541  1.00 47.02 LIG 0.25  C 
ATOM     60 O    PRO C  15     -15.692   8.612 -13.669  1.00 46.36 LIG-0.27  OA
ATOM     61 H    ARG C  16     -15.234  11.621 -13.764  1.00 40.87 LIG 0.16  HD
BRANCH 59 62
ATOM     62  CA  PRO C  15     -17.288  10.256 -12.983  1.00 46.56 LIG 0.35  C 
ATOM     63  N   PRO C  15     -17.531  11.700 -13.116  1.00 47.38 LIG 0.32  N 
ATOM     64  CD  PRO C  15     -18.677  11.980 -14.001  1.00 49.28 LIG 0.32  C 
ATOM     65  CG  PRO C  15     -19.461  10.704 -13.951  1.00 53.38 LIG 0.04  C 
ATOM     66  CB  PRO C  15     -18.441   9.625 -13.781  1.00 48.49 LIG 0.05  C 
ENDBRANCH 59 62
ENDBRANCH 45 58
ENDBRANCH 43 45
ENDBRANCH 1 38
TORSDOF 18
ENDMDL
MODEL 46
USER: ADFR SOLUTION from run 195
USER: SCORE 22.311594 LL:  -4.395 LR: -18.481 RR:   0.000 FEB: -13.111
USER: RMSD 12.784997
USER: SEED 194
USER: STATUS no improvement in best in 12 clusters for 5 generations
USER: GENES 20
USER: genes 0 Translation |==|  0.43947 0.63569 0.34439
USER: genes 1 Rotation |==|  0.64353 0.92113 0.68788 0.62940
USER: genes 2 Torsion [C]-N--CA-[CB] |==|  0.53960
USER: genes 3 Torsion [N]-CA--C-[N] |==|  0.41086
USER: genes 4 Torsion [N]-CA--C-[O] |==|  0.01623
USER: genes 5 Torsion [C]-N--CA-[C] |==|  0.80436
USER: genes 6 Torsion [N]-CA--C-[N] |==|  0.39372
USER: genes 7 Torsion [N]-CA--C-[O] |==|  0.34780
USER: genes 8 Torsion [N]-CA--CB-[CG] |==|  0.66340
USER: genes 9 Torsion [CA]-CB--CG-[CD1] |==|  0.51268
USER: genes 10 Torsion [N]-CA--CB-[CG] |==|  0.79626
USER: genes 11 Torsion [CA]-CB--CG-[CD2] |==|  0.24499
USER: genes 12 Torsion [O]-C--CA-[CB] |==|  0.55942
USER: genes 13 Torsion [N]-C--CA-[N] |==|  0.94287
USER: genes 14 Torsion [C]-CA--CB-[CG] |==|  0.37270
USER: genes 15 Torsion [CA]-CB--CG-[CD] |==|  0.83465
USER: genes 16 Torsion [CB]-CG--CD-[NE] |==|  0.86479
USER: genes 17 Torsion [CG]-CD--NE-[HE] |==|  0.17590
USER: genes 18 Torsion [C]-CA--N-[C] |==|  0.70855
USER: genes 19 Torsion [N]-C--CA-[CB] |==|  0.67584
ROOT
ATOM      1  C   PRO C  17     -12.703  11.794 -15.342  1.00 34.10 LIG 0.24  C 
ATOM      2 O    PRO C  17     -11.609  11.507 -14.860  1.00 31.91 LIG-0.27  OA
ATOM      3  N   LEU C  18     -13.751  12.097 -14.600  1.00 30.88 LIG-0.35  N 
ATOM      4 H    LEU C  18     -14.531  12.244 -14.930  1.00 30.88 LIG 0.16  HD
ENDROOT
BRANCH 3 5
ATOM      5  CA  LEU C  18     -13.700  12.215 -13.150  1.00 30.78 LIG 0.18  C 
BRANCH 5 6
ATOM      6  C   LEU C  18     -12.916  11.102 -12.476  1.00 33.73 LIG 0.24  C 
ATOM      7  N   PRO C  19     -12.246  11.401 -11.332  1.00 33.17 LIG-0.34  N 
ATOM      8  CA  PRO C  19     -11.522  10.336 -10.605  1.00 33.85 LIG 0.18  C 
ATOM      9  CD  PRO C  19     -12.100  12.719 -10.665  1.00 35.22 LIG 0.13  C 
ATOM     10  CB  PRO C  19     -10.661  11.105  -9.597  1.00 35.69 LIG 0.04  C 
ATOM     11  CG  PRO C  19     -11.318  12.419  -9.425  1.00 39.92 LIG 0.02  C 
ATOM     12 O    LEU C  18     -12.996   9.959 -12.930  1.00 31.40 LIG-0.27  OA
BRANCH 8 13
ATOM     13  C   PRO C  19     -12.428   9.289  -9.940  1.00 39.47 LIG 0.24  C 
ATOM     14  N   PHE C  20     -11.813   8.360  -9.206  1.00 41.20 LIG-0.35  N 
ATOM     15 H    PHE C  20     -10.959   8.347  -9.102  1.00 41.20 LIG 0.16  HD
ATOM     16 O    PRO C  19     -13.643   9.298 -10.111  1.00 36.20 LIG-0.27  OA
BRANCH 14 17
ATOM     17  CA  PHE C  20     -12.489   7.272  -8.501  1.00 43.59 LIG 0.18  C 
BRANCH 17 18
ATOM     18  C   PHE C  20     -13.277   7.847  -7.309  1.00 48.54 LIG 0.24  C 
ATOM     19  N   PRO C  21     -14.495   7.337  -6.989  1.00 46.41 LIG-0.34  N 
ATOM     20  CA  PRO C  21     -15.231   7.852  -5.810  1.00 51.72 LIG 0.17  C 
ATOM     21  CD  PRO C  21     -15.274   6.290  -7.679  1.00 49.19 LIG 0.13  C 
ATOM     22  CB  PRO C  21     -16.518   7.011  -5.789  1.00 52.56 LIG 0.04  C 
ATOM     23  CG  PRO C  21     -16.667   6.485  -7.160  1.00 54.82 LIG 0.02  C 
ATOM     24 O    PHE C  20     -12.758   8.752  -6.652  1.00 48.67 LIG-0.27  OA
BRANCH 20 25
ATOM     25  C   PRO C  21     -14.475   7.699  -4.489  1.00 87.57 LIG 0.22  C 
ATOM     26 O    PRO C  21     -14.279   8.682  -3.776  1.00 58.80 LIG-0.29  OA
ENDBRANCH 20 25
ENDBRANCH 17 18
BRANCH 17 27
ATOM     27  CB  PHE C  20     -11.435   6.238  -8.030  1.00 46.79 LIG 0.07  C 
BRANCH 27 28
ATOM     28  CG  PHE C  20     -11.584   4.814  -8.530  1.00 50.46 LIG-0.06  A 
ATOM     29  CD2 PHE C  20     -12.604   4.471  -9.413  1.00 54.33 LIG 0.01  A 
ATOM     30  CE2 PHE C  20     -12.739   3.154  -9.874  1.00 57.68 LIG 0.00  A 
ATOM     31  CZ  PHE C  20     -11.870   2.173  -9.433  1.00 55.81 LIG 0.00  A 
ATOM     32  CE1 PHE C  20     -10.863   2.493  -8.547  1.00 56.05 LIG 0.00  A 
ATOM     33  CD1 PHE C  20     -10.734   3.807  -8.079  1.00 54.84 LIG 0.01  A 
ENDBRANCH 27 28
ENDBRANCH 17 27
ENDBRANCH 14 17
ENDBRANCH 8 13
ENDBRANCH 5 6
BRANCH 5 34
ATOM     34  CB  LEU C  18     -15.125  12.219 -12.601  1.00 31.46 LIG 0.04  C 
BRANCH 34 35
ATOM     35  CG  LEU C  18     -15.924  13.477 -12.823  1.00 36.62 LIG-0.02  C 
ATOM     36  CD2 LEU C  18     -16.644  13.406 -14.161  1.00 38.91 LIG 0.01  C 
ATOM     37  CD1 LEU C  18     -15.000  14.698 -12.765  1.00 36.98 LIG 0.01  C 
ENDBRANCH 34 35
ENDBRANCH 5 34
ENDBRANCH 3 5
BRANCH 1 38
ATOM     38  CA  PRO C  17     -12.961  11.745 -16.842  1.00 33.71 LIG 0.18  C 
ATOM     39  CB  PRO C  17     -14.154  12.607 -17.267  1.00 36.04 LIG 0.04  C 
ATOM     40  CG  PRO C  17     -15.252  11.645 -17.671  1.00 41.66 LIG 0.02  C 
ATOM     41  CD  PRO C  17     -14.754  10.242 -17.495  1.00 37.74 LIG 0.13  C 
ATOM     42  N   PRO C  17     -13.290  10.417 -17.368  1.00 35.06 LIG-0.34  N 
ATOM     43  C   ARG C  16     -12.290   9.573 -17.685  1.00 37.80 LIG 0.24  C 
ATOM     44 O    ARG C  16     -11.119   9.911 -17.527  1.00 34.25 LIG-0.27  OA
BRANCH 43 45
ATOM     45  CA  ARG C  16     -12.604   8.187 -18.279  1.00 39.10 LIG 0.18  C 
BRANCH 45 46
ATOM     46  CB  ARG C  16     -12.389   8.206 -19.804  1.00 42.59 LIG 0.04  C 
BRANCH 46 47
ATOM     47  CG  ARG C  16     -11.611   7.014 -20.352  1.00 54.51 LIG 0.02  C 
BRANCH 47 48
ATOM     48  CD  ARG C  16     -10.225   6.908 -19.745  1.00 71.70 LIG 0.14  C 
BRANCH 48 49
ATOM     49  NE  ARG C  16      -9.522   8.194 -19.784  1.00 86.72 LIG-0.23  N 
ATOM     50 HE   ARG C  16      -9.858   8.846 -19.334  1.00 86.72 LIG 0.18  HD
ATOM     51  CZ  ARG C  16      -8.402   8.427 -20.464  1.00 98.48 LIG 0.67  C 
ATOM     52  NH2 ARG C  16      -7.844   9.631 -20.444  1.00 86.10 LIG-0.23  N 
ATOM     53  NH1 ARG C  16      -7.836   7.461 -21.176  1.00 81.98 LIG-0.23  N 
ATOM     54 2HH2 ARG C  16      -7.120   9.777 -20.885  1.00 86.10 LIG 0.17  HD
ATOM     55 1HH2 ARG C  16      -8.206  10.266 -19.990  1.00 86.10 LIG 0.17  HD
ATOM     56 1HH1 ARG C  16      -8.193   6.679 -21.201  1.00 81.98 LIG 0.17  HD
ATOM     57 2HH1 ARG C  16      -7.112   7.617 -21.613  1.00 81.98 LIG 0.17  HD
ENDBRANCH 48 49
ENDBRANCH 47 48
ENDBRANCH 46 47
ENDBRANCH 45 46
BRANCH 45 58
ATOM     58  N   ARG C  16     -13.987   7.821 -17.957  1.00 40.87 LIG-0.35  N 
ATOM     59  C   PRO C  15     -14.350   6.915 -17.018  1.00 47.02 LIG 0.25  C 
ATOM     60 O    PRO C  15     -13.540   6.271 -16.351  1.00 46.36 LIG-0.27  OA
ATOM     61 H    ARG C  16     -14.565   8.245 -18.432  1.00 40.87 LIG 0.16  HD
BRANCH 59 62
ATOM     62  CA  PRO C  15     -15.849   6.736 -16.768  1.00 46.56 LIG 0.35  C 
ATOM     63  N   PRO C  15     -16.293   5.337 -16.851  1.00 47.38 LIG 0.32  N 
ATOM     64  CD  PRO C  15     -16.808   4.852 -15.557  1.00 49.28 LIG 0.32  C 
ATOM     65  CG  PRO C  15     -17.190   6.116 -14.850  1.00 53.38 LIG 0.04  C 
ATOM     66  CB  PRO C  15     -16.215   7.142 -15.330  1.00 48.49 LIG 0.05  C 
ENDBRANCH 59 62
ENDBRANCH 45 58
ENDBRANCH 43 45
ENDBRANCH 1 38
TORSDOF 18
ENDMDL
MODEL 47
USER: ADFR SOLUTION from run 180
USER: SCORE 21.446452 LL:  -4.588 LR: -18.468 RR:   0.000 FEB: -13.099
USER: RMSD 12.811537
USER: SEED 179
USER: STATUS no improvement in best in 20 clusters for 5 generations
USER: GENES 20
USER: genes 0 Translation |==|  0.41810 0.65601 0.36639
USER: genes 1 Rotation |==|  0.60474 0.90662 0.74204 0.62291
USER: genes 2 Torsion [C]-N--CA-[CB] |==|  0.55049
USER: genes 3 Torsion [N]-CA--C-[N] |==|  0.34723
USER: genes 4 Torsion [N]-CA--C-[O] |==|  0.01912
USER: genes 5 Torsion [C]-N--CA-[C] |==|  0.21224
USER: genes 6 Torsion [N]-CA--C-[N] |==|  0.35668
USER: genes 7 Torsion [N]-CA--C-[O] |==|  0.71966
USER: genes 8 Torsion [N]-CA--CB-[CG] |==|  0.38661
USER: genes 9 Torsion [CA]-CB--CG-[CD1] |==|  0.72908
USER: genes 10 Torsion [N]-CA--CB-[CG] |==|  0.00038
USER: genes 11 Torsion [CA]-CB--CG-[CD2] |==|  0.78013
USER: genes 12 Torsion [O]-C--CA-[CB] |==|  0.55829
USER: genes 13 Torsion [N]-C--CA-[N] |==|  0.45000
USER: genes 14 Torsion [C]-CA--CB-[CG] |==|  0.27229
USER: genes 15 Torsion [CA]-CB--CG-[CD] |==|  0.44768
USER: genes 16 Torsion [CB]-CG--CD-[NE] |==|  0.61558
USER: genes 17 Torsion [CG]-CD--NE-[HE] |==|  0.15052
USER: genes 18 Torsion [C]-CA--N-[C] |==|  0.55951
USER: genes 19 Torsion [N]-C--CA-[CB] |==|  0.69399
ROOT
ATOM      1  C   PRO C  17     -13.087  12.160 -14.633  1.00 34.10 LIG 0.24  C 
ATOM      2 O    PRO C  17     -12.011  11.979 -14.067  1.00 31.91 LIG-0.27  OA
ATOM      3  N   LEU C  18     -14.241  12.143 -13.992  1.00 30.88 LIG-0.35  N 
ATOM      4 H    LEU C  18     -14.999  12.213 -14.391  1.00 30.88 LIG 0.16  HD
ENDROOT
BRANCH 3 5
ATOM      5  CA  LEU C  18     -14.354  12.004 -12.548  1.00 30.78 LIG 0.18  C 
BRANCH 5 6
ATOM      6  C   LEU C  18     -13.378  11.004 -11.953  1.00 33.73 LIG 0.24  C 
ATOM      7  N   PRO C  19     -12.560  11.431 -10.955  1.00 33.17 LIG-0.34  N 
ATOM      8  CA  PRO C  19     -11.639  10.477 -10.302  1.00 33.85 LIG 0.18  C 
ATOM      9  CD  PRO C  19     -12.423  12.799 -10.397  1.00 35.22 LIG 0.13  C 
ATOM     10  CB  PRO C  19     -10.696  11.377  -9.496  1.00 35.69 LIG 0.04  C 
ATOM     11  CG  PRO C  19     -11.427  12.645  -9.289  1.00 39.92 LIG 0.02  C 
ATOM     12 O    LEU C  18     -13.431   9.830 -12.324  1.00 31.40 LIG-0.27  OA
BRANCH 8 13
ATOM     13  C   PRO C  19     -12.331   9.412  -9.438  1.00 39.47 LIG 0.24  C 
ATOM     14  N   PHE C  20     -11.527   8.599  -8.750  1.00 41.20 LIG-0.35  N 
ATOM     15 H    PHE C  20     -10.670   8.666  -8.780  1.00 41.20 LIG 0.16  HD
ATOM     16 O    PRO C  19     -13.553   9.304  -9.419  1.00 36.20 LIG-0.27  OA
BRANCH 14 17
ATOM     17  CA  PHE C  20     -11.984   7.516  -7.880  1.00 43.59 LIG 0.18  C 
BRANCH 17 18
ATOM     18  C   PHE C  20     -12.435   6.323  -8.742  1.00 48.54 LIG 0.24  C 
ATOM     19  N   PRO C  21     -11.945   5.080  -8.493  1.00 46.41 LIG-0.34  N 
ATOM     20  CA  PRO C  21     -12.419   3.921  -9.286  1.00 51.72 LIG 0.17  C 
ATOM     21  CD  PRO C  21     -10.933   4.661  -7.503  1.00 49.19 LIG 0.13  C 
ATOM     22  CB  PRO C  21     -11.654   2.731  -8.683  1.00 52.56 LIG 0.04  C 
ATOM     23  CG  PRO C  21     -10.487   3.319  -8.000  1.00 54.82 LIG 0.02  C 
ATOM     24 O    PHE C  20     -13.264   6.529  -9.632  1.00 48.67 LIG-0.27  OA
BRANCH 20 25
ATOM     25  C   PRO C  21     -13.928   3.682  -9.199  1.00 87.57 LIG 0.22  C 
ATOM     26 O    PRO C  21     -14.368   2.802  -8.462  1.00 58.80 LIG-0.29  OA
ENDBRANCH 20 25
ENDBRANCH 17 18
BRANCH 17 27
ATOM     27  CB  PHE C  20     -13.141   8.034  -6.988  1.00 46.79 LIG 0.07  C 
BRANCH 27 28
ATOM     28  CG  PHE C  20     -14.316   7.104  -6.761  1.00 50.46 LIG-0.06  A 
ATOM     29  CD2 PHE C  20     -14.244   6.080  -5.820  1.00 54.33 LIG 0.01  A 
ATOM     30  CE2 PHE C  20     -15.332   5.222  -5.610  1.00 57.68 LIG 0.00  A 
ATOM     31  CZ  PHE C  20     -16.485   5.370  -6.360  1.00 55.81 LIG 0.00  A 
ATOM     32  CE1 PHE C  20     -16.568   6.369  -7.305  1.00 56.05 LIG 0.00  A 
ATOM     33  CD1 PHE C  20     -15.477   7.221  -7.521  1.00 54.84 LIG 0.01  A 
ENDBRANCH 27 28
ENDBRANCH 17 27
ENDBRANCH 14 17
ENDBRANCH 8 13
ENDBRANCH 5 6
BRANCH 5 34
ATOM     34  CB  LEU C  18     -15.777  11.574 -12.199  1.00 31.46 LIG 0.04  C 
BRANCH 34 35
ATOM     35  CG  LEU C  18     -16.722  11.387 -13.357  1.00 36.62 LIG-0.02  C 
ATOM     36  CD2 LEU C  18     -17.237  12.737 -13.832  1.00 38.91 LIG 0.01  C 
ATOM     37  CD1 LEU C  18     -17.883  10.477 -12.942  1.00 36.98 LIG 0.01  C 
ENDBRANCH 34 35
ENDBRANCH 5 34
ENDBRANCH 3 5
BRANCH 1 38
ATOM     38  CA  PRO C  17     -13.185  12.339 -16.142  1.00 33.71 LIG 0.18  C 
ATOM     39  CB  PRO C  17     -14.476  13.041 -16.574  1.00 36.04 LIG 0.04  C 
ATOM     40  CG  PRO C  17     -15.321  11.991 -17.264  1.00 41.66 LIG 0.02  C 
ATOM     41  CD  PRO C  17     -14.579  10.688 -17.252  1.00 37.74 LIG 0.13  C 
ATOM     42  N   PRO C  17     -13.197  11.091 -16.911  1.00 35.06 LIG-0.34  N 
ATOM     43  C   ARG C  16     -12.025  10.507 -17.228  1.00 37.80 LIG 0.24  C 
ATOM     44 O    ARG C  16     -10.964  11.011 -16.868  1.00 34.25 LIG-0.27  OA
BRANCH 43 45
ATOM     45  CA  ARG C  16     -12.004   9.219 -18.072  1.00 39.10 LIG 0.18  C 
BRANCH 45 46
ATOM     46  CB  ARG C  16     -12.407   8.013 -17.201  1.00 42.59 LIG 0.04  C 
BRANCH 46 47
ATOM     47  CG  ARG C  16     -13.868   7.595 -17.329  1.00 54.51 LIG 0.02  C 
BRANCH 47 48
ATOM     48  CD  ARG C  16     -14.103   6.180 -16.838  1.00 71.70 LIG 0.14  C 
BRANCH 48 49
ATOM     49  NE  ARG C  16     -15.014   5.448 -17.724  1.00 86.72 LIG-0.23  N 
ATOM     50 HE   ARG C  16     -14.814   5.414 -18.560  1.00 86.72 LIG 0.18  HD
ATOM     51  CZ  ARG C  16     -16.127   4.834 -17.330  1.00 98.48 LIG 0.67  C 
ATOM     52  NH2 ARG C  16     -16.893   4.204 -18.212  1.00 86.10 LIG-0.23  N 
ATOM     53  NH1 ARG C  16     -16.487   4.852 -16.053  1.00 81.98 LIG-0.23  N 
ATOM     54 2HH2 ARG C  16     -17.611   3.808 -17.952  1.00 86.10 LIG 0.17  HD
ATOM     55 1HH2 ARG C  16     -16.671   4.191 -19.042  1.00 86.10 LIG 0.17  HD
ATOM     56 1HH1 ARG C  16     -16.001   5.263 -15.474  1.00 81.98 LIG 0.17  HD
ATOM     57 2HH1 ARG C  16     -17.206   4.454 -15.804  1.00 81.98 LIG 0.17  HD
ENDBRANCH 48 49
ENDBRANCH 47 48
ENDBRANCH 46 47
ENDBRANCH 45 46
BRANCH 45 58
ATOM     58  N   ARG C  16     -10.663   9.026 -18.634  1.00 40.87 LIG-0.35  N 
ATOM     59  C   PRO C  15     -10.380   8.269 -19.719  1.00 47.02 LIG 0.25  C 
ATOM     60 O    PRO C  15     -11.231   7.626 -20.336  1.00 46.36 LIG-0.27  OA
ATOM     61 H    ARG C  16     -10.055   9.450 -18.199  1.00 40.87 LIG 0.16  HD
BRANCH 59 62
ATOM     62  CA  PRO C  15      -8.929   8.264 -20.204  1.00 46.56 LIG 0.35  C 
ATOM     63  N   PRO C  15      -8.417   6.920 -20.505  1.00 47.38 LIG 0.32  N 
ATOM     64  CD  PRO C  15      -8.080   6.773 -21.933  1.00 49.28 LIG 0.32  C 
ATOM     65  CG  PRO C  15      -7.863   8.187 -22.377  1.00 53.38 LIG 0.04  C 
ATOM     66  CB  PRO C  15      -8.800   9.004 -21.547  1.00 48.49 LIG 0.05  C 
ENDBRANCH 59 62
ENDBRANCH 45 58
ENDBRANCH 43 45
ENDBRANCH 1 38
TORSDOF 18
ENDMDL
MODEL 48
USER: ADFR SOLUTION from run 98
USER: SCORE 21.636901 LL:  -4.923 LR: -18.468 RR:   0.000 FEB: -13.099
USER: RMSD 5.249962
USER: SEED 97
USER: STATUS no improvement in best in 12 clusters for 5 generations
USER: GENES 20
USER: genes 0 Translation |==|  0.44624 0.41361 0.53239
USER: genes 1 Rotation |==|  0.48535 0.50558 0.60322 0.98898
USER: genes 2 Torsion [C]-N--CA-[CB] |==|  0.25667
USER: genes 3 Torsion [N]-CA--C-[N] |==|  0.33924
USER: genes 4 Torsion [N]-CA--C-[O] |==|  0.20971
USER: genes 5 Torsion [C]-N--CA-[C] |==|  0.64214
USER: genes 6 Torsion [N]-CA--C-[N] |==|  0.19804
USER: genes 7 Torsion [N]-CA--C-[O] |==|  0.71879
USER: genes 8 Torsion [N]-CA--CB-[CG] |==|  0.81448
USER: genes 9 Torsion [CA]-CB--CG-[CD1] |==|  0.73170
USER: genes 10 Torsion [N]-CA--CB-[CG] |==|  0.07997
USER: genes 11 Torsion [CA]-CB--CG-[CD2] |==|  0.63947
USER: genes 12 Torsion [O]-C--CA-[CB] |==|  0.21235
USER: genes 13 Torsion [N]-C--CA-[N] |==|  0.89504
USER: genes 14 Torsion [C]-CA--CB-[CG] |==|  0.07913
USER: genes 15 Torsion [CA]-CB--CG-[CD] |==|  0.38177
USER: genes 16 Torsion [CB]-CG--CD-[NE] |==|  0.35732
USER: genes 17 Torsion [CG]-CD--NE-[HE] |==|  0.80990
USER: genes 18 Torsion [C]-CA--N-[C] |==|  0.77238
USER: genes 19 Torsion [N]-C--CA-[CB] |==|  0.74049
ROOT
ATOM      1  C   PRO C  17     -12.581   7.797  -9.279  1.00 34.10 LIG 0.24  C 
ATOM      2 O    PRO C  17     -13.771   7.872  -8.980  1.00 31.91 LIG-0.27  OA
ATOM      3  N   LEU C  18     -12.059   8.455 -10.297  1.00 30.88 LIG-0.35  N 
ATOM      4 H    LEU C  18     -11.241   8.363 -10.545  1.00 30.88 LIG 0.16  HD
ENDROOT
BRANCH 3 5
ATOM      5  CA  LEU C  18     -12.809   9.405 -11.106  1.00 30.78 LIG 0.18  C 
BRANCH 5 6
ATOM      6  C   LEU C  18     -12.396   9.420 -12.568  1.00 33.73 LIG 0.24  C 
ATOM      7  N   PRO C  19     -13.350   9.160 -13.500  1.00 33.17 LIG-0.34  N 
ATOM      8  CA  PRO C  19     -13.011   9.226 -14.938  1.00 33.85 LIG 0.18  C 
ATOM      9  CD  PRO C  19     -14.767   8.774 -13.287  1.00 35.22 LIG 0.13  C 
ATOM     10  CB  PRO C  19     -14.214   8.573 -15.626  1.00 35.69 LIG 0.04  C 
ATOM     11  CG  PRO C  19     -15.336   8.686 -14.669  1.00 39.92 LIG 0.02  C 
ATOM     12 O    LEU C  18     -11.247   9.760 -12.858  1.00 31.40 LIG-0.27  OA
BRANCH 8 13
ATOM     13  C   PRO C  19     -12.719  10.641 -15.460  1.00 39.47 LIG 0.24  C 
ATOM     14  N   PHE C  20     -13.664  11.192 -16.225  1.00 41.20 LIG-0.35  N 
ATOM     15 H    PHE C  20     -14.399  10.785 -16.413  1.00 41.20 LIG 0.16  HD
ATOM     16 O    PRO C  19     -11.659  11.205 -15.209  1.00 36.20 LIG-0.27  OA
BRANCH 14 17
ATOM     17  CA  PHE C  20     -13.578  12.522 -16.827  1.00 43.59 LIG 0.18  C 
BRANCH 17 18
ATOM     18  C   PHE C  20     -14.853  13.317 -16.493  1.00 48.54 LIG 0.24  C 
ATOM     19  N   PRO C  21     -15.065  13.761 -15.225  1.00 46.41 LIG-0.34  N 
ATOM     20  CA  PRO C  21     -16.265  14.574 -14.913  1.00 51.72 LIG 0.17  C 
ATOM     21  CD  PRO C  21     -14.249  13.541 -14.015  1.00 49.19 LIG 0.13  C 
ATOM     22  CB  PRO C  21     -16.113  14.885 -13.415  1.00 52.56 LIG 0.04  C 
ATOM     23  CG  PRO C  21     -15.190  13.859 -12.892  1.00 54.82 LIG 0.02  C 
ATOM     24 O    PHE C  20     -15.647  13.555 -17.406  1.00 48.67 LIG-0.27  OA
BRANCH 20 25
ATOM     25  C   PRO C  21     -16.365  15.872 -15.717  1.00 87.57 LIG 0.22  C 
ATOM     26 O    PRO C  21     -16.049  16.941 -15.199  1.00 58.80 LIG-0.29  OA
ENDBRANCH 20 25
ENDBRANCH 17 18
BRANCH 17 27
ATOM     27  CB  PHE C  20     -13.393  12.375 -18.359  1.00 46.79 LIG 0.07  C 
BRANCH 27 28
ATOM     28  CG  PHE C  20     -12.093  11.769 -18.849  1.00 50.46 LIG-0.06  A 
ATOM     29  CD2 PHE C  20     -11.908  10.389 -18.859  1.00 54.33 LIG 0.01  A 
ATOM     30  CE2 PHE C  20     -10.705   9.831 -19.314  1.00 57.68 LIG 0.00  A 
ATOM     31  CZ  PHE C  20      -9.676  10.653 -19.735  1.00 55.81 LIG 0.00  A 
ATOM     32  CE1 PHE C  20      -9.838  12.022 -19.719  1.00 56.05 LIG 0.00  A 
ATOM     33  CD1 PHE C  20     -11.036  12.580 -19.255  1.00 54.84 LIG 0.01  A 
ENDBRANCH 27 28
ENDBRANCH 17 27
ENDBRANCH 14 17
ENDBRANCH 8 13
ENDBRANCH 5 6
BRANCH 5 34
ATOM     34  CB  LEU C  18     -12.626  10.806 -10.528  1.00 31.46 LIG 0.04  C 
BRANCH 34 35
ATOM     35  CG  LEU C  18     -11.331  11.066  -9.802  1.00 36.62 LIG-0.02  C 
ATOM     36  CD2 LEU C  18     -11.612  11.686  -8.442  1.00 38.91 LIG 0.01  C 
ATOM     37  CD1 LEU C  18     -10.436  11.981 -10.644  1.00 36.98 LIG 0.01  C 
ENDBRANCH 34 35
ENDBRANCH 5 34
ENDBRANCH 3 5
BRANCH 1 38
ATOM     38  CA  PRO C  17     -11.622   6.869  -8.547  1.00 33.71 LIG 0.18  C 
ATOM     39  CB  PRO C  17     -11.784   5.402  -8.960  1.00 36.04 LIG 0.04  C 
ATOM     40  CG  PRO C  17     -12.401   4.692  -7.774  1.00 41.66 LIG 0.02  C 
ATOM     41  CD  PRO C  17     -12.617   5.686  -6.672  1.00 37.74 LIG 0.13  C 
ATOM     42  N   PRO C  17     -11.786   6.837  -7.090  1.00 35.06 LIG-0.34  N 
ATOM     43  C   ARG C  16     -11.176   7.777  -6.343  1.00 37.80 LIG 0.24  C 
ATOM     44 O    ARG C  16     -10.500   8.653  -6.878  1.00 34.25 LIG-0.27  OA
BRANCH 43 45
ATOM     45  CA  ARG C  16     -11.296   7.745  -4.808  1.00 39.10 LIG 0.18  C 
BRANCH 45 46
ATOM     46  CB  ARG C  16     -10.245   6.786  -4.218  1.00 42.59 LIG 0.04  C 
BRANCH 46 47
ATOM     47  CG  ARG C  16      -8.977   6.640  -5.052  1.00 54.51 LIG 0.02  C 
BRANCH 47 48
ATOM     48  CD  ARG C  16      -7.726   6.645  -4.195  1.00 71.70 LIG 0.14  C 
BRANCH 48 49
ATOM     49  NE  ARG C  16      -6.864   5.497  -4.497  1.00 86.72 LIG-0.23  N 
ATOM     50 HE   ARG C  16      -7.150   4.716  -4.278  1.00 86.72 LIG 0.18  HD
ATOM     51  CZ  ARG C  16      -5.672   5.575  -5.085  1.00 98.48 LIG 0.67  C 
ATOM     52  NH2 ARG C  16      -4.961   4.477  -5.308  1.00 86.10 LIG-0.23  N 
ATOM     53  NH1 ARG C  16      -5.178   6.753  -5.445  1.00 81.98 LIG-0.23  N 
ATOM     54 2HH2 ARG C  16      -4.192   4.533  -5.688  1.00 86.10 LIG 0.17  HD
ATOM     55 1HH2 ARG C  16      -5.270   3.710  -5.073  1.00 86.10 LIG 0.17  HD
ATOM     56 1HH1 ARG C  16      -5.628   7.471  -5.300  1.00 81.98 LIG 0.17  HD
ATOM     57 2HH1 ARG C  16      -4.408   6.798  -5.825  1.00 81.98 LIG 0.17  HD
ENDBRANCH 48 49
ENDBRANCH 47 48
ENDBRANCH 46 47
ENDBRANCH 45 46
BRANCH 45 58
ATOM     58  N   ARG C  16     -12.650   7.323  -4.433  1.00 40.87 LIG-0.35  N 
ATOM     59  C   PRO C  15     -13.730   8.137  -4.390  1.00 47.02 LIG 0.25  C 
ATOM     60 O    PRO C  15     -13.678   9.343  -4.632  1.00 46.36 LIG-0.27  OA
ATOM     61 H    ARG C  16     -12.697   6.487  -4.238  1.00 40.87 LIG 0.16  HD
BRANCH 59 62
ATOM     62  CA  PRO C  15     -15.076   7.488  -4.060  1.00 46.56 LIG 0.35  C 
ATOM     63  N   PRO C  15     -16.012   8.395  -3.379  1.00 47.38 LIG 0.32  N 
ATOM     64  CD  PRO C  15     -17.213   8.650  -4.195  1.00 49.28 LIG 0.32  C 
ATOM     65  CG  PRO C  15     -17.256   7.466  -5.113  1.00 53.38 LIG 0.04  C 
ATOM     66  CB  PRO C  15     -15.826   7.101  -5.346  1.00 48.49 LIG 0.05  C 
ENDBRANCH 59 62
ENDBRANCH 45 58
ENDBRANCH 43 45
ENDBRANCH 1 38
TORSDOF 18
ENDMDL
MODEL 49
USER: ADFR SOLUTION from run 146
USER: SCORE 21.349963 LL:  -5.035 LR: -18.456 RR:   0.000 FEB: -13.087
USER: RMSD 13.408678
USER: SEED 145
USER: STATUS no improvement in best in 2 clusters for 5 generations
USER: GENES 20
USER: genes 0 Translation |==|  0.44263 0.51089 0.50327
USER: genes 1 Rotation |==|  0.08006 0.67996 0.70231 0.51826
USER: genes 2 Torsion [C]-N--CA-[CB] |==|  0.40684
USER: genes 3 Torsion [N]-CA--C-[N] |==|  0.34337
USER: genes 4 Torsion [N]-CA--C-[O] |==|  0.69277
USER: genes 5 Torsion [C]-N--CA-[C] |==|  0.66739
USER: genes 6 Torsion [N]-CA--C-[N] |==|  0.49263
USER: genes 7 Torsion [N]-CA--C-[O] |==|  0.27699
USER: genes 8 Torsion [N]-CA--CB-[CG] |==|  0.78442
USER: genes 9 Torsion [CA]-CB--CG-[CD1] |==|  0.54405
USER: genes 10 Torsion [N]-CA--CB-[CG] |==|  0.54787
USER: genes 11 Torsion [CA]-CB--CG-[CD2] |==|  0.45819
USER: genes 12 Torsion [O]-C--CA-[CB] |==|  0.12761
USER: genes 13 Torsion [N]-C--CA-[N] |==|  0.31672
USER: genes 14 Torsion [C]-CA--CB-[CG] |==|  0.62428
USER: genes 15 Torsion [CA]-CB--CG-[CD] |==|  0.38056
USER: genes 16 Torsion [CB]-CG--CD-[NE] |==|  0.37883
USER: genes 17 Torsion [CG]-CD--NE-[HE] |==|  0.19388
USER: genes 18 Torsion [C]-CA--N-[C] |==|  0.77700
USER: genes 19 Torsion [N]-C--CA-[CB] |==|  0.47376
ROOT
ATOM      1  C   PRO C  17     -12.646   9.548 -10.219  1.00 34.10 LIG 0.24  C 
ATOM      2 O    PRO C  17     -13.617   9.871  -9.537  1.00 31.91 LIG-0.27  OA
ATOM      3  N   LEU C  18     -11.972   8.431 -10.015  1.00 30.88 LIG-0.35  N 
ATOM      4 H    LEU C  18     -11.260   8.228 -10.451  1.00 30.88 LIG 0.16  HD
ENDROOT
BRANCH 3 5
ATOM      5  CA  LEU C  18     -12.361   7.428  -9.036  1.00 30.78 LIG 0.18  C 
BRANCH 5 6
ATOM      6  C   LEU C  18     -11.716   7.623  -7.674  1.00 33.73 LIG 0.24  C 
ATOM      7  N   PRO C  19     -12.534   7.740  -6.595  1.00 33.17 LIG-0.34  N 
ATOM      8  CA  PRO C  19     -11.952   7.867  -5.242  1.00 33.85 LIG 0.18  C 
ATOM      9  CD  PRO C  19     -14.017   7.785  -6.562  1.00 35.22 LIG 0.13  C 
ATOM     10  CB  PRO C  19     -13.140   8.291  -4.373  1.00 35.69 LIG 0.04  C 
ATOM     11  CG  PRO C  19     -14.350   7.856  -5.104  1.00 39.92 LIG 0.02  C 
ATOM     12 O    LEU C  18     -10.488   7.569  -7.585  1.00 31.40 LIG-0.27  OA
BRANCH 8 13
ATOM     13  C   PRO C  19     -11.258   6.597  -4.726  1.00 39.47 LIG 0.24  C 
ATOM     14  N   PHE C  20     -10.141   6.238  -5.361  1.00 41.20 LIG-0.35  N 
ATOM     15 H    PHE C  20      -9.820   6.690  -6.019  1.00 41.20 LIG 0.16  HD
ATOM     16 O    PRO C  19     -11.734   5.942  -3.804  1.00 36.20 LIG-0.27  OA
BRANCH 14 17
ATOM     17  CA  PHE C  20      -9.337   5.061  -5.033  1.00 43.59 LIG 0.18  C 
BRANCH 17 18
ATOM     18  C   PHE C  20      -7.916   5.505  -4.642  1.00 48.54 LIG 0.24  C 
ATOM     19  N   PRO C  21      -7.001   4.582  -4.242  1.00 46.41 LIG-0.34  N 
ATOM     20  CA  PRO C  21      -5.616   5.001  -3.917  1.00 51.72 LIG 0.17  C 
ATOM     21  CD  PRO C  21      -7.171   3.129  -4.049  1.00 49.19 LIG 0.13  C 
ATOM     22  CB  PRO C  21      -4.917   3.682  -3.546  1.00 52.56 LIG 0.04  C 
ATOM     23  CG  PRO C  21      -6.002   2.748  -3.191  1.00 54.82 LIG 0.02  C 
ATOM     24 O    PHE C  20      -7.637   6.703  -4.728  1.00 48.67 LIG-0.27  OA
BRANCH 20 25
ATOM     25  C   PRO C  21      -4.884   5.683  -5.074  1.00 87.57 LIG 0.22  C 
ATOM     26 O    PRO C  21      -4.802   6.909  -5.111  1.00 58.80 LIG-0.29  OA
ENDBRANCH 20 25
ENDBRANCH 17 18
BRANCH 17 27
ATOM     27  CB  PHE C  20      -9.311   4.107  -6.255  1.00 46.79 LIG 0.07  C 
BRANCH 27 28
ATOM     28  CG  PHE C  20     -10.540   3.254  -6.501  1.00 50.46 LIG-0.06  A 
ATOM     29  CD2 PHE C  20     -11.737   3.521  -5.842  1.00 54.33 LIG 0.01  A 
ATOM     30  CE2 PHE C  20     -12.873   2.733  -6.071  1.00 57.68 LIG 0.00  A 
ATOM     31  CZ  PHE C  20     -12.806   1.660  -6.940  1.00 55.81 LIG 0.00  A 
ATOM     32  CE1 PHE C  20     -11.625   1.372  -7.590  1.00 56.05 LIG 0.00  A 
ATOM     33  CD1 PHE C  20     -10.488   2.155  -7.354  1.00 54.84 LIG 0.01  A 
ENDBRANCH 27 28
ENDBRANCH 17 27
ENDBRANCH 14 17
ENDBRANCH 8 13
ENDBRANCH 5 6
BRANCH 5 34
ATOM     34  CB  LEU C  18     -11.989   6.044  -9.565  1.00 31.46 LIG 0.04  C 
BRANCH 34 35
ATOM     35  CG  LEU C  18     -12.658   4.871  -8.898  1.00 36.62 LIG-0.02  C 
ATOM     36  CD2 LEU C  18     -12.488   3.622  -9.749  1.00 38.91 LIG 0.01  C 
ATOM     37  CD1 LEU C  18     -14.141   5.177  -8.669  1.00 36.98 LIG 0.01  C 
ENDBRANCH 34 35
ENDBRANCH 5 34
ENDBRANCH 3 5
BRANCH 1 38
ATOM     38  CA  PRO C  17     -12.086  10.455 -11.307  1.00 33.71 LIG 0.18  C 
ATOM     39  CB  PRO C  17     -11.938  11.909 -10.849  1.00 36.04 LIG 0.04  C 
ATOM     40  CG  PRO C  17     -12.994  12.699 -11.594  1.00 41.66 LIG 0.02  C 
ATOM     41  CD  PRO C  17     -13.767  11.764 -12.474  1.00 37.74 LIG 0.13  C 
ATOM     42  N   PRO C  17     -12.915  10.555 -12.512  1.00 35.06 LIG-0.34  N 
ATOM     43  C   ARG C  16     -12.792   9.616 -13.470  1.00 37.80 LIG 0.24  C 
ATOM     44 O    ARG C  16     -12.003   8.685 -13.328  1.00 34.25 LIG-0.27  OA
BRANCH 43 45
ATOM     45  CA  ARG C  16     -13.618   9.718 -14.766  1.00 39.10 LIG 0.18  C 
BRANCH 45 46
ATOM     46  CB  ARG C  16     -14.438   8.430 -14.970  1.00 42.59 LIG 0.04  C 
BRANCH 46 47
ATOM     47  CG  ARG C  16     -14.409   7.875 -16.391  1.00 54.51 LIG 0.02  C 
BRANCH 47 48
ATOM     48  CD  ARG C  16     -14.238   6.369 -16.413  1.00 71.70 LIG 0.14  C 
BRANCH 48 49
ATOM     49  NE  ARG C  16     -15.138   5.741 -17.386  1.00 86.72 LIG-0.23  N 
ATOM     50 HE   ARG C  16     -14.975   5.871 -18.220  1.00 86.72 LIG 0.18  HD
ATOM     51  CZ  ARG C  16     -16.187   4.984 -17.073  1.00 98.48 LIG 0.67  C 
ATOM     52  NH2 ARG C  16     -16.949   4.466 -18.028  1.00 86.10 LIG-0.23  N 
ATOM     53  NH1 ARG C  16     -16.488   4.747 -15.803  1.00 81.98 LIG-0.23  N 
ATOM     54 2HH2 ARG C  16     -17.625   3.978 -17.821  1.00 86.10 LIG 0.17  HD
ATOM     55 1HH2 ARG C  16     -16.765   4.618 -18.855  1.00 86.10 LIG 0.17  HD
ATOM     56 1HH1 ARG C  16     -16.004   5.083 -15.176  1.00 81.98 LIG 0.17  HD
ATOM     57 2HH1 ARG C  16     -17.166   4.257 -15.606  1.00 81.98 LIG 0.17  HD
ENDBRANCH 48 49
ENDBRANCH 47 48
ENDBRANCH 46 47
ENDBRANCH 45 46
BRANCH 45 58
ATOM     58  N   ARG C  16     -12.718   9.944 -15.901  1.00 40.87 LIG-0.35  N 
ATOM     59  C   PRO C  15     -12.186  11.141 -16.241  1.00 47.02 LIG 0.25  C 
ATOM     60 O    PRO C  15     -12.436  12.187 -15.641  1.00 46.36 LIG-0.27  OA
ATOM     61 H    ARG C  16     -12.553   9.226 -16.345  1.00 40.87 LIG 0.16  HD
BRANCH 59 62
ATOM     62  CA  PRO C  15     -11.197  11.156 -17.409  1.00 46.56 LIG 0.35  C 
ATOM     63  N   PRO C  15     -11.737  10.562 -18.640  1.00 47.38 LIG 0.32  N 
ATOM     64  CD  PRO C  15     -11.836  11.556 -19.725  1.00 49.28 LIG 0.32  C 
ATOM     65  CG  PRO C  15     -10.843  12.601 -19.318  1.00 53.38 LIG 0.04  C 
ATOM     66  CB  PRO C  15     -10.865  12.599 -17.824  1.00 48.49 LIG 0.05  C 
ENDBRANCH 59 62
ENDBRANCH 45 58
ENDBRANCH 43 45
ENDBRANCH 1 38
TORSDOF 18
ENDMDL
MODEL 50
USER: ADFR SOLUTION from run 36
USER: SCORE 22.079632 LL:  -4.654 LR: -18.454 RR:   0.000 FEB: -13.084
USER: RMSD 13.489748
USER: SEED 35
USER: STATUS no improvement in best in 6 clusters for 5 generations
USER: GENES 20
USER: genes 0 Translation |==|  0.47836 0.51913 0.51282
USER: genes 1 Rotation |==|  0.25513 0.76237 0.84516 0.54545
USER: genes 2 Torsion [C]-N--CA-[CB] |==|  0.85556
USER: genes 3 Torsion [N]-CA--C-[N] |==|  0.39221
USER: genes 4 Torsion [N]-CA--C-[O] |==|  0.82157
USER: genes 5 Torsion [C]-N--CA-[C] |==|  0.16404
USER: genes 6 Torsion [N]-CA--C-[N] |==|  0.54700
USER: genes 7 Torsion [N]-CA--C-[O] |==|  0.94933
USER: genes 8 Torsion [N]-CA--CB-[CG] |==|  0.88703
USER: genes 9 Torsion [CA]-CB--CG-[CD1] |==|  0.72961
USER: genes 10 Torsion [N]-CA--CB-[CG] |==|  0.42150
USER: genes 11 Torsion [CA]-CB--CG-[CD2] |==|  0.57172
USER: genes 12 Torsion [O]-C--CA-[CB] |==|  0.96998
USER: genes 13 Torsion [N]-C--CA-[N] |==|  0.08828
USER: genes 14 Torsion [C]-CA--CB-[CG] |==|  0.34587
USER: genes 15 Torsion [CA]-CB--CG-[CD] |==|  0.10394
USER: genes 16 Torsion [CB]-CG--CD-[NE] |==|  0.42564
USER: genes 17 Torsion [CG]-CD--NE-[HE] |==|  0.74654
USER: genes 18 Torsion [C]-CA--N-[C] |==|  0.17068
USER: genes 19 Torsion [N]-C--CA-[CB] |==|  0.22567
ROOT
ATOM      1  C   PRO C  17     -12.003   9.696  -9.910  1.00 34.10 LIG 0.24  C 
ATOM      2 O    PRO C  17     -11.976  10.118  -8.756  1.00 31.91 LIG-0.27  OA
ATOM      3  N   LEU C  18     -12.115   8.413 -10.198  1.00 30.88 LIG-0.35  N 
ATOM      4 H    LEU C  18     -12.077   8.109 -11.001  1.00 30.88 LIG 0.16  HD
ENDROOT
BRANCH 3 5
ATOM      5  CA  LEU C  18     -12.313   7.380  -9.192  1.00 30.78 LIG 0.18  C 
BRANCH 5 6
ATOM      6  C   LEU C  18     -13.682   7.422  -8.537  1.00 33.73 LIG 0.24  C 
ATOM      7  N   PRO C  19     -14.292   6.239  -8.262  1.00 33.17 LIG-0.34  N 
ATOM      8  CA  PRO C  19     -15.597   6.229  -7.567  1.00 33.85 LIG 0.18  C 
ATOM      9  CD  PRO C  19     -13.834   4.867  -8.593  1.00 35.22 LIG 0.13  C 
ATOM     10  CB  PRO C  19     -16.086   4.786  -7.733  1.00 35.69 LIG 0.04  C 
ATOM     11  CG  PRO C  19     -14.875   3.977  -7.988  1.00 39.92 LIG 0.02  C 
ATOM     12 O    LEU C  18     -14.142   8.513  -8.191  1.00 31.40 LIG-0.27  OA
BRANCH 8 13
ATOM     13  C   PRO C  19     -15.539   6.674  -6.098  1.00 39.47 LIG 0.24  C 
ATOM     14  N   PHE C  20     -16.169   7.814  -5.804  1.00 41.20 LIG-0.35  N 
ATOM     15 H    PHE C  20     -16.589   8.273  -6.397  1.00 41.20 LIG 0.16  HD
ATOM     16 O    PRO C  19     -14.917   6.028  -5.261  1.00 36.20 LIG-0.27  OA
BRANCH 14 17
ATOM     17  CA  PHE C  20     -16.225   8.415  -4.472  1.00 43.59 LIG 0.18  C 
BRANCH 17 18
ATOM     18  C   PHE C  20     -14.795   8.700  -3.979  1.00 48.54 LIG 0.24  C 
ATOM     19  N   PRO C  21     -14.564   8.931  -2.659  1.00 46.41 LIG-0.34  N 
ATOM     20  CA  PRO C  21     -13.180   9.152  -2.174  1.00 51.72 LIG 0.17  C 
ATOM     21  CD  PRO C  21     -15.532   9.023  -1.549  1.00 49.19 LIG 0.13  C 
ATOM     22  CB  PRO C  21     -13.354   9.346  -0.659  1.00 52.56 LIG 0.04  C 
ATOM     23  CG  PRO C  21     -14.766   9.728  -0.470  1.00 54.82 LIG 0.02  C 
ATOM     24 O    PHE C  20     -13.880   8.683  -4.806  1.00 48.67 LIG-0.27  OA
BRANCH 20 25
ATOM     25  C   PRO C  21     -12.228   7.988  -2.456  1.00 87.57 LIG 0.22  C 
ATOM     26 O    PRO C  21     -12.680   6.876  -2.721  1.00 58.80 LIG-0.29  OA
ENDBRANCH 20 25
ENDBRANCH 17 18
BRANCH 17 27
ATOM     27  CB  PHE C  20     -16.969   7.453  -3.511  1.00 46.79 LIG 0.07  C 
BRANCH 27 28
ATOM     28  CG  PHE C  20     -18.194   6.739  -4.049  1.00 50.46 LIG-0.06  A 
ATOM     29  CD2 PHE C  20     -18.066   5.605  -4.846  1.00 54.33 LIG 0.01  A 
ATOM     30  CE2 PHE C  20     -19.200   4.946  -5.341  1.00 57.68 LIG 0.00  A 
ATOM     31  CZ  PHE C  20     -20.462   5.436  -5.062  1.00 55.81 LIG 0.00  A 
ATOM     32  CE1 PHE C  20     -20.606   6.566  -4.286  1.00 56.05 LIG 0.00  A 
ATOM     33  CD1 PHE C  20     -19.473   7.230  -3.799  1.00 54.84 LIG 0.01  A 
ENDBRANCH 27 28
ENDBRANCH 17 27
ENDBRANCH 14 17
ENDBRANCH 8 13
ENDBRANCH 5 6
BRANCH 5 34
ATOM     34  CB  LEU C  18     -11.243   7.525  -8.112  1.00 31.46 LIG 0.04  C 
BRANCH 34 35
ATOM     35  CG  LEU C  18     -11.618   7.049  -6.732  1.00 36.62 LIG-0.02  C 
ATOM     36  CD2 LEU C  18     -10.799   7.789  -5.686  1.00 38.91 LIG 0.01  C 
ATOM     37  CD1 LEU C  18     -11.399   5.537  -6.626  1.00 36.98 LIG 0.01  C 
ENDBRANCH 34 35
ENDBRANCH 5 34
ENDBRANCH 3 5
BRANCH 1 38
ATOM     38  CA  PRO C  17     -11.825  10.618 -11.110  1.00 33.71 LIG 0.18  C 
ATOM     39  CB  PRO C  17     -11.881  12.101 -10.731  1.00 36.04 LIG 0.04  C 
ATOM     40  CG  PRO C  17     -13.182  12.635 -11.294  1.00 41.66 LIG 0.02  C 
ATOM     41  CD  PRO C  17     -13.903  11.519 -11.989  1.00 37.74 LIG 0.13  C 
ATOM     42  N   PRO C  17     -12.855  10.487 -12.146  1.00 35.06 LIG-0.34  N 
ATOM     43  C   ARG C  16     -12.723   9.526 -13.080  1.00 37.80 LIG 0.24  C 
ATOM     44 O    ARG C  16     -11.758   8.766 -13.057  1.00 34.25 LIG-0.27  OA
BRANCH 43 45
ATOM     45  CA  ARG C  16     -13.766   9.391 -14.205  1.00 39.10 LIG 0.18  C 
BRANCH 45 46
ATOM     46  CB  ARG C  16     -13.122   8.746 -15.447  1.00 42.59 LIG 0.04  C 
BRANCH 46 47
ATOM     47  CG  ARG C  16     -13.827   7.491 -15.951  1.00 54.51 LIG 0.02  C 
BRANCH 47 48
ATOM     48  CD  ARG C  16     -15.334   7.593 -15.825  1.00 71.70 LIG 0.14  C 
BRANCH 48 49
ATOM     49  NE  ARG C  16     -16.014   6.757 -16.820  1.00 86.72 LIG-0.23  N 
ATOM     50 HE   ARG C  16     -16.214   7.118 -17.574  1.00 86.72 LIG 0.18  HD
ATOM     51  CZ  ARG C  16     -16.342   5.479 -16.642  1.00 98.48 LIG 0.67  C 
ATOM     52  NH2 ARG C  16     -16.965   4.807 -17.602  1.00 86.10 LIG-0.23  N 
ATOM     53  NH1 ARG C  16     -16.059   4.867 -15.499  1.00 81.98 LIG-0.23  N 
ATOM     54 2HH2 ARG C  16     -17.176   3.982 -17.482  1.00 86.10 LIG 0.17  HD
ATOM     55 1HH2 ARG C  16     -17.159   5.197 -18.344  1.00 86.10 LIG 0.17  HD
ATOM     56 1HH1 ARG C  16     -15.661   5.295 -14.869  1.00 81.98 LIG 0.17  HD
ATOM     57 2HH1 ARG C  16     -16.273   4.042 -15.390  1.00 81.98 LIG 0.17  HD
ENDBRANCH 48 49
ENDBRANCH 47 48
ENDBRANCH 46 47
ENDBRANCH 45 46
BRANCH 45 58
ATOM     58  N   ARG C  16     -14.305  10.716 -14.531  1.00 40.87 LIG-0.35  N 
ATOM     59  C   PRO C  15     -13.575  11.755 -15.000  1.00 47.02 LIG 0.25  C 
ATOM     60 O    PRO C  15     -12.356  11.702 -15.171  1.00 46.36 LIG-0.27  OA
ATOM     61 H    ARG C  16     -15.152  10.776 -14.394  1.00 40.87 LIG 0.16  HD
BRANCH 59 62
ATOM     62  CA  PRO C  15     -14.336  13.031 -15.365  1.00 46.56 LIG 0.35  C 
ATOM     63  N   PRO C  15     -15.672  12.776 -15.922  1.00 47.38 LIG 0.32  N 
ATOM     64  CD  PRO C  15     -16.736  13.316 -15.055  1.00 49.28 LIG 0.32  C 
ATOM     65  CG  PRO C  15     -16.025  14.375 -14.268  1.00 53.38 LIG 0.04  C 
ATOM     66  CB  PRO C  15     -14.627  13.871 -14.109  1.00 48.49 LIG 0.05  C 
ENDBRANCH 59 62
ENDBRANCH 45 58
ENDBRANCH 43 45
ENDBRANCH 1 38
TORSDOF 18
ENDMDL
MODEL 51
USER: ADFR SOLUTION from run 41
USER: SCORE 21.347792 LL:  -5.027 LR: -18.448 RR:   0.000 FEB: -13.079
USER: RMSD 13.843690
USER: SEED 40
USER: STATUS no improvement in best in 21 clusters for 5 generations
USER: GENES 20
USER: genes 0 Translation |==|  0.44459 0.48934 0.49917
USER: genes 1 Rotation |==|  0.98806 0.43966 0.49931 0.59032
USER: genes 2 Torsion [C]-N--CA-[CB] |==|  0.22255
USER: genes 3 Torsion [N]-CA--C-[N] |==|  0.40265
USER: genes 4 Torsion [N]-CA--C-[O] |==|  0.93324
USER: genes 5 Torsion [C]-N--CA-[C] |==|  0.24986
USER: genes 6 Torsion [N]-CA--C-[N] |==|  0.42223
USER: genes 7 Torsion [N]-CA--C-[O] |==|  0.64069
USER: genes 8 Torsion [N]-CA--CB-[CG] |==|  0.33507
USER: genes 9 Torsion [CA]-CB--CG-[CD1] |==|  0.77103
USER: genes 10 Torsion [N]-CA--CB-[CG] |==|  0.37087
USER: genes 11 Torsion [CA]-CB--CG-[CD2] |==|  0.66957
USER: genes 12 Torsion [O]-C--CA-[CB] |==|  0.32342
USER: genes 13 Torsion [N]-C--CA-[N] |==|  0.29085
USER: genes 14 Torsion [C]-CA--CB-[CG] |==|  0.69878
USER: genes 15 Torsion [CA]-CB--CG-[CD] |==|  0.43029
USER: genes 16 Torsion [CB]-CG--CD-[NE] |==|  0.15864
USER: genes 17 Torsion [CG]-CD--NE-[HE] |==|  0.91728
USER: genes 18 Torsion [C]-CA--N-[C] |==|  0.75410
USER: genes 19 Torsion [N]-C--CA-[CB] |==|  0.36381
ROOT
ATOM      1  C   PRO C  17     -12.610   9.160 -10.351  1.00 34.10 LIG 0.24  C 
ATOM      2 O    PRO C  17     -13.786   8.826 -10.479  1.00 31.91 LIG-0.27  OA
ATOM      3  N   LEU C  18     -11.915   8.916  -9.256  1.00 30.88 LIG-0.35  N 
ATOM      4 H    LEU C  18     -11.112   9.197  -9.139  1.00 30.88 LIG 0.16  HD
ENDROOT
BRANCH 3 5
ATOM      5  CA  LEU C  18     -12.433   8.149  -8.132  1.00 30.78 LIG 0.18  C 
BRANCH 5 6
ATOM      6  C   LEU C  18     -11.713   8.425  -6.823  1.00 33.73 LIG 0.24  C 
ATOM      7  N   PRO C  19     -12.446   8.403  -5.678  1.00 33.17 LIG-0.34  N 
ATOM      8  CA  PRO C  19     -11.778   8.602  -4.374  1.00 33.85 LIG 0.18  C 
ATOM      9  CD  PRO C  19     -13.911   8.218  -5.524  1.00 35.22 LIG 0.13  C 
ATOM     10  CB  PRO C  19     -12.940   8.828  -3.402  1.00 35.69 LIG 0.04  C 
ATOM     11  CG  PRO C  19     -14.127   8.221  -4.043  1.00 39.92 LIG 0.02  C 
ATOM     12 O    LEU C  18     -10.488   8.560  -6.835  1.00 31.40 LIG-0.27  OA
BRANCH 8 13
ATOM     13  C   PRO C  19     -10.858   7.449  -3.947  1.00 39.47 LIG 0.24  C 
ATOM     14  N   PHE C  20      -9.863   7.768  -3.117  1.00 41.20 LIG-0.35  N 
ATOM     15 H    PHE C  20      -9.742   8.569  -2.829  1.00 41.20 LIG 0.16  HD
ATOM     16 O    PRO C  19     -11.019   6.313  -4.380  1.00 36.20 LIG-0.27  OA
BRANCH 14 17
ATOM     17  CA  PHE C  20      -8.873   6.823  -2.601  1.00 43.59 LIG 0.18  C 
BRANCH 17 18
ATOM     18  C   PHE C  20      -7.668   6.771  -3.558  1.00 48.54 LIG 0.24  C 
ATOM     19  N   PRO C  21      -6.434   6.456  -3.082  1.00 46.41 LIG-0.34  N 
ATOM     20  CA  PRO C  21      -5.283   6.352  -4.011  1.00 51.72 LIG 0.17  C 
ATOM     21  CD  PRO C  21      -6.013   6.198  -1.691  1.00 49.19 LIG 0.13  C 
ATOM     22  CB  PRO C  21      -4.112   5.963  -3.094  1.00 52.56 LIG 0.04  C 
ATOM     23  CG  PRO C  21      -4.524   6.365  -1.736  1.00 54.82 LIG 0.02  C 
ATOM     24 O    PHE C  20      -7.866   6.993  -4.755  1.00 48.67 LIG-0.27  OA
BRANCH 20 25
ATOM     25  C   PRO C  21      -5.465   5.307  -5.113  1.00 87.57 LIG 0.22  C 
ATOM     26 O    PRO C  21      -4.588   4.470  -5.316  1.00 58.80 LIG-0.29  OA
ENDBRANCH 20 25
ENDBRANCH 17 18
BRANCH 17 27
ATOM     27  CB  PHE C  20      -9.532   5.428  -2.451  1.00 46.79 LIG 0.07  C 
BRANCH 27 28
ATOM     28  CG  PHE C  20      -8.923   4.281  -3.233  1.00 50.46 LIG-0.06  A 
ATOM     29  CD2 PHE C  20      -7.989   3.432  -2.646  1.00 54.33 LIG 0.01  A 
ATOM     30  CE2 PHE C  20      -7.428   2.372  -3.371  1.00 57.68 LIG 0.00  A 
ATOM     31  CZ  PHE C  20      -7.781   2.175  -4.693  1.00 55.81 LIG 0.00  A 
ATOM     32  CE1 PHE C  20      -8.693   3.015  -5.295  1.00 56.05 LIG 0.00  A 
ATOM     33  CD1 PHE C  20      -9.246   4.080  -4.573  1.00 54.84 LIG 0.01  A 
ENDBRANCH 27 28
ENDBRANCH 17 27
ENDBRANCH 14 17
ENDBRANCH 8 13
ENDBRANCH 5 6
BRANCH 5 34
ATOM     34  CB  LEU C  18     -12.322   6.660  -8.452  1.00 31.46 LIG 0.04  C 
BRANCH 34 35
ATOM     35  CG  LEU C  18     -11.752   5.784  -7.367  1.00 36.62 LIG-0.02  C 
ATOM     36  CD2 LEU C  18     -10.478   5.111  -7.857  1.00 38.91 LIG 0.01  C 
ATOM     37  CD1 LEU C  18     -12.789   4.741  -6.940  1.00 36.98 LIG 0.01  C 
ENDBRANCH 34 35
ENDBRANCH 5 34
ENDBRANCH 3 5
BRANCH 1 38
ATOM     38  CA  PRO C  17     -11.878   9.960 -11.419  1.00 33.71 LIG 0.18  C 
ATOM     39  CB  PRO C  17     -11.439  11.344 -10.928  1.00 36.04 LIG 0.04  C 
ATOM     40  CG  PRO C  17     -12.313  12.348 -11.650  1.00 41.66 LIG 0.02  C 
ATOM     41  CD  PRO C  17     -13.259  11.610 -12.549  1.00 37.74 LIG 0.13  C 
ATOM     42  N   PRO C  17     -12.669  10.255 -12.619  1.00 35.06 LIG-0.34  N 
ATOM     43  C   ARG C  16     -12.738   9.334 -13.598  1.00 37.80 LIG 0.24  C 
ATOM     44 O    ARG C  16     -12.154   8.259 -13.482  1.00 34.25 LIG-0.27  OA
BRANCH 43 45
ATOM     45  CA  ARG C  16     -13.526   9.632 -14.888  1.00 39.10 LIG 0.18  C 
BRANCH 45 46
ATOM     46  CB  ARG C  16     -14.424   8.433 -15.246  1.00 42.59 LIG 0.04  C 
BRANCH 46 47
ATOM     47  CG  ARG C  16     -13.966   7.635 -16.462  1.00 54.51 LIG 0.02  C 
BRANCH 47 48
ATOM     48  CD  ARG C  16     -14.458   6.201 -16.424  1.00 71.70 LIG 0.14  C 
BRANCH 48 49
ATOM     49  NE  ARG C  16     -15.921   6.139 -16.326  1.00 86.72 LIG-0.23  N 
ATOM     50 HE   ARG C  16     -16.321   6.784 -15.922  1.00 86.72 LIG 0.18  HD
ATOM     51  CZ  ARG C  16     -16.673   5.156 -16.816  1.00 98.48 LIG 0.67  C 
ATOM     52  NH2 ARG C  16     -17.992   5.185 -16.669  1.00 86.10 LIG-0.23  N 
ATOM     53  NH1 ARG C  16     -16.113   4.134 -17.449  1.00 81.98 LIG-0.23  N 
ATOM     54 2HH2 ARG C  16     -18.474   4.548 -16.987  1.00 86.10 LIG 0.17  HD
ATOM     55 1HH2 ARG C  16     -18.364   5.841 -16.255  1.00 86.10 LIG 0.17  HD
ATOM     56 1HH1 ARG C  16     -15.259   4.102 -17.544  1.00 81.98 LIG 0.17  HD
ATOM     57 2HH1 ARG C  16     -16.604   3.502 -17.764  1.00 81.98 LIG 0.17  HD
ENDBRANCH 48 49
ENDBRANCH 47 48
ENDBRANCH 46 47
ENDBRANCH 45 46
BRANCH 45 58
ATOM     58  N   ARG C  16     -12.586   9.918 -15.978  1.00 40.87 LIG-0.35  N 
ATOM     59  C   PRO C  15     -12.092  11.143 -16.272  1.00 47.02 LIG 0.25  C 
ATOM     60 O    PRO C  15     -12.412  12.165 -15.664  1.00 46.36 LIG-0.27  OA
ATOM     61 H    ARG C  16     -12.372   9.217 -16.427  1.00 40.87 LIG 0.16  HD
BRANCH 59 62
ATOM     62  CA  PRO C  15     -11.053  11.223 -17.393  1.00 46.56 LIG 0.35  C 
ATOM     63  N   PRO C  15     -10.998  10.013 -18.226  1.00 47.38 LIG 0.32  N 
ATOM     64  CD  PRO C  15     -11.387  10.295 -19.621  1.00 49.28 LIG 0.32  C 
ATOM     65  CG  PRO C  15     -11.136  11.766 -19.751  1.00 53.38 LIG 0.04  C 
ATOM     66  CB  PRO C  15     -11.417  12.331 -18.396  1.00 48.49 LIG 0.05  C 
ENDBRANCH 59 62
ENDBRANCH 45 58
ENDBRANCH 43 45
ENDBRANCH 1 38
TORSDOF 18
ENDMDL
MODEL 52
USER: ADFR SOLUTION from run 84
USER: SCORE 23.258134 LL:  -5.421 LR: -18.434 RR:   0.000 FEB: -13.065
USER: RMSD 12.632145
USER: SEED 83
USER: STATUS no improvement in best in 5 clusters for 5 generations
USER: GENES 20
USER: genes 0 Translation |==|  0.47994 0.49466 0.51532
USER: genes 1 Rotation |==|  0.84936 0.71566 0.74227 0.65082
USER: genes 2 Torsion [C]-N--CA-[CB] |==|  0.84867
USER: genes 3 Torsion [N]-CA--C-[N] |==|  0.40500
USER: genes 4 Torsion [N]-CA--C-[O] |==|  0.77317
USER: genes 5 Torsion [C]-N--CA-[C] |==|  0.14271
USER: genes 6 Torsion [N]-CA--C-[N] |==|  0.18319
USER: genes 7 Torsion [N]-CA--C-[O] |==|  0.74018
USER: genes 8 Torsion [N]-CA--CB-[CG] |==|  0.84911
USER: genes 9 Torsion [CA]-CB--CG-[CD1] |==|  0.79102
USER: genes 10 Torsion [N]-CA--CB-[CG] |==|  0.55164
USER: genes 11 Torsion [CA]-CB--CG-[CD2] |==|  0.73365
USER: genes 12 Torsion [O]-C--CA-[CB] |==|  0.57948
USER: genes 13 Torsion [N]-C--CA-[N] |==|  0.34319
USER: genes 14 Torsion [C]-CA--CB-[CG] |==|  0.42283
USER: genes 15 Torsion [CA]-CB--CG-[CD] |==|  0.80165
USER: genes 16 Torsion [CB]-CG--CD-[NE] |==|  0.44804
USER: genes 17 Torsion [CG]-CD--NE-[HE] |==|  0.98966
USER: genes 18 Torsion [C]-CA--N-[C] |==|  0.81994
USER: genes 19 Torsion [N]-C--CA-[CB] |==|  0.48888
ROOT
ATOM      1  C   PRO C  17     -11.974   9.256  -9.830  1.00 34.10 LIG 0.24  C 
ATOM      2 O    PRO C  17     -11.704   8.061  -9.929  1.00 31.91 LIG-0.27  OA
ATOM      3  N   LEU C  18     -12.622   9.757  -8.795  1.00 30.88 LIG-0.35  N 
ATOM      4 H    LEU C  18     -12.863  10.580  -8.748  1.00 30.88 LIG 0.16  HD
ENDROOT
BRANCH 3 5
ATOM      5  CA  LEU C  18     -12.998   8.972  -7.628  1.00 30.78 LIG 0.18  C 
BRANCH 5 6
ATOM      6  C   LEU C  18     -11.813   8.501  -6.803  1.00 33.73 LIG 0.24  C 
ATOM      7  N   PRO C  19     -11.969   8.419  -5.456  1.00 33.17 LIG-0.34  N 
ATOM      8  CA  PRO C  19     -10.864   7.905  -4.618  1.00 33.85 LIG 0.18  C 
ATOM      9  CD  PRO C  19     -13.143   8.811  -4.637  1.00 35.22 LIG 0.13  C 
ATOM     10  CB  PRO C  19     -11.292   8.265  -3.192  1.00 35.69 LIG 0.04  C 
ATOM     11  CG  PRO C  19     -12.760   8.433  -3.241  1.00 39.92 LIG 0.02  C 
ATOM     12 O    LEU C  18     -10.796   8.120  -7.388  1.00 31.40 LIG-0.27  OA
BRANCH 8 13
ATOM     13  C   PRO C  19     -10.576   6.406  -4.794  1.00 39.47 LIG 0.24  C 
ATOM     14  N   PHE C  20      -9.591   6.092  -5.638  1.00 41.20 LIG-0.35  N 
ATOM     15 H    PHE C  20      -9.136   6.689  -6.057  1.00 41.20 LIG 0.16  HD
ATOM     16 O    PRO C  19     -11.245   5.557  -4.213  1.00 36.20 LIG-0.27  OA
BRANCH 14 17
ATOM     17  CA  PHE C  20      -9.167   4.728  -5.952  1.00 43.59 LIG 0.18  C 
BRANCH 17 18
ATOM     18  C   PHE C  20     -10.394   3.891  -6.356  1.00 48.54 LIG 0.24  C 
ATOM     19  N   PRO C  21     -11.073   4.186  -7.496  1.00 46.41 LIG-0.34  N 
ATOM     20  CA  PRO C  21     -12.222   3.348  -7.915  1.00 51.72 LIG 0.17  C 
ATOM     21  CD  PRO C  21     -10.853   5.291  -8.449  1.00 49.19 LIG 0.13  C 
ATOM     22  CB  PRO C  21     -12.679   3.991  -9.235  1.00 52.56 LIG 0.04  C 
ATOM     23  CG  PRO C  21     -12.144   5.366  -9.207  1.00 54.82 LIG 0.02  C 
ATOM     24 O    PHE C  20     -10.715   2.944  -5.634  1.00 48.67 LIG-0.27  OA
BRANCH 20 25
ATOM     25  C   PRO C  21     -11.871   1.875  -8.135  1.00 87.57 LIG 0.22  C 
ATOM     26 O    PRO C  21     -11.571   1.477  -9.259  1.00 58.80 LIG-0.29  OA
ENDBRANCH 20 25
ENDBRANCH 17 18
BRANCH 17 27
ATOM     27  CB  PHE C  20      -8.453   4.120  -4.717  1.00 46.79 LIG 0.07  C 
BRANCH 27 28
ATOM     28  CG  PHE C  20      -7.291   4.897  -4.131  1.00 50.46 LIG-0.06  A 
ATOM     29  CD2 PHE C  20      -7.449   5.650  -2.971  1.00 54.33 LIG 0.01  A 
ATOM     30  CE2 PHE C  20      -6.373   6.366  -2.430  1.00 57.68 LIG 0.00  A 
ATOM     31  CZ  PHE C  20      -5.144   6.352  -3.062  1.00 55.81 LIG 0.00  A 
ATOM     32  CE1 PHE C  20      -4.973   5.623  -4.220  1.00 56.05 LIG 0.00  A 
ATOM     33  CD1 PHE C  20      -6.051   4.915  -4.765  1.00 54.84 LIG 0.01  A 
ENDBRANCH 27 28
ENDBRANCH 17 27
ENDBRANCH 14 17
ENDBRANCH 8 13
ENDBRANCH 5 6
BRANCH 5 34
ATOM     34  CB  LEU C  18     -13.799   7.754  -8.083  1.00 31.46 LIG 0.04  C 
BRANCH 34 35
ATOM     35  CG  LEU C  18     -14.632   7.070  -7.030  1.00 36.62 LIG-0.02  C 
ATOM     36  CD2 LEU C  18     -13.866   5.894  -6.444  1.00 38.91 LIG 0.01  C 
ATOM     37  CD1 LEU C  18     -15.961   6.609  -7.634  1.00 36.98 LIG 0.01  C 
ENDBRANCH 34 35
ENDBRANCH 5 34
ENDBRANCH 3 5
BRANCH 1 38
ATOM     38  CA  PRO C  17     -11.654  10.249 -10.938  1.00 33.71 LIG 0.18  C 
ATOM     39  CB  PRO C  17     -11.407  11.667 -10.411  1.00 36.04 LIG 0.04  C 
ATOM     40  CG  PRO C  17     -12.593  12.497 -10.854  1.00 41.66 LIG 0.02  C 
ATOM     41  CD  PRO C  17     -13.539  11.622 -11.621  1.00 37.74 LIG 0.13  C 
ATOM     42  N   PRO C  17     -12.718  10.430 -11.931  1.00 35.06 LIG-0.34  N 
ATOM     43  C   ARG C  16     -12.803   9.569 -12.962  1.00 37.80 LIG 0.24  C 
ATOM     44 O    ARG C  16     -12.005   8.640 -13.062  1.00 34.25 LIG-0.27  OA
BRANCH 43 45
ATOM     45  CA  ARG C  16     -13.884   9.758 -14.043  1.00 39.10 LIG 0.18  C 
BRANCH 45 46
ATOM     46  CB  ARG C  16     -14.878   8.582 -14.006  1.00 42.59 LIG 0.04  C 
BRANCH 46 47
ATOM     47  CG  ARG C  16     -16.283   8.919 -14.495  1.00 54.51 LIG 0.02  C 
BRANCH 47 48
ATOM     48  CD  ARG C  16     -17.031   9.802 -13.516  1.00 71.70 LIG 0.14  C 
BRANCH 48 49
ATOM     49  NE  ARG C  16     -18.167  10.474 -14.158  1.00 86.72 LIG-0.23  N 
ATOM     50 HE   ARG C  16     -18.273  10.354 -15.002  1.00 86.72 LIG 0.18  HD
ATOM     51  CZ  ARG C  16     -19.043  11.252 -13.528  1.00 98.48 LIG 0.67  C 
ATOM     52  NH2 ARG C  16     -20.035  11.824 -14.200  1.00 86.10 LIG-0.23  N 
ATOM     53  NH1 ARG C  16     -18.930  11.473 -12.225  1.00 81.98 LIG-0.23  N 
ATOM     54 2HH2 ARG C  16     -20.598  12.327 -13.789  1.00 86.10 LIG 0.17  HD
ATOM     55 1HH2 ARG C  16     -20.113  11.692 -15.046  1.00 86.10 LIG 0.17  HD
ATOM     56 1HH1 ARG C  16     -18.287  11.112 -11.781  1.00 81.98 LIG 0.17  HD
ATOM     57 2HH1 ARG C  16     -19.499  11.977 -11.823  1.00 81.98 LIG 0.17  HD
ENDBRANCH 48 49
ENDBRANCH 47 48
ENDBRANCH 46 47
ENDBRANCH 45 46
BRANCH 45 58
ATOM     58  N   ARG C  16     -13.244   9.854 -15.360  1.00 40.87 LIG-0.35  N 
ATOM     59  C   PRO C  15     -12.415  10.851 -15.746  1.00 47.02 LIG 0.25  C 
ATOM     60 O    PRO C  15     -12.134  11.813 -15.030  1.00 46.36 LIG-0.27  OA
ATOM     61 H    ARG C  16     -13.450   9.201 -15.880  1.00 40.87 LIG 0.16  HD
BRANCH 59 62
ATOM     62  CA  PRO C  15     -11.777  10.727 -17.132  1.00 46.56 LIG 0.35  C 
ATOM     63  N   PRO C  15     -12.759  10.670 -18.224  1.00 47.38 LIG 0.32  N 
ATOM     64  CD  PRO C  15     -12.637  11.831 -19.126  1.00 49.28 LIG 0.32  C 
ATOM     65  CG  PRO C  15     -11.229  12.290 -18.897  1.00 53.38 LIG 0.04  C 
ATOM     66  CB  PRO C  15     -10.945  11.977 -17.464  1.00 48.49 LIG 0.05  C 
ENDBRANCH 59 62
ENDBRANCH 45 58
ENDBRANCH 43 45
ENDBRANCH 1 38
TORSDOF 18
ENDMDL
MODEL 53
USER: ADFR SOLUTION from run 77
USER: SCORE 21.429842 LL:  -4.669 LR: -18.420 RR:   0.000 FEB: -13.050
USER: RMSD 13.892890
USER: SEED 76
USER: STATUS no improvement in best in 16 clusters for 5 generations
USER: GENES 20
USER: genes 0 Translation |==|  0.45874 0.49113 0.52047
USER: genes 1 Rotation |==|  0.99124 0.43274 0.47725 0.56036
USER: genes 2 Torsion [C]-N--CA-[CB] |==|  0.23588
USER: genes 3 Torsion [N]-CA--C-[N] |==|  0.36748
USER: genes 4 Torsion [N]-CA--C-[O] |==|  0.80992
USER: genes 5 Torsion [C]-N--CA-[C] |==|  0.60064
USER: genes 6 Torsion [N]-CA--C-[N] |==|  0.40380
USER: genes 7 Torsion [N]-CA--C-[O] |==|  0.78705
USER: genes 8 Torsion [N]-CA--CB-[CG] |==|  0.37889
USER: genes 9 Torsion [CA]-CB--CG-[CD1] |==|  0.25181
USER: genes 10 Torsion [N]-CA--CB-[CG] |==|  0.75611
USER: genes 11 Torsion [CA]-CB--CG-[CD2] |==|  0.84394
USER: genes 12 Torsion [O]-C--CA-[CB] |==|  0.32796
USER: genes 13 Torsion [N]-C--CA-[N] |==|  0.83889
USER: genes 14 Torsion [C]-CA--CB-[CG] |==|  0.51608
USER: genes 15 Torsion [CA]-CB--CG-[CD] |==|  0.23020
USER: genes 16 Torsion [CB]-CG--CD-[NE] |==|  0.08070
USER: genes 17 Torsion [CG]-CD--NE-[HE] |==|  0.03839
USER: genes 18 Torsion [C]-CA--N-[C] |==|  0.66962
USER: genes 19 Torsion [N]-C--CA-[CB] |==|  0.51461
ROOT
ATOM      1  C   PRO C  17     -12.356   9.192  -9.664  1.00 34.10 LIG 0.24  C 
ATOM      2 O    PRO C  17     -13.551   8.922  -9.752  1.00 31.91 LIG-0.27  OA
ATOM      3  N   LEU C  18     -11.604   8.782  -8.660  1.00 30.88 LIG-0.35  N 
ATOM      4 H    LEU C  18     -10.782   9.015  -8.564  1.00 30.88 LIG 0.16  HD
ENDROOT
BRANCH 3 5
ATOM      5  CA  LEU C  18     -12.083   7.894  -7.610  1.00 30.78 LIG 0.18  C 
BRANCH 5 6
ATOM      6  C   LEU C  18     -11.344   8.052  -6.293  1.00 33.73 LIG 0.24  C 
ATOM      7  N   PRO C  19     -12.083   8.160  -5.158  1.00 33.17 LIG-0.34  N 
ATOM      8  CA  PRO C  19     -11.408   8.252  -3.846  1.00 33.85 LIG 0.18  C 
ATOM      9  CD  PRO C  19     -13.560   8.228  -5.022  1.00 35.22 LIG 0.13  C 
ATOM     10  CB  PRO C  19     -12.526   8.677  -2.890  1.00 35.69 LIG 0.04  C 
ATOM     11  CG  PRO C  19     -13.790   8.276  -3.544  1.00 39.92 LIG 0.02  C 
ATOM     12 O    LEU C  18     -10.113   7.977  -6.290  1.00 31.40 LIG-0.27  OA
BRANCH 8 13
ATOM     13  C   PRO C  19     -10.701   6.962  -3.403  1.00 39.47 LIG 0.24  C 
ATOM     14  N   PHE C  20      -9.367   6.992  -3.403  1.00 41.20 LIG-0.35  N 
ATOM     15 H    PHE C  20      -8.922   7.693  -3.631  1.00 41.20 LIG 0.16  HD
ATOM     16 O    PRO C  19     -11.339   5.958  -3.103  1.00 36.20 LIG-0.27  OA
BRANCH 14 17
ATOM     17  CA  PHE C  20      -8.507   5.871  -3.026  1.00 43.59 LIG 0.18  C 
BRANCH 17 18
ATOM     18  C   PHE C  20      -7.265   6.404  -2.289  1.00 48.54 LIG 0.24  C 
ATOM     19  N   PRO C  21      -6.712   5.682  -1.278  1.00 46.41 LIG-0.34  N 
ATOM     20  CA  PRO C  21      -5.484   6.167  -0.604  1.00 51.72 LIG 0.17  C 
ATOM     21  CD  PRO C  21      -7.171   4.411  -0.685  1.00 49.19 LIG 0.13  C 
ATOM     22  CB  PRO C  21      -5.183   5.072   0.433  1.00 52.56 LIG 0.04  C 
ATOM     23  CG  PRO C  21      -6.459   4.359   0.633  1.00 54.82 LIG 0.02  C 
ATOM     24 O    PHE C  20      -6.784   7.477  -2.661  1.00 48.67 LIG-0.27  OA
BRANCH 20 25
ATOM     25  C   PRO C  21      -4.290   6.353  -1.542  1.00 87.57 LIG 0.22  C 
ATOM     26 O    PRO C  21      -3.657   5.373  -1.932  1.00 58.80 LIG-0.29  OA
ENDBRANCH 20 25
ENDBRANCH 17 18
BRANCH 17 27
ATOM     27  CB  PHE C  20      -8.109   5.084  -4.301  1.00 46.79 LIG 0.07  C 
BRANCH 27 28
ATOM     28  CG  PHE C  20      -6.662   4.651  -4.429  1.00 50.46 LIG-0.06  A 
ATOM     29  CD2 PHE C  20      -5.730   5.458  -5.075  1.00 54.33 LIG 0.01  A 
ATOM     30  CE2 PHE C  20      -4.393   5.056  -5.192  1.00 57.68 LIG 0.00  A 
ATOM     31  CZ  PHE C  20      -3.991   3.834  -4.686  1.00 55.81 LIG 0.00  A 
ATOM     32  CE1 PHE C  20      -4.904   3.015  -4.056  1.00 56.05 LIG 0.00  A 
ATOM     33  CD1 PHE C  20      -6.242   3.413  -3.948  1.00 54.84 LIG 0.01  A 
ENDBRANCH 27 28
ENDBRANCH 17 27
ENDBRANCH 14 17
ENDBRANCH 8 13
ENDBRANCH 5 6
BRANCH 5 34
ATOM     34  CB  LEU C  18     -11.949   6.448  -8.082  1.00 31.46 LIG 0.04  C 
BRANCH 34 35
ATOM     35  CG  LEU C  18     -13.114   5.885  -8.855  1.00 36.62 LIG-0.02  C 
ATOM     36  CD2 LEU C  18     -14.390   6.009  -8.036  1.00 38.91 LIG 0.01  C 
ATOM     37  CD1 LEU C  18     -12.841   4.424  -9.220  1.00 36.98 LIG 0.01  C 
ENDBRANCH 34 35
ENDBRANCH 5 34
ENDBRANCH 3 5
BRANCH 1 38
ATOM     38  CA  PRO C  17     -11.657  10.098 -10.669  1.00 33.71 LIG 0.18  C 
ATOM     39  CB  PRO C  17     -11.090  11.369 -10.029  1.00 36.04 LIG 0.04  C 
ATOM     40  CG  PRO C  17     -11.948  12.514 -10.524  1.00 41.66 LIG 0.02  C 
ATOM     41  CD  PRO C  17     -13.008  11.968 -11.432  1.00 37.74 LIG 0.13  C 
ATOM     42  N   PRO C  17     -12.517  10.607 -11.742  1.00 35.06 LIG-0.34  N 
ATOM     43  C   ARG C  16     -12.724   9.843 -12.832  1.00 37.80 LIG 0.24  C 
ATOM     44 O    ARG C  16     -12.205   8.732 -12.918  1.00 34.25 LIG-0.27  OA
BRANCH 43 45
ATOM     45  CA  ARG C  16     -13.588  10.368 -13.994  1.00 39.10 LIG 0.18  C 
BRANCH 45 46
ATOM     46  CB  ARG C  16     -12.922  11.602 -14.630  1.00 42.59 LIG 0.04  C 
BRANCH 46 47
ATOM     47  CG  ARG C  16     -13.756  12.294 -15.703  1.00 54.51 LIG 0.02  C 
BRANCH 47 48
ATOM     48  CD  ARG C  16     -14.774  13.248 -15.110  1.00 71.70 LIG 0.14  C 
BRANCH 48 49
ATOM     49  NE  ARG C  16     -14.311  13.799 -13.832  1.00 86.72 LIG-0.23  N 
ATOM     50 HE   ARG C  16     -13.482  13.696 -13.631  1.00 86.72 LIG 0.18  HD
ATOM     51  CZ  ARG C  16     -15.082  14.448 -12.961  1.00 98.48 LIG 0.67  C 
ATOM     52  NH2 ARG C  16     -14.571  14.903 -11.824  1.00 86.10 LIG-0.23  N 
ATOM     53  NH1 ARG C  16     -16.370  14.638 -13.217  1.00 81.98 LIG-0.23  N 
ATOM     54 2HH2 ARG C  16     -15.073  15.321 -11.265  1.00 86.10 LIG 0.17  HD
ATOM     55 1HH2 ARG C  16     -13.739  14.779 -11.646  1.00 86.10 LIG 0.17  HD
ATOM     56 1HH1 ARG C  16     -16.712  14.342 -13.948  1.00 81.98 LIG 0.17  HD
ATOM     57 2HH1 ARG C  16     -16.862  15.057 -12.651  1.00 81.98 LIG 0.17  HD
ENDBRANCH 48 49
ENDBRANCH 47 48
ENDBRANCH 46 47
ENDBRANCH 45 46
BRANCH 45 58
ATOM     58  N   ARG C  16     -14.926  10.702 -13.494  1.00 40.87 LIG-0.35  N 
ATOM     59  C   PRO C  15     -16.076  10.123 -13.913  1.00 47.02 LIG 0.25  C 
ATOM     60 O    PRO C  15     -16.119   9.266 -14.796  1.00 46.36 LIG-0.27  OA
ATOM     61 H    ARG C  16     -14.915  11.316 -12.893  1.00 40.87 LIG 0.16  HD
BRANCH 59 62
ATOM     62  CA  PRO C  15     -17.365  10.547 -13.205  1.00 46.56 LIG 0.35  C 
ATOM     63  N   PRO C  15     -17.768  11.929 -13.502  1.00 47.38 LIG 0.32  N 
ATOM     64  CD  PRO C  15     -19.060  11.977 -14.213  1.00 49.28 LIG 0.32  C 
ATOM     65  CG  PRO C  15     -19.695  10.670 -13.849  1.00 53.38 LIG 0.04  C 
ATOM     66  CB  PRO C  15     -18.558   9.712 -13.699  1.00 48.49 LIG 0.05  C 
ENDBRANCH 59 62
ENDBRANCH 45 58
ENDBRANCH 43 45
ENDBRANCH 1 38
TORSDOF 18
ENDMDL
MODEL 54
USER: ADFR SOLUTION from run 68
USER: SCORE 22.863396 LL:  -5.247 LR: -18.397 RR:   0.000 FEB: -13.028
USER: RMSD 13.083673
USER: SEED 67
USER: STATUS searching
USER: GENES 20
USER: genes 0 Translation |==|  0.42981 0.48443 0.46634
USER: genes 1 Rotation |==|  0.93054 0.35707 0.37706 0.67056
USER: genes 2 Torsion [C]-N--CA-[CB] |==|  0.77074
USER: genes 3 Torsion [N]-CA--C-[N] |==|  0.24378
USER: genes 4 Torsion [N]-CA--C-[O] |==|  0.74416
USER: genes 5 Torsion [C]-N--CA-[C] |==|  0.64956
USER: genes 6 Torsion [N]-CA--C-[N] |==|  0.20205
USER: genes 7 Torsion [N]-CA--C-[O] |==|  0.73080
USER: genes 8 Torsion [N]-CA--CB-[CG] |==|  0.81902
USER: genes 9 Torsion [CA]-CB--CG-[CD1] |==|  0.67351
USER: genes 10 Torsion [N]-CA--CB-[CG] |==|  0.98251
USER: genes 11 Torsion [CA]-CB--CG-[CD2] |==|  0.74423
USER: genes 12 Torsion [O]-C--CA-[CB] |==|  0.34903
USER: genes 13 Torsion [N]-C--CA-[N] |==|  0.89491
USER: genes 14 Torsion [C]-CA--CB-[CG] |==|  0.85325
USER: genes 15 Torsion [CA]-CB--CG-[CD] |==|  0.62475
USER: genes 16 Torsion [CB]-CG--CD-[NE] |==|  0.45541
USER: genes 17 Torsion [CG]-CD--NE-[HE] |==|  0.66026
USER: genes 18 Torsion [C]-CA--N-[C] |==|  0.81115
USER: genes 19 Torsion [N]-C--CA-[CB] |==|  0.06408
ROOT
ATOM      1  C   PRO C  17     -12.876   9.072 -11.410  1.00 34.10 LIG 0.24  C 
ATOM      2 O    PRO C  17     -13.995   9.324 -10.966  1.00 31.91 LIG-0.27  OA
ATOM      3  N   LEU C  18     -11.865   8.724 -10.637  1.00 30.88 LIG-0.35  N 
ATOM      4 H    LEU C  18     -11.068   8.602 -10.936  1.00 30.88 LIG 0.16  HD
ENDROOT
BRANCH 3 5
ATOM      5  CA  LEU C  18     -11.988   8.511  -9.202  1.00 30.78 LIG 0.18  C 
BRANCH 5 6
ATOM      6  C   LEU C  18     -13.274   7.811  -8.798  1.00 33.73 LIG 0.24  C 
ATOM      7  N   PRO C  19     -13.280   6.452  -8.786  1.00 33.17 LIG-0.34  N 
ATOM      8  CA  PRO C  19     -14.488   5.727  -8.338  1.00 33.85 LIG 0.18  C 
ATOM      9  CD  PRO C  19     -12.201   5.520  -9.199  1.00 35.22 LIG 0.13  C 
ATOM     10  CB  PRO C  19     -14.224   4.280  -8.767  1.00 35.69 LIG 0.04  C 
ATOM     11  CG  PRO C  19     -12.756   4.162  -8.904  1.00 39.92 LIG 0.02  C 
ATOM     12 O    LEU C  18     -14.223   8.492  -8.405  1.00 31.40 LIG-0.27  OA
BRANCH 8 13
ATOM     13  C   PRO C  19     -14.791   5.859  -6.838  1.00 39.47 LIG 0.24  C 
ATOM     14  N   PHE C  20     -15.503   6.927  -6.473  1.00 41.20 LIG-0.35  N 
ATOM     15 H    PHE C  20     -15.785   7.508  -7.042  1.00 41.20 LIG 0.16  HD
ATOM     16 O    PRO C  19     -14.366   5.041  -6.029  1.00 36.20 LIG-0.27  OA
BRANCH 14 17
ATOM     17  CA  PHE C  20     -15.889   7.242  -5.098  1.00 43.59 LIG 0.18  C 
BRANCH 17 18
ATOM     18  C   PHE C  20     -17.413   7.446  -5.029  1.00 48.54 LIG 0.24  C 
ATOM     19  N   PRO C  21     -18.247   6.377  -5.128  1.00 46.41 LIG-0.34  N 
ATOM     20  CA  PRO C  21     -19.713   6.563  -5.006  1.00 51.72 LIG 0.17  C 
ATOM     21  CD  PRO C  21     -17.915   4.959  -5.369  1.00 49.19 LIG 0.13  C 
ATOM     22  CB  PRO C  21     -20.273   5.138  -5.147  1.00 52.56 LIG 0.04  C 
ATOM     23  CG  PRO C  21     -19.214   4.365  -5.824  1.00 54.82 LIG 0.02  C 
ATOM     24 O    PHE C  20     -17.840   8.590  -4.856  1.00 48.67 LIG-0.27  OA
BRANCH 20 25
ATOM     25  C   PRO C  21     -20.155   7.179  -3.677  1.00 87.57 LIG 0.22  C 
ATOM     26 O    PRO C  21     -20.543   6.453  -2.764  1.00 58.80 LIG-0.29  OA
ENDBRANCH 20 25
ENDBRANCH 17 18
BRANCH 17 27
ATOM     27  CB  PHE C  20     -15.131   8.513  -4.637  1.00 46.79 LIG 0.07  C 
BRANCH 27 28
ATOM     28  CG  PHE C  20     -13.622   8.421  -4.518  1.00 50.46 LIG-0.06  A 
ATOM     29  CD2 PHE C  20     -12.837   8.109  -5.624  1.00 54.33 LIG 0.01  A 
ATOM     30  CE2 PHE C  20     -11.443   8.026  -5.513  1.00 57.68 LIG 0.00  A 
ATOM     31  CZ  PHE C  20     -10.833   8.228  -4.288  1.00 55.81 LIG 0.00  A 
ATOM     32  CE1 PHE C  20     -11.596   8.523  -3.179  1.00 56.05 LIG 0.00  A 
ATOM     33  CD1 PHE C  20     -12.991   8.597  -3.289  1.00 54.84 LIG 0.01  A 
ENDBRANCH 27 28
ENDBRANCH 17 27
ENDBRANCH 14 17
ENDBRANCH 8 13
ENDBRANCH 5 6
BRANCH 5 34
ATOM     34  CB  LEU C  18     -11.914   9.860  -8.490  1.00 31.46 LIG 0.04  C 
BRANCH 34 35
ATOM     35  CG  LEU C  18     -11.593  11.054  -9.351  1.00 36.62 LIG-0.02  C 
ATOM     36  CD2 LEU C  18     -10.091  11.295  -9.367  1.00 38.91 LIG 0.01  C 
ATOM     37  CD1 LEU C  18     -12.337  12.287  -8.831  1.00 36.98 LIG 0.01  C 
ENDBRANCH 34 35
ENDBRANCH 5 34
ENDBRANCH 3 5
BRANCH 1 38
ATOM     38  CA  PRO C  17     -12.543   9.220 -12.888  1.00 33.71 LIG 0.18  C 
ATOM     39  CB  PRO C  17     -11.326  10.117 -13.135  1.00 36.04 LIG 0.04  C 
ATOM     40  CG  PRO C  17     -11.856  11.391 -13.759  1.00 41.66 LIG 0.02  C 
ATOM     41  CD  PRO C  17     -13.346  11.284 -13.887  1.00 37.74 LIG 0.13  C 
ATOM     42  N   PRO C  17     -13.597   9.838 -13.699  1.00 35.06 LIG-0.34  N 
ATOM     43  C   ARG C  16     -14.592   9.067 -14.176  1.00 37.80 LIG 0.24  C 
ATOM     44 O    ARG C  16     -14.619   7.864 -13.926  1.00 34.25 LIG-0.27  OA
BRANCH 43 45
ATOM     45  CA  ARG C  16     -15.690   9.680 -15.065  1.00 39.10 LIG 0.18  C 
BRANCH 45 46
ATOM     46  CB  ARG C  16     -15.212   9.737 -16.528  1.00 42.59 LIG 0.04  C 
BRANCH 46 47
ATOM     47  CG  ARG C  16     -13.866  10.423 -16.732  1.00 54.51 LIG 0.02  C 
BRANCH 47 48
ATOM     48  CD  ARG C  16     -13.886  11.385 -17.904  1.00 71.70 LIG 0.14  C 
BRANCH 48 49
ATOM     49  NE  ARG C  16     -12.743  12.304 -17.864  1.00 86.72 LIG-0.23  N 
ATOM     50 HE   ARG C  16     -12.910  13.147 -17.848  1.00 86.72 LIG 0.18  HD
ATOM     51  CZ  ARG C  16     -11.466  11.927 -17.851  1.00 98.48 LIG 0.67  C 
ATOM     52  NH2 ARG C  16     -10.500  12.837 -17.824  1.00 86.10 LIG-0.23  N 
ATOM     53  NH1 ARG C  16     -11.146  10.640 -17.875  1.00 81.98 LIG-0.23  N 
ATOM     54 2HH2 ARG C  16      -9.677  12.589 -17.816  1.00 86.10 LIG 0.17  HD
ATOM     55 1HH2 ARG C  16     -10.697  13.674 -17.815  1.00 86.10 LIG 0.17  HD
ATOM     56 1HH1 ARG C  16     -11.765  10.043 -17.898  1.00 81.98 LIG 0.17  HD
ATOM     57 2HH1 ARG C  16     -10.320  10.403 -17.866  1.00 81.98 LIG 0.17  HD
ENDBRANCH 48 49
ENDBRANCH 47 48
ENDBRANCH 46 47
ENDBRANCH 45 46
BRANCH 45 58
ATOM     58  N   ARG C  16     -16.020  11.023 -14.576  1.00 40.87 LIG-0.35  N 
ATOM     59  C   PRO C  15     -16.634  11.289 -13.400  1.00 47.02 LIG 0.25  C 
ATOM     60 O    PRO C  15     -17.016  10.413 -12.622  1.00 46.36 LIG-0.27  OA
ATOM     61 H    ARG C  16     -15.782  11.644 -15.120  1.00 40.87 LIG 0.16  HD
BRANCH 59 62
ATOM     62  CA  PRO C  15     -16.813  12.762 -13.026  1.00 46.56 LIG 0.35  C 
ATOM     63  N   PRO C  15     -15.718  13.293 -12.202  1.00 47.38 LIG 0.32  N 
ATOM     64  CD  PRO C  15     -14.981  14.363 -12.902  1.00 49.28 LIG 0.32  C 
ATOM     65  CG  PRO C  15     -15.974  14.853 -13.911  1.00 53.38 LIG 0.04  C 
ATOM     66  CB  PRO C  15     -16.780  13.651 -14.281  1.00 48.49 LIG 0.05  C 
ENDBRANCH 59 62
ENDBRANCH 45 58
ENDBRANCH 43 45
ENDBRANCH 1 38
TORSDOF 18
ENDMDL
MODEL 55
USER: ADFR SOLUTION from run 14
USER: SCORE 21.744793 LL:  -5.060 LR: -18.402 RR:   0.000 FEB: -13.032
USER: RMSD 12.891319
USER: SEED 918875
USER: STATUS no improvement in best in 18 clusters for 5 generations
USER: GENES 20
USER: genes 0 Translation |==|  0.45051 0.49133 0.50156
USER: genes 1 Rotation |==|  0.98979 0.42711 0.48636 0.56783
USER: genes 2 Torsion [C]-N--CA-[CB] |==|  0.24659
USER: genes 3 Torsion [N]-CA--C-[N] |==|  0.41306
USER: genes 4 Torsion [N]-CA--C-[O] |==|  0.54320
USER: genes 5 Torsion [C]-N--CA-[C] |==|  0.80907
USER: genes 6 Torsion [N]-CA--C-[N] |==|  0.45535
USER: genes 7 Torsion [N]-CA--C-[O] |==|  0.71187
USER: genes 8 Torsion [N]-CA--CB-[CG] |==|  0.81545
USER: genes 9 Torsion [CA]-CB--CG-[CD1] |==|  0.52495
USER: genes 10 Torsion [N]-CA--CB-[CG] |==|  0.73132
USER: genes 11 Torsion [CA]-CB--CG-[CD2] |==|  0.81502
USER: genes 12 Torsion [O]-C--CA-[CB] |==|  0.34530
USER: genes 13 Torsion [N]-C--CA-[N] |==|  0.81667
USER: genes 14 Torsion [C]-CA--CB-[CG] |==|  0.52760
USER: genes 15 Torsion [CA]-CB--CG-[CD] |==|  0.22915
USER: genes 16 Torsion [CB]-CG--CD-[NE] |==|  0.08557
USER: genes 17 Torsion [CG]-CD--NE-[HE] |==|  0.02911
USER: genes 18 Torsion [C]-CA--N-[C] |==|  0.84699
USER: genes 19 Torsion [N]-C--CA-[CB] |==|  0.32727
ROOT
ATOM      1  C   PRO C  17     -12.504   9.196 -10.274  1.00 34.10 LIG 0.24  C 
ATOM      2 O    PRO C  17     -13.701   8.942 -10.394  1.00 31.91 LIG-0.27  OA
ATOM      3  N   LEU C  18     -11.794   8.810  -9.230  1.00 30.88 LIG-0.35  N 
ATOM      4 H    LEU C  18     -10.972   9.032  -9.115  1.00 30.88 LIG 0.16  HD
ENDROOT
BRANCH 3 5
ATOM      5  CA  LEU C  18     -12.324   7.968  -8.167  1.00 30.78 LIG 0.18  C 
BRANCH 5 6
ATOM      6  C   LEU C  18     -11.691   8.228  -6.811  1.00 33.73 LIG 0.24  C 
ATOM      7  N   PRO C  19     -12.458   8.041  -5.705  1.00 33.17 LIG-0.34  N 
ATOM      8  CA  PRO C  19     -11.867   8.219  -4.362  1.00 33.85 LIG 0.18  C 
ATOM      9  CD  PRO C  19     -13.897   7.684  -5.630  1.00 35.22 LIG 0.13  C 
ATOM     10  CB  PRO C  19     -13.082   8.243  -3.430  1.00 35.69 LIG 0.04  C 
ATOM     11  CG  PRO C  19     -14.167   7.555  -4.163  1.00 39.92 LIG 0.02  C 
ATOM     12 O    LEU C  18     -10.489   8.499  -6.759  1.00 31.40 LIG-0.27  OA
BRANCH 8 13
ATOM     13  C   PRO C  19     -10.837   7.148  -3.972  1.00 39.47 LIG 0.24  C 
ATOM     14  N   PHE C  20     -10.391   6.372  -4.962  1.00 41.20 LIG-0.35  N 
ATOM     15 H    PHE C  20     -10.657   6.466  -5.775  1.00 41.20 LIG 0.16  HD
ATOM     16 O    PRO C  19     -10.480   7.002  -2.807  1.00 36.20 LIG-0.27  OA
BRANCH 14 17
ATOM     17  CA  PHE C  20      -9.420   5.291  -4.802  1.00 43.59 LIG 0.18  C 
BRANCH 17 18
ATOM     18  C   PHE C  20      -8.043   5.888  -4.459  1.00 48.54 LIG 0.24  C 
ATOM     19  N   PRO C  21      -7.066   5.093  -3.947  1.00 46.41 LIG-0.34  N 
ATOM     20  CA  PRO C  21      -5.722   5.654  -3.668  1.00 51.72 LIG 0.17  C 
ATOM     21  CD  PRO C  21      -7.127   3.665  -3.581  1.00 49.19 LIG 0.13  C 
ATOM     22  CB  PRO C  21      -4.929   4.448  -3.137  1.00 52.56 LIG 0.04  C 
ATOM     23  CG  PRO C  21      -5.944   3.481  -2.678  1.00 54.82 LIG 0.02  C 
ATOM     24 O    PHE C  20      -7.855   7.085  -4.689  1.00 48.67 LIG-0.27  OA
BRANCH 20 25
ATOM     25  C   PRO C  21      -5.027   6.248  -4.895  1.00 87.57 LIG 0.22  C 
ATOM     26 O    PRO C  21      -4.122   5.626  -5.449  1.00 58.80 LIG-0.29  OA
ENDBRANCH 20 25
ENDBRANCH 17 18
BRANCH 17 27
ATOM     27  CB  PHE C  20      -9.363   4.460  -6.109  1.00 46.79 LIG 0.07  C 
BRANCH 27 28
ATOM     28  CG  PHE C  20     -10.600   3.671  -6.489  1.00 50.46 LIG-0.06  A 
ATOM     29  CD2 PHE C  20     -11.781   3.803  -5.763  1.00 54.33 LIG 0.01  A 
ATOM     30  CE2 PHE C  20     -12.924   3.073  -6.116  1.00 57.68 LIG 0.00  A 
ATOM     31  CZ  PHE C  20     -12.881   2.189  -7.178  1.00 55.81 LIG 0.00  A 
ATOM     32  CE1 PHE C  20     -11.716   2.036  -7.899  1.00 56.05 LIG 0.00  A 
ATOM     33  CD1 PHE C  20     -10.571   2.758  -7.540  1.00 54.84 LIG 0.01  A 
ENDBRANCH 27 28
ENDBRANCH 17 27
ENDBRANCH 14 17
ENDBRANCH 8 13
ENDBRANCH 5 6
BRANCH 5 34
ATOM     34  CB  LEU C  18     -12.113   6.503  -8.539  1.00 31.46 LIG 0.04  C 
BRANCH 34 35
ATOM     35  CG  LEU C  18     -13.283   5.799  -9.176  1.00 36.62 LIG-0.02  C 
ATOM     36  CD2 LEU C  18     -14.420   5.670  -8.175  1.00 38.91 LIG 0.01  C 
ATOM     37  CD1 LEU C  18     -12.848   4.422  -9.687  1.00 36.98 LIG 0.01  C 
ENDBRANCH 34 35
ENDBRANCH 5 34
ENDBRANCH 3 5
BRANCH 1 38
ATOM     38  CA  PRO C  17     -11.756  10.053 -11.286  1.00 33.71 LIG 0.18  C 
ATOM     39  CB  PRO C  17     -11.059  11.257 -10.644  1.00 36.04 LIG 0.04  C 
ATOM     40  CG  PRO C  17     -11.825  12.482 -11.098  1.00 41.66 LIG 0.02  C 
ATOM     41  CD  PRO C  17     -12.955  12.048 -11.982  1.00 37.74 LIG 0.13  C 
ATOM     42  N   PRO C  17     -12.597  10.654 -12.326  1.00 35.06 LIG-0.34  N 
ATOM     43  C   ARG C  16     -12.901   9.930 -13.420  1.00 37.80 LIG 0.24  C 
ATOM     44 O    ARG C  16     -12.487   8.780 -13.538  1.00 34.25 LIG-0.27  OA
BRANCH 43 45
ATOM     45  CA  ARG C  16     -13.748  10.550 -14.548  1.00 39.10 LIG 0.18  C 
BRANCH 45 46
ATOM     46  CB  ARG C  16     -13.087  11.847 -15.050  1.00 42.59 LIG 0.04  C 
BRANCH 46 47
ATOM     47  CG  ARG C  16     -13.948  12.675 -15.999  1.00 54.51 LIG 0.02  C 
BRANCH 47 48
ATOM     48  CD  ARG C  16     -14.936  13.552 -15.255  1.00 71.70 LIG 0.14  C 
BRANCH 48 49
ATOM     49  NE  ARG C  16     -14.410  13.966 -13.950  1.00 86.72 LIG-0.23  N 
ATOM     50 HE   ARG C  16     -13.580  13.809 -13.787  1.00 86.72 LIG 0.18  HD
ATOM     51  CZ  ARG C  16     -15.122  14.568 -13.000  1.00 98.48 LIG 0.67  C 
ATOM     52  NH2 ARG C  16     -14.556  14.897 -11.845  1.00 86.10 LIG-0.23  N 
ATOM     53  NH1 ARG C  16     -16.407  14.837 -13.193  1.00 81.98 LIG-0.23  N 
ATOM     54 2HH2 ARG C  16     -15.020  15.285 -11.235  1.00 86.10 LIG 0.17  HD
ATOM     55 1HH2 ARG C  16     -13.726  14.721 -11.708  1.00 86.10 LIG 0.17  HD
ATOM     56 1HH1 ARG C  16     -16.784  14.622 -13.935  1.00 81.98 LIG 0.17  HD
ATOM     57 2HH1 ARG C  16     -16.862  15.226 -12.576  1.00 81.98 LIG 0.17  HD
ENDBRANCH 48 49
ENDBRANCH 47 48
ENDBRANCH 46 47
ENDBRANCH 45 46
BRANCH 45 58
ATOM     58  N   ARG C  16     -15.101  10.817 -14.051  1.00 40.87 LIG-0.35  N 
ATOM     59  C   PRO C  15     -15.913   9.896 -13.481  1.00 47.02 LIG 0.25  C 
ATOM     60 O    PRO C  15     -15.604   8.712 -13.350  1.00 46.36 LIG-0.27  OA
ATOM     61 H    ARG C  16     -15.341  11.636 -14.158  1.00 40.87 LIG 0.16  HD
BRANCH 59 62
ATOM     62  CA  PRO C  15     -17.258  10.392 -12.945  1.00 46.56 LIG 0.35  C 
ATOM     63  N   PRO C  15     -17.489  11.825 -13.179  1.00 47.38 LIG 0.32  N 
ATOM     64  CD  PRO C  15     -18.640  12.051 -14.073  1.00 49.28 LIG 0.32  C 
ATOM     65  CG  PRO C  15     -19.435  10.790 -13.926  1.00 53.38 LIG 0.04  C 
ATOM     66  CB  PRO C  15     -18.423   9.716 -13.688  1.00 48.49 LIG 0.05  C 
ENDBRANCH 59 62
ENDBRANCH 45 58
ENDBRANCH 43 45
ENDBRANCH 1 38
TORSDOF 18
ENDMDL
MODEL 56
USER: ADFR SOLUTION from run 91
USER: SCORE 23.671366 LL:  -5.915 LR: -18.401 RR:   0.000 FEB: -13.032
USER: RMSD 12.541276
USER: SEED 90
USER: STATUS searching
USER: GENES 20
USER: genes 0 Translation |==|  0.45518 0.50258 0.51211
USER: genes 1 Rotation |==|  0.98930 0.42258 0.43458 0.51768
USER: genes 2 Torsion [C]-N--CA-[CB] |==|  0.81416
USER: genes 3 Torsion [N]-CA--C-[N] |==|  0.32942
USER: genes 4 Torsion [N]-CA--C-[O] |==|  0.56224
USER: genes 5 Torsion [C]-N--CA-[C] |==|  0.55754
USER: genes 6 Torsion [N]-CA--C-[N] |==|  0.49264
USER: genes 7 Torsion [N]-CA--C-[O] |==|  0.96244
USER: genes 8 Torsion [N]-CA--CB-[CG] |==|  0.12620
USER: genes 9 Torsion [CA]-CB--CG-[CD1] |==|  0.27422
USER: genes 10 Torsion [N]-CA--CB-[CG] |==|  0.61371
USER: genes 11 Torsion [CA]-CB--CG-[CD2] |==|  0.47365
USER: genes 12 Torsion [O]-C--CA-[CB] |==|  0.27776
USER: genes 13 Torsion [N]-C--CA-[N] |==|  0.85579
USER: genes 14 Torsion [C]-CA--CB-[CG] |==|  0.53483
USER: genes 15 Torsion [CA]-CB--CG-[CD] |==|  0.22073
USER: genes 16 Torsion [CB]-CG--CD-[NE] |==|  0.08051
USER: genes 17 Torsion [CG]-CD--NE-[HE] |==|  0.02651
USER: genes 18 Torsion [C]-CA--N-[C] |==|  0.80562
USER: genes 19 Torsion [N]-C--CA-[CB] |==|  0.36058
ROOT
ATOM      1  C   PRO C  17     -12.420   9.398  -9.933  1.00 34.10 LIG 0.24  C 
ATOM      2 O    PRO C  17     -13.635   9.217  -9.894  1.00 31.91 LIG-0.27  OA
ATOM      3  N   LEU C  18     -11.578   8.762  -9.141  1.00 30.88 LIG-0.35  N 
ATOM      4 H    LEU C  18     -10.735   8.926  -9.125  1.00 30.88 LIG 0.16  HD
ENDROOT
BRANCH 3 5
ATOM      5  CA  LEU C  18     -11.985   7.718  -8.212  1.00 30.78 LIG 0.18  C 
BRANCH 5 6
ATOM      6  C   LEU C  18     -12.749   6.581  -8.869  1.00 33.73 LIG 0.24  C 
ATOM      7  N   PRO C  19     -12.211   5.335  -8.810  1.00 33.17 LIG-0.34  N 
ATOM      8  CA  PRO C  19     -12.948   4.187  -9.379  1.00 33.85 LIG 0.18  C 
ATOM      9  CD  PRO C  19     -10.901   4.922  -8.245  1.00 35.22 LIG 0.13  C 
ATOM     10  CB  PRO C  19     -11.907   3.064  -9.409  1.00 35.69 LIG 0.04  C 
ATOM     11  CG  PRO C  19     -10.886   3.434  -8.405  1.00 39.92 LIG 0.02  C 
ATOM     12 O    LEU C  18     -13.865   6.811  -9.341  1.00 31.40 LIG-0.27  OA
BRANCH 8 13
ATOM     13  C   PRO C  19     -14.220   3.802  -8.608  1.00 39.47 LIG 0.24  C 
ATOM     14  N   PHE C  20     -14.739   4.746  -7.821  1.00 41.20 LIG-0.35  N 
ATOM     15 H    PHE C  20     -14.390   5.529  -7.750  1.00 41.20 LIG 0.16  HD
ATOM     16 O    PRO C  19     -14.699   2.676  -8.694  1.00 36.20 LIG-0.27  OA
BRANCH 14 17
ATOM     17  CA  PHE C  20     -15.937   4.579  -6.998  1.00 43.59 LIG 0.18  C 
BRANCH 17 18
ATOM     18  C   PHE C  20     -16.518   5.963  -6.655  1.00 48.54 LIG 0.24  C 
ATOM     19  N   PRO C  21     -17.670   6.058  -5.939  1.00 46.41 LIG-0.34  N 
ATOM     20  CA  PRO C  21     -18.202   7.389  -5.561  1.00 51.72 LIG 0.17  C 
ATOM     21  CD  PRO C  21     -18.553   4.980  -5.453  1.00 49.19 LIG 0.13  C 
ATOM     22  CB  PRO C  21     -19.471   7.057  -4.758  1.00 52.56 LIG 0.04  C 
ATOM     23  CG  PRO C  21     -19.842   5.686  -5.157  1.00 54.82 LIG 0.02  C 
ATOM     24 O    PHE C  20     -15.897   6.962  -7.024  1.00 48.67 LIG-0.27  OA
BRANCH 20 25
ATOM     25  C   PRO C  21     -17.242   8.227  -4.715  1.00 87.57 LIG 0.22  C 
ATOM     26 O    PRO C  21     -16.256   7.700  -4.202  1.00 58.80 LIG-0.29  OA
ENDBRANCH 20 25
ENDBRANCH 17 18
BRANCH 17 27
ATOM     27  CB  PHE C  20     -15.566   3.792  -5.715  1.00 46.79 LIG 0.07  C 
BRANCH 27 28
ATOM     28  CG  PHE C  20     -14.308   4.210  -4.980  1.00 50.46 LIG-0.06  A 
ATOM     29  CD2 PHE C  20     -13.060   3.737  -5.375  1.00 54.33 LIG 0.01  A 
ATOM     30  CE2 PHE C  20     -11.898   4.125  -4.694  1.00 57.68 LIG 0.00  A 
ATOM     31  CZ  PHE C  20     -11.985   4.966  -3.601  1.00 55.81 LIG 0.00  A 
ATOM     32  CE1 PHE C  20     -13.214   5.433  -3.187  1.00 56.05 LIG 0.00  A 
ATOM     33  CD1 PHE C  20     -14.376   5.037  -3.861  1.00 54.84 LIG 0.01  A 
ENDBRANCH 27 28
ENDBRANCH 17 27
ENDBRANCH 14 17
ENDBRANCH 8 13
ENDBRANCH 5 6
BRANCH 5 34
ATOM     34  CB  LEU C  18     -12.857   8.334  -7.121  1.00 31.46 LIG 0.04  C 
BRANCH 34 35
ATOM     35  CG  LEU C  18     -12.619   7.841  -5.717  1.00 36.62 LIG-0.02  C 
ATOM     36  CD2 LEU C  18     -13.386   8.704  -4.726  1.00 38.91 LIG 0.01  C 
ATOM     37  CD1 LEU C  18     -11.119   7.857  -5.407  1.00 36.98 LIG 0.01  C 
ENDBRANCH 34 35
ENDBRANCH 5 34
ENDBRANCH 3 5
BRANCH 1 38
ATOM     38  CA  PRO C  17     -11.789  10.439 -10.848  1.00 33.71 LIG 0.18  C 
ATOM     39  CB  PRO C  17     -11.431  11.736 -10.114  1.00 36.04 LIG 0.04  C 
ATOM     40  CG  PRO C  17     -12.402  12.787 -10.610  1.00 41.66 LIG 0.02  C 
ATOM     41  CD  PRO C  17     -13.327  12.160 -11.609  1.00 37.74 LIG 0.13  C 
ATOM     42  N   PRO C  17     -12.645  10.892 -11.950  1.00 35.06 LIG-0.34  N 
ATOM     43  C   ARG C  16     -12.686  10.168 -13.085  1.00 37.80 LIG 0.24  C 
ATOM     44 O    ARG C  16     -12.022   9.139 -13.189  1.00 34.25 LIG-0.27  OA
BRANCH 43 45
ATOM     45  CA  ARG C  16     -13.543  10.641 -14.275  1.00 39.10 LIG 0.18  C 
BRANCH 45 46
ATOM     46  CB  ARG C  16     -12.920  11.901 -14.904  1.00 42.59 LIG 0.04  C 
BRANCH 46 47
ATOM     47  CG  ARG C  16     -13.825  12.634 -15.889  1.00 54.51 LIG 0.02  C 
BRANCH 47 48
ATOM     48  CD  ARG C  16     -14.854  13.499 -15.187  1.00 71.70 LIG 0.14  C 
BRANCH 48 49
ATOM     49  NE  ARG C  16     -14.361  13.972 -13.889  1.00 86.72 LIG-0.23  N 
ATOM     50 HE   ARG C  16     -13.531  13.838 -13.705  1.00 86.72 LIG 0.18  HD
ATOM     51  CZ  ARG C  16     -15.103  14.594 -12.976  1.00 98.48 LIG 0.67  C 
ATOM     52  NH2 ARG C  16     -14.566  14.977 -11.824  1.00 86.10 LIG-0.23  N 
ATOM     53  NH1 ARG C  16     -16.389  14.829 -13.203  1.00 81.98 LIG-0.23  N 
ATOM     54 2HH2 ARG C  16     -15.049  15.378 -11.237  1.00 86.10 LIG 0.17  HD
ATOM     55 1HH2 ARG C  16     -13.735  14.824 -11.665  1.00 86.10 LIG 0.17  HD
ATOM     56 1HH1 ARG C  16     -16.748  14.579 -13.943  1.00 81.98 LIG 0.17  HD
ATOM     57 2HH1 ARG C  16     -16.863  15.231 -12.609  1.00 81.98 LIG 0.17  HD
ENDBRANCH 48 49
ENDBRANCH 47 48
ENDBRANCH 46 47
ENDBRANCH 45 46
BRANCH 45 58
ATOM     58  N   ARG C  16     -14.908  10.912 -13.814  1.00 40.87 LIG-0.35  N 
ATOM     59  C   PRO C  15     -15.795   9.969 -13.419  1.00 47.02 LIG 0.25  C 
ATOM     60 O    PRO C  15     -15.551   8.762 -13.439  1.00 46.36 LIG-0.27  OA
ATOM     61 H    ARG C  16     -15.102  11.750 -13.817  1.00 40.87 LIG 0.16  HD
BRANCH 59 62
ATOM     62  CA  PRO C  15     -17.143  10.460 -12.888  1.00 46.56 LIG 0.35  C 
ATOM     63  N   PRO C  15     -17.408  11.875 -13.184  1.00 47.38 LIG 0.32  N 
ATOM     64  CD  PRO C  15     -18.575  12.037 -14.071  1.00 49.28 LIG 0.32  C 
ATOM     65  CG  PRO C  15     -19.341  10.767 -13.856  1.00 53.38 LIG 0.04  C 
ATOM     66  CB  PRO C  15     -18.303   9.727 -13.583  1.00 48.49 LIG 0.05  C 
ENDBRANCH 59 62
ENDBRANCH 45 58
ENDBRANCH 43 45
ENDBRANCH 1 38
TORSDOF 18
ENDMDL
MODEL 57
USER: ADFR SOLUTION from run 84
USER: SCORE 22.711301 LL:  -4.845 LR: -18.393 RR:   0.000 FEB: -13.023
USER: RMSD 12.977105
USER: SEED 83
USER: STATUS no improvement in best in 5 clusters for 5 generations
USER: GENES 20
USER: genes 0 Translation |==|  0.46943 0.48998 0.51400
USER: genes 1 Rotation |==|  0.85511 0.72101 0.73524 0.64039
USER: genes 2 Torsion [C]-N--CA-[CB] |==|  0.84935
USER: genes 3 Torsion [N]-CA--C-[N] |==|  0.39646
USER: genes 4 Torsion [N]-CA--C-[O] |==|  0.78754
USER: genes 5 Torsion [C]-N--CA-[C] |==|  0.14075
USER: genes 6 Torsion [N]-CA--C-[N] |==|  0.17705
USER: genes 7 Torsion [N]-CA--C-[O] |==|  0.78479
USER: genes 8 Torsion [N]-CA--CB-[CG] |==|  0.85895
USER: genes 9 Torsion [CA]-CB--CG-[CD1] |==|  0.78909
USER: genes 10 Torsion [N]-CA--CB-[CG] |==|  0.56294
USER: genes 11 Torsion [CA]-CB--CG-[CD2] |==|  0.65665
USER: genes 12 Torsion [O]-C--CA-[CB] |==|  0.59346
USER: genes 13 Torsion [N]-C--CA-[N] |==|  0.08352
USER: genes 14 Torsion [C]-CA--CB-[CG] |==|  0.90298
USER: genes 15 Torsion [CA]-CB--CG-[CD] |==|  0.60092
USER: genes 16 Torsion [CB]-CG--CD-[NE] |==|  0.39270
USER: genes 17 Torsion [CG]-CD--NE-[HE] |==|  0.21758
USER: genes 18 Torsion [C]-CA--N-[C] |==|  0.17171
USER: genes 19 Torsion [N]-C--CA-[CB] |==|  0.15330
ROOT
ATOM      1  C   PRO C  17     -12.163   9.172  -9.873  1.00 34.10 LIG 0.24  C 
ATOM      2 O    PRO C  17     -11.879   7.983 -10.003  1.00 31.91 LIG-0.27  OA
ATOM      3  N   LEU C  18     -12.761   9.648  -8.797  1.00 30.88 LIG-0.35  N 
ATOM      4 H    LEU C  18     -13.013  10.467  -8.724  1.00 30.88 LIG 0.16  HD
ENDROOT
BRANCH 3 5
ATOM      5  CA  LEU C  18     -13.059   8.842  -7.622  1.00 30.78 LIG 0.18  C 
BRANCH 5 6
ATOM      6  C   LEU C  18     -11.822   8.385  -6.867  1.00 33.73 LIG 0.24  C 
ATOM      7  N   PRO C  19     -11.885   8.345  -5.510  1.00 33.17 LIG-0.34  N 
ATOM      8  CA  PRO C  19     -10.729   7.846  -4.735  1.00 33.85 LIG 0.18  C 
ATOM      9  CD  PRO C  19     -12.998   8.771  -4.625  1.00 35.22 LIG 0.13  C 
ATOM     10  CB  PRO C  19     -11.054   8.253  -3.294  1.00 35.69 LIG 0.04  C 
ATOM     11  CG  PRO C  19     -12.521   8.432  -3.247  1.00 39.92 LIG 0.02  C 
ATOM     12 O    LEU C  18     -10.852   7.978  -7.509  1.00 31.40 LIG-0.27  OA
BRANCH 8 13
ATOM     13  C   PRO C  19     -10.463   6.340  -4.885  1.00 39.47 LIG 0.24  C 
ATOM     14  N   PHE C  20      -9.468   5.997  -5.705  1.00 41.20 LIG-0.35  N 
ATOM     15 H    PHE C  20      -8.995   6.581  -6.124  1.00 41.20 LIG 0.16  HD
ATOM     16 O    PRO C  19     -11.158   5.512  -4.305  1.00 36.20 LIG-0.27  OA
BRANCH 14 17
ATOM     17  CA  PHE C  20      -9.062   4.622  -5.993  1.00 43.59 LIG 0.18  C 
BRANCH 17 18
ATOM     18  C   PHE C  20     -10.299   3.797  -6.391  1.00 48.54 LIG 0.24  C 
ATOM     19  N   PRO C  21     -10.992   4.110  -7.518  1.00 46.41 LIG-0.34  N 
ATOM     20  CA  PRO C  21     -12.150   3.283  -7.932  1.00 51.72 LIG 0.17  C 
ATOM     21  CD  PRO C  21     -10.779   5.227  -8.459  1.00 49.19 LIG 0.13  C 
ATOM     22  CB  PRO C  21     -12.621   3.946  -9.237  1.00 52.56 LIG 0.04  C 
ATOM     23  CG  PRO C  21     -12.080   5.318  -9.199  1.00 54.82 LIG 0.02  C 
ATOM     24 O    PHE C  20     -10.615   2.841  -5.678  1.00 48.67 LIG-0.27  OA
BRANCH 20 25
ATOM     25  C   PRO C  21     -11.809   1.811  -8.177  1.00 87.57 LIG 0.22  C 
ATOM     26 O    PRO C  21     -11.248   1.477  -9.219  1.00 58.80 LIG-0.29  OA
ENDBRANCH 20 25
ENDBRANCH 17 18
BRANCH 17 27
ATOM     27  CB  PHE C  20      -8.367   4.026  -4.742  1.00 46.79 LIG 0.07  C 
BRANCH 27 28
ATOM     28  CG  PHE C  20      -7.251   4.835  -4.112  1.00 50.46 LIG-0.06  A 
ATOM     29  CD2 PHE C  20      -7.476   5.581  -2.957  1.00 54.33 LIG 0.01  A 
ATOM     30  CE2 PHE C  20      -6.443   6.328  -2.375  1.00 57.68 LIG 0.00  A 
ATOM     31  CZ  PHE C  20      -5.191   6.352  -2.961  1.00 55.81 LIG 0.00  A 
ATOM     32  CE1 PHE C  20      -4.955   5.630  -4.112  1.00 56.05 LIG 0.00  A 
ATOM     33  CD1 PHE C  20      -5.990   4.892  -4.698  1.00 54.84 LIG 0.01  A 
ENDBRANCH 27 28
ENDBRANCH 17 27
ENDBRANCH 14 17
ENDBRANCH 8 13
ENDBRANCH 5 6
BRANCH 5 34
ATOM     34  CB  LEU C  18     -13.859   7.613  -8.050  1.00 31.46 LIG 0.04  C 
BRANCH 34 35
ATOM     35  CG  LEU C  18     -14.696   6.956  -6.983  1.00 36.62 LIG-0.02  C 
ATOM     36  CD2 LEU C  18     -14.310   5.490  -6.849  1.00 38.91 LIG 0.01  C 
ATOM     37  CD1 LEU C  18     -16.182   7.100  -7.324  1.00 36.98 LIG 0.01  C 
ENDBRANCH 34 35
ENDBRANCH 5 34
ENDBRANCH 3 5
BRANCH 1 38
ATOM     38  CA  PRO C  17     -11.921  10.185 -10.983  1.00 33.71 LIG 0.18  C 
ATOM     39  CB  PRO C  17     -11.548  11.572 -10.449  1.00 36.04 LIG 0.04  C 
ATOM     40  CG  PRO C  17     -12.734  12.470 -10.732  1.00 41.66 LIG 0.02  C 
ATOM     41  CD  PRO C  17     -13.801  11.663 -11.410  1.00 37.74 LIG 0.13  C 
ATOM     42  N   PRO C  17     -13.079  10.446 -11.843  1.00 35.06 LIG-0.34  N 
ATOM     43  C   ARG C  16     -13.322   9.623 -12.881  1.00 37.80 LIG 0.24  C 
ATOM     44 O    ARG C  16     -12.587   8.663 -13.096  1.00 34.25 LIG-0.27  OA
BRANCH 43 45
ATOM     45  CA  ARG C  16     -14.507   9.897 -13.826  1.00 39.10 LIG 0.18  C 
BRANCH 45 46
ATOM     46  CB  ARG C  16     -14.201   9.337 -15.229  1.00 42.59 LIG 0.04  C 
BRANCH 46 47
ATOM     47  CG  ARG C  16     -12.738   9.435 -15.648  1.00 54.51 LIG 0.02  C 
BRANCH 47 48
ATOM     48  CD  ARG C  16     -12.587   9.736 -17.127  1.00 71.70 LIG 0.14  C 
BRANCH 48 49
ATOM     49  NE  ARG C  16     -11.479  10.666 -17.375  1.00 86.72 LIG-0.23  N 
ATOM     50 HE   ARG C  16     -10.681  10.347 -17.360  1.00 86.72 LIG 0.18  HD
ATOM     51  CZ  ARG C  16     -11.620  11.966 -17.621  1.00 98.48 LIG 0.67  C 
ATOM     52  NH2 ARG C  16     -10.553  12.728 -17.825  1.00 86.10 LIG-0.23  N 
ATOM     53  NH1 ARG C  16     -12.827  12.516 -17.657  1.00 81.98 LIG-0.23  N 
ATOM     54 2HH2 ARG C  16     -10.649  13.568 -17.983  1.00 86.10 LIG 0.17  HD
ATOM     55 1HH2 ARG C  16      -9.766  12.383 -17.798  1.00 86.10 LIG 0.17  HD
ATOM     56 1HH1 ARG C  16     -13.524  12.031 -17.520  1.00 81.98 LIG 0.17  HD
ATOM     57 2HH1 ARG C  16     -12.912  13.356 -17.816  1.00 81.98 LIG 0.17  HD
ENDBRANCH 48 49
ENDBRANCH 47 48
ENDBRANCH 46 47
ENDBRANCH 45 46
BRANCH 45 58
ATOM     58  N   ARG C  16     -14.757  11.341 -13.889  1.00 40.87 LIG-0.35  N 
ATOM     59  C   PRO C  15     -13.874  12.261 -14.342  1.00 47.02 LIG 0.25  C 
ATOM     60 O    PRO C  15     -12.738  11.977 -14.724  1.00 46.36 LIG-0.27  OA
ATOM     61 H    ARG C  16     -15.538  11.557 -13.603  1.00 40.87 LIG 0.16  HD
BRANCH 59 62
ATOM     62  CA  PRO C  15     -14.355  13.712 -14.410  1.00 46.56 LIG 0.35  C 
ATOM     63  N   PRO C  15     -15.509  13.904 -15.301  1.00 47.38 LIG 0.32  N 
ATOM     64  CD  PRO C  15     -16.699  14.359 -14.558  1.00 49.28 LIG 0.32  C 
ATOM     65  CG  PRO C  15     -16.113  14.972 -13.323  1.00 53.38 LIG 0.04  C 
ATOM     66  CB  PRO C  15     -14.879  14.178 -13.041  1.00 48.49 LIG 0.05  C 
ENDBRANCH 59 62
ENDBRANCH 45 58
ENDBRANCH 43 45
ENDBRANCH 1 38
TORSDOF 18
ENDMDL
MODEL 58
USER: ADFR SOLUTION from run 41
USER: SCORE 22.830577 LL:  -5.139 LR: -18.369 RR:   0.000 FEB: -12.999
USER: RMSD 13.551343
USER: SEED 40
USER: STATUS no improvement in best in 21 clusters for 5 generations
USER: GENES 20
USER: genes 0 Translation |==|  0.45935 0.48965 0.51314
USER: genes 1 Rotation |==|  0.00659 0.56962 0.53765 0.51689
USER: genes 2 Torsion [C]-N--CA-[CB] |==|  0.53500
USER: genes 3 Torsion [N]-CA--C-[N] |==|  0.39927
USER: genes 4 Torsion [N]-CA--C-[O] |==|  0.82069
USER: genes 5 Torsion [C]-N--CA-[C] |==|  0.65758
USER: genes 6 Torsion [N]-CA--C-[N] |==|  0.46055
USER: genes 7 Torsion [N]-CA--C-[O] |==|  0.89079
USER: genes 8 Torsion [N]-CA--CB-[CG] |==|  0.78227
USER: genes 9 Torsion [CA]-CB--CG-[CD1] |==|  0.71131
USER: genes 10 Torsion [N]-CA--CB-[CG] |==|  0.61578
USER: genes 11 Torsion [CA]-CB--CG-[CD2] |==|  0.08590
USER: genes 12 Torsion [O]-C--CA-[CB] |==|  0.28396
USER: genes 13 Torsion [N]-C--CA-[N] |==|  0.41544
USER: genes 14 Torsion [C]-CA--CB-[CG] |==|  0.33885
USER: genes 15 Torsion [CA]-CB--CG-[CD] |==|  0.08115
USER: genes 16 Torsion [CB]-CG--CD-[NE] |==|  0.74753
USER: genes 17 Torsion [CG]-CD--NE-[HE] |==|  0.23591
USER: genes 18 Torsion [C]-CA--N-[C] |==|  0.60000
USER: genes 19 Torsion [N]-C--CA-[CB] |==|  0.59280
ROOT
ATOM      1  C   PRO C  17     -12.345   9.166  -9.900  1.00 34.10 LIG 0.24  C 
ATOM      2 O    PRO C  17     -13.549   8.967 -10.044  1.00 31.91 LIG-0.27  OA
ATOM      3  N   LEU C  18     -11.596   8.445  -9.086  1.00 30.88 LIG-0.35  N 
ATOM      4 H    LEU C  18     -10.766   8.615  -8.940  1.00 30.88 LIG 0.16  HD
ENDROOT
BRANCH 3 5
ATOM      5  CA  LEU C  18     -12.091   7.290  -8.353  1.00 30.78 LIG 0.18  C 
BRANCH 5 6
ATOM      6  C   LEU C  18     -13.433   7.525  -7.680  1.00 33.73 LIG 0.24  C 
ATOM      7  N   PRO C  19     -14.312   6.490  -7.638  1.00 33.17 LIG-0.34  N 
ATOM      8  CA  PRO C  19     -15.605   6.651  -6.939  1.00 33.85 LIG 0.18  C 
ATOM      9  CD  PRO C  19     -14.180   5.141  -8.244  1.00 35.22 LIG 0.13  C 
ATOM     10  CB  PRO C  19     -16.414   5.427  -7.382  1.00 35.69 LIG 0.04  C 
ATOM     11  CG  PRO C  19     -15.419   4.421  -7.814  1.00 39.92 LIG 0.02  C 
ATOM     12 O    LEU C  18     -13.634   8.602  -7.116  1.00 31.40 LIG-0.27  OA
BRANCH 8 13
ATOM     13  C   PRO C  19     -15.492   6.770  -5.411  1.00 39.47 LIG 0.24  C 
ATOM     14  N   PHE C  20     -15.838   7.946  -4.886  1.00 41.20 LIG-0.35  N 
ATOM     15 H    PHE C  20     -16.116   8.602  -5.368  1.00 41.20 LIG 0.16  HD
ATOM     16 O    PRO C  19     -15.071   5.840  -4.730  1.00 36.20 LIG-0.27  OA
BRANCH 14 17
ATOM     17  CA  PHE C  20     -15.793   8.268  -3.460  1.00 43.59 LIG 0.18  C 
BRANCH 17 18
ATOM     18  C   PHE C  20     -17.189   8.721  -2.994  1.00 48.54 LIG 0.24  C 
ATOM     19  N   PRO C  21     -17.472   8.796  -1.666  1.00 46.41 LIG-0.34  N 
ATOM     20  CA  PRO C  21     -18.797   9.285  -1.215  1.00 51.72 LIG 0.17  C 
ATOM     21  CD  PRO C  21     -16.625   8.431  -0.514  1.00 49.19 LIG 0.13  C 
ATOM     22  CB  PRO C  21     -18.697   9.238   0.319  1.00 52.56 LIG 0.04  C 
ATOM     23  CG  PRO C  21     -17.603   8.293   0.613  1.00 54.82 LIG 0.02  C 
ATOM     24 O    PHE C  20     -18.016   9.035  -3.854  1.00 48.67 LIG-0.27  OA
BRANCH 20 25
ATOM     25  C   PRO C  21     -19.131  10.703  -1.683  1.00 87.57 LIG 0.22  C 
ATOM     26 O    PRO C  21     -18.255  11.566  -1.699  1.00 58.80 LIG-0.29  OA
ENDBRANCH 20 25
ENDBRANCH 17 18
BRANCH 17 27
ATOM     27  CB  PHE C  20     -14.734   9.374  -3.221  1.00 46.79 LIG 0.07  C 
BRANCH 27 28
ATOM     28  CG  PHE C  20     -13.278   8.953  -3.200  1.00 50.46 LIG-0.06  A 
ATOM     29  CD2 PHE C  20     -12.616   8.615  -4.377  1.00 54.33 LIG 0.01  A 
ATOM     30  CE2 PHE C  20     -11.270   8.227  -4.356  1.00 57.68 LIG 0.00  A 
ATOM     31  CZ  PHE C  20     -10.590   8.151  -3.154  1.00 55.81 LIG 0.00  A 
ATOM     32  CE1 PHE C  20     -11.235   8.468  -1.977  1.00 56.05 LIG 0.00  A 
ATOM     33  CD1 PHE C  20     -12.583   8.847  -1.998  1.00 54.84 LIG 0.01  A 
ENDBRANCH 27 28
ENDBRANCH 17 27
ENDBRANCH 14 17
ENDBRANCH 8 13
ENDBRANCH 5 6
BRANCH 5 34
ATOM     34  CB  LEU C  18     -11.068   6.898  -7.290  1.00 31.46 LIG 0.04  C 
BRANCH 34 35
ATOM     35  CG  LEU C  18     -10.814   5.423  -7.117  1.00 36.62 LIG-0.02  C 
ATOM     36  CD2 LEU C  18     -11.007   4.704  -8.443  1.00 38.91 LIG 0.01  C 
ATOM     37  CD1 LEU C  18     -11.751   4.854  -6.048  1.00 36.98 LIG 0.01  C 
ENDBRANCH 34 35
ENDBRANCH 5 34
ENDBRANCH 3 5
BRANCH 1 38
ATOM     38  CA  PRO C  17     -11.629  10.318 -10.591  1.00 33.71 LIG 0.18  C 
ATOM     39  CB  PRO C  17     -11.356  11.496  -9.650  1.00 36.04 LIG 0.04  C 
ATOM     40  CG  PRO C  17     -12.276  12.615 -10.091  1.00 41.66 LIG 0.02  C 
ATOM     41  CD  PRO C  17     -13.090  12.141 -11.258  1.00 37.74 LIG 0.13  C 
ATOM     42  N   PRO C  17     -12.369  10.927 -11.701  1.00 35.06 LIG-0.34  N 
ATOM     43  C   ARG C  16     -12.290  10.370 -12.924  1.00 37.80 LIG 0.24  C 
ATOM     44 O    ARG C  16     -11.613   9.360 -13.102  1.00 34.25 LIG-0.27  OA
BRANCH 43 45
ATOM     45  CA  ARG C  16     -13.022  11.011 -14.117  1.00 39.10 LIG 0.18  C 
BRANCH 45 46
ATOM     46  CB  ARG C  16     -14.455  10.454 -14.217  1.00 42.59 LIG 0.04  C 
BRANCH 46 47
ATOM     47  CG  ARG C  16     -15.554  11.509 -14.147  1.00 54.51 LIG 0.02  C 
BRANCH 47 48
ATOM     48  CD  ARG C  16     -15.096  12.849 -14.689  1.00 71.70 LIG 0.14  C 
BRANCH 48 49
ATOM     49  NE  ARG C  16     -14.529  13.691 -13.630  1.00 86.72 LIG-0.23  N 
ATOM     50 HE   ARG C  16     -13.699  13.580 -13.435  1.00 86.72 LIG 0.18  HD
ATOM     51  CZ  ARG C  16     -15.204  14.614 -12.950  1.00 98.48 LIG 0.67  C 
ATOM     52  NH2 ARG C  16     -14.603  15.321 -12.001  1.00 86.10 LIG-0.23  N 
ATOM     53  NH1 ARG C  16     -16.488  14.831 -13.206  1.00 81.98 LIG-0.23  N 
ATOM     54 2HH2 ARG C  16     -15.043  15.916 -11.564  1.00 86.10 LIG 0.17  HD
ATOM     55 1HH2 ARG C  16     -13.773  15.184 -11.824  1.00 86.10 LIG 0.17  HD
ATOM     56 1HH1 ARG C  16     -16.889  14.374 -13.815  1.00 81.98 LIG 0.17  HD
ATOM     57 2HH1 ARG C  16     -16.919  15.428 -12.764  1.00 81.98 LIG 0.17  HD
ENDBRANCH 48 49
ENDBRANCH 47 48
ENDBRANCH 46 47
ENDBRANCH 45 46
BRANCH 45 58
ATOM     58  N   ARG C  16     -12.275  10.740 -15.350  1.00 40.87 LIG-0.35  N 
ATOM     59  C   PRO C  15     -12.153  11.602 -16.387  1.00 47.02 LIG 0.25  C 
ATOM     60 O    PRO C  15     -12.695  12.707 -16.414  1.00 46.36 LIG-0.27  OA
ATOM     61 H    ARG C  16     -11.910   9.962 -15.356  1.00 40.87 LIG 0.16  HD
BRANCH 59 62
ATOM     62  CA  PRO C  15     -11.257  11.169 -17.549  1.00 46.56 LIG 0.35  C 
ATOM     63  N   PRO C  15     -12.001  10.585 -18.675  1.00 47.38 LIG 0.32  N 
ATOM     64  CD  PRO C  15     -11.869  11.403 -19.895  1.00 49.28 LIG 0.32  C 
ATOM     65  CG  PRO C  15     -10.604  12.167 -19.655  1.00 53.38 LIG 0.04  C 
ATOM     66  CB  PRO C  15     -10.552  12.383 -18.177  1.00 48.49 LIG 0.05  C 
ENDBRANCH 59 62
ENDBRANCH 45 58
ENDBRANCH 43 45
ENDBRANCH 1 38
TORSDOF 18
ENDMDL
MODEL 59
USER: ADFR SOLUTION from run 150
USER: SCORE 22.665576 LL:  -4.774 LR: -18.365 RR:   0.000 FEB: -12.996
USER: RMSD 13.864264
USER: SEED 149
USER: STATUS no improvement in best in 10 clusters for 5 generations
USER: GENES 20
USER: genes 0 Translation |==|  0.44829 0.48479 0.50150
USER: genes 1 Rotation |==|  0.01547 0.59260 0.58154 0.50221
USER: genes 2 Torsion [C]-N--CA-[CB] |==|  0.55832
USER: genes 3 Torsion [N]-CA--C-[N] |==|  0.38628
USER: genes 4 Torsion [N]-CA--C-[O] |==|  0.85592
USER: genes 5 Torsion [C]-N--CA-[C] |==|  0.62710
USER: genes 6 Torsion [N]-CA--C-[N] |==|  0.42366
USER: genes 7 Torsion [N]-CA--C-[O] |==|  0.96113
USER: genes 8 Torsion [N]-CA--CB-[CG] |==|  0.78523
USER: genes 9 Torsion [CA]-CB--CG-[CD1] |==|  0.19609
USER: genes 10 Torsion [N]-CA--CB-[CG] |==|  0.56160
USER: genes 11 Torsion [CA]-CB--CG-[CD2] |==|  0.51544
USER: genes 12 Torsion [O]-C--CA-[CB] |==|  0.26117
USER: genes 13 Torsion [N]-C--CA-[N] |==|  0.88707
USER: genes 14 Torsion [C]-CA--CB-[CG] |==|  0.40356
USER: genes 15 Torsion [CA]-CB--CG-[CD] |==|  0.65767
USER: genes 16 Torsion [CB]-CG--CD-[NE] |==|  0.75272
USER: genes 17 Torsion [CG]-CD--NE-[HE] |==|  0.04816
USER: genes 18 Torsion [C]-CA--N-[C] |==|  0.82318
USER: genes 19 Torsion [N]-C--CA-[CB] |==|  0.38720
ROOT
ATOM      1  C   PRO C  17     -12.544   9.078 -10.275  1.00 34.10 LIG 0.24  C 
ATOM      2 O    PRO C  17     -13.766   8.983 -10.185  1.00 31.91 LIG-0.27  OA
ATOM      3  N   LEU C  18     -11.716   8.320  -9.581  1.00 30.88 LIG-0.35  N 
ATOM      4 H    LEU C  18     -10.863   8.421  -9.598  1.00 30.88 LIG 0.16  HD
ENDROOT
BRANCH 3 5
ATOM      5  CA  LEU C  18     -12.157   7.237  -8.715  1.00 30.78 LIG 0.18  C 
BRANCH 5 6
ATOM      6  C   LEU C  18     -13.445   7.539  -7.967  1.00 33.73 LIG 0.24  C 
ATOM      7  N   PRO C  19     -14.363   6.544  -7.855  1.00 33.17 LIG-0.34  N 
ATOM      8  CA  PRO C  19     -15.603   6.771  -7.082  1.00 33.85 LIG 0.18  C 
ATOM      9  CD  PRO C  19     -14.324   5.182  -8.444  1.00 35.22 LIG 0.13  C 
ATOM     10  CB  PRO C  19     -16.488   5.578  -7.455  1.00 35.69 LIG 0.04  C 
ATOM     11  CG  PRO C  19     -15.565   4.523  -7.927  1.00 39.92 LIG 0.02  C 
ATOM     12 O    LEU C  18     -13.565   8.633  -7.411  1.00 31.40 LIG-0.27  OA
BRANCH 8 13
ATOM     13  C   PRO C  19     -15.392   6.908  -5.566  1.00 39.47 LIG 0.24  C 
ATOM     14  N   PHE C  20     -15.897   8.005  -4.999  1.00 41.20 LIG-0.35  N 
ATOM     15 H    PHE C  20     -16.322   8.602  -5.449  1.00 41.20 LIG 0.16  HD
ATOM     16 O    PRO C  19     -14.763   6.066  -4.933  1.00 36.20 LIG-0.27  OA
BRANCH 14 17
ATOM     17  CA  PHE C  20     -15.797   8.329  -3.576  1.00 43.59 LIG 0.18  C 
BRANCH 17 18
ATOM     18  C   PHE C  20     -17.170   8.798  -3.061  1.00 48.54 LIG 0.24  C 
ATOM     19  N   PRO C  21     -17.501   8.626  -1.754  1.00 46.41 LIG-0.34  N 
ATOM     20  CA  PRO C  21     -18.800   9.126  -1.244  1.00 51.72 LIG 0.17  C 
ATOM     21  CD  PRO C  21     -16.734   7.962  -0.681  1.00 49.19 LIG 0.13  C 
ATOM     22  CB  PRO C  21     -18.768   8.760   0.250  1.00 52.56 LIG 0.04  C 
ATOM     23  CG  PRO C  21     -17.766   7.684   0.370  1.00 54.82 LIG 0.02  C 
ATOM     24 O    PHE C  20     -17.932   9.350  -3.858  1.00 48.67 LIG-0.27  OA
BRANCH 20 25
ATOM     25  C   PRO C  21     -19.000  10.632  -1.418  1.00 87.57 LIG 0.22  C 
ATOM     26 O    PRO C  21     -18.042  11.350  -1.699  1.00 58.80 LIG-0.29  OA
ENDBRANCH 20 25
ENDBRANCH 17 18
BRANCH 17 27
ATOM     27  CB  PHE C  20     -14.719   9.426  -3.379  1.00 46.79 LIG 0.07  C 
BRANCH 27 28
ATOM     28  CG  PHE C  20     -13.267   8.994  -3.435  1.00 50.46 LIG-0.06  A 
ATOM     29  CD2 PHE C  20     -12.469   9.025  -2.294  1.00 54.33 LIG 0.01  A 
ATOM     30  CE2 PHE C  20     -11.127   8.624  -2.347  1.00 57.68 LIG 0.00  A 
ATOM     31  CZ  PHE C  20     -10.573   8.216  -3.547  1.00 55.81 LIG 0.00  A 
ATOM     32  CE1 PHE C  20     -11.345   8.192  -4.689  1.00 56.05 LIG 0.00  A 
ATOM     33  CD1 PHE C  20     -12.683   8.602  -4.637  1.00 54.84 LIG 0.01  A 
ENDBRANCH 27 28
ENDBRANCH 17 27
ENDBRANCH 14 17
ENDBRANCH 8 13
ENDBRANCH 5 6
BRANCH 5 34
ATOM     34  CB  LEU C  18     -11.058   6.930  -7.701  1.00 31.46 LIG 0.04  C 
BRANCH 34 35
ATOM     35  CG  LEU C  18     -11.086   5.558  -7.079  1.00 36.62 LIG-0.02  C 
ATOM     36  CD2 LEU C  18     -10.020   5.455  -5.998  1.00 38.91 LIG 0.01  C 
ATOM     37  CD1 LEU C  18     -10.874   4.492  -8.157  1.00 36.98 LIG 0.01  C 
ENDBRANCH 34 35
ENDBRANCH 5 34
ENDBRANCH 3 5
BRANCH 1 38
ATOM     38  CA  PRO C  17     -11.880  10.141 -11.140  1.00 33.71 LIG 0.18  C 
ATOM     39  CB  PRO C  17     -11.519  11.406 -10.354  1.00 36.04 LIG 0.04  C 
ATOM     40  CG  PRO C  17     -12.464  12.488 -10.832  1.00 41.66 LIG 0.02  C 
ATOM     41  CD  PRO C  17     -13.377  11.909 -11.872  1.00 37.74 LIG 0.13  C 
ATOM     42  N   PRO C  17     -12.705  10.644 -12.243  1.00 35.06 LIG-0.34  N 
ATOM     43  C   ARG C  16     -12.733   9.961 -13.403  1.00 37.80 LIG 0.24  C 
ATOM     44 O    ARG C  16     -12.081   8.927 -13.530  1.00 34.25 LIG-0.27  OA
BRANCH 43 45
ATOM     45  CA  ARG C  16     -13.557  10.487 -14.593  1.00 39.10 LIG 0.18  C 
BRANCH 45 46
ATOM     46  CB  ARG C  16     -12.769  11.580 -15.338  1.00 42.59 LIG 0.04  C 
BRANCH 46 47
ATOM     47  CG  ARG C  16     -12.982  11.602 -16.848  1.00 54.51 LIG 0.02  C 
BRANCH 47 48
ATOM     48  CD  ARG C  16     -11.679  11.464 -17.611  1.00 71.70 LIG 0.14  C 
BRANCH 48 49
ATOM     49  NE  ARG C  16     -11.062  12.772 -17.861  1.00 86.72 LIG-0.23  N 
ATOM     50 HE   ARG C  16     -11.333  13.437 -17.388  1.00 86.72 LIG 0.18  HD
ATOM     51  CZ  ARG C  16     -10.115  13.003 -18.766  1.00 98.48 LIG 0.67  C 
ATOM     52  NH2 ARG C  16      -9.624  14.226 -18.925  1.00 86.10 LIG-0.23  N 
ATOM     53  NH1 ARG C  16      -9.656  12.017 -19.526  1.00 81.98 LIG-0.23  N 
ATOM     54 2HH2 ARG C  16      -9.012  14.371 -19.511  1.00 86.10 LIG 0.17  HD
ATOM     55 1HH2 ARG C  16      -9.919  14.874 -18.442  1.00 86.10 LIG 0.17  HD
ATOM     56 1HH1 ARG C  16      -9.972  11.222 -19.435  1.00 81.98 LIG 0.17  HD
ATOM     57 2HH1 ARG C  16      -9.044  12.172 -20.109  1.00 81.98 LIG 0.17  HD
ENDBRANCH 48 49
ENDBRANCH 47 48
ENDBRANCH 46 47
ENDBRANCH 45 46
BRANCH 45 58
ATOM     58  N   ARG C  16     -14.836  11.013 -14.104  1.00 40.87 LIG-0.35  N 
ATOM     59  C   PRO C  15     -15.795  10.276 -13.497  1.00 47.02 LIG 0.25  C 
ATOM     60 O    PRO C  15     -15.703   9.061 -13.319  1.00 46.36 LIG-0.27  OA
ATOM     61 H    ARG C  16     -14.925  11.857 -14.243  1.00 40.87 LIG 0.16  HD
BRANCH 59 62
ATOM     62  CA  PRO C  15     -17.024  11.027 -12.979  1.00 46.56 LIG 0.35  C 
ATOM     63  N   PRO C  15     -17.262  12.304 -13.665  1.00 47.38 LIG 0.32  N 
ATOM     64  CD  PRO C  15     -18.540  12.296 -14.402  1.00 49.28 LIG 0.32  C 
ATOM     65  CG  PRO C  15     -19.325  11.227 -13.706  1.00 53.38 LIG 0.04  C 
ATOM     66  CB  PRO C  15     -18.309  10.227 -13.256  1.00 48.49 LIG 0.05  C 
ENDBRANCH 59 62
ENDBRANCH 45 58
ENDBRANCH 43 45
ENDBRANCH 1 38
TORSDOF 18
ENDMDL
MODEL 60
USER: ADFR SOLUTION from run 64
USER: SCORE 20.883582 LL:  -4.726 LR: -18.351 RR:   0.000 FEB: -12.981
USER: RMSD 14.184910
USER: SEED 63
USER: STATUS no improvement in best in 41 clusters for 5 generations
USER: GENES 20
USER: genes 0 Translation |==|  0.46704 0.48650 0.49968
USER: genes 1 Rotation |==|  0.98144 0.39123 0.49759 0.57987
USER: genes 2 Torsion [C]-N--CA-[CB] |==|  0.27549
USER: genes 3 Torsion [N]-CA--C-[N] |==|  0.42302
USER: genes 4 Torsion [N]-CA--C-[O] |==|  0.80069
USER: genes 5 Torsion [C]-N--CA-[C] |==|  0.19224
USER: genes 6 Torsion [N]-CA--C-[N] |==|  0.38244
USER: genes 7 Torsion [N]-CA--C-[O] |==|  0.27390
USER: genes 8 Torsion [N]-CA--CB-[CG] |==|  0.77436
USER: genes 9 Torsion [CA]-CB--CG-[CD1] |==|  0.82039
USER: genes 10 Torsion [N]-CA--CB-[CG] |==|  0.31923
USER: genes 11 Torsion [CA]-CB--CG-[CD2] |==|  0.61377
USER: genes 12 Torsion [O]-C--CA-[CB] |==|  0.34981
USER: genes 13 Torsion [N]-C--CA-[N] |==|  0.89184
USER: genes 14 Torsion [C]-CA--CB-[CG] |==|  0.48186
USER: genes 15 Torsion [CA]-CB--CG-[CD] |==|  0.57163
USER: genes 16 Torsion [CB]-CG--CD-[NE] |==|  0.75233
USER: genes 17 Torsion [CG]-CD--NE-[HE] |==|  0.00681
USER: genes 18 Torsion [C]-CA--N-[C] |==|  0.83211
USER: genes 19 Torsion [N]-C--CA-[CB] |==|  0.16273
ROOT
ATOM      1  C   PRO C  17     -12.206   9.109 -10.334  1.00 34.10 LIG 0.24  C 
ATOM      2 O    PRO C  17     -13.419   9.013 -10.510  1.00 31.91 LIG-0.27  OA
ATOM      3  N   LEU C  18     -11.612   8.699  -9.230  1.00 30.88 LIG-0.35  N 
ATOM      4 H    LEU C  18     -10.774   8.815  -9.078  1.00 30.88 LIG 0.16  HD
ENDROOT
BRANCH 3 5
ATOM      5  CA  LEU C  18     -12.308   8.010  -8.153  1.00 30.78 LIG 0.18  C 
BRANCH 5 6
ATOM      6  C   LEU C  18     -11.881   8.458  -6.766  1.00 33.73 LIG 0.24  C 
ATOM      7  N   PRO C  19     -12.785   8.351  -5.757  1.00 33.17 LIG-0.34  N 
ATOM      8  CA  PRO C  19     -12.395   8.715  -4.378  1.00 33.85 LIG 0.18  C 
ATOM      9  CD  PRO C  19     -14.203   7.919  -5.831  1.00 35.22 LIG 0.13  C 
ATOM     10  CB  PRO C  19     -13.728   8.770  -3.626  1.00 35.69 LIG 0.04  C 
ATOM     11  CG  PRO C  19     -14.668   7.940  -4.409  1.00 39.92 LIG 0.02  C 
ATOM     12 O    LEU C  18     -10.711   8.806  -6.588  1.00 31.40 LIG-0.27  OA
BRANCH 8 13
ATOM     13  C   PRO C  19     -11.383   7.758  -3.730  1.00 39.47 LIG 0.24  C 
ATOM     14  N   PHE C  20     -10.134   8.215  -3.612  1.00 41.20 LIG-0.35  N 
ATOM     15 H    PHE C  20      -9.905   9.001  -3.877  1.00 41.20 LIG 0.16  HD
ATOM     16 O    PRO C  19     -11.709   6.630  -3.377  1.00 36.20 LIG-0.27  OA
BRANCH 14 17
ATOM     17  CA  PHE C  20      -9.022   7.461  -3.035  1.00 43.59 LIG 0.18  C 
BRANCH 17 18
ATOM     18  C   PHE C  20      -8.650   6.299  -3.973  1.00 48.54 LIG 0.24  C 
ATOM     19  N   PRO C  21      -7.344   6.011  -4.214  1.00 46.41 LIG-0.34  N 
ATOM     20  CA  PRO C  21      -6.983   4.858  -5.074  1.00 51.72 LIG 0.17  C 
ATOM     21  CD  PRO C  21      -6.135   6.714  -3.742  1.00 49.19 LIG 0.13  C 
ATOM     22  CB  PRO C  21      -5.445   4.868  -5.067  1.00 52.56 LIG 0.04  C 
ATOM     23  CG  PRO C  21      -5.062   6.238  -4.675  1.00 54.82 LIG 0.02  C 
ATOM     24 O    PHE C  20      -9.564   5.634  -4.466  1.00 48.67 LIG-0.27  OA
BRANCH 20 25
ATOM     25  C   PRO C  21      -7.508   3.514  -4.566  1.00 87.57 LIG 0.22  C 
ATOM     26 O    PRO C  21      -8.537   3.037  -5.041  1.00 58.80 LIG-0.29  OA
ENDBRANCH 20 25
ENDBRANCH 17 18
BRANCH 17 27
ATOM     27  CB  PHE C  20      -9.433   6.942  -1.633  1.00 46.79 LIG 0.07  C 
BRANCH 27 28
ATOM     28  CG  PHE C  20      -9.333   7.912  -0.473  1.00 50.46 LIG-0.06  A 
ATOM     29  CD2 PHE C  20     -10.476   8.365   0.180  1.00 54.33 LIG 0.01  A 
ATOM     30  CE2 PHE C  20     -10.381   9.261   1.253  1.00 57.68 LIG 0.00  A 
ATOM     31  CZ  PHE C  20      -9.144   9.727   1.659  1.00 55.81 LIG 0.00  A 
ATOM     32  CE1 PHE C  20      -8.002   9.300   1.014  1.00 56.05 LIG 0.00  A 
ATOM     33  CD1 PHE C  20      -8.099   8.412  -0.064  1.00 54.84 LIG 0.01  A 
ENDBRANCH 27 28
ENDBRANCH 17 27
ENDBRANCH 14 17
ENDBRANCH 8 13
ENDBRANCH 5 6
BRANCH 5 34
ATOM     34  CB  LEU C  18     -12.064   6.508  -8.284  1.00 31.46 LIG 0.04  C 
BRANCH 34 35
ATOM     35  CG  LEU C  18     -11.281   5.859  -7.172  1.00 36.62 LIG-0.02  C 
ATOM     36  CD2 LEU C  18     -10.299   4.850  -7.747  1.00 38.91 LIG 0.01  C 
ATOM     37  CD1 LEU C  18     -12.239   5.185  -6.185  1.00 36.98 LIG 0.01  C 
ENDBRANCH 34 35
ENDBRANCH 5 34
ENDBRANCH 3 5
BRANCH 1 38
ATOM     38  CA  PRO C  17     -11.296   9.788 -11.348  1.00 33.71 LIG 0.18  C 
ATOM     39  CB  PRO C  17     -10.443  10.900 -10.729  1.00 36.04 LIG 0.04  C 
ATOM     40  CG  PRO C  17     -10.988  12.205 -11.268  1.00 41.66 LIG 0.02  C 
ATOM     41  CD  PRO C  17     -12.139  11.908 -12.182  1.00 37.74 LIG 0.13  C 
ATOM     42  N   PRO C  17     -11.992  10.460 -12.450  1.00 35.06 LIG-0.34  N 
ATOM     43  C   ARG C  16     -12.366   9.739 -13.524  1.00 37.80 LIG 0.24  C 
ATOM     44 O    ARG C  16     -12.133   8.534 -13.573  1.00 34.25 LIG-0.27  OA
BRANCH 43 45
ATOM     45  CA  ARG C  16     -13.061  10.426 -14.715  1.00 39.10 LIG 0.18  C 
BRANCH 45 46
ATOM     46  CB  ARG C  16     -12.009  11.061 -15.643  1.00 42.59 LIG 0.04  C 
BRANCH 46 47
ATOM     47  CG  ARG C  16     -12.570  11.636 -16.940  1.00 54.51 LIG 0.02  C 
BRANCH 47 48
ATOM     48  CD  ARG C  16     -11.533  11.668 -18.046  1.00 71.70 LIG 0.14  C 
BRANCH 48 49
ATOM     49  NE  ARG C  16     -10.773  12.923 -18.034  1.00 86.72 LIG-0.23  N 
ATOM     50 HE   ARG C  16     -10.950  13.489 -17.411  1.00 86.72 LIG 0.18  HD
ATOM     51  CZ  ARG C  16      -9.831  13.249 -18.916  1.00 98.48 LIG 0.67  C 
ATOM     52  NH2 ARG C  16      -9.204  14.415 -18.826  1.00 86.10 LIG-0.23  N 
ATOM     53  NH1 ARG C  16      -9.515  12.416 -19.899  1.00 81.98 LIG-0.23  N 
ATOM     54 2HH2 ARG C  16      -8.597  14.621 -19.398  1.00 86.10 LIG 0.17  HD
ATOM     55 1HH2 ARG C  16      -9.406  14.965 -18.196  1.00 86.10 LIG 0.17  HD
ATOM     56 1HH1 ARG C  16      -9.920  11.660 -19.969  1.00 81.98 LIG 0.17  HD
ATOM     57 2HH1 ARG C  16      -8.906  12.631 -20.465  1.00 81.98 LIG 0.17  HD
ENDBRANCH 48 49
ENDBRANCH 47 48
ENDBRANCH 46 47
ENDBRANCH 45 46
BRANCH 45 58
ATOM     58  N   ARG C  16     -13.992  11.443 -14.215  1.00 40.87 LIG-0.35  N 
ATOM     59  C   PRO C  15     -15.048  11.194 -13.405  1.00 47.02 LIG 0.25  C 
ATOM     60 O    PRO C  15     -15.359  10.064 -13.027  1.00 46.36 LIG-0.27  OA
ATOM     61 H    ARG C  16     -13.802  12.235 -14.490  1.00 40.87 LIG 0.16  HD
BRANCH 59 62
ATOM     62  CA  PRO C  15     -15.851  12.403 -12.920  1.00 46.56 LIG 0.35  C 
ATOM     63  N   PRO C  15     -15.039  13.394 -12.199  1.00 47.38 LIG 0.32  N 
ATOM     64  CD  PRO C  15     -14.999  14.685 -12.911  1.00 49.28 LIG 0.32  C 
ATOM     65  CG  PRO C  15     -16.231  14.641 -13.762  1.00 53.38 LIG 0.04  C 
ATOM     66  CB  PRO C  15     -16.413  13.199 -14.110  1.00 48.49 LIG 0.05  C 
ENDBRANCH 59 62
ENDBRANCH 45 58
ENDBRANCH 43 45
ENDBRANCH 1 38
TORSDOF 18
ENDMDL
MODEL 61
USER: ADFR SOLUTION from run 108
USER: SCORE 21.631915 LL:  -4.334 LR: -18.314 RR:   0.000 FEB: -12.945
USER: RMSD 13.290435
USER: SEED 107
USER: STATUS no improvement in best in 6 clusters for 5 generations
USER: GENES 20
USER: genes 0 Translation |==|  0.44263 0.60274 0.41250
USER: genes 1 Rotation |==|  0.43369 0.07604 0.28274 0.63661
USER: genes 2 Torsion [C]-N--CA-[CB] |==|  0.14916
USER: genes 3 Torsion [N]-CA--C-[N] |==|  0.18307
USER: genes 4 Torsion [N]-CA--C-[O] |==|  0.06112
USER: genes 5 Torsion [C]-N--CA-[C] |==|  0.69526
USER: genes 6 Torsion [N]-CA--C-[N] |==|  0.42752
USER: genes 7 Torsion [N]-CA--C-[O] |==|  0.77806
USER: genes 8 Torsion [N]-CA--CB-[CG] |==|  0.94264
USER: genes 9 Torsion [CA]-CB--CG-[CD1] |==|  0.20704
USER: genes 10 Torsion [N]-CA--CB-[CG] |==|  0.57344
USER: genes 11 Torsion [CA]-CB--CG-[CD2] |==|  0.02800
USER: genes 12 Torsion [O]-C--CA-[CB] |==|  0.65600
USER: genes 13 Torsion [N]-C--CA-[N] |==|  0.14384
USER: genes 14 Torsion [C]-CA--CB-[CG] |==|  0.69910
USER: genes 15 Torsion [CA]-CB--CG-[CD] |==|  0.67852
USER: genes 16 Torsion [CB]-CG--CD-[NE] |==|  0.27649
USER: genes 17 Torsion [CG]-CD--NE-[HE] |==|  0.72739
USER: genes 18 Torsion [C]-CA--N-[C] |==|  0.61114
USER: genes 19 Torsion [N]-C--CA-[CB] |==|  0.74211
ROOT
ATOM      1  C   PRO C  17     -12.646  11.201 -13.146  1.00 34.10 LIG 0.24  C 
ATOM      2 O    PRO C  17     -11.629  11.765 -13.547  1.00 31.91 LIG-0.27  OA
ATOM      3  N   LEU C  18     -12.736  10.667 -11.942  1.00 30.88 LIG-0.35  N 
ATOM      4 H    LEU C  18     -13.423  10.224 -11.677  1.00 30.88 LIG 0.16  HD
ENDROOT
BRANCH 3 5
ATOM      5  CA  LEU C  18     -11.688  10.771 -10.938  1.00 30.78 LIG 0.18  C 
BRANCH 5 6
ATOM      6  C   LEU C  18     -12.069  10.172  -9.595  1.00 33.73 LIG 0.24  C 
ATOM      7  N   PRO C  19     -12.267   8.829  -9.532  1.00 33.17 LIG-0.34  N 
ATOM      8  CA  PRO C  19     -12.576   8.191  -8.234  1.00 33.85 LIG 0.18  C 
ATOM      9  CD  PRO C  19     -12.240   7.839 -10.638  1.00 35.22 LIG 0.13  C 
ATOM     10  CB  PRO C  19     -13.035   6.782  -8.621  1.00 35.69 LIG 0.04  C 
ATOM     11  CG  PRO C  19     -12.460   6.523  -9.959  1.00 39.92 LIG 0.02  C 
ATOM     12 O    LEU C  18     -12.088  10.902  -8.602  1.00 31.40 LIG-0.27  OA
BRANCH 8 13
ATOM     13  C   PRO C  19     -11.411   8.185  -7.233  1.00 39.47 LIG 0.24  C 
ATOM     14  N   PHE C  20     -11.486   7.289  -6.248  1.00 41.20 LIG-0.35  N 
ATOM     15 H    PHE C  20     -12.144   6.739  -6.176  1.00 41.20 LIG 0.16  HD
ATOM     16 O    PRO C  19     -10.488   8.989  -7.327  1.00 36.20 LIG-0.27  OA
BRANCH 14 17
ATOM     17  CA  PHE C  20     -10.489   7.127  -5.190  1.00 43.59 LIG 0.18  C 
BRANCH 17 18
ATOM     18  C   PHE C  20      -9.734   5.802  -5.399  1.00 48.54 LIG 0.24  C 
ATOM     19  N   PRO C  21      -8.469   5.658  -4.922  1.00 46.41 LIG-0.34  N 
ATOM     20  CA  PRO C  21      -7.760   4.364  -5.074  1.00 51.72 LIG 0.17  C 
ATOM     21  CD  PRO C  21      -7.613   6.650  -4.243  1.00 49.19 LIG 0.13  C 
ATOM     22  CB  PRO C  21      -6.403   4.613  -4.394  1.00 52.56 LIG 0.04  C 
ATOM     23  CG  PRO C  21      -6.234   6.078  -4.377  1.00 54.82 LIG 0.02  C 
ATOM     24 O    PHE C  20     -10.319   4.884  -5.979  1.00 48.67 LIG-0.27  OA
BRANCH 20 25
ATOM     25  C   PRO C  21      -8.474   3.181  -4.418  1.00 87.57 LIG 0.22  C 
ATOM     26 O    PRO C  21      -8.377   3.001  -3.205  1.00 58.80 LIG-0.29  OA
ENDBRANCH 20 25
ENDBRANCH 17 18
BRANCH 17 27
ATOM     27  CB  PHE C  20     -11.199   7.158  -3.813  1.00 46.79 LIG 0.07  C 
BRANCH 27 28
ATOM     28  CG  PHE C  20     -12.572   7.799  -3.750  1.00 50.46 LIG-0.06  A 
ATOM     29  CD2 PHE C  20     -12.754   9.035  -3.137  1.00 54.33 LIG 0.01  A 
ATOM     30  CE2 PHE C  20     -14.023   9.627  -3.080  1.00 57.68 LIG 0.00  A 
ATOM     31  CZ  PHE C  20     -15.117   8.972  -3.615  1.00 55.81 LIG 0.00  A 
ATOM     32  CE1 PHE C  20     -14.957   7.740  -4.214  1.00 56.05 LIG 0.00  A 
ATOM     33  CD1 PHE C  20     -13.690   7.145  -4.261  1.00 54.84 LIG 0.01  A 
ENDBRANCH 27 28
ENDBRANCH 17 27
ENDBRANCH 14 17
ENDBRANCH 8 13
ENDBRANCH 5 6
BRANCH 5 34
ATOM     34  CB  LEU C  18     -11.333  12.243 -10.739  1.00 31.46 LIG 0.04  C 
BRANCH 34 35
ATOM     35  CG  LEU C  18      -9.936  12.533 -10.254  1.00 36.62 LIG-0.02  C 
ATOM     36  CD2 LEU C  18      -9.094  11.267 -10.304  1.00 38.91 LIG 0.01  C 
ATOM     37  CD1 LEU C  18      -9.984  13.099  -8.832  1.00 36.98 LIG 0.01  C 
ENDBRANCH 34 35
ENDBRANCH 5 34
ENDBRANCH 3 5
BRANCH 1 38
ATOM     38  CA  PRO C  17     -13.862  11.000 -14.039  1.00 33.71 LIG 0.18  C 
ATOM     39  CB  PRO C  17     -15.142  11.593 -13.441  1.00 36.04 LIG 0.04  C 
ATOM     40  CG  PRO C  17     -16.010  10.418 -13.042  1.00 41.66 LIG 0.02  C 
ATOM     41  CD  PRO C  17     -15.288   9.147 -13.377  1.00 37.74 LIG 0.13  C 
ATOM     42  N   PRO C  17     -14.216   9.600 -14.292  1.00 35.06 LIG-0.34  N 
ATOM     43  C   ARG C  16     -13.592   8.937 -15.284  1.00 37.80 LIG 0.24  C 
ATOM     44 O    ARG C  16     -12.732   9.497 -15.959  1.00 34.25 LIG-0.27  OA
BRANCH 43 45
ATOM     45  CA  ARG C  16     -13.973   7.478 -15.601  1.00 39.10 LIG 0.18  C 
BRANCH 45 46
ATOM     46  CB  ARG C  16     -13.236   7.005 -16.869  1.00 42.59 LIG 0.04  C 
BRANCH 46 47
ATOM     47  CG  ARG C  16     -14.125   6.842 -18.098  1.00 54.51 LIG 0.02  C 
BRANCH 47 48
ATOM     48  CD  ARG C  16     -14.195   5.402 -18.564  1.00 71.70 LIG 0.14  C 
BRANCH 48 49
ATOM     49  NE  ARG C  16     -15.423   4.747 -18.101  1.00 86.72 LIG-0.23  N 
ATOM     50 HE   ARG C  16     -15.371   4.257 -17.396  1.00 86.72 LIG 0.18  HD
ATOM     51  CZ  ARG C  16     -16.611   4.855 -18.691  1.00 98.48 LIG 0.67  C 
ATOM     52  NH2 ARG C  16     -17.665   4.215 -18.199  1.00 86.10 LIG-0.23  N 
ATOM     53  NH1 ARG C  16     -16.753   5.597 -19.782  1.00 81.98 LIG-0.23  N 
ATOM     54 2HH2 ARG C  16     -18.430   4.288 -18.584  1.00 86.10 LIG 0.17  HD
ATOM     55 1HH2 ARG C  16     -17.582   3.727 -17.496  1.00 86.10 LIG 0.17  HD
ATOM     56 1HH1 ARG C  16     -16.076   6.012 -20.111  1.00 81.98 LIG 0.17  HD
ATOM     57 2HH1 ARG C  16     -17.523   5.664 -20.158  1.00 81.98 LIG 0.17  HD
ENDBRANCH 48 49
ENDBRANCH 47 48
ENDBRANCH 46 47
ENDBRANCH 45 46
BRANCH 45 58
ATOM     58  N   ARG C  16     -15.425   7.382 -15.780  1.00 40.87 LIG-0.35  N 
ATOM     59  C   PRO C  15     -16.195   6.366 -15.327  1.00 47.02 LIG 0.25  C 
ATOM     60 O    PRO C  15     -15.742   5.385 -14.736  1.00 46.36 LIG-0.27  OA
ATOM     61 H    ARG C  16     -15.754   8.049 -16.213  1.00 40.87 LIG 0.16  HD
BRANCH 59 62
ATOM     62  CA  PRO C  15     -17.706   6.491 -15.537  1.00 46.56 LIG 0.35  C 
ATOM     63  N   PRO C  15     -18.389   5.195 -15.662  1.00 47.38 LIG 0.32  N 
ATOM     64  CD  PRO C  15     -19.344   4.976 -14.559  1.00 49.28 LIG 0.32  C 
ATOM     65  CG  PRO C  15     -19.641   6.366 -14.088  1.00 53.38 LIG 0.04  C 
ATOM     66  CB  PRO C  15     -18.377   7.132 -14.311  1.00 48.49 LIG 0.05  C 
ENDBRANCH 59 62
ENDBRANCH 45 58
ENDBRANCH 43 45
ENDBRANCH 1 38
TORSDOF 18
ENDMDL
MODEL 62
USER: ADFR SOLUTION from run 1
USER: SCORE 23.683435 LL:  -5.831 LR: -18.299 RR:   0.000 FEB: -12.930
USER: RMSD 13.078225
USER: SEED 110504
USER: STATUS no improvement in best in 19 clusters for 5 generations
USER: GENES 20
USER: genes 0 Translation |==|  0.44456 0.48243 0.50671
USER: genes 1 Rotation |==|  0.98786 0.43078 0.42169 0.53270
USER: genes 2 Torsion [C]-N--CA-[CB] |==|  0.82491
USER: genes 3 Torsion [N]-CA--C-[N] |==|  0.33917
USER: genes 4 Torsion [N]-CA--C-[O] |==|  0.55909
USER: genes 5 Torsion [C]-N--CA-[C] |==|  0.56434
USER: genes 6 Torsion [N]-CA--C-[N] |==|  0.49413
USER: genes 7 Torsion [N]-CA--C-[O] |==|  0.98698
USER: genes 8 Torsion [N]-CA--CB-[CG] |==|  0.06609
USER: genes 9 Torsion [CA]-CB--CG-[CD1] |==|  0.71895
USER: genes 10 Torsion [N]-CA--CB-[CG] |==|  0.73611
USER: genes 11 Torsion [CA]-CB--CG-[CD2] |==|  0.91721
USER: genes 12 Torsion [O]-C--CA-[CB] |==|  0.25005
USER: genes 13 Torsion [N]-C--CA-[N] |==|  0.33745
USER: genes 14 Torsion [C]-CA--CB-[CG] |==|  0.64607
USER: genes 15 Torsion [CA]-CB--CG-[CD] |==|  0.42567
USER: genes 16 Torsion [CB]-CG--CD-[NE] |==|  0.24229
USER: genes 17 Torsion [CG]-CD--NE-[HE] |==|  0.91424
USER: genes 18 Torsion [C]-CA--N-[C] |==|  0.75190
USER: genes 19 Torsion [N]-C--CA-[CB] |==|  0.48161
ROOT
ATOM      1  C   PRO C  17     -12.611   9.036 -10.108  1.00 34.10 LIG 0.24  C 
ATOM      2 O    PRO C  17     -13.814   8.813  -9.984  1.00 31.91 LIG-0.27  OA
ATOM      3  N   LEU C  18     -11.699   8.469  -9.341  1.00 30.88 LIG-0.35  N 
ATOM      4 H    LEU C  18     -10.863   8.663  -9.386  1.00 30.88 LIG 0.16  HD
ENDROOT
BRANCH 3 5
ATOM      5  CA  LEU C  18     -12.008   7.456  -8.342  1.00 30.78 LIG 0.18  C 
BRANCH 5 6
ATOM      6  C   LEU C  18     -12.683   6.222  -8.914  1.00 33.73 LIG 0.24  C 
ATOM      7  N   PRO C  19     -12.079   5.020  -8.722  1.00 33.17 LIG-0.34  N 
ATOM      8  CA  PRO C  19     -12.731   3.784  -9.205  1.00 33.85 LIG 0.18  C 
ATOM      9  CD  PRO C  19     -10.770   4.737  -8.081  1.00 35.22 LIG 0.13  C 
ATOM     10  CB  PRO C  19     -11.628   2.725  -9.097  1.00 35.69 LIG 0.04  C 
ATOM     11  CG  PRO C  19     -10.667   3.244  -8.100  1.00 39.92 LIG 0.02  C 
ATOM     12 O    LEU C  18     -13.792   6.341  -9.440  1.00 31.40 LIG-0.27  OA
BRANCH 8 13
ATOM     13  C   PRO C  19     -14.006   3.396  -8.441  1.00 39.47 LIG 0.24  C 
ATOM     14  N   PHE C  20     -14.593   4.371  -7.743  1.00 41.20 LIG-0.35  N 
ATOM     15 H    PHE C  20     -14.283   5.173  -7.723  1.00 41.20 LIG 0.16  HD
ATOM     16 O    PRO C  19     -14.430   2.245  -8.453  1.00 36.20 LIG-0.27  OA
BRANCH 14 17
ATOM     17  CA  PHE C  20     -15.806   4.208  -6.943  1.00 43.59 LIG 0.18  C 
BRANCH 17 18
ATOM     18  C   PHE C  20     -16.493   5.575  -6.774  1.00 48.54 LIG 0.24  C 
ATOM     19  N   PRO C  21     -17.670   5.666  -6.099  1.00 46.41 LIG-0.34  N 
ATOM     20  CA  PRO C  21     -18.306   6.989  -5.889  1.00 51.72 LIG 0.17  C 
ATOM     21  CD  PRO C  21     -18.488   4.589  -5.510  1.00 49.19 LIG 0.13  C 
ATOM     22  CB  PRO C  21     -19.571   6.658  -5.079  1.00 52.56 LIG 0.04  C 
ATOM     23  CG  PRO C  21     -19.832   5.227  -5.325  1.00 54.82 LIG 0.02  C 
ATOM     24 O    PHE C  20     -15.934   6.570  -7.243  1.00 48.67 LIG-0.27  OA
BRANCH 20 25
ATOM     25  C   PRO C  21     -17.433   7.986  -5.125  1.00 87.57 LIG 0.22  C 
ATOM     26 O    PRO C  21     -16.346   7.630  -4.672  1.00 58.80 LIG-0.29  OA
ENDBRANCH 20 25
ENDBRANCH 17 18
BRANCH 17 27
ATOM     27  CB  PHE C  20     -15.430   3.596  -5.569  1.00 46.79 LIG 0.07  C 
BRANCH 27 28
ATOM     28  CG  PHE C  20     -14.009   3.795  -5.082  1.00 50.46 LIG-0.06  A 
ATOM     29  CD2 PHE C  20     -13.598   5.018  -4.559  1.00 54.33 LIG 0.01  A 
ATOM     30  CE2 PHE C  20     -12.283   5.199  -4.108  1.00 57.68 LIG 0.00  A 
ATOM     31  CZ  PHE C  20     -11.370   4.166  -4.204  1.00 55.81 LIG 0.00  A 
ATOM     32  CE1 PHE C  20     -11.756   2.952  -4.732  1.00 56.05 LIG 0.00  A 
ATOM     33  CD1 PHE C  20     -13.067   2.774  -5.191  1.00 54.84 LIG 0.01  A 
ENDBRANCH 27 28
ENDBRANCH 17 27
ENDBRANCH 14 17
ENDBRANCH 8 13
ENDBRANCH 5 6
BRANCH 5 34
ATOM     34  CB  LEU C  18     -12.916   8.067  -7.277  1.00 31.46 LIG 0.04  C 
BRANCH 34 35
ATOM     35  CG  LEU C  18     -12.234   8.602  -6.044  1.00 36.62 LIG-0.02  C 
ATOM     36  CD2 LEU C  18     -10.961   7.815  -5.771  1.00 38.91 LIG 0.01  C 
ATOM     37  CD1 LEU C  18     -13.187   8.529  -4.848  1.00 36.98 LIG 0.01  C 
ENDBRANCH 34 35
ENDBRANCH 5 34
ENDBRANCH 3 5
BRANCH 1 38
ATOM     38  CA  PRO C  17     -12.078  10.054 -11.107  1.00 33.71 LIG 0.18  C 
ATOM     39  CB  PRO C  17     -11.956  11.461 -10.513  1.00 36.04 LIG 0.04  C 
ATOM     40  CG  PRO C  17     -13.033  12.296 -11.173  1.00 41.66 LIG 0.02  C 
ATOM     41  CD  PRO C  17     -13.793  11.433 -12.135  1.00 37.74 LIG 0.13  C 
ATOM     42  N   PRO C  17     -12.916  10.251 -12.293  1.00 35.06 LIG-0.34  N 
ATOM     43  C   ARG C  16     -12.781   9.411 -13.336  1.00 37.80 LIG 0.24  C 
ATOM     44 O    ARG C  16     -11.972   8.487 -13.289  1.00 34.25 LIG-0.27  OA
BRANCH 43 45
ATOM     45  CA  ARG C  16     -13.618   9.619 -14.613  1.00 39.10 LIG 0.18  C 
BRANCH 45 46
ATOM     46  CB  ARG C  16     -14.552   8.413 -14.832  1.00 42.59 LIG 0.04  C 
BRANCH 46 47
ATOM     47  CG  ARG C  16     -14.457   7.778 -16.216  1.00 54.51 LIG 0.02  C 
BRANCH 47 48
ATOM     48  CD  ARG C  16     -14.842   6.312 -16.199  1.00 71.70 LIG 0.14  C 
BRANCH 48 49
ATOM     49  NE  ARG C  16     -16.287   6.133 -16.371  1.00 86.72 LIG-0.23  N 
ATOM     50 HE   ARG C  16     -16.803   6.751 -16.069  1.00 86.72 LIG 0.18  HD
ATOM     51  CZ  ARG C  16     -16.858   5.086 -16.962  1.00 98.48 LIG 0.67  C 
ATOM     52  NH2 ARG C  16     -18.180   5.012 -17.062  1.00 86.10 LIG-0.23  N 
ATOM     53  NH1 ARG C  16     -16.114   4.102 -17.449  1.00 81.98 LIG-0.23  N 
ATOM     54 2HH2 ARG C  16     -18.544   4.333 -17.445  1.00 86.10 LIG 0.17  HD
ATOM     55 1HH2 ARG C  16     -18.671   5.642 -16.745  1.00 86.10 LIG 0.17  HD
ATOM     56 1HH1 ARG C  16     -15.257   4.138 -17.384  1.00 81.98 LIG 0.17  HD
ATOM     57 2HH1 ARG C  16     -16.488   3.428 -17.830  1.00 81.98 LIG 0.17  HD
ENDBRANCH 48 49
ENDBRANCH 47 48
ENDBRANCH 46 47
ENDBRANCH 45 46
BRANCH 45 58
ATOM     58  N   ARG C  16     -12.722   9.794 -15.760  1.00 40.87 LIG-0.35  N 
ATOM     59  C   PRO C  15     -12.231  10.982 -16.184  1.00 47.02 LIG 0.25  C 
ATOM     60 O    PRO C  15     -12.519  12.059 -15.660  1.00 46.36 LIG-0.27  OA
ATOM     61 H    ARG C  16     -12.530   9.053 -16.151  1.00 40.87 LIG 0.16  HD
BRANCH 59 62
ATOM     62  CA  PRO C  15     -11.238  10.948 -17.348  1.00 46.56 LIG 0.35  C 
ATOM     63  N   PRO C  15     -11.776  10.307 -18.557  1.00 47.38 LIG 0.32  N 
ATOM     64  CD  PRO C  15     -11.870  11.258 -19.681  1.00 49.28 LIG 0.32  C 
ATOM     65  CG  PRO C  15     -10.874  12.316 -19.312  1.00 53.38 LIG 0.04  C 
ATOM     66  CB  PRO C  15     -10.900  12.373 -17.819  1.00 48.49 LIG 0.05  C 
ENDBRANCH 59 62
ENDBRANCH 45 58
ENDBRANCH 43 45
ENDBRANCH 1 38
TORSDOF 18
ENDMDL
MODEL 63
USER: ADFR SOLUTION from run 170
USER: SCORE 21.225119 LL:  -5.089 LR: -18.290 RR:   0.000 FEB: -12.921
USER: RMSD 13.872168
USER: SEED 169
USER: STATUS no improvement in best in 14 clusters for 5 generations
USER: GENES 20
USER: genes 0 Translation |==|  0.46423 0.50153 0.50504
USER: genes 1 Rotation |==|  0.97354 0.36225 0.47564 0.57867
USER: genes 2 Torsion [C]-N--CA-[CB] |==|  0.25927
USER: genes 3 Torsion [N]-CA--C-[N] |==|  0.43171
USER: genes 4 Torsion [N]-CA--C-[O] |==|  0.90435
USER: genes 5 Torsion [C]-N--CA-[C] |==|  0.26843
USER: genes 6 Torsion [N]-CA--C-[N] |==|  0.42265
USER: genes 7 Torsion [N]-CA--C-[O] |==|  0.55854
USER: genes 8 Torsion [N]-CA--CB-[CG] |==|  0.33169
USER: genes 9 Torsion [CA]-CB--CG-[CD1] |==|  0.76770
USER: genes 10 Torsion [N]-CA--CB-[CG] |==|  0.31024
USER: genes 11 Torsion [CA]-CB--CG-[CD2] |==|  0.69642
USER: genes 12 Torsion [O]-C--CA-[CB] |==|  0.32577
USER: genes 13 Torsion [N]-C--CA-[N] |==|  0.88581
USER: genes 14 Torsion [C]-CA--CB-[CG] |==|  0.50021
USER: genes 15 Torsion [CA]-CB--CG-[CD] |==|  0.56927
USER: genes 16 Torsion [CB]-CG--CD-[NE] |==|  0.73876
USER: genes 17 Torsion [CG]-CD--NE-[HE] |==|  0.00337
USER: genes 18 Torsion [C]-CA--N-[C] |==|  0.82892
USER: genes 19 Torsion [N]-C--CA-[CB] |==|  0.14951
ROOT
ATOM      1  C   PRO C  17     -12.257   9.379 -10.161  1.00 34.10 LIG 0.24  C 
ATOM      2 O    PRO C  17     -13.480   9.447 -10.258  1.00 31.91 LIG-0.27  OA
ATOM      3  N   LEU C  18     -11.653   8.870  -9.104  1.00 30.88 LIG-0.35  N 
ATOM      4 H    LEU C  18     -10.799   8.872  -9.007  1.00 30.88 LIG 0.16  HD
ENDROOT
BRANCH 3 5
ATOM      5  CA  LEU C  18     -12.364   8.254  -7.994  1.00 30.78 LIG 0.18  C 
BRANCH 5 6
ATOM      6  C   LEU C  18     -11.712   8.496  -6.643  1.00 33.73 LIG 0.24  C 
ATOM      7  N   PRO C  19     -12.499   8.432  -5.537  1.00 33.17 LIG-0.34  N 
ATOM      8  CA  PRO C  19     -11.897   8.597  -4.196  1.00 33.85 LIG 0.18  C 
ATOM      9  CD  PRO C  19     -13.967   8.231  -5.460  1.00 35.22 LIG 0.13  C 
ATOM     10  CB  PRO C  19     -13.108   8.783  -3.275  1.00 35.69 LIG 0.04  C 
ATOM     11  CG  PRO C  19     -14.255   8.186  -3.992  1.00 39.92 LIG 0.02  C 
ATOM     12 O    LEU C  18     -10.489   8.642  -6.592  1.00 31.40 LIG-0.27  OA
BRANCH 8 13
ATOM     13  C   PRO C  19     -10.987   7.439  -3.760  1.00 39.47 LIG 0.24  C 
ATOM     14  N   PHE C  20      -9.911   7.775  -3.046  1.00 41.20 LIG-0.35  N 
ATOM     15 H    PHE C  20      -9.735   8.590  -2.834  1.00 41.20 LIG 0.16  HD
ATOM     16 O    PRO C  19     -11.230   6.282  -4.086  1.00 36.20 LIG-0.27  OA
BRANCH 14 17
ATOM     17  CA  PHE C  20      -8.916   6.828  -2.544  1.00 43.59 LIG 0.18  C 
BRANCH 17 18
ATOM     18  C   PHE C  20      -7.723   6.776  -3.516  1.00 48.54 LIG 0.24  C 
ATOM     19  N   PRO C  21      -6.484   6.456  -3.056  1.00 46.41 LIG-0.34  N 
ATOM     20  CA  PRO C  21      -5.345   6.352  -3.999  1.00 51.72 LIG 0.17  C 
ATOM     21  CD  PRO C  21      -6.047   6.192  -1.671  1.00 49.19 LIG 0.13  C 
ATOM     22  CB  PRO C  21      -4.163   5.956  -3.098  1.00 52.56 LIG 0.04  C 
ATOM     23  CG  PRO C  21      -4.558   6.355  -1.734  1.00 54.82 LIG 0.02  C 
ATOM     24 O    PHE C  20      -7.935   7.003  -4.709  1.00 48.67 LIG-0.27  OA
BRANCH 20 25
ATOM     25  C   PRO C  21      -5.544   5.312  -5.103  1.00 87.57 LIG 0.22  C 
ATOM     26 O    PRO C  21      -4.569   4.852  -5.696  1.00 58.80 LIG-0.29  OA
ENDBRANCH 20 25
ENDBRANCH 17 18
BRANCH 17 27
ATOM     27  CB  PHE C  20      -9.575   5.433  -2.387  1.00 46.79 LIG 0.07  C 
BRANCH 27 28
ATOM     28  CG  PHE C  20      -8.995   4.293  -3.201  1.00 50.46 LIG-0.06  A 
ATOM     29  CD2 PHE C  20      -8.028   3.450  -2.660  1.00 54.33 LIG 0.01  A 
ATOM     30  CE2 PHE C  20      -7.494   2.396  -3.413  1.00 57.68 LIG 0.00  A 
ATOM     31  CZ  PHE C  20      -7.906   2.199  -4.718  1.00 55.81 LIG 0.00  A 
ATOM     32  CE1 PHE C  20      -8.853   3.033  -5.274  1.00 56.05 LIG 0.00  A 
ATOM     33  CD1 PHE C  20      -9.379   4.092  -4.524  1.00 54.84 LIG 0.01  A 
ENDBRANCH 27 28
ENDBRANCH 17 27
ENDBRANCH 14 17
ENDBRANCH 8 13
ENDBRANCH 5 6
BRANCH 5 34
ATOM     34  CB  LEU C  18     -12.457   6.749  -8.235  1.00 31.46 LIG 0.04  C 
BRANCH 34 35
ATOM     35  CG  LEU C  18     -11.658   5.873  -7.305  1.00 36.62 LIG-0.02  C 
ATOM     36  CD2 LEU C  18     -10.485   5.257  -8.052  1.00 38.91 LIG 0.01  C 
ATOM     37  CD1 LEU C  18     -12.558   4.785  -6.712  1.00 36.98 LIG 0.01  C 
ENDBRANCH 34 35
ENDBRANCH 5 34
ENDBRANCH 3 5
BRANCH 1 38
ATOM     38  CA  PRO C  17     -11.331   9.955 -11.224  1.00 33.71 LIG 0.18  C 
ATOM     39  CB  PRO C  17     -10.443  11.083 -10.689  1.00 36.04 LIG 0.04  C 
ATOM     40  CG  PRO C  17     -10.952  12.361 -11.321  1.00 41.66 LIG 0.02  C 
ATOM     41  CD  PRO C  17     -12.115  12.033 -12.209  1.00 37.74 LIG 0.13  C 
ATOM     42  N   PRO C  17     -12.011  10.566 -12.370  1.00 35.06 LIG-0.34  N 
ATOM     43  C   ARG C  16     -12.410   9.779 -13.388  1.00 37.80 LIG 0.24  C 
ATOM     44 O    ARG C  16     -12.214   8.567 -13.350  1.00 34.25 LIG-0.27  OA
BRANCH 43 45
ATOM     45  CA  ARG C  16     -13.090  10.397 -14.625  1.00 39.10 LIG 0.18  C 
BRANCH 45 46
ATOM     46  CB  ARG C  16     -12.026  10.981 -15.574  1.00 42.59 LIG 0.04  C 
BRANCH 46 47
ATOM     47  CG  ARG C  16     -12.585  11.624 -16.838  1.00 54.51 LIG 0.02  C 
BRANCH 47 48
ATOM     48  CD  ARG C  16     -11.577  11.629 -17.971  1.00 71.70 LIG 0.14  C 
BRANCH 48 49
ATOM     49  NE  ARG C  16     -10.825  12.887 -18.015  1.00 86.72 LIG-0.23  N 
ATOM     50 HE   ARG C  16     -11.000  13.477 -17.414  1.00 86.72 LIG 0.18  HD
ATOM     51  CZ  ARG C  16      -9.891  13.183 -18.916  1.00 98.48 LIG 0.67  C 
ATOM     52  NH2 ARG C  16      -9.270  14.355 -18.877  1.00 86.10 LIG-0.23  N 
ATOM     53  NH1 ARG C  16      -9.577  12.312 -19.867  1.00 81.98 LIG-0.23  N 
ATOM     54 2HH2 ARG C  16      -8.667  14.541 -19.462  1.00 86.10 LIG 0.17  HD
ATOM     55 1HH2 ARG C  16      -9.471  14.928 -18.269  1.00 86.10 LIG 0.17  HD
ATOM     56 1HH1 ARG C  16      -9.977  11.552 -19.904  1.00 81.98 LIG 0.17  HD
ATOM     57 2HH1 ARG C  16      -8.973  12.508 -20.446  1.00 81.98 LIG 0.17  HD
ENDBRANCH 48 49
ENDBRANCH 47 48
ENDBRANCH 46 47
ENDBRANCH 45 46
BRANCH 45 58
ATOM     58  N   ARG C  16     -14.028  11.440 -14.195  1.00 40.87 LIG-0.35  N 
ATOM     59  C   PRO C  15     -15.107  11.233 -13.405  1.00 47.02 LIG 0.25  C 
ATOM     60 O    PRO C  15     -15.436  10.123 -12.987  1.00 46.36 LIG-0.27  OA
ATOM     61 H    ARG C  16     -13.824  12.218 -14.499  1.00 40.87 LIG 0.16  HD
BRANCH 59 62
ATOM     62  CA  PRO C  15     -15.915  12.466 -12.994  1.00 46.56 LIG 0.35  C 
ATOM     63  N   PRO C  15     -15.144  13.433 -12.199  1.00 47.38 LIG 0.32  N 
ATOM     64  CD  PRO C  15     -14.998  14.721 -12.901  1.00 49.28 LIG 0.32  C 
ATOM     65  CG  PRO C  15     -16.145  14.714 -13.864  1.00 53.38 LIG 0.04  C 
ATOM     66  CB  PRO C  15     -16.338  13.278 -14.231  1.00 48.49 LIG 0.05  C 
ENDBRANCH 59 62
ENDBRANCH 45 58
ENDBRANCH 43 45
ENDBRANCH 1 38
TORSDOF 18
ENDMDL
MODEL 64
USER: ADFR SOLUTION from run 83
USER: SCORE 20.114570 LL:  -4.025 LR: -18.270 RR:   0.000 FEB: -12.901
USER: RMSD 13.784995
USER: SEED 82
USER: STATUS no improvement in best in 6 clusters for 5 generations
USER: GENES 20
USER: genes 0 Translation |==|  0.45181 0.56378 0.42862
USER: genes 1 Rotation |==|  0.20291 0.14353 0.32798 0.57125
USER: genes 2 Torsion [C]-N--CA-[CB] |==|  0.22852
USER: genes 3 Torsion [N]-CA--C-[N] |==|  0.29177
USER: genes 4 Torsion [N]-CA--C-[O] |==|  0.10571
USER: genes 5 Torsion [C]-N--CA-[C] |==|  0.67942
USER: genes 6 Torsion [N]-CA--C-[N] |==|  0.37905
USER: genes 7 Torsion [N]-CA--C-[O] |==|  0.35464
USER: genes 8 Torsion [N]-CA--CB-[CG] |==|  0.88874
USER: genes 9 Torsion [CA]-CB--CG-[CD1] |==|  0.32320
USER: genes 10 Torsion [N]-CA--CB-[CG] |==|  0.13870
USER: genes 11 Torsion [CA]-CB--CG-[CD2] |==|  0.74152
USER: genes 12 Torsion [O]-C--CA-[CB] |==|  0.39123
USER: genes 13 Torsion [N]-C--CA-[N] |==|  0.51161
USER: genes 14 Torsion [C]-CA--CB-[CG] |==|  0.32831
USER: genes 15 Torsion [CA]-CB--CG-[CD] |==|  0.60632
USER: genes 16 Torsion [CB]-CG--CD-[NE] |==|  0.59684
USER: genes 17 Torsion [CG]-CD--NE-[HE] |==|  0.01324
USER: genes 18 Torsion [C]-CA--N-[C] |==|  0.17222
USER: genes 19 Torsion [N]-C--CA-[CB] |==|  0.31990
ROOT
ATOM      1  C   PRO C  17     -12.480  10.500 -12.626  1.00 34.10 LIG 0.24  C 
ATOM      2 O    PRO C  17     -11.645   9.923 -13.319  1.00 31.91 LIG-0.27  OA
ATOM      3  N   LEU C  18     -12.457  10.468 -11.307  1.00 30.88 LIG-0.35  N 
ATOM      4 H    LEU C  18     -13.069  10.822 -10.819  1.00 30.88 LIG 0.16  HD
ENDROOT
BRANCH 3 5
ATOM      5  CA  LEU C  18     -11.396   9.832 -10.539  1.00 30.78 LIG 0.18  C 
BRANCH 5 6
ATOM      6  C   LEU C  18     -11.823   9.408  -9.144  1.00 33.73 LIG 0.24  C 
ATOM      7  N   PRO C  19     -12.037   8.085  -8.919  1.00 33.17 LIG-0.34  N 
ATOM      8  CA  PRO C  19     -12.391   7.618  -7.562  1.00 33.85 LIG 0.18  C 
ATOM      9  CD  PRO C  19     -11.989   6.965  -9.892  1.00 35.22 LIG 0.13  C 
ATOM     10  CB  PRO C  19     -12.854   6.174  -7.784  1.00 35.69 LIG 0.04  C 
ATOM     11  CG  PRO C  19     -12.243   5.746  -9.060  1.00 39.92 LIG 0.02  C 
ATOM     12 O    LEU C  18     -11.863  10.258  -8.252  1.00 31.40 LIG-0.27  OA
BRANCH 8 13
ATOM     13  C   PRO C  19     -11.256   7.729  -6.533  1.00 39.47 LIG 0.24  C 
ATOM     14  N   PHE C  20     -11.185   6.752  -5.627  1.00 41.20 LIG-0.35  N 
ATOM     15 H    PHE C  20     -11.737   6.092  -5.619  1.00 41.20 LIG 0.16  HD
ATOM     16 O    PRO C  19     -10.488   8.686  -6.535  1.00 36.20 LIG-0.27  OA
BRANCH 14 17
ATOM     17  CA  PHE C  20     -10.189   6.676  -4.560  1.00 43.59 LIG 0.18  C 
BRANCH 17 18
ATOM     18  C   PHE C  20      -9.298   5.440  -4.779  1.00 48.54 LIG 0.24  C 
ATOM     19  N   PRO C  21      -7.952   5.535  -4.617  1.00 46.41 LIG-0.34  N 
ATOM     20  CA  PRO C  21      -7.097   4.333  -4.774  1.00 51.72 LIG 0.17  C 
ATOM     21  CD  PRO C  21      -7.135   6.724  -4.303  1.00 49.19 LIG 0.13  C 
ATOM     22  CB  PRO C  21      -5.680   4.856  -4.489  1.00 52.56 LIG 0.04  C 
ATOM     23  CG  PRO C  21      -5.749   6.315  -4.701  1.00 54.82 LIG 0.02  C 
ATOM     24 O    PHE C  20      -9.844   4.374  -5.075  1.00 48.67 LIG-0.27  OA
BRANCH 20 25
ATOM     25  C   PRO C  21      -7.445   3.192  -3.817  1.00 87.57 LIG 0.22  C 
ATOM     26 O    PRO C  21      -7.649   2.062  -4.257  1.00 58.80 LIG-0.29  OA
ENDBRANCH 20 25
ENDBRANCH 17 18
BRANCH 17 27
ATOM     27  CB  PHE C  20     -10.915   6.610  -3.191  1.00 46.79 LIG 0.07  C 
BRANCH 27 28
ATOM     28  CG  PHE C  20     -12.138   7.486  -3.007  1.00 50.46 LIG-0.06  A 
ATOM     29  CD2 PHE C  20     -12.027   8.874  -2.998  1.00 54.33 LIG 0.01  A 
ATOM     30  CE2 PHE C  20     -13.159   9.682  -2.828  1.00 57.68 LIG 0.00  A 
ATOM     31  CZ  PHE C  20     -14.401   9.104  -2.642  1.00 55.81 LIG 0.00  A 
ATOM     32  CE1 PHE C  20     -14.527   7.731  -2.635  1.00 56.05 LIG 0.00  A 
ATOM     33  CD1 PHE C  20     -13.394   6.924  -2.794  1.00 54.84 LIG 0.01  A 
ENDBRANCH 27 28
ENDBRANCH 17 27
ENDBRANCH 14 17
ENDBRANCH 8 13
ENDBRANCH 5 6
BRANCH 5 34
ATOM     34  CB  LEU C  18     -10.218  10.797 -10.424  1.00 31.46 LIG 0.04  C 
BRANCH 34 35
ATOM     35  CG  LEU C  18     -10.541  12.195  -9.964  1.00 36.62 LIG-0.02  C 
ATOM     36  CD2 LEU C  18     -10.775  13.097 -11.166  1.00 38.91 LIG 0.01  C 
ATOM     37  CD1 LEU C  18      -9.403  12.733  -9.091  1.00 36.98 LIG 0.01  C 
ENDBRANCH 34 35
ENDBRANCH 5 34
ENDBRANCH 3 5
BRANCH 1 38
ATOM     38  CA  PRO C  17     -13.665  11.236 -13.236  1.00 33.71 LIG 0.18  C 
ATOM     39  CB  PRO C  17     -14.957  11.050 -12.433  1.00 36.04 LIG 0.04  C 
ATOM     40  CG  PRO C  17     -15.859  10.172 -13.275  1.00 41.66 LIG 0.02  C 
ATOM     41  CD  PRO C  17     -15.146   9.825 -14.547  1.00 37.74 LIG 0.13  C 
ATOM     42  N   PRO C  17     -14.033  10.800 -14.587  1.00 35.06 LIG-0.34  N 
ATOM     43  C   ARG C  16     -13.383  11.324 -15.643  1.00 37.80 LIG 0.24  C 
ATOM     44 O    ARG C  16     -12.488  12.149 -15.474  1.00 34.25 LIG-0.27  OA
BRANCH 43 45
ATOM     45  CA  ARG C  16     -13.776  10.916 -17.076  1.00 39.10 LIG 0.18  C 
BRANCH 45 46
ATOM     46  CB  ARG C  16     -13.739   9.383 -17.216  1.00 42.59 LIG 0.04  C 
BRANCH 46 47
ATOM     47  CG  ARG C  16     -15.079   8.742 -17.562  1.00 54.51 LIG 0.02  C 
BRANCH 47 48
ATOM     48  CD  ARG C  16     -15.287   7.425 -16.840  1.00 71.70 LIG 0.14  C 
BRANCH 48 49
ATOM     49  NE  ARG C  16     -16.026   6.469 -17.670  1.00 86.72 LIG-0.23  N 
ATOM     50 HE   ARG C  16     -16.211   6.702 -18.477  1.00 86.72 LIG 0.18  HD
ATOM     51  CZ  ARG C  16     -16.431   5.267 -17.266  1.00 98.48 LIG 0.67  C 
ATOM     52  NH2 ARG C  16     -17.104   4.475 -18.092  1.00 86.10 LIG-0.23  N 
ATOM     53  NH1 ARG C  16     -16.175   4.852 -16.032  1.00 81.98 LIG-0.23  N 
ATOM     54 2HH2 ARG C  16     -17.364   3.699 -17.826  1.00 86.10 LIG 0.17  HD
ATOM     55 1HH2 ARG C  16     -17.280   4.737 -18.891  1.00 86.10 LIG 0.17  HD
ATOM     56 1HH1 ARG C  16     -15.745   5.360 -15.488  1.00 81.98 LIG 0.17  HD
ATOM     57 2HH1 ARG C  16     -16.439   4.075 -15.777  1.00 81.98 LIG 0.17  HD
ENDBRANCH 48 49
ENDBRANCH 47 48
ENDBRANCH 46 47
ENDBRANCH 45 46
BRANCH 45 58
ATOM     58  N   ARG C  16     -12.857  11.545 -18.030  1.00 40.87 LIG-0.35  N 
ATOM     59  C   PRO C  15     -11.523  11.324 -18.081  1.00 47.02 LIG 0.25  C 
ATOM     60 O    PRO C  15     -10.929  10.585 -17.295  1.00 46.36 LIG-0.27  OA
ATOM     61 H    ARG C  16     -13.253  12.084 -18.571  1.00 40.87 LIG 0.16  HD
BRANCH 59 62
ATOM     62  CA  PRO C  15     -10.747  12.010 -19.208  1.00 46.56 LIG 0.35  C 
ATOM     63  N   PRO C  15     -11.597  12.815 -20.098  1.00 47.38 LIG 0.32  N 
ATOM     64  CD  PRO C  15     -11.246  14.246 -20.035  1.00 49.28 LIG 0.32  C 
ATOM     65  CG  PRO C  15      -9.833  14.227 -19.539  1.00 53.38 LIG 0.04  C 
ATOM     66  CB  PRO C  15      -9.751  13.035 -18.640  1.00 48.49 LIG 0.05  C 
ENDBRANCH 59 62
ENDBRANCH 45 58
ENDBRANCH 43 45
ENDBRANCH 1 38
TORSDOF 18
ENDMDL
MODEL 65
USER: ADFR SOLUTION from run 110
USER: SCORE 21.589146 LL:  -4.059 LR: -18.259 RR:   0.000 FEB: -12.889
USER: RMSD 14.315792
USER: SEED 109
USER: STATUS no improvement in best in 8 clusters for 5 generations
USER: GENES 20
USER: genes 0 Translation |==|  0.43576 0.59779 0.34295
USER: genes 1 Rotation |==|  0.59654 0.95855 0.64194 0.60133
USER: genes 2 Torsion [C]-N--CA-[CB] |==|  0.50800
USER: genes 3 Torsion [N]-CA--C-[N] |==|  0.45605
USER: genes 4 Torsion [N]-CA--C-[O] |==|  0.97789
USER: genes 5 Torsion [C]-N--CA-[C] |==|  0.79304
USER: genes 6 Torsion [N]-CA--C-[N] |==|  0.35937
USER: genes 7 Torsion [N]-CA--C-[O] |==|  0.34923
USER: genes 8 Torsion [N]-CA--CB-[CG] |==|  0.64215
USER: genes 9 Torsion [CA]-CB--CG-[CD1] |==|  0.04151
USER: genes 10 Torsion [N]-CA--CB-[CG] |==|  0.76516
USER: genes 11 Torsion [CA]-CB--CG-[CD2] |==|  0.19201
USER: genes 12 Torsion [O]-C--CA-[CB] |==|  0.22290
USER: genes 13 Torsion [N]-C--CA-[N] |==|  0.48333
USER: genes 14 Torsion [C]-CA--CB-[CG] |==|  0.64535
USER: genes 15 Torsion [CA]-CB--CG-[CD] |==|  0.80426
USER: genes 16 Torsion [CB]-CG--CD-[NE] |==|  0.58086
USER: genes 17 Torsion [CG]-CD--NE-[HE] |==|  0.07384
USER: genes 18 Torsion [C]-CA--N-[C] |==|  0.65551
USER: genes 19 Torsion [N]-C--CA-[CB] |==|  0.04314
ROOT
ATOM      1  C   PRO C  17     -12.769  11.112 -15.389  1.00 34.10 LIG 0.24  C 
ATOM      2 O    PRO C  17     -11.600  11.148 -15.010  1.00 31.91 LIG-0.27  OA
ATOM      3  N   LEU C  18     -13.785  11.387 -14.593  1.00 30.88 LIG-0.35  N 
ATOM      4 H    LEU C  18     -14.606  11.309 -14.837  1.00 30.88 LIG 0.16  HD
ENDROOT
BRANCH 3 5
ATOM      5  CA  LEU C  18     -13.627  11.851 -13.222  1.00 30.78 LIG 0.18  C 
BRANCH 5 6
ATOM      6  C   LEU C  18     -12.782  10.928 -12.360  1.00 33.73 LIG 0.24  C 
ATOM      7  N   PRO C  19     -12.304  11.417 -11.186  1.00 33.17 LIG-0.34  N 
ATOM      8  CA  PRO C  19     -11.531  10.537 -10.284  1.00 33.85 LIG 0.18  C 
ATOM      9  CD  PRO C  19     -12.426  12.792 -10.641  1.00 35.22 LIG 0.13  C 
ATOM     10  CB  PRO C  19     -10.915  11.507  -9.270  1.00 35.69 LIG 0.04  C 
ATOM     11  CG  PRO C  19     -11.766  12.716  -9.300  1.00 39.92 LIG 0.02  C 
ATOM     12 O    LEU C  18     -12.645   9.753 -12.706  1.00 31.40 LIG-0.27  OA
BRANCH 8 13
ATOM     13  C   PRO C  19     -12.355   9.423  -9.620  1.00 39.47 LIG 0.24  C 
ATOM     14  N   PHE C  20     -11.662   8.490  -8.964  1.00 41.20 LIG-0.35  N 
ATOM     15 H    PHE C  20     -10.804   8.510  -8.907  1.00 41.20 LIG 0.16  HD
ATOM     16 O    PRO C  19     -13.576   9.386  -9.726  1.00 36.20 LIG-0.27  OA
BRANCH 14 17
ATOM     17  CA  PHE C  20     -12.252   7.344  -8.275  1.00 43.59 LIG 0.18  C 
BRANCH 17 18
ATOM     18  C   PHE C  20     -12.908   7.818  -6.965  1.00 48.54 LIG 0.24  C 
ATOM     19  N   PRO C  21     -14.189   7.464  -6.678  1.00 46.41 LIG-0.34  N 
ATOM     20  CA  PRO C  21     -14.804   7.873  -5.393  1.00 51.72 LIG 0.17  C 
ATOM     21  CD  PRO C  21     -15.146   6.697  -7.499  1.00 49.19 LIG 0.13  C 
ATOM     22  CB  PRO C  21     -16.214   7.262  -5.454  1.00 52.56 LIG 0.04  C 
ATOM     23  CG  PRO C  21     -16.476   7.020  -6.886  1.00 54.82 LIG 0.02  C 
ATOM     24 O    PHE C  20     -12.231   8.495  -6.187  1.00 48.67 LIG-0.27  OA
BRANCH 20 25
ATOM     25  C   PRO C  21     -14.059   7.367  -4.156  1.00 87.57 LIG 0.22  C 
ATOM     26 O    PRO C  21     -13.694   8.160  -3.291  1.00 58.80 LIG-0.29  OA
ENDBRANCH 20 25
ENDBRANCH 17 18
BRANCH 17 27
ATOM     27  CB  PHE C  20     -11.148   6.291  -8.001  1.00 46.79 LIG 0.07  C 
BRANCH 27 28
ATOM     28  CG  PHE C  20     -11.423   4.864  -8.433  1.00 50.46 LIG-0.06  A 
ATOM     29  CD2 PHE C  20     -10.612   3.819  -8.000  1.00 54.33 LIG 0.01  A 
ATOM     30  CE2 PHE C  20     -10.869   2.500  -8.399  1.00 57.68 LIG 0.00  A 
ATOM     31  CZ  PHE C  20     -11.921   2.228  -9.254  1.00 55.81 LIG 0.00  A 
ATOM     32  CE1 PHE C  20     -12.726   3.253  -9.704  1.00 56.05 LIG 0.00  A 
ATOM     33  CD1 PHE C  20     -12.463   4.572  -9.312  1.00 54.84 LIG 0.01  A 
ENDBRANCH 27 28
ENDBRANCH 17 27
ENDBRANCH 14 17
ENDBRANCH 8 13
ENDBRANCH 5 6
BRANCH 5 34
ATOM     34  CB  LEU C  18     -15.006  11.997 -12.583  1.00 31.46 LIG 0.04  C 
BRANCH 34 35
ATOM     35  CG  LEU C  18     -15.726  13.297 -12.837  1.00 36.62 LIG-0.02  C 
ATOM     36  CD2 LEU C  18     -16.143  13.384 -14.297  1.00 38.91 LIG 0.01  C 
ATOM     37  CD1 LEU C  18     -14.824  14.475 -12.457  1.00 36.98 LIG 0.01  C 
ENDBRANCH 34 35
ENDBRANCH 5 34
ENDBRANCH 3 5
BRANCH 1 38
ATOM     38  CA  PRO C  17     -13.148  10.665 -16.794  1.00 33.71 LIG 0.18  C 
ATOM     39  CB  PRO C  17     -13.169   9.141 -16.946  1.00 36.04 LIG 0.04  C 
ATOM     40  CG  PRO C  17     -11.983   8.784 -17.819  1.00 41.66 LIG 0.02  C 
ATOM     41  CD  PRO C  17     -11.256  10.043 -18.186  1.00 37.74 LIG 0.13  C 
ATOM     42  N   PRO C  17     -12.231  11.105 -17.850  1.00 35.06 LIG-0.34  N 
ATOM     43  C   ARG C  16     -12.387  12.332 -18.383  1.00 37.80 LIG 0.24  C 
ATOM     44 O    ARG C  16     -13.281  13.073 -17.981  1.00 34.25 LIG-0.27  OA
BRANCH 43 45
ATOM     45  CA  ARG C  16     -11.465  12.805 -19.522  1.00 39.10 LIG 0.18  C 
BRANCH 45 46
ATOM     46  CB  ARG C  16     -10.013  12.904 -19.018  1.00 42.59 LIG 0.04  C 
BRANCH 46 47
ATOM     47  CG  ARG C  16      -9.336  14.245 -19.284  1.00 54.51 LIG 0.02  C 
BRANCH 47 48
ATOM     48  CD  ARG C  16      -9.039  14.453 -20.756  1.00 71.70 LIG 0.14  C 
BRANCH 48 49
ATOM     49  NE  ARG C  16      -7.863  15.308 -20.951  1.00 86.72 LIG-0.23  N 
ATOM     50 HE   ARG C  16      -7.272  15.319 -20.326  1.00 86.72 LIG 0.18  HD
ATOM     51  CZ  ARG C  16      -7.644  16.066 -22.022  1.00 98.48 LIG 0.67  C 
ATOM     52  NH2 ARG C  16      -6.550  16.814 -22.102  1.00 86.10 LIG-0.23  N 
ATOM     53  NH1 ARG C  16      -8.520  16.090 -23.018  1.00 81.98 LIG-0.23  N 
ATOM     54 2HH2 ARG C  16      -6.413  17.302 -22.796  1.00 86.10 LIG 0.17  HD
ATOM     55 1HH2 ARG C  16      -5.979  16.810 -21.459  1.00 86.10 LIG 0.17  HD
ATOM     56 1HH1 ARG C  16      -9.235  15.613 -22.974  1.00 81.98 LIG 0.17  HD
ATOM     57 2HH1 ARG C  16      -8.374  16.581 -23.708  1.00 81.98 LIG 0.17  HD
ENDBRANCH 48 49
ENDBRANCH 47 48
ENDBRANCH 46 47
ENDBRANCH 45 46
BRANCH 45 58
ATOM     58  N   ARG C  16     -11.931  14.105 -20.017  1.00 40.87 LIG-0.35  N 
ATOM     59  C   PRO C  15     -12.251  14.374 -21.304  1.00 47.02 LIG 0.25  C 
ATOM     60 O    PRO C  15     -12.151  13.549 -22.212  1.00 46.36 LIG-0.27  OA
ATOM     61 H    ARG C  16     -11.983  14.699 -19.397  1.00 40.87 LIG 0.16  HD
BRANCH 59 62
ATOM     62  CA  PRO C  15     -12.802  15.770 -21.606  1.00 46.56 LIG 0.35  C 
ATOM     63  N   PRO C  15     -14.265  15.805 -21.739  1.00 47.38 LIG 0.32  N 
ATOM     64  CD  PRO C  15     -14.887  16.634 -20.690  1.00 49.28 LIG 0.32  C 
ATOM     65  CG  PRO C  15     -13.771  17.541 -20.270  1.00 53.38 LIG 0.04  C 
ATOM     66  CB  PRO C  15     -12.526  16.730 -20.437  1.00 48.49 LIG 0.05  C 
ENDBRANCH 59 62
ENDBRANCH 45 58
ENDBRANCH 43 45
ENDBRANCH 1 38
TORSDOF 18
ENDMDL
MODEL 66
USER: ADFR SOLUTION from run 64
USER: SCORE 22.015008 LL:  -4.972 LR: -18.248 RR:   0.000 FEB: -12.879
USER: RMSD 13.851351
USER: SEED 63
USER: STATUS no improvement in best in 41 clusters for 5 generations
USER: GENES 20
USER: genes 0 Translation |==|  0.44688 0.51323 0.52264
USER: genes 1 Rotation |==|  0.96848 0.35609 0.44069 0.57935
USER: genes 2 Torsion [C]-N--CA-[CB] |==|  0.24025
USER: genes 3 Torsion [N]-CA--C-[N] |==|  0.39888
USER: genes 4 Torsion [N]-CA--C-[O] |==|  0.88904
USER: genes 5 Torsion [C]-N--CA-[C] |==|  0.55384
USER: genes 6 Torsion [N]-CA--C-[N] |==|  0.47586
USER: genes 7 Torsion [N]-CA--C-[O] |==|  0.76381
USER: genes 8 Torsion [N]-CA--CB-[CG] |==|  0.29847
USER: genes 9 Torsion [CA]-CB--CG-[CD1] |==|  0.31680
USER: genes 10 Torsion [N]-CA--CB-[CG] |==|  0.08766
USER: genes 11 Torsion [CA]-CB--CG-[CD2] |==|  0.57890
USER: genes 12 Torsion [O]-C--CA-[CB] |==|  0.39793
USER: genes 13 Torsion [N]-C--CA-[N] |==|  0.36718
USER: genes 14 Torsion [C]-CA--CB-[CG] |==|  0.92301
USER: genes 15 Torsion [CA]-CB--CG-[CD] |==|  0.76658
USER: genes 16 Torsion [CB]-CG--CD-[NE] |==|  0.83969
USER: genes 17 Torsion [CG]-CD--NE-[HE] |==|  0.33036
USER: genes 18 Torsion [C]-CA--N-[C] |==|  0.85000
USER: genes 19 Torsion [N]-C--CA-[CB] |==|  0.64427
ROOT
ATOM      1  C   PRO C  17     -12.569   9.590  -9.594  1.00 34.10 LIG 0.24  C 
ATOM      2 O    PRO C  17     -13.790   9.721  -9.528  1.00 31.91 LIG-0.27  OA
ATOM      3  N   LEU C  18     -11.861   9.016  -8.640  1.00 30.88 LIG-0.35  N 
ATOM      4 H    LEU C  18     -11.003   8.972  -8.655  1.00 30.88 LIG 0.16  HD
ENDROOT
BRANCH 3 5
ATOM      5  CA  LEU C  18     -12.454   8.397  -7.463  1.00 30.78 LIG 0.18  C 
BRANCH 5 6
ATOM      6  C   LEU C  18     -11.550   8.416  -6.243  1.00 33.73 LIG 0.24  C 
ATOM      7  N   PRO C  19     -12.127   8.599  -5.027  1.00 33.17 LIG-0.34  N 
ATOM      8  CA  PRO C  19     -11.296   8.560  -3.805  1.00 33.85 LIG 0.18  C 
ATOM      9  CD  PRO C  19     -13.552   8.871  -4.713  1.00 35.22 LIG 0.13  C 
ATOM     10  CB  PRO C  19     -12.221   9.115  -2.717  1.00 35.69 LIG 0.04  C 
ATOM     11  CG  PRO C  19     -13.598   8.913  -3.218  1.00 39.92 LIG 0.02  C 
ATOM     12 O    LEU C  18     -10.351   8.168  -6.389  1.00 31.40 LIG-0.27  OA
BRANCH 8 13
ATOM     13  C   PRO C  19     -10.734   7.173  -3.460  1.00 39.47 LIG 0.24  C 
ATOM     14  N   PHE C  20      -9.466   7.138  -3.046  1.00 41.20 LIG-0.35  N 
ATOM     15 H    PHE C  20      -8.987   7.848  -2.969  1.00 41.20 LIG 0.16  HD
ATOM     16 O    PRO C  19     -11.413   6.160  -3.596  1.00 36.20 LIG-0.27  OA
BRANCH 14 17
ATOM     17  CA  PHE C  20      -8.742   5.921  -2.679  1.00 43.59 LIG 0.18  C 
BRANCH 17 18
ATOM     18  C   PHE C  20      -7.523   6.293  -1.816  1.00 48.54 LIG 0.24  C 
ATOM     19  N   PRO C  21      -6.797   5.317  -1.208  1.00 46.41 LIG-0.34  N 
ATOM     20  CA  PRO C  21      -5.590   5.668  -0.421  1.00 51.72 LIG 0.17  C 
ATOM     21  CD  PRO C  21      -7.035   3.860  -1.185  1.00 49.19 LIG 0.13  C 
ATOM     22  CB  PRO C  21      -5.063   4.306   0.062  1.00 52.56 LIG 0.04  C 
ATOM     23  CG  PRO C  21      -6.214   3.387  -0.024  1.00 54.82 LIG 0.02  C 
ATOM     24 O    PHE C  20      -7.218   7.484  -1.721  1.00 48.67 LIG-0.27  OA
BRANCH 20 25
ATOM     25  C   PRO C  21      -4.514   6.399  -1.225  1.00 87.57 LIG 0.22  C 
ATOM     26 O    PRO C  21      -3.695   5.758  -1.881  1.00 58.80 LIG-0.29  OA
ENDBRANCH 20 25
ENDBRANCH 17 18
BRANCH 17 27
ATOM     27  CB  PHE C  20      -8.311   5.177  -3.970  1.00 46.79 LIG 0.07  C 
BRANCH 27 28
ATOM     28  CG  PHE C  20      -6.840   5.209  -4.335  1.00 50.46 LIG-0.06  A 
ATOM     29  CD2 PHE C  20      -6.231   6.395  -4.738  1.00 54.33 LIG 0.01  A 
ATOM     30  CE2 PHE C  20      -4.871   6.422  -5.074  1.00 57.68 LIG 0.00  A 
ATOM     31  CZ  PHE C  20      -4.123   5.260  -5.033  1.00 55.81 LIG 0.00  A 
ATOM     32  CE1 PHE C  20      -4.714   4.075  -4.649  1.00 56.05 LIG 0.00  A 
ATOM     33  CD1 PHE C  20      -6.076   4.045  -4.323  1.00 54.84 LIG 0.01  A 
ENDBRANCH 27 28
ENDBRANCH 17 27
ENDBRANCH 14 17
ENDBRANCH 8 13
ENDBRANCH 5 6
BRANCH 5 34
ATOM     34  CB  LEU C  18     -12.814   6.949  -7.790  1.00 31.46 LIG 0.04  C 
BRANCH 34 35
ATOM     35  CG  LEU C  18     -11.928   6.249  -8.787  1.00 36.62 LIG-0.02  C 
ATOM     36  CD2 LEU C  18     -12.719   5.180  -9.526  1.00 38.91 LIG 0.01  C 
ATOM     37  CD1 LEU C  18     -10.720   5.637  -8.072  1.00 36.98 LIG 0.01  C 
ENDBRANCH 34 35
ENDBRANCH 5 34
ENDBRANCH 3 5
BRANCH 1 38
ATOM     38  CA  PRO C  17     -11.759  10.157 -10.752  1.00 33.71 LIG 0.18  C 
ATOM     39  CB  PRO C  17     -10.394  10.696 -10.313  1.00 36.04 LIG 0.04  C 
ATOM     40  CG  PRO C  17     -10.472  12.203 -10.438  1.00 41.66 LIG 0.02  C 
ATOM     41  CD  PRO C  17     -11.837  12.578 -10.932  1.00 37.74 LIG 0.13  C 
ATOM     42  N   PRO C  17     -12.376  11.296 -11.437  1.00 35.06 LIG-0.34  N 
ATOM     43  C   ARG C  16     -13.280  11.064 -12.408  1.00 37.80 LIG 0.24  C 
ATOM     44 O    ARG C  16     -13.588   9.912 -12.706  1.00 34.25 LIG-0.27  OA
BRANCH 43 45
ATOM     45  CA  ARG C  16     -13.914  12.240 -13.174  1.00 39.10 LIG 0.18  C 
BRANCH 45 46
ATOM     46  CB  ARG C  16     -15.370  12.444 -12.715  1.00 42.59 LIG 0.04  C 
BRANCH 46 47
ATOM     47  CG  ARG C  16     -16.058  11.185 -12.200  1.00 54.51 LIG 0.02  C 
BRANCH 47 48
ATOM     48  CD  ARG C  16     -16.642  10.352 -13.324  1.00 71.70 LIG 0.14  C 
BRANCH 48 49
ATOM     49  NE  ARG C  16     -17.603  11.123 -14.121  1.00 86.72 LIG-0.23  N 
ATOM     50 HE   ARG C  16     -17.427  11.237 -14.955  1.00 86.72 LIG 0.18  HD
ATOM     51  CZ  ARG C  16     -18.725  11.659 -13.647  1.00 98.48 LIG 0.67  C 
ATOM     52  NH2 ARG C  16     -19.527  12.350 -14.448  1.00 86.10 LIG-0.23  N 
ATOM     53  NH1 ARG C  16     -19.049  11.518 -12.368  1.00 81.98 LIG-0.23  N 
ATOM     54 2HH2 ARG C  16     -20.251  12.694 -14.137  1.00 86.10 LIG 0.17  HD
ATOM     55 1HH2 ARG C  16     -19.323  12.452 -15.277  1.00 86.10 LIG 0.17  HD
ATOM     56 1HH1 ARG C  16     -18.532  11.077 -11.840  1.00 81.98 LIG 0.17  HD
ATOM     57 2HH1 ARG C  16     -19.775  11.866 -12.068  1.00 81.98 LIG 0.17  HD
ENDBRANCH 48 49
ENDBRANCH 47 48
ENDBRANCH 46 47
ENDBRANCH 45 46
BRANCH 45 58
ATOM     58  N   ARG C  16     -13.860  11.969 -14.615  1.00 40.87 LIG-0.35  N 
ATOM     59  C   PRO C  15     -12.736  11.657 -15.301  1.00 47.02 LIG 0.25  C 
ATOM     60 O    PRO C  15     -11.620  11.602 -14.783  1.00 46.36 LIG-0.27  OA
ATOM     61 H    ARG C  16     -14.628  12.027 -14.995  1.00 40.87 LIG 0.16  HD
BRANCH 59 62
ATOM     62  CA  PRO C  15     -12.899  11.322 -16.786  1.00 46.56 LIG 0.35  C 
ATOM     63  N   PRO C  15     -12.223  12.275 -17.678  1.00 47.38 LIG 0.32  N 
ATOM     64  CD  PRO C  15     -11.144  11.628 -18.448  1.00 49.28 LIG 0.32  C 
ATOM     65  CG  PRO C  15     -11.536  10.182 -18.430  1.00 53.38 LIG 0.04  C 
ATOM     66  CB  PRO C  15     -12.225   9.980 -17.120  1.00 48.49 LIG 0.05  C 
ENDBRANCH 59 62
ENDBRANCH 45 58
ENDBRANCH 43 45
ENDBRANCH 1 38
TORSDOF 18
ENDMDL
MODEL 67
USER: ADFR SOLUTION from run 144
USER: SCORE 22.238625 LL:  -5.244 LR: -18.241 RR:   0.000 FEB: -12.872
USER: RMSD 13.384894
USER: SEED 143
USER: STATUS no improvement in best in 5 clusters for 5 generations
USER: GENES 20
USER: genes 0 Translation |==|  0.46133 0.50380 0.50620
USER: genes 1 Rotation |==|  0.96891 0.35205 0.48648 0.58973
USER: genes 2 Torsion [C]-N--CA-[CB] |==|  0.20582
USER: genes 3 Torsion [N]-CA--C-[N] |==|  0.44444
USER: genes 4 Torsion [N]-CA--C-[O] |==|  0.69766
USER: genes 5 Torsion [C]-N--CA-[C] |==|  0.66721
USER: genes 6 Torsion [N]-CA--C-[N] |==|  0.48075
USER: genes 7 Torsion [N]-CA--C-[O] |==|  0.25289
USER: genes 8 Torsion [N]-CA--CB-[CG] |==|  0.78778
USER: genes 9 Torsion [CA]-CB--CG-[CD1] |==|  0.06965
USER: genes 10 Torsion [N]-CA--CB-[CG] |==|  0.07481
USER: genes 11 Torsion [CA]-CB--CG-[CD2] |==|  0.50934
USER: genes 12 Torsion [O]-C--CA-[CB] |==|  0.34267
USER: genes 13 Torsion [N]-C--CA-[N] |==|  0.86819
USER: genes 14 Torsion [C]-CA--CB-[CG] |==|  0.32246
USER: genes 15 Torsion [CA]-CB--CG-[CD] |==|  0.29268
USER: genes 16 Torsion [CB]-CG--CD-[NE] |==|  0.17845
USER: genes 17 Torsion [CG]-CD--NE-[HE] |==|  0.71391
USER: genes 18 Torsion [C]-CA--N-[C] |==|  0.83494
USER: genes 19 Torsion [N]-C--CA-[CB] |==|  0.16370
ROOT
ATOM      1  C   PRO C  17     -12.309   9.420 -10.124  1.00 34.10 LIG 0.24  C 
ATOM      2 O    PRO C  17     -13.525   9.524 -10.268  1.00 31.91 LIG-0.27  OA
ATOM      3  N   LEU C  18     -11.759   8.955  -9.018  1.00 30.88 LIG-0.35  N 
ATOM      4 H    LEU C  18     -10.909   8.933  -8.891  1.00 30.88 LIG 0.16  HD
ENDROOT
BRANCH 3 5
ATOM      5  CA  LEU C  18     -12.528   8.430  -7.899  1.00 30.78 LIG 0.18  C 
BRANCH 5 6
ATOM      6  C   LEU C  18     -11.729   8.309  -6.614  1.00 33.73 LIG 0.24  C 
ATOM      7  N   PRO C  19     -12.415   8.235  -5.443  1.00 33.17 LIG-0.34  N 
ATOM      8  CA  PRO C  19     -11.683   8.052  -4.172  1.00 33.85 LIG 0.18  C 
ATOM      9  CD  PRO C  19     -13.880   8.339  -5.224  1.00 35.22 LIG 0.13  C 
ATOM     10  CB  PRO C  19     -12.739   8.339  -3.099  1.00 35.69 LIG 0.04  C 
ATOM     11  CG  PRO C  19     -14.047   8.121  -3.753  1.00 39.92 LIG 0.02  C 
ATOM     12 O    LEU C  18     -10.505   8.183  -6.685  1.00 31.40 LIG-0.27  OA
BRANCH 8 13
ATOM     13  C   PRO C  19     -11.026   6.673  -4.008  1.00 39.47 LIG 0.24  C 
ATOM     14  N   PHE C  20      -9.988   6.418  -4.807  1.00 41.20 LIG-0.35  N 
ATOM     15 H    PHE C  20      -9.695   6.991  -5.379  1.00 41.20 LIG 0.16  HD
ATOM     16 O    PRO C  19     -11.463   5.851  -3.210  1.00 36.20 LIG-0.27  OA
BRANCH 14 17
ATOM     17  CA  PHE C  20      -9.232   5.166  -4.818  1.00 43.59 LIG 0.18  C 
BRANCH 17 18
ATOM     18  C   PHE C  20      -7.759   5.456  -4.475  1.00 48.54 LIG 0.24  C 
ATOM     19  N   PRO C  21      -6.890   4.428  -4.285  1.00 46.41 LIG-0.34  N 
ATOM     20  CA  PRO C  21      -5.460   4.704  -4.009  1.00 51.72 LIG 0.17  C 
ATOM     21  CD  PRO C  21      -7.153   2.975  -4.294  1.00 49.19 LIG 0.13  C 
ATOM     22  CB  PRO C  21      -4.837   3.304  -3.888  1.00 52.56 LIG 0.04  C 
ATOM     23  CG  PRO C  21      -5.962   2.396  -3.593  1.00 54.82 LIG 0.02  C 
ATOM     24 O    PHE C  20      -7.399   6.633  -4.406  1.00 48.67 LIG-0.27  OA
BRANCH 20 25
ATOM     25  C   PRO C  21      -4.757   5.506  -5.106  1.00 87.57 LIG 0.22  C 
ATOM     26 O    PRO C  21      -4.729   6.734  -5.046  1.00 58.80 LIG-0.29  OA
ENDBRANCH 20 25
ENDBRANCH 17 18
BRANCH 17 27
ATOM     27  CB  PHE C  20      -9.364   4.504  -6.213  1.00 46.79 LIG 0.07  C 
BRANCH 27 28
ATOM     28  CG  PHE C  20     -10.668   3.801  -6.531  1.00 50.46 LIG-0.06  A 
ATOM     29  CD2 PHE C  20     -10.726   2.811  -7.508  1.00 54.33 LIG 0.01  A 
ATOM     30  CE2 PHE C  20     -11.933   2.161  -7.800  1.00 57.68 LIG 0.00  A 
ATOM     31  CZ  PHE C  20     -13.090   2.518  -7.133  1.00 55.81 LIG 0.00  A 
ATOM     32  CE1 PHE C  20     -13.054   3.506  -6.172  1.00 56.05 LIG 0.00  A 
ATOM     33  CD1 PHE C  20     -11.850   4.162  -5.888  1.00 54.84 LIG 0.01  A 
ENDBRANCH 27 28
ENDBRANCH 17 27
ENDBRANCH 14 17
ENDBRANCH 8 13
ENDBRANCH 5 6
BRANCH 5 34
ATOM     34  CB  LEU C  18     -13.076   7.054  -8.273  1.00 31.46 LIG 0.04  C 
BRANCH 34 35
ATOM     35  CG  LEU C  18     -12.286   6.275  -9.292  1.00 36.62 LIG-0.02  C 
ATOM     36  CD2 LEU C  18     -12.999   4.971  -9.617  1.00 38.91 LIG 0.01  C 
ATOM     37  CD1 LEU C  18     -10.874   6.006  -8.764  1.00 36.98 LIG 0.01  C 
ENDBRANCH 34 35
ENDBRANCH 5 34
ENDBRANCH 3 5
BRANCH 1 38
ATOM     38  CA  PRO C  17     -11.328   9.900 -11.185  1.00 33.71 LIG 0.18  C 
ATOM     39  CB  PRO C  17     -10.322  10.921 -10.644  1.00 36.04 LIG 0.04  C 
ATOM     40  CG  PRO C  17     -10.690  12.252 -11.265  1.00 41.66 LIG 0.02  C 
ATOM     41  CD  PRO C  17     -11.883  12.059 -12.152  1.00 37.74 LIG 0.13  C 
ATOM     42  N   PRO C  17     -11.940  10.590 -12.324  1.00 35.06 LIG-0.34  N 
ATOM     43  C   ARG C  16     -12.425   9.860 -13.347  1.00 37.80 LIG 0.24  C 
ATOM     44 O    ARG C  16     -12.361   8.633 -13.318  1.00 34.25 LIG-0.27  OA
BRANCH 43 45
ATOM     45  CA  ARG C  16     -13.036  10.558 -14.577  1.00 39.10 LIG 0.18  C 
BRANCH 45 46
ATOM     46  CB  ARG C  16     -11.919  11.169 -15.445  1.00 42.59 LIG 0.04  C 
BRANCH 46 47
ATOM     47  CG  ARG C  16     -11.794  10.565 -16.839  1.00 54.51 LIG 0.02  C 
BRANCH 47 48
ATOM     48  CD  ARG C  16     -12.337  11.488 -17.913  1.00 71.70 LIG 0.14  C 
BRANCH 48 49
ATOM     49  NE  ARG C  16     -11.557  12.727 -18.000  1.00 86.72 LIG-0.23  N 
ATOM     50 HE   ARG C  16     -11.896  13.436 -17.650  1.00 86.72 LIG 0.18  HD
ATOM     51  CZ  ARG C  16     -10.365  12.834 -18.580  1.00 98.48 LIG 0.67  C 
ATOM     52  NH2 ARG C  16      -9.740  14.005 -18.616  1.00 86.10 LIG-0.23  N 
ATOM     53  NH1 ARG C  16      -9.792  11.775 -19.137  1.00 81.98 LIG-0.23  N 
ATOM     54 2HH2 ARG C  16      -8.969  14.069 -18.993  1.00 86.10 LIG 0.17  HD
ATOM     55 1HH2 ARG C  16     -10.105  14.698 -18.263  1.00 86.10 LIG 0.17  HD
ATOM     56 1HH1 ARG C  16     -10.191  11.013 -19.125  1.00 81.98 LIG 0.17  HD
ATOM     57 2HH1 ARG C  16      -9.021  11.850 -19.511  1.00 81.98 LIG 0.17  HD
ENDBRANCH 48 49
ENDBRANCH 47 48
ENDBRANCH 46 47
ENDBRANCH 45 46
BRANCH 45 58
ATOM     58  N   ARG C  16     -13.972  11.596 -14.133  1.00 40.87 LIG-0.35  N 
ATOM     59  C   PRO C  15     -15.067  11.376 -13.369  1.00 47.02 LIG 0.25  C 
ATOM     60 O    PRO C  15     -15.413  10.256 -12.990  1.00 46.36 LIG-0.27  OA
ATOM     61 H    ARG C  16     -13.756  12.381 -14.410  1.00 40.87 LIG 0.16  HD
BRANCH 59 62
ATOM     62  CA  PRO C  15     -15.872  12.603 -12.936  1.00 46.56 LIG 0.35  C 
ATOM     63  N   PRO C  15     -15.075  13.595 -12.199  1.00 47.38 LIG 0.32  N 
ATOM     64  CD  PRO C  15     -14.987  14.873 -12.929  1.00 49.28 LIG 0.32  C 
ATOM     65  CG  PRO C  15     -16.185  14.832 -13.829  1.00 53.38 LIG 0.04  C 
ATOM     66  CB  PRO C  15     -16.373  13.387 -14.161  1.00 48.49 LIG 0.05  C 
ENDBRANCH 59 62
ENDBRANCH 45 58
ENDBRANCH 43 45
ENDBRANCH 1 38
TORSDOF 18
ENDMDL
MODEL 68
USER: ADFR SOLUTION from run 170
USER: SCORE 21.687059 LL:  -4.992 LR: -18.230 RR:   0.000 FEB: -12.861
USER: RMSD 13.684630
USER: SEED 169
USER: STATUS no improvement in best in 14 clusters for 5 generations
USER: GENES 20
USER: genes 0 Translation |==|  0.45098 0.49382 0.51220
USER: genes 1 Rotation |==|  0.98514 0.40888 0.47496 0.57554
USER: genes 2 Torsion [C]-N--CA-[CB] |==|  0.24444
USER: genes 3 Torsion [N]-CA--C-[N] |==|  0.39727
USER: genes 4 Torsion [N]-CA--C-[O] |==|  0.82543
USER: genes 5 Torsion [C]-N--CA-[C] |==|  0.60157
USER: genes 6 Torsion [N]-CA--C-[N] |==|  0.16291
USER: genes 7 Torsion [N]-CA--C-[O] |==|  0.32624
USER: genes 8 Torsion [N]-CA--CB-[CG] |==|  0.78841
USER: genes 9 Torsion [CA]-CB--CG-[CD1] |==|  0.74575
USER: genes 10 Torsion [N]-CA--CB-[CG] |==|  0.75251
USER: genes 11 Torsion [CA]-CB--CG-[CD2] |==|  0.81347
USER: genes 12 Torsion [O]-C--CA-[CB] |==|  0.40824
USER: genes 13 Torsion [N]-C--CA-[N] |==|  0.37416
USER: genes 14 Torsion [C]-CA--CB-[CG] |==|  0.31141
USER: genes 15 Torsion [CA]-CB--CG-[CD] |==|  0.11013
USER: genes 16 Torsion [CB]-CG--CD-[NE] |==|  0.31639
USER: genes 17 Torsion [CG]-CD--NE-[HE] |==|  0.22773
USER: genes 18 Torsion [C]-CA--N-[C] |==|  0.84726
USER: genes 19 Torsion [N]-C--CA-[CB] |==|  0.67275
ROOT
ATOM      1  C   PRO C  17     -12.495   9.241  -9.931  1.00 34.10 LIG 0.24  C 
ATOM      2 O    PRO C  17     -13.712   9.080  -9.996  1.00 31.91 LIG-0.27  OA
ATOM      3  N   LEU C  18     -11.776   8.827  -8.904  1.00 30.88 LIG-0.35  N 
ATOM      4 H    LEU C  18     -10.935   8.986  -8.827  1.00 30.88 LIG 0.16  HD
ENDROOT
BRANCH 3 5
ATOM      5  CA  LEU C  18     -12.327   8.059  -7.797  1.00 30.78 LIG 0.18  C 
BRANCH 5 6
ATOM      6  C   LEU C  18     -11.608   8.289  -6.479  1.00 33.73 LIG 0.24  C 
ATOM      7  N   PRO C  19     -12.355   8.312  -5.344  1.00 33.17 LIG-0.34  N 
ATOM      8  CA  PRO C  19     -11.693   8.468  -4.031  1.00 33.85 LIG 0.18  C 
ATOM      9  CD  PRO C  19     -13.830   8.220  -5.207  1.00 35.22 LIG 0.13  C 
ATOM     10  CB  PRO C  19     -12.850   8.766  -3.073  1.00 35.69 LIG 0.04  C 
ATOM     11  CG  PRO C  19     -14.064   8.236  -3.729  1.00 39.92 LIG 0.02  C 
ATOM     12 O    LEU C  18     -10.377   8.346  -6.476  1.00 31.40 LIG-0.27  OA
BRANCH 8 13
ATOM     13  C   PRO C  19     -10.852   7.259  -3.594  1.00 39.47 LIG 0.24  C 
ATOM     14  N   PHE C  20      -9.538   7.465  -3.482  1.00 41.20 LIG-0.35  N 
ATOM     15 H    PHE C  20      -9.178   8.230  -3.638  1.00 41.20 LIG 0.16  HD
ATOM     16 O    PRO C  19     -11.368   6.163  -3.397  1.00 36.20 LIG-0.27  OA
BRANCH 14 17
ATOM     17  CA  PHE C  20      -8.565   6.447  -3.090  1.00 43.59 LIG 0.18  C 
BRANCH 17 18
ATOM     18  C   PHE C  20      -7.471   7.093  -2.221  1.00 48.54 LIG 0.24  C 
ATOM     19  N   PRO C  21      -7.806   7.724  -1.064  1.00 46.41 LIG-0.34  N 
ATOM     20  CA  PRO C  21      -6.748   8.299  -0.198  1.00 51.72 LIG 0.17  C 
ATOM     21  CD  PRO C  21      -9.144   7.963  -0.490  1.00 49.19 LIG 0.13  C 
ATOM     22  CB  PRO C  21      -7.531   8.882   0.991  1.00 52.56 LIG 0.04  C 
ATOM     23  CG  PRO C  21      -8.911   9.062   0.502  1.00 54.82 LIG 0.02  C 
ATOM     24 O    PHE C  20      -6.299   6.995  -2.593  1.00 48.67 LIG-0.27  OA
BRANCH 20 25
ATOM     25  C   PRO C  21      -5.720   7.278   0.292  1.00 87.57 LIG 0.22  C 
ATOM     26 O    PRO C  21      -4.539   7.392  -0.030  1.00 58.80 LIG-0.29  OA
ENDBRANCH 20 25
ENDBRANCH 17 18
BRANCH 17 27
ATOM     27  CB  PHE C  20      -7.962   5.802  -4.365  1.00 46.79 LIG 0.07  C 
BRANCH 27 28
ATOM     28  CG  PHE C  20      -8.821   4.802  -5.113  1.00 50.46 LIG-0.06  A 
ATOM     29  CD2 PHE C  20      -9.738   5.224  -6.071  1.00 54.33 LIG 0.01  A 
ATOM     30  CE2 PHE C  20     -10.530   4.298  -6.763  1.00 57.68 LIG 0.00  A 
ATOM     31  CZ  PHE C  20     -10.425   2.949  -6.478  1.00 55.81 LIG 0.00  A 
ATOM     32  CE1 PHE C  20      -9.532   2.514  -5.522  1.00 56.05 LIG 0.00  A 
ATOM     33  CD1 PHE C  20      -8.748   3.441  -4.825  1.00 54.84 LIG 0.01  A 
ENDBRANCH 27 28
ENDBRANCH 17 27
ENDBRANCH 14 17
ENDBRANCH 8 13
ENDBRANCH 5 6
BRANCH 5 34
ATOM     34  CB  LEU C  18     -12.265   6.573  -8.142  1.00 31.46 LIG 0.04  C 
BRANCH 34 35
ATOM     35  CG  LEU C  18     -13.456   6.004  -8.868  1.00 36.62 LIG-0.02  C 
ATOM     36  CD2 LEU C  18     -14.675   6.016  -7.958  1.00 38.91 LIG 0.01  C 
ATOM     37  CD1 LEU C  18     -13.146   4.582  -9.345  1.00 36.98 LIG 0.01  C 
ENDBRANCH 34 35
ENDBRANCH 5 34
ENDBRANCH 3 5
BRANCH 1 38
ATOM     38  CA  PRO C  17     -11.724  10.008 -10.996  1.00 33.71 LIG 0.18  C 
ATOM     39  CB  PRO C  17     -10.523  10.770 -10.426  1.00 36.04 LIG 0.04  C 
ATOM     40  CG  PRO C  17     -10.878  12.240 -10.502  1.00 41.66 LIG 0.02  C 
ATOM     41  CD  PRO C  17     -12.249  12.378 -11.093  1.00 37.74 LIG 0.13  C 
ATOM     42  N   PRO C  17     -12.495  11.046 -11.688  1.00 35.06 LIG-0.34  N 
ATOM     43  C   ARG C  16     -13.264  10.699 -12.737  1.00 37.80 LIG 0.24  C 
ATOM     44 O    ARG C  16     -13.323   9.527 -13.102  1.00 34.25 LIG-0.27  OA
BRANCH 43 45
ATOM     45  CA  ARG C  16     -14.051  11.773 -13.510  1.00 39.10 LIG 0.18  C 
BRANCH 45 46
ATOM     46  CB  ARG C  16     -15.540  11.719 -13.118  1.00 42.59 LIG 0.04  C 
BRANCH 46 47
ATOM     47  CG  ARG C  16     -16.038  12.931 -12.337  1.00 54.51 LIG 0.02  C 
BRANCH 47 48
ATOM     48  CD  ARG C  16     -15.453  14.228 -12.861  1.00 71.70 LIG 0.14  C 
BRANCH 48 49
ATOM     49  NE  ARG C  16     -16.489  15.083 -13.452  1.00 86.72 LIG-0.23  N 
ATOM     50 HE   ARG C  16     -16.959  15.565 -12.918  1.00 86.72 LIG 0.18  HD
ATOM     51  CZ  ARG C  16     -16.753  15.167 -14.754  1.00 98.48 LIG 0.67  C 
ATOM     52  NH2 ARG C  16     -17.719  15.965 -15.191  1.00 86.10 LIG-0.23  N 
ATOM     53  NH1 ARG C  16     -16.061  14.447 -15.627  1.00 81.98 LIG-0.23  N 
ATOM     54 2HH2 ARG C  16     -17.886  16.016 -16.033  1.00 86.10 LIG 0.17  HD
ATOM     55 1HH2 ARG C  16     -18.177  16.432 -14.633  1.00 86.10 LIG 0.17  HD
ATOM     56 1HH1 ARG C  16     -15.437  13.922 -15.353  1.00 81.98 LIG 0.17  HD
ATOM     57 2HH1 ARG C  16     -16.235  14.505 -16.466  1.00 81.98 LIG 0.17  HD
ENDBRANCH 48 49
ENDBRANCH 47 48
ENDBRANCH 46 47
ENDBRANCH 45 46
BRANCH 45 58
ATOM     58  N   ARG C  16     -13.888  11.555 -14.951  1.00 40.87 LIG-0.35  N 
ATOM     59  C   PRO C  15     -12.698  11.474 -15.592  1.00 47.02 LIG 0.25  C 
ATOM     60 O    PRO C  15     -11.614  11.611 -15.024  1.00 46.36 LIG-0.27  OA
ATOM     61 H    ARG C  16     -14.637  11.482 -15.366  1.00 40.87 LIG 0.16  HD
BRANCH 59 62
ATOM     62  CA  PRO C  15     -12.734  11.154 -17.088  1.00 46.56 LIG 0.35  C 
ATOM     63  N   PRO C  15     -11.999  12.125 -17.911  1.00 47.38 LIG 0.32  N 
ATOM     64  CD  PRO C  15     -10.852  11.498 -18.596  1.00 49.28 LIG 0.32  C 
ATOM     65  CG  PRO C  15     -11.228  10.049 -18.627  1.00 53.38 LIG 0.04  C 
ATOM     66  CB  PRO C  15     -12.020   9.824 -17.379  1.00 48.49 LIG 0.05  C 
ENDBRANCH 59 62
ENDBRANCH 45 58
ENDBRANCH 43 45
ENDBRANCH 1 38
TORSDOF 18
ENDMDL
MODEL 69
USER: ADFR SOLUTION from run 84
USER: SCORE 22.252931 LL:  -4.955 LR: -18.216 RR:   0.000 FEB: -12.847
USER: RMSD 12.362606
USER: SEED 83
USER: STATUS no improvement in best in 5 clusters for 5 generations
USER: GENES 20
USER: genes 0 Translation |==|  0.47717 0.48325 0.51128
USER: genes 1 Rotation |==|  0.83940 0.73043 0.73667 0.66032
USER: genes 2 Torsion [C]-N--CA-[CB] |==|  0.83836
USER: genes 3 Torsion [N]-CA--C-[N] |==|  0.41023
USER: genes 4 Torsion [N]-CA--C-[O] |==|  0.74667
USER: genes 5 Torsion [C]-N--CA-[C] |==|  0.16653
USER: genes 6 Torsion [N]-CA--C-[N] |==|  0.18333
USER: genes 7 Torsion [N]-CA--C-[O] |==|  0.83881
USER: genes 8 Torsion [N]-CA--CB-[CG] |==|  0.82135
USER: genes 9 Torsion [CA]-CB--CG-[CD1] |==|  0.63280
USER: genes 10 Torsion [N]-CA--CB-[CG] |==|  0.55386
USER: genes 11 Torsion [CA]-CB--CG-[CD2] |==|  0.72540
USER: genes 12 Torsion [O]-C--CA-[CB] |==|  0.58973
USER: genes 13 Torsion [N]-C--CA-[N] |==|  0.52764
USER: genes 14 Torsion [C]-CA--CB-[CG] |==|  0.34610
USER: genes 15 Torsion [CA]-CB--CG-[CD] |==|  0.65170
USER: genes 16 Torsion [CB]-CG--CD-[NE] |==|  0.46137
USER: genes 17 Torsion [CG]-CD--NE-[HE] |==|  0.22366
USER: genes 18 Torsion [C]-CA--N-[C] |==|  0.74589
USER: genes 19 Torsion [N]-C--CA-[CB] |==|  0.33199
ROOT
ATOM      1  C   PRO C  17     -12.024   9.051  -9.960  1.00 34.10 LIG 0.24  C 
ATOM      2 O    PRO C  17     -11.714   7.861  -9.966  1.00 31.91 LIG-0.27  OA
ATOM      3  N   LEU C  18     -12.692   9.607  -8.968  1.00 30.88 LIG-0.35  N 
ATOM      4 H    LEU C  18     -12.960  10.424  -8.984  1.00 30.88 LIG 0.16  HD
ENDROOT
BRANCH 3 5
ATOM      5  CA  LEU C  18     -13.046   8.903  -7.744  1.00 30.78 LIG 0.18  C 
BRANCH 5 6
ATOM      6  C   LEU C  18     -11.844   8.458  -6.928  1.00 33.73 LIG 0.24  C 
ATOM      7  N   PRO C  19     -11.972   8.423  -5.576  1.00 33.17 LIG-0.34  N 
ATOM      8  CA  PRO C  19     -10.851   7.935  -4.744  1.00 33.85 LIG 0.18  C 
ATOM      9  CD  PRO C  19     -13.128   8.846  -4.747  1.00 35.22 LIG 0.13  C 
ATOM     10  CB  PRO C  19     -11.247   8.346  -3.322  1.00 35.69 LIG 0.04  C 
ATOM     11  CG  PRO C  19     -12.716   8.516  -3.346  1.00 39.92 LIG 0.02  C 
ATOM     12 O    LEU C  18     -10.841   8.054  -7.520  1.00 31.40 LIG-0.27  OA
BRANCH 8 13
ATOM     13  C   PRO C  19     -10.569   6.431  -4.873  1.00 39.47 LIG 0.24  C 
ATOM     14  N   PHE C  20      -9.748   6.069  -5.861  1.00 41.20 LIG-0.35  N 
ATOM     15 H    PHE C  20      -9.390   6.641  -6.394  1.00 41.20 LIG 0.16  HD
ATOM     16 O    PRO C  19     -11.103   5.617  -4.127  1.00 36.20 LIG-0.27  OA
BRANCH 14 17
ATOM     17  CA  PHE C  20      -9.361   4.691  -6.160  1.00 43.59 LIG 0.18  C 
BRANCH 17 18
ATOM     18  C   PHE C  20     -10.618   3.866  -6.490  1.00 48.54 LIG 0.24  C 
ATOM     19  N   PRO C  21     -11.341   4.145  -7.607  1.00 46.41 LIG-0.34  N 
ATOM     20  CA  PRO C  21     -12.521   3.318  -7.955  1.00 51.72 LIG 0.17  C 
ATOM     21  CD  PRO C  21     -11.144   5.223  -8.596  1.00 49.19 LIG 0.13  C 
ATOM     22  CB  PRO C  21     -13.023   3.937  -9.270  1.00 52.56 LIG 0.04  C 
ATOM     23  CG  PRO C  21     -12.465   5.302  -9.300  1.00 54.82 LIG 0.02  C 
ATOM     24 O    PHE C  20     -10.924   2.943  -5.731  1.00 48.67 LIG-0.27  OA
BRANCH 20 25
ATOM     25  C   PRO C  21     -12.205   1.834  -8.153  1.00 87.57 LIG 0.22  C 
ATOM     26 O    PRO C  21     -11.381   1.490  -8.998  1.00 58.80 LIG-0.29  OA
ENDBRANCH 20 25
ENDBRANCH 17 18
BRANCH 17 27
ATOM     27  CB  PHE C  20      -8.604   4.100  -4.943  1.00 46.79 LIG 0.07  C 
BRANCH 27 28
ATOM     28  CG  PHE C  20      -7.279   4.734  -4.571  1.00 50.46 LIG-0.06  A 
ATOM     29  CD2 PHE C  20      -7.141   6.118  -4.515  1.00 54.33 LIG 0.01  A 
ATOM     30  CE2 PHE C  20      -5.915   6.703  -4.170  1.00 57.68 LIG 0.00  A 
ATOM     31  CZ  PHE C  20      -4.817   5.904  -3.905  1.00 55.81 LIG 0.00  A 
ATOM     32  CE1 PHE C  20      -4.933   4.532  -3.969  1.00 56.05 LIG 0.00  A 
ATOM     33  CD1 PHE C  20      -6.156   3.949  -4.324  1.00 54.84 LIG 0.01  A 
ENDBRANCH 27 28
ENDBRANCH 17 27
ENDBRANCH 14 17
ENDBRANCH 8 13
ENDBRANCH 5 6
BRANCH 5 34
ATOM     34  CB  LEU C  18     -13.883   7.677  -8.099  1.00 31.46 LIG 0.04  C 
BRANCH 34 35
ATOM     35  CG  LEU C  18     -14.710   7.086  -6.986  1.00 36.62 LIG-0.02  C 
ATOM     36  CD2 LEU C  18     -13.992   5.888  -6.384  1.00 38.91 LIG 0.01  C 
ATOM     37  CD1 LEU C  18     -16.089   6.685  -7.517  1.00 36.98 LIG 0.01  C 
ENDBRANCH 34 35
ENDBRANCH 5 34
ENDBRANCH 3 5
BRANCH 1 38
ATOM     38  CA  PRO C  17     -11.733   9.966 -11.141  1.00 33.71 LIG 0.18  C 
ATOM     39  CB  PRO C  17     -11.446  11.410 -10.716  1.00 36.04 LIG 0.04  C 
ATOM     40  CG  PRO C  17     -12.637  12.230 -11.166  1.00 41.66 LIG 0.02  C 
ATOM     41  CD  PRO C  17     -13.623  11.323 -11.839  1.00 37.74 LIG 0.13  C 
ATOM     42  N   PRO C  17     -12.832  10.101 -12.103  1.00 35.06 LIG-0.34  N 
ATOM     43  C   ARG C  16     -12.969   9.177 -13.072  1.00 37.80 LIG 0.24  C 
ATOM     44 O    ARG C  16     -12.188   8.231 -13.143  1.00 34.25 LIG-0.27  OA
BRANCH 43 45
ATOM     45  CA  ARG C  16     -14.088   9.315 -14.122  1.00 39.10 LIG 0.18  C 
BRANCH 45 46
ATOM     46  CB  ARG C  16     -15.430   9.610 -13.425  1.00 42.59 LIG 0.04  C 
BRANCH 46 47
ATOM     47  CG  ARG C  16     -16.136  10.871 -13.911  1.00 54.51 LIG 0.02  C 
BRANCH 47 48
ATOM     48  CD  ARG C  16     -16.459  11.820 -12.773  1.00 71.70 LIG 0.14  C 
BRANCH 48 49
ATOM     49  NE  ARG C  16     -16.831  13.149 -13.271  1.00 86.72 LIG-0.23  N 
ATOM     50 HE   ARG C  16     -17.636  13.258 -13.552  1.00 86.72 LIG 0.18  HD
ATOM     51  CZ  ARG C  16     -16.013  14.198 -13.319  1.00 98.48 LIG 0.67  C 
ATOM     52  NH2 ARG C  16     -16.441  15.360 -13.796  1.00 86.10 LIG-0.23  N 
ATOM     53  NH1 ARG C  16     -14.759  14.091 -12.899  1.00 81.98 LIG-0.23  N 
ATOM     54 2HH2 ARG C  16     -15.909  16.034 -13.825  1.00 86.10 LIG 0.17  HD
ATOM     55 1HH2 ARG C  16     -17.251  15.438 -14.076  1.00 86.10 LIG 0.17  HD
ATOM     56 1HH1 ARG C  16     -14.470  13.340 -12.593  1.00 81.98 LIG 0.17  HD
ATOM     57 2HH1 ARG C  16     -14.235  14.771 -12.932  1.00 81.98 LIG 0.17  HD
ENDBRANCH 48 49
ENDBRANCH 47 48
ENDBRANCH 46 47
ENDBRANCH 45 46
BRANCH 45 58
ATOM     58  N   ARG C  16     -14.173   8.080 -14.908  1.00 40.87 LIG-0.35  N 
ATOM     59  C   PRO C  15     -13.508   7.851 -16.064  1.00 47.02 LIG 0.25  C 
ATOM     60 O    PRO C  15     -12.777   8.684 -16.600  1.00 46.36 LIG-0.27  OA
ATOM     61 H    ARG C  16     -14.700   7.497 -14.559  1.00 40.87 LIG 0.16  HD
BRANCH 59 62
ATOM     62  CA  PRO C  15     -13.661   6.463 -16.691  1.00 46.56 LIG 0.35  C 
ATOM     63  N   PRO C  15     -14.599   5.594 -15.966  1.00 47.38 LIG 0.32  N 
ATOM     64  CD  PRO C  15     -15.768   5.244 -16.794  1.00 49.28 LIG 0.32  C 
ATOM     65  CG  PRO C  15     -15.263   5.442 -18.191  1.00 53.38 LIG 0.04  C 
ATOM     66  CB  PRO C  15     -14.279   6.563 -18.095  1.00 48.49 LIG 0.05  C 
ENDBRANCH 59 62
ENDBRANCH 45 58
ENDBRANCH 43 45
ENDBRANCH 1 38
TORSDOF 18
ENDMDL
MODEL 70
USER: ADFR SOLUTION from run 171
USER: SCORE 20.978814 LL:  -4.883 LR: -18.222 RR:   0.000 FEB: -12.853
USER: RMSD 12.590744
USER: SEED 170
USER: STATUS no improvement in best in 10 clusters for 5 generations
USER: GENES 20
USER: genes 0 Translation |==|  0.45868 0.60247 0.33548
USER: genes 1 Rotation |==|  0.80232 0.12802 0.39471 0.59564
USER: genes 2 Torsion [C]-N--CA-[CB] |==|  0.25651
USER: genes 3 Torsion [N]-CA--C-[N] |==|  0.40916
USER: genes 4 Torsion [N]-CA--C-[O] |==|  0.92229
USER: genes 5 Torsion [C]-N--CA-[C] |==|  0.20768
USER: genes 6 Torsion [N]-CA--C-[N] |==|  0.36089
USER: genes 7 Torsion [N]-CA--C-[O] |==|  0.84191
USER: genes 8 Torsion [N]-CA--CB-[CG] |==|  0.39066
USER: genes 9 Torsion [CA]-CB--CG-[CD1] |==|  0.72118
USER: genes 10 Torsion [N]-CA--CB-[CG] |==|  0.60746
USER: genes 11 Torsion [CA]-CB--CG-[CD2] |==|  0.46349
USER: genes 12 Torsion [O]-C--CA-[CB] |==|  0.06208
USER: genes 13 Torsion [N]-C--CA-[N] |==|  0.36111
USER: genes 14 Torsion [C]-CA--CB-[CG] |==|  0.88501
USER: genes 15 Torsion [CA]-CB--CG-[CD] |==|  0.59660
USER: genes 16 Torsion [CB]-CG--CD-[NE] |==|  0.11081
USER: genes 17 Torsion [CG]-CD--NE-[HE] |==|  0.25588
USER: genes 18 Torsion [C]-CA--N-[C] |==|  0.84769
USER: genes 19 Torsion [N]-C--CA-[CB] |==|  0.60715
ROOT
ATOM      1  C   PRO C  17     -12.357  11.197 -15.630  1.00 34.10 LIG 0.24  C 
ATOM      2 O    PRO C  17     -12.743  12.364 -15.616  1.00 31.91 LIG-0.27  OA
ATOM      3  N   LEU C  18     -12.349  10.435 -14.552  1.00 30.88 LIG-0.35  N 
ATOM      4 H    LEU C  18     -12.029   9.638 -14.544  1.00 30.88 LIG 0.16  HD
ENDROOT
BRANCH 3 5
ATOM      5  CA  LEU C  18     -12.881  10.861 -13.266  1.00 30.78 LIG 0.18  C 
BRANCH 5 6
ATOM      6  C   LEU C  18     -12.120  10.303 -12.076  1.00 33.73 LIG 0.24  C 
ATOM      7  N   PRO C  19     -12.034  11.072 -10.959  1.00 33.17 LIG-0.34  N 
ATOM      8  CA  PRO C  19     -11.359  10.545  -9.754  1.00 33.85 LIG 0.18  C 
ATOM      9  CD  PRO C  19     -12.525  12.457 -10.752  1.00 35.22 LIG 0.13  C 
ATOM     10  CB  PRO C  19     -11.188  11.780  -8.863  1.00 35.69 LIG 0.04  C 
ATOM     11  CG  PRO C  19     -12.206  12.750  -9.320  1.00 39.92 LIG 0.02  C 
ATOM     12 O    LEU C  18     -11.698   9.146 -12.131  1.00 31.40 LIG-0.27  OA
BRANCH 8 13
ATOM     13  C   PRO C  19     -12.108   9.402  -9.052  1.00 39.47 LIG 0.24  C 
ATOM     14  N   PHE C  20     -11.351   8.513  -8.405  1.00 41.20 LIG-0.35  N 
ATOM     15 H    PHE C  20     -10.494   8.574  -8.375  1.00 41.20 LIG 0.16  HD
ATOM     16 O    PRO C  19     -13.329   9.306  -9.120  1.00 36.20 LIG-0.27  OA
BRANCH 14 17
ATOM     17  CA  PHE C  20     -11.865   7.349  -7.684  1.00 43.59 LIG 0.18  C 
BRANCH 17 18
ATOM     18  C   PHE C  20     -12.305   6.274  -8.695  1.00 48.54 LIG 0.24  C 
ATOM     19  N   PRO C  21     -11.875   4.992  -8.554  1.00 46.41 LIG-0.34  N 
ATOM     20  CA  PRO C  21     -12.340   3.945  -9.495  1.00 51.72 LIG 0.17  C 
ATOM     21  CD  PRO C  21     -10.941   4.429  -7.559  1.00 49.19 LIG 0.13  C 
ATOM     22  CB  PRO C  21     -11.656   2.667  -8.981  1.00 52.56 LIG 0.04  C 
ATOM     23  CG  PRO C  21     -10.513   3.130  -8.172  1.00 54.82 LIG 0.02  C 
ATOM     24 O    PHE C  20     -13.069   6.608  -9.604  1.00 48.67 LIG-0.27  OA
BRANCH 20 25
ATOM     25  C   PRO C  21     -13.859   3.761  -9.521  1.00 87.57 LIG 0.22  C 
ATOM     26 O    PRO C  21     -14.463   3.496  -8.483  1.00 58.80 LIG-0.29  OA
ENDBRANCH 20 25
ENDBRANCH 17 18
BRANCH 17 27
ATOM     27  CB  PHE C  20     -13.048   7.791  -6.784  1.00 46.79 LIG 0.07  C 
BRANCH 27 28
ATOM     28  CG  PHE C  20     -14.236   6.854  -6.685  1.00 50.46 LIG-0.06  A 
ATOM     29  CD2 PHE C  20     -14.180   5.713  -5.890  1.00 54.33 LIG 0.01  A 
ATOM     30  CE2 PHE C  20     -15.279   4.848  -5.798  1.00 57.68 LIG 0.00  A 
ATOM     31  CZ  PHE C  20     -16.428   5.111  -6.522  1.00 55.81 LIG 0.00  A 
ATOM     32  CE1 PHE C  20     -16.495   6.229  -7.325  1.00 56.05 LIG 0.00  A 
ATOM     33  CD1 PHE C  20     -15.393   7.087  -7.424  1.00 54.84 LIG 0.01  A 
ENDBRANCH 27 28
ENDBRANCH 17 27
ENDBRANCH 14 17
ENDBRANCH 8 13
ENDBRANCH 5 6
BRANCH 5 34
ATOM     34  CB  LEU C  18     -14.343  10.431 -13.164  1.00 31.46 LIG 0.04  C 
BRANCH 34 35
ATOM     35  CG  LEU C  18     -15.282  11.404 -12.500  1.00 36.62 LIG-0.02  C 
ATOM     36  CD2 LEU C  18     -16.724  10.995 -12.759  1.00 38.91 LIG 0.01  C 
ATOM     37  CD1 LEU C  18     -15.016  12.821 -13.019  1.00 36.98 LIG 0.01  C 
ENDBRANCH 34 35
ENDBRANCH 5 34
ENDBRANCH 3 5
BRANCH 1 38
ATOM     38  CA  PRO C  17     -11.775  10.555 -16.882  1.00 33.71 LIG 0.18  C 
ATOM     39  CB  PRO C  17     -11.229  11.583 -17.877  1.00 36.04 LIG 0.04  C 
ATOM     40  CG  PRO C  17     -12.175  11.575 -19.060  1.00 41.66 LIG 0.02  C 
ATOM     41  CD  PRO C  17     -13.266  10.581 -18.800  1.00 37.74 LIG 0.13  C 
ATOM     42  N   PRO C  17     -12.731   9.778 -17.678  1.00 35.06 LIG-0.34  N 
ATOM     43  C   ARG C  16     -12.974   8.497 -17.341  1.00 37.80 LIG 0.24  C 
ATOM     44 O    ARG C  16     -12.408   7.992 -16.374  1.00 34.25 LIG-0.27  OA
BRANCH 43 45
ATOM     45  CA  ARG C  16     -13.941   7.644 -18.183  1.00 39.10 LIG 0.18  C 
BRANCH 45 46
ATOM     46  CB  ARG C  16     -15.248   7.406 -17.405  1.00 42.59 LIG 0.04  C 
BRANCH 46 47
ATOM     47  CG  ARG C  16     -15.060   7.100 -15.922  1.00 54.51 LIG 0.02  C 
BRANCH 47 48
ATOM     48  CD  ARG C  16     -16.090   6.113 -15.407  1.00 71.70 LIG 0.14  C 
BRANCH 48 49
ATOM     49  NE  ARG C  16     -16.350   5.050 -16.384  1.00 86.72 LIG-0.23  N 
ATOM     50 HE   ARG C  16     -15.883   4.331 -16.323  1.00 86.72 LIG 0.18  HD
ATOM     51  CZ  ARG C  16     -17.256   5.118 -17.357  1.00 98.48 LIG 0.67  C 
ATOM     52  NH2 ARG C  16     -17.411   4.104 -18.199  1.00 86.10 LIG-0.23  N 
ATOM     53  NH1 ARG C  16     -18.006   6.202 -17.501  1.00 81.98 LIG-0.23  N 
ATOM     54 2HH2 ARG C  16     -17.998   4.152 -18.826  1.00 86.10 LIG 0.17  HD
ATOM     55 1HH2 ARG C  16     -16.926   3.399 -18.118  1.00 86.10 LIG 0.17  HD
ATOM     56 1HH1 ARG C  16     -17.909   6.867 -16.964  1.00 81.98 LIG 0.17  HD
ATOM     57 2HH1 ARG C  16     -18.590   6.240 -18.131  1.00 81.98 LIG 0.17  HD
ENDBRANCH 48 49
ENDBRANCH 47 48
ENDBRANCH 46 47
ENDBRANCH 45 46
BRANCH 45 58
ATOM     58  N   ARG C  16     -13.299   6.368 -18.519  1.00 40.87 LIG-0.35  N 
ATOM     59  C   PRO C  15     -12.100   6.243 -19.135  1.00 47.02 LIG 0.25  C 
ATOM     60 O    PRO C  15     -11.431   7.205 -19.513  1.00 46.36 LIG-0.27  OA
ATOM     61 H    ARG C  16     -13.766   5.687 -18.282  1.00 40.87 LIG 0.16  HD
BRANCH 59 62
ATOM     62  CA  PRO C  15     -11.558   4.824 -19.319  1.00 46.56 LIG 0.35  C 
ATOM     63  N   PRO C  15     -11.716   4.311 -20.687  1.00 47.38 LIG 0.32  N 
ATOM     64  CD  PRO C  15     -10.411   4.059 -21.327  1.00 49.28 LIG 0.32  C 
ATOM     65  CG  PRO C  15      -9.489   3.891 -20.159  1.00 53.38 LIG 0.04  C 
ATOM     66  CB  PRO C  15     -10.037   4.787 -19.097  1.00 48.49 LIG 0.05  C 
ENDBRANCH 59 62
ENDBRANCH 45 58
ENDBRANCH 43 45
ENDBRANCH 1 38
TORSDOF 18
ENDMDL
MODEL 71
USER: ADFR SOLUTION from run 64
USER: SCORE 21.055210 LL:  -4.976 LR: -18.221 RR:   0.000 FEB: -12.852
USER: RMSD 13.712661
USER: SEED 63
USER: STATUS no improvement in best in 41 clusters for 5 generations
USER: GENES 20
USER: genes 0 Translation |==|  0.46173 0.48397 0.49475
USER: genes 1 Rotation |==|  0.98571 0.40985 0.49736 0.57715
USER: genes 2 Torsion [C]-N--CA-[CB] |==|  0.27362
USER: genes 3 Torsion [N]-CA--C-[N] |==|  0.41671
USER: genes 4 Torsion [N]-CA--C-[O] |==|  0.80861
USER: genes 5 Torsion [C]-N--CA-[C] |==|  0.19457
USER: genes 6 Torsion [N]-CA--C-[N] |==|  0.41894
USER: genes 7 Torsion [N]-CA--C-[O] |==|  0.25040
USER: genes 8 Torsion [N]-CA--CB-[CG] |==|  0.80619
USER: genes 9 Torsion [CA]-CB--CG-[CD1] |==|  0.79964
USER: genes 10 Torsion [N]-CA--CB-[CG] |==|  0.32347
USER: genes 11 Torsion [CA]-CB--CG-[CD2] |==|  0.61005
USER: genes 12 Torsion [O]-C--CA-[CB] |==|  0.38467
USER: genes 13 Torsion [N]-C--CA-[N] |==|  0.40656
USER: genes 14 Torsion [C]-CA--CB-[CG] |==|  0.46407
USER: genes 15 Torsion [CA]-CB--CG-[CD] |==|  0.90523
USER: genes 16 Torsion [CB]-CG--CD-[NE] |==|  0.84778
USER: genes 17 Torsion [CG]-CD--NE-[HE] |==|  0.28036
USER: genes 18 Torsion [C]-CA--N-[C] |==|  0.76622
USER: genes 19 Torsion [N]-C--CA-[CB] |==|  0.82965
ROOT
ATOM      1  C   PRO C  17     -12.302   9.063 -10.493  1.00 34.10 LIG 0.24  C 
ATOM      2 O    PRO C  17     -13.506   8.879 -10.659  1.00 31.91 LIG-0.27  OA
ATOM      3  N   LEU C  18     -11.666   8.685  -9.400  1.00 30.88 LIG-0.35  N 
ATOM      4 H    LEU C  18     -10.838   8.862  -9.256  1.00 30.88 LIG 0.16  HD
ENDROOT
BRANCH 3 5
ATOM      5  CA  LEU C  18     -12.297   7.931  -8.327  1.00 30.78 LIG 0.18  C 
BRANCH 5 6
ATOM      6  C   LEU C  18     -11.877   8.381  -6.938  1.00 33.73 LIG 0.24  C 
ATOM      7  N   PRO C  19     -12.773   8.238  -5.926  1.00 33.17 LIG-0.34  N 
ATOM      8  CA  PRO C  19     -12.388   8.602  -4.546  1.00 33.85 LIG 0.18  C 
ATOM      9  CD  PRO C  19     -14.178   7.764  -5.998  1.00 35.22 LIG 0.13  C 
ATOM     10  CB  PRO C  19     -13.719   8.611  -3.787  1.00 35.69 LIG 0.04  C 
ATOM     11  CG  PRO C  19     -14.637   7.759  -4.573  1.00 39.92 LIG 0.02  C 
ATOM     12 O    LEU C  18     -10.718   8.762  -6.762  1.00 31.40 LIG-0.27  OA
BRANCH 8 13
ATOM     13  C   PRO C  19     -11.344   7.672  -3.910  1.00 39.47 LIG 0.24  C 
ATOM     14  N   PHE C  20     -10.124   8.186  -3.740  1.00 41.20 LIG-0.35  N 
ATOM     15 H    PHE C  20      -9.929   8.993  -3.966  1.00 41.20 LIG 0.16  HD
ATOM     16 O    PRO C  19     -11.621   6.515  -3.613  1.00 36.20 LIG-0.27  OA
BRANCH 14 17
ATOM     17  CA  PHE C  20      -8.990   7.466  -3.163  1.00 43.59 LIG 0.18  C 
BRANCH 17 18
ATOM     18  C   PHE C  20      -8.522   6.378  -4.147  1.00 48.54 LIG 0.24  C 
ATOM     19  N   PRO C  21      -7.218   5.992  -4.163  1.00 46.41 LIG-0.34  N 
ATOM     20  CA  PRO C  21      -6.776   4.906  -5.071  1.00 51.72 LIG 0.17  C 
ATOM     21  CD  PRO C  21      -6.082   6.520  -3.383  1.00 49.19 LIG 0.13  C 
ATOM     22  CB  PRO C  21      -5.276   4.765  -4.765  1.00 52.56 LIG 0.04  C 
ATOM     23  CG  PRO C  21      -4.881   6.042  -4.141  1.00 54.82 LIG 0.02  C 
ATOM     24 O    PHE C  20      -9.363   5.862  -4.886  1.00 48.67 LIG-0.27  OA
BRANCH 20 25
ATOM     25  C   PRO C  21      -7.492   3.573  -4.844  1.00 87.57 LIG 0.22  C 
ATOM     26 O    PRO C  21      -8.527   3.320  -5.457  1.00 58.80 LIG-0.29  OA
ENDBRANCH 20 25
ENDBRANCH 17 18
BRANCH 17 27
ATOM     27  CB  PHE C  20      -9.415   6.850  -1.806  1.00 46.79 LIG 0.07  C 
BRANCH 27 28
ATOM     28  CG  PHE C  20      -9.666   7.805  -0.655  1.00 50.46 LIG-0.06  A 
ATOM     29  CD2 PHE C  20     -10.962   8.090  -0.234  1.00 54.33 LIG 0.01  A 
ATOM     30  CE2 PHE C  20     -11.192   8.972   0.831  1.00 57.68 LIG 0.00  A 
ATOM     31  CZ  PHE C  20     -10.127   9.591   1.459  1.00 55.81 LIG 0.00  A 
ATOM     32  CE1 PHE C  20      -8.838   9.331   1.045  1.00 56.05 LIG 0.00  A 
ATOM     33  CD1 PHE C  20      -8.609   8.457  -0.025  1.00 54.84 LIG 0.01  A 
ENDBRANCH 27 28
ENDBRANCH 17 27
ENDBRANCH 14 17
ENDBRANCH 8 13
ENDBRANCH 5 6
BRANCH 5 34
ATOM     34  CB  LEU C  18     -11.956   6.451  -8.491  1.00 31.46 LIG 0.04  C 
BRANCH 34 35
ATOM     35  CG  LEU C  18     -11.143   5.826  -7.386  1.00 36.62 LIG-0.02  C 
ATOM     36  CD2 LEU C  18     -10.115   4.871  -7.973  1.00 38.91 LIG 0.01  C 
ATOM     37  CD1 LEU C  18     -12.068   5.097  -6.408  1.00 36.98 LIG 0.01  C 
ENDBRANCH 34 35
ENDBRANCH 5 34
ENDBRANCH 3 5
BRANCH 1 38
ATOM     38  CA  PRO C  17     -11.456   9.822 -11.506  1.00 33.71 LIG 0.18  C 
ATOM     39  CB  PRO C  17     -10.456  10.779 -10.847  1.00 36.04 LIG 0.04  C 
ATOM     40  CG  PRO C  17     -10.953  12.179 -11.137  1.00 41.66 LIG 0.02  C 
ATOM     41  CD  PRO C  17     -12.216  12.089 -11.941  1.00 37.74 LIG 0.13  C 
ATOM     42  N   PRO C  17     -12.212  10.688 -12.417  1.00 35.06 LIG-0.34  N 
ATOM     43  C   ARG C  16     -12.755  10.153 -13.527  1.00 37.80 LIG 0.24  C 
ATOM     44 O    ARG C  16     -12.624   8.954 -13.766  1.00 34.25 LIG-0.27  OA
BRANCH 43 45
ATOM     45  CA  ARG C  16     -13.519  11.045 -14.524  1.00 39.10 LIG 0.18  C 
BRANCH 45 46
ATOM     46  CB  ARG C  16     -15.019  11.064 -14.171  1.00 42.59 LIG 0.04  C 
BRANCH 46 47
ATOM     47  CG  ARG C  16     -15.827  12.143 -14.884  1.00 54.51 LIG 0.02  C 
BRANCH 47 48
ATOM     48  CD  ARG C  16     -15.021  13.409 -15.102  1.00 71.70 LIG 0.14  C 
BRANCH 48 49
ATOM     49  NE  ARG C  16     -14.463  13.914 -13.842  1.00 86.72 LIG-0.23  N 
ATOM     50 HE   ARG C  16     -13.635  13.751 -13.680  1.00 86.72 LIG 0.18  HD
ATOM     51  CZ  ARG C  16     -15.145  14.607 -12.933  1.00 98.48 LIG 0.67  C 
ATOM     52  NH2 ARG C  16     -14.553  15.014 -11.818  1.00 86.10 LIG-0.23  N 
ATOM     53  NH1 ARG C  16     -16.427  14.890 -13.128  1.00 81.98 LIG-0.23  N 
ATOM     54 2HH2 ARG C  16     -14.997  15.461 -11.233  1.00 86.10 LIG 0.17  HD
ATOM     55 1HH2 ARG C  16     -13.724  14.830 -11.679  1.00 86.10 LIG 0.17  HD
ATOM     56 1HH1 ARG C  16     -16.822  14.626 -13.845  1.00 81.98 LIG 0.17  HD
ATOM     57 2HH1 ARG C  16     -16.862  15.338 -12.537  1.00 81.98 LIG 0.17  HD
ENDBRANCH 48 49
ENDBRANCH 47 48
ENDBRANCH 46 47
ENDBRANCH 45 46
BRANCH 45 58
ATOM     58  N   ARG C  16     -13.314  10.540 -15.885  1.00 40.87 LIG-0.35  N 
ATOM     59  C   PRO C  15     -12.251  10.835 -16.669  1.00 47.02 LIG 0.25  C 
ATOM     60 O    PRO C  15     -11.348  11.599 -16.324  1.00 46.36 LIG-0.27  OA
ATOM     61 H    ARG C  16     -13.949  10.024 -16.150  1.00 40.87 LIG 0.16  HD
BRANCH 59 62
ATOM     62  CA  PRO C  15     -12.175  10.139 -18.029  1.00 46.56 LIG 0.35  C 
ATOM     63  N   PRO C  15     -10.957  10.465 -18.786  1.00 47.38 LIG 0.32  N 
ATOM     64  CD  PRO C  15     -10.114   9.274 -18.998  1.00 49.28 LIG 0.32  C 
ATOM     65  CG  PRO C  15     -11.085   8.142 -18.857  1.00 53.38 LIG 0.04  C 
ATOM     66  CB  PRO C  15     -12.090   8.613 -17.857  1.00 48.49 LIG 0.05  C 
ENDBRANCH 59 62
ENDBRANCH 45 58
ENDBRANCH 43 45
ENDBRANCH 1 38
TORSDOF 18
ENDMDL
MODEL 72
USER: ADFR SOLUTION from run 64
USER: SCORE 22.149671 LL:  -5.063 LR: -18.205 RR:   0.000 FEB: -12.836
USER: RMSD 13.076544
USER: SEED 63
USER: STATUS no improvement in best in 41 clusters for 5 generations
USER: GENES 20
USER: genes 0 Translation |==|  0.44269 0.52012 0.51466
USER: genes 1 Rotation |==|  0.95377 0.32505 0.42483 0.58854
USER: genes 2 Torsion [C]-N--CA-[CB] |==|  0.20392
USER: genes 3 Torsion [N]-CA--C-[N] |==|  0.41273
USER: genes 4 Torsion [N]-CA--C-[O] |==|  0.69380
USER: genes 5 Torsion [C]-N--CA-[C] |==|  0.80097
USER: genes 6 Torsion [N]-CA--C-[N] |==|  0.88632
USER: genes 7 Torsion [N]-CA--C-[O] |==|  0.70568
USER: genes 8 Torsion [N]-CA--CB-[CG] |==|  0.77177
USER: genes 9 Torsion [CA]-CB--CG-[CD1] |==|  0.21939
USER: genes 10 Torsion [N]-CA--CB-[CG] |==|  0.53317
USER: genes 11 Torsion [CA]-CB--CG-[CD2] |==|  0.65619
USER: genes 12 Torsion [O]-C--CA-[CB] |==|  0.39493
USER: genes 13 Torsion [N]-C--CA-[N] |==|  0.35000
USER: genes 14 Torsion [C]-CA--CB-[CG] |==|  0.34487
USER: genes 15 Torsion [CA]-CB--CG-[CD] |==|  0.20413
USER: genes 16 Torsion [CB]-CG--CD-[NE] |==|  0.29309
USER: genes 17 Torsion [CG]-CD--NE-[HE] |==|  0.16360
USER: genes 18 Torsion [C]-CA--N-[C] |==|  0.85380
USER: genes 19 Torsion [N]-C--CA-[CB] |==|  0.60625
ROOT
ATOM      1  C   PRO C  17     -12.645   9.714  -9.851  1.00 34.10 LIG 0.24  C 
ATOM      2 O    PRO C  17     -13.829  10.016  -9.725  1.00 31.91 LIG-0.27  OA
ATOM      3  N   LEU C  18     -11.966   9.082  -8.912  1.00 30.88 LIG-0.35  N 
ATOM      4 H    LEU C  18     -11.125   8.918  -8.972  1.00 30.88 LIG 0.16  HD
ENDROOT
BRANCH 3 5
ATOM      5  CA  LEU C  18     -12.567   8.594  -7.679  1.00 30.78 LIG 0.18  C 
BRANCH 5 6
ATOM      6  C   LEU C  18     -11.553   8.232  -6.608  1.00 33.73 LIG 0.24  C 
ATOM      7  N   PRO C  19     -11.914   8.399  -5.309  1.00 33.17 LIG-0.34  N 
ATOM      8  CA  PRO C  19     -10.984   7.999  -4.231  1.00 33.85 LIG 0.18  C 
ATOM      9  CD  PRO C  19     -13.168   8.977  -4.767  1.00 35.22 LIG 0.13  C 
ATOM     10  CB  PRO C  19     -11.595   8.626  -2.973  1.00 35.69 LIG 0.04  C 
ATOM     11  CG  PRO C  19     -13.025   8.840  -3.283  1.00 39.92 LIG 0.02  C 
ATOM     12 O    LEU C  18     -10.488   7.712  -6.950  1.00 31.40 LIG-0.27  OA
BRANCH 8 13
ATOM     13  C   PRO C  19     -10.773   6.483  -4.100  1.00 39.47 LIG 0.24  C 
ATOM     14  N   PHE C  20     -10.126   5.890  -5.105  1.00 41.20 LIG-0.35  N 
ATOM     15 H    PHE C  20      -9.836   6.328  -5.787  1.00 41.20 LIG 0.16  HD
ATOM     16 O    PRO C  19     -11.212   5.861  -3.138  1.00 36.20 LIG-0.27  OA
BRANCH 14 17
ATOM     17  CA  PHE C  20      -9.834   4.460  -5.180  1.00 43.59 LIG 0.18  C 
BRANCH 17 18
ATOM     18  C   PHE C  20      -8.739   4.108  -4.156  1.00 48.54 LIG 0.24  C 
ATOM     19  N   PRO C  21      -7.680   4.943  -3.979  1.00 46.41 LIG-0.34  N 
ATOM     20  CA  PRO C  21      -6.653   4.634  -2.955  1.00 51.72 LIG 0.17  C 
ATOM     21  CD  PRO C  21      -7.348   6.188  -4.699  1.00 49.19 LIG 0.13  C 
ATOM     22  CB  PRO C  21      -5.670   5.812  -3.061  1.00 52.56 LIG 0.04  C 
ATOM     23  CG  PRO C  21      -5.894   6.392  -4.399  1.00 54.82 LIG 0.02  C 
ATOM     24 O    PHE C  20      -8.870   3.075  -3.495  1.00 48.67 LIG-0.27  OA
BRANCH 20 25
ATOM     25  C   PRO C  21      -7.204   4.527  -1.532  1.00 87.57 LIG 0.22  C 
ATOM     26 O    PRO C  21      -6.993   5.428  -0.723  1.00 58.80 LIG-0.29  OA
ENDBRANCH 20 25
ENDBRANCH 17 18
BRANCH 17 27
ATOM     27  CB  PHE C  20      -9.389   4.106  -6.622  1.00 46.79 LIG 0.07  C 
BRANCH 27 28
ATOM     28  CG  PHE C  20     -10.477   3.880  -7.652  1.00 50.46 LIG-0.06  A 
ATOM     29  CD2 PHE C  20     -10.819   2.593  -8.059  1.00 54.33 LIG 0.01  A 
ATOM     30  CE2 PHE C  20     -11.826   2.386  -9.011  1.00 57.68 LIG 0.00  A 
ATOM     31  CZ  PHE C  20     -12.477   3.467  -9.577  1.00 55.81 LIG 0.00  A 
ATOM     32  CE1 PHE C  20     -12.142   4.749  -9.195  1.00 56.05 LIG 0.00  A 
ATOM     33  CD1 PHE C  20     -11.128   4.955  -8.252  1.00 54.84 LIG 0.01  A 
ENDBRANCH 27 28
ENDBRANCH 17 27
ENDBRANCH 14 17
ENDBRANCH 8 13
ENDBRANCH 5 6
BRANCH 5 34
ATOM     34  CB  LEU C  18     -13.417   7.365  -7.991  1.00 31.46 LIG 0.04  C 
BRANCH 34 35
ATOM     35  CG  LEU C  18     -14.335   6.890  -6.894  1.00 36.62 LIG-0.02  C 
ATOM     36  CD2 LEU C  18     -14.043   5.434  -6.565  1.00 38.91 LIG 0.01  C 
ATOM     37  CD1 LEU C  18     -15.794   7.071  -7.320  1.00 36.98 LIG 0.01  C 
ENDBRANCH 34 35
ENDBRANCH 5 34
ENDBRANCH 3 5
BRANCH 1 38
ATOM     38  CA  PRO C  17     -11.835  10.120 -11.075  1.00 33.71 LIG 0.18  C 
ATOM     39  CB  PRO C  17     -10.392  10.504 -10.732  1.00 36.04 LIG 0.04  C 
ATOM     40  CG  PRO C  17     -10.291  12.002 -10.934  1.00 41.66 LIG 0.02  C 
ATOM     41  CD  PRO C  17     -11.625  12.521 -11.380  1.00 37.74 LIG 0.13  C 
ATOM     42  N   PRO C  17     -12.344  11.294 -11.790  1.00 35.06 LIG-0.34  N 
ATOM     43  C   ARG C  16     -13.321  11.131 -12.702  1.00 37.80 LIG 0.24  C 
ATOM     44 O    ARG C  16     -13.784  10.015 -12.923  1.00 34.25 LIG-0.27  OA
BRANCH 43 45
ATOM     45  CA  ARG C  16     -13.847  12.340 -13.499  1.00 39.10 LIG 0.18  C 
BRANCH 45 46
ATOM     46  CB  ARG C  16     -15.299  12.650 -13.089  1.00 42.59 LIG 0.04  C 
BRANCH 46 47
ATOM     47  CG  ARG C  16     -15.533  14.077 -12.604  1.00 54.51 LIG 0.02  C 
BRANCH 47 48
ATOM     48  CD  ARG C  16     -15.509  15.079 -13.743  1.00 71.70 LIG 0.14  C 
BRANCH 48 49
ATOM     49  NE  ARG C  16     -16.859  15.547 -14.074  1.00 86.72 LIG-0.23  N 
ATOM     50 HE   ARG C  16     -17.311  15.932 -13.451  1.00 86.72 LIG 0.18  HD
ATOM     51  CZ  ARG C  16     -17.435  15.422 -15.267  1.00 98.48 LIG 0.67  C 
ATOM     52  NH2 ARG C  16     -18.668  15.872 -15.467  1.00 86.10 LIG-0.23  N 
ATOM     53  NH1 ARG C  16     -16.787  14.838 -16.267  1.00 81.98 LIG-0.23  N 
ATOM     54 2HH2 ARG C  16     -19.036  15.788 -16.239  1.00 86.10 LIG 0.17  HD
ATOM     55 1HH2 ARG C  16     -19.098  16.246 -14.824  1.00 86.10 LIG 0.17  HD
ATOM     56 1HH1 ARG C  16     -15.990  14.538 -16.146  1.00 81.98 LIG 0.17  HD
ATOM     57 2HH1 ARG C  16     -17.164  14.760 -17.036  1.00 81.98 LIG 0.17  HD
ENDBRANCH 48 49
ENDBRANCH 47 48
ENDBRANCH 46 47
ENDBRANCH 45 46
BRANCH 45 58
ATOM     58  N   ARG C  16     -13.765  12.050 -14.934  1.00 40.87 LIG-0.35  N 
ATOM     59  C   PRO C  15     -12.651  11.629 -15.577  1.00 47.02 LIG 0.25  C 
ATOM     60 O    PRO C  15     -11.565  11.476 -15.017  1.00 46.36 LIG-0.27  OA
ATOM     61 H    ARG C  16     -14.511  12.176 -15.344  1.00 40.87 LIG 0.16  HD
BRANCH 59 62
ATOM     62  CA  PRO C  15     -12.790  11.295 -17.064  1.00 46.56 LIG 0.35  C 
ATOM     63  N   PRO C  15     -12.268  12.345 -17.950  1.00 47.38 LIG 0.32  N 
ATOM     64  CD  PRO C  15     -11.122  11.864 -18.745  1.00 49.28 LIG 0.32  C 
ATOM     65  CG  PRO C  15     -11.310  10.378 -18.746  1.00 53.38 LIG 0.04  C 
ATOM     66  CB  PRO C  15     -11.942  10.064 -17.428  1.00 48.49 LIG 0.05  C 
ENDBRANCH 59 62
ENDBRANCH 45 58
ENDBRANCH 43 45
ENDBRANCH 1 38
TORSDOF 18
ENDMDL
MODEL 73
USER: ADFR SOLUTION from run 130
USER: SCORE 21.128371 LL:  -4.747 LR: -18.211 RR:   0.000 FEB: -12.842
USER: RMSD 12.391628
USER: SEED 129
USER: STATUS no improvement in best in 15 clusters for 5 generations
USER: GENES 20
USER: genes 0 Translation |==|  0.45338 0.57268 0.44591
USER: genes 1 Rotation |==|  0.15885 0.16304 0.36683 0.54836
USER: genes 2 Torsion [C]-N--CA-[CB] |==|  0.31672
USER: genes 3 Torsion [N]-CA--C-[N] |==|  0.24271
USER: genes 4 Torsion [N]-CA--C-[O] |==|  0.04429
USER: genes 5 Torsion [C]-N--CA-[C] |==|  0.15306
USER: genes 6 Torsion [N]-CA--C-[N] |==|  0.12761
USER: genes 7 Torsion [N]-CA--C-[O] |==|  0.31913
USER: genes 8 Torsion [N]-CA--CB-[CG] |==|  0.84925
USER: genes 9 Torsion [CA]-CB--CG-[CD1] |==|  0.71852
USER: genes 10 Torsion [N]-CA--CB-[CG] |==|  0.83918
USER: genes 11 Torsion [CA]-CB--CG-[CD2] |==|  0.55808
USER: genes 12 Torsion [O]-C--CA-[CB] |==|  0.37977
USER: genes 13 Torsion [N]-C--CA-[N] |==|  0.89752
USER: genes 14 Torsion [C]-CA--CB-[CG] |==|  0.91743
USER: genes 15 Torsion [CA]-CB--CG-[CD] |==|  0.27827
USER: genes 16 Torsion [CB]-CG--CD-[NE] |==|  0.68982
USER: genes 17 Torsion [CG]-CD--NE-[HE] |==|  0.22612
USER: genes 18 Torsion [C]-CA--N-[C] |==|  0.85479
USER: genes 19 Torsion [N]-C--CA-[CB] |==|  0.30404
ROOT
ATOM      1  C   PRO C  17     -12.452  10.660 -12.069  1.00 34.10 LIG 0.24  C 
ATOM      2 O    PRO C  17     -11.812   9.837 -12.720  1.00 31.91 LIG-0.27  OA
ATOM      3  N   LEU C  18     -12.286  10.826 -10.770  1.00 30.88 LIG-0.35  N 
ATOM      4 H    LEU C  18     -12.770  11.359 -10.300  1.00 30.88 LIG 0.16  HD
ENDROOT
BRANCH 3 5
ATOM      5  CA  LEU C  18     -11.270  10.128  -9.996  1.00 30.78 LIG 0.18  C 
BRANCH 5 6
ATOM      6  C   LEU C  18     -11.830   9.348  -8.818  1.00 33.73 LIG 0.24  C 
ATOM      7  N   PRO C  19     -12.245   8.074  -9.039  1.00 33.17 LIG-0.34  N 
ATOM      8  CA  PRO C  19     -12.738   7.254  -7.912  1.00 33.85 LIG 0.18  C 
ATOM      9  CD  PRO C  19     -12.306   7.333 -10.324  1.00 35.22 LIG 0.13  C 
ATOM     10  CB  PRO C  19     -13.392   6.049  -8.595  1.00 35.69 LIG 0.04  C 
ATOM     11  CG  PRO C  19     -12.779   5.966  -9.939  1.00 39.92 LIG 0.02  C 
ATOM     12 O    LEU C  18     -11.796   9.860  -7.697  1.00 31.40 LIG-0.27  OA
BRANCH 8 13
ATOM     13  C   PRO C  19     -11.657   6.851  -6.897  1.00 39.47 LIG 0.24  C 
ATOM     14  N   PHE C  20     -11.988   5.886  -6.037  1.00 41.20 LIG-0.35  N 
ATOM     15 H    PHE C  20     -12.759   5.503  -6.049  1.00 41.20 LIG 0.16  HD
ATOM     16 O    PRO C  19     -10.569   7.417  -6.869  1.00 36.20 LIG-0.27  OA
BRANCH 14 17
ATOM     17  CA  PHE C  20     -11.110   5.365  -4.990  1.00 43.59 LIG 0.18  C 
BRANCH 17 18
ATOM     18  C   PHE C  20     -10.624   6.528  -4.106  1.00 48.54 LIG 0.24  C 
ATOM     19  N   PRO C  21     -11.508   7.461  -3.664  1.00 46.41 LIG-0.34  N 
ATOM     20  CA  PRO C  21     -11.052   8.551  -2.767  1.00 51.72 LIG 0.17  C 
ATOM     21  CD  PRO C  21     -12.948   7.591  -3.960  1.00 49.19 LIG 0.13  C 
ATOM     22  CB  PRO C  21     -12.335   9.352  -2.489  1.00 52.56 LIG 0.04  C 
ATOM     23  CG  PRO C  21     -13.259   9.010  -3.587  1.00 54.82 LIG 0.02  C 
ATOM     24 O    PHE C  20      -9.431   6.565  -3.797  1.00 48.67 LIG-0.27  OA
BRANCH 20 25
ATOM     25  C   PRO C  21     -10.436   8.062  -1.455  1.00 87.57 LIG 0.22  C 
ATOM     26 O    PRO C  21      -9.247   8.269  -1.221  1.00 58.80 LIG-0.29  OA
ENDBRANCH 20 25
ENDBRANCH 17 18
BRANCH 17 27
ATOM     27  CB  PHE C  20      -9.918   4.624  -5.648  1.00 46.79 LIG 0.07  C 
BRANCH 27 28
ATOM     28  CG  PHE C  20     -10.243   3.525  -6.640  1.00 50.46 LIG-0.06  A 
ATOM     29  CD2 PHE C  20     -10.666   3.831  -7.931  1.00 54.33 LIG 0.01  A 
ATOM     30  CE2 PHE C  20     -10.964   2.813  -8.847  1.00 57.68 LIG 0.00  A 
ATOM     31  CZ  PHE C  20     -10.865   1.488  -8.466  1.00 55.81 LIG 0.00  A 
ATOM     32  CE1 PHE C  20     -10.462   1.167  -7.188  1.00 56.05 LIG 0.00  A 
ATOM     33  CD1 PHE C  20     -10.173   2.184  -6.270  1.00 54.84 LIG 0.01  A 
ENDBRANCH 27 28
ENDBRANCH 17 27
ENDBRANCH 14 17
ENDBRANCH 8 13
ENDBRANCH 5 6
BRANCH 5 34
ATOM     34  CB  LEU C  18     -10.253  11.142  -9.478  1.00 31.46 LIG 0.04  C 
BRANCH 34 35
ATOM     35  CG  LEU C  18      -9.548  11.972 -10.519  1.00 36.62 LIG-0.02  C 
ATOM     36  CD2 LEU C  18      -8.254  12.532  -9.949  1.00 38.91 LIG 0.01  C 
ATOM     37  CD1 LEU C  18     -10.467  13.101 -10.996  1.00 36.98 LIG 0.01  C 
ENDBRANCH 34 35
ENDBRANCH 5 34
ENDBRANCH 3 5
BRANCH 1 38
ATOM     38  CA  PRO C  17     -13.554  11.503 -12.695  1.00 33.71 LIG 0.18  C 
ATOM     39  CB  PRO C  17     -14.800  11.605 -11.809  1.00 36.04 LIG 0.04  C 
ATOM     40  CG  PRO C  17     -15.878  10.795 -12.496  1.00 41.66 LIG 0.02  C 
ATOM     41  CD  PRO C  17     -15.316  10.211 -13.757  1.00 37.74 LIG 0.13  C 
ATOM     42  N   PRO C  17     -14.076  10.991 -13.966  1.00 35.06 LIG-0.34  N 
ATOM     43  C   ARG C  16     -13.430  11.295 -15.108  1.00 37.80 LIG 0.24  C 
ATOM     44 O    ARG C  16     -12.413  11.984 -15.081  1.00 34.25 LIG-0.27  OA
BRANCH 43 45
ATOM     45  CA  ARG C  16     -13.978  10.806 -16.462  1.00 39.10 LIG 0.18  C 
BRANCH 45 46
ATOM     46  CB  ARG C  16     -15.043  11.788 -16.984  1.00 42.59 LIG 0.04  C 
BRANCH 46 47
ATOM     47  CG  ARG C  16     -15.820  12.523 -15.896  1.00 54.51 LIG 0.02  C 
BRANCH 47 48
ATOM     48  CD  ARG C  16     -15.302  13.930 -15.676  1.00 71.70 LIG 0.14  C 
BRANCH 48 49
ATOM     49  NE  ARG C  16     -14.654  14.065 -14.367  1.00 86.72 LIG-0.23  N 
ATOM     50 HE   ARG C  16     -13.840  13.797 -14.296  1.00 86.72 LIG 0.18  HD
ATOM     51  CZ  ARG C  16     -15.234  14.572 -13.281  1.00 98.48 LIG 0.67  C 
ATOM     52  NH2 ARG C  16     -14.566  14.644 -12.137  1.00 86.10 LIG-0.23  N 
ATOM     53  NH1 ARG C  16     -16.488  15.002 -13.329  1.00 81.98 LIG-0.23  N 
ATOM     54 2HH2 ARG C  16     -14.945  14.972 -11.438  1.00 86.10 LIG 0.17  HD
ATOM     55 1HH2 ARG C  16     -13.755  14.362 -12.094  1.00 86.10 LIG 0.17  HD
ATOM     56 1HH1 ARG C  16     -16.931  14.955 -14.065  1.00 81.98 LIG 0.17  HD
ATOM     57 2HH1 ARG C  16     -16.857  15.329 -12.625  1.00 81.98 LIG 0.17  HD
ENDBRANCH 48 49
ENDBRANCH 47 48
ENDBRANCH 46 47
ENDBRANCH 45 46
BRANCH 45 58
ATOM     58  N   ARG C  16     -14.546   9.463 -16.302  1.00 40.87 LIG-0.35  N 
ATOM     59  C   PRO C  15     -13.900   8.411 -15.747  1.00 47.02 LIG 0.25  C 
ATOM     60 O    PRO C  15     -12.738   8.467 -15.343  1.00 46.36 LIG-0.27  OA
ATOM     61 H    ARG C  16     -15.349   9.402 -16.601  1.00 40.87 LIG 0.16  HD
BRANCH 59 62
ATOM     62  CA  PRO C  15     -14.695   7.113 -15.589  1.00 46.56 LIG 0.35  C 
ATOM     63  N   PRO C  15     -16.116   7.250 -15.940  1.00 47.38 LIG 0.32  N 
ATOM     64  CD  PRO C  15     -16.472   6.416 -17.103  1.00 49.28 LIG 0.32  C 
ATOM     65  CG  PRO C  15     -15.408   5.362 -17.102  1.00 53.38 LIG 0.04  C 
ATOM     66  CB  PRO C  15     -14.188   6.040 -16.568  1.00 48.49 LIG 0.05  C 
ENDBRANCH 59 62
ENDBRANCH 45 58
ENDBRANCH 43 45
ENDBRANCH 1 38
TORSDOF 18
ENDMDL
MODEL 74
USER: ADFR SOLUTION from run 127
USER: SCORE 23.427427 LL:  -5.659 LR: -18.201 RR:   0.000 FEB: -12.832
USER: RMSD 12.861927
USER: SEED 126
USER: STATUS no improvement in best in 15 clusters for 5 generations
USER: GENES 20
USER: genes 0 Translation |==|  0.46873 0.46934 0.51134
USER: genes 1 Rotation |==|  0.92112 0.66462 0.67923 0.61591
USER: genes 2 Torsion [C]-N--CA-[CB] |==|  0.83541
USER: genes 3 Torsion [N]-CA--C-[N] |==|  0.34187
USER: genes 4 Torsion [N]-CA--C-[O] |==|  0.41235
USER: genes 5 Torsion [C]-N--CA-[C] |==|  0.84995
USER: genes 6 Torsion [N]-CA--C-[N] |==|  0.85810
USER: genes 7 Torsion [N]-CA--C-[O] |==|  0.42344
USER: genes 8 Torsion [N]-CA--CB-[CG] |==|  0.37702
USER: genes 9 Torsion [CA]-CB--CG-[CD1] |==|  0.68473
USER: genes 10 Torsion [N]-CA--CB-[CG] |==|  0.63403
USER: genes 11 Torsion [CA]-CB--CG-[CD2] |==|  0.83698
USER: genes 12 Torsion [O]-C--CA-[CB] |==|  0.49285
USER: genes 13 Torsion [N]-C--CA-[N] |==|  0.08203
USER: genes 14 Torsion [C]-CA--CB-[CG] |==|  0.28767
USER: genes 15 Torsion [CA]-CB--CG-[CD] |==|  0.14030
USER: genes 16 Torsion [CB]-CG--CD-[NE] |==|  0.42586
USER: genes 17 Torsion [CG]-CD--NE-[HE] |==|  0.79828
USER: genes 18 Torsion [C]-CA--N-[C] |==|  0.17778
USER: genes 19 Torsion [N]-C--CA-[CB] |==|  0.20581
ROOT
ATOM      1  C   PRO C  17     -12.176   8.800  -9.958  1.00 34.10 LIG 0.24  C 
ATOM      2 O    PRO C  17     -12.310   7.624 -10.291  1.00 31.91 LIG-0.27  OA
ATOM      3  N   LEU C  18     -12.328   9.210  -8.713  1.00 30.88 LIG-0.35  N 
ATOM      4 H    LEU C  18     -12.291  10.038  -8.485  1.00 30.88 LIG 0.16  HD
ENDROOT
BRANCH 3 5
ATOM      5  CA  LEU C  18     -12.574   8.309  -7.597  1.00 30.78 LIG 0.18  C 
BRANCH 5 6
ATOM      6  C   LEU C  18     -11.444   7.324  -7.348  1.00 33.73 LIG 0.24  C 
ATOM      7  N   PRO C  19     -10.871   7.313  -6.116  1.00 33.17 LIG-0.34  N 
ATOM      8  CA  PRO C  19      -9.811   6.329  -5.808  1.00 33.85 LIG 0.18  C 
ATOM      9  CD  PRO C  19     -11.143   8.207  -4.963  1.00 35.22 LIG 0.13  C 
ATOM     10  CB  PRO C  19      -9.217   6.835  -4.489  1.00 35.69 LIG 0.04  C 
ATOM     11  CG  PRO C  19     -10.264   7.679  -3.873  1.00 39.92 LIG 0.02  C 
ATOM     12 O    LEU C  18     -11.158   6.513  -8.231  1.00 31.40 LIG-0.27  OA
BRANCH 8 13
ATOM     13  C   PRO C  19     -10.298   4.874  -5.724  1.00 39.47 LIG 0.24  C 
ATOM     14  N   PHE C  20     -11.533   4.693  -5.251  1.00 41.20 LIG-0.35  N 
ATOM     15 H    PHE C  20     -12.034   5.350  -5.012  1.00 41.20 LIG 0.16  HD
ATOM     16 O    PRO C  19      -9.569   3.940  -6.042  1.00 36.20 LIG-0.27  OA
BRANCH 14 17
ATOM     17  CA  PHE C  20     -12.178   3.392  -5.082  1.00 43.59 LIG 0.18  C 
BRANCH 17 18
ATOM     18  C   PHE C  20     -12.133   2.623  -6.415  1.00 48.54 LIG 0.24  C 
ATOM     19  N   PRO C  21     -12.563   3.218  -7.559  1.00 46.41 LIG-0.34  N 
ATOM     20  CA  PRO C  21     -12.469   2.498  -8.852  1.00 51.72 LIG 0.17  C 
ATOM     21  CD  PRO C  21     -13.166   4.553  -7.742  1.00 49.19 LIG 0.13  C 
ATOM     22  CB  PRO C  21     -13.023   3.509  -9.871  1.00 52.56 LIG 0.04  C 
ATOM     23  CG  PRO C  21     -13.831   4.459  -9.082  1.00 54.82 LIG 0.02  C 
ATOM     24 O    PHE C  20     -11.675   1.478  -6.410  1.00 48.67 LIG-0.27  OA
BRANCH 20 25
ATOM     25  C   PRO C  21     -11.046   2.085  -9.234  1.00 87.57 LIG 0.22  C 
ATOM     26 O    PRO C  21     -10.863   1.102  -9.949  1.00 58.80 LIG-0.29  OA
ENDBRANCH 20 25
ENDBRANCH 17 18
BRANCH 17 27
ATOM     27  CB  PHE C  20     -13.638   3.607  -4.607  1.00 46.79 LIG 0.07  C 
BRANCH 27 28
ATOM     28  CG  PHE C  20     -14.717   2.776  -5.273  1.00 50.46 LIG-0.06  A 
ATOM     29  CD2 PHE C  20     -14.734   1.390  -5.140  1.00 54.33 LIG 0.01  A 
ATOM     30  CE2 PHE C  20     -15.733   0.624  -5.755  1.00 57.68 LIG 0.00  A 
ATOM     31  CZ  PHE C  20     -16.702   1.239  -6.526  1.00 55.81 LIG 0.00  A 
ATOM     32  CE1 PHE C  20     -16.692   2.609  -6.679  1.00 56.05 LIG 0.00  A 
ATOM     33  CD1 PHE C  20     -15.688   3.374  -6.073  1.00 54.84 LIG 0.01  A 
ENDBRANCH 27 28
ENDBRANCH 17 27
ENDBRANCH 14 17
ENDBRANCH 8 13
ENDBRANCH 5 6
BRANCH 5 34
ATOM     34  CB  LEU C  18     -13.860   7.529  -7.859  1.00 31.46 LIG 0.04  C 
BRANCH 34 35
ATOM     35  CG  LEU C  18     -14.853   7.477  -6.727  1.00 36.62 LIG-0.02  C 
ATOM     36  CD2 LEU C  18     -14.209   6.853  -5.498  1.00 38.91 LIG 0.01  C 
ATOM     37  CD1 LEU C  18     -16.091   6.684  -7.156  1.00 36.98 LIG 0.01  C 
ENDBRANCH 34 35
ENDBRANCH 5 34
ENDBRANCH 3 5
BRANCH 1 38
ATOM     38  CA  PRO C  17     -11.903   9.900 -10.975  1.00 33.71 LIG 0.18  C 
ATOM     39  CB  PRO C  17     -11.836  11.293 -10.339  1.00 36.04 LIG 0.04  C 
ATOM     40  CG  PRO C  17     -13.077  12.029 -10.797  1.00 41.66 LIG 0.02  C 
ATOM     41  CD  PRO C  17     -13.882  11.121 -11.678  1.00 37.74 LIG 0.13  C 
ATOM     42  N   PRO C  17     -12.924  10.045 -12.016  1.00 35.06 LIG-0.34  N 
ATOM     43  C   ARG C  16     -12.863   9.258 -13.107  1.00 37.80 LIG 0.24  C 
ATOM     44 O    ARG C  16     -11.967   8.424 -13.220  1.00 34.25 LIG-0.27  OA
BRANCH 43 45
ATOM     45  CA  ARG C  16     -13.897   9.416 -14.237  1.00 39.10 LIG 0.18  C 
BRANCH 45 46
ATOM     46  CB  ARG C  16     -13.275   9.000 -15.583  1.00 42.59 LIG 0.04  C 
BRANCH 46 47
ATOM     47  CG  ARG C  16     -13.710   7.628 -16.089  1.00 54.51 LIG 0.02  C 
BRANCH 47 48
ATOM     48  CD  ARG C  16     -15.218   7.469 -16.082  1.00 71.70 LIG 0.14  C 
BRANCH 48 49
ATOM     49  NE  ARG C  16     -15.660   6.500 -17.091  1.00 86.72 LIG-0.23  N 
ATOM     50 HE   ARG C  16     -15.623   6.740 -17.916  1.00 86.72 LIG 0.18  HD
ATOM     51  CZ  ARG C  16     -16.114   5.278 -16.823  1.00 98.48 LIG 0.67  C 
ATOM     52  NH2 ARG C  16     -16.500   4.476 -17.807  1.00 86.10 LIG-0.23  N 
ATOM     53  NH1 ARG C  16     -16.194   4.852 -15.569  1.00 81.98 LIG-0.23  N 
ATOM     54 2HH2 ARG C  16     -16.793   3.687 -17.629  1.00 86.10 LIG 0.17  HD
ATOM     55 1HH2 ARG C  16     -16.458   4.745 -18.623  1.00 86.10 LIG 0.17  HD
ATOM     56 1HH1 ARG C  16     -15.952   5.366 -14.923  1.00 81.98 LIG 0.17  HD
ATOM     57 2HH1 ARG C  16     -16.488   4.062 -15.401  1.00 81.98 LIG 0.17  HD
ENDBRANCH 48 49
ENDBRANCH 47 48
ENDBRANCH 46 47
ENDBRANCH 45 46
BRANCH 45 58
ATOM     58  N   ARG C  16     -14.355  10.808 -14.287  1.00 40.87 LIG-0.35  N 
ATOM     59  C   PRO C  15     -13.570  11.871 -14.581  1.00 47.02 LIG 0.25  C 
ATOM     60 O    PRO C  15     -12.363  11.778 -14.809  1.00 46.36 LIG-0.27  OA
ATOM     61 H    ARG C  16     -15.191  10.892 -14.107  1.00 40.87 LIG 0.16  HD
BRANCH 59 62
ATOM     62  CA  PRO C  15     -14.254  13.237 -14.669  1.00 46.56 LIG 0.35  C 
ATOM     63  N   PRO C  15     -15.550  13.199 -15.362  1.00 47.38 LIG 0.32  N 
ATOM     64  CD  PRO C  15     -16.659  13.568 -14.462  1.00 49.28 LIG 0.32  C 
ATOM     65  CG  PRO C  15     -15.975  14.362 -13.391  1.00 53.38 LIG 0.04  C 
ATOM     66  CB  PRO C  15     -14.613  13.759 -13.268  1.00 48.49 LIG 0.05  C 
ENDBRANCH 59 62
ENDBRANCH 45 58
ENDBRANCH 43 45
ENDBRANCH 1 38
TORSDOF 18
ENDMDL
MODEL 75
USER: ADFR SOLUTION from run 56
USER: SCORE 21.173180 LL:  -3.701 LR: -18.201 RR:   0.000 FEB: -12.832
USER: RMSD 13.912450
USER: SEED 55
USER: STATUS no improvement in best in 16 clusters for 5 generations
USER: GENES 20
USER: genes 0 Translation |==|  0.43602 0.59334 0.35577
USER: genes 1 Rotation |==|  0.71422 0.91006 0.59306 0.66523
USER: genes 2 Torsion [C]-N--CA-[CB] |==|  0.56645
USER: genes 3 Torsion [N]-CA--C-[N] |==|  0.37816
USER: genes 4 Torsion [N]-CA--C-[O] |==|  0.91468
USER: genes 5 Torsion [C]-N--CA-[C] |==|  0.70465
USER: genes 6 Torsion [N]-CA--C-[N] |==|  0.39937
USER: genes 7 Torsion [N]-CA--C-[O] |==|  0.48287
USER: genes 8 Torsion [N]-CA--CB-[CG] |==|  0.58128
USER: genes 9 Torsion [CA]-CB--CG-[CD1] |==|  0.62241
USER: genes 10 Torsion [N]-CA--CB-[CG] |==|  0.97319
USER: genes 11 Torsion [CA]-CB--CG-[CD2] |==|  0.67791
USER: genes 12 Torsion [O]-C--CA-[CB] |==|  0.22880
USER: genes 13 Torsion [N]-C--CA-[N] |==|  0.08149
USER: genes 14 Torsion [C]-CA--CB-[CG] |==|  0.25600
USER: genes 15 Torsion [CA]-CB--CG-[CD] |==|  0.51977
USER: genes 16 Torsion [CB]-CG--CD-[NE] |==|  0.61296
USER: genes 17 Torsion [CG]-CD--NE-[HE] |==|  0.92627
USER: genes 18 Torsion [C]-CA--N-[C] |==|  0.64444
USER: genes 19 Torsion [N]-C--CA-[CB] |==|  0.74160
ROOT
ATOM      1  C   PRO C  17     -12.765  11.032 -14.975  1.00 34.10 LIG 0.24  C 
ATOM      2 O    PRO C  17     -11.808  10.458 -14.461  1.00 31.91 LIG-0.27  OA
ATOM      3  N   LEU C  18     -13.510  11.903 -14.321  1.00 30.88 LIG-0.35  N 
ATOM      4 H    LEU C  18     -14.213  12.264 -14.658  1.00 30.88 LIG 0.16  HD
ENDROOT
BRANCH 3 5
ATOM      5  CA  LEU C  18     -13.223  12.342 -12.963  1.00 30.78 LIG 0.18  C 
BRANCH 5 6
ATOM      6  C   LEU C  18     -12.615  11.260 -12.087  1.00 33.73 LIG 0.24  C 
ATOM      7  N   PRO C  19     -11.564  11.599 -11.295  1.00 33.17 LIG-0.34  N 
ATOM      8  CA  PRO C  19     -10.981  10.597 -10.379  1.00 33.85 LIG 0.18  C 
ATOM      9  CD  PRO C  19     -10.849  12.898 -11.217  1.00 35.22 LIG 0.13  C 
ATOM     10  CB  PRO C  19      -9.667  11.240  -9.924  1.00 35.69 LIG 0.04  C 
ATOM     11  CG  PRO C  19      -9.836  12.694 -10.134  1.00 39.92 LIG 0.02  C 
ATOM     12 O    LEU C  18     -13.154  10.152 -12.053  1.00 31.40 LIG-0.27  OA
BRANCH 8 13
ATOM     13  C   PRO C  19     -11.889  10.202  -9.205  1.00 39.47 LIG 0.24  C 
ATOM     14  N   PHE C  20     -11.782   8.943  -8.775  1.00 41.20 LIG-0.35  N 
ATOM     15 H    PHE C  20     -11.233   8.382  -9.127  1.00 41.20 LIG 0.16  HD
ATOM     16 O    PRO C  19     -12.689  10.999  -8.723  1.00 36.20 LIG-0.27  OA
BRANCH 14 17
ATOM     17  CA  PHE C  20     -12.561   8.367  -7.680  1.00 43.59 LIG 0.18  C 
BRANCH 17 18
ATOM     18  C   PHE C  20     -11.660   8.201  -6.443  1.00 48.54 LIG 0.24  C 
ATOM     19  N   PRO C  21     -12.168   8.407  -5.199  1.00 46.41 LIG-0.34  N 
ATOM     20  CA  PRO C  21     -11.316   8.195  -4.004  1.00 51.72 LIG 0.17  C 
ATOM     21  CD  PRO C  21     -13.520   8.853  -4.810  1.00 49.19 LIG 0.13  C 
ATOM     22  CB  PRO C  21     -12.259   8.502  -2.828  1.00 52.56 LIG 0.04  C 
ATOM     23  CG  PRO C  21     -13.343   9.324  -3.398  1.00 54.82 LIG 0.02  C 
ATOM     24 O    PHE C  20     -10.489   7.855  -6.619  1.00 48.67 LIG-0.27  OA
BRANCH 20 25
ATOM     25  C   PRO C  21     -10.758   6.776  -3.880  1.00 87.57 LIG 0.22  C 
ATOM     26 O    PRO C  21      -9.948   6.510  -2.994  1.00 58.80 LIG-0.29  OA
ENDBRANCH 20 25
ENDBRANCH 17 18
BRANCH 17 27
ATOM     27  CB  PHE C  20     -13.147   7.005  -8.134  1.00 46.79 LIG 0.07  C 
BRANCH 27 28
ATOM     28  CG  PHE C  20     -14.457   6.567  -7.511  1.00 50.46 LIG-0.06  A 
ATOM     29  CD2 PHE C  20     -15.493   7.476  -7.314  1.00 54.33 LIG 0.01  A 
ATOM     30  CE2 PHE C  20     -16.704   7.069  -6.738  1.00 57.68 LIG 0.00  A 
ATOM     31  CZ  PHE C  20     -16.872   5.757  -6.334  1.00 55.81 LIG 0.00  A 
ATOM     32  CE1 PHE C  20     -15.851   4.847  -6.509  1.00 56.05 LIG 0.00  A 
ATOM     33  CD1 PHE C  20     -14.638   5.257  -7.075  1.00 54.84 LIG 0.01  A 
ENDBRANCH 27 28
ENDBRANCH 17 27
ENDBRANCH 14 17
ENDBRANCH 8 13
ENDBRANCH 5 6
BRANCH 5 34
ATOM     34  CB  LEU C  18     -14.515  12.835 -12.315  1.00 31.46 LIG 0.04  C 
BRANCH 34 35
ATOM     35  CG  LEU C  18     -15.706  12.982 -13.226  1.00 36.62 LIG-0.02  C 
ATOM     36  CD2 LEU C  18     -16.124  14.442 -13.304  1.00 38.91 LIG 0.01  C 
ATOM     37  CD1 LEU C  18     -16.860  12.111 -12.721  1.00 36.98 LIG 0.01  C 
ENDBRANCH 34 35
ENDBRANCH 5 34
ENDBRANCH 3 5
BRANCH 1 38
ATOM     38  CA  PRO C  17     -13.222  10.724 -16.395  1.00 33.71 LIG 0.18  C 
ATOM     39  CB  PRO C  17     -14.122   9.487 -16.472  1.00 36.04 LIG 0.04  C 
ATOM     40  CG  PRO C  17     -13.309   8.411 -17.160  1.00 41.66 LIG 0.02  C 
ATOM     41  CD  PRO C  17     -11.955   8.964 -17.490  1.00 37.74 LIG 0.13  C 
ATOM     42  N   PRO C  17     -12.142  10.424 -17.340  1.00 35.06 LIG-0.34  N 
ATOM     43  C   ARG C  16     -11.505  11.443 -17.949  1.00 37.80 LIG 0.24  C 
ATOM     44 O    ARG C  16     -11.821  12.605 -17.707  1.00 34.25 LIG-0.27  OA
BRANCH 43 45
ATOM     45  CA  ARG C  16     -10.395  11.158 -18.978  1.00 39.10 LIG 0.18  C 
BRANCH 45 46
ATOM     46  CB  ARG C  16     -10.331  12.297 -20.012  1.00 42.59 LIG 0.04  C 
BRANCH 46 47
ATOM     47  CG  ARG C  16      -9.354  13.417 -19.667  1.00 54.51 LIG 0.02  C 
BRANCH 47 48
ATOM     48  CD  ARG C  16      -9.460  14.585 -20.627  1.00 71.70 LIG 0.14  C 
BRANCH 48 49
ATOM     49  NE  ARG C  16      -8.138  15.120 -20.971  1.00 86.72 LIG-0.23  N 
ATOM     50 HE   ARG C  16      -7.505  15.013 -20.400  1.00 86.72 LIG 0.18  HD
ATOM     51  CZ  ARG C  16      -7.848  15.757 -22.103  1.00 98.48 LIG 0.67  C 
ATOM     52  NH2 ARG C  16      -6.620  16.213 -22.319  1.00 86.10 LIG-0.23  N 
ATOM     53  NH1 ARG C  16      -8.784  15.952 -23.023  1.00 81.98 LIG-0.23  N 
ATOM     54 2HH2 ARG C  16      -6.437  16.624 -23.051  1.00 86.10 LIG 0.17  HD
ATOM     55 1HH2 ARG C  16      -6.008  16.097 -21.726  1.00 86.10 LIG 0.17  HD
ATOM     56 1HH1 ARG C  16      -9.584  15.665 -22.890  1.00 81.98 LIG 0.17  HD
ATOM     57 2HH1 ARG C  16      -8.590  16.364 -23.752  1.00 81.98 LIG 0.17  HD
ENDBRANCH 48 49
ENDBRANCH 47 48
ENDBRANCH 46 47
ENDBRANCH 45 46
BRANCH 45 58
ATOM     58  N   ARG C  16     -10.659   9.875 -19.637  1.00 40.87 LIG-0.35  N 
ATOM     59  C   PRO C  15      -9.768   8.862 -19.745  1.00 47.02 LIG 0.25  C 
ATOM     60 O    PRO C  15      -8.613   8.929 -19.323  1.00 46.36 LIG-0.27  OA
ATOM     61 H    ARG C  16     -11.455   9.822 -19.959  1.00 40.87 LIG 0.16  HD
BRANCH 59 62
ATOM     62  CA  PRO C  15     -10.263   7.567 -20.394  1.00 46.56 LIG 0.35  C 
ATOM     63  N   PRO C  15      -9.203   6.812 -21.076  1.00 47.38 LIG 0.32  N 
ATOM     64  CD  PRO C  15      -8.979   5.497 -20.446  1.00 49.28 LIG 0.32  C 
ATOM     65  CG  PRO C  15     -10.275   5.236 -19.741  1.00 53.38 LIG 0.04  C 
ATOM     66  CB  PRO C  15     -10.773   6.583 -19.327  1.00 48.49 LIG 0.05  C 
ENDBRANCH 59 62
ENDBRANCH 45 58
ENDBRANCH 43 45
ENDBRANCH 1 38
TORSDOF 18
ENDMDL
MODEL 76
USER: ADFR SOLUTION from run 170
USER: SCORE 21.256220 LL:  -5.112 LR: -18.204 RR:   0.000 FEB: -12.834
USER: RMSD 13.527779
USER: SEED 169
USER: STATUS no improvement in best in 14 clusters for 5 generations
USER: GENES 20
USER: genes 0 Translation |==|  0.45063 0.49733 0.50272
USER: genes 1 Rotation |==|  0.98283 0.40195 0.48120 0.58312
USER: genes 2 Torsion [C]-N--CA-[CB] |==|  0.24430
USER: genes 3 Torsion [N]-CA--C-[N] |==|  0.41390
USER: genes 4 Torsion [N]-CA--C-[O] |==|  0.92166
USER: genes 5 Torsion [C]-N--CA-[C] |==|  0.25349
USER: genes 6 Torsion [N]-CA--C-[N] |==|  0.41849
USER: genes 7 Torsion [N]-CA--C-[O] |==|  0.54309
USER: genes 8 Torsion [N]-CA--CB-[CG] |==|  0.33135
USER: genes 9 Torsion [CA]-CB--CG-[CD1] |==|  0.76822
USER: genes 10 Torsion [N]-CA--CB-[CG] |==|  0.35792
USER: genes 11 Torsion [CA]-CB--CG-[CD2] |==|  0.68173
USER: genes 12 Torsion [O]-C--CA-[CB] |==|  0.41740
USER: genes 13 Torsion [N]-C--CA-[N] |==|  0.36400
USER: genes 14 Torsion [C]-CA--CB-[CG] |==|  0.27305
USER: genes 15 Torsion [CA]-CB--CG-[CD] |==|  0.14238
USER: genes 16 Torsion [CB]-CG--CD-[NE] |==|  0.28365
USER: genes 17 Torsion [CG]-CD--NE-[HE] |==|  0.22382
USER: genes 18 Torsion [C]-CA--N-[C] |==|  0.85696
USER: genes 19 Torsion [N]-C--CA-[CB] |==|  0.63900
ROOT
ATOM      1  C   PRO C  17     -12.502   9.304 -10.236  1.00 34.10 LIG 0.24  C 
ATOM      2 O    PRO C  17     -13.720   9.169 -10.324  1.00 31.91 LIG-0.27  OA
ATOM      3  N   LEU C  18     -11.816   8.912  -9.179  1.00 30.88 LIG-0.35  N 
ATOM      4 H    LEU C  18     -10.973   9.054  -9.089  1.00 30.88 LIG 0.16  HD
ENDROOT
BRANCH 3 5
ATOM      5  CA  LEU C  18     -12.409   8.198  -8.058  1.00 30.78 LIG 0.18  C 
BRANCH 5 6
ATOM      6  C   LEU C  18     -11.713   8.459  -6.733  1.00 33.73 LIG 0.24  C 
ATOM      7  N   PRO C  19     -12.465   8.418  -5.602  1.00 33.17 LIG-0.34  N 
ATOM      8  CA  PRO C  19     -11.820   8.602  -4.284  1.00 33.85 LIG 0.18  C 
ATOM      9  CD  PRO C  19     -13.931   8.227  -5.475  1.00 35.22 LIG 0.13  C 
ATOM     10  CB  PRO C  19     -13.000   8.811  -3.328  1.00 35.69 LIG 0.04  C 
ATOM     11  CG  PRO C  19     -14.173   8.208  -3.998  1.00 39.92 LIG 0.02  C 
ATOM     12 O    LEU C  18     -10.488   8.598  -6.723  1.00 31.40 LIG-0.27  OA
BRANCH 8 13
ATOM     13  C   PRO C  19     -10.903   7.446  -3.856  1.00 39.47 LIG 0.24  C 
ATOM     14  N   PHE C  20      -9.872   7.772  -3.074  1.00 41.20 LIG-0.35  N 
ATOM     15 H    PHE C  20      -9.728   8.580  -2.815  1.00 41.20 LIG 0.16  HD
ATOM     16 O    PRO C  19     -11.098   6.301  -4.249  1.00 36.20 LIG-0.27  OA
BRANCH 14 17
ATOM     17  CA  PHE C  20      -8.879   6.826  -2.567  1.00 43.59 LIG 0.18  C 
BRANCH 17 18
ATOM     18  C   PHE C  20      -7.697   6.749  -3.550  1.00 48.54 LIG 0.24  C 
ATOM     19  N   PRO C  21      -6.450   6.458  -3.094  1.00 46.41 LIG-0.34  N 
ATOM     20  CA  PRO C  21      -5.321   6.330  -4.046  1.00 51.72 LIG 0.17  C 
ATOM     21  CD  PRO C  21      -5.995   6.247  -1.706  1.00 49.19 LIG 0.13  C 
ATOM     22  CB  PRO C  21      -4.125   5.977  -3.145  1.00 52.56 LIG 0.04  C 
ATOM     23  CG  PRO C  21      -4.508   6.422  -1.792  1.00 54.82 LIG 0.02  C 
ATOM     24 O    PHE C  20      -7.925   6.932  -4.749  1.00 48.67 LIG-0.27  OA
BRANCH 20 25
ATOM     25  C   PRO C  21      -5.522   5.249  -5.109  1.00 87.57 LIG 0.22  C 
ATOM     26 O    PRO C  21      -4.564   4.850  -5.768  1.00 58.80 LIG-0.29  OA
ENDBRANCH 20 25
ENDBRANCH 17 18
BRANCH 17 27
ATOM     27  CB  PHE C  20      -9.546   5.439  -2.381  1.00 46.79 LIG 0.07  C 
BRANCH 27 28
ATOM     28  CG  PHE C  20      -8.985   4.282  -3.185  1.00 50.46 LIG-0.06  A 
ATOM     29  CD2 PHE C  20      -8.021   3.438  -2.642  1.00 54.33 LIG 0.01  A 
ATOM     30  CE2 PHE C  20      -7.504   2.369  -3.386  1.00 57.68 LIG 0.00  A 
ATOM     31  CZ  PHE C  20      -7.932   2.158  -4.683  1.00 55.81 LIG 0.00  A 
ATOM     32  CE1 PHE C  20      -8.876   2.993  -5.242  1.00 56.05 LIG 0.00  A 
ATOM     33  CD1 PHE C  20      -9.385   4.067  -4.501  1.00 54.84 LIG 0.01  A 
ENDBRANCH 27 28
ENDBRANCH 17 27
ENDBRANCH 14 17
ENDBRANCH 8 13
ENDBRANCH 5 6
BRANCH 5 34
ATOM     34  CB  LEU C  18     -12.375   6.699  -8.347  1.00 31.46 LIG 0.04  C 
BRANCH 34 35
ATOM     35  CG  LEU C  18     -11.787   5.824  -7.271  1.00 36.62 LIG-0.02  C 
ATOM     36  CD2 LEU C  18     -10.508   5.171  -7.772  1.00 38.91 LIG 0.01  C 
ATOM     37  CD1 LEU C  18     -12.808   4.765  -6.844  1.00 36.98 LIG 0.01  C 
ENDBRANCH 34 35
ENDBRANCH 5 34
ENDBRANCH 3 5
BRANCH 1 38
ATOM     38  CA  PRO C  17     -11.689  10.013 -11.311  1.00 33.71 LIG 0.18  C 
ATOM     39  CB  PRO C  17     -10.439  10.701 -10.753  1.00 36.04 LIG 0.04  C 
ATOM     40  CG  PRO C  17     -10.700  12.190 -10.837  1.00 41.66 LIG 0.02  C 
ATOM     41  CD  PRO C  17     -12.063  12.411 -11.422  1.00 37.74 LIG 0.13  C 
ATOM     42  N   PRO C  17     -12.396  11.094 -12.006  1.00 35.06 LIG-0.34  N 
ATOM     43  C   ARG C  16     -13.191  10.789 -13.049  1.00 37.80 LIG 0.24  C 
ATOM     44 O    ARG C  16     -13.328   9.621 -13.406  1.00 34.25 LIG-0.27  OA
BRANCH 43 45
ATOM     45  CA  ARG C  16     -13.914  11.907 -13.825  1.00 39.10 LIG 0.18  C 
BRANCH 45 46
ATOM     46  CB  ARG C  16     -15.418  11.891 -13.494  1.00 42.59 LIG 0.04  C 
BRANCH 46 47
ATOM     47  CG  ARG C  16     -15.848  12.904 -12.439  1.00 54.51 LIG 0.02  C 
BRANCH 47 48
ATOM     48  CD  ARG C  16     -15.360  14.304 -12.759  1.00 71.70 LIG 0.14  C 
BRANCH 48 49
ATOM     49  NE  ARG C  16     -16.434  15.133 -13.317  1.00 86.72 LIG-0.23  N 
ATOM     50 HE   ARG C  16     -16.992  15.485 -12.766  1.00 86.72 LIG 0.18  HD
ATOM     51  CZ  ARG C  16     -16.607  15.379 -14.614  1.00 98.48 LIG 0.67  C 
ATOM     52  NH2 ARG C  16     -17.617  16.137 -15.022  1.00 86.10 LIG-0.23  N 
ATOM     53  NH1 ARG C  16     -15.778  14.863 -15.511  1.00 81.98 LIG-0.23  N 
ATOM     54 2HH2 ARG C  16     -17.725  16.293 -15.861  1.00 86.10 LIG 0.17  HD
ATOM     55 1HH2 ARG C  16     -18.164  16.471 -14.449  1.00 86.10 LIG 0.17  HD
ATOM     56 1HH1 ARG C  16     -15.123  14.366 -15.257  1.00 81.98 LIG 0.17  HD
ATOM     57 2HH1 ARG C  16     -15.894  15.026 -16.347  1.00 81.98 LIG 0.17  HD
ENDBRANCH 48 49
ENDBRANCH 47 48
ENDBRANCH 46 47
ENDBRANCH 45 46
BRANCH 45 58
ATOM     58  N   ARG C  16     -13.699  11.718 -15.264  1.00 40.87 LIG-0.35  N 
ATOM     59  C   PRO C  15     -12.491  11.547 -15.850  1.00 47.02 LIG 0.25  C 
ATOM     60 O    PRO C  15     -11.428  11.566 -15.228  1.00 46.36 LIG-0.27  OA
ATOM     61 H    ARG C  16     -14.430  11.726 -15.715  1.00 40.87 LIG 0.16  HD
BRANCH 59 62
ATOM     62  CA  PRO C  15     -12.481  11.277 -17.357  1.00 46.56 LIG 0.35  C 
ATOM     63  N   PRO C  15     -11.859  12.354 -18.140  1.00 47.38 LIG 0.32  N 
ATOM     64  CD  PRO C  15     -10.644  11.889 -18.834  1.00 49.28 LIG 0.32  C 
ATOM     65  CG  PRO C  15     -10.848  10.408 -18.918  1.00 53.38 LIG 0.04  C 
ATOM     66  CB  PRO C  15     -11.615  10.050 -17.686  1.00 48.49 LIG 0.05  C 
ENDBRANCH 59 62
ENDBRANCH 45 58
ENDBRANCH 43 45
ENDBRANCH 1 38
TORSDOF 18
ENDMDL
MODEL 77
USER: ADFR SOLUTION from run 30
USER: SCORE 21.523277 LL:  -4.422 LR: -18.179 RR:   0.000 FEB: -12.810
USER: RMSD 3.928649
USER: SEED 29
USER: STATUS no improvement in best in 11 clusters for 5 generations
USER: GENES 20
USER: genes 0 Translation |==|  0.44238 0.44683 0.51859
USER: genes 1 Rotation |==|  0.50652 0.33498 0.57309 0.96625
USER: genes 2 Torsion [C]-N--CA-[CB] |==|  0.50556
USER: genes 3 Torsion [N]-CA--C-[N] |==|  0.37428
USER: genes 4 Torsion [N]-CA--C-[O] |==|  0.89204
USER: genes 5 Torsion [C]-N--CA-[C] |==|  0.79219
USER: genes 6 Torsion [N]-CA--C-[N] |==|  0.36038
USER: genes 7 Torsion [N]-CA--C-[O] |==|  0.93501
USER: genes 8 Torsion [N]-CA--CB-[CG] |==|  0.57237
USER: genes 9 Torsion [CA]-CB--CG-[CD1] |==|  0.96700
USER: genes 10 Torsion [N]-CA--CB-[CG] |==|  0.72611
USER: genes 11 Torsion [CA]-CB--CG-[CD2] |==|  0.37071
USER: genes 12 Torsion [O]-C--CA-[CB] |==|  0.24520
USER: genes 13 Torsion [N]-C--CA-[N] |==|  0.12146
USER: genes 14 Torsion [C]-CA--CB-[CG] |==|  0.52667
USER: genes 15 Torsion [CA]-CB--CG-[CD] |==|  0.74707
USER: genes 16 Torsion [CB]-CG--CD-[NE] |==|  0.09210
USER: genes 17 Torsion [CG]-CD--NE-[HE] |==|  0.75099
USER: genes 18 Torsion [C]-CA--N-[C] |==|  0.65772
USER: genes 19 Torsion [N]-C--CA-[CB] |==|  0.70898
ROOT
ATOM      1  C   PRO C  17     -12.650   8.395  -9.725  1.00 34.10 LIG 0.24  C 
ATOM      2 O    PRO C  17     -13.769   8.589 -10.196  1.00 31.91 LIG-0.27  OA
ATOM      3  N   LEU C  18     -11.607   9.142 -10.034  1.00 30.88 LIG-0.35  N 
ATOM      4 H    LEU C  18     -10.813   8.977  -9.751  1.00 30.88 LIG 0.16  HD
ENDROOT
BRANCH 3 5
ATOM      5  CA  LEU C  18     -11.689  10.322 -10.883  1.00 30.78 LIG 0.18  C 
BRANCH 5 6
ATOM      6  C   LEU C  18     -12.288  10.047 -12.251  1.00 33.73 LIG 0.24  C 
ATOM      7  N   PRO C  19     -13.223  10.914 -12.722  1.00 33.17 LIG-0.34  N 
ATOM      8  CA  PRO C  19     -13.787  10.724 -14.075  1.00 33.85 LIG 0.18  C 
ATOM      9  CD  PRO C  19     -13.822  12.086 -12.036  1.00 35.22 LIG 0.13  C 
ATOM     10  CB  PRO C  19     -14.993  11.668 -14.102  1.00 35.69 LIG 0.04  C 
ATOM     11  CG  PRO C  19     -14.732  12.686 -13.061  1.00 39.92 LIG 0.02  C 
ATOM     12 O    LEU C  18     -11.837   9.115 -12.921  1.00 31.40 LIG-0.27  OA
BRANCH 8 13
ATOM     13  C   PRO C  19     -12.797  10.987 -15.220  1.00 39.47 LIG 0.24  C 
ATOM     14  N   PHE C  20     -12.849  10.137 -16.248  1.00 41.20 LIG-0.35  N 
ATOM     15 H    PHE C  20     -13.406   9.483 -16.277  1.00 41.20 LIG 0.16  HD
ATOM     16 O    PRO C  19     -11.988  11.907 -15.163  1.00 36.20 LIG-0.27  OA
BRANCH 14 17
ATOM     17  CA  PHE C  20     -11.989  10.206 -17.429  1.00 43.59 LIG 0.18  C 
BRANCH 17 18
ATOM     18  C   PHE C  20     -12.454  11.362 -18.334  1.00 48.54 LIG 0.24  C 
ATOM     19  N   PRO C  21     -11.554  12.276 -18.785  1.00 46.41 LIG-0.34  N 
ATOM     20  CA  PRO C  21     -11.990  13.359 -19.699  1.00 51.72 LIG 0.17  C 
ATOM     21  CD  PRO C  21     -10.114  12.390 -18.482  1.00 49.19 LIG 0.13  C 
ATOM     22  CB  PRO C  21     -10.694  14.137 -19.983  1.00 52.56 LIG 0.04  C 
ATOM     23  CG  PRO C  21      -9.781  13.798 -18.874  1.00 54.82 LIG 0.02  C 
ATOM     24 O    PHE C  20     -13.645  11.411 -18.649  1.00 48.67 LIG-0.27  OA
BRANCH 20 25
ATOM     25  C   PRO C  21     -12.606  12.859 -21.007  1.00 87.57 LIG 0.22  C 
ATOM     26 O    PRO C  21     -12.332  11.735 -21.425  1.00 58.80 LIG-0.29  OA
ENDBRANCH 20 25
ENDBRANCH 17 18
BRANCH 17 27
ATOM     27  CB  PHE C  20     -12.046   8.849 -18.178  1.00 46.79 LIG 0.07  C 
BRANCH 27 28
ATOM     28  CG  PHE C  20     -10.847   8.470 -19.026  1.00 50.46 LIG-0.06  A 
ATOM     29  CD2 PHE C  20     -10.683   7.167 -19.487  1.00 54.33 LIG 0.01  A 
ATOM     30  CE2 PHE C  20      -9.575   6.819 -20.271  1.00 57.68 LIG 0.00  A 
ATOM     31  CZ  PHE C  20      -8.615   7.767 -20.573  1.00 55.81 LIG 0.00  A 
ATOM     32  CE1 PHE C  20      -8.755   9.059 -20.113  1.00 56.05 LIG 0.00  A 
ATOM     33  CD1 PHE C  20      -9.857   9.404 -19.321  1.00 54.84 LIG 0.01  A 
ENDBRANCH 27 28
ENDBRANCH 17 27
ENDBRANCH 14 17
ENDBRANCH 8 13
ENDBRANCH 5 6
BRANCH 5 34
ATOM     34  CB  LEU C  18     -10.289  10.904 -11.064  1.00 31.46 LIG 0.04  C 
BRANCH 34 35
ATOM     35  CG  LEU C  18      -9.931  12.070 -10.179  1.00 36.62 LIG-0.02  C 
ATOM     36  CD2 LEU C  18      -8.552  11.859  -9.573  1.00 38.91 LIG 0.01  C 
ATOM     37  CD1 LEU C  18     -10.988  12.238  -9.084  1.00 36.98 LIG 0.01  C 
ENDBRANCH 34 35
ENDBRANCH 5 34
ENDBRANCH 3 5
BRANCH 1 38
ATOM     38  CA  PRO C  17     -12.356   7.220  -8.803  1.00 33.71 LIG 0.18  C 
ATOM     39  CB  PRO C  17     -11.948   5.955  -9.565  1.00 36.04 LIG 0.04  C 
ATOM     40  CG  PRO C  17     -13.100   4.982  -9.423  1.00 41.66 LIG 0.02  C 
ATOM     41  CD  PRO C  17     -14.180   5.626  -8.607  1.00 37.74 LIG 0.13  C 
ATOM     42  N   PRO C  17     -13.490   6.778  -7.985  1.00 35.06 LIG-0.34  N 
ATOM     43  C   ARG C  16     -13.742   7.408  -6.821  1.00 37.80 LIG 0.24  C 
ATOM     44 O    ARG C  16     -13.034   8.344  -6.457  1.00 34.25 LIG-0.27  OA
BRANCH 43 45
ATOM     45  CA  ARG C  16     -14.900   6.939  -5.921  1.00 39.10 LIG 0.18  C 
BRANCH 45 46
ATOM     46  CB  ARG C  16     -14.760   7.558  -4.517  1.00 42.59 LIG 0.04  C 
BRANCH 46 47
ATOM     47  CG  ARG C  16     -15.715   6.990  -3.473  1.00 54.51 LIG 0.02  C 
BRANCH 47 48
ATOM     48  CD  ARG C  16     -17.012   7.772  -3.399  1.00 71.70 LIG 0.14  C 
BRANCH 48 49
ATOM     49  NE  ARG C  16     -17.396   8.299  -4.713  1.00 86.72 LIG-0.23  N 
ATOM     50 HE   ARG C  16     -17.103   9.079  -4.930  1.00 86.72 LIG 0.18  HD
ATOM     51  CZ  ARG C  16     -18.162   7.661  -5.594  1.00 98.48 LIG 0.67  C 
ATOM     52  NH2 ARG C  16     -18.461   8.227  -6.757  1.00 86.10 LIG-0.23  N 
ATOM     53  NH1 ARG C  16     -18.642   6.455  -5.317  1.00 81.98 LIG-0.23  N 
ATOM     54 2HH2 ARG C  16     -18.957   7.810  -7.322  1.00 86.10 LIG 0.17  HD
ATOM     55 1HH2 ARG C  16     -18.160   9.010  -6.944  1.00 86.10 LIG 0.17  HD
ATOM     56 1HH1 ARG C  16     -18.459   6.082  -4.564  1.00 81.98 LIG 0.17  HD
ATOM     57 2HH1 ARG C  16     -19.136   6.047  -5.889  1.00 81.98 LIG 0.17  HD
ENDBRANCH 48 49
ENDBRANCH 47 48
ENDBRANCH 46 47
ENDBRANCH 45 46
BRANCH 45 58
ATOM     58  N   ARG C  16     -14.896   5.475  -5.844  1.00 40.87 LIG-0.35  N 
ATOM     59  C   PRO C  15     -15.938   4.679  -6.178  1.00 47.02 LIG 0.25  C 
ATOM     60 O    PRO C  15     -17.027   5.113  -6.556  1.00 46.36 LIG-0.27  OA
ATOM     61 H    ARG C  16     -14.149   5.157  -5.558  1.00 40.87 LIG 0.16  HD
BRANCH 59 62
ATOM     62  CA  PRO C  15     -15.708   3.167  -6.112  1.00 46.56 LIG 0.35  C 
ATOM     63  N   PRO C  15     -16.848   2.425  -5.556  1.00 47.38 LIG 0.32  N 
ATOM     64  CD  PRO C  15     -17.437   1.509  -6.551  1.00 49.28 LIG 0.32  C 
ATOM     65  CG  PRO C  15     -16.314   1.292  -7.518  1.00 53.38 LIG 0.04  C 
ATOM     66  CB  PRO C  15     -15.550   2.577  -7.523  1.00 48.49 LIG 0.05  C 
ENDBRANCH 59 62
ENDBRANCH 45 58
ENDBRANCH 43 45
ENDBRANCH 1 38
TORSDOF 18
ENDMDL
MODEL 78
USER: ADFR SOLUTION from run 116
USER: SCORE 21.116354 LL:  -4.341 LR: -18.179 RR:   0.000 FEB: -12.810
USER: RMSD 8.282325
USER: SEED 115
USER: STATUS no improvement in best in 2 clusters for 5 generations
USER: GENES 20
USER: genes 0 Translation |==|  0.42741 0.39929 0.71971
USER: genes 1 Rotation |==|  0.62682 0.61533 0.11598 0.77044
USER: genes 2 Torsion [C]-N--CA-[CB] |==|  0.19647
USER: genes 3 Torsion [N]-CA--C-[N] |==|  0.84511
USER: genes 4 Torsion [N]-CA--C-[O] |==|  0.80861
USER: genes 5 Torsion [C]-N--CA-[C] |==|  0.70542
USER: genes 6 Torsion [N]-CA--C-[N] |==|  0.47655
USER: genes 7 Torsion [N]-CA--C-[O] |==|  0.60188
USER: genes 8 Torsion [N]-CA--CB-[CG] |==|  0.11938
USER: genes 9 Torsion [CA]-CB--CG-[CD1] |==|  0.54650
USER: genes 10 Torsion [N]-CA--CB-[CG] |==|  0.64484
USER: genes 11 Torsion [CA]-CB--CG-[CD2] |==|  0.62215
USER: genes 12 Torsion [O]-C--CA-[CB] |==|  0.49898
USER: genes 13 Torsion [N]-C--CA-[N] |==|  0.20658
USER: genes 14 Torsion [C]-CA--CB-[CG] |==|  0.28858
USER: genes 15 Torsion [CA]-CB--CG-[CD] |==|  0.37387
USER: genes 16 Torsion [CB]-CG--CD-[NE] |==|  0.49996
USER: genes 17 Torsion [CG]-CD--NE-[HE] |==|  0.11832
USER: genes 18 Torsion [C]-CA--N-[C] |==|  0.69586
USER: genes 19 Torsion [N]-C--CA-[CB] |==|  0.94472
ROOT
ATOM      1  C   PRO C  17     -12.920   7.539  -3.238  1.00 34.10 LIG 0.24  C 
ATOM      2 O    PRO C  17     -12.149   7.953  -2.375  1.00 31.91 LIG-0.27  OA
ATOM      3  N   LEU C  18     -12.585   7.458  -4.512  1.00 30.88 LIG-0.35  N 
ATOM      4 H    LEU C  18     -13.138   7.222  -5.127  1.00 30.88 LIG 0.16  HD
ENDROOT
BRANCH 3 5
ATOM      5  CA  LEU C  18     -11.251   7.755  -5.012  1.00 30.78 LIG 0.18  C 
BRANCH 5 6
ATOM      6  C   LEU C  18     -11.180   7.881  -6.524  1.00 33.73 LIG 0.24  C 
ATOM      7  N   PRO C  19     -11.624   6.835  -7.270  1.00 33.17 LIG-0.34  N 
ATOM      8  CA  PRO C  19     -11.635   6.937  -8.745  1.00 33.85 LIG 0.18  C 
ATOM      9  CD  PRO C  19     -12.110   5.512  -6.806  1.00 35.22 LIG 0.13  C 
ATOM     10  CB  PRO C  19     -11.879   5.496  -9.207  1.00 35.69 LIG 0.04  C 
ATOM     11  CG  PRO C  19     -12.517   4.809  -8.064  1.00 39.92 LIG 0.02  C 
ATOM     12 O    LEU C  18     -10.820   8.953  -7.015  1.00 31.40 LIG-0.27  OA
BRANCH 8 13
ATOM     13  C   PRO C  19     -12.665   7.927  -9.308  1.00 39.47 LIG 0.24  C 
ATOM     14  N   PHE C  20     -12.174   9.049  -9.839  1.00 41.20 LIG-0.35  N 
ATOM     15 H    PHE C  20     -11.330   9.210  -9.872  1.00 41.20 LIG 0.16  HD
ATOM     16 O    PRO C  19     -13.869   7.703  -9.234  1.00 36.20 LIG-0.27  OA
BRANCH 14 17
ATOM     17  CA  PHE C  20     -12.983  10.121 -10.417  1.00 43.59 LIG 0.18  C 
BRANCH 17 18
ATOM     18  C   PHE C  20     -12.862  10.081 -11.951  1.00 48.54 LIG 0.24  C 
ATOM     19  N   PRO C  21     -13.660  10.872 -12.717  1.00 46.41 LIG-0.34  N 
ATOM     20  CA  PRO C  21     -13.508  10.876 -14.192  1.00 51.72 LIG 0.17  C 
ATOM     21  CD  PRO C  21     -14.742  11.784 -12.297  1.00 49.19 LIG 0.13  C 
ATOM     22  CB  PRO C  21     -14.555  11.900 -14.662  1.00 52.56 LIG 0.04  C 
ATOM     23  CG  PRO C  21     -15.525  12.005 -13.556  1.00 54.82 LIG 0.02  C 
ATOM     24 O    PHE C  20     -12.012   9.339 -12.449  1.00 48.67 LIG-0.27  OA
BRANCH 20 25
ATOM     25  C   PRO C  21     -12.114  11.282 -14.674  1.00 87.57 LIG 0.22  C 
ATOM     26 O    PRO C  21     -11.989  11.956 -15.695  1.00 58.80 LIG-0.29  OA
ENDBRANCH 20 25
ENDBRANCH 17 18
BRANCH 17 27
ATOM     27  CB  PHE C  20     -12.503  11.482  -9.851  1.00 46.79 LIG 0.07  C 
BRANCH 27 28
ATOM     28  CG  PHE C  20     -11.007  11.707  -9.752  1.00 50.46 LIG-0.06  A 
ATOM     29  CD2 PHE C  20     -10.114  10.870 -10.416  1.00 54.33 LIG 0.01  A 
ATOM     30  CE2 PHE C  20      -8.731  11.081 -10.323  1.00 57.68 LIG 0.00  A 
ATOM     31  CZ  PHE C  20      -8.238  12.112  -9.546  1.00 55.81 LIG 0.00  A 
ATOM     32  CE1 PHE C  20      -9.108  12.942  -8.870  1.00 56.05 LIG 0.00  A 
ATOM     33  CD1 PHE C  20     -10.489  12.725  -8.955  1.00 54.84 LIG 0.01  A 
ENDBRANCH 27 28
ENDBRANCH 17 27
ENDBRANCH 14 17
ENDBRANCH 8 13
ENDBRANCH 5 6
BRANCH 5 34
ATOM     34  CB  LEU C  18     -10.294   6.654  -4.563  1.00 31.46 LIG 0.04  C 
BRANCH 34 35
ATOM     35  CG  LEU C  18      -9.039   7.104  -3.860  1.00 36.62 LIG-0.02  C 
ATOM     36  CD2 LEU C  18      -7.840   6.331  -4.390  1.00 38.91 LIG 0.01  C 
ATOM     37  CD1 LEU C  18      -9.188   6.908  -2.349  1.00 36.98 LIG 0.01  C 
ENDBRANCH 34 35
ENDBRANCH 5 34
ENDBRANCH 3 5
BRANCH 1 38
ATOM     38  CA  PRO C  17     -14.360   7.162  -2.920  1.00 33.71 LIG 0.18  C 
ATOM     39  CB  PRO C  17     -15.134   6.681  -4.151  1.00 36.04 LIG 0.04  C 
ATOM     40  CG  PRO C  17     -16.139   7.767  -4.472  1.00 41.66 LIG 0.02  C 
ATOM     41  CD  PRO C  17     -15.986   8.878  -3.478  1.00 37.74 LIG 0.13  C 
ATOM     42  N   PRO C  17     -15.184   8.257  -2.400  1.00 35.06 LIG-0.34  N 
ATOM     43  C   ARG C  16     -15.146   8.537  -1.083  1.00 37.80 LIG 0.24  C 
ATOM     44 O    ARG C  16     -14.423   7.887  -0.332  1.00 34.25 LIG-0.27  OA
BRANCH 43 45
ATOM     45  CA  ARG C  16     -16.033   9.654  -0.502  1.00 39.10 LIG 0.18  C 
BRANCH 45 46
ATOM     46  CB  ARG C  16     -15.530  10.049   0.900  1.00 42.59 LIG 0.04  C 
BRANCH 46 47
ATOM     47  CG  ARG C  16     -14.760  11.364   0.953  1.00 54.51 LIG 0.02  C 
BRANCH 47 48
ATOM     48  CD  ARG C  16     -15.200  12.238   2.111  1.00 71.70 LIG 0.14  C 
BRANCH 48 49
ATOM     49  NE  ARG C  16     -14.449  13.498   2.148  1.00 86.72 LIG-0.23  N 
ATOM     50 HE   ARG C  16     -14.313  13.902   1.402  1.00 86.72 LIG 0.18  HD
ATOM     51  CZ  ARG C  16     -13.964  14.060   3.253  1.00 98.48 LIG 0.67  C 
ATOM     52  NH2 ARG C  16     -13.288  15.201   3.182  1.00 86.10 LIG-0.23  N 
ATOM     53  NH1 ARG C  16     -14.142  13.483   4.434  1.00 81.98 LIG-0.23  N 
ATOM     54 2HH2 ARG C  16     -12.977  15.560   3.898  1.00 86.10 LIG 0.17  HD
ATOM     55 1HH2 ARG C  16     -13.162  15.580   2.421  1.00 86.10 LIG 0.17  HD
ATOM     56 1HH1 ARG C  16     -14.573  12.741   4.489  1.00 81.98 LIG 0.17  HD
ATOM     57 2HH1 ARG C  16     -13.827  13.851   5.144  1.00 81.98 LIG 0.17  HD
ENDBRANCH 48 49
ENDBRANCH 47 48
ENDBRANCH 46 47
ENDBRANCH 45 46
BRANCH 45 58
ATOM     58  N   ARG C  16     -17.423   9.191  -0.442  1.00 40.87 LIG-0.35  N 
ATOM     59  C   PRO C  15     -18.424   9.644  -1.232  1.00 47.02 LIG 0.25  C 
ATOM     60 O    PRO C  15     -18.274  10.530  -2.074  1.00 46.36 LIG-0.27  OA
ATOM     61 H    ARG C  16     -17.549   8.588   0.158  1.00 40.87 LIG 0.16  HD
BRANCH 59 62
ATOM     62  CA  PRO C  15     -19.790   8.972  -1.076  1.00 46.56 LIG 0.35  C 
ATOM     63  N   PRO C  15     -20.440   8.664  -2.358  1.00 47.38 LIG 0.32  N 
ATOM     64  CD  PRO C  15     -20.613   7.211  -2.545  1.00 49.28 LIG 0.32  C 
ATOM     65  CG  PRO C  15     -20.577   6.684  -1.143  1.00 53.38 LIG 0.04  C 
ATOM     66  CB  PRO C  15     -19.648   7.595  -0.407  1.00 48.49 LIG 0.05  C 
ENDBRANCH 59 62
ENDBRANCH 45 58
ENDBRANCH 43 45
ENDBRANCH 1 38
TORSDOF 18
ENDMDL
MODEL 79
USER: ADFR SOLUTION from run 2
USER: SCORE 21.867416 LL:  -4.967 LR: -18.174 RR:   0.000 FEB: -12.805
USER: RMSD 12.639772
USER: SEED 829463
USER: STATUS no improvement in best in 8 clusters for 5 generations
USER: GENES 20
USER: genes 0 Translation |==|  0.42848 0.63152 0.46214
USER: genes 1 Rotation |==|  0.84950 0.42916 0.20640 0.69139
USER: genes 2 Torsion [C]-N--CA-[CB] |==|  0.76772
USER: genes 3 Torsion [N]-CA--C-[N] |==|  0.16762
USER: genes 4 Torsion [N]-CA--C-[O] |==|  0.12608
USER: genes 5 Torsion [C]-N--CA-[C] |==|  0.62290
USER: genes 6 Torsion [N]-CA--C-[N] |==|  0.86044
USER: genes 7 Torsion [N]-CA--C-[O] |==|  0.62698
USER: genes 8 Torsion [N]-CA--CB-[CG] |==|  0.91195
USER: genes 9 Torsion [CA]-CB--CG-[CD1] |==|  0.22688
USER: genes 10 Torsion [N]-CA--CB-[CG] |==|  0.52281
USER: genes 11 Torsion [CA]-CB--CG-[CD2] |==|  0.49380
USER: genes 12 Torsion [O]-C--CA-[CB] |==|  0.09187
USER: genes 13 Torsion [N]-C--CA-[N] |==|  0.12919
USER: genes 14 Torsion [C]-CA--CB-[CG] |==|  0.78288
USER: genes 15 Torsion [CA]-CB--CG-[CD] |==|  0.28113
USER: genes 16 Torsion [CB]-CG--CD-[NE] |==|  0.69136
USER: genes 17 Torsion [CG]-CD--NE-[HE] |==|  0.95452
USER: genes 18 Torsion [C]-CA--N-[C] |==|  0.64451
USER: genes 19 Torsion [N]-C--CA-[CB] |==|  0.88765
ROOT
ATOM      1  C   PRO C  17     -12.900  11.719 -11.545  1.00 34.10 LIG 0.24  C 
ATOM      2 O    PRO C  17     -13.326  11.947 -10.414  1.00 31.91 LIG-0.27  OA
ATOM      3  N   LEU C  18     -11.677  11.278 -11.770  1.00 30.88 LIG-0.35  N 
ATOM      4 H    LEU C  18     -11.356  11.171 -12.560  1.00 30.88 LIG 0.16  HD
ENDROOT
BRANCH 3 5
ATOM      5  CA  LEU C  18     -10.744  10.926 -10.710  1.00 30.78 LIG 0.18  C 
BRANCH 5 6
ATOM      6  C   LEU C  18     -11.399  10.237  -9.525  1.00 33.73 LIG 0.24  C 
ATOM      7  N   PRO C  19     -12.040   9.060  -9.749  1.00 33.17 LIG-0.34  N 
ATOM      8  CA  PRO C  19     -12.637   8.320  -8.617  1.00 33.85 LIG 0.18  C 
ATOM      9  CD  PRO C  19     -12.269   8.365 -11.041  1.00 35.22 LIG 0.13  C 
ATOM     10  CB  PRO C  19     -13.514   7.263  -9.295  1.00 35.69 LIG 0.04  C 
ATOM     11  CG  PRO C  19     -12.965   7.097 -10.658  1.00 39.92 LIG 0.02  C 
ATOM     12 O    LEU C  18     -11.242  10.714  -8.399  1.00 31.40 LIG-0.27  OA
BRANCH 8 13
ATOM     13  C   PRO C  19     -11.616   7.714  -7.643  1.00 39.47 LIG 0.24  C 
ATOM     14  N   PHE C  20     -11.860   6.467  -7.235  1.00 41.20 LIG-0.35  N 
ATOM     15 H    PHE C  20     -12.545   6.021  -7.504  1.00 41.20 LIG 0.16  HD
ATOM     16 O    PRO C  19     -10.655   8.363  -7.243  1.00 36.20 LIG-0.27  OA
BRANCH 14 17
ATOM     17  CA  PHE C  20     -11.021   5.714  -6.305  1.00 43.59 LIG 0.18  C 
BRANCH 17 18
ATOM     18  C   PHE C  20     -10.834   4.279  -6.830  1.00 48.54 LIG 0.24  C 
ATOM     19  N   PRO C  21     -11.915   3.547  -7.208  1.00 46.41 LIG-0.34  N 
ATOM     20  CA  PRO C  21     -11.733   2.185  -7.765  1.00 51.72 LIG 0.17  C 
ATOM     21  CD  PRO C  21     -13.347   3.899  -7.135  1.00 49.19 LIG 0.13  C 
ATOM     22  CB  PRO C  21     -13.168   1.728  -8.079  1.00 52.56 LIG 0.04  C 
ATOM     23  CG  PRO C  21     -14.042   2.576  -7.248  1.00 54.82 LIG 0.02  C 
ATOM     24 O    PHE C  20      -9.686   3.838  -6.921  1.00 48.67 LIG-0.27  OA
BRANCH 20 25
ATOM     25  C   PRO C  21     -10.872   2.140  -9.029  1.00 87.57 LIG 0.22  C 
ATOM     26 O    PRO C  21     -11.238   1.475  -9.997  1.00 58.80 LIG-0.29  OA
ENDBRANCH 20 25
ENDBRANCH 17 18
BRANCH 17 27
ATOM     27  CB  PHE C  20     -11.685   5.717  -4.904  1.00 46.79 LIG 0.07  C 
BRANCH 27 28
ATOM     28  CG  PHE C  20     -12.502   6.936  -4.522  1.00 50.46 LIG-0.06  A 
ATOM     29  CD2 PHE C  20     -11.971   7.919  -3.691  1.00 54.33 LIG 0.01  A 
ATOM     30  CE2 PHE C  20     -12.727   9.045  -3.340  1.00 57.68 LIG 0.00  A 
ATOM     31  CZ  PHE C  20     -14.025   9.178  -3.798  1.00 55.81 LIG 0.00  A 
ATOM     32  CE1 PHE C  20     -14.571   8.208  -4.611  1.00 56.05 LIG 0.00  A 
ATOM     33  CD1 PHE C  20     -13.818   7.077  -4.953  1.00 54.84 LIG 0.01  A 
ENDBRANCH 27 28
ENDBRANCH 17 27
ENDBRANCH 14 17
ENDBRANCH 8 13
ENDBRANCH 5 6
BRANCH 5 34
ATOM     34  CB  LEU C  18     -10.045  12.192 -10.221  1.00 31.46 LIG 0.04  C 
BRANCH 34 35
ATOM     35  CG  LEU C  18      -8.904  11.996  -9.256  1.00 36.62 LIG-0.02  C 
ATOM     36  CD2 LEU C  18      -8.281  13.339  -8.908  1.00 38.91 LIG 0.01  C 
ATOM     37  CD1 LEU C  18      -7.863  11.052  -9.865  1.00 36.98 LIG 0.01  C 
ENDBRANCH 34 35
ENDBRANCH 5 34
ENDBRANCH 3 5
BRANCH 1 38
ATOM     38  CA  PRO C  17     -13.726  12.007 -12.791  1.00 33.71 LIG 0.18  C 
ATOM     39  CB  PRO C  17     -14.637  13.229 -12.630  1.00 36.04 LIG 0.04  C 
ATOM     40  CG  PRO C  17     -16.053  12.699 -12.565  1.00 41.66 LIG 0.02  C 
ATOM     41  CD  PRO C  17     -16.016  11.204 -12.676  1.00 37.74 LIG 0.13  C 
ATOM     42  N   PRO C  17     -14.651  10.937 -13.179  1.00 35.06 LIG-0.34  N 
ATOM     43  C   ARG C  16     -14.191   9.917 -13.928  1.00 37.80 LIG 0.24  C 
ATOM     44 O    ARG C  16     -13.012   9.881 -14.271  1.00 34.25 LIG-0.27  OA
BRANCH 43 45
ATOM     45  CA  ARG C  16     -15.148   8.800 -14.387  1.00 39.10 LIG 0.18  C 
BRANCH 45 46
ATOM     46  CB  ARG C  16     -14.463   7.925 -15.454  1.00 42.59 LIG 0.04  C 
BRANCH 46 47
ATOM     47  CG  ARG C  16     -14.428   8.537 -16.851  1.00 54.51 LIG 0.02  C 
BRANCH 47 48
ATOM     48  CD  ARG C  16     -13.075   9.138 -17.177  1.00 71.70 LIG 0.14  C 
BRANCH 48 49
ATOM     49  NE  ARG C  16     -13.142  10.601 -17.257  1.00 86.72 LIG-0.23  N 
ATOM     50 HE   ARG C  16     -13.919  10.960 -17.334  1.00 86.72 LIG 0.18  HD
ATOM     51  CZ  ARG C  16     -12.088  11.413 -17.217  1.00 98.48 LIG 0.67  C 
ATOM     52  NH2 ARG C  16     -12.251  12.727 -17.305  1.00 86.10 LIG-0.23  N 
ATOM     53  NH1 ARG C  16     -10.863  10.917 -17.098  1.00 81.98 LIG-0.23  N 
ATOM     54 2HH2 ARG C  16     -11.567  13.248 -17.279  1.00 86.10 LIG 0.17  HD
ATOM     55 1HH2 ARG C  16     -13.041  13.058 -17.388  1.00 86.10 LIG 0.17  HD
ATOM     56 1HH1 ARG C  16     -10.746  10.067 -17.046  1.00 81.98 LIG 0.17  HD
ATOM     57 2HH1 ARG C  16     -10.186  11.446 -17.073  1.00 81.98 LIG 0.17  HD
ENDBRANCH 48 49
ENDBRANCH 47 48
ENDBRANCH 46 47
ENDBRANCH 45 46
BRANCH 45 58
ATOM     58  N   ARG C  16     -16.376   9.399 -14.918  1.00 40.87 LIG-0.35  N 
ATOM     59  C   PRO C  15     -17.630   9.070 -14.529  1.00 47.02 LIG 0.25  C 
ATOM     60 O    PRO C  15     -17.872   8.194 -13.697  1.00 46.36 LIG-0.27  OA
ATOM     61 H    ARG C  16     -16.225   9.996 -15.518  1.00 40.87 LIG 0.16  HD
BRANCH 59 62
ATOM     62  CA  PRO C  15     -18.781   9.872 -15.140  1.00 46.56 LIG 0.35  C 
ATOM     63  N   PRO C  15     -19.999   9.868 -14.316  1.00 47.38 LIG 0.32  N 
ATOM     64  CD  PRO C  15     -20.336  11.222 -13.839  1.00 49.28 LIG 0.32  C 
ATOM     65  CG  PRO C  15     -19.646  12.111 -14.828  1.00 53.38 LIG 0.04  C 
ATOM     66  CB  PRO C  15     -18.418  11.363 -15.234  1.00 48.49 LIG 0.05  C 
ENDBRANCH 59 62
ENDBRANCH 45 58
ENDBRANCH 43 45
ENDBRANCH 1 38
TORSDOF 18
ENDMDL
MODEL 80
USER: ADFR SOLUTION from run 64
USER: SCORE 21.314529 LL:  -4.787 LR: -18.161 RR:   0.000 FEB: -12.792
USER: RMSD 14.202655
USER: SEED 63
USER: STATUS no improvement in best in 41 clusters for 5 generations
USER: GENES 20
USER: genes 0 Translation |==|  0.46322 0.49029 0.51311
USER: genes 1 Rotation |==|  0.98978 0.42744 0.49474 0.56946
USER: genes 2 Torsion [C]-N--CA-[CB] |==|  0.26610
USER: genes 3 Torsion [N]-CA--C-[N] |==|  0.37778
USER: genes 4 Torsion [N]-CA--C-[O] |==|  0.84610
USER: genes 5 Torsion [C]-N--CA-[C] |==|  0.61960
USER: genes 6 Torsion [N]-CA--C-[N] |==|  0.52474
USER: genes 7 Torsion [N]-CA--C-[O] |==|  0.27983
USER: genes 8 Torsion [N]-CA--CB-[CG] |==|  0.78056
USER: genes 9 Torsion [CA]-CB--CG-[CD1] |==|  0.70865
USER: genes 10 Torsion [N]-CA--CB-[CG] |==|  0.66130
USER: genes 11 Torsion [CA]-CB--CG-[CD2] |==|  0.74515
USER: genes 12 Torsion [O]-C--CA-[CB] |==|  0.33292
USER: genes 13 Torsion [N]-C--CA-[N] |==|  0.86814
USER: genes 14 Torsion [C]-CA--CB-[CG] |==|  0.46482
USER: genes 15 Torsion [CA]-CB--CG-[CD] |==|  0.64280
USER: genes 16 Torsion [CB]-CG--CD-[NE] |==|  0.73152
USER: genes 17 Torsion [CG]-CD--NE-[HE] |==|  0.98125
USER: genes 18 Torsion [C]-CA--N-[C] |==|  0.83826
USER: genes 19 Torsion [N]-C--CA-[CB] |==|  0.36687
ROOT
ATOM      1  C   PRO C  17     -12.275   9.177  -9.901  1.00 34.10 LIG 0.24  C 
ATOM      2 O    PRO C  17     -13.466   8.915 -10.056  1.00 31.91 LIG-0.27  OA
ATOM      3  N   LEU C  18     -11.597   8.807  -8.831  1.00 30.88 LIG-0.35  N 
ATOM      4 H    LEU C  18     -10.780   9.036  -8.692  1.00 30.88 LIG 0.16  HD
ENDROOT
BRANCH 3 5
ATOM      5  CA  LEU C  18     -12.155   7.974  -7.776  1.00 30.78 LIG 0.18  C 
BRANCH 5 6
ATOM      6  C   LEU C  18     -11.693   8.365  -6.383  1.00 33.73 LIG 0.24  C 
ATOM      7  N   PRO C  19     -12.625   8.413  -5.395  1.00 33.17 LIG-0.34  N 
ATOM      8  CA  PRO C  19     -12.212   8.725  -4.010  1.00 33.85 LIG 0.18  C 
ATOM      9  CD  PRO C  19     -14.092   8.209  -5.499  1.00 35.22 LIG 0.13  C 
ATOM     10  CB  PRO C  19     -13.536   8.998  -3.288  1.00 35.69 LIG 0.04  C 
ATOM     11  CG  PRO C  19     -14.579   8.319  -4.088  1.00 39.92 LIG 0.02  C 
ATOM     12 O    LEU C  18     -10.488   8.525  -6.180  1.00 31.40 LIG-0.27  OA
BRANCH 8 13
ATOM     13  C   PRO C  19     -11.378   7.628  -3.331  1.00 39.47 LIG 0.24  C 
ATOM     14  N   PHE C  20     -10.176   7.996  -2.882  1.00 41.20 LIG-0.35  N 
ATOM     15 H    PHE C  20      -9.883   8.800  -2.960  1.00 41.20 LIG 0.16  HD
ATOM     16 O    PRO C  19     -11.792   6.476  -3.245  1.00 36.20 LIG-0.27  OA
BRANCH 14 17
ATOM     17  CA  PHE C  20      -9.226   7.104  -2.218  1.00 43.59 LIG 0.18  C 
BRANCH 17 18
ATOM     18  C   PHE C  20      -8.608   7.828  -1.008  1.00 48.54 LIG 0.24  C 
ATOM     19  N   PRO C  21      -7.564   7.267  -0.341  1.00 46.41 LIG-0.34  N 
ATOM     20  CA  PRO C  21      -6.932   7.987   0.790  1.00 51.72 LIG 0.17  C 
ATOM     21  CD  PRO C  21      -6.917   5.958  -0.560  1.00 49.19 LIG 0.13  C 
ATOM     22  CB  PRO C  21      -5.804   7.041   1.237  1.00 52.56 LIG 0.04  C 
ATOM     23  CG  PRO C  21      -6.179   5.711   0.721  1.00 54.82 LIG 0.02  C 
ATOM     24 O    PHE C  20      -9.068   8.927  -0.689  1.00 48.67 LIG-0.27  OA
BRANCH 20 25
ATOM     25  C   PRO C  21      -6.360   9.356   0.416  1.00 87.57 LIG 0.22  C 
ATOM     26 O    PRO C  21      -6.990  10.378   0.683  1.00 58.80 LIG-0.29  OA
ENDBRANCH 20 25
ENDBRANCH 17 18
BRANCH 17 27
ATOM     27  CB  PHE C  20      -8.136   6.675  -3.233  1.00 46.79 LIG 0.07  C 
BRANCH 27 28
ATOM     28  CG  PHE C  20      -8.494   5.581  -4.219  1.00 50.46 LIG-0.06  A 
ATOM     29  CD2 PHE C  20      -9.363   5.831  -5.278  1.00 54.33 LIG 0.01  A 
ATOM     30  CE2 PHE C  20      -9.693   4.818  -6.189  1.00 57.68 LIG 0.00  A 
ATOM     31  CZ  PHE C  20      -9.174   3.547  -6.028  1.00 55.81 LIG 0.00  A 
ATOM     32  CE1 PHE C  20      -8.323   3.278  -4.978  1.00 56.05 LIG 0.00  A 
ATOM     33  CD1 PHE C  20      -8.002   4.288  -4.061  1.00 54.84 LIG 0.01  A 
ENDBRANCH 27 28
ENDBRANCH 17 27
ENDBRANCH 14 17
ENDBRANCH 8 13
ENDBRANCH 5 6
BRANCH 5 34
ATOM     34  CB  LEU C  18     -11.772   6.519  -8.034  1.00 31.46 LIG 0.04  C 
BRANCH 34 35
ATOM     35  CG  LEU C  18     -12.911   5.543  -8.175  1.00 36.62 LIG-0.02  C 
ATOM     36  CD2 LEU C  18     -13.244   4.932  -6.823  1.00 38.91 LIG 0.01  C 
ATOM     37  CD1 LEU C  18     -12.543   4.455  -9.189  1.00 36.98 LIG 0.01  C 
ENDBRANCH 34 35
ENDBRANCH 5 34
ENDBRANCH 3 5
BRANCH 1 38
ATOM     38  CA  PRO C  17     -11.500  10.027 -10.899  1.00 33.71 LIG 0.18  C 
ATOM     39  CB  PRO C  17     -10.923  11.300 -10.271  1.00 36.04 LIG 0.04  C 
ATOM     40  CG  PRO C  17     -11.718  12.455 -10.843  1.00 41.66 LIG 0.02  C 
ATOM     41  CD  PRO C  17     -12.751  11.913 -11.784  1.00 37.74 LIG 0.13  C 
ATOM     42  N   PRO C  17     -12.291  10.528 -12.028  1.00 35.06 LIG-0.34  N 
ATOM     43  C   ARG C  16     -12.471   9.735 -13.102  1.00 37.80 LIG 0.24  C 
ATOM     44 O    ARG C  16     -11.985   8.607 -13.129  1.00 34.25 LIG-0.27  OA
BRANCH 43 45
ATOM     45  CA  ARG C  16     -13.261  10.249 -14.320  1.00 39.10 LIG 0.18  C 
BRANCH 45 46
ATOM     46  CB  ARG C  16     -12.409  11.258 -15.114  1.00 42.59 LIG 0.04  C 
BRANCH 46 47
ATOM     47  CG  ARG C  16     -12.955  11.605 -16.495  1.00 54.51 LIG 0.02  C 
BRANCH 47 48
ATOM     48  CD  ARG C  16     -11.908  11.447 -17.580  1.00 71.70 LIG 0.14  C 
BRANCH 48 49
ATOM     49  NE  ARG C  16     -11.265  12.727 -17.897  1.00 86.72 LIG-0.23  N 
ATOM     50 HE   ARG C  16     -11.585  13.435 -17.527  1.00 86.72 LIG 0.18  HD
ATOM     51  CZ  ARG C  16     -10.225  12.873 -18.713  1.00 98.48 LIG 0.67  C 
ATOM     52  NH2 ARG C  16      -9.718  14.078 -18.944  1.00 86.10 LIG-0.23  N 
ATOM     53  NH1 ARG C  16      -9.688  11.818 -19.312  1.00 81.98 LIG-0.23  N 
ATOM     54 2HH2 ARG C  16      -9.046  14.167 -19.473  1.00 86.10 LIG 0.17  HD
ATOM     55 1HH2 ARG C  16     -10.062  14.769 -18.566  1.00 86.10 LIG 0.17  HD
ATOM     56 1HH1 ARG C  16     -10.013  11.033 -19.174  1.00 81.98 LIG 0.17  HD
ATOM     57 2HH1 ARG C  16      -9.016  11.918 -19.839  1.00 81.98 LIG 0.17  HD
ENDBRANCH 48 49
ENDBRANCH 47 48
ENDBRANCH 46 47
ENDBRANCH 45 46
BRANCH 45 58
ATOM     58  N   ARG C  16     -14.508  10.871 -13.865  1.00 40.87 LIG-0.35  N 
ATOM     59  C   PRO C  15     -15.463  10.248 -13.136  1.00 47.02 LIG 0.25  C 
ATOM     60 O    PRO C  15     -15.396   9.064 -12.804  1.00 46.36 LIG-0.27  OA
ATOM     61 H    ARG C  16     -14.581  11.692 -14.110  1.00 40.87 LIG 0.16  HD
BRANCH 59 62
ATOM     62  CA  PRO C  15     -16.655  11.094 -12.682  1.00 46.56 LIG 0.35  C 
ATOM     63  N   PRO C  15     -16.782  12.364 -13.413  1.00 47.38 LIG 0.32  N 
ATOM     64  CD  PRO C  15     -18.033  12.419 -14.192  1.00 49.28 LIG 0.32  C 
ATOM     65  CG  PRO C  15     -18.911  11.426 -13.493  1.00 53.38 LIG 0.04  C 
ATOM     66  CB  PRO C  15     -17.981  10.375 -12.981  1.00 48.49 LIG 0.05  C 
ENDBRANCH 59 62
ENDBRANCH 45 58
ENDBRANCH 43 45
ENDBRANCH 1 38
TORSDOF 18
ENDMDL
MODEL 81
USER: ADFR SOLUTION from run 41
USER: SCORE 21.910784 LL:  -4.671 LR: -18.155 RR:   0.000 FEB: -12.786
USER: RMSD 13.579985
USER: SEED 40
USER: STATUS no improvement in best in 21 clusters for 5 generations
USER: GENES 20
USER: genes 0 Translation |==|  0.44433 0.45263 0.49685
USER: genes 1 Rotation |==|  0.99078 0.42833 0.43891 0.51640
USER: genes 2 Torsion [C]-N--CA-[CB] |==|  0.55834
USER: genes 3 Torsion [N]-CA--C-[N] |==|  0.42794
USER: genes 4 Torsion [N]-CA--C-[O] |==|  0.78112
USER: genes 5 Torsion [C]-N--CA-[C] |==|  0.09584
USER: genes 6 Torsion [N]-CA--C-[N] |==|  0.17628
USER: genes 7 Torsion [N]-CA--C-[O] |==|  0.48931
USER: genes 8 Torsion [N]-CA--CB-[CG] |==|  0.03187
USER: genes 9 Torsion [CA]-CB--CG-[CD1] |==|  0.81345
USER: genes 10 Torsion [N]-CA--CB-[CG] |==|  0.58468
USER: genes 11 Torsion [CA]-CB--CG-[CD2] |==|  0.50846
USER: genes 12 Torsion [O]-C--CA-[CB] |==|  0.27277
USER: genes 13 Torsion [N]-C--CA-[N] |==|  0.34012
USER: genes 14 Torsion [C]-CA--CB-[CG] |==|  0.67876
USER: genes 15 Torsion [CA]-CB--CG-[CD] |==|  0.39495
USER: genes 16 Torsion [CB]-CG--CD-[NE] |==|  0.23401
USER: genes 17 Torsion [CG]-CD--NE-[HE] |==|  0.92121
USER: genes 18 Torsion [C]-CA--N-[C] |==|  0.72957
USER: genes 19 Torsion [N]-C--CA-[CB] |==|  0.50308
ROOT
ATOM      1  C   PRO C  17     -12.615   8.499 -10.426  1.00 34.10 LIG 0.24  C 
ATOM      2 O    PRO C  17     -13.826   8.289 -10.409  1.00 31.91 LIG-0.27  OA
ATOM      3  N   LEU C  18     -11.773   7.878  -9.622  1.00 30.88 LIG-0.35  N 
ATOM      4 H    LEU C  18     -10.934   8.062  -9.590  1.00 30.88 LIG 0.16  HD
ENDROOT
BRANCH 3 5
ATOM      5  CA  LEU C  18     -12.171   6.819  -8.706  1.00 30.78 LIG 0.18  C 
BRANCH 5 6
ATOM      6  C   LEU C  18     -13.533   7.044  -8.071  1.00 33.73 LIG 0.24  C 
ATOM      7  N   PRO C  19     -14.229   5.952  -7.658  1.00 33.17 LIG-0.34  N 
ATOM      8  CA  PRO C  19     -15.530   6.123  -6.977  1.00 33.85 LIG 0.18  C 
ATOM      9  CD  PRO C  19     -13.876   4.519  -7.815  1.00 35.22 LIG 0.13  C 
ATOM     10  CB  PRO C  19     -16.126   4.712  -6.969  1.00 35.69 LIG 0.04  C 
ATOM     11  CG  PRO C  19     -14.979   3.789  -7.114  1.00 39.92 LIG 0.02  C 
ATOM     12 O    LEU C  18     -13.909   8.199  -7.865  1.00 31.40 LIG-0.27  OA
BRANCH 8 13
ATOM     13  C   PRO C  19     -15.437   6.740  -5.573  1.00 39.47 LIG 0.24  C 
ATOM     14  N   PHE C  20     -15.697   8.046  -5.486  1.00 41.20 LIG-0.35  N 
ATOM     15 H    PHE C  20     -15.911   8.519  -6.172  1.00 41.20 LIG 0.16  HD
ATOM     16 O    PRO C  19     -15.107   6.066  -4.603  1.00 36.20 LIG-0.27  OA
BRANCH 14 17
ATOM     17  CA  PHE C  20     -15.654   8.824  -4.248  1.00 43.59 LIG 0.18  C 
BRANCH 17 18
ATOM     18  C   PHE C  20     -14.536   8.278  -3.341  1.00 48.54 LIG 0.24  C 
ATOM     19  N   PRO C  21     -13.240   8.342  -3.746  1.00 46.41 LIG-0.34  N 
ATOM     20  CA  PRO C  21     -12.157   7.868  -2.851  1.00 51.72 LIG 0.17  C 
ATOM     21  CD  PRO C  21     -12.689   8.826  -5.027  1.00 49.19 LIG 0.13  C 
ATOM     22  CB  PRO C  21     -10.876   8.134  -3.658  1.00 52.56 LIG 0.04  C 
ATOM     23  CG  PRO C  21     -11.312   8.236  -5.064  1.00 54.82 LIG 0.02  C 
ATOM     24 O    PHE C  20     -14.852   7.816  -2.242  1.00 48.67 LIG-0.27  OA
BRANCH 20 25
ATOM     25  C   PRO C  21     -12.098   8.594  -1.505  1.00 87.57 LIG 0.22  C 
ATOM     26 O    PRO C  21     -11.287   8.240  -0.652  1.00 58.80 LIG-0.29  OA
ENDBRANCH 20 25
ENDBRANCH 17 18
BRANCH 17 27
ATOM     27  CB  PHE C  20     -17.035   8.743  -3.548  1.00 46.79 LIG 0.07  C 
BRANCH 27 28
ATOM     28  CG  PHE C  20     -18.025   7.722  -4.075  1.00 50.46 LIG-0.06  A 
ATOM     29  CD2 PHE C  20     -18.362   6.601  -3.322  1.00 54.33 LIG 0.01  A 
ATOM     30  CE2 PHE C  20     -19.278   5.659  -3.810  1.00 57.68 LIG 0.00  A 
ATOM     31  CZ  PHE C  20     -19.839   5.824  -5.063  1.00 55.81 LIG 0.00  A 
ATOM     32  CE1 PHE C  20     -19.505   6.921  -5.828  1.00 56.05 LIG 0.00  A 
ATOM     33  CD1 PHE C  20     -18.582   7.857  -5.344  1.00 54.84 LIG 0.01  A 
ENDBRANCH 27 28
ENDBRANCH 17 27
ENDBRANCH 14 17
ENDBRANCH 8 13
ENDBRANCH 5 6
BRANCH 5 34
ATOM     34  CB  LEU C  18     -11.125   6.696  -7.601  1.00 31.46 LIG 0.04  C 
BRANCH 34 35
ATOM     35  CG  LEU C  18     -10.935   5.323  -7.010  1.00 36.62 LIG-0.02  C 
ATOM     36  CD2 LEU C  18      -9.920   5.379  -5.879  1.00 38.91 LIG 0.01  C 
ATOM     37  CD1 LEU C  18     -10.483   4.345  -8.099  1.00 36.98 LIG 0.01  C 
ENDBRANCH 34 35
ENDBRANCH 5 34
ENDBRANCH 3 5
BRANCH 1 38
ATOM     38  CA  PRO C  17     -11.993   9.560 -11.324  1.00 33.71 LIG 0.18  C 
ATOM     39  CB  PRO C  17     -11.719  10.875 -10.587  1.00 36.04 LIG 0.04  C 
ATOM     40  CG  PRO C  17     -12.712  11.881 -11.129  1.00 41.66 LIG 0.02  C 
ATOM     41  CD  PRO C  17     -13.570  11.209 -12.158  1.00 37.74 LIG 0.13  C 
ATOM     42  N   PRO C  17     -12.822   9.969 -12.462  1.00 35.06 LIG-0.34  N 
ATOM     43  C   ARG C  16     -12.789   9.237 -13.591  1.00 37.80 LIG 0.24  C 
ATOM     44 O    ARG C  16     -12.079   8.236 -13.661  1.00 34.25 LIG-0.27  OA
BRANCH 43 45
ATOM     45  CA  ARG C  16     -13.617   9.665 -14.818  1.00 39.10 LIG 0.18  C 
BRANCH 45 46
ATOM     46  CB  ARG C  16     -14.689   8.602 -15.126  1.00 42.59 LIG 0.04  C 
BRANCH 46 47
ATOM     47  CG  ARG C  16     -14.519   7.898 -16.469  1.00 54.51 LIG 0.02  C 
BRANCH 47 48
ATOM     48  CD  ARG C  16     -14.874   6.426 -16.390  1.00 71.70 LIG 0.14  C 
BRANCH 48 49
ATOM     49  NE  ARG C  16     -16.317   6.213 -16.547  1.00 86.72 LIG-0.23  N 
ATOM     50 HE   ARG C  16     -16.842   6.846 -16.296  1.00 86.72 LIG 0.18  HD
ATOM     51  CZ  ARG C  16     -16.872   5.113 -17.048  1.00 98.48 LIG 0.67  C 
ATOM     52  NH2 ARG C  16     -18.192   5.011 -17.141  1.00 86.10 LIG-0.23  N 
ATOM     53  NH1 ARG C  16     -16.113   4.102 -17.452  1.00 81.98 LIG-0.23  N 
ATOM     54 2HH2 ARG C  16     -18.546   4.298 -17.466  1.00 86.10 LIG 0.17  HD
ATOM     55 1HH2 ARG C  16     -18.693   5.658 -16.877  1.00 86.10 LIG 0.17  HD
ATOM     56 1HH1 ARG C  16     -15.257   4.156 -17.391  1.00 81.98 LIG 0.17  HD
ATOM     57 2HH1 ARG C  16     -16.477   3.394 -17.775  1.00 81.98 LIG 0.17  HD
ENDBRANCH 48 49
ENDBRANCH 47 48
ENDBRANCH 46 47
ENDBRANCH 45 46
BRANCH 45 58
ATOM     58  N   ARG C  16     -12.725   9.849 -15.967  1.00 40.87 LIG-0.35  N 
ATOM     59  C   PRO C  15     -12.228  11.039 -16.378  1.00 47.02 LIG 0.25  C 
ATOM     60 O    PRO C  15     -12.507  12.111 -15.839  1.00 46.36 LIG-0.27  OA
ATOM     61 H    ARG C  16     -12.540   9.112 -16.369  1.00 40.87 LIG 0.16  HD
BRANCH 59 62
ATOM     62  CA  PRO C  15     -11.242  11.014 -17.548  1.00 46.56 LIG 0.35  C 
ATOM     63  N   PRO C  15     -11.843  10.560 -18.810  1.00 47.38 LIG 0.32  N 
ATOM     64  CD  PRO C  15     -11.829  11.622 -19.833  1.00 49.28 LIG 0.32  C 
ATOM     65  CG  PRO C  15     -10.725  12.523 -19.369  1.00 53.38 LIG 0.04  C 
ATOM     66  CB  PRO C  15     -10.749  12.433 -17.877  1.00 48.49 LIG 0.05  C 
ENDBRANCH 59 62
ENDBRANCH 45 58
ENDBRANCH 43 45
ENDBRANCH 1 38
TORSDOF 18
ENDMDL
MODEL 82
USER: ADFR SOLUTION from run 117
USER: SCORE 21.244539 LL:  -4.246 LR: -18.152 RR:   0.000 FEB: -12.782
USER: RMSD 3.213114
USER: SEED 116
USER: STATUS no improvement in best in 21 clusters for 5 generations
USER: GENES 20
USER: genes 0 Translation |==|  0.44921 0.43755 0.52397
USER: genes 1 Rotation |==|  0.54743 0.41385 0.57977 0.98370
USER: genes 2 Torsion [C]-N--CA-[CB] |==|  0.45014
USER: genes 3 Torsion [N]-CA--C-[N] |==|  0.46357
USER: genes 4 Torsion [N]-CA--C-[O] |==|  0.06442
USER: genes 5 Torsion [C]-N--CA-[C] |==|  0.15556
USER: genes 6 Torsion [N]-CA--C-[N] |==|  0.13281
USER: genes 7 Torsion [N]-CA--C-[O] |==|  0.22335
USER: genes 8 Torsion [N]-CA--CB-[CG] |==|  0.54540
USER: genes 9 Torsion [CA]-CB--CG-[CD1] |==|  0.49289
USER: genes 10 Torsion [N]-CA--CB-[CG] |==|  0.74100
USER: genes 11 Torsion [CA]-CB--CG-[CD2] |==|  0.37384
USER: genes 12 Torsion [O]-C--CA-[CB] |==|  0.15641
USER: genes 13 Torsion [N]-C--CA-[N] |==|  0.35775
USER: genes 14 Torsion [C]-CA--CB-[CG] |==|  0.40105
USER: genes 15 Torsion [CA]-CB--CG-[CD] |==|  0.33986
USER: genes 16 Torsion [CB]-CG--CD-[NE] |==|  0.81669
USER: genes 17 Torsion [CG]-CD--NE-[HE] |==|  0.76382
USER: genes 18 Torsion [C]-CA--N-[C] |==|  0.83250
USER: genes 19 Torsion [N]-C--CA-[CB] |==|  0.85563
ROOT
ATOM      1  C   PRO C  17     -12.527   8.228  -9.551  1.00 34.10 LIG 0.24  C 
ATOM      2 O    PRO C  17     -13.748   8.361  -9.601  1.00 31.91 LIG-0.27  OA
ATOM      3  N   LEU C  18     -11.693   9.087 -10.106  1.00 30.88 LIG-0.35  N 
ATOM      4 H    LEU C  18     -10.842   8.970 -10.123  1.00 30.88 LIG 0.16  HD
ENDROOT
BRANCH 3 5
ATOM      5  CA  LEU C  18     -12.123  10.321 -10.748  1.00 30.78 LIG 0.18  C 
BRANCH 5 6
ATOM      6  C   LEU C  18     -12.730  10.113 -12.125  1.00 33.73 LIG 0.24  C 
ATOM      7  N   PRO C  19     -13.403  11.151 -12.686  1.00 33.17 LIG-0.34  N 
ATOM      8  CA  PRO C  19     -13.955  11.017 -14.051  1.00 33.85 LIG 0.18  C 
ATOM      9  CD  PRO C  19     -13.709  12.479 -12.097  1.00 35.22 LIG 0.13  C 
ATOM     10  CB  PRO C  19     -14.885  12.228 -14.188  1.00 35.69 LIG 0.04  C 
ATOM     11  CG  PRO C  19     -14.408  13.216 -13.196  1.00 39.92 LIG 0.02  C 
ATOM     12 O    LEU C  18     -12.508   9.055 -12.718  1.00 31.40 LIG-0.27  OA
BRANCH 8 13
ATOM     13  C   PRO C  19     -12.897  10.948 -15.163  1.00 39.47 LIG 0.24  C 
ATOM     14  N   PHE C  20     -13.312  11.267 -16.390  1.00 41.20 LIG-0.35  N 
ATOM     15 H    PHE C  20     -14.123  11.505 -16.555  1.00 41.20 LIG 0.16  HD
ATOM     16 O    PRO C  19     -11.750  10.585 -14.927  1.00 36.20 LIG-0.27  OA
BRANCH 14 17
ATOM     17  CA  PHE C  20     -12.469  11.256 -17.585  1.00 43.59 LIG 0.18  C 
BRANCH 17 18
ATOM     18  C   PHE C  20     -11.838   9.862 -17.752  1.00 48.54 LIG 0.24  C 
ATOM     19  N   PRO C  21     -12.612   8.749 -17.651  1.00 46.41 LIG-0.34  N 
ATOM     20  CA  PRO C  21     -12.017   7.407 -17.866  1.00 51.72 LIG 0.17  C 
ATOM     21  CD  PRO C  21     -14.048   8.642 -17.325  1.00 49.19 LIG 0.13  C 
ATOM     22  CB  PRO C  21     -13.209   6.450 -17.691  1.00 52.56 LIG 0.04  C 
ATOM     23  CG  PRO C  21     -14.212   7.208 -16.919  1.00 54.82 LIG 0.02  C 
ATOM     24 O    PHE C  20     -10.632   9.795 -18.002  1.00 48.67 LIG-0.27  OA
BRANCH 20 25
ATOM     25  C   PRO C  21     -11.384   7.220 -19.245  1.00 87.57 LIG 0.22  C 
ATOM     26 O    PRO C  21     -10.256   7.659 -19.468  1.00 58.80 LIG-0.29  OA
ENDBRANCH 20 25
ENDBRANCH 17 18
BRANCH 17 27
ATOM     27  CB  PHE C  20     -11.381  12.352 -17.449  1.00 46.79 LIG 0.07  C 
BRANCH 27 28
ATOM     28  CG  PHE C  20     -10.649  12.767 -18.710  1.00 50.46 LIG-0.06  A 
ATOM     29  CD2 PHE C  20     -10.876  12.111 -19.916  1.00 54.33 LIG 0.01  A 
ATOM     30  CE2 PHE C  20     -10.199  12.497 -21.081  1.00 57.68 LIG 0.00  A 
ATOM     31  CZ  PHE C  20      -9.274  13.523 -21.036  1.00 55.81 LIG 0.00  A 
ATOM     32  CE1 PHE C  20      -9.026  14.175 -19.846  1.00 56.05 LIG 0.00  A 
ATOM     33  CD1 PHE C  20      -9.695  13.782 -18.681  1.00 54.84 LIG 0.01  A 
ENDBRANCH 27 28
ENDBRANCH 17 27
ENDBRANCH 14 17
ENDBRANCH 8 13
ENDBRANCH 5 6
BRANCH 5 34
ATOM     34  CB  LEU C  18     -10.926  11.261 -10.873  1.00 31.46 LIG 0.04  C 
BRANCH 34 35
ATOM     35  CG  LEU C  18     -10.735  12.252  -9.754  1.00 36.62 LIG-0.02  C 
ATOM     36  CD2 LEU C  18      -9.274  12.283  -9.331  1.00 38.91 LIG 0.01  C 
ATOM     37  CD1 LEU C  18     -11.637  11.884  -8.572  1.00 36.98 LIG 0.01  C 
ENDBRANCH 34 35
ENDBRANCH 5 34
ENDBRANCH 3 5
BRANCH 1 38
ATOM     38  CA  PRO C  17     -11.874   7.011  -8.911  1.00 33.71 LIG 0.18  C 
ATOM     39  CB  PRO C  17     -12.345   5.690  -9.529  1.00 36.04 LIG 0.04  C 
ATOM     40  CG  PRO C  17     -13.203   5.012  -8.482  1.00 41.66 LIG 0.02  C 
ATOM     41  CD  PRO C  17     -13.262   5.885  -7.265  1.00 37.74 LIG 0.13  C 
ATOM     42  N   PRO C  17     -12.154   6.841  -7.481  1.00 35.06 LIG-0.34  N 
ATOM     43  C   ARG C  16     -11.399   7.504  -6.585  1.00 37.80 LIG 0.24  C 
ATOM     44 O    ARG C  16     -10.497   8.248  -6.962  1.00 34.25 LIG-0.27  OA
BRANCH 43 45
ATOM     45  CA  ARG C  16     -11.642   7.314  -5.075  1.00 39.10 LIG 0.18  C 
BRANCH 45 46
ATOM     46  CB  ARG C  16     -12.261   8.590  -4.476  1.00 42.59 LIG 0.04  C 
BRANCH 46 47
ATOM     47  CG  ARG C  16     -13.280   8.344  -3.368  1.00 54.51 LIG 0.02  C 
BRANCH 47 48
ATOM     48  CD  ARG C  16     -12.895   9.035  -2.074  1.00 71.70 LIG 0.14  C 
BRANCH 48 49
ATOM     49  NE  ARG C  16     -11.670   8.463  -1.504  1.00 86.72 LIG-0.23  N 
ATOM     50 HE   ARG C  16     -11.750   7.765  -1.009  1.00 86.72 LIG 0.18  HD
ATOM     51  CZ  ARG C  16     -10.445   8.946  -1.698  1.00 98.48 LIG 0.67  C 
ATOM     52  NH2 ARG C  16      -9.397   8.362  -1.130  1.00 86.10 LIG-0.23  N 
ATOM     53  NH1 ARG C  16     -10.259  10.022  -2.452  1.00 81.98 LIG-0.23  N 
ATOM     54 2HH2 ARG C  16      -8.608   8.678  -1.258  1.00 86.10 LIG 0.17  HD
ATOM     55 1HH2 ARG C  16      -9.508   7.668  -0.635  1.00 86.10 LIG 0.17  HD
ATOM     56 1HH1 ARG C  16     -10.932  10.411  -2.820  1.00 81.98 LIG 0.17  HD
ATOM     57 2HH1 ARG C  16      -9.466  10.329  -2.574  1.00 81.98 LIG 0.17  HD
ENDBRANCH 48 49
ENDBRANCH 47 48
ENDBRANCH 46 47
ENDBRANCH 45 46
BRANCH 45 58
ATOM     58  N   ARG C  16     -10.372   6.994  -4.415  1.00 40.87 LIG-0.35  N 
ATOM     59  C   PRO C  15      -9.603   5.916  -4.695  1.00 47.02 LIG 0.25  C 
ATOM     60 O    PRO C  15      -9.914   5.061  -5.524  1.00 46.36 LIG-0.27  OA
ATOM     61 H    ARG C  16     -10.153   7.571  -3.815  1.00 40.87 LIG 0.16  HD
BRANCH 59 62
ATOM     62  CA  PRO C  15      -8.267   5.805  -3.956  1.00 46.56 LIG 0.35  C 
ATOM     63  N   PRO C  15      -7.375   4.778  -4.514  1.00 47.38 LIG 0.32  N 
ATOM     64  CD  PRO C  15      -6.139   5.370  -5.059  1.00 49.28 LIG 0.32  C 
ATOM     65  CG  PRO C  15      -6.040   6.676  -4.332  1.00 53.38 LIG 0.04  C 
ATOM     66  CB  PRO C  15      -7.454   7.102  -4.101  1.00 48.49 LIG 0.05  C 
ENDBRANCH 59 62
ENDBRANCH 45 58
ENDBRANCH 43 45
ENDBRANCH 1 38
TORSDOF 18
ENDMDL
MODEL 83
USER: ADFR SOLUTION from run 23
USER: SCORE 21.941757 LL:  -4.502 LR: -18.147 RR:   0.000 FEB: -12.777
USER: RMSD 12.760819
USER: SEED 22
USER: STATUS no improvement in best in 12 clusters for 5 generations
USER: GENES 20
USER: genes 0 Translation |==|  0.39261 0.57661 0.46416
USER: genes 1 Rotation |==|  0.92522 0.58737 0.26374 0.57574
USER: genes 2 Torsion [C]-N--CA-[CB] |==|  0.57475
USER: genes 3 Torsion [N]-CA--C-[N] |==|  0.30847
USER: genes 4 Torsion [N]-CA--C-[O] |==|  0.09893
USER: genes 5 Torsion [C]-N--CA-[C] |==|  0.69033
USER: genes 6 Torsion [N]-CA--C-[N] |==|  0.39221
USER: genes 7 Torsion [N]-CA--C-[O] |==|  0.28841
USER: genes 8 Torsion [N]-CA--CB-[CG] |==|  0.89775
USER: genes 9 Torsion [CA]-CB--CG-[CD1] |==|  0.79953
USER: genes 10 Torsion [N]-CA--CB-[CG] |==|  0.18813
USER: genes 11 Torsion [CA]-CB--CG-[CD2] |==|  0.80860
USER: genes 12 Torsion [O]-C--CA-[CB] |==|  0.04813
USER: genes 13 Torsion [N]-C--CA-[N] |==|  0.87298
USER: genes 14 Torsion [C]-CA--CB-[CG] |==|  0.12493
USER: genes 15 Torsion [CA]-CB--CG-[CD] |==|  0.72857
USER: genes 16 Torsion [CB]-CG--CD-[NE] |==|  0.29046
USER: genes 17 Torsion [CG]-CD--NE-[HE] |==|  0.97356
USER: genes 18 Torsion [C]-CA--N-[C] |==|  0.86111
USER: genes 19 Torsion [N]-C--CA-[CB] |==|  0.25297
ROOT
ATOM      1  C   PRO C  17     -13.546  10.731 -11.480  1.00 34.10 LIG 0.24  C 
ATOM      2 O    PRO C  17     -14.056   9.966 -10.664  1.00 31.91 LIG-0.27  OA
ATOM      3  N   LEU C  18     -12.240  10.864 -11.612  1.00 30.88 LIG-0.35  N 
ATOM      4 H    LEU C  18     -11.879  11.438 -12.141  1.00 30.88 LIG 0.16  HD
ENDROOT
BRANCH 3 5
ATOM      5  CA  LEU C  18     -11.273  10.058 -10.881  1.00 30.78 LIG 0.18  C 
BRANCH 5 6
ATOM      6  C   LEU C  18     -11.753   9.633  -9.503  1.00 33.73 LIG 0.24  C 
ATOM      7  N   PRO C  19     -12.023   8.317  -9.303  1.00 33.17 LIG-0.34  N 
ATOM      8  CA  PRO C  19     -12.431   7.846  -7.962  1.00 33.85 LIG 0.18  C 
ATOM      9  CD  PRO C  19     -11.993   7.208 -10.289  1.00 35.22 LIG 0.13  C 
ATOM     10  CB  PRO C  19     -12.944   6.425  -8.216  1.00 35.69 LIG 0.04  C 
ATOM     11  CG  PRO C  19     -12.316   5.990  -9.482  1.00 39.92 LIG 0.02  C 
ATOM     12 O    LEU C  18     -11.783  10.472  -8.600  1.00 31.40 LIG-0.27  OA
BRANCH 8 13
ATOM     13  C   PRO C  19     -11.319   7.899  -6.903  1.00 39.47 LIG 0.24  C 
ATOM     14  N   PHE C  20     -11.340   6.936  -5.979  1.00 41.20 LIG-0.35  N 
ATOM     15 H    PHE C  20     -11.935   6.315  -5.976  1.00 41.20 LIG 0.16  HD
ATOM     16 O    PRO C  19     -10.488   8.801  -6.898  1.00 36.20 LIG-0.27  OA
BRANCH 14 17
ATOM     17  CA  PHE C  20     -10.381   6.813  -4.883  1.00 43.59 LIG 0.18  C 
BRANCH 17 18
ATOM     18  C   PHE C  20      -9.504   5.568  -5.108  1.00 48.54 LIG 0.24  C 
ATOM     19  N   PRO C  21      -8.178   5.606  -4.808  1.00 46.41 LIG-0.34  N 
ATOM     20  CA  PRO C  21      -7.343   4.392  -4.973  1.00 51.72 LIG 0.17  C 
ATOM     21  CD  PRO C  21      -7.368   6.741  -4.325  1.00 49.19 LIG 0.13  C 
ATOM     22  CB  PRO C  21      -5.948   4.846  -4.511  1.00 52.56 LIG 0.04  C 
ATOM     23  CG  PRO C  21      -5.959   6.317  -4.615  1.00 54.82 LIG 0.02  C 
ATOM     24 O    PHE C  20     -10.044   4.545  -5.537  1.00 48.67 LIG-0.27  OA
BRANCH 20 25
ATOM     25  C   PRO C  21      -7.814   3.195  -4.145  1.00 87.57 LIG 0.22  C 
ATOM     26 O    PRO C  21      -8.411   2.268  -4.690  1.00 58.80 LIG-0.29  OA
ENDBRANCH 20 25
ENDBRANCH 17 18
BRANCH 17 27
ATOM     27  CB  PHE C  20     -11.152   6.721  -3.541  1.00 46.79 LIG 0.07  C 
BRANCH 27 28
ATOM     28  CG  PHE C  20     -12.409   7.556  -3.400  1.00 50.46 LIG-0.06  A 
ATOM     29  CD2 PHE C  20     -13.669   6.966  -3.459  1.00 54.33 LIG 0.01  A 
ATOM     30  CE2 PHE C  20     -14.829   7.741  -3.328  1.00 57.68 LIG 0.00  A 
ATOM     31  CZ  PHE C  20     -14.733   9.110  -3.163  1.00 55.81 LIG 0.00  A 
ATOM     32  CE1 PHE C  20     -13.494   9.713  -3.117  1.00 56.05 LIG 0.00  A 
ATOM     33  CD1 PHE C  20     -12.334   8.940  -3.258  1.00 54.84 LIG 0.01  A 
ENDBRANCH 27 28
ENDBRANCH 17 27
ENDBRANCH 14 17
ENDBRANCH 8 13
ENDBRANCH 5 6
BRANCH 5 34
ATOM     34  CB  LEU C  18      -9.976  10.850 -10.730  1.00 31.46 LIG 0.04  C 
BRANCH 34 35
ATOM     35  CG  LEU C  18     -10.035  12.066  -9.842  1.00 36.62 LIG-0.02  C 
ATOM     36  CD2 LEU C  18     -10.888  13.144 -10.492  1.00 38.91 LIG 0.01  C 
ATOM     37  CD1 LEU C  18      -8.618  12.582  -9.571  1.00 36.98 LIG 0.01  C 
ENDBRANCH 34 35
ENDBRANCH 5 34
ENDBRANCH 3 5
BRANCH 1 38
ATOM     38  CA  PRO C  17     -14.385  11.654 -12.354  1.00 33.71 LIG 0.18  C 
ATOM     39  CB  PRO C  17     -15.812  11.834 -11.828  1.00 36.04 LIG 0.04  C 
ATOM     40  CG  PRO C  17     -16.718  11.106 -12.799  1.00 41.66 LIG 0.02  C 
ATOM     41  CD  PRO C  17     -15.878  10.495 -13.880  1.00 37.74 LIG 0.13  C 
ATOM     42  N   PRO C  17     -14.580  11.189 -13.731  1.00 35.06 LIG-0.34  N 
ATOM     43  C   ARG C  16     -13.635  11.457 -14.652  1.00 37.80 LIG 0.24  C 
ATOM     44 O    ARG C  16     -12.620  12.074 -14.337  1.00 34.25 LIG-0.27  OA
BRANCH 43 45
ATOM     45  CA  ARG C  16     -13.832  11.019 -16.115  1.00 39.10 LIG 0.18  C 
BRANCH 45 46
ATOM     46  CB  ARG C  16     -14.833  11.957 -16.816  1.00 42.59 LIG 0.04  C 
BRANCH 46 47
ATOM     47  CG  ARG C  16     -14.607  13.442 -16.550  1.00 54.51 LIG 0.02  C 
BRANCH 47 48
ATOM     48  CD  ARG C  16     -15.510  13.970 -15.453  1.00 71.70 LIG 0.14  C 
BRANCH 48 49
ATOM     49  NE  ARG C  16     -14.774  14.168 -14.200  1.00 86.72 LIG-0.23  N 
ATOM     50 HE   ARG C  16     -13.971  13.863 -14.158  1.00 86.72 LIG 0.18  HD
ATOM     51  CZ  ARG C  16     -15.256  14.787 -13.125  1.00 98.48 LIG 0.67  C 
ATOM     52  NH2 ARG C  16     -14.513  14.909 -12.032  1.00 86.10 LIG-0.23  N 
ATOM     53  NH1 ARG C  16     -16.488  15.280 -13.131  1.00 81.98 LIG-0.23  N 
ATOM     54 2HH2 ARG C  16     -14.829  15.309 -11.340  1.00 86.10 LIG 0.17  HD
ATOM     55 1HH2 ARG C  16     -13.716  14.588 -12.016  1.00 86.10 LIG 0.17  HD
ATOM     56 1HH1 ARG C  16     -16.980  15.201 -13.832  1.00 81.98 LIG 0.17  HD
ATOM     57 2HH1 ARG C  16     -16.794  15.679 -12.434  1.00 81.98 LIG 0.17  HD
ENDBRANCH 48 49
ENDBRANCH 47 48
ENDBRANCH 46 47
ENDBRANCH 45 46
BRANCH 45 58
ATOM     58  N   ARG C  16     -14.311   9.633 -16.148  1.00 40.87 LIG-0.35  N 
ATOM     59  C   PRO C  15     -13.746   8.602 -15.478  1.00 47.02 LIG 0.25  C 
ATOM     60 O    PRO C  15     -12.734   8.719 -14.786  1.00 46.36 LIG-0.27  OA
ATOM     61 H    ARG C  16     -15.004   9.531 -16.647  1.00 40.87 LIG 0.16  HD
BRANCH 59 62
ATOM     62  CA  PRO C  15     -14.447   7.245 -15.571  1.00 46.56 LIG 0.35  C 
ATOM     63  N   PRO C  15     -15.883   7.347 -15.870  1.00 47.38 LIG 0.32  N 
ATOM     64  CD  PRO C  15     -16.212   6.735 -17.171  1.00 49.28 LIG 0.32  C 
ATOM     65  CG  PRO C  15     -15.080   5.780 -17.392  1.00 53.38 LIG 0.04  C 
ATOM     66  CB  PRO C  15     -13.894   6.425 -16.749  1.00 48.49 LIG 0.05  C 
ENDBRANCH 59 62
ENDBRANCH 45 58
ENDBRANCH 43 45
ENDBRANCH 1 38
TORSDOF 18
ENDMDL
MODEL 84
USER: ADFR SOLUTION from run 89
USER: SCORE 22.038416 LL:  -4.509 LR: -18.133 RR:   0.000 FEB: -12.764
USER: RMSD 13.317394
USER: SEED 88
USER: STATUS no improvement in best in 4 clusters for 5 generations
USER: GENES 20
USER: genes 0 Translation |==|  0.44285 0.44384 0.49727
USER: genes 1 Rotation |==|  0.01086 0.59164 0.54483 0.51838
USER: genes 2 Torsion [C]-N--CA-[CB] |==|  0.53651
USER: genes 3 Torsion [N]-CA--C-[N] |==|  0.46407
USER: genes 4 Torsion [N]-CA--C-[O] |==|  0.77988
USER: genes 5 Torsion [C]-N--CA-[C] |==|  0.12272
USER: genes 6 Torsion [N]-CA--C-[N] |==|  0.16111
USER: genes 7 Torsion [N]-CA--C-[O] |==|  0.62189
USER: genes 8 Torsion [N]-CA--CB-[CG] |==|  0.99996
USER: genes 9 Torsion [CA]-CB--CG-[CD1] |==|  0.86409
USER: genes 10 Torsion [N]-CA--CB-[CG] |==|  0.72595
USER: genes 11 Torsion [CA]-CB--CG-[CD2] |==|  0.87756
USER: genes 12 Torsion [O]-C--CA-[CB] |==|  0.29567
USER: genes 13 Torsion [N]-C--CA-[N] |==|  0.87448
USER: genes 14 Torsion [C]-CA--CB-[CG] |==|  0.22278
USER: genes 15 Torsion [CA]-CB--CG-[CD] |==|  0.23791
USER: genes 16 Torsion [CB]-CG--CD-[NE] |==|  0.15673
USER: genes 17 Torsion [CG]-CD--NE-[HE] |==|  0.16865
USER: genes 18 Torsion [C]-CA--N-[C] |==|  0.84330
USER: genes 19 Torsion [N]-C--CA-[CB] |==|  0.38357
ROOT
ATOM      1  C   PRO C  17     -12.642   8.341 -10.412  1.00 34.10 LIG 0.24  C 
ATOM      2 O    PRO C  17     -13.863   8.251 -10.518  1.00 31.91 LIG-0.27  OA
ATOM      3  N   LEU C  18     -11.934   7.553  -9.624  1.00 30.88 LIG-0.35  N 
ATOM      4 H    LEU C  18     -11.089   7.648  -9.504  1.00 30.88 LIG 0.16  HD
ENDROOT
BRANCH 3 5
ATOM      5  CA  LEU C  18     -12.507   6.442  -8.878  1.00 30.78 LIG 0.18  C 
BRANCH 5 6
ATOM      6  C   LEU C  18     -13.808   6.788  -8.173  1.00 33.73 LIG 0.24  C 
ATOM      7  N   PRO C  19     -14.553   5.765  -7.679  1.00 33.17 LIG-0.34  N 
ATOM      8  CA  PRO C  19     -15.794   6.055  -6.929  1.00 33.85 LIG 0.18  C 
ATOM      9  CD  PRO C  19     -14.314   4.305  -7.801  1.00 35.22 LIG 0.13  C 
ATOM     10  CB  PRO C  19     -16.488   4.693  -6.832  1.00 35.69 LIG 0.04  C 
ATOM     11  CG  PRO C  19     -15.421   3.684  -7.009  1.00 39.92 LIG 0.02  C 
ATOM     12 O    LEU C  18     -14.087   7.974  -7.990  1.00 31.40 LIG-0.27  OA
BRANCH 8 13
ATOM     13  C   PRO C  19     -15.571   6.711  -5.558  1.00 39.47 LIG 0.24  C 
ATOM     14  N   PHE C  20     -15.722   8.036  -5.508  1.00 41.20 LIG-0.35  N 
ATOM     15 H    PHE C  20     -15.938   8.501  -6.199  1.00 41.20 LIG 0.16  HD
ATOM     16 O    PRO C  19     -15.239   6.046  -4.582  1.00 36.20 LIG-0.27  OA
BRANCH 14 17
ATOM     17  CA  PHE C  20     -15.546   8.850  -4.306  1.00 43.59 LIG 0.18  C 
BRANCH 17 18
ATOM     18  C   PHE C  20     -14.275   8.398  -3.565  1.00 48.54 LIG 0.24  C 
ATOM     19  N   PRO C  21     -13.073   8.423  -4.199  1.00 46.41 LIG-0.34  N 
ATOM     20  CA  PRO C  21     -11.839   8.040  -3.471  1.00 51.72 LIG 0.17  C 
ATOM     21  CD  PRO C  21     -12.768   8.778  -5.599  1.00 49.19 LIG 0.13  C 
ATOM     22  CB  PRO C  21     -10.727   8.227  -4.517  1.00 52.56 LIG 0.04  C 
ATOM     23  CG  PRO C  21     -11.408   8.189  -5.825  1.00 54.82 LIG 0.02  C 
ATOM     24 O    PHE C  20     -14.382   8.046  -2.388  1.00 48.67 LIG-0.27  OA
BRANCH 20 25
ATOM     25  C   PRO C  21     -11.555   8.896  -2.235  1.00 87.57 LIG 0.22  C 
ATOM     26 O    PRO C  21     -10.414   9.301  -2.017  1.00 58.80 LIG-0.29  OA
ENDBRANCH 20 25
ENDBRANCH 17 18
BRANCH 17 27
ATOM     27  CB  PHE C  20     -16.801   8.708  -3.407  1.00 46.79 LIG 0.07  C 
BRANCH 27 28
ATOM     28  CG  PHE C  20     -17.916   7.808  -3.903  1.00 50.46 LIG-0.06  A 
ATOM     29  CD2 PHE C  20     -18.443   6.810  -3.088  1.00 54.33 LIG 0.01  A 
ATOM     30  CE2 PHE C  20     -19.475   5.980  -3.548  1.00 57.68 LIG 0.00  A 
ATOM     31  CZ  PHE C  20     -19.962   6.128  -4.833  1.00 55.81 LIG 0.00  A 
ATOM     32  CE1 PHE C  20     -19.441   7.102  -5.658  1.00 56.05 LIG 0.00  A 
ATOM     33  CD1 PHE C  20     -18.404   7.925  -5.202  1.00 54.84 LIG 0.01  A 
ENDBRANCH 27 28
ENDBRANCH 17 27
ENDBRANCH 14 17
ENDBRANCH 8 13
ENDBRANCH 5 6
BRANCH 5 34
ATOM     34  CB  LEU C  18     -11.494   5.965  -7.840  1.00 31.46 LIG 0.04  C 
BRANCH 34 35
ATOM     35  CG  LEU C  18     -10.676   4.755  -8.212  1.00 36.62 LIG-0.02  C 
ATOM     36  CD2 LEU C  18     -11.568   3.697  -8.842  1.00 38.91 LIG 0.01  C 
ATOM     37  CD1 LEU C  18      -9.969   4.203  -6.970  1.00 36.98 LIG 0.01  C 
ENDBRANCH 34 35
ENDBRANCH 5 34
ENDBRANCH 3 5
BRANCH 1 38
ATOM     38  CA  PRO C  17     -11.849   9.429 -11.123  1.00 33.71 LIG 0.18  C 
ATOM     39  CB  PRO C  17     -11.354  10.522 -10.169  1.00 36.04 LIG 0.04  C 
ATOM     40  CG  PRO C  17     -12.162  11.762 -10.488  1.00 41.66 LIG 0.02  C 
ATOM     41  CD  PRO C  17     -13.123  11.443 -11.594  1.00 37.74 LIG 0.13  C 
ATOM     42  N   PRO C  17     -12.598  10.173 -12.141  1.00 35.06 LIG-0.34  N 
ATOM     43  C   ARG C  16     -12.690   9.666 -13.385  1.00 37.80 LIG 0.24  C 
ATOM     44 O    ARG C  16     -12.161   8.591 -13.658  1.00 34.25 LIG-0.27  OA
BRANCH 43 45
ATOM     45  CA  ARG C  16     -13.434  10.444 -14.486  1.00 39.10 LIG 0.18  C 
BRANCH 45 46
ATOM     46  CB  ARG C  16     -12.557  11.604 -14.996  1.00 42.59 LIG 0.04  C 
BRANCH 46 47
ATOM     47  CG  ARG C  16     -11.485  11.197 -16.002  1.00 54.51 LIG 0.02  C 
BRANCH 47 48
ATOM     48  CD  ARG C  16     -12.017  11.163 -17.421  1.00 71.70 LIG 0.14  C 
BRANCH 48 49
ATOM     49  NE  ARG C  16     -12.597  12.454 -17.808  1.00 86.72 LIG-0.23  N 
ATOM     50 HE   ARG C  16     -12.079  13.141 -17.803  1.00 86.72 LIG 0.18  HD
ATOM     51  CZ  ARG C  16     -13.866  12.640 -18.166  1.00 98.48 LIG 0.67  C 
ATOM     52  NH2 ARG C  16     -14.299  13.852 -18.490  1.00 86.10 LIG-0.23  N 
ATOM     53  NH1 ARG C  16     -14.712  11.619 -18.192  1.00 81.98 LIG-0.23  N 
ATOM     54 2HH2 ARG C  16     -15.120  13.967 -18.721  1.00 86.10 LIG 0.17  HD
ATOM     55 1HH2 ARG C  16     -13.760  14.521 -18.471  1.00 86.10 LIG 0.17  HD
ATOM     56 1HH1 ARG C  16     -14.443  10.831 -17.978  1.00 81.98 LIG 0.17  HD
ATOM     57 2HH1 ARG C  16     -15.530  11.745 -18.424  1.00 81.98 LIG 0.17  HD
ENDBRANCH 48 49
ENDBRANCH 47 48
ENDBRANCH 46 47
ENDBRANCH 45 46
BRANCH 45 58
ATOM     58  N   ARG C  16     -14.702  10.951 -13.952  1.00 40.87 LIG-0.35  N 
ATOM     59  C   PRO C  15     -15.667  10.186 -13.391  1.00 47.02 LIG 0.25  C 
ATOM     60 O    PRO C  15     -15.591   8.960 -13.300  1.00 46.36 LIG-0.27  OA
ATOM     61 H    ARG C  16     -14.781  11.804 -14.030  1.00 40.87 LIG 0.16  HD
BRANCH 59 62
ATOM     62  CA  PRO C  15     -16.883  10.913 -12.812  1.00 46.56 LIG 0.35  C 
ATOM     63  N   PRO C  15     -17.090  12.252 -13.383  1.00 47.38 LIG 0.32  N 
ATOM     64  CD  PRO C  15     -18.364  12.337 -14.121  1.00 49.28 LIG 0.32  C 
ATOM     65  CG  PRO C  15     -19.175  11.227 -13.525  1.00 53.38 LIG 0.04  C 
ATOM     66  CB  PRO C  15     -18.182  10.170 -13.163  1.00 48.49 LIG 0.05  C 
ENDBRANCH 59 62
ENDBRANCH 45 58
ENDBRANCH 43 45
ENDBRANCH 1 38
TORSDOF 18
ENDMDL
MODEL 85
USER: ADFR SOLUTION from run 73
USER: SCORE 21.691807 LL:  -4.182 LR: -18.089 RR:   0.000 FEB: -12.719
USER: RMSD 5.789047
USER: SEED 72
USER: STATUS no improvement in best in 21 clusters for 5 generations
USER: GENES 20
USER: genes 0 Translation |==|  0.44350 0.65480 0.46045
USER: genes 1 Rotation |==|  0.33001 0.72712 0.09712 0.58490
USER: genes 2 Torsion [C]-N--CA-[CB] |==|  0.77519
USER: genes 3 Torsion [N]-CA--C-[N] |==|  0.28958
USER: genes 4 Torsion [N]-CA--C-[O] |==|  0.78384
USER: genes 5 Torsion [C]-N--CA-[C] |==|  0.74582
USER: genes 6 Torsion [N]-CA--C-[N] |==|  0.44083
USER: genes 7 Torsion [N]-CA--C-[O] |==|  0.24833
USER: genes 8 Torsion [N]-CA--CB-[CG] |==|  0.55130
USER: genes 9 Torsion [CA]-CB--CG-[CD1] |==|  0.16417
USER: genes 10 Torsion [N]-CA--CB-[CG] |==|  0.81071
USER: genes 11 Torsion [CA]-CB--CG-[CD2] |==|  0.58730
USER: genes 12 Torsion [O]-C--CA-[CB] |==|  0.12937
USER: genes 13 Torsion [N]-C--CA-[N] |==|  0.32222
USER: genes 14 Torsion [C]-CA--CB-[CG] |==|  0.70072
USER: genes 15 Torsion [CA]-CB--CG-[CD] |==|  0.74912
USER: genes 16 Torsion [CB]-CG--CD-[NE] |==|  0.78676
USER: genes 17 Torsion [CG]-CD--NE-[HE] |==|  0.29535
USER: genes 18 Torsion [C]-CA--N-[C] |==|  0.62515
USER: genes 19 Torsion [N]-C--CA-[CB] |==|  0.86962
ROOT
ATOM      1  C   PRO C  17     -12.630  12.138 -11.599  1.00 34.10 LIG 0.24  C 
ATOM      2 O    PRO C  17     -11.684  12.298 -12.368  1.00 31.91 LIG-0.27  OA
ATOM      3  N   LEU C  18     -13.879  12.049 -12.015  1.00 30.88 LIG-0.35  N 
ATOM      4 H    LEU C  18     -14.548  11.994 -11.479  1.00 30.88 LIG 0.16  HD
ENDROOT
BRANCH 3 5
ATOM      5  CA  LEU C  18     -14.257  12.033 -13.421  1.00 30.78 LIG 0.18  C 
BRANCH 5 6
ATOM      6  C   LEU C  18     -13.333  11.199 -14.291  1.00 33.73 LIG 0.24  C 
ATOM      7  N   PRO C  19     -13.774   9.981 -14.703  1.00 33.17 LIG-0.34  N 
ATOM      8  CA  PRO C  19     -12.937   9.161 -15.603  1.00 33.85 LIG 0.18  C 
ATOM      9  CD  PRO C  19     -15.040   9.291 -14.349  1.00 35.22 LIG 0.13  C 
ATOM     10  CB  PRO C  19     -13.607   7.784 -15.570  1.00 35.69 LIG 0.04  C 
ATOM     11  CG  PRO C  19     -15.003   8.025 -15.146  1.00 39.92 LIG 0.02  C 
ATOM     12 O    LEU C  18     -12.268  11.692 -14.670  1.00 31.40 LIG-0.27  OA
BRANCH 8 13
ATOM     13  C   PRO C  19     -12.794   9.721 -17.027  1.00 39.47 LIG 0.24  C 
ATOM     14  N   PHE C  20     -11.662  10.376 -17.290  1.00 41.20 LIG-0.35  N 
ATOM     15 H    PHE C  20     -11.041  10.477 -16.703  1.00 41.20 LIG 0.16  HD
ATOM     16 O    PRO C  19     -13.693   9.596 -17.852  1.00 36.20 LIG-0.27  OA
BRANCH 14 17
ATOM     17  CA  PHE C  20     -11.335  10.992 -18.576  1.00 43.59 LIG 0.18  C 
BRANCH 17 18
ATOM     18  C   PHE C  20     -10.573   9.979 -19.449  1.00 48.54 LIG 0.24  C 
ATOM     19  N   PRO C  21     -10.538  10.135 -20.799  1.00 46.41 LIG-0.34  N 
ATOM     20  CA  PRO C  21      -9.759   9.192 -21.637  1.00 51.72 LIG 0.17  C 
ATOM     21  CD  PRO C  21     -11.208  11.151 -21.634  1.00 49.19 LIG 0.13  C 
ATOM     22  CB  PRO C  21      -9.958   9.726 -23.065  1.00 52.56 LIG 0.04  C 
ATOM     23  CG  PRO C  21     -11.178  10.554 -23.009  1.00 54.82 LIG 0.02  C 
ATOM     24 O    PHE C  20      -9.983   9.054 -18.886  1.00 48.67 LIG-0.27  OA
BRANCH 20 25
ATOM     25  C   PRO C  21      -8.269   9.138 -21.293  1.00 87.57 LIG 0.22  C 
ATOM     26 O    PRO C  21      -7.863   8.344 -20.446  1.00 58.80 LIG-0.29  OA
ENDBRANCH 20 25
ENDBRANCH 17 18
BRANCH 17 27
ATOM     27  CB  PHE C  20     -10.491  12.268 -18.328  1.00 46.79 LIG 0.07  C 
BRANCH 27 28
ATOM     28  CG  PHE C  20     -10.408  13.279 -19.455  1.00 50.46 LIG-0.06  A 
ATOM     29  CD2 PHE C  20      -9.176  13.670 -19.973  1.00 54.33 LIG 0.01  A 
ATOM     30  CE2 PHE C  20      -9.102  14.604 -21.015  1.00 57.68 LIG 0.00  A 
ATOM     31  CZ  PHE C  20     -10.257  15.167 -21.524  1.00 55.81 LIG 0.00  A 
ATOM     32  CE1 PHE C  20     -11.484  14.801 -21.014  1.00 56.05 LIG 0.00  A 
ATOM     33  CD1 PHE C  20     -11.558  13.876 -19.965  1.00 54.84 LIG 0.01  A 
ENDBRANCH 27 28
ENDBRANCH 17 27
ENDBRANCH 14 17
ENDBRANCH 8 13
ENDBRANCH 5 6
BRANCH 5 34
ATOM     34  CB  LEU C  18     -14.274  13.465 -13.949  1.00 31.46 LIG 0.04  C 
BRANCH 34 35
ATOM     35  CG  LEU C  18     -15.351  14.366 -13.403  1.00 36.62 LIG-0.02  C 
ATOM     36  CD2 LEU C  18     -15.761  15.384 -14.457  1.00 38.91 LIG 0.01  C 
ATOM     37  CD1 LEU C  18     -14.853  15.065 -12.135  1.00 36.98 LIG 0.01  C 
ENDBRANCH 34 35
ENDBRANCH 5 34
ENDBRANCH 3 5
BRANCH 1 38
ATOM     38  CA  PRO C  17     -12.445  12.114 -10.088  1.00 33.71 LIG 0.18  C 
ATOM     39  CB  PRO C  17     -11.562  13.258  -9.579  1.00 36.04 LIG 0.04  C 
ATOM     40  CG  PRO C  17     -10.263  12.624  -9.129  1.00 41.66 LIG 0.02  C 
ATOM     41  CD  PRO C  17     -10.341  11.144  -9.357  1.00 37.74 LIG 0.13  C 
ATOM     42  N   PRO C  17     -11.787  10.912  -9.567  1.00 35.06 LIG-0.34  N 
ATOM     43  C   ARG C  16     -12.528   9.814  -9.323  1.00 37.80 LIG 0.24  C 
ATOM     44 O    ARG C  16     -13.737   9.820  -9.543  1.00 34.25 LIG-0.27  OA
BRANCH 43 45
ATOM     45  CA  ARG C  16     -11.872   8.550  -8.735  1.00 39.10 LIG 0.18  C 
BRANCH 45 46
ATOM     46  CB  ARG C  16     -12.102   7.352  -9.676  1.00 42.59 LIG 0.04  C 
BRANCH 46 47
ATOM     47  CG  ARG C  16     -13.102   6.322  -9.162  1.00 54.51 LIG 0.02  C 
BRANCH 47 48
ATOM     48  CD  ARG C  16     -12.434   5.236  -8.342  1.00 71.70 LIG 0.14  C 
BRANCH 48 49
ATOM     49  NE  ARG C  16     -11.743   4.266  -9.199  1.00 86.72 LIG-0.23  N 
ATOM     50 HE   ARG C  16     -10.884   4.296  -9.221  1.00 86.72 LIG 0.18  HD
ATOM     51  CZ  ARG C  16     -12.348   3.343  -9.943  1.00 98.48 LIG 0.67  C 
ATOM     52  NH2 ARG C  16     -11.634   2.514 -10.694  1.00 86.10 LIG-0.23  N 
ATOM     53  NH1 ARG C  16     -13.671   3.248  -9.950  1.00 81.98 LIG-0.23  N 
ATOM     54 2HH2 ARG C  16     -12.029   1.920 -11.174  1.00 86.10 LIG 0.17  HD
ATOM     55 1HH2 ARG C  16     -10.776   2.571 -10.701  1.00 86.10 LIG 0.17  HD
ATOM     56 1HH1 ARG C  16     -14.144   3.785  -9.471  1.00 81.98 LIG 0.17  HD
ATOM     57 2HH1 ARG C  16     -14.057   2.650 -10.432  1.00 81.98 LIG 0.17  HD
ENDBRANCH 48 49
ENDBRANCH 47 48
ENDBRANCH 46 47
ENDBRANCH 45 46
BRANCH 45 58
ATOM     58  N   ARG C  16     -12.435   8.282  -7.408  1.00 40.87 LIG-0.35  N 
ATOM     59  C   PRO C  15     -11.711   7.951  -6.313  1.00 47.02 LIG 0.25  C 
ATOM     60 O    PRO C  15     -10.488   7.808  -6.328  1.00 46.36 LIG-0.27  OA
ATOM     61 H    ARG C  16     -13.291   8.355  -7.387  1.00 40.87 LIG 0.16  HD
BRANCH 59 62
ATOM     62  CA  PRO C  15     -12.475   7.796  -4.996  1.00 46.56 LIG 0.35  C 
ATOM     63  N   PRO C  15     -11.609   7.838  -3.809  1.00 47.38 LIG 0.32  N 
ATOM     64  CD  PRO C  15     -11.917   8.998  -2.952  1.00 49.28 LIG 0.32  C 
ATOM     65  CG  PRO C  15     -13.326   9.335  -3.332  1.00 53.38 LIG 0.04  C 
ATOM     66  CB  PRO C  15     -13.436   8.977  -4.779  1.00 48.49 LIG 0.05  C 
ENDBRANCH 59 62
ENDBRANCH 45 58
ENDBRANCH 43 45
ENDBRANCH 1 38
TORSDOF 18
ENDMDL
MODEL 86
USER: ADFR SOLUTION from run 161
USER: SCORE 20.599248 LL:  -4.343 LR: -18.086 RR:   0.000 FEB: -12.717
USER: RMSD 12.550388
USER: SEED 160
USER: STATUS no improvement in best in 4 clusters for 5 generations
USER: GENES 20
USER: genes 0 Translation |==|  0.37304 0.61273 0.44918
USER: genes 1 Rotation |==|  0.91470 0.49176 0.27196 0.66110
USER: genes 2 Torsion [C]-N--CA-[CB] |==|  0.85694
USER: genes 3 Torsion [N]-CA--C-[N] |==|  0.54527
USER: genes 4 Torsion [N]-CA--C-[O] |==|  0.99452
USER: genes 5 Torsion [C]-N--CA-[C] |==|  0.82415
USER: genes 6 Torsion [N]-CA--C-[N] |==|  0.87944
USER: genes 7 Torsion [N]-CA--C-[O] |==|  0.59880
USER: genes 8 Torsion [N]-CA--CB-[CG] |==|  0.97307
USER: genes 9 Torsion [CA]-CB--CG-[CD1] |==|  0.31679
USER: genes 10 Torsion [N]-CA--CB-[CG] |==|  0.74402
USER: genes 11 Torsion [CA]-CB--CG-[CD2] |==|  0.24233
USER: genes 12 Torsion [O]-C--CA-[CB] |==|  0.00517
USER: genes 13 Torsion [N]-C--CA-[N] |==|  0.46058
USER: genes 14 Torsion [C]-CA--CB-[CG] |==|  0.39992
USER: genes 15 Torsion [CA]-CB--CG-[CD] |==|  0.75714
USER: genes 16 Torsion [CB]-CG--CD-[NE] |==|  0.48890
USER: genes 17 Torsion [CG]-CD--NE-[HE] |==|  0.84134
USER: genes 18 Torsion [C]-CA--N-[C] |==|  0.78367
USER: genes 19 Torsion [N]-C--CA-[CB] |==|  0.66061
ROOT
ATOM      1  C   PRO C  17     -13.898  11.381 -11.963  1.00 34.10 LIG 0.24  C 
ATOM      2 O    PRO C  17     -14.603  11.150 -10.983  1.00 31.91 LIG-0.27  OA
ATOM      3  N   LEU C  18     -12.582  11.284 -11.934  1.00 30.88 LIG-0.35  N 
ATOM      4 H    LEU C  18     -12.082  11.498 -12.599  1.00 30.88 LIG 0.16  HD
ENDROOT
BRANCH 3 5
ATOM      5  CA  LEU C  18     -11.840  10.804 -10.777  1.00 30.78 LIG 0.18  C 
BRANCH 5 6
ATOM      6  C   LEU C  18     -12.014   9.318 -10.514  1.00 33.73 LIG 0.24  C 
ATOM      7  N   PRO C  19     -11.651   8.842  -9.294  1.00 33.17 LIG-0.34  N 
ATOM      8  CA  PRO C  19     -11.862   7.415  -8.970  1.00 33.85 LIG 0.18  C 
ATOM      9  CD  PRO C  19     -11.015   9.574  -8.170  1.00 35.22 LIG 0.13  C 
ATOM     10  CB  PRO C  19     -11.056   7.212  -7.683  1.00 35.69 LIG 0.04  C 
ATOM     11  CG  PRO C  19     -10.915   8.555  -7.079  1.00 39.92 LIG 0.02  C 
ATOM     12 O    LEU C  18     -12.564   8.624 -11.372  1.00 31.40 LIG-0.27  OA
BRANCH 8 13
ATOM     13  C   PRO C  19     -13.335   7.007  -8.822  1.00 39.47 LIG 0.24  C 
ATOM     14  N   PHE C  20     -13.567   5.710  -8.607  1.00 41.20 LIG-0.35  N 
ATOM     15 H    PHE C  20     -12.932   5.133  -8.548  1.00 41.20 LIG 0.16  HD
ATOM     16 O    PRO C  19     -14.238   7.830  -8.932  1.00 36.20 LIG-0.27  OA
BRANCH 14 17
ATOM     17  CA  PHE C  20     -14.894   5.116  -8.449  1.00 43.59 LIG 0.18  C 
BRANCH 17 18
ATOM     18  C   PHE C  20     -15.567   5.696  -7.192  1.00 48.54 LIG 0.24  C 
ATOM     19  N   PRO C  21     -14.854   5.839  -6.043  1.00 46.41 LIG-0.34  N 
ATOM     20  CA  PRO C  21     -15.485   6.448  -4.848  1.00 51.72 LIG 0.17  C 
ATOM     21  CD  PRO C  21     -13.459   5.448  -5.761  1.00 49.19 LIG 0.13  C 
ATOM     22  CB  PRO C  21     -14.357   6.448  -3.802  1.00 52.56 LIG 0.04  C 
ATOM     23  CG  PRO C  21     -13.394   5.429  -4.263  1.00 54.82 LIG 0.02  C 
ATOM     24 O    PHE C  20     -16.747   6.045  -7.272  1.00 48.67 LIG-0.27  OA
BRANCH 20 25
ATOM     25  C   PRO C  21     -16.001   7.871  -5.072  1.00 87.57 LIG 0.22  C 
ATOM     26 O    PRO C  21     -15.931   8.699  -4.165  1.00 58.80 LIG-0.29  OA
ENDBRANCH 20 25
ENDBRANCH 17 18
BRANCH 17 27
ATOM     27  CB  PHE C  20     -14.753   3.575  -8.350  1.00 46.79 LIG 0.07  C 
BRANCH 27 28
ATOM     28  CG  PHE C  20     -13.392   2.979  -8.654  1.00 50.46 LIG-0.06  A 
ATOM     29  CD2 PHE C  20     -12.873   3.008  -9.945  1.00 54.33 LIG 0.01  A 
ATOM     30  CE2 PHE C  20     -11.614   2.457 -10.223  1.00 57.68 LIG 0.00  A 
ATOM     31  CZ  PHE C  20     -10.885   1.853  -9.216  1.00 55.81 LIG 0.00  A 
ATOM     32  CE1 PHE C  20     -11.391   1.803  -7.934  1.00 56.05 LIG 0.00  A 
ATOM     33  CD1 PHE C  20     -12.652   2.345  -7.659  1.00 54.84 LIG 0.01  A 
ENDBRANCH 27 28
ENDBRANCH 17 27
ENDBRANCH 14 17
ENDBRANCH 8 13
ENDBRANCH 5 6
BRANCH 5 34
ATOM     34  CB  LEU C  18     -12.287  11.581  -9.541  1.00 31.46 LIG 0.04  C 
BRANCH 34 35
ATOM     35  CG  LEU C  18     -11.492  12.816  -9.204  1.00 36.62 LIG-0.02  C 
ATOM     36  CD2 LEU C  18     -12.054  14.016  -9.951  1.00 38.91 LIG 0.01  C 
ATOM     37  CD1 LEU C  18     -10.017  12.599  -9.553  1.00 36.98 LIG 0.01  C 
ENDBRANCH 34 35
ENDBRANCH 5 34
ENDBRANCH 3 5
BRANCH 1 38
ATOM     38  CA  PRO C  17     -14.483  11.882 -13.277  1.00 33.71 LIG 0.18  C 
ATOM     39  CB  PRO C  17     -15.998  12.097 -13.208  1.00 36.04 LIG 0.04  C 
ATOM     40  CG  PRO C  17     -16.621  11.009 -14.058  1.00 41.66 LIG 0.02  C 
ATOM     41  CD  PRO C  17     -15.529  10.152 -14.625  1.00 37.74 LIG 0.13  C 
ATOM     42  N   PRO C  17     -14.315  10.971 -14.414  1.00 35.06 LIG-0.34  N 
ATOM     43  C   ARG C  16     -13.163  11.002 -15.111  1.00 37.80 LIG 0.24  C 
ATOM     44 O    ARG C  16     -12.265  11.777 -14.792  1.00 34.25 LIG-0.27  OA
BRANCH 43 45
ATOM     45  CA  ARG C  16     -12.974  10.087 -16.336  1.00 39.10 LIG 0.18  C 
BRANCH 45 46
ATOM     46  CB  ARG C  16     -12.789   8.627 -15.879  1.00 42.59 LIG 0.04  C 
BRANCH 46 47
ATOM     47  CG  ARG C  16     -13.421   7.588 -16.799  1.00 54.51 LIG 0.02  C 
BRANCH 47 48
ATOM     48  CD  ARG C  16     -14.872   7.322 -16.448  1.00 71.70 LIG 0.14  C 
BRANCH 48 49
ATOM     49  NE  ARG C  16     -15.492   6.392 -17.398  1.00 86.72 LIG-0.23  N 
ATOM     50 HE   ARG C  16     -15.482   6.607 -18.231  1.00 86.72 LIG 0.18  HD
ATOM     51  CZ  ARG C  16     -16.068   5.238 -17.066  1.00 98.48 LIG 0.67  C 
ATOM     52  NH2 ARG C  16     -16.611   4.467 -18.000  1.00 86.10 LIG-0.23  N 
ATOM     53  NH1 ARG C  16     -16.113   4.852 -15.798  1.00 81.98 LIG-0.23  N 
ATOM     54 2HH2 ARG C  16     -16.982   3.723 -17.781  1.00 86.10 LIG 0.17  HD
ATOM     55 1HH2 ARG C  16     -16.591   4.712 -18.824  1.00 86.10 LIG 0.17  HD
ATOM     56 1HH1 ARG C  16     -15.770   5.347 -15.184  1.00 81.98 LIG 0.17  HD
ATOM     57 2HH1 ARG C  16     -16.486   4.106 -15.589  1.00 81.98 LIG 0.17  HD
ENDBRANCH 48 49
ENDBRANCH 47 48
ENDBRANCH 46 47
ENDBRANCH 45 46
BRANCH 45 58
ATOM     58  N   ARG C  16     -11.811  10.539 -17.107  1.00 40.87 LIG-0.35  N 
ATOM     59  C   PRO C  15     -11.804  11.601 -17.946  1.00 47.02 LIG 0.25  C 
ATOM     60 O    PRO C  15     -12.800  12.287 -18.177  1.00 46.36 LIG-0.27  OA
ATOM     61 H    ARG C  16     -11.113  10.055 -16.974  1.00 40.87 LIG 0.16  HD
BRANCH 59 62
ATOM     62  CA  PRO C  15     -10.466  11.967 -18.593  1.00 46.56 LIG 0.35  C 
ATOM     63  N   PRO C  15     -10.505  11.956 -20.062  1.00 47.38 LIG 0.32  N 
ATOM     64  CD  PRO C  15     -10.259  13.298 -20.623  1.00 49.28 LIG 0.32  C 
ATOM     65  CG  PRO C  15      -9.524  13.996 -19.519  1.00 53.38 LIG 0.04  C 
ATOM     66  CB  PRO C  15     -10.075  13.416 -18.256  1.00 48.49 LIG 0.05  C 
ENDBRANCH 59 62
ENDBRANCH 45 58
ENDBRANCH 43 45
ENDBRANCH 1 38
TORSDOF 18
ENDMDL
MODEL 87
USER: ADFR SOLUTION from run 171
USER: SCORE 22.638391 LL:  -5.590 LR: -18.080 RR:   0.000 FEB: -12.710
USER: RMSD 12.408425
USER: SEED 170
USER: STATUS no improvement in best in 10 clusters for 5 generations
USER: GENES 20
USER: genes 0 Translation |==|  0.44689 0.60098 0.33708
USER: genes 1 Rotation |==|  0.71052 0.11711 0.38342 0.71328
USER: genes 2 Torsion [C]-N--CA-[CB] |==|  0.18426
USER: genes 3 Torsion [N]-CA--C-[N] |==|  0.48629
USER: genes 4 Torsion [N]-CA--C-[O] |==|  0.72052
USER: genes 5 Torsion [C]-N--CA-[C] |==|  0.81841
USER: genes 6 Torsion [N]-CA--C-[N] |==|  0.36667
USER: genes 7 Torsion [N]-CA--C-[O] |==|  0.24999
USER: genes 8 Torsion [N]-CA--CB-[CG] |==|  0.44646
USER: genes 9 Torsion [CA]-CB--CG-[CD1] |==|  0.64047
USER: genes 10 Torsion [N]-CA--CB-[CG] |==|  0.12207
USER: genes 11 Torsion [CA]-CB--CG-[CD2] |==|  0.52064
USER: genes 12 Torsion [O]-C--CA-[CB] |==|  0.02447
USER: genes 13 Torsion [N]-C--CA-[N] |==|  0.89905
USER: genes 14 Torsion [C]-CA--CB-[CG] |==|  0.52178
USER: genes 15 Torsion [CA]-CB--CG-[CD] |==|  0.28292
USER: genes 16 Torsion [CB]-CG--CD-[NE] |==|  0.43734
USER: genes 17 Torsion [CG]-CD--NE-[HE] |==|  0.06429
USER: genes 18 Torsion [C]-CA--N-[C] |==|  0.78465
USER: genes 19 Torsion [N]-C--CA-[CB] |==|  0.74887
ROOT
ATOM      1  C   PRO C  17     -12.569  11.170 -15.578  1.00 34.10 LIG 0.24  C 
ATOM      2 O    PRO C  17     -12.755  12.357 -15.838  1.00 31.91 LIG-0.27  OA
ATOM      3  N   LEU C  18     -12.162  10.754 -14.394  1.00 30.88 LIG-0.35  N 
ATOM      4 H    LEU C  18     -11.977   9.933 -14.224  1.00 30.88 LIG 0.16  HD
ENDROOT
BRANCH 3 5
ATOM      5  CA  LEU C  18     -11.983  11.639 -13.252  1.00 30.78 LIG 0.18  C 
BRANCH 5 6
ATOM      6  C   LEU C  18     -11.326  10.968 -12.058  1.00 33.73 LIG 0.24  C 
ATOM      7  N   PRO C  19     -11.025  11.740 -10.981  1.00 33.17 LIG-0.34  N 
ATOM      8  CA  PRO C  19     -10.444  11.120  -9.771  1.00 33.85 LIG 0.18  C 
ATOM      9  CD  PRO C  19     -11.176  13.209 -10.827  1.00 35.22 LIG 0.13  C 
ATOM     10  CB  PRO C  19      -9.960  12.317  -8.945  1.00 35.69 LIG 0.04  C 
ATOM     11  CG  PRO C  19     -10.745  13.477  -9.419  1.00 39.92 LIG 0.02  C 
ATOM     12 O    LEU C  18     -11.183   9.743 -12.069  1.00 31.40 LIG-0.27  OA
BRANCH 8 13
ATOM     13  C   PRO C  19     -11.409  10.210  -8.995  1.00 39.47 LIG 0.24  C 
ATOM     14  N   PHE C  20     -11.613   8.996  -9.509  1.00 41.20 LIG-0.35  N 
ATOM     15 H    PHE C  20     -11.225   8.730 -10.230  1.00 41.20 LIG 0.16  HD
ATOM     16 O    PRO C  19     -11.979  10.604  -7.983  1.00 36.20 LIG-0.27  OA
BRANCH 14 17
ATOM     17  CA  PHE C  20     -12.499   7.985  -8.933  1.00 43.59 LIG 0.18  C 
BRANCH 17 18
ATOM     18  C   PHE C  20     -11.945   7.540  -7.567  1.00 48.54 LIG 0.24  C 
ATOM     19  N   PRO C  21     -12.769   7.476  -6.488  1.00 46.41 LIG-0.34  N 
ATOM     20  CA  PRO C  21     -12.251   6.996  -5.184  1.00 51.72 LIG 0.17  C 
ATOM     21  CD  PRO C  21     -14.194   7.847  -6.383  1.00 49.19 LIG 0.13  C 
ATOM     22  CB  PRO C  21     -13.481   7.053  -4.262  1.00 52.56 LIG 0.04  C 
ATOM     23  CG  PRO C  21     -14.413   7.996  -4.908  1.00 54.82 LIG 0.02  C 
ATOM     24 O    PHE C  20     -10.756   7.224  -7.496  1.00 48.67 LIG-0.27  OA
BRANCH 20 25
ATOM     25  C   PRO C  21     -11.683   5.576  -5.224  1.00 87.57 LIG 0.22  C 
ATOM     26 O    PRO C  21     -10.493   5.398  -5.479  1.00 58.80 LIG-0.29  OA
ENDBRANCH 20 25
ENDBRANCH 17 18
BRANCH 17 27
ATOM     27  CB  PHE C  20     -12.609   6.788  -9.911  1.00 46.79 LIG 0.07  C 
BRANCH 27 28
ATOM     28  CG  PHE C  20     -13.093   5.467  -9.346  1.00 50.46 LIG-0.06  A 
ATOM     29  CD2 PHE C  20     -14.230   5.409  -8.545  1.00 54.33 LIG 0.01  A 
ATOM     30  CE2 PHE C  20     -14.677   4.187  -8.023  1.00 57.68 LIG 0.00  A 
ATOM     31  CZ  PHE C  20     -13.972   3.025  -8.281  1.00 55.81 LIG 0.00  A 
ATOM     32  CE1 PHE C  20     -12.837   3.068  -9.061  1.00 56.05 LIG 0.00  A 
ATOM     33  CD1 PHE C  20     -12.385   4.290  -9.573  1.00 54.84 LIG 0.01  A 
ENDBRANCH 27 28
ENDBRANCH 17 27
ENDBRANCH 14 17
ENDBRANCH 8 13
ENDBRANCH 5 6
BRANCH 5 34
ATOM     34  CB  LEU C  18     -13.344  12.184 -12.825  1.00 31.46 LIG 0.04  C 
BRANCH 34 35
ATOM     35  CG  LEU C  18     -14.475  11.190 -12.771  1.00 36.62 LIG-0.02  C 
ATOM     36  CD2 LEU C  18     -15.789  11.911 -12.513  1.00 38.91 LIG 0.01  C 
ATOM     37  CD1 LEU C  18     -14.202  10.148 -11.683  1.00 36.98 LIG 0.01  C 
ENDBRANCH 34 35
ENDBRANCH 5 34
ENDBRANCH 3 5
BRANCH 1 38
ATOM     38  CA  PRO C  17     -12.716  10.081 -16.632  1.00 33.71 LIG 0.18  C 
ATOM     39  CB  PRO C  17     -12.896  10.645 -18.046  1.00 36.04 LIG 0.04  C 
ATOM     40  CG  PRO C  17     -14.331  10.358 -18.438  1.00 41.66 LIG 0.02  C 
ATOM     41  CD  PRO C  17     -15.010   9.649 -17.305  1.00 37.74 LIG 0.13  C 
ATOM     42  N   PRO C  17     -13.880   9.207 -16.458  1.00 35.06 LIG-0.34  N 
ATOM     43  C   ARG C  16     -13.786   8.151 -15.627  1.00 37.80 LIG 0.24  C 
ATOM     44 O    ARG C  16     -12.741   7.932 -15.019  1.00 34.25 LIG-0.27  OA
BRANCH 43 45
ATOM     45  CA  ARG C  16     -14.978   7.191 -15.456  1.00 39.10 LIG 0.18  C 
BRANCH 45 46
ATOM     46  CB  ARG C  16     -14.950   6.115 -16.559  1.00 42.59 LIG 0.04  C 
BRANCH 46 47
ATOM     47  CG  ARG C  16     -16.184   5.220 -16.606  1.00 54.51 LIG 0.02  C 
BRANCH 47 48
ATOM     48  CD  ARG C  16     -17.136   5.616 -17.717  1.00 71.70 LIG 0.14  C 
BRANCH 48 49
ATOM     49  NE  ARG C  16     -18.004   4.499 -18.104  1.00 86.72 LIG-0.23  N 
ATOM     50 HE   ARG C  16     -18.132   3.875 -17.526  1.00 86.72 LIG 0.18  HD
ATOM     51  CZ  ARG C  16     -18.609   4.381 -19.284  1.00 98.48 LIG 0.67  C 
ATOM     52  NH2 ARG C  16     -19.370   3.325 -19.544  1.00 86.10 LIG-0.23  N 
ATOM     53  NH1 ARG C  16     -18.450   5.312 -20.216  1.00 81.98 LIG-0.23  N 
ATOM     54 2HH2 ARG C  16     -19.758   3.253 -20.308  1.00 86.10 LIG 0.17  HD
ATOM     55 1HH2 ARG C  16     -19.474   2.713 -18.949  1.00 86.10 LIG 0.17  HD
ATOM     56 1HH1 ARG C  16     -17.955   5.998 -20.059  1.00 81.98 LIG 0.17  HD
ATOM     57 2HH1 ARG C  16     -18.844   5.231 -20.975  1.00 81.98 LIG 0.17  HD
ENDBRANCH 48 49
ENDBRANCH 47 48
ENDBRANCH 46 47
ENDBRANCH 45 46
BRANCH 45 58
ATOM     58  N   ARG C  16     -16.230   7.954 -15.509  1.00 40.87 LIG-0.35  N 
ATOM     59  C   PRO C  15     -16.725   8.700 -14.494  1.00 47.02 LIG 0.25  C 
ATOM     60 O    PRO C  15     -16.182   8.788 -13.393  1.00 46.36 LIG-0.27  OA
ATOM     61 H    ARG C  16     -16.633   7.882 -16.265  1.00 40.87 LIG 0.16  HD
BRANCH 59 62
ATOM     62  CA  PRO C  15     -18.003   9.494 -14.775  1.00 46.56 LIG 0.35  C 
ATOM     63  N   PRO C  15     -18.801   9.762 -13.570  1.00 47.38 LIG 0.32  N 
ATOM     64  CD  PRO C  15     -18.891  11.207 -13.288  1.00 49.28 LIG 0.32  C 
ATOM     65  CG  PRO C  15     -18.620  11.829 -14.623  1.00 53.38 LIG 0.04  C 
ATOM     66  CB  PRO C  15     -17.668  10.899 -15.302  1.00 48.49 LIG 0.05  C 
ENDBRANCH 59 62
ENDBRANCH 45 58
ENDBRANCH 43 45
ENDBRANCH 1 38
TORSDOF 18
ENDMDL
MODEL 88
USER: ADFR SOLUTION from run 18
USER: SCORE 20.870061 LL:  -3.926 LR: -18.066 RR:   0.000 FEB: -12.696
USER: RMSD 4.266894
USER: SEED 17
USER: STATUS no improvement in best in 17 clusters for 5 generations
USER: GENES 20
USER: genes 0 Translation |==|  0.45389 0.45357 0.51408
USER: genes 1 Rotation |==|  0.52164 0.34214 0.60444 0.96228
USER: genes 2 Torsion [C]-N--CA-[CB] |==|  0.49017
USER: genes 3 Torsion [N]-CA--C-[N] |==|  0.42086
USER: genes 4 Torsion [N]-CA--C-[O] |==|  0.99497
USER: genes 5 Torsion [C]-N--CA-[C] |==|  0.70001
USER: genes 6 Torsion [N]-CA--C-[N] |==|  0.35090
USER: genes 7 Torsion [N]-CA--C-[O] |==|  0.79363
USER: genes 8 Torsion [N]-CA--CB-[CG] |==|  0.99441
USER: genes 9 Torsion [CA]-CB--CG-[CD1] |==|  0.22522
USER: genes 10 Torsion [N]-CA--CB-[CG] |==|  0.75252
USER: genes 11 Torsion [CA]-CB--CG-[CD2] |==|  0.37615
USER: genes 12 Torsion [O]-C--CA-[CB] |==|  0.12502
USER: genes 13 Torsion [N]-C--CA-[N] |==|  0.97037
USER: genes 14 Torsion [C]-CA--CB-[CG] |==|  0.92295
USER: genes 15 Torsion [CA]-CB--CG-[CD] |==|  0.39521
USER: genes 16 Torsion [CB]-CG--CD-[NE] |==|  0.02398
USER: genes 17 Torsion [CG]-CD--NE-[HE] |==|  0.80072
USER: genes 18 Torsion [C]-CA--N-[C] |==|  0.67784
USER: genes 19 Torsion [N]-C--CA-[CB] |==|  0.77504
ROOT
ATOM      1  C   PRO C  17     -12.443   8.516  -9.870  1.00 34.10 LIG 0.24  C 
ATOM      2 O    PRO C  17     -13.591   8.556 -10.308  1.00 31.91 LIG-0.27  OA
ATOM      3  N   LEU C  18     -11.524   9.404 -10.198  1.00 30.88 LIG-0.35  N 
ATOM      4 H    LEU C  18     -10.706   9.349  -9.940  1.00 30.88 LIG 0.16  HD
ENDROOT
BRANCH 3 5
ATOM      5  CA  LEU C  18     -11.794  10.568 -11.029  1.00 30.78 LIG 0.18  C 
BRANCH 5 6
ATOM      6  C   LEU C  18     -12.262  10.221 -12.432  1.00 33.73 LIG 0.24  C 
ATOM      7  N   PRO C  19     -13.073  11.106 -13.068  1.00 33.17 LIG-0.34  N 
ATOM      8  CA  PRO C  19     -13.503  10.841 -14.458  1.00 33.85 LIG 0.18  C 
ATOM      9  CD  PRO C  19     -13.651  12.369 -12.545  1.00 35.22 LIG 0.13  C 
ATOM     10  CB  PRO C  19     -14.625  11.859 -14.692  1.00 35.69 LIG 0.04  C 
ATOM     11  CG  PRO C  19     -14.399  12.940 -13.709  1.00 39.92 LIG 0.02  C 
ATOM     12 O    LEU C  18     -11.815   9.207 -12.973  1.00 31.40 LIG-0.27  OA
BRANCH 8 13
ATOM     13  C   PRO C  19     -12.380  10.940 -15.502  1.00 39.47 LIG 0.24  C 
ATOM     14  N   PHE C  20     -12.715  10.633 -16.757  1.00 41.20 LIG-0.35  N 
ATOM     15 H    PHE C  20     -13.513  10.399 -16.976  1.00 41.20 LIG 0.16  HD
ATOM     16 O    PRO C  19     -11.238  11.250 -15.179  1.00 36.20 LIG-0.27  OA
BRANCH 14 17
ATOM     17  CA  PHE C  20     -11.796  10.653 -17.893  1.00 43.59 LIG 0.18  C 
BRANCH 17 18
ATOM     18  C   PHE C  20     -12.129  11.852 -18.799  1.00 48.54 LIG 0.24  C 
ATOM     19  N   PRO C  21     -11.158  12.743 -19.134  1.00 46.41 LIG-0.34  N 
ATOM     20  CA  PRO C  21     -11.465  13.867 -20.051  1.00 51.72 LIG 0.17  C 
ATOM     21  CD  PRO C  21      -9.750  12.791 -18.694  1.00 49.19 LIG 0.13  C 
ATOM     22  CB  PRO C  21     -10.120  14.602 -20.186  1.00 52.56 LIG 0.04  C 
ATOM     23  CG  PRO C  21      -9.330  14.196 -19.008  1.00 54.82 LIG 0.02  C 
ATOM     24 O    PHE C  20     -13.282  11.957 -19.224  1.00 48.67 LIG-0.27  OA
BRANCH 20 25
ATOM     25  C   PRO C  21     -11.971  13.430 -21.426  1.00 87.57 LIG 0.22  C 
ATOM     26 O    PRO C  21     -11.188  12.957 -22.247  1.00 58.80 LIG-0.29  OA
ENDBRANCH 20 25
ENDBRANCH 17 18
BRANCH 17 27
ATOM     27  CB  PHE C  20     -11.913   9.315 -18.667  1.00 46.79 LIG 0.07  C 
BRANCH 27 28
ATOM     28  CG  PHE C  20     -12.863   8.271 -18.113  1.00 50.46 LIG-0.06  A 
ATOM     29  CD2 PHE C  20     -12.385   7.186 -17.384  1.00 54.33 LIG 0.01  A 
ATOM     30  CE2 PHE C  20     -13.265   6.223 -16.872  1.00 57.68 LIG 0.00  A 
ATOM     31  CZ  PHE C  20     -14.623   6.329 -17.112  1.00 55.81 LIG 0.00  A 
ATOM     32  CE1 PHE C  20     -15.112   7.389 -17.844  1.00 56.05 LIG 0.00  A 
ATOM     33  CD1 PHE C  20     -14.231   8.346 -18.364  1.00 54.84 LIG 0.01  A 
ENDBRANCH 27 28
ENDBRANCH 17 27
ENDBRANCH 14 17
ENDBRANCH 8 13
ENDBRANCH 5 6
BRANCH 5 34
ATOM     34  CB  LEU C  18     -10.527  11.415 -11.128  1.00 31.46 LIG 0.04  C 
BRANCH 34 35
ATOM     35  CG  LEU C  18     -10.341  12.466 -10.063  1.00 36.62 LIG-0.02  C 
ATOM     36  CD2 LEU C  18      -8.908  12.442  -9.554  1.00 38.91 LIG 0.01  C 
ATOM     37  CD1 LEU C  18     -11.330  12.229  -8.918  1.00 36.98 LIG 0.01  C 
ENDBRANCH 34 35
ENDBRANCH 5 34
ENDBRANCH 3 5
BRANCH 1 38
ATOM     38  CA  PRO C  17     -11.961   7.385  -8.972  1.00 33.71 LIG 0.18  C 
ATOM     39  CB  PRO C  17     -12.387   6.003  -9.478  1.00 36.04 LIG 0.04  C 
ATOM     40  CG  PRO C  17     -13.435   5.499  -8.509  1.00 41.66 LIG 0.02  C 
ATOM     41  CD  PRO C  17     -13.651   6.535  -7.447  1.00 37.74 LIG 0.13  C 
ATOM     42  N   PRO C  17     -12.478   7.424  -7.600  1.00 35.06 LIG-0.34  N 
ATOM     43  C   ARG C  16     -11.850   8.188  -6.687  1.00 37.80 LIG 0.24  C 
ATOM     44 O    ARG C  16     -10.863   8.848  -7.003  1.00 34.25 LIG-0.27  OA
BRANCH 43 45
ATOM     45  CA  ARG C  16     -12.344   8.216  -5.228  1.00 39.10 LIG 0.18  C 
BRANCH 45 46
ATOM     46  CB  ARG C  16     -11.314   7.531  -4.310  1.00 42.59 LIG 0.04  C 
BRANCH 46 47
ATOM     47  CG  ARG C  16     -10.468   6.459  -4.990  1.00 54.51 LIG 0.02  C 
BRANCH 47 48
ATOM     48  CD  ARG C  16      -9.034   6.467  -4.499  1.00 71.70 LIG 0.14  C 
BRANCH 48 49
ATOM     49  NE  ARG C  16      -8.864   7.363  -3.350  1.00 86.72 LIG-0.23  N 
ATOM     50 HE   ARG C  16      -8.900   8.210  -3.497  1.00 86.72 LIG 0.18  HD
ATOM     51  CZ  ARG C  16      -8.661   6.962  -2.097  1.00 98.48 LIG 0.67  C 
ATOM     52  NH2 ARG C  16      -8.510   7.853  -1.125  1.00 86.10 LIG-0.23  N 
ATOM     53  NH1 ARG C  16      -8.597   5.669  -1.809  1.00 81.98 LIG-0.23  N 
ATOM     54 2HH2 ARG C  16      -8.378   7.589  -0.317  1.00 86.10 LIG 0.17  HD
ATOM     55 1HH2 ARG C  16      -8.544   8.693  -1.302  1.00 86.10 LIG 0.17  HD
ATOM     56 1HH1 ARG C  16      -8.687   5.084  -2.433  1.00 81.98 LIG 0.17  HD
ATOM     57 2HH1 ARG C  16      -8.465   5.415  -0.998  1.00 81.98 LIG 0.17  HD
ENDBRANCH 48 49
ENDBRANCH 47 48
ENDBRANCH 46 47
ENDBRANCH 45 46
BRANCH 45 58
ATOM     58  N   ARG C  16     -13.644   7.542  -5.141  1.00 40.87 LIG-0.35  N 
ATOM     59  C   PRO C  15     -14.805   8.143  -4.790  1.00 47.02 LIG 0.25  C 
ATOM     60 O    PRO C  15     -14.883   9.330  -4.470  1.00 46.36 LIG-0.27  OA
ATOM     61 H    ARG C  16     -13.601   6.707  -5.338  1.00 40.87 LIG 0.16  HD
BRANCH 59 62
ATOM     62  CA  PRO C  15     -16.073   7.288  -4.843  1.00 46.56 LIG 0.35  C 
ATOM     63  N   PRO C  15     -17.199   7.865  -4.094  1.00 47.38 LIG 0.32  N 
ATOM     64  CD  PRO C  15     -18.325   8.207  -4.983  1.00 49.28 LIG 0.32  C 
ATOM     65  CG  PRO C  15     -18.095   7.328  -6.174  1.00 53.38 LIG 0.04  C 
ATOM     66  CB  PRO C  15     -16.610   7.197  -6.281  1.00 48.49 LIG 0.05  C 
ENDBRANCH 59 62
ENDBRANCH 45 58
ENDBRANCH 43 45
ENDBRANCH 1 38
TORSDOF 18
ENDMDL
MODEL 89
USER: ADFR SOLUTION from run 173
USER: SCORE 19.724413 LL:  -4.229 LR: -18.074 RR:   0.000 FEB: -12.705
USER: RMSD 13.784323
USER: SEED 172
USER: STATUS no improvement in best in 13 clusters for 5 generations
USER: GENES 20
USER: genes 0 Translation |==|  0.46407 0.52927 0.42473
USER: genes 1 Rotation |==|  0.17616 0.12260 0.44840 0.49410
USER: genes 2 Torsion [C]-N--CA-[CB] |==|  0.33731
USER: genes 3 Torsion [N]-CA--C-[N] |==|  0.14898
USER: genes 4 Torsion [N]-CA--C-[O] |==|  0.18143
USER: genes 5 Torsion [C]-N--CA-[C] |==|  0.59445
USER: genes 6 Torsion [N]-CA--C-[N] |==|  0.87807
USER: genes 7 Torsion [N]-CA--C-[O] |==|  0.63802
USER: genes 8 Torsion [N]-CA--CB-[CG] |==|  0.87509
USER: genes 9 Torsion [CA]-CB--CG-[CD1] |==|  0.24992
USER: genes 10 Torsion [N]-CA--CB-[CG] |==|  0.22505
USER: genes 11 Torsion [CA]-CB--CG-[CD2] |==|  0.72835
USER: genes 12 Torsion [O]-C--CA-[CB] |==|  0.20954
USER: genes 13 Torsion [N]-C--CA-[N] |==|  0.30982
USER: genes 14 Torsion [C]-CA--CB-[CG] |==|  0.44534
USER: genes 15 Torsion [CA]-CB--CG-[CD] |==|  0.81878
USER: genes 16 Torsion [CB]-CG--CD-[NE] |==|  0.65676
USER: genes 17 Torsion [CG]-CD--NE-[HE] |==|  0.20521
USER: genes 18 Torsion [C]-CA--N-[C] |==|  0.77022
USER: genes 19 Torsion [N]-C--CA-[CB] |==|  0.05438
ROOT
ATOM      1  C   PRO C  17     -12.260   9.879 -12.751  1.00 34.10 LIG 0.24  C 
ATOM      2 O    PRO C  17     -11.523   8.948 -13.069  1.00 31.91 LIG-0.27  OA
ATOM      3  N   LEU C  18     -12.098  10.566 -11.636  1.00 30.88 LIG-0.35  N 
ATOM      4 H    LEU C  18     -12.643  11.180 -11.382  1.00 30.88 LIG 0.16  HD
ENDROOT
BRANCH 3 5
ATOM      5  CA  LEU C  18     -10.986  10.360 -10.721  1.00 30.78 LIG 0.18  C 
BRANCH 5 6
ATOM      6  C   LEU C  18     -11.410   9.879  -9.344  1.00 33.73 LIG 0.24  C 
ATOM      7  N   PRO C  19     -12.195   8.772  -9.272  1.00 33.17 LIG-0.34  N 
ATOM      8  CA  PRO C  19     -12.581   8.229  -7.951  1.00 33.85 LIG 0.18  C 
ATOM      9  CD  PRO C  19     -12.783   7.983 -10.383  1.00 35.22 LIG 0.13  C 
ATOM     10  CB  PRO C  19     -13.688   7.223  -8.281  1.00 35.69 LIG 0.04  C 
ATOM     11  CG  PRO C  19     -13.489   6.855  -9.699  1.00 39.92 LIG 0.02  C 
ATOM     12 O    LEU C  18     -10.952  10.445  -8.350  1.00 31.40 LIG-0.27  OA
BRANCH 8 13
ATOM     13  C   PRO C  19     -11.424   7.605  -7.157  1.00 39.47 LIG 0.24  C 
ATOM     14  N   PHE C  20     -11.523   6.298  -6.904  1.00 41.20 LIG-0.35  N 
ATOM     15 H    PHE C  20     -12.190   5.826  -7.173  1.00 41.20 LIG 0.16  HD
ATOM     16 O    PRO C  19     -10.488   8.287  -6.754  1.00 36.20 LIG-0.27  OA
BRANCH 14 17
ATOM     17  CA  PHE C  20     -10.537   5.518  -6.157  1.00 43.59 LIG 0.18  C 
BRANCH 17 18
ATOM     18  C   PHE C  20     -10.469   4.092  -6.735  1.00 48.54 LIG 0.24  C 
ATOM     19  N   PRO C  21     -11.615   3.428  -7.043  1.00 46.41 LIG-0.34  N 
ATOM     20  CA  PRO C  21     -11.550   2.077  -7.651  1.00 51.72 LIG 0.17  C 
ATOM     21  CD  PRO C  21     -13.015   3.850  -6.845  1.00 49.19 LIG 0.13  C 
ATOM     22  CB  PRO C  21     -13.027   1.703  -7.860  1.00 52.56 LIG 0.04  C 
ATOM     23  CG  PRO C  21     -13.787   2.568  -6.937  1.00 54.82 LIG 0.02  C 
ATOM     24 O    PHE C  20      -9.357   3.597  -6.931  1.00 48.67 LIG-0.27  OA
BRANCH 20 25
ATOM     25  C   PRO C  21     -10.797   2.028  -8.982  1.00 87.57 LIG 0.22  C 
ATOM     26 O    PRO C  21     -11.306   1.477  -9.956  1.00 58.80 LIG-0.29  OA
ENDBRANCH 20 25
ENDBRANCH 17 18
BRANCH 17 27
ATOM     27  CB  PHE C  20     -10.935   5.497  -4.659  1.00 46.79 LIG 0.07  C 
BRANCH 27 28
ATOM     28  CG  PHE C  20     -11.365   6.809  -4.033  1.00 50.46 LIG-0.06  A 
ATOM     29  CD2 PHE C  20     -10.442   7.630  -3.391  1.00 54.33 LIG 0.01  A 
ATOM     30  CE2 PHE C  20     -10.841   8.844  -2.815  1.00 57.68 LIG 0.00  A 
ATOM     31  CZ  PHE C  20     -12.169   9.226  -2.856  1.00 55.81 LIG 0.00  A 
ATOM     32  CE1 PHE C  20     -13.099   8.418  -3.476  1.00 56.05 LIG 0.00  A 
ATOM     33  CD1 PHE C  20     -12.701   7.201  -4.043  1.00 54.84 LIG 0.01  A 
ENDBRANCH 27 28
ENDBRANCH 17 27
ENDBRANCH 14 17
ENDBRANCH 8 13
ENDBRANCH 5 6
BRANCH 5 34
ATOM     34  CB  LEU C  18     -10.214  11.669 -10.571  1.00 31.46 LIG 0.04  C 
BRANCH 34 35
ATOM     35  CG  LEU C  18     -10.791  12.679  -9.613  1.00 36.62 LIG-0.02  C 
ATOM     36  CD2 LEU C  18     -11.602  13.716 -10.375  1.00 38.91 LIG 0.01  C 
ATOM     37  CD1 LEU C  18      -9.665  13.345  -8.817  1.00 36.98 LIG 0.01  C 
ENDBRANCH 34 35
ENDBRANCH 5 34
ENDBRANCH 3 5
BRANCH 1 38
ATOM     38  CA  PRO C  17     -13.476  10.265 -13.582  1.00 33.71 LIG 0.18  C 
ATOM     39  CB  PRO C  17     -14.648   9.295 -13.406  1.00 36.04 LIG 0.04  C 
ATOM     40  CG  PRO C  17     -14.769   8.533 -14.709  1.00 41.66 LIG 0.02  C 
ATOM     41  CD  PRO C  17     -13.707   9.013 -15.651  1.00 37.74 LIG 0.13  C 
ATOM     42  N   PRO C  17     -13.254  10.278 -15.032  1.00 35.06 LIG-0.34  N 
ATOM     43  C   ARG C  16     -12.727  11.378 -15.602  1.00 37.80 LIG 0.24  C 
ATOM     44 O    ARG C  16     -12.429  12.352 -14.915  1.00 34.25 LIG-0.27  OA
BRANCH 43 45
ATOM     45  CA  ARG C  16     -12.521  11.437 -17.128  1.00 39.10 LIG 0.18  C 
BRANCH 45 46
ATOM     46  CB  ARG C  16     -11.062  11.811 -17.449  1.00 42.59 LIG 0.04  C 
BRANCH 46 47
ATOM     47  CG  ARG C  16     -10.608  11.452 -18.860  1.00 54.51 LIG 0.02  C 
BRANCH 47 48
ATOM     48  CD  ARG C  16     -10.585   9.953 -19.088  1.00 71.70 LIG 0.14  C 
BRANCH 48 49
ATOM     49  NE  ARG C  16      -9.260   9.495 -19.519  1.00 86.72 LIG-0.23  N 
ATOM     50 HE   ARG C  16      -8.637   9.467 -18.927  1.00 86.72 LIG 0.18  HD
ATOM     51  CZ  ARG C  16      -8.951   9.121 -20.758  1.00 98.48 LIG 0.67  C 
ATOM     52  NH2 ARG C  16      -7.717   8.730 -21.052  1.00 86.10 LIG-0.23  N 
ATOM     53  NH1 ARG C  16      -9.870   9.145 -21.715  1.00 81.98 LIG-0.23  N 
ATOM     54 2HH2 ARG C  16      -7.523   8.490 -21.855  1.00 86.10 LIG 0.17  HD
ATOM     55 1HH2 ARG C  16      -7.113   8.717 -20.441  1.00 86.10 LIG 0.17  HD
ATOM     56 1HH1 ARG C  16     -10.671   9.402 -21.535  1.00 81.98 LIG 0.17  HD
ATOM     57 2HH1 ARG C  16      -9.666   8.902 -22.513  1.00 81.98 LIG 0.17  HD
ENDBRANCH 48 49
ENDBRANCH 47 48
ENDBRANCH 46 47
ENDBRANCH 45 46
BRANCH 45 58
ATOM     58  N   ARG C  16     -13.446  12.417 -17.707  1.00 40.87 LIG-0.35  N 
ATOM     59  C   PRO C  15     -14.741  12.170 -18.016  1.00 47.02 LIG 0.25  C 
ATOM     60 O    PRO C  15     -15.273  11.069 -17.872  1.00 46.36 LIG-0.27  OA
ATOM     61 H    ARG C  16     -13.082  13.184 -17.836  1.00 40.87 LIG 0.16  HD
BRANCH 59 62
ATOM     62  CA  PRO C  15     -15.569  13.350 -18.531  1.00 46.56 LIG 0.35  C 
ATOM     63  N   PRO C  15     -16.360  14.011 -17.483  1.00 47.38 LIG 0.32  N 
ATOM     64  CD  PRO C  15     -15.930  15.406 -17.275  1.00 49.28 LIG 0.32  C 
ATOM     65  CG  PRO C  15     -15.264  15.751 -18.572  1.00 53.38 LIG 0.04  C 
ATOM     66  CB  PRO C  15     -14.655  14.473 -19.051  1.00 48.49 LIG 0.05  C 
ENDBRANCH 59 62
ENDBRANCH 45 58
ENDBRANCH 43 45
ENDBRANCH 1 38
TORSDOF 18
ENDMDL
MODEL 90
USER: ADFR SOLUTION from run 191
USER: SCORE 21.786778 LL:  -4.558 LR: -18.070 RR:   0.000 FEB: -12.700
USER: RMSD 13.623897
USER: SEED 190
USER: STATUS no improvement in best in 7 clusters for 5 generations
USER: GENES 20
USER: genes 0 Translation |==|  0.46594 0.62239 0.31212
USER: genes 1 Rotation |==|  0.63153 0.93034 0.68225 0.61955
USER: genes 2 Torsion [C]-N--CA-[CB] |==|  0.52070
USER: genes 3 Torsion [N]-CA--C-[N] |==|  0.46140
USER: genes 4 Torsion [N]-CA--C-[O] |==|  0.04829
USER: genes 5 Torsion [C]-N--CA-[C] |==|  0.79444
USER: genes 6 Torsion [N]-CA--C-[N] |==|  0.51490
USER: genes 7 Torsion [N]-CA--C-[O] |==|  0.93490
USER: genes 8 Torsion [N]-CA--CB-[CG] |==|  0.22039
USER: genes 9 Torsion [CA]-CB--CG-[CD1] |==|  0.40085
USER: genes 10 Torsion [N]-CA--CB-[CG] |==|  0.80345
USER: genes 11 Torsion [CA]-CB--CG-[CD2] |==|  0.75419
USER: genes 12 Torsion [O]-C--CA-[CB] |==|  0.36668
USER: genes 13 Torsion [N]-C--CA-[N] |==|  0.03215
USER: genes 14 Torsion [C]-CA--CB-[CG] |==|  0.88367
USER: genes 15 Torsion [CA]-CB--CG-[CD] |==|  0.28812
USER: genes 16 Torsion [CB]-CG--CD-[NE] |==|  0.18398
USER: genes 17 Torsion [CG]-CD--NE-[HE] |==|  0.23331
USER: genes 18 Torsion [C]-CA--N-[C] |==|  0.67978
USER: genes 19 Torsion [N]-C--CA-[CB] |==|  0.67169
ROOT
ATOM      1  C   PRO C  17     -12.226  11.555 -16.383  1.00 34.10 LIG 0.24  C 
ATOM      2 O    PRO C  17     -11.103  11.350 -15.927  1.00 31.91 LIG-0.27  OA
ATOM      3  N   LEU C  18     -13.268  11.820 -15.618  1.00 30.88 LIG-0.35  N 
ATOM      4 H    LEU C  18     -14.065  11.909 -15.927  1.00 30.88 LIG 0.16  HD
ENDROOT
BRANCH 3 5
ATOM      5  CA  LEU C  18     -13.181  11.991 -14.175  1.00 30.78 LIG 0.18  C 
BRANCH 5 6
ATOM      6  C   LEU C  18     -12.449  10.862 -13.471  1.00 33.73 LIG 0.24  C 
ATOM      7  N   PRO C  19     -12.063  11.061 -12.183  1.00 33.17 LIG-0.34  N 
ATOM      8  CA  PRO C  19     -11.405   9.968 -11.436  1.00 33.85 LIG 0.18  C 
ATOM      9  CD  PRO C  19     -12.188  12.291 -11.362  1.00 35.22 LIG 0.13  C 
ATOM     10  CB  PRO C  19     -10.851  10.663 -10.187  1.00 35.69 LIG 0.04  C 
ATOM     11  CG  PRO C  19     -11.655  11.893 -10.021  1.00 39.92 LIG 0.02  C 
ATOM     12 O    LEU C  18     -12.320   9.783 -14.053  1.00 31.40 LIG-0.27  OA
BRANCH 8 13
ATOM     13  C   PRO C  19     -12.322   8.782 -11.101  1.00 39.47 LIG 0.24  C 
ATOM     14  N   PHE C  20     -11.875   7.937 -10.170  1.00 41.20 LIG-0.35  N 
ATOM     15 H    PHE C  20     -11.120   8.048  -9.772  1.00 41.20 LIG 0.16  HD
ATOM     16 O    PRO C  19     -13.385   8.615 -11.690  1.00 36.20 LIG-0.27  OA
BRANCH 14 17
ATOM     17  CA  PHE C  20     -12.588   6.744  -9.716  1.00 43.59 LIG 0.18  C 
BRANCH 17 18
ATOM     18  C   PHE C  20     -13.769   7.164  -8.822  1.00 48.54 LIG 0.24  C 
ATOM     19  N   PRO C  21     -14.515   6.218  -8.192  1.00 46.41 LIG-0.34  N 
ATOM     20  CA  PRO C  21     -15.618   6.622  -7.288  1.00 51.72 LIG 0.17  C 
ATOM     21  CD  PRO C  21     -14.414   4.748  -8.276  1.00 49.19 LIG 0.13  C 
ATOM     22  CB  PRO C  21     -16.175   5.283  -6.774  1.00 52.56 LIG 0.04  C 
ATOM     23  CG  PRO C  21     -15.738   4.273  -7.757  1.00 54.82 LIG 0.02  C 
ATOM     24 O    PHE C  20     -13.991   8.369  -8.680  1.00 48.67 LIG-0.27  OA
BRANCH 20 25
ATOM     25  C   PRO C  21     -15.173   7.497  -6.114  1.00 87.57 LIG 0.22  C 
ATOM     26 O    PRO C  21     -14.006   7.459  -5.728  1.00 58.80 LIG-0.29  OA
ENDBRANCH 20 25
ENDBRANCH 17 18
BRANCH 17 27
ATOM     27  CB  PHE C  20     -11.603   5.824  -8.951  1.00 46.79 LIG 0.07  C 
BRANCH 27 28
ATOM     28  CG  PHE C  20     -11.283   6.187  -7.514  1.00 50.46 LIG-0.06  A 
ATOM     29  CD2 PHE C  20     -11.137   7.517  -7.130  1.00 54.33 LIG 0.01  A 
ATOM     30  CE2 PHE C  20     -10.842   7.851  -5.801  1.00 57.68 LIG 0.00  A 
ATOM     31  CZ  PHE C  20     -10.666   6.854  -4.860  1.00 55.81 LIG 0.00  A 
ATOM     32  CE1 PHE C  20     -10.794   5.531  -5.226  1.00 56.05 LIG 0.00  A 
ATOM     33  CD1 PHE C  20     -11.079   5.198  -6.556  1.00 54.84 LIG 0.01  A 
ENDBRANCH 27 28
ENDBRANCH 17 27
ENDBRANCH 14 17
ENDBRANCH 8 13
ENDBRANCH 5 6
BRANCH 5 34
ATOM     34  CB  LEU C  18     -14.591  12.100 -13.600  1.00 31.46 LIG 0.04  C 
BRANCH 34 35
ATOM     35  CG  LEU C  18     -15.343  13.369 -13.909  1.00 36.62 LIG-0.02  C 
ATOM     36  CD2 LEU C  18     -15.045  14.421 -12.853  1.00 38.91 LIG 0.01  C 
ATOM     37  CD1 LEU C  18     -16.846  13.080 -13.982  1.00 36.98 LIG 0.01  C 
ENDBRANCH 34 35
ENDBRANCH 5 34
ENDBRANCH 3 5
BRANCH 1 38
ATOM     38  CA  PRO C  17     -12.526  11.438 -17.871  1.00 33.71 LIG 0.18  C 
ATOM     39  CB  PRO C  17     -13.782  10.609 -18.160  1.00 36.04 LIG 0.04  C 
ATOM     40  CG  PRO C  17     -13.303   9.315 -18.784  1.00 41.66 LIG 0.02  C 
ATOM     41  CD  PRO C  17     -11.806   9.344 -18.871  1.00 37.74 LIG 0.13  C 
ATOM     42  N   PRO C  17     -11.484  10.773 -18.660  1.00 35.06 LIG-0.34  N 
ATOM     43  C   ARG C  16     -10.437  11.495 -19.102  1.00 37.80 LIG 0.24  C 
ATOM     44 O    ARG C  16     -10.354  12.693 -18.839  1.00 34.25 LIG-0.27  OA
BRANCH 43 45
ATOM     45  CA  ARG C  16      -9.349  10.833 -19.968  1.00 39.10 LIG 0.18  C 
BRANCH 45 46
ATOM     46  CB  ARG C  16      -9.032  11.723 -21.185  1.00 42.59 LIG 0.04  C 
BRANCH 46 47
ATOM     47  CG  ARG C  16     -10.253  12.343 -21.856  1.00 54.51 LIG 0.02  C 
BRANCH 47 48
ATOM     48  CD  ARG C  16     -10.411  13.811 -21.510  1.00 71.70 LIG 0.14  C 
BRANCH 48 49
ATOM     49  NE  ARG C  16      -9.314  14.614 -22.063  1.00 86.72 LIG-0.23  N 
ATOM     50 HE   ARG C  16      -9.384  14.873 -22.881  1.00 86.72 LIG 0.18  HD
ATOM     51  CZ  ARG C  16      -8.221  14.971 -21.394  1.00 98.48 LIG 0.67  C 
ATOM     52  NH2 ARG C  16      -7.279  15.693 -21.986  1.00 86.10 LIG-0.23  N 
ATOM     53  NH1 ARG C  16      -8.058  14.601 -20.130  1.00 81.98 LIG-0.23  N 
ATOM     54 2HH2 ARG C  16      -6.574  15.921 -21.549  1.00 86.10 LIG 0.17  HD
ATOM     55 1HH2 ARG C  16      -7.372  15.933 -22.806  1.00 86.10 LIG 0.17  HD
ATOM     56 1HH1 ARG C  16      -8.660  14.128 -19.739  1.00 81.98 LIG 0.17  HD
ATOM     57 2HH1 ARG C  16      -7.350  14.835 -19.702  1.00 81.98 LIG 0.17  HD
ENDBRANCH 48 49
ENDBRANCH 47 48
ENDBRANCH 46 47
ENDBRANCH 45 46
BRANCH 45 58
ATOM     58  N   ARG C  16      -9.809   9.510 -20.400  1.00 40.87 LIG-0.35  N 
ATOM     59  C   PRO C  15      -9.239   8.336 -20.040  1.00 47.02 LIG 0.25  C 
ATOM     60 O    PRO C  15      -8.238   8.262 -19.327  1.00 46.36 LIG-0.27  OA
ATOM     61 H    ARG C  16     -10.494   9.546 -20.919  1.00 40.87 LIG 0.16  HD
BRANCH 59 62
ATOM     62  CA  PRO C  15      -9.920   7.054 -20.525  1.00 46.56 LIG 0.35  C 
ATOM     63  N   PRO C  15      -9.016   6.150 -21.251  1.00 47.38 LIG 0.32  N 
ATOM     64  CD  PRO C  15      -8.845   4.868 -20.542  1.00 49.28 LIG 0.32  C 
ATOM     65  CG  PRO C  15     -10.073   4.789 -19.687  1.00 53.38 LIG 0.04  C 
ATOM     66  CB  PRO C  15     -10.396   6.205 -19.335  1.00 48.49 LIG 0.05  C 
ENDBRANCH 59 62
ENDBRANCH 45 58
ENDBRANCH 43 45
ENDBRANCH 1 38
TORSDOF 18
ENDMDL
MODEL 91
USER: ADFR SOLUTION from run 22
USER: SCORE 23.472249 LL:  -6.078 LR: -18.065 RR:   0.000 FEB: -12.696
USER: RMSD 12.658598
USER: SEED 21
USER: STATUS no improvement in best in 6 clusters for 5 generations
USER: GENES 20
USER: genes 0 Translation |==|  0.46435 0.50665 0.51983
USER: genes 1 Rotation |==|  0.98692 0.40184 0.44304 0.50568
USER: genes 2 Torsion [C]-N--CA-[CB] |==|  0.82137
USER: genes 3 Torsion [N]-CA--C-[N] |==|  0.31667
USER: genes 4 Torsion [N]-CA--C-[O] |==|  0.55965
USER: genes 5 Torsion [C]-N--CA-[C] |==|  0.56949
USER: genes 6 Torsion [N]-CA--C-[N] |==|  0.49798
USER: genes 7 Torsion [N]-CA--C-[O] |==|  0.95810
USER: genes 8 Torsion [N]-CA--CB-[CG] |==|  0.04441
USER: genes 9 Torsion [CA]-CB--CG-[CD1] |==|  0.21893
USER: genes 10 Torsion [N]-CA--CB-[CG] |==|  0.71903
USER: genes 11 Torsion [CA]-CB--CG-[CD2] |==|  0.95066
USER: genes 12 Torsion [O]-C--CA-[CB] |==|  0.27672
USER: genes 13 Torsion [N]-C--CA-[N] |==|  0.40071
USER: genes 14 Torsion [C]-CA--CB-[CG] |==|  0.32752
USER: genes 15 Torsion [CA]-CB--CG-[CD] |==|  0.08706
USER: genes 16 Torsion [CB]-CG--CD-[NE] |==|  0.74151
USER: genes 17 Torsion [CG]-CD--NE-[HE] |==|  0.22956
USER: genes 18 Torsion [C]-CA--N-[C] |==|  0.62038
USER: genes 19 Torsion [N]-C--CA-[CB] |==|  0.56303
ROOT
ATOM      1  C   PRO C  17     -12.255   9.472  -9.684  1.00 34.10 LIG 0.24  C 
ATOM      2 O    PRO C  17     -13.482   9.397  -9.701  1.00 31.91 LIG-0.27  OA
ATOM      3  N   LEU C  18     -11.507   8.741  -8.879  1.00 30.88 LIG-0.35  N 
ATOM      4 H    LEU C  18     -10.654   8.830  -8.824  1.00 30.88 LIG 0.16  HD
ENDROOT
BRANCH 3 5
ATOM      5  CA  LEU C  18     -12.043   7.711  -8.002  1.00 30.78 LIG 0.18  C 
BRANCH 5 6
ATOM      6  C   LEU C  18     -12.822   6.631  -8.735  1.00 33.73 LIG 0.24  C 
ATOM      7  N   PRO C  19     -12.312   5.372  -8.737  1.00 33.17 LIG-0.34  N 
ATOM      8  CA  PRO C  19     -13.066   4.275  -9.382  1.00 33.85 LIG 0.18  C 
ATOM      9  CD  PRO C  19     -11.022   4.897  -8.177  1.00 35.22 LIG 0.13  C 
ATOM     10  CB  PRO C  19     -12.049   3.131  -9.460  1.00 35.69 LIG 0.04  C 
ATOM     11  CG  PRO C  19     -11.038   3.420  -8.420  1.00 39.92 LIG 0.02  C 
ATOM     12 O    LEU C  18     -13.924   6.913  -9.209  1.00 31.40 LIG-0.27  OA
BRANCH 8 13
ATOM     13  C   PRO C  19     -14.359   3.877  -8.654  1.00 39.47 LIG 0.24  C 
ATOM     14  N   PHE C  20     -14.859   4.779  -7.808  1.00 41.20 LIG-0.35  N 
ATOM     15 H    PHE C  20     -14.488   5.544  -7.679  1.00 41.20 LIG 0.16  HD
ATOM     16 O    PRO C  19     -14.870   2.775  -8.824  1.00 36.20 LIG-0.27  OA
BRANCH 14 17
ATOM     17  CA  PHE C  20     -16.072   4.593  -7.012  1.00 43.59 LIG 0.18  C 
BRANCH 17 18
ATOM     18  C   PHE C  20     -16.675   5.967  -6.670  1.00 48.54 LIG 0.24  C 
ATOM     19  N   PRO C  21     -17.822   6.045  -5.945  1.00 46.41 LIG-0.34  N 
ATOM     20  CA  PRO C  21     -18.375   7.368  -5.568  1.00 51.72 LIG 0.17  C 
ATOM     21  CD  PRO C  21     -18.681   4.953  -5.445  1.00 49.19 LIG 0.13  C 
ATOM     22  CB  PRO C  21     -19.630   7.017  -4.751  1.00 52.56 LIG 0.04  C 
ATOM     23  CG  PRO C  21     -19.980   5.638  -5.141  1.00 54.82 LIG 0.02  C 
ATOM     24 O    PHE C  20     -16.075   6.976  -7.049  1.00 48.67 LIG-0.27  OA
BRANCH 20 25
ATOM     25  C   PRO C  21     -17.422   8.227  -4.734  1.00 87.57 LIG 0.22  C 
ATOM     26 O    PRO C  21     -16.438   7.715  -4.204  1.00 58.80 LIG-0.29  OA
ENDBRANCH 20 25
ENDBRANCH 17 18
BRANCH 17 27
ATOM     27  CB  PHE C  20     -15.720   3.799  -5.728  1.00 46.79 LIG 0.07  C 
BRANCH 27 28
ATOM     28  CG  PHE C  20     -14.256   3.704  -5.346  1.00 50.46 LIG-0.06  A 
ATOM     29  CD2 PHE C  20     -13.534   2.535  -5.570  1.00 54.33 LIG 0.01  A 
ATOM     30  CE2 PHE C  20     -12.180   2.450  -5.217  1.00 57.68 LIG 0.00  A 
ATOM     31  CZ  PHE C  20     -11.553   3.525  -4.616  1.00 55.81 LIG 0.00  A 
ATOM     32  CE1 PHE C  20     -12.256   4.685  -4.374  1.00 56.05 LIG 0.00  A 
ATOM     33  CD1 PHE C  20     -13.611   4.767  -4.718  1.00 54.84 LIG 0.01  A 
ENDBRANCH 27 28
ENDBRANCH 17 27
ENDBRANCH 14 17
ENDBRANCH 8 13
ENDBRANCH 5 6
BRANCH 5 34
ATOM     34  CB  LEU C  18     -12.957   8.363  -6.967  1.00 31.46 LIG 0.04  C 
BRANCH 34 35
ATOM     35  CG  LEU C  18     -12.371   8.570  -5.594  1.00 36.62 LIG-0.02  C 
ATOM     36  CD2 LEU C  18     -11.143   7.692  -5.415  1.00 38.91 LIG 0.01  C 
ATOM     37  CD1 LEU C  18     -13.424   8.259  -4.526  1.00 36.98 LIG 0.01  C 
ENDBRANCH 34 35
ENDBRANCH 5 34
ENDBRANCH 3 5
BRANCH 1 38
ATOM     38  CA  PRO C  17     -11.497  10.479 -10.539  1.00 33.71 LIG 0.18  C 
ATOM     39  CB  PRO C  17     -11.068  11.721  -9.751  1.00 36.04 LIG 0.04  C 
ATOM     40  CG  PRO C  17     -11.923  12.863 -10.259  1.00 41.66 LIG 0.02  C 
ATOM     41  CD  PRO C  17     -12.848  12.341 -11.317  1.00 37.74 LIG 0.13  C 
ATOM     42  N   PRO C  17     -12.258  11.030 -11.664  1.00 35.06 LIG-0.34  N 
ATOM     43  C   ARG C  16     -12.305  10.341 -12.821  1.00 37.80 LIG 0.24  C 
ATOM     44 O    ARG C  16     -11.725   9.263 -12.925  1.00 34.25 LIG-0.27  OA
BRANCH 43 45
ATOM     45  CA  ARG C  16     -13.062  10.915 -14.034  1.00 39.10 LIG 0.18  C 
BRANCH 45 46
ATOM     46  CB  ARG C  16     -14.503  10.370 -14.061  1.00 42.59 LIG 0.04  C 
BRANCH 46 47
ATOM     47  CG  ARG C  16     -15.588  11.434 -13.932  1.00 54.51 LIG 0.02  C 
BRANCH 47 48
ATOM     48  CD  ARG C  16     -15.166  12.758 -14.540  1.00 71.70 LIG 0.14  C 
BRANCH 48 49
ATOM     49  NE  ARG C  16     -14.560  13.640 -13.537  1.00 86.72 LIG-0.23  N 
ATOM     50 HE   ARG C  16     -13.729  13.522 -13.353  1.00 86.72 LIG 0.18  HD
ATOM     51  CZ  ARG C  16     -15.204  14.610 -12.891  1.00 98.48 LIG 0.67  C 
ATOM     52  NH2 ARG C  16     -14.569  15.352 -11.992  1.00 86.10 LIG-0.23  N 
ATOM     53  NH1 ARG C  16     -16.488  14.840 -13.132  1.00 81.98 LIG-0.23  N 
ATOM     54 2HH2 ARG C  16     -14.989  15.977 -11.577  1.00 86.10 LIG 0.17  HD
ATOM     55 1HH2 ARG C  16     -13.738  15.207 -11.824  1.00 86.10 LIG 0.17  HD
ATOM     56 1HH1 ARG C  16     -16.910  14.361 -13.709  1.00 81.98 LIG 0.17  HD
ATOM     57 2HH1 ARG C  16     -16.898  15.467 -12.712  1.00 81.98 LIG 0.17  HD
ENDBRANCH 48 49
ENDBRANCH 47 48
ENDBRANCH 46 47
ENDBRANCH 45 46
BRANCH 45 58
ATOM     58  N   ARG C  16     -12.350  10.557 -15.265  1.00 40.87 LIG-0.35  N 
ATOM     59  C   PRO C  15     -12.125  11.398 -16.301  1.00 47.02 LIG 0.25  C 
ATOM     60 O    PRO C  15     -12.532  12.560 -16.330  1.00 46.36 LIG-0.27  OA
ATOM     61 H    ARG C  16     -12.080   9.741 -15.270  1.00 40.87 LIG 0.16  HD
BRANCH 59 62
ATOM     62  CA  PRO C  15     -11.285  10.862 -17.463  1.00 46.56 LIG 0.35  C 
ATOM     63  N   PRO C  15     -12.076  10.147 -18.475  1.00 47.38 LIG 0.32  N 
ATOM     64  CD  PRO C  15     -12.034  10.833 -19.781  1.00 49.28 LIG 0.32  C 
ATOM     65  CG  PRO C  15     -10.777  11.643 -19.697  1.00 53.38 LIG 0.04  C 
ATOM     66  CB  PRO C  15     -10.649  12.016 -18.255  1.00 48.49 LIG 0.05  C 
ENDBRANCH 59 62
ENDBRANCH 45 58
ENDBRANCH 43 45
ENDBRANCH 1 38
TORSDOF 18
ENDMDL
MODEL 92
USER: ADFR SOLUTION from run 127
USER: SCORE 21.957413 LL:  -4.704 LR: -18.060 RR:   0.000 FEB: -12.691
USER: RMSD 13.887850
USER: SEED 126
USER: STATUS no improvement in best in 15 clusters for 5 generations
USER: GENES 20
USER: genes 0 Translation |==|  0.47367 0.49426 0.49667
USER: genes 1 Rotation |==|  0.83482 0.73805 0.75991 0.61696
USER: genes 2 Torsion [C]-N--CA-[CB] |==|  0.88889
USER: genes 3 Torsion [N]-CA--C-[N] |==|  0.40850
USER: genes 4 Torsion [N]-CA--C-[O] |==|  0.93466
USER: genes 5 Torsion [C]-N--CA-[C] |==|  0.80528
USER: genes 6 Torsion [N]-CA--C-[N] |==|  0.35707
USER: genes 7 Torsion [N]-CA--C-[O] |==|  0.88219
USER: genes 8 Torsion [N]-CA--CB-[CG] |==|  0.48010
USER: genes 9 Torsion [CA]-CB--CG-[CD1] |==|  0.22468
USER: genes 10 Torsion [N]-CA--CB-[CG] |==|  0.39961
USER: genes 11 Torsion [CA]-CB--CG-[CD2] |==|  0.66120
USER: genes 12 Torsion [O]-C--CA-[CB] |==|  0.58616
USER: genes 13 Torsion [N]-C--CA-[N] |==|  0.09268
USER: genes 14 Torsion [C]-CA--CB-[CG] |==|  0.26782
USER: genes 15 Torsion [CA]-CB--CG-[CD] |==|  0.16261
USER: genes 16 Torsion [CB]-CG--CD-[NE] |==|  0.40641
USER: genes 17 Torsion [CG]-CD--NE-[HE] |==|  0.79293
USER: genes 18 Torsion [C]-CA--N-[C] |==|  0.17374
USER: genes 19 Torsion [N]-C--CA-[CB] |==|  0.22249
ROOT
ATOM      1  C   PRO C  17     -12.087   9.249 -10.432  1.00 34.10 LIG 0.24  C 
ATOM      2 O    PRO C  17     -11.615   8.128 -10.608  1.00 31.91 LIG-0.27  OA
ATOM      3  N   LEU C  18     -12.798   9.563  -9.365  1.00 30.88 LIG-0.35  N 
ATOM      4 H    LEU C  18     -13.178  10.327  -9.264  1.00 30.88 LIG 0.16  HD
ENDROOT
BRANCH 3 5
ATOM      5  CA  LEU C  18     -13.016   8.653  -8.250  1.00 30.78 LIG 0.18  C 
BRANCH 5 6
ATOM      6  C   LEU C  18     -11.863   8.613  -7.262  1.00 33.73 LIG 0.24  C 
ATOM      7  N   PRO C  19     -12.156   8.403  -5.952  1.00 33.17 LIG-0.34  N 
ATOM      8  CA  PRO C  19     -11.063   8.292  -4.962  1.00 33.85 LIG 0.18  C 
ATOM      9  CD  PRO C  19     -13.491   8.283  -5.313  1.00 35.22 LIG 0.13  C 
ATOM     10  CB  PRO C  19     -11.783   8.388  -3.613  1.00 35.69 LIG 0.04  C 
ATOM     11  CG  PRO C  19     -13.185   7.998  -3.875  1.00 39.92 LIG 0.02  C 
ATOM     12 O    LEU C  18     -10.710   8.671  -7.693  1.00 31.40 LIG-0.27  OA
BRANCH 8 13
ATOM     13  C   PRO C  19     -10.210   7.022  -5.095  1.00 39.47 LIG 0.24  C 
ATOM     14  N   PHE C  20      -8.962   7.100  -4.630  1.00 41.20 LIG-0.35  N 
ATOM     15 H    PHE C  20      -8.650   7.815  -4.269  1.00 41.20 LIG 0.16  HD
ATOM     16 O    PRO C  19     -10.653   6.012  -5.634  1.00 36.20 LIG-0.27  OA
BRANCH 14 17
ATOM     17  CA  PHE C  20      -7.988   6.010  -4.670  1.00 43.59 LIG 0.18  C 
BRANCH 17 18
ATOM     18  C   PHE C  20      -8.412   4.909  -3.680  1.00 48.54 LIG 0.24  C 
ATOM     19  N   PRO C  21      -8.497   3.617  -4.095  1.00 46.41 LIG-0.34  N 
ATOM     20  CA  PRO C  21      -8.851   2.549  -3.130  1.00 51.72 LIG 0.17  C 
ATOM     21  CD  PRO C  21      -8.296   3.061  -5.447  1.00 49.19 LIG 0.13  C 
ATOM     22  CB  PRO C  21      -8.813   1.267  -3.979  1.00 52.56 LIG 0.04  C 
ATOM     23  CG  PRO C  21      -8.955   1.717  -5.377  1.00 54.82 LIG 0.02  C 
ATOM     24 O    PHE C  20      -8.640   5.234  -2.512  1.00 48.67 LIG-0.27  OA
BRANCH 20 25
ATOM     25  C   PRO C  21      -7.887   2.431  -1.948  1.00 87.57 LIG 0.22  C 
ATOM     26 O    PRO C  21      -6.675   2.511  -2.134  1.00 58.80 LIG-0.29  OA
ENDBRANCH 20 25
ENDBRANCH 17 18
BRANCH 17 27
ATOM     27  CB  PHE C  20      -6.585   6.569  -4.321  1.00 46.79 LIG 0.07  C 
BRANCH 27 28
ATOM     28  CG  PHE C  20      -5.460   5.569  -4.145  1.00 50.46 LIG-0.06  A 
ATOM     29  CD2 PHE C  20      -5.030   5.195  -2.874  1.00 54.33 LIG 0.01  A 
ATOM     30  CE2 PHE C  20      -3.990   4.269  -2.713  1.00 57.68 LIG 0.00  A 
ATOM     31  CZ  PHE C  20      -3.361   3.735  -3.822  1.00 55.81 LIG 0.00  A 
ATOM     32  CE1 PHE C  20      -3.765   4.104  -5.087  1.00 56.05 LIG 0.00  A 
ATOM     33  CD1 PHE C  20      -4.797   5.037  -5.248  1.00 54.84 LIG 0.01  A 
ENDBRANCH 27 28
ENDBRANCH 17 27
ENDBRANCH 14 17
ENDBRANCH 8 13
ENDBRANCH 5 6
BRANCH 5 34
ATOM     34  CB  LEU C  18     -13.250   7.245  -8.794  1.00 31.46 LIG 0.04  C 
BRANCH 34 35
ATOM     35  CG  LEU C  18     -12.685   6.111  -7.979  1.00 36.62 LIG-0.02  C 
ATOM     36  CD2 LEU C  18     -11.722   5.292  -8.824  1.00 38.91 LIG 0.01  C 
ATOM     37  CD1 LEU C  18     -13.823   5.235  -7.445  1.00 36.98 LIG 0.01  C 
ENDBRANCH 34 35
ENDBRANCH 5 34
ENDBRANCH 3 5
BRANCH 1 38
ATOM     38  CA  PRO C  17     -11.959  10.351 -11.474  1.00 33.71 LIG 0.18  C 
ATOM     39  CB  PRO C  17     -11.896  11.750 -10.854  1.00 36.04 LIG 0.04  C 
ATOM     40  CG  PRO C  17     -13.206  12.427 -11.197  1.00 41.66 LIG 0.02  C 
ATOM     41  CD  PRO C  17     -14.048  11.477 -11.995  1.00 37.74 LIG 0.13  C 
ATOM     42  N   PRO C  17     -13.078  10.442 -12.417  1.00 35.06 LIG-0.34  N 
ATOM     43  C   ARG C  16     -13.083   9.648 -13.504  1.00 37.80 LIG 0.24  C 
ATOM     44 O    ARG C  16     -12.165   8.854 -13.697  1.00 34.25 LIG-0.27  OA
BRANCH 43 45
ATOM     45  CA  ARG C  16     -14.224   9.750 -14.534  1.00 39.10 LIG 0.18  C 
BRANCH 45 46
ATOM     46  CB  ARG C  16     -13.737   9.260 -15.911  1.00 42.59 LIG 0.04  C 
BRANCH 46 47
ATOM     47  CG  ARG C  16     -14.075   7.806 -16.224  1.00 54.51 LIG 0.02  C 
BRANCH 47 48
ATOM     48  CD  ARG C  16     -15.568   7.544 -16.180  1.00 71.70 LIG 0.14  C 
BRANCH 48 49
ATOM     49  NE  ARG C  16     -15.964   6.533 -17.167  1.00 86.72 LIG-0.23  N 
ATOM     50 HE   ARG C  16     -15.986   6.770 -17.993  1.00 86.72 LIG 0.18  HD
ATOM     51  CZ  ARG C  16     -16.292   5.276 -16.876  1.00 98.48 LIG 0.67  C 
ATOM     52  NH2 ARG C  16     -16.647   4.436 -17.840  1.00 86.10 LIG-0.23  N 
ATOM     53  NH1 ARG C  16     -16.277   4.852 -15.619  1.00 81.98 LIG-0.23  N 
ATOM     54 2HH2 ARG C  16     -16.858   3.625 -17.648  1.00 86.10 LIG 0.17  HD
ATOM     55 1HH2 ARG C  16     -16.666   4.703 -18.658  1.00 86.10 LIG 0.17  HD
ATOM     56 1HH1 ARG C  16     -16.055   5.390 -14.986  1.00 81.98 LIG 0.17  HD
ATOM     57 2HH1 ARG C  16     -16.490   4.039 -15.437  1.00 81.98 LIG 0.17  HD
ENDBRANCH 48 49
ENDBRANCH 47 48
ENDBRANCH 46 47
ENDBRANCH 45 46
BRANCH 45 58
ATOM     58  N   ARG C  16     -14.685  11.141 -14.614  1.00 40.87 LIG-0.35  N 
ATOM     59  C   PRO C  15     -13.925  12.186 -15.014  1.00 47.02 LIG 0.25  C 
ATOM     60 O    PRO C  15     -12.738  12.080 -15.326  1.00 46.36 LIG-0.27  OA
ATOM     61 H    ARG C  16     -15.506  11.235 -14.376  1.00 40.87 LIG 0.16  HD
BRANCH 59 62
ATOM     62  CA  PRO C  15     -14.614  13.549 -15.114  1.00 46.56 LIG 0.35  C 
ATOM     63  N   PRO C  15     -16.008  13.467 -15.574  1.00 47.38 LIG 0.32  N 
ATOM     64  CD  PRO C  15     -16.950  13.934 -14.540  1.00 49.28 LIG 0.32  C 
ATOM     65  CG  PRO C  15     -16.097  14.812 -13.677  1.00 53.38 LIG 0.04  C 
ATOM     66  CB  PRO C  15     -14.734  14.203 -13.727  1.00 48.49 LIG 0.05  C 
ENDBRANCH 59 62
ENDBRANCH 45 58
ENDBRANCH 43 45
ENDBRANCH 1 38
TORSDOF 18
ENDMDL
MODEL 93
USER: ADFR SOLUTION from run 118
USER: SCORE 21.284356 LL:  -5.187 LR: -18.061 RR:   0.000 FEB: -12.692
USER: RMSD 13.173749
USER: SEED 117
USER: STATUS no improvement in best in 9 clusters for 5 generations
USER: GENES 20
USER: genes 0 Translation |==|  0.46916 0.50353 0.43799
USER: genes 1 Rotation |==|  0.76025 0.85674 0.73437 0.50875
USER: genes 2 Torsion [C]-N--CA-[CB] |==|  0.27599
USER: genes 3 Torsion [N]-CA--C-[N] |==|  0.38015
USER: genes 4 Torsion [N]-CA--C-[O] |==|  0.62053
USER: genes 5 Torsion [C]-N--CA-[C] |==|  0.11347
USER: genes 6 Torsion [N]-CA--C-[N] |==|  0.14016
USER: genes 7 Torsion [N]-CA--C-[O] |==|  0.32384
USER: genes 8 Torsion [N]-CA--CB-[CG] |==|  0.07291
USER: genes 9 Torsion [CA]-CB--CG-[CD1] |==|  0.25727
USER: genes 10 Torsion [N]-CA--CB-[CG] |==|  0.98666
USER: genes 11 Torsion [CA]-CB--CG-[CD2] |==|  0.63272
USER: genes 12 Torsion [O]-C--CA-[CB] |==|  0.71916
USER: genes 13 Torsion [N]-C--CA-[N] |==|  0.15040
USER: genes 14 Torsion [C]-CA--CB-[CG] |==|  0.80238
USER: genes 15 Torsion [CA]-CB--CG-[CD] |==|  0.61066
USER: genes 16 Torsion [CB]-CG--CD-[NE] |==|  0.67024
USER: genes 17 Torsion [CG]-CD--NE-[HE] |==|  0.66773
USER: genes 18 Torsion [C]-CA--N-[C] |==|  0.62785
USER: genes 19 Torsion [N]-C--CA-[CB] |==|  0.11826
ROOT
ATOM      1  C   PRO C  17     -12.168   9.415 -12.324  1.00 34.10 LIG 0.24  C 
ATOM      2 O    PRO C  17     -11.142   8.805 -12.615  1.00 31.91 LIG-0.27  OA
ATOM      3  N   LEU C  18     -12.699   9.382 -11.116  1.00 30.88 LIG-0.35  N 
ATOM      4 H    LEU C  18     -13.445   9.761 -10.922  1.00 30.88 LIG 0.16  HD
ENDROOT
BRANCH 3 5
ATOM      5  CA  LEU C  18     -12.080   8.705  -9.986  1.00 30.78 LIG 0.18  C 
BRANCH 5 6
ATOM      6  C   LEU C  18     -13.066   7.945  -9.116  1.00 33.73 LIG 0.24  C 
ATOM      7  N   PRO C  19     -12.714   6.703  -8.692  1.00 33.17 LIG-0.34  N 
ATOM      8  CA  PRO C  19     -13.613   5.951  -7.791  1.00 33.85 LIG 0.18  C 
ATOM      9  CD  PRO C  19     -11.497   5.922  -9.031  1.00 35.22 LIG 0.13  C 
ATOM     10  CB  PRO C  19     -13.041   4.530  -7.809  1.00 35.69 LIG 0.04  C 
ATOM     11  CG  PRO C  19     -11.628   4.669  -8.224  1.00 39.92 LIG 0.02  C 
ATOM     12 O    LEU C  18     -14.096   8.514  -8.749  1.00 31.40 LIG-0.27  OA
BRANCH 8 13
ATOM     13  C   PRO C  19     -13.725   6.531  -6.373  1.00 39.47 LIG 0.24  C 
ATOM     14  N   PHE C  20     -13.809   7.860  -6.287  1.00 41.20 LIG-0.35  N 
ATOM     15 H    PHE C  20     -13.807   8.367  -6.982  1.00 41.20 LIG 0.16  HD
ATOM     16 O    PRO C  19     -13.702   5.805  -5.385  1.00 36.20 LIG-0.27  OA
BRANCH 14 17
ATOM     17  CA  PHE C  20     -13.912   8.609  -5.035  1.00 43.59 LIG 0.18  C 
BRANCH 17 18
ATOM     18  C   PHE C  20     -12.971   7.986  -3.988  1.00 48.54 LIG 0.24  C 
ATOM     19  N   PRO C  21     -11.670   7.748  -4.300  1.00 46.41 LIG-0.34  N 
ATOM     20  CA  PRO C  21     -10.748   7.199  -3.276  1.00 51.72 LIG 0.17  C 
ATOM     21  CD  PRO C  21     -10.972   7.942  -5.586  1.00 49.19 LIG 0.13  C 
ATOM     22  CB  PRO C  21      -9.401   7.106  -4.013  1.00 52.56 LIG 0.04  C 
ATOM     23  CG  PRO C  21      -9.738   7.102  -5.449  1.00 54.82 LIG 0.02  C 
ATOM     24 O    PHE C  20     -13.427   7.742  -2.868  1.00 48.67 LIG-0.27  OA
BRANCH 20 25
ATOM     25  C   PRO C  21     -10.612   8.073  -2.028  1.00 87.57 LIG 0.22  C 
ATOM     26 O    PRO C  21     -10.979   7.644  -0.935  1.00 58.80 LIG-0.29  OA
ENDBRANCH 20 25
ENDBRANCH 17 18
BRANCH 17 27
ATOM     27  CB  PHE C  20     -15.385   8.588  -4.550  1.00 46.79 LIG 0.07  C 
BRANCH 27 28
ATOM     28  CG  PHE C  20     -16.246   7.420  -4.988  1.00 50.46 LIG-0.06  A 
ATOM     29  CD2 PHE C  20     -16.978   7.477  -6.171  1.00 54.33 LIG 0.01  A 
ATOM     30  CE2 PHE C  20     -17.773   6.396  -6.574  1.00 57.68 LIG 0.00  A 
ATOM     31  CZ  PHE C  20     -17.859   5.266  -5.782  1.00 55.81 LIG 0.00  A 
ATOM     32  CE1 PHE C  20     -17.152   5.198  -4.600  1.00 56.05 LIG 0.00  A 
ATOM     33  CD1 PHE C  20     -16.365   6.283  -4.193  1.00 54.84 LIG 0.01  A 
ENDBRANCH 27 28
ENDBRANCH 17 27
ENDBRANCH 14 17
ENDBRANCH 8 13
ENDBRANCH 5 6
BRANCH 5 34
ATOM     34  CB  LEU C  18     -11.352   9.734  -9.125  1.00 31.46 LIG 0.04  C 
BRANCH 34 35
ATOM     35  CG  LEU C  18     -11.324  11.146  -9.651  1.00 36.62 LIG-0.02  C 
ATOM     36  CD2 LEU C  18      -9.910  11.701  -9.574  1.00 38.91 LIG 0.01  C 
ATOM     37  CD1 LEU C  18     -12.297  12.019  -8.853  1.00 36.98 LIG 0.01  C 
ENDBRANCH 34 35
ENDBRANCH 5 34
ENDBRANCH 3 5
BRANCH 1 38
ATOM     38  CA  PRO C  17     -12.962  10.199 -13.360  1.00 33.71 LIG 0.18  C 
ATOM     39  CB  PRO C  17     -12.699  11.707 -13.294  1.00 36.04 LIG 0.04  C 
ATOM     40  CG  PRO C  17     -13.965  12.336 -12.752  1.00 41.66 LIG 0.02  C 
ATOM     41  CD  PRO C  17     -14.969  11.255 -12.489  1.00 37.74 LIG 0.13  C 
ATOM     42  N   PRO C  17     -14.419  10.097 -13.228  1.00 35.06 LIG-0.34  N 
ATOM     43  C   ARG C  16     -15.054   9.048 -13.784  1.00 37.80 LIG 0.24  C 
ATOM     44 O    ARG C  16     -14.418   8.186 -14.386  1.00 34.25 LIG-0.27  OA
BRANCH 43 45
ATOM     45  CA  ARG C  16     -16.588   8.936 -13.698  1.00 39.10 LIG 0.18  C 
BRANCH 45 46
ATOM     46  CB  ARG C  16     -17.072   7.710 -14.495  1.00 42.59 LIG 0.04  C 
BRANCH 46 47
ATOM     47  CG  ARG C  16     -16.963   7.852 -16.010  1.00 54.51 LIG 0.02  C 
BRANCH 47 48
ATOM     48  CD  ARG C  16     -18.161   7.260 -16.726  1.00 71.70 LIG 0.14  C 
BRANCH 48 49
ATOM     49  NE  ARG C  16     -17.766   6.162 -17.616  1.00 86.72 LIG-0.23  N 
ATOM     50 HE   ARG C  16     -17.935   6.250 -18.455  1.00 86.72 LIG 0.18  HD
ATOM     51  CZ  ARG C  16     -17.164   5.043 -17.221  1.00 98.48 LIG 0.67  C 
ATOM     52  NH2 ARG C  16     -16.853   4.102 -18.104  1.00 86.10 LIG-0.23  N 
ATOM     53  NH1 ARG C  16     -16.877   4.852 -15.940  1.00 81.98 LIG-0.23  N 
ATOM     54 2HH2 ARG C  16     -16.465   3.380 -17.843  1.00 86.10 LIG 0.17  HD
ATOM     55 1HH2 ARG C  16     -17.040   4.214 -18.935  1.00 86.10 LIG 0.17  HD
ATOM     56 1HH1 ARG C  16     -17.079   5.453 -15.359  1.00 81.98 LIG 0.17  HD
ATOM     57 2HH1 ARG C  16     -16.488   4.127 -15.690  1.00 81.98 LIG 0.17  HD
ENDBRANCH 48 49
ENDBRANCH 47 48
ENDBRANCH 46 47
ENDBRANCH 45 46
BRANCH 45 58
ATOM     58  N   ARG C  16     -17.196  10.165 -14.219  1.00 40.87 LIG-0.35  N 
ATOM     59  C   PRO C  15     -18.200  10.845 -13.619  1.00 47.02 LIG 0.25  C 
ATOM     60 O    PRO C  15     -18.738  10.477 -12.574  1.00 46.36 LIG-0.27  OA
ATOM     61 H    ARG C  16     -16.847  10.422 -14.962  1.00 40.87 LIG 0.16  HD
BRANCH 59 62
ATOM     62  CA  PRO C  15     -18.640  12.156 -14.275  1.00 46.56 LIG 0.35  C 
ATOM     63  N   PRO C  15     -17.679  13.253 -14.093  1.00 47.38 LIG 0.32  N 
ATOM     64  CD  PRO C  15     -17.114  13.701 -15.379  1.00 49.28 LIG 0.32  C 
ATOM     65  CG  PRO C  15     -18.143  13.257 -16.373  1.00 53.38 LIG 0.04  C 
ATOM     66  CB  PRO C  15     -18.720  12.002 -15.804  1.00 48.49 LIG 0.05  C 
ENDBRANCH 59 62
ENDBRANCH 45 58
ENDBRANCH 43 45
ENDBRANCH 1 38
TORSDOF 18
ENDMDL
MODEL 94
USER: ADFR SOLUTION from run 182
USER: SCORE 22.140998 LL:  -4.828 LR: -18.048 RR:   0.000 FEB: -12.679
USER: RMSD 13.543688
USER: SEED 181
USER: STATUS no improvement in best in 7 clusters for 5 generations
USER: GENES 20
USER: genes 0 Translation |==|  0.45594 0.51994 0.51235
USER: genes 1 Rotation |==|  0.97638 0.39510 0.39142 0.51650
USER: genes 2 Torsion [C]-N--CA-[CB] |==|  0.81852
USER: genes 3 Torsion [N]-CA--C-[N] |==|  0.34414
USER: genes 4 Torsion [N]-CA--C-[O] |==|  0.48864
USER: genes 5 Torsion [C]-N--CA-[C] |==|  0.11595
USER: genes 6 Torsion [N]-CA--C-[N] |==|  0.16597
USER: genes 7 Torsion [N]-CA--C-[O] |==|  0.71996
USER: genes 8 Torsion [N]-CA--CB-[CG] |==|  0.53981
USER: genes 9 Torsion [CA]-CB--CG-[CD1] |==|  0.23262
USER: genes 10 Torsion [N]-CA--CB-[CG] |==|  0.52401
USER: genes 11 Torsion [CA]-CB--CG-[CD2] |==|  0.59566
USER: genes 12 Torsion [O]-C--CA-[CB] |==|  0.25558
USER: genes 13 Torsion [N]-C--CA-[N] |==|  0.36710
USER: genes 14 Torsion [C]-CA--CB-[CG] |==|  0.82749
USER: genes 15 Torsion [CA]-CB--CG-[CD] |==|  0.73754
USER: genes 16 Torsion [CB]-CG--CD-[NE] |==|  0.65398
USER: genes 17 Torsion [CG]-CD--NE-[HE] |==|  0.24420
USER: genes 18 Torsion [C]-CA--N-[C] |==|  0.61111
USER: genes 19 Torsion [N]-C--CA-[CB] |==|  0.79071
ROOT
ATOM      1  C   PRO C  17     -12.406   9.711  -9.926  1.00 34.10 LIG 0.24  C 
ATOM      2 O    PRO C  17     -13.610   9.676  -9.680  1.00 31.91 LIG-0.27  OA
ATOM      3  N   LEU C  18     -11.527   8.958  -9.292  1.00 30.88 LIG-0.35  N 
ATOM      4 H    LEU C  18     -10.680   9.019  -9.420  1.00 30.88 LIG 0.16  HD
ENDROOT
BRANCH 3 5
ATOM      5  CA  LEU C  18     -11.896   7.947  -8.312  1.00 30.78 LIG 0.18  C 
BRANCH 5 6
ATOM      6  C   LEU C  18     -12.865   6.906  -8.846  1.00 33.73 LIG 0.24  C 
ATOM      7  N   PRO C  19     -12.501   5.599  -8.767  1.00 33.17 LIG-0.34  N 
ATOM      8  CA  PRO C  19     -13.438   4.547  -9.214  1.00 33.85 LIG 0.18  C 
ATOM      9  CD  PRO C  19     -11.217   5.026  -8.291  1.00 35.22 LIG 0.13  C 
ATOM     10  CB  PRO C  19     -12.569   3.286  -9.272  1.00 35.69 LIG 0.04  C 
ATOM     11  CG  PRO C  19     -11.422   3.546  -8.375  1.00 39.92 LIG 0.02  C 
ATOM     12 O    LEU C  18     -13.976   7.273  -9.235  1.00 31.40 LIG-0.27  OA
BRANCH 8 13
ATOM     13  C   PRO C  19     -14.678   4.376  -8.323  1.00 39.47 LIG 0.24  C 
ATOM     14  N   PHE C  20     -14.700   5.099  -7.202  1.00 41.20 LIG-0.35  N 
ATOM     15 H    PHE C  20     -14.063   5.636  -6.988  1.00 41.20 LIG 0.16  HD
ATOM     16 O    PRO C  19     -15.572   3.590  -8.621  1.00 36.20 LIG-0.27  OA
BRANCH 14 17
ATOM     17  CA  PHE C  20     -15.780   5.076  -6.216  1.00 43.59 LIG 0.18  C 
BRANCH 17 18
ATOM     18  C   PHE C  20     -16.244   3.624  -6.002  1.00 48.54 LIG 0.24  C 
ATOM     19  N   PRO C  21     -15.365   2.687  -5.557  1.00 46.41 LIG-0.34  N 
ATOM     20  CA  PRO C  21     -15.823   1.301  -5.297  1.00 51.72 LIG 0.17  C 
ATOM     21  CD  PRO C  21     -13.921   2.824  -5.282  1.00 49.19 LIG 0.13  C 
ATOM     22  CB  PRO C  21     -14.556   0.588  -4.795  1.00 52.56 LIG 0.04  C 
ATOM     23  CG  PRO C  21     -13.428   1.409  -5.273  1.00 54.82 LIG 0.02  C 
ATOM     24 O    PHE C  20     -17.428   3.353  -6.219  1.00 48.67 LIG-0.27  OA
BRANCH 20 25
ATOM     25  C   PRO C  21     -16.939   1.198  -4.256  1.00 87.57 LIG 0.22  C 
ATOM     26 O    PRO C  21     -16.674   0.863  -3.103  1.00 58.80 LIG-0.29  OA
ENDBRANCH 20 25
ENDBRANCH 17 18
BRANCH 17 27
ATOM     27  CB  PHE C  20     -16.944   5.970  -6.715  1.00 46.79 LIG 0.07  C 
BRANCH 27 28
ATOM     28  CG  PHE C  20     -18.011   6.351  -5.708  1.00 50.46 LIG-0.06  A 
ATOM     29  CD2 PHE C  20     -19.217   5.658  -5.651  1.00 54.33 LIG 0.01  A 
ATOM     30  CE2 PHE C  20     -20.203   6.011  -4.719  1.00 57.68 LIG 0.00  A 
ATOM     31  CZ  PHE C  20     -19.994   7.074  -3.860  1.00 55.81 LIG 0.00  A 
ATOM     32  CE1 PHE C  20     -18.811   7.780  -3.913  1.00 56.05 LIG 0.00  A 
ATOM     33  CD1 PHE C  20     -17.831   7.433  -4.851  1.00 54.84 LIG 0.01  A 
ENDBRANCH 27 28
ENDBRANCH 17 27
ENDBRANCH 14 17
ENDBRANCH 8 13
ENDBRANCH 5 6
BRANCH 5 34
ATOM     34  CB  LEU C  18     -12.525   8.632  -7.101  1.00 31.46 LIG 0.04  C 
BRANCH 34 35
ATOM     35  CG  LEU C  18     -12.785   7.761  -5.900  1.00 36.62 LIG-0.02  C 
ATOM     36  CD2 LEU C  18     -14.052   8.216  -5.192  1.00 38.91 LIG 0.01  C 
ATOM     37  CD1 LEU C  18     -11.584   7.808  -4.951  1.00 36.98 LIG 0.01  C 
ENDBRANCH 34 35
ENDBRANCH 5 34
ENDBRANCH 3 5
BRANCH 1 38
ATOM     38  CA  PRO C  17     -11.816  10.691 -10.930  1.00 33.71 LIG 0.18  C 
ATOM     39  CB  PRO C  17     -11.359  12.002 -10.282  1.00 36.04 LIG 0.04  C 
ATOM     40  CG  PRO C  17     -12.330  13.067 -10.744  1.00 41.66 LIG 0.02  C 
ATOM     41  CD  PRO C  17     -13.352  12.435 -11.640  1.00 37.74 LIG 0.13  C 
ATOM     42  N   PRO C  17     -12.741  11.130 -11.980  1.00 35.06 LIG-0.34  N 
ATOM     43  C   ARG C  16     -12.897  10.365 -13.076  1.00 37.80 LIG 0.24  C 
ATOM     44 O    ARG C  16     -12.277   9.309 -13.189  1.00 34.25 LIG-0.27  OA
BRANCH 43 45
ATOM     45  CA  ARG C  16     -13.829  10.820 -14.215  1.00 39.10 LIG 0.18  C 
BRANCH 45 46
ATOM     46  CB  ARG C  16     -15.124   9.986 -14.200  1.00 42.59 LIG 0.04  C 
BRANCH 46 47
ATOM     47  CG  ARG C  16     -14.922   8.493 -14.434  1.00 54.51 LIG 0.02  C 
BRANCH 47 48
ATOM     48  CD  ARG C  16     -15.097   8.114 -15.891  1.00 71.70 LIG 0.14  C 
BRANCH 48 49
ATOM     49  NE  ARG C  16     -16.108   7.063 -16.056  1.00 86.72 LIG-0.23  N 
ATOM     50 HE   ARG C  16     -16.927   7.310 -16.146  1.00 86.72 LIG 0.18  HD
ATOM     51  CZ  ARG C  16     -15.850   5.758 -16.075  1.00 98.48 LIG 0.67  C 
ATOM     52  NH2 ARG C  16     -16.837   4.883 -16.220  1.00 86.10 LIG-0.23  N 
ATOM     53  NH1 ARG C  16     -14.606   5.317 -15.940  1.00 81.98 LIG-0.23  N 
ATOM     54 2HH2 ARG C  16     -16.666   4.040 -16.232  1.00 86.10 LIG 0.17  HD
ATOM     55 1HH2 ARG C  16     -17.648   5.158 -16.303  1.00 86.10 LIG 0.17  HD
ATOM     56 1HH1 ARG C  16     -13.960   5.876 -15.839  1.00 81.98 LIG 0.17  HD
ATOM     57 2HH1 ARG C  16     -14.446   4.473 -15.953  1.00 81.98 LIG 0.17  HD
ENDBRANCH 48 49
ENDBRANCH 47 48
ENDBRANCH 46 47
ENDBRANCH 45 46
BRANCH 45 58
ATOM     58  N   ARG C  16     -13.136  10.677 -15.499  1.00 40.87 LIG-0.35  N 
ATOM     59  C   PRO C  15     -13.207  11.563 -16.520  1.00 47.02 LIG 0.25  C 
ATOM     60 O    PRO C  15     -13.900  12.581 -16.485  1.00 46.36 LIG-0.27  OA
ATOM     61 H    ARG C  16     -12.666   9.959 -15.547  1.00 40.87 LIG 0.16  HD
BRANCH 59 62
ATOM     62  CA  PRO C  15     -12.339  11.279 -17.748  1.00 46.56 LIG 0.35  C 
ATOM     63  N   PRO C  15     -12.663  12.130 -18.902  1.00 47.38 LIG 0.32  N 
ATOM     64  CD  PRO C  15     -11.532  13.003 -19.268  1.00 49.28 LIG 0.32  C 
ATOM     65  CG  PRO C  15     -10.350  12.284 -18.693  1.00 53.38 LIG 0.04  C 
ATOM     66  CB  PRO C  15     -10.864  11.610 -17.463  1.00 48.49 LIG 0.05  C 
ENDBRANCH 59 62
ENDBRANCH 45 58
ENDBRANCH 43 45
ENDBRANCH 1 38
TORSDOF 18
ENDMDL
MODEL 95
USER: ADFR SOLUTION from run 70
USER: SCORE 22.296667 LL:  -4.961 LR: -18.052 RR:   0.000 FEB: -12.682
USER: RMSD 13.301418
USER: SEED 69
USER: STATUS no improvement in best in 20 clusters for 5 generations
USER: GENES 20
USER: genes 0 Translation |==|  0.48484 0.48972 0.51820
USER: genes 1 Rotation |==|  0.85443 0.70056 0.74401 0.65690
USER: genes 2 Torsion [C]-N--CA-[CB] |==|  0.85476
USER: genes 3 Torsion [N]-CA--C-[N] |==|  0.38731
USER: genes 4 Torsion [N]-CA--C-[O] |==|  0.87410
USER: genes 5 Torsion [C]-N--CA-[C] |==|  0.62249
USER: genes 6 Torsion [N]-CA--C-[N] |==|  0.86720
USER: genes 7 Torsion [N]-CA--C-[O] |==|  0.45695
USER: genes 8 Torsion [N]-CA--CB-[CG] |==|  0.79806
USER: genes 9 Torsion [CA]-CB--CG-[CD1] |==|  0.75596
USER: genes 10 Torsion [N]-CA--CB-[CG] |==|  0.54618
USER: genes 11 Torsion [CA]-CB--CG-[CD2] |==|  0.63988
USER: genes 12 Torsion [O]-C--CA-[CB] |==|  0.56374
USER: genes 13 Torsion [N]-C--CA-[N] |==|  0.33412
USER: genes 14 Torsion [C]-CA--CB-[CG] |==|  0.60024
USER: genes 15 Torsion [CA]-CB--CG-[CD] |==|  0.62828
USER: genes 16 Torsion [CB]-CG--CD-[NE] |==|  0.59278
USER: genes 17 Torsion [CG]-CD--NE-[HE] |==|  0.71800
USER: genes 18 Torsion [C]-CA--N-[C] |==|  0.75697
USER: genes 19 Torsion [N]-C--CA-[CB] |==|  0.43614
ROOT
ATOM      1  C   PRO C  17     -11.886   9.167  -9.737  1.00 34.10 LIG 0.24  C 
ATOM      2 O    PRO C  17     -11.686   7.960  -9.856  1.00 31.91 LIG-0.27  OA
ATOM      3  N   LEU C  18     -12.528   9.685  -8.707  1.00 30.88 LIG-0.35  N 
ATOM      4 H    LEU C  18     -12.719  10.521  -8.646  1.00 30.88 LIG 0.16  HD
ENDROOT
BRANCH 3 5
ATOM      5  CA  LEU C  18     -12.978   8.901  -7.566  1.00 30.78 LIG 0.18  C 
BRANCH 5 6
ATOM      6  C   LEU C  18     -11.846   8.385  -6.695  1.00 33.73 LIG 0.24  C 
ATOM      7  N   PRO C  19     -12.015   8.419  -5.347  1.00 33.17 LIG-0.34  N 
ATOM      8  CA  PRO C  19     -10.967   7.869  -4.461  1.00 33.85 LIG 0.18  C 
ATOM      9  CD  PRO C  19     -13.152   8.977  -4.574  1.00 35.22 LIG 0.13  C 
ATOM     10  CB  PRO C  19     -11.366   8.373  -3.070  1.00 35.69 LIG 0.04  C 
ATOM     11  CG  PRO C  19     -12.812   8.671  -3.149  1.00 39.92 LIG 0.02  C 
ATOM     12 O    LEU C  18     -10.866   7.870  -7.238  1.00 31.40 LIG-0.27  OA
BRANCH 8 13
ATOM     13  C   PRO C  19     -10.818   6.341  -4.522  1.00 39.47 LIG 0.24  C 
ATOM     14  N   PHE C  20      -9.572   5.877  -4.641  1.00 41.20 LIG-0.35  N 
ATOM     15 H    PHE C  20      -8.888   6.397  -4.674  1.00 41.20 LIG 0.16  HD
ATOM     16 O    PRO C  19     -11.798   5.605  -4.499  1.00 36.20 LIG-0.27  OA
BRANCH 14 17
ATOM     17  CA  PHE C  20      -9.216   4.461  -4.726  1.00 43.59 LIG 0.18  C 
BRANCH 17 18
ATOM     18  C   PHE C  20      -8.002   4.184  -3.819  1.00 48.54 LIG 0.24  C 
ATOM     19  N   PRO C  21      -6.915   4.999  -3.871  1.00 46.41 LIG-0.34  N 
ATOM     20  CA  PRO C  21      -5.768   4.766  -2.961  1.00 51.72 LIG 0.17  C 
ATOM     21  CD  PRO C  21      -6.658   6.150  -4.758  1.00 49.19 LIG 0.13  C 
ATOM     22  CB  PRO C  21      -4.787   5.896  -3.318  1.00 52.56 LIG 0.04  C 
ATOM     23  CG  PRO C  21      -5.174   6.339  -4.671  1.00 54.82 LIG 0.02  C 
ATOM     24 O    PHE C  20      -8.064   3.231  -3.040  1.00 48.67 LIG-0.27  OA
BRANCH 20 25
ATOM     25  C   PRO C  21      -6.129   4.827  -1.475  1.00 87.57 LIG 0.22  C 
ATOM     26 O    PRO C  21      -5.352   4.378  -0.635  1.00 58.80 LIG-0.29  OA
ENDBRANCH 20 25
ENDBRANCH 17 18
BRANCH 17 27
ATOM     27  CB  PHE C  20      -8.907   4.102  -6.202  1.00 46.79 LIG 0.07  C 
BRANCH 27 28
ATOM     28  CG  PHE C  20     -10.080   4.018  -7.159  1.00 50.46 LIG-0.06  A 
ATOM     29  CD2 PHE C  20     -10.509   5.141  -7.861  1.00 54.33 LIG 0.01  A 
ATOM     30  CE2 PHE C  20     -11.593   5.062  -8.746  1.00 57.68 LIG 0.00  A 
ATOM     31  CZ  PHE C  20     -12.266   3.865  -8.910  1.00 55.81 LIG 0.00  A 
ATOM     32  CE1 PHE C  20     -11.864   2.747  -8.212  1.00 56.05 LIG 0.00  A 
ATOM     33  CD1 PHE C  20     -10.787   2.829  -7.320  1.00 54.84 LIG 0.01  A 
ENDBRANCH 27 28
ENDBRANCH 17 27
ENDBRANCH 14 17
ENDBRANCH 8 13
ENDBRANCH 5 6
BRANCH 5 34
ATOM     34  CB  LEU C  18     -13.795   7.713  -8.070  1.00 31.46 LIG 0.04  C 
BRANCH 34 35
ATOM     35  CG  LEU C  18     -14.659   7.015  -7.051  1.00 36.62 LIG-0.02  C 
ATOM     36  CD2 LEU C  18     -14.409   5.516  -7.095  1.00 38.91 LIG 0.01  C 
ATOM     37  CD1 LEU C  18     -16.134   7.330  -7.316  1.00 36.98 LIG 0.01  C 
ENDBRANCH 34 35
ENDBRANCH 5 34
ENDBRANCH 3 5
BRANCH 1 38
ATOM     38  CA  PRO C  17     -11.479  10.162 -10.815  1.00 33.71 LIG 0.18  C 
ATOM     39  CB  PRO C  17     -11.295  11.583 -10.273  1.00 36.04 LIG 0.04  C 
ATOM     40  CG  PRO C  17     -12.446  12.400 -10.821  1.00 41.66 LIG 0.02  C 
ATOM     41  CD  PRO C  17     -13.310  11.513 -11.666  1.00 37.74 LIG 0.13  C 
ATOM     42  N   PRO C  17     -12.453  10.330 -11.898  1.00 35.06 LIG-0.34  N 
ATOM     43  C   ARG C  16     -12.439   9.466 -12.931  1.00 37.80 LIG 0.24  C 
ATOM     44 O    ARG C  16     -11.625   8.545 -12.958  1.00 34.25 LIG-0.27  OA
BRANCH 43 45
ATOM     45  CA  ARG C  16     -13.422   9.642 -14.104  1.00 39.10 LIG 0.18  C 
BRANCH 45 46
ATOM     46  CB  ARG C  16     -14.350   8.416 -14.202  1.00 42.59 LIG 0.04  C 
BRANCH 46 47
ATOM     47  CG  ARG C  16     -14.716   8.007 -15.625  1.00 54.51 LIG 0.02  C 
BRANCH 47 48
ATOM     48  CD  ARG C  16     -16.199   7.732 -15.776  1.00 71.70 LIG 0.14  C 
BRANCH 48 49
ATOM     49  NE  ARG C  16     -16.451   6.668 -16.754  1.00 86.72 LIG-0.23  N 
ATOM     50 HE   ARG C  16     -16.707   6.902 -17.540  1.00 86.72 LIG 0.18  HD
ATOM     51  CZ  ARG C  16     -16.310   5.366 -16.513  1.00 98.48 LIG 0.67  C 
ATOM     52  NH2 ARG C  16     -16.571   4.477 -17.463  1.00 86.10 LIG-0.23  N 
ATOM     53  NH1 ARG C  16     -15.916   4.944 -15.318  1.00 81.98 LIG-0.23  N 
ATOM     54 2HH2 ARG C  16     -16.479   3.637 -17.302  1.00 86.10 LIG 0.17  HD
ATOM     55 1HH2 ARG C  16     -16.832   4.740 -18.238  1.00 86.10 LIG 0.17  HD
ATOM     56 1HH1 ARG C  16     -15.750   5.512 -14.694  1.00 81.98 LIG 0.17  HD
ATOM     57 2HH1 ARG C  16     -15.827   4.102 -15.168  1.00 81.98 LIG 0.17  HD
ENDBRANCH 48 49
ENDBRANCH 47 48
ENDBRANCH 46 47
ENDBRANCH 45 46
BRANCH 45 58
ATOM     58  N   ARG C  16     -12.667   9.821 -15.349  1.00 40.87 LIG-0.35  N 
ATOM     59  C   PRO C  15     -12.223  11.009 -15.820  1.00 47.02 LIG 0.25  C 
ATOM     60 O    PRO C  15     -12.439  12.083 -15.259  1.00 46.36 LIG-0.27  OA
ATOM     61 H    ARG C  16     -12.529   9.081 -15.765  1.00 40.87 LIG 0.16  HD
BRANCH 59 62
ATOM     62  CA  PRO C  15     -11.377  10.978 -17.095  1.00 46.56 LIG 0.35  C 
ATOM     63  N   PRO C  15     -11.877  10.036 -18.107  1.00 47.38 LIG 0.32  N 
ATOM     64  CD  PRO C  15     -12.304  10.733 -19.335  1.00 49.28 LIG 0.32  C 
ATOM     65  CG  PRO C  15     -11.544  12.023 -19.272  1.00 53.38 LIG 0.04  C 
ATOM     66  CB  PRO C  15     -11.425  12.335 -17.816  1.00 48.49 LIG 0.05  C 
ENDBRANCH 59 62
ENDBRANCH 45 58
ENDBRANCH 43 45
ENDBRANCH 1 38
TORSDOF 18
ENDMDL
MODEL 96
USER: ADFR SOLUTION from run 49
USER: SCORE 21.647143 LL:  -4.470 LR: -18.050 RR:   0.000 FEB: -12.680
USER: RMSD 13.445897
USER: SEED 48
USER: STATUS no improvement in best in 17 clusters for 5 generations
USER: GENES 20
USER: genes 0 Translation |==|  0.45732 0.63338 0.43347
USER: genes 1 Rotation |==|  0.44075 0.09076 0.24898 0.62650
USER: genes 2 Torsion [C]-N--CA-[CB] |==|  0.14863
USER: genes 3 Torsion [N]-CA--C-[N] |==|  0.17678
USER: genes 4 Torsion [N]-CA--C-[O] |==|  0.06474
USER: genes 5 Torsion [C]-N--CA-[C] |==|  0.17005
USER: genes 6 Torsion [N]-CA--C-[N] |==|  0.13047
USER: genes 7 Torsion [N]-CA--C-[O] |==|  0.86995
USER: genes 8 Torsion [N]-CA--CB-[CG] |==|  0.50729
USER: genes 9 Torsion [CA]-CB--CG-[CD1] |==|  0.68772
USER: genes 10 Torsion [N]-CA--CB-[CG] |==|  0.63696
USER: genes 11 Torsion [CA]-CB--CG-[CD2] |==|  0.97105
USER: genes 12 Torsion [O]-C--CA-[CB] |==|  0.56284
USER: genes 13 Torsion [N]-C--CA-[N] |==|  0.09152
USER: genes 14 Torsion [C]-CA--CB-[CG] |==|  0.26300
USER: genes 15 Torsion [CA]-CB--CG-[CD] |==|  0.66158
USER: genes 16 Torsion [CB]-CG--CD-[NE] |==|  0.97302
USER: genes 17 Torsion [CG]-CD--NE-[HE] |==|  0.21183
USER: genes 18 Torsion [C]-CA--N-[C] |==|  0.64444
USER: genes 19 Torsion [N]-C--CA-[CB] |==|  0.68034
ROOT
ATOM      1  C   PRO C  17     -12.381  11.753 -12.470  1.00 34.10 LIG 0.24  C 
ATOM      2 O    PRO C  17     -11.327  12.324 -12.740  1.00 31.91 LIG-0.27  OA
ATOM      3  N   LEU C  18     -12.552  11.059 -11.360  1.00 30.88 LIG-0.35  N 
ATOM      4 H    LEU C  18     -13.266  10.611 -11.193  1.00 30.88 LIG 0.16  HD
ENDROOT
BRANCH 3 5
ATOM      5  CA  LEU C  18     -11.553  10.976 -10.305  1.00 30.78 LIG 0.18  C 
BRANCH 5 6
ATOM      6  C   LEU C  18     -12.024  10.213  -9.078  1.00 33.73 LIG 0.24  C 
ATOM      7  N   PRO C  19     -12.320   8.895  -9.224  1.00 33.17 LIG-0.34  N 
ATOM      8  CA  PRO C  19     -12.720   8.096  -8.047  1.00 33.85 LIG 0.18  C 
ATOM      9  CD  PRO C  19     -12.324   8.083 -10.467  1.00 35.22 LIG 0.13  C 
ATOM     10  CB  PRO C  19     -13.265   6.800  -8.654  1.00 35.69 LIG 0.04  C 
ATOM     11  CG  PRO C  19     -12.662   6.701 -10.001  1.00 39.92 LIG 0.02  C 
ATOM     12 O    LEU C  18     -12.027  10.787  -7.987  1.00 31.40 LIG-0.27  OA
BRANCH 8 13
ATOM     13  C   PRO C  19     -11.595   7.852  -7.030  1.00 39.47 LIG 0.24  C 
ATOM     14  N   PHE C  20     -11.758   6.810  -6.211  1.00 41.20 LIG-0.35  N 
ATOM     15 H    PHE C  20     -12.448   6.298  -6.251  1.00 41.20 LIG 0.16  HD
ATOM     16 O    PRO C  19     -10.626   8.601  -6.961  1.00 36.20 LIG-0.27  OA
BRANCH 14 17
ATOM     17  CA  PHE C  20     -10.812   6.414  -5.169  1.00 43.59 LIG 0.18  C 
BRANCH 17 18
ATOM     18  C   PHE C  20     -10.668   7.556  -4.148  1.00 48.54 LIG 0.24  C 
ATOM     19  N   PRO C  21     -11.775   8.171  -3.655  1.00 46.41 LIG-0.34  N 
ATOM     20  CA  PRO C  21     -11.641   9.235  -2.630  1.00 51.72 LIG 0.17  C 
ATOM     21  CD  PRO C  21     -13.192   7.953  -4.005  1.00 49.19 LIG 0.13  C 
ATOM     22  CB  PRO C  21     -13.095   9.637  -2.332  1.00 52.56 LIG 0.04  C 
ATOM     23  CG  PRO C  21     -13.874   9.191  -3.503  1.00 54.82 LIG 0.02  C 
ATOM     24 O    PHE C  20      -9.532   7.868  -3.780  1.00 48.67 LIG-0.27  OA
BRANCH 20 25
ATOM     25  C   PRO C  21     -10.942   8.780  -1.348  1.00 87.57 LIG 0.22  C 
ATOM     26 O    PRO C  21     -11.272   7.724  -0.810  1.00 58.80 LIG-0.29  OA
ENDBRANCH 20 25
ENDBRANCH 17 18
BRANCH 17 27
ATOM     27  CB  PHE C  20      -9.449   6.070  -5.824  1.00 46.79 LIG 0.07  C 
BRANCH 27 28
ATOM     28  CG  PHE C  20      -8.344   5.574  -4.913  1.00 50.46 LIG-0.06  A 
ATOM     29  CD2 PHE C  20      -8.462   4.359  -4.244  1.00 54.33 LIG 0.01  A 
ATOM     30  CE2 PHE C  20      -7.438   3.901  -3.403  1.00 57.68 LIG 0.00  A 
ATOM     31  CZ  PHE C  20      -6.306   4.670  -3.210  1.00 55.81 LIG 0.00  A 
ATOM     32  CE1 PHE C  20      -6.178   5.883  -3.854  1.00 56.05 LIG 0.00  A 
ATOM     33  CD1 PHE C  20      -7.206   6.344  -4.686  1.00 54.84 LIG 0.01  A 
ENDBRANCH 27 28
ENDBRANCH 17 27
ENDBRANCH 14 17
ENDBRANCH 8 13
ENDBRANCH 5 6
BRANCH 5 34
ATOM     34  CB  LEU C  18     -11.154  12.389  -9.885  1.00 31.46 LIG 0.04  C 
BRANCH 34 35
ATOM     35  CG  LEU C  18      -9.675  12.672  -9.813  1.00 36.62 LIG-0.02  C 
ATOM     36  CD2 LEU C  18      -8.891  11.375  -9.938  1.00 38.91 LIG 0.01  C 
ATOM     37  CD1 LEU C  18      -9.345  13.384  -8.498  1.00 36.98 LIG 0.01  C 
ENDBRANCH 34 35
ENDBRANCH 5 34
ENDBRANCH 3 5
BRANCH 1 38
ATOM     38  CA  PRO C  17     -13.557  11.730 -13.437  1.00 33.71 LIG 0.18  C 
ATOM     39  CB  PRO C  17     -14.896  11.477 -12.737  1.00 36.04 LIG 0.04  C 
ATOM     40  CG  PRO C  17     -15.331  10.084 -13.143  1.00 41.66 LIG 0.02  C 
ATOM     41  CD  PRO C  17     -14.295   9.500 -14.056  1.00 37.74 LIG 0.13  C 
ATOM     42  N   PRO C  17     -13.496  10.679 -14.457  1.00 35.06 LIG-0.34  N 
ATOM     43  C   ARG C  16     -12.794  10.902 -15.584  1.00 37.80 LIG 0.24  C 
ATOM     44 O    ARG C  16     -12.206  11.968 -15.748  1.00 34.25 LIG-0.27  OA
BRANCH 43 45
ATOM     45  CA  ARG C  16     -12.747   9.833 -16.692  1.00 39.10 LIG 0.18  C 
BRANCH 45 46
ATOM     46  CB  ARG C  16     -12.465  10.497 -18.053  1.00 42.59 LIG 0.04  C 
BRANCH 46 47
ATOM     47  CG  ARG C  16     -10.996  10.517 -18.460  1.00 54.51 LIG 0.02  C 
BRANCH 47 48
ATOM     48  CD  ARG C  16     -10.488  11.926 -18.700  1.00 71.70 LIG 0.14  C 
BRANCH 48 49
ATOM     49  NE  ARG C  16     -11.586  12.899 -18.705  1.00 86.72 LIG-0.23  N 
ATOM     50 HE   ARG C  16     -11.922  13.124 -17.946  1.00 86.72 LIG 0.18  HD
ATOM     51  CZ  ARG C  16     -12.100  13.458 -19.797  1.00 98.48 LIG 0.67  C 
ATOM     52  NH2 ARG C  16     -13.102  14.323 -19.699  1.00 86.10 LIG-0.23  N 
ATOM     53  NH1 ARG C  16     -11.624  13.150 -20.997  1.00 81.98 LIG-0.23  N 
ATOM     54 2HH2 ARG C  16     -13.431  14.682 -20.408  1.00 86.10 LIG 0.17  HD
ATOM     55 1HH2 ARG C  16     -13.422  14.525 -18.927  1.00 86.10 LIG 0.17  HD
ATOM     56 1HH1 ARG C  16     -10.979  12.586 -21.071  1.00 81.98 LIG 0.17  HD
ATOM     57 2HH1 ARG C  16     -11.960  13.514 -21.699  1.00 81.98 LIG 0.17  HD
ENDBRANCH 48 49
ENDBRANCH 47 48
ENDBRANCH 46 47
ENDBRANCH 45 46
BRANCH 45 58
ATOM     58  N   ARG C  16     -14.021   9.108 -16.724  1.00 40.87 LIG-0.35  N 
ATOM     59  C   PRO C  15     -14.147   7.761 -16.684  1.00 47.02 LIG 0.25  C 
ATOM     60 O    PRO C  15     -13.185   6.993 -16.649  1.00 46.36 LIG-0.27  OA
ATOM     61 H    ARG C  16     -14.702   9.631 -16.773  1.00 40.87 LIG 0.16  HD
BRANCH 59 62
ATOM     62  CA  PRO C  15     -15.568   7.196 -16.638  1.00 46.56 LIG 0.35  C 
ATOM     63  N   PRO C  15     -15.819   6.161 -17.651  1.00 47.38 LIG 0.32  N 
ATOM     64  CD  PRO C  15     -16.113   4.855 -17.032  1.00 49.28 LIG 0.32  C 
ATOM     65  CG  PRO C  15     -16.586   5.229 -15.661  1.00 53.38 LIG 0.04  C 
ATOM     66  CB  PRO C  15     -15.823   6.465 -15.309  1.00 48.49 LIG 0.05  C 
ENDBRANCH 59 62
ENDBRANCH 45 58
ENDBRANCH 43 45
ENDBRANCH 1 38
TORSDOF 18
ENDMDL
MODEL 97
USER: ADFR SOLUTION from run 140
USER: SCORE 20.975718 LL:  -4.398 LR: -18.048 RR:   0.000 FEB: -12.678
USER: RMSD 14.047654
USER: SEED 139
USER: STATUS no improvement in best in 21 clusters for 5 generations
USER: GENES 20
USER: genes 0 Translation |==|  0.44017 0.47468 0.48614
USER: genes 1 Rotation |==|  0.99585 0.48563 0.48779 0.56146
USER: genes 2 Torsion [C]-N--CA-[CB] |==|  0.26755
USER: genes 3 Torsion [N]-CA--C-[N] |==|  0.45208
USER: genes 4 Torsion [N]-CA--C-[O] |==|  0.04299
USER: genes 5 Torsion [C]-N--CA-[C] |==|  0.87429
USER: genes 6 Torsion [N]-CA--C-[N] |==|  0.36597
USER: genes 7 Torsion [N]-CA--C-[O] |==|  0.69407
USER: genes 8 Torsion [N]-CA--CB-[CG] |==|  0.64914
USER: genes 9 Torsion [CA]-CB--CG-[CD1] |==|  0.78758
USER: genes 10 Torsion [N]-CA--CB-[CG] |==|  0.68654
USER: genes 11 Torsion [CA]-CB--CG-[CD2] |==|  0.98781
USER: genes 12 Torsion [O]-C--CA-[CB] |==|  0.35039
USER: genes 13 Torsion [N]-C--CA-[N] |==|  0.33640
USER: genes 14 Torsion [C]-CA--CB-[CG] |==|  0.16374
USER: genes 15 Torsion [CA]-CB--CG-[CD] |==|  0.13211
USER: genes 16 Torsion [CB]-CG--CD-[NE] |==|  0.16190
USER: genes 17 Torsion [CG]-CD--NE-[HE] |==|  0.87267
USER: genes 18 Torsion [C]-CA--N-[C] |==|  0.82778
USER: genes 19 Torsion [N]-C--CA-[CB] |==|  0.51304
ROOT
ATOM      1  C   PRO C  17     -12.690   8.896 -10.771  1.00 34.10 LIG 0.24  C 
ATOM      2 O    PRO C  17     -13.798   8.376 -10.879  1.00 31.91 LIG-0.27  OA
ATOM      3  N   LEU C  18     -11.884   8.653  -9.755  1.00 30.88 LIG-0.35  N 
ATOM      4 H    LEU C  18     -11.133   9.056  -9.646  1.00 30.88 LIG 0.16  HD
ENDROOT
BRANCH 3 5
ATOM      5  CA  LEU C  18     -12.178   7.679  -8.714  1.00 30.78 LIG 0.18  C 
BRANCH 5 6
ATOM      6  C   LEU C  18     -11.745   8.121  -7.326  1.00 33.73 LIG 0.24  C 
ATOM      7  N   PRO C  19     -12.279   7.472  -6.258  1.00 33.17 LIG-0.34  N 
ATOM      8  CA  PRO C  19     -11.841   7.824  -4.890  1.00 33.85 LIG 0.18  C 
ATOM      9  CD  PRO C  19     -13.318   6.412  -6.246  1.00 35.22 LIG 0.13  C 
ATOM     10  CB  PRO C  19     -12.871   7.135  -3.989  1.00 35.69 LIG 0.04  C 
ATOM     11  CG  PRO C  19     -13.451   6.044  -4.802  1.00 39.92 LIG 0.02  C 
ATOM     12 O    LEU C  18     -10.861   8.974  -7.223  1.00 31.40 LIG-0.27  OA
BRANCH 8 13
ATOM     13  C   PRO C  19     -10.395   7.420  -4.562  1.00 39.47 LIG 0.24  C 
ATOM     14  N   PHE C  20     -10.052   7.460  -3.272  1.00 41.20 LIG-0.35  N 
ATOM     15 H    PHE C  20     -10.606   7.690  -2.656  1.00 41.20 LIG 0.16  HD
ATOM     16 O    PRO C  19      -9.603   7.117  -5.447  1.00 36.20 LIG-0.27  OA
BRANCH 14 17
ATOM     17  CA  PHE C  20      -8.727   7.125  -2.752  1.00 43.59 LIG 0.18  C 
BRANCH 17 18
ATOM     18  C   PHE C  20      -8.233   5.825  -3.412  1.00 48.54 LIG 0.24  C 
ATOM     19  N   PRO C  21      -6.978   5.762  -3.933  1.00 46.41 LIG-0.34  N 
ATOM     20  CA  PRO C  21      -6.480   4.494  -4.521  1.00 51.72 LIG 0.17  C 
ATOM     21  CD  PRO C  21      -5.960   6.825  -4.035  1.00 49.19 LIG 0.13  C 
ATOM     22  CB  PRO C  21      -5.047   4.837  -4.960  1.00 52.56 LIG 0.04  C 
ATOM     23  CG  PRO C  21      -5.012   6.308  -5.074  1.00 54.82 LIG 0.02  C 
ATOM     24 O    PHE C  20      -8.992   4.853  -3.426  1.00 48.67 LIG-0.27  OA
BRANCH 20 25
ATOM     25  C   PRO C  21      -6.470   3.317  -3.544  1.00 87.57 LIG 0.22  C 
ATOM     26 O    PRO C  21      -5.400   2.865  -3.139  1.00 58.80 LIG-0.29  OA
ENDBRANCH 20 25
ENDBRANCH 17 18
BRANCH 17 27
ATOM     27  CB  PHE C  20      -8.809   6.976  -1.211  1.00 46.79 LIG 0.07  C 
BRANCH 27 28
ATOM     28  CG  PHE C  20      -7.845   7.798  -0.379  1.00 50.46 LIG-0.06  A 
ATOM     29  CD2 PHE C  20      -8.262   8.969   0.248  1.00 54.33 LIG 0.01  A 
ATOM     30  CE2 PHE C  20      -7.369   9.727   1.018  1.00 57.68 LIG 0.00  A 
ATOM     31  CZ  PHE C  20      -6.051   9.330   1.140  1.00 55.81 LIG 0.00  A 
ATOM     32  CE1 PHE C  20      -5.617   8.180   0.514  1.00 56.05 LIG 0.00  A 
ATOM     33  CD1 PHE C  20      -6.507   7.429  -0.263  1.00 54.84 LIG 0.01  A 
ENDBRANCH 27 28
ENDBRANCH 17 27
ENDBRANCH 14 17
ENDBRANCH 8 13
ENDBRANCH 5 6
BRANCH 5 34
ATOM     34  CB  LEU C  18     -11.483   6.362  -9.052  1.00 31.46 LIG 0.04  C 
BRANCH 34 35
ATOM     35  CG  LEU C  18     -12.380   5.201  -9.394  1.00 36.62 LIG-0.02  C 
ATOM     36  CD2 LEU C  18     -13.837   5.599  -9.214  1.00 38.91 LIG 0.01  C 
ATOM     37  CD1 LEU C  18     -12.032   3.996  -8.515  1.00 36.98 LIG 0.01  C 
ENDBRANCH 34 35
ENDBRANCH 5 34
ENDBRANCH 3 5
BRANCH 1 38
ATOM     38  CA  PRO C  17     -12.186   9.934 -11.765  1.00 33.71 LIG 0.18  C 
ATOM     39  CB  PRO C  17     -11.728  11.230 -11.088  1.00 36.04 LIG 0.04  C 
ATOM     40  CG  PRO C  17     -12.754  12.284 -11.450  1.00 41.66 LIG 0.02  C 
ATOM     41  CD  PRO C  17     -13.808  11.658 -12.313  1.00 37.74 LIG 0.13  C 
ATOM     42  N   PRO C  17     -13.182  10.387 -12.741  1.00 35.06 LIG-0.34  N 
ATOM     43  C   ARG C  16     -13.379   9.662 -13.859  1.00 37.80 LIG 0.24  C 
ATOM     44 O    ARG C  16     -12.738   8.632 -14.050  1.00 34.25 LIG-0.27  OA
BRANCH 43 45
ATOM     45  CA  ARG C  16     -14.388  10.136 -14.922  1.00 39.10 LIG 0.18  C 
BRANCH 45 46
ATOM     46  CB  ARG C  16     -15.527   9.109 -15.062  1.00 42.59 LIG 0.04  C 
BRANCH 46 47
ATOM     47  CG  ARG C  16     -16.309   8.846 -13.779  1.00 54.51 LIG 0.02  C 
BRANCH 47 48
ATOM     48  CD  ARG C  16     -16.712  10.131 -13.083  1.00 71.70 LIG 0.14  C 
BRANCH 48 49
ATOM     49  NE  ARG C  16     -17.527  10.982 -13.956  1.00 86.72 LIG-0.23  N 
ATOM     50 HE   ARG C  16     -17.260  11.094 -14.766  1.00 86.72 LIG 0.18  HD
ATOM     51  CZ  ARG C  16     -18.650  11.594 -13.587  1.00 98.48 LIG 0.67  C 
ATOM     52  NH2 ARG C  16     -19.315  12.352 -14.450  1.00 86.10 LIG-0.23  N 
ATOM     53  NH1 ARG C  16     -19.112  11.459 -12.350  1.00 81.98 LIG-0.23  N 
ATOM     54 2HH2 ARG C  16     -20.040  12.745 -14.206  1.00 86.10 LIG 0.17  HD
ATOM     55 1HH2 ARG C  16     -19.020  12.451 -15.251  1.00 86.10 LIG 0.17  HD
ATOM     56 1HH1 ARG C  16     -18.686  10.975 -11.782  1.00 81.98 LIG 0.17  HD
ATOM     57 2HH1 ARG C  16     -19.838  11.856 -12.117  1.00 81.98 LIG 0.17  HD
ENDBRANCH 48 49
ENDBRANCH 47 48
ENDBRANCH 46 47
ENDBRANCH 45 46
BRANCH 45 58
ATOM     58  N   ARG C  16     -13.696  10.319 -16.202  1.00 40.87 LIG-0.35  N 
ATOM     59  C   PRO C  15     -12.693  11.201 -16.421  1.00 47.02 LIG 0.25  C 
ATOM     60 O    PRO C  15     -12.275  11.977 -15.561  1.00 46.36 LIG-0.27  OA
ATOM     61 H    ARG C  16     -13.993   9.801 -16.820  1.00 40.87 LIG 0.16  HD
BRANCH 59 62
ATOM     62  CA  PRO C  15     -12.039  11.181 -17.804  1.00 46.56 LIG 0.35  C 
ATOM     63  N   PRO C  15     -12.922  11.662 -18.876  1.00 47.38 LIG 0.32  N 
ATOM     64  CD  PRO C  15     -12.398  12.891 -19.502  1.00 49.28 LIG 0.32  C 
ATOM     65  CG  PRO C  15     -10.935  12.833 -19.187  1.00 53.38 LIG 0.04  C 
ATOM     66  CB  PRO C  15     -10.848  12.153 -17.859  1.00 48.49 LIG 0.05  C 
ENDBRANCH 59 62
ENDBRANCH 45 58
ENDBRANCH 43 45
ENDBRANCH 1 38
TORSDOF 18
ENDMDL
MODEL 98
USER: ADFR SOLUTION from run 68
USER: SCORE 22.630758 LL:  -5.409 LR: -18.043 RR:   0.000 FEB: -12.674
USER: RMSD 12.762158
USER: SEED 67
USER: STATUS searching
USER: GENES 20
USER: genes 0 Translation |==|  0.43428 0.48474 0.47469
USER: genes 1 Rotation |==|  0.91833 0.33245 0.36179 0.66681
USER: genes 2 Torsion [C]-N--CA-[CB] |==|  0.77778
USER: genes 3 Torsion [N]-CA--C-[N] |==|  0.24152
USER: genes 4 Torsion [N]-CA--C-[O] |==|  0.74227
USER: genes 5 Torsion [C]-N--CA-[C] |==|  0.65930
USER: genes 6 Torsion [N]-CA--C-[N] |==|  0.17884
USER: genes 7 Torsion [N]-CA--C-[O] |==|  0.72318
USER: genes 8 Torsion [N]-CA--CB-[CG] |==|  0.81488
USER: genes 9 Torsion [CA]-CB--CG-[CD1] |==|  0.67143
USER: genes 10 Torsion [N]-CA--CB-[CG] |==|  0.00612
USER: genes 11 Torsion [CA]-CB--CG-[CD2] |==|  0.73866
USER: genes 12 Torsion [O]-C--CA-[CB] |==|  0.33428
USER: genes 13 Torsion [N]-C--CA-[N] |==|  0.39165
USER: genes 14 Torsion [C]-CA--CB-[CG] |==|  0.31428
USER: genes 15 Torsion [CA]-CB--CG-[CD] |==|  0.74814
USER: genes 16 Torsion [CB]-CG--CD-[NE] |==|  0.41430
USER: genes 17 Torsion [CG]-CD--NE-[HE] |==|  0.10548
USER: genes 18 Torsion [C]-CA--N-[C] |==|  0.84348
USER: genes 19 Torsion [N]-C--CA-[CB] |==|  0.01753
ROOT
ATOM      1  C   PRO C  17     -12.796   9.077 -11.140  1.00 34.10 LIG 0.24  C 
ATOM      2 O    PRO C  17     -13.862   9.469 -10.670  1.00 31.91 LIG-0.27  OA
ATOM      3  N   LEU C  18     -11.814   8.615 -10.390  1.00 30.88 LIG-0.35  N 
ATOM      4 H    LEU C  18     -11.047   8.393 -10.708  1.00 30.88 LIG 0.16  HD
ENDROOT
BRANCH 3 5
ATOM      5  CA  LEU C  18     -11.923   8.431  -8.950  1.00 30.78 LIG 0.18  C 
BRANCH 5 6
ATOM      6  C   LEU C  18     -13.252   7.841  -8.510  1.00 33.73 LIG 0.24  C 
ATOM      7  N   PRO C  19     -13.371   6.488  -8.493  1.00 33.17 LIG-0.34  N 
ATOM      8  CA  PRO C  19     -14.623   5.866  -8.011  1.00 33.85 LIG 0.18  C 
ATOM      9  CD  PRO C  19     -12.386   5.468  -8.932  1.00 35.22 LIG 0.13  C 
ATOM     10  CB  PRO C  19     -14.492   4.402  -8.442  1.00 35.69 LIG 0.04  C 
ATOM     11  CG  PRO C  19     -13.044   4.161  -8.619  1.00 39.92 LIG 0.02  C 
ATOM     12 O    LEU C  18     -14.130   8.600  -8.094  1.00 31.40 LIG-0.27  OA
BRANCH 8 13
ATOM     13  C   PRO C  19     -14.874   6.024  -6.504  1.00 39.47 LIG 0.24  C 
ATOM     14  N   PHE C  20     -15.472   7.155  -6.122  1.00 41.20 LIG-0.35  N 
ATOM     15 H    PHE C  20     -15.711   7.761  -6.684  1.00 41.20 LIG 0.16  HD
ATOM     16 O    PRO C  19     -14.508   5.168  -5.705  1.00 36.20 LIG-0.27  OA
BRANCH 14 17
ATOM     17  CA  PHE C  20     -15.790   7.503  -4.738  1.00 43.59 LIG 0.18  C 
BRANCH 17 18
ATOM     18  C   PHE C  20     -17.302   7.765  -4.612  1.00 48.54 LIG 0.24  C 
ATOM     19  N   PRO C  21     -18.187   6.757  -4.831  1.00 46.41 LIG-0.34  N 
ATOM     20  CA  PRO C  21     -19.641   6.993  -4.656  1.00 51.72 LIG 0.17  C 
ATOM     21  CD  PRO C  21     -17.927   5.369  -5.259  1.00 49.19 LIG 0.13  C 
ATOM     22  CB  PRO C  21     -20.270   5.625  -4.968  1.00 52.56 LIG 0.04  C 
ATOM     23  CG  PRO C  21     -19.259   4.898  -5.760  1.00 54.82 LIG 0.02  C 
ATOM     24 O    PHE C  20     -17.671   8.895  -4.284  1.00 48.67 LIG-0.27  OA
BRANCH 20 25
ATOM     25  C   PRO C  21     -20.033   7.450  -3.250  1.00 87.57 LIG 0.22  C 
ATOM     26 O    PRO C  21     -20.490   6.640  -2.446  1.00 58.80 LIG-0.29  OA
ENDBRANCH 20 25
ENDBRANCH 17 18
BRANCH 17 27
ATOM     27  CB  PHE C  20     -14.967   8.751  -4.326  1.00 46.79 LIG 0.07  C 
BRANCH 27 28
ATOM     28  CG  PHE C  20     -13.463   8.594  -4.231  1.00 50.46 LIG-0.06  A 
ATOM     29  CD2 PHE C  20     -12.715   8.202  -5.338  1.00 54.33 LIG 0.01  A 
ATOM     30  CE2 PHE C  20     -11.324   8.058  -5.249  1.00 57.68 LIG 0.00  A 
ATOM     31  CZ  PHE C  20     -10.681   8.281  -4.046  1.00 55.81 LIG 0.00  A 
ATOM     32  CE1 PHE C  20     -11.407   8.656  -2.936  1.00 56.05 LIG 0.00  A 
ATOM     33  CD1 PHE C  20     -12.799   8.790  -3.023  1.00 54.84 LIG 0.01  A 
ENDBRANCH 27 28
ENDBRANCH 17 27
ENDBRANCH 14 17
ENDBRANCH 8 13
ENDBRANCH 5 6
BRANCH 5 34
ATOM     34  CB  LEU C  18     -11.728   9.779  -8.260  1.00 31.46 LIG 0.04  C 
BRANCH 34 35
ATOM     35  CG  LEU C  18     -11.527  10.969  -9.161  1.00 36.62 LIG-0.02  C 
ATOM     36  CD2 LEU C  18     -10.041  11.223  -9.365  1.00 38.91 LIG 0.01  C 
ATOM     37  CD1 LEU C  18     -12.213  12.200  -8.561  1.00 36.98 LIG 0.01  C 
ENDBRANCH 34 35
ENDBRANCH 5 34
ENDBRANCH 3 5
BRANCH 1 38
ATOM     38  CA  PRO C  17     -12.488   9.171 -12.628  1.00 33.71 LIG 0.18  C 
ATOM     39  CB  PRO C  17     -11.247  10.019 -12.925  1.00 36.04 LIG 0.04  C 
ATOM     40  CG  PRO C  17     -11.747  11.290 -13.578  1.00 41.66 LIG 0.02  C 
ATOM     41  CD  PRO C  17     -13.242  11.230 -13.675  1.00 37.74 LIG 0.13  C 
ATOM     42  N   PRO C  17     -13.537   9.799 -13.437  1.00 35.06 LIG-0.34  N 
ATOM     43  C   ARG C  16     -14.566   9.047 -13.872  1.00 37.80 LIG 0.24  C 
ATOM     44 O    ARG C  16     -14.626   7.854 -13.585  1.00 34.25 LIG-0.27  OA
BRANCH 43 45
ATOM     45  CA  ARG C  16     -15.661   9.670 -14.759  1.00 39.10 LIG 0.18  C 
BRANCH 45 46
ATOM     46  CB  ARG C  16     -16.872  10.071 -13.896  1.00 42.59 LIG 0.04  C 
BRANCH 46 47
ATOM     47  CG  ARG C  16     -17.118  11.574 -13.804  1.00 54.51 LIG 0.02  C 
BRANCH 47 48
ATOM     48  CD  ARG C  16     -16.396  12.200 -12.628  1.00 71.70 LIG 0.14  C 
BRANCH 48 49
ATOM     49  NE  ARG C  16     -16.013  13.588 -12.911  1.00 86.72 LIG-0.23  N 
ATOM     50 HE   ARG C  16     -16.565  14.069 -13.361  1.00 86.72 LIG 0.18  HD
ATOM     51  CZ  ARG C  16     -14.874  14.156 -12.522  1.00 98.48 LIG 0.67  C 
ATOM     52  NH2 ARG C  16     -14.614  15.419 -12.835  1.00 86.10 LIG-0.23  N 
ATOM     53  NH1 ARG C  16     -13.983  13.464 -11.824  1.00 81.98 LIG-0.23  N 
ATOM     54 2HH2 ARG C  16     -13.877  15.782 -12.582  1.00 86.10 LIG 0.17  HD
ATOM     55 1HH2 ARG C  16     -15.182  15.875 -13.292  1.00 86.10 LIG 0.17  HD
ATOM     56 1HH1 ARG C  16     -14.139  12.643 -11.621  1.00 81.98 LIG 0.17  HD
ATOM     57 2HH1 ARG C  16     -13.249  13.836 -11.575  1.00 81.98 LIG 0.17  HD
ENDBRANCH 48 49
ENDBRANCH 47 48
ENDBRANCH 46 47
ENDBRANCH 45 46
BRANCH 45 58
ATOM     58  N   ARG C  16     -16.057   8.707 -15.791  1.00 40.87 LIG-0.35  N 
ATOM     59  C   PRO C  15     -15.212   8.130 -16.678  1.00 47.02 LIG 0.25  C 
ATOM     60 O    PRO C  15     -14.008   8.386 -16.729  1.00 46.36 LIG-0.27  OA
ATOM     61 H    ARG C  16     -16.900   8.536 -15.783  1.00 40.87 LIG 0.16  HD
BRANCH 59 62
ATOM     62  CA  PRO C  15     -15.805   7.082 -17.622  1.00 46.56 LIG 0.35  C 
ATOM     63  N   PRO C  15     -15.361   5.712 -17.327  1.00 47.38 LIG 0.32  N 
ATOM     64  CD  PRO C  15     -16.488   4.852 -16.919  1.00 49.28 LIG 0.32  C 
ATOM     65  CG  PRO C  15     -17.676   5.552 -17.504  1.00 53.38 LIG 0.04  C 
ATOM     66  CB  PRO C  15     -17.332   7.005 -17.463  1.00 48.49 LIG 0.05  C 
ENDBRANCH 59 62
ENDBRANCH 45 58
ENDBRANCH 43 45
ENDBRANCH 1 38
TORSDOF 18
ENDMDL
MODEL 99
USER: ADFR SOLUTION from run 99
USER: SCORE 20.696901 LL:  -4.338 LR: -18.018 RR:   0.000 FEB: -12.648
USER: RMSD 13.871513
USER: SEED 98
USER: STATUS no improvement in best in 8 clusters for 5 generations
USER: GENES 20
USER: genes 0 Translation |==|  0.45810 0.47949 0.51960
USER: genes 1 Rotation |==|  0.99304 0.45196 0.46173 0.55604
USER: genes 2 Torsion [C]-N--CA-[CB] |==|  0.27753
USER: genes 3 Torsion [N]-CA--C-[N] |==|  0.32614
USER: genes 4 Torsion [N]-CA--C-[O] |==|  0.82117
USER: genes 5 Torsion [C]-N--CA-[C] |==|  0.83624
USER: genes 6 Torsion [N]-CA--C-[N] |==|  0.87444
USER: genes 7 Torsion [N]-CA--C-[O] |==|  0.87119
USER: genes 8 Torsion [N]-CA--CB-[CG] |==|  0.70126
USER: genes 9 Torsion [CA]-CB--CG-[CD1] |==|  0.27678
USER: genes 10 Torsion [N]-CA--CB-[CG] |==|  0.65536
USER: genes 11 Torsion [CA]-CB--CG-[CD2] |==|  0.31539
USER: genes 12 Torsion [O]-C--CA-[CB] |==|  0.29395
USER: genes 13 Torsion [N]-C--CA-[N] |==|  0.87296
USER: genes 14 Torsion [C]-CA--CB-[CG] |==|  0.64225
USER: genes 15 Torsion [CA]-CB--CG-[CD] |==|  0.27545
USER: genes 16 Torsion [CB]-CG--CD-[NE] |==|  0.57515
USER: genes 17 Torsion [CG]-CD--NE-[HE] |==|  0.90798
USER: genes 18 Torsion [C]-CA--N-[C] |==|  0.69101
USER: genes 19 Torsion [N]-C--CA-[CB] |==|  0.36433
ROOT
ATOM      1  C   PRO C  17     -12.367   8.983  -9.692  1.00 34.10 LIG 0.24  C 
ATOM      2 O    PRO C  17     -13.545   8.632  -9.709  1.00 31.91 LIG-0.27  OA
ATOM      3  N   LEU C  18     -11.523   8.598  -8.754  1.00 30.88 LIG-0.35  N 
ATOM      4 H    LEU C  18     -10.714   8.884  -8.705  1.00 30.88 LIG 0.16  HD
ENDROOT
BRANCH 3 5
ATOM      5  CA  LEU C  18     -11.868   7.650  -7.704  1.00 30.78 LIG 0.18  C 
BRANCH 5 6
ATOM      6  C   LEU C  18     -11.331   8.034  -6.336  1.00 33.73 LIG 0.24  C 
ATOM      7  N   PRO C  19     -12.230   8.286  -5.348  1.00 33.17 LIG-0.34  N 
ATOM      8  CA  PRO C  19     -11.754   8.601  -3.984  1.00 33.85 LIG 0.18  C 
ATOM      9  CD  PRO C  19     -13.711   8.319  -5.435  1.00 35.22 LIG 0.13  C 
ATOM     10  CB  PRO C  19     -13.006   9.124  -3.274  1.00 35.69 LIG 0.04  C 
ATOM     11  CG  PRO C  19     -14.156   8.582  -4.030  1.00 39.92 LIG 0.02  C 
ATOM     12 O    LEU C  18     -10.113   8.006  -6.147  1.00 31.40 LIG-0.27  OA
BRANCH 8 13
ATOM     13  C   PRO C  19     -11.101   7.420  -3.249  1.00 39.47 LIG 0.24  C 
ATOM     14  N   PHE C  20      -9.797   7.537  -2.991  1.00 41.20 LIG-0.35  N 
ATOM     15 H    PHE C  20      -9.344   8.234  -3.214  1.00 41.20 LIG 0.16  HD
ATOM     16 O    PRO C  19     -11.746   6.419  -2.955  1.00 36.20 LIG-0.27  OA
BRANCH 14 17
ATOM     17  CA  PHE C  20      -8.988   6.526  -2.312  1.00 43.59 LIG 0.18  C 
BRANCH 17 18
ATOM     18  C   PHE C  20      -9.573   6.257  -0.914  1.00 48.54 LIG 0.24  C 
ATOM     19  N   PRO C  21      -9.944   7.298  -0.121  1.00 46.41 LIG-0.34  N 
ATOM     20  CA  PRO C  21     -10.558   7.040   1.204  1.00 51.72 LIG 0.17  C 
ATOM     21  CD  PRO C  21      -9.814   8.747  -0.368  1.00 49.19 LIG 0.13  C 
ATOM     22  CB  PRO C  21     -10.845   8.449   1.751  1.00 52.56 LIG 0.04  C 
ATOM     23  CG  PRO C  21      -9.955   9.352   0.996  1.00 54.82 LIG 0.02  C 
ATOM     24 O    PHE C  20      -9.715   5.085  -0.558  1.00 48.67 LIG-0.27  OA
BRANCH 20 25
ATOM     25  C   PRO C  21     -11.848   6.221   1.144  1.00 87.57 LIG 0.22  C 
ATOM     26 O    PRO C  21     -12.719   6.506   0.325  1.00 58.80 LIG-0.29  OA
ENDBRANCH 20 25
ENDBRANCH 17 18
BRANCH 17 27
ATOM     27  CB  PHE C  20      -7.522   7.023  -2.222  1.00 46.79 LIG 0.07  C 
BRANCH 27 28
ATOM     28  CG  PHE C  20      -6.502   6.352  -3.120  1.00 50.46 LIG-0.06  A 
ATOM     29  CD2 PHE C  20      -5.910   5.147  -2.751  1.00 54.33 LIG 0.01  A 
ATOM     30  CE2 PHE C  20      -4.967   4.528  -3.583  1.00 57.68 LIG 0.00  A 
ATOM     31  CZ  PHE C  20      -4.596   5.126  -4.773  1.00 55.81 LIG 0.00  A 
ATOM     32  CE1 PHE C  20      -5.161   6.326  -5.147  1.00 56.05 LIG 0.00  A 
ATOM     33  CD1 PHE C  20      -6.096   6.950  -4.310  1.00 54.84 LIG 0.01  A 
ENDBRANCH 27 28
ENDBRANCH 17 27
ENDBRANCH 14 17
ENDBRANCH 8 13
ENDBRANCH 5 6
BRANCH 5 34
ATOM     34  CB  LEU C  18     -11.327   6.272  -8.078  1.00 31.46 LIG 0.04  C 
BRANCH 34 35
ATOM     35  CG  LEU C  18     -12.332   5.150  -8.127  1.00 36.62 LIG-0.02  C 
ATOM     36  CD2 LEU C  18     -12.489   4.655  -9.557  1.00 38.91 LIG 0.01  C 
ATOM     37  CD1 LEU C  18     -13.674   5.628  -7.566  1.00 36.98 LIG 0.01  C 
ENDBRANCH 34 35
ENDBRANCH 5 34
ENDBRANCH 3 5
BRANCH 1 38
ATOM     38  CA  PRO C  17     -11.802   9.962 -10.712  1.00 33.71 LIG 0.18  C 
ATOM     39  CB  PRO C  17     -11.556  11.355 -10.124  1.00 36.04 LIG 0.04  C 
ATOM     40  CG  PRO C  17     -12.595  12.267 -10.743  1.00 41.66 LIG 0.02  C 
ATOM     41  CD  PRO C  17     -13.452  11.463 -11.673  1.00 37.74 LIG 0.13  C 
ATOM     42  N   PRO C  17     -12.670  10.222 -11.865  1.00 35.06 LIG-0.34  N 
ATOM     43  C   ARG C  16     -12.637   9.376 -12.912  1.00 37.80 LIG 0.24  C 
ATOM     44 O    ARG C  16     -11.896   8.396 -12.895  1.00 34.25 LIG-0.27  OA
BRANCH 43 45
ATOM     45  CA  ARG C  16     -13.507   9.646 -14.154  1.00 39.10 LIG 0.18  C 
BRANCH 45 46
ATOM     46  CB  ARG C  16     -12.884  10.774 -14.998  1.00 42.59 LIG 0.04  C 
BRANCH 46 47
ATOM     47  CG  ARG C  16     -13.845  11.902 -15.362  1.00 54.51 LIG 0.02  C 
BRANCH 47 48
ATOM     48  CD  ARG C  16     -13.690  13.102 -14.448  1.00 71.70 LIG 0.14  C 
BRANCH 48 49
ATOM     49  NE  ARG C  16     -14.937  13.868 -14.351  1.00 86.72 LIG-0.23  N 
ATOM     50 HE   ARG C  16     -15.442  13.896 -15.047  1.00 86.72 LIG 0.18  HD
ATOM     51  CZ  ARG C  16     -15.345  14.521 -13.266  1.00 98.48 LIG 0.67  C 
ATOM     52  NH2 ARG C  16     -16.488  15.195 -13.279  1.00 86.10 LIG-0.23  N 
ATOM     53  NH1 ARG C  16     -14.608  14.514 -12.162  1.00 81.98 LIG-0.23  N 
ATOM     54 2HH2 ARG C  16     -16.747  15.616 -12.576  1.00 86.10 LIG 0.17  HD
ATOM     55 1HH2 ARG C  16     -16.970  15.210 -13.991  1.00 86.10 LIG 0.17  HD
ATOM     56 1HH1 ARG C  16     -13.863  14.086 -12.145  1.00 81.98 LIG 0.17  HD
ATOM     57 2HH1 ARG C  16     -14.876  14.938 -11.464  1.00 81.98 LIG 0.17  HD
ENDBRANCH 48 49
ENDBRANCH 47 48
ENDBRANCH 46 47
ENDBRANCH 45 46
BRANCH 45 58
ATOM     58  N   ARG C  16     -14.864  10.006 -13.730  1.00 40.87 LIG-0.35  N 
ATOM     59  C   PRO C  15     -15.963   9.238 -13.917  1.00 47.02 LIG 0.25  C 
ATOM     60 O    PRO C  15     -15.939   8.155 -14.502  1.00 46.36 LIG-0.27  OA
ATOM     61 H    ARG C  16     -14.900  10.772 -13.340  1.00 40.87 LIG 0.16  HD
BRANCH 59 62
ATOM     62  CA  PRO C  15     -17.277   9.750 -13.323  1.00 46.56 LIG 0.35  C 
ATOM     63  N   PRO C  15     -17.234  11.168 -12.941  1.00 47.38 LIG 0.32  N 
ATOM     64  CD  PRO C  15     -18.179  11.975 -13.736  1.00 49.28 LIG 0.32  C 
ATOM     65  CG  PRO C  15     -19.180  10.962 -14.200  1.00 53.38 LIG 0.04  C 
ATOM     66  CB  PRO C  15     -18.405   9.695 -14.367  1.00 48.49 LIG 0.05  C 
ENDBRANCH 59 62
ENDBRANCH 45 58
ENDBRANCH 43 45
ENDBRANCH 1 38
TORSDOF 18
ENDMDL
MODEL 100
USER: ADFR SOLUTION from run 34
USER: SCORE 22.336771 LL:  -5.699 LR: -18.020 RR:   0.000 FEB: -12.651
USER: RMSD 4.134466
USER: SEED 33
USER: STATUS no improvement in best in 9 clusters for 5 generations
USER: GENES 20
USER: genes 0 Translation |==|  0.44175 0.40554 0.52576
USER: genes 1 Rotation |==|  0.48335 0.48797 0.58721 0.99191
USER: genes 2 Torsion [C]-N--CA-[CB] |==|  0.28852
USER: genes 3 Torsion [N]-CA--C-[N] |==|  0.31448
USER: genes 4 Torsion [N]-CA--C-[O] |==|  0.16926
USER: genes 5 Torsion [C]-N--CA-[C] |==|  0.13889
USER: genes 6 Torsion [N]-CA--C-[N] |==|  0.14307
USER: genes 7 Torsion [N]-CA--C-[O] |==|  0.32087
USER: genes 8 Torsion [N]-CA--CB-[CG] |==|  0.98053
USER: genes 9 Torsion [CA]-CB--CG-[CD1] |==|  0.80633
USER: genes 10 Torsion [N]-CA--CB-[CG] |==|  0.02566
USER: genes 11 Torsion [CA]-CB--CG-[CD2] |==|  0.71506
USER: genes 12 Torsion [O]-C--CA-[CB] |==|  0.21836
USER: genes 13 Torsion [N]-C--CA-[N] |==|  0.37424
USER: genes 14 Torsion [C]-CA--CB-[CG] |==|  0.29780
USER: genes 15 Torsion [CA]-CB--CG-[CD] |==|  0.82229
USER: genes 16 Torsion [CB]-CG--CD-[NE] |==|  0.64731
USER: genes 17 Torsion [CG]-CD--NE-[HE] |==|  0.00180
USER: genes 18 Torsion [C]-CA--N-[C] |==|  0.82810
USER: genes 19 Torsion [N]-C--CA-[CB] |==|  0.60685
ROOT
ATOM      1  C   PRO C  17     -12.662   7.652  -9.493  1.00 34.10 LIG 0.24  C 
ATOM      2 O    PRO C  17     -13.863   7.801  -9.280  1.00 31.91 LIG-0.27  OA
ATOM      3  N   LEU C  18     -12.027   8.280 -10.465  1.00 30.88 LIG-0.35  N 
ATOM      4 H    LEU C  18     -11.201   8.137 -10.654  1.00 30.88 LIG 0.16  HD
ENDROOT
BRANCH 3 5
ATOM      5  CA  LEU C  18     -12.655   9.279 -11.318  1.00 30.78 LIG 0.18  C 
BRANCH 5 6
ATOM      6  C   LEU C  18     -12.348   9.099 -12.795  1.00 33.73 LIG 0.24  C 
ATOM      7  N   PRO C  19     -13.372   8.754 -13.619  1.00 33.17 LIG-0.34  N 
ATOM      8  CA  PRO C  19     -13.135   8.630 -15.073  1.00 33.85 LIG 0.18  C 
ATOM      9  CD  PRO C  19     -14.778   8.441 -13.262  1.00 35.22 LIG 0.13  C 
ATOM     10  CB  PRO C  19     -14.399   7.935 -15.590  1.00 35.69 LIG 0.04  C 
ATOM     11  CG  PRO C  19     -15.446   8.200 -14.580  1.00 39.92 LIG 0.02  C 
ATOM     12 O    LEU C  18     -11.216   9.365 -13.203  1.00 31.40 LIG-0.27  OA
BRANCH 8 13
ATOM     13  C   PRO C  19     -12.852   9.960 -15.788  1.00 39.47 LIG 0.24  C 
ATOM     14  N   PHE C  20     -13.692  10.291 -16.771  1.00 41.20 LIG-0.35  N 
ATOM     15 H    PHE C  20     -14.359   9.795 -16.992  1.00 41.20 LIG 0.16  HD
ATOM     16 O    PRO C  19     -11.884  10.651 -15.486  1.00 36.20 LIG-0.27  OA
BRANCH 14 17
ATOM     17  CA  PHE C  20     -13.592  11.505 -17.579  1.00 43.59 LIG 0.18  C 
BRANCH 17 18
ATOM     18  C   PHE C  20     -12.156  11.646 -18.114  1.00 48.54 LIG 0.24  C 
ATOM     19  N   PRO C  21     -11.565  10.606 -18.761  1.00 46.41 LIG-0.34  N 
ATOM     20  CA  PRO C  21     -10.202  10.759 -19.325  1.00 51.72 LIG 0.17  C 
ATOM     21  CD  PRO C  21     -12.085   9.246 -19.001  1.00 49.19 LIG 0.13  C 
ATOM     22  CB  PRO C  21      -9.926   9.394 -19.978  1.00 52.56 LIG 0.04  C 
ATOM     23  CG  PRO C  21     -10.857   8.452 -19.330  1.00 54.82 LIG 0.02  C 
ATOM     24 O    PHE C  20     -11.582  12.727 -17.961  1.00 48.67 LIG-0.27  OA
BRANCH 20 25
ATOM     25  C   PRO C  21     -10.078  11.879 -20.360  1.00 87.57 LIG 0.22  C 
ATOM     26 O    PRO C  21      -9.363  12.852 -20.128  1.00 58.80 LIG-0.29  OA
ENDBRANCH 20 25
ENDBRANCH 17 18
BRANCH 17 27
ATOM     27  CB  PHE C  20     -13.992  12.727 -16.713  1.00 46.79 LIG 0.07  C 
BRANCH 27 28
ATOM     28  CG  PHE C  20     -14.544  12.450 -15.329  1.00 50.46 LIG-0.06  A 
ATOM     29  CD2 PHE C  20     -13.788  12.721 -14.192  1.00 54.33 LIG 0.01  A 
ATOM     30  CE2 PHE C  20     -14.301  12.465 -12.913  1.00 57.68 LIG 0.00  A 
ATOM     31  CZ  PHE C  20     -15.560  11.913 -12.770  1.00 55.81 LIG 0.00  A 
ATOM     32  CE1 PHE C  20     -16.317  11.625 -13.886  1.00 56.05 LIG 0.00  A 
ATOM     33  CD1 PHE C  20     -15.800  11.871 -15.164  1.00 54.84 LIG 0.01  A 
ENDBRANCH 27 28
ENDBRANCH 17 27
ENDBRANCH 14 17
ENDBRANCH 8 13
ENDBRANCH 5 6
BRANCH 5 34
ATOM     34  CB  LEU C  18     -12.193  10.667 -10.883  1.00 31.46 LIG 0.04  C 
BRANCH 34 35
ATOM     35  CG  LEU C  18     -11.076  10.714  -9.873  1.00 36.62 LIG-0.02  C 
ATOM     36  CD2 LEU C  18     -11.635  11.029  -8.493  1.00 38.91 LIG 0.01  C 
ATOM     37  CD1 LEU C  18     -10.037  11.759 -10.291  1.00 36.98 LIG 0.01  C 
ENDBRANCH 34 35
ENDBRANCH 5 34
ENDBRANCH 3 5
BRANCH 1 38
ATOM     38  CA  PRO C  17     -11.818   6.662  -8.701  1.00 33.71 LIG 0.18  C 
ATOM     39  CB  PRO C  17     -12.002   5.216  -9.173  1.00 36.04 LIG 0.04  C 
ATOM     40  CG  PRO C  17     -12.761   4.503  -8.073  1.00 41.66 LIG 0.02  C 
ATOM     41  CD  PRO C  17     -13.039   5.476  -6.968  1.00 37.74 LIG 0.13  C 
ATOM     42  N   PRO C  17     -12.124   6.599  -7.268  1.00 35.06 LIG-0.34  N 
ATOM     43  C   ARG C  16     -11.550   7.490  -6.438  1.00 37.80 LIG 0.24  C 
ATOM     44 O    ARG C  16     -10.789   8.348  -6.879  1.00 34.25 LIG-0.27  OA
BRANCH 43 45
ATOM     45  CA  ARG C  16     -11.819   7.423  -4.923  1.00 39.10 LIG 0.18  C 
BRANCH 45 46
ATOM     46  CB  ARG C  16     -12.814   8.526  -4.515  1.00 42.59 LIG 0.04  C 
BRANCH 46 47
ATOM     47  CG  ARG C  16     -14.214   8.025  -4.172  1.00 54.51 LIG 0.02  C 
BRANCH 47 48
ATOM     48  CD  ARG C  16     -14.904   7.396  -5.367  1.00 71.70 LIG 0.14  C 
BRANCH 48 49
ATOM     49  NE  ARG C  16     -16.223   7.993  -5.600  1.00 86.72 LIG-0.23  N 
ATOM     50 HE   ARG C  16     -16.475   8.622  -5.072  1.00 86.72 LIG 0.18  HD
ATOM     51  CZ  ARG C  16     -17.059   7.631  -6.571  1.00 98.48 LIG 0.67  C 
ATOM     52  NH2 ARG C  16     -18.239   8.227  -6.696  1.00 86.10 LIG-0.23  N 
ATOM     53  NH1 ARG C  16     -16.727   6.666  -7.418  1.00 81.98 LIG-0.23  N 
ATOM     54 2HH2 ARG C  16     -18.775   7.990  -7.324  1.00 86.10 LIG 0.17  HD
ATOM     55 1HH2 ARG C  16     -18.466   8.850  -6.148  1.00 86.10 LIG 0.17  HD
ATOM     56 1HH1 ARG C  16     -15.967   6.269  -7.342  1.00 81.98 LIG 0.17  HD
ATOM     57 2HH1 ARG C  16     -17.270   6.436  -8.043  1.00 81.98 LIG 0.17  HD
ENDBRANCH 48 49
ENDBRANCH 47 48
ENDBRANCH 46 47
ENDBRANCH 45 46
BRANCH 45 58
ATOM     58  N   ARG C  16     -10.554   7.573  -4.196  1.00 40.87 LIG-0.35  N 
ATOM     59  C   PRO C  15      -9.503   6.725  -4.288  1.00 47.02 LIG 0.25  C 
ATOM     60 O    PRO C  15      -9.516   5.704  -4.978  1.00 46.36 LIG-0.27  OA
ATOM     61 H    ARG C  16     -10.539   8.269  -3.692  1.00 40.87 LIG 0.16  HD
BRANCH 59 62
ATOM     62  CA  PRO C  15      -8.236   7.102  -3.517  1.00 46.56 LIG 0.35  C 
ATOM     63  N   PRO C  15      -8.061   6.341  -2.272  1.00 47.38 LIG 0.32  N 
ATOM     64  CD  PRO C  15      -6.851   5.499  -2.315  1.00 49.28 LIG 0.32  C 
ATOM     65  CG  PRO C  15      -6.007   6.173  -3.353  1.00 53.38 LIG 0.04  C 
ATOM     66  CB  PRO C  15      -6.978   6.752  -4.330  1.00 48.49 LIG 0.05  C 
ENDBRANCH 59 62
ENDBRANCH 45 58
ENDBRANCH 43 45
ENDBRANCH 1 38
TORSDOF 18
ENDMDL
MODEL 101
USER: ADFR SOLUTION from run 64
USER: SCORE 21.028399 LL:  -4.719 LR: -18.018 RR:   0.000 FEB: -12.649
USER: RMSD 13.611497
USER: SEED 63
USER: STATUS no improvement in best in 41 clusters for 5 generations
USER: GENES 20
USER: genes 0 Translation |==|  0.46232 0.49250 0.49552
USER: genes 1 Rotation |==|  0.97784 0.38195 0.49544 0.58783
USER: genes 2 Torsion [C]-N--CA-[CB] |==|  0.24960
USER: genes 3 Torsion [N]-CA--C-[N] |==|  0.44801
USER: genes 4 Torsion [N]-CA--C-[O] |==|  0.64822
USER: genes 5 Torsion [C]-N--CA-[C] |==|  0.17187
USER: genes 6 Torsion [N]-CA--C-[N] |==|  0.19771
USER: genes 7 Torsion [N]-CA--C-[O] |==|  0.91369
USER: genes 8 Torsion [N]-CA--CB-[CG] |==|  0.58218
USER: genes 9 Torsion [CA]-CB--CG-[CD1] |==|  0.56272
USER: genes 10 Torsion [N]-CA--CB-[CG] |==|  0.73109
USER: genes 11 Torsion [CA]-CB--CG-[CD2] |==|  0.76539
USER: genes 12 Torsion [O]-C--CA-[CB] |==|  0.35761
USER: genes 13 Torsion [N]-C--CA-[N] |==|  0.88175
USER: genes 14 Torsion [C]-CA--CB-[CG] |==|  0.48735
USER: genes 15 Torsion [CA]-CB--CG-[CD] |==|  0.57920
USER: genes 16 Torsion [CB]-CG--CD-[NE] |==|  0.75610
USER: genes 17 Torsion [CG]-CD--NE-[HE] |==|  0.99648
USER: genes 18 Torsion [C]-CA--N-[C] |==|  0.82879
USER: genes 19 Torsion [N]-C--CA-[CB] |==|  0.16040
ROOT
ATOM      1  C   PRO C  17     -12.291   9.217 -10.468  1.00 34.10 LIG 0.24  C 
ATOM      2 O    PRO C  17     -13.509   9.164 -10.631  1.00 31.91 LIG-0.27  OA
ATOM      3  N   LEU C  18     -11.703   8.818  -9.357  1.00 30.88 LIG-0.35  N 
ATOM      4 H    LEU C  18     -10.859   8.905  -9.216  1.00 30.88 LIG 0.16  HD
ENDROOT
BRANCH 3 5
ATOM      5  CA  LEU C  18     -12.414   8.191  -8.253  1.00 30.78 LIG 0.18  C 
BRANCH 5 6
ATOM      6  C   LEU C  18     -11.812   8.490  -6.891  1.00 33.73 LIG 0.24  C 
ATOM      7  N   PRO C  19     -12.591   8.293  -5.795  1.00 33.17 LIG-0.34  N 
ATOM      8  CA  PRO C  19     -12.029   8.509  -4.445  1.00 33.85 LIG 0.18  C 
ATOM      9  CD  PRO C  19     -14.018   7.889  -5.737  1.00 35.22 LIG 0.13  C 
ATOM     10  CB  PRO C  19     -13.260   8.505  -3.533  1.00 35.69 LIG 0.04  C 
ATOM     11  CG  PRO C  19     -14.308   7.772  -4.274  1.00 39.92 LIG 0.02  C 
ATOM     12 O    LEU C  18     -10.622   8.802  -6.823  1.00 31.40 LIG-0.27  OA
BRANCH 8 13
ATOM     13  C   PRO C  19     -10.970   7.479  -4.023  1.00 39.47 LIG 0.24  C 
ATOM     14  N   PHE C  20      -9.970   7.277  -4.883  1.00 41.20 LIG-0.35  N 
ATOM     15 H    PHE C  20      -9.913   7.701  -5.630  1.00 41.20 LIG 0.16  HD
ATOM     16 O    PRO C  19     -11.071   6.859  -2.969  1.00 36.20 LIG-0.27  OA
BRANCH 14 17
ATOM     17  CA  PHE C  20      -8.871   6.335  -4.677  1.00 43.59 LIG 0.18  C 
BRANCH 17 18
ATOM     18  C   PHE C  20      -9.434   4.906  -4.576  1.00 48.54 LIG 0.24  C 
ATOM     19  N   PRO C  21      -9.930   4.291  -5.682  1.00 46.41 LIG-0.34  N 
ATOM     20  CA  PRO C  21     -10.423   2.895  -5.599  1.00 51.72 LIG 0.17  C 
ATOM     21  CD  PRO C  21     -10.087   4.823  -7.050  1.00 49.19 LIG 0.13  C 
ATOM     22  CB  PRO C  21     -10.862   2.578  -7.038  1.00 52.56 LIG 0.04  C 
ATOM     23  CG  PRO C  21     -11.074   3.889  -7.682  1.00 54.82 LIG 0.02  C 
ATOM     24 O    PHE C  20      -9.394   4.341  -3.481  1.00 48.67 LIG-0.27  OA
BRANCH 20 25
ATOM     25  C   PRO C  21      -9.370   1.889  -5.131  1.00 87.57 LIG 0.22  C 
ATOM     26 O    PRO C  21      -8.183   2.074  -5.398  1.00 58.80 LIG-0.29  OA
ENDBRANCH 20 25
ENDBRANCH 17 18
BRANCH 17 27
ATOM     27  CB  PHE C  20      -8.100   6.727  -3.391  1.00 46.79 LIG 0.07  C 
BRANCH 27 28
ATOM     28  CG  PHE C  20      -6.623   6.392  -3.334  1.00 50.46 LIG-0.06  A 
ATOM     29  CD2 PHE C  20      -5.900   6.154  -4.500  1.00 54.33 LIG 0.01  A 
ATOM     30  CE2 PHE C  20      -4.534   5.846  -4.445  1.00 57.68 LIG 0.00  A 
ATOM     31  CZ  PHE C  20      -3.894   5.749  -3.223  1.00 55.81 LIG 0.00  A 
ATOM     32  CE1 PHE C  20      -4.598   5.968  -2.058  1.00 56.05 LIG 0.00  A 
ATOM     33  CD1 PHE C  20      -5.965   6.267  -2.113  1.00 54.84 LIG 0.01  A 
ENDBRANCH 27 28
ENDBRANCH 17 27
ENDBRANCH 14 17
ENDBRANCH 8 13
ENDBRANCH 5 6
BRANCH 5 34
ATOM     34  CB  LEU C  18     -12.430   6.679  -8.465  1.00 31.46 LIG 0.04  C 
BRANCH 34 35
ATOM     35  CG  LEU C  18     -13.669   6.106  -9.103  1.00 36.62 LIG-0.02  C 
ATOM     36  CD2 LEU C  18     -14.732   5.860  -8.044  1.00 38.91 LIG 0.01  C 
ATOM     37  CD1 LEU C  18     -13.323   4.808  -9.840  1.00 36.98 LIG 0.01  C 
ENDBRANCH 34 35
ENDBRANCH 5 34
ENDBRANCH 3 5
BRANCH 1 38
ATOM     38  CA  PRO C  17     -11.364   9.827 -11.511  1.00 33.71 LIG 0.18  C 
ATOM     39  CB  PRO C  17     -10.414  10.874 -10.921  1.00 36.04 LIG 0.04  C 
ATOM     40  CG  PRO C  17     -10.879  12.215 -11.447  1.00 41.66 LIG 0.02  C 
ATOM     41  CD  PRO C  17     -12.075  12.003 -12.325  1.00 37.74 LIG 0.13  C 
ATOM     42  N   PRO C  17     -12.042  10.548 -12.593  1.00 35.06 LIG-0.34  N 
ATOM     43  C   ARG C  16     -12.500   9.855 -13.653  1.00 37.80 LIG 0.24  C 
ATOM     44 O    ARG C  16     -12.358   8.636 -13.706  1.00 34.25 LIG-0.27  OA
BRANCH 43 45
ATOM     45  CA  ARG C  16     -13.179  10.590 -14.825  1.00 39.10 LIG 0.18  C 
BRANCH 45 46
ATOM     46  CB  ARG C  16     -12.113  11.224 -15.737  1.00 42.59 LIG 0.04  C 
BRANCH 46 47
ATOM     47  CG  ARG C  16     -12.664  11.889 -16.995  1.00 54.51 LIG 0.02  C 
BRANCH 47 48
ATOM     48  CD  ARG C  16     -11.665  11.871 -18.135  1.00 71.70 LIG 0.14  C 
BRANCH 48 49
ATOM     49  NE  ARG C  16     -10.780  13.040 -18.093  1.00 86.72 LIG-0.23  N 
ATOM     50 HE   ARG C  16     -10.910  13.614 -17.466  1.00 86.72 LIG 0.18  HD
ATOM     51  CZ  ARG C  16      -9.792  13.276 -18.952  1.00 98.48 LIG 0.67  C 
ATOM     52  NH2 ARG C  16      -9.050  14.370 -18.835  1.00 86.10 LIG-0.23  N 
ATOM     53  NH1 ARG C  16      -9.545  12.426 -19.940  1.00 81.98 LIG-0.23  N 
ATOM     54 2HH2 ARG C  16      -8.413  14.519 -19.393  1.00 86.10 LIG 0.17  HD
ATOM     55 1HH2 ARG C  16      -9.206  14.930 -18.202  1.00 86.10 LIG 0.17  HD
ATOM     56 1HH1 ARG C  16     -10.024  11.717 -20.028  1.00 81.98 LIG 0.17  HD
ATOM     57 2HH1 ARG C  16      -8.905  12.584 -20.492  1.00 81.98 LIG 0.17  HD
ENDBRANCH 48 49
ENDBRANCH 47 48
ENDBRANCH 46 47
ENDBRANCH 45 46
BRANCH 45 58
ATOM     58  N   ARG C  16     -14.085  11.616 -14.297  1.00 40.87 LIG-0.35  N 
ATOM     59  C   PRO C  15     -15.159  11.370 -13.512  1.00 47.02 LIG 0.25  C 
ATOM     60 O    PRO C  15     -15.512  10.237 -13.183  1.00 46.36 LIG-0.27  OA
ATOM     61 H    ARG C  16     -13.865  12.412 -14.538  1.00 40.87 LIG 0.16  HD
BRANCH 59 62
ATOM     62  CA  PRO C  15     -15.931  12.584 -12.989  1.00 46.56 LIG 0.35  C 
ATOM     63  N   PRO C  15     -15.103  13.509 -12.202  1.00 47.38 LIG 0.32  N 
ATOM     64  CD  PRO C  15     -14.997  14.830 -12.850  1.00 49.28 LIG 0.32  C 
ATOM     65  CG  PRO C  15     -16.207  14.871 -13.732  1.00 53.38 LIG 0.04  C 
ATOM     66  CB  PRO C  15     -16.432  13.455 -14.154  1.00 48.49 LIG 0.05  C 
ENDBRANCH 59 62
ENDBRANCH 45 58
ENDBRANCH 43 45
ENDBRANCH 1 38
TORSDOF 18
ENDMDL
MODEL 102
USER: ADFR SOLUTION from run 150
USER: SCORE 21.883405 LL:  -4.500 LR: -18.023 RR:   0.000 FEB: -12.654
USER: RMSD 14.016421
USER: SEED 149
USER: STATUS no improvement in best in 10 clusters for 5 generations
USER: GENES 20
USER: genes 0 Translation |==|  0.45484 0.48408 0.50598
USER: genes 1 Rotation |==|  0.06945 0.70904 0.63714 0.54606
USER: genes 2 Torsion [C]-N--CA-[CB] |==|  0.52545
USER: genes 3 Torsion [N]-CA--C-[N] |==|  0.41531
USER: genes 4 Torsion [N]-CA--C-[O] |==|  0.87549
USER: genes 5 Torsion [C]-N--CA-[C] |==|  0.62750
USER: genes 6 Torsion [N]-CA--C-[N] |==|  0.48333
USER: genes 7 Torsion [N]-CA--C-[O] |==|  0.64963
USER: genes 8 Torsion [N]-CA--CB-[CG] |==|  0.78077
USER: genes 9 Torsion [CA]-CB--CG-[CD1] |==|  0.20250
USER: genes 10 Torsion [N]-CA--CB-[CG] |==|  0.72745
USER: genes 11 Torsion [CA]-CB--CG-[CD2] |==|  0.85991
USER: genes 12 Torsion [O]-C--CA-[CB] |==|  0.20778
USER: genes 13 Torsion [N]-C--CA-[N] |==|  0.90579
USER: genes 14 Torsion [C]-CA--CB-[CG] |==|  0.46878
USER: genes 15 Torsion [CA]-CB--CG-[CD] |==|  0.57990
USER: genes 16 Torsion [CB]-CG--CD-[NE] |==|  0.72993
USER: genes 17 Torsion [CG]-CD--NE-[HE] |==|  0.02271
USER: genes 18 Torsion [C]-CA--N-[C] |==|  0.81537
USER: genes 19 Torsion [N]-C--CA-[CB] |==|  0.19453
ROOT
ATOM      1  C   PRO C  17     -12.426   9.065 -10.131  1.00 34.10 LIG 0.24  C 
ATOM      2 O    PRO C  17     -13.487   9.555  -9.750  1.00 31.91 LIG-0.27  OA
ATOM      3  N   LEU C  18     -11.996   7.888  -9.719  1.00 30.88 LIG-0.35  N 
ATOM      4 H    LEU C  18     -11.230   7.566  -9.939  1.00 30.88 LIG 0.16  HD
ENDROOT
BRANCH 3 5
ATOM      5  CA  LEU C  18     -12.769   7.010  -8.853  1.00 30.78 LIG 0.18  C 
BRANCH 5 6
ATOM      6  C   LEU C  18     -13.335   7.707  -7.627  1.00 33.73 LIG 0.24  C 
ATOM      7  N   PRO C  19     -14.508   7.247  -7.119  1.00 33.17 LIG-0.34  N 
ATOM      8  CA  PRO C  19     -15.065   7.852  -5.890  1.00 33.85 LIG 0.18  C 
ATOM      9  CD  PRO C  19     -15.388   6.177  -7.652  1.00 35.22 LIG 0.13  C 
ATOM     10  CB  PRO C  19     -16.495   7.307  -5.832  1.00 35.69 LIG 0.04  C 
ATOM     11  CG  PRO C  19     -16.490   6.072  -6.645  1.00 39.92 LIG 0.02  C 
ATOM     12 O    LEU C  18     -12.666   8.590  -7.085  1.00 31.40 LIG-0.27  OA
BRANCH 8 13
ATOM     13  C   PRO C  19     -14.261   7.556  -4.615  1.00 39.47 LIG 0.24  C 
ATOM     14  N   PHE C  20     -14.011   8.600  -3.822  1.00 41.20 LIG-0.35  N 
ATOM     15 H    PHE C  20     -14.286   9.394  -4.006  1.00 41.20 LIG 0.16  HD
ATOM     16 O    PRO C  19     -13.850   6.427  -4.370  1.00 36.20 LIG-0.27  OA
BRANCH 14 17
ATOM     17  CA  PHE C  20     -13.256   8.535  -2.571  1.00 43.59 LIG 0.18  C 
BRANCH 17 18
ATOM     18  C   PHE C  20     -14.007   9.321  -1.480  1.00 48.54 LIG 0.24  C 
ATOM     19  N   PRO C  21     -13.558   9.300  -0.197  1.00 46.41 LIG-0.34  N 
ATOM     20  CA  PRO C  21     -14.247  10.099   0.844  1.00 51.72 LIG 0.17  C 
ATOM     21  CD  PRO C  21     -12.427   8.547   0.380  1.00 49.19 LIG 0.13  C 
ATOM     22  CB  PRO C  21     -13.428   9.822   2.116  1.00 52.56 LIG 0.04  C 
ATOM     23  CG  PRO C  21     -12.708   8.561   1.852  1.00 54.82 LIG 0.02  C 
ATOM     24 O    PHE C  20     -14.995   9.979  -1.813  1.00 48.67 LIG-0.27  OA
BRANCH 20 25
ATOM     25  C   PRO C  21     -14.284  11.601   0.554  1.00 87.57 LIG 0.22  C 
ATOM     26 O    PRO C  21     -13.866  12.399   1.390  1.00 58.80 LIG-0.29  OA
ENDBRANCH 20 25
ENDBRANCH 17 18
BRANCH 17 27
ATOM     27  CB  PHE C  20     -11.836   9.112  -2.803  1.00 46.79 LIG 0.07  C 
BRANCH 27 28
ATOM     28  CG  PHE C  20     -10.821   8.213  -3.480  1.00 50.46 LIG-0.06  A 
ATOM     29  CD2 PHE C  20      -9.746   7.687  -2.768  1.00 54.33 LIG 0.01  A 
ATOM     30  CE2 PHE C  20      -8.809   6.855  -3.396  1.00 57.68 LIG 0.00  A 
ATOM     31  CZ  PHE C  20      -8.930   6.570  -4.743  1.00 55.81 LIG 0.00  A 
ATOM     32  CE1 PHE C  20      -9.980   7.094  -5.467  1.00 56.05 LIG 0.00  A 
ATOM     33  CD1 PHE C  20     -10.911   7.932  -4.841  1.00 54.84 LIG 0.01  A 
ENDBRANCH 27 28
ENDBRANCH 17 27
ENDBRANCH 14 17
ENDBRANCH 8 13
ENDBRANCH 5 6
BRANCH 5 34
ATOM     34  CB  LEU C  18     -11.884   5.852  -8.398  1.00 31.46 LIG 0.04  C 
BRANCH 34 35
ATOM     35  CG  LEU C  18     -12.026   4.562  -9.163  1.00 36.62 LIG-0.02  C 
ATOM     36  CD2 LEU C  18     -13.494   4.173  -9.260  1.00 38.91 LIG 0.01  C 
ATOM     37  CD1 LEU C  18     -11.214   3.458  -8.479  1.00 36.98 LIG 0.01  C 
ENDBRANCH 34 35
ENDBRANCH 5 34
ENDBRANCH 3 5
BRANCH 1 38
ATOM     38  CA  PRO C  17     -11.475   9.817 -11.053  1.00 33.71 LIG 0.18  C 
ATOM     39  CB  PRO C  17     -10.703  10.927 -10.331  1.00 36.04 LIG 0.04  C 
ATOM     40  CG  PRO C  17     -11.257  12.237 -10.849  1.00 41.66 LIG 0.02  C 
ATOM     41  CD  PRO C  17     -12.335  11.945 -11.850  1.00 37.74 LIG 0.13  C 
ATOM     42  N   PRO C  17     -12.121  10.516 -12.168  1.00 35.06 LIG-0.34  N 
ATOM     43  C   ARG C  16     -12.399   9.832 -13.294  1.00 37.80 LIG 0.24  C 
ATOM     44 O    ARG C  16     -12.123   8.638 -13.380  1.00 34.25 LIG-0.27  OA
BRANCH 43 45
ATOM     45  CA  ARG C  16     -13.039  10.549 -14.498  1.00 39.10 LIG 0.18  C 
BRANCH 45 46
ATOM     46  CB  ARG C  16     -11.942  11.153 -15.396  1.00 42.59 LIG 0.04  C 
BRANCH 46 47
ATOM     47  CG  ARG C  16     -12.432  11.652 -16.751  1.00 54.51 LIG 0.02  C 
BRANCH 47 48
ATOM     48  CD  ARG C  16     -11.352  11.575 -17.813  1.00 71.70 LIG 0.14  C 
BRANCH 48 49
ATOM     49  NE  ARG C  16     -10.677  12.866 -17.987  1.00 86.72 LIG-0.23  N 
ATOM     50 HE   ARG C  16     -10.863  13.491 -17.426  1.00 86.72 LIG 0.18  HD
ATOM     51  CZ  ARG C  16      -9.799  13.141 -18.949  1.00 98.48 LIG 0.67  C 
ATOM     52  NH2 ARG C  16      -9.248  14.345 -19.029  1.00 86.10 LIG-0.23  N 
ATOM     53  NH1 ARG C  16      -9.473  12.216 -19.843  1.00 81.98 LIG-0.23  N 
ATOM     54 2HH2 ARG C  16      -8.682  14.518 -19.652  1.00 86.10 LIG 0.17  HD
ATOM     55 1HH2 ARG C  16      -9.458  14.953 -18.458  1.00 86.10 LIG 0.17  HD
ATOM     56 1HH1 ARG C  16      -9.829  11.434 -19.803  1.00 81.98 LIG 0.17  HD
ATOM     57 2HH1 ARG C  16      -8.905  12.399 -20.462  1.00 81.98 LIG 0.17  HD
ENDBRANCH 48 49
ENDBRANCH 47 48
ENDBRANCH 46 47
ENDBRANCH 45 46
BRANCH 45 58
ATOM     58  N   ARG C  16     -13.947  11.596 -14.016  1.00 40.87 LIG-0.35  N 
ATOM     59  C   PRO C  15     -15.094  11.371 -13.334  1.00 47.02 LIG 0.25  C 
ATOM     60 O    PRO C  15     -15.517  10.244 -13.074  1.00 46.36 LIG-0.27  OA
ATOM     61 H    ARG C  16     -13.677  12.388 -14.212  1.00 40.87 LIG 0.16  HD
BRANCH 59 62
ATOM     62  CA  PRO C  15     -15.861  12.600 -12.840  1.00 46.56 LIG 0.35  C 
ATOM     63  N   PRO C  15     -15.002  13.606 -12.199  1.00 47.38 LIG 0.32  N 
ATOM     64  CD  PRO C  15     -14.997  14.875 -12.951  1.00 49.28 LIG 0.32  C 
ATOM     65  CG  PRO C  15     -16.277  14.814 -13.726  1.00 53.38 LIG 0.04  C 
ATOM     66  CB  PRO C  15     -16.487  13.363 -14.019  1.00 48.49 LIG 0.05  C 
ENDBRANCH 59 62
ENDBRANCH 45 58
ENDBRANCH 43 45
ENDBRANCH 1 38
TORSDOF 18
ENDMDL
MODEL 103
USER: ADFR SOLUTION from run 18
USER: SCORE 20.713383 LL:  -5.213 LR: -18.007 RR:   0.000 FEB: -12.638
USER: RMSD 13.059533
USER: SEED 17
USER: STATUS no improvement in best in 17 clusters for 5 generations
USER: GENES 20
USER: genes 0 Translation |==|  0.46304 0.50828 0.42645
USER: genes 1 Rotation |==|  0.79531 0.86811 0.65632 0.55339
USER: genes 2 Torsion [C]-N--CA-[CB] |==|  0.40637
USER: genes 3 Torsion [N]-CA--C-[N] |==|  0.53400
USER: genes 4 Torsion [N]-CA--C-[O] |==|  0.09219
USER: genes 5 Torsion [C]-N--CA-[C] |==|  0.63020
USER: genes 6 Torsion [N]-CA--C-[N] |==|  0.12422
USER: genes 7 Torsion [N]-CA--C-[O] |==|  0.74396
USER: genes 8 Torsion [N]-CA--CB-[CG] |==|  0.00598
USER: genes 9 Torsion [CA]-CB--CG-[CD1] |==|  0.30705
USER: genes 10 Torsion [N]-CA--CB-[CG] |==|  0.77134
USER: genes 11 Torsion [CA]-CB--CG-[CD2] |==|  0.28469
USER: genes 12 Torsion [O]-C--CA-[CB] |==|  0.69306
USER: genes 13 Torsion [N]-C--CA-[N] |==|  0.10972
USER: genes 14 Torsion [C]-CA--CB-[CG] |==|  0.75423
USER: genes 15 Torsion [CA]-CB--CG-[CD] |==|  0.25248
USER: genes 16 Torsion [CB]-CG--CD-[NE] |==|  0.27293
USER: genes 17 Torsion [CG]-CD--NE-[HE] |==|  0.25438
USER: genes 18 Torsion [C]-CA--N-[C] |==|  0.62965
USER: genes 19 Torsion [N]-C--CA-[CB] |==|  0.10728
ROOT
ATOM      1  C   PRO C  17     -12.278   9.501 -12.696  1.00 34.10 LIG 0.24  C 
ATOM      2 O    PRO C  17     -11.397   8.656 -12.838  1.00 31.91 LIG-0.27  OA
ATOM      3  N   LEU C  18     -12.650   9.952 -11.513  1.00 30.88 LIG-0.35  N 
ATOM      4 H    LEU C  18     -13.302  10.500 -11.404  1.00 30.88 LIG 0.16  HD
ENDROOT
BRANCH 3 5
ATOM      5  CA  LEU C  18     -11.997   9.571 -10.269  1.00 30.78 LIG 0.18  C 
BRANCH 5 6
ATOM      6  C   LEU C  18     -12.632   8.370  -9.590  1.00 33.73 LIG 0.24  C 
ATOM      7  N   PRO C  19     -12.264   8.094  -8.311  1.00 33.17 LIG-0.34  N 
ATOM      8  CA  PRO C  19     -12.902   6.974  -7.587  1.00 33.85 LIG 0.18  C 
ATOM      9  CD  PRO C  19     -11.237   8.772  -7.480  1.00 35.22 LIG 0.13  C 
ATOM     10  CB  PRO C  19     -12.018   6.790  -6.350  1.00 35.69 LIG 0.04  C 
ATOM     11  CG  PRO C  19     -11.321   8.080  -6.156  1.00 39.92 LIG 0.02  C 
ATOM     12 O    LEU C  18     -13.522   7.755 -10.181  1.00 31.40 LIG-0.27  OA
BRANCH 8 13
ATOM     13  C   PRO C  19     -14.380   7.202  -7.236  1.00 39.47 LIG 0.24  C 
ATOM     14  N   PHE C  20     -14.814   6.623  -6.115  1.00 41.20 LIG-0.35  N 
ATOM     15 H    PHE C  20     -14.300   6.153  -5.611  1.00 41.20 LIG 0.16  HD
ATOM     16 O    PRO C  19     -15.115   7.852  -7.972  1.00 36.20 LIG-0.27  OA
BRANCH 14 17
ATOM     17  CA  PHE C  20     -16.184   6.708  -5.610  1.00 43.59 LIG 0.18  C 
BRANCH 17 18
ATOM     18  C   PHE C  20     -16.154   7.043  -4.108  1.00 48.54 LIG 0.24  C 
ATOM     19  N   PRO C  21     -15.321   8.012  -3.643  1.00 46.41 LIG-0.34  N 
ATOM     20  CA  PRO C  21     -15.331   8.374  -2.205  1.00 51.72 LIG 0.17  C 
ATOM     21  CD  PRO C  21     -14.325   8.812  -4.381  1.00 49.19 LIG 0.13  C 
ATOM     22  CB  PRO C  21     -14.288   9.500  -2.108  1.00 52.56 LIG 0.04  C 
ATOM     23  CG  PRO C  21     -13.434   9.349  -3.301  1.00 54.82 LIG 0.02  C 
ATOM     24 O    PHE C  20     -16.920   6.430  -3.360  1.00 48.67 LIG-0.27  OA
BRANCH 20 25
ATOM     25  C   PRO C  21     -16.688   8.861  -1.694  1.00 87.57 LIG 0.22  C 
ATOM     26 O    PRO C  21     -16.952  10.062  -1.703  1.00 58.80 LIG-0.29  OA
ENDBRANCH 20 25
ENDBRANCH 17 18
BRANCH 17 27
ATOM     27  CB  PHE C  20     -16.907   5.362  -5.871  1.00 46.79 LIG 0.07  C 
BRANCH 27 28
ATOM     28  CG  PHE C  20     -16.100   4.251  -6.514  1.00 50.46 LIG-0.06  A 
ATOM     29  CD2 PHE C  20     -15.736   4.319  -7.856  1.00 54.33 LIG 0.01  A 
ATOM     30  CE2 PHE C  20     -14.990   3.291  -8.449  1.00 57.68 LIG 0.00  A 
ATOM     31  CZ  PHE C  20     -14.629   2.181  -7.707  1.00 55.81 LIG 0.00  A 
ATOM     32  CE1 PHE C  20     -14.993   2.091  -6.381  1.00 56.05 LIG 0.00  A 
ATOM     33  CD1 PHE C  20     -15.747   3.114  -5.792  1.00 54.84 LIG 0.01  A 
ENDBRANCH 27 28
ENDBRANCH 17 27
ENDBRANCH 14 17
ENDBRANCH 8 13
ENDBRANCH 5 6
BRANCH 5 34
ATOM     34  CB  LEU C  18     -12.029  10.757  -9.306  1.00 31.46 LIG 0.04  C 
BRANCH 34 35
ATOM     35  CG  LEU C  18     -10.957  11.799  -9.494  1.00 36.62 LIG-0.02  C 
ATOM     36  CD2 LEU C  18     -11.532  13.015 -10.205  1.00 38.91 LIG 0.01  C 
ATOM     37  CD1 LEU C  18      -9.787  11.207 -10.287  1.00 36.98 LIG 0.01  C 
ENDBRANCH 34 35
ENDBRANCH 5 34
ENDBRANCH 3 5
BRANCH 1 38
ATOM     38  CA  PRO C  17     -13.075  10.041 -13.876  1.00 33.71 LIG 0.18  C 
ATOM     39  CB  PRO C  17     -12.747  11.503 -14.194  1.00 36.04 LIG 0.04  C 
ATOM     40  CG  PRO C  17     -13.966  12.309 -13.796  1.00 41.66 LIG 0.02  C 
ATOM     41  CD  PRO C  17     -15.004  11.377 -13.247  1.00 37.74 LIG 0.13  C 
ATOM     42  N   PRO C  17     -14.529  10.047 -13.687  1.00 35.06 LIG-0.34  N 
ATOM     43  C   ARG C  16     -15.227   8.925 -13.948  1.00 37.80 LIG 0.24  C 
ATOM     44 O    ARG C  16     -14.649   7.910 -14.331  1.00 34.25 LIG-0.27  OA
BRANCH 43 45
ATOM     45  CA  ARG C  16     -16.760   8.913 -13.800  1.00 39.10 LIG 0.18  C 
BRANCH 45 46
ATOM     46  CB  ARG C  16     -17.356   7.725 -14.578  1.00 42.59 LIG 0.04  C 
BRANCH 46 47
ATOM     47  CG  ARG C  16     -17.684   8.021 -16.038  1.00 54.51 LIG 0.02  C 
BRANCH 47 48
ATOM     48  CD  ARG C  16     -16.521   7.707 -16.960  1.00 71.70 LIG 0.14  C 
BRANCH 48 49
ATOM     49  NE  ARG C  16     -16.677   6.392 -17.592  1.00 86.72 LIG-0.23  N 
ATOM     50 HE   ARG C  16     -17.074   6.362 -18.354  1.00 86.72 LIG 0.18  HD
ATOM     51  CZ  ARG C  16     -16.249   5.244 -17.073  1.00 98.48 LIG 0.67  C 
ATOM     52  NH2 ARG C  16     -16.446   4.102 -17.719  1.00 86.10 LIG-0.23  N 
ATOM     53  NH1 ARG C  16     -15.629   5.228 -15.900  1.00 81.98 LIG-0.23  N 
ATOM     54 2HH2 ARG C  16     -16.168   3.363 -17.379  1.00 86.10 LIG 0.17  HD
ATOM     55 1HH2 ARG C  16     -16.852   4.101 -18.477  1.00 86.10 LIG 0.17  HD
ATOM     56 1HH1 ARG C  16     -15.502   5.962 -15.470  1.00 81.98 LIG 0.17  HD
ATOM     57 2HH1 ARG C  16     -15.355   4.484 -15.569  1.00 81.98 LIG 0.17  HD
ENDBRANCH 48 49
ENDBRANCH 47 48
ENDBRANCH 46 47
ENDBRANCH 45 46
BRANCH 45 58
ATOM     58  N   ARG C  16     -17.307  10.182 -14.293  1.00 40.87 LIG-0.35  N 
ATOM     59  C   PRO C  15     -18.230  10.931 -13.646  1.00 47.02 LIG 0.25  C 
ATOM     60 O    PRO C  15     -18.738  10.600 -12.574  1.00 46.36 LIG-0.27  OA
ATOM     61 H    ARG C  16     -16.979  10.414 -15.053  1.00 40.87 LIG 0.16  HD
BRANCH 59 62
ATOM     62  CA  PRO C  15     -18.610  12.269 -14.284  1.00 46.56 LIG 0.35  C 
ATOM     63  N   PRO C  15     -17.607  13.323 -14.073  1.00 47.38 LIG 0.32  N 
ATOM     64  CD  PRO C  15     -17.012  13.769 -15.347  1.00 49.28 LIG 0.32  C 
ATOM     65  CG  PRO C  15     -18.049  13.384 -16.358  1.00 53.38 LIG 0.04  C 
ATOM     66  CB  PRO C  15     -18.681  12.144 -15.815  1.00 48.49 LIG 0.05  C 
ENDBRANCH 59 62
ENDBRANCH 45 58
ENDBRANCH 43 45
ENDBRANCH 1 38
TORSDOF 18
ENDMDL
