MODEL 1
USER: ADFR SOLUTION from run 39
USER: SCORE 10.893214 LL:  -1.984 LR:  -9.091 RR:   0.000 FEB:  -5.810
USER: RMSD 4.705084
USER: SEED 38
USER: STATUS no improvement in best in 27 clusters for 5 generations
USER: GENES 13
USER: genes 0 Translation |==|  0.45450 0.43677 0.37316
USER: genes 1 Rotation |==|  0.17990 0.29577 0.67537 0.77400
USER: genes 2 Torsion [C]-CA--N-[C] |==|  0.65558
USER: genes 3 Torsion [N]-C--CA-[N] |==|  0.23139
USER: genes 4 Torsion [C]-CA--CB-[CG] |==|  0.24044
USER: genes 5 Torsion [CA]-CB--CG-[OD1] |==|  0.83673
USER: genes 6 Torsion [N]-CA--C-[N] |==|  0.03012
USER: genes 7 Torsion [C]-N--CA-[C] |==|  0.68735
USER: genes 8 Torsion [N]-CA--C-[OXT] |==|  0.48135
USER: genes 9 Torsion [N]-CA--CB-[CG] |==|  0.82004
USER: genes 10 Torsion [CA]-CB--CG-[CD1] |==|  0.47897
USER: genes 11 Torsion [N]-CA--CB-[CG] |==|  0.81284
USER: genes 12 Torsion [CA]-CB--CG-[CD2] |==|  0.22515
ROOT
ATOM      1  CA  LEU E   3       7.619  -6.389 -12.857  1.00 28.46 LIG 0.18  C 
ENDROOT
BRANCH 1 2
ATOM      2  N   LEU E   3       6.672  -6.778 -11.799  1.00 30.36 LIG-0.35  N 
ATOM      3  C   ASP E   2       6.469  -8.051 -11.447  1.00 32.94 LIG 0.26  C 
ATOM      4 O    ASP E   2       7.036  -9.003 -12.000  1.00 32.35 LIG-0.27  OA
ATOM      5 H    LEU E   3       6.265  -6.115 -11.433  1.00 30.36 LIG 0.16  HD
BRANCH 3 6
ATOM      6  CA  ASP E   2       5.478  -8.301 -10.307  1.00 34.24 LIG 0.41  C 
ATOM      7  N   ASP E   2       4.099  -8.307 -10.869  1.00 34.31 LIG 0.61  N 
BRANCH 6 8
ATOM      8  CB  ASP E   2       5.771  -9.641  -9.622  1.00 36.18 LIG 0.16  C 
BRANCH 8 9
ATOM      9  CG  ASP E   2       6.820  -9.528  -8.510  1.00 38.13 LIG 0.17  C 
ATOM     10 OD1  ASP E   2       7.961  -9.095  -8.796  1.00 37.90 LIG-0.65  OA
ATOM     11 OD2  ASP E   2       6.497  -9.847  -7.342  1.00 38.42 LIG-0.65  OA
ENDBRANCH 8 9
ENDBRANCH 6 8
ENDBRANCH 3 6
ENDBRANCH 1 2
BRANCH 1 12
ATOM     12  C   LEU E   3       8.668  -5.390 -12.362  1.00 28.32 LIG 0.24  C 
ATOM     13  N   PHE E   4       8.713  -5.201 -11.044  1.00 27.78 LIG-0.34  N 
ATOM     14 H    PHE E   4       8.237  -5.651 -10.488  1.00 27.78 LIG 0.16  HD
ATOM     15 O    LEU E   3       9.404  -4.805 -13.158  1.00 27.38 LIG-0.27  OA
BRANCH 13 16
ATOM     16  CA  PHE E   4       9.580  -4.208 -10.407  1.00 27.92 LIG 0.19  C 
BRANCH 16 17
ATOM     17  C   PHE E   4      10.666  -4.906  -9.588  1.00 28.33 LIG 0.20  C 
ATOM     18 OXT  PHE E   4      11.577  -4.268  -9.067  1.00 30.35 LIG-0.65  OA
ATOM     19 O    PHE E   4      10.647  -6.123  -9.406  1.00 28.81 LIG-0.65  OA
ENDBRANCH 16 17
BRANCH 16 20
ATOM     20  CB  PHE E   4       8.765  -3.270  -9.498  1.00 27.18 LIG 0.07  C 
BRANCH 20 21
ATOM     21  CG  PHE E   4       7.772  -2.415 -10.240  1.00 26.64 LIG-0.06  A 
ATOM     22  CD1 PHE E   4       6.849  -1.626  -9.550  1.00 26.73 LIG 0.01  A 
ATOM     23  CE1 PHE E   4       5.929  -0.844 -10.236  1.00 26.26 LIG 0.00  A 
ATOM     24  CZ  PHE E   4       5.928  -0.846 -11.624  1.00 25.93 LIG 0.00  A 
ATOM     25  CE2 PHE E   4       6.837  -1.631 -12.321  1.00 25.36 LIG 0.00  A 
ATOM     26  CD2 PHE E   4       7.752  -2.407 -11.631  1.00 26.03 LIG 0.01  A 
ENDBRANCH 20 21
ENDBRANCH 16 20
ENDBRANCH 13 16
ENDBRANCH 1 12
BRANCH 1 27
ATOM     27  CB  LEU E   3       6.877  -5.788 -14.062  1.00 28.15 LIG 0.04  C 
BRANCH 27 28
ATOM     28  CG  LEU E   3       5.966  -6.673 -14.918  1.00 27.57 LIG-0.02  C 
ATOM     29  CD2 LEU E   3       4.599  -6.849 -14.274  1.00 27.08 LIG 0.01  C 
ATOM     30  CD1 LEU E   3       6.609  -8.031 -15.154  1.00 27.26 LIG 0.01  C 
ENDBRANCH 27 28
ENDBRANCH 1 27
TORSDOF 11
ENDMDL
MODEL 2
USER: ADFR SOLUTION from run 165
USER: SCORE 11.253950 LL:  -2.447 LR:  -9.030 RR:   0.000 FEB:  -5.749
USER: RMSD 5.907414
USER: SEED 164
USER: STATUS no improvement in best in 16 clusters for 5 generations
USER: GENES 13
USER: genes 0 Translation |==|  0.65057 0.46767 0.59760
USER: genes 1 Rotation |==|  0.52428 0.80081 0.77228 0.79118
USER: genes 2 Torsion [C]-CA--N-[C] |==|  0.57222
USER: genes 3 Torsion [N]-C--CA-[N] |==|  0.43555
USER: genes 4 Torsion [C]-CA--CB-[CG] |==|  0.81584
USER: genes 5 Torsion [CA]-CB--CG-[OD1] |==|  0.87808
USER: genes 6 Torsion [N]-CA--C-[N] |==|  0.40594
USER: genes 7 Torsion [C]-N--CA-[C] |==|  0.16377
USER: genes 8 Torsion [N]-CA--C-[OXT] |==|  0.71821
USER: genes 9 Torsion [N]-CA--CB-[CG] |==|  0.79235
USER: genes 10 Torsion [CA]-CB--CG-[CD1] |==|  0.10543
USER: genes 11 Torsion [N]-CA--CB-[CG] |==|  0.24852
USER: genes 12 Torsion [CA]-CB--CG-[CD2] |==|  0.66157
ROOT
ATOM      1  CA  LEU E   3      10.707  -5.879  -9.659  1.00 28.46 LIG 0.18  C 
ENDROOT
BRANCH 1 2
ATOM      2  N   LEU E   3      12.006  -6.549  -9.849  1.00 30.36 LIG-0.35  N 
ATOM      3  C   ASP E   2      12.504  -7.416  -8.962  1.00 32.94 LIG 0.26  C 
ATOM      4 O    ASP E   2      11.933  -7.700  -7.901  1.00 32.35 LIG-0.27  OA
ATOM      5 H    LEU E   3      12.409  -6.331 -10.577  1.00 30.36 LIG 0.16  HD
BRANCH 3 6
ATOM      6  CA  ASP E   2      13.850  -8.059  -9.310  1.00 34.24 LIG 0.41  C 
ATOM      7  N   ASP E   2      14.501  -8.510  -8.049  1.00 34.31 LIG 0.61  N 
BRANCH 6 8
ATOM      8  CB  ASP E   2      13.649  -9.251 -10.252  1.00 36.18 LIG 0.16  C 
BRANCH 8 9
ATOM      9  CG  ASP E   2      12.898 -10.414  -9.594  1.00 38.13 LIG 0.17  C 
ATOM     10 OD1  ASP E   2      13.211 -10.755  -8.430  1.00 37.90 LIG-0.65  OA
ATOM     11 OD2  ASP E   2      11.974 -10.971 -10.231  1.00 38.42 LIG-0.65  OA
ENDBRANCH 8 9
ENDBRANCH 6 8
ENDBRANCH 3 6
ENDBRANCH 1 2
BRANCH 1 12
ATOM     12  C   LEU E   3      10.064  -5.471 -10.987  1.00 28.32 LIG 0.24  C 
ATOM     13  N   PHE E   4       8.733  -5.527 -11.029  1.00 27.78 LIG-0.34  N 
ATOM     14 H    PHE E   4       8.248  -5.716 -10.344  1.00 27.78 LIG 0.16  HD
ATOM     15 O    LEU E   3      10.759  -5.124 -11.942  1.00 27.38 LIG-0.27  OA
BRANCH 13 16
ATOM     16  CA  PHE E   4       7.959  -5.273 -12.245  1.00 27.92 LIG 0.19  C 
BRANCH 16 17
ATOM     17  C   PHE E   4       8.367  -6.255 -13.343  1.00 28.33 LIG 0.20  C 
ATOM     18 OXT  PHE E   4       9.122  -5.915 -14.251  1.00 30.35 LIG-0.65  OA
ATOM     19 O    PHE E   4       7.972  -7.421 -13.338  1.00 28.81 LIG-0.65  OA
ENDBRANCH 16 17
BRANCH 16 20
ATOM     20  CB  PHE E   4       8.164  -3.829 -12.736  1.00 27.18 LIG 0.07  C 
BRANCH 20 21
ATOM     21  CG  PHE E   4       7.438  -2.797 -11.913  1.00 26.64 LIG-0.06  A 
ATOM     22  CD1 PHE E   4       7.344  -2.926 -10.525  1.00 26.73 LIG 0.01  A 
ATOM     23  CE1 PHE E   4       6.669  -1.978  -9.768  1.00 26.26 LIG 0.00  A 
ATOM     24  CZ  PHE E   4       6.080  -0.891 -10.397  1.00 25.93 LIG 0.00  A 
ATOM     25  CE2 PHE E   4       6.161  -0.755 -11.777  1.00 25.36 LIG 0.00  A 
ATOM     26  CD2 PHE E   4       6.839  -1.703 -12.526  1.00 26.03 LIG 0.01  A 
ENDBRANCH 20 21
ENDBRANCH 16 20
ENDBRANCH 13 16
ENDBRANCH 1 12
BRANCH 1 27
ATOM     27  CB  LEU E   3      10.858  -4.637  -8.767  1.00 28.15 LIG 0.04  C 
BRANCH 27 28
ATOM     28  CG  LEU E   3      11.173  -3.277  -9.396  1.00 27.57 LIG-0.02  C 
ATOM     29  CD2 LEU E   3      12.461  -2.690  -8.838  1.00 27.08 LIG 0.01  C 
ATOM     30  CD1 LEU E   3      10.020  -2.308  -9.175  1.00 27.26 LIG 0.01  C 
ENDBRANCH 27 28
ENDBRANCH 1 27
TORSDOF 11
ENDMDL
MODEL 3
USER: ADFR SOLUTION from run 182
USER: SCORE 11.116413 LL:  -2.506 LR:  -8.617 RR:   0.000 FEB:  -5.336
USER: RMSD 2.822309
USER: SEED 181
USER: STATUS no improvement in best in 17 clusters for 5 generations
USER: GENES 13
USER: genes 0 Translation |==|  0.45826 0.58069 0.43837
USER: genes 1 Rotation |==|  0.47346 0.37788 0.42434 0.97818
USER: genes 2 Torsion [C]-CA--N-[C] |==|  0.82686
USER: genes 3 Torsion [N]-C--CA-[N] |==|  0.65201
USER: genes 4 Torsion [C]-CA--CB-[CG] |==|  0.44934
USER: genes 5 Torsion [CA]-CB--CG-[OD1] |==|  0.58838
USER: genes 6 Torsion [N]-CA--C-[N] |==|  0.91885
USER: genes 7 Torsion [C]-N--CA-[C] |==|  0.56128
USER: genes 8 Torsion [N]-CA--C-[OXT] |==|  0.38456
USER: genes 9 Torsion [N]-CA--CB-[CG] |==|  0.51090
USER: genes 10 Torsion [CA]-CB--CG-[CD1] |==|  0.67137
USER: genes 11 Torsion [N]-CA--CB-[CG] |==|  0.83698
USER: genes 12 Torsion [CA]-CB--CG-[CD2] |==|  0.83949
ROOT
ATOM      1  CA  LEU E   3       7.679  -4.015 -11.928  1.00 28.46 LIG 0.18  C 
ENDROOT
BRANCH 1 2
ATOM      2  N   LEU E   3       6.449  -4.817 -11.800  1.00 30.36 LIG-0.35  N 
ATOM      3  C   ASP E   2       6.138  -5.797 -12.653  1.00 32.94 LIG 0.26  C 
ATOM      4 O    ASP E   2       6.838  -6.088 -13.633  1.00 32.35 LIG-0.27  OA
ATOM      5 H    LEU E   3       5.956  -4.596 -11.131  1.00 30.36 LIG 0.16  HD
BRANCH 3 6
ATOM      6  CA  ASP E   2       4.843  -6.566 -12.374  1.00 34.24 LIG 0.41  C 
ATOM      7  N   ASP E   2       5.161  -8.019 -12.296  1.00 34.31 LIG 0.61  N 
BRANCH 6 8
ATOM      8  CB  ASP E   2       4.211  -6.096 -11.059  1.00 36.18 LIG 0.16  C 
BRANCH 8 9
ATOM      9  CG  ASP E   2       2.732  -6.479 -10.935  1.00 38.13 LIG 0.17  C 
ATOM     10 OD1  ASP E   2       1.962  -5.721 -10.300  1.00 37.90 LIG-0.65  OA
ATOM     11 OD2  ASP E   2       2.331  -7.525 -11.497  1.00 38.42 LIG-0.65  OA
ENDBRANCH 8 9
ENDBRANCH 6 8
ENDBRANCH 3 6
ENDBRANCH 1 2
BRANCH 1 12
ATOM     12  C   LEU E   3       8.945  -4.864 -11.792  1.00 28.32 LIG 0.24  C 
ATOM     13  N   PHE E   4       8.838  -5.949 -11.025  1.00 27.78 LIG-0.34  N 
ATOM     14 H    PHE E   4       8.096  -6.205 -10.675  1.00 27.78 LIG 0.16  HD
ATOM     15 O    LEU E   3       9.987  -4.535 -12.362  1.00 27.38 LIG-0.27  OA
BRANCH 13 16
ATOM     16  CA  PHE E   4       9.972  -6.815 -10.701  1.00 27.92 LIG 0.19  C 
BRANCH 16 17
ATOM     17  C   PHE E   4       9.474  -8.204 -10.300  1.00 28.33 LIG 0.20  C 
ATOM     18 OXT  PHE E   4      10.045  -9.220 -10.689  1.00 30.35 LIG-0.65  OA
ATOM     19 O    PHE E   4       8.503  -8.346  -9.558  1.00 28.81 LIG-0.65  OA
ENDBRANCH 16 17
BRANCH 16 20
ATOM     20  CB  PHE E   4      10.814  -6.215  -9.561  1.00 27.18 LIG 0.07  C 
BRANCH 20 21
ATOM     21  CG  PHE E   4      12.052  -7.010  -9.237  1.00 26.64 LIG-0.06  A 
ATOM     22  CD1 PHE E   4      12.227  -7.580  -7.974  1.00 26.73 LIG 0.01  A 
ATOM     23  CE1 PHE E   4      13.372  -8.306  -7.675  1.00 26.26 LIG 0.00  A 
ATOM     24  CZ  PHE E   4      14.354  -8.467  -8.642  1.00 25.93 LIG 0.00  A 
ATOM     25  CE2 PHE E   4      14.195  -7.899  -9.900  1.00 25.36 LIG 0.00  A 
ATOM     26  CD2 PHE E   4      13.049  -7.178 -10.192  1.00 26.03 LIG 0.01  A 
ENDBRANCH 20 21
ENDBRANCH 16 20
ENDBRANCH 13 16
ENDBRANCH 1 12
BRANCH 1 27
ATOM     27  CB  LEU E   3       7.709  -2.889 -10.881  1.00 28.15 LIG 0.04  C 
BRANCH 27 28
ATOM     28  CG  LEU E   3       6.587  -1.848 -10.844  1.00 27.57 LIG-0.02  C 
ATOM     29  CD2 LEU E   3       6.461  -1.121 -12.175  1.00 27.08 LIG 0.01  C 
ATOM     30  CD1 LEU E   3       6.826  -0.846  -9.724  1.00 27.26 LIG 0.01  C 
ENDBRANCH 27 28
ENDBRANCH 1 27
TORSDOF 11
ENDMDL
MODEL 4
USER: ADFR SOLUTION from run 114
USER: SCORE 10.556552 LL:  -2.576 LR:  -8.562 RR:   0.000 FEB:  -5.281
USER: RMSD 4.890910
USER: SEED 113
USER: STATUS no improvement in best in 16 clusters for 5 generations
USER: GENES 13
USER: genes 0 Translation |==|  0.53927 0.63635 0.45780
USER: genes 1 Rotation |==|  0.81099 0.18838 0.37671 0.70243
USER: genes 2 Torsion [C]-CA--N-[C] |==|  0.15010
USER: genes 3 Torsion [N]-C--CA-[N] |==|  0.63085
USER: genes 4 Torsion [C]-CA--CB-[CG] |==|  0.77150
USER: genes 5 Torsion [CA]-CB--CG-[OD1] |==|  0.74055
USER: genes 6 Torsion [N]-CA--C-[N] |==|  0.63622
USER: genes 7 Torsion [C]-N--CA-[C] |==|  0.55813
USER: genes 8 Torsion [N]-CA--C-[OXT] |==|  0.16798
USER: genes 9 Torsion [N]-CA--CB-[CG] |==|  0.60682
USER: genes 10 Torsion [CA]-CB--CG-[CD1] |==|  0.09562
USER: genes 11 Torsion [N]-CA--CB-[CG] |==|  0.68757
USER: genes 12 Torsion [CA]-CB--CG-[CD2] |==|  0.23771
ROOT
ATOM      1  CA  LEU E   3       8.954  -3.096 -11.651  1.00 28.46 LIG 0.18  C 
ENDROOT
BRANCH 1 2
ATOM      2  N   LEU E   3       9.114  -2.586 -13.024  1.00 30.36 LIG-0.35  N 
ATOM      3  C   ASP E   2       8.940  -3.356 -14.102  1.00 32.94 LIG 0.26  C 
ATOM      4 O    ASP E   2       8.662  -4.561 -14.035  1.00 32.35 LIG-0.27  OA
ATOM      5 H    LEU E   3       9.329  -1.754 -13.065  1.00 30.36 LIG 0.16  HD
BRANCH 3 6
ATOM      6  CA  ASP E   2       9.108  -2.678 -15.466  1.00 34.24 LIG 0.41  C 
ATOM      7  N   ASP E   2       7.961  -3.064 -16.333  1.00 34.31 LIG 0.61  N 
BRANCH 6 8
ATOM      8  CB  ASP E   2       9.156  -1.154 -15.307  1.00 36.18 LIG 0.16  C 
BRANCH 8 9
ATOM      9  CG  ASP E   2       7.765  -0.520 -15.199  1.00 38.13 LIG 0.17  C 
ATOM     10 OD1  ASP E   2       7.211  -0.096 -16.240  1.00 37.90 LIG-0.65  OA
ATOM     11 OD2  ASP E   2       7.211  -0.469 -14.076  1.00 38.42 LIG-0.65  OA
ENDBRANCH 8 9
ENDBRANCH 6 8
ENDBRANCH 3 6
ENDBRANCH 1 2
BRANCH 1 12
ATOM     12  C   LEU E   3       9.815  -4.334 -11.386  1.00 28.32 LIG 0.24  C 
ATOM     13  N   PHE E   4       9.188  -5.369 -10.826  1.00 27.78 LIG-0.34  N 
ATOM     14 H    PHE E   4       8.342  -5.380 -10.676  1.00 27.78 LIG 0.16  HD
ATOM     15 O    LEU E   3      11.012  -4.342 -11.677  1.00 27.38 LIG-0.27  OA
BRANCH 13 16
ATOM     16  CA  PHE E   4       9.876  -6.591 -10.409  1.00 27.92 LIG 0.19  C 
BRANCH 16 17
ATOM     17  C   PHE E   4       8.879  -7.745 -10.299  1.00 28.33 LIG 0.20  C 
ATOM     18 OXT  PHE E   4       8.233  -8.120 -11.275  1.00 30.35 LIG-0.65  OA
ATOM     19 O    PHE E   4       8.710  -8.346  -9.239  1.00 28.81 LIG-0.65  OA
ENDBRANCH 16 17
BRANCH 16 20
ATOM     20  CB  PHE E   4      10.587  -6.389  -9.058  1.00 27.18 LIG 0.07  C 
BRANCH 20 21
ATOM     21  CG  PHE E   4      11.927  -7.071  -8.969  1.00 26.64 LIG-0.06  A 
ATOM     22  CD1 PHE E   4      12.753  -7.177 -10.090  1.00 26.73 LIG 0.01  A 
ATOM     23  CE1 PHE E   4      13.985  -7.811 -10.008  1.00 26.26 LIG 0.00  A 
ATOM     24  CZ  PHE E   4      14.400  -8.348  -8.797  1.00 25.93 LIG 0.00  A 
ATOM     25  CE2 PHE E   4      13.585  -8.254  -7.676  1.00 25.36 LIG 0.00  A 
ATOM     26  CD2 PHE E   4      12.359  -7.618  -7.765  1.00 26.03 LIG 0.01  A 
ENDBRANCH 20 21
ENDBRANCH 16 20
ENDBRANCH 13 16
ENDBRANCH 1 12
BRANCH 1 27
ATOM     27  CB  LEU E   3       7.483  -3.432 -11.361  1.00 28.15 LIG 0.04  C 
BRANCH 27 28
ATOM     28  CG  LEU E   3       6.695  -2.601 -10.343  1.00 27.57 LIG-0.02  C 
ATOM     29  CD2 LEU E   3       6.095  -1.359 -10.985  1.00 27.08 LIG 0.01  C 
ATOM     30  CD1 LEU E   3       7.587  -2.204  -9.175  1.00 27.26 LIG 0.01  C 
ENDBRANCH 27 28
ENDBRANCH 1 27
TORSDOF 11
ENDMDL
MODEL 5
USER: ADFR SOLUTION from run 125
USER: SCORE 11.094487 LL:  -2.635 LR:  -8.547 RR:   0.000 FEB:  -5.266
USER: RMSD 2.978482
USER: SEED 124
USER: STATUS no improvement in best in 21 clusters for 5 generations
USER: GENES 13
USER: genes 0 Translation |==|  0.45034 0.57292 0.44330
USER: genes 1 Rotation |==|  0.49501 0.31489 0.58129 0.95727
USER: genes 2 Torsion [C]-CA--N-[C] |==|  0.85450
USER: genes 3 Torsion [N]-C--CA-[N] |==|  0.52401
USER: genes 4 Torsion [C]-CA--CB-[CG] |==|  0.77435
USER: genes 5 Torsion [CA]-CB--CG-[OD1] |==|  0.53750
USER: genes 6 Torsion [N]-CA--C-[N] |==|  0.87778
USER: genes 7 Torsion [C]-N--CA-[C] |==|  0.14673
USER: genes 8 Torsion [N]-CA--C-[OXT] |==|  0.56804
USER: genes 9 Torsion [N]-CA--CB-[CG] |==|  0.66050
USER: genes 10 Torsion [CA]-CB--CG-[CD1] |==|  0.50282
USER: genes 11 Torsion [N]-CA--CB-[CG] |==|  0.50537
USER: genes 12 Torsion [CA]-CB--CG-[CD2] |==|  0.67376
ROOT
ATOM      1  CA  LEU E   3       7.554  -4.143 -11.858  1.00 28.46 LIG 0.18  C 
ENDROOT
BRANCH 1 2
ATOM      2  N   LEU E   3       7.023  -5.517 -11.824  1.00 30.36 LIG-0.35  N 
ATOM      3  C   ASP E   2       7.670  -6.551 -12.368  1.00 32.94 LIG 0.26  C 
ATOM      4 O    ASP E   2       8.747  -6.434 -12.968  1.00 32.35 LIG-0.27  OA
ATOM      5 H    LEU E   3       6.264  -5.589 -11.425  1.00 30.36 LIG 0.16  HD
BRANCH 3 6
ATOM      6  CA  ASP E   2       7.012  -7.927 -12.226  1.00 34.24 LIG 0.41  C 
ATOM      7  N   ASP E   2       7.970  -8.964 -12.701  1.00 34.31 LIG 0.61  N 
BRANCH 6 8
ATOM      8  CB  ASP E   2       6.632  -8.193 -10.765  1.00 36.18 LIG 0.16  C 
BRANCH 8 9
ATOM      9  CG  ASP E   2       7.814  -8.681  -9.919  1.00 38.13 LIG 0.17  C 
ATOM     10 OD1  ASP E   2       7.586  -9.173  -8.789  1.00 37.90 LIG-0.65  OA
ATOM     11 OD2  ASP E   2       8.970  -8.598 -10.394  1.00 38.42 LIG-0.65  OA
ENDBRANCH 8 9
ENDBRANCH 6 8
ENDBRANCH 3 6
ENDBRANCH 1 2
BRANCH 1 12
ATOM     12  C   LEU E   3       8.988  -4.059 -11.329  1.00 28.32 LIG 0.24  C 
ATOM     13  N   PHE E   4       9.238  -4.746 -10.215  1.00 27.78 LIG-0.34  N 
ATOM     14 H    PHE E   4       8.660  -5.261  -9.841  1.00 27.78 LIG 0.16  HD
ATOM     15 O    LEU E   3       9.835  -3.383 -11.915  1.00 27.38 LIG-0.27  OA
BRANCH 13 16
ATOM     16  CA  PHE E   4      10.522  -4.697  -9.515  1.00 27.92 LIG 0.19  C 
BRANCH 16 17
ATOM     17  C   PHE E   4      10.910  -3.245  -9.231  1.00 28.33 LIG 0.20  C 
ATOM     18 OXT  PHE E   4      12.085  -2.921  -9.074  1.00 30.35 LIG-0.65  OA
ATOM     19 O    PHE E   4      10.062  -2.356  -9.176  1.00 28.81 LIG-0.65  OA
ENDBRANCH 16 17
BRANCH 16 20
ATOM     20  CB  PHE E   4      11.627  -5.378 -10.342  1.00 27.18 LIG 0.07  C 
BRANCH 20 21
ATOM     21  CG  PHE E   4      12.310  -6.514  -9.626  1.00 26.64 LIG-0.06  A 
ATOM     22  CD1 PHE E   4      13.350  -7.221 -10.233  1.00 26.73 LIG 0.01  A 
ATOM     23  CE1 PHE E   4      13.974  -8.272  -9.575  1.00 26.26 LIG 0.00  A 
ATOM     24  CZ  PHE E   4      13.559  -8.623  -8.298  1.00 25.93 LIG 0.00  A 
ATOM     25  CE2 PHE E   4      12.522  -7.932  -7.686  1.00 25.36 LIG 0.00  A 
ATOM     26  CD2 PHE E   4      11.906  -6.883  -8.348  1.00 26.03 LIG 0.01  A 
ENDBRANCH 20 21
ENDBRANCH 16 20
ENDBRANCH 13 16
ENDBRANCH 1 12
BRANCH 1 27
ATOM     27  CB  LEU E   3       6.660  -3.191 -11.047  1.00 28.15 LIG 0.04  C 
BRANCH 27 28
ATOM     28  CG  LEU E   3       6.995  -1.699 -10.978  1.00 27.57 LIG-0.02  C 
ATOM     29  CD2 LEU E   3       7.302  -1.263  -9.553  1.00 27.08 LIG 0.01  C 
ATOM     30  CD1 LEU E   3       5.850  -0.869 -11.541  1.00 27.26 LIG 0.01  C 
ENDBRANCH 27 28
ENDBRANCH 1 27
TORSDOF 11
ENDMDL
MODEL 6
USER: ADFR SOLUTION from run 17
USER: SCORE 10.094569 LL:  -1.754 LR:  -8.407 RR:   0.000 FEB:  -5.126
USER: RMSD 2.732884
USER: SEED 16
USER: STATUS no improvement in best in 17 clusters for 5 generations
USER: GENES 13
USER: genes 0 Translation |==|  0.53812 0.39748 0.43169
USER: genes 1 Rotation |==|  0.25769 0.38155 0.44753 0.91774
USER: genes 2 Torsion [C]-CA--N-[C] |==|  0.79105
USER: genes 3 Torsion [N]-C--CA-[N] |==|  0.30424
USER: genes 4 Torsion [C]-CA--CB-[CG] |==|  0.18467
USER: genes 5 Torsion [CA]-CB--CG-[OD1] |==|  0.88493
USER: genes 6 Torsion [N]-CA--C-[N] |==|  0.46665
USER: genes 7 Torsion [C]-N--CA-[C] |==|  0.10237
USER: genes 8 Torsion [N]-CA--C-[OXT] |==|  0.13115
USER: genes 9 Torsion [N]-CA--CB-[CG] |==|  0.11135
USER: genes 10 Torsion [CA]-CB--CG-[CD1] |==|  0.24354
USER: genes 11 Torsion [N]-CA--CB-[CG] |==|  0.97275
USER: genes 12 Torsion [CA]-CB--CG-[CD2] |==|  0.63725
ROOT
ATOM      1  CA  LEU E   3       8.936  -7.037 -12.023  1.00 28.46 LIG 0.18  C 
ENDROOT
BRANCH 1 2
ATOM      2  N   LEU E   3       7.663  -7.212 -11.303  1.00 30.36 LIG-0.35  N 
ATOM      3  C   ASP E   2       7.000  -8.371 -11.285  1.00 32.94 LIG 0.26  C 
ATOM      4 O    ASP E   2       7.383  -9.379 -11.895  1.00 32.35 LIG-0.27  OA
ATOM      5 H    LEU E   3       7.391  -6.503 -10.899  1.00 30.36 LIG 0.16  HD
BRANCH 3 6
ATOM      6  CA  ASP E   2       5.706  -8.412 -10.466  1.00 34.24 LIG 0.41  C 
ATOM      7  N   ASP E   2       4.552  -8.497 -11.404  1.00 34.31 LIG 0.61  N 
BRANCH 6 8
ATOM      8  CB  ASP E   2       5.705  -9.619  -9.521  1.00 36.18 LIG 0.16  C 
BRANCH 8 9
ATOM      9  CG  ASP E   2       6.772  -9.522  -8.425  1.00 38.13 LIG 0.17  C 
ATOM     10 OD1  ASP E   2       7.912  -9.096  -8.726  1.00 37.90 LIG-0.65  OA
ATOM     11 OD2  ASP E   2       6.464  -9.846  -7.254  1.00 38.42 LIG-0.65  OA
ENDBRANCH 8 9
ENDBRANCH 6 8
ENDBRANCH 3 6
ENDBRANCH 1 2
BRANCH 1 12
ATOM     12  C   LEU E   3      10.113  -7.689 -11.293  1.00 28.32 LIG 0.24  C 
ATOM     13  N   PHE E   4      11.244  -7.794 -11.990  1.00 27.78 LIG-0.34  N 
ATOM     14 H    PHE E   4      11.343  -7.464 -12.777  1.00 27.78 LIG 0.16  HD
ATOM     15 O    LEU E   3       9.990  -8.090 -10.134  1.00 27.38 LIG-0.27  OA
BRANCH 13 16
ATOM     16  CA  PHE E   4      12.434  -8.482 -11.487  1.00 27.92 LIG 0.19  C 
BRANCH 16 17
ATOM     17  C   PHE E   4      12.027  -9.711 -10.675  1.00 28.33 LIG 0.20  C 
ATOM     18 OXT  PHE E   4      11.191 -10.506 -11.100  1.00 30.35 LIG-0.65  OA
ATOM     19 O    PHE E   4      12.539  -9.955  -9.583  1.00 28.81 LIG-0.65  OA
ENDBRANCH 16 17
BRANCH 16 20
ATOM     20  CB  PHE E   4      13.286  -7.542 -10.615  1.00 27.18 LIG 0.07  C 
BRANCH 20 21
ATOM     21  CG  PHE E   4      12.475  -6.650  -9.711  1.00 26.64 LIG-0.06  A 
ATOM     22  CD1 PHE E   4      12.089  -7.081  -8.439  1.00 26.73 LIG 0.01  A 
ATOM     23  CE1 PHE E   4      11.336  -6.261  -7.610  1.00 26.26 LIG 0.00  A 
ATOM     24  CZ  PHE E   4      10.961  -4.999  -8.050  1.00 25.93 LIG 0.00  A 
ATOM     25  CE2 PHE E   4      11.333  -4.563  -9.315  1.00 25.36 LIG 0.00  A 
ATOM     26  CD2 PHE E   4      12.086  -5.384 -10.136  1.00 26.03 LIG 0.01  A 
ENDBRANCH 20 21
ENDBRANCH 16 20
ENDBRANCH 13 16
ENDBRANCH 1 12
BRANCH 1 27
ATOM     27  CB  LEU E   3       9.241  -5.547 -12.243  1.00 28.15 LIG 0.04  C 
BRANCH 27 28
ATOM     28  CG  LEU E   3       8.172  -4.494 -11.936  1.00 27.57 LIG-0.02  C 
ATOM     29  CD2 LEU E   3       8.002  -3.521 -13.094  1.00 27.08 LIG 0.01  C 
ATOM     30  CD1 LEU E   3       8.520  -3.736 -10.664  1.00 27.26 LIG 0.01  C 
ENDBRANCH 27 28
ENDBRANCH 1 27
TORSDOF 11
ENDMDL
MODEL 7
USER: ADFR SOLUTION from run 166
USER: SCORE 10.495811 LL:  -2.297 LR:  -8.366 RR:   0.000 FEB:  -5.084
USER: RMSD 2.735374
USER: SEED 165
USER: STATUS no improvement in best in 13 clusters for 5 generations
USER: GENES 13
USER: genes 0 Translation |==|  0.54761 0.58036 0.45148
USER: genes 1 Rotation |==|  0.41242 0.31604 0.54032 0.95482
USER: genes 2 Torsion [C]-CA--N-[C] |==|  0.73343
USER: genes 3 Torsion [N]-C--CA-[N] |==|  0.37121
USER: genes 4 Torsion [C]-CA--CB-[CG] |==|  0.24811
USER: genes 5 Torsion [CA]-CB--CG-[OD1] |==|  0.25807
USER: genes 6 Torsion [N]-CA--C-[N] |==|  0.30338
USER: genes 7 Torsion [C]-N--CA-[C] |==|  0.61342
USER: genes 8 Torsion [N]-CA--C-[OXT] |==|  0.96721
USER: genes 9 Torsion [N]-CA--CB-[CG] |==|  0.71360
USER: genes 10 Torsion [CA]-CB--CG-[CD1] |==|  0.62959
USER: genes 11 Torsion [N]-CA--CB-[CG] |==|  0.05342
USER: genes 12 Torsion [CA]-CB--CG-[CD2] |==|  0.58245
ROOT
ATOM      1  CA  LEU E   3       9.086  -4.020 -11.741  1.00 28.46 LIG 0.18  C 
ENDROOT
BRANCH 1 2
ATOM      2  N   LEU E   3       8.200  -5.158 -11.437  1.00 30.36 LIG-0.35  N 
ATOM      3  C   ASP E   2       8.032  -6.183 -12.278  1.00 32.94 LIG 0.26  C 
ATOM      4 O    ASP E   2       8.579  -6.244 -13.387  1.00 32.35 LIG-0.27  OA
ATOM      5 H    LEU E   3       7.805  -5.099 -10.675  1.00 30.36 LIG 0.16  HD
BRANCH 3 6
ATOM      6  CA  ASP E   2       7.105  -7.309 -11.812  1.00 34.24 LIG 0.41  C 
ATOM      7  N   ASP E   2       6.180  -7.656 -12.926  1.00 34.31 LIG 0.61  N 
BRANCH 6 8
ATOM      8  CB  ASP E   2       7.920  -8.542 -11.403  1.00 36.18 LIG 0.16  C 
BRANCH 8 9
ATOM      9  CG  ASP E   2       8.326  -8.529  -9.925  1.00 38.13 LIG 0.17  C 
ATOM     10 OD1  ASP E   2       7.586  -9.099  -9.089  1.00 37.90 LIG-0.65  OA
ATOM     11 OD2  ASP E   2       9.400  -7.971  -9.600  1.00 38.42 LIG-0.65  OA
ENDBRANCH 8 9
ENDBRANCH 6 8
ENDBRANCH 3 6
ENDBRANCH 1 2
BRANCH 1 12
ATOM     12  C   LEU E   3      10.477  -4.184 -11.124  1.00 28.32 LIG 0.24  C 
ATOM     13  N   PHE E   4      11.469  -4.426 -11.981  1.00 27.78 LIG-0.34  N 
ATOM     14 H    PHE E   4      11.362  -4.429 -12.834  1.00 27.78 LIG 0.16  HD
ATOM     15 O    LEU E   3      10.638  -4.100  -9.906  1.00 27.38 LIG-0.27  OA
BRANCH 13 16
ATOM     16  CA  PHE E   4      12.840  -4.712 -11.559  1.00 27.92 LIG 0.19  C 
BRANCH 16 17
ATOM     17  C   PHE E   4      13.833  -3.995 -12.475  1.00 28.33 LIG 0.20  C 
ATOM     18 OXT  PHE E   4      13.466  -3.477 -13.527  1.00 30.35 LIG-0.65  OA
ATOM     19 O    PHE E   4      15.022  -3.894 -12.175  1.00 28.81 LIG-0.65  OA
ENDBRANCH 16 17
BRANCH 16 20
ATOM     20  CB  PHE E   4      13.117  -6.226 -11.577  1.00 27.18 LIG 0.07  C 
BRANCH 20 21
ATOM     21  CG  PHE E   4      13.107  -6.862 -10.212  1.00 26.64 LIG-0.06  A 
ATOM     22  CD1 PHE E   4      14.121  -7.741  -9.824  1.00 26.73 LIG 0.01  A 
ATOM     23  CE1 PHE E   4      14.108  -8.332  -8.568  1.00 26.26 LIG 0.00  A 
ATOM     24  CZ  PHE E   4      13.073  -8.046  -7.687  1.00 25.93 LIG 0.00  A 
ATOM     25  CE2 PHE E   4      12.056  -7.179  -8.064  1.00 25.36 LIG 0.00  A 
ATOM     26  CD2 PHE E   4      12.077  -6.592  -9.317  1.00 26.03 LIG 0.01  A 
ENDBRANCH 20 21
ENDBRANCH 16 20
ENDBRANCH 13 16
ENDBRANCH 1 12
BRANCH 1 27
ATOM     27  CB  LEU E   3       8.468  -2.700 -11.252  1.00 28.15 LIG 0.04  C 
BRANCH 27 28
ATOM     28  CG  LEU E   3       7.361  -2.719 -10.194  1.00 27.57 LIG-0.02  C 
ATOM     29  CD2 LEU E   3       6.419  -1.536 -10.356  1.00 27.08 LIG 0.01  C 
ATOM     30  CD1 LEU E   3       7.961  -2.721  -8.796  1.00 27.26 LIG 0.01  C 
ENDBRANCH 27 28
ENDBRANCH 1 27
TORSDOF 11
ENDMDL
MODEL 8
USER: ADFR SOLUTION from run 9
USER: SCORE 10.501878 LL:  -2.494 LR:  -8.314 RR:   0.000 FEB:  -5.033
USER: RMSD 5.701891
USER: SEED 753394
USER: STATUS no improvement in best in 13 clusters for 5 generations
USER: GENES 13
USER: genes 0 Translation |==|  0.43440 0.59338 0.42865
USER: genes 1 Rotation |==|  0.56111 0.57186 0.65860 0.96470
USER: genes 2 Torsion [C]-CA--N-[C] |==|  0.78329
USER: genes 3 Torsion [N]-C--CA-[N] |==|  0.82170
USER: genes 4 Torsion [C]-CA--CB-[CG] |==|  0.62759
USER: genes 5 Torsion [CA]-CB--CG-[OD1] |==|  0.16222
USER: genes 6 Torsion [N]-CA--C-[N] |==|  0.25461
USER: genes 7 Torsion [C]-N--CA-[C] |==|  0.17342
USER: genes 8 Torsion [N]-CA--C-[OXT] |==|  0.72751
USER: genes 9 Torsion [N]-CA--CB-[CG] |==|  0.69953
USER: genes 10 Torsion [CA]-CB--CG-[CD1] |==|  0.13808
USER: genes 11 Torsion [N]-CA--CB-[CG] |==|  0.57935
USER: genes 12 Torsion [CA]-CB--CG-[CD2] |==|  0.90366
ROOT
ATOM      1  CA  LEU E   3       7.303  -3.805 -12.067  1.00 28.46 LIG 0.18  C 
ENDROOT
BRANCH 1 2
ATOM      2  N   LEU E   3       7.552  -5.233 -11.802  1.00 30.36 LIG-0.35  N 
ATOM      3  C   ASP E   2       7.236  -6.193 -12.676  1.00 32.94 LIG 0.26  C 
ATOM      4 O    ASP E   2       6.681  -5.963 -13.760  1.00 32.35 LIG-0.27  OA
ATOM      5 H    LEU E   3       7.917  -5.388 -11.039  1.00 30.36 LIG 0.16  HD
BRANCH 3 6
ATOM      6  CA  ASP E   2       7.585  -7.630 -12.277  1.00 34.24 LIG 0.41  C 
ATOM      7  N   ASP E   2       9.066  -7.747 -12.172  1.00 34.31 LIG 0.61  N 
BRANCH 6 8
ATOM      8  CB  ASP E   2       6.933  -7.989 -10.937  1.00 36.18 LIG 0.16  C 
BRANCH 8 9
ATOM      9  CG  ASP E   2       7.897  -8.691  -9.972  1.00 38.13 LIG 0.17  C 
ATOM     10 OD1  ASP E   2       8.952  -8.104  -9.638  1.00 37.90 LIG-0.65  OA
ATOM     11 OD2  ASP E   2       7.586  -9.819  -9.526  1.00 38.42 LIG-0.65  OA
ENDBRANCH 8 9
ENDBRANCH 6 8
ENDBRANCH 3 6
ENDBRANCH 1 2
BRANCH 1 12
ATOM     12  C   LEU E   3       8.343  -3.197 -13.011  1.00 28.32 LIG 0.24  C 
ATOM     13  N   PHE E   4       8.040  -3.229 -14.308  1.00 27.78 LIG-0.34  N 
ATOM     14 H    PHE E   4       7.285  -3.511 -14.608  1.00 27.78 LIG 0.16  HD
ATOM     15 O    LEU E   3       9.391  -2.722 -12.570  1.00 27.38 LIG-0.27  OA
BRANCH 13 16
ATOM     16  CA  PHE E   4       8.961  -2.789 -15.357  1.00 27.92 LIG 0.19  C 
BRANCH 16 17
ATOM     17  C   PHE E   4      10.217  -3.660 -15.353  1.00 28.33 LIG 0.20  C 
ATOM     18 OXT  PHE E   4      11.246  -3.289 -14.793  1.00 30.35 LIG-0.65  OA
ATOM     19 O    PHE E   4      10.230  -4.767 -15.890  1.00 28.81 LIG-0.65  OA
ENDBRANCH 16 17
BRANCH 16 20
ATOM     20  CB  PHE E   4       9.351  -1.313 -15.162  1.00 27.18 LIG 0.07  C 
BRANCH 20 21
ATOM     21  CG  PHE E   4       8.736  -0.383 -16.175  1.00 26.64 LIG-0.06  A 
ATOM     22  CD1 PHE E   4       7.367  -0.423 -16.445  1.00 26.73 LIG 0.01  A 
ATOM     23  CE1 PHE E   4       6.802   0.430 -17.384  1.00 26.26 LIG 0.00  A 
ATOM     24  CZ  PHE E   4       7.609   1.333 -18.062  1.00 25.93 LIG 0.00  A 
ATOM     25  CE2 PHE E   4       8.973   1.379 -17.806  1.00 25.36 LIG 0.00  A 
ATOM     26  CD2 PHE E   4       9.529   0.527 -16.867  1.00 26.03 LIG 0.01  A 
ENDBRANCH 20 21
ENDBRANCH 16 20
ENDBRANCH 13 16
ENDBRANCH 1 12
BRANCH 1 27
ATOM     27  CB  LEU E   3       7.279  -3.002 -10.756  1.00 28.15 LIG 0.04  C 
BRANCH 27 28
ATOM     28  CG  LEU E   3       6.438  -1.726 -10.656  1.00 27.57 LIG-0.02  C 
ATOM     29  CD2 LEU E   3       6.415  -0.972 -11.977  1.00 27.08 LIG 0.01  C 
ATOM     30  CD1 LEU E   3       6.968  -0.825  -9.550  1.00 27.26 LIG 0.01  C 
ENDBRANCH 27 28
ENDBRANCH 1 27
TORSDOF 11
ENDMDL
MODEL 9
USER: ADFR SOLUTION from run 25
USER: SCORE 10.869731 LL:  -2.791 LR:  -8.295 RR:   0.000 FEB:  -5.014
USER: RMSD 4.561896
USER: SEED 24
USER: STATUS no improvement in best in 21 clusters for 5 generations
USER: GENES 13
USER: genes 0 Translation |==|  0.30170 0.40243 0.43078
USER: genes 1 Rotation |==|  0.44897 0.47057 0.75493 0.92608
USER: genes 2 Torsion [C]-CA--N-[C] |==|  0.71779
USER: genes 3 Torsion [N]-C--CA-[N] |==|  0.75791
USER: genes 4 Torsion [C]-CA--CB-[CG] |==|  0.72850
USER: genes 5 Torsion [CA]-CB--CG-[OD1] |==|  0.06026
USER: genes 6 Torsion [N]-CA--C-[N] |==|  0.92778
USER: genes 7 Torsion [C]-N--CA-[C] |==|  0.66754
USER: genes 8 Torsion [N]-CA--C-[OXT] |==|  0.49201
USER: genes 9 Torsion [N]-CA--CB-[CG] |==|  0.77517
USER: genes 10 Torsion [CA]-CB--CG-[CD1] |==|  0.93840
USER: genes 11 Torsion [N]-CA--CB-[CG] |==|  0.77358
USER: genes 12 Torsion [CA]-CB--CG-[CD2] |==|  0.83349
ROOT
ATOM      1  CA  LEU E   3       5.213  -6.956 -12.036  1.00 28.46 LIG 0.18  C 
ENDROOT
BRANCH 1 2
ATOM      2  N   LEU E   3       5.736  -8.088 -11.253  1.00 30.36 LIG-0.35  N 
ATOM      3  C   ASP E   2       5.871  -9.316 -11.764  1.00 32.94 LIG 0.26  C 
ATOM      4 O    ASP E   2       5.539  -9.605 -12.921  1.00 32.35 LIG-0.27  OA
ATOM      5 H    LEU E   3       5.944  -7.886 -10.443  1.00 30.36 LIG 0.16  HD
BRANCH 3 6
ATOM      6  CA  ASP E   2       6.460 -10.385 -10.839  1.00 34.24 LIG 0.41  C 
ATOM      7  N   ASP E   2       7.944 -10.342 -10.947  1.00 34.31 LIG 0.61  N 
BRANCH 6 8
ATOM      8  CB  ASP E   2       6.032 -10.137  -9.388  1.00 36.18 LIG 0.16  C 
BRANCH 8 9
ATOM      9  CG  ASP E   2       7.096  -9.398  -8.568  1.00 38.13 LIG 0.17  C 
ATOM     10 OD1  ASP E   2       7.962  -8.722  -9.171  1.00 37.90 LIG-0.65  OA
ATOM     11 OD2  ASP E   2       7.050  -9.470  -7.318  1.00 38.42 LIG-0.65  OA
ENDBRANCH 8 9
ENDBRANCH 6 8
ENDBRANCH 3 6
ENDBRANCH 1 2
BRANCH 1 12
ATOM     12  C   LEU E   3       6.324  -6.026 -12.530  1.00 28.32 LIG 0.24  C 
ATOM     13  N   PHE E   4       7.440  -6.015 -11.800  1.00 27.78 LIG-0.34  N 
ATOM     14 H    PHE E   4       7.568  -6.537 -11.130  1.00 27.78 LIG 0.16  HD
ATOM     15 O    LEU E   3       6.166  -5.337 -13.538  1.00 27.38 LIG-0.27  OA
BRANCH 13 16
ATOM     16  CA  PHE E   4       8.560  -5.112 -12.065  1.00 27.92 LIG 0.19  C 
BRANCH 16 17
ATOM     17  C   PHE E   4       9.823  -5.917 -12.371  1.00 28.33 LIG 0.20  C 
ATOM     18 OXT  PHE E   4      10.875  -5.358 -12.674  1.00 30.35 LIG-0.65  OA
ATOM     19 O    PHE E   4       9.832  -7.145 -12.299  1.00 28.81 LIG-0.65  OA
ENDBRANCH 16 17
BRANCH 16 20
ATOM     20  CB  PHE E   4       8.814  -4.183 -10.863  1.00 27.18 LIG 0.07  C 
BRANCH 20 21
ATOM     21  CG  PHE E   4       7.889  -2.995 -10.807  1.00 26.64 LIG-0.06  A 
ATOM     22  CD1 PHE E   4       7.242  -2.537 -11.957  1.00 26.73 LIG 0.01  A 
ATOM     23  CE1 PHE E   4       6.395  -1.438 -11.906  1.00 26.26 LIG 0.00  A 
ATOM     24  CZ  PHE E   4       6.189  -0.787 -10.697  1.00 25.93 LIG 0.00  A 
ATOM     25  CE2 PHE E   4       6.832  -1.230  -9.548  1.00 25.36 LIG 0.00  A 
ATOM     26  CD2 PHE E   4       7.673  -2.328  -9.607  1.00 26.03 LIG 0.01  A 
ENDBRANCH 20 21
ENDBRANCH 16 20
ENDBRANCH 13 16
ENDBRANCH 1 12
BRANCH 1 27
ATOM     27  CB  LEU E   3       4.201  -6.142 -11.213  1.00 28.15 LIG 0.04  C 
BRANCH 27 28
ATOM     28  CG  LEU E   3       2.750  -6.617 -11.098  1.00 27.57 LIG-0.02  C 
ATOM     29  CD2 LEU E   3       2.084  -6.702 -12.463  1.00 27.08 LIG 0.01  C 
ATOM     30  CD1 LEU E   3       1.957  -5.692 -10.187  1.00 27.26 LIG 0.01  C 
ENDBRANCH 27 28
ENDBRANCH 1 27
TORSDOF 11
ENDMDL
MODEL 10
USER: ADFR SOLUTION from run 195
USER: SCORE 10.113212 LL:  -2.300 LR:  -8.282 RR:   0.000 FEB:  -5.001
USER: RMSD 5.300892
USER: SEED 194
USER: STATUS no improvement in best in 8 clusters for 5 generations
USER: GENES 13
USER: genes 0 Translation |==|  0.57455 0.41378 0.53989
USER: genes 1 Rotation |==|  0.71971 0.79110 0.61510 0.82208
USER: genes 2 Torsion [C]-CA--N-[C] |==|  0.67119
USER: genes 3 Torsion [N]-C--CA-[N] |==|  0.75626
USER: genes 4 Torsion [C]-CA--CB-[CG] |==|  0.24185
USER: genes 5 Torsion [CA]-CB--CG-[OD1] |==|  0.70862
USER: genes 6 Torsion [N]-CA--C-[N] |==|  0.22887
USER: genes 7 Torsion [C]-N--CA-[C] |==|  0.21484
USER: genes 8 Torsion [N]-CA--C-[OXT] |==|  0.57166
USER: genes 9 Torsion [N]-CA--CB-[CG] |==|  0.79120
USER: genes 10 Torsion [CA]-CB--CG-[CD1] |==|  0.74642
USER: genes 11 Torsion [N]-CA--CB-[CG] |==|  0.80608
USER: genes 12 Torsion [CA]-CB--CG-[CD2] |==|  0.67771
ROOT
ATOM      1  CA  LEU E   3       9.510  -6.769 -10.482  1.00 28.46 LIG 0.18  C 
ENDROOT
BRANCH 1 2
ATOM      2  N   LEU E   3       9.601  -8.119 -11.064  1.00 30.36 LIG-0.35  N 
ATOM      3  C   ASP E   2       8.810  -9.124 -10.676  1.00 32.94 LIG 0.26  C 
ATOM      4 O    ASP E   2       7.963  -9.010  -9.779  1.00 32.35 LIG-0.27  OA
ATOM      5 H    LEU E   3      10.205  -8.198 -11.671  1.00 30.36 LIG 0.16  HD
BRANCH 3 6
ATOM      6  CA  ASP E   2       8.997 -10.464 -11.395  1.00 34.24 LIG 0.41  C 
ATOM      7  N   ASP E   2       8.138 -10.475 -12.611  1.00 34.31 LIG 0.61  N 
BRANCH 6 8
ATOM      8  CB  ASP E   2      10.466 -10.662 -11.788  1.00 36.18 LIG 0.16  C 
BRANCH 8 9
ATOM      9  CG  ASP E   2      11.302 -11.305 -10.675  1.00 38.13 LIG 0.17  C 
ATOM     10 OD1  ASP E   2      12.092 -10.586 -10.020  1.00 37.90 LIG-0.65  OA
ATOM     11 OD2  ASP E   2      11.149 -12.525 -10.435  1.00 38.42 LIG-0.65  OA
ENDBRANCH 8 9
ENDBRANCH 6 8
ENDBRANCH 3 6
ENDBRANCH 1 2
BRANCH 1 12
ATOM     12  C   LEU E   3       9.141  -5.709 -11.523  1.00 28.32 LIG 0.24  C 
ATOM     13  N   PHE E   4       7.842  -5.595 -11.801  1.00 27.78 LIG-0.34  N 
ATOM     14 H    PHE E   4       7.232  -6.035 -11.385  1.00 27.78 LIG 0.16  HD
ATOM     15 O    LEU E   3      10.013  -5.024 -12.059  1.00 27.38 LIG-0.27  OA
BRANCH 13 16
ATOM     16  CA  PHE E   4       7.321  -4.710 -12.843  1.00 27.92 LIG 0.19  C 
BRANCH 16 17
ATOM     17  C   PHE E   4       7.536  -5.336 -14.221  1.00 28.33 LIG 0.20  C 
ATOM     18 OXT  PHE E   4       7.626  -4.639 -15.229  1.00 30.35 LIG-0.65  OA
ATOM     19 O    PHE E   4       7.649  -6.553 -14.360  1.00 28.81 LIG-0.65  OA
ENDBRANCH 16 17
BRANCH 16 20
ATOM     20  CB  PHE E   4       8.004  -3.331 -12.786  1.00 27.18 LIG 0.07  C 
BRANCH 20 21
ATOM     21  CG  PHE E   4       7.527  -2.463 -11.651  1.00 26.64 LIG-0.06  A 
ATOM     22  CD1 PHE E   4       6.461  -1.577 -11.827  1.00 26.73 LIG 0.01  A 
ATOM     23  CE1 PHE E   4       6.026  -0.772 -10.783  1.00 26.26 LIG 0.00  A 
ATOM     24  CZ  PHE E   4       6.659  -0.848  -9.550  1.00 25.93 LIG 0.00  A 
ATOM     25  CE2 PHE E   4       7.724  -1.720  -9.365  1.00 25.36 LIG 0.00  A 
ATOM     26  CD2 PHE E   4       8.150  -2.522 -10.410  1.00 26.03 LIG 0.01  A 
ENDBRANCH 20 21
ENDBRANCH 16 20
ENDBRANCH 13 16
ENDBRANCH 1 12
BRANCH 1 27
ATOM     27  CB  LEU E   3      10.834  -6.374  -9.807  1.00 28.15 LIG 0.04  C 
BRANCH 27 28
ATOM     28  CG  LEU E   3      11.272  -7.072  -8.515  1.00 27.57 LIG-0.02  C 
ATOM     29  CD2 LEU E   3      11.334  -6.095  -7.351  1.00 27.08 LIG 0.01  C 
ATOM     30  CD1 LEU E   3      12.624  -7.744  -8.705  1.00 27.26 LIG 0.01  C 
ENDBRANCH 27 28
ENDBRANCH 1 27
TORSDOF 11
ENDMDL
MODEL 11
USER: ADFR SOLUTION from run 176
USER: SCORE 10.392767 LL:  -2.231 LR:  -8.268 RR:   0.000 FEB:  -4.987
USER: RMSD 5.840372
USER: SEED 175
USER: STATUS no improvement in best in 25 clusters for 5 generations
USER: GENES 13
USER: genes 0 Translation |==|  0.61599 0.36155 0.52962
USER: genes 1 Rotation |==|  0.60240 0.68494 0.84182 0.79744
USER: genes 2 Torsion [C]-CA--N-[C] |==|  0.63795
USER: genes 3 Torsion [N]-C--CA-[N] |==|  0.89443
USER: genes 4 Torsion [C]-CA--CB-[CG] |==|  0.08298
USER: genes 5 Torsion [CA]-CB--CG-[OD1] |==|  0.25672
USER: genes 6 Torsion [N]-CA--C-[N] |==|  0.46111
USER: genes 7 Torsion [C]-N--CA-[C] |==|  0.17530
USER: genes 8 Torsion [N]-CA--C-[OXT] |==|  0.02521
USER: genes 9 Torsion [N]-CA--CB-[CG] |==|  0.71647
USER: genes 10 Torsion [CA]-CB--CG-[CD1] |==|  0.76231
USER: genes 11 Torsion [N]-CA--CB-[CG] |==|  0.15371
USER: genes 12 Torsion [CA]-CB--CG-[CD2] |==|  0.59118
ROOT
ATOM      1  CA  LEU E   3      10.163  -7.630 -10.628  1.00 28.46 LIG 0.18  C 
ENDROOT
BRANCH 1 2
ATOM      2  N   LEU E   3      11.461  -8.198 -11.033  1.00 30.36 LIG-0.35  N 
ATOM      3  C   ASP E   2      11.654  -9.510 -11.191  1.00 32.94 LIG 0.26  C 
ATOM      4 O    ASP E   2      10.772 -10.353 -10.981  1.00 32.35 LIG-0.27  OA
ATOM      5 H    LEU E   3      12.076  -7.609 -11.156  1.00 30.36 LIG 0.16  HD
BRANCH 3 6
ATOM      6  CA  ASP E   2      13.049  -9.950 -11.647  1.00 34.24 LIG 0.41  C 
ATOM      7  N   ASP E   2      13.559  -8.962 -12.637  1.00 34.31 LIG 0.61  N 
BRANCH 6 8
ATOM      8  CB  ASP E   2      14.004 -10.036 -10.451  1.00 36.18 LIG 0.16  C 
BRANCH 8 9
ATOM      9  CG  ASP E   2      13.291 -10.391  -9.140  1.00 38.13 LIG 0.17  C 
ATOM     10 OD1  ASP E   2      13.210 -11.595  -8.804  1.00 37.90 LIG-0.65  OA
ATOM     11 OD2  ASP E   2      12.836  -9.464  -8.432  1.00 38.42 LIG-0.65  OA
ENDBRANCH 8 9
ENDBRANCH 6 8
ENDBRANCH 3 6
ENDBRANCH 1 2
BRANCH 1 12
ATOM     12  C   LEU E   3       9.721  -6.481 -11.537  1.00 28.32 LIG 0.24  C 
ATOM     13  N   PHE E   4       8.446  -6.108 -11.425  1.00 27.78 LIG-0.34  N 
ATOM     14 H    PHE E   4       7.910  -6.438 -10.840  1.00 27.78 LIG 0.16  HD
ATOM     15 O    LEU E   3      10.515  -5.957 -12.319  1.00 27.38 LIG-0.27  OA
BRANCH 13 16
ATOM     16  CA  PHE E   4       7.828  -5.100 -12.287  1.00 27.92 LIG 0.19  C 
BRANCH 16 17
ATOM     17  C   PHE E   4       7.828  -5.578 -13.739  1.00 28.33 LIG 0.20  C 
ATOM     18 OXT  PHE E   4       8.147  -6.729 -14.029  1.00 30.35 LIG-0.65  OA
ATOM     19 O    PHE E   4       7.487  -4.834 -14.657  1.00 28.81 LIG-0.65  OA
ENDBRANCH 16 17
BRANCH 16 20
ATOM     20  CB  PHE E   4       8.571  -3.756 -12.182  1.00 27.18 LIG 0.07  C 
BRANCH 20 21
ATOM     21  CG  PHE E   4       7.871  -2.740 -11.317  1.00 26.64 LIG-0.06  A 
ATOM     22  CD1 PHE E   4       6.876  -1.915 -11.846  1.00 26.73 LIG 0.01  A 
ATOM     23  CE1 PHE E   4       6.236  -0.974 -11.050  1.00 26.26 LIG 0.00  A 
ATOM     24  CZ  PHE E   4       6.590  -0.853  -9.713  1.00 25.93 LIG 0.00  A 
ATOM     25  CE2 PHE E   4       7.583  -1.663  -9.178  1.00 25.36 LIG 0.00  A 
ATOM     26  CD2 PHE E   4       8.215  -2.601  -9.977  1.00 26.03 LIG 0.01  A 
ENDBRANCH 20 21
ENDBRANCH 16 20
ENDBRANCH 13 16
ENDBRANCH 1 12
BRANCH 1 27
ATOM     27  CB  LEU E   3      10.212  -7.135  -9.173  1.00 28.15 LIG 0.04  C 
BRANCH 27 28
ATOM     28  CG  LEU E   3      11.279  -6.123  -8.746  1.00 27.57 LIG-0.02  C 
ATOM     29  CD2 LEU E   3      11.706  -6.344  -7.302  1.00 27.08 LIG 0.01  C 
ATOM     30  CD1 LEU E   3      10.769  -4.701  -8.927  1.00 27.26 LIG 0.01  C 
ENDBRANCH 27 28
ENDBRANCH 1 27
TORSDOF 11
ENDMDL
MODEL 12
USER: ADFR SOLUTION from run 180
USER: SCORE 10.702766 LL:  -2.491 LR:  -8.211 RR:   0.000 FEB:  -4.930
USER: RMSD 6.578480
USER: SEED 179
USER: STATUS no improvement in best in 11 clusters for 5 generations
USER: GENES 13
USER: genes 0 Translation |==|  0.65673 0.38352 0.56006
USER: genes 1 Rotation |==|  0.53135 0.29473 0.87314 0.76009
USER: genes 2 Torsion [C]-CA--N-[C] |==|  0.82389
USER: genes 3 Torsion [N]-C--CA-[N] |==|  0.86291
USER: genes 4 Torsion [C]-CA--CB-[CG] |==|  0.78161
USER: genes 5 Torsion [CA]-CB--CG-[OD1] |==|  0.73289
USER: genes 6 Torsion [N]-CA--C-[N] |==|  0.38578
USER: genes 7 Torsion [C]-N--CA-[C] |==|  0.14731
USER: genes 8 Torsion [N]-CA--C-[OXT] |==|  0.68944
USER: genes 9 Torsion [N]-CA--CB-[CG] |==|  0.70808
USER: genes 10 Torsion [CA]-CB--CG-[CD1] |==|  0.58015
USER: genes 11 Torsion [N]-CA--CB-[CG] |==|  0.62850
USER: genes 12 Torsion [CA]-CB--CG-[CD2] |==|  0.86350
ROOT
ATOM      1  CA  LEU E   3      10.804  -7.268 -10.194  1.00 28.46 LIG 0.18  C 
ENDROOT
BRANCH 1 2
ATOM      2  N   LEU E   3      11.922  -8.030  -9.611  1.00 30.36 LIG-0.35  N 
ATOM      3  C   ASP E   2      13.201  -7.693  -9.803  1.00 32.94 LIG 0.26  C 
ATOM      4 O    ASP E   2      13.548  -6.736 -10.509  1.00 32.35 LIG-0.27  OA
ATOM      5 H    LEU E   3      11.676  -8.707  -9.140  1.00 30.36 LIG 0.16  HD
BRANCH 3 6
ATOM      6  CA  ASP E   2      14.254  -8.560  -9.107  1.00 34.24 LIG 0.41  C 
ATOM      7  N   ASP E   2      13.874  -8.711  -7.675  1.00 34.31 LIG 0.61  N 
BRANCH 6 8
ATOM      8  CB  ASP E   2      14.342  -9.938  -9.774  1.00 36.18 LIG 0.16  C 
BRANCH 8 9
ATOM      9  CG  ASP E   2      13.211 -10.882  -9.351  1.00 38.13 LIG 0.17  C 
ATOM     10 OD1  ASP E   2      13.421 -11.700  -8.425  1.00 37.90 LIG-0.65  OA
ATOM     11 OD2  ASP E   2      12.101 -10.788  -9.925  1.00 38.42 LIG-0.65  OA
ENDBRANCH 8 9
ENDBRANCH 6 8
ENDBRANCH 3 6
ENDBRANCH 1 2
BRANCH 1 12
ATOM     12  C   LEU E   3      10.737  -5.834  -9.662  1.00 28.32 LIG 0.24  C 
ATOM     13  N   PHE E   4      10.456  -4.893 -10.562  1.00 27.78 LIG-0.34  N 
ATOM     14 H    PHE E   4      10.259  -5.068 -11.380  1.00 27.78 LIG 0.16  HD
ATOM     15 O    LEU E   3      10.942  -5.596  -8.471  1.00 27.38 LIG-0.27  OA
BRANCH 13 16
ATOM     16  CA  PHE E   4      10.454  -3.463 -10.251  1.00 27.92 LIG 0.19  C 
BRANCH 16 17
ATOM     17  C   PHE E   4      11.781  -3.064  -9.604  1.00 28.33 LIG 0.20  C 
ATOM     18 OXT  PHE E   4      11.834  -2.721  -8.425  1.00 30.35 LIG-0.65  OA
ATOM     19 O    PHE E   4      12.836  -3.096 -10.236  1.00 28.81 LIG-0.65  OA
ENDBRANCH 16 17
BRANCH 16 20
ATOM     20  CB  PHE E   4       9.289  -3.105  -9.311  1.00 27.18 LIG 0.07  C 
BRANCH 20 21
ATOM     21  CG  PHE E   4       8.152  -2.392  -9.996  1.00 26.64 LIG-0.06  A 
ATOM     22  CD1 PHE E   4       7.342  -1.497  -9.294  1.00 26.73 LIG 0.01  A 
ATOM     23  CE1 PHE E   4       6.290  -0.846  -9.925  1.00 26.26 LIG 0.00  A 
ATOM     24  CZ  PHE E   4       6.041  -1.088 -11.269  1.00 25.93 LIG 0.00  A 
ATOM     25  CE2 PHE E   4       6.836  -1.981 -11.976  1.00 25.36 LIG 0.00  A 
ATOM     26  CD2 PHE E   4       7.885  -2.625 -11.341  1.00 26.03 LIG 0.01  A 
ENDBRANCH 20 21
ENDBRANCH 16 20
ENDBRANCH 13 16
ENDBRANCH 1 12
BRANCH 1 27
ATOM     27  CB  LEU E   3       9.464  -7.971  -9.925  1.00 28.15 LIG 0.04  C 
BRANCH 27 28
ATOM     28  CG  LEU E   3       8.450  -8.144 -11.059  1.00 27.57 LIG-0.02  C 
ATOM     29  CD2 LEU E   3       8.217  -6.835 -11.800  1.00 27.08 LIG 0.01  C 
ATOM     30  CD1 LEU E   3       7.131  -8.677 -10.518  1.00 27.26 LIG 0.01  C 
ENDBRANCH 27 28
ENDBRANCH 1 27
TORSDOF 11
ENDMDL
MODEL 13
USER: ADFR SOLUTION from run 96
USER: SCORE 10.117684 LL:  -2.084 LR:  -8.128 RR:   0.000 FEB:  -4.847
USER: RMSD 6.473559
USER: SEED 95
USER: STATUS no improvement in best in 20 clusters for 5 generations
USER: GENES 13
USER: genes 0 Translation |==|  0.77485 0.52341 0.47697
USER: genes 1 Rotation |==|  0.52436 0.93428 0.52372 0.74545
USER: genes 2 Torsion [C]-CA--N-[C] |==|  0.74581
USER: genes 3 Torsion [N]-C--CA-[N] |==|  0.15760
USER: genes 4 Torsion [C]-CA--CB-[CG] |==|  0.31560
USER: genes 5 Torsion [CA]-CB--CG-[OD1] |==|  0.38017
USER: genes 6 Torsion [N]-CA--C-[N] |==|  0.45352
USER: genes 7 Torsion [C]-N--CA-[C] |==|  0.64728
USER: genes 8 Torsion [N]-CA--C-[OXT] |==|  0.00111
USER: genes 9 Torsion [N]-CA--CB-[CG] |==|  0.18581
USER: genes 10 Torsion [CA]-CB--CG-[CD1] |==|  0.26658
USER: genes 11 Torsion [N]-CA--CB-[CG] |==|  0.16096
USER: genes 12 Torsion [CA]-CB--CG-[CD2] |==|  0.61919
ROOT
ATOM      1  CA  LEU E   3      12.665  -4.960 -11.378  1.00 28.46 LIG 0.18  C 
ENDROOT
BRANCH 1 2
ATOM      2  N   LEU E   3      13.458  -6.182 -11.160  1.00 30.36 LIG-0.35  N 
ATOM      3  C   ASP E   2      13.250  -6.999 -10.123  1.00 32.94 LIG 0.26  C 
ATOM      4 O    ASP E   2      12.399  -6.780  -9.251  1.00 32.35 LIG-0.27  OA
ATOM      5 H    LEU E   3      14.063  -6.317 -11.757  1.00 30.36 LIG 0.16  HD
BRANCH 3 6
ATOM      6  CA  ASP E   2      14.132  -8.249 -10.044  1.00 34.24 LIG 0.41  C 
ATOM      7  N   ASP E   2      15.559  -7.825 -10.040  1.00 34.31 LIG 0.61  N 
BRANCH 6 8
ATOM      8  CB  ASP E   2      13.818  -9.049  -8.775  1.00 36.18 LIG 0.16  C 
BRANCH 8 9
ATOM      9  CG  ASP E   2      13.189 -10.416  -9.069  1.00 38.13 LIG 0.17  C 
ATOM     10 OD1  ASP E   2      13.586 -11.415  -8.425  1.00 37.90 LIG-0.65  OA
ATOM     11 OD2  ASP E   2      12.278 -10.489  -9.926  1.00 38.42 LIG-0.65  OA
ENDBRANCH 8 9
ENDBRANCH 6 8
ENDBRANCH 3 6
ENDBRANCH 1 2
BRANCH 1 12
ATOM     12  C   LEU E   3      11.443  -5.210 -12.265  1.00 28.32 LIG 0.24  C 
ATOM     13  N   PHE E   4      10.498  -4.270 -12.233  1.00 27.78 LIG-0.34  N 
ATOM     14 H    PHE E   4      10.583  -3.534 -11.797  1.00 27.78 LIG 0.16  HD
ATOM     15 O    LEU E   3      11.362  -6.231 -12.951  1.00 27.38 LIG-0.27  OA
BRANCH 13 16
ATOM     16  CA  PHE E   4       9.220  -4.395 -12.935  1.00 27.92 LIG 0.19  C 
BRANCH 16 17
ATOM     17  C   PHE E   4       8.984  -3.168 -13.817  1.00 28.33 LIG 0.20  C 
ATOM     18 OXT  PHE E   4       9.807  -2.259 -13.874  1.00 30.35 LIG-0.65  OA
ATOM     19 O    PHE E   4       7.974  -3.067 -14.513  1.00 28.81 LIG-0.65  OA
ENDBRANCH 16 17
BRANCH 16 20
ATOM     20  CB  PHE E   4       8.058  -4.550 -11.938  1.00 27.18 LIG 0.07  C 
BRANCH 20 21
ATOM     21  CG  PHE E   4       7.808  -3.323 -11.100  1.00 26.64 LIG-0.06  A 
ATOM     22  CD1 PHE E   4       6.835  -2.391 -11.467  1.00 26.73 LIG 0.01  A 
ATOM     23  CE1 PHE E   4       6.610  -1.258 -10.698  1.00 26.26 LIG 0.00  A 
ATOM     24  CZ  PHE E   4       7.362  -1.048  -9.550  1.00 25.93 LIG 0.00  A 
ATOM     25  CE2 PHE E   4       8.337  -1.964  -9.178  1.00 25.36 LIG 0.00  A 
ATOM     26  CD2 PHE E   4       8.554  -3.094  -9.949  1.00 26.03 LIG 0.01  A 
ENDBRANCH 20 21
ENDBRANCH 16 20
ENDBRANCH 13 16
ENDBRANCH 1 12
BRANCH 1 27
ATOM     27  CB  LEU E   3      13.527  -3.853 -12.006  1.00 28.15 LIG 0.04  C 
BRANCH 27 28
ATOM     28  CG  LEU E   3      14.234  -4.098 -13.342  1.00 27.57 LIG-0.02  C 
ATOM     29  CD2 LEU E   3      15.658  -3.564 -13.324  1.00 27.08 LIG 0.01  C 
ATOM     30  CD1 LEU E   3      13.453  -3.461 -14.483  1.00 27.26 LIG 0.01  C 
ENDBRANCH 27 28
ENDBRANCH 1 27
TORSDOF 11
ENDMDL
MODEL 14
USER: ADFR SOLUTION from run 84
USER: SCORE 10.513983 LL:  -2.410 LR:  -8.114 RR:   0.000 FEB:  -4.832
USER: RMSD 6.438357
USER: SEED 83
USER: STATUS no improvement in best in 24 clusters for 5 generations
USER: GENES 13
USER: genes 0 Translation |==|  0.67295 0.38830 0.66259
USER: genes 1 Rotation |==|  0.83599 0.76587 0.67438 0.68978
USER: genes 2 Torsion [C]-CA--N-[C] |==|  0.76983
USER: genes 3 Torsion [N]-C--CA-[N] |==|  0.88719
USER: genes 4 Torsion [C]-CA--CB-[CG] |==|  0.82796
USER: genes 5 Torsion [CA]-CB--CG-[OD1] |==|  0.29175
USER: genes 6 Torsion [N]-CA--C-[N] |==|  0.97887
USER: genes 7 Torsion [C]-N--CA-[C] |==|  0.14774
USER: genes 8 Torsion [N]-CA--C-[OXT] |==|  0.14031
USER: genes 9 Torsion [N]-CA--CB-[CG] |==|  0.60942
USER: genes 10 Torsion [CA]-CB--CG-[CD1] |==|  0.58816
USER: genes 11 Torsion [N]-CA--CB-[CG] |==|  0.88103
USER: genes 12 Torsion [CA]-CB--CG-[CD2] |==|  0.75062
ROOT
ATOM      1  CA  LEU E   3      11.060  -7.189  -8.733  1.00 28.46 LIG 0.18  C 
ENDROOT
BRANCH 1 2
ATOM      2  N   LEU E   3      10.856  -7.831 -10.043  1.00 30.36 LIG-0.35  N 
ATOM      3  C   ASP E   2       9.681  -8.343 -10.419  1.00 32.94 LIG 0.26  C 
ATOM      4 O    ASP E   2       8.681  -8.346  -9.688  1.00 32.35 LIG-0.27  OA
ATOM      5 H    LEU E   3      11.560  -7.846 -10.538  1.00 30.36 LIG 0.16  HD
BRANCH 3 6
ATOM      6  CA  ASP E   2       9.611  -8.949 -11.824  1.00 34.24 LIG 0.41  C 
ATOM      7  N   ASP E   2      10.374  -8.076 -12.757  1.00 34.31 LIG 0.61  N 
BRANCH 6 8
ATOM      8  CB  ASP E   2      10.202 -10.364 -11.828  1.00 36.18 LIG 0.16  C 
BRANCH 8 9
ATOM      9  CG  ASP E   2      11.685 -10.394 -11.439  1.00 38.13 LIG 0.17  C 
ATOM     10 OD1  ASP E   2      12.003 -10.805 -10.298  1.00 37.90 LIG-0.65  OA
ATOM     11 OD2  ASP E   2      12.537 -10.033 -12.284  1.00 38.42 LIG-0.65  OA
ENDBRANCH 8 9
ENDBRANCH 6 8
ENDBRANCH 3 6
ENDBRANCH 1 2
BRANCH 1 12
ATOM     12  C   LEU E   3      10.609  -5.726  -8.725  1.00 28.32 LIG 0.24  C 
ATOM     13  N   PHE E   4      10.261  -5.218  -9.907  1.00 27.78 LIG-0.34  N 
ATOM     14 H    PHE E   4      10.225  -5.686 -10.627  1.00 27.78 LIG 0.16  HD
ATOM     15 O    LEU E   3      10.586  -5.081  -7.676  1.00 27.38 LIG-0.27  OA
BRANCH 13 16
ATOM     16  CA  PHE E   4       9.906  -3.812 -10.101  1.00 27.92 LIG 0.19  C 
BRANCH 16 17
ATOM     17  C   PHE E   4      11.011  -2.910  -9.551  1.00 28.33 LIG 0.20  C 
ATOM     18 OXT  PHE E   4      12.186  -3.082  -9.864  1.00 30.35 LIG-0.65  OA
ATOM     19 O    PHE E   4      10.754  -1.971  -8.798  1.00 28.81 LIG-0.65  OA
ENDBRANCH 16 17
BRANCH 16 20
ATOM     20  CB  PHE E   4       8.571  -3.481  -9.409  1.00 27.18 LIG 0.07  C 
BRANCH 20 21
ATOM     21  CG  PHE E   4       7.690  -2.552 -10.202  1.00 26.64 LIG-0.06  A 
ATOM     22  CD1 PHE E   4       6.836  -1.652  -9.559  1.00 26.73 LIG 0.01  A 
ATOM     23  CE1 PHE E   4       6.019  -0.801 -10.291  1.00 26.26 LIG 0.00  A 
ATOM     24  CZ  PHE E   4       6.050  -0.846 -11.678  1.00 25.93 LIG 0.00  A 
ATOM     25  CE2 PHE E   4       6.889  -1.741 -12.329  1.00 25.36 LIG 0.00  A 
ATOM     26  CD2 PHE E   4       7.704  -2.585 -11.592  1.00 26.03 LIG 0.01  A 
ENDBRANCH 20 21
ENDBRANCH 16 20
ENDBRANCH 13 16
ENDBRANCH 1 12
BRANCH 1 27
ATOM     27  CB  LEU E   3      12.536  -7.265  -8.310  1.00 28.15 LIG 0.04  C 
BRANCH 27 28
ATOM     28  CG  LEU E   3      13.324  -8.563  -8.513  1.00 27.57 LIG-0.02  C 
ATOM     29  CD2 LEU E   3      13.213  -9.475  -7.300  1.00 27.08 LIG 0.01  C 
ATOM     30  CD1 LEU E   3      14.786  -8.258  -8.804  1.00 27.26 LIG 0.01  C 
ENDBRANCH 27 28
ENDBRANCH 1 27
TORSDOF 11
ENDMDL
MODEL 15
USER: ADFR SOLUTION from run 158
USER: SCORE 10.698934 LL:  -2.621 LR:  -8.100 RR:   0.000 FEB:  -4.818
USER: RMSD 5.026102
USER: SEED 157
USER: STATUS no improvement in best in 18 clusters for 5 generations
USER: GENES 13
USER: genes 0 Translation |==|  0.44312 0.59689 0.43599
USER: genes 1 Rotation |==|  0.57740 0.55797 0.65490 0.96546
USER: genes 2 Torsion [C]-CA--N-[C] |==|  0.82505
USER: genes 3 Torsion [N]-C--CA-[N] |==|  0.77692
USER: genes 4 Torsion [C]-CA--CB-[CG] |==|  0.61236
USER: genes 5 Torsion [CA]-CB--CG-[OD1] |==|  0.39967
USER: genes 6 Torsion [N]-CA--C-[N] |==|  0.36222
USER: genes 7 Torsion [C]-N--CA-[C] |==|  0.56037
USER: genes 8 Torsion [N]-CA--C-[OXT] |==|  0.51451
USER: genes 9 Torsion [N]-CA--CB-[CG] |==|  0.67183
USER: genes 10 Torsion [CA]-CB--CG-[CD1] |==|  0.11929
USER: genes 11 Torsion [N]-CA--CB-[CG] |==|  0.59312
USER: genes 12 Torsion [CA]-CB--CG-[CD2] |==|  0.95258
ROOT
ATOM      1  CA  LEU E   3       7.440  -3.747 -11.962  1.00 28.46 LIG 0.18  C 
ENDROOT
BRANCH 1 2
ATOM      2  N   LEU E   3       7.639  -5.198 -11.800  1.00 30.36 LIG-0.35  N 
ATOM      3  C   ASP E   2       7.604  -6.048 -12.830  1.00 32.94 LIG 0.26  C 
ATOM      4 O    ASP E   2       7.371  -5.692 -13.993  1.00 32.35 LIG-0.27  OA
ATOM      5 H    LEU E   3       7.778  -5.443 -10.987  1.00 30.36 LIG 0.16  HD
BRANCH 3 6
ATOM      6  CA  ASP E   2       7.860  -7.525 -12.513  1.00 34.24 LIG 0.41  C 
ATOM      7  N   ASP E   2       9.329  -7.736 -12.391  1.00 34.31 LIG 0.61  N 
BRANCH 6 8
ATOM      8  CB  ASP E   2       7.163  -7.924 -11.207  1.00 36.18 LIG 0.16  C 
BRANCH 8 9
ATOM      9  CG  ASP E   2       8.015  -8.848 -10.331  1.00 38.13 LIG 0.17  C 
ATOM     10 OD1  ASP E   2       7.961  -8.721  -9.085  1.00 37.90 LIG-0.65  OA
ATOM     11 OD2  ASP E   2       8.721  -9.722 -10.886  1.00 38.42 LIG-0.65  OA
ENDBRANCH 8 9
ENDBRANCH 6 8
ENDBRANCH 3 6
ENDBRANCH 1 2
BRANCH 1 12
ATOM     12  C   LEU E   3       8.527  -3.104 -12.827  1.00 28.32 LIG 0.24  C 
ATOM     13  N   PHE E   4       8.095  -2.319 -13.814  1.00 27.78 LIG-0.34  N 
ATOM     14 H    PHE E   4       7.266  -2.124 -13.931  1.00 27.78 LIG 0.16  HD
ATOM     15 O    LEU E   3       9.719  -3.323 -12.606  1.00 27.38 LIG-0.27  OA
BRANCH 13 16
ATOM     16  CA  PHE E   4       8.988  -1.708 -14.800  1.00 27.92 LIG 0.19  C 
BRANCH 16 17
ATOM     17  C   PHE E   4       8.316  -0.488 -15.432  1.00 28.33 LIG 0.20  C 
ATOM     18 OXT  PHE E   4       8.849   0.122 -16.356  1.00 30.35 LIG-0.65  OA
ATOM     19 O    PHE E   4       7.214  -0.096 -15.052  1.00 28.81 LIG-0.65  OA
ENDBRANCH 16 17
BRANCH 16 20
ATOM     20  CB  PHE E   4       9.370  -2.718 -15.896  1.00 27.18 LIG 0.07  C 
BRANCH 20 21
ATOM     21  CG  PHE E   4      10.846  -3.010 -15.965  1.00 26.64 LIG-0.06  A 
ATOM     22  CD1 PHE E   4      11.592  -3.208 -14.801  1.00 26.73 LIG 0.01  A 
ATOM     23  CE1 PHE E   4      12.953  -3.471 -14.865  1.00 26.26 LIG 0.00  A 
ATOM     24  CZ  PHE E   4      13.581  -3.537 -16.101  1.00 25.93 LIG 0.00  A 
ATOM     25  CE2 PHE E   4      12.852  -3.336 -17.266  1.00 25.36 LIG 0.00  A 
ATOM     26  CD2 PHE E   4      11.494  -3.076 -17.194  1.00 26.03 LIG 0.01  A 
ENDBRANCH 20 21
ENDBRANCH 16 20
ENDBRANCH 13 16
ENDBRANCH 1 12
BRANCH 1 27
ATOM     27  CB  LEU E   3       7.400  -3.045 -10.595  1.00 28.15 LIG 0.04  C 
BRANCH 27 28
ATOM     28  CG  LEU E   3       6.505  -1.819 -10.391  1.00 27.57 LIG-0.02  C 
ATOM     29  CD2 LEU E   3       6.079  -1.216 -11.721  1.00 27.08 LIG 0.01  C 
ATOM     30  CD1 LEU E   3       7.220  -0.772  -9.550  1.00 27.26 LIG 0.01  C 
ENDBRANCH 27 28
ENDBRANCH 1 27
TORSDOF 11
ENDMDL
MODEL 16
USER: ADFR SOLUTION from run 79
USER: SCORE 10.872267 LL:  -2.775 LR:  -8.105 RR:   0.000 FEB:  -4.823
USER: RMSD 2.985029
USER: SEED 78
USER: STATUS no improvement in best in 17 clusters for 5 generations
USER: GENES 13
USER: genes 0 Translation |==|  0.43579 0.55702 0.41998
USER: genes 1 Rotation |==|  0.43094 0.40083 0.43009 0.98011
USER: genes 2 Torsion [C]-CA--N-[C] |==|  0.82564
USER: genes 3 Torsion [N]-C--CA-[N] |==|  0.67595
USER: genes 4 Torsion [C]-CA--CB-[CG] |==|  0.41048
USER: genes 5 Torsion [CA]-CB--CG-[OD1] |==|  0.54471
USER: genes 6 Torsion [N]-CA--C-[N] |==|  0.92032
USER: genes 7 Torsion [C]-N--CA-[C] |==|  0.62026
USER: genes 8 Torsion [N]-CA--C-[OXT] |==|  0.85399
USER: genes 9 Torsion [N]-CA--CB-[CG] |==|  0.87382
USER: genes 10 Torsion [CA]-CB--CG-[CD1] |==|  0.20225
USER: genes 11 Torsion [N]-CA--CB-[CG] |==|  0.81982
USER: genes 12 Torsion [CA]-CB--CG-[CD2] |==|  0.75512
ROOT
ATOM      1  CA  LEU E   3       7.325  -4.405 -12.190  1.00 28.46 LIG 0.18  C 
ENDROOT
BRANCH 1 2
ATOM      2  N   LEU E   3       6.108  -5.139 -11.800  1.00 30.36 LIG-0.35  N 
ATOM      3  C   ASP E   2       5.679  -6.221 -12.455  1.00 32.94 LIG 0.26  C 
ATOM      4 O    ASP E   2       6.250  -6.675 -13.456  1.00 32.35 LIG-0.27  OA
ATOM      5 H    LEU E   3       5.704  -4.806 -11.117  1.00 30.36 LIG 0.16  HD
BRANCH 3 6
ATOM      6  CA  ASP E   2       4.417  -6.898 -11.914  1.00 34.24 LIG 0.41  C 
ATOM      7  N   ASP E   2       4.770  -8.273 -11.463  1.00 34.31 LIG 0.61  N 
BRANCH 6 8
ATOM      8  CB  ASP E   2       3.835  -6.095 -10.744  1.00 36.18 LIG 0.16  C 
BRANCH 8 9
ATOM      9  CG  ASP E   2       2.307  -6.182 -10.660  1.00 38.13 LIG 0.17  C 
ATOM     10 OD1  ASP E   2       1.692  -5.346  -9.957  1.00 37.90 LIG-0.65  OA
ATOM     11 OD2  ASP E   2       1.717  -7.069 -11.319  1.00 38.42 LIG-0.65  OA
ENDBRANCH 8 9
ENDBRANCH 6 8
ENDBRANCH 3 6
ENDBRANCH 1 2
BRANCH 1 12
ATOM     12  C   LEU E   3       8.586  -5.264 -12.070  1.00 28.32 LIG 0.24  C 
ATOM     13  N   PHE E   4       8.551  -6.223 -11.145  1.00 27.78 LIG-0.34  N 
ATOM     14 H    PHE E   4       7.849  -6.403 -10.682  1.00 27.78 LIG 0.16  HD
ATOM     15 O    LEU E   3       9.562  -5.053 -12.792  1.00 27.38 LIG-0.27  OA
BRANCH 13 16
ATOM     16  CA  PHE E   4       9.701  -7.068 -10.823  1.00 27.92 LIG 0.19  C 
BRANCH 16 17
ATOM     17  C   PHE E   4       9.259  -8.524 -10.675  1.00 28.33 LIG 0.20  C 
ATOM     18 OXT  PHE E   4       8.336  -8.835  -9.926  1.00 30.35 LIG-0.65  OA
ATOM     19 O    PHE E   4       9.799  -9.424 -11.317  1.00 28.81 LIG-0.65  OA
ENDBRANCH 16 17
BRANCH 16 20
ATOM     20  CB  PHE E   4      10.383  -6.597  -9.526  1.00 27.18 LIG 0.07  C 
BRANCH 20 21
ATOM     21  CG  PHE E   4      10.584  -5.106  -9.451  1.00 26.64 LIG-0.06  A 
ATOM     22  CD1 PHE E   4       9.503  -4.248  -9.237  1.00 26.73 LIG 0.01  A 
ATOM     23  CE1 PHE E   4       9.689  -2.873  -9.175  1.00 26.26 LIG 0.00  A 
ATOM     24  CZ  PHE E   4      10.963  -2.346  -9.329  1.00 25.93 LIG 0.00  A 
ATOM     25  CE2 PHE E   4      12.045  -3.189  -9.550  1.00 25.36 LIG 0.00  A 
ATOM     26  CD2 PHE E   4      11.853  -4.559  -9.607  1.00 26.03 LIG 0.01  A 
ENDBRANCH 20 21
ENDBRANCH 16 20
ENDBRANCH 13 16
ENDBRANCH 1 12
BRANCH 1 27
ATOM     27  CB  LEU E   3       7.494  -3.136 -11.340  1.00 28.15 LIG 0.04  C 
BRANCH 27 28
ATOM     28  CG  LEU E   3       6.470  -2.002 -11.445  1.00 27.57 LIG-0.02  C 
ATOM     29  CD2 LEU E   3       6.836  -1.023 -12.550  1.00 27.08 LIG 0.01  C 
ATOM     30  CD1 LEU E   3       6.350  -1.268 -10.117  1.00 27.26 LIG 0.01  C 
ENDBRANCH 27 28
ENDBRANCH 1 27
TORSDOF 11
ENDMDL
MODEL 17
USER: ADFR SOLUTION from run 196
USER: SCORE 10.609281 LL:  -2.627 LR:  -8.077 RR:   0.000 FEB:  -4.795
USER: RMSD 4.864706
USER: SEED 195
USER: STATUS no improvement in best in 16 clusters for 5 generations
USER: GENES 13
USER: genes 0 Translation |==|  0.55676 0.41621 0.55263
USER: genes 1 Rotation |==|  0.80277 0.76113 0.37960 0.77503
USER: genes 2 Torsion [C]-CA--N-[C] |==|  0.17764
USER: genes 3 Torsion [N]-C--CA-[N] |==|  0.64710
USER: genes 4 Torsion [C]-CA--CB-[CG] |==|  0.79475
USER: genes 5 Torsion [CA]-CB--CG-[OD1] |==|  0.91915
USER: genes 6 Torsion [N]-CA--C-[N] |==|  0.08948
USER: genes 7 Torsion [C]-N--CA-[C] |==|  0.15927
USER: genes 8 Torsion [N]-CA--C-[OXT] |==|  0.08810
USER: genes 9 Torsion [N]-CA--CB-[CG] |==|  0.82259
USER: genes 10 Torsion [CA]-CB--CG-[CD1] |==|  0.74875
USER: genes 11 Torsion [N]-CA--CB-[CG] |==|  0.61670
USER: genes 12 Torsion [CA]-CB--CG-[CD2] |==|  0.39775
ROOT
ATOM      1  CA  LEU E   3       9.230  -6.728 -10.300  1.00 28.46 LIG 0.18  C 
ENDROOT
BRANCH 1 2
ATOM      2  N   LEU E   3       8.090  -7.662 -10.272  1.00 30.36 LIG-0.35  N 
ATOM      3  C   ASP E   2       7.863  -8.549 -11.245  1.00 32.94 LIG 0.26  C 
ATOM      4 O    ASP E   2       8.571  -8.638 -12.257  1.00 32.35 LIG-0.27  OA
ATOM      5 H    LEU E   3       7.589  -7.581  -9.577  1.00 30.36 LIG 0.16  HD
BRANCH 3 6
ATOM      6  CA  ASP E   2       6.658  -9.476 -11.063  1.00 34.24 LIG 0.41  C 
ATOM      7  N   ASP E   2       7.114 -10.885 -11.220  1.00 34.31 LIG 0.61  N 
BRANCH 6 8
ATOM      8  CB  ASP E   2       6.032  -9.279  -9.677  1.00 36.18 LIG 0.16  C 
BRANCH 8 9
ATOM      9  CG  ASP E   2       6.871  -9.890  -8.549  1.00 38.13 LIG 0.17  C 
ATOM     10 OD1  ASP E   2       7.586 -10.888  -8.799  1.00 37.90 LIG-0.65  OA
ATOM     11 OD2  ASP E   2       6.837  -9.355  -7.416  1.00 38.42 LIG-0.65  OA
ENDBRANCH 8 9
ENDBRANCH 6 8
ENDBRANCH 3 6
ENDBRANCH 1 2
BRANCH 1 12
ATOM     12  C   LEU E   3       9.148  -5.744 -11.469  1.00 28.32 LIG 0.24  C 
ATOM     13  N   PHE E   4       7.920  -5.387 -11.844  1.00 27.78 LIG-0.34  N 
ATOM     14 H    PHE E   4       7.211  -5.634 -11.425  1.00 27.78 LIG 0.16  HD
ATOM     15 O    LEU E   3      10.172  -5.330 -12.015  1.00 27.38 LIG-0.27  OA
BRANCH 13 16
ATOM     16  CA  PHE E   4       7.652  -4.538 -13.005  1.00 27.92 LIG 0.19  C 
BRANCH 16 17
ATOM     17  C   PHE E   4       8.244  -5.170 -14.266  1.00 28.33 LIG 0.20  C 
ATOM     18 OXT  PHE E   4       8.317  -6.390 -14.390  1.00 30.35 LIG-0.65  OA
ATOM     19 O    PHE E   4       8.643  -4.477 -15.201  1.00 28.81 LIG-0.65  OA
ENDBRANCH 16 17
BRANCH 16 20
ATOM     20  CB  PHE E   4       8.238  -3.129 -12.805  1.00 27.18 LIG 0.07  C 
BRANCH 20 21
ATOM     21  CG  PHE E   4       7.615  -2.368 -11.664  1.00 26.64 LIG-0.06  A 
ATOM     22  CD1 PHE E   4       6.502  -1.550 -11.873  1.00 26.73 LIG 0.01  A 
ATOM     23  CE1 PHE E   4       5.932  -0.843 -10.823  1.00 26.26 LIG 0.00  A 
ATOM     24  CZ  PHE E   4       6.476  -0.951  -9.550  1.00 25.93 LIG 0.00  A 
ATOM     25  CE2 PHE E   4       7.586  -1.756  -9.331  1.00 25.36 LIG 0.00  A 
ATOM     26  CD2 PHE E   4       8.147  -2.460 -10.383  1.00 26.03 LIG 0.01  A 
ENDBRANCH 20 21
ENDBRANCH 16 20
ENDBRANCH 13 16
ENDBRANCH 1 12
BRANCH 1 27
ATOM     27  CB  LEU E   3      10.561  -7.494 -10.376  1.00 28.15 LIG 0.04  C 
BRANCH 27 28
ATOM     28  CG  LEU E   3      11.753  -7.041  -9.528  1.00 27.57 LIG-0.02  C 
ATOM     29  CD2 LEU E   3      12.554  -8.229  -9.017  1.00 27.08 LIG 0.01  C 
ATOM     30  CD1 LEU E   3      11.283  -6.187  -8.359  1.00 27.26 LIG 0.01  C 
ENDBRANCH 27 28
ENDBRANCH 1 27
TORSDOF 11
ENDMDL
MODEL 18
USER: ADFR SOLUTION from run 86
USER: SCORE 10.493267 LL:  -2.523 LR:  -8.067 RR:   0.000 FEB:  -4.785
USER: RMSD 5.019355
USER: SEED 85
USER: STATUS no improvement in best in 13 clusters for 5 generations
USER: GENES 13
USER: genes 0 Translation |==|  0.49285 0.59890 0.41889
USER: genes 1 Rotation |==|  0.73012 0.16240 0.25004 0.64351
USER: genes 2 Torsion [C]-CA--N-[C] |==|  0.81622
USER: genes 3 Torsion [N]-C--CA-[N] |==|  0.60299
USER: genes 4 Torsion [C]-CA--CB-[CG] |==|  0.26600
USER: genes 5 Torsion [CA]-CB--CG-[OD1] |==|  0.78528
USER: genes 6 Torsion [N]-CA--C-[N] |==|  0.46111
USER: genes 7 Torsion [C]-N--CA-[C] |==|  0.63022
USER: genes 8 Torsion [N]-CA--C-[OXT] |==|  0.69696
USER: genes 9 Torsion [N]-CA--CB-[CG] |==|  0.09597
USER: genes 10 Torsion [CA]-CB--CG-[CD1] |==|  0.30091
USER: genes 11 Torsion [N]-CA--CB-[CG] |==|  0.70551
USER: genes 12 Torsion [CA]-CB--CG-[CD2] |==|  0.27041
ROOT
ATOM      1  CA  LEU E   3       8.223  -3.714 -12.206  1.00 28.46 LIG 0.18  C 
ENDROOT
BRANCH 1 2
ATOM      2  N   LEU E   3       8.473  -2.902 -13.410  1.00 30.36 LIG-0.35  N 
ATOM      3  C   ASP E   2       9.661  -2.865 -14.019  1.00 32.94 LIG 0.26  C 
ATOM      4 O    ASP E   2      10.652  -3.483 -13.605  1.00 32.35 LIG-0.27  OA
ATOM      5 H    LEU E   3       7.787  -2.458 -13.680  1.00 30.36 LIG 0.16  HD
BRANCH 3 6
ATOM      6  CA  ASP E   2       9.762  -2.001 -15.280  1.00 34.24 LIG 0.41  C 
ATOM      7  N   ASP E   2      10.654  -2.687 -16.255  1.00 34.31 LIG 0.61  N 
BRANCH 6 8
ATOM      8  CB  ASP E   2       8.375  -1.788 -15.897  1.00 36.18 LIG 0.16  C 
BRANCH 8 9
ATOM      9  CG  ASP E   2       7.723  -0.470 -15.463  1.00 38.13 LIG 0.17  C 
ATOM     10 OD1  ASP E   2       7.211  -0.396 -14.321  1.00 37.90 LIG-0.65  OA
ATOM     11 OD2  ASP E   2       7.746   0.503 -16.252  1.00 38.42 LIG-0.65  OA
ENDBRANCH 8 9
ENDBRANCH 6 8
ENDBRANCH 3 6
ENDBRANCH 1 2
BRANCH 1 12
ATOM     12  C   LEU E   3       8.316  -5.216 -12.487  1.00 28.32 LIG 0.24  C 
ATOM     13  N   PHE E   4       8.392  -6.005 -11.415  1.00 27.78 LIG-0.34  N 
ATOM     14 H    PHE E   4       8.330  -5.711 -10.610  1.00 27.78 LIG 0.16  HD
ATOM     15 O    LEU E   3       8.324  -5.640 -13.644  1.00 27.38 LIG-0.27  OA
BRANCH 13 16
ATOM     16  CA  PHE E   4       8.590  -7.452 -11.499  1.00 27.92 LIG 0.19  C 
BRANCH 16 17
ATOM     17  C   PHE E   4       7.604  -8.172 -10.579  1.00 28.33 LIG 0.20  C 
ATOM     18 OXT  PHE E   4       7.983  -8.727  -9.550  1.00 30.35 LIG-0.65  OA
ATOM     19 O    PHE E   4       6.399  -8.197 -10.827  1.00 28.81 LIG-0.65  OA
ENDBRANCH 16 17
BRANCH 16 20
ATOM     20  CB  PHE E   4      10.031  -7.833 -11.116  1.00 27.18 LIG 0.07  C 
BRANCH 20 21
ATOM     21  CG  PHE E   4      10.625  -6.962 -10.040  1.00 26.64 LIG-0.06  A 
ATOM     22  CD1 PHE E   4      10.828  -7.456  -8.749  1.00 26.73 LIG 0.01  A 
ATOM     23  CE1 PHE E   4      11.369  -6.650  -7.757  1.00 26.26 LIG 0.00  A 
ATOM     24  CZ  PHE E   4      11.711  -5.337  -8.050  1.00 25.93 LIG 0.00  A 
ATOM     25  CE2 PHE E   4      11.507  -4.833  -9.328  1.00 25.36 LIG 0.00  A 
ATOM     26  CD2 PHE E   4      10.970  -5.643 -10.314  1.00 26.03 LIG 0.01  A 
ENDBRANCH 20 21
ENDBRANCH 16 20
ENDBRANCH 13 16
ENDBRANCH 1 12
BRANCH 1 27
ATOM     27  CB  LEU E   3       6.844  -3.396 -11.607  1.00 28.15 LIG 0.04  C 
BRANCH 27 28
ATOM     28  CG  LEU E   3       6.739  -2.571 -10.321  1.00 27.57 LIG-0.02  C 
ATOM     29  CD2 LEU E   3       6.463  -1.105 -10.622  1.00 27.08 LIG 0.01  C 
ATOM     30  CD1 LEU E   3       8.013  -2.703  -9.499  1.00 27.26 LIG 0.01  C 
ENDBRANCH 27 28
ENDBRANCH 1 27
TORSDOF 11
ENDMDL
MODEL 19
USER: ADFR SOLUTION from run 194
USER: SCORE 9.742365 LL:  -2.254 LR:  -8.075 RR:   0.000 FEB:  -4.793
USER: RMSD 6.309291
USER: SEED 193
USER: STATUS no improvement in best in 16 clusters for 5 generations
USER: GENES 13
USER: genes 0 Translation |==|  0.81827 0.46317 0.47929
USER: genes 1 Rotation |==|  0.54217 0.95794 0.36411 0.64159
USER: genes 2 Torsion [C]-CA--N-[C] |==|  0.81111
USER: genes 3 Torsion [N]-C--CA-[N] |==|  0.53112
USER: genes 4 Torsion [C]-CA--CB-[CG] |==|  0.68656
USER: genes 5 Torsion [CA]-CB--CG-[OD1] |==|  0.33596
USER: genes 6 Torsion [N]-CA--C-[N] |==|  0.23359
USER: genes 7 Torsion [C]-N--CA-[C] |==|  0.16617
USER: genes 8 Torsion [N]-CA--C-[OXT] |==|  0.22835
USER: genes 9 Torsion [N]-CA--CB-[CG] |==|  0.69307
USER: genes 10 Torsion [CA]-CB--CG-[CD1] |==|  0.56612
USER: genes 11 Torsion [N]-CA--CB-[CG] |==|  0.59609
USER: genes 12 Torsion [CA]-CB--CG-[CD2] |==|  0.37380
ROOT
ATOM      1  CA  LEU E   3      13.349  -5.954 -11.345  1.00 28.46 LIG 0.18  C 
ENDROOT
BRANCH 1 2
ATOM      2  N   LEU E   3      13.864  -7.206 -10.765  1.00 30.36 LIG-0.35  N 
ATOM      3  C   ASP E   2      13.617  -7.570  -9.503  1.00 32.94 LIG 0.26  C 
ATOM      4 O    ASP E   2      12.966  -6.872  -8.714  1.00 32.35 LIG-0.27  OA
ATOM      5 H    LEU E   3      14.334  -7.677 -11.311  1.00 30.36 LIG 0.16  HD
BRANCH 3 6
ATOM      6  CA  ASP E   2      14.191  -8.915  -9.050  1.00 34.24 LIG 0.41  C 
ATOM      7  N   ASP E   2      13.593  -9.268  -7.733  1.00 34.31 LIG 0.61  N 
BRANCH 6 8
ATOM      8  CB  ASP E   2      13.877 -10.008 -10.078  1.00 36.18 LIG 0.16  C 
BRANCH 8 9
ATOM      9  CG  ASP E   2      12.903 -11.067  -9.548  1.00 38.13 LIG 0.17  C 
ATOM     10 OD1  ASP E   2      11.819 -11.248 -10.150  1.00 37.90 LIG-0.65  OA
ATOM     11 OD2  ASP E   2      13.233 -11.739  -8.543  1.00 38.42 LIG-0.65  OA
ENDBRANCH 8 9
ENDBRANCH 6 8
ENDBRANCH 3 6
ENDBRANCH 1 2
BRANCH 1 12
ATOM     12  C   LEU E   3      11.826  -5.969 -11.505  1.00 28.32 LIG 0.24  C 
ATOM     13  N   PHE E   4      11.125  -5.631 -10.424  1.00 27.78 LIG-0.34  N 
ATOM     14 H    PHE E   4      11.488  -5.357  -9.694  1.00 27.78 LIG 0.16  HD
ATOM     15 O    LEU E   3      11.310  -6.285 -12.578  1.00 27.38 LIG-0.27  OA
BRANCH 13 16
ATOM     16  CA  PHE E   4       9.664  -5.691 -10.366  1.00 27.92 LIG 0.19  C 
BRANCH 16 17
ATOM     17  C   PHE E   4       9.186  -7.121 -10.619  1.00 28.33 LIG 0.20  C 
ATOM     18 OXT  PHE E   4       9.172  -7.955  -9.717  1.00 30.35 LIG-0.65  OA
ATOM     19 O    PHE E   4       8.781  -7.474 -11.726  1.00 28.81 LIG-0.65  OA
ENDBRANCH 16 17
BRANCH 16 20
ATOM     20  CB  PHE E   4       9.032  -4.742 -11.400  1.00 27.18 LIG 0.07  C 
BRANCH 20 21
ATOM     21  CG  PHE E   4       8.338  -3.553 -10.790  1.00 26.64 LIG-0.06  A 
ATOM     22  CD1 PHE E   4       7.327  -2.881 -11.480  1.00 26.73 LIG 0.01  A 
ATOM     23  CE1 PHE E   4       6.692  -1.781 -10.919  1.00 26.26 LIG 0.00  A 
ATOM     24  CZ  PHE E   4       7.069  -1.343  -9.657  1.00 25.93 LIG 0.00  A 
ATOM     25  CE2 PHE E   4       8.078  -1.998  -8.963  1.00 25.36 LIG 0.00  A 
ATOM     26  CD2 PHE E   4       8.704  -3.096  -9.528  1.00 26.03 LIG 0.01  A 
ENDBRANCH 20 21
ENDBRANCH 16 20
ENDBRANCH 13 16
ENDBRANCH 1 12
BRANCH 1 27
ATOM     27  CB  LEU E   3      13.998  -5.675 -12.710  1.00 28.15 LIG 0.04  C 
BRANCH 27 28
ATOM     28  CG  LEU E   3      14.289  -4.235 -13.140  1.00 27.57 LIG-0.02  C 
ATOM     29  CD2 LEU E   3      15.684  -4.102 -13.731  1.00 27.08 LIG 0.01  C 
ATOM     30  CD1 LEU E   3      14.129  -3.285 -11.962  1.00 27.26 LIG 0.01  C 
ENDBRANCH 27 28
ENDBRANCH 1 27
TORSDOF 11
ENDMDL
MODEL 20
USER: ADFR SOLUTION from run 101
USER: SCORE 9.864382 LL:  -2.281 LR:  -7.938 RR:   0.000 FEB:  -4.657
USER: RMSD 3.624948
USER: SEED 100
USER: STATUS no improvement in best in 19 clusters for 5 generations
USER: GENES 13
USER: genes 0 Translation |==|  0.59473 0.48483 0.52777
USER: genes 1 Rotation |==|  0.50642 0.32873 0.43692 0.96545
USER: genes 2 Torsion [C]-CA--N-[C] |==|  0.78881
USER: genes 3 Torsion [N]-C--CA-[N] |==|  0.61564
USER: genes 4 Torsion [C]-CA--CB-[CG] |==|  0.80033
USER: genes 5 Torsion [CA]-CB--CG-[OD1] |==|  0.92465
USER: genes 6 Torsion [N]-CA--C-[N] |==|  0.18235
USER: genes 7 Torsion [C]-N--CA-[C] |==|  0.17465
USER: genes 8 Torsion [N]-CA--C-[OXT] |==|  0.27433
USER: genes 9 Torsion [N]-CA--CB-[CG] |==|  0.83942
USER: genes 10 Torsion [CA]-CB--CG-[CD1] |==|  0.69457
USER: genes 11 Torsion [N]-CA--CB-[CG] |==|  0.62938
USER: genes 12 Torsion [CA]-CB--CG-[CD2] |==|  0.73207
ROOT
ATOM      1  CA  LEU E   3       9.828  -5.596 -10.654  1.00 28.46 LIG 0.18  C 
ENDROOT
BRANCH 1 2
ATOM      2  N   LEU E   3       8.678  -6.495 -10.857  1.00 30.36 LIG-0.35  N 
ATOM      3  C   ASP E   2       8.521  -7.223 -11.966  1.00 32.94 LIG 0.26  C 
ATOM      4 O    ASP E   2       9.308  -7.178 -12.921  1.00 32.35 LIG-0.27  OA
ATOM      5 H    LEU E   3       8.123  -6.505 -10.200  1.00 30.36 LIG 0.16  HD
BRANCH 3 6
ATOM      6  CA  ASP E   2       7.293  -8.137 -12.021  1.00 34.24 LIG 0.41  C 
ATOM      7  N   ASP E   2       7.697  -9.441 -12.615  1.00 34.31 LIG 0.61  N 
BRANCH 6 8
ATOM      8  CB  ASP E   2       6.721  -8.355 -10.615  1.00 36.18 LIG 0.16  C 
BRANCH 8 9
ATOM      9  CG  ASP E   2       7.604  -9.256  -9.743  1.00 38.13 LIG 0.17  C 
ATOM     10 OD1  ASP E   2       8.337 -10.106 -10.300  1.00 37.90 LIG-0.65  OA
ATOM     11 OD2  ASP E   2       7.585  -9.096  -8.501  1.00 38.42 LIG-0.65  OA
ENDBRANCH 8 9
ENDBRANCH 6 8
ENDBRANCH 3 6
ENDBRANCH 1 2
BRANCH 1 12
ATOM     12  C   LEU E   3      11.109  -6.359 -10.305  1.00 28.32 LIG 0.24  C 
ATOM     13  N   PHE E   4      11.593  -7.151 -11.261  1.00 27.78 LIG-0.34  N 
ATOM     14 H    PHE E   4      11.257  -7.193 -12.051  1.00 27.78 LIG 0.16  HD
ATOM     15 O    LEU E   3      11.632  -6.234  -9.196  1.00 27.38 LIG-0.27  OA
BRANCH 13 16
ATOM     16  CA  PHE E   4      12.746  -8.030 -11.064  1.00 27.92 LIG 0.19  C 
BRANCH 16 17
ATOM     17  C   PHE E   4      12.433  -9.076  -9.994  1.00 28.33 LIG 0.20  C 
ATOM     18 OXT  PHE E   4      12.086 -10.214 -10.300  1.00 30.35 LIG-0.65  OA
ATOM     19 O    PHE E   4      12.543  -8.817  -8.796  1.00 28.81 LIG-0.65  OA
ENDBRANCH 16 17
BRANCH 16 20
ATOM     20  CB  PHE E   4      13.990  -7.222 -10.654  1.00 27.18 LIG 0.07  C 
BRANCH 20 21
ATOM     21  CG  PHE E   4      14.378  -6.156 -11.646  1.00 26.64 LIG-0.06  A 
ATOM     22  CD1 PHE E   4      15.535  -6.283 -12.417  1.00 26.73 LIG 0.01  A 
ATOM     23  CE1 PHE E   4      15.894  -5.297 -13.326  1.00 26.26 LIG 0.00  A 
ATOM     24  CZ  PHE E   4      15.094  -4.172 -13.469  1.00 25.93 LIG 0.00  A 
ATOM     25  CE2 PHE E   4      13.944  -4.031 -12.703  1.00 25.36 LIG 0.00  A 
ATOM     26  CD2 PHE E   4      13.591  -5.020 -11.800  1.00 26.03 LIG 0.01  A 
ENDBRANCH 20 21
ENDBRANCH 16 20
ENDBRANCH 13 16
ENDBRANCH 1 12
BRANCH 1 27
ATOM     27  CB  LEU E   3       9.532  -4.570  -9.548  1.00 28.15 LIG 0.04  C 
BRANCH 27 28
ATOM     28  CG  LEU E   3       9.855  -3.090  -9.771  1.00 27.57 LIG-0.02  C 
ATOM     29  CD2 LEU E   3      11.206  -2.721  -9.175  1.00 27.08 LIG 0.01  C 
ATOM     30  CD1 LEU E   3       8.765  -2.211  -9.176  1.00 27.26 LIG 0.01  C 
ENDBRANCH 27 28
ENDBRANCH 1 27
TORSDOF 11
ENDMDL
MODEL 21
USER: ADFR SOLUTION from run 198
USER: SCORE 10.322383 LL:  -2.553 LR:  -7.934 RR:   0.000 FEB:  -4.653
USER: RMSD 7.017813
USER: SEED 197
USER: STATUS no improvement in best in 21 clusters for 5 generations
USER: GENES 13
USER: genes 0 Translation |==|  0.54813 0.70619 0.26107
USER: genes 1 Rotation |==|  0.54283 0.01401 0.51097 0.60889
USER: genes 2 Torsion [C]-CA--N-[C] |==|  0.67103
USER: genes 3 Torsion [N]-C--CA-[N] |==|  0.13783
USER: genes 4 Torsion [C]-CA--CB-[CG] |==|  0.77787
USER: genes 5 Torsion [CA]-CB--CG-[OD1] |==|  0.52084
USER: genes 6 Torsion [N]-CA--C-[N] |==|  0.46453
USER: genes 7 Torsion [C]-N--CA-[C] |==|  0.64872
USER: genes 8 Torsion [N]-CA--C-[OXT] |==|  0.59754
USER: genes 9 Torsion [N]-CA--CB-[CG] |==|  0.81511
USER: genes 10 Torsion [CA]-CB--CG-[CD1] |==|  0.41858
USER: genes 11 Torsion [N]-CA--CB-[CG] |==|  0.79737
USER: genes 12 Torsion [CA]-CB--CG-[CD2] |==|  0.55636
ROOT
ATOM      1  CA  LEU E   3       9.094  -1.944 -14.455  1.00 28.46 LIG 0.18  C 
ENDROOT
BRANCH 1 2
ATOM      2  N   LEU E   3       9.747  -3.002 -15.246  1.00 30.36 LIG-0.35  N 
ATOM      3  C   ASP E   2      11.075  -3.126 -15.323  1.00 32.94 LIG 0.26  C 
ATOM      4 O    ASP E   2      11.860  -2.349 -14.764  1.00 32.35 LIG-0.27  OA
ATOM      5 H    LEU E   3       9.197  -3.526 -15.650  1.00 30.36 LIG 0.16  HD
BRANCH 3 6
ATOM      6  CA  ASP E   2      11.609  -4.295 -16.157  1.00 34.24 LIG 0.41  C 
ATOM      7  N   ASP E   2      10.926  -4.285 -17.481  1.00 34.31 LIG 0.61  N 
BRANCH 6 8
ATOM      8  CB  ASP E   2      13.125  -4.170 -16.348  1.00 36.18 LIG 0.16  C 
BRANCH 8 9
ATOM      9  CG  ASP E   2      13.510  -3.178 -17.453  1.00 38.13 LIG 0.17  C 
ATOM     10 OD1  ASP E   2      14.711  -3.095 -17.799  1.00 37.90 LIG-0.65  OA
ATOM     11 OD2  ASP E   2      12.606  -2.500 -17.994  1.00 38.42 LIG-0.65  OA
ENDBRANCH 8 9
ENDBRANCH 6 8
ENDBRANCH 3 6
ENDBRANCH 1 2
BRANCH 1 12
ATOM     12  C   LEU E   3       8.219  -2.511 -13.334  1.00 28.32 LIG 0.24  C 
ATOM     13  N   PHE E   4       7.809  -1.635 -12.417  1.00 27.78 LIG-0.34  N 
ATOM     14 H    PHE E   4       7.963  -0.791 -12.471  1.00 27.78 LIG 0.16  HD
ATOM     15 O    LEU E   3       7.934  -3.709 -13.304  1.00 27.38 LIG-0.27  OA
BRANCH 13 16
ATOM     16  CA  PHE E   4       7.055  -2.020 -11.223  1.00 27.92 LIG 0.19  C 
BRANCH 16 17
ATOM     17  C   PHE E   4       5.769  -1.198 -11.126  1.00 28.33 LIG 0.20  C 
ATOM     18 OXT  PHE E   4       5.321  -0.846 -10.038  1.00 30.35 LIG-0.65  OA
ATOM     19 O    PHE E   4       5.158  -0.846 -12.134  1.00 28.81 LIG-0.65  OA
ENDBRANCH 16 17
BRANCH 16 20
ATOM     20  CB  PHE E   4       7.898  -1.817  -9.951  1.00 27.18 LIG 0.07  C 
BRANCH 20 21
ATOM     21  CG  PHE E   4       9.087  -2.737  -9.858  1.00 26.64 LIG-0.06  A 
ATOM     22  CD1 PHE E   4      10.244  -2.346  -9.178  1.00 26.73 LIG 0.01  A 
ATOM     23  CE1 PHE E   4      11.341  -3.192  -9.099  1.00 26.26 LIG 0.00  A 
ATOM     24  CZ  PHE E   4      11.290  -4.441  -9.702  1.00 25.93 LIG 0.00  A 
ATOM     25  CE2 PHE E   4      10.148  -4.839 -10.385  1.00 25.36 LIG 0.00  A 
ATOM     26  CD2 PHE E   4       9.056  -3.991 -10.459  1.00 26.03 LIG 0.01  A 
ENDBRANCH 20 21
ENDBRANCH 16 20
ENDBRANCH 13 16
ENDBRANCH 1 12
BRANCH 1 27
ATOM     27  CB  LEU E   3       8.239  -1.037 -15.355  1.00 28.15 LIG 0.04  C 
BRANCH 27 28
ATOM     28  CG  LEU E   3       8.915  -0.040 -16.300  1.00 27.57 LIG-0.02  C 
ATOM     29  CD2 LEU E   3       7.959   1.068 -16.714  1.00 27.08 LIG 0.01  C 
ATOM     30  CD1 LEU E   3       9.451  -0.754 -17.533  1.00 27.26 LIG 0.01  C 
ENDBRANCH 27 28
ENDBRANCH 1 27
TORSDOF 11
ENDMDL
MODEL 22
USER: ADFR SOLUTION from run 26
USER: SCORE 10.214243 LL:  -2.601 LR:  -7.935 RR:   0.000 FEB:  -4.653
USER: RMSD 6.050455
USER: SEED 25
USER: STATUS no improvement in best in 21 clusters for 5 generations
USER: GENES 13
USER: genes 0 Translation |==|  0.42382 0.59242 0.44875
USER: genes 1 Rotation |==|  0.48466 0.63104 0.78611 0.88825
USER: genes 2 Torsion [C]-CA--N-[C] |==|  0.11693
USER: genes 3 Torsion [N]-C--CA-[N] |==|  0.79013
USER: genes 4 Torsion [C]-CA--CB-[CG] |==|  0.63144
USER: genes 5 Torsion [CA]-CB--CG-[OD1] |==|  0.21258
USER: genes 6 Torsion [N]-CA--C-[N] |==|  0.11667
USER: genes 7 Torsion [C]-N--CA-[C] |==|  0.42672
USER: genes 8 Torsion [N]-CA--C-[OXT] |==|  0.99529
USER: genes 9 Torsion [N]-CA--CB-[CG] |==|  0.62007
USER: genes 10 Torsion [CA]-CB--CG-[CD1] |==|  0.20441
USER: genes 11 Torsion [N]-CA--CB-[CG] |==|  0.18211
USER: genes 12 Torsion [CA]-CB--CG-[CD2] |==|  0.72391
ROOT
ATOM      1  CA  LEU E   3       7.136  -3.821 -11.780  1.00 28.46 LIG 0.18  C 
ENDROOT
BRANCH 1 2
ATOM      2  N   LEU E   3       8.218  -4.691 -11.285  1.00 30.36 LIG-0.35  N 
ATOM      3  C   ASP E   2       9.485  -4.278 -11.188  1.00 32.94 LIG 0.26  C 
ATOM      4 O    ASP E   2       9.856  -3.149 -11.534  1.00 32.35 LIG-0.27  OA
ATOM      5 H    LEU E   3       7.958  -5.481 -11.067  1.00 30.36 LIG 0.16  HD
BRANCH 3 6
ATOM      6  CA  ASP E   2      10.494  -5.283 -10.625  1.00 34.24 LIG 0.41  C 
ATOM      7  N   ASP E   2      10.304  -5.373  -9.151  1.00 34.31 LIG 0.61  N 
BRANCH 6 8
ATOM      8  CB  ASP E   2      10.294  -6.662 -11.265  1.00 36.18 LIG 0.16  C 
BRANCH 8 9
ATOM      9  CG  ASP E   2      10.267  -7.800 -10.238  1.00 38.13 LIG 0.17  C 
ATOM     10 OD1  ASP E   2       9.233  -7.970  -9.550  1.00 37.90 LIG-0.65  OA
ATOM     11 OD2  ASP E   2      11.270  -8.544 -10.136  1.00 38.42 LIG-0.65  OA
ENDBRANCH 8 9
ENDBRANCH 6 8
ENDBRANCH 3 6
ENDBRANCH 1 2
BRANCH 1 12
ATOM     12  C   LEU E   3       7.563  -2.995 -12.997  1.00 28.32 LIG 0.24  C 
ATOM     13  N   PHE E   4       8.286  -3.640 -13.912  1.00 27.78 LIG-0.34  N 
ATOM     14 H    PHE E   4       8.455  -4.482 -13.870  1.00 27.78 LIG 0.16  HD
ATOM     15 O    LEU E   3       7.250  -1.808 -13.091  1.00 27.38 LIG-0.27  OA
BRANCH 13 16
ATOM     16  CA  PHE E   4       8.865  -2.982 -15.084  1.00 27.92 LIG 0.19  C 
BRANCH 16 17
ATOM     17  C   PHE E   4      10.104  -3.744 -15.556  1.00 28.33 LIG 0.20  C 
ATOM     18 OXT  PHE E   4      10.505  -4.738 -14.956  1.00 30.35 LIG-0.65  OA
ATOM     19 O    PHE E   4      10.722  -3.399 -16.562  1.00 28.81 LIG-0.65  OA
ENDBRANCH 16 17
BRANCH 16 20
ATOM     20  CB  PHE E   4       9.242  -1.524 -14.766  1.00 27.18 LIG 0.07  C 
BRANCH 20 21
ATOM     21  CG  PHE E   4       8.862  -0.548 -15.849  1.00 26.64 LIG-0.06  A 
ATOM     22  CD1 PHE E   4       7.528  -0.183 -16.048  1.00 26.73 LIG 0.01  A 
ATOM     23  CE1 PHE E   4       7.178   0.712 -17.050  1.00 26.26 LIG 0.00  A 
ATOM     24  CZ  PHE E   4       8.165   1.248 -17.865  1.00 25.93 LIG 0.00  A 
ATOM     25  CE2 PHE E   4       9.494   0.888 -17.681  1.00 25.36 LIG 0.00  A 
ATOM     26  CD2 PHE E   4       9.836  -0.003 -16.678  1.00 26.03 LIG 0.01  A 
ENDBRANCH 20 21
ENDBRANCH 16 20
ENDBRANCH 13 16
ENDBRANCH 1 12
BRANCH 1 27
ATOM     27  CB  LEU E   3       6.646  -2.874 -10.673  1.00 28.15 LIG 0.04  C 
BRANCH 27 28
ATOM     28  CG  LEU E   3       7.583  -1.799 -10.115  1.00 27.57 LIG-0.02  C 
ATOM     29  CD2 LEU E   3       8.210  -2.237  -8.800  1.00 27.08 LIG 0.01  C 
ATOM     30  CD1 LEU E   3       6.836  -0.487  -9.925  1.00 27.26 LIG 0.01  C 
ENDBRANCH 27 28
ENDBRANCH 1 27
TORSDOF 11
ENDMDL
MODEL 23
USER: ADFR SOLUTION from run 111
USER: SCORE 9.462281 LL:  -2.095 LR:  -7.921 RR:   0.000 FEB:  -4.640
USER: RMSD 4.892833
USER: SEED 110
USER: STATUS searching
USER: GENES 13
USER: genes 0 Translation |==|  0.48567 0.56960 0.40432
USER: genes 1 Rotation |==|  0.10930 0.63661 0.48068 0.77985
USER: genes 2 Torsion [C]-CA--N-[C] |==|  0.67217
USER: genes 3 Torsion [N]-C--CA-[N] |==|  0.92716
USER: genes 4 Torsion [C]-CA--CB-[CG] |==|  0.98763
USER: genes 5 Torsion [CA]-CB--CG-[OD1] |==|  0.78682
USER: genes 6 Torsion [N]-CA--C-[N] |==|  0.18688
USER: genes 7 Torsion [C]-N--CA-[C] |==|  0.63232
USER: genes 8 Torsion [N]-CA--C-[OXT] |==|  0.85430
USER: genes 9 Torsion [N]-CA--CB-[CG] |==|  0.55887
USER: genes 10 Torsion [CA]-CB--CG-[CD1] |==|  0.64239
USER: genes 11 Torsion [N]-CA--CB-[CG] |==|  0.10753
USER: genes 12 Torsion [CA]-CB--CG-[CD2] |==|  0.63584
ROOT
ATOM      1  CA  LEU E   3       8.110  -4.198 -12.413  1.00 28.46 LIG 0.18  C 
ENDROOT
BRANCH 1 2
ATOM      2  N   LEU E   3       8.107  -3.136 -11.391  1.00 30.36 LIG-0.35  N 
ATOM      3  C   ASP E   2       7.058  -2.907 -10.597  1.00 32.94 LIG 0.26  C 
ATOM      4 O    ASP E   2       5.998  -3.544 -10.675  1.00 32.35 LIG-0.27  OA
ATOM      5 H    LEU E   3       8.837  -2.683 -11.356  1.00 30.36 LIG 0.16  HD
BRANCH 3 6
ATOM      6  CA  ASP E   2       7.211  -1.791  -9.559  1.00 34.24 LIG 0.41  C 
ATOM      7  N   ASP E   2       8.657  -1.637  -9.237  1.00 34.31 LIG 0.61  N 
BRANCH 6 8
ATOM      8  CB  ASP E   2       6.651  -0.471 -10.101  1.00 36.18 LIG 0.16  C 
BRANCH 8 9
ATOM      9  CG  ASP E   2       6.188  -0.572 -11.559  1.00 38.13 LIG 0.17  C 
ATOM     10 OD1  ASP E   2       7.049  -0.575 -12.469  1.00 37.90 LIG-0.65  OA
ATOM     11 OD2  ASP E   2       4.962  -0.676 -11.796  1.00 38.42 LIG-0.65  OA
ENDBRANCH 8 9
ENDBRANCH 6 8
ENDBRANCH 3 6
ENDBRANCH 1 2
BRANCH 1 12
ATOM     12  C   LEU E   3       9.189  -5.252 -12.154  1.00 28.32 LIG 0.24  C 
ATOM     13  N   PHE E   4       9.015  -6.008 -11.071  1.00 27.78 LIG-0.34  N 
ATOM     14 H    PHE E   4       8.314  -5.964 -10.574  1.00 27.78 LIG 0.16  HD
ATOM     15 O    LEU E   3      10.152  -5.366 -12.914  1.00 27.38 LIG-0.27  OA
BRANCH 13 16
ATOM     16  CA  PHE E   4       9.997  -6.992 -10.614  1.00 27.92 LIG 0.19  C 
BRANCH 16 17
ATOM     17  C   PHE E   4       9.306  -8.320 -10.302  1.00 28.33 LIG 0.20  C 
ATOM     18 OXT  PHE E   4       8.336  -8.369  -9.550  1.00 30.35 LIG-0.65  OA
ATOM     19 O    PHE E   4       9.685  -9.373 -10.812  1.00 28.81 LIG-0.65  OA
ENDBRANCH 16 17
BRANCH 16 20
ATOM     20  CB  PHE E   4      10.742  -6.487  -9.365  1.00 27.18 LIG 0.07  C 
BRANCH 20 21
ATOM     21  CG  PHE E   4      12.067  -7.164  -9.132  1.00 26.64 LIG-0.06  A 
ATOM     22  CD1 PHE E   4      12.378  -7.722  -7.890  1.00 26.73 LIG 0.01  A 
ATOM     23  CE1 PHE E   4      13.603  -8.339  -7.675  1.00 26.26 LIG 0.00  A 
ATOM     24  CZ  PHE E   4      14.529  -8.402  -8.706  1.00 25.93 LIG 0.00  A 
ATOM     25  CE2 PHE E   4      14.234  -7.845  -9.944  1.00 25.36 LIG 0.00  A 
ATOM     26  CD2 PHE E   4      13.010  -7.233 -10.152  1.00 26.03 LIG 0.01  A 
ENDBRANCH 20 21
ENDBRANCH 16 20
ENDBRANCH 13 16
ENDBRANCH 1 12
BRANCH 1 27
ATOM     27  CB  LEU E   3       8.310  -3.604 -13.817  1.00 28.15 LIG 0.04  C 
BRANCH 27 28
ATOM     28  CG  LEU E   3       9.280  -2.437 -14.024  1.00 27.57 LIG-0.02  C 
ATOM     29  CD2 LEU E   3       8.637  -1.317 -14.829  1.00 27.08 LIG 0.01  C 
ATOM     30  CD1 LEU E   3      10.549  -2.914 -14.715  1.00 27.26 LIG 0.01  C 
ENDBRANCH 27 28
ENDBRANCH 1 27
TORSDOF 11
ENDMDL
MODEL 24
USER: ADFR SOLUTION from run 17
USER: SCORE 10.673418 LL:  -2.912 LR:  -7.860 RR:   0.000 FEB:  -4.578
USER: RMSD 6.035364
USER: SEED 16
USER: STATUS no improvement in best in 17 clusters for 5 generations
USER: GENES 13
USER: genes 0 Translation |==|  0.57718 0.55525 0.61937
USER: genes 1 Rotation |==|  0.81738 0.79770 0.58412 0.73144
USER: genes 2 Torsion [C]-CA--N-[C] |==|  0.17773
USER: genes 3 Torsion [N]-C--CA-[N] |==|  0.65883
USER: genes 4 Torsion [C]-CA--CB-[CG] |==|  0.78517
USER: genes 5 Torsion [CA]-CB--CG-[OD1] |==|  0.88958
USER: genes 6 Torsion [N]-CA--C-[N] |==|  0.08344
USER: genes 7 Torsion [C]-N--CA-[C] |==|  0.72802
USER: genes 8 Torsion [N]-CA--C-[OXT] |==|  0.19587
USER: genes 9 Torsion [N]-CA--CB-[CG] |==|  0.74895
USER: genes 10 Torsion [CA]-CB--CG-[CD1] |==|  0.18792
USER: genes 11 Torsion [N]-CA--CB-[CG] |==|  0.82534
USER: genes 12 Torsion [CA]-CB--CG-[CD2] |==|  0.21217
ROOT
ATOM      1  CA  LEU E   3       9.552  -4.434  -9.349  1.00 28.46 LIG 0.18  C 
ENDROOT
BRANCH 1 2
ATOM      2  N   LEU E   3       9.086  -5.483 -10.273  1.00 30.36 LIG-0.35  N 
ATOM      3  C   ASP E   2       9.526  -5.580 -11.531  1.00 32.94 LIG 0.26  C 
ATOM      4 O    ASP E   2      10.334  -4.783 -12.028  1.00 32.35 LIG-0.27  OA
ATOM      5 H    LEU E   3       8.509  -6.021  -9.930  1.00 30.36 LIG 0.16  HD
BRANCH 3 6
ATOM      6  CA  ASP E   2       8.977  -6.742 -12.365  1.00 34.24 LIG 0.41  C 
ATOM      7  N   ASP E   2      10.122  -7.560 -12.853  1.00 34.31 LIG 0.61  N 
BRANCH 6 8
ATOM      8  CB  ASP E   2       8.035  -7.610 -11.522  1.00 36.18 LIG 0.16  C 
BRANCH 8 9
ATOM      9  CG  ASP E   2       8.779  -8.545 -10.563  1.00 38.13 LIG 0.17  C 
ATOM     10 OD1  ASP E   2       9.825  -9.111 -10.959  1.00 37.90 LIG-0.65  OA
ATOM     11 OD2  ASP E   2       8.335  -8.695  -9.401  1.00 38.42 LIG-0.65  OA
ENDBRANCH 8 9
ENDBRANCH 6 8
ENDBRANCH 3 6
ENDBRANCH 1 2
BRANCH 1 12
ATOM     12  C   LEU E   3       9.162  -3.030  -9.817  1.00 28.32 LIG 0.24  C 
ATOM     13  N   PHE E   4       8.035  -2.945 -10.524  1.00 27.78 LIG-0.34  N 
ATOM     14 H    PHE E   4       7.515  -3.615 -10.663  1.00 27.78 LIG 0.16  HD
ATOM     15 O    LEU E   3       9.870  -2.059  -9.548  1.00 27.38 LIG-0.27  OA
BRANCH 13 16
ATOM     16  CA  PHE E   4       7.567  -1.702 -11.138  1.00 27.92 LIG 0.19  C 
BRANCH 16 17
ATOM     17  C   PHE E   4       6.521  -1.035 -10.245  1.00 28.33 LIG 0.20  C 
ATOM     18 OXT  PHE E   4       6.835  -0.519  -9.175  1.00 30.35 LIG-0.65  OA
ATOM     19 O    PHE E   4       5.338  -0.975 -10.580  1.00 28.81 LIG-0.65  OA
ENDBRANCH 16 17
BRANCH 16 20
ATOM     20  CB  PHE E   4       6.968  -1.968 -12.531  1.00 27.18 LIG 0.07  C 
BRANCH 20 21
ATOM     21  CG  PHE E   4       7.971  -1.878 -13.651  1.00 26.64 LIG-0.06  A 
ATOM     22  CD1 PHE E   4       8.997  -2.818 -13.771  1.00 26.73 LIG 0.01  A 
ATOM     23  CE1 PHE E   4       9.925  -2.730 -14.800  1.00 26.26 LIG 0.00  A 
ATOM     24  CZ  PHE E   4       9.832  -1.695 -15.720  1.00 25.93 LIG 0.00  A 
ATOM     25  CE2 PHE E   4       8.821  -0.750 -15.608  1.00 25.36 LIG 0.00  A 
ATOM     26  CD2 PHE E   4       7.897  -0.845 -14.581  1.00 26.03 LIG 0.01  A 
ENDBRANCH 20 21
ENDBRANCH 16 20
ENDBRANCH 13 16
ENDBRANCH 1 12
BRANCH 1 27
ATOM     27  CB  LEU E   3      11.077  -4.502  -9.169  1.00 28.15 LIG 0.04  C 
BRANCH 27 28
ATOM     28  CG  LEU E   3      11.720  -5.746  -8.549  1.00 27.57 LIG-0.02  C 
ATOM     29  CD2 LEU E   3      11.774  -6.897  -9.542  1.00 27.08 LIG 0.01  C 
ATOM     30  CD1 LEU E   3      10.961  -6.171  -7.300  1.00 27.26 LIG 0.01  C 
ENDBRANCH 27 28
ENDBRANCH 1 27
TORSDOF 11
ENDMDL
MODEL 25
USER: ADFR SOLUTION from run 164
USER: SCORE 10.876703 LL:  -3.070 LR:  -7.810 RR:   0.000 FEB:  -4.528
USER: RMSD 2.671043
USER: SEED 163
USER: STATUS no improvement in best in 22 clusters for 5 generations
USER: GENES 13
USER: genes 0 Translation |==|  0.44845 0.44406 0.39870
USER: genes 1 Rotation |==|  0.35981 0.39359 0.55936 0.96422
USER: genes 2 Torsion [C]-CA--N-[C] |==|  0.80556
USER: genes 3 Torsion [N]-C--CA-[N] |==|  0.58401
USER: genes 4 Torsion [C]-CA--CB-[CG] |==|  0.76747
USER: genes 5 Torsion [CA]-CB--CG-[OD1] |==|  0.67721
USER: genes 6 Torsion [N]-CA--C-[N] |==|  0.94594
USER: genes 7 Torsion [C]-N--CA-[C] |==|  0.66811
USER: genes 8 Torsion [N]-CA--C-[OXT] |==|  0.06491
USER: genes 9 Torsion [N]-CA--CB-[CG] |==|  0.83606
USER: genes 10 Torsion [CA]-CB--CG-[CD1] |==|  0.68146
USER: genes 11 Torsion [N]-CA--CB-[CG] |==|  0.45723
USER: genes 12 Torsion [CA]-CB--CG-[CD2] |==|  0.50476
ROOT
ATOM      1  CA  LEU E   3       7.524  -6.269 -12.494  1.00 28.46 LIG 0.18  C 
ENDROOT
BRANCH 1 2
ATOM      2  N   LEU E   3       6.734  -7.216 -11.687  1.00 30.36 LIG-0.35  N 
ATOM      3  C   ASP E   2       6.716  -8.529 -11.933  1.00 32.94 LIG 0.26  C 
ATOM      4 O    ASP E   2       7.334  -9.049 -12.872  1.00 32.35 LIG-0.27  OA
ATOM      5 H    LEU E   3       6.290  -6.846 -11.050  1.00 30.36 LIG 0.16  HD
BRANCH 3 6
ATOM      6  CA  ASP E   2       5.874  -9.394 -10.990  1.00 34.24 LIG 0.41  C 
ATOM      7  N   ASP E   2       6.496 -10.745 -10.902  1.00 34.31 LIG 0.61  N 
BRANCH 6 8
ATOM      8  CB  ASP E   2       5.802  -8.758  -9.597  1.00 36.18 LIG 0.16  C 
BRANCH 8 9
ATOM      9  CG  ASP E   2       7.014  -9.097  -8.721  1.00 38.13 LIG 0.17  C 
ATOM     10 OD1  ASP E   2       6.836  -9.764  -7.675  1.00 37.90 LIG-0.65  OA
ATOM     11 OD2  ASP E   2       8.150  -8.721  -9.092  1.00 38.42 LIG-0.65  OA
ENDBRANCH 8 9
ENDBRANCH 6 8
ENDBRANCH 3 6
ENDBRANCH 1 2
BRANCH 1 12
ATOM     12  C   LEU E   3       9.030  -6.428 -12.269  1.00 28.32 LIG 0.24  C 
ATOM     13  N   PHE E   4       9.388  -7.056 -11.149  1.00 27.78 LIG-0.34  N 
ATOM     14 H    PHE E   4       8.822  -7.412 -10.609  1.00 27.78 LIG 0.16  HD
ATOM     15 O    LEU E   3       9.838  -5.985 -13.087  1.00 27.38 LIG-0.27  OA
BRANCH 13 16
ATOM     16  CA  PHE E   4      10.780  -7.203 -10.724  1.00 27.92 LIG 0.19  C 
BRANCH 16 17
ATOM     17  C   PHE E   4      11.145  -8.685 -10.625  1.00 28.33 LIG 0.20  C 
ATOM     18 OXT  PHE E   4      10.525  -9.535 -11.258  1.00 30.35 LIG-0.65  OA
ATOM     19 O    PHE E   4      12.084  -9.067  -9.927  1.00 28.81 LIG-0.65  OA
ENDBRANCH 16 17
BRANCH 16 20
ATOM     20  CB  PHE E   4      11.016  -6.518  -9.366  1.00 27.18 LIG 0.07  C 
BRANCH 20 21
ATOM     21  CG  PHE E   4      10.705  -5.044  -9.367  1.00 26.64 LIG-0.06  A 
ATOM     22  CD1 PHE E   4      11.715  -4.099  -9.173  1.00 26.73 LIG 0.01  A 
ATOM     23  CE1 PHE E   4      11.425  -2.741  -9.167  1.00 26.26 LIG 0.00  A 
ATOM     24  CZ  PHE E   4      10.117  -2.318  -9.356  1.00 25.93 LIG 0.00  A 
ATOM     25  CE2 PHE E   4       9.103  -3.249  -9.543  1.00 25.36 LIG 0.00  A 
ATOM     26  CD2 PHE E   4       9.399  -4.601  -9.550  1.00 26.03 LIG 0.01  A 
ENDBRANCH 20 21
ENDBRANCH 16 20
ENDBRANCH 13 16
ENDBRANCH 1 12
BRANCH 1 27
ATOM     27  CB  LEU E   3       7.117  -4.818 -12.187  1.00 28.15 LIG 0.04  C 
BRANCH 27 28
ATOM     28  CG  LEU E   3       8.020  -3.662 -12.626  1.00 27.57 LIG-0.02  C 
ATOM     29  CD2 LEU E   3       7.454  -2.319 -12.189  1.00 27.08 LIG 0.01  C 
ATOM     30  CD1 LEU E   3       8.213  -3.679 -14.135  1.00 27.26 LIG 0.01  C 
ENDBRANCH 27 28
ENDBRANCH 1 27
TORSDOF 11
ENDMDL
MODEL 26
USER: ADFR SOLUTION from run 134
USER: SCORE 9.703153 LL:  -2.105 LR:  -7.800 RR:   0.000 FEB:  -4.518
USER: RMSD 5.505105
USER: SEED 133
USER: STATUS no improvement in best in 29 clusters for 5 generations
USER: GENES 13
USER: genes 0 Translation |==|  0.51566 0.59109 0.59511
USER: genes 1 Rotation |==|  0.39881 0.75048 0.74902 0.83913
USER: genes 2 Torsion [C]-CA--N-[C] |==|  0.83324
USER: genes 3 Torsion [N]-C--CA-[N] |==|  0.23990
USER: genes 4 Torsion [C]-CA--CB-[CG] |==|  0.66863
USER: genes 5 Torsion [CA]-CB--CG-[OD1] |==|  0.34905
USER: genes 6 Torsion [N]-CA--C-[N] |==|  0.32851
USER: genes 7 Torsion [C]-N--CA-[C] |==|  0.39261
USER: genes 8 Torsion [N]-CA--C-[OXT] |==|  0.53854
USER: genes 9 Torsion [N]-CA--CB-[CG] |==|  0.71160
USER: genes 10 Torsion [CA]-CB--CG-[CD1] |==|  0.59668
USER: genes 11 Torsion [N]-CA--CB-[CG] |==|  0.40638
USER: genes 12 Torsion [CA]-CB--CG-[CD2] |==|  0.52268
ROOT
ATOM      1  CA  LEU E   3       8.583  -3.843  -9.695  1.00 28.46 LIG 0.18  C 
ENDROOT
BRANCH 1 2
ATOM      2  N   LEU E   3       9.845  -4.278  -9.071  1.00 30.36 LIG-0.35  N 
ATOM      3  C   ASP E   2      10.377  -5.484  -9.291  1.00 32.94 LIG 0.26  C 
ATOM      4 O    ASP E   2       9.840  -6.339 -10.008  1.00 32.35 LIG-0.27  OA
ATOM      5 H    LEU E   3      10.202  -3.688  -8.557  1.00 30.36 LIG 0.16  HD
BRANCH 3 6
ATOM      6  CA  ASP E   2      11.710  -5.784  -8.599  1.00 34.24 LIG 0.41  C 
ATOM      7  N   ASP E   2      11.430  -6.305  -7.232  1.00 34.31 LIG 0.61  N 
BRANCH 6 8
ATOM      8  CB  ASP E   2      12.511  -6.817  -9.400  1.00 36.18 LIG 0.16  C 
BRANCH 8 9
ATOM      9  CG  ASP E   2      12.796  -8.098  -8.608  1.00 38.13 LIG 0.17  C 
ATOM     10 OD1  ASP E   2      12.461  -9.201  -9.101  1.00 37.90 LIG-0.65  OA
ATOM     11 OD2  ASP E   2      13.381  -8.007  -7.504  1.00 38.42 LIG-0.65  OA
ENDBRANCH 8 9
ENDBRANCH 6 8
ENDBRANCH 3 6
ENDBRANCH 1 2
BRANCH 1 12
ATOM     12  C   LEU E   3       8.658  -3.844 -11.224  1.00 28.32 LIG 0.24  C 
ATOM     13  N   PHE E   4       7.812  -4.664 -11.847  1.00 27.78 LIG-0.34  N 
ATOM     14 H    PHE E   4       7.212  -5.121 -11.436  1.00 27.78 LIG 0.16  HD
ATOM     15 O    LEU E   3       9.467  -3.126 -11.813  1.00 27.38 LIG-0.27  OA
BRANCH 13 16
ATOM     16  CA  PHE E   4       7.818  -4.869 -13.296  1.00 27.92 LIG 0.19  C 
BRANCH 16 17
ATOM     17  C   PHE E   4       7.549  -6.339 -13.619  1.00 28.33 LIG 0.20  C 
ATOM     18 OXT  PHE E   4       7.755  -6.791 -14.743  1.00 30.35 LIG-0.65  OA
ATOM     19 O    PHE E   4       7.141  -7.119 -12.759  1.00 28.81 LIG-0.65  OA
ENDBRANCH 16 17
BRANCH 16 20
ATOM     20  CB  PHE E   4       9.164  -4.441 -13.907  1.00 27.18 LIG 0.07  C 
BRANCH 20 21
ATOM     21  CG  PHE E   4       9.111  -3.117 -14.626  1.00 26.64 LIG-0.06  A 
ATOM     22  CD1 PHE E   4       9.880  -2.893 -15.769  1.00 26.73 LIG 0.01  A 
ATOM     23  CE1 PHE E   4       9.836  -1.671 -16.427  1.00 26.26 LIG 0.00  A 
ATOM     24  CZ  PHE E   4       9.018  -0.660 -15.941  1.00 25.93 LIG 0.00  A 
ATOM     25  CE2 PHE E   4       8.253  -0.870 -14.801  1.00 25.36 LIG 0.00  A 
ATOM     26  CD2 PHE E   4       8.300  -2.092 -14.152  1.00 26.03 LIG 0.01  A 
ENDBRANCH 20 21
ENDBRANCH 16 20
ENDBRANCH 13 16
ENDBRANCH 1 12
BRANCH 1 27
ATOM     27  CB  LEU E   3       8.188  -2.439  -9.209  1.00 28.15 LIG 0.04  C 
BRANCH 27 28
ATOM     28  CG  LEU E   3       7.467  -1.476 -10.156  1.00 27.57 LIG-0.02  C 
ATOM     29  CD2 LEU E   3       7.349  -0.085  -9.550  1.00 27.08 LIG 0.01  C 
ATOM     30  CD1 LEU E   3       6.086  -2.010 -10.509  1.00 27.26 LIG 0.01  C 
ENDBRANCH 27 28
ENDBRANCH 1 27
TORSDOF 11
ENDMDL
MODEL 27
USER: ADFR SOLUTION from run 167
USER: SCORE 9.824772 LL:  -2.229 LR:  -7.748 RR:   0.000 FEB:  -4.467
USER: RMSD 3.288838
USER: SEED 166
USER: STATUS no improvement in best in 22 clusters for 5 generations
USER: GENES 13
USER: genes 0 Translation |==|  0.45357 0.59435 0.41881
USER: genes 1 Rotation |==|  0.39238 0.33546 0.51935 0.95931
USER: genes 2 Torsion [C]-CA--N-[C] |==|  0.74521
USER: genes 3 Torsion [N]-C--CA-[N] |==|  0.75868
USER: genes 4 Torsion [C]-CA--CB-[CG] |==|  0.43957
USER: genes 5 Torsion [CA]-CB--CG-[OD1] |==|  0.06130
USER: genes 6 Torsion [N]-CA--C-[N] |==|  0.92222
USER: genes 7 Torsion [C]-N--CA-[C] |==|  0.15264
USER: genes 8 Torsion [N]-CA--C-[OXT] |==|  0.17273
USER: genes 9 Torsion [N]-CA--CB-[CG] |==|  0.56884
USER: genes 10 Torsion [CA]-CB--CG-[CD1] |==|  0.58427
USER: genes 11 Torsion [N]-CA--CB-[CG] |==|  0.10968
USER: genes 12 Torsion [CA]-CB--CG-[CD2] |==|  0.56147
ROOT
ATOM      1  CA  LEU E   3       7.605  -3.789 -12.207  1.00 28.46 LIG 0.18  C 
ENDROOT
BRANCH 1 2
ATOM      2  N   LEU E   3       6.609  -4.797 -11.801  1.00 30.36 LIG-0.35  N 
ATOM      3  C   ASP E   2       6.330  -5.872 -12.544  1.00 32.94 LIG 0.26  C 
ATOM      4 O    ASP E   2       6.861  -6.092 -13.641  1.00 32.35 LIG-0.27  OA
ATOM      5 H    LEU E   3       6.228  -4.628 -11.049  1.00 30.36 LIG 0.16  HD
BRANCH 3 6
ATOM      6  CA  ASP E   2       5.296  -6.850 -11.978  1.00 34.24 LIG 0.41  C 
ATOM      7  N   ASP E   2       5.995  -7.822 -11.093  1.00 34.31 LIG 0.61  N 
BRANCH 6 8
ATOM      8  CB  ASP E   2       4.222  -6.096 -11.185  1.00 36.18 LIG 0.16  C 
BRANCH 8 9
ATOM      9  CG  ASP E   2       2.915  -6.886 -11.048  1.00 38.13 LIG 0.17  C 
ATOM     10 OD1  ASP E   2       2.945  -8.133 -11.177  1.00 37.90 LIG-0.65  OA
ATOM     11 OD2  ASP E   2       1.860  -6.264 -10.783  1.00 38.42 LIG-0.65  OA
ENDBRANCH 8 9
ENDBRANCH 6 8
ENDBRANCH 3 6
ENDBRANCH 1 2
BRANCH 1 12
ATOM     12  C   LEU E   3       9.000  -4.096 -11.658  1.00 28.32 LIG 0.24  C 
ATOM     13  N   PHE E   4       9.038  -4.782 -10.516  1.00 27.78 LIG-0.34  N 
ATOM     14 H    PHE E   4       8.335  -5.096 -10.133  1.00 27.78 LIG 0.16  HD
ATOM     15 O    LEU E   3      10.008  -3.712 -12.253  1.00 27.38 LIG-0.27  OA
BRANCH 13 16
ATOM     16  CA  PHE E   4      10.279  -5.071  -9.796  1.00 27.92 LIG 0.19  C 
BRANCH 16 17
ATOM     17  C   PHE E   4      11.036  -3.774  -9.511  1.00 28.33 LIG 0.20  C 
ATOM     18 OXT  PHE E   4      10.547  -2.894  -8.807  1.00 30.35 LIG-0.65  OA
ATOM     19 O    PHE E   4      12.166  -3.582  -9.959  1.00 28.81 LIG-0.65  OA
ENDBRANCH 16 17
BRANCH 16 20
ATOM     20  CB  PHE E   4      11.173  -6.029 -10.604  1.00 27.18 LIG 0.07  C 
BRANCH 20 21
ATOM     21  CG  PHE E   4      12.130  -6.826  -9.757  1.00 26.64 LIG-0.06  A 
ATOM     22  CD1 PHE E   4      13.368  -7.231 -10.264  1.00 26.73 LIG 0.01  A 
ATOM     23  CE1 PHE E   4      14.246  -7.971  -9.485  1.00 26.26 LIG 0.00  A 
ATOM     24  CZ  PHE E   4      13.890  -8.315  -8.188  1.00 25.93 LIG 0.00  A 
ATOM     25  CE2 PHE E   4      12.660  -7.924  -7.675  1.00 25.36 LIG 0.00  A 
ATOM     26  CD2 PHE E   4      11.790  -7.183  -8.457  1.00 26.03 LIG 0.01  A 
ENDBRANCH 20 21
ENDBRANCH 16 20
ENDBRANCH 13 16
ENDBRANCH 1 12
BRANCH 1 27
ATOM     27  CB  LEU E   3       7.179  -2.385 -11.750  1.00 28.15 LIG 0.04  C 
BRANCH 27 28
ATOM     28  CG  LEU E   3       6.529  -2.191 -10.377  1.00 27.57 LIG-0.02  C 
ATOM     29  CD2 LEU E   3       5.713  -0.908 -10.325  1.00 27.08 LIG 0.01  C 
ATOM     30  CD1 LEU E   3       7.587  -2.181  -9.283  1.00 27.26 LIG 0.01  C 
ENDBRANCH 27 28
ENDBRANCH 1 27
TORSDOF 11
ENDMDL
MODEL 28
USER: ADFR SOLUTION from run 57
USER: SCORE 10.452405 LL:  -2.758 LR:  -7.732 RR:   0.000 FEB:  -4.451
USER: RMSD 4.125254
USER: SEED 56
USER: STATUS no improvement in best in 20 clusters for 5 generations
USER: GENES 13
USER: genes 0 Translation |==|  0.52195 0.52463 0.33873
USER: genes 1 Rotation |==|  0.29791 0.22880 0.58538 0.85822
USER: genes 2 Torsion [C]-CA--N-[C] |==|  0.79013
USER: genes 3 Torsion [N]-C--CA-[N] |==|  0.43615
USER: genes 4 Torsion [C]-CA--CB-[CG] |==|  0.76517
USER: genes 5 Torsion [CA]-CB--CG-[OD1] |==|  0.03410
USER: genes 6 Torsion [N]-CA--C-[N] |==|  0.93602
USER: genes 7 Torsion [C]-N--CA-[C] |==|  0.71108
USER: genes 8 Torsion [N]-CA--C-[OXT] |==|  0.98962
USER: genes 9 Torsion [N]-CA--CB-[CG] |==|  0.88033
USER: genes 10 Torsion [CA]-CB--CG-[CD1] |==|  0.18663
USER: genes 11 Torsion [N]-CA--CB-[CG] |==|  0.41958
USER: genes 12 Torsion [CA]-CB--CG-[CD2] |==|  0.58689
ROOT
ATOM      1  CA  LEU E   3       8.682  -4.940 -13.348  1.00 28.46 LIG 0.18  C 
ENDROOT
BRANCH 1 2
ATOM      2  N   LEU E   3       7.711  -5.955 -12.904  1.00 30.36 LIG-0.35  N 
ATOM      3  C   ASP E   2       8.045  -7.235 -12.713  1.00 32.94 LIG 0.26  C 
ATOM      4 O    ASP E   2       9.184  -7.674 -12.923  1.00 32.35 LIG-0.27  OA
ATOM      5 H    LEU E   3       6.917  -5.649 -12.781  1.00 30.36 LIG 0.16  HD
BRANCH 3 6
ATOM      6  CA  ASP E   2       6.937  -8.169 -12.219  1.00 34.24 LIG 0.41  C 
ATOM      7  N   ASP E   2       7.293  -9.567 -12.590  1.00 34.31 LIG 0.61  N 
BRANCH 6 8
ATOM      8  CB  ASP E   2       6.776  -8.055 -10.699  1.00 36.18 LIG 0.16  C 
BRANCH 8 9
ATOM      9  CG  ASP E   2       7.756  -8.945  -9.925  1.00 38.13 LIG 0.17  C 
ATOM     10 OD1  ASP E   2       8.711  -9.473 -10.542  1.00 37.90 LIG-0.65  OA
ATOM     11 OD2  ASP E   2       7.588  -9.096  -8.692  1.00 38.42 LIG-0.65  OA
ENDBRANCH 8 9
ENDBRANCH 6 8
ENDBRANCH 3 6
ENDBRANCH 1 2
BRANCH 1 12
ATOM     12  C   LEU E   3       9.628  -4.508 -12.225  1.00 28.32 LIG 0.24  C 
ATOM     13  N   PHE E   4       9.182  -4.699 -10.984  1.00 27.78 LIG-0.34  N 
ATOM     14 H    PHE E   4       8.441  -5.097 -10.806  1.00 27.78 LIG 0.16  HD
ATOM     15 O    LEU E   3      10.725  -4.011 -12.484  1.00 27.38 LIG-0.27  OA
BRANCH 13 16
ATOM     16  CA  PHE E   4       9.908  -4.252  -9.794  1.00 27.92 LIG 0.19  C 
BRANCH 16 17
ATOM     17  C   PHE E   4      10.586  -5.441  -9.113  1.00 28.33 LIG 0.20  C 
ATOM     18 OXT  PHE E   4      10.427  -6.586  -9.529  1.00 30.35 LIG-0.65  OA
ATOM     19 O    PHE E   4      11.328  -5.286  -8.144  1.00 28.81 LIG-0.65  OA
ENDBRANCH 16 17
BRANCH 16 20
ATOM     20  CB  PHE E   4       8.961  -3.554  -8.802  1.00 27.18 LIG 0.07  C 
BRANCH 20 21
ATOM     21  CG  PHE E   4       7.988  -2.607  -9.453  1.00 26.64 LIG-0.06  A 
ATOM     22  CD1 PHE E   4       6.978  -3.084 -10.293  1.00 26.73 LIG 0.01  A 
ATOM     23  CE1 PHE E   4       6.086  -2.210 -10.899  1.00 26.26 LIG 0.00  A 
ATOM     24  CZ  PHE E   4       6.199  -0.846 -10.667  1.00 25.93 LIG 0.00  A 
ATOM     25  CE2 PHE E   4       7.202  -0.359  -9.839  1.00 25.36 LIG 0.00  A 
ATOM     26  CD2 PHE E   4       8.087  -1.237  -9.237  1.00 26.03 LIG 0.01  A 
ENDBRANCH 20 21
ENDBRANCH 16 20
ENDBRANCH 13 16
ENDBRANCH 1 12
BRANCH 1 27
ATOM     27  CB  LEU E   3       7.961  -3.701 -13.906  1.00 28.15 LIG 0.04  C 
BRANCH 27 28
ATOM     28  CG  LEU E   3       8.623  -2.324 -13.811  1.00 27.57 LIG-0.02  C 
ATOM     29  CD2 LEU E   3       7.586  -1.218 -13.673  1.00 27.08 LIG 0.01  C 
ATOM     30  CD1 LEU E   3       9.498  -2.068 -15.028  1.00 27.26 LIG 0.01  C 
ENDBRANCH 27 28
ENDBRANCH 1 27
TORSDOF 11
ENDMDL
MODEL 29
USER: ADFR SOLUTION from run 195
USER: SCORE 10.081412 LL:  -2.505 LR:  -7.734 RR:   0.000 FEB:  -4.453
USER: RMSD 5.930161
USER: SEED 194
USER: STATUS no improvement in best in 8 clusters for 5 generations
USER: GENES 13
USER: genes 0 Translation |==|  0.67065 0.43093 0.58032
USER: genes 1 Rotation |==|  0.42848 0.93058 0.64443 0.69654
USER: genes 2 Torsion [C]-CA--N-[C] |==|  0.66240
USER: genes 3 Torsion [N]-C--CA-[N] |==|  0.46246
USER: genes 4 Torsion [C]-CA--CB-[CG] |==|  0.87436
USER: genes 5 Torsion [CA]-CB--CG-[OD1] |==|  0.27476
USER: genes 6 Torsion [N]-CA--C-[N] |==|  0.46416
USER: genes 7 Torsion [C]-N--CA-[C] |==|  0.15198
USER: genes 8 Torsion [N]-CA--C-[OXT] |==|  0.63594
USER: genes 9 Torsion [N]-CA--CB-[CG] |==|  0.89391
USER: genes 10 Torsion [CA]-CB--CG-[CD1] |==|  0.35503
USER: genes 11 Torsion [N]-CA--CB-[CG] |==|  0.66429
USER: genes 12 Torsion [CA]-CB--CG-[CD2] |==|  0.71081
ROOT
ATOM      1  CA  LEU E   3      11.024  -6.486  -9.905  1.00 28.46 LIG 0.18  C 
ENDROOT
BRANCH 1 2
ATOM      2  N   LEU E   3      12.371  -7.063 -10.053  1.00 30.36 LIG-0.35  N 
ATOM      3  C   ASP E   2      13.058  -7.559  -9.019  1.00 32.94 LIG 0.26  C 
ATOM      4 O    ASP E   2      12.633  -7.545  -7.856  1.00 32.35 LIG-0.27  OA
ATOM      5 H    LEU E   3      12.671  -7.050 -10.859  1.00 30.36 LIG 0.16  HD
BRANCH 3 6
ATOM      6  CA  ASP E   2      14.434  -8.156  -9.330  1.00 34.24 LIG 0.41  C 
ATOM      7  N   ASP E   2      15.170  -8.347  -8.050  1.00 34.31 LIG 0.61  N 
BRANCH 6 8
ATOM      8  CB  ASP E   2      14.286  -9.498 -10.056  1.00 36.18 LIG 0.16  C 
BRANCH 8 9
ATOM      9  CG  ASP E   2      13.231 -10.410  -9.418  1.00 38.13 LIG 0.17  C 
ATOM     10 OD1  ASP E   2      12.086 -10.458  -9.925  1.00 37.90 LIG-0.65  OA
ATOM     11 OD2  ASP E   2      13.554 -11.101  -8.424  1.00 38.42 LIG-0.65  OA
ENDBRANCH 8 9
ENDBRANCH 6 8
ENDBRANCH 3 6
ENDBRANCH 1 2
BRANCH 1 12
ATOM     12  C   LEU E   3       9.985  -7.203 -10.772  1.00 28.32 LIG 0.24  C 
ATOM     13  N   PHE E   4       8.710  -6.924 -10.501  1.00 27.78 LIG-0.34  N 
ATOM     14 H    PHE E   4       8.470  -6.334  -9.924  1.00 27.78 LIG 0.16  HD
ATOM     15 O    LEU E   3      10.336  -7.990 -11.652  1.00 27.38 LIG-0.27  OA
BRANCH 13 16
ATOM     16  CA  PHE E   4       7.587  -7.595 -11.157  1.00 27.92 LIG 0.19  C 
BRANCH 16 17
ATOM     17  C   PHE E   4       7.715  -9.110 -10.999  1.00 28.33 LIG 0.20  C 
ATOM     18 OXT  PHE E   4       7.597  -9.862 -11.964  1.00 30.35 LIG-0.65  OA
ATOM     19 O    PHE E   4       7.961  -9.621  -9.907  1.00 28.81 LIG-0.65  OA
ENDBRANCH 16 17
BRANCH 16 20
ATOM     20  CB  PHE E   4       7.527  -7.232 -12.652  1.00 27.18 LIG 0.07  C 
BRANCH 20 21
ATOM     21  CG  PHE E   4       7.874  -5.795 -12.943  1.00 26.64 LIG-0.06  A 
ATOM     22  CD1 PHE E   4       8.845  -5.471 -13.894  1.00 26.73 LIG 0.01  A 
ATOM     23  CE1 PHE E   4       9.169  -4.147 -14.156  1.00 26.26 LIG 0.00  A 
ATOM     24  CZ  PHE E   4       8.521  -3.133 -13.465  1.00 25.93 LIG 0.00  A 
ATOM     25  CE2 PHE E   4       7.559  -3.442 -12.512  1.00 25.36 LIG 0.00  A 
ATOM     26  CD2 PHE E   4       7.239  -4.765 -12.257  1.00 26.03 LIG 0.01  A 
ENDBRANCH 20 21
ENDBRANCH 16 20
ENDBRANCH 13 16
ENDBRANCH 1 12
BRANCH 1 27
ATOM     27  CB  LEU E   3      11.029  -4.989 -10.257  1.00 28.15 LIG 0.04  C 
BRANCH 27 28
ATOM     28  CG  LEU E   3      10.592  -3.957  -9.214  1.00 27.57 LIG-0.02  C 
ATOM     29  CD2 LEU E   3       9.195  -3.429  -9.506  1.00 27.08 LIG 0.01  C 
ATOM     30  CD1 LEU E   3      11.584  -2.804  -9.157  1.00 27.26 LIG 0.01  C 
ENDBRANCH 27 28
ENDBRANCH 1 27
TORSDOF 11
ENDMDL
MODEL 30
USER: ADFR SOLUTION from run 116
USER: SCORE 9.999146 LL:  -2.469 LR:  -7.712 RR:   0.000 FEB:  -4.430
USER: RMSD 5.406546
USER: SEED 115
USER: STATUS no improvement in best in 14 clusters for 5 generations
USER: GENES 13
USER: genes 0 Translation |==|  0.52793 0.59215 0.59168
USER: genes 1 Rotation |==|  0.38873 0.76472 0.70858 0.85219
USER: genes 2 Torsion [C]-CA--N-[C] |==|  0.86667
USER: genes 3 Torsion [N]-C--CA-[N] |==|  0.24390
USER: genes 4 Torsion [C]-CA--CB-[CG] |==|  0.67017
USER: genes 5 Torsion [CA]-CB--CG-[OD1] |==|  0.35021
USER: genes 6 Torsion [N]-CA--C-[N] |==|  0.34653
USER: genes 7 Torsion [C]-N--CA-[C] |==|  0.83463
USER: genes 8 Torsion [N]-CA--C-[OXT] |==|  0.48327
USER: genes 9 Torsion [N]-CA--CB-[CG] |==|  0.91794
USER: genes 10 Torsion [CA]-CB--CG-[CD1] |==|  0.84271
USER: genes 11 Torsion [N]-CA--CB-[CG] |==|  0.57624
USER: genes 12 Torsion [CA]-CB--CG-[CD2] |==|  0.89939
ROOT
ATOM      1  CA  LEU E   3       8.776  -3.825  -9.744  1.00 28.46 LIG 0.18  C 
ENDROOT
BRANCH 1 2
ATOM      2  N   LEU E   3       9.950  -4.330  -9.011  1.00 30.36 LIG-0.35  N 
ATOM      3  C   ASP E   2      10.470  -5.541  -9.232  1.00 32.94 LIG 0.26  C 
ATOM      4 O    ASP E   2       9.990  -6.345 -10.043  1.00 32.35 LIG-0.27  OA
ATOM      5 H    LEU E   3      10.266  -3.777  -8.433  1.00 30.36 LIG 0.16  HD
BRANCH 3 6
ATOM      6  CA  ASP E   2      11.711  -5.916  -8.417  1.00 34.24 LIG 0.41  C 
ATOM      7  N   ASP E   2      11.271  -6.522  -7.130  1.00 34.31 LIG 0.61  N 
BRANCH 6 8
ATOM      8  CB  ASP E   2      12.584  -6.910  -9.193  1.00 36.18 LIG 0.16  C 
BRANCH 8 9
ATOM      9  CG  ASP E   2      12.747  -8.253  -8.472  1.00 38.13 LIG 0.17  C 
ATOM     10 OD1  ASP E   2      12.461  -9.308  -9.085  1.00 37.90 LIG-0.65  OA
ATOM     11 OD2  ASP E   2      13.189  -8.257  -7.300  1.00 38.42 LIG-0.65  OA
ENDBRANCH 8 9
ENDBRANCH 6 8
ENDBRANCH 3 6
ENDBRANCH 1 2
BRANCH 1 12
ATOM     12  C   LEU E   3       8.900  -4.032 -11.255  1.00 28.32 LIG 0.24  C 
ATOM     13  N   PHE E   4       7.903  -4.701 -11.835  1.00 27.78 LIG-0.34  N 
ATOM     14 H    PHE E   4       7.197  -4.951 -11.412  1.00 27.78 LIG 0.16  HD
ATOM     15 O    LEU E   3       9.877  -3.601 -11.871  1.00 27.38 LIG-0.27  OA
BRANCH 13 16
ATOM     16  CA  PHE E   4       7.907  -5.078 -13.248  1.00 27.92 LIG 0.19  C 
BRANCH 16 17
ATOM     17  C   PHE E   4       8.010  -3.830 -14.126  1.00 28.33 LIG 0.20  C 
ATOM     18 OXT  PHE E   4       8.140  -3.919 -15.344  1.00 30.35 LIG-0.65  OA
ATOM     19 O    PHE E   4       7.941  -2.701 -13.642  1.00 28.81 LIG-0.65  OA
ENDBRANCH 16 17
BRANCH 16 20
ATOM     20  CB  PHE E   4       6.636  -5.866 -13.611  1.00 27.18 LIG 0.07  C 
BRANCH 20 21
ATOM     21  CG  PHE E   4       6.066  -6.662 -12.466  1.00 26.64 LIG-0.06  A 
ATOM     22  CD1 PHE E   4       6.843  -7.610 -11.796  1.00 26.73 LIG 0.01  A 
ATOM     23  CE1 PHE E   4       6.315  -8.347 -10.746  1.00 26.26 LIG 0.00  A 
ATOM     24  CZ  PHE E   4       4.999  -8.141 -10.356  1.00 25.93 LIG 0.00  A 
ATOM     25  CE2 PHE E   4       4.214  -7.206 -11.019  1.00 25.36 LIG 0.00  A 
ATOM     26  CD2 PHE E   4       4.748  -6.472 -12.064  1.00 26.03 LIG 0.01  A 
ENDBRANCH 20 21
ENDBRANCH 16 20
ENDBRANCH 13 16
ENDBRANCH 1 12
BRANCH 1 27
ATOM     27  CB  LEU E   3       8.551  -2.333  -9.454  1.00 28.15 LIG 0.04  C 
BRANCH 27 28
ATOM     28  CG  LEU E   3       7.142  -1.739  -9.547  1.00 27.57 LIG-0.02  C 
ATOM     29  CD2 LEU E   3       6.346  -2.374 -10.678  1.00 27.08 LIG 0.01  C 
ATOM     30  CD1 LEU E   3       7.211  -0.231  -9.740  1.00 27.26 LIG 0.01  C 
ENDBRANCH 27 28
ENDBRANCH 1 27
TORSDOF 11
ENDMDL
MODEL 31
USER: ADFR SOLUTION from run 187
USER: SCORE 10.090671 LL:  -2.426 LR:  -7.705 RR:   0.000 FEB:  -4.424
USER: RMSD 2.645468
USER: SEED 186
USER: STATUS no improvement in best in 10 clusters for 5 generations
USER: GENES 13
USER: genes 0 Translation |==|  0.45232 0.59714 0.45771
USER: genes 1 Rotation |==|  0.53944 0.37211 0.44056 0.97807
USER: genes 2 Torsion [C]-CA--N-[C] |==|  0.83886
USER: genes 3 Torsion [N]-C--CA-[N] |==|  0.61066
USER: genes 4 Torsion [C]-CA--CB-[CG] |==|  0.66299
USER: genes 5 Torsion [CA]-CB--CG-[OD1] |==|  0.31718
USER: genes 6 Torsion [N]-CA--C-[N] |==|  0.89047
USER: genes 7 Torsion [C]-N--CA-[C] |==|  0.47597
USER: genes 8 Torsion [N]-CA--C-[OXT] |==|  0.65296
USER: genes 9 Torsion [N]-CA--CB-[CG] |==|  0.66252
USER: genes 10 Torsion [CA]-CB--CG-[CD1] |==|  0.30877
USER: genes 11 Torsion [N]-CA--CB-[CG] |==|  0.76183
USER: genes 12 Torsion [CA]-CB--CG-[CD2] |==|  0.94649
ROOT
ATOM      1  CA  LEU E   3       7.585  -3.743 -11.653  1.00 28.46 LIG 0.18  C 
ENDROOT
BRANCH 1 2
ATOM      2  N   LEU E   3       6.469  -4.694 -11.800  1.00 30.36 LIG-0.35  N 
ATOM      3  C   ASP E   2       6.373  -5.536 -12.833  1.00 32.94 LIG 0.26  C 
ATOM      4 O    ASP E   2       7.194  -5.563 -13.761  1.00 32.35 LIG-0.27  OA
ATOM      5 H    LEU E   3       5.891  -4.655 -11.164  1.00 30.36 LIG 0.16  HD
BRANCH 3 6
ATOM      6  CA  ASP E   2       5.175  -6.489 -12.835  1.00 34.24 LIG 0.41  C 
ATOM      7  N   ASP E   2       5.629  -7.822 -13.319  1.00 34.31 LIG 0.61  N 
BRANCH 6 8
ATOM      8  CB  ASP E   2       4.586  -6.616 -11.425  1.00 36.18 LIG 0.16  C 
BRANCH 8 9
ATOM      9  CG  ASP E   2       4.586  -8.058 -10.904  1.00 38.13 LIG 0.17  C 
ATOM     10 OD1  ASP E   2       5.308  -8.345  -9.921  1.00 37.90 LIG-0.65  OA
ATOM     11 OD2  ASP E   2       3.842  -8.899 -11.459  1.00 38.42 LIG-0.65  OA
ENDBRANCH 8 9
ENDBRANCH 6 8
ENDBRANCH 3 6
ENDBRANCH 1 2
BRANCH 1 12
ATOM     12  C   LEU E   3       8.946  -4.443 -11.621  1.00 28.32 LIG 0.24  C 
ATOM     13  N   PHE E   4       8.995  -5.589 -10.943  1.00 27.78 LIG-0.34  N 
ATOM     14 H    PHE E   4       8.301  -5.959 -10.595  1.00 27.78 LIG 0.16  HD
ATOM     15 O    LEU E   3       9.921  -3.948 -12.189  1.00 27.38 LIG-0.27  OA
BRANCH 13 16
ATOM     16  CA  PHE E   4      10.233  -6.337 -10.722  1.00 27.92 LIG 0.19  C 
BRANCH 16 17
ATOM     17  C   PHE E   4       9.988  -7.481  -9.737  1.00 28.33 LIG 0.20  C 
ATOM     18 OXT  PHE E   4      10.662  -7.596  -8.717  1.00 30.35 LIG-0.65  OA
ATOM     19 O    PHE E   4       9.095  -8.306  -9.925  1.00 28.81 LIG-0.65  OA
ENDBRANCH 16 17
BRANCH 16 20
ATOM     20  CB  PHE E   4      11.343  -5.416 -10.183  1.00 27.18 LIG 0.07  C 
BRANCH 20 21
ATOM     21  CG  PHE E   4      12.574  -5.375 -11.050  1.00 26.64 LIG-0.06  A 
ATOM     22  CD1 PHE E   4      12.911  -4.221 -11.760  1.00 26.73 LIG 0.01  A 
ATOM     23  CE1 PHE E   4      14.042  -4.187 -12.565  1.00 26.26 LIG 0.00  A 
ATOM     24  CZ  PHE E   4      14.846  -5.314 -12.664  1.00 25.93 LIG 0.00  A 
ATOM     25  CE2 PHE E   4      14.518  -6.469 -11.968  1.00 25.36 LIG 0.00  A 
ATOM     26  CD2 PHE E   4      13.390  -6.495 -11.166  1.00 26.03 LIG 0.01  A 
ENDBRANCH 20 21
ENDBRANCH 16 20
ENDBRANCH 13 16
ENDBRANCH 1 12
BRANCH 1 27
ATOM     27  CB  LEU E   3       7.420  -2.900 -10.378  1.00 28.15 LIG 0.04  C 
BRANCH 27 28
ATOM     28  CG  LEU E   3       6.574  -1.624 -10.409  1.00 27.57 LIG-0.02  C 
ATOM     29  CD2 LEU E   3       6.386  -1.117 -11.831  1.00 27.08 LIG 0.01  C 
ATOM     30  CD1 LEU E   3       7.211  -0.541  -9.550  1.00 27.26 LIG 0.01  C 
ENDBRANCH 27 28
ENDBRANCH 1 27
TORSDOF 11
ENDMDL
MODEL 32
USER: ADFR SOLUTION from run 193
USER: SCORE 10.147599 LL:  -2.676 LR:  -7.683 RR:   0.000 FEB:  -4.402
USER: RMSD 6.848795
USER: SEED 192
USER: STATUS no improvement in best in 25 clusters for 5 generations
USER: GENES 13
USER: genes 0 Translation |==|  0.60953 0.66613 0.22031
USER: genes 1 Rotation |==|  0.62565 0.02955 0.49584 0.61346
USER: genes 2 Torsion [C]-CA--N-[C] |==|  0.76015
USER: genes 3 Torsion [N]-C--CA-[N] |==|  0.19571
USER: genes 4 Torsion [C]-CA--CB-[CG] |==|  0.60158
USER: genes 5 Torsion [CA]-CB--CG-[OD1] |==|  0.17621
USER: genes 6 Torsion [N]-CA--C-[N] |==|  0.26371
USER: genes 7 Torsion [C]-N--CA-[C] |==|  0.20633
USER: genes 8 Torsion [N]-CA--C-[OXT] |==|  0.54764
USER: genes 9 Torsion [N]-CA--CB-[CG] |==|  0.81541
USER: genes 10 Torsion [CA]-CB--CG-[CD1] |==|  0.82646
USER: genes 11 Torsion [N]-CA--CB-[CG] |==|  0.62172
USER: genes 12 Torsion [CA]-CB--CG-[CD2] |==|  0.77364
ROOT
ATOM      1  CA  LEU E   3      10.061  -2.605 -15.036  1.00 28.46 LIG 0.18  C 
ENDROOT
BRANCH 1 2
ATOM      2  N   LEU E   3      10.955  -3.304 -15.975  1.00 30.36 LIG-0.35  N 
ATOM      3  C   ASP E   2      12.253  -3.496 -15.725  1.00 32.94 LIG 0.26  C 
ATOM      4 O    ASP E   2      12.814  -3.076 -14.703  1.00 32.35 LIG-0.27  OA
ATOM      5 H    LEU E   3      10.565  -3.574 -16.693  1.00 30.36 LIG 0.16  HD
BRANCH 3 6
ATOM      6  CA  ASP E   2      13.051  -4.268 -16.780  1.00 34.24 LIG 0.41  C 
ATOM      7  N   ASP E   2      13.196  -3.411 -17.988  1.00 34.31 LIG 0.61  N 
BRANCH 6 8
ATOM      8  CB  ASP E   2      14.434  -4.649 -16.237  1.00 36.18 LIG 0.16  C 
BRANCH 8 9
ATOM      9  CG  ASP E   2      15.534  -4.579 -17.301  1.00 38.13 LIG 0.17  C 
ATOM     10 OD1  ASP E   2      15.804  -3.471 -17.821  1.00 37.90 LIG-0.65  OA
ATOM     11 OD2  ASP E   2      16.151  -5.628 -17.600  1.00 38.42 LIG-0.65  OA
ENDBRANCH 8 9
ENDBRANCH 6 8
ENDBRANCH 3 6
ENDBRANCH 1 2
BRANCH 1 12
ATOM     12  C   LEU E   3       9.474  -3.546 -13.980  1.00 28.32 LIG 0.24  C 
ATOM     13  N   PHE E   4      10.129  -3.600 -12.821  1.00 27.78 LIG-0.34  N 
ATOM     14 H    PHE E   4      10.802  -3.097 -12.637  1.00 27.78 LIG 0.16  HD
ATOM     15 O    LEU E   3       8.462  -4.206 -14.220  1.00 27.38 LIG-0.27  OA
BRANCH 13 16
ATOM     16  CA  PHE E   4       9.771  -4.520 -11.741  1.00 27.92 LIG 0.19  C 
BRANCH 16 17
ATOM     17  C   PHE E   4      10.206  -5.942 -12.096  1.00 28.33 LIG 0.20  C 
ATOM     18 OXT  PHE E   4       9.745  -6.914 -11.502  1.00 30.35 LIG-0.65  OA
ATOM     19 O    PHE E   4      11.012  -6.157 -13.001  1.00 28.81 LIG-0.65  OA
ENDBRANCH 16 17
BRANCH 16 20
ATOM     20  CB  PHE E   4       8.256  -4.491 -11.473  1.00 27.18 LIG 0.07  C 
BRANCH 20 21
ATOM     21  CG  PHE E   4       7.760  -3.180 -10.922  1.00 26.64 LIG-0.06  A 
ATOM     22  CD1 PHE E   4       8.209  -2.707  -9.687  1.00 26.73 LIG 0.01  A 
ATOM     23  CE1 PHE E   4       7.747  -1.501  -9.177  1.00 26.26 LIG 0.00  A 
ATOM     24  CZ  PHE E   4       6.827  -0.757  -9.904  1.00 25.93 LIG 0.00  A 
ATOM     25  CE2 PHE E   4       6.369  -1.220 -11.130  1.00 25.36 LIG 0.00  A 
ATOM     26  CD2 PHE E   4       6.836  -2.422 -11.634  1.00 26.03 LIG 0.01  A 
ENDBRANCH 20 21
ENDBRANCH 16 20
ENDBRANCH 13 16
ENDBRANCH 1 12
BRANCH 1 27
ATOM     27  CB  LEU E   3       8.914  -1.910 -15.787  1.00 28.15 LIG 0.04  C 
BRANCH 27 28
ATOM     28  CG  LEU E   3       8.505  -0.484 -15.408  1.00 27.57 LIG-0.02  C 
ATOM     29  CD2 LEU E   3       7.588  -0.473 -14.194  1.00 27.08 LIG 0.01  C 
ATOM     30  CD1 LEU E   3       7.824   0.205 -16.581  1.00 27.26 LIG 0.01  C 
ENDBRANCH 27 28
ENDBRANCH 1 27
TORSDOF 11
ENDMDL
MODEL 33
USER: ADFR SOLUTION from run 199
USER: SCORE 10.738879 LL:  -3.141 LR:  -7.647 RR:   0.000 FEB:  -4.365
USER: RMSD 4.382871
USER: SEED 198
USER: STATUS no improvement in best in 13 clusters for 5 generations
USER: GENES 13
USER: genes 0 Translation |==|  0.43990 0.55163 0.40042
USER: genes 1 Rotation |==|  0.18183 0.68608 0.49397 0.83779
USER: genes 2 Torsion [C]-CA--N-[C] |==|  0.15515
USER: genes 3 Torsion [N]-C--CA-[N] |==|  0.62382
USER: genes 4 Torsion [C]-CA--CB-[CG] |==|  0.79434
USER: genes 5 Torsion [CA]-CB--CG-[OD1] |==|  0.85315
USER: genes 6 Torsion [N]-CA--C-[N] |==|  0.11755
USER: genes 7 Torsion [C]-N--CA-[C] |==|  0.55095
USER: genes 8 Torsion [N]-CA--C-[OXT] |==|  0.90705
USER: genes 9 Torsion [N]-CA--CB-[CG] |==|  0.21154
USER: genes 10 Torsion [CA]-CB--CG-[CD1] |==|  0.79893
USER: genes 11 Torsion [N]-CA--CB-[CG] |==|  0.99158
USER: genes 12 Torsion [CA]-CB--CG-[CD2] |==|  0.78403
ROOT
ATOM      1  CA  LEU E   3       7.389  -4.494 -12.469  1.00 28.46 LIG 0.18  C 
ENDROOT
BRANCH 1 2
ATOM      2  N   LEU E   3       7.645  -3.896 -11.147  1.00 30.36 LIG-0.35  N 
ATOM      3  C   ASP E   2       8.865  -3.526 -10.748  1.00 32.94 LIG 0.26  C 
ATOM      4 O    ASP E   2       9.879  -3.684 -11.442  1.00 32.35 LIG-0.27  OA
ATOM      5 H    LEU E   3       6.940  -3.809 -10.661  1.00 30.36 LIG 0.16  HD
BRANCH 3 6
ATOM      6  CA  ASP E   2       8.972  -2.889  -9.360  1.00 34.24 LIG 0.41  C 
ATOM      7  N   ASP E   2       9.857  -1.695  -9.451  1.00 34.31 LIG 0.61  N 
BRANCH 6 8
ATOM      8  CB  ASP E   2       7.586  -2.476  -8.849  1.00 36.18 LIG 0.16  C 
BRANCH 8 9
ATOM      9  CG  ASP E   2       7.037  -1.228  -9.550  1.00 38.13 LIG 0.17  C 
ATOM     10 OD1  ASP E   2       7.745  -0.194  -9.586  1.00 37.90 LIG-0.65  OA
ATOM     11 OD2  ASP E   2       5.908  -1.287 -10.089  1.00 38.42 LIG-0.65  OA
ENDBRANCH 8 9
ENDBRANCH 6 8
ENDBRANCH 3 6
ENDBRANCH 1 2
BRANCH 1 12
ATOM     12  C   LEU E   3       8.239  -5.743 -12.717  1.00 28.32 LIG 0.24  C 
ATOM     13  N   PHE E   4       8.348  -6.585 -11.690  1.00 27.78 LIG-0.34  N 
ATOM     14 H    PHE E   4       7.923  -6.482 -10.950  1.00 27.78 LIG 0.16  HD
ATOM     15 O    LEU E   3       8.782  -5.927 -13.807  1.00 27.38 LIG-0.27  OA
BRANCH 13 16
ATOM     16  CA  PHE E   4       9.203  -7.773 -11.716  1.00 27.92 LIG 0.19  C 
BRANCH 16 17
ATOM     17  C   PHE E   4       8.780  -8.749 -10.618  1.00 28.33 LIG 0.20  C 
ATOM     18 OXT  PHE E   4       8.336  -8.346  -9.546  1.00 30.35 LIG-0.65  OA
ATOM     19 O    PHE E   4       8.849  -9.967 -10.784  1.00 28.81 LIG-0.65  OA
ENDBRANCH 16 17
BRANCH 16 20
ATOM     20  CB  PHE E   4      10.682  -7.390 -11.529  1.00 27.18 LIG 0.07  C 
BRANCH 20 21
ATOM     21  CG  PHE E   4      11.047  -7.047 -10.109  1.00 26.64 LIG-0.06  A 
ATOM     22  CD1 PHE E   4      10.619  -5.850  -9.529  1.00 26.73 LIG 0.01  A 
ATOM     23  CE1 PHE E   4      10.961  -5.532  -8.222  1.00 26.26 LIG 0.00  A 
ATOM     24  CZ  PHE E   4      11.738  -6.413  -7.483  1.00 25.93 LIG 0.00  A 
ATOM     25  CE2 PHE E   4      12.175  -7.603  -8.050  1.00 25.36 LIG 0.00  A 
ATOM     26  CD2 PHE E   4      11.828  -7.915  -9.353  1.00 26.03 LIG 0.01  A 
ENDBRANCH 20 21
ENDBRANCH 16 20
ENDBRANCH 13 16
ENDBRANCH 1 12
BRANCH 1 27
ATOM     27  CB  LEU E   3       7.650  -3.474 -13.590  1.00 28.15 LIG 0.04  C 
BRANCH 27 28
ATOM     28  CG  LEU E   3       8.044  -2.037 -13.239  1.00 27.57 LIG-0.02  C 
ATOM     29  CD2 LEU E   3       6.836  -1.221 -12.802  1.00 27.08 LIG 0.01  C 
ATOM     30  CD1 LEU E   3       8.723  -1.366 -14.424  1.00 27.26 LIG 0.01  C 
ENDBRANCH 27 28
ENDBRANCH 1 27
TORSDOF 11
ENDMDL
MODEL 34
USER: ADFR SOLUTION from run 49
USER: SCORE 10.613240 LL:  -2.983 LR:  -7.650 RR:   0.000 FEB:  -4.369
USER: RMSD 2.192831
USER: SEED 48
USER: STATUS no improvement in best in 19 clusters for 5 generations
USER: GENES 13
USER: genes 0 Translation |==|  0.43484 0.54748 0.40296
USER: genes 1 Rotation |==|  0.42370 0.46141 0.39129 0.98049
USER: genes 2 Torsion [C]-CA--N-[C] |==|  0.83887
USER: genes 3 Torsion [N]-C--CA-[N] |==|  0.39203
USER: genes 4 Torsion [C]-CA--CB-[CG] |==|  0.66769
USER: genes 5 Torsion [CA]-CB--CG-[OD1] |==|  0.32385
USER: genes 6 Torsion [N]-CA--C-[N] |==|  0.91903
USER: genes 7 Torsion [C]-N--CA-[C] |==|  0.51081
USER: genes 8 Torsion [N]-CA--C-[OXT] |==|  0.41681
USER: genes 9 Torsion [N]-CA--CB-[CG] |==|  0.20461
USER: genes 10 Torsion [CA]-CB--CG-[CD1] |==|  0.77288
USER: genes 11 Torsion [N]-CA--CB-[CG] |==|  0.99499
USER: genes 12 Torsion [CA]-CB--CG-[CD2] |==|  0.71684
ROOT
ATOM      1  CA  LEU E   3       7.310  -4.563 -12.433  1.00 28.46 LIG 0.18  C 
ENDROOT
BRANCH 1 2
ATOM      2  N   LEU E   3       6.085  -5.083 -11.800  1.00 30.36 LIG-0.35  N 
ATOM      3  C   ASP E   2       5.382  -6.094 -12.318  1.00 32.94 LIG 0.26  C 
ATOM      4 O    ASP E   2       5.683  -6.651 -13.382  1.00 32.35 LIG-0.27  OA
ATOM      5 H    LEU E   3       5.868  -4.678 -11.073  1.00 30.36 LIG 0.16  HD
BRANCH 3 6
ATOM      6  CA  ASP E   2       4.149  -6.549 -11.532  1.00 34.24 LIG 0.41  C 
ATOM      7  N   ASP E   2       3.064  -6.879 -12.497  1.00 34.31 LIG 0.61  N 
BRANCH 6 8
ATOM      8  CB  ASP E   2       4.480  -7.777 -10.675  1.00 36.18 LIG 0.16  C 
BRANCH 8 9
ATOM      9  CG  ASP E   2       3.632  -9.003 -11.033  1.00 38.13 LIG 0.17  C 
ATOM     10 OD1  ASP E   2       4.203 -10.023 -11.484  1.00 37.90 LIG-0.65  OA
ATOM     11 OD2  ASP E   2       2.395  -8.957 -10.837  1.00 38.42 LIG-0.65  OA
ENDBRANCH 8 9
ENDBRANCH 6 8
ENDBRANCH 3 6
ENDBRANCH 1 2
BRANCH 1 12
ATOM     12  C   LEU E   3       8.382  -5.642 -12.603  1.00 28.32 LIG 0.24  C 
ATOM     13  N   PHE E   4       8.365  -6.625 -11.703  1.00 27.78 LIG-0.34  N 
ATOM     14 H    PHE E   4       7.759  -6.697 -11.097  1.00 27.78 LIG 0.16  HD
ATOM     15 O    LEU E   3       9.200  -5.576 -13.521  1.00 27.38 LIG-0.27  OA
BRANCH 13 16
ATOM     16  CA  PHE E   4       9.377  -7.681 -11.651  1.00 27.92 LIG 0.19  C 
BRANCH 16 17
ATOM     17  C   PHE E   4       9.019  -8.700 -10.570  1.00 28.33 LIG 0.20  C 
ATOM     18 OXT  PHE E   4       9.347  -9.880 -10.675  1.00 30.35 LIG-0.65  OA
ATOM     19 O    PHE E   4       8.412  -8.367  -9.552  1.00 28.81 LIG-0.65  OA
ENDBRANCH 16 17
BRANCH 16 20
ATOM     20  CB  PHE E   4      10.772  -7.093 -11.370  1.00 27.18 LIG 0.07  C 
BRANCH 20 21
ATOM     21  CG  PHE E   4      10.964  -6.639  -9.946  1.00 26.64 LIG-0.06  A 
ATOM     22  CD1 PHE E   4      10.498  -5.391  -9.524  1.00 26.73 LIG 0.01  A 
ATOM     23  CE1 PHE E   4      10.681  -4.971  -8.213  1.00 26.26 LIG 0.00  A 
ATOM     24  CZ  PHE E   4      11.336  -5.800  -7.313  1.00 25.93 LIG 0.00  A 
ATOM     25  CE2 PHE E   4      11.809  -7.039  -7.723  1.00 25.36 LIG 0.00  A 
ATOM     26  CD2 PHE E   4      11.621  -7.453  -9.030  1.00 26.03 LIG 0.01  A 
ENDBRANCH 20 21
ENDBRANCH 16 20
ENDBRANCH 13 16
ENDBRANCH 1 12
BRANCH 1 27
ATOM     27  CB  LEU E   3       7.892  -3.396 -11.619  1.00 28.15 LIG 0.04  C 
BRANCH 27 28
ATOM     28  CG  LEU E   3       7.171  -2.906 -10.360  1.00 27.57 LIG-0.02  C 
ATOM     29  CD2 LEU E   3       6.390  -1.629 -10.629  1.00 27.08 LIG 0.01  C 
ATOM     30  CD1 LEU E   3       8.165  -2.681  -9.230  1.00 27.26 LIG 0.01  C 
ENDBRANCH 27 28
ENDBRANCH 1 27
TORSDOF 11
ENDMDL
MODEL 35
USER: ADFR SOLUTION from run 136
USER: SCORE 11.311342 LL:  -3.687 LR:  -7.636 RR:   0.000 FEB:  -4.355
USER: RMSD 1.941987
USER: SEED 135
USER: STATUS no improvement in best in 15 clusters for 5 generations
USER: GENES 13
USER: genes 0 Translation |==|  0.46479 0.58252 0.43053
USER: genes 1 Rotation |==|  0.56032 0.52364 0.61935 0.98121
USER: genes 2 Torsion [C]-CA--N-[C] |==|  0.82125
USER: genes 3 Torsion [N]-C--CA-[N] |==|  0.74329
USER: genes 4 Torsion [C]-CA--CB-[CG] |==|  0.67862
USER: genes 5 Torsion [CA]-CB--CG-[OD1] |==|  0.13604
USER: genes 6 Torsion [N]-CA--C-[N] |==|  0.95553
USER: genes 7 Torsion [C]-N--CA-[C] |==|  0.65294
USER: genes 8 Torsion [N]-CA--C-[OXT] |==|  0.43592
USER: genes 9 Torsion [N]-CA--CB-[CG] |==|  0.01551
USER: genes 10 Torsion [CA]-CB--CG-[CD1] |==|  0.76881
USER: genes 11 Torsion [N]-CA--CB-[CG] |==|  0.63541
USER: genes 12 Torsion [CA]-CB--CG-[CD2] |==|  0.91542
ROOT
ATOM      1  CA  LEU E   3       7.781  -3.984 -12.040  1.00 28.46 LIG 0.18  C 
ENDROOT
BRANCH 1 2
ATOM      2  N   LEU E   3       7.712  -5.436 -11.800  1.00 30.36 LIG-0.35  N 
ATOM      3  C   ASP E   2       7.642  -6.327 -12.793  1.00 32.94 LIG 0.26  C 
ATOM      4 O    ASP E   2       7.598  -6.004 -13.988  1.00 32.35 LIG-0.27  OA
ATOM      5 H    LEU E   3       7.720  -5.654 -10.968  1.00 30.36 LIG 0.16  HD
BRANCH 3 6
ATOM      6  CA  ASP E   2       7.608  -7.805 -12.392  1.00 34.24 LIG 0.41  C 
ATOM      7  N   ASP E   2       9.003  -8.326 -12.382  1.00 34.31 LIG 0.61  N 
BRANCH 6 8
ATOM      8  CB  ASP E   2       6.976  -7.971 -11.005  1.00 36.18 LIG 0.16  C 
BRANCH 8 9
ATOM      9  CG  ASP E   2       7.955  -8.522  -9.963  1.00 38.13 LIG 0.17  C 
ATOM     10 OD1  ASP E   2       9.086  -7.992  -9.856  1.00 37.90 LIG-0.65  OA
ATOM     11 OD2  ASP E   2       7.586  -9.468  -9.230  1.00 38.42 LIG-0.65  OA
ENDBRANCH 8 9
ENDBRANCH 6 8
ENDBRANCH 3 6
ENDBRANCH 1 2
BRANCH 1 12
ATOM     12  C   LEU E   3       9.063  -3.576 -12.770  1.00 28.32 LIG 0.24  C 
ATOM     13  N   PHE E   4      10.041  -4.481 -12.780  1.00 27.78 LIG-0.34  N 
ATOM     14 H    PHE E   4       9.951  -5.273 -12.458  1.00 27.78 LIG 0.16  HD
ATOM     15 O    LEU E   3       9.159  -2.467 -13.300  1.00 27.38 LIG-0.27  OA
BRANCH 13 16
ATOM     16  CA  PHE E   4      11.368  -4.221 -13.340  1.00 27.92 LIG 0.19  C 
BRANCH 16 17
ATOM     17  C   PHE E   4      11.710  -5.276 -14.392  1.00 28.33 LIG 0.20  C 
ATOM     18 OXT  PHE E   4      12.538  -5.050 -15.272  1.00 30.35 LIG-0.65  OA
ATOM     19 O    PHE E   4      11.186  -6.389 -14.377  1.00 28.81 LIG-0.65  OA
ENDBRANCH 16 17
BRANCH 16 20
ATOM     20  CB  PHE E   4      12.440  -4.221 -12.236  1.00 27.18 LIG 0.07  C 
BRANCH 20 21
ATOM     21  CG  PHE E   4      11.916  -4.614 -10.879  1.00 26.64 LIG-0.06  A 
ATOM     22  CD1 PHE E   4      11.294  -3.675 -10.053  1.00 26.73 LIG 0.01  A 
ATOM     23  CE1 PHE E   4      10.817  -4.037  -8.800  1.00 26.26 LIG 0.00  A 
ATOM     24  CZ  PHE E   4      10.961  -5.346  -8.363  1.00 25.93 LIG 0.00  A 
ATOM     25  CE2 PHE E   4      11.584  -6.287  -9.173  1.00 25.36 LIG 0.00  A 
ATOM     26  CD2 PHE E   4      12.054  -5.920 -10.423  1.00 26.03 LIG 0.01  A 
ENDBRANCH 20 21
ENDBRANCH 16 20
ENDBRANCH 13 16
ENDBRANCH 1 12
BRANCH 1 27
ATOM     27  CB  LEU E   3       7.682  -3.206 -10.718  1.00 28.15 LIG 0.04  C 
BRANCH 27 28
ATOM     28  CG  LEU E   3       6.706  -2.033 -10.592  1.00 27.57 LIG-0.02  C 
ATOM     29  CD2 LEU E   3       6.506  -1.332 -11.927  1.00 27.08 LIG 0.01  C 
ATOM     30  CD1 LEU E   3       7.199  -1.039  -9.550  1.00 27.26 LIG 0.01  C 
ENDBRANCH 27 28
ENDBRANCH 1 27
TORSDOF 11
ENDMDL
MODEL 36
USER: ADFR SOLUTION from run 105
USER: SCORE 9.945778 LL:  -2.454 LR:  -7.634 RR:   0.000 FEB:  -4.352
USER: RMSD 7.545964
USER: SEED 104
USER: STATUS no improvement in best in 21 clusters for 5 generations
USER: GENES 13
USER: genes 0 Translation |==|  0.78560 0.53491 0.34205
USER: genes 1 Rotation |==|  0.29782 0.18923 0.17552 0.58517
USER: genes 2 Torsion [C]-CA--N-[C] |==|  0.69699
USER: genes 3 Torsion [N]-C--CA-[N] |==|  0.01790
USER: genes 4 Torsion [C]-CA--CB-[CG] |==|  0.75164
USER: genes 5 Torsion [CA]-CB--CG-[OD1] |==|  0.34778
USER: genes 6 Torsion [N]-CA--C-[N] |==|  0.98609
USER: genes 7 Torsion [C]-N--CA-[C] |==|  0.72299
USER: genes 8 Torsion [N]-CA--C-[OXT] |==|  0.45934
USER: genes 9 Torsion [N]-CA--CB-[CG] |==|  0.62452
USER: genes 10 Torsion [CA]-CB--CG-[CD1] |==|  0.05226
USER: genes 11 Torsion [N]-CA--CB-[CG] |==|  0.74906
USER: genes 12 Torsion [CA]-CB--CG-[CD2] |==|  0.19908
ROOT
ATOM      1  CA  LEU E   3      12.834  -4.770 -13.301  1.00 28.46 LIG 0.18  C 
ENDROOT
BRANCH 1 2
ATOM      2  N   LEU E   3      12.628  -4.290 -14.678  1.00 30.36 LIG-0.35  N 
ATOM      3  C   ASP E   2      12.783  -5.079 -15.745  1.00 32.94 LIG 0.26  C 
ATOM      4 O    ASP E   2      13.141  -6.262 -15.665  1.00 32.35 LIG-0.27  OA
ATOM      5 H    LEU E   3      12.401  -3.462 -14.730  1.00 30.36 LIG 0.16  HD
BRANCH 3 6
ATOM      6  CA  ASP E   2      12.503  -4.450 -17.113  1.00 34.24 LIG 0.41  C 
ATOM      7  N   ASP E   2      12.256  -2.993 -16.925  1.00 34.31 LIG 0.61  N 
BRANCH 6 8
ATOM      8  CB  ASP E   2      13.692  -4.662 -18.057  1.00 36.18 LIG 0.16  C 
BRANCH 8 9
ATOM      9  CG  ASP E   2      14.731  -3.538 -17.973  1.00 38.13 LIG 0.17  C 
ATOM     10 OD1  ASP E   2      15.925  -3.835 -17.732  1.00 37.90 LIG-0.65  OA
ATOM     11 OD2  ASP E   2      14.361  -2.359 -18.175  1.00 38.42 LIG-0.65  OA
ENDBRANCH 8 9
ENDBRANCH 6 8
ENDBRANCH 3 6
ENDBRANCH 1 2
BRANCH 1 12
ATOM     12  C   LEU E   3      11.521  -4.889 -12.523  1.00 28.32 LIG 0.24  C 
ATOM     13  N   PHE E   4      10.431  -4.453 -13.153  1.00 27.78 LIG-0.34  N 
ATOM     14 H    PHE E   4      10.437  -4.179 -13.968  1.00 27.78 LIG 0.16  HD
ATOM     15 O    LEU E   3      11.506  -5.356 -11.383  1.00 27.38 LIG-0.27  OA
BRANCH 13 16
ATOM     16  CA  PHE E   4       9.111  -4.394 -12.523  1.00 27.92 LIG 0.19  C 
BRANCH 16 17
ATOM     17  C   PHE E   4       8.273  -5.601 -12.945  1.00 28.33 LIG 0.20  C 
ATOM     18 OXT  PHE E   4       7.245  -5.902 -12.343  1.00 30.35 LIG-0.65  OA
ATOM     19 O    PHE E   4       8.589  -6.292 -13.913  1.00 28.81 LIG-0.65  OA
ENDBRANCH 16 17
BRANCH 16 20
ATOM     20  CB  PHE E   4       8.378  -3.094 -12.900  1.00 27.18 LIG 0.07  C 
BRANCH 20 21
ATOM     21  CG  PHE E   4       7.712  -2.412 -11.734  1.00 26.64 LIG-0.06  A 
ATOM     22  CD1 PHE E   4       8.088  -2.707 -10.421  1.00 26.73 LIG 0.01  A 
ATOM     23  CE1 PHE E   4       7.469  -2.082  -9.347  1.00 26.26 LIG 0.00  A 
ATOM     24  CZ  PHE E   4       6.463  -1.154  -9.581  1.00 25.93 LIG 0.00  A 
ATOM     25  CE2 PHE E   4       6.076  -0.857 -10.881  1.00 25.36 LIG 0.00  A 
ATOM     26  CD2 PHE E   4       6.700  -1.482 -11.948  1.00 26.03 LIG 0.01  A 
ENDBRANCH 20 21
ENDBRANCH 16 20
ENDBRANCH 13 16
ENDBRANCH 1 12
BRANCH 1 27
ATOM     27  CB  LEU E   3      13.793  -3.842 -12.536  1.00 28.15 LIG 0.04  C 
BRANCH 27 28
ATOM     28  CG  LEU E   3      15.299  -4.114 -12.557  1.00 27.57 LIG-0.02  C 
ATOM     29  CD2 LEU E   3      15.902  -3.795 -13.918  1.00 27.08 LIG 0.01  C 
ATOM     30  CD1 LEU E   3      15.585  -5.562 -12.187  1.00 27.26 LIG 0.01  C 
ENDBRANCH 27 28
ENDBRANCH 1 27
TORSDOF 11
ENDMDL
MODEL 37
USER: ADFR SOLUTION from run 78
USER: SCORE 10.119913 LL:  -2.509 LR:  -7.622 RR:   0.000 FEB:  -4.341
USER: RMSD 4.290620
USER: SEED 77
USER: STATUS no improvement in best in 14 clusters for 5 generations
USER: GENES 13
USER: genes 0 Translation |==|  0.50099 0.55534 0.35750
USER: genes 1 Rotation |==|  0.25459 0.11385 0.60974 0.66917
USER: genes 2 Torsion [C]-CA--N-[C] |==|  0.74444
USER: genes 3 Torsion [N]-C--CA-[N] |==|  0.32581
USER: genes 4 Torsion [C]-CA--CB-[CG] |==|  0.79389
USER: genes 5 Torsion [CA]-CB--CG-[OD1] |==|  0.48494
USER: genes 6 Torsion [N]-CA--C-[N] |==|  0.99568
USER: genes 7 Torsion [C]-N--CA-[C] |==|  0.10424
USER: genes 8 Torsion [N]-CA--C-[OXT] |==|  0.63740
USER: genes 9 Torsion [N]-CA--CB-[CG] |==|  0.07818
USER: genes 10 Torsion [CA]-CB--CG-[CD1] |==|  0.79495
USER: genes 11 Torsion [N]-CA--CB-[CG] |==|  0.54991
USER: genes 12 Torsion [CA]-CB--CG-[CD2] |==|  0.06069
ROOT
ATOM      1  CA  LEU E   3       8.352  -4.433 -13.081  1.00 28.46 LIG 0.18  C 
ENDROOT
BRANCH 1 2
ATOM      2  N   LEU E   3       7.479  -5.605 -12.894  1.00 30.36 LIG-0.35  N 
ATOM      3  C   ASP E   2       7.866  -6.689 -12.216  1.00 32.94 LIG 0.26  C 
ATOM      4 O    ASP E   2       8.994  -6.808 -11.719  1.00 32.35 LIG-0.27  OA
ATOM      5 H    LEU E   3       6.704  -5.526 -13.260  1.00 30.36 LIG 0.16  HD
BRANCH 3 6
ATOM      6  CA  ASP E   2       6.839  -7.817 -12.076  1.00 34.24 LIG 0.41  C 
ATOM      7  N   ASP E   2       7.369  -9.030 -12.757  1.00 34.31 LIG 0.61  N 
BRANCH 6 8
ATOM      8  CB  ASP E   2       6.573  -8.121 -10.597  1.00 36.18 LIG 0.16  C 
BRANCH 8 9
ATOM      9  CG  ASP E   2       7.722  -8.881  -9.925  1.00 38.13 LIG 0.17  C 
ATOM     10 OD1  ASP E   2       7.666  -9.096  -8.692  1.00 37.90 LIG-0.65  OA
ATOM     11 OD2  ASP E   2       8.671  -9.288 -10.635  1.00 38.42 LIG-0.65  OA
ENDBRANCH 8 9
ENDBRANCH 6 8
ENDBRANCH 3 6
ENDBRANCH 1 2
BRANCH 1 12
ATOM     12  C   LEU E   3       8.156  -3.380 -11.986  1.00 28.32 LIG 0.24  C 
ATOM     13  N   PHE E   4       7.227  -3.659 -11.072  1.00 27.78 LIG-0.34  N 
ATOM     14 H    PHE E   4       6.802  -4.405 -11.046  1.00 27.78 LIG 0.16  HD
ATOM     15 O    LEU E   3       8.825  -2.346 -11.982  1.00 27.38 LIG-0.27  OA
BRANCH 13 16
ATOM     16  CA  PHE E   4       6.836  -2.722 -10.017  1.00 27.92 LIG 0.19  C 
BRANCH 16 17
ATOM     17  C   PHE E   4       6.828  -1.293 -10.560  1.00 28.33 LIG 0.20  C 
ATOM     18 OXT  PHE E   4       7.397  -0.383  -9.962  1.00 30.35 LIG-0.65  OA
ATOM     19 O    PHE E   4       6.271  -1.015 -11.622  1.00 28.81 LIG-0.65  OA
ENDBRANCH 16 17
BRANCH 16 20
ATOM     20  CB  PHE E   4       7.792  -2.817  -8.815  1.00 27.18 LIG 0.07  C 
BRANCH 20 21
ATOM     21  CG  PHE E   4       9.186  -3.258  -9.180  1.00 26.64 LIG-0.06  A 
ATOM     22  CD1 PHE E   4       9.450  -4.587  -9.516  1.00 26.73 LIG 0.01  A 
ATOM     23  CE1 PHE E   4      10.736  -4.994  -9.846  1.00 26.26 LIG 0.00  A 
ATOM     24  CZ  PHE E   4      11.771  -4.069  -9.840  1.00 25.93 LIG 0.00  A 
ATOM     25  CE2 PHE E   4      11.521  -2.745  -9.501  1.00 25.36 LIG 0.00  A 
ATOM     26  CD2 PHE E   4      10.236  -2.346  -9.176  1.00 26.03 LIG 0.01  A 
ENDBRANCH 20 21
ENDBRANCH 16 20
ENDBRANCH 13 16
ENDBRANCH 1 12
BRANCH 1 27
ATOM     27  CB  LEU E   3       8.111  -3.785 -14.454  1.00 28.15 LIG 0.04  C 
BRANCH 27 28
ATOM     28  CG  LEU E   3       9.153  -2.832 -15.044  1.00 27.57 LIG-0.02  C 
ATOM     29  CD2 LEU E   3      10.526  -3.060 -14.427  1.00 27.08 LIG 0.01  C 
ATOM     30  CD1 LEU E   3       8.726  -1.385 -14.843  1.00 27.26 LIG 0.01  C 
ENDBRANCH 27 28
ENDBRANCH 1 27
TORSDOF 11
ENDMDL
MODEL 38
USER: ADFR SOLUTION from run 43
USER: SCORE 9.620623 LL:  -2.492 LR:  -7.624 RR:   0.000 FEB:  -4.343
USER: RMSD 5.999328
USER: SEED 42
USER: STATUS no improvement in best in 15 clusters for 5 generations
USER: GENES 13
USER: genes 0 Translation |==|  0.53245 0.60851 0.57241
USER: genes 1 Rotation |==|  0.41714 0.66463 0.76916 0.87893
USER: genes 2 Torsion [C]-CA--N-[C] |==|  0.79879
USER: genes 3 Torsion [N]-C--CA-[N] |==|  0.25396
USER: genes 4 Torsion [C]-CA--CB-[CG] |==|  0.65308
USER: genes 5 Torsion [CA]-CB--CG-[OD1] |==|  0.85247
USER: genes 6 Torsion [N]-CA--C-[N] |==|  0.52778
USER: genes 7 Torsion [C]-N--CA-[C] |==|  0.51426
USER: genes 8 Torsion [N]-CA--C-[OXT] |==|  0.00146
USER: genes 9 Torsion [N]-CA--CB-[CG] |==|  0.64839
USER: genes 10 Torsion [CA]-CB--CG-[CD1] |==|  0.69743
USER: genes 11 Torsion [N]-CA--CB-[CG] |==|  0.56922
USER: genes 12 Torsion [CA]-CB--CG-[CD2] |==|  0.01938
ROOT
ATOM      1  CA  LEU E   3       8.847  -3.556 -10.018  1.00 28.46 LIG 0.18  C 
ENDROOT
BRANCH 1 2
ATOM      2  N   LEU E   3       9.928  -4.190  -9.244  1.00 30.36 LIG-0.35  N 
ATOM      3  C   ASP E   2      10.389  -5.413  -9.521  1.00 32.94 LIG 0.26  C 
ATOM      4 O    ASP E   2       9.926  -6.121 -10.426  1.00 32.35 LIG-0.27  OA
ATOM      5 H    LEU E   3      10.231  -3.703  -8.603  1.00 30.36 LIG 0.16  HD
BRANCH 3 6
ATOM      6  CA  ASP E   2      11.538  -5.930  -8.651  1.00 34.24 LIG 0.41  C 
ATOM      7  N   ASP E   2      10.963  -6.675  -7.497  1.00 34.31 LIG 0.61  N 
BRANCH 6 8
ATOM      8  CB  ASP E   2      12.457  -6.849  -9.464  1.00 36.18 LIG 0.16  C 
BRANCH 8 9
ATOM      9  CG  ASP E   2      12.640  -8.230  -8.824  1.00 38.13 LIG 0.17  C 
ATOM     10 OD1  ASP E   2      13.010  -8.299  -7.629  1.00 37.90 LIG-0.65  OA
ATOM     11 OD2  ASP E   2      12.387  -9.249  -9.509  1.00 38.42 LIG-0.65  OA
ENDBRANCH 8 9
ENDBRANCH 6 8
ENDBRANCH 3 6
ENDBRANCH 1 2
BRANCH 1 12
ATOM     12  C   LEU E   3       9.308  -3.117 -11.411  1.00 28.32 LIG 0.24  C 
ATOM     13  N   PHE E   4       8.454  -2.354 -12.092  1.00 27.78 LIG-0.34  N 
ATOM     14 H    PHE E   4       7.716  -2.064 -11.761  1.00 27.78 LIG 0.16  HD
ATOM     15 O    LEU E   3      10.403  -3.471 -11.851  1.00 27.38 LIG-0.27  OA
BRANCH 13 16
ATOM     16  CA  PHE E   4       8.685  -1.932 -13.474  1.00 27.92 LIG 0.19  C 
BRANCH 16 17
ATOM     17  C   PHE E   4       7.586  -0.966 -13.919  1.00 28.33 LIG 0.20  C 
ATOM     18 OXT  PHE E   4       6.682  -0.637 -13.155  1.00 30.35 LIG-0.65  OA
ATOM     19 O    PHE E   4       7.587  -0.471 -15.046  1.00 28.81 LIG-0.65  OA
ENDBRANCH 16 17
BRANCH 16 20
ATOM     20  CB  PHE E   4       8.725  -3.145 -14.421  1.00 27.18 LIG 0.07  C 
BRANCH 20 21
ATOM     21  CG  PHE E   4       9.964  -3.208 -15.275  1.00 26.64 LIG-0.06  A 
ATOM     22  CD1 PHE E   4       9.901  -2.957 -16.648  1.00 26.73 LIG 0.01  A 
ATOM     23  CE1 PHE E   4      11.042  -3.022 -17.436  1.00 26.26 LIG 0.00  A 
ATOM     24  CZ  PHE E   4      12.260  -3.340 -16.853  1.00 25.93 LIG 0.00  A 
ATOM     25  CE2 PHE E   4      12.335  -3.598 -15.490  1.00 25.36 LIG 0.00  A 
ATOM     26  CD2 PHE E   4      11.194  -3.529 -14.710  1.00 26.03 LIG 0.01  A 
ENDBRANCH 20 21
ENDBRANCH 16 20
ENDBRANCH 13 16
ENDBRANCH 1 12
BRANCH 1 27
ATOM     27  CB  LEU E   3       8.278  -2.340  -9.268  1.00 28.15 LIG 0.04  C 
BRANCH 27 28
ATOM     28  CG  LEU E   3       6.846  -1.873  -9.543  1.00 27.57 LIG-0.02  C 
ATOM     29  CD2 LEU E   3       6.111  -2.844 -10.456  1.00 27.08 LIG 0.01  C 
ATOM     30  CD1 LEU E   3       6.848  -0.481 -10.156  1.00 27.26 LIG 0.01  C 
ENDBRANCH 27 28
ENDBRANCH 1 27
TORSDOF 11
ENDMDL
MODEL 39
USER: ADFR SOLUTION from run 176
USER: SCORE 9.567697 LL:  -2.510 LR:  -7.613 RR:   0.000 FEB:  -4.332
USER: RMSD 6.363912
USER: SEED 175
USER: STATUS no improvement in best in 25 clusters for 5 generations
USER: GENES 13
USER: genes 0 Translation |==|  0.64307 0.42847 0.63178
USER: genes 1 Rotation |==|  0.81378 0.75258 0.64500 0.75830
USER: genes 2 Torsion [C]-CA--N-[C] |==|  0.70113
USER: genes 3 Torsion [N]-C--CA-[N] |==|  0.90030
USER: genes 4 Torsion [C]-CA--CB-[CG] |==|  0.83710
USER: genes 5 Torsion [CA]-CB--CG-[OD1] |==|  0.84399
USER: genes 6 Torsion [N]-CA--C-[N] |==|  0.18881
USER: genes 7 Torsion [C]-N--CA-[C] |==|  0.72853
USER: genes 8 Torsion [N]-CA--C-[OXT] |==|  0.94988
USER: genes 9 Torsion [N]-CA--CB-[CG] |==|  0.59801
USER: genes 10 Torsion [CA]-CB--CG-[CD1] |==|  0.73663
USER: genes 11 Torsion [N]-CA--CB-[CG] |==|  0.95874
USER: genes 12 Torsion [CA]-CB--CG-[CD2] |==|  0.61392
ROOT
ATOM      1  CA  LEU E   3      10.589  -6.526  -9.172  1.00 28.46 LIG 0.18  C 
ENDROOT
BRANCH 1 2
ATOM      2  N   LEU E   3      10.428  -7.467 -10.295  1.00 30.36 LIG-0.35  N 
ATOM      3  C   ASP E   2       9.379  -8.288 -10.400  1.00 32.94 LIG 0.26  C 
ATOM      4 O    ASP E   2       8.479  -8.346  -9.551  1.00 32.35 LIG-0.27  OA
ATOM      5 H    LEU E   3      11.067  -7.438 -10.869  1.00 30.36 LIG 0.16  HD
BRANCH 3 6
ATOM      6  CA  ASP E   2       9.331  -9.187 -11.639  1.00 34.24 LIG 0.41  C 
ATOM      7  N   ASP E   2       9.884  -8.432 -12.796  1.00 34.31 LIG 0.61  N 
BRANCH 6 8
ATOM      8  CB  ASP E   2      10.146 -10.465 -11.408  1.00 36.18 LIG 0.16  C 
BRANCH 8 9
ATOM      9  CG  ASP E   2      11.616 -10.186 -11.078  1.00 38.13 LIG 0.17  C 
ATOM     10 OD1  ASP E   2      12.297  -9.504 -11.879  1.00 37.90 LIG-0.65  OA
ATOM     11 OD2  ASP E   2      12.086 -10.624 -10.002  1.00 38.42 LIG-0.65  OA
ENDBRANCH 8 9
ENDBRANCH 6 8
ENDBRANCH 3 6
ENDBRANCH 1 2
BRANCH 1 12
ATOM     12  C   LEU E   3      10.353  -5.073  -9.592  1.00 28.32 LIG 0.24  C 
ATOM     13  N   PHE E   4       9.102  -4.762  -9.929  1.00 27.78 LIG-0.34  N 
ATOM     14 H    PHE E   4       8.445  -5.312  -9.859  1.00 27.78 LIG 0.16  HD
ATOM     15 O    LEU E   3      11.283  -4.266  -9.614  1.00 27.38 LIG-0.27  OA
BRANCH 13 16
ATOM     16  CA  PHE E   4       8.716  -3.451 -10.453  1.00 27.92 LIG 0.19  C 
BRANCH 16 17
ATOM     17  C   PHE E   4       8.152  -2.581  -9.329  1.00 28.33 LIG 0.20  C 
ATOM     18 OXT  PHE E   4       7.763  -3.078  -8.275  1.00 30.35 LIG-0.65  OA
ATOM     19 O    PHE E   4       8.091  -1.357  -9.438  1.00 28.81 LIG-0.65  OA
ENDBRANCH 16 17
BRANCH 16 20
ATOM     20  CB  PHE E   4       7.673  -3.592 -11.575  1.00 27.18 LIG 0.07  C 
BRANCH 20 21
ATOM     21  CG  PHE E   4       7.820  -2.572 -12.674  1.00 26.64 LIG-0.06  A 
ATOM     22  CD1 PHE E   4       7.079  -1.388 -12.657  1.00 26.73 LIG 0.01  A 
ATOM     23  CE1 PHE E   4       7.211  -0.453 -13.674  1.00 26.26 LIG 0.00  A 
ATOM     24  CZ  PHE E   4       8.089  -0.697 -14.720  1.00 25.93 LIG 0.00  A 
ATOM     25  CE2 PHE E   4       8.826  -1.873 -14.752  1.00 25.36 LIG 0.00  A 
ATOM     26  CD2 PHE E   4       8.692  -2.801 -13.733  1.00 26.03 LIG 0.01  A 
ENDBRANCH 20 21
ENDBRANCH 16 20
ENDBRANCH 13 16
ENDBRANCH 1 12
BRANCH 1 27
ATOM     27  CB  LEU E   3      11.990  -6.652  -8.551  1.00 28.15 LIG 0.04  C 
BRANCH 27 28
ATOM     28  CG  LEU E   3      12.864  -7.866  -8.874  1.00 27.57 LIG-0.02  C 
ATOM     29  CD2 LEU E   3      13.591  -8.372  -7.637  1.00 27.08 LIG 0.01  C 
ATOM     30  CD1 LEU E   3      13.869  -7.524  -9.965  1.00 27.26 LIG 0.01  C 
ENDBRANCH 27 28
ENDBRANCH 1 27
TORSDOF 11
ENDMDL
MODEL 40
USER: ADFR SOLUTION from run 143
USER: SCORE 10.182404 LL:  -3.096 LR:  -7.612 RR:   0.000 FEB:  -4.330
USER: RMSD 6.542914
USER: SEED 142
USER: STATUS no improvement in best in 21 clusters for 5 generations
USER: GENES 13
USER: genes 0 Translation |==|  0.57278 0.64197 0.31230
USER: genes 1 Rotation |==|  0.58267 0.03767 0.67116 0.51091
USER: genes 2 Torsion [C]-CA--N-[C] |==|  0.53902
USER: genes 3 Torsion [N]-C--CA-[N] |==|  0.39947
USER: genes 4 Torsion [C]-CA--CB-[CG] |==|  0.68822
USER: genes 5 Torsion [CA]-CB--CG-[OD1] |==|  0.15799
USER: genes 6 Torsion [N]-CA--C-[N] |==|  0.32961
USER: genes 7 Torsion [C]-N--CA-[C] |==|  0.63480
USER: genes 8 Torsion [N]-CA--C-[OXT] |==|  0.59681
USER: genes 9 Torsion [N]-CA--CB-[CG] |==|  0.93394
USER: genes 10 Torsion [CA]-CB--CG-[CD1] |==|  0.30957
USER: genes 11 Torsion [N]-CA--CB-[CG] |==|  0.59253
USER: genes 12 Torsion [CA]-CB--CG-[CD2] |==|  0.27663
ROOT
ATOM      1  CA  LEU E   3       9.482  -3.003 -13.725  1.00 28.46 LIG 0.18  C 
ENDROOT
BRANCH 1 2
ATOM      2  N   LEU E   3      10.601  -3.940 -13.522  1.00 30.36 LIG-0.35  N 
ATOM      3  C   ASP E   2      11.825  -3.715 -14.007  1.00 32.94 LIG 0.26  C 
ATOM      4 O    ASP E   2      12.109  -2.721 -14.690  1.00 32.35 LIG-0.27  OA
ATOM      5 H    LEU E   3      10.393  -4.639 -13.065  1.00 30.36 LIG 0.16  HD
BRANCH 3 6
ATOM      6  CA  ASP E   2      12.896  -4.762 -13.688  1.00 34.24 LIG 0.41  C 
ATOM      7  N   ASP E   2      13.797  -4.896 -14.866  1.00 34.31 LIG 0.61  N 
BRANCH 6 8
ATOM      8  CB  ASP E   2      13.705  -4.345 -12.454  1.00 36.18 LIG 0.16  C 
BRANCH 8 9
ATOM      9  CG  ASP E   2      15.161  -3.995 -12.783  1.00 38.13 LIG 0.17  C 
ATOM     10 OD1  ASP E   2      15.391  -3.100 -13.629  1.00 37.90 LIG-0.65  OA
ATOM     11 OD2  ASP E   2      16.077  -4.596 -12.175  1.00 38.42 LIG-0.65  OA
ENDBRANCH 8 9
ENDBRANCH 6 8
ENDBRANCH 3 6
ENDBRANCH 1 2
BRANCH 1 12
ATOM     12  C   LEU E   3       8.298  -3.302 -12.802  1.00 28.32 LIG 0.24  C 
ATOM     13  N   PHE E   4       7.964  -2.331 -11.951  1.00 27.78 LIG-0.34  N 
ATOM     14 H    PHE E   4       8.338  -1.557 -11.952  1.00 27.78 LIG 0.16  HD
ATOM     15 O    LEU E   3       7.714  -4.385 -12.859  1.00 27.38 LIG-0.27  OA
BRANCH 13 16
ATOM     16  CA  PHE E   4       6.928  -2.483 -10.929  1.00 27.92 LIG 0.19  C 
BRANCH 16 17
ATOM     17  C   PHE E   4       5.973  -1.290 -10.967  1.00 28.33 LIG 0.20  C 
ATOM     18 OXT  PHE E   4       5.470  -0.846  -9.938  1.00 30.35 LIG-0.65  OA
ATOM     19 O    PHE E   4       5.698  -0.725 -12.025  1.00 28.81 LIG-0.65  OA
ENDBRANCH 16 17
BRANCH 16 20
ATOM     20  CB  PHE E   4       7.552  -2.605  -9.527  1.00 27.18 LIG 0.07  C 
BRANCH 20 21
ATOM     21  CG  PHE E   4       8.974  -3.103  -9.536  1.00 26.64 LIG-0.06  A 
ATOM     22  CD1 PHE E   4      10.029  -2.263  -9.175  1.00 26.73 LIG 0.01  A 
ATOM     23  CE1 PHE E   4      11.340  -2.721  -9.190  1.00 26.26 LIG 0.00  A 
ATOM     24  CZ  PHE E   4      11.604  -4.030  -9.569  1.00 25.93 LIG 0.00  A 
ATOM     25  CE2 PHE E   4      10.563  -4.873  -9.936  1.00 25.36 LIG 0.00  A 
ATOM     26  CD2 PHE E   4       9.259  -4.410  -9.916  1.00 26.03 LIG 0.01  A 
ENDBRANCH 20 21
ENDBRANCH 16 20
ENDBRANCH 13 16
ENDBRANCH 1 12
BRANCH 1 27
ATOM     27  CB  LEU E   3       9.004  -3.031 -15.186  1.00 28.15 LIG 0.04  C 
BRANCH 27 28
ATOM     28  CG  LEU E   3       8.470  -1.754 -15.840  1.00 27.57 LIG-0.02  C 
ATOM     29  CD2 LEU E   3       9.529  -1.089 -16.706  1.00 27.08 LIG 0.01  C 
ATOM     30  CD1 LEU E   3       7.975  -0.779 -14.781  1.00 27.26 LIG 0.01  C 
ENDBRANCH 27 28
ENDBRANCH 1 27
TORSDOF 11
ENDMDL
MODEL 41
USER: ADFR SOLUTION from run 42
USER: SCORE 10.246706 LL:  -2.669 LR:  -7.599 RR:   0.000 FEB:  -4.318
USER: RMSD 7.239757
USER: SEED 41
USER: STATUS no improvement in best in 8 clusters for 5 generations
USER: GENES 13
USER: genes 0 Translation |==|  0.73502 0.53482 0.44714
USER: genes 1 Rotation |==|  0.54613 0.79229 0.90086 0.54178
USER: genes 2 Torsion [C]-CA--N-[C] |==|  0.82004
USER: genes 3 Torsion [N]-C--CA-[N] |==|  0.24758
USER: genes 4 Torsion [C]-CA--CB-[CG] |==|  0.51793
USER: genes 5 Torsion [CA]-CB--CG-[OD1] |==|  0.17994
USER: genes 6 Torsion [N]-CA--C-[N] |==|  0.91111
USER: genes 7 Torsion [C]-N--CA-[C] |==|  0.72072
USER: genes 8 Torsion [N]-CA--C-[OXT] |==|  0.96698
USER: genes 9 Torsion [N]-CA--CB-[CG] |==|  0.73914
USER: genes 10 Torsion [CA]-CB--CG-[CD1] |==|  0.60912
USER: genes 11 Torsion [N]-CA--CB-[CG] |==|  0.53393
USER: genes 12 Torsion [CA]-CB--CG-[CD2] |==|  0.08348
ROOT
ATOM      1  CA  LEU E   3      12.038  -4.771 -11.803  1.00 28.46 LIG 0.18  C 
ENDROOT
BRANCH 1 2
ATOM      2  N   LEU E   3      12.926  -4.120 -12.781  1.00 30.36 LIG-0.35  N 
ATOM      3  C   ASP E   2      13.201  -4.657 -13.973  1.00 32.94 LIG 0.26  C 
ATOM      4 O    ASP E   2      12.757  -5.754 -14.338  1.00 32.35 LIG-0.27  OA
ATOM      5 H    LEU E   3      13.249  -3.369 -12.514  1.00 30.36 LIG 0.16  HD
BRANCH 3 6
ATOM      6  CA  ASP E   2      14.116  -3.849 -14.898  1.00 34.24 LIG 0.41  C 
ATOM      7  N   ASP E   2      15.528  -4.229 -14.620  1.00 34.31 LIG 0.61  N 
BRANCH 6 8
ATOM      8  CB  ASP E   2      13.777  -4.128 -16.367  1.00 36.18 LIG 0.16  C 
BRANCH 8 9
ATOM      9  CG  ASP E   2      14.760  -3.471 -17.344  1.00 38.13 LIG 0.17  C 
ATOM     10 OD1  ASP E   2      15.955  -3.849 -17.345  1.00 37.90 LIG-0.65  OA
ATOM     11 OD2  ASP E   2      14.332  -2.595 -18.130  1.00 38.42 LIG-0.65  OA
ENDBRANCH 8 9
ENDBRANCH 6 8
ENDBRANCH 3 6
ENDBRANCH 1 2
BRANCH 1 12
ATOM     12  C   LEU E   3      10.595  -4.876 -12.306  1.00 28.32 LIG 0.24  C 
ATOM     13  N   PHE E   4      10.186  -3.892 -13.107  1.00 27.78 LIG-0.34  N 
ATOM     14 H    PHE E   4      10.705  -3.266 -13.384  1.00 27.78 LIG 0.16  HD
ATOM     15 O    LEU E   3       9.879  -5.819 -11.968  1.00 27.38 LIG-0.27  OA
BRANCH 13 16
ATOM     16  CA  PHE E   4       8.811  -3.776 -13.594  1.00 27.92 LIG 0.19  C 
BRANCH 16 17
ATOM     17  C   PHE E   4       8.717  -4.295 -15.029  1.00 28.33 LIG 0.20  C 
ATOM     18 OXT  PHE E   4       9.728  -4.527 -15.689  1.00 30.35 LIG-0.65  OA
ATOM     19 O    PHE E   4       7.629  -4.518 -15.559  1.00 28.81 LIG-0.65  OA
ENDBRANCH 16 17
BRANCH 16 20
ATOM     20  CB  PHE E   4       8.329  -2.315 -13.537  1.00 27.18 LIG 0.07  C 
BRANCH 20 21
ATOM     21  CG  PHE E   4       7.585  -1.970 -12.273  1.00 26.64 LIG-0.06  A 
ATOM     22  CD1 PHE E   4       6.462  -1.140 -12.308  1.00 26.73 LIG 0.01  A 
ATOM     23  CE1 PHE E   4       5.781  -0.818 -11.142  1.00 26.26 LIG 0.00  A 
ATOM     24  CZ  PHE E   4       6.222  -1.325  -9.927  1.00 25.93 LIG 0.00  A 
ATOM     25  CE2 PHE E   4       7.341  -2.146  -9.880  1.00 25.36 LIG 0.00  A 
ATOM     26  CD2 PHE E   4       8.014  -2.466 -11.047  1.00 26.03 LIG 0.01  A 
ENDBRANCH 20 21
ENDBRANCH 16 20
ENDBRANCH 13 16
ENDBRANCH 1 12
BRANCH 1 27
ATOM     27  CB  LEU E   3      12.053  -4.018 -10.463  1.00 28.15 LIG 0.04  C 
BRANCH 27 28
ATOM     28  CG  LEU E   3      11.432  -4.657  -9.219  1.00 27.57 LIG-0.02  C 
ATOM     29  CD2 LEU E   3      11.531  -6.175  -9.266  1.00 27.08 LIG 0.01  C 
ATOM     30  CD1 LEU E   3       9.978  -4.234  -9.071  1.00 27.26 LIG 0.01  C 
ENDBRANCH 27 28
ENDBRANCH 1 27
TORSDOF 11
ENDMDL
MODEL 42
USER: ADFR SOLUTION from run 117
USER: SCORE 9.229707 LL:  -2.094 LR:  -7.572 RR:   0.000 FEB:  -4.290
USER: RMSD 5.855721
USER: SEED 116
USER: STATUS no improvement in best in 20 clusters for 5 generations
USER: GENES 13
USER: genes 0 Translation |==|  0.61245 0.36741 0.56532
USER: genes 1 Rotation |==|  0.92439 0.72786 0.48392 0.63309
USER: genes 2 Torsion [C]-CA--N-[C] |==|  0.64124
USER: genes 3 Torsion [N]-C--CA-[N] |==|  0.55300
USER: genes 4 Torsion [C]-CA--CB-[CG] |==|  0.62998
USER: genes 5 Torsion [CA]-CB--CG-[OD1] |==|  0.31183
USER: genes 6 Torsion [N]-CA--C-[N] |==|  0.13882
USER: genes 7 Torsion [C]-N--CA-[C] |==|  0.86209
USER: genes 8 Torsion [N]-CA--C-[OXT] |==|  0.44231
USER: genes 9 Torsion [N]-CA--CB-[CG] |==|  0.67964
USER: genes 10 Torsion [CA]-CB--CG-[CD1] |==|  0.52204
USER: genes 11 Torsion [N]-CA--CB-[CG] |==|  0.53901
USER: genes 12 Torsion [CA]-CB--CG-[CD2] |==|  0.38032
ROOT
ATOM      1  CA  LEU E   3      10.107  -7.534 -10.119  1.00 28.46 LIG 0.18  C 
ENDROOT
BRANCH 1 2
ATOM      2  N   LEU E   3       8.856  -7.846 -10.833  1.00 30.36 LIG-0.35  N 
ATOM      3  C   ASP E   2       7.867  -8.550 -10.275  1.00 32.94 LIG 0.26  C 
ATOM      4 O    ASP E   2       7.934  -9.021  -9.131  1.00 32.35 LIG-0.27  OA
ATOM      5 H    LEU E   3       8.824  -7.536 -11.634  1.00 30.36 LIG 0.16  HD
BRANCH 3 6
ATOM      6  CA  ASP E   2       6.613  -8.769 -11.127  1.00 34.24 LIG 0.41  C 
ATOM      7  N   ASP E   2       5.486  -9.138 -10.227  1.00 34.31 LIG 0.61  N 
BRANCH 6 8
ATOM      8  CB  ASP E   2       6.265  -7.496 -11.908  1.00 36.18 LIG 0.16  C 
BRANCH 8 9
ATOM      9  CG  ASP E   2       4.780  -7.127 -11.820  1.00 38.13 LIG 0.17  C 
ATOM     10 OD1  ASP E   2       4.450  -6.090 -11.198  1.00 37.90 LIG-0.65  OA
ATOM     11 OD2  ASP E   2       3.942  -7.859 -12.396  1.00 38.42 LIG-0.65  OA
ENDBRANCH 8 9
ENDBRANCH 6 8
ENDBRANCH 3 6
ENDBRANCH 1 2
BRANCH 1 12
ATOM     12  C   LEU E   3      10.455  -6.044 -10.178  1.00 28.32 LIG 0.24  C 
ATOM     13  N   PHE E   4       9.475  -5.205  -9.844  1.00 27.78 LIG-0.34  N 
ATOM     14 H    PHE E   4       8.711  -5.467  -9.550  1.00 27.78 LIG 0.16  HD
ATOM     15 O    LEU E   3      11.577  -5.674 -10.524  1.00 27.38 LIG-0.27  OA
BRANCH 13 16
ATOM     16  CA  PHE E   4       9.598  -3.750  -9.944  1.00 27.92 LIG 0.19  C 
BRANCH 16 17
ATOM     17  C   PHE E   4      10.891  -3.285  -9.275  1.00 28.33 LIG 0.20  C 
ATOM     18 OXT  PHE E   4      11.393  -2.197  -9.549  1.00 30.35 LIG-0.65  OA
ATOM     19 O    PHE E   4      11.456  -3.973  -8.425  1.00 28.81 LIG-0.65  OA
ENDBRANCH 16 17
BRANCH 16 20
ATOM     20  CB  PHE E   4       8.393  -3.050  -9.290  1.00 27.18 LIG 0.07  C 
BRANCH 20 21
ATOM     21  CG  PHE E   4       7.542  -2.272 -10.259  1.00 26.64 LIG-0.06  A 
ATOM     22  CD1 PHE E   4       6.510  -1.447  -9.804  1.00 26.73 LIG 0.01  A 
ATOM     23  CE1 PHE E   4       5.723  -0.736 -10.699  1.00 26.26 LIG 0.00  A 
ATOM     24  CZ  PHE E   4       5.963  -0.846 -12.062  1.00 25.93 LIG 0.00  A 
ATOM     25  CE2 PHE E   4       6.982  -1.668 -12.526  1.00 25.36 LIG 0.00  A 
ATOM     26  CD2 PHE E   4       7.765  -2.372 -11.628  1.00 26.03 LIG 0.01  A 
ENDBRANCH 20 21
ENDBRANCH 16 20
ENDBRANCH 13 16
ENDBRANCH 1 12
BRANCH 1 27
ATOM     27  CB  LEU E   3      11.279  -8.349 -10.688  1.00 28.15 LIG 0.04  C 
BRANCH 27 28
ATOM     28  CG  LEU E   3      12.597  -8.439  -9.913  1.00 27.57 LIG-0.02  C 
ATOM     29  CD2 LEU E   3      13.148  -9.857  -9.915  1.00 27.08 LIG 0.01  C 
ATOM     30  CD1 LEU E   3      12.407  -7.957  -8.482  1.00 27.26 LIG 0.01  C 
ENDBRANCH 27 28
ENDBRANCH 1 27
TORSDOF 11
ENDMDL
MODEL 43
USER: ADFR SOLUTION from run 171
USER: SCORE 10.156440 LL:  -2.680 LR:  -7.560 RR:   0.000 FEB:  -4.278
USER: RMSD 5.995966
USER: SEED 170
USER: STATUS no improvement in best in 12 clusters for 5 generations
USER: GENES 13
USER: genes 0 Translation |==|  0.72504 0.51870 0.46497
USER: genes 1 Rotation |==|  0.53571 0.90132 0.27019 0.68669
USER: genes 2 Torsion [C]-CA--N-[C] |==|  0.80473
USER: genes 3 Torsion [N]-C--CA-[N] |==|  0.71233
USER: genes 4 Torsion [C]-CA--CB-[CG] |==|  0.67486
USER: genes 5 Torsion [CA]-CB--CG-[OD1] |==|  0.21652
USER: genes 6 Torsion [N]-CA--C-[N] |==|  0.46665
USER: genes 7 Torsion [C]-N--CA-[C] |==|  0.71812
USER: genes 8 Torsion [N]-CA--C-[OXT] |==|  0.85279
USER: genes 9 Torsion [N]-CA--CB-[CG] |==|  0.74791
USER: genes 10 Torsion [CA]-CB--CG-[CD1] |==|  0.11777
USER: genes 11 Torsion [N]-CA--CB-[CG] |==|  0.66308
USER: genes 12 Torsion [CA]-CB--CG-[CD2] |==|  0.10897
ROOT
ATOM      1  CA  LEU E   3      11.880  -5.037 -11.549  1.00 28.46 LIG 0.18  C 
ENDROOT
BRANCH 1 2
ATOM      2  N   LEU E   3      12.169  -5.935 -10.417  1.00 30.36 LIG-0.35  N 
ATOM      3  C   ASP E   2      11.711  -5.706  -9.183  1.00 32.94 LIG 0.26  C 
ATOM      4 O    ASP E   2      11.037  -4.710  -8.886  1.00 32.35 LIG-0.27  OA
ATOM      5 H    LEU E   3      12.656  -6.613 -10.624  1.00 30.36 LIG 0.16  HD
BRANCH 3 6
ATOM      6  CA  ASP E   2      12.065  -6.744  -8.114  1.00 34.24 LIG 0.41  C 
ATOM      7  N   ASP E   2      10.865  -7.585  -7.852  1.00 34.31 LIG 0.61  N 
BRANCH 6 8
ATOM      8  CB  ASP E   2      13.230  -7.624  -8.583  1.00 36.18 LIG 0.16  C 
BRANCH 8 9
ATOM      9  CG  ASP E   2      12.844  -9.101  -8.728  1.00 38.13 LIG 0.17  C 
ATOM     10 OD1  ASP E   2      12.197  -9.461  -9.739  1.00 37.90 LIG-0.65  OA
ATOM     11 OD2  ASP E   2      13.211  -9.908  -7.843  1.00 38.42 LIG-0.65  OA
ENDBRANCH 8 9
ENDBRANCH 6 8
ENDBRANCH 3 6
ENDBRANCH 1 2
BRANCH 1 12
ATOM     12  C   LEU E   3      10.414  -5.102 -11.985  1.00 28.32 LIG 0.24  C 
ATOM     13  N   PHE E   4      10.016  -4.151 -12.828  1.00 27.78 LIG-0.34  N 
ATOM     14 H    PHE E   4      10.550  -3.568 -13.166  1.00 27.78 LIG 0.16  HD
ATOM     15 O    LEU E   3       9.671  -5.988 -11.559  1.00 27.38 LIG-0.27  OA
BRANCH 13 16
ATOM     16  CA  PHE E   4       8.627  -3.998 -13.265  1.00 27.92 LIG 0.19  C 
BRANCH 16 17
ATOM     17  C   PHE E   4       8.452  -4.578 -14.669  1.00 28.33 LIG 0.20  C 
ATOM     18 OXT  PHE E   4       9.178  -4.228 -15.596  1.00 30.35 LIG-0.65  OA
ATOM     19 O    PHE E   4       7.594  -5.428 -14.908  1.00 28.81 LIG-0.65  OA
ENDBRANCH 16 17
BRANCH 16 20
ATOM     20  CB  PHE E   4       8.207  -2.518 -13.258  1.00 27.18 LIG 0.07  C 
BRANCH 20 21
ATOM     21  CG  PHE E   4       7.600  -2.064 -11.956  1.00 26.64 LIG-0.06  A 
ATOM     22  CD1 PHE E   4       8.152  -2.456 -10.734  1.00 26.73 LIG 0.01  A 
ATOM     23  CE1 PHE E   4       7.587  -2.044  -9.534  1.00 26.26 LIG 0.00  A 
ATOM     24  CZ  PHE E   4       6.461  -1.233  -9.550  1.00 25.93 LIG 0.00  A 
ATOM     25  CE2 PHE E   4       5.899  -0.842 -10.759  1.00 25.36 LIG 0.00  A 
ATOM     26  CD2 PHE E   4       6.469  -1.255 -11.951  1.00 26.03 LIG 0.01  A 
ENDBRANCH 20 21
ENDBRANCH 16 20
ENDBRANCH 13 16
ENDBRANCH 1 12
BRANCH 1 27
ATOM     27  CB  LEU E   3      12.780  -5.367 -12.751  1.00 28.15 LIG 0.04  C 
BRANCH 27 28
ATOM     28  CG  LEU E   3      13.708  -4.294 -13.329  1.00 27.57 LIG-0.02  C 
ATOM     29  CD2 LEU E   3      14.336  -3.452 -12.229  1.00 27.08 LIG 0.01  C 
ATOM     30  CD1 LEU E   3      12.950  -3.401 -14.301  1.00 27.26 LIG 0.01  C 
ENDBRANCH 27 28
ENDBRANCH 1 27
TORSDOF 11
ENDMDL
MODEL 44
USER: ADFR SOLUTION from run 136
USER: SCORE 10.358789 LL:  -2.875 LR:  -7.563 RR:   0.000 FEB:  -4.282
USER: RMSD 3.386894
USER: SEED 135
USER: STATUS no improvement in best in 15 clusters for 5 generations
USER: GENES 13
USER: genes 0 Translation |==|  0.47136 0.55825 0.43720
USER: genes 1 Rotation |==|  0.46373 0.28279 0.60195 0.93716
USER: genes 2 Torsion [C]-CA--N-[C] |==|  0.80023
USER: genes 3 Torsion [N]-C--CA-[N] |==|  0.57174
USER: genes 4 Torsion [C]-CA--CB-[CG] |==|  0.75838
USER: genes 5 Torsion [CA]-CB--CG-[OD1] |==|  0.59738
USER: genes 6 Torsion [N]-CA--C-[N] |==|  0.88616
USER: genes 7 Torsion [C]-N--CA-[C] |==|  0.10705
USER: genes 8 Torsion [N]-CA--C-[OXT] |==|  0.08907
USER: genes 9 Torsion [N]-CA--CB-[CG] |==|  0.14535
USER: genes 10 Torsion [CA]-CB--CG-[CD1] |==|  0.71942
USER: genes 11 Torsion [N]-CA--CB-[CG] |==|  0.40063
USER: genes 12 Torsion [CA]-CB--CG-[CD2] |==|  0.73059
ROOT
ATOM      1  CA  LEU E   3       7.885  -4.385 -11.945  1.00 28.46 LIG 0.18  C 
ENDROOT
BRANCH 1 2
ATOM      2  N   LEU E   3       7.402  -5.771 -11.823  1.00 30.36 LIG-0.35  N 
ATOM      3  C   ASP E   2       7.986  -6.795 -12.453  1.00 32.94 LIG 0.26  C 
ATOM      4 O    ASP E   2       8.955  -6.657 -13.211  1.00 32.35 LIG-0.27  OA
ATOM      5 H    LEU E   3       6.715  -5.858 -11.312  1.00 30.36 LIG 0.16  HD
BRANCH 3 6
ATOM      6  CA  ASP E   2       7.392  -8.185 -12.204  1.00 34.24 LIG 0.41  C 
ATOM      7  N   ASP E   2       8.457  -9.202 -12.424  1.00 34.31 LIG 0.61  N 
BRANCH 6 8
ATOM      8  CB  ASP E   2       6.853  -8.291 -10.773  1.00 36.18 LIG 0.16  C 
BRANCH 8 9
ATOM      9  CG  ASP E   2       7.921  -8.721  -9.761  1.00 38.13 LIG 0.17  C 
ATOM     10 OD1  ASP E   2       7.586  -9.456  -8.803  1.00 37.90 LIG-0.65  OA
ATOM     11 OD2  ASP E   2       9.104  -8.346  -9.938  1.00 38.42 LIG-0.65  OA
ENDBRANCH 8 9
ENDBRANCH 6 8
ENDBRANCH 3 6
ENDBRANCH 1 2
BRANCH 1 12
ATOM     12  C   LEU E   3       9.206  -4.161 -11.205  1.00 28.32 LIG 0.24  C 
ATOM     13  N   PHE E   4       9.311  -4.747 -10.012  1.00 27.78 LIG-0.34  N 
ATOM     14 H    PHE E   4       8.711  -5.273  -9.693  1.00 27.78 LIG 0.16  HD
ATOM     15 O    LEU E   3      10.096  -3.470 -11.703  1.00 27.38 LIG-0.27  OA
BRANCH 13 16
ATOM     16  CA  PHE E   4      10.458  -4.555  -9.124  1.00 27.92 LIG 0.19  C 
BRANCH 16 17
ATOM     17  C   PHE E   4      10.930  -3.102  -9.181  1.00 28.33 LIG 0.20  C 
ATOM     18 OXT  PHE E   4      10.136  -2.184  -9.373  1.00 30.35 LIG-0.65  OA
ATOM     19 O    PHE E   4      12.112  -2.806  -9.012  1.00 28.81 LIG-0.65  OA
ENDBRANCH 16 17
BRANCH 16 20
ATOM     20  CB  PHE E   4      11.616  -5.493  -9.511  1.00 27.18 LIG 0.07  C 
BRANCH 20 21
ATOM     21  CG  PHE E   4      12.002  -5.414 -10.965  1.00 26.64 LIG-0.06  A 
ATOM     22  CD1 PHE E   4      11.575  -6.386 -11.872  1.00 26.73 LIG 0.01  A 
ATOM     23  CE1 PHE E   4      11.937  -6.316 -13.211  1.00 26.26 LIG 0.00  A 
ATOM     24  CZ  PHE E   4      12.734  -5.269 -13.652  1.00 25.93 LIG 0.00  A 
ATOM     25  CE2 PHE E   4      13.171  -4.300 -12.757  1.00 25.36 LIG 0.00  A 
ATOM     26  CD2 PHE E   4      12.803  -4.375 -11.425  1.00 26.03 LIG 0.01  A 
ENDBRANCH 20 21
ENDBRANCH 16 20
ENDBRANCH 13 16
ENDBRANCH 1 12
BRANCH 1 27
ATOM     27  CB  LEU E   3       6.836  -3.392 -11.419  1.00 28.15 LIG 0.04  C 
BRANCH 27 28
ATOM     28  CG  LEU E   3       7.283  -2.125 -10.684  1.00 27.57 LIG-0.02  C 
ATOM     29  CD2 LEU E   3       7.237  -2.312  -9.175  1.00 27.08 LIG 0.01  C 
ATOM     30  CD1 LEU E   3       6.417  -0.941 -11.089  1.00 27.26 LIG 0.01  C 
ENDBRANCH 27 28
ENDBRANCH 1 27
TORSDOF 11
ENDMDL
MODEL 45
USER: ADFR SOLUTION from run 147
USER: SCORE 9.663593 LL:  -2.165 LR:  -7.554 RR:   0.000 FEB:  -4.273
USER: RMSD 6.648656
USER: SEED 146
USER: STATUS no improvement in best in 17 clusters for 5 generations
USER: GENES 13
USER: genes 0 Translation |==|  0.46810 0.59520 0.42388
USER: genes 1 Rotation |==|  0.63951 0.16779 0.16304 0.58142
USER: genes 2 Torsion [C]-CA--N-[C] |==|  0.78789
USER: genes 3 Torsion [N]-C--CA-[N] |==|  0.52730
USER: genes 4 Torsion [C]-CA--CB-[CG] |==|  0.26764
USER: genes 5 Torsion [CA]-CB--CG-[OD1] |==|  0.33305
USER: genes 6 Torsion [N]-CA--C-[N] |==|  0.46111
USER: genes 7 Torsion [C]-N--CA-[C] |==|  0.21947
USER: genes 8 Torsion [N]-CA--C-[OXT] |==|  0.35489
USER: genes 9 Torsion [N]-CA--CB-[CG] |==|  0.78498
USER: genes 10 Torsion [CA]-CB--CG-[CD1] |==|  0.52577
USER: genes 11 Torsion [N]-CA--CB-[CG] |==|  0.85844
USER: genes 12 Torsion [CA]-CB--CG-[CD2] |==|  0.74392
ROOT
ATOM      1  CA  LEU E   3       7.834  -3.775 -12.135  1.00 28.46 LIG 0.18  C 
ENDROOT
BRANCH 1 2
ATOM      2  N   LEU E   3       8.292  -2.834 -13.171  1.00 30.36 LIG-0.35  N 
ATOM      3  C   ASP E   2       9.404  -3.035 -13.884  1.00 32.94 LIG 0.26  C 
ATOM      4 O    ASP E   2      10.151  -4.007 -13.711  1.00 32.35 LIG-0.27  OA
ATOM      5 H    LEU E   3       7.781  -2.149 -13.272  1.00 30.36 LIG 0.16  HD
BRANCH 3 6
ATOM      6  CA  ASP E   2       9.737  -1.986 -14.950  1.00 34.24 LIG 0.41  C 
ATOM      7  N   ASP E   2      10.857  -2.499 -15.788  1.00 34.31 LIG 0.61  N 
BRANCH 6 8
ATOM      8  CB  ASP E   2       8.512  -1.704 -15.828  1.00 36.18 LIG 0.16  C 
BRANCH 8 9
ATOM      9  CG  ASP E   2       7.722  -0.471 -15.374  1.00 38.13 LIG 0.17  C 
ATOM     10 OD1  ASP E   2       7.587   0.488 -16.169  1.00 37.90 LIG-0.65  OA
ATOM     11 OD2  ASP E   2       7.211  -0.471 -14.230  1.00 38.42 LIG-0.65  OA
ENDBRANCH 8 9
ENDBRANCH 6 8
ENDBRANCH 3 6
ENDBRANCH 1 2
BRANCH 1 12
ATOM     12  C   LEU E   3       7.186  -5.028 -12.731  1.00 28.32 LIG 0.24  C 
ATOM     13  N   PHE E   4       7.009  -6.047 -11.891  1.00 27.78 LIG-0.34  N 
ATOM     14 H    PHE E   4       7.183  -5.999 -11.051  1.00 27.78 LIG 0.16  HD
ATOM     15 O    LEU E   3       6.865  -5.064 -13.920  1.00 27.38 LIG-0.27  OA
BRANCH 13 16
ATOM     16  CA  PHE E   4       6.503  -7.354 -12.313  1.00 27.92 LIG 0.19  C 
BRANCH 16 17
ATOM     17  C   PHE E   4       7.620  -8.164 -12.969  1.00 28.33 LIG 0.20  C 
ATOM     18 OXT  PHE E   4       7.879  -9.307 -12.597  1.00 30.35 LIG-0.65  OA
ATOM     19 O    PHE E   4       8.278  -7.707 -13.903  1.00 28.81 LIG-0.65  OA
ENDBRANCH 16 17
BRANCH 16 20
ATOM     20  CB  PHE E   4       5.328  -7.197 -13.295  1.00 27.18 LIG 0.07  C 
BRANCH 20 21
ATOM     21  CG  PHE E   4       4.025  -6.834 -12.632  1.00 26.64 LIG-0.06  A 
ATOM     22  CD1 PHE E   4       2.828  -6.844 -13.352  1.00 26.73 LIG 0.01  A 
ATOM     23  CE1 PHE E   4       1.629  -6.503 -12.741  1.00 26.26 LIG 0.00  A 
ATOM     24  CZ  PHE E   4       1.619  -6.148 -11.399  1.00 25.93 LIG 0.00  A 
ATOM     25  CE2 PHE E   4       2.804  -6.128 -10.675  1.00 25.36 LIG 0.00  A 
ATOM     26  CD2 PHE E   4       3.996  -6.472 -11.289  1.00 26.03 LIG 0.01  A 
ENDBRANCH 20 21
ENDBRANCH 16 20
ENDBRANCH 13 16
ENDBRANCH 1 12
BRANCH 1 27
ATOM     27  CB  LEU E   3       6.837  -3.096 -11.181  1.00 28.15 LIG 0.04  C 
BRANCH 27 28
ATOM     28  CG  LEU E   3       7.193  -1.757 -10.530  1.00 27.57 LIG-0.02  C 
ATOM     29  CD2 LEU E   3       7.855  -1.957  -9.174  1.00 27.08 LIG 0.01  C 
ATOM     30  CD1 LEU E   3       5.952  -0.889 -10.381  1.00 27.26 LIG 0.01  C 
ENDBRANCH 27 28
ENDBRANCH 1 27
TORSDOF 11
ENDMDL
MODEL 46
USER: ADFR SOLUTION from run 156
USER: SCORE 10.208172 LL:  -2.661 LR:  -7.553 RR:   0.000 FEB:  -4.272
USER: RMSD 5.687020
USER: SEED 155
USER: STATUS no improvement in best in 21 clusters for 5 generations
USER: GENES 13
USER: genes 0 Translation |==|  0.61227 0.59055 0.48703
USER: genes 1 Rotation |==|  0.71063 0.07334 0.44558 0.64365
USER: genes 2 Torsion [C]-CA--N-[C] |==|  0.82815
USER: genes 3 Torsion [N]-C--CA-[N] |==|  0.21017
USER: genes 4 Torsion [C]-CA--CB-[CG] |==|  0.68938
USER: genes 5 Torsion [CA]-CB--CG-[OD1] |==|  0.30983
USER: genes 6 Torsion [N]-CA--C-[N] |==|  0.92657
USER: genes 7 Torsion [C]-N--CA-[C] |==|  0.21969
USER: genes 8 Torsion [N]-CA--C-[OXT] |==|  0.58088
USER: genes 9 Torsion [N]-CA--CB-[CG] |==|  0.77592
USER: genes 10 Torsion [CA]-CB--CG-[CD1] |==|  0.05813
USER: genes 11 Torsion [N]-CA--CB-[CG] |==|  0.54428
USER: genes 12 Torsion [CA]-CB--CG-[CD2] |==|  0.40077
ROOT
ATOM      1  CA  LEU E   3      10.104  -3.852 -11.235  1.00 28.46 LIG 0.18  C 
ENDROOT
BRANCH 1 2
ATOM      2  N   LEU E   3      10.916  -4.009 -12.455  1.00 30.36 LIG-0.35  N 
ATOM      3  C   ASP E   2      12.225  -4.275 -12.418  1.00 32.94 LIG 0.26  C 
ATOM      4 O    ASP E   2      12.864  -4.379 -11.363  1.00 32.35 LIG-0.27  OA
ATOM      5 H    LEU E   3      10.471  -3.914 -13.185  1.00 30.36 LIG 0.16  HD
BRANCH 3 6
ATOM      6  CA  ASP E   2      12.930  -4.443 -13.767  1.00 34.24 LIG 0.41  C 
ATOM      7  N   ASP E   2      13.120  -3.098 -14.376  1.00 34.31 LIG 0.61  N 
BRANCH 6 8
ATOM      8  CB  ASP E   2      14.288  -5.131 -13.581  1.00 36.18 LIG 0.16  C 
BRANCH 8 9
ATOM      9  CG  ASP E   2      15.473  -4.203 -13.874  1.00 38.13 LIG 0.17  C 
ATOM     10 OD1  ASP E   2      16.210  -3.846 -12.925  1.00 37.90 LIG-0.65  OA
ATOM     11 OD2  ASP E   2      15.686  -3.853 -15.057  1.00 38.42 LIG-0.65  OA
ENDBRANCH 8 9
ENDBRANCH 6 8
ENDBRANCH 3 6
ENDBRANCH 1 2
BRANCH 1 12
ATOM     12  C   LEU E   3      10.077  -5.125 -10.386  1.00 28.32 LIG 0.24  C 
ATOM     13  N   PHE E   4      10.266  -6.268 -11.045  1.00 27.78 LIG-0.34  N 
ATOM     14 H    PHE E   4      10.457  -6.301 -11.883  1.00 27.78 LIG 0.16  HD
ATOM     15 O    LEU E   3       9.881  -5.067  -9.171  1.00 27.38 LIG-0.27  OA
BRANCH 13 16
ATOM     16  CA  PHE E   4      10.168  -7.584 -10.412  1.00 27.92 LIG 0.19  C 
BRANCH 16 17
ATOM     17  C   PHE E   4       8.701  -7.985 -10.258  1.00 28.33 LIG 0.20  C 
ATOM     18 OXT  PHE E   4       8.336  -8.721  -9.344  1.00 30.35 LIG-0.65  OA
ATOM     19 O    PHE E   4       7.839  -7.566 -11.030  1.00 28.81 LIG-0.65  OA
ENDBRANCH 16 17
BRANCH 16 20
ATOM     20  CB  PHE E   4      10.854  -7.583  -9.034  1.00 27.18 LIG 0.07  C 
BRANCH 20 21
ATOM     21  CG  PHE E   4      12.351  -7.736  -9.100  1.00 26.64 LIG-0.06  A 
ATOM     22  CD1 PHE E   4      13.051  -7.433 -10.270  1.00 26.73 LIG 0.01  A 
ATOM     23  CE1 PHE E   4      14.430  -7.581 -10.332  1.00 26.26 LIG 0.00  A 
ATOM     24  CZ  PHE E   4      15.121  -8.035  -9.218  1.00 25.93 LIG 0.00  A 
ATOM     25  CE2 PHE E   4      14.436  -8.346  -8.051  1.00 25.36 LIG 0.00  A 
ATOM     26  CD2 PHE E   4      13.061  -8.194  -7.995  1.00 26.03 LIG 0.01  A 
ENDBRANCH 20 21
ENDBRANCH 16 20
ENDBRANCH 13 16
ENDBRANCH 1 12
BRANCH 1 27
ATOM     27  CB  LEU E   3       8.663  -3.446 -11.585  1.00 28.15 LIG 0.04  C 
BRANCH 27 28
ATOM     28  CG  LEU E   3       7.744  -2.876 -10.501  1.00 27.57 LIG-0.02  C 
ATOM     29  CD2 LEU E   3       6.824  -1.802 -11.063  1.00 27.08 LIG 0.01  C 
ATOM     30  CD1 LEU E   3       8.564  -2.310  -9.351  1.00 27.26 LIG 0.01  C 
ENDBRANCH 27 28
ENDBRANCH 1 27
TORSDOF 11
ENDMDL
MODEL 47
USER: ADFR SOLUTION from run 192
USER: SCORE 9.787917 LL:  -2.354 LR:  -7.539 RR:   0.000 FEB:  -4.258
USER: RMSD 5.148105
USER: SEED 191
USER: STATUS no improvement in best in 13 clusters for 5 generations
USER: GENES 13
USER: genes 0 Translation |==|  0.46402 0.60189 0.47384
USER: genes 1 Rotation |==|  0.32228 0.65537 0.82614 0.79650
USER: genes 2 Torsion [C]-CA--N-[C] |==|  0.77848
USER: genes 3 Torsion [N]-C--CA-[N] |==|  0.99232
USER: genes 4 Torsion [C]-CA--CB-[CG] |==|  0.20874
USER: genes 5 Torsion [CA]-CB--CG-[OD1] |==|  0.62601
USER: genes 6 Torsion [N]-CA--C-[N] |==|  0.89527
USER: genes 7 Torsion [C]-N--CA-[C] |==|  0.16059
USER: genes 8 Torsion [N]-CA--C-[OXT] |==|  0.68431
USER: genes 9 Torsion [N]-CA--CB-[CG] |==|  0.83877
USER: genes 10 Torsion [CA]-CB--CG-[CD1] |==|  0.22021
USER: genes 11 Torsion [N]-CA--CB-[CG] |==|  0.16527
USER: genes 12 Torsion [CA]-CB--CG-[CD2] |==|  0.74063
ROOT
ATOM      1  CA  LEU E   3       7.769  -3.665 -11.423  1.00 28.46 LIG 0.18  C 
ENDROOT
BRANCH 1 2
ATOM      2  N   LEU E   3       8.898  -3.527 -10.486  1.00 30.36 LIG-0.35  N 
ATOM      3  C   ASP E   2       9.820  -4.480 -10.325  1.00 32.94 LIG 0.26  C 
ATOM      4 O    ASP E   2       9.783  -5.563 -10.924  1.00 32.35 LIG-0.27  OA
ATOM      5 H    LEU E   3       8.906  -2.781 -10.056  1.00 30.36 LIG 0.16  HD
BRANCH 3 6
ATOM      6  CA  ASP E   2      10.954  -4.182  -9.340  1.00 34.24 LIG 0.41  C 
ATOM      7  N   ASP E   2      10.779  -2.798  -8.818  1.00 34.31 LIG 0.61  N 
BRANCH 6 8
ATOM      8  CB  ASP E   2      10.937  -5.186  -8.181  1.00 36.18 LIG 0.16  C 
BRANCH 8 9
ATOM      9  CG  ASP E   2      11.471  -6.567  -8.578  1.00 38.13 LIG 0.17  C 
ATOM     10 OD1  ASP E   2      10.837  -7.587  -8.219  1.00 37.90 LIG-0.65  OA
ATOM     11 OD2  ASP E   2      12.511  -6.634  -9.273  1.00 38.42 LIG-0.65  OA
ENDBRANCH 8 9
ENDBRANCH 6 8
ENDBRANCH 3 6
ENDBRANCH 1 2
BRANCH 1 12
ATOM     12  C   LEU E   3       8.175  -3.375 -12.870  1.00 28.32 LIG 0.24  C 
ATOM     13  N   PHE E   4       9.053  -2.387 -13.041  1.00 27.78 LIG-0.34  N 
ATOM     14 H    PHE E   4       9.426  -1.971 -12.388  1.00 27.78 LIG 0.16  HD
ATOM     15 O    LEU E   3       7.697  -4.027 -13.800  1.00 27.38 LIG-0.27  OA
BRANCH 13 16
ATOM     16  CA  PHE E   4       9.471  -1.906 -14.359  1.00 27.92 LIG 0.19  C 
BRANCH 16 17
ATOM     17  C   PHE E   4       8.254  -1.440 -15.159  1.00 28.33 LIG 0.20  C 
ATOM     18 OXT  PHE E   4       7.895  -2.034 -16.172  1.00 30.35 LIG-0.65  OA
ATOM     19 O    PHE E   4       7.586  -0.471 -14.800  1.00 28.81 LIG-0.65  OA
ENDBRANCH 16 17
BRANCH 16 20
ATOM     20  CB  PHE E   4      10.213  -3.008 -15.136  1.00 27.18 LIG 0.07  C 
BRANCH 20 21
ATOM     21  CG  PHE E   4      11.432  -3.537 -14.426  1.00 26.64 LIG-0.06  A 
ATOM     22  CD1 PHE E   4      11.311  -4.467 -13.391  1.00 26.73 LIG 0.01  A 
ATOM     23  CE1 PHE E   4      12.434  -4.948 -12.733  1.00 26.26 LIG 0.00  A 
ATOM     24  CZ  PHE E   4      13.693  -4.499 -13.108  1.00 25.93 LIG 0.00  A 
ATOM     25  CE2 PHE E   4      13.826  -3.570 -14.131  1.00 25.36 LIG 0.00  A 
ATOM     26  CD2 PHE E   4      12.701  -3.096 -14.785  1.00 26.03 LIG 0.01  A 
ENDBRANCH 20 21
ENDBRANCH 16 20
ENDBRANCH 13 16
ENDBRANCH 1 12
BRANCH 1 27
ATOM     27  CB  LEU E   3       6.612  -2.734 -11.026  1.00 28.15 LIG 0.04  C 
BRANCH 27 28
ATOM     28  CG  LEU E   3       6.836  -1.221 -10.957  1.00 27.57 LIG-0.02  C 
ATOM     29  CD2 LEU E   3       7.211  -0.778  -9.551  1.00 27.08 LIG 0.01  C 
ATOM     30  CD1 LEU E   3       5.594  -0.476 -11.425  1.00 27.26 LIG 0.01  C 
ENDBRANCH 27 28
ENDBRANCH 1 27
TORSDOF 11
ENDMDL
MODEL 48
USER: ADFR SOLUTION from run 91
USER: SCORE 9.434455 LL:  -2.383 LR:  -7.517 RR:   0.000 FEB:  -4.235
USER: RMSD 4.410233
USER: SEED 90
USER: STATUS no improvement in best in 15 clusters for 5 generations
USER: GENES 13
USER: genes 0 Translation |==|  0.51624 0.65367 0.50702
USER: genes 1 Rotation |==|  0.75982 0.14234 0.41840 0.71889
USER: genes 2 Torsion [C]-CA--N-[C] |==|  0.21297
USER: genes 3 Torsion [N]-C--CA-[N] |==|  0.91869
USER: genes 4 Torsion [C]-CA--CB-[CG] |==|  0.79985
USER: genes 5 Torsion [CA]-CB--CG-[OD1] |==|  0.81842
USER: genes 6 Torsion [N]-CA--C-[N] |==|  0.98889
USER: genes 7 Torsion [C]-N--CA-[C] |==|  0.21591
USER: genes 8 Torsion [N]-CA--C-[OXT] |==|  0.11908
USER: genes 9 Torsion [N]-CA--CB-[CG] |==|  0.58158
USER: genes 10 Torsion [CA]-CB--CG-[CD1] |==|  0.62255
USER: genes 11 Torsion [N]-CA--CB-[CG] |==|  0.71647
USER: genes 12 Torsion [CA]-CB--CG-[CD2] |==|  0.27229
ROOT
ATOM      1  CA  LEU E   3       8.592  -2.810 -10.950  1.00 28.46 LIG 0.18  C 
ENDROOT
BRANCH 1 2
ATOM      2  N   LEU E   3       8.923  -2.728 -12.383  1.00 30.36 LIG-0.35  N 
ATOM      3  C   ASP E   2       8.327  -3.491 -13.304  1.00 32.94 LIG 0.26  C 
ATOM      4 O    ASP E   2       7.476  -4.347 -13.025  1.00 32.35 LIG-0.27  OA
ATOM      5 H    LEU E   3       9.530  -2.148 -12.569  1.00 30.36 LIG 0.16  HD
BRANCH 3 6
ATOM      6  CA  ASP E   2       8.751  -3.271 -14.759  1.00 34.24 LIG 0.41  C 
ATOM      7  N   ASP E   2       9.172  -1.853 -14.923  1.00 34.31 LIG 0.61  N 
BRANCH 6 8
ATOM      8  CB  ASP E   2       9.907  -4.208 -15.130  1.00 36.18 LIG 0.16  C 
BRANCH 8 9
ATOM      9  CG  ASP E   2      11.234  -3.809 -14.476  1.00 38.13 LIG 0.17  C 
ATOM     10 OD1  ASP E   2      11.766  -2.721 -14.800  1.00 37.90 LIG-0.65  OA
ATOM     11 OD2  ASP E   2      11.734  -4.569 -13.615  1.00 38.42 LIG-0.65  OA
ENDBRANCH 8 9
ENDBRANCH 6 8
ENDBRANCH 3 6
ENDBRANCH 1 2
BRANCH 1 12
ATOM     12  C   LEU E   3       9.213  -4.038 -10.278  1.00 28.32 LIG 0.24  C 
ATOM     13  N   PHE E   4       9.871  -4.871 -11.084  1.00 27.78 LIG-0.34  N 
ATOM     14 H    PHE E   4      10.003  -4.712 -11.919  1.00 27.78 LIG 0.16  HD
ATOM     15 O    LEU E   3       9.089  -4.222  -9.066  1.00 27.38 LIG-0.27  OA
BRANCH 13 16
ATOM     16  CA  PHE E   4      10.436  -6.143 -10.632  1.00 27.92 LIG 0.19  C 
BRANCH 16 17
ATOM     17  C   PHE E   4       9.332  -7.192 -10.502  1.00 28.33 LIG 0.20  C 
ATOM     18 OXT  PHE E   4       8.458  -7.304 -11.358  1.00 30.35 LIG-0.65  OA
ATOM     19 O    PHE E   4       9.299  -7.971  -9.550  1.00 28.81 LIG-0.65  OA
ENDBRANCH 16 17
BRANCH 16 20
ATOM     20  CB  PHE E   4      11.157  -5.976  -9.282  1.00 27.18 LIG 0.07  C 
BRANCH 20 21
ATOM     21  CG  PHE E   4      12.299  -6.937  -9.080  1.00 26.64 LIG-0.06  A 
ATOM     22  CD1 PHE E   4      12.470  -7.599  -7.862  1.00 26.73 LIG 0.01  A 
ATOM     23  CE1 PHE E   4      13.527  -8.479  -7.674  1.00 26.26 LIG 0.00  A 
ATOM     24  CZ  PHE E   4      14.424  -8.704  -8.709  1.00 25.93 LIG 0.00  A 
ATOM     25  CE2 PHE E   4      14.268  -8.046  -9.923  1.00 25.36 LIG 0.00  A 
ATOM     26  CD2 PHE E   4      13.210  -7.172 -10.104  1.00 26.03 LIG 0.01  A 
ENDBRANCH 20 21
ENDBRANCH 16 20
ENDBRANCH 13 16
ENDBRANCH 1 12
BRANCH 1 27
ATOM     27  CB  LEU E   3       7.069  -2.836 -10.741  1.00 28.15 LIG 0.04  C 
BRANCH 27 28
ATOM     28  CG  LEU E   3       6.337  -1.569 -10.291  1.00 27.57 LIG-0.02  C 
ATOM     29  CD2 LEU E   3       5.710  -0.841 -11.471  1.00 27.08 LIG 0.01  C 
ATOM     30  CD1 LEU E   3       7.287  -0.639  -9.551  1.00 27.26 LIG 0.01  C 
ENDBRANCH 27 28
ENDBRANCH 1 27
TORSDOF 11
ENDMDL
MODEL 49
USER: ADFR SOLUTION from run 64
USER: SCORE 9.675456 LL:  -2.178 LR:  -7.514 RR:   0.000 FEB:  -4.232
USER: RMSD 3.709207
USER: SEED 63
USER: STATUS no improvement in best in 19 clusters for 5 generations
USER: GENES 13
USER: genes 0 Translation |==|  0.44654 0.61916 0.48845
USER: genes 1 Rotation |==|  0.58066 0.25567 0.52385 0.92805
USER: genes 2 Torsion [C]-CA--N-[C] |==|  0.76917
USER: genes 3 Torsion [N]-C--CA-[N] |==|  0.13678
USER: genes 4 Torsion [C]-CA--CB-[CG] |==|  0.69116
USER: genes 5 Torsion [CA]-CB--CG-[OD1] |==|  0.81597
USER: genes 6 Torsion [N]-CA--C-[N] |==|  0.96944
USER: genes 7 Torsion [C]-N--CA-[C] |==|  0.85370
USER: genes 8 Torsion [N]-CA--C-[OXT] |==|  0.81624
USER: genes 9 Torsion [N]-CA--CB-[CG] |==|  0.43763
USER: genes 10 Torsion [CA]-CB--CG-[CD1] |==|  0.71016
USER: genes 11 Torsion [N]-CA--CB-[CG] |==|  0.64342
USER: genes 12 Torsion [CA]-CB--CG-[CD2] |==|  0.12449
ROOT
ATOM      1  CA  LEU E   3       7.494  -3.380 -11.215  1.00 28.46 LIG 0.18  C 
ENDROOT
BRANCH 1 2
ATOM      2  N   LEU E   3       6.948  -4.579 -11.873  1.00 30.36 LIG-0.35  N 
ATOM      3  C   ASP E   2       7.383  -5.009 -13.061  1.00 32.94 LIG 0.26  C 
ATOM      4 O    ASP E   2       8.255  -4.419 -13.715  1.00 32.35 LIG-0.27  OA
ATOM      5 H    LEU E   3       6.328  -4.972 -11.425  1.00 30.36 LIG 0.16  HD
BRANCH 3 6
ATOM      6  CA  ASP E   2       6.744  -6.289 -13.607  1.00 34.24 LIG 0.41  C 
ATOM      7  N   ASP E   2       5.264  -6.160 -13.511  1.00 34.31 LIG 0.61  N 
BRANCH 6 8
ATOM      8  CB  ASP E   2       7.157  -6.517 -15.066  1.00 36.18 LIG 0.16  C 
BRANCH 8 9
ATOM      9  CG  ASP E   2       5.997  -6.340 -16.051  1.00 38.13 LIG 0.17  C 
ATOM     10 OD1  ASP E   2       5.043  -7.152 -16.015  1.00 37.90 LIG-0.65  OA
ATOM     11 OD2  ASP E   2       6.024  -5.371 -16.846  1.00 38.42 LIG-0.65  OA
ENDBRANCH 8 9
ENDBRANCH 6 8
ENDBRANCH 3 6
ENDBRANCH 1 2
BRANCH 1 12
ATOM     12  C   LEU E   3       8.783  -3.675 -10.444  1.00 28.32 LIG 0.24  C 
ATOM     13  N   PHE E   4       9.086  -4.964 -10.289  1.00 27.78 LIG-0.34  N 
ATOM     14 H    PHE E   4       8.632  -5.599 -10.648  1.00 27.78 LIG 0.16  HD
ATOM     15 O    LEU E   3       9.474  -2.757  -9.999  1.00 27.38 LIG-0.27  OA
BRANCH 13 16
ATOM     16  CA  PHE E   4      10.222  -5.429  -9.492  1.00 27.92 LIG 0.19  C 
BRANCH 16 17
ATOM     17  C   PHE E   4      11.503  -4.726  -9.942  1.00 28.33 LIG 0.20  C 
ATOM     18 OXT  PHE E   4      11.975  -4.919 -11.059  1.00 30.35 LIG-0.65  OA
ATOM     19 O    PHE E   4      12.086  -3.929  -9.208  1.00 28.81 LIG-0.65  OA
ENDBRANCH 16 17
BRANCH 16 20
ATOM     20  CB  PHE E   4      10.394  -6.954  -9.618  1.00 27.18 LIG 0.07  C 
BRANCH 20 21
ATOM     21  CG  PHE E   4      11.785  -7.437  -9.298  1.00 26.64 LIG-0.06  A 
ATOM     22  CD1 PHE E   4      12.661  -7.820 -10.316  1.00 26.73 LIG 0.01  A 
ATOM     23  CE1 PHE E   4      13.940  -8.271 -10.020  1.00 26.26 LIG 0.00  A 
ATOM     24  CZ  PHE E   4      14.352  -8.343  -8.696  1.00 25.93 LIG 0.00  A 
ATOM     25  CE2 PHE E   4      13.487  -7.971  -7.675  1.00 25.36 LIG 0.00  A 
ATOM     26  CD2 PHE E   4      12.214  -7.519  -7.978  1.00 26.03 LIG 0.01  A 
ENDBRANCH 20 21
ENDBRANCH 16 20
ENDBRANCH 13 16
ENDBRANCH 1 12
BRANCH 1 27
ATOM     27  CB  LEU E   3       6.461  -2.764 -10.256  1.00 28.15 LIG 0.04  C 
BRANCH 27 28
ATOM     28  CG  LEU E   3       6.119  -1.275 -10.354  1.00 27.57 LIG-0.02  C 
ATOM     29  CD2 LEU E   3       5.916  -0.846 -11.800  1.00 27.08 LIG 0.01  C 
ATOM     30  CD1 LEU E   3       7.211  -0.434  -9.710  1.00 27.26 LIG 0.01  C 
ENDBRANCH 27 28
ENDBRANCH 1 27
TORSDOF 11
ENDMDL
MODEL 50
USER: ADFR SOLUTION from run 190
USER: SCORE 9.859959 LL:  -2.384 LR:  -7.499 RR:   0.000 FEB:  -4.218
USER: RMSD 3.637034
USER: SEED 189
USER: STATUS no improvement in best in 22 clusters for 5 generations
USER: GENES 13
USER: genes 0 Translation |==|  0.44168 0.59066 0.43126
USER: genes 1 Rotation |==|  0.57189 0.56957 0.63910 0.96973
USER: genes 2 Torsion [C]-CA--N-[C] |==|  0.78601
USER: genes 3 Torsion [N]-C--CA-[N] |==|  0.79806
USER: genes 4 Torsion [C]-CA--CB-[CG] |==|  0.63873
USER: genes 5 Torsion [CA]-CB--CG-[OD1] |==|  0.15714
USER: genes 6 Torsion [N]-CA--C-[N] |==|  0.97738
USER: genes 7 Torsion [C]-N--CA-[C] |==|  0.80724
USER: genes 8 Torsion [N]-CA--C-[OXT] |==|  0.92843
USER: genes 9 Torsion [N]-CA--CB-[CG] |==|  0.63169
USER: genes 10 Torsion [CA]-CB--CG-[CD1] |==|  0.69243
USER: genes 11 Torsion [N]-CA--CB-[CG] |==|  0.61121
USER: genes 12 Torsion [CA]-CB--CG-[CD2] |==|  0.92820
ROOT
ATOM      1  CA  LEU E   3       7.417  -3.850 -12.029  1.00 28.46 LIG 0.18  C 
ENDROOT
BRANCH 1 2
ATOM      2  N   LEU E   3       7.546  -5.301 -11.809  1.00 30.36 LIG-0.35  N 
ATOM      3  C   ASP E   2       7.156  -6.203 -12.714  1.00 32.94 LIG 0.26  C 
ATOM      4 O    ASP E   2       6.629  -5.895 -13.792  1.00 32.35 LIG-0.27  OA
ATOM      5 H    LEU E   3       7.892  -5.510 -11.050  1.00 30.36 LIG 0.16  HD
BRANCH 3 6
ATOM      6  CA  ASP E   2       7.382  -7.676 -12.360  1.00 34.24 LIG 0.41  C 
ATOM      7  N   ASP E   2       8.838  -7.970 -12.457  1.00 34.31 LIG 0.61  N 
BRANCH 6 8
ATOM      8  CB  ASP E   2       6.880  -7.971 -10.942  1.00 36.18 LIG 0.16  C 
BRANCH 8 9
ATOM      9  CG  ASP E   2       7.913  -8.709 -10.082  1.00 38.13 LIG 0.17  C 
ATOM     10 OD1  ASP E   2       9.044  -8.194  -9.922  1.00 37.90 LIG-0.65  OA
ATOM     11 OD2  ASP E   2       7.586  -9.792  -9.544  1.00 38.42 LIG-0.65  OA
ENDBRANCH 8 9
ENDBRANCH 6 8
ENDBRANCH 3 6
ENDBRANCH 1 2
BRANCH 1 12
ATOM     12  C   LEU E   3       8.496  -3.306 -12.969  1.00 28.32 LIG 0.24  C 
ATOM     13  N   PHE E   4       9.464  -4.161 -13.301  1.00 27.78 LIG-0.34  N 
ATOM     14 H    PHE E   4       9.462  -4.987 -13.063  1.00 27.78 LIG 0.16  HD
ATOM     15 O    LEU E   3       8.451  -2.142 -13.371  1.00 27.38 LIG-0.27  OA
BRANCH 13 16
ATOM     16  CA  PHE E   4      10.627  -3.781 -14.103  1.00 27.92 LIG 0.19  C 
BRANCH 16 17
ATOM     17  C   PHE E   4      10.202  -3.493 -15.543  1.00 28.33 LIG 0.20  C 
ATOM     18 OXT  PHE E   4       9.195  -4.008 -16.023  1.00 30.35 LIG-0.65  OA
ATOM     19 O    PHE E   4      10.840  -2.720 -16.256  1.00 28.81 LIG-0.65  OA
ENDBRANCH 16 17
BRANCH 16 20
ATOM     20  CB  PHE E   4      11.692  -4.893 -14.088  1.00 27.18 LIG 0.07  C 
BRANCH 20 21
ATOM     21  CG  PHE E   4      13.087  -4.395 -13.814  1.00 26.64 LIG-0.06  A 
ATOM     22  CD1 PHE E   4      14.062  -4.412 -14.814  1.00 26.73 LIG 0.01  A 
ATOM     23  CE1 PHE E   4      15.349  -3.959 -14.559  1.00 26.26 LIG 0.00  A 
ATOM     24  CZ  PHE E   4      15.671  -3.484 -13.295  1.00 25.93 LIG 0.00  A 
ATOM     25  CE2 PHE E   4      14.711  -3.468 -12.290  1.00 25.36 LIG 0.00  A 
ATOM     26  CD2 PHE E   4      13.429  -3.919 -12.553  1.00 26.03 LIG 0.01  A 
ENDBRANCH 20 21
ENDBRANCH 16 20
ENDBRANCH 13 16
ENDBRANCH 1 12
BRANCH 1 27
ATOM     27  CB  LEU E   3       7.477  -3.087 -10.696  1.00 28.15 LIG 0.04  C 
BRANCH 27 28
ATOM     28  CG  LEU E   3       6.549  -1.893 -10.456  1.00 27.57 LIG-0.02  C 
ATOM     29  CD2 LEU E   3       6.137  -1.238 -11.766  1.00 27.08 LIG 0.01  C 
ATOM     30  CD1 LEU E   3       7.220  -0.871  -9.550  1.00 27.26 LIG 0.01  C 
ENDBRANCH 27 28
ENDBRANCH 1 27
TORSDOF 11
ENDMDL
MODEL 51
USER: ADFR SOLUTION from run 158
USER: SCORE 9.714474 LL:  -2.336 LR:  -7.502 RR:   0.000 FEB:  -4.221
USER: RMSD 5.691607
USER: SEED 157
USER: STATUS no improvement in best in 18 clusters for 5 generations
USER: GENES 13
USER: genes 0 Translation |==|  0.60592 0.36276 0.57543
USER: genes 1 Rotation |==|  0.85379 0.76198 0.52524 0.73572
USER: genes 2 Torsion [C]-CA--N-[C] |==|  0.68891
USER: genes 3 Torsion [N]-C--CA-[N] |==|  0.94379
USER: genes 4 Torsion [C]-CA--CB-[CG] |==|  0.86028
USER: genes 5 Torsion [CA]-CB--CG-[OD1] |==|  0.87582
USER: genes 6 Torsion [N]-CA--C-[N] |==|  0.42541
USER: genes 7 Torsion [C]-N--CA-[C] |==|  0.65201
USER: genes 8 Torsion [N]-CA--C-[OXT] |==|  0.70167
USER: genes 9 Torsion [N]-CA--CB-[CG] |==|  0.65248
USER: genes 10 Torsion [CA]-CB--CG-[CD1] |==|  0.54171
USER: genes 11 Torsion [N]-CA--CB-[CG] |==|  0.53929
USER: genes 12 Torsion [CA]-CB--CG-[CD2] |==|  0.41656
ROOT
ATOM      1  CA  LEU E   3      10.004  -7.610  -9.975  1.00 28.46 LIG 0.18  C 
ENDROOT
BRANCH 1 2
ATOM      2  N   LEU E   3       9.167  -8.520 -10.776  1.00 30.36 LIG-0.35  N 
ATOM      3  C   ASP E   2       8.045  -9.070 -10.301  1.00 32.94 LIG 0.26  C 
ATOM      4 O    ASP E   2       7.639  -8.886  -9.146  1.00 32.35 LIG-0.27  OA
ATOM      5 H    LEU E   3       9.466  -8.662 -11.570  1.00 30.36 LIG 0.16  HD
BRANCH 3 6
ATOM      6  CA  ASP E   2       7.261  -9.970 -11.261  1.00 34.24 LIG 0.41  C 
ATOM      7  N   ASP E   2       7.665  -9.644 -12.656  1.00 34.31 LIG 0.61  N 
BRANCH 6 8
ATOM      8  CB  ASP E   2       7.543 -11.448 -10.964  1.00 36.18 LIG 0.16  C 
BRANCH 8 9
ATOM      9  CG  ASP E   2       9.041 -11.765 -10.878  1.00 38.13 LIG 0.17  C 
ATOM     10 OD1  ASP E   2       9.810 -11.292 -11.747  1.00 37.90 LIG-0.65  OA
ATOM     11 OD2  ASP E   2       9.455 -12.466  -9.926  1.00 38.42 LIG-0.65  OA
ENDBRANCH 8 9
ENDBRANCH 6 8
ENDBRANCH 3 6
ENDBRANCH 1 2
BRANCH 1 12
ATOM     12  C   LEU E   3       9.980  -6.176 -10.509  1.00 28.32 LIG 0.24  C 
ATOM     13  N   PHE E   4      10.212  -5.218  -9.612  1.00 27.78 LIG-0.34  N 
ATOM     14 H    PHE E   4      10.426  -5.380  -8.795  1.00 27.78 LIG 0.16  HD
ATOM     15 O    LEU E   3       9.751  -5.951 -11.698  1.00 27.38 LIG-0.27  OA
BRANCH 13 16
ATOM     16  CA  PHE E   4      10.124  -3.791  -9.924  1.00 27.92 LIG 0.19  C 
BRANCH 16 17
ATOM     17  C   PHE E   4      11.431  -3.090  -9.550  1.00 28.33 LIG 0.20  C 
ATOM     18 OXT  PHE E   4      11.496  -2.346  -8.574  1.00 30.35 LIG-0.65  OA
ATOM     19 O    PHE E   4      12.460  -3.268 -10.200  1.00 28.81 LIG-0.65  OA
ENDBRANCH 16 17
BRANCH 16 20
ATOM     20  CB  PHE E   4       8.950  -3.135  -9.175  1.00 27.18 LIG 0.07  C 
BRANCH 20 21
ATOM     21  CG  PHE E   4       7.985  -2.409 -10.075  1.00 26.64 LIG-0.06  A 
ATOM     22  CD1 PHE E   4       7.054  -1.510  -9.550  1.00 26.73 LIG 0.01  A 
ATOM     23  CE1 PHE E   4       6.161  -0.846 -10.380  1.00 26.26 LIG 0.00  A 
ATOM     24  CZ  PHE E   4       6.193  -1.080 -11.748  1.00 25.93 LIG 0.00  A 
ATOM     25  CE2 PHE E   4       7.109  -1.976 -12.281  1.00 25.36 LIG 0.00  A 
ATOM     26  CD2 PHE E   4       7.999  -2.632 -11.448  1.00 26.03 LIG 0.01  A 
ENDBRANCH 20 21
ENDBRANCH 16 20
ENDBRANCH 13 16
ENDBRANCH 1 12
BRANCH 1 27
ATOM     27  CB  LEU E   3      11.458  -8.107  -9.925  1.00 28.15 LIG 0.04  C 
BRANCH 27 28
ATOM     28  CG  LEU E   3      12.433  -7.518  -8.902  1.00 27.57 LIG-0.02  C 
ATOM     29  CD2 LEU E   3      13.488  -8.535  -8.492  1.00 27.08 LIG 0.01  C 
ATOM     30  CD1 LEU E   3      11.683  -7.022  -7.675  1.00 27.26 LIG 0.01  C 
ENDBRANCH 27 28
ENDBRANCH 1 27
TORSDOF 11
ENDMDL
MODEL 52
USER: ADFR SOLUTION from run 47
USER: SCORE 9.749652 LL:  -2.325 LR:  -7.479 RR:   0.000 FEB:  -4.198
USER: RMSD 5.488098
USER: SEED 46
USER: STATUS no improvement in best in 13 clusters for 5 generations
USER: GENES 13
USER: genes 0 Translation |==|  0.50217 0.68052 0.38306
USER: genes 1 Rotation |==|  0.74034 0.22485 0.23215 0.71163
USER: genes 2 Torsion [C]-CA--N-[C] |==|  0.83333
USER: genes 3 Torsion [N]-C--CA-[N] |==|  0.47664
USER: genes 4 Torsion [C]-CA--CB-[CG] |==|  0.40278
USER: genes 5 Torsion [CA]-CB--CG-[OD1] |==|  0.10785
USER: genes 6 Torsion [N]-CA--C-[N] |==|  0.42019
USER: genes 7 Torsion [C]-N--CA-[C] |==|  0.75684
USER: genes 8 Torsion [N]-CA--C-[OXT] |==|  0.46875
USER: genes 9 Torsion [N]-CA--CB-[CG] |==|  0.18543
USER: genes 10 Torsion [CA]-CB--CG-[CD1] |==|  0.82227
USER: genes 11 Torsion [N]-CA--CB-[CG] |==|  0.72791
USER: genes 12 Torsion [CA]-CB--CG-[CD2] |==|  0.72478
ROOT
ATOM      1  CA  LEU E   3       8.370  -2.367 -12.716  1.00 28.46 LIG 0.18  C 
ENDROOT
BRANCH 1 2
ATOM      2  N   LEU E   3       8.077  -1.490 -13.863  1.00 30.36 LIG-0.35  N 
ATOM      3  C   ASP E   2       8.976  -1.225 -14.815  1.00 32.94 LIG 0.26  C 
ATOM      4 O    ASP E   2      10.132  -1.669 -14.794  1.00 32.35 LIG-0.27  OA
ATOM      5 H    LEU E   3       7.279  -1.167 -13.861  1.00 30.36 LIG 0.16  HD
BRANCH 3 6
ATOM      6  CA  ASP E   2       8.517  -0.322 -15.963  1.00 34.24 LIG 0.41  C 
ATOM      7  N   ASP E   2       9.700   0.020 -16.801  1.00 34.31 LIG 0.61  N 
BRANCH 6 8
ATOM      8  CB  ASP E   2       7.458  -1.031 -16.815  1.00 36.18 LIG 0.16  C 
BRANCH 8 9
ATOM      9  CG  ASP E   2       6.390  -0.076 -17.361  1.00 38.13 LIG 0.17  C 
ATOM     10 OD1  ASP E   2       6.740   1.063 -17.752  1.00 37.90 LIG-0.65  OA
ATOM     11 OD2  ASP E   2       5.203  -0.472 -17.425  1.00 38.42 LIG-0.65  OA
ENDBRANCH 8 9
ENDBRANCH 6 8
ENDBRANCH 3 6
ENDBRANCH 1 2
BRANCH 1 12
ATOM     12  C   LEU E   3       8.749  -3.786 -13.150  1.00 28.32 LIG 0.24  C 
ATOM     13  N   PHE E   4       9.567  -4.446 -12.331  1.00 27.78 LIG-0.34  N 
ATOM     14 H    PHE E   4       9.823  -4.134 -11.572  1.00 27.78 LIG 0.16  HD
ATOM     15 O    LEU E   3       8.314  -4.258 -14.202  1.00 27.38 LIG-0.27  OA
BRANCH 13 16
ATOM     16  CA  PHE E   4      10.113  -5.768 -12.639  1.00 27.92 LIG 0.19  C 
BRANCH 16 17
ATOM     17  C   PHE E   4       9.149  -6.857 -12.170  1.00 28.33 LIG 0.20  C 
ATOM     18 OXT  PHE E   4       9.303  -8.030 -12.504  1.00 30.35 LIG-0.65  OA
ATOM     19 O    PHE E   4       8.204  -6.598 -11.425  1.00 28.81 LIG-0.65  OA
ENDBRANCH 16 17
BRANCH 16 20
ATOM     20  CB  PHE E   4      11.485  -5.965 -11.971  1.00 27.18 LIG 0.07  C 
BRANCH 20 21
ATOM     21  CG  PHE E   4      11.427  -6.018 -10.466  1.00 26.64 LIG-0.06  A 
ATOM     22  CD1 PHE E   4      11.011  -4.908  -9.727  1.00 26.73 LIG 0.01  A 
ATOM     23  CE1 PHE E   4      10.964  -4.956  -8.340  1.00 26.26 LIG 0.00  A 
ATOM     24  CZ  PHE E   4      11.336  -6.119  -7.681  1.00 25.93 LIG 0.00  A 
ATOM     25  CE2 PHE E   4      11.758  -7.227  -8.405  1.00 25.36 LIG 0.00  A 
ATOM     26  CD2 PHE E   4      11.800  -7.173  -9.788  1.00 26.03 LIG 0.01  A 
ENDBRANCH 20 21
ENDBRANCH 16 20
ENDBRANCH 13 16
ENDBRANCH 1 12
BRANCH 1 27
ATOM     27  CB  LEU E   3       7.170  -2.435 -11.758  1.00 28.15 LIG 0.04  C 
BRANCH 27 28
ATOM     28  CG  LEU E   3       7.140  -1.554 -10.506  1.00 27.57 LIG-0.02  C 
ATOM     29  CD2 LEU E   3       7.567  -2.331  -9.270  1.00 27.08 LIG 0.01  C 
ATOM     30  CD1 LEU E   3       5.750  -0.969 -10.299  1.00 27.26 LIG 0.01  C 
ENDBRANCH 27 28
ENDBRANCH 1 27
TORSDOF 11
ENDMDL
MODEL 53
USER: ADFR SOLUTION from run 17
USER: SCORE 9.417696 LL:  -2.011 LR:  -7.482 RR:   0.000 FEB:  -4.201
USER: RMSD 7.466136
USER: SEED 16
USER: STATUS no improvement in best in 17 clusters for 5 generations
USER: GENES 13
USER: genes 0 Translation |==|  0.74861 0.38588 0.60165
USER: genes 1 Rotation |==|  0.74122 0.65723 0.87650 0.65917
USER: genes 2 Torsion [C]-CA--N-[C] |==|  0.72483
USER: genes 3 Torsion [N]-C--CA-[N] |==|  0.53227
USER: genes 4 Torsion [C]-CA--CB-[CG] |==|  0.26414
USER: genes 5 Torsion [CA]-CB--CG-[OD1] |==|  0.48515
USER: genes 6 Torsion [N]-CA--C-[N] |==|  0.05000
USER: genes 7 Torsion [C]-N--CA-[C] |==|  0.16843
USER: genes 8 Torsion [N]-CA--C-[OXT] |==|  0.02639
USER: genes 9 Torsion [N]-CA--CB-[CG] |==|  0.53644
USER: genes 10 Torsion [CA]-CB--CG-[CD1] |==|  0.71118
USER: genes 11 Torsion [N]-CA--CB-[CG] |==|  0.83651
USER: genes 12 Torsion [CA]-CB--CG-[CD2] |==|  0.22913
ROOT
ATOM      1  CA  LEU E   3      12.252  -7.229  -9.601  1.00 28.46 LIG 0.18  C 
ENDROOT
BRANCH 1 2
ATOM      2  N   LEU E   3      13.192  -7.040 -10.720  1.00 30.36 LIG-0.35  N 
ATOM      3  C   ASP E   2      12.986  -7.570 -11.929  1.00 32.94 LIG 0.26  C 
ATOM      4 O    ASP E   2      12.010  -8.284 -12.197  1.00 32.35 LIG-0.27  OA
ATOM      5 H    LEU E   3      13.879  -6.562 -10.522  1.00 30.36 LIG 0.16  HD
BRANCH 3 6
ATOM      6  CA  ASP E   2      14.034  -7.261 -13.003  1.00 34.24 LIG 0.41  C 
ATOM      7  N   ASP E   2      13.499  -7.688 -14.326  1.00 34.31 LIG 0.61  N 
BRANCH 6 8
ATOM      8  CB  ASP E   2      14.355  -5.762 -13.026  1.00 36.18 LIG 0.16  C 
BRANCH 8 9
ATOM      9  CG  ASP E   2      15.586  -5.401 -12.187  1.00 38.13 LIG 0.17  C 
ATOM     10 OD1  ASP E   2      16.008  -4.221 -12.209  1.00 37.90 LIG-0.65  OA
ATOM     11 OD2  ASP E   2      16.118  -6.291 -11.483  1.00 38.42 LIG-0.65  OA
ENDBRANCH 8 9
ENDBRANCH 6 8
ENDBRANCH 3 6
ENDBRANCH 1 2
BRANCH 1 12
ATOM     12  C   LEU E   3      11.320  -6.029  -9.415  1.00 28.32 LIG 0.24  C 
ATOM     13  N   PHE E   4      11.223  -5.201 -10.455  1.00 27.78 LIG-0.34  N 
ATOM     14 H    PHE E   4      11.601  -5.351 -11.212  1.00 27.78 LIG 0.16  HD
ATOM     15 O    LEU E   3      10.716  -5.860  -8.354  1.00 27.38 LIG-0.27  OA
BRANCH 13 16
ATOM     16  CA  PHE E   4      10.462  -3.952 -10.416  1.00 27.92 LIG 0.19  C 
BRANCH 16 17
ATOM     17  C   PHE E   4      11.031  -3.023  -9.343  1.00 28.33 LIG 0.20  C 
ATOM     18 OXT  PHE E   4      12.092  -3.280  -8.778  1.00 30.35 LIG-0.65  OA
ATOM     19 O    PHE E   4      10.459  -1.980  -9.031  1.00 28.81 LIG-0.65  OA
ENDBRANCH 16 17
BRANCH 16 20
ATOM     20  CB  PHE E   4       8.973  -4.223 -10.131  1.00 27.18 LIG 0.07  C 
BRANCH 20 21
ATOM     21  CG  PHE E   4       8.081  -3.035 -10.383  1.00 26.64 LIG-0.06  A 
ATOM     22  CD1 PHE E   4       7.574  -2.283  -9.320  1.00 26.73 LIG 0.01  A 
ATOM     23  CE1 PHE E   4       6.746  -1.193  -9.553  1.00 26.26 LIG 0.00  A 
ATOM     24  CZ  PHE E   4       6.418  -0.848 -10.856  1.00 25.93 LIG 0.00  A 
ATOM     25  CE2 PHE E   4       6.910  -1.592 -11.920  1.00 25.36 LIG 0.00  A 
ATOM     26  CD2 PHE E   4       7.737  -2.676 -11.681  1.00 26.03 LIG 0.01  A 
ENDBRANCH 20 21
ENDBRANCH 16 20
ENDBRANCH 13 16
ENDBRANCH 1 12
BRANCH 1 27
ATOM     27  CB  LEU E   3      13.009  -7.490  -8.289  1.00 28.15 LIG 0.04  C 
BRANCH 27 28
ATOM     28  CG  LEU E   3      13.958  -8.686  -8.179  1.00 27.57 LIG-0.02  C 
ATOM     29  CD2 LEU E   3      15.325  -8.366  -8.767  1.00 27.08 LIG 0.01  C 
ATOM     30  CD1 LEU E   3      13.365  -9.904  -8.873  1.00 27.26 LIG 0.01  C 
ENDBRANCH 27 28
ENDBRANCH 1 27
TORSDOF 11
ENDMDL
MODEL 54
USER: ADFR SOLUTION from run 104
USER: SCORE 10.557514 LL:  -3.195 LR:  -7.470 RR:   0.000 FEB:  -4.189
USER: RMSD 5.136615
USER: SEED 103
USER: STATUS no improvement in best in 13 clusters for 5 generations
USER: GENES 13
USER: genes 0 Translation |==|  0.42838 0.59179 0.42782
USER: genes 1 Rotation |==|  0.54734 0.51652 0.68662 0.96115
USER: genes 2 Torsion [C]-CA--N-[C] |==|  0.73649
USER: genes 3 Torsion [N]-C--CA-[N] |==|  0.83931
USER: genes 4 Torsion [C]-CA--CB-[CG] |==|  0.62601
USER: genes 5 Torsion [CA]-CB--CG-[OD1] |==|  0.15826
USER: genes 6 Torsion [N]-CA--C-[N] |==|  0.39222
USER: genes 7 Torsion [C]-N--CA-[C] |==|  0.51637
USER: genes 8 Torsion [N]-CA--C-[OXT] |==|  0.05187
USER: genes 9 Torsion [N]-CA--CB-[CG] |==|  0.08370
USER: genes 10 Torsion [CA]-CB--CG-[CD1] |==|  0.67124
USER: genes 11 Torsion [N]-CA--CB-[CG] |==|  0.42405
USER: genes 12 Torsion [CA]-CB--CG-[CD2] |==|  0.65213
ROOT
ATOM      1  CA  LEU E   3       7.208  -3.832 -12.079  1.00 28.46 LIG 0.18  C 
ENDROOT
BRANCH 1 2
ATOM      2  N   LEU E   3       7.522  -5.244 -11.800  1.00 30.36 LIG-0.35  N 
ATOM      3  C   ASP E   2       7.198  -6.231 -12.640  1.00 32.94 LIG 0.26  C 
ATOM      4 O    ASP E   2       6.585  -6.044 -13.699  1.00 32.35 LIG-0.27  OA
ATOM      5 H    LEU E   3       7.928  -5.371 -11.053  1.00 30.36 LIG 0.16  HD
BRANCH 3 6
ATOM      6  CA  ASP E   2       7.618  -7.647 -12.232  1.00 34.24 LIG 0.41  C 
ATOM      7  N   ASP E   2       9.095  -7.670 -12.046  1.00 34.31 LIG 0.61  N 
BRANCH 6 8
ATOM      8  CB  ASP E   2       6.919  -8.061 -10.932  1.00 36.18 LIG 0.16  C 
BRANCH 8 9
ATOM      9  CG  ASP E   2       7.869  -8.722  -9.926  1.00 38.13 LIG 0.17  C 
ATOM     10 OD1  ASP E   2       8.885  -8.092  -9.550  1.00 37.90 LIG-0.65  OA
ATOM     11 OD2  ASP E   2       7.586  -9.861  -9.489  1.00 38.42 LIG-0.65  OA
ENDBRANCH 8 9
ENDBRANCH 6 8
ENDBRANCH 3 6
ENDBRANCH 1 2
BRANCH 1 12
ATOM     12  C   LEU E   3       8.377  -3.094 -12.736  1.00 28.32 LIG 0.24  C 
ATOM     13  N   PHE E   4       8.052  -2.222 -13.690  1.00 27.78 LIG-0.34  N 
ATOM     14 H    PHE E   4       7.239  -2.027 -13.891  1.00 27.78 LIG 0.16  HD
ATOM     15 O    LEU E   3       9.538  -3.320 -12.389  1.00 27.38 LIG-0.27  OA
BRANCH 13 16
ATOM     16  CA  PHE E   4       9.044  -1.508 -14.494  1.00 27.92 LIG 0.19  C 
BRANCH 16 17
ATOM     17  C   PHE E   4       8.353  -0.481 -15.392  1.00 28.33 LIG 0.20  C 
ATOM     18 OXT  PHE E   4       7.211  -0.096 -15.154  1.00 30.35 LIG-0.65  OA
ATOM     19 O    PHE E   4       8.927   0.007 -16.365  1.00 28.81 LIG-0.65  OA
ENDBRANCH 16 17
BRANCH 16 20
ATOM     20  CB  PHE E   4       9.862  -2.486 -15.356  1.00 27.18 LIG 0.07  C 
BRANCH 20 21
ATOM     21  CG  PHE E   4       9.100  -3.721 -15.763  1.00 26.64 LIG-0.06  A 
ATOM     22  CD1 PHE E   4       9.527  -4.989 -15.364  1.00 26.73 LIG 0.01  A 
ATOM     23  CE1 PHE E   4       8.828  -6.126 -15.744  1.00 26.26 LIG 0.00  A 
ATOM     24  CZ  PHE E   4       7.691  -6.001 -16.531  1.00 25.93 LIG 0.00  A 
ATOM     25  CE2 PHE E   4       7.260  -4.746 -16.940  1.00 25.36 LIG 0.00  A 
ATOM     26  CD2 PHE E   4       7.961  -3.615 -16.554  1.00 26.03 LIG 0.01  A 
ENDBRANCH 20 21
ENDBRANCH 16 20
ENDBRANCH 13 16
ENDBRANCH 1 12
BRANCH 1 27
ATOM     27  CB  LEU E   3       6.807  -3.096 -10.789  1.00 28.15 LIG 0.04  C 
BRANCH 27 28
ATOM     28  CG  LEU E   3       7.039  -1.588 -10.666  1.00 27.57 LIG-0.02  C 
ATOM     29  CD2 LEU E   3       7.857  -1.251  -9.428  1.00 27.08 LIG 0.01  C 
ATOM     30  CD1 LEU E   3       5.711  -0.845 -10.630  1.00 27.26 LIG 0.01  C 
ENDBRANCH 27 28
ENDBRANCH 1 27
TORSDOF 11
ENDMDL
MODEL 55
USER: ADFR SOLUTION from run 178
USER: SCORE 10.040474 LL:  -2.658 LR:  -7.468 RR:   0.000 FEB:  -4.187
USER: RMSD 6.024084
USER: SEED 177
USER: STATUS no improvement in best in 31 clusters for 5 generations
USER: GENES 13
USER: genes 0 Translation |==|  0.68072 0.36849 0.60764
USER: genes 1 Rotation |==|  0.88885 0.77010 0.60717 0.61981
USER: genes 2 Torsion [C]-CA--N-[C] |==|  0.76934
USER: genes 3 Torsion [N]-C--CA-[N] |==|  0.55081
USER: genes 4 Torsion [C]-CA--CB-[CG] |==|  0.81456
USER: genes 5 Torsion [CA]-CB--CG-[OD1] |==|  0.82296
USER: genes 6 Torsion [N]-CA--C-[N] |==|  0.92299
USER: genes 7 Torsion [C]-N--CA-[C] |==|  0.15754
USER: genes 8 Torsion [N]-CA--C-[OXT] |==|  0.69936
USER: genes 9 Torsion [N]-CA--CB-[CG] |==|  0.66786
USER: genes 10 Torsion [CA]-CB--CG-[CD1] |==|  0.60863
USER: genes 11 Torsion [N]-CA--CB-[CG] |==|  0.56619
USER: genes 12 Torsion [CA]-CB--CG-[CD2] |==|  0.50939
ROOT
ATOM      1  CA  LEU E   3      11.182  -7.516  -9.516  1.00 28.46 LIG 0.18  C 
ENDROOT
BRANCH 1 2
ATOM      2  N   LEU E   3      10.400  -7.953 -10.686  1.00 30.36 LIG-0.35  N 
ATOM      3  C   ASP E   2       9.117  -8.317 -10.598  1.00 32.94 LIG 0.26  C 
ATOM      4 O    ASP E   2       8.495  -8.346  -9.527  1.00 32.35 LIG-0.27  OA
ATOM      5 H    LEU E   3      10.843  -7.952 -11.423  1.00 30.36 LIG 0.16  HD
BRANCH 3 6
ATOM      6  CA  ASP E   2       8.424  -8.716 -11.904  1.00 34.24 LIG 0.41  C 
ATOM      7  N   ASP E   2       6.951  -8.652 -11.698  1.00 34.31 LIG 0.61  N 
BRANCH 6 8
ATOM      8  CB  ASP E   2       8.837  -7.774 -13.041  1.00 36.18 LIG 0.16  C 
BRANCH 8 9
ATOM      9  CG  ASP E   2       8.330  -6.341 -12.845  1.00 38.13 LIG 0.17  C 
ATOM     10 OD1  ASP E   2       7.094  -6.132 -12.836  1.00 37.90 LIG-0.65  OA
ATOM     11 OD2  ASP E   2       9.166  -5.425 -12.672  1.00 38.42 LIG-0.65  OA
ENDBRANCH 8 9
ENDBRANCH 6 8
ENDBRANCH 3 6
ENDBRANCH 1 2
BRANCH 1 12
ATOM     12  C   LEU E   3      10.961  -6.037  -9.187  1.00 28.32 LIG 0.24  C 
ATOM     13  N   PHE E   4      10.628  -5.256 -10.214  1.00 27.78 LIG-0.34  N 
ATOM     14 H    PHE E   4      10.480  -5.558 -11.005  1.00 27.78 LIG 0.16  HD
ATOM     15 O    LEU E   3      11.097  -5.623  -8.035  1.00 27.38 LIG-0.27  OA
BRANCH 13 16
ATOM     16  CA  PHE E   4      10.481  -3.805 -10.102  1.00 27.92 LIG 0.19  C 
BRANCH 16 17
ATOM     17  C   PHE E   4      11.773  -3.185  -9.567  1.00 28.33 LIG 0.20  C 
ATOM     18 OXT  PHE E   4      11.836  -2.736  -8.425  1.00 30.35 LIG-0.65  OA
ATOM     19 O    PHE E   4      12.793  -3.140 -10.254  1.00 28.81 LIG-0.65  OA
ENDBRANCH 16 17
BRANCH 16 20
ATOM     20  CB  PHE E   4       9.307  -3.441  -9.175  1.00 27.18 LIG 0.07  C 
BRANCH 20 21
ATOM     21  CG  PHE E   4       8.226  -2.638  -9.851  1.00 26.64 LIG-0.06  A 
ATOM     22  CD1 PHE E   4       7.584  -1.595  -9.180  1.00 26.73 LIG 0.01  A 
ATOM     23  CE1 PHE E   4       6.583  -0.861  -9.801  1.00 26.26 LIG 0.00  A 
ATOM     24  CZ  PHE E   4       6.215  -1.168 -11.104  1.00 25.93 LIG 0.00  A 
ATOM     25  CE2 PHE E   4       6.842  -2.207 -11.779  1.00 25.36 LIG 0.00  A 
ATOM     26  CD2 PHE E   4       7.841  -2.934 -11.154  1.00 26.03 LIG 0.01  A 
ENDBRANCH 20 21
ENDBRANCH 16 20
ENDBRANCH 13 16
ENDBRANCH 1 12
BRANCH 1 27
ATOM     27  CB  LEU E   3      12.683  -7.766  -9.738  1.00 28.15 LIG 0.04  C 
BRANCH 27 28
ATOM     28  CG  LEU E   3      13.619  -7.918  -8.536  1.00 27.57 LIG-0.02  C 
ATOM     29  CD2 LEU E   3      15.067  -8.075  -8.976  1.00 27.08 LIG 0.01  C 
ATOM     30  CD1 LEU E   3      13.202  -9.107  -7.683  1.00 27.26 LIG 0.01  C 
ENDBRANCH 27 28
ENDBRANCH 1 27
TORSDOF 11
ENDMDL
MODEL 56
USER: ADFR SOLUTION from run 43
USER: SCORE 9.600513 LL:  -2.793 LR:  -7.458 RR:   0.000 FEB:  -4.177
USER: RMSD 4.888543
USER: SEED 42
USER: STATUS no improvement in best in 15 clusters for 5 generations
USER: GENES 13
USER: genes 0 Translation |==|  0.52471 0.59852 0.59646
USER: genes 1 Rotation |==|  0.40097 0.75636 0.72018 0.85496
USER: genes 2 Torsion [C]-CA--N-[C] |==|  0.87469
USER: genes 3 Torsion [N]-C--CA-[N] |==|  0.22866
USER: genes 4 Torsion [C]-CA--CB-[CG] |==|  0.65946
USER: genes 5 Torsion [CA]-CB--CG-[OD1] |==|  0.84901
USER: genes 6 Torsion [N]-CA--C-[N] |==|  0.30005
USER: genes 7 Torsion [C]-N--CA-[C] |==|  0.54501
USER: genes 8 Torsion [N]-CA--C-[OXT] |==|  0.01099
USER: genes 9 Torsion [N]-CA--CB-[CG] |==|  0.77038
USER: genes 10 Torsion [CA]-CB--CG-[CD1] |==|  0.83198
USER: genes 11 Torsion [N]-CA--CB-[CG] |==|  0.55934
USER: genes 12 Torsion [CA]-CB--CG-[CD2] |==|  0.90875
ROOT
ATOM      1  CA  LEU E   3       8.725  -3.720  -9.675  1.00 28.46 LIG 0.18  C 
ENDROOT
BRANCH 1 2
ATOM      2  N   LEU E   3       9.905  -4.268  -8.984  1.00 30.36 LIG-0.35  N 
ATOM      3  C   ASP E   2      10.470  -5.427  -9.333  1.00 32.94 LIG 0.26  C 
ATOM      4 O    ASP E   2      10.030  -6.147 -10.240  1.00 32.35 LIG-0.27  OA
ATOM      5 H    LEU E   3      10.193  -3.775  -8.340  1.00 30.36 LIG 0.16  HD
BRANCH 3 6
ATOM      6  CA  ASP E   2      11.712  -5.853  -8.544  1.00 34.24 LIG 0.41  C 
ATOM      7  N   ASP E   2      11.272  -6.501  -7.277  1.00 34.31 LIG 0.61  N 
BRANCH 6 8
ATOM      8  CB  ASP E   2      12.561  -6.831  -9.365  1.00 36.18 LIG 0.16  C 
BRANCH 8 9
ATOM      9  CG  ASP E   2      12.788  -8.170  -8.654  1.00 38.13 LIG 0.17  C 
ATOM     10 OD1  ASP E   2      13.271  -8.167  -7.498  1.00 37.90 LIG-0.65  OA
ATOM     11 OD2  ASP E   2      12.456  -9.226  -9.241  1.00 38.42 LIG-0.65  OA
ENDBRANCH 8 9
ENDBRANCH 6 8
ENDBRANCH 3 6
ENDBRANCH 1 2
BRANCH 1 12
ATOM     12  C   LEU E   3       8.849  -3.811 -11.199  1.00 28.32 LIG 0.24  C 
ATOM     13  N   PHE E   4       8.072  -4.717 -11.792  1.00 27.78 LIG-0.34  N 
ATOM     14 H    PHE E   4       7.487  -5.184 -11.369  1.00 27.78 LIG 0.16  HD
ATOM     15 O    LEU E   3       9.632  -3.083 -11.810  1.00 27.38 LIG-0.27  OA
BRANCH 13 16
ATOM     16  CA  PHE E   4       8.135  -5.011 -13.224  1.00 27.92 LIG 0.19  C 
BRANCH 16 17
ATOM     17  C   PHE E   4       6.883  -5.773 -13.660  1.00 28.33 LIG 0.20  C 
ATOM     18 OXT  PHE E   4       5.967  -5.994 -12.871  1.00 30.35 LIG-0.65  OA
ATOM     19 O    PHE E   4       6.745  -6.167 -14.817  1.00 28.81 LIG-0.65  OA
ENDBRANCH 16 17
BRANCH 16 20
ATOM     20  CB  PHE E   4       9.390  -5.836 -13.562  1.00 27.18 LIG 0.07  C 
BRANCH 20 21
ATOM     21  CG  PHE E   4      10.635  -5.006 -13.731  1.00 26.64 LIG-0.06  A 
ATOM     22  CD1 PHE E   4      10.710  -4.020 -14.718  1.00 26.73 LIG 0.01  A 
ATOM     23  CE1 PHE E   4      11.860  -3.260 -14.877  1.00 26.26 LIG 0.00  A 
ATOM     24  CZ  PHE E   4      12.950  -3.484 -14.048  1.00 25.93 LIG 0.00  A 
ATOM     25  CE2 PHE E   4      12.891  -4.466 -13.068  1.00 25.36 LIG 0.00  A 
ATOM     26  CD2 PHE E   4      11.739  -5.218 -12.912  1.00 26.03 LIG 0.01  A 
ENDBRANCH 20 21
ENDBRANCH 16 20
ENDBRANCH 13 16
ENDBRANCH 1 12
BRANCH 1 27
ATOM     27  CB  LEU E   3       8.486  -2.256  -9.274  1.00 28.15 LIG 0.04  C 
BRANCH 27 28
ATOM     28  CG  LEU E   3       7.100  -1.630  -9.452  1.00 27.57 LIG-0.02  C 
ATOM     29  CD2 LEU E   3       6.383  -2.205 -10.665  1.00 27.08 LIG 0.01  C 
ATOM     30  CD1 LEU E   3       7.211  -0.118  -9.581  1.00 27.26 LIG 0.01  C 
ENDBRANCH 27 28
ENDBRANCH 1 27
TORSDOF 11
ENDMDL
MODEL 57
USER: ADFR SOLUTION from run 151
USER: SCORE 9.890325 LL:  -2.527 LR:  -7.425 RR:   0.000 FEB:  -4.144
USER: RMSD 6.455654
USER: SEED 150
USER: STATUS no improvement in best in 20 clusters for 5 generations
USER: GENES 13
USER: genes 0 Translation |==|  0.67600 0.50288 0.57067
USER: genes 1 Rotation |==|  0.84963 0.55114 0.22971 0.72822
USER: genes 2 Torsion [C]-CA--N-[C] |==|  0.76907
USER: genes 3 Torsion [N]-C--CA-[N] |==|  0.34836
USER: genes 4 Torsion [C]-CA--CB-[CG] |==|  0.62203
USER: genes 5 Torsion [CA]-CB--CG-[OD1] |==|  0.17266
USER: genes 6 Torsion [N]-CA--C-[N] |==|  0.45492
USER: genes 7 Torsion [C]-N--CA-[C] |==|  0.49112
USER: genes 8 Torsion [N]-CA--C-[OXT] |==|  0.14811
USER: genes 9 Torsion [N]-CA--CB-[CG] |==|  0.67031
USER: genes 10 Torsion [CA]-CB--CG-[CD1] |==|  0.80282
USER: genes 11 Torsion [N]-CA--CB-[CG] |==|  0.72551
USER: genes 12 Torsion [CA]-CB--CG-[CD2] |==|  0.05284
ROOT
ATOM      1  CA  LEU E   3      11.108  -5.298 -10.043  1.00 28.46 LIG 0.18  C 
ENDROOT
BRANCH 1 2
ATOM      2  N   LEU E   3       9.729  -4.781 -10.011  1.00 30.36 LIG-0.35  N 
ATOM      3  C   ASP E   2       9.449  -3.494  -9.783  1.00 32.94 LIG 0.26  C 
ATOM      4 O    ASP E   2      10.319  -2.644  -9.552  1.00 32.35 LIG-0.27  OA
ATOM      5 H    LEU E   3       9.127  -5.380 -10.150  1.00 30.36 LIG 0.16  HD
BRANCH 3 6
ATOM      6  CA  ASP E   2       7.970  -3.096  -9.812  1.00 34.24 LIG 0.41  C 
ATOM      7  N   ASP E   2       7.636  -2.415  -8.531  1.00 34.31 LIG 0.61  N 
BRANCH 6 8
ATOM      8  CB  ASP E   2       7.688  -2.160 -10.993  1.00 36.18 LIG 0.16  C 
BRANCH 8 9
ATOM      9  CG  ASP E   2       6.798  -0.971 -10.615  1.00 38.13 LIG 0.17  C 
ATOM     10 OD1  ASP E   2       7.211  -0.153  -9.760  1.00 37.90 LIG-0.65  OA
ATOM     11 OD2  ASP E   2       5.694  -0.837 -11.193  1.00 38.42 LIG-0.65  OA
ENDBRANCH 8 9
ENDBRANCH 6 8
ENDBRANCH 3 6
ENDBRANCH 1 2
BRANCH 1 12
ATOM     12  C   LEU E   3      11.777  -5.090 -11.404  1.00 28.32 LIG 0.24  C 
ATOM     13  N   PHE E   4      13.103  -5.215 -11.425  1.00 27.78 LIG-0.34  N 
ATOM     14 H    PHE E   4      13.563  -5.460 -10.742  1.00 27.78 LIG 0.16  HD
ATOM     15 O    LEU E   3      11.104  -4.817 -12.400  1.00 27.38 LIG-0.27  OA
BRANCH 13 16
ATOM     16  CA  PHE E   4      13.914  -4.947 -12.614  1.00 27.92 LIG 0.19  C 
BRANCH 16 17
ATOM     17  C   PHE E   4      15.399  -5.106 -12.285  1.00 28.33 LIG 0.20  C 
ATOM     18 OXT  PHE E   4      15.828  -6.134 -11.766  1.00 30.35 LIG-0.65  OA
ATOM     19 O    PHE E   4      16.211  -4.221 -12.550  1.00 28.81 LIG-0.65  OA
ENDBRANCH 16 17
BRANCH 16 20
ATOM     20  CB  PHE E   4      13.650  -3.530 -13.153  1.00 27.18 LIG 0.07  C 
BRANCH 20 21
ATOM     21  CG  PHE E   4      13.096  -3.505 -14.553  1.00 26.64 LIG-0.06  A 
ATOM     22  CD1 PHE E   4      13.896  -3.846 -15.646  1.00 26.73 LIG 0.01  A 
ATOM     23  CE1 PHE E   4      13.386  -3.817 -16.937  1.00 26.26 LIG 0.00  A 
ATOM     24  CZ  PHE E   4      12.066  -3.443 -17.144  1.00 25.93 LIG 0.00  A 
ATOM     25  CE2 PHE E   4      11.262  -3.096 -16.066  1.00 25.36 LIG 0.00  A 
ATOM     26  CD2 PHE E   4      11.776  -3.130 -14.781  1.00 26.03 LIG 0.01  A 
ENDBRANCH 20 21
ENDBRANCH 16 20
ENDBRANCH 13 16
ENDBRANCH 1 12
BRANCH 1 27
ATOM     27  CB  LEU E   3      11.139  -6.794  -9.688  1.00 28.15 LIG 0.04  C 
BRANCH 27 28
ATOM     28  CG  LEU E   3      11.500  -7.236  -8.267  1.00 27.57 LIG-0.02  C 
ATOM     29  CD2 LEU E   3      11.336  -6.096  -7.273  1.00 27.08 LIG 0.01  C 
ATOM     30  CD1 LEU E   3      12.925  -7.768  -8.220  1.00 27.26 LIG 0.01  C 
ENDBRANCH 27 28
ENDBRANCH 1 27
TORSDOF 11
ENDMDL
MODEL 58
USER: ADFR SOLUTION from run 7
USER: SCORE 9.698730 LL:  -2.353 LR:  -7.406 RR:   0.000 FEB:  -4.125
USER: RMSD 5.096819
USER: SEED 773360
USER: STATUS no improvement in best in 17 clusters for 5 generations
USER: GENES 13
USER: genes 0 Translation |==|  0.51590 0.65180 0.42180
USER: genes 1 Rotation |==|  0.76624 0.19553 0.37735 0.76716
USER: genes 2 Torsion [C]-CA--N-[C] |==|  0.86111
USER: genes 3 Torsion [N]-C--CA-[N] |==|  0.89572
USER: genes 4 Torsion [C]-CA--CB-[CG] |==|  0.77738
USER: genes 5 Torsion [CA]-CB--CG-[OD1] |==|  0.73475
USER: genes 6 Torsion [N]-CA--C-[N] |==|  0.36773
USER: genes 7 Torsion [C]-N--CA-[C] |==|  0.18685
USER: genes 8 Torsion [N]-CA--C-[OXT] |==|  0.24896
USER: genes 9 Torsion [N]-CA--CB-[CG] |==|  0.51964
USER: genes 10 Torsion [CA]-CB--CG-[CD1] |==|  0.71396
USER: genes 11 Torsion [N]-CA--CB-[CG] |==|  0.64323
USER: genes 12 Torsion [CA]-CB--CG-[CD2] |==|  0.22980
ROOT
ATOM      1  CA  LEU E   3       8.586  -2.841 -12.164  1.00 28.46 LIG 0.18  C 
ENDROOT
BRANCH 1 2
ATOM      2  N   LEU E   3       8.448  -2.658 -13.620  1.00 30.36 LIG-0.35  N 
ATOM      3  C   ASP E   2       9.499  -2.624 -14.444  1.00 32.94 LIG 0.26  C 
ATOM      4 O    ASP E   2      10.670  -2.713 -14.049  1.00 32.35 LIG-0.27  OA
ATOM      5 H    LEU E   3       7.634  -2.575 -13.885  1.00 30.36 LIG 0.16  HD
BRANCH 3 6
ATOM      6  CA  ASP E   2       9.199  -2.460 -15.936  1.00 34.24 LIG 0.41  C 
ATOM      7  N   ASP E   2       7.969  -3.235 -16.262  1.00 34.31 LIG 0.61  N 
BRANCH 6 8
ATOM      8  CB  ASP E   2       8.994  -0.981 -16.284  1.00 36.18 LIG 0.16  C 
BRANCH 8 9
ATOM      9  CG  ASP E   2       7.592  -0.471 -15.929  1.00 38.13 LIG 0.17  C 
ATOM     10 OD1  ASP E   2       6.710  -0.457 -16.819  1.00 37.90 LIG-0.65  OA
ATOM     11 OD2  ASP E   2       7.363  -0.109 -14.751  1.00 38.42 LIG-0.65  OA
ENDBRANCH 8 9
ENDBRANCH 6 8
ENDBRANCH 3 6
ENDBRANCH 1 2
BRANCH 1 12
ATOM     12  C   LEU E   3       9.479  -4.034 -11.810  1.00 28.32 LIG 0.24  C 
ATOM     13  N   PHE E   4      10.415  -3.806 -10.890  1.00 27.78 LIG-0.34  N 
ATOM     14 H    PHE E   4      10.486  -3.061 -10.465  1.00 27.78 LIG 0.16  HD
ATOM     15 O    LEU E   3       9.322  -5.123 -12.364  1.00 27.38 LIG-0.27  OA
BRANCH 13 16
ATOM     16  CA  PHE E   4      11.420  -4.798 -10.506  1.00 27.92 LIG 0.19  C 
BRANCH 16 17
ATOM     17  C   PHE E   4      12.376  -5.055 -11.672  1.00 28.33 LIG 0.20  C 
ATOM     18 OXT  PHE E   4      13.398  -4.388 -11.814  1.00 30.35 LIG-0.65  OA
ATOM     19 O    PHE E   4      12.164  -5.952 -12.487  1.00 28.81 LIG-0.65  OA
ENDBRANCH 16 17
BRANCH 16 20
ATOM     20  CB  PHE E   4      10.754  -6.119 -10.079  1.00 27.18 LIG 0.07  C 
BRANCH 20 21
ATOM     21  CG  PHE E   4      11.717  -7.129  -9.512  1.00 26.64 LIG-0.06  A 
ATOM     22  CD1 PHE E   4      12.146  -8.217 -10.277  1.00 26.73 LIG 0.01  A 
ATOM     23  CE1 PHE E   4      13.027  -9.151  -9.751  1.00 26.26 LIG 0.00  A 
ATOM     24  CZ  PHE E   4      13.487  -9.003  -8.449  1.00 25.93 LIG 0.00  A 
ATOM     25  CE2 PHE E   4      13.063  -7.930  -7.677  1.00 25.36 LIG 0.00  A 
ATOM     26  CD2 PHE E   4      12.185  -7.000  -8.209  1.00 26.03 LIG 0.01  A 
ENDBRANCH 20 21
ENDBRANCH 16 20
ENDBRANCH 13 16
ENDBRANCH 1 12
BRANCH 1 27
ATOM     27  CB  LEU E   3       7.211  -3.025 -11.503  1.00 28.15 LIG 0.04  C 
BRANCH 27 28
ATOM     28  CG  LEU E   3       6.818  -2.161 -10.301  1.00 27.57 LIG-0.02  C 
ATOM     29  CD2 LEU E   3       6.289  -0.805 -10.742  1.00 27.08 LIG 0.01  C 
ATOM     30  CD1 LEU E   3       8.005  -1.979  -9.366  1.00 27.26 LIG 0.01  C 
ENDBRANCH 27 28
ENDBRANCH 1 27
TORSDOF 11
ENDMDL
MODEL 59
USER: ADFR SOLUTION from run 151
USER: SCORE 9.522252 LL:  -2.256 LR:  -7.401 RR:   0.000 FEB:  -4.120
USER: RMSD 5.373474
USER: SEED 150
USER: STATUS no improvement in best in 20 clusters for 5 generations
USER: GENES 13
USER: genes 0 Translation |==|  0.49664 0.68180 0.43012
USER: genes 1 Rotation |==|  0.78180 0.18318 0.43296 0.75635
USER: genes 2 Torsion [C]-CA--N-[C] |==|  0.56454
USER: genes 3 Torsion [N]-C--CA-[N] |==|  0.67697
USER: genes 4 Torsion [C]-CA--CB-[CG] |==|  0.69272
USER: genes 5 Torsion [CA]-CB--CG-[OD1] |==|  0.30727
USER: genes 6 Torsion [N]-CA--C-[N] |==|  0.46111
USER: genes 7 Torsion [C]-N--CA-[C] |==|  0.21512
USER: genes 8 Torsion [N]-CA--C-[OXT] |==|  0.78679
USER: genes 9 Torsion [N]-CA--CB-[CG] |==|  0.45250
USER: genes 10 Torsion [CA]-CB--CG-[CD1] |==|  0.19870
USER: genes 11 Torsion [N]-CA--CB-[CG] |==|  0.65450
USER: genes 12 Torsion [CA]-CB--CG-[CD2] |==|  0.23487
ROOT
ATOM      1  CA  LEU E   3       8.283  -2.346 -12.046  1.00 28.46 LIG 0.18  C 
ENDROOT
BRANCH 1 2
ATOM      2  N   LEU E   3       8.405  -2.298 -13.513  1.00 30.36 LIG-0.35  N 
ATOM      3  C   ASP E   2       8.064  -1.222 -14.228  1.00 32.94 LIG 0.26  C 
ATOM      4 O    ASP E   2       7.591  -0.196 -13.721  1.00 32.35 LIG-0.27  OA
ATOM      5 H    LEU E   3       8.713  -3.022 -13.862  1.00 30.36 LIG 0.16  HD
BRANCH 3 6
ATOM      6  CA  ASP E   2       8.276  -1.307 -15.743  1.00 34.24 LIG 0.41  C 
ATOM      7  N   ASP E   2       9.289  -0.290 -16.138  1.00 34.31 LIG 0.61  N 
BRANCH 6 8
ATOM      8  CB  ASP E   2       8.756  -2.708 -16.141  1.00 36.18 LIG 0.16  C 
BRANCH 8 9
ATOM      9  CG  ASP E   2      10.213  -2.728 -16.618  1.00 38.13 LIG 0.17  C 
ATOM     10 OD1  ASP E   2      11.077  -3.284 -15.901  1.00 37.90 LIG-0.65  OA
ATOM     11 OD2  ASP E   2      10.492  -2.211 -17.726  1.00 38.42 LIG-0.65  OA
ENDBRANCH 8 9
ENDBRANCH 6 8
ENDBRANCH 3 6
ENDBRANCH 1 2
BRANCH 1 12
ATOM     12  C   LEU E   3       9.218  -3.383 -11.417  1.00 28.32 LIG 0.24  C 
ATOM     13  N   PHE E   4       9.384  -3.292 -10.098  1.00 27.78 LIG-0.34  N 
ATOM     14 H    PHE E   4       8.951  -2.734  -9.607  1.00 27.78 LIG 0.16  HD
ATOM     15 O    LEU E   3       9.774  -4.232 -12.115  1.00 27.38 LIG-0.27  OA
BRANCH 13 16
ATOM     16  CA  PHE E   4      10.319  -4.132  -9.349  1.00 27.92 LIG 0.19  C 
BRANCH 16 17
ATOM     17  C   PHE E   4      11.749  -3.624  -9.537  1.00 28.33 LIG 0.20  C 
ATOM     18 OXT  PHE E   4      12.370  -3.844 -10.575  1.00 30.35 LIG-0.65  OA
ATOM     19 O    PHE E   4      12.312  -2.961  -8.667  1.00 28.81 LIG-0.65  OA
ENDBRANCH 16 17
BRANCH 16 20
ATOM     20  CB  PHE E   4      10.225  -5.600  -9.803  1.00 27.18 LIG 0.07  C 
BRANCH 20 21
ATOM     21  CG  PHE E   4      11.405  -6.441  -9.391  1.00 26.64 LIG-0.06  A 
ATOM     22  CD1 PHE E   4      11.595  -6.804  -8.056  1.00 26.73 LIG 0.01  A 
ATOM     23  CE1 PHE E   4      12.687  -7.573  -7.677  1.00 26.26 LIG 0.00  A 
ATOM     24  CZ  PHE E   4      13.601  -7.984  -8.636  1.00 25.93 LIG 0.00  A 
ATOM     25  CE2 PHE E   4      13.428  -7.624  -9.966  1.00 25.36 LIG 0.00  A 
ATOM     26  CD2 PHE E   4      12.335  -6.859 -10.337  1.00 26.03 LIG 0.01  A 
ENDBRANCH 20 21
ENDBRANCH 16 20
ENDBRANCH 13 16
ENDBRANCH 1 12
BRANCH 1 27
ATOM     27  CB  LEU E   3       6.835  -2.651 -11.627  1.00 28.15 LIG 0.04  C 
BRANCH 27 28
ATOM     28  CG  LEU E   3       6.097  -1.700 -10.681  1.00 27.57 LIG-0.02  C 
ATOM     29  CD2 LEU E   3       5.463  -0.543 -11.440  1.00 27.08 LIG 0.01  C 
ATOM     30  CD1 LEU E   3       7.042  -1.167  -9.615  1.00 27.26 LIG 0.01  C 
ENDBRANCH 27 28
ENDBRANCH 1 27
TORSDOF 11
ENDMDL
MODEL 60
USER: ADFR SOLUTION from run 152
USER: SCORE 9.636503 LL:  -2.730 LR:  -7.327 RR:   0.000 FEB:  -4.046
USER: RMSD 5.504301
USER: SEED 151
USER: STATUS no improvement in best in 14 clusters for 5 generations
USER: GENES 13
USER: genes 0 Translation |==|  0.54807 0.46659 0.50130
USER: genes 1 Rotation |==|  0.58621 0.79048 0.79524 0.76650
USER: genes 2 Torsion [C]-CA--N-[C] |==|  0.66379
USER: genes 3 Torsion [N]-C--CA-[N] |==|  0.14598
USER: genes 4 Torsion [C]-CA--CB-[CG] |==|  0.80955
USER: genes 5 Torsion [CA]-CB--CG-[OD1] |==|  0.99301
USER: genes 6 Torsion [N]-CA--C-[N] |==|  0.86149
USER: genes 7 Torsion [C]-N--CA-[C] |==|  0.63870
USER: genes 8 Torsion [N]-CA--C-[OXT] |==|  0.18206
USER: genes 9 Torsion [N]-CA--CB-[CG] |==|  0.82390
USER: genes 10 Torsion [CA]-CB--CG-[CD1] |==|  0.18474
USER: genes 11 Torsion [N]-CA--CB-[CG] |==|  0.00004
USER: genes 12 Torsion [CA]-CB--CG-[CD2] |==|  0.74228
ROOT
ATOM      1  CA  LEU E   3       9.093  -5.897 -11.031  1.00 28.46 LIG 0.18  C 
ENDROOT
BRANCH 1 2
ATOM      2  N   LEU E   3      10.301  -6.538 -11.581  1.00 30.36 LIG-0.35  N 
ATOM      3  C   ASP E   2      10.530  -7.850 -11.476  1.00 32.94 LIG 0.26  C 
ATOM      4 O    ASP E   2       9.765  -8.624 -10.884  1.00 32.35 LIG-0.27  OA
ATOM      5 H    LEU E   3      10.839  -5.992 -11.971  1.00 30.36 LIG 0.16  HD
BRANCH 3 6
ATOM      6  CA  ASP E   2      11.812  -8.379 -12.124  1.00 34.24 LIG 0.41  C 
ATOM      7  N   ASP E   2      12.963  -7.575 -11.627  1.00 34.31 LIG 0.61  N 
BRANCH 6 8
ATOM      8  CB  ASP E   2      12.018  -9.859 -11.780  1.00 36.18 LIG 0.16  C 
BRANCH 8 9
ATOM      9  CG  ASP E   2      12.346 -10.089 -10.300  1.00 38.13 LIG 0.17  C 
ATOM     10 OD1  ASP E   2      12.461  -9.096  -9.545  1.00 37.90 LIG-0.65  OA
ATOM     11 OD2  ASP E   2      12.461 -11.265  -9.884  1.00 38.42 LIG-0.65  OA
ENDBRANCH 8 9
ENDBRANCH 6 8
ENDBRANCH 3 6
ENDBRANCH 1 2
BRANCH 1 12
ATOM     12  C   LEU E   3       8.273  -5.181 -12.108  1.00 28.32 LIG 0.24  C 
ATOM     13  N   PHE E   4       8.952  -4.355 -12.902  1.00 27.78 LIG-0.34  N 
ATOM     14 H    PHE E   4       9.807  -4.267 -12.869  1.00 27.78 LIG 0.16  HD
ATOM     15 O    LEU E   3       7.059  -5.371 -12.203  1.00 27.38 LIG-0.27  OA
BRANCH 13 16
ATOM     16  CA  PHE E   4       8.314  -3.512 -13.914  1.00 27.92 LIG 0.19  C 
BRANCH 16 17
ATOM     17  C   PHE E   4       9.023  -3.677 -15.259  1.00 28.33 LIG 0.20  C 
ATOM     18 OXT  PHE E   4       9.001  -4.747 -15.861  1.00 30.35 LIG-0.65  OA
ATOM     19 O    PHE E   4       9.615  -2.737 -15.789  1.00 28.81 LIG-0.65  OA
ENDBRANCH 16 17
BRANCH 16 20
ATOM     20  CB  PHE E   4       8.337  -2.032 -13.492  1.00 27.18 LIG 0.07  C 
BRANCH 20 21
ATOM     21  CG  PHE E   4       7.553  -1.745 -12.238  1.00 26.64 LIG-0.06  A 
ATOM     22  CD1 PHE E   4       7.961  -2.258 -11.005  1.00 26.73 LIG 0.01  A 
ATOM     23  CE1 PHE E   4       7.233  -1.999  -9.851  1.00 26.26 LIG 0.00  A 
ATOM     24  CZ  PHE E   4       6.086  -1.221  -9.925  1.00 25.93 LIG 0.00  A 
ATOM     25  CE2 PHE E   4       5.666  -0.711 -11.147  1.00 25.36 LIG 0.00  A 
ATOM     26  CD2 PHE E   4       6.398  -0.971 -12.293  1.00 26.03 LIG 0.01  A 
ENDBRANCH 20 21
ENDBRANCH 16 20
ENDBRANCH 13 16
ENDBRANCH 1 12
BRANCH 1 27
ATOM     27  CB  LEU E   3       9.461  -4.895  -9.925  1.00 28.15 LIG 0.04  C 
BRANCH 27 28
ATOM     28  CG  LEU E   3      10.928  -4.684  -9.541  1.00 27.57 LIG-0.02  C 
ATOM     29  CD2 LEU E   3      11.336  -5.589  -8.388  1.00 27.08 LIG 0.01  C 
ATOM     30  CD1 LEU E   3      11.179  -3.229  -9.175  1.00 27.26 LIG 0.01  C 
ENDBRANCH 27 28
ENDBRANCH 1 27
TORSDOF 11
ENDMDL
MODEL 61
USER: ADFR SOLUTION from run 134
USER: SCORE 9.599039 LL:  -2.467 LR:  -7.330 RR:   0.000 FEB:  -4.048
USER: RMSD 6.604179
USER: SEED 133
USER: STATUS no improvement in best in 29 clusters for 5 generations
USER: GENES 13
USER: genes 0 Translation |==|  0.61803 0.42491 0.57523
USER: genes 1 Rotation |==|  0.42158 0.90309 0.63282 0.75244
USER: genes 2 Torsion [C]-CA--N-[C] |==|  0.58320
USER: genes 3 Torsion [N]-C--CA-[N] |==|  0.60668
USER: genes 4 Torsion [C]-CA--CB-[CG] |==|  0.77538
USER: genes 5 Torsion [CA]-CB--CG-[OD1] |==|  0.83922
USER: genes 6 Torsion [N]-CA--C-[N] |==|  0.47727
USER: genes 7 Torsion [C]-N--CA-[C] |==|  0.64863
USER: genes 8 Torsion [N]-CA--C-[OXT] |==|  0.43537
USER: genes 9 Torsion [N]-CA--CB-[CG] |==|  0.31978
USER: genes 10 Torsion [CA]-CB--CG-[CD1] |==|  0.75242
USER: genes 11 Torsion [N]-CA--CB-[CG] |==|  0.72416
USER: genes 12 Torsion [CA]-CB--CG-[CD2] |==|  0.69214
ROOT
ATOM      1  CA  LEU E   3      10.195  -6.585  -9.978  1.00 28.46 LIG 0.18  C 
ENDROOT
BRANCH 1 2
ATOM      2  N   LEU E   3      11.512  -7.221  -9.797  1.00 30.36 LIG-0.35  N 
ATOM      3  C   ASP E   2      12.138  -7.254  -8.617  1.00 32.94 LIG 0.26  C 
ATOM      4 O    ASP E   2      11.679  -6.729  -7.593  1.00 32.35 LIG-0.27  OA
ATOM      5 H    LEU E   3      11.836  -7.564 -10.516  1.00 30.36 LIG 0.16  HD
BRANCH 3 6
ATOM      6  CA  ASP E   2      13.487  -7.979  -8.574  1.00 34.24 LIG 0.41  C 
ATOM      7  N   ASP E   2      13.587  -8.722  -7.287  1.00 34.31 LIG 0.61  N 
BRANCH 6 8
ATOM      8  CB  ASP E   2      13.612  -8.952  -9.753  1.00 36.18 LIG 0.16  C 
BRANCH 8 9
ATOM      9  CG  ASP E   2      12.890 -10.282  -9.510  1.00 38.13 LIG 0.17  C 
ATOM     10 OD1  ASP E   2      13.211 -10.972  -8.514  1.00 37.90 LIG-0.65  OA
ATOM     11 OD2  ASP E   2      11.980 -10.626 -10.300  1.00 38.42 LIG-0.65  OA
ENDBRANCH 8 9
ENDBRANCH 6 8
ENDBRANCH 3 6
ENDBRANCH 1 2
BRANCH 1 12
ATOM     12  C   LEU E   3       9.375  -7.249 -11.088  1.00 28.32 LIG 0.24  C 
ATOM     13  N   PHE E   4       8.111  -6.843 -11.199  1.00 27.78 LIG-0.34  N 
ATOM     14 H    PHE E   4       7.779  -6.205 -10.728  1.00 27.78 LIG 0.16  HD
ATOM     15 O    LEU E   3       9.879  -8.108 -11.813  1.00 27.38 LIG-0.27  OA
BRANCH 13 16
ATOM     16  CA  PHE E   4       7.157  -7.442 -12.132  1.00 27.92 LIG 0.19  C 
BRANCH 16 17
ATOM     17  C   PHE E   4       6.525  -6.358 -13.006  1.00 28.33 LIG 0.20  C 
ATOM     18 OXT  PHE E   4       6.042  -6.629 -14.103  1.00 30.35 LIG-0.65  OA
ATOM     19 O    PHE E   4       6.461  -5.189 -12.629  1.00 28.81 LIG-0.65  OA
ENDBRANCH 16 17
BRANCH 16 20
ATOM     20  CB  PHE E   4       6.056  -8.209 -11.378  1.00 27.18 LIG 0.07  C 
BRANCH 20 21
ATOM     21  CG  PHE E   4       4.680  -7.619 -11.547  1.00 26.64 LIG-0.06  A 
ATOM     22  CD1 PHE E   4       4.211  -6.634 -10.675  1.00 26.73 LIG 0.01  A 
ATOM     23  CE1 PHE E   4       2.940  -6.096 -10.828  1.00 26.26 LIG 0.00  A 
ATOM     24  CZ  PHE E   4       2.126  -6.544 -11.859  1.00 25.93 LIG 0.00  A 
ATOM     25  CE2 PHE E   4       2.578  -7.528 -12.728  1.00 25.36 LIG 0.00  A 
ATOM     26  CD2 PHE E   4       3.848  -8.058 -12.571  1.00 26.03 LIG 0.01  A 
ENDBRANCH 20 21
ENDBRANCH 16 20
ENDBRANCH 13 16
ENDBRANCH 1 12
BRANCH 1 27
ATOM     27  CB  LEU E   3      10.349  -5.088 -10.290  1.00 28.15 LIG 0.04  C 
BRANCH 27 28
ATOM     28  CG  LEU E   3      10.167  -4.052  -9.177  1.00 27.57 LIG-0.02  C 
ATOM     29  CD2 LEU E   3       8.902  -3.232  -9.383  1.00 27.08 LIG 0.01  C 
ATOM     30  CD1 LEU E   3      11.378  -3.132  -9.102  1.00 27.26 LIG 0.01  C 
ENDBRANCH 27 28
ENDBRANCH 1 27
TORSDOF 11
ENDMDL
MODEL 62
USER: ADFR SOLUTION from run 111
USER: SCORE 10.282180 LL:  -3.006 LR:  -7.300 RR:   0.000 FEB:  -4.019
USER: RMSD 6.533889
USER: SEED 110
USER: STATUS searching
USER: GENES 13
USER: genes 0 Translation |==|  0.71673 0.48260 0.45485
USER: genes 1 Rotation |==|  0.40064 0.24053 0.08495 0.47679
USER: genes 2 Torsion [C]-CA--N-[C] |==|  0.78820
USER: genes 3 Torsion [N]-C--CA-[N] |==|  0.86898
USER: genes 4 Torsion [C]-CA--CB-[CG] |==|  0.81869
USER: genes 5 Torsion [CA]-CB--CG-[OD1] |==|  0.91272
USER: genes 6 Torsion [N]-CA--C-[N] |==|  0.97230
USER: genes 7 Torsion [C]-N--CA-[C] |==|  0.70991
USER: genes 8 Torsion [N]-CA--C-[OXT] |==|  0.88556
USER: genes 9 Torsion [N]-CA--CB-[CG] |==|  0.72479
USER: genes 10 Torsion [CA]-CB--CG-[CD1] |==|  0.60992
USER: genes 11 Torsion [N]-CA--CB-[CG] |==|  0.33361
USER: genes 12 Torsion [CA]-CB--CG-[CD2] |==|  0.68966
ROOT
ATOM      1  CA  LEU E   3      11.749  -5.633 -11.693  1.00 28.46 LIG 0.18  C 
ENDROOT
BRANCH 1 2
ATOM      2  N   LEU E   3      12.490  -4.876 -12.718  1.00 30.36 LIG-0.35  N 
ATOM      3  C   ASP E   2      12.670  -5.335 -13.960  1.00 32.94 LIG 0.26  C 
ATOM      4 O    ASP E   2      12.259  -6.440 -14.339  1.00 32.35 LIG-0.27  OA
ATOM      5 H    LEU E   3      12.792  -4.119 -12.443  1.00 30.36 LIG 0.16  HD
BRANCH 3 6
ATOM      6  CA  ASP E   2      13.433  -4.423 -14.926  1.00 34.24 LIG 0.41  C 
ATOM      7  N   ASP E   2      12.873  -3.047 -14.823  1.00 34.31 LIG 0.61  N 
BRANCH 6 8
ATOM      8  CB  ASP E   2      14.927  -4.407 -14.585  1.00 36.18 LIG 0.16  C 
BRANCH 8 9
ATOM      9  CG  ASP E   2      15.223  -3.781 -13.217  1.00 38.13 LIG 0.17  C 
ATOM     10 OD1  ASP E   2      14.475  -2.868 -12.796  1.00 37.90 LIG-0.65  OA
ATOM     11 OD2  ASP E   2      16.187  -4.221 -12.549  1.00 38.42 LIG-0.65  OA
ENDBRANCH 8 9
ENDBRANCH 6 8
ENDBRANCH 3 6
ENDBRANCH 1 2
BRANCH 1 12
ATOM     12  C   LEU E   3      10.234  -5.571 -11.905  1.00 28.32 LIG 0.24  C 
ATOM     13  N   PHE E   4       9.811  -4.701 -12.821  1.00 27.78 LIG-0.34  N 
ATOM     14 H    PHE E   4      10.343  -4.244 -13.317  1.00 27.78 LIG 0.16  HD
ATOM     15 O    LEU E   3       9.478  -6.287 -11.247  1.00 27.38 LIG-0.27  OA
BRANCH 13 16
ATOM     16  CA  PHE E   4       8.395  -4.436 -13.079  1.00 27.92 LIG 0.19  C 
BRANCH 16 17
ATOM     17  C   PHE E   4       7.960  -5.116 -14.377  1.00 28.33 LIG 0.20  C 
ATOM     18 OXT  PHE E   4       8.683  -5.112 -15.370  1.00 30.35 LIG-0.65  OA
ATOM     19 O    PHE E   4       6.884  -5.708 -14.459  1.00 28.81 LIG-0.65  OA
ENDBRANCH 16 17
BRANCH 16 20
ATOM     20  CB  PHE E   4       8.126  -2.923 -13.170  1.00 27.18 LIG 0.07  C 
BRANCH 20 21
ATOM     21  CG  PHE E   4       7.573  -2.326 -11.902  1.00 26.64 LIG-0.06  A 
ATOM     22  CD1 PHE E   4       6.574  -1.351 -11.946  1.00 26.73 LIG 0.01  A 
ATOM     23  CE1 PHE E   4       6.070  -0.798 -10.777  1.00 26.26 LIG 0.00  A 
ATOM     24  CZ  PHE E   4       6.566  -1.217  -9.550  1.00 25.93 LIG 0.00  A 
ATOM     25  CE2 PHE E   4       7.564  -2.180  -9.494  1.00 25.36 LIG 0.00  A 
ATOM     26  CD2 PHE E   4       8.061  -2.730 -10.663  1.00 26.03 LIG 0.01  A 
ENDBRANCH 20 21
ENDBRANCH 16 20
ENDBRANCH 13 16
ENDBRANCH 1 12
BRANCH 1 27
ATOM     27  CB  LEU E   3      12.085  -5.118 -10.284  1.00 28.15 LIG 0.04  C 
BRANCH 27 28
ATOM     28  CG  LEU E   3      10.975  -4.560  -9.389  1.00 27.57 LIG-0.02  C 
ATOM     29  CD2 LEU E   3      11.134  -3.062  -9.176  1.00 27.08 LIG 0.01  C 
ATOM     30  CD1 LEU E   3      10.961  -5.278  -8.048  1.00 27.26 LIG 0.01  C 
ENDBRANCH 27 28
ENDBRANCH 1 27
TORSDOF 11
ENDMDL
MODEL 63
USER: ADFR SOLUTION from run 67
USER: SCORE 10.091923 LL:  -3.076 LR:  -7.295 RR:   0.000 FEB:  -4.014
USER: RMSD 6.986476
USER: SEED 66
USER: STATUS no improvement in best in 15 clusters for 5 generations
USER: GENES 13
USER: genes 0 Translation |==|  0.55622 0.60408 0.31253
USER: genes 1 Rotation |==|  0.22426 0.39597 0.10374 0.57826
USER: genes 2 Torsion [C]-CA--N-[C] |==|  0.72938
USER: genes 3 Torsion [N]-C--CA-[N] |==|  0.40762
USER: genes 4 Torsion [C]-CA--CB-[CG] |==|  0.70878
USER: genes 5 Torsion [CA]-CB--CG-[OD1] |==|  0.82417
USER: genes 6 Torsion [N]-CA--C-[N] |==|  0.88703
USER: genes 7 Torsion [C]-N--CA-[C] |==|  0.65415
USER: genes 8 Torsion [N]-CA--C-[OXT] |==|  0.03578
USER: genes 9 Torsion [N]-CA--CB-[CG] |==|  0.91567
USER: genes 10 Torsion [CA]-CB--CG-[CD1] |==|  0.33288
USER: genes 11 Torsion [N]-CA--CB-[CG] |==|  0.87481
USER: genes 12 Torsion [CA]-CB--CG-[CD2] |==|  0.83953
ROOT
ATOM      1  CA  LEU E   3       9.221  -3.629 -13.721  1.00 28.46 LIG 0.18  C 
ENDROOT
BRANCH 1 2
ATOM      2  N   LEU E   3       9.355  -2.355 -14.449  1.00 30.36 LIG-0.35  N 
ATOM      3  C   ASP E   2       8.828  -2.160 -15.661  1.00 32.94 LIG 0.26  C 
ATOM      4 O    ASP E   2       8.214  -3.040 -16.281  1.00 32.35 LIG-0.27  OA
ATOM      5 H    LEU E   3       9.801  -1.754 -14.024  1.00 30.36 LIG 0.16  HD
BRANCH 3 6
ATOM      6  CA  ASP E   2       9.020  -0.773 -16.281  1.00 34.24 LIG 0.41  C 
ATOM      7  N   ASP E   2       9.145  -0.924 -17.757  1.00 34.31 LIG 0.61  N 
BRANCH 6 8
ATOM      8  CB  ASP E   2       7.830   0.135 -15.945  1.00 36.18 LIG 0.16  C 
BRANCH 8 9
ATOM      9  CG  ASP E   2       6.882   0.342 -17.132  1.00 38.13 LIG 0.17  C 
ATOM     10 OD1  ASP E   2       7.313   0.918 -18.158  1.00 37.90 LIG-0.65  OA
ATOM     11 OD2  ASP E   2       5.711  -0.096 -17.050  1.00 38.42 LIG-0.65  OA
ENDBRANCH 8 9
ENDBRANCH 6 8
ENDBRANCH 3 6
ENDBRANCH 1 2
BRANCH 1 12
ATOM     12  C   LEU E   3       8.078  -3.601 -12.704  1.00 28.32 LIG 0.24  C 
ATOM     13  N   PHE E   4       7.946  -2.473 -12.008  1.00 27.78 LIG-0.34  N 
ATOM     14 H    PHE E   4       8.423  -1.773 -12.153  1.00 27.78 LIG 0.16  HD
ATOM     15 O    LEU E   3       7.345  -4.581 -12.555  1.00 27.38 LIG-0.27  OA
BRANCH 13 16
ATOM     16  CA  PHE E   4       6.977  -2.309 -10.924  1.00 27.92 LIG 0.19  C 
BRANCH 16 17
ATOM     17  C   PHE E   4       6.080  -1.101 -11.198  1.00 28.33 LIG 0.20  C 
ATOM     18 OXT  PHE E   4       6.060  -0.563 -12.302  1.00 30.35 LIG-0.65  OA
ATOM     19 O    PHE E   4       5.336  -0.647 -10.330  1.00 28.81 LIG-0.65  OA
ENDBRANCH 16 17
BRANCH 16 20
ATOM     20  CB  PHE E   4       7.689  -2.132  -9.571  1.00 27.18 LIG 0.07  C 
BRANCH 20 21
ATOM     21  CG  PHE E   4       9.014  -2.842  -9.484  1.00 26.64 LIG-0.06  A 
ATOM     22  CD1 PHE E   4      10.193  -2.131  -9.248  1.00 26.73 LIG 0.01  A 
ATOM     23  CE1 PHE E   4      11.415  -2.786  -9.175  1.00 26.26 LIG 0.00  A 
ATOM     24  CZ  PHE E   4      11.466  -4.163  -9.340  1.00 25.93 LIG 0.00  A 
ATOM     25  CE2 PHE E   4      10.302  -4.880  -9.582  1.00 25.36 LIG 0.00  A 
ATOM     26  CD2 PHE E   4       9.086  -4.221  -9.650  1.00 26.03 LIG 0.01  A 
ENDBRANCH 20 21
ENDBRANCH 16 20
ENDBRANCH 13 16
ENDBRANCH 1 12
BRANCH 1 27
ATOM     27  CB  LEU E   3      10.531  -3.986 -13.000  1.00 28.15 LIG 0.04  C 
BRANCH 27 28
ATOM     28  CG  LEU E   3      11.870  -3.846 -13.731  1.00 27.57 LIG-0.02  C 
ATOM     29  CD2 LEU E   3      11.899  -4.682 -15.002  1.00 27.08 LIG 0.01  C 
ATOM     30  CD1 LEU E   3      13.020  -4.246 -12.818  1.00 27.26 LIG 0.01  C 
ENDBRANCH 27 28
ENDBRANCH 1 27
TORSDOF 11
ENDMDL
MODEL 64
USER: ADFR SOLUTION from run 43
USER: SCORE 9.862901 LL:  -2.593 LR:  -7.282 RR:   0.000 FEB:  -4.000
USER: RMSD 3.487265
USER: SEED 42
USER: STATUS no improvement in best in 15 clusters for 5 generations
USER: GENES 13
USER: genes 0 Translation |==|  0.54838 0.52684 0.45402
USER: genes 1 Rotation |==|  0.40700 0.27759 0.50366 0.93803
USER: genes 2 Torsion [C]-CA--N-[C] |==|  0.76566
USER: genes 3 Torsion [N]-C--CA-[N] |==|  0.55289
USER: genes 4 Torsion [C]-CA--CB-[CG] |==|  0.81403
USER: genes 5 Torsion [CA]-CB--CG-[OD1] |==|  0.51528
USER: genes 6 Torsion [N]-CA--C-[N] |==|  0.99850
USER: genes 7 Torsion [C]-N--CA-[C] |==|  0.19749
USER: genes 8 Torsion [N]-CA--C-[OXT] |==|  0.98679
USER: genes 9 Torsion [N]-CA--CB-[CG] |==|  0.64789
USER: genes 10 Torsion [CA]-CB--CG-[CD1] |==|  0.09816
USER: genes 11 Torsion [N]-CA--CB-[CG] |==|  0.23311
USER: genes 12 Torsion [CA]-CB--CG-[CD2] |==|  0.60599
ROOT
ATOM      1  CA  LEU E   3       9.098  -4.903 -11.705  1.00 28.46 LIG 0.18  C 
ENDROOT
BRANCH 1 2
ATOM      2  N   LEU E   3       8.056  -5.942 -11.626  1.00 30.36 LIG-0.35  N 
ATOM      3  C   ASP E   2       8.076  -7.041 -12.385  1.00 32.94 LIG 0.26  C 
ATOM      4 O    ASP E   2       8.951  -7.259 -13.234  1.00 32.35 LIG-0.27  OA
ATOM      5 H    LEU E   3       7.439  -5.774 -11.050  1.00 30.36 LIG 0.16  HD
BRANCH 3 6
ATOM      6  CA  ASP E   2       6.943  -8.048 -12.169  1.00 34.24 LIG 0.41  C 
ATOM      7  N   ASP E   2       7.363  -9.363 -12.726  1.00 34.31 LIG 0.61  N 
BRANCH 6 8
ATOM      8  CB  ASP E   2       6.626  -8.188 -10.675  1.00 36.18 LIG 0.16  C 
BRANCH 8 9
ATOM      9  CG  ASP E   2       7.767  -8.833  -9.879  1.00 38.13 LIG 0.17  C 
ATOM     10 OD1  ASP E   2       7.586  -9.096  -8.667  1.00 37.90 LIG-0.65  OA
ATOM     11 OD2  ASP E   2       8.838  -9.102 -10.472  1.00 38.42 LIG-0.65  OA
ENDBRANCH 8 9
ENDBRANCH 6 8
ENDBRANCH 3 6
ENDBRANCH 1 2
BRANCH 1 12
ATOM     12  C   LEU E   3      10.319  -5.236 -10.844  1.00 28.32 LIG 0.24  C 
ATOM     13  N   PHE E   4      10.255  -6.379 -10.161  1.00 27.78 LIG-0.34  N 
ATOM     14 H    PHE E   4       9.604  -6.936 -10.238  1.00 27.78 LIG 0.16  HD
ATOM     15 O    LEU E   3      11.284  -4.472 -10.800  1.00 27.38 LIG-0.27  OA
BRANCH 13 16
ATOM     16  CA  PHE E   4      11.283  -6.803  -9.211  1.00 27.92 LIG 0.19  C 
BRANCH 16 17
ATOM     17  C   PHE E   4      11.231  -5.931  -7.956  1.00 28.33 LIG 0.20  C 
ATOM     18 OXT  PHE E   4      10.468  -4.971  -7.881  1.00 30.35 LIG-0.65  OA
ATOM     19 O    PHE E   4      11.933  -6.178  -6.976  1.00 28.81 LIG-0.65  OA
ENDBRANCH 16 17
BRANCH 16 20
ATOM     20  CB  PHE E   4      12.684  -6.720  -9.843  1.00 27.18 LIG 0.07  C 
BRANCH 20 21
ATOM     21  CG  PHE E   4      13.472  -8.001  -9.746  1.00 26.64 LIG-0.06  A 
ATOM     22  CD1 PHE E   4      12.836  -9.241  -9.840  1.00 26.73 LIG 0.01  A 
ATOM     23  CE1 PHE E   4      13.562 -10.420  -9.744  1.00 26.26 LIG 0.00  A 
ATOM     24  CZ  PHE E   4      14.935 -10.367  -9.550  1.00 25.93 LIG 0.00  A 
ATOM     25  CE2 PHE E   4      15.577  -9.139  -9.448  1.00 25.36 LIG 0.00  A 
ATOM     26  CD2 PHE E   4      14.848  -7.967  -9.548  1.00 26.03 LIG 0.01  A 
ENDBRANCH 20 21
ENDBRANCH 16 20
ENDBRANCH 13 16
ENDBRANCH 1 12
BRANCH 1 27
ATOM     27  CB  LEU E   3       8.540  -3.535 -11.283  1.00 28.15 LIG 0.04  C 
BRANCH 27 28
ATOM     28  CG  LEU E   3       8.477  -3.159  -9.799  1.00 27.57 LIG-0.02  C 
ATOM     29  CD2 LEU E   3       7.211  -2.379  -9.477  1.00 27.08 LIG 0.01  C 
ATOM     30  CD1 LEU E   3       9.703  -2.348  -9.403  1.00 27.26 LIG 0.01  C 
ENDBRANCH 27 28
ENDBRANCH 1 27
TORSDOF 11
ENDMDL
MODEL 65
USER: ADFR SOLUTION from run 54
USER: SCORE 10.224407 LL:  -2.963 LR:  -7.281 RR:   0.000 FEB:  -3.999
USER: RMSD 5.594775
USER: SEED 53
USER: STATUS no improvement in best in 16 clusters for 5 generations
USER: GENES 13
USER: genes 0 Translation |==|  0.51866 0.64313 0.42306
USER: genes 1 Rotation |==|  0.74641 0.18091 0.32576 0.73897
USER: genes 2 Torsion [C]-CA--N-[C] |==|  0.84998
USER: genes 3 Torsion [N]-C--CA-[N] |==|  0.88868
USER: genes 4 Torsion [C]-CA--CB-[CG] |==|  0.73406
USER: genes 5 Torsion [CA]-CB--CG-[OD1] |==|  0.70428
USER: genes 6 Torsion [N]-CA--C-[N] |==|  0.37656
USER: genes 7 Torsion [C]-N--CA-[C] |==|  0.68948
USER: genes 8 Torsion [N]-CA--C-[OXT] |==|  0.84568
USER: genes 9 Torsion [N]-CA--CB-[CG] |==|  0.83049
USER: genes 10 Torsion [CA]-CB--CG-[CD1] |==|  0.38611
USER: genes 11 Torsion [N]-CA--CB-[CG] |==|  0.63513
USER: genes 12 Torsion [CA]-CB--CG-[CD2] |==|  0.27299
ROOT
ATOM      1  CA  LEU E   3       8.630  -2.984 -12.146  1.00 28.46 LIG 0.18  C 
ENDROOT
BRANCH 1 2
ATOM      2  N   LEU E   3       8.512  -2.586 -13.560  1.00 30.36 LIG-0.35  N 
ATOM      3  C   ASP E   2       9.552  -2.596 -14.399  1.00 32.94 LIG 0.26  C 
ATOM      4 O    ASP E   2      10.699  -2.909 -14.050  1.00 32.35 LIG-0.27  OA
ATOM      5 H    LEU E   3       7.719  -2.349 -13.791  1.00 30.36 LIG 0.16  HD
BRANCH 3 6
ATOM      6  CA  ASP E   2       9.272  -2.188 -15.848  1.00 34.24 LIG 0.41  C 
ATOM      7  N   ASP E   2       7.967  -2.773 -16.263  1.00 34.31 LIG 0.61  N 
BRANCH 6 8
ATOM      8  CB  ASP E   2       9.226  -0.661 -15.977  1.00 36.18 LIG 0.16  C 
BRANCH 8 9
ATOM      9  CG  ASP E   2       7.803  -0.096 -15.904  1.00 38.13 LIG 0.17  C 
ATOM     10 OD1  ASP E   2       7.264   0.324 -16.955  1.00 37.90 LIG-0.65  OA
ATOM     11 OD2  ASP E   2       7.211  -0.096 -14.800  1.00 38.42 LIG-0.65  OA
ENDBRANCH 8 9
ENDBRANCH 6 8
ENDBRANCH 3 6
ENDBRANCH 1 2
BRANCH 1 12
ATOM     12  C   LEU E   3       9.247  -4.376 -11.982  1.00 28.32 LIG 0.24  C 
ATOM     13  N   PHE E   4      10.178  -4.491 -11.037  1.00 27.78 LIG-0.34  N 
ATOM     14 H    PHE E   4      10.386  -3.851 -10.501  1.00 27.78 LIG 0.16  HD
ATOM     15 O    LEU E   3       8.889  -5.310 -12.701  1.00 27.38 LIG-0.27  OA
BRANCH 13 16
ATOM     16  CA  PHE E   4      10.945  -5.717 -10.813  1.00 27.92 LIG 0.19  C 
BRANCH 16 17
ATOM     17  C   PHE E   4      10.557  -6.343  -9.473  1.00 28.33 LIG 0.20  C 
ATOM     18 OXT  PHE E   4      10.629  -5.701  -8.427  1.00 30.35 LIG-0.65  OA
ATOM     19 O    PHE E   4      10.139  -7.498  -9.403  1.00 28.81 LIG-0.65  OA
ENDBRANCH 16 17
BRANCH 16 20
ATOM     20  CB  PHE E   4      12.458  -5.432 -10.835  1.00 27.18 LIG 0.07  C 
BRANCH 20 21
ATOM     21  CG  PHE E   4      12.953  -4.877 -12.145  1.00 26.64 LIG-0.06  A 
ATOM     22  CD1 PHE E   4      13.895  -3.846 -12.175  1.00 26.73 LIG 0.01  A 
ATOM     23  CE1 PHE E   4      14.345  -3.331 -13.383  1.00 26.26 LIG 0.00  A 
ATOM     24  CZ  PHE E   4      13.853  -3.845 -14.574  1.00 25.93 LIG 0.00  A 
ATOM     25  CE2 PHE E   4      12.911  -4.865 -14.557  1.00 25.36 LIG 0.00  A 
ATOM     26  CD2 PHE E   4      12.468  -5.377 -13.348  1.00 26.03 LIG 0.01  A 
ENDBRANCH 20 21
ENDBRANCH 16 20
ENDBRANCH 13 16
ENDBRANCH 1 12
BRANCH 1 27
ATOM     27  CB  LEU E   3       7.257  -2.955 -11.454  1.00 28.15 LIG 0.04  C 
BRANCH 27 28
ATOM     28  CG  LEU E   3       7.096  -2.249 -10.105  1.00 27.57 LIG-0.02  C 
ATOM     29  CD2 LEU E   3       6.531  -0.847 -10.276  1.00 27.08 LIG 0.01  C 
ATOM     30  CD1 LEU E   3       8.428  -2.189  -9.372  1.00 27.26 LIG 0.01  C 
ENDBRANCH 27 28
ENDBRANCH 1 27
TORSDOF 11
ENDMDL
MODEL 66
USER: ADFR SOLUTION from run 186
USER: SCORE 9.741905 LL:  -2.550 LR:  -7.277 RR:   0.000 FEB:  -3.996
USER: RMSD 6.433640
USER: SEED 185
USER: STATUS no improvement in best in 15 clusters for 5 generations
USER: GENES 13
USER: genes 0 Translation |==|  0.62907 0.54932 0.55693
USER: genes 1 Rotation |==|  0.79386 0.55282 0.18359 0.74645
USER: genes 2 Torsion [C]-CA--N-[C] |==|  0.73474
USER: genes 3 Torsion [N]-C--CA-[N] |==|  0.50859
USER: genes 4 Torsion [C]-CA--CB-[CG] |==|  0.67440
USER: genes 5 Torsion [CA]-CB--CG-[OD1] |==|  0.35762
USER: genes 6 Torsion [N]-CA--C-[N] |==|  0.96111
USER: genes 7 Torsion [C]-N--CA-[C] |==|  0.14188
USER: genes 8 Torsion [N]-CA--C-[OXT] |==|  0.61558
USER: genes 9 Torsion [N]-CA--CB-[CG] |==|  0.73145
USER: genes 10 Torsion [CA]-CB--CG-[CD1] |==|  0.15190
USER: genes 11 Torsion [N]-CA--CB-[CG] |==|  0.64213
USER: genes 12 Torsion [CA]-CB--CG-[CD2] |==|  0.59938
ROOT
ATOM      1  CA  LEU E   3      10.369  -4.532 -10.239  1.00 28.46 LIG 0.18  C 
ENDROOT
BRANCH 1 2
ATOM      2  N   LEU E   3       9.038  -3.965  -9.963  1.00 30.36 LIG-0.35  N 
ATOM      3  C   ASP E   2       8.854  -2.677  -9.657  1.00 32.94 LIG 0.26  C 
ATOM      4 O    ASP E   2       9.786  -1.868  -9.550  1.00 32.35 LIG-0.27  OA
ATOM      5 H    LEU E   3       8.396  -4.535 -10.016  1.00 30.36 LIG 0.16  HD
BRANCH 3 6
ATOM      6  CA  ASP E   2       7.409  -2.223  -9.427  1.00 34.24 LIG 0.41  C 
ATOM      7  N   ASP E   2       7.407  -0.756  -9.175  1.00 34.31 LIG 0.61  N 
BRANCH 6 8
ATOM      8  CB  ASP E   2       6.544  -2.547 -10.651  1.00 36.18 LIG 0.16  C 
BRANCH 8 9
ATOM      9  CG  ASP E   2       5.967  -1.296 -11.323  1.00 38.13 LIG 0.17  C 
ATOM     10 OD1  ASP E   2       6.119  -1.148 -12.559  1.00 37.90 LIG-0.65  OA
ATOM     11 OD2  ASP E   2       5.336  -0.471 -10.622  1.00 38.42 LIG-0.65  OA
ENDBRANCH 8 9
ENDBRANCH 6 8
ENDBRANCH 3 6
ENDBRANCH 1 2
BRANCH 1 12
ATOM     12  C   LEU E   3      10.685  -4.575 -11.736  1.00 28.32 LIG 0.24  C 
ATOM     13  N   PHE E   4       9.650  -4.385 -12.554  1.00 27.78 LIG-0.34  N 
ATOM     14 H    PHE E   4       8.861  -4.186 -12.276  1.00 27.78 LIG 0.16  HD
ATOM     15 O    LEU E   3      11.833  -4.782 -12.130  1.00 27.38 LIG-0.27  OA
BRANCH 13 16
ATOM     16  CA  PHE E   4       9.749  -4.496 -14.010  1.00 27.92 LIG 0.19  C 
BRANCH 16 17
ATOM     17  C   PHE E   4      10.410  -5.821 -14.392  1.00 28.33 LIG 0.20  C 
ATOM     18 OXT  PHE E   4      11.244  -5.878 -15.293  1.00 30.35 LIG-0.65  OA
ATOM     19 O    PHE E   4      10.145  -6.864 -13.795  1.00 28.81 LIG-0.65  OA
ENDBRANCH 16 17
BRANCH 16 20
ATOM     20  CB  PHE E   4      10.556  -3.324 -14.598  1.00 27.18 LIG 0.07  C 
BRANCH 20 21
ATOM     21  CG  PHE E   4       9.701  -2.195 -15.111  1.00 26.64 LIG-0.06  A 
ATOM     22  CD1 PHE E   4       8.753  -1.584 -14.288  1.00 26.73 LIG 0.01  A 
ATOM     23  CE1 PHE E   4       7.961  -0.548 -14.764  1.00 26.26 LIG 0.00  A 
ATOM     24  CZ  PHE E   4       8.113  -0.115 -16.074  1.00 25.93 LIG 0.00  A 
ATOM     25  CE2 PHE E   4       9.048  -0.720 -16.904  1.00 25.36 LIG 0.00  A 
ATOM     26  CD2 PHE E   4       9.836  -1.750 -16.422  1.00 26.03 LIG 0.01  A 
ENDBRANCH 20 21
ENDBRANCH 16 20
ENDBRANCH 13 16
ENDBRANCH 1 12
BRANCH 1 27
ATOM     27  CB  LEU E   3      10.491  -5.949  -9.655  1.00 28.15 LIG 0.04  C 
BRANCH 27 28
ATOM     28  CG  LEU E   3      11.683  -6.310  -8.765  1.00 27.57 LIG-0.02  C 
ATOM     29  CD2 LEU E   3      12.131  -7.746  -8.992  1.00 27.08 LIG 0.01  C 
ATOM     30  CD1 LEU E   3      11.336  -6.099  -7.298  1.00 27.26 LIG 0.01  C 
ENDBRANCH 27 28
ENDBRANCH 1 27
TORSDOF 11
ENDMDL
MODEL 67
USER: ADFR SOLUTION from run 111
USER: SCORE 9.567493 LL:  -2.768 LR:  -7.259 RR:   0.000 FEB:  -3.978
USER: RMSD 4.750942
USER: SEED 110
USER: STATUS searching
USER: GENES 13
USER: genes 0 Translation |==|  0.52012 0.57217 0.37612
USER: genes 1 Rotation |==|  0.19596 0.62219 0.35865 0.85022
USER: genes 2 Torsion [C]-CA--N-[C] |==|  0.75421
USER: genes 3 Torsion [N]-C--CA-[N] |==|  0.87665
USER: genes 4 Torsion [C]-CA--CB-[CG] |==|  0.06080
USER: genes 5 Torsion [CA]-CB--CG-[OD1] |==|  0.76529
USER: genes 6 Torsion [N]-CA--C-[N] |==|  0.08333
USER: genes 7 Torsion [C]-N--CA-[C] |==|  0.61419
USER: genes 8 Torsion [N]-CA--C-[OXT] |==|  0.13716
USER: genes 9 Torsion [N]-CA--CB-[CG] |==|  0.94675
USER: genes 10 Torsion [CA]-CB--CG-[CD1] |==|  0.29777
USER: genes 11 Torsion [N]-CA--CB-[CG] |==|  0.69294
USER: genes 12 Torsion [CA]-CB--CG-[CD2] |==|  0.58202
ROOT
ATOM      1  CA  LEU E   3       8.653  -4.155 -12.815  1.00 28.46 LIG 0.18  C 
ENDROOT
BRANCH 1 2
ATOM      2  N   LEU E   3       8.357  -3.374 -11.602  1.00 30.36 LIG-0.35  N 
ATOM      3  C   ASP E   2       7.166  -3.406 -10.998  1.00 32.94 LIG 0.26  C 
ATOM      4 O    ASP E   2       6.210  -4.067 -11.425  1.00 32.35 LIG-0.27  OA
ATOM      5 H    LEU E   3       9.018  -2.899 -11.322  1.00 30.36 LIG 0.16  HD
BRANCH 3 6
ATOM      6  CA  ASP E   2       7.016  -2.566  -9.726  1.00 34.24 LIG 0.41  C 
ATOM      7  N   ASP E   2       8.222  -2.770  -8.877  1.00 34.31 LIG 0.61  N 
BRANCH 6 8
ATOM      8  CB  ASP E   2       6.866  -1.081 -10.077  1.00 36.18 LIG 0.16  C 
BRANCH 8 9
ATOM      9  CG  ASP E   2       6.374  -0.852 -11.511  1.00 38.13 LIG 0.17  C 
ATOM     10 OD1  ASP E   2       7.211  -0.844 -12.443  1.00 37.90 LIG-0.65  OA
ATOM     11 OD2  ASP E   2       5.146  -0.706 -11.710  1.00 38.42 LIG-0.65  OA
ENDBRANCH 8 9
ENDBRANCH 6 8
ENDBRANCH 3 6
ENDBRANCH 1 2
BRANCH 1 12
ATOM     12  C   LEU E   3       9.171  -5.559 -12.492  1.00 28.32 LIG 0.24  C 
ATOM     13  N   PHE E   4       8.724  -6.097 -11.357  1.00 27.78 LIG-0.34  N 
ATOM     14 H    PHE E   4       8.134  -5.720 -10.859  1.00 27.78 LIG 0.16  HD
ATOM     15 O    LEU E   3       9.957  -6.129 -13.250  1.00 27.38 LIG-0.27  OA
BRANCH 13 16
ATOM     16  CA  PHE E   4       9.194  -7.383 -10.842  1.00 27.92 LIG 0.19  C 
BRANCH 16 17
ATOM     17  C   PHE E   4       8.019  -8.186 -10.283  1.00 28.33 LIG 0.20  C 
ATOM     18 OXT  PHE E   4       6.989  -8.340 -10.934  1.00 30.35 LIG-0.65  OA
ATOM     19 O    PHE E   4       8.079  -8.721  -9.177  1.00 28.81 LIG-0.65  OA
ENDBRANCH 16 17
BRANCH 16 20
ATOM     20  CB  PHE E   4      10.255  -7.182  -9.744  1.00 27.18 LIG 0.07  C 
BRANCH 20 21
ATOM     21  CG  PHE E   4      10.895  -5.818  -9.761  1.00 26.64 LIG-0.06  A 
ATOM     22  CD1 PHE E   4      10.591  -4.872  -8.780  1.00 26.73 LIG 0.01  A 
ATOM     23  CE1 PHE E   4      11.177  -3.614  -8.800  1.00 26.26 LIG 0.00  A 
ATOM     24  CZ  PHE E   4      12.075  -3.292  -9.808  1.00 25.93 LIG 0.00  A 
ATOM     25  CE2 PHE E   4      12.381  -4.222 -10.793  1.00 25.36 LIG 0.00  A 
ATOM     26  CD2 PHE E   4      11.795  -5.476 -10.765  1.00 26.03 LIG 0.01  A 
ENDBRANCH 20 21
ENDBRANCH 16 20
ENDBRANCH 13 16
ENDBRANCH 1 12
BRANCH 1 27
ATOM     27  CB  LEU E   3       9.681  -3.428 -13.697  1.00 28.15 LIG 0.04  C 
BRANCH 27 28
ATOM     28  CG  LEU E   3       9.251  -2.835 -15.042  1.00 27.57 LIG-0.02  C 
ATOM     29  CD2 LEU E   3      10.402  -2.824 -16.037  1.00 27.08 LIG 0.01  C 
ATOM     30  CD1 LEU E   3       8.712  -1.424 -14.855  1.00 27.26 LIG 0.01  C 
ENDBRANCH 27 28
ENDBRANCH 1 27
TORSDOF 11
ENDMDL
MODEL 68
USER: ADFR SOLUTION from run 44
USER: SCORE 9.702226 LL:  -2.581 LR:  -7.245 RR:   0.000 FEB:  -3.964
USER: RMSD 4.853842
USER: SEED 43
USER: STATUS no improvement in best in 15 clusters for 5 generations
USER: GENES 13
USER: genes 0 Translation |==|  0.51791 0.59072 0.53995
USER: genes 1 Rotation |==|  0.46308 0.67859 0.72976 0.90491
USER: genes 2 Torsion [C]-CA--N-[C] |==|  0.17764
USER: genes 3 Torsion [N]-C--CA-[N] |==|  0.84573
USER: genes 4 Torsion [C]-CA--CB-[CG] |==|  0.56801
USER: genes 5 Torsion [CA]-CB--CG-[OD1] |==|  0.44887
USER: genes 6 Torsion [N]-CA--C-[N] |==|  0.06885
USER: genes 7 Torsion [C]-N--CA-[C] |==|  0.79886
USER: genes 8 Torsion [N]-CA--C-[OXT] |==|  0.45514
USER: genes 9 Torsion [N]-CA--CB-[CG] |==|  0.73095
USER: genes 10 Torsion [CA]-CB--CG-[CD1] |==|  0.14819
USER: genes 11 Torsion [N]-CA--CB-[CG] |==|  0.59688
USER: genes 12 Torsion [CA]-CB--CG-[CD2] |==|  0.95987
ROOT
ATOM      1  CA  LEU E   3       8.618  -3.849 -10.481  1.00 28.46 LIG 0.18  C 
ENDROOT
BRANCH 1 2
ATOM      2  N   LEU E   3       9.562  -4.787  -9.848  1.00 30.36 LIG-0.35  N 
ATOM      3  C   ASP E   2      10.816  -4.445  -9.537  1.00 32.94 LIG 0.26  C 
ATOM      4 O    ASP E   2      11.292  -3.329  -9.781  1.00 32.35 LIG-0.27  OA
ATOM      5 H    LEU E   3       9.233  -5.568  -9.701  1.00 30.36 LIG 0.16  HD
BRANCH 3 6
ATOM      6  CA  ASP E   2      11.671  -5.516  -8.853  1.00 34.24 LIG 0.41  C 
ATOM      7  N   ASP E   2      10.962  -5.982  -7.630  1.00 34.31 LIG 0.61  N 
BRANCH 6 8
ATOM      8  CB  ASP E   2      11.913  -6.697  -9.801  1.00 36.18 LIG 0.16  C 
BRANCH 8 9
ATOM      9  CG  ASP E   2      12.214  -8.006  -9.062  1.00 38.13 LIG 0.17  C 
ATOM     10 OD1  ASP E   2      12.086  -9.091  -9.677  1.00 37.90 LIG-0.65  OA
ATOM     11 OD2  ASP E   2      12.604  -7.950  -7.873  1.00 38.42 LIG-0.65  OA
ENDBRANCH 8 9
ENDBRANCH 6 8
ENDBRANCH 3 6
ENDBRANCH 1 2
BRANCH 1 12
ATOM     12  C   LEU E   3       9.072  -3.419 -11.878  1.00 28.32 LIG 0.24  C 
ATOM     13  N   PHE E   4       9.882  -4.267 -12.513  1.00 27.78 LIG-0.34  N 
ATOM     14 H    PHE E   4      10.093  -5.039 -12.199  1.00 27.78 LIG 0.16  HD
ATOM     15 O    LEU E   3       8.702  -2.346 -12.357  1.00 27.38 LIG-0.27  OA
BRANCH 13 16
ATOM     16  CA  PHE E   4      10.494  -3.971 -13.808  1.00 27.92 LIG 0.19  C 
BRANCH 16 17
ATOM     17  C   PHE E   4       9.440  -4.031 -14.914  1.00 28.33 LIG 0.20  C 
ATOM     18 OXT  PHE E   4       9.651  -3.539 -16.020  1.00 30.35 LIG-0.65  OA
ATOM     19 O    PHE E   4       8.360  -4.592 -14.738  1.00 28.81 LIG-0.65  OA
ENDBRANCH 16 17
BRANCH 16 20
ATOM     20  CB  PHE E   4      11.630  -4.962 -14.119  1.00 27.18 LIG 0.07  C 
BRANCH 20 21
ATOM     21  CG  PHE E   4      13.001  -4.443 -13.771  1.00 26.64 LIG-0.06  A 
ATOM     22  CD1 PHE E   4      13.279  -3.956 -12.492  1.00 26.73 LIG 0.01  A 
ATOM     23  CE1 PHE E   4      14.541  -3.472 -12.175  1.00 26.26 LIG 0.00  A 
ATOM     24  CZ  PHE E   4      15.538  -3.471 -13.141  1.00 25.93 LIG 0.00  A 
ATOM     25  CE2 PHE E   4      15.272  -3.946 -14.419  1.00 25.36 LIG 0.00  A 
ATOM     26  CD2 PHE E   4      14.012  -4.430 -14.727  1.00 26.03 LIG 0.01  A 
ENDBRANCH 20 21
ENDBRANCH 16 20
ENDBRANCH 13 16
ENDBRANCH 1 12
BRANCH 1 27
ATOM     27  CB  LEU E   3       8.420  -2.600  -9.607  1.00 28.15 LIG 0.04  C 
BRANCH 27 28
ATOM     28  CG  LEU E   3       7.052  -1.914  -9.551  1.00 27.57 LIG-0.02  C 
ATOM     29  CD2 LEU E   3       6.145  -2.392 -10.675  1.00 27.08 LIG 0.01  C 
ATOM     30  CD1 LEU E   3       7.211  -0.402  -9.617  1.00 27.26 LIG 0.01  C 
ENDBRANCH 27 28
ENDBRANCH 1 27
TORSDOF 11
ENDMDL
MODEL 69
USER: ADFR SOLUTION from run 174
USER: SCORE 10.033672 LL:  -3.137 LR:  -7.245 RR:   0.000 FEB:  -3.963
USER: RMSD 5.496914
USER: SEED 173
USER: STATUS no improvement in best in 15 clusters for 5 generations
USER: GENES 13
USER: genes 0 Translation |==|  0.53880 0.61073 0.56530
USER: genes 1 Rotation |==|  0.41720 0.67934 0.76801 0.87303
USER: genes 2 Torsion [C]-CA--N-[C] |==|  0.77777
USER: genes 3 Torsion [N]-C--CA-[N] |==|  0.26382
USER: genes 4 Torsion [C]-CA--CB-[CG] |==|  0.67671
USER: genes 5 Torsion [CA]-CB--CG-[OD1] |==|  0.34757
USER: genes 6 Torsion [N]-CA--C-[N] |==|  0.52177
USER: genes 7 Torsion [C]-N--CA-[C] |==|  0.54573
USER: genes 8 Torsion [N]-CA--C-[OXT] |==|  0.99983
USER: genes 9 Torsion [N]-CA--CB-[CG] |==|  0.99510
USER: genes 10 Torsion [CA]-CB--CG-[CD1] |==|  0.69956
USER: genes 11 Torsion [N]-CA--CB-[CG] |==|  0.58079
USER: genes 12 Torsion [CA]-CB--CG-[CD2] |==|  0.00653
ROOT
ATOM      1  CA  LEU E   3       8.947  -3.519 -10.119  1.00 28.46 LIG 0.18  C 
ENDROOT
BRANCH 1 2
ATOM      2  N   LEU E   3      10.067  -4.126  -9.379  1.00 30.36 LIG-0.35  N 
ATOM      3  C   ASP E   2      10.418  -5.407  -9.530  1.00 32.94 LIG 0.26  C 
ATOM      4 O    ASP E   2       9.815  -6.189 -10.276  1.00 32.35 LIG-0.27  OA
ATOM      5 H    LEU E   3      10.468  -3.584  -8.846  1.00 30.36 LIG 0.16  HD
BRANCH 3 6
ATOM      6  CA  ASP E   2      11.624  -5.889  -8.718  1.00 34.24 LIG 0.41  C 
ATOM      7  N   ASP E   2      11.131  -6.510  -7.458  1.00 34.31 LIG 0.61  N 
BRANCH 6 8
ATOM      8  CB  ASP E   2      12.439  -6.910  -9.522  1.00 36.18 LIG 0.16  C 
BRANCH 8 9
ATOM      9  CG  ASP E   2      12.461  -8.300  -8.876  1.00 38.13 LIG 0.17  C 
ATOM     10 OD1  ASP E   2      12.094  -9.288  -9.555  1.00 37.90 LIG-0.65  OA
ATOM     11 OD2  ASP E   2      12.871  -8.411  -7.698  1.00 38.42 LIG-0.65  OA
ENDBRANCH 8 9
ENDBRANCH 6 8
ENDBRANCH 3 6
ENDBRANCH 1 2
BRANCH 1 12
ATOM     12  C   LEU E   3       9.335  -3.133 -11.549  1.00 28.32 LIG 0.24  C 
ATOM     13  N   PHE E   4       8.428  -2.432 -12.229  1.00 27.78 LIG-0.34  N 
ATOM     14 H    PHE E   4       7.694  -2.151 -11.881  1.00 27.78 LIG 0.16  HD
ATOM     15 O    LEU E   3      10.423  -3.471 -12.018  1.00 27.38 LIG-0.27  OA
BRANCH 13 16
ATOM     16  CA  PHE E   4       8.587  -2.069 -13.638  1.00 27.92 LIG 0.19  C 
BRANCH 16 17
ATOM     17  C   PHE E   4       7.612  -0.952 -14.006  1.00 28.33 LIG 0.20  C 
ATOM     18 OXT  PHE E   4       6.838  -0.484 -13.174  1.00 30.35 LIG-0.65  OA
ATOM     19 O    PHE E   4       7.588  -0.471 -15.139  1.00 28.81 LIG-0.65  OA
ENDBRANCH 16 17
BRANCH 16 20
ATOM     20  CB  PHE E   4       8.352  -3.287 -14.549  1.00 27.18 LIG 0.07  C 
BRANCH 20 21
ATOM     21  CG  PHE E   4       8.058  -4.560 -13.799  1.00 26.64 LIG-0.06  A 
ATOM     22  CD1 PHE E   4       9.003  -5.588 -13.737  1.00 26.73 LIG 0.01  A 
ATOM     23  CE1 PHE E   4       8.729  -6.763 -13.051  1.00 26.26 LIG 0.00  A 
ATOM     24  CZ  PHE E   4       7.502  -6.920 -12.421  1.00 25.93 LIG 0.00  A 
ATOM     25  CE2 PHE E   4       6.552  -5.908 -12.482  1.00 25.36 LIG 0.00  A 
ATOM     26  CD2 PHE E   4       6.833  -4.737 -13.165  1.00 26.03 LIG 0.01  A 
ENDBRANCH 20 21
ENDBRANCH 16 20
ENDBRANCH 13 16
ENDBRANCH 1 12
BRANCH 1 27
ATOM     27  CB  LEU E   3       8.417  -2.276  -9.386  1.00 28.15 LIG 0.04  C 
BRANCH 27 28
ATOM     28  CG  LEU E   3       6.947  -1.872  -9.529  1.00 27.57 LIG-0.02  C 
ATOM     29  CD2 LEU E   3       6.180  -2.865 -10.390  1.00 27.08 LIG 0.01  C 
ATOM     30  CD1 LEU E   3       6.833  -0.474 -10.118  1.00 27.26 LIG 0.01  C 
ENDBRANCH 27 28
ENDBRANCH 1 27
TORSDOF 11
ENDMDL
MODEL 70
USER: ADFR SOLUTION from run 91
USER: SCORE 10.377139 LL:  -3.188 LR:  -7.230 RR:   0.000 FEB:  -3.949
USER: RMSD 5.815560
USER: SEED 90
USER: STATUS no improvement in best in 15 clusters for 5 generations
USER: GENES 13
USER: genes 0 Translation |==|  0.65602 0.56699 0.58825
USER: genes 1 Rotation |==|  0.56153 0.50187 0.13083 0.83155
USER: genes 2 Torsion [C]-CA--N-[C] |==|  0.82222
USER: genes 3 Torsion [N]-C--CA-[N] |==|  0.29788
USER: genes 4 Torsion [C]-CA--CB-[CG] |==|  0.71945
USER: genes 5 Torsion [CA]-CB--CG-[OD1] |==|  0.76634
USER: genes 6 Torsion [N]-CA--C-[N] |==|  0.96484
USER: genes 7 Torsion [C]-N--CA-[C] |==|  0.19315
USER: genes 8 Torsion [N]-CA--C-[OXT] |==|  0.65490
USER: genes 9 Torsion [N]-CA--CB-[CG] |==|  0.89471
USER: genes 10 Torsion [CA]-CB--CG-[CD1] |==|  0.33964
USER: genes 11 Torsion [N]-CA--CB-[CG] |==|  0.25528
USER: genes 12 Torsion [CA]-CB--CG-[CD2] |==|  0.65833
ROOT
ATOM      1  CA  LEU E   3      10.793  -4.241  -9.792  1.00 28.46 LIG 0.18  C 
ENDROOT
BRANCH 1 2
ATOM      2  N   LEU E   3       9.639  -3.454  -9.323  1.00 30.36 LIG-0.35  N 
ATOM      3  C   ASP E   2       8.849  -2.770 -10.156  1.00 32.94 LIG 0.26  C 
ATOM      4 O    ASP E   2       9.040  -2.717 -11.378  1.00 32.35 LIG-0.27  OA
ATOM      5 H    LEU E   3       9.524  -3.476  -8.471  1.00 30.36 LIG 0.16  HD
BRANCH 3 6
ATOM      6  CA  ASP E   2       7.668  -2.025  -9.527  1.00 34.24 LIG 0.41  C 
ATOM      7  N   ASP E   2       7.961  -0.565  -9.548  1.00 34.31 LIG 0.61  N 
BRANCH 6 8
ATOM      8  CB  ASP E   2       6.377  -2.312 -10.303  1.00 36.18 LIG 0.16  C 
BRANCH 8 9
ATOM      9  CG  ASP E   2       5.986  -1.177 -11.256  1.00 38.13 LIG 0.17  C 
ATOM     10 OD1  ASP E   2       5.340  -0.203 -10.804  1.00 37.90 LIG-0.65  OA
ATOM     11 OD2  ASP E   2       6.348  -1.245 -12.454  1.00 38.42 LIG-0.65  OA
ENDBRANCH 8 9
ENDBRANCH 6 8
ENDBRANCH 3 6
ENDBRANCH 1 2
BRANCH 1 12
ATOM     12  C   LEU E   3      10.376  -5.407 -10.691  1.00 28.32 LIG 0.24  C 
ATOM     13  N   PHE E   4       9.075  -5.697 -10.702  1.00 27.78 LIG-0.34  N 
ATOM     14 H    PHE E   4       8.486  -5.229 -10.286  1.00 27.78 LIG 0.16  HD
ATOM     15 O    LEU E   3      11.215  -6.027 -11.347  1.00 27.38 LIG-0.27  OA
BRANCH 13 16
ATOM     16  CA  PHE E   4       8.516  -6.843 -11.420  1.00 27.92 LIG 0.19  C 
BRANCH 16 17
ATOM     17  C   PHE E   4       8.936  -8.146 -10.740  1.00 28.33 LIG 0.20  C 
ATOM     18 OXT  PHE E   4       9.520  -9.029 -11.365  1.00 30.35 LIG-0.65  OA
ATOM     19 O    PHE E   4       8.724  -8.341  -9.544  1.00 28.81 LIG-0.65  OA
ENDBRANCH 16 17
BRANCH 16 20
ATOM     20  CB  PHE E   4       8.977  -6.850 -12.888  1.00 27.18 LIG 0.07  C 
BRANCH 20 21
ATOM     21  CG  PHE E   4       9.054  -5.479 -13.508  1.00 26.64 LIG-0.06  A 
ATOM     22  CD1 PHE E   4      10.250  -5.005 -14.052  1.00 26.73 LIG 0.01  A 
ATOM     23  CE1 PHE E   4      10.321  -3.739 -14.616  1.00 26.26 LIG 0.00  A 
ATOM     24  CZ  PHE E   4       9.191  -2.934 -14.640  1.00 25.93 LIG 0.00  A 
ATOM     25  CE2 PHE E   4       7.997  -3.392 -14.097  1.00 25.36 LIG 0.00  A 
ATOM     26  CD2 PHE E   4       7.933  -4.657 -13.538  1.00 26.03 LIG 0.01  A 
ENDBRANCH 20 21
ENDBRANCH 16 20
ENDBRANCH 13 16
ENDBRANCH 1 12
BRANCH 1 27
ATOM     27  CB  LEU E   3      11.605  -4.782  -8.604  1.00 28.15 LIG 0.04  C 
BRANCH 27 28
ATOM     28  CG  LEU E   3      11.292  -6.168  -8.033  1.00 27.57 LIG-0.02  C 
ATOM     29  CD2 LEU E   3      10.961  -6.095  -6.550  1.00 27.08 LIG 0.01  C 
ATOM     30  CD1 LEU E   3      12.462  -7.115  -8.260  1.00 27.26 LIG 0.01  C 
ENDBRANCH 27 28
ENDBRANCH 1 27
TORSDOF 11
ENDMDL
MODEL 71
USER: ADFR SOLUTION from run 101
USER: SCORE 9.796510 LL:  -2.596 LR:  -7.227 RR:   0.000 FEB:  -3.946
USER: RMSD 3.623433
USER: SEED 100
USER: STATUS no improvement in best in 19 clusters for 5 generations
USER: GENES 13
USER: genes 0 Translation |==|  0.46938 0.62856 0.49821
USER: genes 1 Rotation |==|  0.60585 0.28183 0.49967 0.93726
USER: genes 2 Torsion [C]-CA--N-[C] |==|  0.74444
USER: genes 3 Torsion [N]-C--CA-[N] |==|  0.56358
USER: genes 4 Torsion [C]-CA--CB-[CG] |==|  0.82760
USER: genes 5 Torsion [CA]-CB--CG-[OD1] |==|  0.42869
USER: genes 6 Torsion [N]-CA--C-[N] |==|  0.02170
USER: genes 7 Torsion [C]-N--CA-[C] |==|  0.19564
USER: genes 8 Torsion [N]-CA--C-[OXT] |==|  0.30033
USER: genes 9 Torsion [N]-CA--CB-[CG] |==|  0.79835
USER: genes 10 Torsion [CA]-CB--CG-[CD1] |==|  0.57474
USER: genes 11 Torsion [N]-CA--CB-[CG] |==|  0.67175
USER: genes 12 Torsion [CA]-CB--CG-[CD2] |==|  0.13229
ROOT
ATOM      1  CA  LEU E   3       7.854  -3.225 -11.075  1.00 28.46 LIG 0.18  C 
ENDROOT
BRANCH 1 2
ATOM      2  N   LEU E   3       7.197  -4.328 -11.799  1.00 30.36 LIG-0.35  N 
ATOM      3  C   ASP E   2       7.335  -4.507 -13.115  1.00 32.94 LIG 0.26  C 
ATOM      4 O    ASP E   2       7.995  -3.746 -13.835  1.00 32.35 LIG-0.27  OA
ATOM      5 H    LEU E   3       6.722  -4.840 -11.297  1.00 30.36 LIG 0.16  HD
BRANCH 3 6
ATOM      6  CA  ASP E   2       6.619  -5.717 -13.724  1.00 34.24 LIG 0.41  C 
ATOM      7  N   ASP E   2       7.297  -6.078 -14.999  1.00 34.31 LIG 0.61  N 
BRANCH 6 8
ATOM      8  CB  ASP E   2       6.654  -6.905 -12.756  1.00 36.18 LIG 0.16  C 
BRANCH 8 9
ATOM      9  CG  ASP E   2       8.077  -7.384 -12.447  1.00 38.13 LIG 0.17  C 
ATOM     10 OD1  ASP E   2       8.295  -7.974 -11.363  1.00 37.90 LIG-0.65  OA
ATOM     11 OD2  ASP E   2       8.975  -7.194 -13.300  1.00 38.42 LIG-0.65  OA
ENDBRANCH 8 9
ENDBRANCH 6 8
ENDBRANCH 3 6
ENDBRANCH 1 2
BRANCH 1 12
ATOM     12  C   LEU E   3       9.222  -3.626 -10.518  1.00 28.32 LIG 0.24  C 
ATOM     13  N   PHE E   4       9.677  -4.820 -10.898  1.00 27.78 LIG-0.34  N 
ATOM     14 H    PHE E   4       9.271  -5.318 -11.469  1.00 27.78 LIG 0.16  HD
ATOM     15 O    LEU E   3       9.838  -2.874  -9.761  1.00 27.38 LIG-0.27  OA
BRANCH 13 16
ATOM     16  CA  PHE E   4      10.914  -5.407 -10.381  1.00 27.92 LIG 0.19  C 
BRANCH 16 17
ATOM     17  C   PHE E   4      10.732  -5.813  -8.918  1.00 28.33 LIG 0.20  C 
ATOM     18 OXT  PHE E   4      10.656  -6.995  -8.592  1.00 30.35 LIG-0.65  OA
ATOM     19 O    PHE E   4      10.679  -4.971  -8.022  1.00 28.81 LIG-0.65  OA
ENDBRANCH 16 17
BRANCH 16 20
ATOM     20  CB  PHE E   4      12.086  -4.417 -10.504  1.00 27.18 LIG 0.07  C 
BRANCH 20 21
ATOM     21  CG  PHE E   4      12.570  -4.221 -11.917  1.00 26.64 LIG-0.06  A 
ATOM     22  CD1 PHE E   4      13.891  -3.846 -12.175  1.00 26.73 LIG 0.01  A 
ATOM     23  CE1 PHE E   4      14.335  -3.659 -13.477  1.00 26.26 LIG 0.00  A 
ATOM     24  CZ  PHE E   4      13.455  -3.847 -14.534  1.00 25.93 LIG 0.00  A 
ATOM     25  CE2 PHE E   4      12.138  -4.213 -14.290  1.00 25.36 LIG 0.00  A 
ATOM     26  CD2 PHE E   4      11.703  -4.400 -12.989  1.00 26.03 LIG 0.01  A 
ENDBRANCH 20 21
ENDBRANCH 16 20
ENDBRANCH 13 16
ENDBRANCH 1 12
BRANCH 1 27
ATOM     27  CB  LEU E   3       6.967  -2.721  -9.925  1.00 28.15 LIG 0.04  C 
BRANCH 27 28
ATOM     28  CG  LEU E   3       6.462  -1.275  -9.925  1.00 27.57 LIG-0.02  C 
ATOM     29  CD2 LEU E   3       5.879  -0.891 -11.277  1.00 27.08 LIG 0.01  C 
ATOM     30  CD1 LEU E   3       7.584  -0.319  -9.550  1.00 27.26 LIG 0.01  C 
ENDBRANCH 27 28
ENDBRANCH 1 27
TORSDOF 11
ENDMDL
MODEL 72
USER: ADFR SOLUTION from run 93
USER: SCORE 9.387547 LL:  -2.806 LR:  -7.225 RR:   0.000 FEB:  -3.943
USER: RMSD 5.502138
USER: SEED 92
USER: STATUS no improvement in best in 21 clusters for 5 generations
USER: GENES 13
USER: genes 0 Translation |==|  0.49582 0.57048 0.46399
USER: genes 1 Rotation |==|  0.49727 0.74077 0.60847 0.92456
USER: genes 2 Torsion [C]-CA--N-[C] |==|  0.21014
USER: genes 3 Torsion [N]-C--CA-[N] |==|  0.20646
USER: genes 4 Torsion [C]-CA--CB-[CG] |==|  0.52467
USER: genes 5 Torsion [CA]-CB--CG-[OD1] |==|  0.64749
USER: genes 6 Torsion [N]-CA--C-[N] |==|  0.82794
USER: genes 7 Torsion [C]-N--CA-[C] |==|  0.62951
USER: genes 8 Torsion [N]-CA--C-[OXT] |==|  0.53042
USER: genes 9 Torsion [N]-CA--CB-[CG] |==|  0.75938
USER: genes 10 Torsion [CA]-CB--CG-[CD1] |==|  0.66646
USER: genes 11 Torsion [N]-CA--CB-[CG] |==|  0.70192
USER: genes 12 Torsion [CA]-CB--CG-[CD2] |==|  0.17626
ROOT
ATOM      1  CA  LEU E   3       8.270  -4.183 -11.563  1.00 28.46 LIG 0.18  C 
ENDROOT
BRANCH 1 2
ATOM      2  N   LEU E   3       8.797  -5.385 -10.894  1.00 30.36 LIG-0.35  N 
ATOM      3  C   ASP E   2      10.099  -5.562 -10.653  1.00 32.94 LIG 0.26  C 
ATOM      4 O    ASP E   2      10.967  -4.749 -10.999  1.00 32.35 LIG-0.27  OA
ATOM      5 H    LEU E   3       8.192  -5.957 -10.675  1.00 30.36 LIG 0.16  HD
BRANCH 3 6
ATOM      6  CA  ASP E   2      10.495  -6.847  -9.919  1.00 34.24 LIG 0.41  C 
ATOM      7  N   ASP E   2      10.384  -7.990 -10.868  1.00 34.31 LIG 0.61  N 
BRANCH 6 8
ATOM      8  CB  ASP E   2      11.929  -6.743  -9.388  1.00 36.18 LIG 0.16  C 
BRANCH 8 9
ATOM      9  CG  ASP E   2      12.461  -8.070  -8.835  1.00 38.13 LIG 0.17  C 
ATOM     10 OD1  ASP E   2      12.934  -8.096  -7.675  1.00 37.90 LIG-0.65  OA
ATOM     11 OD2  ASP E   2      12.381  -9.096  -9.550  1.00 38.42 LIG-0.65  OA
ENDBRANCH 8 9
ENDBRANCH 6 8
ENDBRANCH 3 6
ENDBRANCH 1 2
BRANCH 1 12
ATOM     12  C   LEU E   3       8.529  -4.196 -13.072  1.00 28.32 LIG 0.24  C 
ATOM     13  N   PHE E   4       9.809  -4.210 -13.442  1.00 27.78 LIG-0.34  N 
ATOM     14 H    PHE E   4      10.459  -4.273 -12.883  1.00 27.78 LIG 0.16  HD
ATOM     15 O    LEU E   3       7.591  -4.187 -13.870  1.00 27.38 LIG-0.27  OA
BRANCH 13 16
ATOM     16  CA  PHE E   4      10.240  -4.120 -14.838  1.00 27.92 LIG 0.19  C 
BRANCH 16 17
ATOM     17  C   PHE E   4      11.302  -5.180 -15.130  1.00 28.33 LIG 0.20  C 
ATOM     18 OXT  PHE E   4      11.948  -5.161 -16.175  1.00 30.35 LIG-0.65  OA
ATOM     19 O    PHE E   4      11.559  -6.068 -14.318  1.00 28.81 LIG-0.65  OA
ENDBRANCH 16 17
BRANCH 16 20
ATOM     20  CB  PHE E   4      10.801  -2.721 -15.151  1.00 27.18 LIG 0.07  C 
BRANCH 20 21
ATOM     21  CG  PHE E   4       9.750  -1.722 -15.559  1.00 26.64 LIG-0.06  A 
ATOM     22  CD1 PHE E   4       9.801  -1.099 -16.808  1.00 26.73 LIG 0.01  A 
ATOM     23  CE1 PHE E   4       8.835  -0.173 -17.180  1.00 26.26 LIG 0.00  A 
ATOM     24  CZ  PHE E   4       7.808   0.137 -16.300  1.00 25.93 LIG 0.00  A 
ATOM     25  CE2 PHE E   4       7.750  -0.471 -15.053  1.00 25.36 LIG 0.00  A 
ATOM     26  CD2 PHE E   4       8.715  -1.395 -14.689  1.00 26.03 LIG 0.01  A 
ENDBRANCH 20 21
ENDBRANCH 16 20
ENDBRANCH 13 16
ENDBRANCH 1 12
BRANCH 1 27
ATOM     27  CB  LEU E   3       8.879  -2.908 -10.957  1.00 28.15 LIG 0.04  C 
BRANCH 27 28
ATOM     28  CG  LEU E   3       8.026  -2.001 -10.067  1.00 27.57 LIG-0.02  C 
ATOM     29  CD2 LEU E   3       7.586  -2.720  -8.800  1.00 27.08 LIG 0.01  C 
ATOM     30  CD1 LEU E   3       6.809  -1.498 -10.829  1.00 27.26 LIG 0.01  C 
ENDBRANCH 27 28
ENDBRANCH 1 27
TORSDOF 11
ENDMDL
MODEL 73
USER: ADFR SOLUTION from run 76
USER: SCORE 10.209021 LL:  -3.035 LR:  -7.213 RR:   0.000 FEB:  -3.932
USER: RMSD 6.607130
USER: SEED 75
USER: STATUS no improvement in best in 22 clusters for 5 generations
USER: GENES 13
USER: genes 0 Translation |==|  0.63373 0.48491 0.37904
USER: genes 1 Rotation |==|  0.10898 0.40581 0.20345 0.51706
USER: genes 2 Torsion [C]-CA--N-[C] |==|  0.80599
USER: genes 3 Torsion [N]-C--CA-[N] |==|  0.39032
USER: genes 4 Torsion [C]-CA--CB-[CG] |==|  0.63150
USER: genes 5 Torsion [CA]-CB--CG-[OD1] |==|  0.36121
USER: genes 6 Torsion [N]-CA--C-[N] |==|  0.91144
USER: genes 7 Torsion [C]-N--CA-[C] |==|  0.18541
USER: genes 8 Torsion [N]-CA--C-[OXT] |==|  0.29369
USER: genes 9 Torsion [N]-CA--CB-[CG] |==|  0.79963
USER: genes 10 Torsion [CA]-CB--CG-[CD1] |==|  0.13263
USER: genes 11 Torsion [N]-CA--CB-[CG] |==|  0.24608
USER: genes 12 Torsion [CA]-CB--CG-[CD2] |==|  0.80290
ROOT
ATOM      1  CA  LEU E   3      10.442  -5.595 -12.774  1.00 28.46 LIG 0.18  C 
ENDROOT
BRANCH 1 2
ATOM      2  N   LEU E   3      10.368  -4.573 -13.832  1.00 30.36 LIG-0.35  N 
ATOM      3  C   ASP E   2       9.208  -4.069 -14.265  1.00 32.94 LIG 0.26  C 
ATOM      4 O    ASP E   2       8.108  -4.440 -13.835  1.00 32.35 LIG-0.27  OA
ATOM      5 H    LEU E   3      11.134  -4.335 -14.143  1.00 30.36 LIG 0.16  HD
BRANCH 3 6
ATOM      6  CA  ASP E   2       9.289  -2.989 -15.348  1.00 34.24 LIG 0.41  C 
ATOM      7  N   ASP E   2       8.188  -3.214 -16.326  1.00 34.31 LIG 0.61  N 
BRANCH 6 8
ATOM      8  CB  ASP E   2       9.161  -1.594 -14.727  1.00 36.18 LIG 0.16  C 
BRANCH 8 9
ATOM      9  CG  ASP E   2       8.165  -0.696 -15.470  1.00 38.13 LIG 0.17  C 
ATOM     10 OD1  ASP E   2       7.283  -0.097 -14.811  1.00 37.90 LIG-0.65  OA
ATOM     11 OD2  ASP E   2       8.279  -0.568 -16.711  1.00 38.42 LIG-0.65  OA
ENDBRANCH 8 9
ENDBRANCH 6 8
ENDBRANCH 3 6
ENDBRANCH 1 2
BRANCH 1 12
ATOM     12  C   LEU E   3      10.059  -5.039 -11.400  1.00 28.32 LIG 0.24  C 
ATOM     13  N   PHE E   4      10.357  -3.758 -11.187  1.00 27.78 LIG-0.34  N 
ATOM     14 H    PHE E   4      10.686  -3.245 -11.794  1.00 27.78 LIG 0.16  HD
ATOM     15 O    LEU E   3       9.515  -5.758 -10.560  1.00 27.38 LIG-0.27  OA
BRANCH 13 16
ATOM     16  CA  PHE E   4      10.158  -3.092  -9.899  1.00 27.92 LIG 0.19  C 
BRANCH 16 17
ATOM     17  C   PHE E   4      11.103  -3.681  -8.851  1.00 28.33 LIG 0.20  C 
ATOM     18 OXT  PHE E   4      12.091  -3.060  -8.467  1.00 30.35 LIG-0.65  OA
ATOM     19 O    PHE E   4      10.891  -4.782  -8.345  1.00 28.81 LIG-0.65  OA
ENDBRANCH 16 17
BRANCH 16 20
ATOM     20  CB  PHE E   4       8.701  -3.237  -9.424  1.00 27.18 LIG 0.07  C 
BRANCH 20 21
ATOM     21  CG  PHE E   4       7.721  -2.404 -10.208  1.00 26.64 LIG-0.06  A 
ATOM     22  CD1 PHE E   4       7.740  -2.401 -11.605  1.00 26.73 LIG 0.01  A 
ATOM     23  CE1 PHE E   4       6.841  -1.628 -12.326  1.00 26.26 LIG 0.00  A 
ATOM     24  CZ  PHE E   4       5.912  -0.848 -11.652  1.00 25.93 LIG 0.00  A 
ATOM     25  CE2 PHE E   4       5.887  -0.838 -10.263  1.00 25.36 LIG 0.00  A 
ATOM     26  CD2 PHE E   4       6.785  -1.613  -9.550  1.00 26.03 LIG 0.01  A 
ENDBRANCH 20 21
ENDBRANCH 16 20
ENDBRANCH 13 16
ENDBRANCH 1 12
BRANCH 1 27
ATOM     27  CB  LEU E   3      11.853  -6.202 -12.698  1.00 28.15 LIG 0.04  C 
BRANCH 27 28
ATOM     28  CG  LEU E   3      12.918  -5.553 -11.810  1.00 27.57 LIG-0.02  C 
ATOM     29  CD2 LEU E   3      13.387  -4.225 -12.386  1.00 27.08 LIG 0.01  C 
ATOM     30  CD1 LEU E   3      14.104  -6.489 -11.629  1.00 27.26 LIG 0.01  C 
ENDBRANCH 27 28
ENDBRANCH 1 27
TORSDOF 11
ENDMDL
MODEL 74
USER: ADFR SOLUTION from run 33
USER: SCORE 9.400201 LL:  -2.325 LR:  -7.208 RR:   0.000 FEB:  -3.927
USER: RMSD 3.642333
USER: SEED 32
USER: STATUS no improvement in best in 12 clusters for 5 generations
USER: GENES 13
USER: genes 0 Translation |==|  0.49790 0.51086 0.39929
USER: genes 1 Rotation |==|  0.23199 0.21826 0.62001 0.79049
USER: genes 2 Torsion [C]-CA--N-[C] |==|  0.66667
USER: genes 3 Torsion [N]-C--CA-[N] |==|  0.27431
USER: genes 4 Torsion [C]-CA--CB-[CG] |==|  0.19303
USER: genes 5 Torsion [CA]-CB--CG-[OD1] |==|  0.83376
USER: genes 6 Torsion [N]-CA--C-[N] |==|  0.02969
USER: genes 7 Torsion [C]-N--CA-[C] |==|  0.16062
USER: genes 8 Torsion [N]-CA--C-[OXT] |==|  0.66065
USER: genes 9 Torsion [N]-CA--CB-[CG] |==|  0.85471
USER: genes 10 Torsion [CA]-CB--CG-[CD1] |==|  0.28862
USER: genes 11 Torsion [N]-CA--CB-[CG] |==|  0.57603
USER: genes 12 Torsion [CA]-CB--CG-[CD2] |==|  0.01800
ROOT
ATOM      1  CA  LEU E   3       8.303  -5.167 -12.485  1.00 28.46 LIG 0.18  C 
ENDROOT
BRANCH 1 2
ATOM      2  N   LEU E   3       7.261  -6.004 -11.866  1.00 30.36 LIG-0.35  N 
ATOM      3  C   ASP E   2       7.265  -7.337 -11.949  1.00 32.94 LIG 0.26  C 
ATOM      4 O    ASP E   2       8.124  -7.972 -12.576  1.00 32.35 LIG-0.27  OA
ATOM      5 H    LEU E   3       6.655  -5.556 -11.450  1.00 30.36 LIG 0.16  HD
BRANCH 3 6
ATOM      6  CA  ASP E   2       6.134  -8.076 -11.226  1.00 34.24 LIG 0.41  C 
ATOM      7  N   ASP E   2       5.082  -8.424 -12.221  1.00 34.31 LIG 0.61  N 
BRANCH 6 8
ATOM      8  CB  ASP E   2       6.665  -9.349 -10.557  1.00 36.18 LIG 0.16  C 
BRANCH 8 9
ATOM      9  CG  ASP E   2       7.582  -9.060  -9.363  1.00 38.13 LIG 0.17  C 
ATOM     10 OD1  ASP E   2       8.627  -8.395  -9.550  1.00 37.90 LIG-0.65  OA
ATOM     11 OD2  ASP E   2       7.243  -9.473  -8.230  1.00 38.42 LIG-0.65  OA
ENDBRANCH 8 9
ENDBRANCH 6 8
ENDBRANCH 3 6
ENDBRANCH 1 2
BRANCH 1 12
ATOM     12  C   LEU E   3       9.054  -4.316 -11.457  1.00 28.32 LIG 0.24  C 
ATOM     13  N   PHE E   4       8.824  -4.612 -10.179  1.00 27.78 LIG-0.34  N 
ATOM     14 H    PHE E   4       8.338  -5.276  -9.930  1.00 27.78 LIG 0.16  HD
ATOM     15 O    LEU E   3       9.813  -3.416 -11.821  1.00 27.38 LIG-0.27  OA
BRANCH 13 16
ATOM     16  CA  PHE E   4       9.374  -3.836  -9.066  1.00 27.92 LIG 0.19  C 
BRANCH 16 17
ATOM     17  C   PHE E   4       8.935  -2.376  -9.175  1.00 28.33 LIG 0.20  C 
ATOM     18 OXT  PHE E   4       9.760  -1.467  -9.237  1.00 30.35 LIG-0.65  OA
ATOM     19 O    PHE E   4       7.744  -2.068  -9.227  1.00 28.81 LIG-0.65  OA
ENDBRANCH 16 17
BRANCH 16 20
ATOM     20  CB  PHE E   4      10.911  -3.917  -9.046  1.00 27.18 LIG 0.07  C 
BRANCH 20 21
ATOM     21  CG  PHE E   4      11.446  -5.325  -9.080  1.00 26.64 LIG-0.06  A 
ATOM     22  CD1 PHE E   4      11.987  -5.857 -10.252  1.00 26.73 LIG 0.01  A 
ATOM     23  CE1 PHE E   4      12.474  -7.157 -10.283  1.00 26.26 LIG 0.00  A 
ATOM     24  CZ  PHE E   4      12.422  -7.936  -9.136  1.00 25.93 LIG 0.00  A 
ATOM     25  CE2 PHE E   4      11.881  -7.420  -7.966  1.00 25.36 LIG 0.00  A 
ATOM     26  CD2 PHE E   4      11.399  -6.122  -7.941  1.00 26.03 LIG 0.01  A 
ENDBRANCH 20 21
ENDBRANCH 16 20
ENDBRANCH 13 16
ENDBRANCH 1 12
BRANCH 1 27
ATOM     27  CB  LEU E   3       7.699  -4.247 -13.559  1.00 28.15 LIG 0.04  C 
BRANCH 27 28
ATOM     28  CG  LEU E   3       8.561  -3.771 -14.732  1.00 27.57 LIG-0.02  C 
ATOM     29  CD2 LEU E   3       9.924  -4.448 -14.729  1.00 27.08 LIG 0.01  C 
ATOM     30  CD1 LEU E   3       8.729  -2.260 -14.691  1.00 27.26 LIG 0.01  C 
ENDBRANCH 27 28
ENDBRANCH 1 27
TORSDOF 11
ENDMDL
MODEL 75
USER: ADFR SOLUTION from run 70
USER: SCORE 9.779072 LL:  -2.632 LR:  -7.188 RR:   0.000 FEB:  -3.907
USER: RMSD 6.293402
USER: SEED 69
USER: STATUS no improvement in best in 12 clusters for 5 generations
USER: GENES 13
USER: genes 0 Translation |==|  0.76211 0.56410 0.33680
USER: genes 1 Rotation |==|  0.16622 0.30019 0.28670 0.73058
USER: genes 2 Torsion [C]-CA--N-[C] |==|  0.76667
USER: genes 3 Torsion [N]-C--CA-[N] |==|  0.63587
USER: genes 4 Torsion [C]-CA--CB-[CG] |==|  0.57715
USER: genes 5 Torsion [CA]-CB--CG-[OD1] |==|  0.70364
USER: genes 6 Torsion [N]-CA--C-[N] |==|  0.95273
USER: genes 7 Torsion [C]-N--CA-[C] |==|  0.78640
USER: genes 8 Torsion [N]-CA--C-[OXT] |==|  0.97208
USER: genes 9 Torsion [N]-CA--CB-[CG] |==|  0.17710
USER: genes 10 Torsion [CA]-CB--CG-[CD1] |==|  0.97745
USER: genes 11 Torsion [N]-CA--CB-[CG] |==|  0.60896
USER: genes 12 Torsion [CA]-CB--CG-[CD2] |==|  0.97492
ROOT
ATOM      1  CA  LEU E   3      12.464  -4.288 -13.376  1.00 28.46 LIG 0.18  C 
ENDROOT
BRANCH 1 2
ATOM      2  N   LEU E   3      11.264  -3.597 -13.876  1.00 30.36 LIG-0.35  N 
ATOM      3  C   ASP E   2      10.149  -4.248 -14.221  1.00 32.94 LIG 0.26  C 
ATOM      4 O    ASP E   2      10.047  -5.482 -14.178  1.00 32.35 LIG-0.27  OA
ATOM      5 H    LEU E   3      11.348  -2.742 -13.925  1.00 30.36 LIG 0.16  HD
BRANCH 3 6
ATOM      6  CA  ASP E   2       8.970  -3.393 -14.694  1.00 34.24 LIG 0.41  C 
ATOM      7  N   ASP E   2       7.747  -3.825 -13.963  1.00 34.31 LIG 0.61  N 
BRANCH 6 8
ATOM      8  CB  ASP E   2       9.243  -1.908 -14.429  1.00 36.18 LIG 0.16  C 
BRANCH 8 9
ATOM      9  CG  ASP E   2       7.962  -1.091 -14.224  1.00 38.13 LIG 0.17  C 
ATOM     10 OD1  ASP E   2       7.586  -0.316 -15.134  1.00 37.90 LIG-0.65  OA
ATOM     11 OD2  ASP E   2       7.313  -1.244 -13.163  1.00 38.42 LIG-0.65  OA
ENDBRANCH 8 9
ENDBRANCH 6 8
ENDBRANCH 3 6
ENDBRANCH 1 2
BRANCH 1 12
ATOM     12  C   LEU E   3      12.390  -4.570 -11.873  1.00 28.32 LIG 0.24  C 
ATOM     13  N   PHE E   4      11.480  -3.872 -11.195  1.00 27.78 LIG-0.34  N 
ATOM     14 H    PHE E   4      10.918  -3.341 -11.571  1.00 27.78 LIG 0.16  HD
ATOM     15 O    LEU E   3      13.144  -5.392 -11.349  1.00 27.38 LIG-0.27  OA
BRANCH 13 16
ATOM     16  CA  PHE E   4      11.342  -3.937  -9.739  1.00 27.92 LIG 0.19  C 
BRANCH 16 17
ATOM     17  C   PHE E   4      10.629  -5.228  -9.336  1.00 28.33 LIG 0.20  C 
ATOM     18 OXT  PHE E   4      10.099  -5.950 -10.176  1.00 30.35 LIG-0.65  OA
ATOM     19 O    PHE E   4      10.586  -5.595  -8.162  1.00 28.81 LIG-0.65  OA
ENDBRANCH 16 17
BRANCH 16 20
ATOM     20  CB  PHE E   4      10.559  -2.723  -9.206  1.00 27.18 LIG 0.07  C 
BRANCH 20 21
ATOM     21  CG  PHE E   4       9.135  -2.657  -9.692  1.00 26.64 LIG-0.06  A 
ATOM     22  CD1 PHE E   4       8.672  -3.535 -10.675  1.00 26.73 LIG 0.01  A 
ATOM     23  CE1 PHE E   4       7.361  -3.468 -11.127  1.00 26.26 LIG 0.00  A 
ATOM     24  CZ  PHE E   4       6.500  -2.518 -10.596  1.00 25.93 LIG 0.00  A 
ATOM     25  CE2 PHE E   4       6.951  -1.635  -9.623  1.00 25.36 LIG 0.00  A 
ATOM     26  CD2 PHE E   4       8.258  -1.709  -9.175  1.00 26.03 LIG 0.01  A 
ENDBRANCH 20 21
ENDBRANCH 16 20
ENDBRANCH 13 16
ENDBRANCH 1 12
BRANCH 1 27
ATOM     27  CB  LEU E   3      13.731  -3.471 -13.675  1.00 28.15 LIG 0.04  C 
BRANCH 27 28
ATOM     28  CG  LEU E   3      15.016  -4.182 -14.110  1.00 27.57 LIG-0.02  C 
ATOM     29  CD2 LEU E   3      14.889  -5.691 -13.971  1.00 27.08 LIG 0.01  C 
ATOM     30  CD1 LEU E   3      16.203  -3.681 -13.301  1.00 27.26 LIG 0.01  C 
ENDBRANCH 27 28
ENDBRANCH 1 27
TORSDOF 11
ENDMDL
MODEL 76
USER: ADFR SOLUTION from run 105
USER: SCORE 9.636740 LL:  -2.474 LR:  -7.174 RR:   0.000 FEB:  -3.893
USER: RMSD 2.676221
USER: SEED 104
USER: STATUS no improvement in best in 21 clusters for 5 generations
USER: GENES 13
USER: genes 0 Translation |==|  0.48151 0.60094 0.40734
USER: genes 1 Rotation |==|  0.49972 0.51711 0.52658 0.99900
USER: genes 2 Torsion [C]-CA--N-[C] |==|  0.79531
USER: genes 3 Torsion [N]-C--CA-[N] |==|  0.46279
USER: genes 4 Torsion [C]-CA--CB-[CG] |==|  0.42964
USER: genes 5 Torsion [CA]-CB--CG-[OD1] |==|  0.60878
USER: genes 6 Torsion [N]-CA--C-[N] |==|  0.96375
USER: genes 7 Torsion [C]-N--CA-[C] |==|  0.63733
USER: genes 8 Torsion [N]-CA--C-[OXT] |==|  0.47684
USER: genes 9 Torsion [N]-CA--CB-[CG] |==|  0.61621
USER: genes 10 Torsion [CA]-CB--CG-[CD1] |==|  0.16243
USER: genes 11 Torsion [N]-CA--CB-[CG] |==|  0.90379
USER: genes 12 Torsion [CA]-CB--CG-[CD2] |==|  0.70816
ROOT
ATOM      1  CA  LEU E   3       8.045  -3.680 -12.370  1.00 28.46 LIG 0.18  C 
ENDROOT
BRANCH 1 2
ATOM      2  N   LEU E   3       7.456  -4.903 -11.797  1.00 30.36 LIG-0.35  N 
ATOM      3  C   ASP E   2       6.897  -5.854 -12.551  1.00 32.94 LIG 0.26  C 
ATOM      4 O    ASP E   2       6.802  -5.771 -13.783  1.00 32.35 LIG-0.27  OA
ATOM      5 H    LEU E   3       7.505  -4.946 -10.939  1.00 30.36 LIG 0.16  HD
BRANCH 3 6
ATOM      6  CA  ASP E   2       6.356  -7.085 -11.817  1.00 34.24 LIG 0.41  C 
ATOM      7  N   ASP E   2       5.498  -7.859 -12.757  1.00 34.31 LIG 0.61  N 
BRANCH 6 8
ATOM      8  CB  ASP E   2       7.508  -7.962 -11.315  1.00 36.18 LIG 0.16  C 
BRANCH 8 9
ATOM      9  CG  ASP E   2       7.124  -8.818 -10.103  1.00 38.13 LIG 0.17  C 
ATOM     10 OD1  ASP E   2       7.961  -8.974  -9.182  1.00 37.90 LIG-0.65  OA
ATOM     11 OD2  ASP E   2       5.975  -9.315 -10.056  1.00 38.42 LIG-0.65  OA
ENDBRANCH 8 9
ENDBRANCH 6 8
ENDBRANCH 3 6
ENDBRANCH 1 2
BRANCH 1 12
ATOM     12  C   LEU E   3       9.384  -3.948 -13.063  1.00 28.32 LIG 0.24  C 
ATOM     13  N   PHE E   4       9.937  -5.135 -12.819  1.00 27.78 LIG-0.34  N 
ATOM     14 H    PHE E   4       9.550  -5.748 -12.357  1.00 27.78 LIG 0.16  HD
ATOM     15 O    LEU E   3       9.897  -3.096 -13.790  1.00 27.38 LIG-0.27  OA
BRANCH 13 16
ATOM     16  CA  PHE E   4      11.261  -5.518 -13.312  1.00 27.92 LIG 0.19  C 
BRANCH 16 17
ATOM     17  C   PHE E   4      11.194  -6.888 -13.988  1.00 28.33 LIG 0.20  C 
ATOM     18 OXT  PHE E   4      12.155  -7.339 -14.607  1.00 30.35 LIG-0.65  OA
ATOM     19 O    PHE E   4      10.186  -7.590 -13.913  1.00 28.81 LIG-0.65  OA
ENDBRANCH 16 17
BRANCH 16 20
ATOM     20  CB  PHE E   4      12.286  -5.554 -12.165  1.00 27.18 LIG 0.07  C 
BRANCH 20 21
ATOM     21  CG  PHE E   4      13.624  -4.962 -12.527  1.00 26.64 LIG-0.06  A 
ATOM     22  CD1 PHE E   4      13.727  -3.638 -12.961  1.00 26.73 LIG 0.01  A 
ATOM     23  CE1 PHE E   4      14.959  -3.096 -13.300  1.00 26.26 LIG 0.00  A 
ATOM     24  CZ  PHE E   4      16.101  -3.879 -13.208  1.00 25.93 LIG 0.00  A 
ATOM     25  CE2 PHE E   4      16.010  -5.198 -12.785  1.00 25.36 LIG 0.00  A 
ATOM     26  CD2 PHE E   4      14.779  -5.732 -12.445  1.00 26.03 LIG 0.01  A 
ENDBRANCH 20 21
ENDBRANCH 16 20
ENDBRANCH 13 16
ENDBRANCH 1 12
BRANCH 1 27
ATOM     27  CB  LEU E   3       8.242  -2.608 -11.286  1.00 28.15 LIG 0.04  C 
BRANCH 27 28
ATOM     28  CG  LEU E   3       7.235  -2.487 -10.139  1.00 27.57 LIG-0.02  C 
ATOM     29  CD2 LEU E   3       6.327  -1.280 -10.322  1.00 27.08 LIG 0.01  C 
ATOM     30  CD1 LEU E   3       7.958  -2.397  -8.803  1.00 27.26 LIG 0.01  C 
ENDBRANCH 27 28
ENDBRANCH 1 27
TORSDOF 11
ENDMDL
MODEL 77
USER: ADFR SOLUTION from run 186
USER: SCORE 9.807057 LL:  -2.754 LR:  -7.142 RR:   0.000 FEB:  -3.861
USER: RMSD 5.846746
USER: SEED 185
USER: STATUS no improvement in best in 15 clusters for 5 generations
USER: GENES 13
USER: genes 0 Translation |==|  0.62900 0.54435 0.59599
USER: genes 1 Rotation |==|  0.88486 0.55587 0.25155 0.69245
USER: genes 2 Torsion [C]-CA--N-[C] |==|  0.79748
USER: genes 3 Torsion [N]-C--CA-[N] |==|  0.48942
USER: genes 4 Torsion [C]-CA--CB-[CG] |==|  0.64832
USER: genes 5 Torsion [CA]-CB--CG-[OD1] |==|  0.36892
USER: genes 6 Torsion [N]-CA--C-[N] |==|  0.88811
USER: genes 7 Torsion [C]-N--CA-[C] |==|  0.53440
USER: genes 8 Torsion [N]-CA--C-[OXT] |==|  0.64211
USER: genes 9 Torsion [N]-CA--CB-[CG] |==|  0.73841
USER: genes 10 Torsion [CA]-CB--CG-[CD1] |==|  0.34920
USER: genes 11 Torsion [N]-CA--CB-[CG] |==|  0.63301
USER: genes 12 Torsion [CA]-CB--CG-[CD2] |==|  0.09371
ROOT
ATOM      1  CA  LEU E   3      10.368  -4.614  -9.682  1.00 28.46 LIG 0.18  C 
ENDROOT
BRANCH 1 2
ATOM      2  N   LEU E   3       9.009  -4.044  -9.706  1.00 30.36 LIG-0.35  N 
ATOM      3  C   ASP E   2       8.768  -2.752  -9.469  1.00 32.94 LIG 0.26  C 
ATOM      4 O    ASP E   2       9.657  -1.940  -9.180  1.00 32.35 LIG-0.27  OA
ATOM      5 H    LEU E   3       8.393  -4.617  -9.886  1.00 30.36 LIG 0.16  HD
BRANCH 3 6
ATOM      6  CA  ASP E   2       7.308  -2.296  -9.561  1.00 34.24 LIG 0.41  C 
ATOM      7  N   ASP E   2       7.233  -0.860  -9.175  1.00 34.31 LIG 0.61  N 
BRANCH 6 8
ATOM      8  CB  ASP E   2       6.775  -2.485 -10.986  1.00 36.18 LIG 0.16  C 
BRANCH 8 9
ATOM      9  CG  ASP E   2       6.164  -1.206 -11.571  1.00 38.13 LIG 0.17  C 
ATOM     10 OD1  ASP E   2       6.486  -0.858 -12.730  1.00 37.90 LIG-0.65  OA
ATOM     11 OD2  ASP E   2       5.339  -0.563 -10.881  1.00 38.42 LIG-0.65  OA
ENDBRANCH 8 9
ENDBRANCH 6 8
ENDBRANCH 3 6
ENDBRANCH 1 2
BRANCH 1 12
ATOM     12  C   LEU E   3      11.197  -4.197 -10.900  1.00 28.32 LIG 0.24  C 
ATOM     13  N   PHE E   4      10.549  -4.175 -12.064  1.00 27.78 LIG-0.34  N 
ATOM     14 H    PHE E   4       9.705  -4.320 -12.135  1.00 27.78 LIG 0.16  HD
ATOM     15 O    LEU E   3      12.389  -3.912 -10.780  1.00 27.38 LIG-0.27  OA
BRANCH 13 16
ATOM     16  CA  PHE E   4      11.208  -3.901 -13.342  1.00 27.92 LIG 0.19  C 
BRANCH 16 17
ATOM     17  C   PHE E   4      10.163  -3.646 -14.428  1.00 28.33 LIG 0.20  C 
ATOM     18 OXT  PHE E   4      10.199  -4.248 -15.498  1.00 30.35 LIG-0.65  OA
ATOM     19 O    PHE E   4       9.242  -2.848 -14.255  1.00 28.81 LIG-0.65  OA
ENDBRANCH 16 17
BRANCH 16 20
ATOM     20  CB  PHE E   4      12.113  -5.075 -13.757  1.00 27.18 LIG 0.07  C 
BRANCH 20 21
ATOM     21  CG  PHE E   4      13.550  -4.912 -13.337  1.00 26.64 LIG-0.06  A 
ATOM     22  CD1 PHE E   4      14.193  -5.900 -12.587  1.00 26.73 LIG 0.01  A 
ATOM     23  CE1 PHE E   4      15.516  -5.746 -12.195  1.00 26.26 LIG 0.00  A 
ATOM     24  CZ  PHE E   4      16.207  -4.596 -12.551  1.00 25.93 LIG 0.00  A 
ATOM     25  CE2 PHE E   4      15.577  -3.604 -13.291  1.00 25.36 LIG 0.00  A 
ATOM     26  CD2 PHE E   4      14.258  -3.766 -13.681  1.00 26.03 LIG 0.01  A 
ENDBRANCH 20 21
ENDBRANCH 16 20
ENDBRANCH 13 16
ENDBRANCH 1 12
BRANCH 1 27
ATOM     27  CB  LEU E   3      10.315  -6.149  -9.608  1.00 28.15 LIG 0.04  C 
BRANCH 27 28
ATOM     28  CG  LEU E   3      11.180  -6.896  -8.589  1.00 27.57 LIG-0.02  C 
ATOM     29  CD2 LEU E   3      11.342  -6.095  -7.306  1.00 27.08 LIG 0.01  C 
ATOM     30  CD1 LEU E   3      12.546  -7.214  -9.181  1.00 27.26 LIG 0.01  C 
ENDBRANCH 27 28
ENDBRANCH 1 27
TORSDOF 11
ENDMDL
MODEL 78
USER: ADFR SOLUTION from run 196
USER: SCORE 9.436901 LL:  -2.415 LR:  -7.131 RR:   0.000 FEB:  -3.849
USER: RMSD 7.375042
USER: SEED 195
USER: STATUS no improvement in best in 16 clusters for 5 generations
USER: GENES 13
USER: genes 0 Translation |==|  0.65480 0.52951 0.57795
USER: genes 1 Rotation |==|  0.70147 0.60296 0.88719 0.72112
USER: genes 2 Torsion [C]-CA--N-[C] |==|  0.77216
USER: genes 3 Torsion [N]-C--CA-[N] |==|  0.47294
USER: genes 4 Torsion [C]-CA--CB-[CG] |==|  0.41735
USER: genes 5 Torsion [CA]-CB--CG-[OD1] |==|  0.91406
USER: genes 6 Torsion [N]-CA--C-[N] |==|  0.32778
USER: genes 7 Torsion [C]-N--CA-[C] |==|  0.73539
USER: genes 8 Torsion [N]-CA--C-[OXT] |==|  0.06492
USER: genes 9 Torsion [N]-CA--CB-[CG] |==|  0.79092
USER: genes 10 Torsion [CA]-CB--CG-[CD1] |==|  0.66176
USER: genes 11 Torsion [N]-CA--CB-[CG] |==|  0.76551
USER: genes 12 Torsion [CA]-CB--CG-[CD2] |==|  0.31138
ROOT
ATOM      1  CA  LEU E   3      10.774  -4.859  -9.939  1.00 28.46 LIG 0.18  C 
ENDROOT
BRANCH 1 2
ATOM      2  N   LEU E   3      12.010  -4.916 -10.739  1.00 30.36 LIG-0.35  N 
ATOM      3  C   ASP E   2      12.002  -5.097 -12.063  1.00 32.94 LIG 0.26  C 
ATOM      4 O    ASP E   2      10.963  -5.263 -12.716  1.00 32.35 LIG-0.27  OA
ATOM      5 H    LEU E   3      12.730  -4.822 -10.278  1.00 30.36 LIG 0.16  HD
BRANCH 3 6
ATOM      6  CA  ASP E   2      13.363  -5.102 -12.765  1.00 34.24 LIG 0.41  C 
ATOM      7  N   ASP E   2      13.171  -5.549 -14.173  1.00 34.31 LIG 0.61  N 
BRANCH 6 8
ATOM      8  CB  ASP E   2      13.986  -3.701 -12.740  1.00 36.18 LIG 0.16  C 
BRANCH 8 9
ATOM      9  CG  ASP E   2      15.518  -3.727 -12.730  1.00 38.13 LIG 0.17  C 
ATOM     10 OD1  ASP E   2      16.103  -4.687 -12.175  1.00 37.90 LIG-0.65  OA
ATOM     11 OD2  ASP E   2      16.141  -2.801 -13.300  1.00 38.42 LIG-0.65  OA
ENDBRANCH 8 9
ENDBRANCH 6 8
ENDBRANCH 3 6
ENDBRANCH 1 2
BRANCH 1 12
ATOM     12  C   LEU E   3      10.120  -3.476  -9.976  1.00 28.32 LIG 0.24  C 
ATOM     13  N   PHE E   4       8.897  -3.425 -10.503  1.00 27.78 LIG-0.34  N 
ATOM     14 H    PHE E   4       8.463  -4.124 -10.751  1.00 27.78 LIG 0.16  HD
ATOM     15 O    LEU E   3      10.715  -2.487  -9.544  1.00 27.38 LIG-0.27  OA
BRANCH 13 16
ATOM     16  CA  PHE E   4       8.166  -2.174 -10.712  1.00 27.92 LIG 0.19  C 
BRANCH 16 17
ATOM     17  C   PHE E   4       7.235  -1.905  -9.530  1.00 28.33 LIG 0.20  C 
ATOM     18 OXT  PHE E   4       7.450  -2.399  -8.426  1.00 30.35 LIG-0.65  OA
ATOM     19 O    PHE E   4       6.256  -1.167  -9.642  1.00 28.81 LIG-0.65  OA
ENDBRANCH 16 17
BRANCH 16 20
ATOM     20  CB  PHE E   4       7.350  -2.225 -12.016  1.00 27.18 LIG 0.07  C 
BRANCH 20 21
ATOM     21  CG  PHE E   4       8.184  -2.076 -13.262  1.00 26.64 LIG-0.06  A 
ATOM     22  CD1 PHE E   4       7.936  -1.044 -14.170  1.00 26.73 LIG 0.01  A 
ATOM     23  CE1 PHE E   4       8.701  -0.911 -15.321  1.00 26.26 LIG 0.00  A 
ATOM     24  CZ  PHE E   4       9.724  -1.815 -15.572  1.00 25.93 LIG 0.00  A 
ATOM     25  CE2 PHE E   4       9.976  -2.849 -14.680  1.00 25.36 LIG 0.00  A 
ATOM     26  CD2 PHE E   4       9.211  -2.974 -13.533  1.00 26.03 LIG 0.01  A 
ENDBRANCH 20 21
ENDBRANCH 16 20
ENDBRANCH 13 16
ENDBRANCH 1 12
BRANCH 1 27
ATOM     27  CB  LEU E   3      11.050  -5.250  -8.478  1.00 28.15 LIG 0.04  C 
BRANCH 27 28
ATOM     28  CG  LEU E   3      11.066  -6.725  -8.071  1.00 27.57 LIG-0.02  C 
ATOM     29  CD2 LEU E   3      12.464  -7.178  -7.678  1.00 27.08 LIG 0.01  C 
ATOM     30  CD1 LEU E   3      10.534  -7.596  -9.200  1.00 27.26 LIG 0.01  C 
ENDBRANCH 27 28
ENDBRANCH 1 27
TORSDOF 11
ENDMDL
