MODEL 1
USER: ADFR SOLUTION from run 131
USER: SCORE 14.804300 LL:  -3.255 LR: -13.884 RR:   0.000 FEB:  -8.217
USER: RMSD 10.053093
USER: SEED 130
USER: STATUS no improvement in best in 7 clusters for 5 generations
USER: GENES 21
USER: genes 0 Translation |==|  0.54624 0.33442 0.50776
USER: genes 1 Rotation |==|  0.70391 0.14231 0.78031 0.54365
USER: genes 2 Torsion [CB]-CA--N-[C] |==|  0.33458
USER: genes 3 Torsion [N]-C--CA-[N] |==|  0.09684
USER: genes 4 Torsion [C]-CA--N-[C] |==|  0.53333
USER: genes 5 Torsion [N]-C--CA-[N] |==|  0.35923
USER: genes 6 Torsion [C]-CA--N-[C] |==|  0.68795
USER: genes 7 Torsion [C]-CA--CB-[CG] |==|  0.82912
USER: genes 8 Torsion [CA]-CB--CG-[CD] |==|  0.30342
USER: genes 9 Torsion [CB]-CG--CD-[OE1] |==|  0.67639
USER: genes 10 Torsion [N]-CA--CB-[CG] |==|  0.83343
USER: genes 11 Torsion [CA]-CB--CG-[OD1] |==|  0.42842
USER: genes 12 Torsion [N]-CA--C-[N] |==|  0.88019
USER: genes 13 Torsion [C]-N--CA-[C] |==|  0.83584
USER: genes 14 Torsion [N]-CA--CB-[CG] |==|  0.57168
USER: genes 15 Torsion [CA]-CB--CG-[CD2] |==|  0.08461
USER: genes 16 Torsion [N]-CA--C-[N] |==|  0.39739
USER: genes 17 Torsion [C]-N--CA-[CB] |==|  0.11244
USER: genes 18 Torsion [N]-CA--C-[O] |==|  0.51341
USER: genes 19 Torsion [N]-CA--CB-[CG] |==|  0.66814
USER: genes 20 Torsion [CA]-CB--CG-[CD2] |==|  0.81094
ROOT
ATOM      1  CA  ASP E   2       4.942  -8.089 -11.368  1.00 33.44 LIG 0.19  C 
ENDROOT
BRANCH 1 2
ATOM      2  N   ASP E   2       5.678  -6.845 -11.628  1.00 33.24 LIG-0.35  N 
ATOM      3 H    ASP E   2       5.596  -6.247 -11.015  1.00 33.24 LIG 0.16  HD
ATOM      4  C   ALA E   1       6.407  -6.682 -12.734  1.00 32.93 LIG 0.24  C 
ATOM      5 O    ALA E   1       6.422  -7.502 -13.651  1.00 31.71 LIG-0.27  OA
BRANCH 4 6
ATOM      6  CA  ALA E   1       7.231  -5.401 -12.834  1.00 33.97 LIG 0.17  C 
ATOM      7  CB  ALA E   1       8.396  -5.593 -13.800  1.00 34.31 LIG 0.04  C 
BRANCH 6 8
ATOM      8  N   ALA E   1       7.727  -5.017 -11.510  1.00 34.07 LIG-0.35  N 
ATOM      9  C   GLN E   0       8.276  -3.826 -11.256  1.00 34.65 LIG 0.24  C 
ATOM     10 O    GLN E   0       8.448  -2.954 -12.112  1.00 33.74 LIG-0.27  OA
ATOM     11 H    ALA E   1       7.632  -5.629 -10.913  1.00 34.07 LIG 0.16  HD
BRANCH 9 12
ATOM     12  CA  GLN E   0       8.664  -3.561  -9.802  1.00 34.37 LIG 0.18  C 
BRANCH 12 13
ATOM     13  N   GLN E   0      10.087  -3.069  -9.667  1.00 34.90 LIG-0.35  N 
ATOM     14  C   ACE E  -1      11.093  -3.779  -9.085  1.00 34.22 LIG 0.21  C 
ATOM     15  CH3 ACE E  -1      12.431  -3.065  -9.217  1.00 34.51 LIG 0.12  C 
ATOM     16 O    ACE E  -1      11.120  -4.975  -9.364  1.00 33.28 LIG-0.27  OA
ATOM     17 H    GLN E   0      10.206  -2.284  -9.999  1.00 34.90 LIG 0.16  HD
ENDBRANCH 12 13
BRANCH 12 18
ATOM     18  CB  GLN E   0       7.682  -2.542  -9.212  1.00 34.11 LIG 0.04  C 
BRANCH 18 19
ATOM     19  CG  GLN E   0       7.689  -1.187  -9.911  1.00 32.87 LIG 0.10  C 
BRANCH 19 20
ATOM     20  CD  GLN E   0       6.427  -0.948 -10.716  1.00 32.43 LIG 0.21  C 
ATOM     21 OE1  GLN E   0       6.483  -0.820 -11.936  1.00 31.11 LIG-0.27  OA
ATOM     22  NE2 GLN E   0       5.285  -0.871 -10.040  1.00 32.01 LIG-0.37  N 
ATOM     23 22HE GLN E   0       4.548  -0.727 -10.457  1.00 32.01 LIG 0.16  HD
ATOM     24 21HE GLN E   0       5.284  -0.966  -9.185  1.00 32.01 LIG 0.16  HD
ENDBRANCH 19 20
ENDBRANCH 18 19
ENDBRANCH 12 18
ENDBRANCH 9 12
ENDBRANCH 6 8
ENDBRANCH 4 6
ENDBRANCH 1 2
BRANCH 1 25
ATOM     25  CB  ASP E   2       5.419  -8.729 -10.065  1.00 34.81 LIG 0.15  C 
BRANCH 25 26
ATOM     26  CG  ASP E   2       6.893  -9.067 -10.105  1.00 36.48 LIG 0.17  C 
ATOM     27 OD1  ASP E   2       7.513  -9.123  -9.022  1.00 36.59 LIG-0.65  OA
ATOM     28 OD2  ASP E   2       7.435  -9.249 -11.218  1.00 38.36 LIG-0.65  OA
ENDBRANCH 25 26
ENDBRANCH 1 25
BRANCH 1 29
ATOM     29  C   ASP E   2       3.432  -7.923 -11.339  1.00 31.85 LIG 0.24  C 
ATOM     30 O    ASP E   2       2.695  -8.736 -11.901  1.00 30.99 LIG-0.27  OA
ATOM     31  N   LEU E   3       2.993  -6.848 -10.680  1.00 29.32 LIG-0.35  N 
ATOM     32 H    LEU E   3       3.519  -6.274 -10.315  1.00 29.32 LIG 0.16  HD
BRANCH 31 33
ATOM     33  CA  LEU E   3       1.570  -6.530 -10.507  1.00 27.73 LIG 0.18  C 
BRANCH 33 34
ATOM     34  CB  LEU E   3       1.399  -5.249  -9.664  1.00 28.26 LIG 0.04  C 
BRANCH 34 35
ATOM     35  CG  LEU E   3       0.096  -5.079  -8.879  1.00 28.58 LIG-0.02  C 
ATOM     36  CD2 LEU E   3      -0.483  -6.424  -8.451  1.00 28.56 LIG 0.01  C 
ATOM     37  CD1 LEU E   3      -0.924  -4.309  -9.709  1.00 28.86 LIG 0.01  C 
ENDBRANCH 34 35
ENDBRANCH 33 34
BRANCH 33 38
ATOM     38  C   LEU E   3       0.829  -6.358 -11.822  1.00 26.19 LIG 0.24  C 
ATOM     39  N   PHE E   4      -0.421  -6.812 -11.858  1.00 24.40 LIG-0.34  N 
ATOM     40 H    PHE E   4      -0.836  -7.107 -11.166  1.00 24.40 LIG 0.16  HD
ATOM     41 O    LEU E   3       1.397  -5.837 -12.782  1.00 26.01 LIG-0.27  OA
BRANCH 39 42
ATOM     42  CA  PHE E   4      -1.212  -6.852 -13.081  1.00 23.80 LIG 0.19  C 
BRANCH 42 43
ATOM     43  C   PHE E   4      -2.368  -7.838 -12.930  1.00 24.08 LIG 0.20  C 
ATOM     44 O    PHE E   4      -3.124  -8.108 -13.866  1.00 22.36 LIG-0.65  OA
ATOM     45 OXT  PHE E   4      -2.590  -8.342 -11.833  1.00 24.21 LIG-0.65  OA
ENDBRANCH 42 43
BRANCH 42 46
ATOM     46  CB  PHE E   4      -0.342  -7.303 -14.262  1.00 23.46 LIG 0.07  C 
BRANCH 46 47
ATOM     47  CG  PHE E   4      -0.244  -6.278 -15.372  1.00 22.76 LIG-0.06  A 
ATOM     48  CD1 PHE E   4       0.946  -5.614 -15.626  1.00 22.71 LIG 0.01  A 
ATOM     49  CE1 PHE E   4       1.036  -4.673 -16.638  1.00 22.42 LIG 0.00  A 
ATOM     50  CZ  PHE E   4      -0.081  -4.377 -17.403  1.00 22.02 LIG 0.00  A 
ATOM     51  CE2 PHE E   4      -1.276  -5.026 -17.156  1.00 22.12 LIG 0.00  A 
ATOM     52  CD2 PHE E   4      -1.353  -5.969 -16.146  1.00 22.51 LIG 0.01  A 
ENDBRANCH 46 47
ENDBRANCH 42 46
ENDBRANCH 39 42
ENDBRANCH 33 38
ENDBRANCH 31 33
ENDBRANCH 1 29
TORSDOF 19
ENDMDL
MODEL 2
USER: ADFR SOLUTION from run 116
USER: SCORE 15.725372 LL:  -3.456 LR: -13.771 RR:   0.000 FEB:  -8.104
USER: RMSD 4.430089
USER: SEED 115
USER: STATUS no improvement in best in 8 clusters for 5 generations
USER: GENES 21
USER: genes 0 Translation |==|  0.57014 0.31871 0.59146
USER: genes 1 Rotation |==|  0.41494 0.58782 0.37406 0.96818
USER: genes 2 Torsion [CB]-CA--N-[C] |==|  0.79848
USER: genes 3 Torsion [N]-C--CA-[N] |==|  0.93170
USER: genes 4 Torsion [C]-CA--N-[C] |==|  0.59445
USER: genes 5 Torsion [N]-C--CA-[N] |==|  0.27585
USER: genes 6 Torsion [C]-CA--N-[C] |==|  0.76850
USER: genes 7 Torsion [C]-CA--CB-[CG] |==|  0.70744
USER: genes 8 Torsion [CA]-CB--CG-[CD] |==|  0.76975
USER: genes 9 Torsion [CB]-CG--CD-[OE1] |==|  0.03464
USER: genes 10 Torsion [N]-CA--CB-[CG] |==|  0.59766
USER: genes 11 Torsion [CA]-CB--CG-[OD1] |==|  0.89312
USER: genes 12 Torsion [N]-CA--C-[N] |==|  0.18968
USER: genes 13 Torsion [C]-N--CA-[C] |==|  0.67150
USER: genes 14 Torsion [N]-CA--CB-[CG] |==|  0.74220
USER: genes 15 Torsion [CA]-CB--CG-[CD2] |==|  0.49057
USER: genes 16 Torsion [N]-CA--C-[N] |==|  0.02364
USER: genes 17 Torsion [C]-N--CA-[CB] |==|  0.37985
USER: genes 18 Torsion [N]-CA--C-[O] |==|  0.21307
USER: genes 19 Torsion [N]-CA--CB-[CG] |==|  0.80437
USER: genes 20 Torsion [CA]-CB--CG-[CD2] |==|  0.63939
ROOT
ATOM      1  CA  ASP E   2       5.552  -8.348 -10.112  1.00 33.44 LIG 0.19  C 
ENDROOT
BRANCH 1 2
ATOM      2  N   ASP E   2       4.130  -8.078 -10.364  1.00 33.24 LIG-0.35  N 
ATOM      3 H    ASP E   2       3.769  -7.528  -9.810  1.00 33.24 LIG 0.16  HD
ATOM      4  C   ALA E   1       3.477  -8.654 -11.375  1.00 32.93 LIG 0.24  C 
ATOM      5 O    ALA E   1       3.980  -9.523 -12.087  1.00 31.71 LIG-0.27  OA
BRANCH 4 6
ATOM      6  CA  ALA E   1       2.041  -8.198 -11.617  1.00 33.97 LIG 0.17  C 
ATOM      7  CB  ALA E   1       1.996  -7.147 -12.721  1.00 34.31 LIG 0.04  C 
BRANCH 6 8
ATOM      8  N   ALA E   1       1.467  -7.661 -10.380  1.00 34.07 LIG-0.35  N 
ATOM      9  C   GLN E   0       0.178  -7.794 -10.058  1.00 34.65 LIG 0.24  C 
ATOM     10 O    GLN E   0      -0.655  -8.348 -10.780  1.00 33.74 LIG-0.27  OA
ATOM     11 H    ALA E   1       2.038  -7.252  -9.882  1.00 34.07 LIG 0.16  HD
BRANCH 9 12
ATOM     12  CA  GLN E   0      -0.233  -7.245  -8.692  1.00 34.37 LIG 0.18  C 
BRANCH 12 13
ATOM     13  N   GLN E   0      -0.872  -5.878  -8.791  1.00 34.90 LIG-0.35  N 
ATOM     14  C   ACE E  -1      -0.177  -4.710  -8.860  1.00 34.22 LIG 0.21  C 
ATOM     15  CH3 ACE E  -1      -1.102  -3.521  -9.078  1.00 34.51 LIG 0.12  C 
ATOM     16 O    ACE E  -1       0.811  -4.730  -9.590  1.00 33.28 LIG-0.27  OA
ATOM     17 H    GLN E   0      -1.732  -5.907  -8.800  1.00 34.90 LIG 0.16  HD
ENDBRANCH 12 13
BRANCH 12 18
ATOM     18  CB  GLN E   0      -1.193  -8.244  -8.033  1.00 34.11 LIG 0.04  C 
BRANCH 18 19
ATOM     19  CG  GLN E   0      -2.653  -7.806  -8.037  1.00 32.87 LIG 0.10  C 
BRANCH 19 20
ATOM     20  CD  GLN E   0      -2.975  -6.864  -6.894  1.00 32.43 LIG 0.21  C 
ATOM     21 OE1  GLN E   0      -2.073  -6.356  -6.234  1.00 31.11 LIG-0.27  OA
ATOM     22  NE2 GLN E   0      -4.261  -6.637  -6.643  1.00 32.01 LIG-0.37  N 
ATOM     23 22HE GLN E   0      -4.487  -6.117  -5.997  1.00 32.01 LIG 0.16  HD
ATOM     24 21HE GLN E   0      -4.866  -7.010  -7.127  1.00 32.01 LIG 0.16  HD
ENDBRANCH 19 20
ENDBRANCH 18 19
ENDBRANCH 12 18
ENDBRANCH 9 12
ENDBRANCH 6 8
ENDBRANCH 4 6
ENDBRANCH 1 2
BRANCH 1 25
ATOM     25  CB  ASP E   2       5.735  -9.754  -9.544  1.00 34.81 LIG 0.15  C 
BRANCH 25 26
ATOM     26  CG  ASP E   2       6.859  -9.815  -8.533  1.00 36.48 LIG 0.17  C 
ATOM     27 OD1  ASP E   2       7.888  -9.141  -8.757  1.00 36.59 LIG-0.65  OA
ATOM     28 OD2  ASP E   2       6.726 -10.556  -7.534  1.00 38.36 LIG-0.65  OA
ENDBRANCH 25 26
ENDBRANCH 1 25
BRANCH 1 29
ATOM     29  C   ASP E   2       6.444  -8.162 -11.327  1.00 31.85 LIG 0.24  C 
ATOM     30 O    ASP E   2       6.999  -9.127 -11.859  1.00 30.99 LIG-0.27  OA
ATOM     31  N   LEU E   3       6.576  -6.901 -11.746  1.00 29.32 LIG-0.35  N 
ATOM     32 H    LEU E   3       6.204  -6.234 -11.350  1.00 29.32 LIG 0.16  HD
BRANCH 31 33
ATOM     33  CA  LEU E   3       7.365  -6.517 -12.923  1.00 27.73 LIG 0.18  C 
BRANCH 33 34
ATOM     34  CB  LEU E   3       6.468  -5.837 -13.979  1.00 28.26 LIG 0.04  C 
BRANCH 34 35
ATOM     35  CG  LEU E   3       5.854  -6.719 -15.069  1.00 28.58 LIG-0.02  C 
ATOM     36  CD2 LEU E   3       4.931  -5.922 -15.985  1.00 28.56 LIG 0.01  C 
ATOM     37  CD1 LEU E   3       5.096  -7.882 -14.442  1.00 28.86 LIG 0.01  C 
ENDBRANCH 34 35
ENDBRANCH 33 34
BRANCH 33 38
ATOM     38  C   LEU E   3       8.525  -5.594 -12.593  1.00 26.19 LIG 0.24  C 
ATOM     39  N   PHE E   4       8.778  -5.404 -11.301  1.00 24.40 LIG-0.34  N 
ATOM     40 H    PHE E   4       8.380  -5.836 -10.673  1.00 24.40 LIG 0.16  HD
ATOM     41 O    LEU E   3       9.161  -5.058 -13.502  1.00 26.01 LIG-0.27  OA
BRANCH 39 42
ATOM     42  CA  PHE E   4       9.759  -4.440 -10.821  1.00 23.80 LIG 0.19  C 
BRANCH 42 43
ATOM     43  C   PHE E   4      11.032  -5.157 -10.379  1.00 24.08 LIG 0.20  C 
ATOM     44 O    PHE E   4      11.855  -5.590 -11.189  1.00 22.36 LIG-0.65  OA
ATOM     45 OXT  PHE E   4      11.225  -5.360  -9.184  1.00 24.21 LIG-0.65  OA
ENDBRANCH 42 43
BRANCH 42 46
ATOM     46  CB  PHE E   4       9.199  -3.663  -9.623  1.00 23.46 LIG 0.07  C 
BRANCH 46 47
ATOM     47  CG  PHE E   4       8.093  -2.695  -9.987  1.00 22.76 LIG-0.06  A 
ATOM     48  CD1 PHE E   4       7.023  -3.099 -10.770  1.00 22.71 LIG 0.01  A 
ATOM     49  CE1 PHE E   4       6.013  -2.213 -11.109  1.00 22.42 LIG 0.00  A 
ATOM     50  CZ  PHE E   4       6.075  -0.900 -10.672  1.00 22.02 LIG 0.00  A 
ATOM     51  CE2 PHE E   4       7.140  -0.482  -9.897  1.00 22.12 LIG 0.00  A 
ATOM     52  CD2 PHE E   4       8.141  -1.376  -9.559  1.00 22.51 LIG 0.01  A 
ENDBRANCH 46 47
ENDBRANCH 42 46
ENDBRANCH 39 42
ENDBRANCH 33 38
ENDBRANCH 31 33
ENDBRANCH 1 29
TORSDOF 19
ENDMDL
MODEL 3
USER: ADFR SOLUTION from run 131
USER: SCORE 14.969670 LL:  -3.827 LR: -13.248 RR:   0.000 FEB:  -7.580
USER: RMSD 9.940411
USER: SEED 130
USER: STATUS no improvement in best in 7 clusters for 5 generations
USER: GENES 21
USER: genes 0 Translation |==|  0.56662 0.35382 0.47677
USER: genes 1 Rotation |==|  0.63718 0.09800 0.75925 0.54871
USER: genes 2 Torsion [CB]-CA--N-[C] |==|  0.47778
USER: genes 3 Torsion [N]-C--CA-[N] |==|  0.92876
USER: genes 4 Torsion [C]-CA--N-[C] |==|  0.58435
USER: genes 5 Torsion [N]-C--CA-[N] |==|  0.39820
USER: genes 6 Torsion [C]-CA--N-[C] |==|  0.77481
USER: genes 7 Torsion [C]-CA--CB-[CG] |==|  0.87876
USER: genes 8 Torsion [CA]-CB--CG-[CD] |==|  0.27710
USER: genes 9 Torsion [CB]-CG--CD-[OE1] |==|  0.46731
USER: genes 10 Torsion [N]-CA--CB-[CG] |==|  0.85594
USER: genes 11 Torsion [CA]-CB--CG-[OD1] |==|  0.82518
USER: genes 12 Torsion [N]-CA--C-[N] |==|  0.29033
USER: genes 13 Torsion [C]-N--CA-[C] |==|  0.75668
USER: genes 14 Torsion [N]-CA--CB-[CG] |==|  0.50474
USER: genes 15 Torsion [CA]-CB--CG-[CD2] |==|  0.68182
USER: genes 16 Torsion [N]-CA--C-[N] |==|  0.43296
USER: genes 17 Torsion [C]-N--CA-[CB] |==|  0.28703
USER: genes 18 Torsion [N]-CA--C-[O] |==|  0.58744
USER: genes 19 Torsion [N]-CA--CB-[CG] |==|  0.03675
USER: genes 20 Torsion [CA]-CB--CG-[CD2] |==|  0.78758
ROOT
ATOM      1  CA  ASP E   2       5.462  -7.769 -11.833  1.00 33.44 LIG 0.19  C 
ENDROOT
BRANCH 1 2
ATOM      2  N   ASP E   2       6.535  -6.766 -11.840  1.00 33.24 LIG-0.35  N 
ATOM      3 H    ASP E   2       7.001  -6.737 -11.118  1.00 33.24 LIG 0.16  HD
ATOM      4  C   ALA E   1       6.747  -5.977 -12.895  1.00 32.93 LIG 0.24  C 
ATOM      5 O    ALA E   1       6.001  -5.954 -13.874  1.00 31.71 LIG-0.27  OA
BRANCH 4 6
ATOM      6  CA  ALA E   1       7.970  -5.066 -12.840  1.00 33.97 LIG 0.17  C 
ATOM      7  CB  ALA E   1       9.145  -5.709 -13.568  1.00 34.31 LIG 0.04  C 
BRANCH 6 8
ATOM      8  N   ALA E   1       8.327  -4.785 -11.446  1.00 34.07 LIG-0.35  N 
ATOM      9  C   GLN E   0       8.905  -3.646 -11.058  1.00 34.65 LIG 0.24  C 
ATOM     10 O    GLN E   0       9.222  -2.740 -11.833  1.00 33.74 LIG-0.27  OA
ATOM     11 H    ALA E   1       8.130  -5.423 -10.903  1.00 34.07 LIG 0.16  HD
BRANCH 9 12
ATOM     12  CA  GLN E   0       9.134  -3.486  -9.556  1.00 34.37 LIG 0.18  C 
BRANCH 12 13
ATOM     13  N   GLN E   0      10.430  -2.772  -9.244  1.00 34.90 LIG-0.35  N 
ATOM     14  C   ACE E  -1      11.652  -3.371  -9.235  1.00 34.22 LIG 0.21  C 
ATOM     15  CH3 ACE E  -1      12.768  -2.360  -9.009  1.00 34.51 LIG 0.12  C 
ATOM     16 O    ACE E  -1      11.856  -4.162 -10.153  1.00 33.28 LIG-0.27  OA
ATOM     17 H    GLN E   0      10.321  -1.937  -9.070  1.00 34.90 LIG 0.16  HD
ENDBRANCH 12 13
BRANCH 12 18
ATOM     18  CB  GLN E   0       7.942  -2.728  -8.958  1.00 34.11 LIG 0.04  C 
BRANCH 18 19
ATOM     19  CG  GLN E   0       7.483  -1.531  -9.782  1.00 32.87 LIG 0.10  C 
BRANCH 19 20
ATOM     20  CD  GLN E   0       6.271  -1.848 -10.635  1.00 32.43 LIG 0.21  C 
ATOM     21 OE1  GLN E   0       5.648  -0.947 -11.190  1.00 31.11 LIG-0.27  OA
ATOM     22  NE2 GLN E   0       5.921  -3.127 -10.733  1.00 32.01 LIG-0.37  N 
ATOM     23 22HE GLN E   0       5.234  -3.349 -11.199  1.00 32.01 LIG 0.16  HD
ATOM     24 21HE GLN E   0       6.382  -3.731 -10.331  1.00 32.01 LIG 0.16  HD
ENDBRANCH 19 20
ENDBRANCH 18 19
ENDBRANCH 12 18
ENDBRANCH 9 12
ENDBRANCH 6 8
ENDBRANCH 4 6
ENDBRANCH 1 2
BRANCH 1 25
ATOM     25  CB  ASP E   2       5.571  -8.657 -10.594  1.00 34.81 LIG 0.15  C 
BRANCH 25 26
ATOM     26  CG  ASP E   2       6.957  -9.241 -10.435  1.00 36.48 LIG 0.17  C 
ATOM     27 OD1  ASP E   2       7.376 -10.011 -11.326  1.00 36.59 LIG-0.65  OA
ATOM     28 OD2  ASP E   2       7.614  -8.953  -9.410  1.00 38.36 LIG-0.65  OA
ENDBRANCH 25 26
ENDBRANCH 1 25
BRANCH 1 29
ATOM     29  C   ASP E   2       4.063  -7.183 -11.926  1.00 31.85 LIG 0.24  C 
ATOM     30 O    ASP E   2       3.535  -6.646 -10.950  1.00 30.99 LIG-0.27  OA
ATOM     31  N   LEU E   3       3.475  -7.308 -13.119  1.00 29.32 LIG-0.35  N 
ATOM     32 H    LEU E   3       3.845  -7.709 -13.784  1.00 29.32 LIG 0.16  HD
BRANCH 31 33
ATOM     33  CA  LEU E   3       2.141  -6.777 -13.423  1.00 27.73 LIG 0.18  C 
BRANCH 33 34
ATOM     34  CB  LEU E   3       2.037  -6.391 -14.913  1.00 28.26 LIG 0.04  C 
BRANCH 34 35
ATOM     35  CG  LEU E   3       0.722  -5.779 -15.402  1.00 28.58 LIG-0.02  C 
ATOM     36  CD2 LEU E   3       0.015  -6.690 -16.401  1.00 28.56 LIG 0.01  C 
ATOM     37  CD1 LEU E   3       0.976  -4.413 -16.026  1.00 28.86 LIG 0.01  C 
ENDBRANCH 34 35
ENDBRANCH 33 34
BRANCH 33 38
ATOM     38  C   LEU E   3       1.019  -7.743 -13.085  1.00 26.19 LIG 0.24  C 
ATOM     39  N   PHE E   4      -0.176  -7.204 -12.854  1.00 24.40 LIG-0.34  N 
ATOM     40 H    PHE E   4      -0.347  -6.369 -12.972  1.00 24.40 LIG 0.16  HD
ATOM     41 O    LEU E   3       1.247  -8.952 -13.020  1.00 26.01 LIG-0.27  OA
BRANCH 39 42
ATOM     42  CA  PHE E   4      -1.315  -7.977 -12.379  1.00 23.80 LIG 0.19  C 
BRANCH 42 43
ATOM     43  C   PHE E   4      -2.579  -7.576 -13.135  1.00 24.08 LIG 0.20  C 
ATOM     44 O    PHE E   4      -3.694  -7.612 -12.610  1.00 22.36 LIG-0.65  OA
ATOM     45 OXT  PHE E   4      -2.498  -7.256 -14.317  1.00 24.21 LIG-0.65  OA
ENDBRANCH 42 43
BRANCH 42 46
ATOM     46  CB  PHE E   4      -1.543  -7.722 -10.883  1.00 23.46 LIG 0.07  C 
BRANCH 46 47
ATOM     47  CG  PHE E   4      -0.776  -6.533 -10.344  1.00 22.76 LIG-0.06  A 
ATOM     48  CD1 PHE E   4      -1.411  -5.323 -10.111  1.00 22.71 LIG 0.01  A 
ATOM     49  CE1 PHE E   4      -0.710  -4.232  -9.624  1.00 22.42 LIG 0.00  A 
ATOM     50  CZ  PHE E   4       0.649  -4.343  -9.374  1.00 22.02 LIG 0.00  A 
ATOM     51  CE2 PHE E   4       1.296  -5.541  -9.609  1.00 22.12 LIG 0.00  A 
ATOM     52  CD2 PHE E   4       0.585  -6.627 -10.091  1.00 22.51 LIG 0.01  A 
ENDBRANCH 46 47
ENDBRANCH 42 46
ENDBRANCH 39 42
ENDBRANCH 33 38
ENDBRANCH 31 33
ENDBRANCH 1 29
TORSDOF 19
ENDMDL
MODEL 4
USER: ADFR SOLUTION from run 170
USER: SCORE 16.370247 LL:  -3.419 LR: -13.222 RR:   0.000 FEB:  -7.555
USER: RMSD 2.058792
USER: SEED 169
USER: STATUS no improvement in best in 6 clusters for 5 generations
USER: GENES 21
USER: genes 0 Translation |==|  0.52009 0.42624 0.47700
USER: genes 1 Rotation |==|  0.46907 0.49623 0.41141 0.99110
USER: genes 2 Torsion [CB]-CA--N-[C] |==|  0.82820
USER: genes 3 Torsion [N]-C--CA-[N] |==|  0.91729
USER: genes 4 Torsion [C]-CA--N-[C] |==|  0.80953
USER: genes 5 Torsion [N]-C--CA-[N] |==|  0.40000
USER: genes 6 Torsion [C]-CA--N-[C] |==|  0.74700
USER: genes 7 Torsion [C]-CA--CB-[CG] |==|  0.27834
USER: genes 8 Torsion [CA]-CB--CG-[CD] |==|  0.63038
USER: genes 9 Torsion [CB]-CG--CD-[OE1] |==|  0.05530
USER: genes 10 Torsion [N]-CA--CB-[CG] |==|  0.89671
USER: genes 11 Torsion [CA]-CB--CG-[OD1] |==|  0.42406
USER: genes 12 Torsion [N]-CA--C-[N] |==|  0.35726
USER: genes 13 Torsion [C]-N--CA-[C] |==|  0.76708
USER: genes 14 Torsion [N]-CA--CB-[CG] |==|  0.02326
USER: genes 15 Torsion [CA]-CB--CG-[CD2] |==|  0.65436
USER: genes 16 Torsion [N]-CA--C-[N] |==|  0.91115
USER: genes 17 Torsion [C]-N--CA-[CB] |==|  0.27401
USER: genes 18 Torsion [N]-CA--C-[O] |==|  0.37738
USER: genes 19 Torsion [N]-CA--CB-[CG] |==|  0.50016
USER: genes 20 Torsion [CA]-CB--CG-[CD2] |==|  0.67928
ROOT
ATOM      1  CA  ASP E   2       4.275  -6.574 -11.829  1.00 33.44 LIG 0.19  C 
ENDROOT
BRANCH 1 2
ATOM      2  N   ASP E   2       3.020  -6.483 -12.586  1.00 33.24 LIG-0.35  N 
ATOM      3 H    ASP E   2       2.421  -5.983 -12.224  1.00 33.24 LIG 0.16  HD
ATOM      4  C   ALA E   1       2.849  -7.133 -13.739  1.00 32.93 LIG 0.24  C 
ATOM      5 O    ALA E   1       3.673  -7.931 -14.184  1.00 31.71 LIG-0.27  OA
BRANCH 4 6
ATOM      6  CA  ALA E   1       1.555  -6.859 -14.500  1.00 33.97 LIG 0.17  C 
ATOM      7  CB  ALA E   1       1.759  -5.729 -15.504  1.00 34.31 LIG 0.04  C 
BRANCH 6 8
ATOM      8  N   ALA E   1       0.481  -6.519 -13.563  1.00 34.07 LIG-0.35  N 
ATOM      9  C   GLN E   0      -0.049  -7.401 -12.712  1.00 34.65 LIG 0.24  C 
ATOM     10 O    GLN E   0       0.288  -8.587 -12.657  1.00 33.74 LIG-0.27  OA
ATOM     11 H    ALA E   1       0.225  -5.699 -13.612  1.00 34.07 LIG 0.16  HD
BRANCH 9 12
ATOM     12  CA  GLN E   0      -1.103  -6.857 -11.750  1.00 34.37 LIG 0.18  C 
BRANCH 12 13
ATOM     13  N   GLN E   0      -2.206  -7.855 -11.481  1.00 34.90 LIG-0.35  N 
ATOM     14  C   ACE E  -1      -3.358  -7.938 -12.201  1.00 34.22 LIG 0.21  C 
ATOM     15  CH3 ACE E  -1      -4.208  -9.123 -11.763  1.00 34.51 LIG 0.12  C 
ATOM     16 O    ACE E  -1      -3.225  -7.826 -13.418  1.00 33.28 LIG-0.27  OA
ATOM     17 H    GLN E   0      -2.036  -8.376 -10.818  1.00 34.90 LIG 0.16  HD
ENDBRANCH 12 13
BRANCH 12 18
ATOM     18  CB  GLN E   0      -0.409  -6.453 -10.443  1.00 34.11 LIG 0.04  C 
BRANCH 18 19
ATOM     19  CG  GLN E   0      -0.143  -4.958 -10.310  1.00 32.87 LIG 0.10  C 
BRANCH 19 20
ATOM     20  CD  GLN E   0       1.271  -4.663  -9.851  1.00 32.43 LIG 0.21  C 
ATOM     21 OE1  GLN E   0       2.154  -5.506  -9.975  1.00 31.11 LIG-0.27  OA
ATOM     22  NE2 GLN E   0       1.491  -3.471  -9.304  1.00 32.01 LIG-0.37  N 
ATOM     23 22HE GLN E   0       2.277  -3.266  -9.021  1.00 32.01 LIG 0.16  HD
ATOM     24 21HE GLN E   0       0.848  -2.904  -9.234  1.00 32.01 LIG 0.16  HD
ENDBRANCH 19 20
ENDBRANCH 18 19
ENDBRANCH 12 18
ENDBRANCH 9 12
ENDBRANCH 6 8
ENDBRANCH 4 6
ENDBRANCH 1 2
BRANCH 1 25
ATOM     25  CB  ASP E   2       4.533  -8.016 -11.395  1.00 34.81 LIG 0.15  C 
BRANCH 25 26
ATOM     26  CG  ASP E   2       3.256  -8.729 -11.011  1.00 36.48 LIG 0.17  C 
ATOM     27 OD1  ASP E   2       3.214  -9.972 -11.141  1.00 36.59 LIG-0.65  OA
ATOM     28 OD2  ASP E   2       2.288  -8.048 -10.606  1.00 38.36 LIG-0.65  OA
ENDBRANCH 25 26
ENDBRANCH 1 25
BRANCH 1 29
ATOM     29  C   ASP E   2       5.488  -6.033 -12.568  1.00 31.85 LIG 0.24  C 
ATOM     30 O    ASP E   2       5.754  -6.412 -13.710  1.00 30.99 LIG-0.27  OA
ATOM     31  N   LEU E   3       6.218  -5.147 -11.886  1.00 29.32 LIG-0.35  N 
ATOM     32 H    LEU E   3       6.035  -4.911 -11.079  1.00 29.32 LIG 0.16  HD
BRANCH 31 33
ATOM     33  CA  LEU E   3       7.405  -4.482 -12.436  1.00 27.73 LIG 0.18  C 
BRANCH 33 34
ATOM     34  CB  LEU E   3       7.629  -3.118 -11.751  1.00 28.26 LIG 0.04  C 
BRANCH 34 35
ATOM     35  CG  LEU E   3       6.761  -2.777 -10.537  1.00 28.58 LIG-0.02  C 
ATOM     36  CD2 LEU E   3       6.017  -1.459 -10.730  1.00 28.56 LIG 0.01  C 
ATOM     37  CD1 LEU E   3       7.614  -2.718  -9.277  1.00 28.86 LIG 0.01  C 
ENDBRANCH 34 35
ENDBRANCH 33 34
BRANCH 33 38
ATOM     38  C   LEU E   3       8.671  -5.311 -12.309  1.00 26.19 LIG 0.24  C 
ATOM     39  N   PHE E   4       8.750  -6.109 -11.247  1.00 24.40 LIG-0.34  N 
ATOM     40 H    PHE E   4       8.098  -6.232 -10.699  1.00 24.40 LIG 0.16  HD
ATOM     41 O    LEU E   3       9.560  -5.209 -13.155  1.00 26.01 LIG-0.27  OA
BRANCH 39 42
ATOM     42  CA  PHE E   4       9.953  -6.856 -10.906  1.00 23.80 LIG 0.19  C 
BRANCH 42 43
ATOM     43  C   PHE E   4       9.584  -8.240 -10.376  1.00 24.08 LIG 0.20  C 
ATOM     44 O    PHE E   4      10.179  -9.258 -10.735  1.00 22.36 LIG-0.65  OA
ATOM     45 OXT  PHE E   4       8.633  -8.357  -9.609  1.00 24.21 LIG-0.65  OA
ENDBRANCH 42 43
BRANCH 42 46
ATOM     46  CB  PHE E   4      10.748  -6.118  -9.821  1.00 23.46 LIG 0.07  C 
BRANCH 46 47
ATOM     47  CG  PHE E   4      12.020  -6.828  -9.408  1.00 22.76 LIG-0.06  A 
ATOM     48  CD1 PHE E   4      13.052  -7.024 -10.312  1.00 22.71 LIG 0.01  A 
ATOM     49  CE1 PHE E   4      14.214  -7.679  -9.937  1.00 22.42 LIG 0.00  A 
ATOM     50  CZ  PHE E   4      14.346  -8.158  -8.643  1.00 22.02 LIG 0.00  A 
ATOM     51  CE2 PHE E   4      13.322  -7.976  -7.734  1.00 22.12 LIG 0.00  A 
ATOM     52  CD2 PHE E   4      12.167  -7.316  -8.117  1.00 22.51 LIG 0.01  A 
ENDBRANCH 46 47
ENDBRANCH 42 46
ENDBRANCH 39 42
ENDBRANCH 33 38
ENDBRANCH 31 33
ENDBRANCH 1 29
TORSDOF 19
ENDMDL
MODEL 5
USER: ADFR SOLUTION from run 116
USER: SCORE 15.141707 LL:  -3.639 LR: -13.198 RR:   0.000 FEB:  -7.530
USER: RMSD 4.355814
USER: SEED 115
USER: STATUS no improvement in best in 8 clusters for 5 generations
USER: GENES 21
USER: genes 0 Translation |==|  0.56460 0.30025 0.58784
USER: genes 1 Rotation |==|  0.36810 0.56443 0.43516 0.97355
USER: genes 2 Torsion [CB]-CA--N-[C] |==|  0.80534
USER: genes 3 Torsion [N]-C--CA-[N] |==|  0.13529
USER: genes 4 Torsion [C]-CA--N-[C] |==|  0.75631
USER: genes 5 Torsion [N]-C--CA-[N] |==|  0.06655
USER: genes 6 Torsion [C]-CA--N-[C] |==|  0.77593
USER: genes 7 Torsion [C]-CA--CB-[CG] |==|  0.30461
USER: genes 8 Torsion [CA]-CB--CG-[CD] |==|  0.48669
USER: genes 9 Torsion [CB]-CG--CD-[OE1] |==|  0.13856
USER: genes 10 Torsion [N]-CA--CB-[CG] |==|  0.58030
USER: genes 11 Torsion [CA]-CB--CG-[OD1] |==|  0.84304
USER: genes 12 Torsion [N]-CA--C-[N] |==|  0.26355
USER: genes 13 Torsion [C]-N--CA-[C] |==|  0.64888
USER: genes 14 Torsion [N]-CA--CB-[CG] |==|  0.74432
USER: genes 15 Torsion [CA]-CB--CG-[CD2] |==|  0.48010
USER: genes 16 Torsion [N]-CA--C-[N] |==|  0.01960
USER: genes 17 Torsion [C]-N--CA-[CB] |==|  0.37852
USER: genes 18 Torsion [N]-CA--C-[O] |==|  0.21244
USER: genes 19 Torsion [N]-CA--CB-[CG] |==|  0.78886
USER: genes 20 Torsion [CA]-CB--CG-[CD2] |==|  0.63928
ROOT
ATOM      1  CA  ASP E   2       5.410  -8.653 -10.166  1.00 33.44 LIG 0.19  C 
ENDROOT
BRANCH 1 2
ATOM      2  N   ASP E   2       3.976  -8.832 -10.429  1.00 33.24 LIG-0.35  N 
ATOM      3 H    ASP E   2       3.464  -8.305  -9.982  1.00 33.24 LIG 0.16  HD
ATOM      4  C   ALA E   1       3.532  -9.746 -11.294  1.00 32.93 LIG 0.24  C 
ATOM      5 O    ALA E   1       4.272 -10.565 -11.838  1.00 31.71 LIG-0.27  OA
BRANCH 4 6
ATOM      6  CA  ALA E   1       2.034  -9.752 -11.582  1.00 33.97 LIG 0.17  C 
ATOM      7  CB  ALA E   1       1.720 -10.686 -12.746  1.00 34.31 LIG 0.04  C 
BRANCH 6 8
ATOM      8  N   ALA E   1       1.573  -8.393 -11.882  1.00 34.07 LIG-0.35  N 
ATOM      9  C   GLN E   0       1.176  -7.535 -10.940  1.00 34.65 LIG 0.24  C 
ATOM     10 O    GLN E   0       1.126  -7.811  -9.739  1.00 33.74 LIG-0.27  OA
ATOM     11 H    ALA E   1       1.582  -8.202 -12.721  1.00 34.07 LIG 0.16  HD
BRANCH 9 12
ATOM     12  CA  GLN E   0       0.804  -6.133 -11.422  1.00 34.37 LIG 0.18  C 
BRANCH 12 13
ATOM     13  N   GLN E   0       0.398  -6.114 -12.878  1.00 34.90 LIG-0.35  N 
ATOM     14  C   ACE E  -1       1.276  -6.105 -13.919  1.00 34.22 LIG 0.21  C 
ATOM     15  CH3 ACE E  -1       0.558  -6.213 -15.257  1.00 34.51 LIG 0.12  C 
ATOM     16 O    ACE E  -1       2.243  -6.852 -13.795  1.00 33.28 LIG-0.27  OA
ATOM     17 H    GLN E   0      -0.455  -6.109 -12.991  1.00 34.90 LIG 0.16  HD
ENDBRANCH 12 13
BRANCH 12 18
ATOM     18  CB  GLN E   0      -0.329  -5.597 -10.537  1.00 34.11 LIG 0.04  C 
BRANCH 18 19
ATOM     19  CG  GLN E   0       0.086  -4.466  -9.603  1.00 32.87 LIG 0.10  C 
BRANCH 19 20
ATOM     20  CD  GLN E   0      -1.088  -3.893  -8.835  1.00 32.43 LIG 0.21  C 
ATOM     21 OE1  GLN E   0      -1.862  -4.635  -8.237  1.00 31.11 LIG-0.27  OA
ATOM     22  NE2 GLN E   0      -1.238  -2.572  -8.859  1.00 32.01 LIG-0.37  N 
ATOM     23 22HE GLN E   0      -1.896  -2.206  -8.444  1.00 32.01 LIG 0.16  HD
ATOM     24 21HE GLN E   0      -0.675  -2.083  -9.289  1.00 32.01 LIG 0.16  HD
ENDBRANCH 19 20
ENDBRANCH 18 19
ENDBRANCH 12 18
ENDBRANCH 9 12
ENDBRANCH 6 8
ENDBRANCH 4 6
ENDBRANCH 1 2
BRANCH 1 25
ATOM     25  CB  ASP E   2       5.966  -9.850  -9.396  1.00 34.81 LIG 0.15  C 
BRANCH 25 26
ATOM     26  CG  ASP E   2       7.139  -9.466  -8.521  1.00 36.48 LIG 0.17  C 
ATOM     27 OD1  ASP E   2       8.123  -8.920  -9.064  1.00 36.59 LIG-0.65  OA
ATOM     28 OD2  ASP E   2       7.088  -9.735  -7.300  1.00 38.36 LIG-0.65  OA
ENDBRANCH 25 26
ENDBRANCH 1 25
BRANCH 1 29
ATOM     29  C   ASP E   2       6.245  -8.409 -11.412  1.00 31.85 LIG 0.24  C 
ATOM     30 O    ASP E   2       6.674  -9.352 -12.082  1.00 30.99 LIG-0.27  OA
ATOM     31  N   LEU E   3       6.471  -7.125 -11.701  1.00 29.32 LIG-0.35  N 
ATOM     32 H    LEU E   3       6.188  -6.477 -11.211  1.00 29.32 LIG 0.16  HD
BRANCH 31 33
ATOM     33  CA  LEU E   3       7.223  -6.681 -12.881  1.00 27.73 LIG 0.18  C 
BRANCH 33 34
ATOM     34  CB  LEU E   3       6.287  -5.984 -13.890  1.00 28.26 LIG 0.04  C 
BRANCH 34 35
ATOM     35  CG  LEU E   3       5.653  -6.843 -14.987  1.00 28.58 LIG-0.02  C 
ATOM     36  CD2 LEU E   3       4.625  -6.057 -15.794  1.00 28.56 LIG 0.01  C 
ATOM     37  CD1 LEU E   3       5.008  -8.083 -14.380  1.00 28.86 LIG 0.01  C 
ENDBRANCH 34 35
ENDBRANCH 33 34
BRANCH 33 38
ATOM     38  C   LEU E   3       8.370  -5.744 -12.544  1.00 26.19 LIG 0.24  C 
ATOM     39  N   PHE E   4       8.630  -5.571 -11.250  1.00 24.40 LIG-0.34  N 
ATOM     40 H    PHE E   4       8.244  -6.021 -10.627  1.00 24.40 LIG 0.16  HD
ATOM     41 O    LEU E   3       8.990  -5.182 -13.447  1.00 26.01 LIG-0.27  OA
BRANCH 39 42
ATOM     42  CA  PHE E   4       9.598  -4.599 -10.762  1.00 23.80 LIG 0.19  C 
BRANCH 42 43
ATOM     43  C   PHE E   4      10.882  -5.303 -10.330  1.00 24.08 LIG 0.20  C 
ATOM     44 O    PHE E   4      11.707  -5.719 -11.147  1.00 22.36 LIG-0.65  OA
ATOM     45 OXT  PHE E   4      11.082  -5.514  -9.137  1.00 24.21 LIG-0.65  OA
ENDBRANCH 42 43
BRANCH 42 46
ATOM     46  CB  PHE E   4       9.030  -3.844  -9.553  1.00 23.46 LIG 0.07  C 
BRANCH 46 47
ATOM     47  CG  PHE E   4       8.003  -2.793  -9.919  1.00 22.76 LIG-0.06  A 
ATOM     48  CD1 PHE E   4       6.950  -3.091 -10.769  1.00 22.71 LIG 0.01  A 
ATOM     49  CE1 PHE E   4       6.013  -2.129 -11.109  1.00 22.42 LIG 0.00  A 
ATOM     50  CZ  PHE E   4       6.134  -0.844 -10.605  1.00 22.02 LIG 0.00  A 
ATOM     51  CE2 PHE E   4       7.184  -0.530  -9.763  1.00 22.12 LIG 0.00  A 
ATOM     52  CD2 PHE E   4       8.111  -1.500  -9.425  1.00 22.51 LIG 0.01  A 
ENDBRANCH 46 47
ENDBRANCH 42 46
ENDBRANCH 39 42
ENDBRANCH 33 38
ENDBRANCH 31 33
ENDBRANCH 1 29
TORSDOF 19
ENDMDL
MODEL 6
USER: ADFR SOLUTION from run 131
USER: SCORE 14.245906 LL:  -3.383 LR: -13.100 RR:   0.000 FEB:  -7.432
USER: RMSD 9.668767
USER: SEED 130
USER: STATUS no improvement in best in 7 clusters for 5 generations
USER: GENES 21
USER: genes 0 Translation |==|  0.56262 0.31014 0.51834
USER: genes 1 Rotation |==|  0.69443 0.14763 0.79418 0.53857
USER: genes 2 Torsion [CB]-CA--N-[C] |==|  0.43248
USER: genes 3 Torsion [N]-C--CA-[N] |==|  0.01208
USER: genes 4 Torsion [C]-CA--N-[C] |==|  0.57778
USER: genes 5 Torsion [N]-C--CA-[N] |==|  0.33808
USER: genes 6 Torsion [C]-CA--N-[C] |==|  0.60570
USER: genes 7 Torsion [C]-CA--CB-[CG] |==|  0.79637
USER: genes 8 Torsion [CA]-CB--CG-[CD] |==|  0.29142
USER: genes 9 Torsion [CB]-CG--CD-[OE1] |==|  0.69015
USER: genes 10 Torsion [N]-CA--CB-[CG] |==|  0.87114
USER: genes 11 Torsion [CA]-CB--CG-[OD1] |==|  0.43339
USER: genes 12 Torsion [N]-CA--C-[N] |==|  0.93831
USER: genes 13 Torsion [C]-N--CA-[C] |==|  0.79263
USER: genes 14 Torsion [N]-CA--CB-[CG] |==|  0.63181
USER: genes 15 Torsion [CA]-CB--CG-[CD2] |==|  0.06990
USER: genes 16 Torsion [N]-CA--C-[N] |==|  0.98119
USER: genes 17 Torsion [C]-N--CA-[CB] |==|  0.18373
USER: genes 18 Torsion [N]-CA--C-[O] |==|  0.79954
USER: genes 19 Torsion [N]-CA--CB-[CG] |==|  0.62384
USER: genes 20 Torsion [CA]-CB--CG-[CD2] |==|  0.12905
ROOT
ATOM      1  CA  ASP E   2       5.360  -8.490 -11.209  1.00 33.44 LIG 0.19  C 
ENDROOT
BRANCH 1 2
ATOM      2  N   ASP E   2       6.114  -7.260 -11.485  1.00 33.24 LIG-0.35  N 
ATOM      3 H    ASP E   2       6.401  -6.853 -10.784  1.00 33.24 LIG 0.16  HD
ATOM      4  C   ALA E   1       6.321  -6.831 -12.731  1.00 32.93 LIG 0.24  C 
ATOM      5 O    ALA E   1       5.807  -7.363 -13.715  1.00 31.71 LIG-0.27  OA
BRANCH 4 6
ATOM      6  CA  ALA E   1       7.228  -5.615 -12.901  1.00 33.97 LIG 0.17  C 
ATOM      7  CB  ALA E   1       8.350  -5.922 -13.887  1.00 34.31 LIG 0.04  C 
BRANCH 6 8
ATOM      8  N   ALA E   1       7.785  -5.217 -11.605  1.00 34.07 LIG-0.35  N 
ATOM      9  C   GLN E   0       8.138  -3.962 -11.319  1.00 34.65 LIG 0.24  C 
ATOM     10 O    GLN E   0       8.063  -3.029 -12.124  1.00 33.74 LIG-0.27  OA
ATOM     11 H    ALA E   1       7.863  -5.867 -11.047  1.00 34.07 LIG 0.16  HD
BRANCH 9 12
ATOM     12  CA  GLN E   0       8.625  -3.708  -9.893  1.00 34.37 LIG 0.18  C 
BRANCH 12 13
ATOM     13  N   GLN E   0      10.025  -3.140  -9.856  1.00 34.90 LIG-0.35  N 
ATOM     14  C   ACE E  -1      10.963  -3.472  -8.927  1.00 34.22 LIG 0.21  C 
ATOM     15  CH3 ACE E  -1      12.307  -2.826  -9.234  1.00 34.51 LIG 0.12  C 
ATOM     16 O    ACE E  -1      11.022  -4.666  -8.644  1.00 33.28 LIG-0.27  OA
ATOM     17 H    GLN E   0      10.178  -2.577 -10.488  1.00 34.90 LIG 0.16  HD
ENDBRANCH 12 13
BRANCH 12 18
ATOM     18  CB  GLN E   0       7.637  -2.759  -9.202  1.00 34.11 LIG 0.04  C 
BRANCH 18 19
ATOM     19  CG  GLN E   0       7.719  -1.313  -9.679  1.00 32.87 LIG 0.10  C 
BRANCH 19 20
ATOM     20  CD  GLN E   0       6.564  -0.940 -10.586  1.00 32.43 LIG 0.21  C 
ATOM     21 OE1  GLN E   0       6.757  -0.715 -11.778  1.00 31.11 LIG-0.27  OA
ATOM     22  NE2 GLN E   0       5.361  -0.857 -10.028  1.00 32.01 LIG-0.37  N 
ATOM     23 22HE GLN E   0       4.680  -0.638 -10.505  1.00 32.01 LIG 0.16  HD
ATOM     24 21HE GLN E   0       5.263  -1.022  -9.189  1.00 32.01 LIG 0.16  HD
ENDBRANCH 19 20
ENDBRANCH 18 19
ENDBRANCH 12 18
ENDBRANCH 9 12
ENDBRANCH 6 8
ENDBRANCH 4 6
ENDBRANCH 1 2
BRANCH 1 25
ATOM     25  CB  ASP E   2       5.760  -9.068  -9.853  1.00 34.81 LIG 0.15  C 
BRANCH 25 26
ATOM     26  CG  ASP E   2       7.262  -9.102  -9.672  1.00 36.48 LIG 0.17  C 
ATOM     27 OD1  ASP E   2       7.713  -9.107  -8.507  1.00 36.59 LIG-0.65  OA
ATOM     28 OD2  ASP E   2       7.988  -9.097 -10.691  1.00 38.36 LIG-0.65  OA
ENDBRANCH 25 26
ENDBRANCH 1 25
BRANCH 1 29
ATOM     29  C   ASP E   2       3.851  -8.321 -11.273  1.00 31.85 LIG 0.24  C 
ATOM     30 O    ASP E   2       3.114  -9.288 -11.477  1.00 30.99 LIG-0.27  OA
ATOM     31  N   LEU E   3       3.413  -7.071 -11.104  1.00 29.32 LIG-0.35  N 
ATOM     32 H    LEU E   3       3.940  -6.401 -10.989  1.00 29.32 LIG 0.16  HD
BRANCH 31 33
ATOM     33  CA  LEU E   3       1.991  -6.706 -11.096  1.00 27.73 LIG 0.18  C 
BRANCH 33 34
ATOM     34  CB  LEU E   3       1.792  -5.313 -10.463  1.00 28.26 LIG 0.04  C 
BRANCH 34 35
ATOM     35  CG  LEU E   3       0.694  -5.157  -9.408  1.00 28.58 LIG-0.02  C 
ATOM     36  CD2 LEU E   3       0.388  -6.481  -8.716  1.00 28.56 LIG 0.01  C 
ATOM     37  CD1 LEU E   3      -0.570  -4.591 -10.042  1.00 28.86 LIG 0.01  C 
ENDBRANCH 34 35
ENDBRANCH 33 34
BRANCH 33 38
ATOM     38  C   LEU E   3       1.361  -6.715 -12.477  1.00 26.19 LIG 0.24  C 
ATOM     39  N   PHE E   4       2.187  -6.908 -13.502  1.00 24.40 LIG-0.34  N 
ATOM     40 H    PHE E   4       3.019  -7.107 -13.407  1.00 24.40 LIG 0.16  HD
ATOM     41 O    LEU E   3       0.149  -6.534 -12.600  1.00 26.01 LIG-0.27  OA
BRANCH 39 42
ATOM     42  CA  PHE E   4       1.763  -6.800 -14.891  1.00 23.80 LIG 0.19  C 
BRANCH 42 43
ATOM     43  C   PHE E   4       2.898  -7.215 -15.824  1.00 24.08 LIG 0.20  C 
ATOM     44 O    PHE E   4       3.894  -6.509 -15.996  1.00 22.36 LIG-0.65  OA
ATOM     45 OXT  PHE E   4       2.800  -8.256 -16.466  1.00 24.21 LIG-0.65  OA
ENDBRANCH 42 43
BRANCH 42 46
ATOM     46  CB  PHE E   4       1.373  -5.353 -15.217  1.00 23.46 LIG 0.07  C 
BRANCH 46 47
ATOM     47  CG  PHE E   4       0.087  -5.231 -16.007  1.00 22.76 LIG-0.06  A 
ATOM     48  CD1 PHE E   4       0.002  -4.387 -17.103  1.00 22.71 LIG 0.01  A 
ATOM     49  CE1 PHE E   4      -1.176  -4.270 -17.823  1.00 22.42 LIG 0.00  A 
ATOM     50  CZ  PHE E   4      -2.292  -4.995 -17.439  1.00 22.02 LIG 0.00  A 
ATOM     51  CE2 PHE E   4      -2.224  -5.834 -16.343  1.00 22.12 LIG 0.00  A 
ATOM     52  CD2 PHE E   4      -1.041  -5.948 -15.634  1.00 22.51 LIG 0.01  A 
ENDBRANCH 46 47
ENDBRANCH 42 46
ENDBRANCH 39 42
ENDBRANCH 33 38
ENDBRANCH 31 33
ENDBRANCH 1 29
TORSDOF 19
ENDMDL
MODEL 7
USER: ADFR SOLUTION from run 116
USER: SCORE 15.659081 LL:  -3.820 LR: -13.039 RR:   0.000 FEB:  -7.372
USER: RMSD 3.462845
USER: SEED 115
USER: STATUS no improvement in best in 8 clusters for 5 generations
USER: GENES 21
USER: genes 0 Translation |==|  0.57315 0.32298 0.58261
USER: genes 1 Rotation |==|  0.41239 0.59574 0.36995 0.96502
USER: genes 2 Torsion [CB]-CA--N-[C] |==|  0.82271
USER: genes 3 Torsion [N]-C--CA-[N] |==|  0.91447
USER: genes 4 Torsion [C]-CA--N-[C] |==|  0.65541
USER: genes 5 Torsion [N]-C--CA-[N] |==|  0.23310
USER: genes 6 Torsion [C]-CA--N-[C] |==|  0.76721
USER: genes 7 Torsion [C]-CA--CB-[CG] |==|  0.76942
USER: genes 8 Torsion [CA]-CB--CG-[CD] |==|  0.75144
USER: genes 9 Torsion [CB]-CG--CD-[OE1] |==|  0.05336
USER: genes 10 Torsion [N]-CA--CB-[CG] |==|  0.60676
USER: genes 11 Torsion [CA]-CB--CG-[OD1] |==|  0.88721
USER: genes 12 Torsion [N]-CA--C-[N] |==|  0.32975
USER: genes 13 Torsion [C]-N--CA-[C] |==|  0.63334
USER: genes 14 Torsion [N]-CA--CB-[CG] |==|  0.18844
USER: genes 15 Torsion [CA]-CB--CG-[CD2] |==|  0.72286
USER: genes 16 Torsion [N]-CA--C-[N] |==|  0.03636
USER: genes 17 Torsion [C]-N--CA-[CB] |==|  0.33114
USER: genes 18 Torsion [N]-CA--C-[O] |==|  0.57217
USER: genes 19 Torsion [N]-CA--CB-[CG] |==|  0.81226
USER: genes 20 Torsion [CA]-CB--CG-[CD2] |==|  0.22968
ROOT
ATOM      1  CA  ASP E   2       5.628  -8.278 -10.245  1.00 33.44 LIG 0.19  C 
ENDROOT
BRANCH 1 2
ATOM      2  N   ASP E   2       4.206  -7.978 -10.453  1.00 33.24 LIG-0.35  N 
ATOM      3 H    ASP E   2       3.904  -7.332  -9.972  1.00 33.24 LIG 0.16  HD
ATOM      4  C   ALA E   1       3.466  -8.666 -11.324  1.00 32.93 LIG 0.24  C 
ATOM      5 O    ALA E   1       3.886  -9.658 -11.921  1.00 31.71 LIG-0.27  OA
BRANCH 4 6
ATOM      6  CA  ALA E   1       2.037  -8.180 -11.551  1.00 33.97 LIG 0.17  C 
ATOM      7  CB  ALA E   1       1.991  -7.187 -12.708  1.00 34.31 LIG 0.04  C 
BRANCH 6 8
ATOM      8  N   ALA E   1       1.515  -7.563 -10.329  1.00 34.07 LIG-0.35  N 
ATOM      9  C   GLN E   0       0.388  -7.964  -9.736  1.00 34.65 LIG 0.24  C 
ATOM     10 O    GLN E   0      -0.335  -8.863 -10.173  1.00 33.74 LIG-0.27  OA
ATOM     11 H    ALA E   1       2.001  -6.919 -10.031  1.00 34.07 LIG 0.16  HD
BRANCH 9 12
ATOM     12  CA  GLN E   0       0.033  -7.264  -8.425  1.00 34.37 LIG 0.18  C 
BRANCH 12 13
ATOM     13  N   GLN E   0      -0.692  -5.957  -8.649  1.00 34.90 LIG-0.35  N 
ATOM     14  C   ACE E  -1      -0.075  -4.771  -8.906  1.00 34.22 LIG 0.21  C 
ATOM     15  CH3 ACE E  -1      -1.082  -3.669  -9.208  1.00 34.51 LIG 0.12  C 
ATOM     16 O    ACE E  -1       0.869  -4.830  -9.691  1.00 33.28 LIG-0.27  OA
ATOM     17 H    GLN E   0      -1.548  -6.032  -8.599  1.00 34.90 LIG 0.16  HD
ENDBRANCH 12 13
BRANCH 12 18
ATOM     18  CB  GLN E   0      -0.820  -8.217  -7.577  1.00 34.11 LIG 0.04  C 
BRANCH 18 19
ATOM     19  CG  GLN E   0      -2.302  -8.216  -7.933  1.00 32.87 LIG 0.10  C 
BRANCH 19 20
ATOM     20  CD  GLN E   0      -3.083  -7.182  -7.147  1.00 32.43 LIG 0.21  C 
ATOM     21 OE1  GLN E   0      -2.504  -6.242  -6.609  1.00 31.11 LIG-0.27  OA
ATOM     22  NE2 GLN E   0      -4.398  -7.355  -7.063  1.00 32.01 LIG-0.37  N 
ATOM     23 22HE GLN E   0      -4.878  -6.796  -6.619  1.00 32.01 LIG 0.16  HD
ATOM     24 21HE GLN E   0      -4.770  -8.025  -7.454  1.00 32.01 LIG 0.16  HD
ENDBRANCH 19 20
ENDBRANCH 18 19
ENDBRANCH 12 18
ENDBRANCH 9 12
ENDBRANCH 6 8
ENDBRANCH 4 6
ENDBRANCH 1 2
BRANCH 1 25
ATOM     25  CB  ASP E   2       5.799  -9.684  -9.673  1.00 34.81 LIG 0.15  C 
BRANCH 25 26
ATOM     26  CG  ASP E   2       6.901  -9.746  -8.639  1.00 36.48 LIG 0.17  C 
ATOM     27 OD1  ASP E   2       7.951  -9.105  -8.860  1.00 36.59 LIG-0.65  OA
ATOM     28 OD2  ASP E   2       6.730 -10.455  -7.623  1.00 38.36 LIG-0.65  OA
ENDBRANCH 25 26
ENDBRANCH 1 25
BRANCH 1 29
ATOM     29  C   ASP E   2       6.486  -8.119 -11.489  1.00 31.85 LIG 0.24  C 
ATOM     30 O    ASP E   2       6.283  -8.809 -12.491  1.00 30.99 LIG-0.27  OA
ATOM     31  N   LEU E   3       7.453  -7.203 -11.398  1.00 29.32 LIG-0.35  N 
ATOM     32 H    LEU E   3       7.600  -6.746 -10.684  1.00 29.32 LIG 0.16  HD
BRANCH 31 33
ATOM     33  CA  LEU E   3       8.364  -6.874 -12.501  1.00 27.73 LIG 0.18  C 
BRANCH 33 34
ATOM     34  CB  LEU E   3       7.988  -5.516 -13.129  1.00 28.26 LIG 0.04  C 
BRANCH 34 35
ATOM     35  CG  LEU E   3       8.194  -4.257 -12.283  1.00 28.58 LIG-0.02  C 
ATOM     36  CD2 LEU E   3       6.889  -3.785 -11.650  1.00 28.56 LIG 0.01  C 
ATOM     37  CD1 LEU E   3       8.799  -3.145 -13.130  1.00 28.86 LIG 0.01  C 
ENDBRANCH 34 35
ENDBRANCH 33 34
BRANCH 33 38
ATOM     38  C   LEU E   3       9.824  -6.838 -12.084  1.00 26.19 LIG 0.24  C 
ATOM     39  N   PHE E   4      10.110  -7.358 -10.893  1.00 24.40 LIG-0.34  N 
ATOM     40 H    PHE E   4       9.534  -7.776 -10.409  1.00 24.40 LIG 0.16  HD
ATOM     41 O    LEU E   3      10.663  -6.332 -12.829  1.00 26.01 LIG-0.27  OA
BRANCH 39 42
ATOM     42  CA  PHE E   4      11.433  -7.270 -10.289  1.00 23.80 LIG 0.19  C 
BRANCH 42 43
ATOM     43  C   PHE E   4      11.982  -8.668 -10.016  1.00 24.08 LIG 0.20  C 
ATOM     44 O    PHE E   4      12.812  -8.883  -9.129  1.00 22.36 LIG-0.65  OA
ATOM     45 OXT  PHE E   4      11.633  -9.603 -10.730  1.00 24.21 LIG-0.65  OA
ENDBRANCH 42 43
BRANCH 42 46
ATOM     46  CB  PHE E   4      11.360  -6.510  -8.959  1.00 23.46 LIG 0.07  C 
BRANCH 46 47
ATOM     47  CG  PHE E   4      11.020  -5.042  -9.113  1.00 22.76 LIG-0.06  A 
ATOM     48  CD1 PHE E   4      12.013  -4.076  -9.099  1.00 22.71 LIG 0.01  A 
ATOM     49  CE1 PHE E   4      11.702  -2.732  -9.234  1.00 22.42 LIG 0.00  A 
ATOM     50  CZ  PHE E   4      10.380  -2.343  -9.374  1.00 22.02 LIG 0.00  A 
ATOM     51  CE2 PHE E   4       9.379  -3.295  -9.382  1.00 22.12 LIG 0.00  A 
ATOM     52  CD2 PHE E   4       9.700  -4.635  -9.251  1.00 22.51 LIG 0.01  A 
ENDBRANCH 46 47
ENDBRANCH 42 46
ENDBRANCH 39 42
ENDBRANCH 33 38
ENDBRANCH 31 33
ENDBRANCH 1 29
TORSDOF 19
ENDMDL
MODEL 8
USER: ADFR SOLUTION from run 136
USER: SCORE 14.961701 LL:  -3.288 LR: -12.968 RR:   0.000 FEB:  -7.300
USER: RMSD 3.772989
USER: SEED 135
USER: STATUS no improvement in best in 3 clusters for 5 generations
USER: GENES 21
USER: genes 0 Translation |==|  0.57441 0.28335 0.56141
USER: genes 1 Rotation |==|  0.36414 0.49390 0.45189 0.97874
USER: genes 2 Torsion [CB]-CA--N-[C] |==|  0.52778
USER: genes 3 Torsion [N]-C--CA-[N] |==|  0.32501
USER: genes 4 Torsion [C]-CA--N-[C] |==|  0.84098
USER: genes 5 Torsion [N]-C--CA-[N] |==|  0.14101
USER: genes 6 Torsion [C]-CA--N-[C] |==|  0.13917
USER: genes 7 Torsion [C]-CA--CB-[CG] |==|  0.39256
USER: genes 8 Torsion [CA]-CB--CG-[CD] |==|  0.32905
USER: genes 9 Torsion [CB]-CG--CD-[OE1] |==|  0.53407
USER: genes 10 Torsion [N]-CA--CB-[CG] |==|  0.55971
USER: genes 11 Torsion [CA]-CB--CG-[OD1] |==|  0.36857
USER: genes 12 Torsion [N]-CA--C-[N] |==|  0.34497
USER: genes 13 Torsion [C]-N--CA-[C] |==|  0.65035
USER: genes 14 Torsion [N]-CA--CB-[CG] |==|  0.69551
USER: genes 15 Torsion [CA]-CB--CG-[CD2] |==|  0.64257
USER: genes 16 Torsion [N]-CA--C-[N] |==|  0.90033
USER: genes 17 Torsion [C]-N--CA-[CB] |==|  0.41171
USER: genes 18 Torsion [N]-CA--C-[O] |==|  0.13345
USER: genes 19 Torsion [N]-CA--CB-[CG] |==|  0.88377
USER: genes 20 Torsion [CA]-CB--CG-[CD2] |==|  0.43608
ROOT
ATOM      1  CA  ASP E   2       5.660  -8.932 -10.563  1.00 33.44 LIG 0.19  C 
ENDROOT
BRANCH 1 2
ATOM      2  N   ASP E   2       4.376  -9.323 -11.158  1.00 33.24 LIG-0.35  N 
ATOM      3 H    ASP E   2       4.018 -10.021 -10.806  1.00 33.24 LIG 0.16  HD
ATOM      4  C   ALA E   1       3.832  -8.634 -12.163  1.00 32.93 LIG 0.24  C 
ATOM      5 O    ALA E   1       4.411  -7.706 -12.727  1.00 31.71 LIG-0.27  OA
BRANCH 4 6
ATOM      6  CA  ALA E   1       2.435  -9.056 -12.612  1.00 33.97 LIG 0.17  C 
ATOM      7  CB  ALA E   1       2.448  -9.456 -14.083  1.00 34.31 LIG 0.04  C 
BRANCH 6 8
ATOM      8  N   ALA E   1       1.483  -7.964 -12.390  1.00 34.07 LIG-0.35  N 
ATOM      9  C   GLN E   0       1.278  -7.409 -11.193  1.00 34.65 LIG 0.24  C 
ATOM     10 O    GLN E   0       1.841  -7.781 -10.160  1.00 33.74 LIG-0.27  OA
ATOM     11 H    ALA E   1       1.069  -7.715 -13.102  1.00 34.07 LIG 0.16  HD
BRANCH 9 12
ATOM     12  CA  GLN E   0       0.310  -6.227 -11.157  1.00 34.37 LIG 0.18  C 
BRANCH 12 13
ATOM     13  N   GLN E   0      -1.001  -6.538 -11.841  1.00 34.90 LIG-0.35  N 
ATOM     14  C   ACE E  -1      -1.752  -7.646 -11.594  1.00 34.22 LIG 0.21  C 
ATOM     15  CH3 ACE E  -1      -3.074  -7.607 -12.349  1.00 34.51 LIG 0.12  C 
ATOM     16 O    ACE E  -1      -1.848  -7.961 -10.410  1.00 33.28 LIG-0.27  OA
ATOM     17 H    GLN E   0      -1.235  -5.938 -12.413  1.00 34.90 LIG 0.16  HD
ENDBRANCH 12 13
BRANCH 12 18
ATOM     18  CB  GLN E   0       0.077  -5.832  -9.693  1.00 34.11 LIG 0.04  C 
BRANCH 18 19
ATOM     19  CG  GLN E   0      -0.018  -4.329  -9.457  1.00 32.87 LIG 0.10  C 
BRANCH 19 20
ATOM     20  CD  GLN E   0      -1.365  -3.918  -8.896  1.00 32.43 LIG 0.21  C 
ATOM     21 OE1  GLN E   0      -1.688  -2.734  -8.859  1.00 31.11 LIG-0.27  OA
ATOM     22  NE2 GLN E   0      -2.152  -4.889  -8.444  1.00 32.01 LIG-0.37  N 
ATOM     23 22HE GLN E   0      -2.921  -4.699  -8.109  1.00 32.01 LIG 0.16  HD
ATOM     24 21HE GLN E   0      -1.893  -5.708  -8.487  1.00 32.01 LIG 0.16  HD
ENDBRANCH 19 20
ENDBRANCH 18 19
ENDBRANCH 12 18
ENDBRANCH 9 12
ENDBRANCH 6 8
ENDBRANCH 4 6
ENDBRANCH 1 2
BRANCH 1 25
ATOM     25  CB  ASP E   2       6.163 -10.020  -9.616  1.00 34.81 LIG 0.15  C 
BRANCH 25 26
ATOM     26  CG  ASP E   2       7.158  -9.482  -8.612  1.00 36.48 LIG 0.17  C 
ATOM     27 OD1  ASP E   2       7.005  -9.789  -7.410  1.00 36.59 LIG-0.65  OA
ATOM     28 OD2  ASP E   2       8.074  -8.733  -9.019  1.00 38.36 LIG-0.65  OA
ENDBRANCH 25 26
ENDBRANCH 1 25
BRANCH 1 29
ATOM     29  C   ASP E   2       6.739  -8.593 -11.578  1.00 31.85 LIG 0.24  C 
ATOM     30 O    ASP E   2       7.071  -9.406 -12.445  1.00 30.99 LIG-0.27  OA
ATOM     31  N   LEU E   3       7.282  -7.381 -11.445  1.00 29.32 LIG-0.35  N 
ATOM     32 H    LEU E   3       7.059  -6.833 -10.820  1.00 29.32 LIG 0.16  HD
BRANCH 31 33
ATOM     33  CA  LEU E   3       8.312  -6.851 -12.347  1.00 27.73 LIG 0.18  C 
BRANCH 33 34
ATOM     34  CB  LEU E   3       7.748  -5.691 -13.193  1.00 28.26 LIG 0.04  C 
BRANCH 34 35
ATOM     35  CG  LEU E   3       7.530  -5.938 -14.688  1.00 28.58 LIG-0.02  C 
ATOM     36  CD2 LEU E   3       8.180  -4.851 -15.539  1.00 28.56 LIG 0.01  C 
ATOM     37  CD1 LEU E   3       6.041  -6.025 -14.997  1.00 28.86 LIG 0.01  C 
ENDBRANCH 34 35
ENDBRANCH 33 34
BRANCH 33 38
ATOM     38  C   LEU E   3       9.558  -6.373 -11.621  1.00 26.19 LIG 0.24  C 
ATOM     39  N   PHE E   4       9.366  -5.797 -10.438  1.00 24.40 LIG-0.34  N 
ATOM     40 H    PHE E   4       8.601  -5.767 -10.045  1.00 24.40 LIG 0.16  HD
ATOM     41 O    LEU E   3      10.664  -6.514 -12.142  1.00 26.01 LIG-0.27  OA
BRANCH 39 42
ATOM     42  CA  PHE E   4      10.438  -5.159  -9.686  1.00 23.80 LIG 0.19  C 
BRANCH 42 43
ATOM     43  C   PHE E   4      11.076  -6.158  -8.724  1.00 24.08 LIG 0.20  C 
ATOM     44 O    PHE E   4      11.417  -7.287  -9.085  1.00 22.36 LIG-0.65  OA
ATOM     45 OXT  PHE E   4      11.209  -5.856  -7.542  1.00 24.21 LIG-0.65  OA
ENDBRANCH 42 43
BRANCH 42 46
ATOM     46  CB  PHE E   4       9.887  -3.983  -8.868  1.00 23.46 LIG 0.07  C 
BRANCH 46 47
ATOM     47  CG  PHE E   4       8.881  -3.137  -9.619  1.00 22.76 LIG-0.06  A 
ATOM     48  CD1 PHE E   4       8.875  -3.100 -11.005  1.00 22.71 LIG 0.01  A 
ATOM     49  CE1 PHE E   4       7.958  -2.321 -11.693  1.00 22.42 LIG 0.00  A 
ATOM     50  CZ  PHE E   4       7.040  -1.557 -10.991  1.00 22.02 LIG 0.00  A 
ATOM     51  CE2 PHE E   4       7.040  -1.579  -9.609  1.00 22.12 LIG 0.00  A 
ATOM     52  CD2 PHE E   4       7.956  -2.365  -8.931  1.00 22.51 LIG 0.01  A 
ENDBRANCH 46 47
ENDBRANCH 42 46
ENDBRANCH 39 42
ENDBRANCH 33 38
ENDBRANCH 31 33
ENDBRANCH 1 29
TORSDOF 19
ENDMDL
MODEL 9
USER: ADFR SOLUTION from run 63
USER: SCORE 14.738303 LL:  -3.341 LR: -12.786 RR:   0.000 FEB:  -7.118
USER: RMSD 10.824602
USER: SEED 62
USER: STATUS no improvement in best in 20 clusters for 5 generations
USER: GENES 21
USER: genes 0 Translation |==|  0.43669 0.41800 0.36655
USER: genes 1 Rotation |==|  0.59295 0.06526 0.29267 0.59683
USER: genes 2 Torsion [CB]-CA--N-[C] |==|  0.54669
USER: genes 3 Torsion [N]-C--CA-[N] |==|  0.42002
USER: genes 4 Torsion [C]-CA--N-[C] |==|  0.60730
USER: genes 5 Torsion [N]-C--CA-[N] |==|  0.30415
USER: genes 6 Torsion [C]-CA--N-[C] |==|  0.60302
USER: genes 7 Torsion [C]-CA--CB-[CG] |==|  0.31231
USER: genes 8 Torsion [CA]-CB--CG-[CD] |==|  0.13758
USER: genes 9 Torsion [CB]-CG--CD-[OE1] |==|  0.15346
USER: genes 10 Torsion [N]-CA--CB-[CG] |==|  0.12450
USER: genes 11 Torsion [CA]-CB--CG-[OD1] |==|  0.74419
USER: genes 12 Torsion [N]-CA--C-[N] |==|  0.40000
USER: genes 13 Torsion [C]-N--CA-[C] |==|  0.76299
USER: genes 14 Torsion [N]-CA--CB-[CG] |==|  0.66189
USER: genes 15 Torsion [CA]-CB--CG-[CD2] |==|  0.49330
USER: genes 16 Torsion [N]-CA--C-[N] |==|  0.82643
USER: genes 17 Torsion [C]-N--CA-[CB] |==|  0.22447
USER: genes 18 Torsion [N]-CA--C-[O] |==|  0.10589
USER: genes 19 Torsion [N]-CA--CB-[CG] |==|  0.79517
USER: genes 20 Torsion [CA]-CB--CG-[CD2] |==|  0.82412
ROOT
ATOM      1  CA  ASP E   2       2.149  -6.710 -13.486  1.00 33.44 LIG 0.19  C 
ENDROOT
BRANCH 1 2
ATOM      2  N   ASP E   2       3.617  -6.752 -13.485  1.00 33.24 LIG-0.35  N 
ATOM      3 H    ASP E   2       3.963  -7.113 -14.185  1.00 33.24 LIG 0.16  HD
ATOM      4  C   ALA E   1       4.330  -6.265 -12.468  1.00 32.93 LIG 0.24  C 
ATOM      5 O    ALA E   1       3.816  -5.856 -11.427  1.00 31.71 LIG-0.27  OA
BRANCH 4 6
ATOM      6  CA  ALA E   1       5.847  -6.246 -12.636  1.00 33.97 LIG 0.17  C 
ATOM      7  CB  ALA E   1       6.447  -7.577 -12.199  1.00 34.31 LIG 0.04  C 
BRANCH 6 8
ATOM      8  N   ALA E   1       6.426  -5.147 -11.859  1.00 34.07 LIG-0.35  N 
ATOM      9  C   GLN E   0       7.446  -4.404 -12.296  1.00 34.65 LIG 0.24  C 
ATOM     10 O    GLN E   0       8.017  -4.592 -13.374  1.00 33.74 LIG-0.27  OA
ATOM     11 H    ALA E   1       6.048  -5.025 -11.096  1.00 34.07 LIG 0.16  HD
BRANCH 9 12
ATOM     12  CA  GLN E   0       7.872  -3.248 -11.393  1.00 34.37 LIG 0.18  C 
BRANCH 12 13
ATOM     13  N   GLN E   0       9.211  -3.493 -10.737  1.00 34.90 LIG-0.35  N 
ATOM     14  C   ACE E  -1       9.523  -3.119  -9.466  1.00 34.22 LIG 0.21  C 
ATOM     15  CH3 ACE E  -1      10.902  -3.619  -9.058  1.00 34.51 LIG 0.12  C 
ATOM     16 O    ACE E  -1       8.642  -3.311  -8.631  1.00 33.28 LIG-0.27  OA
ATOM     17 H    GLN E   0       9.770  -3.899 -11.251  1.00 34.90 LIG 0.16  HD
ENDBRANCH 12 13
BRANCH 12 18
ATOM     18  CB  GLN E   0       7.907  -1.962 -12.230  1.00 34.11 LIG 0.04  C 
BRANCH 18 19
ATOM     19  CG  GLN E   0       6.842  -0.939 -11.851  1.00 32.87 LIG 0.10  C 
BRANCH 19 20
ATOM     20  CD  GLN E   0       6.803  -0.674 -10.360  1.00 32.43 LIG 0.21  C 
ATOM     21 OE1  GLN E   0       7.816  -0.320  -9.764  1.00 31.11 LIG-0.27  OA
ATOM     22  NE2 GLN E   0       5.638  -0.857  -9.745  1.00 32.01 LIG-0.37  N 
ATOM     23 22HE GLN E   0       5.574  -0.727  -8.898  1.00 32.01 LIG 0.16  HD
ATOM     24 21HE GLN E   0       4.948  -1.105 -10.195  1.00 32.01 LIG 0.16  HD
ENDBRANCH 19 20
ENDBRANCH 18 19
ENDBRANCH 12 18
ENDBRANCH 9 12
ENDBRANCH 6 8
ENDBRANCH 4 6
ENDBRANCH 1 2
BRANCH 1 25
ATOM     25  CB  ASP E   2       1.587  -7.677 -14.527  1.00 34.81 LIG 0.15  C 
BRANCH 25 26
ATOM     26  CG  ASP E   2       2.283  -9.019 -14.487  1.00 36.48 LIG 0.17  C 
ATOM     27 OD1  ASP E   2       3.269  -9.194 -15.235  1.00 36.59 LIG-0.65  OA
ATOM     28 OD2  ASP E   2       1.828  -9.907 -13.731  1.00 38.36 LIG-0.65  OA
ENDBRANCH 25 26
ENDBRANCH 1 25
BRANCH 1 29
ATOM     29  C   ASP E   2       1.518  -6.987 -12.132  1.00 31.85 LIG 0.24  C 
ATOM     30 O    ASP E   2       2.011  -7.813 -11.360  1.00 30.99 LIG-0.27  OA
ATOM     31  N   LEU E   3       0.413  -6.285 -11.867  1.00 29.32 LIG-0.35  N 
ATOM     32 H    LEU E   3       0.064  -5.731 -12.425  1.00 29.32 LIG 0.16  HD
BRANCH 31 33
ATOM     33  CA  LEU E   3      -0.323  -6.381 -10.600  1.00 27.73 LIG 0.18  C 
BRANCH 33 34
ATOM     34  CB  LEU E   3      -1.059  -5.059 -10.299  1.00 28.26 LIG 0.04  C 
BRANCH 34 35
ATOM     35  CG  LEU E   3      -0.728  -4.341  -8.988  1.00 28.58 LIG-0.02  C 
ATOM     36  CD2 LEU E   3      -1.487  -3.025  -8.860  1.00 28.56 LIG 0.01  C 
ATOM     37  CD1 LEU E   3       0.772  -4.094  -8.886  1.00 28.86 LIG 0.01  C 
ENDBRANCH 34 35
ENDBRANCH 33 34
BRANCH 33 38
ATOM     38  C   LEU E   3      -1.327  -7.521 -10.574  1.00 26.19 LIG 0.24  C 
ATOM     39  N   PHE E   4      -2.316  -7.456 -11.461  1.00 24.40 LIG-0.34  N 
ATOM     40 H    PHE E   4      -2.357  -6.862 -12.081  1.00 24.40 LIG 0.16  HD
ATOM     41 O    LEU E   3      -1.205  -8.428  -9.750  1.00 26.01 LIG-0.27  OA
BRANCH 39 42
ATOM     42  CA  PHE E   4      -3.434  -8.391 -11.469  1.00 23.80 LIG 0.19  C 
BRANCH 42 43
ATOM     43  C   PHE E   4      -4.107  -8.398 -12.839  1.00 24.08 LIG 0.20  C 
ATOM     44 O    PHE E   4      -3.461  -8.312 -13.886  1.00 22.36 LIG-0.65  OA
ATOM     45 OXT  PHE E   4      -5.332  -8.438 -12.908  1.00 24.21 LIG-0.65  OA
ENDBRANCH 42 43
BRANCH 42 46
ATOM     46  CB  PHE E   4      -4.475  -7.982 -10.419  1.00 23.46 LIG 0.07  C 
BRANCH 46 47
ATOM     47  CG  PHE E   4      -4.048  -8.265  -8.994  1.00 22.76 LIG-0.06  A 
ATOM     48  CD1 PHE E   4      -3.850  -7.232  -8.091  1.00 22.71 LIG 0.01  A 
ATOM     49  CE1 PHE E   4      -3.453  -7.489  -6.789  1.00 22.42 LIG 0.00  A 
ATOM     50  CZ  PHE E   4      -3.239  -8.796  -6.381  1.00 22.02 LIG 0.00  A 
ATOM     51  CE2 PHE E   4      -3.426  -9.835  -7.272  1.00 22.12 LIG 0.00  A 
ATOM     52  CD2 PHE E   4      -3.827  -9.567  -8.570  1.00 22.51 LIG 0.01  A 
ENDBRANCH 46 47
ENDBRANCH 42 46
ENDBRANCH 39 42
ENDBRANCH 33 38
ENDBRANCH 31 33
ENDBRANCH 1 29
TORSDOF 19
ENDMDL
MODEL 10
USER: ADFR SOLUTION from run 143
USER: SCORE 15.613113 LL:  -3.270 LR: -12.608 RR:   0.000 FEB:  -6.941
USER: RMSD 1.865801
USER: SEED 142
USER: STATUS no improvement in best in 5 clusters for 5 generations
USER: GENES 21
USER: genes 0 Translation |==|  0.50220 0.39907 0.47230
USER: genes 1 Rotation |==|  0.54675 0.51675 0.45372 0.99537
USER: genes 2 Torsion [CB]-CA--N-[C] |==|  0.83078
USER: genes 3 Torsion [N]-C--CA-[N] |==|  0.98577
USER: genes 4 Torsion [C]-CA--N-[C] |==|  0.76214
USER: genes 5 Torsion [N]-C--CA-[N] |==|  0.44219
USER: genes 6 Torsion [C]-CA--N-[C] |==|  0.78313
USER: genes 7 Torsion [C]-CA--CB-[CG] |==|  0.49315
USER: genes 8 Torsion [CA]-CB--CG-[CD] |==|  0.69384
USER: genes 9 Torsion [CB]-CG--CD-[OE1] |==|  0.36720
USER: genes 10 Torsion [N]-CA--CB-[CG] |==|  0.63631
USER: genes 11 Torsion [CA]-CB--CG-[OD1] |==|  0.33565
USER: genes 12 Torsion [N]-CA--C-[N] |==|  0.33889
USER: genes 13 Torsion [C]-N--CA-[C] |==|  0.79917
USER: genes 14 Torsion [N]-CA--CB-[CG] |==|  0.63694
USER: genes 15 Torsion [CA]-CB--CG-[CD2] |==|  0.85522
USER: genes 16 Torsion [N]-CA--C-[N] |==|  0.91574
USER: genes 17 Torsion [C]-N--CA-[CB] |==|  0.30529
USER: genes 18 Torsion [N]-CA--C-[O] |==|  0.19312
USER: genes 19 Torsion [N]-CA--CB-[CG] |==|  0.81945
USER: genes 20 Torsion [CA]-CB--CG-[CD2] |==|  0.17648
ROOT
ATOM      1  CA  ASP E   2       3.819  -7.022 -11.900  1.00 33.44 LIG 0.19  C 
ENDROOT
BRANCH 1 2
ATOM      2  N   ASP E   2       2.520  -6.914 -12.577  1.00 33.24 LIG-0.35  N 
ATOM      3 H    ASP E   2       1.876  -6.649 -12.073  1.00 33.24 LIG 0.16  HD
ATOM      4  C   ALA E   1       2.379  -7.210 -13.871  1.00 32.93 LIG 0.24  C 
ATOM      5 O    ALA E   1       3.286  -7.694 -14.548  1.00 31.71 LIG-0.27  OA
BRANCH 4 6
ATOM      6  CA  ALA E   1       1.015  -6.934 -14.496  1.00 33.97 LIG 0.17  C 
ATOM      7  CB  ALA E   1       1.136  -5.882 -15.594  1.00 34.31 LIG 0.04  C 
BRANCH 6 8
ATOM      8  N   ALA E   1       0.069  -6.491 -13.469  1.00 34.07 LIG-0.35  N 
ATOM      9  C   GLN E   0      -0.637  -7.338 -12.716  1.00 34.65 LIG 0.24  C 
ATOM     10 O    GLN E   0      -0.588  -8.565 -12.835  1.00 33.74 LIG-0.27  OA
ATOM     11 H    ALA E   1       0.012  -5.636 -13.396  1.00 34.07 LIG 0.16  HD
BRANCH 9 12
ATOM     12  CA  GLN E   0      -1.515  -6.705 -11.637  1.00 34.37 LIG 0.18  C 
BRANCH 12 13
ATOM     13  N   GLN E   0      -2.625  -7.628 -11.185  1.00 34.90 LIG-0.35  N 
ATOM     14  C   ACE E  -1      -3.773  -7.846 -11.883  1.00 34.22 LIG 0.21  C 
ATOM     15  CH3 ACE E  -1      -4.631  -8.919 -11.227  1.00 34.51 LIG 0.12  C 
ATOM     16 O    ACE E  -1      -3.633  -7.973 -13.097  1.00 33.28 LIG-0.27  OA
ATOM     17 H    GLN E   0      -2.461  -8.010 -10.431  1.00 34.90 LIG 0.16  HD
ENDBRANCH 12 13
BRANCH 12 18
ATOM     18  CB  GLN E   0      -0.624  -6.310 -10.452  1.00 34.11 LIG 0.04  C 
BRANCH 18 19
ATOM     19  CG  GLN E   0      -1.364  -5.609  -9.318  1.00 32.87 LIG 0.10  C 
BRANCH 19 20
ATOM     20  CD  GLN E   0      -0.992  -4.144  -9.208  1.00 32.43 LIG 0.21  C 
ATOM     21 OE1  GLN E   0      -1.865  -3.286  -9.105  1.00 31.11 LIG-0.27  OA
ATOM     22  NE2 GLN E   0       0.303  -3.845  -9.243  1.00 32.01 LIG-0.37  N 
ATOM     23 22HE GLN E   0       0.557  -3.025  -9.193  1.00 32.01 LIG 0.16  HD
ATOM     24 21HE GLN E   0       0.887  -4.473  -9.315  1.00 32.01 LIG 0.16  HD
ENDBRANCH 19 20
ENDBRANCH 18 19
ENDBRANCH 12 18
ENDBRANCH 9 12
ENDBRANCH 6 8
ENDBRANCH 4 6
ENDBRANCH 1 2
BRANCH 1 25
ATOM     25  CB  ASP E   2       4.328  -8.462 -11.948  1.00 34.81 LIG 0.15  C 
BRANCH 25 26
ATOM     26  CG  ASP E   2       4.775  -8.952 -10.589  1.00 36.48 LIG 0.17  C 
ATOM     27 OD1  ASP E   2       4.209  -9.958 -10.111  1.00 36.59 LIG-0.65  OA
ATOM     28 OD2  ASP E   2       5.670  -8.316  -9.988  1.00 38.36 LIG-0.65  OA
ENDBRANCH 25 26
ENDBRANCH 1 25
BRANCH 1 29
ATOM     29  C   ASP E   2       4.882  -6.081 -12.439  1.00 31.85 LIG 0.24  C 
ATOM     30 O    ASP E   2       5.220  -6.119 -13.625  1.00 30.99 LIG-0.27  OA
ATOM     31  N   LEU E   3       5.407  -5.244 -11.541  1.00 29.32 LIG-0.35  N 
ATOM     32 H    LEU E   3       5.181  -5.246 -10.710  1.00 29.32 LIG 0.16  HD
BRANCH 31 33
ATOM     33  CA  LEU E   3       6.420  -4.234 -11.869  1.00 27.73 LIG 0.18  C 
BRANCH 33 34
ATOM     34  CB  LEU E   3       6.545  -3.200 -10.731  1.00 28.26 LIG 0.04  C 
BRANCH 34 35
ATOM     35  CG  LEU E   3       6.506  -1.716 -11.107  1.00 28.58 LIG-0.02  C 
ATOM     36  CD2 LEU E   3       7.512  -1.386 -12.204  1.00 28.56 LIG 0.01  C 
ATOM     37  CD1 LEU E   3       6.767  -0.854  -9.878  1.00 28.86 LIG 0.01  C 
ENDBRANCH 34 35
ENDBRANCH 33 34
BRANCH 33 38
ATOM     38  C   LEU E   3       7.790  -4.826 -12.150  1.00 26.19 LIG 0.24  C 
ATOM     39  N   PHE E   4       8.089  -5.952 -11.507  1.00 24.40 LIG-0.34  N 
ATOM     40 H    PHE E   4       7.523  -6.385 -11.025  1.00 24.40 LIG 0.16  HD
ATOM     41 O    LEU E   3       8.559  -4.256 -12.925  1.00 26.01 LIG-0.27  OA
BRANCH 39 42
ATOM     42  CA  PHE E   4       9.410  -6.564 -11.556  1.00 23.80 LIG 0.19  C 
BRANCH 42 43
ATOM     43  C   PHE E   4       9.292  -8.048 -11.892  1.00 24.08 LIG 0.20  C 
ATOM     44 O    PHE E   4       8.939  -8.441 -13.006  1.00 22.36 LIG-0.65  OA
ATOM     45 OXT  PHE E   4       9.502  -8.883 -11.016  1.00 24.21 LIG-0.65  OA
ENDBRANCH 42 43
BRANCH 42 46
ATOM     46  CB  PHE E   4      10.110  -6.428 -10.198  1.00 23.46 LIG 0.07  C 
BRANCH 46 47
ATOM     47  CG  PHE E   4      10.414  -4.997  -9.809  1.00 22.76 LIG-0.06  A 
ATOM     48  CD1 PHE E   4      11.721  -4.569  -9.633  1.00 22.71 LIG 0.01  A 
ATOM     49  CE1 PHE E   4      12.001  -3.261  -9.272  1.00 22.42 LIG 0.00  A 
ATOM     50  CZ  PHE E   4      10.962  -2.366  -9.070  1.00 22.02 LIG 0.00  A 
ATOM     51  CE2 PHE E   4       9.654  -2.781  -9.234  1.00 22.12 LIG 0.00  A 
ATOM     52  CD2 PHE E   4       9.386  -4.089  -9.600  1.00 22.51 LIG 0.01  A 
ENDBRANCH 46 47
ENDBRANCH 42 46
ENDBRANCH 39 42
ENDBRANCH 33 38
ENDBRANCH 31 33
ENDBRANCH 1 29
TORSDOF 19
ENDMDL
MODEL 11
USER: ADFR SOLUTION from run 197
USER: SCORE 13.698569 LL:  -3.173 LR: -12.530 RR:   0.000 FEB:  -6.862
USER: RMSD 12.387101
USER: SEED 196
USER: STATUS no improvement in best in 18 clusters for 5 generations
USER: GENES 21
USER: genes 0 Translation |==|  0.35843 0.45720 0.65852
USER: genes 1 Rotation |==|  0.46192 0.27556 0.05527 0.51993
USER: genes 2 Torsion [CB]-CA--N-[C] |==|  0.18835
USER: genes 3 Torsion [N]-C--CA-[N] |==|  0.57778
USER: genes 4 Torsion [C]-CA--N-[C] |==|  0.57278
USER: genes 5 Torsion [N]-C--CA-[N] |==|  0.51516
USER: genes 6 Torsion [C]-CA--N-[C] |==|  0.58142
USER: genes 7 Torsion [C]-CA--CB-[CG] |==|  0.52447
USER: genes 8 Torsion [CA]-CB--CG-[CD] |==|  0.54768
USER: genes 9 Torsion [CB]-CG--CD-[OE1] |==|  0.44202
USER: genes 10 Torsion [N]-CA--CB-[CG] |==|  0.57670
USER: genes 11 Torsion [CA]-CB--CG-[OD1] |==|  0.93337
USER: genes 12 Torsion [N]-CA--C-[N] |==|  0.64846
USER: genes 13 Torsion [C]-N--CA-[C] |==|  0.66423
USER: genes 14 Torsion [N]-CA--CB-[CG] |==|  0.77078
USER: genes 15 Torsion [CA]-CB--CG-[CD2] |==|  0.00154
USER: genes 16 Torsion [N]-CA--C-[N] |==|  0.99251
USER: genes 17 Torsion [C]-N--CA-[CB] |==|  0.18924
USER: genes 18 Torsion [N]-CA--C-[O] |==|  0.95280
USER: genes 19 Torsion [N]-CA--CB-[CG] |==|  0.72540
USER: genes 20 Torsion [CA]-CB--CG-[CD2] |==|  0.43016
ROOT
ATOM      1  CA  ASP E   2       0.153  -6.063  -9.106  1.00 33.44 LIG 0.19  C 
ENDROOT
BRANCH 1 2
ATOM      2  N   ASP E   2       1.259  -6.507  -9.965  1.00 33.24 LIG-0.35  N 
ATOM      3 H    ASP E   2       1.228  -7.337 -10.186  1.00 33.24 LIG 0.16  HD
ATOM      4  C   ALA E   1       2.222  -5.669 -10.354  1.00 32.93 LIG 0.24  C 
ATOM      5 O    ALA E   1       2.312  -4.514  -9.936  1.00 31.71 LIG-0.27  OA
BRANCH 4 6
ATOM      6  CA  ALA E   1       3.245  -6.208 -11.349  1.00 33.97 LIG 0.17  C 
ATOM      7  CB  ALA E   1       3.431  -7.710 -11.159  1.00 34.31 LIG 0.04  C 
BRANCH 6 8
ATOM      8  N   ALA E   1       4.525  -5.513 -11.184  1.00 34.07 LIG-0.35  N 
ATOM      9  C   GLN E   0       5.414  -5.381 -12.171  1.00 34.65 LIG 0.24  C 
ATOM     10 O    GLN E   0       5.262  -5.857 -13.299  1.00 33.74 LIG-0.27  OA
ATOM     11 H    ALA E   1       4.648  -5.198 -10.393  1.00 34.07 LIG 0.16  HD
BRANCH 9 12
ATOM     12  CA  GLN E   0       6.659  -4.555 -11.848  1.00 34.37 LIG 0.18  C 
BRANCH 12 13
ATOM     13  N   GLN E   0       7.542  -4.350 -13.057  1.00 34.90 LIG-0.35  N 
ATOM     14  C   ACE E  -1       8.893  -4.189 -13.003  1.00 34.22 LIG 0.21  C 
ATOM     15  CH3 ACE E  -1       9.506  -4.130 -14.395  1.00 34.51 LIG 0.12  C 
ATOM     16 O    ACE E  -1       9.478  -4.931 -12.217  1.00 33.28 LIG-0.27  OA
ATOM     17 H    GLN E   0       7.104  -4.343 -13.798  1.00 34.90 LIG 0.16  HD
ENDBRANCH 12 13
BRANCH 12 18
ATOM     18  CB  GLN E   0       6.214  -3.207 -11.268  1.00 34.11 LIG 0.04  C 
BRANCH 18 19
ATOM     19  CG  GLN E   0       7.341  -2.195 -11.095  1.00 32.87 LIG 0.10  C 
BRANCH 19 20
ATOM     20  CD  GLN E   0       6.962  -1.065 -10.160  1.00 32.43 LIG 0.21  C 
ATOM     21 OE1  GLN E   0       7.831  -0.392  -9.613  1.00 31.11 LIG-0.27  OA
ATOM     22  NE2 GLN E   0       5.664  -0.857  -9.959  1.00 32.01 LIG-0.37  N 
ATOM     23 22HE GLN E   0       5.406  -0.232  -9.429  1.00 32.01 LIG 0.16  HD
ATOM     24 21HE GLN E   0       5.083  -1.348 -10.361  1.00 32.01 LIG 0.16  HD
ENDBRANCH 19 20
ENDBRANCH 18 19
ENDBRANCH 12 18
ENDBRANCH 9 12
ENDBRANCH 6 8
ENDBRANCH 4 6
ENDBRANCH 1 2
BRANCH 1 25
ATOM     25  CB  ASP E   2      -0.750  -5.088  -9.860  1.00 34.81 LIG 0.15  C 
BRANCH 25 26
ATOM     26  CG  ASP E   2      -1.448  -4.125  -8.926  1.00 36.48 LIG 0.17  C 
ATOM     27 OD1  ASP E   2      -1.608  -4.470  -7.736  1.00 36.59 LIG-0.65  OA
ATOM     28 OD2  ASP E   2      -1.860  -3.037  -9.388  1.00 38.36 LIG-0.65  OA
ENDBRANCH 25 26
ENDBRANCH 1 25
BRANCH 1 29
ATOM     29  C   ASP E   2      -0.679  -7.196  -8.530  1.00 31.85 LIG 0.24  C 
ATOM     30 O    ASP E   2      -0.146  -8.124  -7.915  1.00 30.99 LIG-0.27  OA
ATOM     31  N   LEU E   3      -1.993  -7.104  -8.749  1.00 29.32 LIG-0.35  N 
ATOM     32 H    LEU E   3      -2.348  -6.465  -9.203  1.00 29.32 LIG 0.16  HD
BRANCH 31 33
ATOM     33  CA  LEU E   3      -2.969  -8.077  -8.245  1.00 27.73 LIG 0.18  C 
BRANCH 33 34
ATOM     34  CB  LEU E   3      -3.938  -7.407  -7.249  1.00 28.26 LIG 0.04  C 
BRANCH 34 35
ATOM     35  CG  LEU E   3      -3.475  -7.249  -5.798  1.00 28.58 LIG-0.02  C 
ATOM     36  CD2 LEU E   3      -2.067  -7.797  -5.594  1.00 28.56 LIG 0.01  C 
ATOM     37  CD1 LEU E   3      -4.451  -7.941  -4.855  1.00 28.86 LIG 0.01  C 
ENDBRANCH 34 35
ENDBRANCH 33 34
BRANCH 33 38
ATOM     38  C   LEU E   3      -3.775  -8.745  -9.345  1.00 26.19 LIG 0.24  C 
ATOM     39  N   PHE E   4      -3.537  -8.329 -10.586  1.00 24.40 LIG-0.34  N 
ATOM     40 H    PHE E   4      -2.905  -7.781 -10.788  1.00 24.40 LIG 0.16  HD
ATOM     41 O    LEU E   3      -4.606  -9.608  -9.060  1.00 26.01 LIG-0.27  OA
BRANCH 39 42
ATOM     42  CA  PHE E   4      -4.325  -8.765 -11.731  1.00 23.80 LIG 0.19  C 
BRANCH 42 43
ATOM     43  C   PHE E   4      -3.691  -8.270 -13.028  1.00 24.08 LIG 0.20  C 
ATOM     44 O    PHE E   4      -2.855  -7.364 -13.044  1.00 22.36 LIG-0.65  OA
ATOM     45 OXT  PHE E   4      -4.058  -8.747 -14.098  1.00 24.21 LIG-0.65  OA
ENDBRANCH 42 43
BRANCH 42 46
ATOM     46  CB  PHE E   4      -5.749  -8.200 -11.641  1.00 23.46 LIG 0.07  C 
BRANCH 46 47
ATOM     47  CG  PHE E   4      -6.762  -9.183 -11.092  1.00 22.76 LIG-0.06  A 
ATOM     48  CD1 PHE E   4      -6.568 -10.550 -11.219  1.00 22.71 LIG 0.01  A 
ATOM     49  CE1 PHE E   4      -7.497 -11.450 -10.723  1.00 22.42 LIG 0.00  A 
ATOM     50  CZ  PHE E   4      -8.644 -10.983 -10.101  1.00 22.02 LIG 0.00  A 
ATOM     51  CE2 PHE E   4      -8.853  -9.623  -9.975  1.00 22.12 LIG 0.00  A 
ATOM     52  CD2 PHE E   4      -7.917  -8.732 -10.469  1.00 22.51 LIG 0.01  A 
ENDBRANCH 46 47
ENDBRANCH 42 46
ENDBRANCH 39 42
ENDBRANCH 33 38
ENDBRANCH 31 33
ENDBRANCH 1 29
TORSDOF 19
ENDMDL
MODEL 12
USER: ADFR SOLUTION from run 30
USER: SCORE 14.739999 LL:  -3.697 LR: -12.432 RR:   0.000 FEB:  -6.764
USER: RMSD 2.010719
USER: SEED 29
USER: STATUS no improvement in best in 13 clusters for 5 generations
USER: GENES 21
USER: genes 0 Translation |==|  0.51924 0.42881 0.48745
USER: genes 1 Rotation |==|  0.39426 0.45261 0.42969 0.98128
USER: genes 2 Torsion [CB]-CA--N-[C] |==|  0.25195
USER: genes 3 Torsion [N]-C--CA-[N] |==|  0.46677
USER: genes 4 Torsion [C]-CA--N-[C] |==|  0.78695
USER: genes 5 Torsion [N]-C--CA-[N] |==|  0.34528
USER: genes 6 Torsion [C]-CA--N-[C] |==|  0.72778
USER: genes 7 Torsion [C]-CA--CB-[CG] |==|  0.69753
USER: genes 8 Torsion [CA]-CB--CG-[CD] |==|  0.62461
USER: genes 9 Torsion [CB]-CG--CD-[OE1] |==|  0.76925
USER: genes 10 Torsion [N]-CA--CB-[CG] |==|  0.05776
USER: genes 11 Torsion [CA]-CB--CG-[OD1] |==|  0.68882
USER: genes 12 Torsion [N]-CA--C-[N] |==|  0.38833
USER: genes 13 Torsion [C]-N--CA-[C] |==|  0.84495
USER: genes 14 Torsion [N]-CA--CB-[CG] |==|  0.94302
USER: genes 15 Torsion [CA]-CB--CG-[CD2] |==|  0.73805
USER: genes 16 Torsion [N]-CA--C-[N] |==|  0.89082
USER: genes 17 Torsion [C]-N--CA-[CB] |==|  0.17826
USER: genes 18 Torsion [N]-CA--C-[O] |==|  0.43715
USER: genes 19 Torsion [N]-CA--CB-[CG] |==|  0.10742
USER: genes 20 Torsion [CA]-CB--CG-[CD2] |==|  0.68856
ROOT
ATOM      1  CA  ASP E   2       4.254  -6.532 -11.672  1.00 33.44 LIG 0.19  C 
ENDROOT
BRANCH 1 2
ATOM      2  N   ASP E   2       3.099  -6.801 -12.540  1.00 33.24 LIG-0.35  N 
ATOM      3 H    ASP E   2       3.296  -7.173 -13.290  1.00 33.24 LIG 0.16  HD
ATOM      4  C   ALA E   1       1.857  -6.482 -12.170  1.00 32.93 LIG 0.24  C 
ATOM      5 O    ALA E   1       1.607  -5.849 -11.145  1.00 31.71 LIG-0.27  OA
BRANCH 4 6
ATOM      6  CA  ALA E   1       0.727  -6.927 -13.094  1.00 33.97 LIG 0.17  C 
ATOM      7  CB  ALA E   1       0.758  -6.129 -14.393  1.00 34.31 LIG 0.04  C 
BRANCH 6 8
ATOM      8  N   ALA E   1      -0.566  -6.762 -12.426  1.00 34.07 LIG-0.35  N 
ATOM      9  C   GLN E   0      -1.014  -7.601 -11.488  1.00 34.65 LIG 0.24  C 
ATOM     10 O    GLN E   0      -0.402  -8.608 -11.122  1.00 33.74 LIG-0.27  OA
ATOM     11 H    ALA E   1      -1.009  -6.074 -12.693  1.00 34.07 LIG 0.16  HD
BRANCH 9 12
ATOM     12  CA  GLN E   0      -2.346  -7.232 -10.837  1.00 34.37 LIG 0.18  C 
BRANCH 12 13
ATOM     13  N   GLN E   0      -3.367  -8.341 -10.949  1.00 34.90 LIG-0.35  N 
ATOM     14  C   ACE E  -1      -4.344  -8.392 -11.896  1.00 34.22 LIG 0.21  C 
ATOM     15  CH3 ACE E  -1      -5.130  -9.693 -11.820  1.00 34.51 LIG 0.12  C 
ATOM     16 O    ACE E  -1      -3.993  -8.071 -13.029  1.00 33.28 LIG-0.27  OA
ATOM     17 H    GLN E   0      -3.272  -8.950 -10.348  1.00 34.90 LIG 0.16  HD
ENDBRANCH 12 13
BRANCH 12 18
ATOM     18  CB  GLN E   0      -2.090  -6.880  -9.366  1.00 34.11 LIG 0.04  C 
BRANCH 18 19
ATOM     19  CG  GLN E   0      -2.609  -7.914  -8.374  1.00 32.87 LIG 0.10  C 
BRANCH 19 20
ATOM     20  CD  GLN E   0      -3.338  -7.278  -7.208  1.00 32.43 LIG 0.21  C 
ATOM     21 OE1  GLN E   0      -2.712  -6.843  -6.245  1.00 31.11 LIG-0.27  OA
ATOM     22  NE2 GLN E   0      -4.665  -7.232  -7.278  1.00 32.01 LIG-0.37  N 
ATOM     23 22HE GLN E   0      -5.118  -6.888  -6.633  1.00 32.01 LIG 0.16  HD
ATOM     24 21HE GLN E   0      -5.070  -7.546  -7.969  1.00 32.01 LIG 0.16  HD
ENDBRANCH 19 20
ENDBRANCH 18 19
ENDBRANCH 12 18
ENDBRANCH 9 12
ENDBRANCH 6 8
ENDBRANCH 4 6
ENDBRANCH 1 2
BRANCH 1 25
ATOM     25  CB  ASP E   2       4.532  -7.731 -10.768  1.00 34.81 LIG 0.15  C 
BRANCH 25 26
ATOM     26  CG  ASP E   2       3.929  -9.006 -11.314  1.00 36.48 LIG 0.17  C 
ATOM     27 OD1  ASP E   2       2.980  -9.523 -10.687  1.00 36.59 LIG-0.65  OA
ATOM     28 OD2  ASP E   2       4.421  -9.504 -12.351  1.00 38.36 LIG-0.65  OA
ENDBRANCH 25 26
ENDBRANCH 1 25
BRANCH 1 29
ATOM     29  C   ASP E   2       5.518  -6.146 -12.422  1.00 31.85 LIG 0.24  C 
ATOM     30 O    ASP E   2       5.834  -6.718 -13.467  1.00 30.99 LIG-0.27  OA
ATOM     31  N   LEU E   3       6.235  -5.170 -11.859  1.00 29.32 LIG-0.35  N 
ATOM     32 H    LEU E   3       6.016  -4.797 -11.115  1.00 29.32 LIG 0.16  HD
BRANCH 31 33
ATOM     33  CA  LEU E   3       7.467  -4.629 -12.445  1.00 27.73 LIG 0.18  C 
BRANCH 33 34
ATOM     34  CB  LEU E   3       8.071  -3.542 -11.532  1.00 28.26 LIG 0.04  C 
BRANCH 34 35
ATOM     35  CG  LEU E   3       7.147  -2.871 -10.513  1.00 28.58 LIG-0.02  C 
ATOM     36  CD2 LEU E   3       6.553  -1.577 -11.059  1.00 28.56 LIG 0.01  C 
ATOM     37  CD1 LEU E   3       7.899  -2.598  -9.217  1.00 28.86 LIG 0.01  C 
ENDBRANCH 34 35
ENDBRANCH 33 34
BRANCH 33 38
ATOM     38  C   LEU E   3       8.521  -5.691 -12.712  1.00 26.19 LIG 0.24  C 
ATOM     39  N   PHE E   4       8.644  -6.644 -11.792  1.00 24.40 LIG-0.34  N 
ATOM     40 H    PHE E   4       8.111  -6.726 -11.123  1.00 24.40 LIG 0.16  HD
ATOM     41 O    LEU E   3       9.213  -5.626 -13.728  1.00 26.01 LIG-0.27  OA
BRANCH 39 42
ATOM     42  CA  PHE E   4       9.701  -7.646 -11.829  1.00 23.80 LIG 0.19  C 
BRANCH 42 43
ATOM     43  C   PHE E   4       9.516  -8.651 -10.695  1.00 24.08 LIG 0.20  C 
ATOM     44 O    PHE E   4       9.999  -9.785 -10.740  1.00 22.36 LIG-0.65  OA
ATOM     45 OXT  PHE E   4       8.823  -8.348  -9.728  1.00 24.21 LIG-0.65  OA
ENDBRANCH 42 43
BRANCH 42 46
ATOM     46  CB  PHE E   4      11.072  -6.979 -11.667  1.00 23.46 LIG 0.07  C 
BRANCH 46 47
ATOM     47  CG  PHE E   4      11.081  -5.838 -10.671  1.00 22.76 LIG-0.06  A 
ATOM     48  CD1 PHE E   4      10.876  -6.071  -9.320  1.00 22.71 LIG 0.01  A 
ATOM     49  CE1 PHE E   4      10.878  -5.027  -8.409  1.00 22.42 LIG 0.00  A 
ATOM     50  CZ  PHE E   4      11.075  -3.729  -8.850  1.00 22.02 LIG 0.00  A 
ATOM     51  CE2 PHE E   4      11.273  -3.482 -10.195  1.00 22.12 LIG 0.00  A 
ATOM     52  CD2 PHE E   4      11.274  -4.532 -11.097  1.00 22.51 LIG 0.01  A 
ENDBRANCH 46 47
ENDBRANCH 42 46
ENDBRANCH 39 42
ENDBRANCH 33 38
ENDBRANCH 31 33
ENDBRANCH 1 29
TORSDOF 19
ENDMDL
MODEL 13
USER: ADFR SOLUTION from run 191
USER: SCORE 14.889350 LL:  -4.295 LR: -12.388 RR:   0.000 FEB:  -6.720
USER: RMSD 6.297593
USER: SEED 190
USER: STATUS no improvement in best in 14 clusters for 5 generations
USER: GENES 21
USER: genes 0 Translation |==|  0.34329 0.54547 0.57590
USER: genes 1 Rotation |==|  0.18257 0.30470 0.36720 0.80571
USER: genes 2 Torsion [CB]-CA--N-[C] |==|  0.81908
USER: genes 3 Torsion [N]-C--CA-[N] |==|  0.09501
USER: genes 4 Torsion [C]-CA--N-[C] |==|  0.16761
USER: genes 5 Torsion [N]-C--CA-[N] |==|  0.15000
USER: genes 6 Torsion [C]-CA--N-[C] |==|  0.65082
USER: genes 7 Torsion [C]-CA--CB-[CG] |==|  0.69480
USER: genes 8 Torsion [CA]-CB--CG-[CD] |==|  0.77254
USER: genes 9 Torsion [CB]-CG--CD-[OE1] |==|  0.97240
USER: genes 10 Torsion [N]-CA--CB-[CG] |==|  0.71968
USER: genes 11 Torsion [CA]-CB--CG-[OD1] |==|  0.12900
USER: genes 12 Torsion [N]-CA--C-[N] |==|  0.04700
USER: genes 13 Torsion [C]-N--CA-[C] |==|  0.70238
USER: genes 14 Torsion [N]-CA--CB-[CG] |==|  0.40718
USER: genes 15 Torsion [CA]-CB--CG-[CD2] |==|  0.59098
USER: genes 16 Torsion [N]-CA--C-[N] |==|  0.34596
USER: genes 17 Torsion [C]-N--CA-[CB] |==|  0.52032
USER: genes 18 Torsion [N]-CA--C-[O] |==|  0.34073
USER: genes 19 Torsion [N]-CA--CB-[CG] |==|  0.77939
USER: genes 20 Torsion [CA]-CB--CG-[CD2] |==|  0.48017
ROOT
ATOM      1  CA  ASP E   2      -0.233  -4.607 -10.345  1.00 33.44 LIG 0.19  C 
ENDROOT
BRANCH 1 2
ATOM      2  N   ASP E   2      -1.028  -5.569 -11.120  1.00 33.24 LIG-0.35  N 
ATOM      3 H    ASP E   2      -1.349  -5.257 -11.854  1.00 33.24 LIG 0.16  HD
ATOM      4  C   ALA E   1      -1.222  -6.819 -10.695  1.00 32.93 LIG 0.24  C 
ATOM      5 O    ALA E   1      -0.851  -7.214  -9.590  1.00 31.71 LIG-0.27  OA
BRANCH 4 6
ATOM      6  CA  ALA E   1      -1.953  -7.764 -11.643  1.00 33.97 LIG 0.17  C 
ATOM      7  CB  ALA E   1      -1.600  -9.214 -11.326  1.00 34.31 LIG 0.04  C 
BRANCH 6 8
ATOM      8  N   ALA E   1      -1.609  -7.450 -13.033  1.00 34.07 LIG-0.35  N 
ATOM      9  C   GLN E   0      -0.362  -7.506 -13.505  1.00 34.65 LIG 0.24  C 
ATOM     10 O    GLN E   0       0.620  -7.792 -12.814  1.00 33.74 LIG-0.27  OA
ATOM     11 H    ALA E   1      -2.286  -7.226 -13.515  1.00 34.07 LIG 0.16  HD
BRANCH 9 12
ATOM     12  CA  GLN E   0      -0.194  -7.225 -14.997  1.00 34.37 LIG 0.18  C 
BRANCH 12 13
ATOM     13  N   GLN E   0      -0.809  -5.906 -15.407  1.00 34.90 LIG-0.35  N 
ATOM     14  C   ACE E  -1      -1.726  -5.764 -16.403  1.00 34.22 LIG 0.21  C 
ATOM     15  CH3 ACE E  -1      -2.242  -4.334 -16.487  1.00 34.51 LIG 0.12  C 
ATOM     16 O    ACE E  -1      -2.600  -6.626 -16.439  1.00 33.28 LIG-0.27  OA
ATOM     17 H    GLN E   0      -0.520  -5.241 -14.944  1.00 34.90 LIG 0.16  HD
ENDBRANCH 12 13
BRANCH 12 18
ATOM     18  CB  GLN E   0       1.302  -7.252 -15.334  1.00 34.11 LIG 0.04  C 
BRANCH 18 19
ATOM     19  CG  GLN E   0       1.893  -5.889 -15.674  1.00 32.87 LIG 0.10  C 
BRANCH 19 20
ATOM     20  CD  GLN E   0       1.634  -5.491 -17.114  1.00 32.43 LIG 0.21  C 
ATOM     21 OE1  GLN E   0       1.174  -6.305 -17.910  1.00 31.11 LIG-0.27  OA
ATOM     22  NE2 GLN E   0       1.941  -4.245 -17.460  1.00 32.01 LIG-0.37  N 
ATOM     23 22HE GLN E   0       1.819  -3.981 -18.269  1.00 32.01 LIG 0.16  HD
ATOM     24 21HE GLN E   0       2.261  -3.702 -16.875  1.00 32.01 LIG 0.16  HD
ENDBRANCH 19 20
ENDBRANCH 18 19
ENDBRANCH 12 18
ENDBRANCH 9 12
ENDBRANCH 6 8
ENDBRANCH 4 6
ENDBRANCH 1 2
BRANCH 1 25
ATOM     25  CB  ASP E   2      -0.918  -4.297  -9.015  1.00 34.81 LIG 0.15  C 
BRANCH 25 26
ATOM     26  CG  ASP E   2      -1.655  -2.977  -9.051  1.00 36.48 LIG 0.17  C 
ATOM     27 OD1  ASP E   2      -2.383  -2.737 -10.038  1.00 36.59 LIG-0.65  OA
ATOM     28 OD2  ASP E   2      -1.485  -2.171  -8.109  1.00 38.36 LIG-0.65  OA
ENDBRANCH 25 26
ENDBRANCH 1 25
BRANCH 1 29
ATOM     29  C   ASP E   2       1.201  -5.042 -10.099  1.00 31.85 LIG 0.24  C 
ATOM     30 O    ASP E   2       1.887  -4.500  -9.229  1.00 30.99 LIG-0.27  OA
ATOM     31  N   LEU E   3       1.639  -6.025 -10.889  1.00 29.32 LIG-0.35  N 
ATOM     32 H    LEU E   3       1.159  -6.377 -11.510  1.00 29.32 LIG 0.16  HD
BRANCH 31 33
ATOM     33  CA  LEU E   3       2.981  -6.611 -10.785  1.00 27.73 LIG 0.18  C 
BRANCH 33 34
ATOM     34  CB  LEU E   3       2.899  -8.151 -10.734  1.00 28.26 LIG 0.04  C 
BRANCH 34 35
ATOM     35  CG  LEU E   3       4.033  -8.948 -11.383  1.00 28.58 LIG-0.02  C 
ATOM     36  CD2 LEU E   3       3.531 -10.261 -11.975  1.00 28.56 LIG 0.01  C 
ATOM     37  CD1 LEU E   3       5.136  -9.219 -10.367  1.00 28.86 LIG 0.01  C 
ENDBRANCH 34 35
ENDBRANCH 33 34
BRANCH 33 38
ATOM     38  C   LEU E   3       3.904  -6.203 -11.921  1.00 26.19 LIG 0.24  C 
ATOM     39  N   PHE E   4       5.057  -5.640 -11.571  1.00 24.40 LIG-0.34  N 
ATOM     40 H    PHE E   4       5.326  -5.581 -10.756  1.00 24.40 LIG 0.16  HD
ATOM     41 O    LEU E   3       3.558  -6.386 -13.088  1.00 26.01 LIG-0.27  OA
BRANCH 39 42
ATOM     42  CA  PHE E   4       5.982  -5.065 -12.538  1.00 23.80 LIG 0.19  C 
BRANCH 42 43
ATOM     43  C   PHE E   4       6.306  -6.083 -13.628  1.00 24.08 LIG 0.20  C 
ATOM     44 O    PHE E   4       6.103  -5.850 -14.822  1.00 22.36 LIG-0.65  OA
ATOM     45 OXT  PHE E   4       6.734  -7.189 -13.312  1.00 24.21 LIG-0.65  OA
ENDBRANCH 42 43
BRANCH 42 46
ATOM     46  CB  PHE E   4       7.291  -4.661 -11.847  1.00 23.46 LIG 0.07  C 
BRANCH 46 47
ATOM     47  CG  PHE E   4       7.207  -3.345 -11.104  1.00 22.76 LIG-0.06  A 
ATOM     48  CD1 PHE E   4       6.090  -2.532 -11.219  1.00 22.71 LIG 0.01  A 
ATOM     49  CE1 PHE E   4       6.015  -1.324 -10.544  1.00 22.42 LIG 0.00  A 
ATOM     50  CZ  PHE E   4       7.073  -0.912  -9.750  1.00 22.02 LIG 0.00  A 
ATOM     51  CE2 PHE E   4       8.196  -1.709  -9.633  1.00 22.12 LIG 0.00  A 
ATOM     52  CD2 PHE E   4       8.259  -2.916 -10.307  1.00 22.51 LIG 0.01  A 
ENDBRANCH 46 47
ENDBRANCH 42 46
ENDBRANCH 39 42
ENDBRANCH 33 38
ENDBRANCH 31 33
ENDBRANCH 1 29
TORSDOF 19
ENDMDL
MODEL 14
USER: ADFR SOLUTION from run 68
USER: SCORE 14.641741 LL:  -3.724 LR: -12.354 RR:   0.000 FEB:  -6.686
USER: RMSD 6.394185
USER: SEED 67
USER: STATUS no improvement in best in 5 clusters for 5 generations
USER: GENES 21
USER: genes 0 Translation |==|  0.36178 0.52010 0.58963
USER: genes 1 Rotation |==|  0.25597 0.34781 0.36051 0.88448
USER: genes 2 Torsion [CB]-CA--N-[C] |==|  0.85977
USER: genes 3 Torsion [N]-C--CA-[N] |==|  0.08512
USER: genes 4 Torsion [C]-CA--N-[C] |==|  0.52222
USER: genes 5 Torsion [N]-C--CA-[N] |==|  0.16389
USER: genes 6 Torsion [C]-CA--N-[C] |==|  0.75581
USER: genes 7 Torsion [C]-CA--CB-[CG] |==|  0.46495
USER: genes 8 Torsion [CA]-CB--CG-[CD] |==|  0.71924
USER: genes 9 Torsion [CB]-CG--CD-[OE1] |==|  0.80782
USER: genes 10 Torsion [N]-CA--CB-[CG] |==|  0.82554
USER: genes 11 Torsion [CA]-CB--CG-[OD1] |==|  0.84276
USER: genes 12 Torsion [N]-CA--C-[N] |==|  0.91211
USER: genes 13 Torsion [C]-N--CA-[C] |==|  0.79274
USER: genes 14 Torsion [N]-CA--CB-[CG] |==|  0.54626
USER: genes 15 Torsion [CA]-CB--CG-[CD2] |==|  0.08232
USER: genes 16 Torsion [N]-CA--C-[N] |==|  0.36089
USER: genes 17 Torsion [C]-N--CA-[CB] |==|  0.49294
USER: genes 18 Torsion [N]-CA--C-[O] |==|  0.99140
USER: genes 19 Torsion [N]-CA--CB-[CG] |==|  0.77385
USER: genes 20 Torsion [CA]-CB--CG-[CD2] |==|  0.46069
ROOT
ATOM      1  CA  ASP E   2       0.239  -5.025 -10.140  1.00 33.44 LIG 0.19  C 
ENDROOT
BRANCH 1 2
ATOM      2  N   ASP E   2      -0.620  -5.648 -11.155  1.00 33.24 LIG-0.35  N 
ATOM      3 H    ASP E   2      -0.900  -5.109 -11.764  1.00 33.24 LIG 0.16  HD
ATOM      4  C   ALA E   1      -0.926  -6.946 -11.112  1.00 32.93 LIG 0.24  C 
ATOM      5 O    ALA E   1      -0.610  -7.676 -10.173  1.00 31.71 LIG-0.27  OA
BRANCH 4 6
ATOM      6  CA  ALA E   1      -1.717  -7.508 -12.290  1.00 33.97 LIG 0.17  C 
ATOM      7  CB  ALA E   1      -1.424  -8.995 -12.466  1.00 34.31 LIG 0.04  C 
BRANCH 6 8
ATOM      8  N   ALA E   1      -1.384  -6.776 -13.516  1.00 34.07 LIG-0.35  N 
ATOM      9  C   GLN E   0      -2.038  -6.949 -14.667  1.00 34.65 LIG 0.24  C 
ATOM     10 O    GLN E   0      -2.955  -7.760 -14.819  1.00 33.74 LIG-0.27  OA
ATOM     11 H    ALA E   1      -0.730  -6.226 -13.423  1.00 34.07 LIG 0.16  HD
BRANCH 9 12
ATOM     12  CA  GLN E   0      -1.614  -6.044 -15.823  1.00 34.37 LIG 0.18  C 
BRANCH 12 13
ATOM     13  N   GLN E   0      -0.152  -6.205 -16.172  1.00 34.90 LIG-0.35  N 
ATOM     14  C   ACE E  -1       0.858  -5.504 -15.588  1.00 34.22 LIG 0.21  C 
ATOM     15  CH3 ACE E  -1       2.222  -5.983 -16.067  1.00 34.51 LIG 0.12  C 
ATOM     16 O    ACE E  -1       0.763  -5.362 -14.371  1.00 33.28 LIG-0.27  OA
ATOM     17 H    GLN E   0      -0.014  -6.792 -16.786  1.00 34.90 LIG 0.16  HD
ENDBRANCH 12 13
BRANCH 12 18
ATOM     18  CB  GLN E   0      -2.497  -6.358 -17.037  1.00 34.11 LIG 0.04  C 
BRANCH 18 19
ATOM     19  CG  GLN E   0      -2.399  -5.336 -18.165  1.00 32.87 LIG 0.10  C 
BRANCH 19 20
ATOM     20  CD  GLN E   0      -3.568  -4.372 -18.172  1.00 32.43 LIG 0.21  C 
ATOM     21 OE1  GLN E   0      -4.693  -4.760 -18.472  1.00 31.11 LIG-0.27  OA
ATOM     22  NE2 GLN E   0      -3.308  -3.106 -17.857  1.00 32.01 LIG-0.37  N 
ATOM     23 22HE GLN E   0      -3.941  -2.525 -17.858  1.00 32.01 LIG 0.16  HD
ATOM     24 21HE GLN E   0      -2.507  -2.870 -17.651  1.00 32.01 LIG 0.16  HD
ENDBRANCH 19 20
ENDBRANCH 18 19
ENDBRANCH 12 18
ENDBRANCH 9 12
ENDBRANCH 6 8
ENDBRANCH 4 6
ENDBRANCH 1 2
BRANCH 1 25
ATOM     25  CB  ASP E   2      -0.257  -5.372  -8.737  1.00 34.81 LIG 0.15  C 
BRANCH 25 26
ATOM     26  CG  ASP E   2      -1.645  -4.831  -8.476  1.00 36.48 LIG 0.17  C 
ATOM     27 OD1  ASP E   2      -1.833  -3.603  -8.612  1.00 36.59 LIG-0.65  OA
ATOM     28 OD2  ASP E   2      -2.539  -5.627  -8.110  1.00 38.36 LIG-0.65  OA
ENDBRANCH 25 26
ENDBRANCH 1 25
BRANCH 1 29
ATOM     29  C   ASP E   2       1.710  -5.379 -10.269  1.00 31.85 LIG 0.24  C 
ATOM     30 O    ASP E   2       2.586  -4.572  -9.946  1.00 30.99 LIG-0.27  OA
ATOM     31  N   LEU E   3       1.961  -6.596 -10.756  1.00 29.32 LIG-0.35  N 
ATOM     32 H    LEU E   3       1.340  -7.139 -11.003  1.00 29.32 LIG 0.16  HD
BRANCH 31 33
ATOM     33  CA  LEU E   3       3.314  -7.139 -10.924  1.00 27.73 LIG 0.18  C 
BRANCH 33 34
ATOM     34  CB  LEU E   3       3.267  -8.673 -11.088  1.00 28.26 LIG 0.04  C 
BRANCH 34 35
ATOM     35  CG  LEU E   3       4.568  -9.453 -10.886  1.00 28.58 LIG-0.02  C 
ATOM     36  CD2 LEU E   3       5.495  -8.756  -9.896  1.00 28.56 LIG 0.01  C 
ATOM     37  CD1 LEU E   3       5.278  -9.650 -12.220  1.00 28.86 LIG 0.01  C 
ENDBRANCH 34 35
ENDBRANCH 33 34
BRANCH 33 38
ATOM     38  C   LEU E   3       4.060  -6.539 -12.103  1.00 26.19 LIG 0.24  C 
ATOM     39  N   PHE E   4       5.287  -6.088 -11.857  1.00 24.40 LIG-0.34  N 
ATOM     40 H    PHE E   4       5.689  -6.199 -11.105  1.00 24.40 LIG 0.16  HD
ATOM     41 O    LEU E   3       3.517  -6.477 -13.206  1.00 26.01 LIG-0.27  OA
BRANCH 39 42
ATOM     42  CA  PHE E   4       6.073  -5.357 -12.842  1.00 23.80 LIG 0.19  C 
BRANCH 42 43
ATOM     43  C   PHE E   4       6.358  -6.243 -14.052  1.00 24.08 LIG 0.20  C 
ATOM     44 O    PHE E   4       5.999  -7.422 -14.099  1.00 22.36 LIG-0.65  OA
ATOM     45 OXT  PHE E   4       7.009  -5.791 -14.989  1.00 24.21 LIG-0.65  OA
ENDBRANCH 42 43
BRANCH 42 46
ATOM     46  CB  PHE E   4       7.413  -4.920 -12.235  1.00 23.46 LIG 0.07  C 
BRANCH 46 47
ATOM     47  CG  PHE E   4       7.322  -3.661 -11.398  1.00 22.76 LIG-0.06  A 
ATOM     48  CD1 PHE E   4       6.212  -2.834 -11.475  1.00 22.71 LIG 0.01  A 
ATOM     49  CE1 PHE E   4       6.130  -1.678 -10.716  1.00 22.42 LIG 0.00  A 
ATOM     50  CZ  PHE E   4       7.175  -1.333  -9.874  1.00 22.02 LIG 0.00  A 
ATOM     51  CE2 PHE E   4       8.290  -2.145  -9.793  1.00 22.12 LIG 0.00  A 
ATOM     52  CD2 PHE E   4       8.360  -3.300 -10.552  1.00 22.51 LIG 0.01  A 
ENDBRANCH 46 47
ENDBRANCH 42 46
ENDBRANCH 39 42
ENDBRANCH 33 38
ENDBRANCH 31 33
ENDBRANCH 1 29
TORSDOF 19
ENDMDL
MODEL 15
USER: ADFR SOLUTION from run 116
USER: SCORE 15.176750 LL:  -3.799 LR: -12.352 RR:   0.000 FEB:  -6.684
USER: RMSD 3.280032
USER: SEED 115
USER: STATUS no improvement in best in 8 clusters for 5 generations
USER: GENES 21
USER: genes 0 Translation |==|  0.57530 0.30514 0.58311
USER: genes 1 Rotation |==|  0.36959 0.56224 0.42977 0.97348
USER: genes 2 Torsion [CB]-CA--N-[C] |==|  0.84871
USER: genes 3 Torsion [N]-C--CA-[N] |==|  0.08177
USER: genes 4 Torsion [C]-CA--N-[C] |==|  0.70446
USER: genes 5 Torsion [N]-C--CA-[N] |==|  0.14823
USER: genes 6 Torsion [C]-CA--N-[C] |==|  0.77096
USER: genes 7 Torsion [C]-CA--CB-[CG] |==|  0.25052
USER: genes 8 Torsion [CA]-CB--CG-[CD] |==|  0.33165
USER: genes 9 Torsion [CB]-CG--CD-[OE1] |==|  0.15273
USER: genes 10 Torsion [N]-CA--CB-[CG] |==|  0.59817
USER: genes 11 Torsion [CA]-CB--CG-[OD1] |==|  0.85268
USER: genes 12 Torsion [N]-CA--C-[N] |==|  0.36165
USER: genes 13 Torsion [C]-N--CA-[C] |==|  0.65276
USER: genes 14 Torsion [N]-CA--CB-[CG] |==|  0.19432
USER: genes 15 Torsion [CA]-CB--CG-[CD2] |==|  0.71951
USER: genes 16 Torsion [N]-CA--C-[N] |==|  0.03236
USER: genes 17 Torsion [C]-N--CA-[CB] |==|  0.32953
USER: genes 18 Torsion [N]-CA--C-[O] |==|  0.57289
USER: genes 19 Torsion [N]-CA--CB-[CG] |==|  0.80470
USER: genes 20 Torsion [CA]-CB--CG-[CD2] |==|  0.22781
ROOT
ATOM      1  CA  ASP E   2       5.683  -8.572 -10.237  1.00 33.44 LIG 0.19  C 
ENDROOT
BRANCH 1 2
ATOM      2  N   ASP E   2       4.250  -8.724 -10.521  1.00 33.24 LIG-0.35  N 
ATOM      3 H    ASP E   2       3.763  -8.067 -10.255  1.00 33.24 LIG 0.16  HD
ATOM      4  C   ALA E   1       3.770  -9.803 -11.142  1.00 32.93 LIG 0.24  C 
ATOM      5 O    ALA E   1       4.465 -10.781 -11.414  1.00 31.71 LIG-0.27  OA
BRANCH 4 6
ATOM      6  CA  ALA E   1       2.286  -9.790 -11.499  1.00 33.97 LIG 0.17  C 
ATOM      7  CB  ALA E   1       2.030 -10.648 -12.734  1.00 34.31 LIG 0.04  C 
BRANCH 6 8
ATOM      8  N   ALA E   1       1.836  -8.415 -11.733  1.00 34.07 LIG-0.35  N 
ATOM      9  C   GLN E   0       1.071  -7.744 -10.868  1.00 34.65 LIG 0.24  C 
ATOM     10 O    GLN E   0       0.644  -8.223  -9.815  1.00 33.74 LIG-0.27  OA
ATOM     11 H    ALA E   1       2.110  -8.083 -12.477  1.00 34.07 LIG 0.16  HD
BRANCH 9 12
ATOM     12  CA  GLN E   0       0.761  -6.292 -11.232  1.00 34.37 LIG 0.18  C 
BRANCH 12 13
ATOM     13  N   GLN E   0       0.177  -6.159 -12.620  1.00 34.90 LIG-0.35  N 
ATOM     14  C   ACE E  -1       0.916  -6.125 -13.763  1.00 34.22 LIG 0.21  C 
ATOM     15  CH3 ACE E  -1       0.030  -6.111 -15.001  1.00 34.51 LIG 0.12  C 
ATOM     16 O    ACE E  -1       1.848  -6.924 -13.810  1.00 33.28 LIG-0.27  OA
ATOM     17 H    GLN E   0      -0.682  -6.106 -12.621  1.00 34.90 LIG 0.16  HD
ENDBRANCH 12 13
BRANCH 12 18
ATOM     18  CB  GLN E   0      -0.201  -5.721 -10.183  1.00 34.11 LIG 0.04  C 
BRANCH 18 19
ATOM     19  CG  GLN E   0       0.488  -5.061  -8.993  1.00 32.87 LIG 0.10  C 
BRANCH 19 20
ATOM     20  CD  GLN E   0       0.128  -3.596  -8.859  1.00 32.43 LIG 0.21  C 
ATOM     21 OE1  GLN E   0      -1.048  -3.248  -8.788  1.00 31.11 LIG-0.27  OA
ATOM     22  NE2 GLN E   0       1.133  -2.726  -8.838  1.00 32.01 LIG-0.37  N 
ATOM     23 22HE GLN E   0       0.972  -1.884  -8.772  1.00 32.01 LIG 0.16  HD
ATOM     24 21HE GLN E   0       1.945  -3.006  -8.889  1.00 32.01 LIG 0.16  HD
ENDBRANCH 19 20
ENDBRANCH 18 19
ENDBRANCH 12 18
ENDBRANCH 9 12
ENDBRANCH 6 8
ENDBRANCH 4 6
ENDBRANCH 1 2
BRANCH 1 25
ATOM     25  CB  ASP E   2       6.204  -9.780  -9.461  1.00 34.81 LIG 0.15  C 
BRANCH 25 26
ATOM     26  CG  ASP E   2       7.265  -9.393  -8.455  1.00 36.48 LIG 0.17  C 
ATOM     27 OD1  ASP E   2       8.246  -8.732  -8.860  1.00 36.59 LIG-0.65  OA
ATOM     28 OD2  ASP E   2       7.134  -9.773  -7.270  1.00 38.36 LIG-0.65  OA
ENDBRANCH 25 26
ENDBRANCH 1 25
BRANCH 1 29
ATOM     29  C   ASP E   2       6.540  -8.342 -11.471  1.00 31.85 LIG 0.24  C 
ATOM     30 O    ASP E   2       6.446  -9.081 -12.454  1.00 30.99 LIG-0.27  OA
ATOM     31  N   LEU E   3       7.383  -7.309 -11.391  1.00 29.32 LIG-0.35  N 
ATOM     32 H    LEU E   3       7.457  -6.818 -10.689  1.00 29.32 LIG 0.16  HD
BRANCH 31 33
ATOM     33  CA  LEU E   3       8.269  -6.901 -12.488  1.00 27.73 LIG 0.18  C 
BRANCH 33 34
ATOM     34  CB  LEU E   3       7.840  -5.529 -13.049  1.00 28.26 LIG 0.04  C 
BRANCH 34 35
ATOM     35  CG  LEU E   3       8.059  -4.297 -12.168  1.00 28.58 LIG-0.02  C 
ATOM     36  CD2 LEU E   3       6.768  -3.857 -11.485  1.00 28.56 LIG 0.01  C 
ATOM     37  CD1 LEU E   3       8.632  -3.152 -12.994  1.00 28.86 LIG 0.01  C 
ENDBRANCH 34 35
ENDBRANCH 33 34
BRANCH 33 38
ATOM     38  C   LEU E   3       9.732  -6.834 -12.085  1.00 26.19 LIG 0.24  C 
ATOM     39  N   PHE E   4      10.044  -7.370 -10.908  1.00 24.40 LIG-0.34  N 
ATOM     40 H    PHE E   4       9.486  -7.813 -10.428  1.00 24.40 LIG 0.16  HD
ATOM     41 O    LEU E   3      10.549  -6.289 -12.828  1.00 26.01 LIG-0.27  OA
BRANCH 39 42
ATOM     42  CA  PHE E   4      11.371  -7.259 -10.316  1.00 23.80 LIG 0.19  C 
BRANCH 42 43
ATOM     43  C   PHE E   4      11.955  -8.646 -10.065  1.00 24.08 LIG 0.20  C 
ATOM     44 O    PHE E   4      12.795  -8.853  -9.186  1.00 22.36 LIG-0.65  OA
ATOM     45 OXT  PHE E   4      11.624  -9.580 -10.790  1.00 24.21 LIG-0.65  OA
ENDBRANCH 42 43
BRANCH 42 46
ATOM     46  CB  PHE E   4      11.294  -6.516  -8.976  1.00 23.46 LIG 0.07  C 
BRANCH 46 47
ATOM     47  CG  PHE E   4      10.982  -5.040  -9.114  1.00 22.76 LIG-0.06  A 
ATOM     48  CD1 PHE E   4      11.991  -4.091  -9.059  1.00 22.71 LIG 0.01  A 
ATOM     49  CE1 PHE E   4      11.707  -2.740  -9.179  1.00 22.42 LIG 0.00  A 
ATOM     50  CZ  PHE E   4      10.395  -2.326  -9.345  1.00 22.02 LIG 0.00  A 
ATOM     51  CE2 PHE E   4       9.379  -3.261  -9.393  1.00 22.12 LIG 0.00  A 
ATOM     52  CD2 PHE E   4       9.674  -4.608  -9.278  1.00 22.51 LIG 0.01  A 
ENDBRANCH 46 47
ENDBRANCH 42 46
ENDBRANCH 39 42
ENDBRANCH 33 38
ENDBRANCH 31 33
ENDBRANCH 1 29
TORSDOF 19
ENDMDL
MODEL 16
USER: ADFR SOLUTION from run 99
USER: SCORE 14.185156 LL:  -3.537 LR: -12.313 RR:   0.000 FEB:  -6.646
USER: RMSD 10.221509
USER: SEED 98
USER: STATUS no improvement in best in 11 clusters for 5 generations
USER: GENES 21
USER: genes 0 Translation |==|  0.64551 0.66554 0.58438
USER: genes 1 Rotation |==|  0.22430 0.51152 0.90445 0.60140
USER: genes 2 Torsion [CB]-CA--N-[C] |==|  0.77045
USER: genes 3 Torsion [N]-C--CA-[N] |==|  0.31056
USER: genes 4 Torsion [C]-CA--N-[C] |==|  0.62945
USER: genes 5 Torsion [N]-C--CA-[N] |==|  0.02155
USER: genes 6 Torsion [C]-CA--N-[C] |==|  0.75434
USER: genes 7 Torsion [C]-CA--CB-[CG] |==|  0.65379
USER: genes 8 Torsion [CA]-CB--CG-[CD] |==|  0.77621
USER: genes 9 Torsion [CB]-CG--CD-[OE1] |==|  0.10627
USER: genes 10 Torsion [N]-CA--CB-[CG] |==|  0.46638
USER: genes 11 Torsion [CA]-CB--CG-[OD1] |==|  0.69492
USER: genes 12 Torsion [N]-CA--C-[N] |==|  0.28333
USER: genes 13 Torsion [C]-N--CA-[C] |==|  0.55072
USER: genes 14 Torsion [N]-CA--CB-[CG] |==|  0.66391
USER: genes 15 Torsion [CA]-CB--CG-[CD2] |==|  0.22390
USER: genes 16 Torsion [N]-CA--C-[N] |==|  0.91518
USER: genes 17 Torsion [C]-N--CA-[CB] |==|  0.83312
USER: genes 18 Torsion [N]-CA--C-[O] |==|  0.60123
USER: genes 19 Torsion [N]-CA--CB-[CG] |==|  0.72002
USER: genes 20 Torsion [CA]-CB--CG-[CD2] |==|  0.62405
ROOT
ATOM      1  CA  ASP E   2       7.474  -2.626 -10.218  1.00 33.44 LIG 0.19  C 
ENDROOT
BRANCH 1 2
ATOM      2  N   ASP E   2       8.610  -2.954  -9.348  1.00 33.24 LIG-0.35  N 
ATOM      3 H    ASP E   2       8.420  -2.985  -8.510  1.00 33.24 LIG 0.16  HD
ATOM      4  C   ALA E   1       9.828  -3.180  -9.844  1.00 32.93 LIG 0.24  C 
ATOM      5 O    ALA E   1      10.106  -3.021 -11.032  1.00 31.71 LIG-0.27  OA
BRANCH 4 6
ATOM      6  CA  ALA E   1      10.899  -3.640  -8.858  1.00 33.97 LIG 0.17  C 
ATOM      7  CB  ALA E   1      12.122  -2.733  -8.940  1.00 34.31 LIG 0.04  C 
BRANCH 6 8
ATOM      8  N   ALA E   1      11.277  -5.029  -9.136  1.00 34.07 LIG-0.35  N 
ATOM      9  C   GLN E   0      11.387  -5.958  -8.184  1.00 34.65 LIG 0.24  C 
ATOM     10 O    GLN E   0      11.217  -5.731  -6.983  1.00 33.74 LIG-0.27  OA
ATOM     11 H    ALA E   1      11.421  -5.188  -9.969  1.00 34.07 LIG 0.16  HD
BRANCH 9 12
ATOM     12  CA  GLN E   0      11.711  -7.373  -8.660  1.00 34.37 LIG 0.18  C 
BRANCH 12 13
ATOM     13  N   GLN E   0      12.033  -7.424 -10.136  1.00 34.90 LIG-0.35  N 
ATOM     14  C   ACE E  -1      11.105  -7.590 -11.118  1.00 34.22 LIG 0.21  C 
ATOM     15  CH3 ACE E  -1      11.728  -7.473 -12.502  1.00 34.51 LIG 0.12  C 
ATOM     16 O    ACE E  -1      10.064  -6.953 -10.970  1.00 33.28 LIG-0.27  OA
ATOM     17 H    GLN E   0      12.873  -7.337 -10.301  1.00 34.90 LIG 0.16  HD
ENDBRANCH 12 13
BRANCH 12 18
ATOM     18  CB  GLN E   0      12.885  -7.910  -7.831  1.00 34.11 LIG 0.04  C 
BRANCH 18 19
ATOM     19  CG  GLN E   0      14.073  -8.384  -8.661  1.00 32.87 LIG 0.10  C 
BRANCH 19 20
ATOM     20  CD  GLN E   0      13.866  -9.777  -9.221  1.00 32.43 LIG 0.21  C 
ATOM     21 OE1  GLN E   0      12.761 -10.127  -9.625  1.00 31.11 LIG-0.27  OA
ATOM     22  NE2 GLN E   0      14.922 -10.585  -9.234  1.00 32.01 LIG-0.37  N 
ATOM     23 22HE GLN E   0      14.846 -11.386  -9.535  1.00 32.01 LIG 0.16  HD
ATOM     24 21HE GLN E   0      15.682 -10.305  -8.943  1.00 32.01 LIG 0.16  HD
ENDBRANCH 19 20
ENDBRANCH 18 19
ENDBRANCH 12 18
ENDBRANCH 9 12
ENDBRANCH 6 8
ENDBRANCH 4 6
ENDBRANCH 1 2
BRANCH 1 25
ATOM     25  CB  ASP E   2       7.476  -1.137 -10.560  1.00 34.81 LIG 0.15  C 
BRANCH 25 26
ATOM     26  CG  ASP E   2       6.509  -0.810 -11.676  1.00 36.48 LIG 0.17  C 
ATOM     27 OD1  ASP E   2       6.981  -0.483 -12.786  1.00 36.59 LIG-0.65  OA
ATOM     28 OD2  ASP E   2       5.282  -0.852 -11.437  1.00 38.36 LIG-0.65  OA
ENDBRANCH 25 26
ENDBRANCH 1 25
BRANCH 1 29
ATOM     29  C   ASP E   2       7.410  -3.448 -11.494  1.00 31.85 LIG 0.24  C 
ATOM     30 O    ASP E   2       8.137  -3.184 -12.455  1.00 30.99 LIG-0.27  OA
ATOM     31  N   LEU E   3       6.519  -4.442 -11.484  1.00 29.32 LIG-0.35  N 
ATOM     32 H    LEU E   3       5.999  -4.599 -10.816  1.00 29.32 LIG 0.16  HD
BRANCH 31 33
ATOM     33  CA  LEU E   3       6.329  -5.372 -12.604  1.00 27.73 LIG 0.18  C 
BRANCH 33 34
ATOM     34  CB  LEU E   3       7.477  -6.401 -12.655  1.00 28.26 LIG 0.04  C 
BRANCH 34 35
ATOM     35  CG  LEU E   3       8.323  -6.465 -13.929  1.00 28.58 LIG-0.02  C 
ATOM     36  CD2 LEU E   3       9.383  -5.369 -13.957  1.00 28.56 LIG 0.01  C 
ATOM     37  CD1 LEU E   3       7.432  -6.365 -15.160  1.00 28.86 LIG 0.01  C 
ENDBRANCH 34 35
ENDBRANCH 33 34
BRANCH 33 38
ATOM     38  C   LEU E   3       5.004  -6.113 -12.552  1.00 26.19 LIG 0.24  C 
ATOM     39  N   PHE E   4       4.508  -6.350 -11.341  1.00 24.40 LIG-0.34  N 
ATOM     40 H    PHE E   4       4.853  -6.034 -10.619  1.00 24.40 LIG 0.16  HD
ATOM     41 O    LEU E   3       4.461  -6.472 -13.597  1.00 26.01 LIG-0.27  OA
BRANCH 39 42
ATOM     42  CA  PHE E   4       3.326  -7.171 -11.118  1.00 23.80 LIG 0.19  C 
BRANCH 42 43
ATOM     43  C   PHE E   4       3.554  -8.582 -11.655  1.00 24.08 LIG 0.20  C 
ATOM     44 O    PHE E   4       2.653  -9.232 -12.191  1.00 22.36 LIG-0.65  OA
ATOM     45 OXT  PHE E   4       4.650  -9.114 -11.506  1.00 24.21 LIG-0.65  OA
ENDBRANCH 42 43
BRANCH 42 46
ATOM     46  CB  PHE E   4       2.115  -6.567 -11.842  1.00 23.46 LIG 0.07  C 
BRANCH 46 47
ATOM     47  CG  PHE E   4       1.187  -5.790 -10.933  1.00 22.76 LIG-0.06  A 
ATOM     48  CD1 PHE E   4       1.688  -4.917  -9.981  1.00 22.71 LIG 0.01  A 
ATOM     49  CE1 PHE E   4       0.840  -4.210  -9.144  1.00 22.42 LIG 0.00  A 
ATOM     50  CZ  PHE E   4      -0.530  -4.383  -9.248  1.00 22.02 LIG 0.00  A 
ATOM     51  CE2 PHE E   4      -1.044  -5.257 -10.187  1.00 22.12 LIG 0.00  A 
ATOM     52  CD2 PHE E   4      -0.188  -5.955 -11.022  1.00 22.51 LIG 0.01  A 
ENDBRANCH 46 47
ENDBRANCH 42 46
ENDBRANCH 39 42
ENDBRANCH 33 38
ENDBRANCH 31 33
ENDBRANCH 1 29
TORSDOF 19
ENDMDL
MODEL 17
USER: ADFR SOLUTION from run 93
USER: SCORE 13.789499 LL:  -3.718 LR: -12.302 RR:   0.000 FEB:  -6.635
USER: RMSD 3.600539
USER: SEED 92
USER: STATUS no improvement in best in 6 clusters for 5 generations
USER: GENES 21
USER: genes 0 Translation |==|  0.54964 0.37749 0.49141
USER: genes 1 Rotation |==|  0.33786 0.44088 0.35630 0.94673
USER: genes 2 Torsion [CB]-CA--N-[C] |==|  0.24218
USER: genes 3 Torsion [N]-C--CA-[N] |==|  0.44444
USER: genes 4 Torsion [C]-CA--N-[C] |==|  0.80108
USER: genes 5 Torsion [N]-C--CA-[N] |==|  0.34019
USER: genes 6 Torsion [C]-CA--N-[C] |==|  0.74789
USER: genes 7 Torsion [C]-CA--CB-[CG] |==|  0.24525
USER: genes 8 Torsion [CA]-CB--CG-[CD] |==|  0.71347
USER: genes 9 Torsion [CB]-CG--CD-[OE1] |==|  0.00197
USER: genes 10 Torsion [N]-CA--CB-[CG] |==|  0.14745
USER: genes 11 Torsion [CA]-CB--CG-[OD1] |==|  0.81207
USER: genes 12 Torsion [N]-CA--C-[N] |==|  0.37229
USER: genes 13 Torsion [C]-N--CA-[C] |==|  0.52843
USER: genes 14 Torsion [N]-CA--CB-[CG] |==|  0.11334
USER: genes 15 Torsion [CA]-CB--CG-[CD2] |==|  0.70316
USER: genes 16 Torsion [N]-CA--C-[N] |==|  0.03716
USER: genes 17 Torsion [C]-N--CA-[CB] |==|  0.43932
USER: genes 18 Torsion [N]-CA--C-[O] |==|  0.90872
USER: genes 19 Torsion [N]-CA--CB-[CG] |==|  0.80450
USER: genes 20 Torsion [CA]-CB--CG-[CD2] |==|  0.67179
ROOT
ATOM      1  CA  ASP E   2       5.029  -7.378 -11.613  1.00 33.44 LIG 0.19  C 
ENDROOT
BRANCH 1 2
ATOM      2  N   ASP E   2       3.895  -7.488 -12.540  1.00 33.24 LIG-0.35  N 
ATOM      3 H    ASP E   2       4.021  -8.032 -13.194  1.00 33.24 LIG 0.16  HD
ATOM      4  C   ALA E   1       2.774  -6.788 -12.360  1.00 32.93 LIG 0.24  C 
ATOM      5 O    ALA E   1       2.654  -5.932 -11.484  1.00 31.71 LIG-0.27  OA
BRANCH 4 6
ATOM      6  CA  ALA E   1       1.617  -7.081 -13.311  1.00 33.97 LIG 0.17  C 
ATOM      7  CB  ALA E   1       1.853  -6.405 -14.658  1.00 34.31 LIG 0.04  C 
BRANCH 6 8
ATOM      8  N   ALA E   1       0.354  -6.622 -12.726  1.00 34.07 LIG-0.35  N 
ATOM      9  C   GLN E   0      -0.234  -7.232 -11.694  1.00 34.65 LIG 0.24  C 
ATOM     10 O    GLN E   0       0.208  -8.253 -11.159  1.00 33.74 LIG-0.27  OA
ATOM     11 H    ALA E   1       0.028  -5.925 -13.110  1.00 34.07 LIG 0.16  HD
BRANCH 9 12
ATOM     12  CA  GLN E   0      -1.503  -6.573 -11.158  1.00 34.37 LIG 0.18  C 
BRANCH 12 13
ATOM     13  N   GLN E   0      -2.692  -7.506 -11.187  1.00 34.90 LIG-0.35  N 
ATOM     14  C   ACE E  -1      -3.557  -7.614 -12.233  1.00 34.22 LIG 0.21  C 
ATOM     15  CH3 ACE E  -1      -4.572  -8.726 -12.007  1.00 34.51 LIG 0.12  C 
ATOM     16 O    ACE E  -1      -3.037  -7.613 -13.346  1.00 33.28 LIG-0.27  OA
ATOM     17 H    GLN E   0      -2.774  -7.972 -10.468  1.00 34.90 LIG 0.16  HD
ENDBRANCH 12 13
BRANCH 12 18
ATOM     18  CB  GLN E   0      -1.234  -6.085  -9.729  1.00 34.11 LIG 0.04  C 
BRANCH 18 19
ATOM     19  CG  GLN E   0      -0.659  -4.675  -9.646  1.00 32.87 LIG 0.10  C 
BRANCH 19 20
ATOM     20  CD  GLN E   0       0.829  -4.676  -9.360  1.00 32.43 LIG 0.21  C 
ATOM     21 OE1  GLN E   0       1.438  -5.735  -9.236  1.00 31.11 LIG-0.27  OA
ATOM     22  NE2 GLN E   0       1.421  -3.491  -9.239  1.00 32.01 LIG-0.37  N 
ATOM     23 22HE GLN E   0       2.262  -3.447  -9.068  1.00 32.01 LIG 0.16  HD
ATOM     24 21HE GLN E   0       0.963  -2.770  -9.333  1.00 32.01 LIG 0.16  HD
ENDBRANCH 19 20
ENDBRANCH 18 19
ENDBRANCH 12 18
ENDBRANCH 9 12
ENDBRANCH 6 8
ENDBRANCH 4 6
ENDBRANCH 1 2
BRANCH 1 25
ATOM     25  CB  ASP E   2       4.866  -8.359 -10.453  1.00 34.81 LIG 0.15  C 
BRANCH 25 26
ATOM     26  CG  ASP E   2       4.630  -9.773 -10.934  1.00 36.48 LIG 0.17  C 
ATOM     27 OD1  ASP E   2       3.554 -10.024 -11.519  1.00 36.59 LIG-0.65  OA
ATOM     28 OD2  ASP E   2       5.505 -10.637 -10.705  1.00 38.36 LIG-0.65  OA
ENDBRANCH 25 26
ENDBRANCH 1 25
BRANCH 1 29
ATOM     29  C   ASP E   2       6.387  -7.573 -12.266  1.00 31.85 LIG 0.24  C 
ATOM     30 O    ASP E   2       6.587  -8.508 -13.044  1.00 30.99 LIG-0.27  OA
ATOM     31  N   LEU E   3       7.314  -6.675 -11.923  1.00 29.32 LIG-0.35  N 
ATOM     32 H    LEU E   3       7.169  -6.043 -11.358  1.00 29.32 LIG 0.16  HD
BRANCH 31 33
ATOM     33  CA  LEU E   3       8.676  -6.668 -12.471  1.00 27.73 LIG 0.18  C 
BRANCH 33 34
ATOM     34  CB  LEU E   3       8.655  -6.313 -13.972  1.00 28.26 LIG 0.04  C 
BRANCH 34 35
ATOM     35  CG  LEU E   3       7.702  -5.207 -14.431  1.00 28.58 LIG-0.02  C 
ATOM     36  CD2 LEU E   3       6.508  -5.773 -15.192  1.00 28.56 LIG 0.01  C 
ATOM     37  CD1 LEU E   3       8.444  -4.195 -15.296  1.00 28.86 LIG 0.01  C 
ENDBRANCH 34 35
ENDBRANCH 33 34
BRANCH 33 38
ATOM     38  C   LEU E   3       9.609  -5.711 -11.750  1.00 26.19 LIG 0.24  C 
ATOM     39  N   PHE E   4       9.177  -5.231 -10.587  1.00 24.40 LIG-0.34  N 
ATOM     40 H    PHE E   4       8.457  -5.501 -10.202  1.00 24.40 LIG 0.16  HD
ATOM     41 O    LEU E   3      10.689  -5.407 -12.257  1.00 26.01 LIG-0.27  OA
BRANCH 39 42
ATOM     42  CA  PHE E   4       9.886  -4.196  -9.846  1.00 23.80 LIG 0.19  C 
BRANCH 42 43
ATOM     43  C   PHE E   4      11.020  -4.813  -9.031  1.00 24.08 LIG 0.20  C 
ATOM     44 O    PHE E   4      10.937  -5.944  -8.546  1.00 22.36 LIG-0.65  OA
ATOM     45 OXT  PHE E   4      12.027  -4.150  -8.801  1.00 24.21 LIG-0.65  OA
ENDBRANCH 42 43
BRANCH 42 46
ATOM     46  CB  PHE E   4       8.929  -3.481  -8.883  1.00 23.46 LIG 0.07  C 
BRANCH 46 47
ATOM     47  CG  PHE E   4       7.909  -2.603  -9.577  1.00 22.76 LIG-0.06  A 
ATOM     48  CD1 PHE E   4       6.998  -3.141 -10.472  1.00 22.71 LIG 0.01  A 
ATOM     49  CE1 PHE E   4       6.068  -2.338 -11.112  1.00 22.42 LIG 0.00  A 
ATOM     50  CZ  PHE E   4       6.052  -0.975 -10.867  1.00 22.02 LIG 0.00  A 
ATOM     51  CE2 PHE E   4       6.960  -0.424  -9.982  1.00 22.12 LIG 0.00  A 
ATOM     52  CD2 PHE E   4       7.881  -1.236  -9.344  1.00 22.51 LIG 0.01  A 
ENDBRANCH 46 47
ENDBRANCH 42 46
ENDBRANCH 39 42
ENDBRANCH 33 38
ENDBRANCH 31 33
ENDBRANCH 1 29
TORSDOF 19
ENDMDL
MODEL 18
USER: ADFR SOLUTION from run 87
USER: SCORE 13.241601 LL:  -3.440 LR: -12.284 RR:   0.000 FEB:  -6.616
USER: RMSD 11.673228
USER: SEED 86
USER: STATUS no improvement in best in 5 clusters for 5 generations
USER: GENES 21
USER: genes 0 Translation |==|  0.33179 0.53166 0.67973
USER: genes 1 Rotation |==|  0.40833 0.29479 0.05417 0.52680
USER: genes 2 Torsion [CB]-CA--N-[C] |==|  0.81286
USER: genes 3 Torsion [N]-C--CA-[N] |==|  0.69853
USER: genes 4 Torsion [C]-CA--N-[C] |==|  0.61839
USER: genes 5 Torsion [N]-C--CA-[N] |==|  0.39702
USER: genes 6 Torsion [C]-CA--N-[C] |==|  0.58517
USER: genes 7 Torsion [C]-CA--CB-[CG] |==|  0.49523
USER: genes 8 Torsion [CA]-CB--CG-[CD] |==|  0.55891
USER: genes 9 Torsion [CB]-CG--CD-[OE1] |==|  0.86321
USER: genes 10 Torsion [N]-CA--CB-[CG] |==|  0.71509
USER: genes 11 Torsion [CA]-CB--CG-[OD1] |==|  0.54538
USER: genes 12 Torsion [N]-CA--C-[N] |==|  0.07315
USER: genes 13 Torsion [C]-N--CA-[C] |==|  0.24906
USER: genes 14 Torsion [N]-CA--CB-[CG] |==|  0.35636
USER: genes 15 Torsion [CA]-CB--CG-[CD2] |==|  0.78136
USER: genes 16 Torsion [N]-CA--C-[N] |==|  0.96994
USER: genes 17 Torsion [C]-N--CA-[CB] |==|  0.25342
USER: genes 18 Torsion [N]-CA--C-[O] |==|  0.62821
USER: genes 19 Torsion [N]-CA--CB-[CG] |==|  0.64086
USER: genes 20 Torsion [CA]-CB--CG-[CD2] |==|  0.04006
ROOT
ATOM      1  CA  ASP E   2      -0.526  -4.835  -8.788  1.00 33.44 LIG 0.19  C 
ENDROOT
BRANCH 1 2
ATOM      2  N   ASP E   2       0.343  -5.293  -9.880  1.00 33.24 LIG-0.35  N 
ATOM      3 H    ASP E   2       1.173  -5.092  -9.782  1.00 33.24 LIG 0.16  HD
ATOM      4  C   ALA E   1      -0.143  -5.962 -10.927  1.00 32.93 LIG 0.24  C 
ATOM      5 O    ALA E   1      -1.348  -6.142 -11.105  1.00 31.71 LIG-0.27  OA
BRANCH 4 6
ATOM      6  CA  ALA E   1       0.871  -6.500 -11.933  1.00 33.97 LIG 0.17  C 
ATOM      7  CB  ALA E   1       2.280  -6.438 -11.352  1.00 34.31 LIG 0.04  C 
BRANCH 6 8
ATOM      8  N   ALA E   1       0.801  -5.732 -13.179  1.00 34.07 LIG-0.35  N 
ATOM      9  C   GLN E   0       0.843  -6.300 -14.387  1.00 34.65 LIG 0.24  C 
ATOM     10 O    GLN E   0       0.978  -7.512 -14.569  1.00 33.74 LIG-0.27  OA
ATOM     11 H    ALA E   1       0.730  -4.883 -13.059  1.00 34.07 LIG 0.16  HD
BRANCH 9 12
ATOM     12  CA  GLN E   0       0.675  -5.358 -15.578  1.00 34.37 LIG 0.18  C 
BRANCH 12 13
ATOM     13  N   GLN E   0       1.545  -5.752 -16.750  1.00 34.90 LIG-0.35  N 
ATOM     14  C   ACE E  -1       2.065  -4.872 -17.649  1.00 34.22 LIG 0.21  C 
ATOM     15  CH3 ACE E  -1       2.997  -5.565 -18.634  1.00 34.51 LIG 0.12  C 
ATOM     16 O    ACE E  -1       2.509  -3.832 -17.169  1.00 33.28 LIG-0.27  OA
ATOM     17 H    GLN E   0       1.685  -6.600 -16.797  1.00 34.90 LIG 0.16  HD
ENDBRANCH 12 13
BRANCH 12 18
ATOM     18  CB  GLN E   0      -0.804  -5.343 -15.984  1.00 34.11 LIG 0.04  C 
BRANCH 18 19
ATOM     19  CG  GLN E   0      -1.127  -4.407 -17.143  1.00 32.87 LIG 0.10  C 
BRANCH 19 20
ATOM     20  CD  GLN E   0      -2.593  -4.025 -17.183  1.00 32.43 LIG 0.21  C 
ATOM     21 OE1  GLN E   0      -3.463  -4.888 -17.108  1.00 31.11 LIG-0.27  OA
ATOM     22  NE2 GLN E   0      -2.877  -2.733 -17.317  1.00 32.01 LIG-0.37  N 
ATOM     23 22HE GLN E   0      -3.696  -2.474 -17.353  1.00 32.01 LIG 0.16  HD
ATOM     24 21HE GLN E   0      -2.241  -2.155 -17.365  1.00 32.01 LIG 0.16  HD
ENDBRANCH 19 20
ENDBRANCH 18 19
ENDBRANCH 12 18
ENDBRANCH 9 12
ENDBRANCH 6 8
ENDBRANCH 4 6
ENDBRANCH 1 2
BRANCH 1 25
ATOM     25  CB  ASP E   2      -1.478  -3.747  -9.283  1.00 34.81 LIG 0.15  C 
BRANCH 25 26
ATOM     26  CG  ASP E   2      -1.032  -2.366  -8.857  1.00 36.48 LIG 0.17  C 
ATOM     27 OD1  ASP E   2      -1.862  -1.434  -8.921  1.00 36.59 LIG-0.65  OA
ATOM     28 OD2  ASP E   2       0.152  -2.208  -8.484  1.00 38.36 LIG-0.65  OA
ENDBRANCH 25 26
ENDBRANCH 1 25
BRANCH 1 29
ATOM     29  C   ASP E   2      -1.317  -5.944  -8.116  1.00 31.85 LIG 0.24  C 
ATOM     30 O    ASP E   2      -2.386  -5.707  -7.549  1.00 30.99 LIG-0.27  OA
ATOM     31  N   LEU E   3      -0.761  -7.157  -8.183  1.00 29.32 LIG-0.35  N 
ATOM     32 H    LEU E   3      -0.001  -7.304  -8.559  1.00 29.32 LIG 0.16  HD
BRANCH 31 33
ATOM     33  CA  LEU E   3      -1.383  -8.365  -7.628  1.00 27.73 LIG 0.18  C 
BRANCH 33 34
ATOM     34  CB  LEU E   3      -2.194  -8.024  -6.360  1.00 28.26 LIG 0.04  C 
BRANCH 34 35
ATOM     35  CG  LEU E   3      -3.646  -8.503  -6.290  1.00 28.58 LIG-0.02  C 
ATOM     36  CD2 LEU E   3      -4.574  -7.608  -7.104  1.00 28.56 LIG 0.01  C 
ATOM     37  CD1 LEU E   3      -4.112  -8.565  -4.841  1.00 28.86 LIG 0.01  C 
ENDBRANCH 34 35
ENDBRANCH 33 34
BRANCH 33 38
ATOM     38  C   LEU E   3      -2.289  -9.082  -8.615  1.00 26.19 LIG 0.24  C 
ATOM     39  N   PHE E   4      -2.574  -8.427  -9.737  1.00 24.40 LIG-0.34  N 
ATOM     40 H    PHE E   4      -2.208  -7.679  -9.954  1.00 24.40 LIG 0.16  HD
ATOM     41 O    LEU E   3      -2.727 -10.201  -8.345  1.00 26.01 LIG-0.27  OA
BRANCH 39 42
ATOM     42  CA  PHE E   4      -3.539  -8.914 -10.713  1.00 23.80 LIG 0.19  C 
BRANCH 42 43
ATOM     43  C   PHE E   4      -3.140  -8.468 -12.118  1.00 24.08 LIG 0.20  C 
ATOM     44 O    PHE E   4      -3.956  -7.983 -12.906  1.00 22.36 LIG-0.65  OA
ATOM     45 OXT  PHE E   4      -1.988  -8.642 -12.501  1.00 24.21 LIG-0.65  OA
ENDBRANCH 42 43
BRANCH 42 46
ATOM     46  CB  PHE E   4      -4.934  -8.357 -10.405  1.00 23.46 LIG 0.07  C 
BRANCH 46 47
ATOM     47  CG  PHE E   4      -6.016  -9.415 -10.352  1.00 22.76 LIG-0.06  A 
ATOM     48  CD1 PHE E   4      -7.357  -9.065 -10.360  1.00 22.71 LIG 0.01  A 
ATOM     49  CE1 PHE E   4      -8.347 -10.032 -10.305  1.00 22.42 LIG 0.00  A 
ATOM     50  CZ  PHE E   4      -7.998 -11.370 -10.227  1.00 22.02 LIG 0.00  A 
ATOM     51  CE2 PHE E   4      -6.665 -11.733 -10.210  1.00 22.12 LIG 0.00  A 
ATOM     52  CD2 PHE E   4      -5.683 -10.760 -10.271  1.00 22.51 LIG 0.01  A 
ENDBRANCH 46 47
ENDBRANCH 42 46
ENDBRANCH 39 42
ENDBRANCH 33 38
ENDBRANCH 31 33
ENDBRANCH 1 29
TORSDOF 19
ENDMDL
MODEL 19
USER: ADFR SOLUTION from run 50
USER: SCORE 15.354790 LL:  -4.425 LR: -12.252 RR:   0.000 FEB:  -6.585
USER: RMSD 9.213850
USER: SEED 49
USER: STATUS no improvement in best in 7 clusters for 5 generations
USER: GENES 21
USER: genes 0 Translation |==|  0.32722 0.54023 0.61539
USER: genes 1 Rotation |==|  0.07169 0.39924 0.57443 0.72553
USER: genes 2 Torsion [CB]-CA--N-[C] |==|  0.78333
USER: genes 3 Torsion [N]-C--CA-[N] |==|  0.12742
USER: genes 4 Torsion [C]-CA--N-[C] |==|  0.67552
USER: genes 5 Torsion [N]-C--CA-[N] |==|  0.46068
USER: genes 6 Torsion [C]-CA--N-[C] |==|  0.55944
USER: genes 7 Torsion [C]-CA--CB-[CG] |==|  0.21391
USER: genes 8 Torsion [CA]-CB--CG-[CD] |==|  0.46335
USER: genes 9 Torsion [CB]-CG--CD-[OE1] |==|  0.80863
USER: genes 10 Torsion [N]-CA--CB-[CG] |==|  0.76068
USER: genes 11 Torsion [CA]-CB--CG-[OD1] |==|  0.96232
USER: genes 12 Torsion [N]-CA--C-[N] |==|  0.19324
USER: genes 13 Torsion [C]-N--CA-[C] |==|  0.60619
USER: genes 14 Torsion [N]-CA--CB-[CG] |==|  0.09224
USER: genes 15 Torsion [CA]-CB--CG-[CD2] |==|  0.60192
USER: genes 16 Torsion [N]-CA--C-[N] |==|  0.10622
USER: genes 17 Torsion [C]-N--CA-[CB] |==|  0.49103
USER: genes 18 Torsion [N]-CA--C-[O] |==|  0.43509
USER: genes 19 Torsion [N]-CA--CB-[CG] |==|  0.62086
USER: genes 20 Torsion [CA]-CB--CG-[CD2] |==|  0.94529
ROOT
ATOM      1  CA  ASP E   2      -0.643  -4.693  -9.753  1.00 33.44 LIG 0.19  C 
ENDROOT
BRANCH 1 2
ATOM      2  N   ASP E   2      -1.452  -5.685  -9.033  1.00 33.24 LIG-0.35  N 
ATOM      3 H    ASP E   2      -2.286  -5.687  -9.245  1.00 33.24 LIG 0.16  HD
ATOM      4  C   ALA E   1      -0.913  -6.504  -8.127  1.00 32.93 LIG 0.24  C 
ATOM      5 O    ALA E   1       0.257  -6.411  -7.756  1.00 31.71 LIG-0.27  OA
BRANCH 4 6
ATOM      6  CA  ALA E   1      -1.823  -7.578  -7.540  1.00 33.97 LIG 0.17  C 
ATOM      7  CB  ALA E   1      -1.003  -8.603  -6.763  1.00 34.31 LIG 0.04  C 
BRANCH 6 8
ATOM      8  N   ALA E   1      -2.580  -8.237  -8.608  1.00 34.07 LIG-0.35  N 
ATOM      9  C   GLN E   0      -3.912  -8.185  -8.695  1.00 34.65 LIG 0.24  C 
ATOM     10 O    GLN E   0      -4.630  -7.612  -7.872  1.00 33.74 LIG-0.27  OA
ATOM     11 H    ALA E   1      -2.087  -8.659  -9.173  1.00 34.07 LIG 0.16  HD
BRANCH 9 12
ATOM     12  CA  GLN E   0      -4.532  -8.859  -9.918  1.00 34.37 LIG 0.18  C 
BRANCH 12 13
ATOM     13  N   GLN E   0      -6.024  -9.055  -9.772  1.00 34.90 LIG-0.35  N 
ATOM     14  C   ACE E  -1      -6.750  -9.966 -10.476  1.00 34.22 LIG 0.21  C 
ATOM     15  CH3 ACE E  -1      -8.200 -10.004 -10.012  1.00 34.51 LIG 0.12  C 
ATOM     16 O    ACE E  -1      -6.225 -11.069 -10.605  1.00 33.28 LIG-0.27  OA
ATOM     17 H    GLN E   0      -6.378  -8.528  -9.191  1.00 34.90 LIG 0.16  HD
ENDBRANCH 12 13
BRANCH 12 18
ATOM     18  CB  GLN E   0      -4.217  -8.009 -11.156  1.00 34.11 LIG 0.04  C 
BRANCH 18 19
ATOM     19  CG  GLN E   0      -2.791  -8.161 -11.674  1.00 32.87 LIG 0.10  C 
BRANCH 19 20
ATOM     20  CD  GLN E   0      -2.615  -7.568 -13.058  1.00 32.43 LIG 0.21  C 
ATOM     21 OE1  GLN E   0      -3.150  -8.092 -14.032  1.00 31.11 LIG-0.27  OA
ATOM     22  NE2 GLN E   0      -1.855  -6.482 -13.157  1.00 32.01 LIG-0.37  N 
ATOM     23 22HE GLN E   0      -1.721  -6.119 -13.925  1.00 32.01 LIG 0.16  HD
ATOM     24 21HE GLN E   0      -1.497  -6.142 -12.452  1.00 32.01 LIG 0.16  HD
ENDBRANCH 19 20
ENDBRANCH 18 19
ENDBRANCH 12 18
ENDBRANCH 9 12
ENDBRANCH 6 8
ENDBRANCH 4 6
ENDBRANCH 1 2
BRANCH 1 25
ATOM     25  CB  ASP E   2      -0.365  -3.483  -8.863  1.00 34.81 LIG 0.15  C 
BRANCH 25 26
ATOM     26  CG  ASP E   2      -1.479  -2.461  -8.932  1.00 36.48 LIG 0.17  C 
ATOM     27 OD1  ASP E   2      -2.321  -2.570  -9.848  1.00 36.59 LIG-0.65  OA
ATOM     28 OD2  ASP E   2      -1.496  -1.537  -8.089  1.00 38.36 LIG-0.65  OA
ENDBRANCH 25 26
ENDBRANCH 1 25
BRANCH 1 29
ATOM     29  C   ASP E   2       0.663  -5.239 -10.305  1.00 31.85 LIG 0.24  C 
ATOM     30 O    ASP E   2       1.747  -4.886  -9.832  1.00 30.99 LIG-0.27  OA
ATOM     31  N   LEU E   3       0.536  -6.098 -11.319  1.00 29.32 LIG-0.35  N 
ATOM     32 H    LEU E   3      -0.225  -6.316 -11.656  1.00 29.32 LIG 0.16  HD
BRANCH 31 33
ATOM     33  CA  LEU E   3       1.674  -6.763 -11.965  1.00 27.73 LIG 0.18  C 
BRANCH 33 34
ATOM     34  CB  LEU E   3       1.902  -8.162 -11.356  1.00 28.26 LIG 0.04  C 
BRANCH 34 35
ATOM     35  CG  LEU E   3       0.675  -8.942 -10.877  1.00 28.58 LIG-0.02  C 
ATOM     36  CD2 LEU E   3       0.973  -9.741  -9.613  1.00 28.56 LIG 0.01  C 
ATOM     37  CD1 LEU E   3       0.175  -9.868 -11.978  1.00 28.86 LIG 0.01  C 
ENDBRANCH 34 35
ENDBRANCH 33 34
BRANCH 33 38
ATOM     38  C   LEU E   3       1.514  -6.900 -13.469  1.00 26.19 LIG 0.24  C 
ATOM     39  N   PHE E   4       0.948  -5.873 -14.098  1.00 24.40 LIG-0.34  N 
ATOM     40 H    PHE E   4       0.758  -5.129 -13.711  1.00 24.40 LIG 0.16  HD
ATOM     41 O    LEU E   3       1.886  -7.928 -14.035  1.00 26.01 LIG-0.27  OA
BRANCH 39 42
ATOM     42  CA  PHE E   4       0.594  -5.909 -15.511  1.00 23.80 LIG 0.19  C 
BRANCH 42 43
ATOM     43  C   PHE E   4       1.850  -6.063 -16.366  1.00 24.08 LIG 0.20  C 
ATOM     44 O    PHE E   4       1.811  -6.530 -17.506  1.00 22.36 LIG-0.65  OA
ATOM     45 OXT  PHE E   4       2.942  -5.763 -15.892  1.00 24.21 LIG-0.65  OA
ENDBRANCH 42 43
BRANCH 42 46
ATOM     46  CB  PHE E   4      -0.111  -4.607 -15.915  1.00 23.46 LIG 0.07  C 
BRANCH 46 47
ATOM     47  CG  PHE E   4      -1.324  -4.820 -16.796  1.00 22.76 LIG-0.06  A 
ATOM     48  CD1 PHE E   4      -2.304  -3.846 -16.904  1.00 22.71 LIG 0.01  A 
ATOM     49  CE1 PHE E   4      -3.418  -4.041 -17.705  1.00 22.42 LIG 0.00  A 
ATOM     50  CZ  PHE E   4      -3.564  -5.230 -18.401  1.00 22.02 LIG 0.00  A 
ATOM     51  CE2 PHE E   4      -2.598  -6.212 -18.297  1.00 22.12 LIG 0.00  A 
ATOM     52  CD2 PHE E   4      -1.487  -6.005 -17.498  1.00 22.51 LIG 0.01  A 
ENDBRANCH 46 47
ENDBRANCH 42 46
ENDBRANCH 39 42
ENDBRANCH 33 38
ENDBRANCH 31 33
ENDBRANCH 1 29
TORSDOF 19
ENDMDL
MODEL 20
USER: ADFR SOLUTION from run 185
USER: SCORE 13.896879 LL:  -3.222 LR: -12.246 RR:   0.000 FEB:  -6.579
USER: RMSD 3.563214
USER: SEED 184
USER: STATUS no improvement in best in 7 clusters for 5 generations
USER: GENES 21
USER: genes 0 Translation |==|  0.61554 0.39068 0.36280
USER: genes 1 Rotation |==|  0.86036 0.78577 0.45837 0.69168
USER: genes 2 Torsion [CB]-CA--N-[C] |==|  0.85000
USER: genes 3 Torsion [N]-C--CA-[N] |==|  0.53193
USER: genes 4 Torsion [C]-CA--N-[C] |==|  0.15786
USER: genes 5 Torsion [N]-C--CA-[N] |==|  0.63248
USER: genes 6 Torsion [C]-CA--N-[C] |==|  0.16540
USER: genes 7 Torsion [C]-CA--CB-[CG] |==|  0.40037
USER: genes 8 Torsion [CA]-CB--CG-[CD] |==|  0.22913
USER: genes 9 Torsion [CB]-CG--CD-[OE1] |==|  0.57954
USER: genes 10 Torsion [N]-CA--CB-[CG] |==|  0.55777
USER: genes 11 Torsion [CA]-CB--CG-[OD1] |==|  0.18252
USER: genes 12 Torsion [N]-CA--C-[N] |==|  0.91821
USER: genes 13 Torsion [C]-N--CA-[C] |==|  0.82698
USER: genes 14 Torsion [N]-CA--CB-[CG] |==|  0.53904
USER: genes 15 Torsion [CA]-CB--CG-[CD2] |==|  0.72162
USER: genes 16 Torsion [N]-CA--C-[N] |==|  0.88909
USER: genes 17 Torsion [C]-N--CA-[CB] |==|  0.82490
USER: genes 18 Torsion [N]-CA--C-[O] |==|  0.24386
USER: genes 19 Torsion [N]-CA--CB-[CG] |==|  0.52411
USER: genes 20 Torsion [CA]-CB--CG-[CD2] |==|  0.53877
ROOT
ATOM      1  CA  ASP E   2       6.709  -7.161 -13.542  1.00 33.44 LIG 0.19  C 
ENDROOT
BRANCH 1 2
ATOM      2  N   ASP E   2       5.826  -7.601 -12.454  1.00 33.24 LIG-0.35  N 
ATOM      3 H    ASP E   2       5.980  -8.398 -12.171  1.00 33.24 LIG 0.16  HD
ATOM      4  C   ALA E   1       4.871  -6.809 -11.964  1.00 32.93 LIG 0.24  C 
ATOM      5 O    ALA E   1       4.592  -5.716 -12.456  1.00 31.71 LIG-0.27  OA
BRANCH 4 6
ATOM      6  CA  ALA E   1       4.103  -7.323 -10.750  1.00 33.97 LIG 0.17  C 
ATOM      7  CB  ALA E   1       3.683  -8.774 -10.962  1.00 34.31 LIG 0.04  C 
BRANCH 6 8
ATOM      8  N   ALA E   1       2.928  -6.484 -10.503  1.00 34.07 LIG-0.35  N 
ATOM      9  C   GLN E   0       1.980  -6.271 -11.420  1.00 34.65 LIG 0.24  C 
ATOM     10 O    GLN E   0       2.020  -6.729 -12.565  1.00 33.74 LIG-0.27  OA
ATOM     11 H    ALA E   1       2.906  -6.142  -9.714  1.00 34.07 LIG 0.16  HD
BRANCH 9 12
ATOM     12  CA  GLN E   0       0.783  -5.436 -10.968  1.00 34.37 LIG 0.18  C 
BRANCH 12 13
ATOM     13  N   GLN E   0      -0.536  -6.067 -11.351  1.00 34.90 LIG-0.35  N 
ATOM     14  C   ACE E  -1      -0.942  -7.302 -10.944  1.00 34.22 LIG 0.21  C 
ATOM     15  CH3 ACE E  -1      -2.365  -7.598 -11.395  1.00 34.51 LIG 0.12  C 
ATOM     16 O    ACE E  -1      -0.712  -7.568  -9.767  1.00 33.28 LIG-0.27  OA
ATOM     17 H    GLN E   0      -1.015  -5.566 -11.859  1.00 34.90 LIG 0.16  HD
ENDBRANCH 12 13
BRANCH 12 18
ATOM     18  CB  GLN E   0       0.869  -5.242  -9.448  1.00 34.11 LIG 0.04  C 
BRANCH 18 19
ATOM     19  CG  GLN E   0       0.385  -3.881  -8.961  1.00 32.87 LIG 0.10  C 
BRANCH 19 20
ATOM     20  CD  GLN E   0      -1.122  -3.825  -8.813  1.00 32.43 LIG 0.21  C 
ATOM     21 OE1  GLN E   0      -1.721  -2.762  -8.949  1.00 31.11 LIG-0.27  OA
ATOM     22  NE2 GLN E   0      -1.742  -4.964  -8.519  1.00 32.01 LIG-0.37  N 
ATOM     23 22HE GLN E   0      -2.595  -4.975  -8.416  1.00 32.01 LIG 0.16  HD
ATOM     24 21HE GLN E   0      -1.289  -5.690  -8.431  1.00 32.01 LIG 0.16  HD
ENDBRANCH 19 20
ENDBRANCH 18 19
ENDBRANCH 12 18
ENDBRANCH 9 12
ENDBRANCH 6 8
ENDBRANCH 4 6
ENDBRANCH 1 2
BRANCH 1 25
ATOM     25  CB  ASP E   2       5.886  -6.680 -14.736  1.00 34.81 LIG 0.15  C 
BRANCH 25 26
ATOM     26  CG  ASP E   2       6.686  -6.698 -16.020  1.00 36.48 LIG 0.17  C 
ATOM     27 OD1  ASP E   2       7.058  -7.804 -16.466  1.00 36.59 LIG-0.65  OA
ATOM     28 OD2  ASP E   2       6.965  -5.607 -16.566  1.00 38.36 LIG-0.65  OA
ENDBRANCH 25 26
ENDBRANCH 1 25
BRANCH 1 29
ATOM     29  C   ASP E   2       7.707  -6.089 -13.138  1.00 31.85 LIG 0.24  C 
ATOM     30 O    ASP E   2       8.805  -6.004 -13.692  1.00 30.99 LIG-0.27  OA
ATOM     31  N   LEU E   3       7.303  -5.280 -12.154  1.00 29.32 LIG-0.35  N 
ATOM     32 H    LEU E   3       6.544  -5.367 -11.758  1.00 29.32 LIG 0.16  HD
BRANCH 31 33
ATOM     33  CA  LEU E   3       8.105  -4.161 -11.645  1.00 27.73 LIG 0.18  C 
BRANCH 33 34
ATOM     34  CB  LEU E   3       7.307  -3.353 -10.601  1.00 28.26 LIG 0.04  C 
BRANCH 34 35
ATOM     35  CG  LEU E   3       7.842  -1.975 -10.203  1.00 28.58 LIG-0.02  C 
ATOM     36  CD2 LEU E   3       8.592  -2.023  -8.876  1.00 28.56 LIG 0.01  C 
ATOM     37  CD1 LEU E   3       6.700  -0.969 -10.125  1.00 28.86 LIG 0.01  C 
ENDBRANCH 34 35
ENDBRANCH 33 34
BRANCH 33 38
ATOM     38  C   LEU E   3       9.423  -4.598 -11.029  1.00 26.19 LIG 0.24  C 
ATOM     39  N   PHE E   4       9.392  -5.706 -10.294  1.00 24.40 LIG-0.34  N 
ATOM     40 H    PHE E   4       8.699  -6.211 -10.230  1.00 24.40 LIG 0.16  HD
ATOM     41 O    LEU E   3      10.438  -3.925 -11.211  1.00 26.01 LIG-0.27  OA
BRANCH 39 42
ATOM     42  CA  PHE E   4      10.535  -6.175  -9.522  1.00 23.80 LIG 0.19  C 
BRANCH 42 43
ATOM     43  C   PHE E   4      10.995  -5.092  -8.549  1.00 24.08 LIG 0.20  C 
ATOM     44 O    PHE E   4      10.515  -4.982  -7.418  1.00 22.36 LIG-0.65  OA
ATOM     45 OXT  PHE E   4      11.828  -4.268  -8.914  1.00 24.21 LIG-0.65  OA
ENDBRANCH 42 43
BRANCH 42 46
ATOM     46  CB  PHE E   4      11.703  -6.515 -10.456  1.00 23.46 LIG 0.07  C 
BRANCH 46 47
ATOM     47  CG  PHE E   4      12.858  -7.204  -9.760  1.00 22.76 LIG-0.06  A 
ATOM     48  CD1 PHE E   4      12.716  -7.716  -8.480  1.00 22.71 LIG 0.01  A 
ATOM     49  CE1 PHE E   4      13.774  -8.342  -7.841  1.00 22.42 LIG 0.00  A 
ATOM     50  CZ  PHE E   4      14.998  -8.449  -8.480  1.00 22.02 LIG 0.00  A 
ATOM     51  CE2 PHE E   4      15.156  -7.936  -9.754  1.00 22.12 LIG 0.00  A 
ATOM     52  CD2 PHE E   4      14.092  -7.318 -10.386  1.00 22.51 LIG 0.01  A 
ENDBRANCH 46 47
ENDBRANCH 42 46
ENDBRANCH 39 42
ENDBRANCH 33 38
ENDBRANCH 31 33
ENDBRANCH 1 29
TORSDOF 19
ENDMDL
MODEL 21
USER: ADFR SOLUTION from run 45
USER: SCORE 13.923520 LL:  -4.059 LR: -12.189 RR:   0.000 FEB:  -6.522
USER: RMSD 4.403640
USER: SEED 44
USER: STATUS no improvement in best in 9 clusters for 5 generations
USER: GENES 21
USER: genes 0 Translation |==|  0.61840 0.61888 0.49361
USER: genes 1 Rotation |==|  0.11949 0.30587 0.47443 0.75859
USER: genes 2 Torsion [CB]-CA--N-[C] |==|  0.49182
USER: genes 3 Torsion [N]-C--CA-[N] |==|  0.13603
USER: genes 4 Torsion [C]-CA--N-[C] |==|  0.69920
USER: genes 5 Torsion [N]-C--CA-[N] |==|  0.10556
USER: genes 6 Torsion [C]-CA--N-[C] |==|  0.13601
USER: genes 7 Torsion [C]-CA--CB-[CG] |==|  0.28926
USER: genes 8 Torsion [CA]-CB--CG-[CD] |==|  0.11982
USER: genes 9 Torsion [CB]-CG--CD-[OE1] |==|  0.24421
USER: genes 10 Torsion [N]-CA--CB-[CG] |==|  0.59838
USER: genes 11 Torsion [CA]-CB--CG-[OD1] |==|  0.66477
USER: genes 12 Torsion [N]-CA--C-[N] |==|  0.88322
USER: genes 13 Torsion [C]-N--CA-[C] |==|  0.65852
USER: genes 14 Torsion [N]-CA--CB-[CG] |==|  0.76296
USER: genes 15 Torsion [CA]-CB--CG-[CD2] |==|  0.14586
USER: genes 16 Torsion [N]-CA--C-[N] |==|  0.52560
USER: genes 17 Torsion [C]-N--CA-[CB] |==|  0.34774
USER: genes 18 Torsion [N]-CA--C-[O] |==|  0.91817
USER: genes 19 Torsion [N]-CA--CB-[CG] |==|  0.96615
USER: genes 20 Torsion [CA]-CB--CG-[CD2] |==|  0.33137
ROOT
ATOM      1  CA  ASP E   2       6.782  -3.395 -11.580  1.00 33.44 LIG 0.19  C 
ENDROOT
BRANCH 1 2
ATOM      2  N   ASP E   2       5.999  -4.637 -11.632  1.00 33.24 LIG-0.35  N 
ATOM      3 H    ASP E   2       5.466  -4.750 -10.966  1.00 33.24 LIG 0.16  HD
ATOM      4  C   ALA E   1       6.123  -5.501 -12.640  1.00 32.93 LIG 0.24  C 
ATOM      5 O    ALA E   1       6.970  -5.378 -13.525  1.00 31.71 LIG-0.27  OA
BRANCH 4 6
ATOM      6  CA  ALA E   1       5.165  -6.689 -12.653  1.00 33.97 LIG 0.17  C 
ATOM      7  CB  ALA E   1       5.282  -7.452 -13.968  1.00 34.31 LIG 0.04  C 
BRANCH 6 8
ATOM      8  N   ALA E   1       3.788  -6.228 -12.453  1.00 34.07 LIG-0.35  N 
ATOM      9  C   GLN E   0       3.107  -6.436 -11.323  1.00 34.65 LIG 0.24  C 
ATOM     10 O    GLN E   0       3.556  -7.062 -10.359  1.00 33.74 LIG-0.27  OA
ATOM     11 H    ALA E   1       3.460  -5.812 -13.131  1.00 34.07 LIG 0.16  HD
BRANCH 9 12
ATOM     12  CA  GLN E   0       1.712  -5.817 -11.255  1.00 34.37 LIG 0.18  C 
BRANCH 12 13
ATOM     13  N   GLN E   0       0.985  -5.892 -12.578  1.00 34.90 LIG-0.35  N 
ATOM     14  C   ACE E  -1       0.875  -7.022 -13.330  1.00 34.22 LIG 0.21  C 
ATOM     15  CH3 ACE E  -1      -0.021  -6.803 -14.541  1.00 34.51 LIG 0.12  C 
ATOM     16 O    ACE E  -1       0.641  -8.051 -12.700  1.00 33.28 LIG-0.27  OA
ATOM     17 H    GLN E   0       0.640  -5.141 -12.817  1.00 34.90 LIG 0.16  HD
ENDBRANCH 12 13
BRANCH 12 18
ATOM     18  CB  GLN E   0       0.914  -6.531 -10.157  1.00 34.11 LIG 0.04  C 
BRANCH 18 19
ATOM     19  CG  GLN E   0       0.762  -5.729  -8.870  1.00 32.87 LIG 0.10  C 
BRANCH 19 20
ATOM     20  CD  GLN E   0       0.434  -4.274  -9.133  1.00 32.43 LIG 0.21  C 
ATOM     21 OE1  GLN E   0      -0.733  -3.912  -9.258  1.00 31.11 LIG-0.27  OA
ATOM     22  NE2 GLN E   0       1.458  -3.432  -9.234  1.00 32.01 LIG-0.37  N 
ATOM     23 22HE GLN E   0       1.316  -2.599  -9.392  1.00 32.01 LIG 0.16  HD
ATOM     24 21HE GLN E   0       2.263  -3.721  -9.140  1.00 32.01 LIG 0.16  HD
ENDBRANCH 19 20
ENDBRANCH 18 19
ENDBRANCH 12 18
ENDBRANCH 9 12
ENDBRANCH 6 8
ENDBRANCH 4 6
ENDBRANCH 1 2
BRANCH 1 25
ATOM     25  CB  ASP E   2       6.388  -2.565 -10.360  1.00 34.81 LIG 0.15  C 
BRANCH 25 26
ATOM     26  CG  ASP E   2       6.433  -1.081 -10.645  1.00 36.48 LIG 0.17  C 
ATOM     27 OD1  ASP E   2       7.194  -0.372  -9.952  1.00 36.59 LIG-0.65  OA
ATOM     28 OD2  ASP E   2       5.690  -0.620 -11.540  1.00 38.36 LIG-0.65  OA
ENDBRANCH 25 26
ENDBRANCH 1 25
BRANCH 1 29
ATOM     29  C   ASP E   2       8.286  -3.609 -11.594  1.00 31.85 LIG 0.24  C 
ATOM     30 O    ASP E   2       9.021  -2.895 -12.281  1.00 30.99 LIG-0.27  OA
ATOM     31  N   LEU E   3       8.724  -4.612 -10.829  1.00 29.32 LIG-0.35  N 
ATOM     32 H    LEU E   3       8.197  -5.120 -10.375  1.00 29.32 LIG 0.16  HD
BRANCH 31 33
ATOM     33  CA  LEU E   3      10.143  -4.957 -10.679  1.00 27.73 LIG 0.18  C 
BRANCH 33 34
ATOM     34  CB  LEU E   3      10.611  -4.709  -9.230  1.00 28.26 LIG 0.04  C 
BRANCH 34 35
ATOM     35  CG  LEU E   3      11.068  -3.296  -8.859  1.00 28.58 LIG-0.02  C 
ATOM     36  CD2 LEU E   3      10.023  -2.249  -9.233  1.00 28.56 LIG 0.01  C 
ATOM     37  CD1 LEU E   3      12.396  -2.976  -9.534  1.00 28.86 LIG 0.01  C 
ENDBRANCH 34 35
ENDBRANCH 33 34
BRANCH 33 38
ATOM     38  C   LEU E   3      10.455  -6.394 -11.059  1.00 26.19 LIG 0.24  C 
ATOM     39  N   PHE E   4      11.679  -6.828 -10.768  1.00 24.40 LIG-0.34  N 
ATOM     40 H    PHE E   4      12.246  -6.371 -10.312  1.00 24.40 LIG 0.16  HD
ATOM     41 O    LEU E   3       9.600  -7.080 -11.620  1.00 26.01 LIG-0.27  OA
BRANCH 39 42
ATOM     42  CA  PHE E   4      12.179  -8.128 -11.196  1.00 23.80 LIG 0.19  C 
BRANCH 42 43
ATOM     43  C   PHE E   4      12.443  -9.018  -9.984  1.00 24.08 LIG 0.20  C 
ATOM     44 O    PHE E   4      12.763  -8.552  -8.888  1.00 22.36 LIG-0.65  OA
ATOM     45 OXT  PHE E   4      12.388 -10.237 -10.108  1.00 24.21 LIG-0.65  OA
ENDBRANCH 42 43
BRANCH 42 46
ATOM     46  CB  PHE E   4      13.492  -7.963 -11.971  1.00 23.46 LIG 0.07  C 
BRANCH 46 47
ATOM     47  CG  PHE E   4      13.796  -6.531 -12.357  1.00 22.76 LIG-0.06  A 
ATOM     48  CD1 PHE E   4      12.947  -5.823 -13.193  1.00 22.71 LIG 0.01  A 
ATOM     49  CE1 PHE E   4      13.227  -4.514 -13.552  1.00 22.42 LIG 0.00  A 
ATOM     50  CZ  PHE E   4      14.378  -3.903 -13.082  1.00 22.02 LIG 0.00  A 
ATOM     51  CE2 PHE E   4      15.238  -4.600 -12.254  1.00 22.12 LIG 0.00  A 
ATOM     52  CD2 PHE E   4      14.946  -5.905 -11.897  1.00 22.51 LIG 0.01  A 
ENDBRANCH 46 47
ENDBRANCH 42 46
ENDBRANCH 39 42
ENDBRANCH 33 38
ENDBRANCH 31 33
ENDBRANCH 1 29
TORSDOF 19
ENDMDL
MODEL 22
USER: ADFR SOLUTION from run 189
USER: SCORE 15.126093 LL:  -3.502 LR: -12.182 RR:   0.000 FEB:  -6.514
USER: RMSD 10.364189
USER: SEED 188
USER: STATUS no improvement in best in 8 clusters for 5 generations
USER: GENES 21
USER: genes 0 Translation |==|  0.51708 0.41233 0.44603
USER: genes 1 Rotation |==|  0.40494 0.93897 0.71664 0.53654
USER: genes 2 Torsion [CB]-CA--N-[C] |==|  0.84777
USER: genes 3 Torsion [N]-C--CA-[N] |==|  0.94841
USER: genes 4 Torsion [C]-CA--N-[C] |==|  0.77778
USER: genes 5 Torsion [N]-C--CA-[N] |==|  0.92498
USER: genes 6 Torsion [C]-CA--N-[C] |==|  0.64459
USER: genes 7 Torsion [C]-CA--CB-[CG] |==|  0.60209
USER: genes 8 Torsion [CA]-CB--CG-[CD] |==|  0.24154
USER: genes 9 Torsion [CB]-CG--CD-[OE1] |==|  0.14805
USER: genes 10 Torsion [N]-CA--CB-[CG] |==|  0.59351
USER: genes 11 Torsion [CA]-CB--CG-[OD1] |==|  0.29808
USER: genes 12 Torsion [N]-CA--C-[N] |==|  0.37753
USER: genes 13 Torsion [C]-N--CA-[C] |==|  0.70607
USER: genes 14 Torsion [N]-CA--CB-[CG] |==|  0.55926
USER: genes 15 Torsion [CA]-CB--CG-[CD2] |==|  0.03452
USER: genes 16 Torsion [N]-CA--C-[N] |==|  0.04683
USER: genes 17 Torsion [C]-N--CA-[CB] |==|  0.45746
USER: genes 18 Torsion [N]-CA--C-[O] |==|  0.89792
USER: genes 19 Torsion [N]-CA--CB-[CG] |==|  0.69034
USER: genes 20 Torsion [CA]-CB--CG-[CD2] |==|  0.32540
ROOT
ATOM      1  CA  ASP E   2       4.199  -6.804 -12.294  1.00 33.44 LIG 0.19  C 
ENDROOT
BRANCH 1 2
ATOM      2  N   ASP E   2       5.464  -7.205 -11.664  1.00 33.24 LIG-0.35  N 
ATOM      3 H    ASP E   2       5.986  -6.551 -11.466  1.00 33.24 LIG 0.16  HD
ATOM      4  C   ALA E   1       5.753  -8.486 -11.431  1.00 32.93 LIG 0.24  C 
ATOM      5 O    ALA E   1       5.045  -9.413 -11.823  1.00 31.71 LIG-0.27  OA
BRANCH 4 6
ATOM      6  CA  ALA E   1       7.036  -8.774 -10.656  1.00 33.97 LIG 0.17  C 
ATOM      7  CB  ALA E   1       6.712  -9.144  -9.212  1.00 34.31 LIG 0.04  C 
BRANCH 6 8
ATOM      8  N   ALA E   1       7.921  -7.606 -10.695  1.00 34.07 LIG-0.35  N 
ATOM      9  C   GLN E   0       8.699  -7.318 -11.741  1.00 34.65 LIG 0.24  C 
ATOM     10 O    GLN E   0       8.773  -8.019 -12.754  1.00 33.74 LIG-0.27  OA
ATOM     11 H    ALA E   1       7.892  -7.125  -9.982  1.00 34.07 LIG 0.16  HD
BRANCH 9 12
ATOM     12  CA  GLN E   0       9.498  -6.018 -11.647  1.00 34.37 LIG 0.18  C 
BRANCH 12 13
ATOM     13  N   GLN E   0       8.828  -4.996 -10.758  1.00 34.90 LIG-0.35  N 
ATOM     14  C   ACE E  -1       8.565  -3.712 -11.129  1.00 34.22 LIG 0.21  C 
ATOM     15  CH3 ACE E  -1       7.774  -2.972 -10.059  1.00 34.51 LIG 0.12  C 
ATOM     16 O    ACE E  -1       8.135  -3.573 -12.271  1.00 33.28 LIG-0.27  OA
ATOM     17 H    GLN E   0       8.624  -5.305  -9.982  1.00 34.90 LIG 0.16  HD
ENDBRANCH 12 13
BRANCH 12 18
ATOM     18  CB  GLN E   0      10.904  -6.346 -11.130  1.00 34.11 LIG 0.04  C 
BRANCH 18 19
ATOM     19  CG  GLN E   0      11.487  -5.297 -10.191  1.00 32.87 LIG 0.10  C 
BRANCH 19 20
ATOM     20  CD  GLN E   0      11.087  -5.530  -8.748  1.00 32.43 LIG 0.21  C 
ATOM     21 OE1  GLN E   0      11.281  -6.620  -8.217  1.00 31.11 LIG-0.27  OA
ATOM     22  NE2 GLN E   0      10.513  -4.514  -8.109  1.00 32.01 LIG-0.37  N 
ATOM     23 22HE GLN E   0      10.263  -4.607  -7.292  1.00 32.01 LIG 0.16  HD
ATOM     24 21HE GLN E   0      10.394  -3.764  -8.513  1.00 32.01 LIG 0.16  HD
ENDBRANCH 19 20
ENDBRANCH 18 19
ENDBRANCH 12 18
ENDBRANCH 9 12
ENDBRANCH 6 8
ENDBRANCH 4 6
ENDBRANCH 1 2
BRANCH 1 25
ATOM     25  CB  ASP E   2       4.011  -7.528 -13.625  1.00 34.81 LIG 0.15  C 
BRANCH 25 26
ATOM     26  CG  ASP E   2       3.289  -6.671 -14.641  1.00 36.48 LIG 0.17  C 
ATOM     27 OD1  ASP E   2       3.950  -6.201 -15.591  1.00 36.59 LIG-0.65  OA
ATOM     28 OD2  ASP E   2       2.069  -6.445 -14.474  1.00 38.36 LIG-0.65  OA
ENDBRANCH 25 26
ENDBRANCH 1 25
BRANCH 1 29
ATOM     29  C   ASP E   2       2.975  -7.011 -11.417  1.00 31.85 LIG 0.24  C 
ATOM     30 O    ASP E   2       2.824  -8.054 -10.777  1.00 30.99 LIG-0.27  OA
ATOM     31  N   LEU E   3       2.104  -5.999 -11.411  1.00 29.32 LIG-0.35  N 
ATOM     32 H    LEU E   3       2.209  -5.287 -11.883  1.00 29.32 LIG 0.16  HD
BRANCH 31 33
ATOM     33  CA  LEU E   3       0.879  -5.989 -10.602  1.00 27.73 LIG 0.18  C 
BRANCH 33 34
ATOM     34  CB  LEU E   3       0.747  -4.659  -9.832  1.00 28.26 LIG 0.04  C 
BRANCH 34 35
ATOM     35  CG  LEU E   3      -0.149  -4.637  -8.592  1.00 28.58 LIG-0.02  C 
ATOM     36  CD2 LEU E   3      -0.534  -6.045  -8.151  1.00 28.56 LIG 0.01  C 
ATOM     37  CD1 LEU E   3      -1.400  -3.810  -8.859  1.00 28.86 LIG 0.01  C 
ENDBRANCH 34 35
ENDBRANCH 33 34
BRANCH 33 38
ATOM     38  C   LEU E   3      -0.382  -6.214 -11.419  1.00 26.19 LIG 0.24  C 
ATOM     39  N   PHE E   4      -0.213  -6.723 -12.636  1.00 24.40 LIG-0.34  N 
ATOM     40 H    PHE E   4       0.546  -7.000 -12.931  1.00 24.40 LIG 0.16  HD
ATOM     41 O    LEU E   3      -1.479  -5.912 -10.949  1.00 26.01 LIG-0.27  OA
BRANCH 39 42
ATOM     42  CA  PHE E   4      -1.302  -6.862 -13.593  1.00 23.80 LIG 0.19  C 
BRANCH 42 43
ATOM     43  C   PHE E   4      -2.194  -8.041 -13.211  1.00 24.08 LIG 0.20  C 
ATOM     44 O    PHE E   4      -1.734  -9.080 -12.732  1.00 22.36 LIG-0.65  OA
ATOM     45 OXT  PHE E   4      -3.399  -7.982 -13.433  1.00 24.21 LIG-0.65  OA
ENDBRANCH 42 43
BRANCH 42 46
ATOM     46  CB  PHE E   4      -0.745  -7.112 -15.000  1.00 23.46 LIG 0.07  C 
BRANCH 46 47
ATOM     47  CG  PHE E   4      -0.969  -5.961 -15.958  1.00 22.76 LIG-0.06  A 
ATOM     48  CD1 PHE E   4      -2.250  -5.578 -16.324  1.00 22.71 LIG 0.01  A 
ATOM     49  CE1 PHE E   4      -2.457  -4.529 -17.205  1.00 22.42 LIG 0.00  A 
ATOM     50  CZ  PHE E   4      -1.371  -3.857 -17.741  1.00 22.02 LIG 0.00  A 
ATOM     51  CE2 PHE E   4      -0.088  -4.233 -17.391  1.00 22.12 LIG 0.00  A 
ATOM     52  CD2 PHE E   4       0.108  -5.279 -16.506  1.00 22.51 LIG 0.01  A 
ENDBRANCH 46 47
ENDBRANCH 42 46
ENDBRANCH 39 42
ENDBRANCH 33 38
ENDBRANCH 31 33
ENDBRANCH 1 29
TORSDOF 19
ENDMDL
MODEL 23
USER: ADFR SOLUTION from run 131
USER: SCORE 14.221024 LL:  -3.761 LR: -12.180 RR:   0.000 FEB:  -6.512
USER: RMSD 10.218275
USER: SEED 130
USER: STATUS no improvement in best in 7 clusters for 5 generations
USER: GENES 21
USER: genes 0 Translation |==|  0.55770 0.33105 0.51465
USER: genes 1 Rotation |==|  0.65166 0.11291 0.76632 0.57897
USER: genes 2 Torsion [CB]-CA--N-[C] |==|  0.47359
USER: genes 3 Torsion [N]-C--CA-[N] |==|  0.92855
USER: genes 4 Torsion [C]-CA--N-[C] |==|  0.62227
USER: genes 5 Torsion [N]-C--CA-[N] |==|  0.34417
USER: genes 6 Torsion [C]-CA--N-[C] |==|  0.63797
USER: genes 7 Torsion [C]-CA--CB-[CG] |==|  0.79484
USER: genes 8 Torsion [CA]-CB--CG-[CD] |==|  0.29929
USER: genes 9 Torsion [CB]-CG--CD-[OE1] |==|  0.67734
USER: genes 10 Torsion [N]-CA--CB-[CG] |==|  0.87081
USER: genes 11 Torsion [CA]-CB--CG-[OD1] |==|  0.83851
USER: genes 12 Torsion [N]-CA--C-[N] |==|  0.44446
USER: genes 13 Torsion [C]-N--CA-[C] |==|  0.67518
USER: genes 14 Torsion [N]-CA--CB-[CG] |==|  0.64054
USER: genes 15 Torsion [CA]-CB--CG-[CD2] |==|  0.18025
USER: genes 16 Torsion [N]-CA--C-[N] |==|  0.43343
USER: genes 17 Torsion [C]-N--CA-[CB] |==|  0.28587
USER: genes 18 Torsion [N]-CA--C-[O] |==|  0.46796
USER: genes 19 Torsion [N]-CA--CB-[CG] |==|  0.09131
USER: genes 20 Torsion [CA]-CB--CG-[CD2] |==|  0.77375
ROOT
ATOM      1  CA  ASP E   2       5.234  -8.145 -11.264  1.00 33.44 LIG 0.19  C 
ENDROOT
BRANCH 1 2
ATOM      2  N   ASP E   2       6.290  -7.148 -11.488  1.00 33.24 LIG-0.35  N 
ATOM      3 H    ASP E   2       6.830  -7.047 -10.826  1.00 33.24 LIG 0.16  HD
ATOM      4  C   ALA E   1       6.380  -6.469 -12.632  1.00 32.93 LIG 0.24  C 
ATOM      5 O    ALA E   1       5.533  -6.544 -13.522  1.00 31.71 LIG-0.27  OA
BRANCH 4 6
ATOM      6  CA  ALA E   1       7.592  -5.557 -12.800  1.00 33.97 LIG 0.17  C 
ATOM      7  CB  ALA E   1       8.690  -6.271 -13.581  1.00 34.31 LIG 0.04  C 
BRANCH 6 8
ATOM      8  N   ALA E   1       8.092  -5.137 -11.488  1.00 34.07 LIG-0.35  N 
ATOM      9  C   GLN E   0       8.452  -3.881 -11.214  1.00 34.65 LIG 0.24  C 
ATOM     10 O    GLN E   0       8.431  -2.966 -12.042  1.00 33.74 LIG-0.27  OA
ATOM     11 H    ALA E   1       8.132  -5.775 -10.912  1.00 34.07 LIG 0.16  HD
BRANCH 9 12
ATOM     12  CA  GLN E   0       8.874  -3.601  -9.772  1.00 34.37 LIG 0.18  C 
BRANCH 12 13
ATOM     13  N   GLN E   0      10.260  -3.004  -9.684  1.00 34.90 LIG-0.35  N 
ATOM     14  C   ACE E  -1      11.241  -3.463  -8.859  1.00 34.22 LIG 0.21  C 
ATOM     15  CH3 ACE E  -1      12.556  -2.732  -9.094  1.00 34.51 LIG 0.12  C 
ATOM     16 O    ACE E  -1      11.340  -4.686  -8.791  1.00 33.28 LIG-0.27  OA
ATOM     17 H    GLN E   0      10.374  -2.335 -10.213  1.00 34.90 LIG 0.16  HD
ENDBRANCH 12 13
BRANCH 12 18
ATOM     18  CB  GLN E   0       7.840  -2.664  -9.135  1.00 34.11 LIG 0.04  C 
BRANCH 18 19
ATOM     19  CG  GLN E   0       7.922  -1.220  -9.616  1.00 32.87 LIG 0.10  C 
BRANCH 19 20
ATOM     20  CD  GLN E   0       6.767  -0.849 -10.525  1.00 32.43 LIG 0.21  C 
ATOM     21 OE1  GLN E   0       6.972  -0.546 -11.698  1.00 31.11 LIG-0.27  OA
ATOM     22  NE2 GLN E   0       5.550  -0.857  -9.990  1.00 32.01 LIG-0.37  N 
ATOM     23 22HE GLN E   0       4.869  -0.644 -10.468  1.00 32.01 LIG 0.16  HD
ATOM     24 21HE GLN E   0       5.445  -1.076  -9.164  1.00 32.01 LIG 0.16  HD
ENDBRANCH 19 20
ENDBRANCH 18 19
ENDBRANCH 12 18
ENDBRANCH 9 12
ENDBRANCH 6 8
ENDBRANCH 4 6
ENDBRANCH 1 2
BRANCH 1 25
ATOM     25  CB  ASP E   2       5.504  -8.930  -9.982  1.00 34.81 LIG 0.15  C 
BRANCH 25 26
ATOM     26  CG  ASP E   2       6.941  -9.391  -9.891  1.00 36.48 LIG 0.17  C 
ATOM     27 OD1  ASP E   2       7.385 -10.115 -10.808  1.00 36.59 LIG-0.65  OA
ATOM     28 OD2  ASP E   2       7.617  -9.054  -8.893  1.00 38.36 LIG-0.65  OA
ENDBRANCH 25 26
ENDBRANCH 1 25
BRANCH 1 29
ATOM     29  C   ASP E   2       3.830  -7.565 -11.229  1.00 31.85 LIG 0.24  C 
ATOM     30 O    ASP E   2       3.645  -6.367 -11.004  1.00 30.99 LIG-0.27  OA
ATOM     31  N   LEU E   3       2.849  -8.444 -11.447  1.00 29.32 LIG-0.35  N 
ATOM     32 H    LEU E   3       2.991  -9.283 -11.576  1.00 29.32 LIG 0.16  HD
BRANCH 31 33
ATOM     33  CA  LEU E   3       1.428  -8.078 -11.489  1.00 27.73 LIG 0.18  C 
BRANCH 33 34
ATOM     34  CB  LEU E   3       0.816  -8.436 -12.859  1.00 28.26 LIG 0.04  C 
BRANCH 34 35
ATOM     35  CG  LEU E   3       0.027  -7.350 -13.595  1.00 28.58 LIG-0.02  C 
ATOM     36  CD2 LEU E   3       0.920  -6.181 -13.997  1.00 28.56 LIG 0.01  C 
ATOM     37  CD1 LEU E   3      -1.126  -6.857 -12.731  1.00 28.86 LIG 0.01  C 
ENDBRANCH 34 35
ENDBRANCH 33 34
BRANCH 33 38
ATOM     38  C   LEU E   3       0.605  -8.734 -10.394  1.00 26.19 LIG 0.24  C 
ATOM     39  N   PHE E   4      -0.520  -8.114 -10.050  1.00 24.40 LIG-0.34  N 
ATOM     40 H    PHE E   4      -0.830  -7.430 -10.469  1.00 24.40 LIG 0.16  HD
ATOM     41 O    LEU E   3       1.002  -9.775  -9.868  1.00 26.01 LIG-0.27  OA
BRANCH 39 42
ATOM     42  CA  PHE E   4      -1.342  -8.536  -8.923  1.00 23.80 LIG 0.19  C 
BRANCH 42 43
ATOM     43  C   PHE E   4      -2.820  -8.492  -9.302  1.00 24.08 LIG 0.20  C 
ATOM     44 O    PHE E   4      -3.693  -8.998  -8.593  1.00 22.36 LIG-0.65  OA
ATOM     45 OXT  PHE E   4      -3.154  -7.986 -10.369  1.00 24.21 LIG-0.65  OA
ENDBRANCH 42 43
BRANCH 42 46
ATOM     46  CB  PHE E   4      -1.121  -7.603  -7.726  1.00 23.46 LIG 0.07  C 
BRANCH 46 47
ATOM     47  CG  PHE E   4      -0.830  -6.169  -8.116  1.00 22.76 LIG-0.06  A 
ATOM     48  CD1 PHE E   4      -1.835  -5.215  -8.124  1.00 22.71 LIG 0.01  A 
ATOM     49  CE1 PHE E   4      -1.571  -3.904  -8.487  1.00 22.42 LIG 0.00  A 
ATOM     50  CZ  PHE E   4      -0.287  -3.538  -8.859  1.00 22.02 LIG 0.00  A 
ATOM     51  CE2 PHE E   4       0.723  -4.481  -8.863  1.00 22.12 LIG 0.00  A 
ATOM     52  CD2 PHE E   4       0.450  -5.787  -8.494  1.00 22.51 LIG 0.01  A 
ENDBRANCH 46 47
ENDBRANCH 42 46
ENDBRANCH 39 42
ENDBRANCH 33 38
ENDBRANCH 31 33
ENDBRANCH 1 29
TORSDOF 19
ENDMDL
MODEL 24
USER: ADFR SOLUTION from run 136
USER: SCORE 15.289254 LL:  -3.983 LR: -12.168 RR:   0.000 FEB:  -6.500
USER: RMSD 2.475235
USER: SEED 135
USER: STATUS no improvement in best in 3 clusters for 5 generations
USER: GENES 21
USER: genes 0 Translation |==|  0.59052 0.30596 0.52944
USER: genes 1 Rotation |==|  0.41613 0.50170 0.47713 0.99238
USER: genes 2 Torsion [CB]-CA--N-[C] |==|  0.51256
USER: genes 3 Torsion [N]-C--CA-[N] |==|  0.35606
USER: genes 4 Torsion [C]-CA--N-[C] |==|  0.86402
USER: genes 5 Torsion [N]-C--CA-[N] |==|  0.13261
USER: genes 6 Torsion [C]-CA--N-[C] |==|  0.14916
USER: genes 7 Torsion [C]-CA--CB-[CG] |==|  0.39626
USER: genes 8 Torsion [CA]-CB--CG-[CD] |==|  0.30038
USER: genes 9 Torsion [CB]-CG--CD-[OE1] |==|  0.56966
USER: genes 10 Torsion [N]-CA--CB-[CG] |==|  0.59026
USER: genes 11 Torsion [CA]-CB--CG-[OD1] |==|  0.33374
USER: genes 12 Torsion [N]-CA--C-[N] |==|  0.37222
USER: genes 13 Torsion [C]-N--CA-[C] |==|  0.80916
USER: genes 14 Torsion [N]-CA--CB-[CG] |==|  0.69944
USER: genes 15 Torsion [CA]-CB--CG-[CD2] |==|  0.73583
USER: genes 16 Torsion [N]-CA--C-[N] |==|  0.89443
USER: genes 17 Torsion [C]-N--CA-[CB] |==|  0.25230
USER: genes 18 Torsion [N]-CA--C-[O] |==|  0.16659
USER: genes 19 Torsion [N]-CA--CB-[CG] |==|  0.03323
USER: genes 20 Torsion [CA]-CB--CG-[CD2] |==|  0.19287
ROOT
ATOM      1  CA  ASP E   2       6.071  -8.559 -11.042  1.00 33.44 LIG 0.19  C 
ENDROOT
BRANCH 1 2
ATOM      2  N   ASP E   2       4.801  -8.940 -11.673  1.00 33.24 LIG-0.35  N 
ATOM      3 H    ASP E   2       4.563  -9.754 -11.530  1.00 33.24 LIG 0.16  HD
ATOM      4  C   ALA E   1       4.094  -8.075 -12.403  1.00 32.93 LIG 0.24  C 
ATOM      5 O    ALA E   1       4.505  -6.951 -12.689  1.00 31.71 LIG-0.27  OA
BRANCH 4 6
ATOM      6  CA  ALA E   1       2.729  -8.544 -12.898  1.00 33.97 LIG 0.17  C 
ATOM      7  CB  ALA E   1       2.756  -8.759 -14.407  1.00 34.31 LIG 0.04  C 
BRANCH 6 8
ATOM      8  N   ALA E   1       1.700  -7.563 -12.542  1.00 34.07 LIG-0.35  N 
ATOM      9  C   GLN E   0       1.571  -7.055 -11.314  1.00 34.65 LIG 0.24  C 
ATOM     10 O    GLN E   0       2.279  -7.385 -10.359  1.00 33.74 LIG-0.27  OA
ATOM     11 H    ALA E   1       1.187  -7.346 -13.198  1.00 34.07 LIG 0.16  HD
BRANCH 9 12
ATOM     12  CA  GLN E   0       0.496  -5.983 -11.139  1.00 34.37 LIG 0.18  C 
BRANCH 12 13
ATOM     13  N   GLN E   0      -0.824  -6.388 -11.753  1.00 34.90 LIG-0.35  N 
ATOM     14  C   ACE E  -1      -1.476  -7.550 -11.473  1.00 34.22 LIG 0.21  C 
ATOM     15  CH3 ACE E  -1      -2.837  -7.606 -12.154  1.00 34.51 LIG 0.12  C 
ATOM     16 O    ACE E  -1      -1.484  -7.875 -10.288  1.00 33.28 LIG-0.27  OA
ATOM     17 H    GLN E   0      -1.132  -5.806 -12.306  1.00 34.90 LIG 0.16  HD
ENDBRANCH 12 13
BRANCH 12 18
ATOM     18  CB  GLN E   0       0.332  -5.698  -9.641  1.00 34.11 LIG 0.04  C 
BRANCH 18 19
ATOM     19  CG  GLN E   0       0.075  -4.232  -9.307  1.00 32.87 LIG 0.10  C 
BRANCH 19 20
ATOM     20  CD  GLN E   0      -1.352  -3.985  -8.861  1.00 32.43 LIG 0.21  C 
ATOM     21 OE1  GLN E   0      -1.862  -2.876  -8.992  1.00 31.11 LIG-0.27  OA
ATOM     22  NE2 GLN E   0      -2.001  -5.011  -8.318  1.00 32.01 LIG-0.37  N 
ATOM     23 22HE GLN E   0      -2.810  -4.911  -8.043  1.00 32.01 LIG 0.16  HD
ATOM     24 21HE GLN E   0      -1.613  -5.775  -8.243  1.00 32.01 LIG 0.16  HD
ENDBRANCH 19 20
ENDBRANCH 18 19
ENDBRANCH 12 18
ENDBRANCH 9 12
ENDBRANCH 6 8
ENDBRANCH 4 6
ENDBRANCH 1 2
BRANCH 1 25
ATOM     25  CB  ASP E   2       6.716  -9.768 -10.367  1.00 34.81 LIG 0.15  C 
BRANCH 25 26
ATOM     26  CG  ASP E   2       7.495  -9.378  -9.130  1.00 36.48 LIG 0.17  C 
ATOM     27 OD1  ASP E   2       7.152  -9.877  -8.037  1.00 36.59 LIG-0.65  OA
ATOM     28 OD2  ASP E   2       8.430  -8.554  -9.247  1.00 38.36 LIG-0.65  OA
ENDBRANCH 25 26
ENDBRANCH 1 25
BRANCH 1 29
ATOM     29  C   ASP E   2       7.064  -7.907 -11.990  1.00 31.85 LIG 0.24  C 
ATOM     30 O    ASP E   2       7.291  -8.391 -13.101  1.00 30.99 LIG-0.27  OA
ATOM     31  N   LEU E   3       7.655  -6.805 -11.521  1.00 29.32 LIG-0.35  N 
ATOM     32 H    LEU E   3       7.507  -6.492 -10.733  1.00 29.32 LIG 0.16  HD
BRANCH 31 33
ATOM     33  CA  LEU E   3       8.616  -6.010 -12.295  1.00 27.73 LIG 0.18  C 
BRANCH 33 34
ATOM     34  CB  LEU E   3       8.896  -4.664 -11.595  1.00 28.26 LIG 0.04  C 
BRANCH 34 35
ATOM     35  CG  LEU E   3       8.322  -3.395 -12.231  1.00 28.58 LIG-0.02  C 
ATOM     36  CD2 LEU E   3       9.341  -2.708 -13.134  1.00 28.56 LIG 0.01  C 
ATOM     37  CD1 LEU E   3       7.845  -2.433 -11.150  1.00 28.86 LIG 0.01  C 
ENDBRANCH 34 35
ENDBRANCH 33 34
BRANCH 33 38
ATOM     38  C   LEU E   3       9.934  -6.726 -12.533  1.00 26.19 LIG 0.24  C 
ATOM     39  N   PHE E   4      10.394  -7.465 -11.526  1.00 24.40 LIG-0.34  N 
ATOM     40 H    PHE E   4       9.945  -7.615 -10.808  1.00 24.40 LIG 0.16  HD
ATOM     41 O    LEU E   3      10.522  -6.590 -13.606  1.00 26.01 LIG-0.27  OA
BRANCH 39 42
ATOM     42  CA  PHE E   4      11.707  -8.094 -11.543  1.00 23.80 LIG 0.19  C 
BRANCH 42 43
ATOM     43  C   PHE E   4      11.684  -9.388 -10.732  1.00 24.08 LIG 0.20  C 
ATOM     44 O    PHE E   4      10.937 -10.326 -11.020  1.00 22.36 LIG-0.65  OA
ATOM     45 OXT  PHE E   4      12.388  -9.485  -9.732  1.00 24.21 LIG-0.65  OA
ENDBRANCH 42 43
BRANCH 42 46
ATOM     46  CB  PHE E   4      12.754  -7.156 -10.928  1.00 23.46 LIG 0.07  C 
BRANCH 46 47
ATOM     47  CG  PHE E   4      12.157  -5.966 -10.207  1.00 22.76 LIG-0.06  A 
ATOM     48  CD1 PHE E   4      12.307  -4.682 -10.707  1.00 22.71 LIG 0.01  A 
ATOM     49  CE1 PHE E   4      11.766  -3.591 -10.045  1.00 22.42 LIG 0.00  A 
ATOM     50  CZ  PHE E   4      11.075  -3.780  -8.859  1.00 22.02 LIG 0.00  A 
ATOM     51  CE2 PHE E   4      10.924  -5.054  -8.345  1.00 22.12 LIG 0.00  A 
ATOM     52  CD2 PHE E   4      11.464  -6.137  -9.017  1.00 22.51 LIG 0.01  A 
ENDBRANCH 46 47
ENDBRANCH 42 46
ENDBRANCH 39 42
ENDBRANCH 33 38
ENDBRANCH 31 33
ENDBRANCH 1 29
TORSDOF 19
ENDMDL
MODEL 25
USER: ADFR SOLUTION from run 107
USER: SCORE 14.083467 LL:  -3.507 LR: -12.147 RR:   0.000 FEB:  -6.480
USER: RMSD 10.825781
USER: SEED 106
USER: STATUS no improvement in best in 20 clusters for 5 generations
USER: GENES 21
USER: genes 0 Translation |==|  0.44511 0.42525 0.37167
USER: genes 1 Rotation |==|  0.56184 0.06823 0.26613 0.57111
USER: genes 2 Torsion [CB]-CA--N-[C] |==|  0.51896
USER: genes 3 Torsion [N]-C--CA-[N] |==|  0.38204
USER: genes 4 Torsion [C]-CA--N-[C] |==|  0.69136
USER: genes 5 Torsion [N]-C--CA-[N] |==|  0.88891
USER: genes 6 Torsion [C]-CA--N-[C] |==|  0.62521
USER: genes 7 Torsion [C]-CA--CB-[CG] |==|  0.78979
USER: genes 8 Torsion [CA]-CB--CG-[CD] |==|  0.73662
USER: genes 9 Torsion [CB]-CG--CD-[OE1] |==|  0.22107
USER: genes 10 Torsion [N]-CA--CB-[CG] |==|  0.68834
USER: genes 11 Torsion [CA]-CB--CG-[OD1] |==|  0.44097
USER: genes 12 Torsion [N]-CA--C-[N] |==|  0.41303
USER: genes 13 Torsion [C]-N--CA-[C] |==|  0.78314
USER: genes 14 Torsion [N]-CA--CB-[CG] |==|  0.61365
USER: genes 15 Torsion [CA]-CB--CG-[CD2] |==|  0.80656
USER: genes 16 Torsion [N]-CA--C-[N] |==|  0.85114
USER: genes 17 Torsion [C]-N--CA-[CB] |==|  0.20300
USER: genes 18 Torsion [N]-CA--C-[O] |==|  0.06009
USER: genes 19 Torsion [N]-CA--CB-[CG] |==|  0.76308
USER: genes 20 Torsion [CA]-CB--CG-[CD2] |==|  0.87540
ROOT
ATOM      1  CA  ASP E   2       2.363  -6.590 -13.409  1.00 33.44 LIG 0.19  C 
ENDROOT
BRANCH 1 2
ATOM      2  N   ASP E   2       3.803  -6.880 -13.400  1.00 33.24 LIG-0.35  N 
ATOM      3 H    ASP E   2       4.076  -7.349 -14.068  1.00 33.24 LIG 0.16  HD
ATOM      4  C   ALA E   1       4.600  -6.441 -12.424  1.00 32.93 LIG 0.24  C 
ATOM      5 O    ALA E   1       4.174  -5.869 -11.421  1.00 31.71 LIG-0.27  OA
BRANCH 4 6
ATOM      6  CA  ALA E   1       6.096  -6.692 -12.589  1.00 33.97 LIG 0.17  C 
ATOM      7  CB  ALA E   1       6.528  -7.895 -11.757  1.00 34.31 LIG 0.04  C 
BRANCH 6 8
ATOM      8  N   ALA E   1       6.853  -5.501 -12.194  1.00 34.07 LIG-0.35  N 
ATOM      9  C   GLN E   0       7.526  -4.744 -13.064  1.00 34.65 LIG 0.24  C 
ATOM     10 O    GLN E   0       7.602  -4.991 -14.271  1.00 33.74 LIG-0.27  OA
ATOM     11 H    ALA E   1       6.824  -5.336 -11.350  1.00 34.07 LIG 0.16  HD
BRANCH 9 12
ATOM     12  CA  GLN E   0       8.193  -3.494 -12.493  1.00 34.37 LIG 0.18  C 
BRANCH 12 13
ATOM     13  N   GLN E   0       7.326  -2.797 -11.469  1.00 34.90 LIG-0.35  N 
ATOM     14  C   ACE E  -1       7.119  -1.452 -11.426  1.00 34.22 LIG 0.21  C 
ATOM     15  CH3 ACE E  -1       6.101  -1.076 -10.359  1.00 34.51 LIG 0.12  C 
ATOM     16 O    ACE E  -1       6.940  -0.914 -12.516  1.00 33.28 LIG-0.27  OA
ATOM     17 H    GLN E   0       6.968  -3.339 -10.904  1.00 34.90 LIG 0.16  HD
ENDBRANCH 12 13
BRANCH 12 18
ATOM     18  CB  GLN E   0       9.539  -3.897 -11.878  1.00 34.11 LIG 0.04  C 
BRANCH 18 19
ATOM     19  CG  GLN E   0       9.427  -4.606 -10.533  1.00 32.87 LIG 0.10  C 
BRANCH 19 20
ATOM     20  CD  GLN E   0       9.570  -3.652  -9.364  1.00 32.43 LIG 0.21  C 
ATOM     21 OE1  GLN E   0       8.623  -2.956  -9.009  1.00 31.11 LIG-0.27  OA
ATOM     22  NE2 GLN E   0      10.758  -3.602  -8.769  1.00 32.01 LIG-0.37  N 
ATOM     23 22HE GLN E   0      10.886  -3.067  -8.108  1.00 32.01 LIG 0.16  HD
ATOM     24 21HE GLN E   0      11.399  -4.105  -9.045  1.00 32.01 LIG 0.16  HD
ENDBRANCH 19 20
ENDBRANCH 18 19
ENDBRANCH 12 18
ENDBRANCH 9 12
ENDBRANCH 6 8
ENDBRANCH 4 6
ENDBRANCH 1 2
BRANCH 1 25
ATOM     25  CB  ASP E   2       1.673  -7.350 -14.540  1.00 34.81 LIG 0.15  C 
BRANCH 25 26
ATOM     26  CG  ASP E   2       1.158  -6.420 -15.616  1.00 36.48 LIG 0.17  C 
ATOM     27 OD1  ASP E   2       0.947  -6.895 -16.753  1.00 36.59 LIG-0.65  OA
ATOM     28 OD2  ASP E   2       0.991  -5.213 -15.334  1.00 38.36 LIG-0.65  OA
ENDBRANCH 25 26
ENDBRANCH 1 25
BRANCH 1 29
ATOM     29  C   ASP E   2       1.663  -6.878 -12.091  1.00 31.85 LIG 0.24  C 
ATOM     30 O    ASP E   2       2.048  -7.789 -11.355  1.00 30.99 LIG-0.27  OA
ATOM     31  N   LEU E   3       0.623  -6.087 -11.818  1.00 29.32 LIG-0.35  N 
ATOM     32 H    LEU E   3       0.348  -5.471 -12.353  1.00 29.32 LIG 0.16  HD
BRANCH 31 33
ATOM     33  CA  LEU E   3      -0.162  -6.180 -10.580  1.00 27.73 LIG 0.18  C 
BRANCH 33 34
ATOM     34  CB  LEU E   3      -0.922  -4.863 -10.320  1.00 28.26 LIG 0.04  C 
BRANCH 34 35
ATOM     35  CG  LEU E   3      -0.977  -4.342  -8.881  1.00 28.58 LIG-0.02  C 
ATOM     36  CD2 LEU E   3      -1.851  -5.225  -7.996  1.00 28.56 LIG 0.01  C 
ATOM     37  CD1 LEU E   3      -1.487  -2.907  -8.859  1.00 28.86 LIG 0.01  C 
ENDBRANCH 34 35
ENDBRANCH 33 34
BRANCH 33 38
ATOM     38  C   LEU E   3      -1.153  -7.330 -10.583  1.00 26.19 LIG 0.24  C 
ATOM     39  N   PHE E   4      -1.993  -7.382 -11.614  1.00 24.40 LIG-0.34  N 
ATOM     40 H    PHE E   4      -1.937  -6.860 -12.295  1.00 24.40 LIG 0.16  HD
ATOM     41 O    LEU E   3      -1.159  -8.138  -9.654  1.00 26.01 LIG-0.27  OA
BRANCH 39 42
ATOM     42  CA  PHE E   4      -3.093  -8.335 -11.690  1.00 23.80 LIG 0.19  C 
BRANCH 42 43
ATOM     43  C   PHE E   4      -3.670  -8.364 -13.104  1.00 24.08 LIG 0.20  C 
ATOM     44 O    PHE E   4      -3.022  -7.984 -14.082  1.00 22.36 LIG-0.65  OA
ATOM     45 OXT  PHE E   4      -4.830  -8.724 -13.273  1.00 24.21 LIG-0.65  OA
ENDBRANCH 42 43
BRANCH 42 46
ATOM     46  CB  PHE E   4      -4.210  -7.934 -10.719  1.00 23.46 LIG 0.07  C 
BRANCH 46 47
ATOM     47  CG  PHE E   4      -4.004  -8.445  -9.308  1.00 22.76 LIG-0.06  A 
ATOM     48  CD1 PHE E   4      -4.189  -7.613  -8.215  1.00 22.71 LIG 0.01  A 
ATOM     49  CE1 PHE E   4      -3.995  -8.077  -6.925  1.00 22.42 LIG 0.00  A 
ATOM     50  CZ  PHE E   4      -3.597  -9.388  -6.718  1.00 22.02 LIG 0.00  A 
ATOM     51  CE2 PHE E   4      -3.401 -10.227  -7.799  1.00 22.12 LIG 0.00  A 
ATOM     52  CD2 PHE E   4      -3.603  -9.755  -9.084  1.00 22.51 LIG 0.01  A 
ENDBRANCH 46 47
ENDBRANCH 42 46
ENDBRANCH 39 42
ENDBRANCH 33 38
ENDBRANCH 31 33
ENDBRANCH 1 29
TORSDOF 19
ENDMDL
MODEL 26
USER: ADFR SOLUTION from run 131
USER: SCORE 13.866481 LL:  -3.928 LR: -12.148 RR:   0.000 FEB:  -6.480
USER: RMSD 9.738844
USER: SEED 130
USER: STATUS no improvement in best in 7 clusters for 5 generations
USER: GENES 21
USER: genes 0 Translation |==|  0.56247 0.31085 0.51894
USER: genes 1 Rotation |==|  0.69401 0.14541 0.79110 0.54345
USER: genes 2 Torsion [CB]-CA--N-[C] |==|  0.42970
USER: genes 3 Torsion [N]-C--CA-[N] |==|  0.01018
USER: genes 4 Torsion [C]-CA--N-[C] |==|  0.57946
USER: genes 5 Torsion [N]-C--CA-[N] |==|  0.33821
USER: genes 6 Torsion [C]-CA--N-[C] |==|  0.60595
USER: genes 7 Torsion [C]-CA--CB-[CG] |==|  0.79644
USER: genes 8 Torsion [CA]-CB--CG-[CD] |==|  0.29093
USER: genes 9 Torsion [CB]-CG--CD-[OE1] |==|  0.69033
USER: genes 10 Torsion [N]-CA--CB-[CG] |==|  0.87181
USER: genes 11 Torsion [CA]-CB--CG-[OD1] |==|  0.42766
USER: genes 12 Torsion [N]-CA--C-[N] |==|  0.90880
USER: genes 13 Torsion [C]-N--CA-[C] |==|  0.82764
USER: genes 14 Torsion [N]-CA--CB-[CG] |==|  0.60279
USER: genes 15 Torsion [CA]-CB--CG-[CD2] |==|  0.09521
USER: genes 16 Torsion [N]-CA--C-[N] |==|  0.41325
USER: genes 17 Torsion [C]-N--CA-[CB] |==|  0.18355
USER: genes 18 Torsion [N]-CA--C-[O] |==|  0.02717
USER: genes 19 Torsion [N]-CA--CB-[CG] |==|  0.11081
USER: genes 20 Torsion [CA]-CB--CG-[CD2] |==|  0.59188
ROOT
ATOM      1  CA  ASP E   2       5.356  -8.478 -11.200  1.00 33.44 LIG 0.19  C 
ENDROOT
BRANCH 1 2
ATOM      2  N   ASP E   2       6.127  -7.259 -11.481  1.00 33.24 LIG-0.35  N 
ATOM      3 H    ASP E   2       6.421  -6.855 -10.782  1.00 33.24 LIG 0.16  HD
ATOM      4  C   ALA E   1       6.336  -6.837 -12.729  1.00 32.93 LIG 0.24  C 
ATOM      5 O    ALA E   1       5.813  -7.365 -13.710  1.00 31.71 LIG-0.27  OA
BRANCH 4 6
ATOM      6  CA  ALA E   1       7.259  -5.634 -12.904  1.00 33.97 LIG 0.17  C 
ATOM      7  CB  ALA E   1       8.384  -5.965 -13.880  1.00 34.31 LIG 0.04  C 
BRANCH 6 8
ATOM      8  N   ALA E   1       7.812  -5.230 -11.609  1.00 34.07 LIG-0.35  N 
ATOM      9  C   GLN E   0       8.168  -3.974 -11.329  1.00 34.65 LIG 0.24  C 
ATOM     10 O    GLN E   0       8.099  -3.046 -12.139  1.00 33.74 LIG-0.27  OA
ATOM     11 H    ALA E   1       7.885  -5.877 -11.046  1.00 34.07 LIG 0.16  HD
BRANCH 9 12
ATOM     12  CA  GLN E   0       8.649  -3.713  -9.902  1.00 34.37 LIG 0.18  C 
BRANCH 12 13
ATOM     13  N   GLN E   0      10.051  -3.148  -9.863  1.00 34.90 LIG-0.35  N 
ATOM     14  C   ACE E  -1      10.985  -3.478  -8.929  1.00 34.22 LIG 0.21  C 
ATOM     15  CH3 ACE E  -1      12.332  -2.837  -9.234  1.00 34.51 LIG 0.12  C 
ATOM     16 O    ACE E  -1      11.040  -4.671  -8.641  1.00 33.28 LIG-0.27  OA
ATOM     17 H    GLN E   0      10.207  -2.588 -10.497  1.00 34.90 LIG 0.16  HD
ENDBRANCH 12 13
BRANCH 12 18
ATOM     18  CB  GLN E   0       7.661  -2.758  -9.221  1.00 34.11 LIG 0.04  C 
BRANCH 18 19
ATOM     19  CG  GLN E   0       7.748  -1.315  -9.706  1.00 32.87 LIG 0.10  C 
BRANCH 19 20
ATOM     20  CD  GLN E   0       6.600  -0.946 -10.624  1.00 32.43 LIG 0.21  C 
ATOM     21 OE1  GLN E   0       6.801  -0.730 -11.816  1.00 31.11 LIG-0.27  OA
ATOM     22  NE2 GLN E   0       5.393  -0.857 -10.074  1.00 32.01 LIG-0.37  N 
ATOM     23 22HE GLN E   0       4.715  -0.641 -10.557  1.00 32.01 LIG 0.16  HD
ATOM     24 21HE GLN E   0       5.289  -1.016  -9.235  1.00 32.01 LIG 0.16  HD
ENDBRANCH 19 20
ENDBRANCH 18 19
ENDBRANCH 12 18
ENDBRANCH 9 12
ENDBRANCH 6 8
ENDBRANCH 4 6
ENDBRANCH 1 2
BRANCH 1 25
ATOM     25  CB  ASP E   2       5.769  -9.072  -9.854  1.00 34.81 LIG 0.15  C 
BRANCH 25 26
ATOM     26  CG  ASP E   2       7.272  -9.127  -9.697  1.00 36.48 LIG 0.17  C 
ATOM     27 OD1  ASP E   2       7.743  -9.107  -8.539  1.00 36.59 LIG-0.65  OA
ATOM     28 OD2  ASP E   2       7.982  -9.163 -10.727  1.00 38.36 LIG-0.65  OA
ENDBRANCH 25 26
ENDBRANCH 1 25
BRANCH 1 29
ATOM     29  C   ASP E   2       3.850  -8.284 -11.238  1.00 31.85 LIG 0.24  C 
ATOM     30 O    ASP E   2       3.104  -9.186 -11.624  1.00 30.99 LIG-0.27  OA
ATOM     31  N   LEU E   3       3.423  -7.083 -10.837  1.00 29.32 LIG-0.35  N 
ATOM     32 H    LEU E   3       3.956  -6.453 -10.595  1.00 29.32 LIG 0.16  HD
BRANCH 31 33
ATOM     33  CA  LEU E   3       2.005  -6.710 -10.766  1.00 27.73 LIG 0.18  C 
BRANCH 33 34
ATOM     34  CB  LEU E   3       1.844  -5.302 -10.156  1.00 28.26 LIG 0.04  C 
BRANCH 34 35
ATOM     35  CG  LEU E   3       0.648  -5.055  -9.234  1.00 28.58 LIG-0.02  C 
ATOM     36  CD2 LEU E   3       0.301  -6.296  -8.417  1.00 28.56 LIG 0.01  C 
ATOM     37  CD1 LEU E   3      -0.561  -4.607 -10.046  1.00 28.86 LIG 0.01  C 
ENDBRANCH 34 35
ENDBRANCH 33 34
BRANCH 33 38
ATOM     38  C   LEU E   3       1.306  -6.747 -12.114  1.00 26.19 LIG 0.24  C 
ATOM     39  N   PHE E   4       0.013  -7.061 -12.099  1.00 24.40 LIG-0.34  N 
ATOM     40 H    PHE E   4      -0.442  -7.153 -11.376  1.00 24.40 LIG 0.16  HD
ATOM     41 O    LEU E   3       1.941  -6.510 -13.142  1.00 26.01 LIG-0.27  OA
BRANCH 39 42
ATOM     42  CA  PHE E   4      -0.761  -7.279 -13.314  1.00 23.80 LIG 0.19  C 
BRANCH 42 43
ATOM     43  C   PHE E   4      -2.235  -7.481 -12.972  1.00 24.08 LIG 0.20  C 
ATOM     44 O    PHE E   4      -2.677  -7.279 -11.838  1.00 22.36 LIG-0.65  OA
ATOM     45 OXT  PHE E   4      -3.000  -7.908 -13.831  1.00 24.21 LIG-0.65  OA
ENDBRANCH 42 43
BRANCH 42 46
ATOM     46  CB  PHE E   4      -0.258  -8.529 -14.047  1.00 23.46 LIG 0.07  C 
BRANCH 46 47
ATOM     47  CG  PHE E   4       0.097  -9.676 -13.124  1.00 22.76 LIG-0.06  A 
ATOM     48  CD1 PHE E   4      -0.585  -9.868 -11.933  1.00 22.71 LIG 0.01  A 
ATOM     49  CE1 PHE E   4      -0.258 -10.913 -11.084  1.00 22.42 LIG 0.00  A 
ATOM     50  CZ  PHE E   4       0.774 -11.775 -11.420  1.00 22.02 LIG 0.00  A 
ATOM     51  CE2 PHE E   4       1.468 -11.589 -12.601  1.00 22.12 LIG 0.00  A 
ATOM     52  CD2 PHE E   4       1.129 -10.546 -13.444  1.00 22.51 LIG 0.01  A 
ENDBRANCH 46 47
ENDBRANCH 42 46
ENDBRANCH 39 42
ENDBRANCH 33 38
ENDBRANCH 31 33
ENDBRANCH 1 29
TORSDOF 19
ENDMDL
MODEL 27
USER: ADFR SOLUTION from run 185
USER: SCORE 13.510774 LL:  -3.284 LR: -12.124 RR:   0.000 FEB:  -6.457
USER: RMSD 3.687155
USER: SEED 184
USER: STATUS no improvement in best in 7 clusters for 5 generations
USER: GENES 21
USER: genes 0 Translation |==|  0.61897 0.41079 0.35371
USER: genes 1 Rotation |==|  0.81635 0.81303 0.46991 0.72590
USER: genes 2 Torsion [CB]-CA--N-[C] |==|  0.79270
USER: genes 3 Torsion [N]-C--CA-[N] |==|  0.55450
USER: genes 4 Torsion [C]-CA--N-[C] |==|  0.15580
USER: genes 5 Torsion [N]-C--CA-[N] |==|  0.63274
USER: genes 6 Torsion [C]-CA--N-[C] |==|  0.16480
USER: genes 7 Torsion [C]-CA--CB-[CG] |==|  0.39870
USER: genes 8 Torsion [CA]-CB--CG-[CD] |==|  0.21688
USER: genes 9 Torsion [CB]-CG--CD-[OE1] |==|  0.57477
USER: genes 10 Torsion [N]-CA--CB-[CG] |==|  0.68634
USER: genes 11 Torsion [CA]-CB--CG-[OD1] |==|  0.24962
USER: genes 12 Torsion [N]-CA--C-[N] |==|  0.03333
USER: genes 13 Torsion [C]-N--CA-[C] |==|  0.71942
USER: genes 14 Torsion [N]-CA--CB-[CG] |==|  0.58128
USER: genes 15 Torsion [CA]-CB--CG-[CD2] |==|  0.69610
USER: genes 16 Torsion [N]-CA--C-[N] |==|  0.05287
USER: genes 17 Torsion [C]-N--CA-[CB] |==|  0.86393
USER: genes 18 Torsion [N]-CA--C-[O] |==|  0.26119
USER: genes 19 Torsion [N]-CA--CB-[CG] |==|  0.80832
USER: genes 20 Torsion [CA]-CB--CG-[CD2] |==|  0.11044
ROOT
ATOM      1  CA  ASP E   2       6.797  -6.829 -13.678  1.00 33.44 LIG 0.19  C 
ENDROOT
BRANCH 1 2
ATOM      2  N   ASP E   2       5.949  -7.307 -12.578  1.00 33.24 LIG-0.35  N 
ATOM      3 H    ASP E   2       6.069  -8.132 -12.369  1.00 33.24 LIG 0.16  HD
ATOM      4  C   ALA E   1       5.073  -6.505 -11.971  1.00 32.93 LIG 0.24  C 
ATOM      5 O    ALA E   1       4.835  -5.361 -12.357  1.00 31.71 LIG-0.27  OA
BRANCH 4 6
ATOM      6  CA  ALA E   1       4.343  -7.073 -10.757  1.00 33.97 LIG 0.17  C 
ATOM      7  CB  ALA E   1       3.999  -8.542 -10.984  1.00 34.31 LIG 0.04  C 
BRANCH 6 8
ATOM      8  N   ALA E   1       3.126  -6.301 -10.493  1.00 34.07 LIG-0.35  N 
ATOM      9  C   GLN E   0       2.169  -6.117 -11.405  1.00 34.65 LIG 0.24  C 
ATOM     10 O    GLN E   0       2.231  -6.546 -12.560  1.00 33.74 LIG-0.27  OA
ATOM     11 H    ALA E   1       3.087  -5.978  -9.697  1.00 34.07 LIG 0.16  HD
BRANCH 9 12
ATOM     12  CA  GLN E   0       0.930  -5.354 -10.935  1.00 34.37 LIG 0.18  C 
BRANCH 12 13
ATOM     13  N   GLN E   0      -0.354  -6.045 -11.331  1.00 34.90 LIG-0.35  N 
ATOM     14  C   ACE E  -1      -0.694  -7.308 -10.953  1.00 34.22 LIG 0.21  C 
ATOM     15  CH3 ACE E  -1      -2.101  -7.669 -11.409  1.00 34.51 LIG 0.12  C 
ATOM     16 O    ACE E  -1      -0.446  -7.591  -9.783  1.00 33.28 LIG-0.27  OA
ATOM     17 H    GLN E   0      -0.862  -5.557 -11.826  1.00 34.90 LIG 0.16  HD
ENDBRANCH 12 13
BRANCH 12 18
ATOM     18  CB  GLN E   0       1.009  -5.188  -9.412  1.00 34.11 LIG 0.04  C 
BRANCH 18 19
ATOM     19  CG  GLN E   0       0.469  -3.858  -8.898  1.00 32.87 LIG 0.10  C 
BRANCH 19 20
ATOM     20  CD  GLN E   0      -1.046  -3.831  -8.851  1.00 32.43 LIG 0.21  C 
ATOM     21 OE1  GLN E   0      -1.652  -2.768  -8.948  1.00 31.11 LIG-0.27  OA
ATOM     22  NE2 GLN E   0      -1.665  -4.996  -8.687  1.00 32.01 LIG-0.37  N 
ATOM     23 22HE GLN E   0      -2.523  -5.024  -8.645  1.00 32.01 LIG 0.16  HD
ATOM     24 21HE GLN E   0      -1.208  -5.722  -8.623  1.00 32.01 LIG 0.16  HD
ENDBRANCH 19 20
ENDBRANCH 18 19
ENDBRANCH 12 18
ENDBRANCH 9 12
ENDBRANCH 6 8
ENDBRANCH 4 6
ENDBRANCH 1 2
BRANCH 1 25
ATOM     25  CB  ASP E   2       5.977  -6.684 -14.959  1.00 34.81 LIG 0.15  C 
BRANCH 25 26
ATOM     26  CG  ASP E   2       6.395  -7.680 -16.017  1.00 36.48 LIG 0.17  C 
ATOM     27 OD1  ASP E   2       5.824  -8.791 -16.037  1.00 36.59 LIG-0.65  OA
ATOM     28 OD2  ASP E   2       7.312  -7.365 -16.808  1.00 38.36 LIG-0.65  OA
ENDBRANCH 25 26
ENDBRANCH 1 25
BRANCH 1 29
ATOM     29  C   ASP E   2       7.526  -5.530 -13.382  1.00 31.85 LIG 0.24  C 
ATOM     30 O    ASP E   2       8.099  -4.906 -14.279  1.00 30.99 LIG-0.27  OA
ATOM     31  N   LEU E   3       7.499  -5.143 -12.104  1.00 29.32 LIG-0.35  N 
ATOM     32 H    LEU E   3       7.118  -5.601 -11.484  1.00 29.32 LIG 0.16  HD
BRANCH 31 33
ATOM     33  CA  LEU E   3       8.112  -3.900 -11.621  1.00 27.73 LIG 0.18  C 
BRANCH 33 34
ATOM     34  CB  LEU E   3       7.170  -3.177 -10.637  1.00 28.26 LIG 0.04  C 
BRANCH 34 35
ATOM     35  CG  LEU E   3       7.260  -1.651 -10.553  1.00 28.58 LIG-0.02  C 
ATOM     36  CD2 LEU E   3       7.875  -1.194  -9.235  1.00 28.56 LIG 0.01  C 
ATOM     37  CD1 LEU E   3       5.879  -1.031 -10.730  1.00 28.86 LIG 0.01  C 
ENDBRANCH 34 35
ENDBRANCH 33 34
BRANCH 33 38
ATOM     38  C   LEU E   3       9.457  -4.116 -10.949  1.00 26.19 LIG 0.24  C 
ATOM     39  N   PHE E   4      10.074  -5.263 -11.219  1.00 24.40 LIG-0.34  N 
ATOM     40 H    PHE E   4       9.792  -5.824 -11.806  1.00 24.40 LIG 0.16  HD
ATOM     41 O    LEU E   3       9.908  -3.259 -10.188  1.00 26.01 LIG-0.27  OA
BRANCH 39 42
ATOM     42  CA  PHE E   4      11.296  -5.681 -10.545  1.00 23.80 LIG 0.19  C 
BRANCH 42 43
ATOM     43  C   PHE E   4      10.998  -6.055  -9.095  1.00 24.08 LIG 0.20  C 
ATOM     44 O    PHE E   4      10.763  -7.216  -8.753  1.00 22.36 LIG-0.65  OA
ATOM     45 OXT  PHE E   4      10.935  -5.171  -8.246  1.00 24.21 LIG-0.65  OA
ENDBRANCH 42 43
BRANCH 42 46
ATOM     46  CB  PHE E   4      12.323  -4.542 -10.550  1.00 23.46 LIG 0.07  C 
BRANCH 46 47
ATOM     47  CG  PHE E   4      12.883  -4.232 -11.922  1.00 22.76 LIG-0.06  A 
ATOM     48  CD1 PHE E   4      14.220  -3.909 -12.090  1.00 22.71 LIG 0.01  A 
ATOM     49  CE1 PHE E   4      14.733  -3.619 -13.344  1.00 22.42 LIG 0.00  A 
ATOM     50  CZ  PHE E   4      13.898  -3.639 -14.449  1.00 22.02 LIG 0.00  A 
ATOM     51  CE2 PHE E   4      12.561  -3.952 -14.296  1.00 22.12 LIG 0.00  A 
ATOM     52  CD2 PHE E   4      12.060  -4.245 -13.039  1.00 22.51 LIG 0.01  A 
ENDBRANCH 46 47
ENDBRANCH 42 46
ENDBRANCH 39 42
ENDBRANCH 33 38
ENDBRANCH 31 33
ENDBRANCH 1 29
TORSDOF 19
ENDMDL
MODEL 28
USER: ADFR SOLUTION from run 51
USER: SCORE 14.224995 LL:  -3.789 LR: -12.102 RR:   0.000 FEB:  -6.434
USER: RMSD 10.430009
USER: SEED 50
USER: STATUS no improvement in best in 16 clusters for 5 generations
USER: GENES 21
USER: genes 0 Translation |==|  0.39937 0.41900 0.52916
USER: genes 1 Rotation |==|  0.49478 0.55653 0.99517 0.53982
USER: genes 2 Torsion [CB]-CA--N-[C] |==|  0.17923
USER: genes 3 Torsion [N]-C--CA-[N] |==|  0.47711
USER: genes 4 Torsion [C]-CA--N-[C] |==|  0.53494
USER: genes 5 Torsion [N]-C--CA-[N] |==|  0.92563
USER: genes 6 Torsion [C]-CA--N-[C] |==|  0.63830
USER: genes 7 Torsion [C]-CA--CB-[CG] |==|  0.48551
USER: genes 8 Torsion [CA]-CB--CG-[CD] |==|  0.23535
USER: genes 9 Torsion [CB]-CG--CD-[OE1] |==|  0.99946
USER: genes 10 Torsion [N]-CA--CB-[CG] |==|  0.59879
USER: genes 11 Torsion [CA]-CB--CG-[OD1] |==|  0.22135
USER: genes 12 Torsion [N]-CA--C-[N] |==|  0.68135
USER: genes 13 Torsion [C]-N--CA-[C] |==|  0.65149
USER: genes 14 Torsion [N]-CA--CB-[CG] |==|  0.77454
USER: genes 15 Torsion [CA]-CB--CG-[CD2] |==|  0.58174
USER: genes 16 Torsion [N]-CA--C-[N] |==|  0.96608
USER: genes 17 Torsion [C]-N--CA-[CB] |==|  0.49298
USER: genes 18 Torsion [N]-CA--C-[O] |==|  0.40448
USER: genes 19 Torsion [N]-CA--CB-[CG] |==|  0.18237
USER: genes 20 Torsion [CA]-CB--CG-[CD2] |==|  0.35897
ROOT
ATOM      1  CA  ASP E   2       1.197  -6.693 -11.047  1.00 33.44 LIG 0.19  C 
ENDROOT
BRANCH 1 2
ATOM      2  N   ASP E   2       2.461  -6.802 -11.787  1.00 33.24 LIG-0.35  N 
ATOM      3 H    ASP E   2       2.429  -7.320 -12.473  1.00 33.24 LIG 0.16  HD
ATOM      4  C   ALA E   1       3.555  -6.140 -11.405  1.00 32.93 LIG 0.24  C 
ATOM      5 O    ALA E   1       3.612  -5.493 -10.359  1.00 31.71 LIG-0.27  OA
BRANCH 4 6
ATOM      6  CA  ALA E   1       4.770  -6.226 -12.324  1.00 33.97 LIG 0.17  C 
ATOM      7  CB  ALA E   1       5.310  -7.652 -12.358  1.00 34.31 LIG 0.04  C 
BRANCH 6 8
ATOM      8  N   ALA E   1       5.810  -5.298 -11.872  1.00 34.07 LIG-0.35  N 
ATOM      9  C   GLN E   0       6.875  -4.982 -12.613  1.00 34.65 LIG 0.24  C 
ATOM     10 O    GLN E   0       7.102  -5.462 -13.727  1.00 33.74 LIG-0.27  OA
ATOM     11 H    ALA E   1       5.671  -4.978 -11.086  1.00 34.07 LIG 0.16  HD
BRANCH 9 12
ATOM     12  CA  GLN E   0       7.819  -3.936 -12.021  1.00 34.37 LIG 0.18  C 
BRANCH 12 13
ATOM     13  N   GLN E   0       7.113  -2.997 -11.071  1.00 34.90 LIG-0.35  N 
ATOM     14  C   ACE E  -1       7.203  -1.639 -11.125  1.00 34.22 LIG 0.21  C 
ATOM     15  CH3 ACE E  -1       6.279  -0.976 -10.113  1.00 34.51 LIG 0.12  C 
ATOM     16 O    ACE E  -1       7.157  -1.156 -12.254  1.00 33.28 LIG-0.27  OA
ATOM     17 H    GLN E   0       6.640  -3.406 -10.480  1.00 34.90 LIG 0.16  HD
ENDBRANCH 12 13
BRANCH 12 18
ATOM     18  CB  GLN E   0       8.968  -4.663 -11.310  1.00 34.11 LIG 0.04  C 
BRANCH 18 19
ATOM     19  CG  GLN E   0      10.059  -3.740 -10.777  1.00 32.87 LIG 0.10  C 
BRANCH 19 20
ATOM     20  CD  GLN E   0       9.723  -3.183  -9.408  1.00 32.43 LIG 0.21  C 
ATOM     21 OE1  GLN E   0       8.668  -3.484  -8.855  1.00 31.11 LIG-0.27  OA
ATOM     22  NE2 GLN E   0      10.608  -2.357  -8.859  1.00 32.01 LIG-0.37  N 
ATOM     23 22HE GLN E   0      10.452  -2.011  -8.088  1.00 32.01 LIG 0.16  HD
ATOM     24 21HE GLN E   0      11.337  -2.169  -9.275  1.00 32.01 LIG 0.16  HD
ENDBRANCH 19 20
ENDBRANCH 18 19
ENDBRANCH 12 18
ENDBRANCH 9 12
ENDBRANCH 6 8
ENDBRANCH 4 6
ENDBRANCH 1 2
BRANCH 1 25
ATOM     25  CB  ASP E   2       0.657  -5.266 -11.119  1.00 34.81 LIG 0.15  C 
BRANCH 25 26
ATOM     26  CG  ASP E   2      -0.028  -4.854  -9.835  1.00 36.48 LIG 0.17  C 
ATOM     27 OD1  ASP E   2       0.687  -4.494  -8.876  1.00 36.59 LIG-0.65  OA
ATOM     28 OD2  ASP E   2      -1.277  -4.915  -9.776  1.00 38.36 LIG-0.65  OA
ENDBRANCH 25 26
ENDBRANCH 1 25
BRANCH 1 29
ATOM     29  C   ASP E   2       0.127  -7.674 -11.497  1.00 31.85 LIG 0.24  C 
ATOM     30 O    ASP E   2       0.282  -8.889 -11.356  1.00 30.99 LIG-0.27  OA
ATOM     31  N   LEU E   3      -0.954  -7.118 -12.049  1.00 29.32 LIG-0.35  N 
ATOM     32 H    LEU E   3      -1.038  -6.270 -12.166  1.00 29.32 LIG 0.16  HD
BRANCH 31 33
ATOM     33  CA  LEU E   3      -2.113  -7.890 -12.515  1.00 27.73 LIG 0.18  C 
BRANCH 33 34
ATOM     34  CB  LEU E   3      -3.344  -7.609 -11.630  1.00 28.26 LIG 0.04  C 
BRANCH 34 35
ATOM     35  CG  LEU E   3      -3.453  -8.356 -10.298  1.00 28.58 LIG-0.02  C 
ATOM     36  CD2 LEU E   3      -4.906  -8.573  -9.891  1.00 28.56 LIG 0.01  C 
ATOM     37  CD1 LEU E   3      -2.708  -7.600  -9.206  1.00 28.86 LIG 0.01  C 
ENDBRANCH 34 35
ENDBRANCH 33 34
BRANCH 33 38
ATOM     38  C   LEU E   3      -2.474  -7.616 -13.965  1.00 26.19 LIG 0.24  C 
ATOM     39  N   PHE E   4      -1.886  -6.565 -14.530  1.00 24.40 LIG-0.34  N 
ATOM     40 H    PHE E   4      -1.267  -6.107 -14.147  1.00 24.40 LIG 0.16  HD
ATOM     41 O    LEU E   3      -3.284  -8.340 -14.543  1.00 26.01 LIG-0.27  OA
BRANCH 39 42
ATOM     42  CA  PHE E   4      -2.234  -6.085 -15.861  1.00 23.80 LIG 0.19  C 
BRANCH 42 43
ATOM     43  C   PHE E   4      -1.922  -7.154 -16.906  1.00 24.08 LIG 0.20  C 
ATOM     44 O    PHE E   4      -2.617  -7.307 -17.913  1.00 22.36 LIG-0.65  OA
ATOM     45 OXT  PHE E   4      -0.984  -7.923 -16.720  1.00 24.21 LIG-0.65  OA
ENDBRANCH 42 43
BRANCH 42 46
ATOM     46  CB  PHE E   4      -1.426  -4.826 -16.200  1.00 23.46 LIG 0.07  C 
BRANCH 46 47
ATOM     47  CG  PHE E   4       0.063  -5.072 -16.322  1.00 22.76 LIG-0.06  A 
ATOM     48  CD1 PHE E   4       0.763  -5.721 -15.317  1.00 22.71 LIG 0.01  A 
ATOM     49  CE1 PHE E   4       2.126  -5.941 -15.425  1.00 22.42 LIG 0.00  A 
ATOM     50  CZ  PHE E   4       2.808  -5.497 -16.547  1.00 22.02 LIG 0.00  A 
ATOM     51  CE2 PHE E   4       2.125  -4.841 -17.553  1.00 22.12 LIG 0.00  A 
ATOM     52  CD2 PHE E   4       0.762  -4.631 -17.438  1.00 22.51 LIG 0.01  A 
ENDBRANCH 46 47
ENDBRANCH 42 46
ENDBRANCH 39 42
ENDBRANCH 33 38
ENDBRANCH 31 33
ENDBRANCH 1 29
TORSDOF 19
ENDMDL
MODEL 29
USER: ADFR SOLUTION from run 133
USER: SCORE 14.983005 LL:  -3.767 LR: -12.092 RR:   0.000 FEB:  -6.425
USER: RMSD 9.634881
USER: SEED 132
USER: STATUS no improvement in best in 6 clusters for 5 generations
USER: GENES 21
USER: genes 0 Translation |==|  0.30984 0.51647 0.61995
USER: genes 1 Rotation |==|  0.12280 0.35763 0.65347 0.75277
USER: genes 2 Torsion [CB]-CA--N-[C] |==|  0.78299
USER: genes 3 Torsion [N]-C--CA-[N] |==|  0.90797
USER: genes 4 Torsion [C]-CA--N-[C] |==|  0.85907
USER: genes 5 Torsion [N]-C--CA-[N] |==|  0.94444
USER: genes 6 Torsion [C]-CA--N-[C] |==|  0.82383
USER: genes 7 Torsion [C]-CA--CB-[CG] |==|  0.89769
USER: genes 8 Torsion [CA]-CB--CG-[CD] |==|  0.72137
USER: genes 9 Torsion [CB]-CG--CD-[OE1] |==|  0.85877
USER: genes 10 Torsion [N]-CA--CB-[CG] |==|  0.61617
USER: genes 11 Torsion [CA]-CB--CG-[OD1] |==|  0.01441
USER: genes 12 Torsion [N]-CA--C-[N] |==|  0.14509
USER: genes 13 Torsion [C]-N--CA-[C] |==|  0.64338
USER: genes 14 Torsion [N]-CA--CB-[CG] |==|  0.74674
USER: genes 15 Torsion [CA]-CB--CG-[CD2] |==|  0.98992
USER: genes 16 Torsion [N]-CA--C-[N] |==|  0.98606
USER: genes 17 Torsion [C]-N--CA-[CB] |==|  0.81693
USER: genes 18 Torsion [N]-CA--C-[O] |==|  0.60076
USER: genes 19 Torsion [N]-CA--CB-[CG] |==|  0.63554
USER: genes 20 Torsion [CA]-CB--CG-[CD2] |==|  0.28135
ROOT
ATOM      1  CA  ASP E   2      -1.086  -5.085  -9.685  1.00 33.44 LIG 0.19  C 
ENDROOT
BRANCH 1 2
ATOM      2  N   ASP E   2      -1.358  -6.354  -8.997  1.00 33.24 LIG-0.35  N 
ATOM      3 H    ASP E   2      -2.182  -6.601  -9.016  1.00 33.24 LIG 0.16  HD
ATOM      4  C   ALA E   1      -0.387  -7.047  -8.398  1.00 32.93 LIG 0.24  C 
ATOM      5 O    ALA E   1       0.763  -6.624  -8.284  1.00 31.71 LIG-0.27  OA
BRANCH 4 6
ATOM      6  CA  ALA E   1      -0.764  -8.413  -7.831  1.00 33.97 LIG 0.17  C 
ATOM      7  CB  ALA E   1      -0.588  -9.496  -8.889  1.00 34.31 LIG 0.04  C 
BRANCH 6 8
ATOM      8  N   ALA E   1      -2.148  -8.394  -7.348  1.00 34.07 LIG-0.35  N 
ATOM      9  C   GLN E   0      -2.617  -7.456  -6.521  1.00 34.65 LIG 0.24  C 
ATOM     10 O    GLN E   0      -1.928  -6.543  -6.059  1.00 33.74 LIG-0.27  OA
ATOM     11 H    ALA E   1      -2.628  -9.042  -7.647  1.00 34.07 LIG 0.16  HD
BRANCH 9 12
ATOM     12  CA  GLN E   0      -4.105  -7.542  -6.183  1.00 34.37 LIG 0.18  C 
BRANCH 12 13
ATOM     13  N   GLN E   0      -4.878  -8.357  -7.195  1.00 34.90 LIG-0.35  N 
ATOM     14  C   ACE E  -1      -5.016  -8.021  -8.507  1.00 34.22 LIG 0.21  C 
ATOM     15  CH3 ACE E  -1      -5.743  -9.106  -9.289  1.00 34.51 LIG 0.12  C 
ATOM     16 O    ACE E  -1      -4.000  -7.593  -9.049  1.00 33.28 LIG-0.27  OA
ATOM     17 H    GLN E   0      -5.229  -9.067  -6.859  1.00 34.90 LIG 0.16  HD
ENDBRANCH 12 13
BRANCH 12 18
ATOM     18  CB  GLN E   0      -4.253  -8.141  -4.779  1.00 34.11 LIG 0.04  C 
BRANCH 18 19
ATOM     19  CG  GLN E   0      -3.238  -9.230  -4.452  1.00 32.87 LIG 0.10  C 
BRANCH 19 20
ATOM     20  CD  GLN E   0      -3.819 -10.622  -4.598  1.00 32.43 LIG 0.21  C 
ATOM     21 OE1  GLN E   0      -4.881 -10.913  -4.054  1.00 31.11 LIG-0.27  OA
ATOM     22  NE2 GLN E   0      -3.123 -11.494  -5.321  1.00 32.01 LIG-0.37  N 
ATOM     23 22HE GLN E   0      -3.412 -12.297  -5.421  1.00 32.01 LIG 0.16  HD
ATOM     24 21HE GLN E   0      -2.383 -11.255  -5.688  1.00 32.01 LIG 0.16  HD
ENDBRANCH 19 20
ENDBRANCH 18 19
ENDBRANCH 12 18
ENDBRANCH 9 12
ENDBRANCH 6 8
ENDBRANCH 4 6
ENDBRANCH 1 2
BRANCH 1 25
ATOM     25  CB  ASP E   2      -0.939  -3.950  -8.673  1.00 34.81 LIG 0.15  C 
BRANCH 25 26
ATOM     26  CG  ASP E   2      -1.634  -2.688  -9.132  1.00 36.48 LIG 0.17  C 
ATOM     27 OD1  ASP E   2      -2.306  -2.736 -10.184  1.00 36.59 LIG-0.65  OA
ATOM     28 OD2  ASP E   2      -1.487  -1.644  -8.458  1.00 38.36 LIG-0.65  OA
ENDBRANCH 25 26
ENDBRANCH 1 25
BRANCH 1 29
ATOM     29  C   ASP E   2       0.126  -5.121 -10.599  1.00 31.85 LIG 0.24  C 
ATOM     30 O    ASP E   2       1.014  -4.270 -10.508  1.00 30.99 LIG-0.27  OA
ATOM     31  N   LEU E   3       0.137  -6.119 -11.487  1.00 29.32 LIG-0.35  N 
ATOM     32 H    LEU E   3      -0.502  -6.690 -11.558  1.00 29.32 LIG 0.16  HD
BRANCH 31 33
ATOM     33  CA  LEU E   3       1.235  -6.348 -12.434  1.00 27.73 LIG 0.18  C 
BRANCH 33 34
ATOM     34  CB  LEU E   3       2.032  -7.610 -12.045  1.00 28.26 LIG 0.04  C 
BRANCH 34 35
ATOM     35  CG  LEU E   3       3.238  -7.436 -11.119  1.00 28.58 LIG-0.02  C 
ATOM     36  CD2 LEU E   3       3.497  -5.967 -10.801  1.00 28.56 LIG 0.01  C 
ATOM     37  CD1 LEU E   3       4.478  -8.064 -11.743  1.00 28.86 LIG 0.01  C 
ENDBRANCH 34 35
ENDBRANCH 33 34
BRANCH 33 38
ATOM     38  C   LEU E   3       0.769  -6.483 -13.873  1.00 26.19 LIG 0.24  C 
ATOM     39  N   PHE E   4      -0.547  -6.482 -14.069  1.00 24.40 LIG-0.34  N 
ATOM     40 H    PHE E   4      -1.118  -6.325 -13.445  1.00 24.40 LIG 0.16  HD
ATOM     41 O    LEU E   3       1.595  -6.602 -14.778  1.00 26.01 LIG-0.27  OA
BRANCH 39 42
ATOM     42  CA  PHE E   4      -1.154  -6.747 -15.367  1.00 23.80 LIG 0.19  C 
BRANCH 42 43
ATOM     43  C   PHE E   4      -0.642  -8.071 -15.929  1.00 24.08 LIG 0.20  C 
ATOM     44 O    PHE E   4      -0.435  -8.234 -17.134  1.00 22.36 LIG-0.65  OA
ATOM     45 OXT  PHE E   4      -0.478  -9.023 -15.173  1.00 24.21 LIG-0.65  OA
ENDBRANCH 42 43
BRANCH 42 46
ATOM     46  CB  PHE E   4      -0.797  -5.630 -16.358  1.00 23.46 LIG 0.07  C 
BRANCH 46 47
ATOM     47  CG  PHE E   4      -1.990  -5.080 -17.111  1.00 22.76 LIG-0.06  A 
ATOM     48  CD1 PHE E   4      -2.515  -5.754 -18.203  1.00 22.71 LIG 0.01  A 
ATOM     49  CE1 PHE E   4      -3.602  -5.249 -18.897  1.00 22.42 LIG 0.00  A 
ATOM     50  CZ  PHE E   4      -4.170  -4.047 -18.506  1.00 22.02 LIG 0.00  A 
ATOM     51  CE2 PHE E   4      -3.652  -3.361 -17.424  1.00 22.12 LIG 0.00  A 
ATOM     52  CD2 PHE E   4      -2.569  -3.877 -16.734  1.00 22.51 LIG 0.01  A 
ENDBRANCH 46 47
ENDBRANCH 42 46
ENDBRANCH 39 42
ENDBRANCH 33 38
ENDBRANCH 31 33
ENDBRANCH 1 29
TORSDOF 19
ENDMDL
MODEL 30
USER: ADFR SOLUTION from run 30
USER: SCORE 13.967507 LL:  -4.096 LR: -12.067 RR:   0.000 FEB:  -6.399
USER: RMSD 2.953027
USER: SEED 29
USER: STATUS no improvement in best in 13 clusters for 5 generations
USER: GENES 21
USER: genes 0 Translation |==|  0.48531 0.43233 0.53469
USER: genes 1 Rotation |==|  0.48685 0.57607 0.34851 0.97020
USER: genes 2 Torsion [CB]-CA--N-[C] |==|  0.27206
USER: genes 3 Torsion [N]-C--CA-[N] |==|  0.15975
USER: genes 4 Torsion [C]-CA--N-[C] |==|  0.15209
USER: genes 5 Torsion [N]-C--CA-[N] |==|  0.84651
USER: genes 6 Torsion [C]-CA--N-[C] |==|  0.60603
USER: genes 7 Torsion [C]-CA--CB-[CG] |==|  0.84166
USER: genes 8 Torsion [CA]-CB--CG-[CD] |==|  0.80383
USER: genes 9 Torsion [CB]-CG--CD-[OE1] |==|  0.93729
USER: genes 10 Torsion [N]-CA--CB-[CG] |==|  0.07323
USER: genes 11 Torsion [CA]-CB--CG-[OD1] |==|  0.63472
USER: genes 12 Torsion [N]-CA--C-[N] |==|  0.31852
USER: genes 13 Torsion [C]-N--CA-[C] |==|  0.79728
USER: genes 14 Torsion [N]-CA--CB-[CG] |==|  0.95089
USER: genes 15 Torsion [CA]-CB--CG-[CD2] |==|  0.71010
USER: genes 16 Torsion [N]-CA--C-[N] |==|  0.89406
USER: genes 17 Torsion [C]-N--CA-[CB] |==|  0.19349
USER: genes 18 Torsion [N]-CA--C-[O] |==|  0.39840
USER: genes 19 Torsion [N]-CA--CB-[CG] |==|  0.17339
USER: genes 20 Torsion [CA]-CB--CG-[CD2] |==|  0.75923
ROOT
ATOM      1  CA  ASP E   2       3.388  -6.474 -10.964  1.00 33.44 LIG 0.19  C 
ENDROOT
BRANCH 1 2
ATOM      2  N   ASP E   2       2.062  -5.942 -11.306  1.00 33.24 LIG-0.35  N 
ATOM      3 H    ASP E   2       1.847  -6.029 -12.134  1.00 33.24 LIG 0.16  HD
ATOM      4  C   ALA E   1       1.278  -5.374 -10.387  1.00 32.93 LIG 0.24  C 
ATOM      5 O    ALA E   1       1.649  -5.158  -9.234  1.00 31.71 LIG-0.27  OA
BRANCH 4 6
ATOM      6  CA  ALA E   1      -0.127  -4.978 -10.831  1.00 33.97 LIG 0.17  C 
ATOM      7  CB  ALA E   1      -0.896  -4.357  -9.669  1.00 34.31 LIG 0.04  C 
BRANCH 6 8
ATOM      8  N   ALA E   1      -0.843  -6.148 -11.346  1.00 34.07 LIG-0.35  N 
ATOM      9  C   GLN E   0      -0.995  -7.275 -10.645  1.00 34.65 LIG 0.24  C 
ATOM     10 O    GLN E   0      -0.523  -7.450  -9.519  1.00 33.74 LIG-0.27  OA
ATOM     11 H    ALA E   1      -1.155  -6.042 -12.140  1.00 34.07 LIG 0.16  HD
BRANCH 9 12
ATOM     12  CA  GLN E   0      -1.839  -8.366 -11.302  1.00 34.37 LIG 0.18  C 
BRANCH 12 13
ATOM     13  N   GLN E   0      -3.214  -7.874 -11.691  1.00 34.90 LIG-0.35  N 
ATOM     14  C   ACE E  -1      -4.352  -8.612 -11.583  1.00 34.22 LIG 0.21  C 
ATOM     15  CH3 ACE E  -1      -5.586  -7.794 -11.937  1.00 34.51 LIG 0.12  C 
ATOM     16 O    ACE E  -1      -4.454  -9.271 -10.550  1.00 33.28 LIG-0.27  OA
ATOM     17 H    GLN E   0      -3.211  -7.068 -11.994  1.00 34.90 LIG 0.16  HD
ENDBRANCH 12 13
BRANCH 12 18
ATOM     18  CB  GLN E   0      -1.085  -8.892 -12.530  1.00 34.11 LIG 0.04  C 
BRANCH 18 19
ATOM     19  CG  GLN E   0      -0.733  -7.821 -13.556  1.00 32.87 LIG 0.10  C 
BRANCH 19 20
ATOM     20  CD  GLN E   0      -1.954  -7.306 -14.292  1.00 32.43 LIG 0.21  C 
ATOM     21 OE1  GLN E   0      -2.973  -7.988 -14.361  1.00 31.11 LIG-0.27  OA
ATOM     22  NE2 GLN E   0      -1.855  -6.107 -14.859  1.00 32.01 LIG-0.37  N 
ATOM     23 22HE GLN E   0      -2.521  -5.781 -15.294  1.00 32.01 LIG 0.16  HD
ATOM     24 21HE GLN E   0      -1.125  -5.657 -14.790  1.00 32.01 LIG 0.16  HD
ENDBRANCH 19 20
ENDBRANCH 18 19
ENDBRANCH 12 18
ENDBRANCH 9 12
ENDBRANCH 6 8
ENDBRANCH 4 6
ENDBRANCH 1 2
BRANCH 1 25
ATOM     25  CB  ASP E   2       3.317  -7.984 -10.743  1.00 34.81 LIG 0.15  C 
BRANCH 25 26
ATOM     26  CG  ASP E   2       2.176  -8.615 -11.510  1.00 36.48 LIG 0.17  C 
ATOM     27 OD1  ASP E   2       1.419  -9.398 -10.898  1.00 36.59 LIG-0.65  OA
ATOM     28 OD2  ASP E   2       2.054  -8.351 -12.727  1.00 38.36 LIG-0.65  OA
ENDBRANCH 25 26
ENDBRANCH 1 25
BRANCH 1 29
ATOM     29  C   ASP E   2       4.469  -6.151 -11.982  1.00 31.85 LIG 0.24  C 
ATOM     30 O    ASP E   2       4.424  -6.618 -13.122  1.00 30.99 LIG-0.27  OA
ATOM     31  N   LEU E   3       5.443  -5.351 -11.541  1.00 29.32 LIG-0.35  N 
ATOM     32 H    LEU E   3       5.476  -5.054 -10.734  1.00 29.32 LIG 0.16  HD
BRANCH 31 33
ATOM     33  CA  LEU E   3       6.558  -4.894 -12.379  1.00 27.73 LIG 0.18  C 
BRANCH 33 34
ATOM     34  CB  LEU E   3       7.280  -3.702 -11.719  1.00 28.26 LIG 0.04  C 
BRANCH 34 35
ATOM     35  CG  LEU E   3       6.542  -2.943 -10.613  1.00 28.58 LIG-0.02  C 
ATOM     36  CD2 LEU E   3       6.007  -1.604 -11.109  1.00 28.56 LIG 0.01  C 
ATOM     37  CD1 LEU E   3       7.460  -2.732  -9.415  1.00 28.86 LIG 0.01  C 
ENDBRANCH 34 35
ENDBRANCH 33 34
BRANCH 33 38
ATOM     38  C   LEU E   3       7.573  -5.984 -12.674  1.00 26.19 LIG 0.24  C 
ATOM     39  N   PHE E   4       7.840  -6.827 -11.680  1.00 24.40 LIG-0.34  N 
ATOM     40 H    PHE E   4       7.410  -6.830 -10.935  1.00 24.40 LIG 0.16  HD
ATOM     41 O    LEU E   3       8.111  -6.040 -13.781  1.00 26.01 LIG-0.27  OA
BRANCH 39 42
ATOM     42  CA  PHE E   4       8.891  -7.833 -11.756  1.00 23.80 LIG 0.19  C 
BRANCH 42 43
ATOM     43  C   PHE E   4       8.799  -8.785 -10.566  1.00 24.08 LIG 0.20  C 
ATOM     44 O    PHE E   4       9.044  -9.989 -10.671  1.00 22.36 LIG-0.65  OA
ATOM     45 OXT  PHE E   4       8.418  -8.358  -9.481  1.00 24.21 LIG-0.65  OA
ENDBRANCH 42 43
BRANCH 42 46
ATOM     46  CB  PHE E   4      10.271  -7.162 -11.734  1.00 23.46 LIG 0.07  C 
BRANCH 46 47
ATOM     47  CG  PHE E   4      10.555  -6.395 -10.459  1.00 22.76 LIG-0.06  A 
ATOM     48  CD1 PHE E   4      11.199  -7.001  -9.392  1.00 22.71 LIG 0.01  A 
ATOM     49  CE1 PHE E   4      11.454  -6.303  -8.223  1.00 22.42 LIG 0.00  A 
ATOM     50  CZ  PHE E   4      11.051  -4.982  -8.109  1.00 22.02 LIG 0.00  A 
ATOM     51  CE2 PHE E   4      10.400  -4.368  -9.162  1.00 22.12 LIG 0.00  A 
ATOM     52  CD2 PHE E   4      10.155  -5.073 -10.328  1.00 22.51 LIG 0.01  A 
ENDBRANCH 46 47
ENDBRANCH 42 46
ENDBRANCH 39 42
ENDBRANCH 33 38
ENDBRANCH 31 33
ENDBRANCH 1 29
TORSDOF 19
ENDMDL
MODEL 31
USER: ADFR SOLUTION from run 143
USER: SCORE 14.578785 LL:  -2.896 LR: -12.034 RR:   0.000 FEB:  -6.366
USER: RMSD 2.253608
USER: SEED 142
USER: STATUS no improvement in best in 5 clusters for 5 generations
USER: GENES 21
USER: genes 0 Translation |==|  0.52600 0.42937 0.47581
USER: genes 1 Rotation |==|  0.48627 0.51305 0.42950 0.99464
USER: genes 2 Torsion [CB]-CA--N-[C] |==|  0.83171
USER: genes 3 Torsion [N]-C--CA-[N] |==|  0.94551
USER: genes 4 Torsion [C]-CA--N-[C] |==|  0.80367
USER: genes 5 Torsion [N]-C--CA-[N] |==|  0.39553
USER: genes 6 Torsion [C]-CA--N-[C] |==|  0.76881
USER: genes 7 Torsion [C]-CA--CB-[CG] |==|  0.51000
USER: genes 8 Torsion [CA]-CB--CG-[CD] |==|  0.72396
USER: genes 9 Torsion [CB]-CG--CD-[OE1] |==|  0.32652
USER: genes 10 Torsion [N]-CA--CB-[CG] |==|  0.33374
USER: genes 11 Torsion [CA]-CB--CG-[OD1] |==|  0.22787
USER: genes 12 Torsion [N]-CA--C-[N] |==|  0.37683
USER: genes 13 Torsion [C]-N--CA-[C] |==|  0.74145
USER: genes 14 Torsion [N]-CA--CB-[CG] |==|  0.12192
USER: genes 15 Torsion [CA]-CB--CG-[CD2] |==|  0.60614
USER: genes 16 Torsion [N]-CA--C-[N] |==|  0.89248
USER: genes 17 Torsion [C]-N--CA-[CB] |==|  0.21723
USER: genes 18 Torsion [N]-CA--C-[O] |==|  0.03538
USER: genes 19 Torsion [N]-CA--CB-[CG] |==|  0.67627
USER: genes 20 Torsion [CA]-CB--CG-[CD2] |==|  0.40858
ROOT
ATOM      1  CA  ASP E   2       4.426  -6.522 -11.847  1.00 33.44 LIG 0.19  C 
ENDROOT
BRANCH 1 2
ATOM      2  N   ASP E   2       3.123  -6.463 -12.523  1.00 33.24 LIG-0.35  N 
ATOM      3 H    ASP E   2       2.520  -6.023 -12.096  1.00 33.24 LIG 0.16  HD
ATOM      4  C   ALA E   1       2.920  -7.054 -13.702  1.00 32.93 LIG 0.24  C 
ATOM      5 O    ALA E   1       3.759  -7.773 -14.243  1.00 31.71 LIG-0.27  OA
BRANCH 4 6
ATOM      6  CA  ALA E   1       1.568  -6.815 -14.369  1.00 33.97 LIG 0.17  C 
ATOM      7  CB  ALA E   1       1.702  -5.788 -15.489  1.00 34.31 LIG 0.04  C 
BRANCH 6 8
ATOM      8  N   ALA E   1       0.590  -6.360 -13.377  1.00 34.07 LIG-0.35  N 
ATOM      9  C   GLN E   0       0.091  -7.157 -12.429  1.00 34.65 LIG 0.24  C 
ATOM     10 O    GLN E   0       0.377  -8.352 -12.318  1.00 33.74 LIG-0.27  OA
ATOM     11 H    ALA E   1       0.368  -5.534 -13.463  1.00 34.07 LIG 0.16  HD
BRANCH 9 12
ATOM     12  CA  GLN E   0      -0.856  -6.498 -11.427  1.00 34.37 LIG 0.18  C 
BRANCH 12 13
ATOM     13  N   GLN E   0      -2.000  -7.406 -11.034  1.00 34.90 LIG-0.35  N 
ATOM     14  C   ACE E  -1      -3.143  -7.557 -11.758  1.00 34.22 LIG 0.21  C 
ATOM     15  CH3 ACE E  -1      -4.043  -8.632 -11.165  1.00 34.51 LIG 0.12  C 
ATOM     16 O    ACE E  -1      -2.987  -7.633 -12.975  1.00 33.28 LIG-0.27  OA
ATOM     17 H    GLN E   0      -1.859  -7.827 -10.297  1.00 34.90 LIG 0.16  HD
ENDBRANCH 12 13
BRANCH 12 18
ATOM     18  CB  GLN E   0      -0.048  -6.082 -10.192  1.00 34.11 LIG 0.04  C 
BRANCH 18 19
ATOM     19  CG  GLN E   0      -0.885  -5.485  -9.066  1.00 32.87 LIG 0.10  C 
BRANCH 19 20
ATOM     20  CD  GLN E   0      -0.838  -3.970  -9.055  1.00 32.43 LIG 0.21  C 
ATOM     21 OE1  GLN E   0      -1.862  -3.315  -9.230  1.00 31.11 LIG-0.27  OA
ATOM     22  NE2 GLN E   0       0.350  -3.405  -8.863  1.00 32.01 LIG-0.37  N 
ATOM     23 22HE GLN E   0       0.422  -2.548  -8.859  1.00 32.01 LIG 0.16  HD
ATOM     24 21HE GLN E   0       1.046  -3.896  -8.743  1.00 32.01 LIG 0.16  HD
ENDBRANCH 19 20
ENDBRANCH 18 19
ENDBRANCH 12 18
ENDBRANCH 9 12
ENDBRANCH 6 8
ENDBRANCH 4 6
ENDBRANCH 1 2
BRANCH 1 25
ATOM     25  CB  ASP E   2       4.806  -7.971 -11.547  1.00 34.81 LIG 0.15  C 
BRANCH 25 26
ATOM     26  CG  ASP E   2       6.104  -8.367 -12.217  1.00 36.48 LIG 0.17  C 
ATOM     27 OD1  ASP E   2       7.175  -8.053 -11.656  1.00 36.59 LIG-0.65  OA
ATOM     28 OD2  ASP E   2       6.052  -8.966 -13.315  1.00 38.36 LIG-0.65  OA
ENDBRANCH 25 26
ENDBRANCH 1 25
BRANCH 1 29
ATOM     29  C   ASP E   2       5.551  -5.839 -12.605  1.00 31.85 LIG 0.24  C 
ATOM     30 O    ASP E   2       5.693  -6.010 -13.818  1.00 30.99 LIG-0.27  OA
ATOM     31  N   LEU E   3       6.351  -5.071 -11.861  1.00 29.32 LIG-0.35  N 
ATOM     32 H    LEU E   3       6.257  -4.982 -11.010  1.00 29.32 LIG 0.16  HD
BRANCH 31 33
ATOM     33  CA  LEU E   3       7.473  -4.299 -12.410  1.00 27.73 LIG 0.18  C 
BRANCH 33 34
ATOM     34  CB  LEU E   3       7.623  -2.956 -11.666  1.00 28.26 LIG 0.04  C 
BRANCH 34 35
ATOM     35  CG  LEU E   3       7.513  -2.970 -10.139  1.00 28.58 LIG-0.02  C 
ATOM     36  CD2 LEU E   3       6.773  -1.743  -9.617  1.00 28.56 LIG 0.01  C 
ATOM     37  CD1 LEU E   3       8.899  -3.054  -9.511  1.00 28.86 LIG 0.01  C 
ENDBRANCH 34 35
ENDBRANCH 33 34
BRANCH 33 38
ATOM     38  C   LEU E   3       8.796  -5.043 -12.359  1.00 26.19 LIG 0.24  C 
ATOM     39  N   PHE E   4       9.019  -5.775 -11.270  1.00 24.40 LIG-0.34  N 
ATOM     40 H    PHE E   4       8.428  -5.907 -10.660  1.00 24.40 LIG 0.16  HD
ATOM     41 O    LEU E   3       9.598  -4.934 -13.287  1.00 26.01 LIG-0.27  OA
BRANCH 39 42
ATOM     42  CA  PHE E   4      10.294  -6.429 -11.005  1.00 23.80 LIG 0.19  C 
BRANCH 42 43
ATOM     43  C   PHE E   4      10.118  -7.522  -9.954  1.00 24.08 LIG 0.20  C 
ATOM     44 O    PHE E   4       9.005  -7.925  -9.609  1.00 22.36 LIG-0.65  OA
ATOM     45 OXT  PHE E   4      11.108  -7.982  -9.392  1.00 24.21 LIG-0.65  OA
ENDBRANCH 42 43
BRANCH 42 46
ATOM     46  CB  PHE E   4      11.314  -5.410 -10.479  1.00 23.46 LIG 0.07  C 
BRANCH 46 47
ATOM     47  CG  PHE E   4      12.508  -5.217 -11.390  1.00 22.76 LIG-0.06  A 
ATOM     48  CD1 PHE E   4      13.017  -6.273 -12.131  1.00 22.71 LIG 0.01  A 
ATOM     49  CE1 PHE E   4      14.113  -6.099 -12.960  1.00 22.42 LIG 0.00  A 
ATOM     50  CZ  PHE E   4      14.721  -4.857 -13.044  1.00 22.02 LIG 0.00  A 
ATOM     51  CE2 PHE E   4      14.229  -3.798 -12.305  1.00 22.12 LIG 0.00  A 
ATOM     52  CD2 PHE E   4      13.130  -3.981 -11.484  1.00 22.51 LIG 0.01  A 
ENDBRANCH 46 47
ENDBRANCH 42 46
ENDBRANCH 39 42
ENDBRANCH 33 38
ENDBRANCH 31 33
ENDBRANCH 1 29
TORSDOF 19
ENDMDL
MODEL 32
USER: ADFR SOLUTION from run 96
USER: SCORE 14.815385 LL:  -3.751 LR: -12.021 RR:   0.000 FEB:  -6.353
USER: RMSD 6.241057
USER: SEED 95
USER: STATUS no improvement in best in 11 clusters for 5 generations
USER: GENES 21
USER: genes 0 Translation |==|  0.36743 0.53414 0.57587
USER: genes 1 Rotation |==|  0.18877 0.34632 0.37971 0.83919
USER: genes 2 Torsion [CB]-CA--N-[C] |==|  0.83864
USER: genes 3 Torsion [N]-C--CA-[N] |==|  0.15005
USER: genes 4 Torsion [C]-CA--N-[C] |==|  0.59068
USER: genes 5 Torsion [N]-C--CA-[N] |==|  0.40562
USER: genes 6 Torsion [C]-CA--N-[C] |==|  0.79832
USER: genes 7 Torsion [C]-CA--CB-[CG] |==|  0.78753
USER: genes 8 Torsion [CA]-CB--CG-[CD] |==|  0.54132
USER: genes 9 Torsion [CB]-CG--CD-[OE1] |==|  0.07154
USER: genes 10 Torsion [N]-CA--CB-[CG] |==|  0.86616
USER: genes 11 Torsion [CA]-CB--CG-[OD1] |==|  0.29620
USER: genes 12 Torsion [N]-CA--C-[N] |==|  0.97749
USER: genes 13 Torsion [C]-N--CA-[C] |==|  0.79589
USER: genes 14 Torsion [N]-CA--CB-[CG] |==|  0.07173
USER: genes 15 Torsion [CA]-CB--CG-[CD2] |==|  0.61524
USER: genes 16 Torsion [N]-CA--C-[N] |==|  0.33334
USER: genes 17 Torsion [C]-N--CA-[CB] |==|  0.49764
USER: genes 18 Torsion [N]-CA--C-[O] |==|  0.42452
USER: genes 19 Torsion [N]-CA--CB-[CG] |==|  0.75892
USER: genes 20 Torsion [CA]-CB--CG-[CD2] |==|  0.96772
ROOT
ATOM      1  CA  ASP E   2       0.383  -4.794 -10.346  1.00 33.44 LIG 0.19  C 
ENDROOT
BRANCH 1 2
ATOM      2  N   ASP E   2      -0.575  -5.635 -11.075  1.00 33.24 LIG-0.35  N 
ATOM      3 H    ASP E   2      -0.937  -5.254 -11.756  1.00 33.24 LIG 0.16  HD
ATOM      4  C   ALA E   1      -0.844  -6.884 -10.691  1.00 32.93 LIG 0.24  C 
ATOM      5 O    ALA E   1      -0.402  -7.373  -9.651  1.00 31.71 LIG-0.27  OA
BRANCH 4 6
ATOM      6  CA  ALA E   1      -1.754  -7.705 -11.600  1.00 33.97 LIG 0.17  C 
ATOM      7  CB  ALA E   1      -1.883  -9.131 -11.075  1.00 34.31 LIG 0.04  C 
BRANCH 6 8
ATOM      8  N   ALA E   1      -1.228  -7.712 -12.967  1.00 34.07 LIG-0.35  N 
ATOM      9  C   GLN E   0      -2.010  -7.758 -14.048  1.00 34.65 LIG 0.24  C 
ATOM     10 O    GLN E   0      -3.241  -7.834 -14.000  1.00 33.74 LIG-0.27  OA
ATOM     11 H    ALA E   1      -0.369  -7.684 -13.008  1.00 34.07 LIG 0.16  HD
BRANCH 9 12
ATOM     12  CA  GLN E   0      -1.298  -7.676 -15.398  1.00 34.37 LIG 0.18  C 
BRANCH 12 13
ATOM     13  N   GLN E   0      -1.987  -8.499 -16.462  1.00 34.90 LIG-0.35  N 
ATOM     14  C   ACE E  -1      -1.967  -9.859 -16.513  1.00 34.22 LIG 0.21  C 
ATOM     15  CH3 ACE E  -1      -2.855 -10.390 -17.630  1.00 34.51 LIG 0.12  C 
ATOM     16 O    ACE E  -1      -2.108 -10.426 -15.433  1.00 33.28 LIG-0.27  OA
ATOM     17 H    GLN E   0      -2.400  -8.019 -17.045  1.00 34.90 LIG 0.16  HD
ENDBRANCH 12 13
BRANCH 12 18
ATOM     18  CB  GLN E   0      -1.219  -6.203 -15.819  1.00 34.11 LIG 0.04  C 
BRANCH 18 19
ATOM     19  CG  GLN E   0      -2.529  -5.633 -16.352  1.00 32.87 LIG 0.10  C 
BRANCH 19 20
ATOM     20  CD  GLN E   0      -2.330  -4.319 -17.081  1.00 32.43 LIG 0.21  C 
ATOM     21 OE1  GLN E   0      -1.250  -4.053 -17.602  1.00 31.11 LIG-0.27  OA
ATOM     22  NE2 GLN E   0      -3.364  -3.483 -17.110  1.00 32.01 LIG-0.37  N 
ATOM     23 22HE GLN E   0      -3.290  -2.722 -17.505  1.00 32.01 LIG 0.16  HD
ATOM     24 21HE GLN E   0      -4.105  -3.702 -16.734  1.00 32.01 LIG 0.16  HD
ENDBRANCH 19 20
ENDBRANCH 18 19
ENDBRANCH 12 18
ENDBRANCH 9 12
ENDBRANCH 6 8
ENDBRANCH 4 6
ENDBRANCH 1 2
BRANCH 1 25
ATOM     25  CB  ASP E   2      -0.043  -4.642  -8.887  1.00 34.81 LIG 0.15  C 
BRANCH 25 26
ATOM     26  CG  ASP E   2      -1.505  -4.274  -8.758  1.00 36.48 LIG 0.17  C 
ATOM     27 OD1  ASP E   2      -2.300  -5.153  -8.362  1.00 36.59 LIG-0.65  OA
ATOM     28 OD2  ASP E   2      -1.861  -3.118  -9.078  1.00 38.36 LIG-0.65  OA
ENDBRANCH 25 26
ENDBRANCH 1 25
BRANCH 1 29
ATOM     29  C   ASP E   2       1.819  -5.283 -10.416  1.00 31.85 LIG 0.24  C 
ATOM     30 O    ASP E   2       2.745  -4.593  -9.984  1.00 30.99 LIG-0.27  OA
ATOM     31  N   LEU E   3       1.982  -6.483 -10.978  1.00 29.32 LIG-0.35  N 
ATOM     32 H    LEU E   3       1.330  -6.943 -11.300  1.00 29.32 LIG 0.16  HD
BRANCH 31 33
ATOM     33  CA  LEU E   3       3.285  -7.147 -11.108  1.00 27.73 LIG 0.18  C 
BRANCH 33 34
ATOM     34  CB  LEU E   3       3.102  -8.647 -11.417  1.00 28.26 LIG 0.04  C 
BRANCH 34 35
ATOM     35  CG  LEU E   3       1.810  -9.080 -12.115  1.00 28.58 LIG-0.02  C 
ATOM     36  CD2 LEU E   3       1.255 -10.370 -11.522  1.00 28.56 LIG 0.01  C 
ATOM     37  CD1 LEU E   3       2.050  -9.250 -13.610  1.00 28.86 LIG 0.01  C 
ENDBRANCH 34 35
ENDBRANCH 33 34
BRANCH 33 38
ATOM     38  C   LEU E   3       4.171  -6.527 -12.175  1.00 26.19 LIG 0.24  C 
ATOM     39  N   PHE E   4       5.339  -6.041 -11.763  1.00 24.40 LIG-0.34  N 
ATOM     40 H    PHE E   4       5.636  -6.141 -10.962  1.00 24.40 LIG 0.16  HD
ATOM     41 O    LEU E   3       3.784  -6.482 -13.343  1.00 26.01 LIG-0.27  OA
BRANCH 39 42
ATOM     42  CA  PHE E   4       6.234  -5.290 -12.633  1.00 23.80 LIG 0.19  C 
BRANCH 42 43
ATOM     43  C   PHE E   4       6.675  -6.156 -13.811  1.00 24.08 LIG 0.20  C 
ATOM     44 O    PHE E   4       6.999  -5.668 -14.896  1.00 22.36 LIG-0.65  OA
ATOM     45 OXT  PHE E   4       6.660  -7.378 -13.700  1.00 24.21 LIG-0.65  OA
ENDBRANCH 42 43
BRANCH 42 46
ATOM     46  CB  PHE E   4       7.484  -4.852 -11.859  1.00 23.46 LIG 0.07  C 
BRANCH 46 47
ATOM     47  CG  PHE E   4       7.317  -3.537 -11.127  1.00 22.76 LIG-0.06  A 
ATOM     48  CD1 PHE E   4       8.242  -3.127 -10.179  1.00 22.71 LIG 0.01  A 
ATOM     49  CE1 PHE E   4       8.087  -1.927  -9.504  1.00 22.42 LIG 0.00  A 
ATOM     50  CZ  PHE E   4       6.988  -1.126  -9.767  1.00 22.02 LIG 0.00  A 
ATOM     51  CE2 PHE E   4       6.054  -1.527 -10.704  1.00 22.12 LIG 0.00  A 
ATOM     52  CD2 PHE E   4       6.220  -2.724 -11.376  1.00 22.51 LIG 0.01  A 
ENDBRANCH 46 47
ENDBRANCH 42 46
ENDBRANCH 39 42
ENDBRANCH 33 38
ENDBRANCH 31 33
ENDBRANCH 1 29
TORSDOF 19
ENDMDL
MODEL 33
USER: ADFR SOLUTION from run 170
USER: SCORE 14.870589 LL:  -3.221 LR: -11.993 RR:   0.000 FEB:  -6.325
USER: RMSD 10.369593
USER: SEED 169
USER: STATUS no improvement in best in 6 clusters for 5 generations
USER: GENES 21
USER: genes 0 Translation |==|  0.51684 0.42613 0.45248
USER: genes 1 Rotation |==|  0.38133 0.89471 0.78165 0.52817
USER: genes 2 Torsion [CB]-CA--N-[C] |==|  0.83328
USER: genes 3 Torsion [N]-C--CA-[N] |==|  0.95713
USER: genes 4 Torsion [C]-CA--N-[C] |==|  0.76382
USER: genes 5 Torsion [N]-C--CA-[N] |==|  0.41916
USER: genes 6 Torsion [C]-CA--N-[C] |==|  0.62830
USER: genes 7 Torsion [C]-CA--CB-[CG] |==|  0.35622
USER: genes 8 Torsion [CA]-CB--CG-[CD] |==|  0.57473
USER: genes 9 Torsion [CB]-CG--CD-[OE1] |==|  0.64816
USER: genes 10 Torsion [N]-CA--CB-[CG] |==|  0.82824
USER: genes 11 Torsion [CA]-CB--CG-[OD1] |==|  0.06896
USER: genes 12 Torsion [N]-CA--C-[N] |==|  0.39247
USER: genes 13 Torsion [C]-N--CA-[C] |==|  0.67961
USER: genes 14 Torsion [N]-CA--CB-[CG] |==|  0.17144
USER: genes 15 Torsion [CA]-CB--CG-[CD2] |==|  0.65445
USER: genes 16 Torsion [N]-CA--C-[N] |==|  0.07645
USER: genes 17 Torsion [C]-N--CA-[CB] |==|  0.48516
USER: genes 18 Torsion [N]-CA--C-[O] |==|  0.39045
USER: genes 19 Torsion [N]-CA--CB-[CG] |==|  0.68466
USER: genes 20 Torsion [CA]-CB--CG-[CD2] |==|  0.31645
ROOT
ATOM      1  CA  ASP E   2       4.192  -6.576 -12.197  1.00 33.44 LIG 0.19  C 
ENDROOT
BRANCH 1 2
ATOM      2  N   ASP E   2       5.530  -6.944 -11.714  1.00 33.24 LIG-0.35  N 
ATOM      3 H    ASP E   2       5.989  -6.287 -11.401  1.00 33.24 LIG 0.16  HD
ATOM      4  C   ALA E   1       5.973  -8.201 -11.771  1.00 32.93 LIG 0.24  C 
ATOM      5 O    ALA E   1       5.348  -9.105 -12.325  1.00 31.71 LIG-0.27  OA
BRANCH 4 6
ATOM      6  CA  ALA E   1       7.324  -8.486 -11.121  1.00 33.97 LIG 0.17  C 
ATOM      7  CB  ALA E   1       7.136  -9.253  -9.816  1.00 34.31 LIG 0.04  C 
BRANCH 6 8
ATOM      8  N   ALA E   1       8.040  -7.232 -10.875  1.00 34.07 LIG-0.35  N 
ATOM      9  C   GLN E   0       8.791  -6.629 -11.800  1.00 34.65 LIG 0.24  C 
ATOM     10 O    GLN E   0       8.982  -7.084 -12.931  1.00 33.74 LIG-0.27  OA
ATOM     11 H    ALA E   1       7.931  -6.921 -10.081  1.00 34.07 LIG 0.16  HD
BRANCH 9 12
ATOM     12  CA  GLN E   0       9.401  -5.286 -11.401  1.00 34.37 LIG 0.18  C 
BRANCH 12 13
ATOM     13  N   GLN E   0      10.707  -5.013 -12.111  1.00 34.90 LIG-0.35  N 
ATOM     14  C   ACE E  -1      11.833  -4.555 -11.497  1.00 34.22 LIG 0.21  C 
ATOM     15  CH3 ACE E  -1      13.012  -4.501 -12.458  1.00 34.51 LIG 0.12  C 
ATOM     16 O    ACE E  -1      12.082  -5.068 -10.409  1.00 33.28 LIG-0.27  OA
ATOM     17 H    GLN E   0      10.673  -5.177 -12.955  1.00 34.90 LIG 0.16  HD
ENDBRANCH 12 13
BRANCH 12 18
ATOM     18  CB  GLN E   0       8.381  -4.179 -11.700  1.00 34.11 LIG 0.04  C 
BRANCH 18 19
ATOM     19  CG  GLN E   0       8.103  -3.248 -10.524  1.00 32.87 LIG 0.10  C 
BRANCH 19 20
ATOM     20  CD  GLN E   0       6.720  -2.633 -10.592  1.00 32.43 LIG 0.21  C 
ATOM     21 OE1  GLN E   0       6.577  -1.415 -10.525  1.00 31.11 LIG-0.27  OA
ATOM     22  NE2 GLN E   0       5.693  -3.469 -10.710  1.00 32.01 LIG-0.37  N 
ATOM     23 22HE GLN E   0       4.890  -3.162 -10.742  1.00 32.01 LIG 0.16  HD
ATOM     24 21HE GLN E   0       5.831  -4.317 -10.754  1.00 32.01 LIG 0.16  HD
ENDBRANCH 19 20
ENDBRANCH 18 19
ENDBRANCH 12 18
ENDBRANCH 9 12
ENDBRANCH 6 8
ENDBRANCH 4 6
ENDBRANCH 1 2
BRANCH 1 25
ATOM     25  CB  ASP E   2       4.050  -6.909 -13.681  1.00 34.81 LIG 0.15  C 
BRANCH 25 26
ATOM     26  CG  ASP E   2       5.033  -6.137 -14.532  1.00 36.48 LIG 0.17  C 
ATOM     27 OD1  ASP E   2       6.088  -5.736 -13.995  1.00 36.59 LIG-0.65  OA
ATOM     28 OD2  ASP E   2       4.740  -5.908 -15.727  1.00 38.36 LIG-0.65  OA
ENDBRANCH 25 26
ENDBRANCH 1 25
BRANCH 1 29
ATOM     29  C   ASP E   2       3.054  -7.208 -11.414  1.00 31.85 LIG 0.24  C 
ATOM     30 O    ASP E   2       3.128  -8.374 -11.018  1.00 30.99 LIG-0.27  OA
ATOM     31  N   LEU E   3       1.998  -6.417 -11.210  1.00 29.32 LIG-0.35  N 
ATOM     32 H    LEU E   3       1.948  -5.613 -11.515  1.00 29.32 LIG 0.16  HD
BRANCH 31 33
ATOM     33  CA  LEU E   3       0.813  -6.827 -10.447  1.00 27.73 LIG 0.18  C 
BRANCH 33 34
ATOM     34  CB  LEU E   3       0.574  -5.871  -9.260  1.00 28.26 LIG 0.04  C 
BRANCH 34 35
ATOM     35  CG  LEU E   3       0.294  -4.400  -9.574  1.00 28.58 LIG-0.02  C 
ATOM     36  CD2 LEU E   3       1.274  -3.475  -8.859  1.00 28.56 LIG 0.01  C 
ATOM     37  CD1 LEU E   3      -1.138  -4.042  -9.195  1.00 28.86 LIG 0.01  C 
ENDBRANCH 34 35
ENDBRANCH 33 34
BRANCH 33 38
ATOM     38  C   LEU E   3      -0.449  -6.895 -11.289  1.00 26.19 LIG 0.24  C 
ATOM     39  N   PHE E   4      -0.282  -7.147 -12.585  1.00 24.40 LIG-0.34  N 
ATOM     40 H    PHE E   4       0.478  -7.352 -12.931  1.00 24.40 LIG 0.16  HD
ATOM     41 O    LEU E   3      -1.547  -6.705 -10.765  1.00 26.01 LIG-0.27  OA
BRANCH 39 42
ATOM     42  CA  PHE E   4      -1.375  -7.101 -13.547  1.00 23.80 LIG 0.19  C 
BRANCH 42 43
ATOM     43  C   PHE E   4      -2.387  -8.204 -13.249  1.00 24.08 LIG 0.20  C 
ATOM     44 O    PHE E   4      -3.603  -8.021 -13.349  1.00 22.36 LIG-0.65  OA
ATOM     45 OXT  PHE E   4      -1.991  -9.294 -12.846  1.00 24.21 LIG-0.65  OA
ENDBRANCH 42 43
BRANCH 42 46
ATOM     46  CB  PHE E   4      -0.839  -7.307 -14.970  1.00 23.46 LIG 0.07  C 
BRANCH 46 47
ATOM     47  CG  PHE E   4      -0.980  -6.087 -15.856  1.00 22.76 LIG-0.06  A 
ATOM     48  CD1 PHE E   4      -2.229  -5.631 -16.245  1.00 22.71 LIG 0.01  A 
ATOM     49  CE1 PHE E   4      -2.360  -4.519 -17.062  1.00 22.42 LIG 0.00  A 
ATOM     50  CZ  PHE E   4      -1.228  -3.857 -17.509  1.00 22.02 LIG 0.00  A 
ATOM     51  CE2 PHE E   4       0.024  -4.306 -17.135  1.00 22.12 LIG 0.00  A 
ATOM     52  CD2 PHE E   4       0.144  -5.415 -16.315  1.00 22.51 LIG 0.01  A 
ENDBRANCH 46 47
ENDBRANCH 42 46
ENDBRANCH 39 42
ENDBRANCH 33 38
ENDBRANCH 31 33
ENDBRANCH 1 29
TORSDOF 19
ENDMDL
MODEL 34
USER: ADFR SOLUTION from run 29
USER: SCORE 14.607525 LL:  -3.843 LR: -11.993 RR:   0.000 FEB:  -6.325
USER: RMSD 10.231165
USER: SEED 28
USER: STATUS no improvement in best in 4 clusters for 5 generations
USER: GENES 21
USER: genes 0 Translation |==|  0.51948 0.45126 0.23941
USER: genes 1 Rotation |==|  0.36325 0.95246 0.63955 0.58427
USER: genes 2 Torsion [CB]-CA--N-[C] |==|  0.83136
USER: genes 3 Torsion [N]-C--CA-[N] |==|  0.04805
USER: genes 4 Torsion [C]-CA--N-[C] |==|  0.76861
USER: genes 5 Torsion [N]-C--CA-[N] |==|  0.13333
USER: genes 6 Torsion [C]-CA--N-[C] |==|  0.54300
USER: genes 7 Torsion [C]-CA--CB-[CG] |==|  0.32764
USER: genes 8 Torsion [CA]-CB--CG-[CD] |==|  0.57436
USER: genes 9 Torsion [CB]-CG--CD-[OE1] |==|  0.08589
USER: genes 10 Torsion [N]-CA--CB-[CG] |==|  0.62956
USER: genes 11 Torsion [CA]-CB--CG-[OD1] |==|  0.40438
USER: genes 12 Torsion [N]-CA--C-[N] |==|  0.42143
USER: genes 13 Torsion [C]-N--CA-[C] |==|  0.86664
USER: genes 14 Torsion [N]-CA--CB-[CG] |==|  0.43675
USER: genes 15 Torsion [CA]-CB--CG-[CD2] |==|  0.73764
USER: genes 16 Torsion [N]-CA--C-[N] |==|  0.37888
USER: genes 17 Torsion [C]-N--CA-[CB] |==|  0.34781
USER: genes 18 Torsion [N]-CA--C-[O] |==|  0.23511
USER: genes 19 Torsion [N]-CA--CB-[CG] |==|  0.01128
USER: genes 20 Torsion [CA]-CB--CG-[CD2] |==|  0.25167
ROOT
ATOM      1  CA  ASP E   2       4.260  -6.161 -15.393  1.00 33.44 LIG 0.19  C 
ENDROOT
BRANCH 1 2
ATOM      2  N   ASP E   2       5.281  -6.296 -14.346  1.00 33.24 LIG-0.35  N 
ATOM      3 H    ASP E   2       5.782  -5.604 -14.246  1.00 33.24 LIG 0.16  HD
ATOM      4  C   ALA E   1       5.401  -7.412 -13.624  1.00 32.93 LIG 0.24  C 
ATOM      5 O    ALA E   1       4.751  -8.431 -13.857  1.00 31.71 LIG-0.27  OA
BRANCH 4 6
ATOM      6  CA  ALA E   1       6.410  -7.388 -12.480  1.00 33.97 LIG 0.17  C 
ATOM      7  CB  ALA E   1       5.843  -8.102 -11.257  1.00 34.31 LIG 0.04  C 
BRANCH 6 8
ATOM      8  N   ALA E   1       6.759  -6.005 -12.144  1.00 34.07 LIG-0.35  N 
ATOM      9  C   GLN E   0       7.686  -5.308 -12.805  1.00 34.65 LIG 0.24  C 
ATOM     10 O    GLN E   0       8.358  -5.768 -13.733  1.00 33.74 LIG-0.27  OA
ATOM     11 H    ALA E   1       6.312  -5.685 -11.483  1.00 34.07 LIG 0.16  HD
BRANCH 9 12
ATOM     12  CA  GLN E   0       7.866  -3.852 -12.376  1.00 34.37 LIG 0.18  C 
BRANCH 12 13
ATOM     13  N   GLN E   0       7.980  -3.706 -10.876  1.00 34.90 LIG-0.35  N 
ATOM     14  C   ACE E  -1       7.844  -2.527 -10.207  1.00 34.22 LIG 0.21  C 
ATOM     15  CH3 ACE E  -1       7.888  -2.731  -8.699  1.00 34.51 LIG 0.12  C 
ATOM     16 O    ACE E  -1       6.931  -1.804 -10.600  1.00 33.28 LIG-0.27  OA
ATOM     17 H    GLN E   0       8.141  -4.450 -10.475  1.00 34.90 LIG 0.16  HD
ENDBRANCH 12 13
BRANCH 12 18
ATOM     18  CB  GLN E   0       9.113  -3.289 -13.070  1.00 34.11 LIG 0.04  C 
BRANCH 18 19
ATOM     19  CG  GLN E   0       8.833  -2.120 -14.008  1.00 32.87 LIG 0.10  C 
BRANCH 19 20
ATOM     20  CD  GLN E   0       9.863  -2.011 -15.115  1.00 32.43 LIG 0.21  C 
ATOM     21 OE1  GLN E   0      10.416  -3.016 -15.552  1.00 31.11 LIG-0.27  OA
ATOM     22  NE2 GLN E   0      10.138  -0.790 -15.565  1.00 32.01 LIG-0.37  N 
ATOM     23 22HE GLN E   0      10.723  -0.683 -16.186  1.00 32.01 LIG 0.16  HD
ATOM     24 21HE GLN E   0       9.730  -0.108 -15.235  1.00 32.01 LIG 0.16  HD
ENDBRANCH 19 20
ENDBRANCH 18 19
ENDBRANCH 12 18
ENDBRANCH 9 12
ENDBRANCH 6 8
ENDBRANCH 4 6
ENDBRANCH 1 2
BRANCH 1 25
ATOM     25  CB  ASP E   2       4.464  -7.218 -16.477  1.00 34.81 LIG 0.15  C 
BRANCH 25 26
ATOM     26  CG  ASP E   2       4.384  -6.628 -17.867  1.00 36.48 LIG 0.17  C 
ATOM     27 OD1  ASP E   2       5.118  -7.113 -18.755  1.00 36.59 LIG-0.65  OA
ATOM     28 OD2  ASP E   2       3.611  -5.664 -18.064  1.00 38.36 LIG-0.65  OA
ENDBRANCH 25 26
ENDBRANCH 1 25
BRANCH 1 29
ATOM     29  C   ASP E   2       2.831  -6.219 -14.878  1.00 31.85 LIG 0.24  C 
ATOM     30 O    ASP E   2       2.550  -6.856 -13.861  1.00 30.99 LIG-0.27  OA
ATOM     31  N   LEU E   3       1.938  -5.547 -15.609  1.00 29.32 LIG-0.35  N 
ATOM     32 H    LEU E   3       2.144  -5.128 -16.332  1.00 29.32 LIG 0.16  HD
BRANCH 31 33
ATOM     33  CA  LEU E   3       0.516  -5.449 -15.261  1.00 27.73 LIG 0.18  C 
BRANCH 33 34
ATOM     34  CB  LEU E   3      -0.283  -4.809 -16.415  1.00 28.26 LIG 0.04  C 
BRANCH 34 35
ATOM     35  CG  LEU E   3      -1.785  -5.094 -16.488  1.00 28.58 LIG-0.02  C 
ATOM     36  CD2 LEU E   3      -2.092  -6.270 -17.409  1.00 28.56 LIG 0.01  C 
ATOM     37  CD1 LEU E   3      -2.536  -3.852 -16.954  1.00 28.86 LIG 0.01  C 
ENDBRANCH 34 35
ENDBRANCH 33 34
BRANCH 33 38
ATOM     38  C   LEU E   3      -0.110  -6.788 -14.910  1.00 26.19 LIG 0.24  C 
ATOM     39  N   PHE E   4      -0.910  -6.806 -13.848  1.00 24.40 LIG-0.34  N 
ATOM     40 H    PHE E   4      -1.145  -6.097 -13.422  1.00 24.40 LIG 0.16  HD
ATOM     41 O    LEU E   3       0.149  -7.783 -15.589  1.00 26.01 LIG-0.27  OA
BRANCH 39 42
ATOM     42  CA  PHE E   4      -1.468  -8.034 -13.299  1.00 23.80 LIG 0.19  C 
BRANCH 42 43
ATOM     43  C   PHE E   4      -2.988  -8.035 -13.444  1.00 24.08 LIG 0.20  C 
ATOM     44 O    PHE E   4      -3.546  -8.403 -14.480  1.00 22.36 LIG-0.65  OA
ATOM     45 OXT  PHE E   4      -3.681  -7.607 -12.526  1.00 24.21 LIG-0.65  OA
ENDBRANCH 42 43
BRANCH 42 46
ATOM     46  CB  PHE E   4      -1.124  -8.155 -11.809  1.00 23.46 LIG 0.07  C 
BRANCH 46 47
ATOM     47  CG  PHE E   4      -0.391  -6.953 -11.253  1.00 22.76 LIG-0.06  A 
ATOM     48  CD1 PHE E   4       0.994  -6.895 -11.265  1.00 22.71 LIG 0.01  A 
ATOM     49  CE1 PHE E   4       1.667  -5.799 -10.751  1.00 22.42 LIG 0.00  A 
ATOM     50  CZ  PHE E   4       0.950  -4.746 -10.205  1.00 22.02 LIG 0.00  A 
ATOM     51  CE2 PHE E   4      -0.431  -4.793 -10.180  1.00 22.12 LIG 0.00  A 
ATOM     52  CD2 PHE E   4      -1.093  -5.891 -10.701  1.00 22.51 LIG 0.01  A 
ENDBRANCH 46 47
ENDBRANCH 42 46
ENDBRANCH 39 42
ENDBRANCH 33 38
ENDBRANCH 31 33
ENDBRANCH 1 29
TORSDOF 19
ENDMDL
MODEL 35
USER: ADFR SOLUTION from run 51
USER: SCORE 13.696258 LL:  -3.205 LR: -11.988 RR:   0.000 FEB:  -6.320
USER: RMSD 11.422328
USER: SEED 50
USER: STATUS no improvement in best in 16 clusters for 5 generations
USER: GENES 21
USER: genes 0 Translation |==|  0.40339 0.41188 0.51722
USER: genes 1 Rotation |==|  0.48281 0.53285 0.99591 0.55197
USER: genes 2 Torsion [CB]-CA--N-[C] |==|  0.16095
USER: genes 3 Torsion [N]-C--CA-[N] |==|  0.47018
USER: genes 4 Torsion [C]-CA--N-[C] |==|  0.53792
USER: genes 5 Torsion [N]-C--CA-[N] |==|  0.92948
USER: genes 6 Torsion [C]-CA--N-[C] |==|  0.62784
USER: genes 7 Torsion [C]-CA--CB-[CG] |==|  0.47104
USER: genes 8 Torsion [CA]-CB--CG-[CD] |==|  0.30001
USER: genes 9 Torsion [CB]-CG--CD-[OE1] |==|  0.20706
USER: genes 10 Torsion [N]-CA--CB-[CG] |==|  0.60192
USER: genes 11 Torsion [CA]-CB--CG-[OD1] |==|  0.24645
USER: genes 12 Torsion [N]-CA--C-[N] |==|  0.66604
USER: genes 13 Torsion [C]-N--CA-[C] |==|  0.68729
USER: genes 14 Torsion [N]-CA--CB-[CG] |==|  0.70231
USER: genes 15 Torsion [CA]-CB--CG-[CD2] |==|  0.62740
USER: genes 16 Torsion [N]-CA--C-[N] |==|  0.96687
USER: genes 17 Torsion [C]-N--CA-[CB] |==|  0.32659
USER: genes 18 Torsion [N]-CA--C-[O] |==|  0.35611
USER: genes 19 Torsion [N]-CA--CB-[CG] |==|  0.63179
USER: genes 20 Torsion [CA]-CB--CG-[CD2] |==|  0.46786
ROOT
ATOM      1  CA  ASP E   2       1.300  -6.811 -11.226  1.00 33.44 LIG 0.19  C 
ENDROOT
BRANCH 1 2
ATOM      2  N   ASP E   2       2.602  -6.908 -11.898  1.00 33.24 LIG-0.35  N 
ATOM      3 H    ASP E   2       2.613  -7.433 -12.579  1.00 33.24 LIG 0.16  HD
ATOM      4  C   ALA E   1       3.665  -6.228 -11.465  1.00 32.93 LIG 0.24  C 
ATOM      5 O    ALA E   1       3.659  -5.571 -10.424  1.00 31.71 LIG-0.27  OA
BRANCH 4 6
ATOM      6  CA  ALA E   1       4.928  -6.305 -12.318  1.00 33.97 LIG 0.17  C 
ATOM      7  CB  ALA E   1       5.523  -7.708 -12.261  1.00 34.31 LIG 0.04  C 
BRANCH 6 8
ATOM      8  N   ALA E   1       5.908  -5.318 -11.859  1.00 34.07 LIG-0.35  N 
ATOM      9  C   GLN E   0       6.986  -4.977 -12.570  1.00 34.65 LIG 0.24  C 
ATOM     10 O    GLN E   0       7.276  -5.481 -13.658  1.00 33.74 LIG-0.27  OA
ATOM     11 H    ALA E   1       5.725  -4.979 -11.090  1.00 34.07 LIG 0.16  HD
BRANCH 9 12
ATOM     12  CA  GLN E   0       7.859  -3.871 -11.978  1.00 34.37 LIG 0.18  C 
BRANCH 12 13
ATOM     13  N   GLN E   0       7.083  -2.956 -11.059  1.00 34.90 LIG-0.35  N 
ATOM     14  C   ACE E  -1       7.157  -1.596 -11.089  1.00 34.22 LIG 0.21  C 
ATOM     15  CH3 ACE E  -1       6.164  -0.961 -10.126  1.00 34.51 LIG 0.12  C 
ATOM     16 O    ACE E  -1       7.174  -1.096 -12.211  1.00 33.28 LIG-0.27  OA
ATOM     17 H    GLN E   0       6.581  -3.380 -10.505  1.00 34.90 LIG 0.16  HD
ENDBRANCH 12 13
BRANCH 12 18
ATOM     18  CB  GLN E   0       9.030  -4.522 -11.231  1.00 34.11 LIG 0.04  C 
BRANCH 18 19
ATOM     19  CG  GLN E   0      10.120  -3.546 -10.801  1.00 32.87 LIG 0.10  C 
BRANCH 19 20
ATOM     20  CD  GLN E   0      10.124  -3.309  -9.305  1.00 32.43 LIG 0.21  C 
ATOM     21 OE1  GLN E   0      10.556  -4.168  -8.540  1.00 31.11 LIG-0.27  OA
ATOM     22  NE2 GLN E   0       9.629  -2.152  -8.875  1.00 32.01 LIG-0.37  N 
ATOM     23 22HE GLN E   0       9.604  -1.982  -8.033  1.00 32.01 LIG 0.16  HD
ATOM     24 21HE GLN E   0       9.335  -1.574  -9.440  1.00 32.01 LIG 0.16  HD
ENDBRANCH 19 20
ENDBRANCH 18 19
ENDBRANCH 12 18
ENDBRANCH 9 12
ENDBRANCH 6 8
ENDBRANCH 4 6
ENDBRANCH 1 2
BRANCH 1 25
ATOM     25  CB  ASP E   2       0.820  -5.361 -11.198  1.00 34.81 LIG 0.15  C 
BRANCH 25 26
ATOM     26  CG  ASP E   2       0.097  -5.027  -9.912  1.00 36.48 LIG 0.17  C 
ATOM     27 OD1  ASP E   2       0.774  -4.614  -8.947  1.00 36.59 LIG-0.65  OA
ATOM     28 OD2  ASP E   2      -1.140  -5.204  -9.858  1.00 38.36 LIG-0.65  OA
ENDBRANCH 25 26
ENDBRANCH 1 25
BRANCH 1 29
ATOM     29  C   ASP E   2       0.223  -7.699 -11.826  1.00 31.85 LIG 0.24  C 
ATOM     30 O    ASP E   2       0.367  -8.923 -11.879  1.00 30.99 LIG-0.27  OA
ATOM     31  N   LEU E   3      -0.853  -7.054 -12.284  1.00 29.32 LIG-0.35  N 
ATOM     32 H    LEU E   3      -0.930  -6.198 -12.265  1.00 29.32 LIG 0.16  HD
BRANCH 31 33
ATOM     33  CA  LEU E   3      -2.017  -7.733 -12.867  1.00 27.73 LIG 0.18  C 
BRANCH 33 34
ATOM     34  CB  LEU E   3      -3.309  -7.324 -12.130  1.00 28.26 LIG 0.04  C 
BRANCH 34 35
ATOM     35  CG  LEU E   3      -3.960  -8.354 -11.204  1.00 28.58 LIG-0.02  C 
ATOM     36  CD2 LEU E   3      -5.467  -8.435 -11.423  1.00 28.56 LIG 0.01  C 
ATOM     37  CD1 LEU E   3      -3.659  -8.020  -9.748  1.00 28.86 LIG 0.01  C 
ENDBRANCH 34 35
ENDBRANCH 33 34
BRANCH 33 38
ATOM     38  C   LEU E   3      -2.189  -7.463 -14.351  1.00 26.19 LIG 0.24  C 
ATOM     39  N   PHE E   4      -1.445  -6.486 -14.863  1.00 24.40 LIG-0.34  N 
ATOM     40 H    PHE E   4      -0.832  -6.077 -14.420  1.00 24.40 LIG 0.16  HD
ATOM     41 O    LEU E   3      -2.995  -8.124 -15.007  1.00 26.01 LIG-0.27  OA
BRANCH 39 42
ATOM     42  CA  PHE E   4      -1.598  -6.010 -16.232  1.00 23.80 LIG 0.19  C 
BRANCH 42 43
ATOM     43  C   PHE E   4      -0.275  -6.133 -16.984  1.00 24.08 LIG 0.20  C 
ATOM     44 O    PHE E   4      -0.195  -6.700 -18.077  1.00 22.36 LIG-0.65  OA
ATOM     45 OXT  PHE E   4       0.753  -5.705 -16.469  1.00 24.21 LIG-0.65  OA
ENDBRANCH 42 43
BRANCH 42 46
ATOM     46  CB  PHE E   4      -2.023  -4.536 -16.237  1.00 23.46 LIG 0.07  C 
BRANCH 46 47
ATOM     47  CG  PHE E   4      -3.182  -4.239 -17.166  1.00 22.76 LIG-0.06  A 
ATOM     48  CD1 PHE E   4      -3.599  -5.170 -18.104  1.00 22.71 LIG 0.01  A 
ATOM     49  CE1 PHE E   4      -4.655  -4.898 -18.958  1.00 22.42 LIG 0.00  A 
ATOM     50  CZ  PHE E   4      -5.299  -3.673 -18.887  1.00 22.02 LIG 0.00  A 
ATOM     51  CE2 PHE E   4      -4.888  -2.733 -17.961  1.00 22.12 LIG 0.00  A 
ATOM     52  CD2 PHE E   4      -3.836  -3.017 -17.109  1.00 22.51 LIG 0.01  A 
ENDBRANCH 46 47
ENDBRANCH 42 46
ENDBRANCH 39 42
ENDBRANCH 33 38
ENDBRANCH 31 33
ENDBRANCH 1 29
TORSDOF 19
ENDMDL
MODEL 36
USER: ADFR SOLUTION from run 59
USER: SCORE 14.495770 LL:  -3.780 LR: -11.983 RR:   0.000 FEB:  -6.316
USER: RMSD 10.135147
USER: SEED 58
USER: STATUS no improvement in best in 11 clusters for 5 generations
USER: GENES 21
USER: genes 0 Translation |==|  0.50384 0.37741 0.24212
USER: genes 1 Rotation |==|  0.43295 0.97912 0.61487 0.55246
USER: genes 2 Torsion [CB]-CA--N-[C] |==|  0.49094
USER: genes 3 Torsion [N]-C--CA-[N] |==|  0.50493
USER: genes 4 Torsion [C]-CA--N-[C] |==|  0.72181
USER: genes 5 Torsion [N]-C--CA-[N] |==|  0.39377
USER: genes 6 Torsion [C]-CA--N-[C] |==|  0.71576
USER: genes 7 Torsion [C]-CA--CB-[CG] |==|  0.39254
USER: genes 8 Torsion [CA]-CB--CG-[CD] |==|  0.20616
USER: genes 9 Torsion [CB]-CG--CD-[OE1] |==|  0.27891
USER: genes 10 Torsion [N]-CA--CB-[CG] |==|  0.61183
USER: genes 11 Torsion [CA]-CB--CG-[OD1] |==|  0.67959
USER: genes 12 Torsion [N]-CA--C-[N] |==|  0.49217
USER: genes 13 Torsion [C]-N--CA-[C] |==|  0.82778
USER: genes 14 Torsion [N]-CA--CB-[CG] |==|  0.82481
USER: genes 15 Torsion [CA]-CB--CG-[CD2] |==|  0.56645
USER: genes 16 Torsion [N]-CA--C-[N] |==|  0.42722
USER: genes 17 Torsion [C]-N--CA-[CB] |==|  0.37383
USER: genes 18 Torsion [N]-CA--C-[O] |==|  0.13853
USER: genes 19 Torsion [N]-CA--CB-[CG] |==|  0.90540
USER: genes 20 Torsion [CA]-CB--CG-[CD2] |==|  0.37062
ROOT
ATOM      1  CA  ASP E   2       3.861  -7.380 -15.352  1.00 33.44 LIG 0.19  C 
ENDROOT
BRANCH 1 2
ATOM      2  N   ASP E   2       5.001  -7.698 -14.482  1.00 33.24 LIG-0.35  N 
ATOM      3 H    ASP E   2       5.322  -8.489 -14.591  1.00 33.24 LIG 0.16  HD
ATOM      4  C   ALA E   1       5.479  -6.815 -13.604  1.00 32.93 LIG 0.24  C 
ATOM      5 O    ALA E   1       4.938  -5.732 -13.384  1.00 31.71 LIG-0.27  OA
BRANCH 4 6
ATOM      6  CA  ALA E   1       6.745  -7.209 -12.849  1.00 33.97 LIG 0.17  C 
ATOM      7  CB  ALA E   1       6.539  -8.532 -12.119  1.00 34.31 LIG 0.04  C 
BRANCH 6 8
ATOM      8  N   ALA E   1       7.114  -6.157 -11.899  1.00 34.07 LIG-0.35  N 
ATOM      9  C   GLN E   0       8.067  -5.255 -12.146  1.00 34.65 LIG 0.24  C 
ATOM     10 O    GLN E   0       8.748  -5.241 -13.175  1.00 33.74 LIG-0.27  OA
ATOM     11 H    ALA E   1       6.660  -6.175 -11.168  1.00 34.07 LIG 0.16  HD
BRANCH 9 12
ATOM     12  CA  GLN E   0       8.266  -4.178 -11.079  1.00 34.37 LIG 0.18  C 
BRANCH 12 13
ATOM     13  N   GLN E   0       9.723  -3.829 -10.880  1.00 34.90 LIG-0.35  N 
ATOM     14  C   ACE E  -1      10.482  -4.270  -9.839  1.00 34.22 LIG 0.21  C 
ATOM     15  CH3 ACE E  -1      11.937  -3.847  -9.989  1.00 34.51 LIG 0.12  C 
ATOM     16 O    ACE E  -1      10.321  -5.450  -9.536  1.00 33.28 LIG-0.27  OA
ATOM     17 H    GLN E   0      10.035  -3.316 -11.496  1.00 34.90 LIG 0.16  HD
ENDBRANCH 12 13
BRANCH 12 18
ATOM     18  CB  GLN E   0       7.463  -2.936 -11.485  1.00 34.11 LIG 0.04  C 
BRANCH 18 19
ATOM     19  CG  GLN E   0       6.785  -2.220 -10.321  1.00 32.87 LIG 0.10  C 
BRANCH 19 20
ATOM     20  CD  GLN E   0       7.771  -1.442  -9.472  1.00 32.43 LIG 0.21  C 
ATOM     21 OE1  GLN E   0       7.888  -0.228  -9.609  1.00 31.11 LIG-0.27  OA
ATOM     22  NE2 GLN E   0       8.495  -2.137  -8.599  1.00 32.01 LIG-0.37  N 
ATOM     23 22HE GLN E   0       9.072  -1.736  -8.104  1.00 32.01 LIG 0.16  HD
ATOM     24 21HE GLN E   0       8.385  -2.987  -8.530  1.00 32.01 LIG 0.16  HD
ENDBRANCH 19 20
ENDBRANCH 18 19
ENDBRANCH 12 18
ENDBRANCH 9 12
ENDBRANCH 6 8
ENDBRANCH 4 6
ENDBRANCH 1 2
BRANCH 1 25
ATOM     25  CB  ASP E   2       3.580  -8.537 -16.309  1.00 34.81 LIG 0.15  C 
BRANCH 25 26
ATOM     26  CG  ASP E   2       3.227  -8.052 -17.697  1.00 36.48 LIG 0.17  C 
ATOM     27 OD1  ASP E   2       2.078  -8.286 -18.128  1.00 36.59 LIG-0.65  OA
ATOM     28 OD2  ASP E   2       4.106  -7.464 -18.367  1.00 38.36 LIG-0.65  OA
ENDBRANCH 25 26
ENDBRANCH 1 25
BRANCH 1 29
ATOM     29  C   ASP E   2       2.592  -7.009 -14.603  1.00 31.85 LIG 0.24  C 
ATOM     30 O    ASP E   2       2.550  -7.048 -13.371  1.00 30.99 LIG-0.27  OA
ATOM     31  N   LEU E   3       1.560  -6.659 -15.375  1.00 29.32 LIG-0.35  N 
ATOM     32 H    LEU E   3       1.595  -6.661 -16.234  1.00 29.32 LIG 0.16  HD
BRANCH 31 33
ATOM     33  CA  LEU E   3       0.260  -6.233 -14.843  1.00 27.73 LIG 0.18  C 
BRANCH 33 34
ATOM     34  CB  LEU E   3      -0.674  -5.788 -15.987  1.00 28.26 LIG 0.04  C 
BRANCH 34 35
ATOM     35  CG  LEU E   3      -0.254  -4.575 -16.822  1.00 28.58 LIG-0.02  C 
ATOM     36  CD2 LEU E   3      -1.453  -3.901 -17.480  1.00 28.56 LIG 0.01  C 
ATOM     37  CD1 LEU E   3       0.761  -4.989 -17.880  1.00 28.86 LIG 0.01  C 
ENDBRANCH 34 35
ENDBRANCH 33 34
BRANCH 33 38
ATOM     38  C   LEU E   3      -0.437  -7.308 -14.028  1.00 26.19 LIG 0.24  C 
ATOM     39  N   PHE E   4      -1.292  -6.884 -13.101  1.00 24.40 LIG-0.34  N 
ATOM     40 H    PHE E   4      -1.521  -6.060 -13.011  1.00 24.40 LIG 0.16  HD
ATOM     41 O    LEU E   3      -0.183  -8.496 -14.233  1.00 26.01 LIG-0.27  OA
BRANCH 39 42
ATOM     42  CA  PHE E   4      -1.928  -7.779 -12.143  1.00 23.80 LIG 0.19  C 
BRANCH 42 43
ATOM     43  C   PHE E   4      -3.393  -7.996 -12.515  1.00 24.08 LIG 0.20  C 
ATOM     44 O    PHE E   4      -3.739  -8.310 -13.656  1.00 22.36 LIG-0.65  OA
ATOM     45 OXT  PHE E   4      -4.264  -7.802 -11.672  1.00 24.21 LIG-0.65  OA
ENDBRANCH 42 43
BRANCH 42 46
ATOM     46  CB  PHE E   4      -1.870  -7.177 -10.733  1.00 23.46 LIG 0.07  C 
BRANCH 46 47
ATOM     47  CG  PHE E   4      -0.616  -6.372 -10.466  1.00 22.76 LIG-0.06  A 
ATOM     48  CD1 PHE E   4       0.635  -6.873 -10.790  1.00 22.71 LIG 0.01  A 
ATOM     49  CE1 PHE E   4       1.784  -6.140 -10.540  1.00 22.42 LIG 0.00  A 
ATOM     50  CZ  PHE E   4       1.688  -4.892  -9.946  1.00 22.02 LIG 0.00  A 
ATOM     51  CE2 PHE E   4       0.447  -4.383  -9.610  1.00 22.12 LIG 0.00  A 
ATOM     52  CD2 PHE E   4      -0.694  -5.121  -9.869  1.00 22.51 LIG 0.01  A 
ENDBRANCH 46 47
ENDBRANCH 42 46
ENDBRANCH 39 42
ENDBRANCH 33 38
ENDBRANCH 31 33
ENDBRANCH 1 29
TORSDOF 19
ENDMDL
MODEL 37
USER: ADFR SOLUTION from run 196
USER: SCORE 14.146050 LL:  -3.546 LR: -11.973 RR:   0.000 FEB:  -6.305
USER: RMSD 10.695695
USER: SEED 195
USER: STATUS searching
USER: GENES 21
USER: genes 0 Translation |==|  0.41822 0.43967 0.60015
USER: genes 1 Rotation |==|  0.46401 0.60847 0.98468 0.54495
USER: genes 2 Torsion [CB]-CA--N-[C] |==|  0.82733
USER: genes 3 Torsion [N]-C--CA-[N] |==|  0.82510
USER: genes 4 Torsion [C]-CA--N-[C] |==|  0.65391
USER: genes 5 Torsion [N]-C--CA-[N] |==|  0.50000
USER: genes 6 Torsion [C]-CA--N-[C] |==|  0.55022
USER: genes 7 Torsion [C]-CA--CB-[CG] |==|  0.39815
USER: genes 8 Torsion [CA]-CB--CG-[CD] |==|  0.38219
USER: genes 9 Torsion [CB]-CG--CD-[OE1] |==|  0.66751
USER: genes 10 Torsion [N]-CA--CB-[CG] |==|  0.61121
USER: genes 11 Torsion [CA]-CB--CG-[OD1] |==|  0.25104
USER: genes 12 Torsion [N]-CA--C-[N] |==|  0.45319
USER: genes 13 Torsion [C]-N--CA-[C] |==|  0.78715
USER: genes 14 Torsion [N]-CA--CB-[CG] |==|  0.12399
USER: genes 15 Torsion [CA]-CB--CG-[CD2] |==|  0.76322
USER: genes 16 Torsion [N]-CA--C-[N] |==|  0.19695
USER: genes 17 Torsion [C]-N--CA-[CB] |==|  0.48267
USER: genes 18 Torsion [N]-CA--C-[O] |==|  0.74480
USER: genes 19 Torsion [N]-CA--CB-[CG] |==|  0.71199
USER: genes 20 Torsion [CA]-CB--CG-[CD2] |==|  0.26486
ROOT
ATOM      1  CA  ASP E   2       1.678  -6.352  -9.982  1.00 33.44 LIG 0.19  C 
ENDROOT
BRANCH 1 2
ATOM      2  N   ASP E   2       3.010  -6.620 -10.539  1.00 33.24 LIG-0.35  N 
ATOM      3 H    ASP E   2       3.628  -6.727  -9.950  1.00 33.24 LIG 0.16  HD
ATOM      4  C   ALA E   1       3.218  -6.685 -11.855  1.00 32.93 LIG 0.24  C 
ATOM      5 O    ALA E   1       2.347  -6.418 -12.683  1.00 31.71 LIG-0.27  OA
BRANCH 4 6
ATOM      6  CA  ALA E   1       4.614  -7.098 -12.314  1.00 33.97 LIG 0.17  C 
ATOM      7  CB  ALA E   1       4.965  -8.478 -11.769  1.00 34.31 LIG 0.04  C 
BRANCH 6 8
ATOM      8  N   ALA E   1       5.602  -6.110 -11.872  1.00 34.07 LIG-0.35  N 
ATOM      9  C   GLN E   0       6.436  -5.490 -12.710  1.00 34.65 LIG 0.24  C 
ATOM     10 O    GLN E   0       6.479  -5.712 -13.923  1.00 33.74 LIG-0.27  OA
ATOM     11 H    ALA E   1       5.594  -5.968 -11.024  1.00 34.07 LIG 0.16  HD
BRANCH 9 12
ATOM     12  CA  GLN E   0       7.346  -4.430 -12.091  1.00 34.37 LIG 0.18  C 
BRANCH 12 13
ATOM     13  N   GLN E   0       8.253  -3.783 -13.113  1.00 34.90 LIG-0.35  N 
ATOM     14  C   ACE E  -1       9.380  -3.084 -12.805  1.00 34.22 LIG 0.21  C 
ATOM     15  CH3 ACE E  -1      10.139  -2.667 -14.058  1.00 34.51 LIG 0.12  C 
ATOM     16 O    ACE E  -1      10.079  -3.578 -11.924  1.00 33.28 LIG-0.27  OA
ATOM     17 H    GLN E   0       7.987  -3.899 -13.923  1.00 34.90 LIG 0.16  HD
ENDBRANCH 12 13
BRANCH 12 18
ATOM     18  CB  GLN E   0       6.469  -3.376 -11.403  1.00 34.11 LIG 0.04  C 
BRANCH 18 19
ATOM     19  CG  GLN E   0       7.053  -2.823 -10.108  1.00 32.87 LIG 0.10  C 
BRANCH 19 20
ATOM     20  CD  GLN E   0       6.882  -1.321  -9.994  1.00 32.43 LIG 0.21  C 
ATOM     21 OE1  GLN E   0       7.863  -0.588  -9.901  1.00 31.11 LIG-0.27  OA
ATOM     22  NE2 GLN E   0       5.637  -0.855  -9.987  1.00 32.01 LIG-0.37  N 
ATOM     23 22HE GLN E   0       5.495  -0.010  -9.915  1.00 32.01 LIG 0.16  HD
ATOM     24 21HE GLN E   0       4.974  -1.398 -10.055  1.00 32.01 LIG 0.16  HD
ENDBRANCH 19 20
ENDBRANCH 18 19
ENDBRANCH 12 18
ENDBRANCH 9 12
ENDBRANCH 6 8
ENDBRANCH 4 6
ENDBRANCH 1 2
BRANCH 1 25
ATOM     25  CB  ASP E   2       1.182  -4.976 -10.421  1.00 34.81 LIG 0.15  C 
BRANCH 25 26
ATOM     26  CG  ASP E   2       0.468  -4.247  -9.305  1.00 36.48 LIG 0.17  C 
ATOM     27 OD1  ASP E   2       1.145  -3.512  -8.555  1.00 36.59 LIG-0.65  OA
ATOM     28 OD2  ASP E   2      -0.761  -4.430  -9.160  1.00 38.36 LIG-0.65  OA
ENDBRANCH 25 26
ENDBRANCH 1 25
BRANCH 1 29
ATOM     29  C   ASP E   2       0.639  -7.408 -10.321  1.00 31.85 LIG 0.24  C 
ATOM     30 O    ASP E   2       0.823  -8.205 -11.244  1.00 30.99 LIG-0.27  OA
ATOM     31  N   LEU E   3      -0.459  -7.388  -9.561  1.00 29.32 LIG-0.35  N 
ATOM     32 H    LEU E   3      -0.587  -6.809  -8.937  1.00 29.32 LIG 0.16  HD
BRANCH 31 33
ATOM     33  CA  LEU E   3      -1.562  -8.346  -9.705  1.00 27.73 LIG 0.18  C 
BRANCH 33 34
ATOM     34  CB  LEU E   3      -2.424  -8.378  -8.426  1.00 28.26 LIG 0.04  C 
BRANCH 34 35
ATOM     35  CG  LEU E   3      -2.804  -7.039  -7.788  1.00 28.58 LIG-0.02  C 
ATOM     36  CD2 LEU E   3      -1.714  -6.534  -6.849  1.00 28.56 LIG 0.01  C 
ATOM     37  CD1 LEU E   3      -4.124  -7.168  -7.038  1.00 28.86 LIG 0.01  C 
ENDBRANCH 34 35
ENDBRANCH 33 34
BRANCH 33 38
ATOM     38  C   LEU E   3      -2.457  -8.055 -10.897  1.00 26.19 LIG 0.24  C 
ATOM     39  N   PHE E   4      -1.934  -8.285 -12.098  1.00 24.40 LIG-0.34  N 
ATOM     40 H    PHE E   4      -1.169  -8.660 -12.216  1.00 24.40 LIG 0.16  HD
ATOM     41 O    LEU E   3      -3.594  -7.616 -10.719  1.00 26.01 LIG-0.27  OA
BRANCH 39 42
ATOM     42  CA  PHE E   4      -2.609  -7.922 -13.338  1.00 23.80 LIG 0.19  C 
BRANCH 42 43
ATOM     43  C   PHE E   4      -3.872  -8.761 -13.516  1.00 24.08 LIG 0.20  C 
ATOM     44 O    PHE E   4      -3.868  -9.828 -14.134  1.00 22.36 LIG-0.65  OA
ATOM     45 OXT  PHE E   4      -4.940  -8.342 -13.079  1.00 24.21 LIG-0.65  OA
ENDBRANCH 42 43
BRANCH 42 46
ATOM     46  CB  PHE E   4      -1.687  -8.174 -14.538  1.00 23.46 LIG 0.07  C 
BRANCH 46 47
ATOM     47  CG  PHE E   4      -1.075  -6.914 -15.112  1.00 22.76 LIG-0.06  A 
ATOM     48  CD1 PHE E   4      -1.755  -6.158 -16.054  1.00 22.71 LIG 0.01  A 
ATOM     49  CE1 PHE E   4      -1.194  -5.007 -16.585  1.00 22.42 LIG 0.00  A 
ATOM     50  CZ  PHE E   4       0.070  -4.609 -16.180  1.00 22.02 LIG 0.00  A 
ATOM     51  CE2 PHE E   4       0.762  -5.358 -15.247  1.00 22.12 LIG 0.00  A 
ATOM     52  CD2 PHE E   4       0.191  -6.502 -14.720  1.00 22.51 LIG 0.01  A 
ENDBRANCH 46 47
ENDBRANCH 42 46
ENDBRANCH 39 42
ENDBRANCH 33 38
ENDBRANCH 31 33
ENDBRANCH 1 29
TORSDOF 19
ENDMDL
MODEL 38
USER: ADFR SOLUTION from run 7
USER: SCORE 13.423036 LL:  -3.528 LR: -11.961 RR:   0.000 FEB:  -6.293
USER: RMSD 9.036868
USER: SEED 552615
USER: STATUS no improvement in best in 12 clusters for 5 generations
USER: GENES 21
USER: genes 0 Translation |==|  0.34230 0.49844 0.62905
USER: genes 1 Rotation |==|  0.10926 0.39967 0.73405 0.68020
USER: genes 2 Torsion [CB]-CA--N-[C] |==|  0.52001
USER: genes 3 Torsion [N]-C--CA-[N] |==|  0.21635
USER: genes 4 Torsion [C]-CA--N-[C] |==|  0.78913
USER: genes 5 Torsion [N]-C--CA-[N] |==|  0.88333
USER: genes 6 Torsion [C]-CA--N-[C] |==|  0.83453
USER: genes 7 Torsion [C]-CA--CB-[CG] |==|  0.66299
USER: genes 8 Torsion [CA]-CB--CG-[CD] |==|  0.26426
USER: genes 9 Torsion [CB]-CG--CD-[OE1] |==|  0.50609
USER: genes 10 Torsion [N]-CA--CB-[CG] |==|  0.74822
USER: genes 11 Torsion [CA]-CB--CG-[OD1] |==|  0.06155
USER: genes 12 Torsion [N]-CA--C-[N] |==|  0.27913
USER: genes 13 Torsion [C]-N--CA-[C] |==|  0.53850
USER: genes 14 Torsion [N]-CA--CB-[CG] |==|  0.76890
USER: genes 15 Torsion [CA]-CB--CG-[CD2] |==|  0.78611
USER: genes 16 Torsion [N]-CA--C-[N] |==|  0.10797
USER: genes 17 Torsion [C]-N--CA-[CB] |==|  0.85720
USER: genes 18 Torsion [N]-CA--C-[O] |==|  0.18309
USER: genes 19 Torsion [N]-CA--CB-[CG] |==|  0.90499
USER: genes 20 Torsion [CA]-CB--CG-[CD2] |==|  0.88938
ROOT
ATOM      1  CA  ASP E   2      -0.258  -5.383  -9.548  1.00 33.44 LIG 0.19  C 
ENDROOT
BRANCH 1 2
ATOM      2  N   ASP E   2      -0.191  -6.295  -8.399  1.00 33.24 LIG-0.35  N 
ATOM      3 H    ASP E   2      -0.163  -5.903  -7.634  1.00 33.24 LIG 0.16  HD
ATOM      4  C   ALA E   1      -0.174  -7.620  -8.557  1.00 32.93 LIG 0.24  C 
ATOM      5 O    ALA E   1      -0.100  -8.160  -9.661  1.00 31.71 LIG-0.27  OA
BRANCH 4 6
ATOM      6  CA  ALA E   1      -0.234  -8.467  -7.290  1.00 33.97 LIG 0.17  C 
ATOM      7  CB  ALA E   1       0.277  -9.877  -7.567  1.00 34.31 LIG 0.04  C 
BRANCH 6 8
ATOM      8  N   ALA E   1      -1.608  -8.515  -6.781  1.00 34.07 LIG-0.35  N 
ATOM      9  C   GLN E   0      -2.181  -7.497  -6.134  1.00 34.65 LIG 0.24  C 
ATOM     10 O    GLN E   0      -1.603  -6.438  -5.875  1.00 33.74 LIG-0.27  OA
ATOM     11 H    ALA E   1      -2.009  -9.260  -6.937  1.00 34.07 LIG 0.16  HD
BRANCH 9 12
ATOM     12  CA  GLN E   0      -3.646  -7.687  -5.745  1.00 34.37 LIG 0.18  C 
BRANCH 12 13
ATOM     13  N   GLN E   0      -4.454  -8.335  -6.846  1.00 34.90 LIG-0.35  N 
ATOM     14  C   ACE E  -1      -4.608  -7.812  -8.094  1.00 34.22 LIG 0.21  C 
ATOM     15  CH3 ACE E  -1      -5.372  -8.760  -9.007  1.00 34.51 LIG 0.12  C 
ATOM     16 O    ACE E  -1      -3.593  -7.330  -8.590  1.00 33.28 LIG-0.27  OA
ATOM     17 H    GLN E   0      -4.815  -9.079  -6.608  1.00 34.90 LIG 0.16  HD
ENDBRANCH 12 13
BRANCH 12 18
ATOM     18  CB  GLN E   0      -3.705  -8.529  -4.464  1.00 34.11 LIG 0.04  C 
BRANCH 18 19
ATOM     19  CG  GLN E   0      -4.496  -9.826  -4.602  1.00 32.87 LIG 0.10  C 
BRANCH 19 20
ATOM     20  CD  GLN E   0      -3.607 -11.011  -4.919  1.00 32.43 LIG 0.21  C 
ATOM     21 OE1  GLN E   0      -4.094 -12.123  -5.102  1.00 31.11 LIG-0.27  OA
ATOM     22  NE2 GLN E   0      -2.297 -10.786  -4.974  1.00 32.01 LIG-0.37  N 
ATOM     23 22HE GLN E   0      -1.757 -11.433  -5.141  1.00 32.01 LIG 0.16  HD
ATOM     24 21HE GLN E   0      -1.991  -9.993  -4.841  1.00 32.01 LIG 0.16  HD
ENDBRANCH 19 20
ENDBRANCH 18 19
ENDBRANCH 12 18
ENDBRANCH 9 12
ENDBRANCH 6 8
ENDBRANCH 4 6
ENDBRANCH 1 2
BRANCH 1 25
ATOM     25  CB  ASP E   2      -0.084  -3.935  -9.091  1.00 34.81 LIG 0.15  C 
BRANCH 25 26
ATOM     26  CG  ASP E   2      -1.408  -3.281  -8.766  1.00 36.48 LIG 0.17  C 
ATOM     27 OD1  ASP E   2      -2.376  -4.019  -8.485  1.00 36.59 LIG-0.65  OA
ATOM     28 OD2  ASP E   2      -1.488  -2.033  -8.816  1.00 38.36 LIG-0.65  OA
ENDBRANCH 25 26
ENDBRANCH 1 25
BRANCH 1 29
ATOM     29  C   ASP E   2       0.736  -5.699 -10.652  1.00 31.85 LIG 0.24  C 
ATOM     30 O    ASP E   2       1.916  -5.350 -10.561  1.00 30.99 LIG-0.27  OA
ATOM     31  N   LEU E   3       0.232  -6.358 -11.698  1.00 29.32 LIG-0.35  N 
ATOM     32 H    LEU E   3      -0.599  -6.572 -11.761  1.00 29.32 LIG 0.16  HD
BRANCH 31 33
ATOM     33  CA  LEU E   3       1.035  -6.786 -12.850  1.00 27.73 LIG 0.18  C 
BRANCH 33 34
ATOM     34  CB  LEU E   3       1.971  -7.948 -12.456  1.00 28.26 LIG 0.04  C 
BRANCH 34 35
ATOM     35  CG  LEU E   3       3.302  -7.598 -11.786  1.00 28.58 LIG-0.02  C 
ATOM     36  CD2 LEU E   3       4.325  -7.092 -12.797  1.00 28.56 LIG 0.01  C 
ATOM     37  CD1 LEU E   3       3.853  -8.808 -11.042  1.00 28.86 LIG 0.01  C 
ENDBRANCH 34 35
ENDBRANCH 33 34
BRANCH 33 38
ATOM     38  C   LEU E   3       0.197  -7.211 -14.043  1.00 26.19 LIG 0.24  C 
ATOM     39  N   PHE E   4      -0.894  -6.489 -14.283  1.00 24.40 LIG-0.34  N 
ATOM     40 H    PHE E   4      -1.086  -5.766 -13.858  1.00 24.40 LIG 0.16  HD
ATOM     41 O    LEU E   3       0.534  -8.186 -14.715  1.00 26.01 LIG-0.27  OA
BRANCH 39 42
ATOM     42  CA  PHE E   4      -1.875  -6.853 -15.297  1.00 23.80 LIG 0.19  C 
BRANCH 42 43
ATOM     43  C   PHE E   4      -2.614  -8.124 -14.885  1.00 24.08 LIG 0.20  C 
ATOM     44 O    PHE E   4      -3.358  -8.159 -13.902  1.00 22.36 LIG-0.65  OA
ATOM     45 OXT  PHE E   4      -2.426  -9.161 -15.515  1.00 24.21 LIG-0.65  OA
ENDBRANCH 42 43
BRANCH 42 46
ATOM     46  CB  PHE E   4      -1.181  -7.109 -16.641  1.00 23.46 LIG 0.07  C 
BRANCH 46 47
ATOM     47  CG  PHE E   4       0.025  -6.225 -16.882  1.00 22.76 LIG-0.06  A 
ATOM     48  CD1 PHE E   4       1.179  -6.736 -17.456  1.00 22.71 LIG 0.01  A 
ATOM     49  CE1 PHE E   4       2.284  -5.930 -17.672  1.00 22.42 LIG 0.00  A 
ATOM     50  CZ  PHE E   4       2.246  -4.595 -17.300  1.00 22.02 LIG 0.00  A 
ATOM     51  CE2 PHE E   4       1.105  -4.075 -16.720  1.00 22.12 LIG 0.00  A 
ATOM     52  CD2 PHE E   4       0.004  -4.888 -16.514  1.00 22.51 LIG 0.01  A 
ENDBRANCH 46 47
ENDBRANCH 42 46
ENDBRANCH 39 42
ENDBRANCH 33 38
ENDBRANCH 31 33
ENDBRANCH 1 29
TORSDOF 19
ENDMDL
MODEL 39
USER: ADFR SOLUTION from run 70
USER: SCORE 13.463443 LL:  -3.532 LR: -11.959 RR:   0.000 FEB:  -6.291
USER: RMSD 12.244374
USER: SEED 69
USER: STATUS no improvement in best in 37 clusters for 5 generations
USER: GENES 21
USER: genes 0 Translation |==|  0.36966 0.44839 0.63173
USER: genes 1 Rotation |==|  0.51894 0.69007 0.96207 0.50199
USER: genes 2 Torsion [CB]-CA--N-[C] |==|  0.17815
USER: genes 3 Torsion [N]-C--CA-[N] |==|  0.53789
USER: genes 4 Torsion [C]-CA--N-[C] |==|  0.54350
USER: genes 5 Torsion [N]-C--CA-[N] |==|  0.98074
USER: genes 6 Torsion [C]-CA--N-[C] |==|  0.60161
USER: genes 7 Torsion [C]-CA--CB-[CG] |==|  0.53704
USER: genes 8 Torsion [CA]-CB--CG-[CD] |==|  0.32202
USER: genes 9 Torsion [CB]-CG--CD-[OE1] |==|  0.15889
USER: genes 10 Torsion [N]-CA--CB-[CG] |==|  0.63262
USER: genes 11 Torsion [CA]-CB--CG-[OD1] |==|  0.66390
USER: genes 12 Torsion [N]-CA--C-[N] |==|  0.52418
USER: genes 13 Torsion [C]-N--CA-[C] |==|  0.80489
USER: genes 14 Torsion [N]-CA--CB-[CG] |==|  0.73917
USER: genes 15 Torsion [CA]-CB--CG-[CD2] |==|  0.08332
USER: genes 16 Torsion [N]-CA--C-[N] |==|  0.95620
USER: genes 17 Torsion [C]-N--CA-[CB] |==|  0.22745
USER: genes 18 Torsion [N]-CA--C-[O] |==|  0.97792
USER: genes 19 Torsion [N]-CA--CB-[CG] |==|  0.69903
USER: genes 20 Torsion [CA]-CB--CG-[CD2] |==|  0.75342
ROOT
ATOM      1  CA  ASP E   2       0.439  -6.209  -9.508  1.00 33.44 LIG 0.19  C 
ENDROOT
BRANCH 1 2
ATOM      2  N   ASP E   2       1.611  -6.592 -10.306  1.00 33.24 LIG-0.35  N 
ATOM      3 H    ASP E   2       1.586  -7.396 -10.612  1.00 33.24 LIG 0.16  HD
ATOM      4  C   ALA E   1       2.619  -5.744 -10.522  1.00 32.93 LIG 0.24  C 
ATOM      5 O    ALA E   1       2.689  -4.640  -9.984  1.00 31.71 LIG-0.27  OA
BRANCH 4 6
ATOM      6  CA  ALA E   1       3.719  -6.208 -11.473  1.00 33.97 LIG 0.17  C 
ATOM      7  CB  ALA E   1       4.108  -7.652 -11.171  1.00 34.31 LIG 0.04  C 
BRANCH 6 8
ATOM      8  N   ALA E   1       4.887  -5.332 -11.357  1.00 34.07 LIG-0.35  N 
ATOM      9  C   GLN E   0       5.868  -5.303 -12.263  1.00 34.65 LIG 0.24  C 
ATOM     10 O    GLN E   0       5.902  -6.031 -13.259  1.00 33.74 LIG-0.27  OA
ATOM     11 H    ALA E   1       4.882  -4.838 -10.653  1.00 34.07 LIG 0.16  HD
BRANCH 9 12
ATOM     12  CA  GLN E   0       6.970  -4.271 -12.028  1.00 34.37 LIG 0.18  C 
BRANCH 12 13
ATOM     13  N   GLN E   0       6.653  -3.343 -10.878  1.00 34.90 LIG-0.35  N 
ATOM     14  C   ACE E  -1       6.970  -2.020 -10.850  1.00 34.22 LIG 0.21  C 
ATOM     15  CH3 ACE E  -1       6.407  -1.336  -9.612  1.00 34.51 LIG 0.12  C 
ATOM     16 O    ACE E  -1       6.781  -1.413 -11.901  1.00 33.28 LIG-0.27  OA
ATOM     17 H    GLN E   0       6.246  -3.736 -10.229  1.00 34.90 LIG 0.16  HD
ENDBRANCH 12 13
BRANCH 12 18
ATOM     18  CB  GLN E   0       8.289  -5.014 -11.777  1.00 34.11 LIG 0.04  C 
BRANCH 18 19
ATOM     19  CG  GLN E   0       9.404  -4.139 -11.215  1.00 32.87 LIG 0.10  C 
BRANCH 19 20
ATOM     20  CD  GLN E   0       9.824  -4.565  -9.823  1.00 32.43 LIG 0.21  C 
ATOM     21 OE1  GLN E   0      10.215  -5.711  -9.614  1.00 31.11 LIG-0.27  OA
ATOM     22  NE2 GLN E   0       9.733  -3.654  -8.859  1.00 32.01 LIG-0.37  N 
ATOM     23 22HE GLN E   0       9.952  -3.857  -8.053  1.00 32.01 LIG 0.16  HD
ATOM     24 21HE GLN E   0       9.455  -2.860  -9.042  1.00 32.01 LIG 0.16  HD
ENDBRANCH 19 20
ENDBRANCH 18 19
ENDBRANCH 12 18
ENDBRANCH 9 12
ENDBRANCH 6 8
ENDBRANCH 4 6
ENDBRANCH 1 2
BRANCH 1 25
ATOM     25  CB  ASP E   2      -0.326  -5.078 -10.193  1.00 34.81 LIG 0.15  C 
BRANCH 25 26
ATOM     26  CG  ASP E   2      -0.662  -3.958  -9.234  1.00 36.48 LIG 0.17  C 
ATOM     27 OD1  ASP E   2      -1.865  -3.664  -9.071  1.00 36.59 LIG-0.65  OA
ATOM     28 OD2  ASP E   2       0.276  -3.354  -8.666  1.00 38.36 LIG-0.65  OA
ENDBRANCH 25 26
ENDBRANCH 1 25
BRANCH 1 29
ATOM     29  C   ASP E   2      -0.505  -7.358  -9.199  1.00 31.85 LIG 0.24  C 
ATOM     30 O    ASP E   2      -0.198  -8.521  -9.470  1.00 30.99 LIG-0.27  OA
ATOM     31  N   LEU E   3      -1.663  -7.004  -8.635  1.00 29.32 LIG-0.35  N 
ATOM     32 H    LEU E   3      -1.876  -6.186  -8.475  1.00 29.32 LIG 0.16  HD
BRANCH 31 33
ATOM     33  CA  LEU E   3      -2.693  -7.967  -8.227  1.00 27.73 LIG 0.18  C 
BRANCH 33 34
ATOM     34  CB  LEU E   3      -3.747  -7.286  -7.330  1.00 28.26 LIG 0.04  C 
BRANCH 34 35
ATOM     35  CG  LEU E   3      -3.554  -7.366  -5.814  1.00 28.58 LIG-0.02  C 
ATOM     36  CD2 LEU E   3      -2.078  -7.440  -5.438  1.00 28.56 LIG 0.01  C 
ATOM     37  CD1 LEU E   3      -4.300  -8.568  -5.249  1.00 28.86 LIG 0.01  C 
ENDBRANCH 34 35
ENDBRANCH 33 34
BRANCH 33 38
ATOM     38  C   LEU E   3      -3.395  -8.627  -9.400  1.00 26.19 LIG 0.24  C 
ATOM     39  N   PHE E   4      -3.241  -8.042 -10.585  1.00 24.40 LIG-0.34  N 
ATOM     40 H    PHE E   4      -2.708  -7.381 -10.720  1.00 24.40 LIG 0.16  HD
ATOM     41 O    LEU E   3      -4.075  -9.638  -9.219  1.00 26.01 LIG-0.27  OA
BRANCH 39 42
ATOM     42  CA  PHE E   4      -3.964  -8.467 -11.777  1.00 23.80 LIG 0.19  C 
BRANCH 42 43
ATOM     43  C   PHE E   4      -3.227  -8.009 -13.033  1.00 24.08 LIG 0.20  C 
ATOM     44 O    PHE E   4      -2.255  -7.252 -12.982  1.00 22.36 LIG-0.65  OA
ATOM     45 OXT  PHE E   4      -3.641  -8.357 -14.135  1.00 24.21 LIG-0.65  OA
ENDBRANCH 42 43
BRANCH 42 46
ATOM     46  CB  PHE E   4      -5.371  -7.857 -11.790  1.00 23.46 LIG 0.07  C 
BRANCH 46 47
ATOM     47  CG  PHE E   4      -6.474  -8.860 -11.522  1.00 22.76 LIG-0.06  A 
ATOM     48  CD1 PHE E   4      -6.911  -9.110 -10.231  1.00 22.71 LIG 0.01  A 
ATOM     49  CE1 PHE E   4      -7.915 -10.032  -9.984  1.00 22.42 LIG 0.00  A 
ATOM     50  CZ  PHE E   4      -8.486 -10.726 -11.038  1.00 22.02 LIG 0.00  A 
ATOM     51  CE2 PHE E   4      -8.054 -10.493 -12.330  1.00 22.12 LIG 0.00  A 
ATOM     52  CD2 PHE E   4      -7.054  -9.566 -12.567  1.00 22.51 LIG 0.01  A 
ENDBRANCH 46 47
ENDBRANCH 42 46
ENDBRANCH 39 42
ENDBRANCH 33 38
ENDBRANCH 31 33
ENDBRANCH 1 29
TORSDOF 19
ENDMDL
MODEL 40
USER: ADFR SOLUTION from run 199
USER: SCORE 14.350351 LL:  -3.930 LR: -11.954 RR:   0.000 FEB:  -6.286
USER: RMSD 11.348302
USER: SEED 198
USER: STATUS no improvement in best in 7 clusters for 5 generations
USER: GENES 21
USER: genes 0 Translation |==|  0.36887 0.44512 0.63188
USER: genes 1 Rotation |==|  0.50316 0.68285 0.96529 0.50805
USER: genes 2 Torsion [CB]-CA--N-[C] |==|  0.16111
USER: genes 3 Torsion [N]-C--CA-[N] |==|  0.53778
USER: genes 4 Torsion [C]-CA--N-[C] |==|  0.54908
USER: genes 5 Torsion [N]-C--CA-[N] |==|  0.95527
USER: genes 6 Torsion [C]-CA--N-[C] |==|  0.59127
USER: genes 7 Torsion [C]-CA--CB-[CG] |==|  0.52824
USER: genes 8 Torsion [CA]-CB--CG-[CD] |==|  0.27172
USER: genes 9 Torsion [CB]-CG--CD-[OE1] |==|  0.77530
USER: genes 10 Torsion [N]-CA--CB-[CG] |==|  0.64053
USER: genes 11 Torsion [CA]-CB--CG-[OD1] |==|  0.16288
USER: genes 12 Torsion [N]-CA--C-[N] |==|  0.14412
USER: genes 13 Torsion [C]-N--CA-[C] |==|  0.68627
USER: genes 14 Torsion [N]-CA--CB-[CG] |==|  0.06891
USER: genes 15 Torsion [CA]-CB--CG-[CD2] |==|  0.72558
USER: genes 16 Torsion [N]-CA--C-[N] |==|  0.38593
USER: genes 17 Torsion [C]-N--CA-[CB] |==|  0.24994
USER: genes 18 Torsion [N]-CA--C-[O] |==|  0.62195
USER: genes 19 Torsion [N]-CA--CB-[CG] |==|  0.98257
USER: genes 20 Torsion [CA]-CB--CG-[CD2] |==|  0.77184
ROOT
ATOM      1  CA  ASP E   2       0.419  -6.263  -9.506  1.00 33.44 LIG 0.19  C 
ENDROOT
BRANCH 1 2
ATOM      2  N   ASP E   2       1.643  -6.622 -10.233  1.00 33.24 LIG-0.35  N 
ATOM      3 H    ASP E   2       1.676  -7.442 -10.493  1.00 33.24 LIG 0.16  HD
ATOM      4  C   ALA E   1       2.611  -5.732 -10.459  1.00 32.93 LIG 0.24  C 
ATOM      5 O    ALA E   1       2.598  -4.597  -9.983  1.00 31.71 LIG-0.27  OA
BRANCH 4 6
ATOM      6  CA  ALA E   1       3.774  -6.184 -11.336  1.00 33.97 LIG 0.17  C 
ATOM      7  CB  ALA E   1       4.230  -7.583 -10.936  1.00 34.31 LIG 0.04  C 
BRANCH 6 8
ATOM      8  N   ALA E   1       4.887  -5.236 -11.227  1.00 34.07 LIG-0.35  N 
ATOM      9  C   GLN E   0       5.882  -5.176 -12.115  1.00 34.65 LIG 0.24  C 
ATOM     10 O    GLN E   0       5.979  -5.930 -13.087  1.00 33.74 LIG-0.27  OA
ATOM     11 H    ALA E   1       4.838  -4.723 -10.538  1.00 34.07 LIG 0.16  HD
BRANCH 9 12
ATOM     12  CA  GLN E   0       6.916  -4.074 -11.892  1.00 34.37 LIG 0.18  C 
BRANCH 12 13
ATOM     13  N   GLN E   0       6.426  -3.010 -10.937  1.00 34.90 LIG-0.35  N 
ATOM     14  C   ACE E  -1       6.761  -1.693 -11.017  1.00 34.22 LIG 0.21  C 
ATOM     15  CH3 ACE E  -1       6.009  -0.861  -9.989  1.00 34.51 LIG 0.12  C 
ATOM     16 O    ACE E  -1       6.768  -1.222 -12.152  1.00 33.28 LIG-0.27  OA
ATOM     17 H    GLN E   0       5.905  -3.320 -10.325  1.00 34.90 LIG 0.16  HD
ENDBRANCH 12 13
BRANCH 12 18
ATOM     18  CB  GLN E   0       8.208  -4.716 -11.371  1.00 34.11 LIG 0.04  C 
BRANCH 18 19
ATOM     19  CG  GLN E   0       9.247  -3.717 -10.873  1.00 32.87 LIG 0.10  C 
BRANCH 19 20
ATOM     20  CD  GLN E   0       9.210  -3.550  -9.367  1.00 32.43 LIG 0.21  C 
ATOM     21 OE1  GLN E   0       8.375  -2.819  -8.843  1.00 31.11 LIG-0.27  OA
ATOM     22  NE2 GLN E   0      10.122  -4.215  -8.663  1.00 32.01 LIG-0.37  N 
ATOM     23 22HE GLN E   0      10.142  -4.141  -7.807  1.00 32.01 LIG 0.16  HD
ATOM     24 21HE GLN E   0      10.691  -4.719  -9.065  1.00 32.01 LIG 0.16  HD
ENDBRANCH 19 20
ENDBRANCH 18 19
ENDBRANCH 12 18
ENDBRANCH 9 12
ENDBRANCH 6 8
ENDBRANCH 4 6
ENDBRANCH 1 2
BRANCH 1 25
ATOM     25  CB  ASP E   2      -0.299  -5.111 -10.207  1.00 34.81 LIG 0.15  C 
BRANCH 25 26
ATOM     26  CG  ASP E   2      -0.640  -3.989  -9.251  1.00 36.48 LIG 0.17  C 
ATOM     27 OD1  ASP E   2       0.296  -3.441  -8.631  1.00 36.59 LIG-0.65  OA
ATOM     28 OD2  ASP E   2      -1.842  -3.676  -9.100  1.00 38.36 LIG-0.65  OA
ENDBRANCH 25 26
ENDBRANCH 1 25
BRANCH 1 29
ATOM     29  C   ASP E   2      -0.542  -7.420  -9.297  1.00 31.85 LIG 0.24  C 
ATOM     30 O    ASP E   2      -1.731  -7.320  -9.608  1.00 30.99 LIG-0.27  OA
ATOM     31  N   LEU E   3      -0.003  -8.514  -8.754  1.00 29.32 LIG-0.35  N 
ATOM     32 H    LEU E   3       0.823  -8.562  -8.517  1.00 29.32 LIG 0.16  HD
BRANCH 31 33
ATOM     33  CA  LEU E   3      -0.755  -9.750  -8.505  1.00 27.73 LIG 0.18  C 
BRANCH 33 34
ATOM     34  CB  LEU E   3      -0.071 -10.950  -9.193  1.00 28.26 LIG 0.04  C 
BRANCH 34 35
ATOM     35  CG  LEU E   3       1.431 -10.852  -9.472  1.00 28.58 LIG-0.02  C 
ATOM     36  CD2 LEU E   3       1.710 -10.448 -10.916  1.00 28.56 LIG 0.01  C 
ATOM     37  CD1 LEU E   3       2.114 -12.177  -9.156  1.00 28.86 LIG 0.01  C 
ENDBRANCH 34 35
ENDBRANCH 33 34
BRANCH 33 38
ATOM     38  C   LEU E   3      -0.928 -10.061  -7.028  1.00 26.19 LIG 0.24  C 
ATOM     39  N   PHE E   4      -2.121 -10.518  -6.657  1.00 24.40 LIG-0.34  N 
ATOM     40 H    PHE E   4      -2.744 -10.719  -7.215  1.00 24.40 LIG 0.16  HD
ATOM     41 O    LEU E   3       0.006  -9.870  -6.248  1.00 26.01 LIG-0.27  OA
BRANCH 39 42
ATOM     42  CA  PHE E   4      -2.489 -10.724  -5.263  1.00 23.80 LIG 0.19  C 
BRANCH 42 43
ATOM     43  C   PHE E   4      -3.505 -11.859  -5.147  1.00 24.08 LIG 0.20  C 
ATOM     44 O    PHE E   4      -4.499 -11.775  -4.423  1.00 22.36 LIG-0.65  OA
ATOM     45 OXT  PHE E   4      -3.305 -12.909  -5.750  1.00 24.21 LIG-0.65  OA
ENDBRANCH 42 43
BRANCH 42 46
ATOM     46  CB  PHE E   4      -3.119  -9.450  -4.686  1.00 23.46 LIG 0.07  C 
BRANCH 46 47
ATOM     47  CG  PHE E   4      -3.069  -8.265  -5.627  1.00 22.76 LIG-0.06  A 
ATOM     48  CD1 PHE E   4      -4.157  -7.941  -6.423  1.00 22.71 LIG 0.01  A 
ATOM     49  CE1 PHE E   4      -4.111  -6.861  -7.289  1.00 22.42 LIG 0.00  A 
ATOM     50  CZ  PHE E   4      -2.958  -6.097  -7.375  1.00 22.02 LIG 0.00  A 
ATOM     51  CE2 PHE E   4      -1.863  -6.413  -6.593  1.00 22.12 LIG 0.00  A 
ATOM     52  CD2 PHE E   4      -1.921  -7.491  -5.727  1.00 22.51 LIG 0.01  A 
ENDBRANCH 46 47
ENDBRANCH 42 46
ENDBRANCH 39 42
ENDBRANCH 33 38
ENDBRANCH 31 33
ENDBRANCH 1 29
TORSDOF 19
ENDMDL
MODEL 41
USER: ADFR SOLUTION from run 37
USER: SCORE 13.784812 LL:  -3.333 LR: -11.927 RR:   0.000 FEB:  -6.259
USER: RMSD 11.046650
USER: SEED 36
USER: STATUS no improvement in best in 22 clusters for 5 generations
USER: GENES 21
USER: genes 0 Translation |==|  0.39776 0.43911 0.53372
USER: genes 1 Rotation |==|  0.54950 0.37032 0.95584 0.65146
USER: genes 2 Torsion [CB]-CA--N-[C] |==|  0.15341
USER: genes 3 Torsion [N]-C--CA-[N] |==|  0.38587
USER: genes 4 Torsion [C]-CA--N-[C] |==|  0.51379
USER: genes 5 Torsion [N]-C--CA-[N] |==|  0.92141
USER: genes 6 Torsion [C]-CA--N-[C] |==|  0.65000
USER: genes 7 Torsion [C]-CA--CB-[CG] |==|  0.51054
USER: genes 8 Torsion [CA]-CB--CG-[CD] |==|  0.36947
USER: genes 9 Torsion [CB]-CG--CD-[OE1] |==|  0.14141
USER: genes 10 Torsion [N]-CA--CB-[CG] |==|  0.53859
USER: genes 11 Torsion [CA]-CB--CG-[OD1] |==|  0.14911
USER: genes 12 Torsion [N]-CA--C-[N] |==|  0.09677
USER: genes 13 Torsion [C]-N--CA-[C] |==|  0.77164
USER: genes 14 Torsion [N]-CA--CB-[CG] |==|  0.76887
USER: genes 15 Torsion [CA]-CB--CG-[CD2] |==|  0.51721
USER: genes 16 Torsion [N]-CA--C-[N] |==|  0.08185
USER: genes 17 Torsion [C]-N--CA-[CB] |==|  0.45728
USER: genes 18 Torsion [N]-CA--C-[O] |==|  0.01361
USER: genes 19 Torsion [N]-CA--CB-[CG] |==|  0.19625
USER: genes 20 Torsion [CA]-CB--CG-[CD2] |==|  0.79242
ROOT
ATOM      1  CA  ASP E   2       1.156  -6.362 -10.978  1.00 33.44 LIG 0.19  C 
ENDROOT
BRANCH 1 2
ATOM      2  N   ASP E   2       2.282  -6.402 -11.921  1.00 33.24 LIG-0.35  N 
ATOM      3 H    ASP E   2       2.055  -6.360 -12.749  1.00 33.24 LIG 0.16  HD
ATOM      4  C   ALA E   1       3.544  -6.498 -11.499  1.00 32.93 LIG 0.24  C 
ATOM      5 O    ALA E   1       3.842  -6.670 -10.317  1.00 31.71 LIG-0.27  OA
BRANCH 4 6
ATOM      6  CA  ALA E   1       4.636  -6.400 -12.560  1.00 33.97 LIG 0.17  C 
ATOM      7  CB  ALA E   1       5.126  -7.790 -12.949  1.00 34.31 LIG 0.04  C 
BRANCH 6 8
ATOM      8  N   ALA E   1       5.750  -5.587 -12.064  1.00 34.07 LIG-0.35  N 
ATOM      9  C   GLN E   0       6.801  -5.254 -12.819  1.00 34.65 LIG 0.24  C 
ATOM     10 O    GLN E   0       6.950  -5.624 -13.986  1.00 33.74 LIG-0.27  OA
ATOM     11 H    ALA E   1       5.664  -5.346 -11.243  1.00 34.07 LIG 0.16  HD
BRANCH 9 12
ATOM     12  CA  GLN E   0       7.832  -4.335 -12.166  1.00 34.37 LIG 0.18  C 
BRANCH 12 13
ATOM     13  N   GLN E   0       7.219  -3.439 -11.114  1.00 34.90 LIG-0.35  N 
ATOM     14  C   ACE E  -1       7.337  -2.082 -11.098  1.00 34.22 LIG 0.21  C 
ATOM     15  CH3 ACE E  -1       6.505  -1.461  -9.985  1.00 34.51 LIG 0.12  C 
ATOM     16 O    ACE E  -1       7.222  -1.533 -12.191  1.00 33.28 LIG-0.27  OA
ATOM     17 H    GLN E   0       6.780  -3.873 -10.515  1.00 34.90 LIG 0.16  HD
ENDBRANCH 12 13
BRANCH 12 18
ATOM     18  CB  GLN E   0       8.943  -5.200 -11.559  1.00 34.11 LIG 0.04  C 
BRANCH 18 19
ATOM     19  CG  GLN E   0      10.001  -4.415 -10.791  1.00 32.87 LIG 0.10  C 
BRANCH 19 20
ATOM     20  CD  GLN E   0      10.312  -5.034  -9.443  1.00 32.43 LIG 0.21  C 
ATOM     21 OE1  GLN E   0      10.584  -6.228  -9.355  1.00 31.11 LIG-0.27  OA
ATOM     22  NE2 GLN E   0      10.259  -4.232  -8.384  1.00 32.01 LIG-0.37  N 
ATOM     23 22HE GLN E   0      10.419  -4.545  -7.600  1.00 32.01 LIG 0.16  HD
ATOM     24 21HE GLN E   0      10.065  -3.400  -8.484  1.00 32.01 LIG 0.16  HD
ENDBRANCH 19 20
ENDBRANCH 18 19
ENDBRANCH 12 18
ENDBRANCH 9 12
ENDBRANCH 6 8
ENDBRANCH 4 6
ENDBRANCH 1 2
BRANCH 1 25
ATOM     25  CB  ASP E   2       1.344  -5.229  -9.971  1.00 34.81 LIG 0.15  C 
BRANCH 25 26
ATOM     26  CG  ASP E   2       0.402  -5.354  -8.794  1.00 36.48 LIG 0.17  C 
ATOM     27 OD1  ASP E   2       0.390  -6.433  -8.163  1.00 36.59 LIG-0.65  OA
ATOM     28 OD2  ASP E   2      -0.344  -4.388  -8.518  1.00 38.36 LIG-0.65  OA
ENDBRANCH 25 26
ENDBRANCH 1 25
BRANCH 1 29
ATOM     29  C   ASP E   2      -0.205  -6.242 -11.642  1.00 31.85 LIG 0.24  C 
ATOM     30 O    ASP E   2      -1.115  -5.600 -11.110  1.00 30.99 LIG-0.27  OA
ATOM     31  N   LEU E   3      -0.326  -6.880 -12.808  1.00 29.32 LIG-0.35  N 
ATOM     32 H    LEU E   3       0.309  -7.347 -13.155  1.00 29.32 LIG 0.16  HD
BRANCH 31 33
ATOM     33  CA  LEU E   3      -1.547  -6.857 -13.622  1.00 27.73 LIG 0.18  C 
BRANCH 33 34
ATOM     34  CB  LEU E   3      -1.216  -7.121 -15.106  1.00 28.26 LIG 0.04  C 
BRANCH 34 35
ATOM     35  CG  LEU E   3      -0.749  -5.936 -15.955  1.00 28.58 LIG-0.02  C 
ATOM     36  CD2 LEU E   3      -0.607  -6.317 -17.424  1.00 28.56 LIG 0.01  C 
ATOM     37  CD1 LEU E   3       0.572  -5.393 -15.423  1.00 28.86 LIG 0.01  C 
ENDBRANCH 34 35
ENDBRANCH 33 34
BRANCH 33 38
ATOM     38  C   LEU E   3      -2.593  -7.859 -13.165  1.00 26.19 LIG 0.24  C 
ATOM     39  N   PHE E   4      -2.597  -8.157 -11.868  1.00 24.40 LIG-0.34  N 
ATOM     40 H    PHE E   4      -2.106  -7.752 -11.289  1.00 24.40 LIG 0.16  HD
ATOM     41 O    LEU E   3      -3.366  -8.358 -13.984  1.00 26.01 LIG-0.27  OA
BRANCH 39 42
ATOM     42  CA  PHE E   4      -3.438  -9.202 -11.299  1.00 23.80 LIG 0.19  C 
BRANCH 42 43
ATOM     43  C   PHE E   4      -4.884  -8.722 -11.204  1.00 24.08 LIG 0.20  C 
ATOM     44 O    PHE E   4      -5.243  -7.632 -11.654  1.00 22.36 LIG-0.65  OA
ATOM     45 OXT  PHE E   4      -5.711  -9.414 -10.617  1.00 24.21 LIG-0.65  OA
ENDBRANCH 42 43
BRANCH 42 46
ATOM     46  CB  PHE E   4      -2.954  -9.565  -9.890  1.00 23.46 LIG 0.07  C 
BRANCH 46 47
ATOM     47  CG  PHE E   4      -3.216  -8.487  -8.859  1.00 22.76 LIG-0.06  A 
ATOM     48  CD1 PHE E   4      -4.242  -8.618  -7.937  1.00 22.71 LIG 0.01  A 
ATOM     49  CE1 PHE E   4      -4.487  -7.629  -6.997  1.00 22.42 LIG 0.00  A 
ATOM     50  CZ  PHE E   4      -3.705  -6.486  -6.982  1.00 22.02 LIG 0.00  A 
ATOM     51  CE2 PHE E   4      -2.683  -6.339  -7.900  1.00 22.12 LIG 0.00  A 
ATOM     52  CD2 PHE E   4      -2.444  -7.334  -8.832  1.00 22.51 LIG 0.01  A 
ENDBRANCH 46 47
ENDBRANCH 42 46
ENDBRANCH 39 42
ENDBRANCH 33 38
ENDBRANCH 31 33
ENDBRANCH 1 29
TORSDOF 19
ENDMDL
MODEL 42
USER: ADFR SOLUTION from run 94
USER: SCORE 13.921399 LL:  -3.750 LR: -11.928 RR:   0.000 FEB:  -6.260
USER: RMSD 9.451817
USER: SEED 93
USER: STATUS no improvement in best in 21 clusters for 5 generations
USER: GENES 21
USER: genes 0 Translation |==|  0.31815 0.54933 0.62569
USER: genes 1 Rotation |==|  0.08572 0.40435 0.60743 0.74017
USER: genes 2 Torsion [CB]-CA--N-[C] |==|  0.77697
USER: genes 3 Torsion [N]-C--CA-[N] |==|  0.18362
USER: genes 4 Torsion [C]-CA--N-[C] |==|  0.77638
USER: genes 5 Torsion [N]-C--CA-[N] |==|  0.47778
USER: genes 6 Torsion [C]-CA--N-[C] |==|  0.78748
USER: genes 7 Torsion [C]-CA--CB-[CG] |==|  0.50236
USER: genes 8 Torsion [CA]-CB--CG-[CD] |==|  0.23352
USER: genes 9 Torsion [CB]-CG--CD-[OE1] |==|  0.07895
USER: genes 10 Torsion [N]-CA--CB-[CG] |==|  0.71407
USER: genes 11 Torsion [CA]-CB--CG-[OD1] |==|  0.95860
USER: genes 12 Torsion [N]-CA--C-[N] |==|  0.22549
USER: genes 13 Torsion [C]-N--CA-[C] |==|  0.51760
USER: genes 14 Torsion [N]-CA--CB-[CG] |==|  0.62767
USER: genes 15 Torsion [CA]-CB--CG-[CD2] |==|  0.50692
USER: genes 16 Torsion [N]-CA--C-[N] |==|  0.00402
USER: genes 17 Torsion [C]-N--CA-[CB] |==|  0.81539
USER: genes 18 Torsion [N]-CA--C-[O] |==|  0.04208
USER: genes 19 Torsion [N]-CA--CB-[CG] |==|  0.70576
USER: genes 20 Torsion [CA]-CB--CG-[CD2] |==|  0.20536
ROOT
ATOM      1  CA  ASP E   2      -0.874  -4.543  -9.599  1.00 33.44 LIG 0.19  C 
ENDROOT
BRANCH 1 2
ATOM      2  N   ASP E   2      -1.530  -5.602  -8.821  1.00 33.24 LIG-0.35  N 
ATOM      3 H    ASP E   2      -2.388  -5.615  -8.889  1.00 33.24 LIG 0.16  HD
ATOM      4  C   ALA E   1      -0.830  -6.460  -8.077  1.00 32.93 LIG 0.24  C 
ATOM      5 O    ALA E   1       0.384  -6.357  -7.903  1.00 31.71 LIG-0.27  OA
BRANCH 4 6
ATOM      6  CA  ALA E   1      -1.607  -7.596  -7.418  1.00 33.97 LIG 0.17  C 
ATOM      7  CB  ALA E   1      -0.711  -8.362  -6.451  1.00 34.31 LIG 0.04  C 
BRANCH 6 8
ATOM      8  N   ALA E   1      -2.142  -8.500  -8.440  1.00 34.07 LIG-0.35  N 
ATOM      9  C   GLN E   0      -3.255  -8.242  -9.130  1.00 34.65 LIG 0.24  C 
ATOM     10 O    GLN E   0      -3.955  -7.242  -8.951  1.00 33.74 LIG-0.27  OA
ATOM     11 H    ALA E   1      -1.671  -9.212  -8.554  1.00 34.07 LIG 0.16  HD
BRANCH 9 12
ATOM     12  CA  GLN E   0      -3.624  -9.253 -10.215  1.00 34.37 LIG 0.18  C 
BRANCH 12 13
ATOM     13  N   GLN E   0      -4.989  -8.987 -10.808  1.00 34.90 LIG-0.35  N 
ATOM     14  C   ACE E  -1      -6.165  -9.291 -10.193  1.00 34.22 LIG 0.21  C 
ATOM     15  CH3 ACE E  -1      -7.360  -8.787 -10.991  1.00 34.51 LIG 0.12  C 
ATOM     16 O    ACE E  -1      -6.209  -9.040  -8.991  1.00 33.28 LIG-0.27  OA
ATOM     17 H    GLN E   0      -4.954  -8.619 -11.585  1.00 34.90 LIG 0.16  HD
ENDBRANCH 12 13
BRANCH 12 18
ATOM     18  CB  GLN E   0      -2.545  -9.216 -11.304  1.00 34.11 LIG 0.04  C 
BRANCH 18 19
ATOM     19  CG  GLN E   0      -2.796 -10.168 -12.468  1.00 32.87 LIG 0.10  C 
BRANCH 19 20
ATOM     20  CD  GLN E   0      -3.719  -9.570 -13.511  1.00 32.43 LIG 0.21  C 
ATOM     21 OE1  GLN E   0      -3.767  -8.354 -13.676  1.00 31.11 LIG-0.27  OA
ATOM     22  NE2 GLN E   0      -4.468 -10.418 -14.211  1.00 32.01 LIG-0.37  N 
ATOM     23 22HE GLN E   0      -5.012 -10.120 -14.805  1.00 32.01 LIG 0.16  HD
ATOM     24 21HE GLN E   0      -4.407 -11.264 -14.068  1.00 32.01 LIG 0.16  HD
ENDBRANCH 19 20
ENDBRANCH 18 19
ENDBRANCH 12 18
ENDBRANCH 9 12
ENDBRANCH 6 8
ENDBRANCH 4 6
ENDBRANCH 1 2
BRANCH 1 25
ATOM     25  CB  ASP E   2      -0.522  -3.360  -8.699  1.00 34.81 LIG 0.15  C 
BRANCH 25 26
ATOM     26  CG  ASP E   2      -1.487  -2.208  -8.873  1.00 36.48 LIG 0.17  C 
ATOM     27 OD1  ASP E   2      -2.237  -2.216  -9.873  1.00 36.59 LIG-0.65  OA
ATOM     28 OD2  ASP E   2      -1.476  -1.285  -8.029  1.00 38.36 LIG-0.65  OA
ENDBRANCH 25 26
ENDBRANCH 1 25
BRANCH 1 29
ATOM     29  C   ASP E   2       0.361  -5.002 -10.355  1.00 31.85 LIG 0.24  C 
ATOM     30 O    ASP E   2       1.491  -4.797  -9.906  1.00 30.99 LIG-0.27  OA
ATOM     31  N   LEU E   3       0.120  -5.618 -11.515  1.00 29.32 LIG-0.35  N 
ATOM     32 H    LEU E   3      -0.673  -5.731 -11.829  1.00 29.32 LIG 0.16  HD
BRANCH 31 33
ATOM     33  CA  LEU E   3       1.175  -6.166 -12.375  1.00 27.73 LIG 0.18  C 
BRANCH 33 34
ATOM     34  CB  LEU E   3       1.924  -7.307 -11.656  1.00 28.26 LIG 0.04  C 
BRANCH 34 35
ATOM     35  CG  LEU E   3       3.453  -7.305 -11.713  1.00 28.58 LIG-0.02  C 
ATOM     36  CD2 LEU E   3       4.045  -8.523 -11.010  1.00 28.56 LIG 0.01  C 
ATOM     37  CD1 LEU E   3       4.003  -6.025 -11.096  1.00 28.86 LIG 0.01  C 
ENDBRANCH 34 35
ENDBRANCH 33 34
BRANCH 33 38
ATOM     38  C   LEU E   3       0.657  -6.680 -13.708  1.00 26.19 LIG 0.24  C 
ATOM     39  N   PHE E   4      -0.648  -6.540 -13.926  1.00 24.40 LIG-0.34  N 
ATOM     40 H    PHE E   4      -1.172  -6.108 -13.399  1.00 24.40 LIG 0.16  HD
ATOM     41 O    LEU E   3       1.432  -7.205 -14.507  1.00 26.01 LIG-0.27  OA
BRANCH 39 42
ATOM     42  CA  PHE E   4      -1.321  -7.109 -15.087  1.00 23.80 LIG 0.19  C 
BRANCH 42 43
ATOM     43  C   PHE E   4      -1.020  -8.602 -15.193  1.00 24.08 LIG 0.20  C 
ATOM     44 O    PHE E   4      -0.540  -9.241 -14.253  1.00 22.36 LIG-0.65  OA
ATOM     45 OXT  PHE E   4      -1.209  -9.180 -16.259  1.00 24.21 LIG-0.65  OA
ENDBRANCH 42 43
BRANCH 42 46
ATOM     46  CB  PHE E   4      -0.834  -6.424 -16.371  1.00 23.46 LIG 0.07  C 
BRANCH 46 47
ATOM     47  CG  PHE E   4      -1.841  -5.465 -16.970  1.00 22.76 LIG-0.06  A 
ATOM     48  CD1 PHE E   4      -2.530  -5.788 -18.129  1.00 22.71 LIG 0.01  A 
ATOM     49  CE1 PHE E   4      -3.447  -4.909 -18.681  1.00 22.42 LIG 0.00  A 
ATOM     50  CZ  PHE E   4      -3.674  -3.683 -18.078  1.00 22.02 LIG 0.00  A 
ATOM     51  CE2 PHE E   4      -2.988  -3.345 -16.927  1.00 22.12 LIG 0.00  A 
ATOM     52  CD2 PHE E   4      -2.078  -4.232 -16.380  1.00 22.51 LIG 0.01  A 
ENDBRANCH 46 47
ENDBRANCH 42 46
ENDBRANCH 39 42
ENDBRANCH 33 38
ENDBRANCH 31 33
ENDBRANCH 1 29
TORSDOF 19
ENDMDL
MODEL 43
USER: ADFR SOLUTION from run 155
USER: SCORE 14.361604 LL:  -3.827 LR: -11.917 RR:   0.000 FEB:  -6.249
USER: RMSD 9.638826
USER: SEED 154
USER: STATUS no improvement in best in 10 clusters for 5 generations
USER: GENES 21
USER: genes 0 Translation |==|  0.55115 0.30999 0.52205
USER: genes 1 Rotation |==|  0.71683 0.22843 0.84353 0.60595
USER: genes 2 Torsion [CB]-CA--N-[C] |==|  0.54080
USER: genes 3 Torsion [N]-C--CA-[N] |==|  0.95676
USER: genes 4 Torsion [C]-CA--N-[C] |==|  0.82765
USER: genes 5 Torsion [N]-C--CA-[N] |==|  0.48211
USER: genes 6 Torsion [C]-CA--N-[C] |==|  0.76604
USER: genes 7 Torsion [C]-CA--CB-[CG] |==|  0.44491
USER: genes 8 Torsion [CA]-CB--CG-[CD] |==|  0.18682
USER: genes 9 Torsion [CB]-CG--CD-[OE1] |==|  0.74027
USER: genes 10 Torsion [N]-CA--CB-[CG] |==|  0.81115
USER: genes 11 Torsion [CA]-CB--CG-[OD1] |==|  0.02346
USER: genes 12 Torsion [N]-CA--C-[N] |==|  0.87124
USER: genes 13 Torsion [C]-N--CA-[C] |==|  0.75606
USER: genes 14 Torsion [N]-CA--CB-[CG] |==|  0.45191
USER: genes 15 Torsion [CA]-CB--CG-[CD2] |==|  0.53308
USER: genes 16 Torsion [N]-CA--C-[N] |==|  0.40851
USER: genes 17 Torsion [C]-N--CA-[CB] |==|  0.10909
USER: genes 18 Torsion [N]-CA--C-[O] |==|  0.51421
USER: genes 19 Torsion [N]-CA--CB-[CG] |==|  0.66357
USER: genes 20 Torsion [CA]-CB--CG-[CD2] |==|  0.82824
ROOT
ATOM      1  CA  ASP E   2       5.067  -8.492 -11.153  1.00 33.44 LIG 0.19  C 
ENDROOT
BRANCH 1 2
ATOM      2  N   ASP E   2       5.654  -7.489 -12.052  1.00 33.24 LIG-0.35  N 
ATOM      3 H    ASP E   2       6.402  -7.162 -11.780  1.00 33.24 LIG 0.16  HD
ATOM      4  C   ALA E   1       5.054  -7.132 -13.189  1.00 32.93 LIG 0.24  C 
ATOM      5 O    ALA E   1       3.932  -7.527 -13.504  1.00 31.71 LIG-0.27  OA
BRANCH 4 6
ATOM      6  CA  ALA E   1       5.820  -6.180 -14.103  1.00 33.97 LIG 0.17  C 
ATOM      7  CB  ALA E   1       6.350  -6.926 -15.323  1.00 34.31 LIG 0.04  C 
BRANCH 6 8
ATOM      8  N   ALA E   1       6.924  -5.555 -13.369  1.00 34.07 LIG-0.35  N 
ATOM      9  C   GLN E   0       6.739  -4.772 -12.304  1.00 34.65 LIG 0.24  C 
ATOM     10 O    GLN E   0       5.628  -4.473 -11.858  1.00 33.74 LIG-0.27  OA
ATOM     11 H    ALA E   1       7.701  -5.740 -13.689  1.00 34.07 LIG 0.16  HD
BRANCH 9 12
ATOM     12  CA  GLN E   0       8.005  -4.270 -11.611  1.00 34.37 LIG 0.18  C 
BRANCH 12 13
ATOM     13  N   GLN E   0       7.703  -3.270 -10.517  1.00 34.90 LIG-0.35  N 
ATOM     14  C   ACE E  -1       7.515  -1.938 -10.726  1.00 34.22 LIG 0.21  C 
ATOM     15  CH3 ACE E  -1       7.107  -1.224  -9.445  1.00 34.51 LIG 0.12  C 
ATOM     16 O    ACE E  -1       6.837  -1.652 -11.710  1.00 33.28 LIG-0.27  OA
ATOM     17 H    GLN E   0       7.661  -3.628  -9.735  1.00 34.90 LIG 0.16  HD
ENDBRANCH 12 13
BRANCH 12 18
ATOM     18  CB  GLN E   0       8.763  -5.477 -11.046  1.00 34.11 LIG 0.04  C 
BRANCH 18 19
ATOM     19  CG  GLN E   0      10.236  -5.213 -10.756  1.00 32.87 LIG 0.10  C 
BRANCH 19 20
ATOM     20  CD  GLN E   0      10.432  -4.231  -9.618  1.00 32.43 LIG 0.21  C 
ATOM     21 OE1  GLN E   0      10.569  -3.032  -9.847  1.00 31.11 LIG-0.27  OA
ATOM     22  NE2 GLN E   0      10.462  -4.732  -8.387  1.00 32.01 LIG-0.37  N 
ATOM     23 22HE GLN E   0      10.580  -4.211  -7.714  1.00 32.01 LIG 0.16  HD
ATOM     24 21HE GLN E   0      10.362  -5.578  -8.264  1.00 32.01 LIG 0.16  HD
ENDBRANCH 19 20
ENDBRANCH 18 19
ENDBRANCH 12 18
ENDBRANCH 9 12
ENDBRANCH 6 8
ENDBRANCH 4 6
ENDBRANCH 1 2
BRANCH 1 25
ATOM     25  CB  ASP E   2       5.747  -8.447  -9.786  1.00 34.81 LIG 0.15  C 
BRANCH 25 26
ATOM     26  CG  ASP E   2       7.184  -8.915  -9.852  1.00 36.48 LIG 0.17  C 
ATOM     27 OD1  ASP E   2       7.686  -9.116 -10.978  1.00 36.59 LIG-0.65  OA
ATOM     28 OD2  ASP E   2       7.801  -9.107  -8.780  1.00 38.36 LIG-0.65  OA
ENDBRANCH 25 26
ENDBRANCH 1 25
BRANCH 1 29
ATOM     29  C   ASP E   2       3.562  -8.371 -10.985  1.00 31.85 LIG 0.24  C 
ATOM     30 O    ASP E   2       2.834  -9.364 -11.064  1.00 30.99 LIG-0.27  OA
ATOM     31  N   LEU E   3       3.114  -7.133 -10.761  1.00 29.32 LIG-0.35  N 
ATOM     32 H    LEU E   3       3.631  -6.446 -10.735  1.00 29.32 LIG 0.16  HD
BRANCH 31 33
ATOM     33  CA  LEU E   3       1.700  -6.812 -10.537  1.00 27.73 LIG 0.18  C 
BRANCH 33 34
ATOM     34  CB  LEU E   3       1.562  -5.587  -9.609  1.00 28.26 LIG 0.04  C 
BRANCH 34 35
ATOM     35  CG  LEU E   3       0.215  -4.860  -9.581  1.00 28.58 LIG-0.02  C 
ATOM     36  CD2 LEU E   3       0.313  -3.520  -8.859  1.00 28.56 LIG 0.01  C 
ATOM     37  CD1 LEU E   3      -0.844  -5.735  -8.923  1.00 28.86 LIG 0.01  C 
ENDBRANCH 34 35
ENDBRANCH 33 34
BRANCH 33 38
ATOM     38  C   LEU E   3       0.933  -6.548 -11.821  1.00 26.19 LIG 0.24  C 
ATOM     39  N   PHE E   4      -0.347  -6.912 -11.829  1.00 24.40 LIG-0.34  N 
ATOM     40 H    PHE E   4      -0.761  -7.198 -11.131  1.00 24.40 LIG 0.16  HD
ATOM     41 O    LEU E   3       1.506  -6.039 -12.784  1.00 26.01 LIG-0.27  OA
BRANCH 39 42
ATOM     42  CA  PHE E   4      -1.176  -6.859 -13.025  1.00 23.80 LIG 0.19  C 
BRANCH 42 43
ATOM     43  C   PHE E   4      -2.378  -7.788 -12.876  1.00 24.08 LIG 0.20  C 
ATOM     44 O    PHE E   4      -3.174  -7.982 -13.799  1.00 22.36 LIG-0.65  OA
ATOM     45 OXT  PHE E   4      -2.597  -8.321 -11.793  1.00 24.21 LIG-0.65  OA
ENDBRANCH 42 43
BRANCH 42 46
ATOM     46  CB  PHE E   4      -0.369  -7.304 -14.251  1.00 23.46 LIG 0.07  C 
BRANCH 46 47
ATOM     47  CG  PHE E   4      -0.283  -6.254 -15.339  1.00 22.76 LIG-0.06  A 
ATOM     48  CD1 PHE E   4       0.937  -5.712 -15.712  1.00 22.71 LIG 0.01  A 
ATOM     49  CE1 PHE E   4       1.016  -4.747 -16.703  1.00 22.42 LIG 0.00  A 
ATOM     50  CZ  PHE E   4      -0.140  -4.304 -17.325  1.00 22.02 LIG 0.00  A 
ATOM     51  CE2 PHE E   4      -1.364  -4.830 -16.958  1.00 22.12 LIG 0.00  A 
ATOM     52  CD2 PHE E   4      -1.432  -5.797 -15.970  1.00 22.51 LIG 0.01  A 
ENDBRANCH 46 47
ENDBRANCH 42 46
ENDBRANCH 39 42
ENDBRANCH 33 38
ENDBRANCH 31 33
ENDBRANCH 1 29
TORSDOF 19
ENDMDL
MODEL 44
USER: ADFR SOLUTION from run 63
USER: SCORE 13.993952 LL:  -3.325 LR: -11.920 RR:   0.000 FEB:  -6.252
USER: RMSD 11.551198
USER: SEED 62
USER: STATUS no improvement in best in 20 clusters for 5 generations
USER: GENES 21
USER: genes 0 Translation |==|  0.42164 0.41275 0.37522
USER: genes 1 Rotation |==|  0.57878 0.09174 0.24969 0.62024
USER: genes 2 Torsion [CB]-CA--N-[C] |==|  0.53669
USER: genes 3 Torsion [N]-C--CA-[N] |==|  0.44837
USER: genes 4 Torsion [C]-CA--N-[C] |==|  0.55722
USER: genes 5 Torsion [N]-C--CA-[N] |==|  0.41315
USER: genes 6 Torsion [C]-CA--N-[C] |==|  0.56214
USER: genes 7 Torsion [C]-CA--CB-[CG] |==|  0.32772
USER: genes 8 Torsion [CA]-CB--CG-[CD] |==|  0.26313
USER: genes 9 Torsion [CB]-CG--CD-[OE1] |==|  0.28901
USER: genes 10 Torsion [N]-CA--CB-[CG] |==|  0.61332
USER: genes 11 Torsion [CA]-CB--CG-[OD1] |==|  0.21402
USER: genes 12 Torsion [N]-CA--C-[N] |==|  0.37388
USER: genes 13 Torsion [C]-N--CA-[C] |==|  0.66098
USER: genes 14 Torsion [N]-CA--CB-[CG] |==|  0.14732
USER: genes 15 Torsion [CA]-CB--CG-[CD2] |==|  0.58945
USER: genes 16 Torsion [N]-CA--C-[N] |==|  0.50644
USER: genes 17 Torsion [C]-N--CA-[CB] |==|  0.18739
USER: genes 18 Torsion [N]-CA--C-[O] |==|  0.06373
USER: genes 19 Torsion [N]-CA--CB-[CG] |==|  0.64562
USER: genes 20 Torsion [CA]-CB--CG-[CD2] |==|  0.73298
ROOT
ATOM      1  CA  ASP E   2       1.765  -6.797 -13.356  1.00 33.44 LIG 0.19  C 
ENDROOT
BRANCH 1 2
ATOM      2  N   ASP E   2       3.213  -6.855 -13.594  1.00 33.24 LIG-0.35  N 
ATOM      3 H    ASP E   2       3.434  -7.144 -14.373  1.00 33.24 LIG 0.16  HD
ATOM      4  C   ALA E   1       4.091  -6.483 -12.661  1.00 32.93 LIG 0.24  C 
ATOM      5 O    ALA E   1       3.760  -6.179 -11.515  1.00 31.71 LIG-0.27  OA
BRANCH 4 6
ATOM      6  CA  ALA E   1       5.562  -6.462 -13.067  1.00 33.97 LIG 0.17  C 
ATOM      7  CB  ALA E   1       6.122  -7.880 -13.110  1.00 34.31 LIG 0.04  C 
BRANCH 6 8
ATOM      8  N   ALA E   1       6.332  -5.640 -12.130  1.00 34.07 LIG-0.35  N 
ATOM      9  C   GLN E   0       7.522  -5.114 -12.431  1.00 34.65 LIG 0.24  C 
ATOM     10 O    GLN E   0       8.100  -5.298 -13.506  1.00 33.74 LIG-0.27  OA
ATOM     11 H    ALA E   1       5.946  -5.527 -11.370  1.00 34.07 LIG 0.16  HD
BRANCH 9 12
ATOM     12  CA  GLN E   0       8.149  -4.215 -11.367  1.00 34.37 LIG 0.18  C 
BRANCH 12 13
ATOM     13  N   GLN E   0       9.659  -4.274 -11.381  1.00 34.90 LIG-0.35  N 
ATOM     14  C   ACE E  -1      10.450  -3.949 -10.321  1.00 34.22 LIG 0.21  C 
ATOM     15  CH3 ACE E  -1      11.917  -4.232 -10.610  1.00 34.51 LIG 0.12  C 
ATOM     16 O    ACE E  -1      10.056  -4.354  -9.229  1.00 33.28 LIG-0.27  OA
ATOM     17 H    GLN E   0       9.980  -4.537 -12.135  1.00 34.90 LIG 0.16  HD
ENDBRANCH 12 13
BRANCH 12 18
ATOM     18  CB  GLN E   0       7.662  -2.778 -11.593  1.00 34.11 LIG 0.04  C 
BRANCH 18 19
ATOM     19  CG  GLN E   0       6.856  -2.199 -10.435  1.00 32.87 LIG 0.10  C 
BRANCH 19 20
ATOM     20  CD  GLN E   0       7.716  -1.392  -9.483  1.00 32.43 LIG 0.21  C 
ATOM     21 OE1  GLN E   0       7.678  -0.165  -9.499  1.00 31.11 LIG-0.27  OA
ATOM     22  NE2 GLN E   0       8.506  -2.073  -8.659  1.00 32.01 LIG-0.37  N 
ATOM     23 22HE GLN E   0       9.017  -1.654  -8.109  1.00 32.01 LIG 0.16  HD
ATOM     24 21HE GLN E   0       8.506  -2.933  -8.675  1.00 32.01 LIG 0.16  HD
ENDBRANCH 19 20
ENDBRANCH 18 19
ENDBRANCH 12 18
ENDBRANCH 9 12
ENDBRANCH 6 8
ENDBRANCH 4 6
ENDBRANCH 1 2
BRANCH 1 25
ATOM     25  CB  ASP E   2       1.014  -7.571 -14.438  1.00 34.81 LIG 0.15  C 
BRANCH 25 26
ATOM     26  CG  ASP E   2      -0.240  -6.853 -14.883  1.00 36.48 LIG 0.17  C 
ATOM     27 OD1  ASP E   2      -0.116  -5.877 -15.654  1.00 36.59 LIG-0.65  OA
ATOM     28 OD2  ASP E   2      -1.343  -7.244 -14.441  1.00 38.36 LIG-0.65  OA
ENDBRANCH 25 26
ENDBRANCH 1 25
BRANCH 1 29
ATOM     29  C   ASP E   2       1.341  -7.287 -11.982  1.00 31.85 LIG 0.24  C 
ATOM     30 O    ASP E   2       1.795  -8.335 -11.515  1.00 30.99 LIG-0.27  OA
ATOM     31  N   LEU E   3       0.455  -6.512 -11.351  1.00 29.32 LIG-0.35  N 
ATOM     32 H    LEU E   3       0.126  -5.797 -11.700  1.00 29.32 LIG 0.16  HD
BRANCH 31 33
ATOM     33  CA  LEU E   3      -0.052  -6.793 -10.003  1.00 27.73 LIG 0.18  C 
BRANCH 33 34
ATOM     34  CB  LEU E   3       0.387  -5.690  -9.017  1.00 28.26 LIG 0.04  C 
BRANCH 34 35
ATOM     35  CG  LEU E   3       0.078  -4.237  -9.387  1.00 28.58 LIG-0.02  C 
ATOM     36  CD2 LEU E   3       1.143  -3.282  -8.859  1.00 28.56 LIG 0.01  C 
ATOM     37  CD1 LEU E   3      -1.294  -3.839  -8.858  1.00 28.86 LIG 0.01  C 
ENDBRANCH 34 35
ENDBRANCH 33 34
BRANCH 33 38
ATOM     38  C   LEU E   3      -1.563  -6.932  -9.946  1.00 26.19 LIG 0.24  C 
ATOM     39  N   PHE E   4      -2.092  -7.140  -8.743  1.00 24.40 LIG-0.34  N 
ATOM     40 H    PHE E   4      -1.635  -7.111  -8.015  1.00 24.40 LIG 0.16  HD
ATOM     41 O    LEU E   3      -2.225  -6.867 -10.982  1.00 26.01 LIG-0.27  OA
BRANCH 39 42
ATOM     42  CA  PHE E   4      -3.503  -7.437  -8.540  1.00 23.80 LIG 0.19  C 
BRANCH 42 43
ATOM     43  C   PHE E   4      -3.832  -7.448  -7.049  1.00 24.08 LIG 0.20  C 
ATOM     44 O    PHE E   4      -3.141  -6.849  -6.222  1.00 22.36 LIG-0.65  OA
ATOM     45 OXT  PHE E   4      -4.780  -8.115  -6.646  1.00 24.21 LIG-0.65  OA
ENDBRANCH 42 43
BRANCH 42 46
ATOM     46  CB  PHE E   4      -3.845  -8.815  -9.122  1.00 23.46 LIG 0.07  C 
BRANCH 46 47
ATOM     47  CG  PHE E   4      -5.021  -8.800 -10.075  1.00 22.76 LIG-0.06  A 
ATOM     48  CD1 PHE E   4      -4.855  -8.447 -11.406  1.00 22.71 LIG 0.01  A 
ATOM     49  CE1 PHE E   4      -5.932  -8.427 -12.278  1.00 22.42 LIG 0.00  A 
ATOM     50  CZ  PHE E   4      -7.197  -8.751 -11.816  1.00 22.02 LIG 0.00  A 
ATOM     51  CE2 PHE E   4      -7.378  -9.096 -10.490  1.00 22.12 LIG 0.00  A 
ATOM     52  CD2 PHE E   4      -6.296  -9.118  -9.628  1.00 22.51 LIG 0.01  A 
ENDBRANCH 46 47
ENDBRANCH 42 46
ENDBRANCH 39 42
ENDBRANCH 33 38
ENDBRANCH 31 33
ENDBRANCH 1 29
TORSDOF 19
ENDMDL
MODEL 45
USER: ADFR SOLUTION from run 159
USER: SCORE 14.263814 LL:  -3.312 LR: -11.906 RR:   0.000 FEB:  -6.238
USER: RMSD 3.635194
USER: SEED 158
USER: STATUS no improvement in best in 19 clusters for 5 generations
USER: GENES 21
USER: genes 0 Translation |==|  0.61250 0.44119 0.38388
USER: genes 1 Rotation |==|  0.84365 0.80479 0.43368 0.68603
USER: genes 2 Torsion [CB]-CA--N-[C] |==|  0.16695
USER: genes 3 Torsion [N]-C--CA-[N] |==|  0.24937
USER: genes 4 Torsion [C]-CA--N-[C] |==|  0.81521
USER: genes 5 Torsion [N]-C--CA-[N] |==|  0.97393
USER: genes 6 Torsion [C]-CA--N-[C] |==|  0.75206
USER: genes 7 Torsion [C]-CA--CB-[CG] |==|  0.61018
USER: genes 8 Torsion [CA]-CB--CG-[CD] |==|  0.65542
USER: genes 9 Torsion [CB]-CG--CD-[OE1] |==|  0.45768
USER: genes 10 Torsion [N]-CA--CB-[CG] |==|  0.60276
USER: genes 11 Torsion [CA]-CB--CG-[OD1] |==|  0.15586
USER: genes 12 Torsion [N]-CA--C-[N] |==|  0.04706
USER: genes 13 Torsion [C]-N--CA-[C] |==|  0.69074
USER: genes 14 Torsion [N]-CA--CB-[CG] |==|  0.73204
USER: genes 15 Torsion [CA]-CB--CG-[CD2] |==|  0.58313
USER: genes 16 Torsion [N]-CA--C-[N] |==|  0.28923
USER: genes 17 Torsion [C]-N--CA-[CB] |==|  0.19177
USER: genes 18 Torsion [N]-CA--C-[O] |==|  0.94398
USER: genes 19 Torsion [N]-CA--CB-[CG] |==|  0.65242
USER: genes 20 Torsion [CA]-CB--CG-[CD2] |==|  0.69814
ROOT
ATOM      1  CA  ASP E   2       6.632  -6.327 -13.226  1.00 33.44 LIG 0.19  C 
ENDROOT
BRANCH 1 2
ATOM      2  N   ASP E   2       5.908  -6.742 -12.016  1.00 33.24 LIG-0.35  N 
ATOM      3 H    ASP E   2       6.066  -6.258 -11.323  1.00 33.24 LIG 0.16  HD
ATOM      4  C   ALA E   1       5.081  -7.789 -12.021  1.00 32.93 LIG 0.24  C 
ATOM      5 O    ALA E   1       4.954  -8.536 -12.990  1.00 31.71 LIG-0.27  OA
BRANCH 4 6
ATOM      6  CA  ALA E   1       4.286  -8.045 -10.743  1.00 33.97 LIG 0.17  C 
ATOM      7  CB  ALA E   1       4.041  -9.539 -10.561  1.00 34.31 LIG 0.04  C 
BRANCH 6 8
ATOM      8  N   ALA E   1       3.013  -7.322 -10.788  1.00 34.07 LIG-0.35  N 
ATOM      9  C   GLN E   0       2.931  -5.989 -10.772  1.00 34.65 LIG 0.24  C 
ATOM     10 O    GLN E   0       3.911  -5.244 -10.685  1.00 33.74 LIG-0.27  OA
ATOM     11 H    ALA E   1       2.324  -7.835 -10.825  1.00 34.07 LIG 0.16  HD
BRANCH 9 12
ATOM     12  CA  GLN E   0       1.528  -5.399 -10.908  1.00 34.37 LIG 0.18  C 
BRANCH 12 13
ATOM     13  N   GLN E   0       0.497  -6.446 -11.263  1.00 34.90 LIG-0.35  N 
ATOM     14  C   ACE E  -1       0.169  -6.798 -12.537  1.00 34.22 LIG 0.21  C 
ATOM     15  CH3 ACE E  -1      -0.809  -7.965 -12.560  1.00 34.51 LIG 0.12  C 
ATOM     16 O    ACE E  -1       1.117  -6.909 -13.311  1.00 33.28 LIG-0.27  OA
ATOM     17 H    GLN E   0       0.129  -6.806 -10.574  1.00 34.90 LIG 0.16  HD
ENDBRANCH 12 13
BRANCH 12 18
ATOM     18  CB  GLN E   0       1.162  -4.704  -9.590  1.00 34.11 LIG 0.04  C 
BRANCH 18 19
ATOM     19  CG  GLN E   0      -0.286  -4.906  -9.157  1.00 32.87 LIG 0.10  C 
BRANCH 19 20
ATOM     20  CD  GLN E   0      -1.011  -3.592  -8.943  1.00 32.43 LIG 0.21  C 
ATOM     21 OE1  GLN E   0      -2.237  -3.562  -8.867  1.00 31.11 LIG-0.27  OA
ATOM     22  NE2 GLN E   0      -0.262  -2.496  -8.859  1.00 32.01 LIG-0.37  N 
ATOM     23 22HE GLN E   0      -0.634  -1.729  -8.747  1.00 32.01 LIG 0.16  HD
ATOM     24 21HE GLN E   0       0.594  -2.555  -8.916  1.00 32.01 LIG 0.16  HD
ENDBRANCH 19 20
ENDBRANCH 18 19
ENDBRANCH 12 18
ENDBRANCH 9 12
ENDBRANCH 6 8
ENDBRANCH 4 6
ENDBRANCH 1 2
BRANCH 1 25
ATOM     25  CB  ASP E   2       5.649  -5.963 -14.337  1.00 34.81 LIG 0.15  C 
BRANCH 25 26
ATOM     26  CG  ASP E   2       6.150  -6.390 -15.699  1.00 36.48 LIG 0.17  C 
ATOM     27 OD1  ASP E   2       6.439  -7.594 -15.869  1.00 36.59 LIG-0.65  OA
ATOM     28 OD2  ASP E   2       6.280  -5.520 -16.589  1.00 38.36 LIG-0.65  OA
ENDBRANCH 25 26
ENDBRANCH 1 25
BRANCH 1 29
ATOM     29  C   ASP E   2       7.608  -5.184 -13.005  1.00 31.85 LIG 0.24  C 
ATOM     30 O    ASP E   2       8.052  -4.538 -13.956  1.00 30.99 LIG-0.27  OA
ATOM     31  N   LEU E   3       7.935  -4.957 -11.730  1.00 29.32 LIG-0.35  N 
ATOM     32 H    LEU E   3       7.638  -5.432 -11.078  1.00 29.32 LIG 0.16  HD
BRANCH 31 33
ATOM     33  CA  LEU E   3       8.834  -3.876 -11.306  1.00 27.73 LIG 0.18  C 
BRANCH 33 34
ATOM     34  CB  LEU E   3       8.157  -2.999 -10.232  1.00 28.26 LIG 0.04  C 
BRANCH 34 35
ATOM     35  CG  LEU E   3       7.470  -1.711 -10.693  1.00 28.58 LIG-0.02  C 
ATOM     36  CD2 LEU E   3       7.503  -0.637  -9.610  1.00 28.56 LIG 0.01  C 
ATOM     37  CD1 LEU E   3       6.031  -1.998 -11.102  1.00 28.86 LIG 0.01  C 
ENDBRANCH 34 35
ENDBRANCH 33 34
BRANCH 33 38
ATOM     38  C   LEU E   3      10.163  -4.377 -10.767  1.00 26.19 LIG 0.24  C 
ATOM     39  N   PHE E   4      11.212  -4.251 -11.576  1.00 24.40 LIG-0.34  N 
ATOM     40 H    PHE E   4      11.182  -3.833 -12.327  1.00 24.40 LIG 0.16  HD
ATOM     41 O    LEU E   3      10.220  -4.881  -9.645  1.00 26.01 LIG-0.27  OA
BRANCH 39 42
ATOM     42  CA  PHE E   4      12.520  -4.812 -11.266  1.00 23.80 LIG 0.19  C 
BRANCH 42 43
ATOM     43  C   PHE E   4      13.557  -4.320 -12.273  1.00 24.08 LIG 0.20  C 
ATOM     44 O    PHE E   4      13.237  -3.873 -13.377  1.00 22.36 LIG-0.65  OA
ATOM     45 OXT  PHE E   4      14.751  -4.417 -12.005  1.00 24.21 LIG-0.65  OA
ENDBRANCH 42 43
BRANCH 42 46
ATOM     46  CB  PHE E   4      12.471  -6.344 -11.332  1.00 23.46 LIG 0.07  C 
BRANCH 46 47
ATOM     47  CG  PHE E   4      12.948  -7.023 -10.065  1.00 22.76 LIG-0.06  A 
ATOM     48  CD1 PHE E   4      12.198  -6.968  -8.901  1.00 22.71 LIG 0.01  A 
ATOM     49  CE1 PHE E   4      12.637  -7.584  -7.741  1.00 22.42 LIG 0.00  A 
ATOM     50  CZ  PHE E   4      13.848  -8.257  -7.734  1.00 22.02 LIG 0.00  A 
ATOM     51  CE2 PHE E   4      14.610  -8.313  -8.886  1.00 22.12 LIG 0.00  A 
ATOM     52  CD2 PHE E   4      14.160  -7.698 -10.041  1.00 22.51 LIG 0.01  A 
ENDBRANCH 46 47
ENDBRANCH 42 46
ENDBRANCH 39 42
ENDBRANCH 33 38
ENDBRANCH 31 33
ENDBRANCH 1 29
TORSDOF 19
ENDMDL
