MODEL 1
USER: ADFR SOLUTION from run 165
USER: SCORE 17.584328 LL:  -3.889 LR: -15.154 RR:   0.000 FEB:  -9.487
USER: RMSD 1.983382
USER: SEED 164
USER: STATUS no improvement in best in 6 clusters for 5 generations
USER: GENES 21
USER: genes 0 Translation |==|  0.46896 0.37489 0.44954
USER: genes 1 Rotation |==|  0.93446 0.51574 0.74626 0.51883
USER: genes 2 Torsion [C]-N--CA-[CB] |==|  0.86566
USER: genes 3 Torsion [N]-CA--C-[N] |==|  0.37873
USER: genes 4 Torsion [C]-N--CA-[CB] |==|  0.41252
USER: genes 5 Torsion [N]-CA--C-[N] |==|  0.96111
USER: genes 6 Torsion [C]-N--CA-[C] |==|  0.57910
USER: genes 7 Torsion [N]-CA--C-[OXT] |==|  0.36577
USER: genes 8 Torsion [N]-CA--CB-[CG] |==|  0.54465
USER: genes 9 Torsion [CA]-CB--CG-[CD1] |==|  0.68062
USER: genes 10 Torsion [N]-CA--CB-[CG] |==|  0.10785
USER: genes 11 Torsion [CA]-CB--CG-[CD2] |==|  0.57901
USER: genes 12 Torsion [N]-C--CA-[N] |==|  0.94591
USER: genes 13 Torsion [C]-CA--CB-[CG] |==|  0.62743
USER: genes 14 Torsion [CA]-CB--CG-[CD1] |==|  0.41963
USER: genes 15 Torsion [C]-CA--N-[C] |==|  0.78273
USER: genes 16 Torsion [N]-C--CA-[N] |==|  0.37424
USER: genes 17 Torsion [C]-CA--N-[C] |==|  0.83475
USER: genes 18 Torsion [C]-CA--CB-[CG] |==|  0.49327
USER: genes 19 Torsion [CA]-CB--CG-[CD] |==|  0.74949
USER: genes 20 Torsion [CB]-CG--CD-[OE1] |==|  0.34805
ROOT
ATOM      1  C   LEU E   1       2.877  -7.083 -13.658  1.00 34.74 LIG 0.24  C 
ATOM      2 O    LEU E   1       3.749  -7.810 -14.123  1.00 33.94 LIG-0.27  OA
ATOM      3  N   ALA E   2       3.048  -6.353 -12.558  1.00 36.28 LIG-0.35  N 
ATOM      4 H    ALA E   2       2.446  -5.829 -12.237  1.00 36.28 LIG 0.16  HD
ENDROOT
BRANCH 3 5
ATOM      5  CA  ALA E   2       4.292  -6.375 -11.784  1.00 35.94 LIG 0.17  C 
ATOM      6  CB  ALA E   2       4.728  -7.811 -11.521  1.00 33.95 LIG 0.04  C 
BRANCH 5 7
ATOM      7  C   ALA E   2       5.381  -5.609 -12.530  1.00 35.46 LIG 0.24  C 
ATOM      8 O    ALA E   2       5.516  -5.755 -13.746  1.00 34.79 LIG-0.27  OA
ATOM      9  N   LEU E   3       6.141  -4.784 -11.803  1.00 35.08 LIG-0.35  N 
ATOM     10 H    LEU E   3       5.989  -4.598 -10.977  1.00 35.08 LIG 0.16  HD
BRANCH 9 11
ATOM     11  CA  LEU E   3       7.329  -4.109 -12.366  1.00 35.40 LIG 0.18  C 
BRANCH 11 12
ATOM     12  C   LEU E   3       8.599  -4.940 -12.199  1.00 36.56 LIG 0.24  C 
ATOM     13  N   PHE E   4       8.507  -5.961 -11.345  1.00 37.64 LIG-0.34  N 
ATOM     14 H    PHE E   4       7.774  -6.165 -10.944  1.00 37.64 LIG 0.16  HD
ATOM     15 O    LEU E   3       9.630  -4.640 -12.803  1.00 36.99 LIG-0.27  OA
BRANCH 13 16
ATOM     16  CA  PHE E   4       9.616  -6.838 -10.994  1.00 39.79 LIG 0.19  C 
BRANCH 16 17
ATOM     17  C   PHE E   4       9.072  -8.225 -10.615  1.00 40.57 LIG 0.20  C 
ATOM     18 OXT  PHE E   4       9.564  -9.238 -11.096  1.00 44.77 LIG-0.65  OA
ATOM     19 O    PHE E   4       8.144  -8.394  -9.813  1.00 38.71 LIG-0.65  OA
ENDBRANCH 16 17
BRANCH 16 20
ATOM     20  CB  PHE E   4      10.424  -6.250  -9.827  1.00 41.62 LIG 0.07  C 
BRANCH 20 21
ATOM     21  CG  PHE E   4      11.780  -6.877  -9.654  1.00 42.37 LIG-0.06  A 
ATOM     22  CD1 PHE E   4      12.082  -7.613  -8.501  1.00 43.46 LIG 0.01  A 
ATOM     23  CE1 PHE E   4      13.333  -8.181  -8.328  1.00 44.96 LIG 0.00  A 
ATOM     24  CZ  PHE E   4      14.302  -8.013  -9.310  1.00 45.96 LIG 0.00  A 
ATOM     25  CE2 PHE E   4      14.015  -7.287 -10.465  1.00 43.80 LIG 0.00  A 
ATOM     26  CD2 PHE E   4      12.759  -6.724 -10.629  1.00 42.63 LIG 0.01  A 
ENDBRANCH 20 21
ENDBRANCH 16 20
ENDBRANCH 13 16
ENDBRANCH 11 12
BRANCH 11 27
ATOM     27  CB  LEU E   3       7.557  -2.739 -11.715  1.00 33.50 LIG 0.04  C 
BRANCH 27 28
ATOM     28  CG  LEU E   3       7.331  -2.505 -10.219  1.00 34.48 LIG-0.02  C 
ATOM     29  CD2 LEU E   3       6.939  -1.071  -9.912  1.00 30.77 LIG 0.01  C 
ATOM     30  CD1 LEU E   3       8.594  -2.882  -9.450  1.00 32.68 LIG 0.01  C 
ENDBRANCH 27 28
ENDBRANCH 11 27
ENDBRANCH 9 11
ENDBRANCH 5 7
ENDBRANCH 3 5
BRANCH 1 31
ATOM     31  CA  LEU E   1       1.518  -6.963 -14.343  1.00 33.78 LIG 0.18  C 
BRANCH 31 32
ATOM     32  CB  LEU E   1       1.624  -6.107 -15.607  1.00 32.47 LIG 0.04  C 
BRANCH 32 33
ATOM     33  CG  LEU E   1       0.530  -5.045 -15.780  1.00 32.32 LIG-0.02  C 
ATOM     34  CD1 LEU E   1       1.061  -3.857 -16.575  1.00 30.19 LIG 0.01  C 
ATOM     35  CD2 LEU E   1      -0.725  -5.640 -16.422  1.00 31.57 LIG 0.01  C 
ENDBRANCH 32 33
ENDBRANCH 31 32
BRANCH 31 36
ATOM     36  N   LEU E   1       0.507  -6.427 -13.429  1.00 33.92 LIG-0.35  N 
ATOM     37  C   GLN E   0      -0.063  -7.199 -12.506  1.00 32.69 LIG 0.24  C 
ATOM     38 O    GLN E   0       0.155  -8.410 -12.413  1.00 35.54 LIG-0.27  OA
ATOM     39 H    LEU E   1       0.325  -5.594 -13.543  1.00 33.92 LIG 0.16  HD
BRANCH 37 40
ATOM     40  CA  GLN E   0      -1.016  -6.516 -11.546  1.00 31.66 LIG 0.18  C 
BRANCH 40 41
ATOM     41  N   GLN E   0      -2.264  -7.326 -11.385  1.00 30.66 LIG-0.35  N 
ATOM     42  C   ACE E  -1      -3.080  -7.644 -12.395  1.00 29.47 LIG 0.21  C 
ATOM     43 O    ACE E  -1      -2.759  -7.644 -13.575  1.00 28.51 LIG-0.27  OA
ATOM     44  CH3 ACE E  -1      -4.468  -8.082 -11.998  1.00 29.76 LIG 0.12  C 
ATOM     45 H    GLN E   0      -2.408  -7.572 -10.573  1.00 30.66 LIG 0.16  HD
ENDBRANCH 40 41
BRANCH 40 46
ATOM     46  CB  GLN E   0      -0.329  -6.302 -10.186  1.00 31.02 LIG 0.04  C 
BRANCH 46 47
ATOM     47  CG  GLN E   0      -1.169  -5.566  -9.142  1.00 30.22 LIG 0.10  C 
BRANCH 47 48
ATOM     48  CD  GLN E   0      -0.983  -4.055  -9.180  1.00 30.34 LIG 0.21  C 
ATOM     49 OE1  GLN E   0      -1.951  -3.293  -9.303  1.00 29.98 LIG-0.27  OA
ATOM     50  NE2 GLN E   0       0.262  -3.613  -9.075  1.00 28.66 LIG-0.37  N 
ATOM     51 21HE GLN E   0       0.911  -4.171  -8.991  1.00 28.66 LIG 0.16  HD
ATOM     52 22HE GLN E   0       0.422  -2.768  -9.090  1.00 28.66 LIG 0.16  HD
ENDBRANCH 47 48
ENDBRANCH 46 47
ENDBRANCH 40 46
ENDBRANCH 37 40
ENDBRANCH 31 36
ENDBRANCH 1 31
TORSDOF 19
ENDMDL
MODEL 2
USER: ADFR SOLUTION from run 198
USER: SCORE 16.072967 LL:  -3.917 LR: -14.745 RR:   0.000 FEB:  -9.078
USER: RMSD 3.878838
USER: SEED 197
USER: STATUS no improvement in best in 20 clusters for 5 generations
USER: GENES 21
USER: genes 0 Translation |==|  0.45383 0.43599 0.55528
USER: genes 1 Rotation |==|  0.48308 0.63933 0.41030 0.97144
USER: genes 2 Torsion [C]-N--CA-[CB] |==|  0.51321
USER: genes 3 Torsion [N]-CA--C-[N] |==|  0.26160
USER: genes 4 Torsion [C]-N--CA-[CB] |==|  0.39316
USER: genes 5 Torsion [N]-CA--C-[N] |==|  0.94359
USER: genes 6 Torsion [C]-N--CA-[C] |==|  0.50874
USER: genes 7 Torsion [N]-CA--C-[OXT] |==|  0.40090
USER: genes 8 Torsion [N]-CA--CB-[CG] |==|  0.48366
USER: genes 9 Torsion [CA]-CB--CG-[CD1] |==|  0.68068
USER: genes 10 Torsion [N]-CA--CB-[CG] |==|  0.47214
USER: genes 11 Torsion [CA]-CB--CG-[CD2] |==|  0.70941
USER: genes 12 Torsion [N]-C--CA-[N] |==|  0.97731
USER: genes 13 Torsion [C]-CA--CB-[CG] |==|  0.31414
USER: genes 14 Torsion [CA]-CB--CG-[CD1] |==|  0.46183
USER: genes 15 Torsion [C]-CA--N-[C] |==|  0.80143
USER: genes 16 Torsion [N]-C--CA-[N] |==|  0.97222
USER: genes 17 Torsion [C]-CA--N-[C] |==|  0.21034
USER: genes 18 Torsion [C]-CA--CB-[CG] |==|  0.26372
USER: genes 19 Torsion [CA]-CB--CG-[CD] |==|  0.70300
USER: genes 20 Torsion [CB]-CG--CD-[OE1] |==|  0.25320
ROOT
ATOM      1  C   LEU E   1       2.491  -6.075 -11.913  1.00 34.74 LIG 0.24  C 
ATOM      2 O    LEU E   1       3.243  -5.458 -11.165  1.00 33.94 LIG-0.27  OA
ATOM      3  N   ALA E   2       2.910  -7.027 -12.745  1.00 36.28 LIG-0.35  N 
ATOM      4 H    ALA E   2       2.384  -7.474 -13.258  1.00 36.28 LIG 0.16  HD
ENDROOT
BRANCH 3 5
ATOM      5  CA  ALA E   2       4.320  -7.403 -12.863  1.00 35.94 LIG 0.17  C 
ATOM      6  CB  ALA E   2       4.505  -8.431 -13.972  1.00 33.95 LIG 0.04  C 
BRANCH 5 7
ATOM      7  C   ALA E   2       5.167  -6.162 -13.133  1.00 35.46 LIG 0.24  C 
ATOM      8 O    ALA E   2       5.309  -5.750 -14.286  1.00 34.79 LIG-0.27  OA
ATOM      9  N   LEU E   3       5.714  -5.563 -12.070  1.00 35.08 LIG-0.35  N 
ATOM     10 H    LEU E   3       5.538  -5.782 -11.257  1.00 35.08 LIG 0.16  HD
BRANCH 9 11
ATOM     11  CA  LEU E   3       6.683  -4.457 -12.203  1.00 35.40 LIG 0.18  C 
BRANCH 11 12
ATOM     12  C   LEU E   3       8.129  -4.940 -12.113  1.00 36.56 LIG 0.24  C 
ATOM     13  N   PHE E   4       8.300  -6.126 -11.528  1.00 37.64 LIG-0.34  N 
ATOM     14 H    PHE E   4       7.642  -6.608 -11.254  1.00 37.64 LIG 0.16  HD
ATOM     15 O    LEU E   3       9.052  -4.242 -12.534  1.00 36.99 LIG-0.27  OA
BRANCH 13 16
ATOM     16  CA  PHE E   4       9.598  -6.740 -11.285  1.00 39.79 LIG 0.19  C 
BRANCH 16 17
ATOM     17  C   PHE E   4       9.399  -8.133 -10.667  1.00 40.57 LIG 0.20  C 
ATOM     18 OXT  PHE E   4      10.156  -9.054 -10.950  1.00 44.77 LIG-0.65  OA
ATOM     19 O    PHE E   4       8.498  -8.394  -9.857  1.00 38.71 LIG-0.65  OA
ENDBRANCH 16 17
BRANCH 16 20
ATOM     20  CB  PHE E   4      10.446  -5.864 -10.351  1.00 41.62 LIG 0.07  C 
BRANCH 20 21
ATOM     21  CG  PHE E   4      11.747  -6.498  -9.941  1.00 42.37 LIG-0.06  A 
ATOM     22  CD1 PHE E   4      11.985  -6.836  -8.603  1.00 43.46 LIG 0.01  A 
ATOM     23  CE1 PHE E   4      13.185  -7.408  -8.216  1.00 44.96 LIG 0.00  A 
ATOM     24  CZ  PHE E   4      14.168  -7.644  -9.169  1.00 45.96 LIG 0.00  A 
ATOM     25  CE2 PHE E   4      13.945  -7.317 -10.506  1.00 43.80 LIG 0.00  A 
ATOM     26  CD2 PHE E   4      12.739  -6.748 -10.883  1.00 42.63 LIG 0.01  A 
ENDBRANCH 20 21
ENDBRANCH 16 20
ENDBRANCH 13 16
ENDBRANCH 11 12
BRANCH 11 27
ATOM     27  CB  LEU E   3       6.462  -3.386 -11.127  1.00 33.50 LIG 0.04  C 
BRANCH 27 28
ATOM     28  CG  LEU E   3       7.463  -2.250 -10.898  1.00 34.48 LIG-0.02  C 
ATOM     29  CD2 LEU E   3       8.302  -2.463  -9.651  1.00 30.77 LIG 0.01  C 
ATOM     30  CD1 LEU E   3       6.713  -0.924 -10.808  1.00 32.68 LIG 0.01  C 
ENDBRANCH 27 28
ENDBRANCH 11 27
ENDBRANCH 9 11
ENDBRANCH 5 7
ENDBRANCH 3 5
BRANCH 1 31
ATOM     31  CA  LEU E   1       0.991  -5.788 -11.916  1.00 33.78 LIG 0.18  C 
BRANCH 31 32
ATOM     32  CB  LEU E   1       0.373  -6.130 -10.559  1.00 32.47 LIG 0.04  C 
BRANCH 32 33
ATOM     33  CG  LEU E   1      -0.155  -4.936  -9.753  1.00 32.32 LIG-0.02  C 
ATOM     34  CD1 LEU E   1      -1.036  -5.416  -8.605  1.00 30.19 LIG 0.01  C 
ATOM     35  CD2 LEU E   1       0.990  -4.050  -9.257  1.00 31.57 LIG 0.01  C 
ENDBRANCH 32 33
ENDBRANCH 31 32
BRANCH 31 36
ATOM     36  N   LEU E   1       0.315  -6.506 -12.999  1.00 33.92 LIG-0.35  N 
ATOM     37  C   GLN E   0       0.477  -6.144 -14.270  1.00 32.69 LIG 0.24  C 
ATOM     38 O    GLN E   0       1.127  -5.152 -14.610  1.00 35.54 LIG-0.27  OA
ATOM     39 H    LEU E   1      -0.180  -7.161 -12.741  1.00 33.92 LIG 0.16  HD
BRANCH 37 40
ATOM     40  CA  GLN E   0      -0.184  -7.022 -15.313  1.00 31.66 LIG 0.18  C 
BRANCH 40 41
ATOM     41  N   GLN E   0      -0.699  -8.279 -14.687  1.00 30.66 LIG-0.35  N 
ATOM     42  C   ACE E  -1      -1.806  -8.338 -13.939  1.00 29.47 LIG 0.21  C 
ATOM     43 O    ACE E  -1      -2.707  -7.511 -13.964  1.00 28.51 LIG-0.27  OA
ATOM     44  CH3 ACE E  -1      -1.935  -9.558 -13.060  1.00 29.76 LIG 0.12  C 
ATOM     45 H    GLN E   0      -0.212  -8.967 -14.854  1.00 30.66 LIG 0.16  HD
ENDBRANCH 40 41
BRANCH 40 46
ATOM     46  CB  GLN E   0      -1.324  -6.252 -16.001  1.00 31.02 LIG 0.04  C 
BRANCH 46 47
ATOM     47  CG  GLN E   0      -0.945  -5.559 -17.310  1.00 30.22 LIG 0.10  C 
BRANCH 47 48
ATOM     48  CD  GLN E   0      -0.843  -4.045 -17.179  1.00 30.34 LIG 0.21  C 
ATOM     49 OE1  GLN E   0       0.230  -3.496 -16.895  1.00 29.98 LIG-0.27  OA
ATOM     50  NE2 GLN E   0      -1.960  -3.361 -17.386  1.00 28.66 LIG-0.37  N 
ATOM     51 21HE GLN E   0      -2.688  -3.775 -17.582  1.00 28.66 LIG 0.16  HD
ATOM     52 22HE GLN E   0      -1.957  -2.502 -17.325  1.00 28.66 LIG 0.16  HD
ENDBRANCH 47 48
ENDBRANCH 46 47
ENDBRANCH 40 46
ENDBRANCH 37 40
ENDBRANCH 31 36
ENDBRANCH 1 31
TORSDOF 19
ENDMDL
MODEL 3
USER: ADFR SOLUTION from run 57
USER: SCORE 16.825763 LL:  -4.047 LR: -14.463 RR:   0.000 FEB:  -8.795
USER: RMSD 2.754014
USER: SEED 56
USER: STATUS searching
USER: GENES 21
USER: genes 0 Translation |==|  0.45640 0.38771 0.46789
USER: genes 1 Rotation |==|  0.04525 0.51570 0.29388 0.52172
USER: genes 2 Torsion [C]-N--CA-[CB] |==|  0.85811
USER: genes 3 Torsion [N]-CA--C-[N] |==|  0.35656
USER: genes 4 Torsion [C]-N--CA-[CB] |==|  0.39118
USER: genes 5 Torsion [N]-CA--C-[N] |==|  0.96075
USER: genes 6 Torsion [C]-N--CA-[C] |==|  0.57819
USER: genes 7 Torsion [N]-CA--C-[OXT] |==|  0.88525
USER: genes 8 Torsion [N]-CA--CB-[CG] |==|  0.52252
USER: genes 9 Torsion [CA]-CB--CG-[CD1] |==|  0.17918
USER: genes 10 Torsion [N]-CA--CB-[CG] |==|  0.08071
USER: genes 11 Torsion [CA]-CB--CG-[CD2] |==|  0.58679
USER: genes 12 Torsion [N]-C--CA-[N] |==|  0.94316
USER: genes 13 Torsion [C]-CA--CB-[CG] |==|  0.45065
USER: genes 14 Torsion [CA]-CB--CG-[CD1] |==|  0.55847
USER: genes 15 Torsion [C]-CA--N-[C] |==|  0.82148
USER: genes 16 Torsion [N]-C--CA-[N] |==|  0.00058
USER: genes 17 Torsion [C]-CA--N-[C] |==|  0.64448
USER: genes 18 Torsion [C]-CA--CB-[CG] |==|  0.37130
USER: genes 19 Torsion [CA]-CB--CG-[CD] |==|  0.10262
USER: genes 20 Torsion [CB]-CG--CD-[OE1] |==|  0.26903
ROOT
ATOM      1  C   LEU E   1       2.556  -6.872 -13.355  1.00 34.74 LIG 0.24  C 
ATOM      2 O    LEU E   1       3.292  -7.506 -14.105  1.00 33.94 LIG-0.27  OA
ATOM      3  N   ALA E   2       2.958  -6.382 -12.183  1.00 36.28 LIG-0.35  N 
ATOM      4 H    ALA E   2       2.451  -5.923 -11.662  1.00 36.28 LIG 0.16  HD
ENDROOT
BRANCH 3 5
ATOM      5  CA  ALA E   2       4.314  -6.585 -11.668  1.00 35.94 LIG 0.17  C 
ATOM      6  CB  ALA E   2       4.683  -8.063 -11.714  1.00 33.95 LIG 0.04  C 
BRANCH 5 7
ATOM      7  C   ALA E   2       5.306  -5.756 -12.480  1.00 35.46 LIG 0.24  C 
ATOM      8 O    ALA E   2       5.306  -5.824 -13.710  1.00 34.79 LIG-0.27  OA
ATOM      9  N   LEU E   3       6.136  -4.967 -11.790  1.00 35.08 LIG-0.35  N 
ATOM     10 H    LEU E   3       6.076  -4.836 -10.942  1.00 35.08 LIG 0.16  HD
BRANCH 9 11
ATOM     11  CA  LEU E   3       7.247  -4.240 -12.436  1.00 35.40 LIG 0.18  C 
BRANCH 11 12
ATOM     12  C   LEU E   3       8.578  -4.977 -12.300  1.00 36.56 LIG 0.24  C 
ATOM     13  N   PHE E   4       8.596  -5.963 -11.402  1.00 37.64 LIG-0.34  N 
ATOM     14 H    PHE E   4       7.898  -6.198 -10.957  1.00 37.64 LIG 0.16  HD
ATOM     15 O    LEU E   3       9.555  -4.637 -12.967  1.00 36.99 LIG-0.27  OA
BRANCH 13 16
ATOM     16  CA  PHE E   4       9.777  -6.749 -11.072  1.00 39.79 LIG 0.19  C 
BRANCH 16 17
ATOM     17  C   PHE E   4       9.347  -8.148 -10.602  1.00 40.57 LIG 0.20  C 
ATOM     18 OXT  PHE E   4       8.382  -8.285  -9.860  1.00 44.77 LIG-0.65  OA
ATOM     19 O    PHE E   4       9.922  -9.188 -10.950  1.00 38.71 LIG-0.65  OA
ENDBRANCH 16 17
BRANCH 16 20
ATOM     20  CB  PHE E   4      10.602  -6.055  -9.978  1.00 41.62 LIG 0.07  C 
BRANCH 20 21
ATOM     21  CG  PHE E   4      11.934  -6.705  -9.720  1.00 42.37 LIG-0.06  A 
ATOM     22  CD1 PHE E   4      12.920  -6.728 -10.713  1.00 43.46 LIG 0.01  A 
ATOM     23  CE1 PHE E   4      14.143  -7.337 -10.488  1.00 44.96 LIG 0.00  A 
ATOM     24  CZ  PHE E   4      14.391  -7.938  -9.259  1.00 45.96 LIG 0.00  A 
ATOM     25  CE2 PHE E   4      13.421  -7.919  -8.259  1.00 43.80 LIG 0.00  A 
ATOM     26  CD2 PHE E   4      12.201  -7.304  -8.494  1.00 42.63 LIG 0.01  A 
ENDBRANCH 20 21
ENDBRANCH 16 20
ENDBRANCH 13 16
ENDBRANCH 11 12
BRANCH 11 27
ATOM     27  CB  LEU E   3       7.412  -2.831 -11.851  1.00 33.50 LIG 0.04  C 
BRANCH 27 28
ATOM     28  CG  LEU E   3       7.029  -2.505 -10.406  1.00 34.48 LIG-0.02  C 
ATOM     29  CD2 LEU E   3       6.550  -1.074 -10.244  1.00 30.77 LIG 0.01  C 
ATOM     30  CD1 LEU E   3       8.224  -2.766  -9.493  1.00 32.68 LIG 0.01  C 
ENDBRANCH 27 28
ENDBRANCH 11 27
ENDBRANCH 9 11
ENDBRANCH 5 7
ENDBRANCH 3 5
BRANCH 1 31
ATOM     31  CA  LEU E   1       1.108  -6.588 -13.745  1.00 33.78 LIG 0.18  C 
BRANCH 31 32
ATOM     32  CB  LEU E   1       1.038  -5.479 -14.796  1.00 32.47 LIG 0.04  C 
BRANCH 32 33
ATOM     33  CG  LEU E   1      -0.281  -5.389 -15.576  1.00 32.32 LIG-0.02  C 
ATOM     34  CD1 LEU E   1      -0.072  -4.647 -16.891  1.00 30.19 LIG 0.01  C 
ATOM     35  CD2 LEU E   1      -0.892  -6.774 -15.797  1.00 31.57 LIG 0.01  C 
ENDBRANCH 32 33
ENDBRANCH 31 32
BRANCH 31 36
ATOM     36  N   LEU E   1       0.298  -6.252 -12.571  1.00 33.92 LIG-0.35  N 
ATOM     37  C   GLN E   0       0.087  -7.142 -11.604  1.00 32.69 LIG 0.24  C 
ATOM     38 O    GLN E   0       0.481  -8.309 -11.665  1.00 35.54 LIG-0.27  OA
ATOM     39 H    LEU E   1      -0.017  -5.451 -12.569  1.00 33.92 LIG 0.16  HD
BRANCH 37 40
ATOM     40  CA  GLN E   0      -0.675  -6.653 -10.389  1.00 31.66 LIG 0.18  C 
BRANCH 40 41
ATOM     41  N   GLN E   0      -1.046  -5.213 -10.551  1.00 30.66 LIG-0.35  N 
ATOM     42  C   ACE E  -1      -0.781  -4.269  -9.641  1.00 29.47 LIG 0.21  C 
ATOM     43 O    ACE E  -1       0.076  -4.361  -8.773  1.00 28.51 LIG-0.27  OA
ATOM     44  CH3 ACE E  -1      -1.582  -2.997  -9.769  1.00 29.76 LIG 0.12  C 
ATOM     45 H    GLN E   0      -1.450  -5.046 -11.291  1.00 30.66 LIG 0.16  HD
ENDBRANCH 40 41
BRANCH 40 46
ATOM     46  CB  GLN E   0      -1.931  -7.516 -10.174  1.00 31.02 LIG 0.04  C 
BRANCH 46 47
ATOM     47  CG  GLN E   0      -2.163  -7.980  -8.736  1.00 30.22 LIG 0.10  C 
BRANCH 47 48
ATOM     48  CD  GLN E   0      -1.776  -6.935  -7.699  1.00 30.34 LIG 0.21  C 
ATOM     49 OE1  GLN E   0      -2.623  -6.181  -7.200  1.00 29.98 LIG-0.27  OA
ATOM     50  NE2 GLN E   0      -0.493  -6.883  -7.367  1.00 28.66 LIG-0.37  N 
ATOM     51 21HE GLN E   0       0.068  -7.422  -7.733  1.00 28.66 LIG 0.16  HD
ATOM     52 22HE GLN E   0      -0.222  -6.311  -6.785  1.00 28.66 LIG 0.16  HD
ENDBRANCH 47 48
ENDBRANCH 46 47
ENDBRANCH 40 46
ENDBRANCH 37 40
ENDBRANCH 31 36
ENDBRANCH 1 31
TORSDOF 19
ENDMDL
MODEL 4
USER: ADFR SOLUTION from run 132
USER: SCORE 14.828145 LL:  -3.723 LR: -14.364 RR:   0.000 FEB:  -8.696
USER: RMSD 10.814490
USER: SEED 131
USER: STATUS no improvement in best in 1 clusters for 5 generations
USER: GENES 21
USER: genes 0 Translation |==|  0.62531 0.50676 0.50974
USER: genes 1 Rotation |==|  0.37411 0.96603 0.39185 0.57260
USER: genes 2 Torsion [C]-N--CA-[CB] |==|  0.35766
USER: genes 3 Torsion [N]-CA--C-[N] |==|  0.40071
USER: genes 4 Torsion [C]-N--CA-[CB] |==|  0.46667
USER: genes 5 Torsion [N]-CA--C-[N] |==|  0.45362
USER: genes 6 Torsion [C]-N--CA-[C] |==|  0.66459
USER: genes 7 Torsion [N]-CA--C-[OXT] |==|  0.52147
USER: genes 8 Torsion [N]-CA--CB-[CG] |==|  0.95053
USER: genes 9 Torsion [CA]-CB--CG-[CD1] |==|  0.35596
USER: genes 10 Torsion [N]-CA--CB-[CG] |==|  0.74343
USER: genes 11 Torsion [CA]-CB--CG-[CD2] |==|  0.62968
USER: genes 12 Torsion [N]-C--CA-[N] |==|  0.30962
USER: genes 13 Torsion [C]-CA--CB-[CG] |==|  0.30038
USER: genes 14 Torsion [CA]-CB--CG-[CD1] |==|  0.22506
USER: genes 15 Torsion [C]-CA--N-[C] |==|  0.55691
USER: genes 16 Torsion [N]-C--CA-[N] |==|  0.86248
USER: genes 17 Torsion [C]-CA--N-[C] |==|  0.79452
USER: genes 18 Torsion [C]-CA--CB-[CG] |==|  0.56589
USER: genes 19 Torsion [CA]-CB--CG-[CD] |==|  0.59803
USER: genes 20 Torsion [CB]-CG--CD-[OE1] |==|  0.40259
ROOT
ATOM      1  C   LEU E   1       6.863  -4.908 -12.664  1.00 34.74 LIG 0.24  C 
ATOM      2 O    LEU E   1       6.980  -4.691 -13.867  1.00 33.94 LIG-0.27  OA
ATOM      3  N   ALA E   2       6.038  -5.826 -12.166  1.00 36.28 LIG-0.35  N 
ATOM      4 H    ALA E   2       5.966  -5.993 -11.325  1.00 36.28 LIG 0.16  HD
ENDROOT
BRANCH 3 5
ATOM      5  CA  ALA E   2       5.168  -6.645 -13.013  1.00 35.94 LIG 0.17  C 
ATOM      6  CB  ALA E   2       5.336  -8.121 -12.678  1.00 33.95 LIG 0.04  C 
BRANCH 5 7
ATOM      7  C   ALA E   2       3.714  -6.214 -12.833  1.00 35.46 LIG 0.24  C 
ATOM      8 O    ALA E   2       3.315  -5.834 -11.731  1.00 34.79 LIG-0.27  OA
ATOM      9  N   LEU E   3       2.935  -6.259 -13.918  1.00 35.08 LIG-0.35  N 
ATOM     10 H    LEU E   3       3.228  -6.423 -14.710  1.00 35.08 LIG 0.16  HD
BRANCH 9 11
ATOM     11  CA  LEU E   3       1.478  -6.026 -13.850  1.00 35.40 LIG 0.18  C 
BRANCH 11 12
ATOM     12  C   LEU E   3       0.743  -7.169 -13.153  1.00 36.56 LIG 0.24  C 
ATOM     13  N   PHE E   4      -0.496  -6.888 -12.745  1.00 37.64 LIG-0.34  N 
ATOM     14 H    PHE E   4      -0.873  -6.130 -12.896  1.00 37.64 LIG 0.16  HD
ATOM     15 O    LEU E   3       1.297  -8.253 -12.970  1.00 36.99 LIG-0.27  OA
BRANCH 13 16
ATOM     16  CA  PHE E   4      -1.345  -7.813 -12.007  1.00 39.79 LIG 0.19  C 
BRANCH 16 17
ATOM     17  C   PHE E   4      -2.635  -8.069 -12.802  1.00 40.57 LIG 0.20  C 
ATOM     18 OXT  PHE E   4      -3.556  -8.706 -12.305  1.00 44.77 LIG-0.65  OA
ATOM     19 O    PHE E   4      -2.821  -7.644 -13.950  1.00 38.71 LIG-0.65  OA
ENDBRANCH 16 17
BRANCH 16 20
ATOM     20  CB  PHE E   4      -1.682  -7.249 -10.618  1.00 41.62 LIG 0.07  C 
BRANCH 20 21
ATOM     21  CG  PHE E   4      -0.765  -6.142 -10.175  1.00 42.37 LIG-0.06  A 
ATOM     22  CD1 PHE E   4      -1.286  -4.922  -9.726  1.00 43.46 LIG 0.01  A 
ATOM     23  CE1 PHE E   4      -0.448  -3.894  -9.330  1.00 44.96 LIG 0.00  A 
ATOM     24  CZ  PHE E   4       0.929  -4.075  -9.384  1.00 45.96 LIG 0.00  A 
ATOM     25  CE2 PHE E   4       1.462  -5.285  -9.825  1.00 43.80 LIG 0.00  A 
ATOM     26  CD2 PHE E   4       0.615  -6.309 -10.217  1.00 42.63 LIG 0.01  A 
ENDBRANCH 20 21
ENDBRANCH 16 20
ENDBRANCH 13 16
ENDBRANCH 11 12
BRANCH 11 27
ATOM     27  CB  LEU E   3       0.873  -5.841 -15.247  1.00 33.50 LIG 0.04  C 
BRANCH 27 28
ATOM     28  CG  LEU E   3       0.712  -4.458 -15.883  1.00 34.48 LIG-0.02  C 
ATOM     29  CD2 LEU E   3      -0.664  -4.260 -16.494  1.00 30.77 LIG 0.01  C 
ATOM     30  CD1 LEU E   3       1.792  -4.260 -16.944  1.00 32.68 LIG 0.01  C 
ENDBRANCH 27 28
ENDBRANCH 11 27
ENDBRANCH 9 11
ENDBRANCH 5 7
ENDBRANCH 3 5
BRANCH 1 31
ATOM     31  CA  LEU E   1       7.694  -4.125 -11.651  1.00 33.78 LIG 0.18  C 
BRANCH 31 32
ATOM     32  CB  LEU E   1       7.478  -2.620 -11.822  1.00 32.47 LIG 0.04  C 
BRANCH 32 33
ATOM     33  CG  LEU E   1       6.659  -1.939 -10.716  1.00 32.32 LIG-0.02  C 
ATOM     34  CD1 LEU E   1       7.537  -1.646  -9.506  1.00 30.19 LIG 0.01  C 
ATOM     35  CD2 LEU E   1       5.967  -0.676 -11.234  1.00 31.57 LIG 0.01  C 
ENDBRANCH 32 33
ENDBRANCH 31 32
BRANCH 31 36
ATOM     36  N   LEU E   1       9.115  -4.466 -11.752  1.00 33.92 LIG-0.35  N 
ATOM     37  C   GLN E   0       9.951  -4.233 -10.742  1.00 32.69 LIG 0.24  C 
ATOM     38 O    GLN E   0       9.613  -3.653  -9.708  1.00 35.54 LIG-0.27  OA
ATOM     39 H    LEU E   1       9.348  -4.819 -12.501  1.00 33.92 LIG 0.16  HD
BRANCH 37 40
ATOM     40  CA  GLN E   0      11.375  -4.723 -10.916  1.00 31.66 LIG 0.18  C 
BRANCH 40 41
ATOM     41  N   GLN E   0      11.385  -6.151 -11.362  1.00 30.66 LIG-0.35  N 
ATOM     42  C   ACE E  -1      11.098  -7.183 -10.561  1.00 29.47 LIG 0.21  C 
ATOM     43 O    ACE E  -1      10.462  -7.099  -9.520  1.00 28.51 LIG-0.27  OA
ATOM     44  CH3 ACE E  -1      11.562  -8.534 -11.047  1.00 29.76 LIG 0.12  C 
ATOM     45 H    GLN E   0      11.594  -6.248 -12.190  1.00 30.66 LIG 0.16  HD
ENDBRANCH 40 41
BRANCH 40 46
ATOM     46  CB  GLN E   0      12.117  -3.833 -11.928  1.00 31.02 LIG 0.04  C 
BRANCH 46 47
ATOM     47  CG  GLN E   0      13.310  -4.492 -12.621  1.00 30.22 LIG 0.10  C 
BRANCH 47 48
ATOM     48  CD  GLN E   0      14.455  -3.525 -12.892  1.00 30.34 LIG 0.21  C 
ATOM     49 OE1  GLN E   0      15.635  -3.894 -12.825  1.00 29.98 LIG-0.27  OA
ATOM     50  NE2 GLN E   0      14.113  -2.282 -13.200  1.00 28.66 LIG-0.37  N 
ATOM     51 21HE GLN E   0      13.283  -2.061 -13.237  1.00 28.66 LIG 0.16  HD
ATOM     52 22HE GLN E   0      14.722  -1.696 -13.362  1.00 28.66 LIG 0.16  HD
ENDBRANCH 47 48
ENDBRANCH 46 47
ENDBRANCH 40 46
ENDBRANCH 37 40
ENDBRANCH 31 36
ENDBRANCH 1 31
TORSDOF 19
ENDMDL
MODEL 5
USER: ADFR SOLUTION from run 38
USER: SCORE 15.289780 LL:  -3.610 LR: -14.339 RR:   0.000 FEB:  -8.671
USER: RMSD 11.319814
USER: SEED 37
USER: STATUS searching
USER: GENES 21
USER: genes 0 Translation |==|  0.63207 0.52327 0.53679
USER: genes 1 Rotation |==|  0.45780 0.94029 0.28089 0.57973
USER: genes 2 Torsion [C]-N--CA-[CB] |==|  0.18515
USER: genes 3 Torsion [N]-CA--C-[N] |==|  0.48975
USER: genes 4 Torsion [C]-N--CA-[CB] |==|  0.14612
USER: genes 5 Torsion [N]-CA--C-[N] |==|  0.69313
USER: genes 6 Torsion [C]-N--CA-[C] |==|  0.15432
USER: genes 7 Torsion [N]-CA--C-[OXT] |==|  0.64350
USER: genes 8 Torsion [N]-CA--CB-[CG] |==|  0.83815
USER: genes 9 Torsion [CA]-CB--CG-[CD1] |==|  0.21886
USER: genes 10 Torsion [N]-CA--CB-[CG] |==|  0.54829
USER: genes 11 Torsion [CA]-CB--CG-[CD2] |==|  0.44852
USER: genes 12 Torsion [N]-C--CA-[N] |==|  0.39456
USER: genes 13 Torsion [C]-CA--CB-[CG] |==|  0.28732
USER: genes 14 Torsion [CA]-CB--CG-[CD1] |==|  0.26150
USER: genes 15 Torsion [C]-CA--N-[C] |==|  0.53378
USER: genes 16 Torsion [N]-C--CA-[N] |==|  0.81318
USER: genes 17 Torsion [C]-CA--N-[C] |==|  0.78199
USER: genes 18 Torsion [C]-CA--CB-[CG] |==|  0.33700
USER: genes 19 Torsion [CA]-CB--CG-[CD] |==|  0.36455
USER: genes 20 Torsion [CB]-CG--CD-[OE1] |==|  0.57203
ROOT
ATOM      1  C   LEU E   1       7.036  -4.635 -12.218  1.00 34.74 LIG 0.24  C 
ATOM      2 O    LEU E   1       7.404  -4.966 -13.341  1.00 33.94 LIG-0.27  OA
ATOM      3  N   ALA E   2       5.862  -4.994 -11.701  1.00 36.28 LIG-0.35  N 
ATOM      4 H    ALA E   2       5.606  -4.778 -10.909  1.00 36.28 LIG 0.16  HD
ENDROOT
BRANCH 3 5
ATOM      5  CA  ALA E   2       4.888  -5.797 -12.444  1.00 35.94 LIG 0.17  C 
ATOM      6  CB  ALA E   2       5.429  -7.200 -12.685  1.00 33.95 LIG 0.04  C 
BRANCH 5 7
ATOM      7  C   ALA E   2       3.568  -5.851 -11.678  1.00 35.46 LIG 0.24  C 
ATOM      8 O    ALA E   2       3.473  -5.311 -10.575  1.00 34.79 LIG-0.27  OA
ATOM      9  N   LEU E   3       2.554  -6.489 -12.272  1.00 35.08 LIG-0.35  N 
ATOM     10 H    LEU E   3       2.581  -6.778 -13.081  1.00 35.08 LIG 0.16  HD
BRANCH 9 11
ATOM     11  CA  LEU E   3       1.279  -6.755 -11.576  1.00 35.40 LIG 0.18  C 
BRANCH 11 12
ATOM     12  C   LEU E   3       0.233  -7.371 -12.502  1.00 36.56 LIG 0.24  C 
ATOM     13  N   PHE E   4      -0.799  -6.583 -12.805  1.00 37.64 LIG-0.34  N 
ATOM     14 H    PHE E   4      -0.857  -5.769 -12.532  1.00 37.64 LIG 0.16  HD
ATOM     15 O    LEU E   3       0.351  -8.532 -12.898  1.00 36.99 LIG-0.27  OA
BRANCH 13 16
ATOM     16  CA  PHE E   4      -1.935  -6.995 -13.619  1.00 39.79 LIG 0.19  C 
BRANCH 16 17
ATOM     17  C   PHE E   4      -2.572  -8.254 -13.009  1.00 40.57 LIG 0.20  C 
ATOM     18 OXT  PHE E   4      -2.774  -9.246 -13.699  1.00 44.77 LIG-0.65  OA
ATOM     19 O    PHE E   4      -2.892  -8.343 -11.816  1.00 38.71 LIG-0.65  OA
ENDBRANCH 16 17
BRANCH 16 20
ATOM     20  CB  PHE E   4      -1.493  -7.274 -15.064  1.00 41.62 LIG 0.07  C 
BRANCH 20 21
ATOM     21  CG  PHE E   4      -0.844  -6.095 -15.736  1.00 42.37 LIG-0.06  A 
ATOM     22  CD1 PHE E   4       0.491  -5.768 -15.468  1.00 43.46 LIG 0.01  A 
ATOM     23  CE1 PHE E   4       1.091  -4.677 -16.072  1.00 44.96 LIG 0.00  A 
ATOM     24  CZ  PHE E   4       0.355  -3.893 -16.953  1.00 45.96 LIG 0.00  A 
ATOM     25  CE2 PHE E   4      -0.973  -4.208 -17.233  1.00 43.80 LIG 0.00  A 
ATOM     26  CD2 PHE E   4      -1.564  -5.304 -16.625  1.00 42.63 LIG 0.01  A 
ENDBRANCH 20 21
ENDBRANCH 16 20
ENDBRANCH 13 16
ENDBRANCH 11 12
BRANCH 11 27
ATOM     27  CB  LEU E   3       0.693  -5.473 -10.969  1.00 33.50 LIG 0.04  C 
BRANCH 27 28
ATOM     28  CG  LEU E   3      -0.386  -5.511  -9.884  1.00 34.48 LIG-0.02  C 
ATOM     29  CD2 LEU E   3      -0.491  -4.199  -9.128  1.00 30.77 LIG 0.01  C 
ATOM     30  CD1 LEU E   3      -0.094  -6.655  -8.917  1.00 32.68 LIG 0.01  C 
ENDBRANCH 27 28
ENDBRANCH 11 27
ENDBRANCH 9 11
ENDBRANCH 5 7
ENDBRANCH 3 5
BRANCH 1 31
ATOM     31  CA  LEU E   1       7.935  -3.785 -11.324  1.00 33.78 LIG 0.18  C 
BRANCH 31 32
ATOM     32  CB  LEU E   1       7.728  -2.296 -11.609  1.00 32.47 LIG 0.04  C 
BRANCH 32 33
ATOM     33  CG  LEU E   1       6.888  -1.535 -10.574  1.00 32.32 LIG-0.02  C 
ATOM     34  CD1 LEU E   1       7.790  -0.880  -9.534  1.00 30.19 LIG 0.01  C 
ATOM     35  CD2 LEU E   1       5.965  -0.517 -11.247  1.00 31.57 LIG 0.01  C 
ENDBRANCH 32 33
ENDBRANCH 31 32
BRANCH 31 36
ATOM     36  N   LEU E   1       9.343  -4.159 -11.479  1.00 33.92 LIG-0.35  N 
ATOM     37  C   GLN E   0      10.268  -3.718 -10.629  1.00 32.69 LIG 0.24  C 
ATOM     38 O    GLN E   0      10.024  -2.918  -9.723  1.00 35.54 LIG-0.27  OA
ATOM     39 H    LEU E   1       9.507  -4.672 -12.150  1.00 33.92 LIG 0.16  HD
BRANCH 37 40
ATOM     40  CA  GLN E   0      11.674  -4.252 -10.821  1.00 31.66 LIG 0.18  C 
BRANCH 40 41
ATOM     41  N   GLN E   0      11.722  -5.715 -10.511  1.00 30.66 LIG-0.35  N 
ATOM     42  C   ACE E  -1      11.759  -6.212  -9.270  1.00 29.47 LIG 0.21  C 
ATOM     43 O    ACE E  -1      11.402  -5.608  -8.269  1.00 28.51 LIG-0.27  OA
ATOM     44  CH3 ACE E  -1      12.227  -7.641  -9.154  1.00 29.76 LIG 0.12  C 
ATOM     45 H    GLN E   0      11.725  -6.212 -11.213  1.00 30.66 LIG 0.16  HD
ENDBRANCH 40 41
BRANCH 40 46
ATOM     46  CB  GLN E   0      12.144  -3.987 -12.262  1.00 31.02 LIG 0.04  C 
BRANCH 46 47
ATOM     47  CG  GLN E   0      13.415  -3.146 -12.387  1.00 30.22 LIG 0.10  C 
BRANCH 47 48
ATOM     48  CD  GLN E   0      14.447  -3.756 -13.326  1.00 30.34 LIG 0.21  C 
ATOM     49 OE1  GLN E   0      15.654  -3.511 -13.200  1.00 29.98 LIG-0.27  OA
ATOM     50  NE2 GLN E   0      13.978  -4.556 -14.274  1.00 28.66 LIG-0.37  N 
ATOM     51 21HE GLN E   0      13.133  -4.704 -14.332  1.00 28.66 LIG 0.16  HD
ATOM     52 22HE GLN E   0      14.519  -4.927 -14.831  1.00 28.66 LIG 0.16  HD
ENDBRANCH 47 48
ENDBRANCH 46 47
ENDBRANCH 40 46
ENDBRANCH 37 40
ENDBRANCH 31 36
ENDBRANCH 1 31
TORSDOF 19
ENDMDL
MODEL 6
USER: ADFR SOLUTION from run 196
USER: SCORE 16.536455 LL:  -4.394 LR: -14.323 RR:   0.000 FEB:  -8.656
USER: RMSD 2.829878
USER: SEED 195
USER: STATUS no improvement in best in 11 clusters for 5 generations
USER: GENES 21
USER: genes 0 Translation |==|  0.45678 0.40174 0.50795
USER: genes 1 Rotation |==|  0.44014 0.54958 0.41887 0.98721
USER: genes 2 Torsion [C]-N--CA-[CB] |==|  0.50001
USER: genes 3 Torsion [N]-CA--C-[N] |==|  0.29851
USER: genes 4 Torsion [C]-N--CA-[CB] |==|  0.42069
USER: genes 5 Torsion [N]-CA--C-[N] |==|  0.90124
USER: genes 6 Torsion [C]-N--CA-[C] |==|  0.62034
USER: genes 7 Torsion [N]-CA--C-[OXT] |==|  0.44994
USER: genes 8 Torsion [N]-CA--CB-[CG] |==|  0.85062
USER: genes 9 Torsion [CA]-CB--CG-[CD1] |==|  0.70884
USER: genes 10 Torsion [N]-CA--CB-[CG] |==|  0.62245
USER: genes 11 Torsion [CA]-CB--CG-[CD2] |==|  0.83605
USER: genes 12 Torsion [N]-C--CA-[N] |==|  0.38267
USER: genes 13 Torsion [C]-CA--CB-[CG] |==|  0.44546
USER: genes 14 Torsion [CA]-CB--CG-[CD1] |==|  0.50803
USER: genes 15 Torsion [C]-CA--N-[C] |==|  0.83155
USER: genes 16 Torsion [N]-C--CA-[N] |==|  0.96722
USER: genes 17 Torsion [C]-CA--N-[C] |==|  0.68446
USER: genes 18 Torsion [C]-CA--CB-[CG] |==|  0.35944
USER: genes 19 Torsion [CA]-CB--CG-[CD] |==|  0.18742
USER: genes 20 Torsion [CB]-CG--CD-[OE1] |==|  0.81329
ROOT
ATOM      1  C   LEU E   1       2.566  -6.640 -12.694  1.00 34.74 LIG 0.24  C 
ATOM      2 O    LEU E   1       2.988  -5.793 -11.912  1.00 33.94 LIG-0.27  OA
ATOM      3  N   ALA E   2       3.298  -7.669 -13.118  1.00 36.28 LIG-0.35  N 
ATOM      4 H    ALA E   2       3.001  -8.274 -13.653  1.00 36.28 LIG 0.16  HD
ENDROOT
BRANCH 3 5
ATOM      5  CA  ALA E   2       4.691  -7.865 -12.711  1.00 35.94 LIG 0.17  C 
ATOM      6  CB  ALA E   2       5.261  -9.121 -13.356  1.00 33.95 LIG 0.04  C 
BRANCH 5 7
ATOM      7  C   ALA E   2       5.520  -6.640 -13.090  1.00 35.46 LIG 0.24  C 
ATOM      8 O    ALA E   2       5.788  -6.418 -14.272  1.00 34.79 LIG-0.27  OA
ATOM      9  N   LEU E   3       5.908  -5.843 -12.089  1.00 35.08 LIG-0.35  N 
ATOM     10 H    LEU E   3       5.641  -5.933 -11.277  1.00 35.08 LIG 0.16  HD
BRANCH 9 11
ATOM     11  CA  LEU E   3       6.846  -4.721 -12.297  1.00 35.40 LIG 0.18  C 
BRANCH 11 12
ATOM     12  C   LEU E   3       8.305  -5.161 -12.194  1.00 36.56 LIG 0.24  C 
ATOM     13  N   PHE E   4       8.554  -6.111 -11.292  1.00 37.64 LIG-0.34  N 
ATOM     14 H    PHE E   4       7.934  -6.482 -10.826  1.00 37.64 LIG 0.16  HD
ATOM     15 O    LEU E   3       9.171  -4.630 -12.891  1.00 36.99 LIG-0.27  OA
BRANCH 13 16
ATOM     16  CA  PHE E   4       9.883  -6.626 -10.991  1.00 39.79 LIG 0.19  C 
BRANCH 16 17
ATOM     17  C   PHE E   4       9.823  -8.158 -10.872  1.00 40.57 LIG 0.20  C 
ATOM     18 OXT  PHE E   4      10.845  -8.828 -10.951  1.00 44.77 LIG-0.65  OA
ATOM     19 O    PHE E   4       8.772  -8.783 -10.678  1.00 38.71 LIG-0.65  OA
ENDBRANCH 16 17
BRANCH 16 20
ATOM     20  CB  PHE E   4      10.419  -6.016  -9.687  1.00 41.62 LIG 0.07  C 
BRANCH 20 21
ATOM     21  CG  PHE E   4      10.399  -4.512  -9.670  1.00 42.37 LIG-0.06  A 
ATOM     22  CD1 PHE E   4      11.583  -3.782  -9.828  1.00 43.46 LIG 0.01  A 
ATOM     23  CE1 PHE E   4      11.574  -2.398  -9.799  1.00 44.96 LIG 0.00  A 
ATOM     24  CZ  PHE E   4      10.373  -1.726  -9.605  1.00 45.96 LIG 0.00  A 
ATOM     25  CE2 PHE E   4       9.185  -2.439  -9.450  1.00 43.80 LIG 0.00  A 
ATOM     26  CD2 PHE E   4       9.205  -3.824  -9.483  1.00 42.63 LIG 0.01  A 
ENDBRANCH 20 21
ENDBRANCH 16 20
ENDBRANCH 13 16
ENDBRANCH 11 12
BRANCH 11 27
ATOM     27  CB  LEU E   3       6.607  -3.595 -11.284  1.00 33.50 LIG 0.04  C 
BRANCH 27 28
ATOM     28  CG  LEU E   3       6.586  -2.122 -11.700  1.00 34.48 LIG-0.02  C 
ATOM     29  CD2 LEU E   3       7.891  -1.686 -12.343  1.00 30.77 LIG 0.01  C 
ATOM     30  CD1 LEU E   3       6.285  -1.255 -10.481  1.00 32.68 LIG 0.01  C 
ENDBRANCH 27 28
ENDBRANCH 11 27
ENDBRANCH 9 11
ENDBRANCH 5 7
ENDBRANCH 3 5
BRANCH 1 31
ATOM     31  CA  LEU E   1       1.135  -6.566 -13.221  1.00 33.78 LIG 0.18  C 
BRANCH 31 32
ATOM     32  CB  LEU E   1       1.044  -5.595 -14.400  1.00 32.47 LIG 0.04  C 
BRANCH 32 33
ATOM     33  CG  LEU E   1      -0.183  -5.769 -15.306  1.00 32.32 LIG-0.02  C 
ATOM     34  CD1 LEU E   1      -0.122  -4.796 -16.478  1.00 30.19 LIG 0.01  C 
ATOM     35  CD2 LEU E   1      -0.323  -7.218 -15.779  1.00 31.57 LIG 0.01  C 
ENDBRANCH 32 33
ENDBRANCH 31 32
BRANCH 31 36
ATOM     36  N   LEU E   1       0.197  -6.194 -12.160  1.00 33.92 LIG-0.35  N 
ATOM     37  C   GLN E   0       0.048  -6.954 -11.077  1.00 32.69 LIG 0.24  C 
ATOM     38 O    GLN E   0       0.616  -8.039 -10.932  1.00 35.54 LIG-0.27  OA
ATOM     39 H    LEU E   1      -0.234  -5.462 -12.301  1.00 33.92 LIG 0.16  HD
BRANCH 37 40
ATOM     40  CA  GLN E   0      -0.870  -6.420  -9.995  1.00 31.66 LIG 0.18  C 
BRANCH 40 41
ATOM     41  N   GLN E   0      -1.207  -4.986 -10.260  1.00 30.66 LIG-0.35  N 
ATOM     42  C   ACE E  -1      -0.815  -3.974  -9.479  1.00 29.47 LIG 0.21  C 
ATOM     43 O    ACE E  -1       0.126  -4.021  -8.700  1.00 28.51 LIG-0.27  OA
ATOM     44  CH3 ACE E  -1      -1.582  -2.685  -9.649  1.00 29.76 LIG 0.12  C 
ATOM     45 H    GLN E   0      -1.682  -4.873 -10.968  1.00 30.66 LIG 0.16  HD
ENDBRANCH 40 41
BRANCH 40 46
ATOM     46  CB  GLN E   0      -2.147  -7.273  -9.922  1.00 31.02 LIG 0.04  C 
BRANCH 46 47
ATOM     47  CG  GLN E   0      -2.519  -7.769  -8.525  1.00 30.22 LIG 0.10  C 
BRANCH 47 48
ATOM     48  CD  GLN E   0      -2.937  -6.648  -7.582  1.00 30.34 LIG 0.21  C 
ATOM     49 OE1  GLN E   0      -2.124  -5.795  -7.200  1.00 29.98 LIG-0.27  OA
ATOM     50  NE2 GLN E   0      -4.207  -6.641  -7.203  1.00 28.66 LIG-0.37  N 
ATOM     51 21HE GLN E   0      -4.744  -7.249  -7.489  1.00 28.66 LIG 0.16  HD
ATOM     52 22HE GLN E   0      -4.495  -6.028  -6.672  1.00 28.66 LIG 0.16  HD
ENDBRANCH 47 48
ENDBRANCH 46 47
ENDBRANCH 40 46
ENDBRANCH 37 40
ENDBRANCH 31 36
ENDBRANCH 1 31
TORSDOF 19
ENDMDL
MODEL 7
USER: ADFR SOLUTION from run 137
USER: SCORE 16.481082 LL:  -4.467 LR: -14.244 RR:   0.000 FEB:  -8.576
USER: RMSD 1.830366
USER: SEED 136
USER: STATUS no improvement in best in 1 clusters for 5 generations
USER: GENES 21
USER: genes 0 Translation |==|  0.45876 0.38793 0.47257
USER: genes 1 Rotation |==|  0.43098 0.47799 0.42842 0.98952
USER: genes 2 Torsion [C]-N--CA-[CB] |==|  0.47778
USER: genes 3 Torsion [N]-CA--C-[N] |==|  0.32539
USER: genes 4 Torsion [C]-N--CA-[CB] |==|  0.44568
USER: genes 5 Torsion [N]-CA--C-[N] |==|  0.91237
USER: genes 6 Torsion [C]-N--CA-[C] |==|  0.60582
USER: genes 7 Torsion [N]-CA--C-[OXT] |==|  0.93825
USER: genes 8 Torsion [N]-CA--CB-[CG] |==|  0.84600
USER: genes 9 Torsion [CA]-CB--CG-[CD1] |==|  0.72849
USER: genes 10 Torsion [N]-CA--CB-[CG] |==|  0.62002
USER: genes 11 Torsion [CA]-CB--CG-[CD2] |==|  0.84934
USER: genes 12 Torsion [N]-C--CA-[N] |==|  0.39306
USER: genes 13 Torsion [C]-CA--CB-[CG] |==|  0.67213
USER: genes 14 Torsion [CA]-CB--CG-[CD1] |==|  0.42565
USER: genes 15 Torsion [C]-CA--N-[C] |==|  0.80858
USER: genes 16 Torsion [N]-C--CA-[N] |==|  0.34697
USER: genes 17 Torsion [C]-CA--N-[C] |==|  0.80786
USER: genes 18 Torsion [C]-CA--CB-[CG] |==|  0.24608
USER: genes 19 Torsion [CA]-CB--CG-[CD] |==|  0.36031
USER: genes 20 Torsion [CB]-CG--CD-[OE1] |==|  0.09349
ROOT
ATOM      1  C   LEU E   1       2.616  -6.868 -13.278  1.00 34.74 LIG 0.24  C 
ATOM      2 O    LEU E   1       2.756  -5.938 -12.489  1.00 33.94 LIG-0.27  OA
ATOM      3  N   ALA E   2       3.501  -7.855 -13.403  1.00 36.28 LIG-0.35  N 
ATOM      4 H    ALA E   2       3.400  -8.518 -13.942  1.00 36.28 LIG 0.16  HD
ENDROOT
BRANCH 3 5
ATOM      5  CA  ALA E   2       4.742  -7.903 -12.627  1.00 35.94 LIG 0.17  C 
ATOM      6  CB  ALA E   2       5.450  -9.236 -12.838  1.00 33.95 LIG 0.04  C 
BRANCH 5 7
ATOM      7  C   ALA E   2       5.649  -6.742 -13.027  1.00 35.46 LIG 0.24  C 
ATOM      8 O    ALA E   2       6.069  -6.656 -14.182  1.00 34.79 LIG-0.27  OA
ATOM      9  N   LEU E   3       5.935  -5.847 -12.076  1.00 35.08 LIG-0.35  N 
ATOM     10 H    LEU E   3       5.567  -5.842 -11.299  1.00 35.08 LIG 0.16  HD
BRANCH 9 11
ATOM     11  CA  LEU E   3       6.925  -4.771 -12.282  1.00 35.40 LIG 0.18  C 
BRANCH 11 12
ATOM     12  C   LEU E   3       8.362  -5.276 -12.163  1.00 36.56 LIG 0.24  C 
ATOM     13  N   PHE E   4       8.544  -6.288 -11.313  1.00 37.64 LIG-0.34  N 
ATOM     14 H    PHE E   4       7.894  -6.659 -10.889  1.00 37.64 LIG 0.16  HD
ATOM     15 O    LEU E   3       9.270  -4.742 -12.800  1.00 36.99 LIG-0.27  OA
BRANCH 13 16
ATOM     16  CA  PHE E   4       9.840  -6.876 -11.005  1.00 39.79 LIG 0.19  C 
BRANCH 16 17
ATOM     17  C   PHE E   4       9.689  -8.398 -10.852  1.00 40.57 LIG 0.20  C 
ATOM     18 OXT  PHE E   4       8.600  -8.891 -10.585  1.00 44.77 LIG-0.65  OA
ATOM     19 O    PHE E   4      10.627  -9.192 -11.002  1.00 38.71 LIG-0.65  OA
ENDBRANCH 16 17
BRANCH 16 20
ATOM     20  CB  PHE E   4      10.418  -6.270  -9.717  1.00 41.62 LIG 0.07  C 
BRANCH 20 21
ATOM     21  CG  PHE E   4      10.525  -4.770  -9.748  1.00 42.37 LIG-0.06  A 
ATOM     22  CD1 PHE E   4      11.739  -4.149 -10.066  1.00 43.46 LIG 0.01  A 
ATOM     23  CE1 PHE E   4      11.849  -2.769 -10.083  1.00 44.96 LIG 0.00  A 
ATOM     24  CZ  PHE E   4      10.739  -1.991  -9.776  1.00 45.96 LIG 0.00  A 
ATOM     25  CE2 PHE E   4       9.522  -2.594  -9.462  1.00 43.80 LIG 0.00  A 
ATOM     26  CD2 PHE E   4       9.422  -3.977  -9.450  1.00 42.63 LIG 0.01  A 
ENDBRANCH 20 21
ENDBRANCH 16 20
ENDBRANCH 13 16
ENDBRANCH 11 12
BRANCH 11 27
ATOM     27  CB  LEU E   3       6.729  -3.628 -11.278  1.00 33.50 LIG 0.04  C 
BRANCH 27 28
ATOM     28  CG  LEU E   3       6.800  -2.158 -11.700  1.00 34.48 LIG-0.02  C 
ATOM     29  CD2 LEU E   3       8.094  -1.827 -12.422  1.00 30.77 LIG 0.01  C 
ATOM     30  CD1 LEU E   3       6.642  -1.269 -10.470  1.00 32.68 LIG 0.01  C 
ENDBRANCH 27 28
ENDBRANCH 11 27
ENDBRANCH 9 11
ENDBRANCH 5 7
ENDBRANCH 3 5
BRANCH 1 31
ATOM     31  CA  LEU E   1       1.379  -6.952 -14.168  1.00 33.78 LIG 0.18  C 
BRANCH 31 32
ATOM     32  CB  LEU E   1       1.582  -6.147 -15.453  1.00 32.47 LIG 0.04  C 
BRANCH 32 33
ATOM     33  CG  LEU E   1       0.612  -4.976 -15.660  1.00 32.32 LIG-0.02  C 
ATOM     34  CD1 LEU E   1       1.254  -3.900 -16.527  1.00 30.19 LIG 0.01  C 
ATOM     35  CD2 LEU E   1      -0.720  -5.455 -16.243  1.00 31.57 LIG 0.01  C 
ENDBRANCH 32 33
ENDBRANCH 31 32
BRANCH 31 36
ATOM     36  N   LEU E   1       0.180  -6.509 -13.453  1.00 33.92 LIG-0.35  N 
ATOM     37  C   GLN E   0      -0.328  -7.225 -12.452  1.00 32.69 LIG 0.24  C 
ATOM     38 O    GLN E   0       0.118  -8.325 -12.118  1.00 35.54 LIG-0.27  OA
ATOM     39 H    LEU E   1      -0.153  -5.767 -13.735  1.00 33.92 LIG 0.16  HD
BRANCH 37 40
ATOM     40  CA  GLN E   0      -1.506  -6.620 -11.716  1.00 31.66 LIG 0.18  C 
BRANCH 40 41
ATOM     41  N   GLN E   0      -2.663  -7.568 -11.716  1.00 30.66 LIG-0.35  N 
ATOM     42  C   ACE E  -1      -3.366  -7.885 -12.809  1.00 29.47 LIG 0.21  C 
ATOM     43 O    ACE E  -1      -2.964  -7.753 -13.956  1.00 28.51 LIG-0.27  OA
ATOM     44  CH3 ACE E  -1      -4.721  -8.499 -12.557  1.00 29.76 LIG 0.12  C 
ATOM     45 H    GLN E   0      -2.837  -7.894 -10.939  1.00 30.66 LIG 0.16  HD
ENDBRANCH 40 41
BRANCH 40 46
ATOM     46  CB  GLN E   0      -1.099  -6.261 -10.277  1.00 31.02 LIG 0.04  C 
BRANCH 46 47
ATOM     47  CG  GLN E   0      -0.512  -4.861 -10.096  1.00 30.22 LIG 0.10  C 
BRANCH 47 48
ATOM     48  CD  GLN E   0      -1.169  -4.076  -8.968  1.00 30.34 LIG 0.21  C 
ATOM     49 OE1  GLN E   0      -1.582  -4.644  -7.948  1.00 29.98 LIG-0.27  OA
ATOM     50  NE2 GLN E   0      -1.268  -2.766  -9.144  1.00 28.66 LIG-0.37  N 
ATOM     51 21HE GLN E   0      -0.970  -2.405  -9.865  1.00 28.66 LIG 0.16  HD
ATOM     52 22HE GLN E   0      -1.630  -2.276  -8.536  1.00 28.66 LIG 0.16  HD
ENDBRANCH 47 48
ENDBRANCH 46 47
ENDBRANCH 40 46
ENDBRANCH 37 40
ENDBRANCH 31 36
ENDBRANCH 1 31
TORSDOF 19
ENDMDL
MODEL 8
USER: ADFR SOLUTION from run 52
USER: SCORE 15.998815 LL:  -4.519 LR: -14.216 RR:   0.000 FEB:  -8.548
USER: RMSD 3.301075
USER: SEED 51
USER: STATUS no improvement in best in 5 clusters for 5 generations
USER: GENES 21
USER: genes 0 Translation |==|  0.43509 0.46767 0.61494
USER: genes 1 Rotation |==|  0.43210 0.69205 0.35829 0.93408
USER: genes 2 Torsion [C]-N--CA-[CB] |==|  0.52534
USER: genes 3 Torsion [N]-CA--C-[N] |==|  0.25601
USER: genes 4 Torsion [C]-N--CA-[CB] |==|  0.43592
USER: genes 5 Torsion [N]-CA--C-[N] |==|  0.86718
USER: genes 6 Torsion [C]-N--CA-[C] |==|  0.50564
USER: genes 7 Torsion [N]-CA--C-[OXT] |==|  0.99640
USER: genes 8 Torsion [N]-CA--CB-[CG] |==|  0.12957
USER: genes 9 Torsion [CA]-CB--CG-[CD1] |==|  0.70403
USER: genes 10 Torsion [N]-CA--CB-[CG] |==|  0.65228
USER: genes 11 Torsion [CA]-CB--CG-[CD2] |==|  0.78526
USER: genes 12 Torsion [N]-C--CA-[N] |==|  0.01342
USER: genes 13 Torsion [C]-CA--CB-[CG] |==|  0.51003
USER: genes 14 Torsion [CA]-CB--CG-[CD1] |==|  0.90767
USER: genes 15 Torsion [C]-CA--N-[C] |==|  0.19461
USER: genes 16 Torsion [N]-C--CA-[N] |==|  0.21311
USER: genes 17 Torsion [C]-CA--N-[C] |==|  0.71668
USER: genes 18 Torsion [C]-CA--CB-[CG] |==|  0.31364
USER: genes 19 Torsion [CA]-CB--CG-[CD] |==|  0.70793
USER: genes 20 Torsion [CB]-CG--CD-[OE1] |==|  0.96693
ROOT
ATOM      1  C   LEU E   1       2.013  -5.552 -10.929  1.00 34.74 LIG 0.24  C 
ATOM      2 O    LEU E   1       3.026  -4.967 -10.557  1.00 33.94 LIG-0.27  OA
ATOM      3  N   ALA E   2       2.041  -6.709 -11.588  1.00 36.28 LIG-0.35  N 
ATOM      4 H    ALA E   2       1.333  -7.131 -11.836  1.00 36.28 LIG 0.16  HD
ENDROOT
BRANCH 3 5
ATOM      5  CA  ALA E   2       3.292  -7.374 -11.958  1.00 35.94 LIG 0.17  C 
ATOM      6  CB  ALA E   2       3.015  -8.547 -12.890  1.00 33.95 LIG 0.04  C 
BRANCH 5 7
ATOM      7  C   ALA E   2       4.237  -6.373 -12.617  1.00 35.46 LIG 0.24  C 
ATOM      8 O    ALA E   2       4.172  -6.170 -13.831  1.00 34.79 LIG-0.27  OA
ATOM      9  N   LEU E   3       5.099  -5.741 -11.815  1.00 35.08 LIG-0.35  N 
ATOM     10 H    LEU E   3       5.083  -5.799 -10.957  1.00 35.08 LIG 0.16  HD
BRANCH 9 11
ATOM     11  CA  LEU E   3       6.171  -4.873 -12.342  1.00 35.40 LIG 0.18  C 
BRANCH 11 12
ATOM     12  C   LEU E   3       7.386  -5.673 -12.808  1.00 36.56 LIG 0.24  C 
ATOM     13  N   PHE E   4       7.823  -6.599 -11.953  1.00 37.64 LIG-0.34  N 
ATOM     14 H    PHE E   4       7.427  -6.766 -11.208  1.00 37.64 LIG 0.16  HD
ATOM     15 O    LEU E   3       7.920  -5.431 -13.891  1.00 36.99 LIG-0.27  OA
BRANCH 13 16
ATOM     16  CA  PHE E   4       9.001  -7.427 -12.174  1.00 39.79 LIG 0.19  C 
BRANCH 16 17
ATOM     17  C   PHE E   4       9.163  -8.410 -11.003  1.00 40.57 LIG 0.20  C 
ATOM     18 OXT  PHE E   4       8.376  -8.394 -10.065  1.00 44.77 LIG-0.65  OA
ATOM     19 O    PHE E   4      10.060  -9.261 -10.951  1.00 38.71 LIG-0.65  OA
ENDBRANCH 16 17
BRANCH 16 20
ATOM     20  CB  PHE E   4      10.259  -6.555 -12.310  1.00 41.62 LIG 0.07  C 
BRANCH 20 21
ATOM     21  CG  PHE E   4      10.375  -5.492 -11.253  1.00 42.37 LIG-0.06  A 
ATOM     22  CD1 PHE E   4      10.143  -4.147 -11.567  1.00 43.46 LIG 0.01  A 
ATOM     23  CE1 PHE E   4      10.261  -3.161 -10.603  1.00 44.96 LIG 0.00  A 
ATOM     24  CZ  PHE E   4      10.620  -3.511  -9.307  1.00 45.96 LIG 0.00  A 
ATOM     25  CE2 PHE E   4      10.850  -4.846  -8.977  1.00 43.80 LIG 0.00  A 
ATOM     26  CD2 PHE E   4      10.726  -5.826  -9.950  1.00 42.63 LIG 0.01  A 
ENDBRANCH 20 21
ENDBRANCH 16 20
ENDBRANCH 13 16
ENDBRANCH 11 12
BRANCH 11 27
ATOM     27  CB  LEU E   3       6.636  -3.854 -11.293  1.00 33.50 LIG 0.04  C 
BRANCH 27 28
ATOM     28  CG  LEU E   3       6.647  -2.350 -11.575  1.00 34.48 LIG-0.02  C 
ATOM     29  CD2 LEU E   3       7.825  -1.933 -12.438  1.00 30.77 LIG 0.01  C 
ATOM     30  CD1 LEU E   3       6.666  -1.587 -10.254  1.00 32.68 LIG 0.01  C 
ENDBRANCH 27 28
ENDBRANCH 11 27
ENDBRANCH 9 11
ENDBRANCH 5 7
ENDBRANCH 3 5
BRANCH 1 31
ATOM     31  CA  LEU E   1       0.630  -4.978 -10.631  1.00 33.78 LIG 0.18  C 
BRANCH 31 32
ATOM     32  CB  LEU E   1       0.499  -4.626  -9.148  1.00 32.47 LIG 0.04  C 
BRANCH 32 33
ATOM     33  CG  LEU E   1      -0.880  -4.118  -8.707  1.00 32.32 LIG-0.02  C 
ATOM     34  CD1 LEU E   1      -1.538  -3.322  -9.829  1.00 30.19 LIG 0.01  C 
ATOM     35  CD2 LEU E   1      -1.770  -5.268  -8.231  1.00 31.57 LIG 0.01  C 
ENDBRANCH 32 33
ENDBRANCH 31 32
BRANCH 31 36
ATOM     36  N   LEU E   1      -0.429  -5.900 -11.048  1.00 33.92 LIG-0.35  N 
ATOM     37  C   GLN E   0      -0.639  -7.043 -10.399  1.00 32.69 LIG 0.24  C 
ATOM     38 O    GLN E   0       0.078  -7.435  -9.476  1.00 35.54 LIG-0.27  OA
ATOM     39 H    LEU E   1      -0.885  -5.638 -11.729  1.00 33.92 LIG 0.16  HD
BRANCH 37 40
ATOM     40  CA  GLN E   0      -1.828  -7.869 -10.850  1.00 31.66 LIG 0.18  C 
BRANCH 40 41
ATOM     41  N   GLN E   0      -1.511  -8.585 -12.125  1.00 30.66 LIG-0.35  N 
ATOM     42  C   ACE E  -1      -1.937  -8.187 -13.328  1.00 29.47 LIG 0.21  C 
ATOM     43 O    ACE E  -1      -2.306  -7.052 -13.594  1.00 28.51 LIG-0.27  OA
ATOM     44  CH3 ACE E  -1      -1.888  -9.232 -14.415  1.00 29.76 LIG 0.12  C 
ATOM     45 H    GLN E   0      -1.023  -9.285 -12.011  1.00 30.66 LIG 0.16  HD
ENDBRANCH 40 41
BRANCH 40 46
ATOM     46  CB  GLN E   0      -2.221  -8.868  -9.749  1.00 31.02 LIG 0.04  C 
BRANCH 46 47
ATOM     47  CG  GLN E   0      -3.578  -8.612  -9.092  1.00 30.22 LIG 0.10  C 
BRANCH 47 48
ATOM     48  CD  GLN E   0      -3.464  -8.019  -7.694  1.00 30.34 LIG 0.21  C 
ATOM     49 OE1  GLN E   0      -2.379  -7.987  -7.097  1.00 29.98 LIG-0.27  OA
ATOM     50  NE2 GLN E   0      -4.583  -7.545  -7.164  1.00 28.66 LIG-0.37  N 
ATOM     51 21HE GLN E   0      -5.318  -7.584  -7.607  1.00 28.66 LIG 0.16  HD
ATOM     52 22HE GLN E   0      -4.573  -7.199  -6.376  1.00 28.66 LIG 0.16  HD
ENDBRANCH 47 48
ENDBRANCH 46 47
ENDBRANCH 40 46
ENDBRANCH 37 40
ENDBRANCH 31 36
ENDBRANCH 1 31
TORSDOF 19
ENDMDL
MODEL 9
USER: ADFR SOLUTION from run 117
USER: SCORE 16.081294 LL:  -3.977 LR: -14.152 RR:   0.000 FEB:  -8.484
USER: RMSD 10.687711
USER: SEED 116
USER: STATUS 1 or 2 clusters left
USER: GENES 21
USER: genes 0 Translation |==|  0.61242 0.50367 0.50329
USER: genes 1 Rotation |==|  0.71010 0.04658 0.49684 0.51590
USER: genes 2 Torsion [C]-N--CA-[CB] |==|  0.49774
USER: genes 3 Torsion [N]-CA--C-[N] |==|  0.36516
USER: genes 4 Torsion [C]-N--CA-[CB] |==|  0.43889
USER: genes 5 Torsion [N]-CA--C-[N] |==|  0.43028
USER: genes 6 Torsion [C]-N--CA-[C] |==|  0.69213
USER: genes 7 Torsion [N]-CA--C-[OXT] |==|  0.11654
USER: genes 8 Torsion [N]-CA--CB-[CG] |==|  0.94827
USER: genes 9 Torsion [CA]-CB--CG-[CD1] |==|  0.36933
USER: genes 10 Torsion [N]-CA--CB-[CG] |==|  0.57108
USER: genes 11 Torsion [CA]-CB--CG-[CD2] |==|  0.74630
USER: genes 12 Torsion [N]-C--CA-[N] |==|  0.40797
USER: genes 13 Torsion [C]-CA--CB-[CG] |==|  0.59246
USER: genes 14 Torsion [CA]-CB--CG-[CD1] |==|  0.33712
USER: genes 15 Torsion [C]-CA--N-[C] |==|  0.79110
USER: genes 16 Torsion [N]-C--CA-[N] |==|  0.49298
USER: genes 17 Torsion [C]-CA--N-[C] |==|  0.70440
USER: genes 18 Torsion [C]-CA--CB-[CG] |==|  0.29228
USER: genes 19 Torsion [CA]-CB--CG-[CD] |==|  0.34114
USER: genes 20 Torsion [CB]-CG--CD-[OE1] |==|  0.31702
ROOT
ATOM      1  C   LEU E   1       6.535  -4.958 -12.771  1.00 34.74 LIG 0.24  C 
ATOM      2 O    LEU E   1       5.953  -4.512 -13.755  1.00 33.94 LIG-0.27  OA
ATOM      3  N   ALA E   2       6.328  -6.186 -12.297  1.00 36.28 LIG-0.35  N 
ATOM      4 H    ALA E   2       6.745  -6.509 -11.618  1.00 36.28 LIG 0.16  HD
ENDROOT
BRANCH 3 5
ATOM      5  CA  ALA E   2       5.359  -7.107 -12.895  1.00 35.94 LIG 0.17  C 
ATOM      6  CB  ALA E   2       5.361  -8.436 -12.151  1.00 33.95 LIG 0.04  C 
BRANCH 5 7
ATOM      7  C   ALA E   2       3.967  -6.481 -12.877  1.00 35.46 LIG 0.24  C 
ATOM      8 O    ALA E   2       3.538  -5.961 -11.845  1.00 34.79 LIG-0.27  OA
ATOM      9  N   LEU E   3       3.275  -6.518 -14.020  1.00 35.08 LIG-0.35  N 
ATOM     10 H    LEU E   3       3.605  -6.785 -14.768  1.00 35.08 LIG 0.16  HD
BRANCH 9 11
ATOM     11  CA  LEU E   3       1.862  -6.096 -14.097  1.00 35.40 LIG 0.18  C 
BRANCH 11 12
ATOM     12  C   LEU E   3       0.907  -7.182 -13.605  1.00 36.56 LIG 0.24  C 
ATOM     13  N   PHE E   4      -0.269  -6.747 -13.152  1.00 37.64 LIG-0.34  N 
ATOM     14 H    PHE E   4      -0.495  -5.917 -13.171  1.00 37.64 LIG 0.16  HD
ATOM     15 O    LEU E   3       1.246  -8.366 -13.612  1.00 36.99 LIG-0.27  OA
BRANCH 13 16
ATOM     16  CA  PHE E   4      -1.296  -7.608 -12.581  1.00 39.79 LIG 0.19  C 
BRANCH 16 17
ATOM     17  C   PHE E   4      -2.498  -7.674 -13.537  1.00 40.57 LIG 0.20  C 
ATOM     18 OXT  PHE E   4      -2.327  -7.778 -14.746  1.00 44.77 LIG-0.65  OA
ATOM     19 O    PHE E   4      -3.675  -7.644 -13.152  1.00 38.71 LIG-0.65  OA
ENDBRANCH 16 17
BRANCH 16 20
ATOM     20  CB  PHE E   4      -1.741  -7.084 -11.208  1.00 41.62 LIG 0.07  C 
BRANCH 20 21
ATOM     21  CG  PHE E   4      -0.765  -6.128 -10.579  1.00 42.37 LIG-0.06  A 
ATOM     22  CD1 PHE E   4      -1.207  -4.922 -10.021  1.00 43.46 LIG 0.01  A 
ATOM     23  CE1 PHE E   4      -0.312  -4.031  -9.454  1.00 44.96 LIG 0.00  A 
ATOM     24  CZ  PHE E   4       1.043  -4.337  -9.443  1.00 45.96 LIG 0.00  A 
ATOM     25  CE2 PHE E   4       1.498  -5.535  -9.991  1.00 43.80 LIG 0.00  A 
ATOM     26  CD2 PHE E   4       0.594  -6.421 -10.554  1.00 42.63 LIG 0.01  A 
ENDBRANCH 20 21
ENDBRANCH 16 20
ENDBRANCH 13 16
ENDBRANCH 11 12
BRANCH 11 27
ATOM     27  CB  LEU E   3       1.467  -5.717 -15.530  1.00 33.50 LIG 0.04  C 
BRANCH 27 28
ATOM     28  CG  LEU E   3       0.326  -4.741 -15.824  1.00 34.48 LIG-0.02  C 
ATOM     29  CD2 LEU E   3      -1.007  -5.447 -16.000  1.00 30.77 LIG 0.01  C 
ATOM     30  CD1 LEU E   3       0.661  -3.930 -17.073  1.00 32.68 LIG 0.01  C 
ENDBRANCH 27 28
ENDBRANCH 11 27
ENDBRANCH 9 11
ENDBRANCH 5 7
ENDBRANCH 3 5
BRANCH 1 31
ATOM     31  CA  LEU E   1       7.566  -4.113 -12.028  1.00 33.78 LIG 0.18  C 
BRANCH 31 32
ATOM     32  CB  LEU E   1       6.904  -3.324 -10.896  1.00 32.47 LIG 0.04  C 
BRANCH 32 33
ATOM     33  CG  LEU E   1       7.514  -1.946 -10.605  1.00 32.32 LIG-0.02  C 
ATOM     34  CD1 LEU E   1       6.461  -0.855 -10.763  1.00 30.19 LIG 0.01  C 
ATOM     35  CD2 LEU E   1       8.167  -1.908  -9.222  1.00 31.57 LIG 0.01  C 
ENDBRANCH 32 33
ENDBRANCH 31 32
BRANCH 31 36
ATOM     36  N   LEU E   1       8.279  -3.219 -12.944  1.00 33.92 LIG-0.35  N 
ATOM     37  C   GLN E   0       9.218  -3.684 -13.765  1.00 32.69 LIG 0.24  C 
ATOM     38 O    GLN E   0       9.602  -4.856 -13.755  1.00 35.54 LIG-0.27  OA
ATOM     39 H    LEU E   1       8.039  -2.394 -12.900  1.00 33.92 LIG 0.16  HD
BRANCH 37 40
ATOM     40  CA  GLN E   0       9.815  -2.691 -14.743  1.00 31.66 LIG 0.18  C 
BRANCH 40 41
ATOM     41  N   GLN E   0      10.893  -3.340 -15.552  1.00 30.66 LIG-0.35  N 
ATOM     42  C   ACE E  -1      12.198  -3.106 -15.376  1.00 29.47 LIG 0.21  C 
ATOM     43 O    ACE E  -1      12.691  -2.651 -14.354  1.00 28.51 LIG-0.27  OA
ATOM     44  CH3 ACE E  -1      13.091  -3.502 -16.526  1.00 29.76 LIG 0.12  C 
ATOM     45 H    GLN E   0      10.592  -3.883 -16.147  1.00 30.66 LIG 0.16  HD
ENDBRANCH 40 41
BRANCH 40 46
ATOM     46  CB  GLN E   0       8.714  -2.128 -15.658  1.00 31.02 LIG 0.04  C 
BRANCH 46 47
ATOM     47  CG  GLN E   0       8.276  -0.697 -15.345  1.00 30.22 LIG 0.10  C 
BRANCH 47 48
ATOM     48  CD  GLN E   0       8.429   0.249 -16.529  1.00 30.34 LIG 0.21  C 
ATOM     49 OE1  GLN E   0       7.441   0.760 -17.073  1.00 29.98 LIG-0.27  OA
ATOM     50  NE2 GLN E   0       9.668   0.487 -16.935  1.00 28.66 LIG-0.37  N 
ATOM     51 21HE GLN E   0      10.331   0.114 -16.534  1.00 28.66 LIG 0.16  HD
ATOM     52 22HE GLN E   0       9.809   1.015 -17.600  1.00 28.66 LIG 0.16  HD
ENDBRANCH 47 48
ENDBRANCH 46 47
ENDBRANCH 40 46
ENDBRANCH 37 40
ENDBRANCH 31 36
ENDBRANCH 1 31
TORSDOF 19
ENDMDL
MODEL 10
USER: ADFR SOLUTION from run 54
USER: SCORE 15.801350 LL:  -4.310 LR: -14.151 RR:   0.000 FEB:  -8.483
USER: RMSD 3.378557
USER: SEED 53
USER: STATUS no improvement in best in 17 clusters for 5 generations
USER: GENES 21
USER: genes 0 Translation |==|  0.45531 0.45550 0.58164
USER: genes 1 Rotation |==|  0.49721 0.66330 0.40359 0.96263
USER: genes 2 Torsion [C]-N--CA-[CB] |==|  0.51111
USER: genes 3 Torsion [N]-CA--C-[N] |==|  0.26115
USER: genes 4 Torsion [C]-N--CA-[CB] |==|  0.37948
USER: genes 5 Torsion [N]-CA--C-[N] |==|  0.94495
USER: genes 6 Torsion [C]-N--CA-[C] |==|  0.51563
USER: genes 7 Torsion [N]-CA--C-[OXT] |==|  0.40937
USER: genes 8 Torsion [N]-CA--CB-[CG] |==|  0.48413
USER: genes 9 Torsion [CA]-CB--CG-[CD1] |==|  0.21096
USER: genes 10 Torsion [N]-CA--CB-[CG] |==|  0.44026
USER: genes 11 Torsion [CA]-CB--CG-[CD2] |==|  0.73498
USER: genes 12 Torsion [N]-C--CA-[N] |==|  0.05025
USER: genes 13 Torsion [C]-CA--CB-[CG] |==|  0.51971
USER: genes 14 Torsion [CA]-CB--CG-[CD1] |==|  0.34547
USER: genes 15 Torsion [C]-CA--N-[C] |==|  0.17399
USER: genes 16 Torsion [N]-C--CA-[N] |==|  0.86900
USER: genes 17 Torsion [C]-CA--N-[C] |==|  0.66153
USER: genes 18 Torsion [C]-CA--CB-[CG] |==|  0.84901
USER: genes 19 Torsion [CA]-CB--CG-[CD] |==|  0.81523
USER: genes 20 Torsion [CB]-CG--CD-[OE1] |==|  0.88692
ROOT
ATOM      1  C   LEU E   1       2.528  -5.753 -11.478  1.00 34.74 LIG 0.24  C 
ATOM      2 O    LEU E   1       3.375  -5.222 -10.766  1.00 33.94 LIG-0.27  OA
ATOM      3  N   ALA E   2       2.822  -6.669 -12.399  1.00 36.28 LIG-0.35  N 
ATOM      4 H    ALA E   2       2.230  -7.056 -12.889  1.00 36.28 LIG 0.16  HD
ENDROOT
BRANCH 3 5
ATOM      5  CA  ALA E   2       4.195  -7.103 -12.668  1.00 35.94 LIG 0.17  C 
ATOM      6  CB  ALA E   2       4.224  -8.081 -13.836  1.00 33.95 LIG 0.04  C 
BRANCH 5 7
ATOM      7  C   ALA E   2       5.076  -5.891 -12.957  1.00 35.46 LIG 0.24  C 
ATOM      8 O    ALA E   2       5.134  -5.429 -14.098  1.00 34.79 LIG-0.27  OA
ATOM      9  N   LEU E   3       5.744  -5.372 -11.922  1.00 35.08 LIG-0.35  N 
ATOM     10 H    LEU E   3       5.631  -5.622 -11.107  1.00 35.08 LIG 0.16  HD
BRANCH 9 11
ATOM     11  CA  LEU E   3       6.752  -4.306 -12.093  1.00 35.40 LIG 0.18  C 
BRANCH 11 12
ATOM     12  C   LEU E   3       8.180  -4.846 -12.037  1.00 36.56 LIG 0.24  C 
ATOM     13  N   PHE E   4       8.319  -6.037 -11.454  1.00 37.64 LIG-0.34  N 
ATOM     14 H    PHE E   4       7.649  -6.491 -11.163  1.00 37.64 LIG 0.16  HD
ATOM     15 O    LEU E   3       9.119  -4.184 -12.483  1.00 36.99 LIG-0.27  OA
BRANCH 13 16
ATOM     16  CA  PHE E   4       9.598  -6.701 -11.241  1.00 39.79 LIG 0.19  C 
BRANCH 16 17
ATOM     17  C   PHE E   4       9.356  -8.108 -10.673  1.00 40.57 LIG 0.20  C 
ATOM     18 OXT  PHE E   4      10.114  -9.030 -10.950  1.00 44.77 LIG-0.65  OA
ATOM     19 O    PHE E   4       8.419  -8.381  -9.911  1.00 38.71 LIG-0.65  OA
ENDBRANCH 16 17
BRANCH 16 20
ATOM     20  CB  PHE E   4      10.478  -5.887 -10.281  1.00 41.62 LIG 0.07  C 
BRANCH 20 21
ATOM     21  CG  PHE E   4      11.762  -6.576  -9.906  1.00 42.37 LIG-0.06  A 
ATOM     22  CD1 PHE E   4      12.830  -6.632 -10.809  1.00 43.46 LIG 0.01  A 
ATOM     23  CE1 PHE E   4      14.010  -7.276 -10.477  1.00 44.96 LIG 0.00  A 
ATOM     24  CZ  PHE E   4      14.131  -7.880  -9.231  1.00 45.96 LIG 0.00  A 
ATOM     25  CE2 PHE E   4      13.077  -7.830  -8.319  1.00 43.80 LIG 0.00  A 
ATOM     26  CD2 PHE E   4      11.902  -7.179  -8.661  1.00 42.63 LIG 0.01  A 
ENDBRANCH 20 21
ENDBRANCH 16 20
ENDBRANCH 13 16
ENDBRANCH 11 12
BRANCH 11 27
ATOM     27  CB  LEU E   3       6.604  -3.217 -11.023  1.00 33.50 LIG 0.04  C 
BRANCH 27 28
ATOM     28  CG  LEU E   3       7.757  -2.280 -10.656  1.00 34.48 LIG-0.02  C 
ATOM     29  CD2 LEU E   3       8.538  -2.770  -9.450  1.00 30.77 LIG 0.01  C 
ATOM     30  CD1 LEU E   3       7.209  -0.880 -10.394  1.00 32.68 LIG 0.01  C 
ENDBRANCH 27 28
ENDBRANCH 11 27
ENDBRANCH 9 11
ENDBRANCH 5 7
ENDBRANCH 3 5
BRANCH 1 31
ATOM     31  CA  LEU E   1       1.052  -5.395 -11.328  1.00 33.78 LIG 0.18  C 
BRANCH 31 32
ATOM     32  CB  LEU E   1       0.697  -5.169  -9.857  1.00 32.47 LIG 0.04  C 
BRANCH 32 33
ATOM     33  CG  LEU E   1      -0.795  -4.969  -9.560  1.00 32.32 LIG-0.02  C 
ATOM     34  CD1 LEU E   1      -1.272  -5.981  -8.524  1.00 30.19 LIG 0.01  C 
ATOM     35  CD2 LEU E   1      -1.087  -3.531  -9.125  1.00 31.57 LIG 0.01  C 
ENDBRANCH 32 33
ENDBRANCH 31 32
BRANCH 31 36
ATOM     36  N   LEU E   1       0.193  -6.421 -11.925  1.00 33.92 LIG-0.35  N 
ATOM     37  C   GLN E   0       0.186  -7.667 -11.457  1.00 32.69 LIG 0.24  C 
ATOM     38 O    GLN E   0       0.943  -8.056 -10.564  1.00 35.54 LIG-0.27  OA
ATOM     39 H    LEU E   1      -0.288  -6.148 -12.584  1.00 33.92 LIG 0.16  HD
BRANCH 37 40
ATOM     40  CA  GLN E   0      -0.817  -8.618 -12.080  1.00 31.66 LIG 0.18  C 
BRANCH 40 41
ATOM     41  N   GLN E   0      -2.166  -7.976 -12.156  1.00 30.66 LIG-0.35  N 
ATOM     42  C   ACE E  -1      -3.264  -8.482 -11.585  1.00 29.47 LIG 0.21  C 
ATOM     43 O    ACE E  -1      -3.261  -9.286 -10.663  1.00 28.51 LIG-0.27  OA
ATOM     44  CH3 ACE E  -1      -4.575  -7.950 -12.109  1.00 29.76 LIG 0.12  C 
ATOM     45 H    GLN E   0      -2.170  -7.243 -12.606  1.00 30.66 LIG 0.16  HD
ENDBRANCH 40 41
BRANCH 40 46
ATOM     46  CB  GLN E   0      -0.339  -9.043 -13.479  1.00 31.02 LIG 0.04  C 
BRANCH 46 47
ATOM     47  CG  GLN E   0      -0.025  -7.894 -14.436  1.00 30.22 LIG 0.10  C 
BRANCH 47 48
ATOM     48  CD  GLN E   0      -1.255  -7.086 -14.827  1.00 30.34 LIG 0.21  C 
ATOM     49 OE1  GLN E   0      -2.335  -7.641 -15.072  1.00 29.98 LIG-0.27  OA
ATOM     50  NE2 GLN E   0      -1.100  -5.771 -14.888  1.00 28.66 LIG-0.37  N 
ATOM     51 21HE GLN E   0      -0.335  -5.419 -14.712  1.00 28.66 LIG 0.16  HD
ATOM     52 22HE GLN E   0      -1.765  -5.268 -15.103  1.00 28.66 LIG 0.16  HD
ENDBRANCH 47 48
ENDBRANCH 46 47
ENDBRANCH 40 46
ENDBRANCH 37 40
ENDBRANCH 31 36
ENDBRANCH 1 31
TORSDOF 19
ENDMDL
MODEL 11
USER: ADFR SOLUTION from run 181
USER: SCORE 16.258287 LL:  -3.911 LR: -14.110 RR:   0.000 FEB:  -8.443
USER: RMSD 11.179867
USER: SEED 180
USER: STATUS no improvement in best in 20 clusters for 5 generations
USER: GENES 21
USER: genes 0 Translation |==|  0.62906 0.53155 0.50169
USER: genes 1 Rotation |==|  0.38315 0.95159 0.32692 0.54958
USER: genes 2 Torsion [C]-N--CA-[CB] |==|  0.25727
USER: genes 3 Torsion [N]-CA--C-[N] |==|  0.45137
USER: genes 4 Torsion [C]-N--CA-[CB] |==|  0.15201
USER: genes 5 Torsion [N]-CA--C-[N] |==|  0.66431
USER: genes 6 Torsion [C]-N--CA-[C] |==|  0.17449
USER: genes 7 Torsion [N]-CA--C-[OXT] |==|  0.50734
USER: genes 8 Torsion [N]-CA--CB-[CG] |==|  0.85072
USER: genes 9 Torsion [CA]-CB--CG-[CD1] |==|  0.24906
USER: genes 10 Torsion [N]-CA--CB-[CG] |==|  0.62328
USER: genes 11 Torsion [CA]-CB--CG-[CD2] |==|  0.93567
USER: genes 12 Torsion [N]-C--CA-[N] |==|  0.41362
USER: genes 13 Torsion [C]-CA--CB-[CG] |==|  0.40264
USER: genes 14 Torsion [CA]-CB--CG-[CD1] |==|  0.57855
USER: genes 15 Torsion [C]-CA--N-[C] |==|  0.81636
USER: genes 16 Torsion [N]-C--CA-[N] |==|  0.96665
USER: genes 17 Torsion [C]-CA--N-[C] |==|  0.80795
USER: genes 18 Torsion [C]-CA--CB-[CG] |==|  0.41408
USER: genes 19 Torsion [CA]-CB--CG-[CD] |==|  0.32696
USER: genes 20 Torsion [CB]-CG--CD-[OE1] |==|  0.43677
ROOT
ATOM      1  C   LEU E   1       6.959  -4.499 -12.797  1.00 34.74 LIG 0.24  C 
ATOM      2 O    LEU E   1       7.074  -4.624 -14.012  1.00 33.94 LIG-0.27  OA
ATOM      3  N   ALA E   2       6.074  -5.183 -12.074  1.00 36.28 LIG-0.35  N 
ATOM      4 H    ALA E   2       6.002  -5.110 -11.220  1.00 36.28 LIG 0.16  HD
ENDROOT
BRANCH 3 5
ATOM      5  CA  ALA E   2       5.132  -6.130 -12.674  1.00 35.94 LIG 0.17  C 
ATOM      6  CB  ALA E   2       5.716  -7.537 -12.665  1.00 33.95 LIG 0.04  C 
BRANCH 5 7
ATOM      7  C   ALA E   2       3.806  -6.092 -11.920  1.00 35.46 LIG 0.24  C 
ATOM      8 O    ALA E   2       3.748  -5.584 -10.799  1.00 34.79 LIG-0.27  OA
ATOM      9  N   LEU E   3       2.744  -6.613 -12.543  1.00 35.08 LIG-0.35  N 
ATOM     10 H    LEU E   3       2.752  -6.875 -13.362  1.00 35.08 LIG 0.16  HD
BRANCH 9 11
ATOM     11  CA  LEU E   3       1.443  -6.786 -11.866  1.00 35.40 LIG 0.18  C 
BRANCH 11 12
ATOM     12  C   LEU E   3       0.367  -7.321 -12.809  1.00 36.56 LIG 0.24  C 
ATOM     13  N   PHE E   4      -0.706  -6.543 -12.954  1.00 37.64 LIG-0.34  N 
ATOM     14 H    PHE E   4      -0.775  -5.774 -12.575  1.00 37.64 LIG 0.16  HD
ATOM     15 O    LEU E   3       0.502  -8.416 -13.358  1.00 36.99 LIG-0.27  OA
BRANCH 13 16
ATOM     16  CA  PHE E   4      -1.871  -6.894 -13.755  1.00 39.79 LIG 0.19  C 
BRANCH 16 17
ATOM     17  C   PHE E   4      -2.537  -8.149 -13.167  1.00 40.57 LIG 0.20  C 
ATOM     18 OXT  PHE E   4      -3.511  -8.650 -13.715  1.00 44.77 LIG-0.65  OA
ATOM     19 O    PHE E   4      -2.129  -8.719 -12.146  1.00 38.71 LIG-0.65  OA
ENDBRANCH 16 17
BRANCH 16 20
ATOM     20  CB  PHE E   4      -1.469  -7.144 -15.216  1.00 41.62 LIG 0.07  C 
BRANCH 20 21
ATOM     21  CG  PHE E   4      -0.700  -6.009 -15.835  1.00 42.37 LIG-0.06  A 
ATOM     22  CD1 PHE E   4       0.698  -5.967 -15.752  1.00 43.46 LIG 0.01  A 
ATOM     23  CE1 PHE E   4       1.412  -4.919 -16.307  1.00 44.96 LIG 0.00  A 
ATOM     24  CZ  PHE E   4       0.730  -3.892 -16.950  1.00 45.96 LIG 0.00  A 
ATOM     25  CE2 PHE E   4      -0.660  -3.923 -17.045  1.00 43.80 LIG 0.00  A 
ATOM     26  CD2 PHE E   4      -1.365  -4.978 -16.488  1.00 42.63 LIG 0.01  A 
ENDBRANCH 20 21
ENDBRANCH 16 20
ENDBRANCH 13 16
ENDBRANCH 11 12
BRANCH 11 27
ATOM     27  CB  LEU E   3       0.944  -5.467 -11.262  1.00 33.50 LIG 0.04  C 
BRANCH 27 28
ATOM     28  CG  LEU E   3       0.351  -5.394  -9.854  1.00 34.48 LIG-0.02  C 
ATOM     29  CD2 LEU E   3      -0.194  -6.732  -9.387  1.00 30.77 LIG 0.01  C 
ATOM     30  CD1 LEU E   3      -0.750  -4.337  -9.821  1.00 32.68 LIG 0.01  C 
ENDBRANCH 27 28
ENDBRANCH 11 27
ENDBRANCH 9 11
ENDBRANCH 5 7
ENDBRANCH 3 5
BRANCH 1 31
ATOM     31  CA  LEU E   1       7.861  -3.537 -12.027  1.00 33.78 LIG 0.18  C 
BRANCH 31 32
ATOM     32  CB  LEU E   1       7.191  -2.170 -11.877  1.00 32.47 LIG 0.04  C 
BRANCH 32 33
ATOM     33  CG  LEU E   1       7.475  -1.436 -10.560  1.00 32.32 LIG-0.02  C 
ATOM     34  CD1 LEU E   1       6.312  -0.519 -10.200  1.00 30.19 LIG 0.01  C 
ATOM     35  CD2 LEU E   1       7.790  -2.420  -9.431  1.00 31.57 LIG 0.01  C 
ENDBRANCH 32 33
ENDBRANCH 31 32
BRANCH 31 36
ATOM     36  N   LEU E   1       9.173  -3.412 -12.668  1.00 33.92 LIG-0.35  N 
ATOM     37  C   GLN E   0      10.012  -4.445 -12.722  1.00 32.69 LIG 0.24  C 
ATOM     38 O    GLN E   0       9.783  -5.528 -12.179  1.00 35.54 LIG-0.27  OA
ATOM     39 H    LEU E   1       9.341  -2.634 -12.993  1.00 33.92 LIG 0.16  HD
BRANCH 37 40
ATOM     40  CA  GLN E   0      11.295  -4.233 -13.500  1.00 31.66 LIG 0.18  C 
BRANCH 40 41
ATOM     41  N   GLN E   0      11.219  -2.971 -14.299  1.00 30.66 LIG-0.35  N 
ATOM     42  C   ACE E  -1      10.418  -2.808 -15.358  1.00 29.47 LIG 0.21  C 
ATOM     43 O    ACE E  -1       9.424  -3.482 -15.589  1.00 28.51 LIG-0.27  OA
ATOM     44  CH3 ACE E  -1      10.774  -1.663 -16.274  1.00 29.76 LIG 0.12  C 
ATOM     45 H    GLN E   0      11.743  -2.353 -14.011  1.00 30.66 LIG 0.16  HD
ENDBRANCH 40 41
BRANCH 40 46
ATOM     46  CB  GLN E   0      12.493  -4.193 -12.536  1.00 31.02 LIG 0.04  C 
BRANCH 46 47
ATOM     47  CG  GLN E   0      13.810  -4.716 -13.113  1.00 30.22 LIG 0.10  C 
BRANCH 47 48
ATOM     48  CD  GLN E   0      14.902  -3.656 -13.168  1.00 30.34 LIG 0.21  C 
ATOM     49 OE1  GLN E   0      16.100  -3.970 -13.200  1.00 29.98 LIG-0.27  OA
ATOM     50  NE2 GLN E   0      14.497  -2.394 -13.180  1.00 28.66 LIG-0.37  N 
ATOM     51 21HE GLN E   0      13.656  -2.212 -13.157  1.00 28.66 LIG 0.16  HD
ATOM     52 22HE GLN E   0      15.074  -1.756 -13.211  1.00 28.66 LIG 0.16  HD
ENDBRANCH 47 48
ENDBRANCH 46 47
ENDBRANCH 40 46
ENDBRANCH 37 40
ENDBRANCH 31 36
ENDBRANCH 1 31
TORSDOF 19
ENDMDL
MODEL 12
USER: ADFR SOLUTION from run 90
USER: SCORE 17.071006 LL:  -4.383 LR: -14.082 RR:   0.000 FEB:  -8.414
USER: RMSD 3.225537
USER: SEED 89
USER: STATUS no improvement in best in 3 clusters for 5 generations
USER: GENES 21
USER: genes 0 Translation |==|  0.46755 0.38606 0.44076
USER: genes 1 Rotation |==|  0.06182 0.49660 0.26096 0.52902
USER: genes 2 Torsion [C]-N--CA-[CB] |==|  0.84400
USER: genes 3 Torsion [N]-CA--C-[N] |==|  0.37294
USER: genes 4 Torsion [C]-N--CA-[CB] |==|  0.40178
USER: genes 5 Torsion [N]-CA--C-[N] |==|  0.95555
USER: genes 6 Torsion [C]-N--CA-[C] |==|  0.58208
USER: genes 7 Torsion [N]-CA--C-[OXT] |==|  0.37780
USER: genes 8 Torsion [N]-CA--CB-[CG] |==|  0.54032
USER: genes 9 Torsion [CA]-CB--CG-[CD1] |==|  0.13706
USER: genes 10 Torsion [N]-CA--CB-[CG] |==|  0.04498
USER: genes 11 Torsion [CA]-CB--CG-[CD2] |==|  0.61416
USER: genes 12 Torsion [N]-C--CA-[N] |==|  0.93461
USER: genes 13 Torsion [C]-CA--CB-[CG] |==|  0.54196
USER: genes 14 Torsion [CA]-CB--CG-[CD1] |==|  0.49881
USER: genes 15 Torsion [C]-CA--N-[C] |==|  0.79184
USER: genes 16 Torsion [N]-C--CA-[N] |==|  0.90849
USER: genes 17 Torsion [C]-CA--N-[C] |==|  0.80115
USER: genes 18 Torsion [C]-CA--CB-[CG] |==|  0.17308
USER: genes 19 Torsion [CA]-CB--CG-[CD] |==|  0.65961
USER: genes 20 Torsion [CB]-CG--CD-[OE1] |==|  0.11997
ROOT
ATOM      1  C   LEU E   1       2.840  -6.899 -13.802  1.00 34.74 LIG 0.24  C 
ATOM      2 O    LEU E   1       3.725  -7.478 -14.425  1.00 33.94 LIG-0.27  OA
ATOM      3  N   ALA E   2       3.023  -6.381 -12.590  1.00 36.28 LIG-0.35  N 
ATOM      4 H    ALA E   2       2.411  -5.959 -12.156  1.00 36.28 LIG 0.16  HD
ENDROOT
BRANCH 3 5
ATOM      5  CA  ALA E   2       4.297  -6.483 -11.874  1.00 35.94 LIG 0.17  C 
ATOM      6  CB  ALA E   2       4.714  -7.942 -11.736  1.00 33.95 LIG 0.04  C 
BRANCH 5 7
ATOM      7  C   ALA E   2       5.370  -5.683 -12.608  1.00 35.46 LIG 0.24  C 
ATOM      8 O    ALA E   2       5.476  -5.771 -13.833  1.00 34.79 LIG-0.27  OA
ATOM      9  N   LEU E   3       6.150  -4.894 -11.861  1.00 35.08 LIG-0.35  N 
ATOM     10 H    LEU E   3       6.018  -4.748 -11.024  1.00 35.08 LIG 0.16  HD
BRANCH 9 11
ATOM     11  CA  LEU E   3       7.325  -4.195 -12.420  1.00 35.40 LIG 0.18  C 
BRANCH 11 12
ATOM     12  C   LEU E   3       8.614  -4.995 -12.238  1.00 36.56 LIG 0.24  C 
ATOM     13  N   PHE E   4       8.551  -5.986 -11.348  1.00 37.64 LIG-0.34  N 
ATOM     14 H    PHE E   4       7.827  -6.190 -10.932  1.00 37.64 LIG 0.16  HD
ATOM     15 O    LEU E   3       9.631  -4.696 -12.864  1.00 36.99 LIG-0.27  OA
BRANCH 13 16
ATOM     16  CA  PHE E   4       9.681  -6.828 -10.979  1.00 39.79 LIG 0.19  C 
BRANCH 16 17
ATOM     17  C   PHE E   4       9.171  -8.219 -10.571  1.00 40.57 LIG 0.20  C 
ATOM     18 OXT  PHE E   4       9.737  -9.231 -10.968  1.00 44.77 LIG-0.65  OA
ATOM     19 O    PHE E   4       8.198  -8.394  -9.825  1.00 38.71 LIG-0.65  OA
ENDBRANCH 16 17
BRANCH 16 20
ATOM     20  CB  PHE E   4      10.474  -6.196  -9.825  1.00 41.62 LIG 0.07  C 
BRANCH 20 21
ATOM     21  CG  PHE E   4      11.831  -6.811  -9.615  1.00 42.37 LIG-0.06  A 
ATOM     22  CD1 PHE E   4      12.706  -6.991 -10.694  1.00 43.46 LIG 0.01  A 
ATOM     23  CE1 PHE E   4      13.950  -7.569 -10.511  1.00 44.96 LIG 0.00  A 
ATOM     24  CZ  PHE E   4      14.333  -7.980  -9.240  1.00 45.96 LIG 0.00  A 
ATOM     25  CE2 PHE E   4      13.475  -7.804  -8.155  1.00 43.80 LIG 0.00  A 
ATOM     26  CD2 PHE E   4      12.232  -7.222  -8.349  1.00 42.63 LIG 0.01  A 
ENDBRANCH 20 21
ENDBRANCH 16 20
ENDBRANCH 13 16
ENDBRANCH 11 12
BRANCH 11 27
ATOM     27  CB  LEU E   3       7.516  -2.816 -11.775  1.00 33.50 LIG 0.04  C 
BRANCH 27 28
ATOM     28  CG  LEU E   3       6.821  -2.430 -10.467  1.00 34.48 LIG-0.02  C 
ATOM     29  CD2 LEU E   3       6.293  -1.007 -10.492  1.00 30.77 LIG 0.01  C 
ATOM     30  CD1 LEU E   3       7.793  -2.611  -9.305  1.00 32.68 LIG 0.01  C 
ENDBRANCH 27 28
ENDBRANCH 11 27
ENDBRANCH 9 11
ENDBRANCH 5 7
ENDBRANCH 3 5
BRANCH 1 31
ATOM     31  CA  LEU E   1       1.451  -6.724 -14.409  1.00 33.78 LIG 0.18  C 
BRANCH 31 32
ATOM     32  CB  LEU E   1       1.442  -5.573 -15.417  1.00 32.47 LIG 0.04  C 
BRANCH 32 33
ATOM     33  CG  LEU E   1       0.054  -5.060 -15.825  1.00 32.32 LIG-0.02  C 
ATOM     34  CD1 LEU E   1       0.181  -3.913 -16.820  1.00 30.19 LIG 0.01  C 
ATOM     35  CD2 LEU E   1      -0.817  -6.193 -16.373  1.00 31.57 LIG 0.01  C 
ENDBRANCH 32 33
ENDBRANCH 31 32
BRANCH 31 36
ATOM     36  N   LEU E   1       0.439  -6.519 -13.370  1.00 33.92 LIG-0.35  N 
ATOM     37  C   GLN E   0       0.013  -7.532 -12.617  1.00 32.69 LIG 0.24  C 
ATOM     38 O    GLN E   0       0.371  -8.699 -12.794  1.00 35.54 LIG-0.27  OA
ATOM     39 H    LEU E   1       0.158  -5.710 -13.296  1.00 33.92 LIG 0.16  HD
BRANCH 37 40
ATOM     40  CA  GLN E   0      -0.955  -7.187 -11.504  1.00 31.66 LIG 0.18  C 
BRANCH 40 41
ATOM     41  N   GLN E   0      -0.657  -5.827 -10.956  1.00 30.66 LIG-0.35  N 
ATOM     42  C   ACE E  -1       0.415  -5.546 -10.206  1.00 29.47 LIG 0.21  C 
ATOM     43 O    ACE E  -1       1.436  -6.218 -10.173  1.00 28.51 LIG-0.27  OA
ATOM     44  CH3 ACE E  -1       0.333  -4.269  -9.407  1.00 29.76 LIG 0.12  C 
ATOM     45 H    GLN E   0      -1.244  -5.237 -11.170  1.00 30.66 LIG 0.16  HD
ENDBRANCH 40 41
BRANCH 40 46
ATOM     46  CB  GLN E   0      -2.401  -7.257 -12.024  1.00 31.02 LIG 0.04  C 
BRANCH 46 47
ATOM     47  CG  GLN E   0      -2.852  -8.634 -12.510  1.00 30.22 LIG 0.10  C 
BRANCH 47 48
ATOM     48  CD  GLN E   0      -3.328  -8.634 -13.957  1.00 30.34 LIG 0.21  C 
ATOM     49 OE1  GLN E   0      -2.708  -8.019 -14.835  1.00 29.98 LIG-0.27  OA
ATOM     50  NE2 GLN E   0      -4.431  -9.323 -14.213  1.00 28.66 LIG-0.37  N 
ATOM     51 21HE GLN E   0      -4.836  -9.739 -13.578  1.00 28.66 LIG 0.16  HD
ATOM     52 22HE GLN E   0      -4.742  -9.356 -15.015  1.00 28.66 LIG 0.16  HD
ENDBRANCH 47 48
ENDBRANCH 46 47
ENDBRANCH 40 46
ENDBRANCH 37 40
ENDBRANCH 31 36
ENDBRANCH 1 31
TORSDOF 19
ENDMDL
MODEL 13
USER: ADFR SOLUTION from run 181
USER: SCORE 16.201985 LL:  -4.067 LR: -14.050 RR:   0.000 FEB:  -8.382
USER: RMSD 11.022283
USER: SEED 180
USER: STATUS no improvement in best in 20 clusters for 5 generations
USER: GENES 21
USER: genes 0 Translation |==|  0.63215 0.53322 0.49982
USER: genes 1 Rotation |==|  0.37482 0.94058 0.31007 0.56436
USER: genes 2 Torsion [C]-N--CA-[CB] |==|  0.26038
USER: genes 3 Torsion [N]-CA--C-[N] |==|  0.43674
USER: genes 4 Torsion [C]-N--CA-[CB] |==|  0.14279
USER: genes 5 Torsion [N]-CA--C-[N] |==|  0.66039
USER: genes 6 Torsion [C]-N--CA-[C] |==|  0.18805
USER: genes 7 Torsion [N]-CA--C-[OXT] |==|  0.48604
USER: genes 8 Torsion [N]-CA--CB-[CG] |==|  0.87710
USER: genes 9 Torsion [CA]-CB--CG-[CD1] |==|  0.31192
USER: genes 10 Torsion [N]-CA--CB-[CG] |==|  0.62494
USER: genes 11 Torsion [CA]-CB--CG-[CD2] |==|  0.74397
USER: genes 12 Torsion [N]-C--CA-[N] |==|  0.45951
USER: genes 13 Torsion [C]-CA--CB-[CG] |==|  0.44488
USER: genes 14 Torsion [CA]-CB--CG-[CD1] |==|  0.55436
USER: genes 15 Torsion [C]-CA--N-[C] |==|  0.80826
USER: genes 16 Torsion [N]-C--CA-[N] |==|  0.45059
USER: genes 17 Torsion [C]-CA--N-[C] |==|  0.63333
USER: genes 18 Torsion [C]-CA--CB-[CG] |==|  0.33080
USER: genes 19 Torsion [CA]-CB--CG-[CD] |==|  0.78721
USER: genes 20 Torsion [CB]-CG--CD-[OE1] |==|  0.97940
ROOT
ATOM      1  C   LEU E   1       7.038  -4.471 -12.828  1.00 34.74 LIG 0.24  C 
ATOM      2 O    LEU E   1       7.236  -4.667 -14.023  1.00 33.94 LIG-0.27  OA
ATOM      3  N   ALA E   2       6.146  -5.156 -12.115  1.00 36.28 LIG-0.35  N 
ATOM      4 H    ALA E   2       6.015  -5.034 -11.274  1.00 36.28 LIG 0.16  HD
ENDROOT
BRANCH 3 5
ATOM      5  CA  ALA E   2       5.294  -6.191 -12.706  1.00 35.94 LIG 0.17  C 
ATOM      6  CB  ALA E   2       5.936  -7.563 -12.542  1.00 33.95 LIG 0.04  C 
BRANCH 5 7
ATOM      7  C   ALA E   2       3.913  -6.161 -12.056  1.00 35.46 LIG 0.24  C 
ATOM      8 O    ALA E   2       3.767  -5.658 -10.941  1.00 34.79 LIG-0.27  OA
ATOM      9  N   LEU E   3       2.905  -6.683 -12.761  1.00 35.08 LIG-0.35  N 
ATOM     10 H    LEU E   3       2.978  -6.942 -13.578  1.00 35.08 LIG 0.16  HD
BRANCH 9 11
ATOM     11  CA  LEU E   3       1.556  -6.864 -12.188  1.00 35.40 LIG 0.18  C 
BRANCH 11 12
ATOM     12  C   LEU E   3       0.540  -7.322 -13.232  1.00 36.56 LIG 0.24  C 
ATOM     13  N   PHE E   4      -0.520  -6.528 -13.386  1.00 37.64 LIG-0.34  N 
ATOM     14 H    PHE E   4      -0.611  -5.788 -12.957  1.00 37.64 LIG 0.16  HD
ATOM     15 O    LEU E   3       0.706  -8.375 -13.850  1.00 36.99 LIG-0.27  OA
BRANCH 13 16
ATOM     16  CA  PHE E   4      -1.633  -6.812 -14.281  1.00 39.79 LIG 0.19  C 
BRANCH 16 17
ATOM     17  C   PHE E   4      -2.411  -8.031 -13.760  1.00 40.57 LIG 0.20  C 
ATOM     18 OXT  PHE E   4      -3.445  -8.391 -14.311  1.00 44.77 LIG-0.65  OA
ATOM     19 O    PHE E   4      -2.041  -8.710 -12.793  1.00 38.71 LIG-0.65  OA
ENDBRANCH 16 17
BRANCH 16 20
ATOM     20  CB  PHE E   4      -1.128  -7.078 -15.708  1.00 41.62 LIG 0.07  C 
BRANCH 20 21
ATOM     21  CG  PHE E   4      -0.078  -6.105 -16.169  1.00 42.37 LIG-0.06  A 
ATOM     22  CD1 PHE E   4       1.240  -6.529 -16.383  1.00 43.46 LIG 0.01  A 
ATOM     23  CE1 PHE E   4       2.216  -5.637 -16.793  1.00 44.96 LIG 0.00  A 
ATOM     24  CZ  PHE E   4       1.882  -4.302 -16.991  1.00 45.96 LIG 0.00  A 
ATOM     25  CE2 PHE E   4       0.574  -3.866 -16.786  1.00 43.80 LIG 0.00  A 
ATOM     26  CD2 PHE E   4      -0.396  -4.768 -16.377  1.00 42.63 LIG 0.01  A 
ENDBRANCH 20 21
ENDBRANCH 16 20
ENDBRANCH 13 16
ENDBRANCH 11 12
BRANCH 11 27
ATOM     27  CB  LEU E   3       1.041  -5.569 -11.546  1.00 33.50 LIG 0.04  C 
BRANCH 27 28
ATOM     28  CG  LEU E   3       0.362  -5.559 -10.175  1.00 34.48 LIG-0.02  C 
ATOM     29  CD2 LEU E   3      -1.147  -5.694 -10.276  1.00 30.77 LIG 0.01  C 
ATOM     30  CD1 LEU E   3       0.727  -4.274  -9.437  1.00 32.68 LIG 0.01  C 
ENDBRANCH 27 28
ENDBRANCH 11 27
ENDBRANCH 9 11
ENDBRANCH 5 7
ENDBRANCH 3 5
BRANCH 1 31
ATOM     31  CA  LEU E   1       7.838  -3.413 -12.072  1.00 33.78 LIG 0.18  C 
BRANCH 31 32
ATOM     32  CB  LEU E   1       6.948  -2.227 -11.697  1.00 32.47 LIG 0.04  C 
BRANCH 32 33
ATOM     33  CG  LEU E   1       7.471  -1.340 -10.559  1.00 32.32 LIG-0.02  C 
ATOM     34  CD1 LEU E   1       6.335  -0.520  -9.958  1.00 30.19 LIG 0.01  C 
ATOM     35  CD2 LEU E   1       8.196  -2.169  -9.497  1.00 31.57 LIG 0.01  C 
ENDBRANCH 32 33
ENDBRANCH 31 32
BRANCH 31 36
ATOM     36  N   LEU E   1       9.002  -2.974 -12.846  1.00 33.92 LIG-0.35  N 
ATOM     37  C   GLN E   0      10.032  -3.790 -13.060  1.00 32.69 LIG 0.24  C 
ATOM     38 O    GLN E   0      10.113  -4.917 -12.566  1.00 35.54 LIG-0.27  OA
ATOM     39 H    LEU E   1       8.955  -2.166 -13.137  1.00 33.92 LIG 0.16  HD
BRANCH 37 40
ATOM     40  CA  GLN E   0      11.132  -3.267 -13.962  1.00 31.66 LIG 0.18  C 
BRANCH 40 41
ATOM     41  N   GLN E   0      12.383  -4.068 -13.775  1.00 30.66 LIG-0.35  N 
ATOM     42  C   ACE E  -1      13.592  -3.527 -13.593  1.00 29.47 LIG 0.21  C 
ATOM     43 O    ACE E  -1      13.792  -2.386 -13.201  1.00 28.51 LIG-0.27  OA
ATOM     44  CH3 ACE E  -1      14.762  -4.446 -13.846  1.00 29.76 LIG 0.12  C 
ATOM     45 H    GLN E   0      12.250  -4.917 -13.796  1.00 30.66 LIG 0.16  HD
ENDBRANCH 40 41
BRANCH 40 46
ATOM     46  CB  GLN E   0      10.675  -3.311 -15.430  1.00 31.02 LIG 0.04  C 
BRANCH 46 47
ATOM     47  CG  GLN E   0      10.629  -1.957 -16.137  1.00 30.22 LIG 0.10  C 
BRANCH 47 48
ATOM     48  CD  GLN E   0       9.421  -1.116 -15.745  1.00 30.34 LIG 0.21  C 
ATOM     49 OE1  GLN E   0       8.518  -1.582 -15.038  1.00 29.98 LIG-0.27  OA
ATOM     50  NE2 GLN E   0       9.398   0.128 -16.202  1.00 28.66 LIG-0.37  N 
ATOM     51 21HE GLN E   0      10.042   0.419 -16.691  1.00 28.66 LIG 0.16  HD
ATOM     52 22HE GLN E   0       8.738   0.646 -16.009  1.00 28.66 LIG 0.16  HD
ENDBRANCH 47 48
ENDBRANCH 46 47
ENDBRANCH 40 46
ENDBRANCH 37 40
ENDBRANCH 31 36
ENDBRANCH 1 31
TORSDOF 19
ENDMDL
MODEL 14
USER: ADFR SOLUTION from run 170
USER: SCORE 15.782199 LL:  -4.035 LR: -14.028 RR:   0.000 FEB:  -8.361
USER: RMSD 3.475970
USER: SEED 169
USER: STATUS no improvement in best in 8 clusters for 5 generations
USER: GENES 21
USER: genes 0 Translation |==|  0.44606 0.38392 0.55587
USER: genes 1 Rotation |==|  0.95971 0.50657 0.47350 0.69474
USER: genes 2 Torsion [C]-N--CA-[CB] |==|  0.15881
USER: genes 3 Torsion [N]-CA--C-[N] |==|  0.15810
USER: genes 4 Torsion [C]-N--CA-[CB] |==|  0.46372
USER: genes 5 Torsion [N]-CA--C-[N] |==|  0.90122
USER: genes 6 Torsion [C]-N--CA-[C] |==|  0.55282
USER: genes 7 Torsion [N]-CA--C-[OXT] |==|  0.40907
USER: genes 8 Torsion [N]-CA--CB-[CG] |==|  0.50232
USER: genes 9 Torsion [CA]-CB--CG-[CD1] |==|  0.65448
USER: genes 10 Torsion [N]-CA--CB-[CG] |==|  0.62397
USER: genes 11 Torsion [CA]-CB--CG-[CD2] |==|  0.58151
USER: genes 12 Torsion [N]-C--CA-[N] |==|  0.56644
USER: genes 13 Torsion [C]-CA--CB-[CG] |==|  0.56821
USER: genes 14 Torsion [CA]-CB--CG-[CD1] |==|  0.50968
USER: genes 15 Torsion [C]-CA--N-[C] |==|  0.70370
USER: genes 16 Torsion [N]-C--CA-[N] |==|  0.95040
USER: genes 17 Torsion [C]-CA--N-[C] |==|  0.80652
USER: genes 18 Torsion [C]-CA--CB-[CG] |==|  0.84310
USER: genes 19 Torsion [CA]-CB--CG-[CD] |==|  0.67010
USER: genes 20 Torsion [CB]-CG--CD-[OE1] |==|  0.32137
ROOT
ATOM      1  C   LEU E   1       2.293  -6.934 -11.903  1.00 34.74 LIG 0.24  C 
ATOM      2 O    LEU E   1       2.233  -8.143 -12.104  1.00 33.94 LIG-0.27  OA
ATOM      3  N   ALA E   2       3.378  -6.206 -12.158  1.00 36.28 LIG-0.35  N 
ATOM      4 H    ALA E   2       3.419  -5.356 -12.034  1.00 36.28 LIG 0.16  HD
ENDROOT
BRANCH 3 5
ATOM      5  CA  ALA E   2       4.615  -6.794 -12.677  1.00 35.94 LIG 0.17  C 
ATOM      6  CB  ALA E   2       4.348  -7.525 -13.986  1.00 33.95 LIG 0.04  C 
BRANCH 5 7
ATOM      7  C   ALA E   2       5.665  -5.703 -12.874  1.00 35.46 LIG 0.24  C 
ATOM      8 O    ALA E   2       6.168  -5.523 -13.984  1.00 34.79 LIG-0.27  OA
ATOM      9  N   LEU E   3       5.980  -4.970 -11.801  1.00 35.08 LIG-0.35  N 
ATOM     10 H    LEU E   3       5.562  -5.019 -11.050  1.00 35.08 LIG 0.16  HD
BRANCH 9 11
ATOM     11  CA  LEU E   3       7.090  -3.996 -11.813  1.00 35.40 LIG 0.18  C 
BRANCH 11 12
ATOM     12  C   LEU E   3       8.456  -4.677 -11.844  1.00 36.56 LIG 0.24  C 
ATOM     13  N   PHE E   4       8.544  -5.816 -11.155  1.00 37.64 LIG-0.34  N 
ATOM     14 H    PHE E   4       7.870  -6.167 -10.752  1.00 37.64 LIG 0.16  HD
ATOM     15 O    LEU E   3       9.399  -4.165 -12.449  1.00 36.99 LIG-0.27  OA
BRANCH 13 16
ATOM     16  CA  PHE E   4       9.769  -6.589 -11.003  1.00 39.79 LIG 0.19  C 
BRANCH 16 17
ATOM     17  C   PHE E   4       9.418  -8.025 -10.581  1.00 40.57 LIG 0.20  C 
ATOM     18 OXT  PHE E   4      10.110  -8.968 -10.947  1.00 44.77 LIG-0.65  OA
ATOM     19 O    PHE E   4       8.455  -8.303  -9.853  1.00 38.71 LIG-0.65  OA
ENDBRANCH 16 17
BRANCH 16 20
ATOM     20  CB  PHE E   4      10.693  -5.942  -9.961  1.00 41.62 LIG 0.07  C 
BRANCH 20 21
ATOM     21  CG  PHE E   4      11.991  -6.677  -9.764  1.00 42.37 LIG-0.06  A 
ATOM     22  CD1 PHE E   4      12.375  -7.116  -8.491  1.00 43.46 LIG 0.01  A 
ATOM     23  CE1 PHE E   4      13.574  -7.780  -8.300  1.00 44.96 LIG 0.00  A 
ATOM     24  CZ  PHE E   4      14.410  -8.010  -9.386  1.00 45.96 LIG 0.00  A 
ATOM     25  CE2 PHE E   4      14.040  -7.583 -10.660  1.00 43.80 LIG 0.00  A 
ATOM     26  CD2 PHE E   4      12.835  -6.920 -10.842  1.00 42.63 LIG 0.01  A 
ENDBRANCH 20 21
ENDBRANCH 16 20
ENDBRANCH 13 16
ENDBRANCH 11 12
BRANCH 11 27
ATOM     27  CB  LEU E   3       7.038  -3.070 -10.590  1.00 33.50 LIG 0.04  C 
BRANCH 27 28
ATOM     28  CG  LEU E   3       7.249  -1.559 -10.709  1.00 34.48 LIG-0.02  C 
ATOM     29  CD2 LEU E   3       7.851  -0.960  -9.450  1.00 30.77 LIG 0.01  C 
ATOM     30  CD1 LEU E   3       5.918  -0.885 -11.028  1.00 32.68 LIG 0.01  C 
ENDBRANCH 27 28
ENDBRANCH 11 27
ENDBRANCH 9 11
ENDBRANCH 5 7
ENDBRANCH 3 5
BRANCH 1 31
ATOM     31  CA  LEU E   1       1.087  -6.179 -11.350  1.00 33.78 LIG 0.18  C 
BRANCH 31 32
ATOM     32  CB  LEU E   1       1.538  -4.998 -10.488  1.00 32.47 LIG 0.04  C 
BRANCH 32 33
ATOM     33  CG  LEU E   1       0.529  -4.528  -9.431  1.00 32.32 LIG-0.02  C 
ATOM     34  CD1 LEU E   1       1.058  -3.299  -8.700  1.00 30.19 LIG 0.01  C 
ATOM     35  CD2 LEU E   1      -0.846  -4.271 -10.051  1.00 31.57 LIG 0.01  C 
ENDBRANCH 32 33
ENDBRANCH 31 32
BRANCH 31 36
ATOM     36  N   LEU E   1       0.200  -7.070 -10.599  1.00 33.92 LIG-0.35  N 
ATOM     37  C   GLN E   0      -0.972  -7.455 -11.100  1.00 32.69 LIG 0.24  C 
ATOM     38 O    GLN E   0      -1.419  -7.033 -12.169  1.00 35.54 LIG-0.27  OA
ATOM     39 H    LEU E   1       0.500  -7.312  -9.830  1.00 33.92 LIG 0.16  HD
BRANCH 37 40
ATOM     40  CA  GLN E   0      -1.759  -8.461 -10.284  1.00 31.66 LIG 0.18  C 
BRANCH 40 41
ATOM     41  N   GLN E   0      -0.868  -9.140  -9.293  1.00 30.66 LIG-0.35  N 
ATOM     42  C   ACE E  -1       0.093 -10.008  -9.627  1.00 29.47 LIG 0.21  C 
ATOM     43 O    ACE E  -1       0.603 -10.087 -10.736  1.00 28.51 LIG-0.27  OA
ATOM     44  CH3 ACE E  -1       0.589 -10.893  -8.511  1.00 29.76 LIG 0.12  C 
ATOM     45 H    GLN E   0      -1.032  -8.917  -8.478  1.00 30.66 LIG 0.16  HD
ENDBRANCH 40 41
BRANCH 40 46
ATOM     46  CB  GLN E   0      -2.929  -7.760  -9.572  1.00 31.02 LIG 0.04  C 
BRANCH 46 47
ATOM     47  CG  GLN E   0      -2.534  -6.591  -8.670  1.00 30.22 LIG 0.10  C 
BRANCH 47 48
ATOM     48  CD  GLN E   0      -2.911  -6.806  -7.210  1.00 30.34 LIG 0.21  C 
ATOM     49 OE1  GLN E   0      -2.044  -6.896  -6.330  1.00 29.98 LIG-0.27  OA
ATOM     50  NE2 GLN E   0      -4.207  -6.889  -6.944  1.00 28.66 LIG-0.37  N 
ATOM     51 21HE GLN E   0      -4.782  -6.822  -7.581  1.00 28.66 LIG 0.16  HD
ATOM     52 22HE GLN E   0      -4.474  -7.010  -6.135  1.00 28.66 LIG 0.16  HD
ENDBRANCH 47 48
ENDBRANCH 46 47
ENDBRANCH 40 46
ENDBRANCH 37 40
ENDBRANCH 31 36
ENDBRANCH 1 31
TORSDOF 19
ENDMDL
MODEL 15
USER: ADFR SOLUTION from run 170
USER: SCORE 16.253348 LL:  -3.975 LR: -14.033 RR:   0.000 FEB:  -8.366
USER: RMSD 4.394230
USER: SEED 169
USER: STATUS no improvement in best in 8 clusters for 5 generations
USER: GENES 21
USER: genes 0 Translation |==|  0.46114 0.37508 0.56780
USER: genes 1 Rotation |==|  0.90040 0.51358 0.49512 0.79912
USER: genes 2 Torsion [C]-N--CA-[CB] |==|  0.20556
USER: genes 3 Torsion [N]-CA--C-[N] |==|  0.14389
USER: genes 4 Torsion [C]-N--CA-[CB] |==|  0.52263
USER: genes 5 Torsion [N]-CA--C-[N] |==|  0.91553
USER: genes 6 Torsion [C]-N--CA-[C] |==|  0.53722
USER: genes 7 Torsion [N]-CA--C-[OXT] |==|  0.43270
USER: genes 8 Torsion [N]-CA--CB-[CG] |==|  0.48746
USER: genes 9 Torsion [CA]-CB--CG-[CD1] |==|  0.70321
USER: genes 10 Torsion [N]-CA--CB-[CG] |==|  0.53752
USER: genes 11 Torsion [CA]-CB--CG-[CD2] |==|  0.70885
USER: genes 12 Torsion [N]-C--CA-[N] |==|  0.14353
USER: genes 13 Torsion [C]-CA--CB-[CG] |==|  0.45403
USER: genes 14 Torsion [CA]-CB--CG-[CD1] |==|  0.58773
USER: genes 15 Torsion [C]-CA--N-[C] |==|  0.14994
USER: genes 16 Torsion [N]-C--CA-[N] |==|  0.39435
USER: genes 17 Torsion [C]-CA--N-[C] |==|  0.76748
USER: genes 18 Torsion [C]-CA--CB-[CG] |==|  0.52652
USER: genes 19 Torsion [CA]-CB--CG-[CD] |==|  0.82713
USER: genes 20 Torsion [CB]-CG--CD-[OE1] |==|  0.19962
ROOT
ATOM      1  C   LEU E   1       2.677  -7.080 -11.706  1.00 34.74 LIG 0.24  C 
ATOM      2 O    LEU E   1       2.716  -8.247 -11.328  1.00 33.94 LIG-0.27  OA
ATOM      3  N   ALA E   2       3.728  -6.448 -12.226  1.00 36.28 LIG-0.35  N 
ATOM      4 H    ALA E   2       3.701  -5.636 -12.507  1.00 36.28 LIG 0.16  HD
ENDROOT
BRANCH 3 5
ATOM      5  CA  ALA E   2       5.040  -7.084 -12.365  1.00 35.94 LIG 0.17  C 
ATOM      6  CB  ALA E   2       5.022  -8.092 -13.507  1.00 33.95 LIG 0.04  C 
BRANCH 5 7
ATOM      7  C   ALA E   2       6.110  -6.022 -12.599  1.00 35.46 LIG 0.24  C 
ATOM      8 O    ALA E   2       6.876  -6.119 -13.560  1.00 34.79 LIG-0.27  OA
ATOM      9  N   LEU E   3       6.149  -5.005 -11.732  1.00 35.08 LIG-0.35  N 
ATOM     10 H    LEU E   3       5.556  -4.875 -11.123  1.00 35.08 LIG 0.16  HD
BRANCH 9 11
ATOM     11  CA  LEU E   3       7.231  -4.000 -11.748  1.00 35.40 LIG 0.18  C 
BRANCH 11 12
ATOM     12  C   LEU E   3       8.616  -4.643 -11.768  1.00 36.56 LIG 0.24  C 
ATOM     13  N   PHE E   4       8.707  -5.826 -11.159  1.00 37.64 LIG-0.34  N 
ATOM     14 H    PHE E   4       8.027  -6.222 -10.813  1.00 37.64 LIG 0.16  HD
ATOM     15 O    LEU E   3       9.569  -4.064 -12.292  1.00 36.99 LIG-0.27  OA
BRANCH 13 16
ATOM     16  CA  PHE E   4       9.946  -6.578 -11.009  1.00 39.79 LIG 0.19  C 
BRANCH 16 17
ATOM     17  C   PHE E   4       9.622  -8.015 -10.569  1.00 40.57 LIG 0.20  C 
ATOM     18 OXT  PHE E   4      10.407  -8.927 -10.798  1.00 44.77 LIG-0.65  OA
ATOM     19 O    PHE E   4       8.589  -8.322  -9.960  1.00 38.71 LIG-0.65  OA
ENDBRANCH 16 17
BRANCH 16 20
ATOM     20  CB  PHE E   4      10.867  -5.905  -9.981  1.00 41.62 LIG 0.07  C 
BRANCH 20 21
ATOM     21  CG  PHE E   4      12.122  -6.682  -9.692  1.00 42.37 LIG-0.06  A 
ATOM     22  CD1 PHE E   4      12.275  -7.363  -8.478  1.00 43.46 LIG 0.01  A 
ATOM     23  CE1 PHE E   4      13.433  -8.069  -8.200  1.00 44.96 LIG 0.00  A 
ATOM     24  CZ  PHE E   4      14.458  -8.098  -9.137  1.00 45.96 LIG 0.00  A 
ATOM     25  CE2 PHE E   4      14.319  -7.429 -10.353  1.00 43.80 LIG 0.00  A 
ATOM     26  CD2 PHE E   4      13.155  -6.727 -10.622  1.00 42.63 LIG 0.01  A 
ENDBRANCH 20 21
ENDBRANCH 16 20
ENDBRANCH 13 16
ENDBRANCH 11 12
BRANCH 11 27
ATOM     27  CB  LEU E   3       7.148  -3.066 -10.533  1.00 33.50 LIG 0.04  C 
BRANCH 27 28
ATOM     28  CG  LEU E   3       7.947  -1.764 -10.457  1.00 34.48 LIG-0.02  C 
ATOM     29  CD2 LEU E   3       9.138  -1.871  -9.522  1.00 30.77 LIG 0.01  C 
ATOM     30  CD1 LEU E   3       7.028  -0.630 -10.011  1.00 32.68 LIG 0.01  C 
ENDBRANCH 27 28
ENDBRANCH 11 27
ENDBRANCH 9 11
ENDBRANCH 5 7
ENDBRANCH 3 5
BRANCH 1 31
ATOM     31  CA  LEU E   1       1.383  -6.276 -11.614  1.00 33.78 LIG 0.18  C 
BRANCH 31 32
ATOM     32  CB  LEU E   1       0.238  -7.152 -11.103  1.00 32.47 LIG 0.04  C 
BRANCH 32 33
ATOM     33  CG  LEU E   1      -0.997  -6.396 -10.592  1.00 32.32 LIG-0.02  C 
ATOM     34  CD1 LEU E   1      -1.673  -7.176  -9.470  1.00 30.19 LIG 0.01  C 
ATOM     35  CD2 LEU E   1      -0.637  -4.974 -10.157  1.00 31.57 LIG 0.01  C 
ENDBRANCH 32 33
ENDBRANCH 31 32
BRANCH 31 36
ATOM     36  N   LEU E   1       1.044  -5.666 -12.901  1.00 33.92 LIG-0.35  N 
ATOM     37  C   GLN E   0       0.951  -6.401 -14.007  1.00 32.69 LIG 0.24  C 
ATOM     38 O    GLN E   0       1.218  -7.605 -14.040  1.00 35.54 LIG-0.27  OA
ATOM     39 H    LEU E   1       0.915  -4.815 -12.873  1.00 33.92 LIG 0.16  HD
BRANCH 37 40
ATOM     40  CA  GLN E   0       0.491  -5.684 -15.261  1.00 31.66 LIG 0.18  C 
BRANCH 40 41
ATOM     41  N   GLN E   0       1.236  -6.193 -16.455  1.00 30.66 LIG-0.35  N 
ATOM     42  C   ACE E  -1       2.444  -5.753 -16.822  1.00 29.47 LIG 0.21  C 
ATOM     43 O    ACE E  -1       3.231  -5.182 -16.079  1.00 28.51 LIG-0.27  OA
ATOM     44  CH3 ACE E  -1       2.843  -6.055 -18.245  1.00 29.76 LIG 0.12  C 
ATOM     45 H    GLN E   0       0.810  -6.802 -16.888  1.00 30.66 LIG 0.16  HD
ENDBRANCH 40 41
BRANCH 40 46
ATOM     46  CB  GLN E   0      -1.024  -5.870 -15.447  1.00 31.02 LIG 0.04  C 
BRANCH 46 47
ATOM     47  CG  GLN E   0      -1.578  -5.392 -16.789  1.00 30.22 LIG 0.10  C 
BRANCH 47 48
ATOM     48  CD  GLN E   0      -1.394  -3.897 -17.016  1.00 30.34 LIG 0.21  C 
ATOM     49 OE1  GLN E   0      -0.276  -3.417 -17.248  1.00 29.98 LIG-0.27  OA
ATOM     50  NE2 GLN E   0      -2.489  -3.154 -16.950  1.00 28.66 LIG-0.37  N 
ATOM     51 21HE GLN E   0      -3.249  -3.521 -16.787  1.00 28.66 LIG 0.16  HD
ATOM     52 22HE GLN E   0      -2.440  -2.303 -17.071  1.00 28.66 LIG 0.16  HD
ENDBRANCH 47 48
ENDBRANCH 46 47
ENDBRANCH 40 46
ENDBRANCH 37 40
ENDBRANCH 31 36
ENDBRANCH 1 31
TORSDOF 19
ENDMDL
MODEL 16
USER: ADFR SOLUTION from run 100
USER: SCORE 16.611818 LL:  -4.191 LR: -13.989 RR:   0.000 FEB:  -8.322
USER: RMSD 10.772618
USER: SEED 99
USER: STATUS no improvement in best in 11 clusters for 5 generations
USER: GENES 21
USER: genes 0 Translation |==|  0.61376 0.51055 0.52539
USER: genes 1 Rotation |==|  0.73366 0.05878 0.47308 0.50236
USER: genes 2 Torsion [C]-N--CA-[CB] |==|  0.48994
USER: genes 3 Torsion [N]-CA--C-[N] |==|  0.33907
USER: genes 4 Torsion [C]-N--CA-[CB] |==|  0.50070
USER: genes 5 Torsion [N]-CA--C-[N] |==|  0.44648
USER: genes 6 Torsion [C]-N--CA-[C] |==|  0.57607
USER: genes 7 Torsion [N]-CA--C-[OXT] |==|  0.14290
USER: genes 8 Torsion [N]-CA--CB-[CG] |==|  0.11264
USER: genes 9 Torsion [CA]-CB--CG-[CD1] |==|  0.28282
USER: genes 10 Torsion [N]-CA--CB-[CG] |==|  0.63286
USER: genes 11 Torsion [CA]-CB--CG-[CD2] |==|  0.65931
USER: genes 12 Torsion [N]-C--CA-[N] |==|  0.28743
USER: genes 13 Torsion [C]-CA--CB-[CG] |==|  0.43325
USER: genes 14 Torsion [CA]-CB--CG-[CD1] |==|  0.08636
USER: genes 15 Torsion [C]-CA--N-[C] |==|  0.76983
USER: genes 16 Torsion [N]-C--CA-[N] |==|  0.98552
USER: genes 17 Torsion [C]-CA--N-[C] |==|  0.79580
USER: genes 18 Torsion [C]-CA--CB-[CG] |==|  0.39126
USER: genes 19 Torsion [CA]-CB--CG-[CD] |==|  0.33177
USER: genes 20 Torsion [CB]-CG--CD-[OE1] |==|  0.42361
ROOT
ATOM      1  C   LEU E   1       6.569  -4.845 -12.406  1.00 34.74 LIG 0.24  C 
ATOM      2 O    LEU E   1       5.947  -4.352 -13.342  1.00 33.94 LIG-0.27  OA
ATOM      3  N   ALA E   2       6.488  -6.132 -12.075  1.00 36.28 LIG-0.35  N 
ATOM      4 H    ALA E   2       6.935  -6.486 -11.430  1.00 36.28 LIG 0.16  HD
ENDROOT
BRANCH 3 5
ATOM      5  CA  ALA E   2       5.621  -7.075 -12.786  1.00 35.94 LIG 0.17  C 
ATOM      6  CB  ALA E   2       5.808  -8.485 -12.240  1.00 33.95 LIG 0.04  C 
BRANCH 5 7
ATOM      7  C   ALA E   2       4.164  -6.637 -12.658  1.00 35.46 LIG 0.24  C 
ATOM      8 O    ALA E   2       3.658  -6.493 -11.544  1.00 34.79 LIG-0.27  OA
ATOM      9  N   LEU E   3       3.501  -6.412 -13.797  1.00 35.08 LIG-0.35  N 
ATOM     10 H    LEU E   3       3.872  -6.410 -14.573  1.00 35.08 LIG 0.16  HD
BRANCH 9 11
ATOM     11  CA  LEU E   3       2.049  -6.143 -13.821  1.00 35.40 LIG 0.18  C 
BRANCH 11 12
ATOM     12  C   LEU E   3       1.241  -7.274 -13.189  1.00 36.56 LIG 0.24  C 
ATOM     13  N   PHE E   4       0.004  -6.952 -12.810  1.00 37.64 LIG-0.34  N 
ATOM     14 H    PHE E   4      -0.334  -6.172 -12.947  1.00 37.64 LIG 0.16  HD
ATOM     15 O    LEU E   3       1.741  -8.388 -13.027  1.00 36.99 LIG-0.27  OA
BRANCH 13 16
ATOM     16  CA  PHE E   4      -0.910  -7.862 -12.132  1.00 39.79 LIG 0.19  C 
BRANCH 16 17
ATOM     17  C   PHE E   4      -2.360  -7.462 -12.450  1.00 40.57 LIG 0.20  C 
ATOM     18 OXT  PHE E   4      -2.721  -7.302 -13.609  1.00 44.77 LIG-0.65  OA
ATOM     19 O    PHE E   4      -3.226  -7.302 -11.579  1.00 38.71 LIG-0.65  OA
ENDBRANCH 16 17
BRANCH 16 20
ATOM     20  CB  PHE E   4      -0.674  -7.836 -10.615  1.00 41.62 LIG 0.07  C 
BRANCH 20 21
ATOM     21  CG  PHE E   4      -0.418  -6.459 -10.066  1.00 42.37 LIG-0.06  A 
ATOM     22  CD1 PHE E   4      -1.432  -5.757  -9.402  1.00 43.46 LIG 0.01  A 
ATOM     23  CE1 PHE E   4      -1.208  -4.484  -8.906  1.00 44.96 LIG 0.00  A 
ATOM     24  CZ  PHE E   4       0.039  -3.894  -9.075  1.00 45.96 LIG 0.00  A 
ATOM     25  CE2 PHE E   4       1.060  -4.582  -9.730  1.00 43.80 LIG 0.00  A 
ATOM     26  CD2 PHE E   4       0.826  -5.857 -10.220  1.00 42.63 LIG 0.01  A 
ENDBRANCH 20 21
ENDBRANCH 16 20
ENDBRANCH 13 16
ENDBRANCH 11 12
BRANCH 11 27
ATOM     27  CB  LEU E   3       1.542  -5.927 -15.253  1.00 33.50 LIG 0.04  C 
BRANCH 27 28
ATOM     28  CG  LEU E   3       0.640  -4.747 -15.623  1.00 34.48 LIG-0.02  C 
ATOM     29  CD2 LEU E   3      -0.672  -5.195 -16.242  1.00 30.77 LIG 0.01  C 
ATOM     30  CD1 LEU E   3       1.384  -3.820 -16.580  1.00 32.68 LIG 0.01  C 
ENDBRANCH 27 28
ENDBRANCH 11 27
ENDBRANCH 9 11
ENDBRANCH 5 7
ENDBRANCH 3 5
BRANCH 1 31
ATOM     31  CA  LEU E   1       7.506  -3.987 -11.559  1.00 33.78 LIG 0.18  C 
BRANCH 31 32
ATOM     32  CB  LEU E   1       6.816  -2.689 -11.136  1.00 32.47 LIG 0.04  C 
BRANCH 32 33
ATOM     33  CG  LEU E   1       7.372  -2.027  -9.868  1.00 32.32 LIG-0.02  C 
ATOM     34  CD1 LEU E   1       8.864  -2.308  -9.732  1.00 30.19 LIG 0.01  C 
ATOM     35  CD2 LEU E   1       7.074  -0.526  -9.848  1.00 31.57 LIG 0.01  C 
ENDBRANCH 32 33
ENDBRANCH 31 32
BRANCH 31 36
ATOM     36  N   LEU E   1       8.757  -3.710 -12.268  1.00 33.92 LIG-0.35  N 
ATOM     37  C   GLN E   0       9.756  -4.591 -12.270  1.00 32.69 LIG 0.24  C 
ATOM     38 O    GLN E   0       9.729  -5.641 -11.623  1.00 35.54 LIG-0.27  OA
ATOM     39 H    LEU E   1       8.783  -2.949 -12.668  1.00 33.92 LIG 0.16  HD
BRANCH 37 40
ATOM     40  CA  GLN E   0      10.961  -4.247 -13.121  1.00 31.66 LIG 0.18  C 
BRANCH 40 41
ATOM     41  N   GLN E   0      10.707  -2.997 -13.904  1.00 30.66 LIG-0.35  N 
ATOM     42  C   ACE E  -1       9.894  -2.935 -14.964  1.00 29.47 LIG 0.21  C 
ATOM     43 O    ACE E  -1       9.008  -3.741 -15.208  1.00 28.51 LIG-0.27  OA
ATOM     44  CH3 ACE E  -1      10.085  -1.738 -15.862  1.00 29.76 LIG 0.12  C 
ATOM     45 H    GLN E   0      11.136  -2.314 -13.605  1.00 30.66 LIG 0.16  HD
ENDBRANCH 40 41
BRANCH 40 46
ATOM     46  CB  GLN E   0      12.205  -4.086 -12.231  1.00 31.02 LIG 0.04  C 
BRANCH 46 47
ATOM     47  CG  GLN E   0      13.501  -4.649 -12.815  1.00 30.22 LIG 0.10  C 
BRANCH 47 48
ATOM     48  CD  GLN E   0      14.583  -3.594 -13.002  1.00 30.34 LIG 0.21  C 
ATOM     49 OE1  GLN E   0      15.784  -3.894 -12.970  1.00 29.98 LIG-0.27  OA
ATOM     50  NE2 GLN E   0      14.164  -2.352 -13.199  1.00 28.66 LIG-0.37  N 
ATOM     51 21HE GLN E   0      13.322  -2.179 -13.215  1.00 28.66 LIG 0.16  HD
ATOM     52 22HE GLN E   0      14.735  -1.717 -13.310  1.00 28.66 LIG 0.16  HD
ENDBRANCH 47 48
ENDBRANCH 46 47
ENDBRANCH 40 46
ENDBRANCH 37 40
ENDBRANCH 31 36
ENDBRANCH 1 31
TORSDOF 19
ENDMDL
MODEL 17
USER: ADFR SOLUTION from run 97
USER: SCORE 17.585959 LL:  -4.155 LR: -13.932 RR:   0.000 FEB:  -8.264
USER: RMSD 4.064312
USER: SEED 96
USER: STATUS no improvement in best in 9 clusters for 5 generations
USER: GENES 21
USER: genes 0 Translation |==|  0.44955 0.37174 0.46909
USER: genes 1 Rotation |==|  0.95922 0.45832 0.68881 0.54155
USER: genes 2 Torsion [C]-N--CA-[CB] |==|  0.85433
USER: genes 3 Torsion [N]-CA--C-[N] |==|  0.35881
USER: genes 4 Torsion [C]-N--CA-[CB] |==|  0.16941
USER: genes 5 Torsion [N]-CA--C-[N] |==|  0.08468
USER: genes 6 Torsion [C]-N--CA-[C] |==|  0.66127
USER: genes 7 Torsion [N]-CA--C-[OXT] |==|  0.49049
USER: genes 8 Torsion [N]-CA--CB-[CG] |==|  0.83432
USER: genes 9 Torsion [CA]-CB--CG-[CD1] |==|  0.67801
USER: genes 10 Torsion [N]-CA--CB-[CG] |==|  0.69088
USER: genes 11 Torsion [CA]-CB--CG-[CD2] |==|  0.33962
USER: genes 12 Torsion [N]-C--CA-[N] |==|  0.90171
USER: genes 13 Torsion [C]-CA--CB-[CG] |==|  0.35977
USER: genes 14 Torsion [CA]-CB--CG-[CD1] |==|  0.11481
USER: genes 15 Torsion [C]-CA--N-[C] |==|  0.81450
USER: genes 16 Torsion [N]-C--CA-[N] |==|  0.02763
USER: genes 17 Torsion [C]-CA--N-[C] |==|  0.63889
USER: genes 18 Torsion [C]-CA--CB-[CG] |==|  0.36067
USER: genes 19 Torsion [CA]-CB--CG-[CD] |==|  0.25147
USER: genes 20 Torsion [CB]-CG--CD-[OE1] |==|  0.78635
ROOT
ATOM      1  C   LEU E   1       2.382  -7.135 -13.335  1.00 34.74 LIG 0.24  C 
ATOM      2 O    LEU E   1       2.908  -8.027 -13.994  1.00 33.94 LIG-0.27  OA
ATOM      3  N   ALA E   2       2.982  -6.538 -12.307  1.00 36.28 LIG-0.35  N 
ATOM      4 H    ALA E   2       2.624  -5.901 -11.853  1.00 36.28 LIG 0.16  HD
ENDROOT
BRANCH 3 5
ATOM      5  CA  ALA E   2       4.322  -6.916 -11.851  1.00 35.94 LIG 0.17  C 
ATOM      6  CB  ALA E   2       4.394  -8.417 -11.602  1.00 33.95 LIG 0.04  C 
BRANCH 5 7
ATOM      7  C   ALA E   2       5.361  -6.489 -12.884  1.00 35.46 LIG 0.24  C 
ATOM      8 O    ALA E   2       5.209  -6.783 -14.071  1.00 34.79 LIG-0.27  OA
ATOM      9  N   LEU E   3       6.405  -5.786 -12.432  1.00 35.08 LIG-0.35  N 
ATOM     10 H    LEU E   3       6.468  -5.490 -11.627  1.00 35.08 LIG 0.16  HD
BRANCH 9 11
ATOM     11  CA  LEU E   3       7.558  -5.452 -13.292  1.00 35.40 LIG 0.18  C 
BRANCH 11 12
ATOM     12  C   LEU E   3       8.650  -4.704 -12.530  1.00 36.56 LIG 0.24  C 
ATOM     13  N   PHE E   4       8.749  -5.001 -11.233  1.00 37.64 LIG-0.34  N 
ATOM     14 H    PHE E   4       8.261  -5.600 -10.857  1.00 37.64 LIG 0.16  HD
ATOM     15 O    LEU E   3       9.351  -3.866 -13.099  1.00 36.99 LIG-0.27  OA
BRANCH 13 16
ATOM     16  CA  PHE E   4       9.678  -4.358 -10.314  1.00 39.79 LIG 0.19  C 
BRANCH 16 17
ATOM     17  C   PHE E   4      10.588  -5.421  -9.679  1.00 40.57 LIG 0.20  C 
ATOM     18 OXT  PHE E   4      11.490  -5.094  -8.918  1.00 44.77 LIG-0.65  OA
ATOM     19 O    PHE E   4      10.456  -6.636  -9.880  1.00 38.71 LIG-0.65  OA
ENDBRANCH 16 17
BRANCH 16 20
ATOM     20  CB  PHE E   4       8.917  -3.592  -9.221  1.00 41.62 LIG 0.07  C 
BRANCH 20 21
ATOM     21  CG  PHE E   4       8.014  -2.514  -9.755  1.00 42.37 LIG-0.06  A 
ATOM     22  CD1 PHE E   4       8.253  -1.169  -9.450  1.00 43.46 LIG 0.01  A 
ATOM     23  CE1 PHE E   4       7.418  -0.172  -9.926  1.00 44.96 LIG 0.00  A 
ATOM     24  CZ  PHE E   4       6.324  -0.515 -10.712  1.00 45.96 LIG 0.00  A 
ATOM     25  CE2 PHE E   4       6.075  -1.849 -11.027  1.00 43.80 LIG 0.00  A 
ATOM     26  CD2 PHE E   4       6.919  -2.839 -10.548  1.00 42.63 LIG 0.01  A 
ENDBRANCH 20 21
ENDBRANCH 16 20
ENDBRANCH 13 16
ENDBRANCH 11 12
BRANCH 11 27
ATOM     27  CB  LEU E   3       7.134  -4.598 -14.494  1.00 33.50 LIG 0.04  C 
BRANCH 27 28
ATOM     28  CG  LEU E   3       7.166  -5.141 -15.924  1.00 34.48 LIG-0.02  C 
ATOM     29  CD2 LEU E   3       5.807  -5.072 -16.598  1.00 30.77 LIG 0.01  C 
ATOM     30  CD1 LEU E   3       7.675  -6.579 -15.910  1.00 32.68 LIG 0.01  C 
ENDBRANCH 27 28
ENDBRANCH 11 27
ENDBRANCH 9 11
ENDBRANCH 5 7
ENDBRANCH 3 5
BRANCH 1 31
ATOM     31  CA  LEU E   1       0.979  -6.640 -13.679  1.00 33.78 LIG 0.18  C 
BRANCH 31 32
ATOM     32  CB  LEU E   1       1.046  -5.472 -14.665  1.00 32.47 LIG 0.04  C 
BRANCH 32 33
ATOM     33  CG  LEU E   1       0.152  -5.602 -15.906  1.00 32.32 LIG-0.02  C 
ATOM     34  CD1 LEU E   1      -1.210  -6.169 -15.524  1.00 30.19 LIG 0.01  C 
ATOM     35  CD2 LEU E   1       0.024  -4.266 -16.641  1.00 31.57 LIG 0.01  C 
ENDBRANCH 32 33
ENDBRANCH 31 32
BRANCH 31 36
ATOM     36  N   LEU E   1       0.237  -6.268 -12.472  1.00 33.92 LIG-0.35  N 
ATOM     37  C   GLN E   0      -0.122  -7.185 -11.576  1.00 32.69 LIG 0.24  C 
ATOM     38 O    GLN E   0       0.069  -8.393 -11.736  1.00 35.54 LIG-0.27  OA
ATOM     39 H    LEU E   1       0.062  -5.428 -12.402  1.00 33.92 LIG 0.16  HD
BRANCH 37 40
ATOM     40  CA  GLN E   0      -0.793  -6.675 -10.317  1.00 31.66 LIG 0.18  C 
BRANCH 40 41
ATOM     41  N   GLN E   0      -1.129  -5.224 -10.456  1.00 30.66 LIG-0.35  N 
ATOM     42  C   ACE E  -1      -0.813  -4.296  -9.546  1.00 29.47 LIG 0.21  C 
ATOM     43 O    ACE E  -1       0.066  -4.419  -8.704  1.00 28.51 LIG-0.27  OA
ATOM     44  CH3 ACE E  -1      -1.582  -3.002  -9.641  1.00 29.76 LIG 0.12  C 
ATOM     45 H    GLN E   0      -1.548  -5.039 -11.183  1.00 30.66 LIG 0.16  HD
ENDBRANCH 40 41
BRANCH 40 46
ATOM     46  CB  GLN E   0      -2.058  -7.499 -10.024  1.00 31.02 LIG 0.04  C 
BRANCH 46 47
ATOM     47  CG  GLN E   0      -2.170  -8.036  -8.597  1.00 30.22 LIG 0.10  C 
BRANCH 47 48
ATOM     48  CD  GLN E   0      -2.896  -7.085  -7.654  1.00 30.34 LIG 0.21  C 
ATOM     49 OE1  GLN E   0      -2.333  -6.080  -7.199  1.00 29.98 LIG-0.27  OA
ATOM     50  NE2 GLN E   0      -4.150  -7.395  -7.358  1.00 28.66 LIG-0.37  N 
ATOM     51 21HE GLN E   0      -4.509  -8.101  -7.693  1.00 28.66 LIG 0.16  HD
ATOM     52 22HE GLN E   0      -4.605  -6.890  -6.830  1.00 28.66 LIG 0.16  HD
ENDBRANCH 47 48
ENDBRANCH 46 47
ENDBRANCH 40 46
ENDBRANCH 37 40
ENDBRANCH 31 36
ENDBRANCH 1 31
TORSDOF 19
ENDMDL
MODEL 18
USER: ADFR SOLUTION from run 165
USER: SCORE 17.685858 LL:  -3.944 LR: -13.914 RR:   0.000 FEB:  -8.247
USER: RMSD 3.538805
USER: SEED 164
USER: STATUS no improvement in best in 6 clusters for 5 generations
USER: GENES 21
USER: genes 0 Translation |==|  0.45701 0.36878 0.43641
USER: genes 1 Rotation |==|  0.93411 0.50497 0.73785 0.57033
USER: genes 2 Torsion [C]-N--CA-[CB] |==|  0.84444
USER: genes 3 Torsion [N]-CA--C-[N] |==|  0.41610
USER: genes 4 Torsion [C]-N--CA-[CB] |==|  0.15142
USER: genes 5 Torsion [N]-CA--C-[N] |==|  0.11214
USER: genes 6 Torsion [C]-N--CA-[C] |==|  0.65366
USER: genes 7 Torsion [N]-CA--C-[OXT] |==|  0.49103
USER: genes 8 Torsion [N]-CA--CB-[CG] |==|  0.83761
USER: genes 9 Torsion [CA]-CB--CG-[CD1] |==|  0.68942
USER: genes 10 Torsion [N]-CA--CB-[CG] |==|  0.67085
USER: genes 11 Torsion [CA]-CB--CG-[CD2] |==|  0.01455
USER: genes 12 Torsion [N]-C--CA-[N] |==|  0.90736
USER: genes 13 Torsion [C]-CA--CB-[CG] |==|  0.64759
USER: genes 14 Torsion [CA]-CB--CG-[CD1] |==|  0.41755
USER: genes 15 Torsion [C]-CA--N-[C] |==|  0.82215
USER: genes 16 Torsion [N]-C--CA-[N] |==|  0.35066
USER: genes 17 Torsion [C]-CA--N-[C] |==|  0.82603
USER: genes 18 Torsion [C]-CA--CB-[CG] |==|  0.49092
USER: genes 19 Torsion [CA]-CB--CG-[CD] |==|  0.73687
USER: genes 20 Torsion [CB]-CG--CD-[OE1] |==|  0.34558
ROOT
ATOM      1  C   LEU E   1       2.572  -7.184 -13.874  1.00 34.74 LIG 0.24  C 
ATOM      2 O    LEU E   1       3.320  -8.091 -14.226  1.00 33.94 LIG-0.27  OA
ATOM      3  N   ALA E   2       2.877  -6.322 -12.906  1.00 36.28 LIG-0.35  N 
ATOM      4 H    ALA E   2       2.363  -5.675 -12.668  1.00 36.28 LIG 0.16  HD
ENDROOT
BRANCH 3 5
ATOM      5  CA  ALA E   2       4.129  -6.398 -12.151  1.00 35.94 LIG 0.17  C 
ATOM      6  CB  ALA E   2       4.279  -7.771 -11.508  1.00 33.95 LIG 0.04  C 
BRANCH 5 7
ATOM      7  C   ALA E   2       5.310  -6.102 -13.071  1.00 35.46 LIG 0.24  C 
ATOM      8 O    ALA E   2       5.241  -6.376 -14.271  1.00 34.79 LIG-0.27  OA
ATOM      9  N   LEU E   3       6.381  -5.530 -12.512  1.00 35.08 LIG-0.35  N 
ATOM     10 H    LEU E   3       6.400  -5.243 -11.701  1.00 35.08 LIG 0.16  HD
BRANCH 9 11
ATOM     11  CA  LEU E   3       7.646  -5.340 -13.250  1.00 35.40 LIG 0.18  C 
BRANCH 11 12
ATOM     12  C   LEU E   3       8.688  -4.586 -12.426  1.00 36.56 LIG 0.24  C 
ATOM     13  N   PHE E   4       8.752  -4.923 -11.138  1.00 37.64 LIG-0.34  N 
ATOM     14 H    PHE E   4       8.270  -5.549 -10.798  1.00 37.64 LIG 0.16  HD
ATOM     15 O    LEU E   3       9.383  -3.710 -12.943  1.00 36.99 LIG-0.27  OA
BRANCH 13 16
ATOM     16  CA  PHE E   4       9.630  -4.284 -10.166  1.00 39.79 LIG 0.19  C 
BRANCH 16 17
ATOM     17  C   PHE E   4      10.502  -5.351  -9.485  1.00 40.57 LIG 0.20  C 
ATOM     18 OXT  PHE E   4      11.358  -5.028  -8.671  1.00 44.77 LIG-0.65  OA
ATOM     19 O    PHE E   4      10.381  -6.565  -9.699  1.00 38.71 LIG-0.65  OA
ENDBRANCH 16 17
BRANCH 16 20
ATOM     20  CB  PHE E   4       8.811  -3.521  -9.115  1.00 41.62 LIG 0.07  C 
BRANCH 20 21
ATOM     21  CG  PHE E   4       7.919  -2.459  -9.697  1.00 42.37 LIG-0.06  A 
ATOM     22  CD1 PHE E   4       8.179  -1.103  -9.462  1.00 43.46 LIG 0.01  A 
ATOM     23  CE1 PHE E   4       7.354  -0.120  -9.982  1.00 44.96 LIG 0.00  A 
ATOM     24  CZ  PHE E   4       6.251  -0.486 -10.744  1.00 45.96 LIG 0.00  A 
ATOM     25  CE2 PHE E   4       5.982  -1.832 -10.991  1.00 43.80 LIG 0.00  A 
ATOM     26  CD2 PHE E   4       6.815  -2.808 -10.467  1.00 42.63 LIG 0.01  A 
ENDBRANCH 20 21
ENDBRANCH 16 20
ENDBRANCH 13 16
ENDBRANCH 11 12
BRANCH 11 27
ATOM     27  CB  LEU E   3       7.421  -4.576 -14.562  1.00 33.50 LIG 0.04  C 
BRANCH 27 28
ATOM     28  CG  LEU E   3       7.738  -5.197 -15.924  1.00 34.48 LIG-0.02  C 
ATOM     29  CD2 LEU E   3       8.161  -6.651 -15.812  1.00 30.77 LIG 0.01  C 
ATOM     30  CD1 LEU E   3       8.831  -4.382 -16.610  1.00 32.68 LIG 0.01  C 
ENDBRANCH 27 28
ENDBRANCH 11 27
ENDBRANCH 9 11
ENDBRANCH 5 7
ENDBRANCH 3 5
BRANCH 1 31
ATOM     31  CA  LEU E   1       1.222  -6.982 -14.558  1.00 33.78 LIG 0.18  C 
BRANCH 31 32
ATOM     32  CB  LEU E   1       1.363  -6.061 -15.771  1.00 32.47 LIG 0.04  C 
BRANCH 32 33
ATOM     33  CG  LEU E   1       0.414  -4.855 -15.800  1.00 32.32 LIG-0.02  C 
ATOM     34  CD1 LEU E   1       1.058  -3.688 -16.541  1.00 30.19 LIG 0.01  C 
ATOM     35  CD2 LEU E   1      -0.942  -5.229 -16.400  1.00 31.57 LIG 0.01  C 
ENDBRANCH 32 33
ENDBRANCH 31 32
BRANCH 31 36
ATOM     36  N   LEU E   1       0.223  -6.466 -13.619  1.00 33.92 LIG-0.35  N 
ATOM     37  C   GLN E   0      -0.171  -7.186 -12.570  1.00 32.69 LIG 0.24  C 
ATOM     38 O    GLN E   0       0.207  -8.342 -12.367  1.00 35.54 LIG-0.27  OA
ATOM     39 H    LEU E   1      -0.073  -5.680 -13.805  1.00 33.92 LIG 0.16  HD
BRANCH 37 40
ATOM     40  CA  GLN E   0      -1.128  -6.512 -11.608  1.00 31.66 LIG 0.18  C 
BRANCH 40 41
ATOM     41  N   GLN E   0      -2.347  -7.357 -11.408  1.00 30.66 LIG-0.35  N 
ATOM     42  C   ACE E  -1      -3.203  -7.671 -12.386  1.00 29.47 LIG 0.21  C 
ATOM     43 O    ACE E  -1      -2.939  -7.635 -13.579  1.00 28.51 LIG-0.27  OA
ATOM     44  CH3 ACE E  -1      -4.560  -8.152 -11.934  1.00 29.76 LIG 0.12  C 
ATOM     45 H    GLN E   0      -2.446  -7.625 -10.597  1.00 30.66 LIG 0.16  HD
ENDBRANCH 40 41
BRANCH 40 46
ATOM     46  CB  GLN E   0      -0.425  -6.249 -10.265  1.00 31.02 LIG 0.04  C 
BRANCH 46 47
ATOM     47  CG  GLN E   0      -1.262  -5.499  -9.228  1.00 30.22 LIG 0.10  C 
BRANCH 47 48
ATOM     48  CD  GLN E   0      -1.022  -3.996  -9.238  1.00 30.34 LIG 0.21  C 
ATOM     49 OE1  GLN E   0      -1.957  -3.197  -9.386  1.00 29.98 LIG-0.27  OA
ATOM     50  NE2 GLN E   0       0.234  -3.600  -9.078  1.00 28.66 LIG-0.37  N 
ATOM     51 21HE GLN E   0       0.858  -4.183  -8.978  1.00 28.66 LIG 0.16  HD
ATOM     52 22HE GLN E   0       0.424  -2.761  -9.075  1.00 28.66 LIG 0.16  HD
ENDBRANCH 47 48
ENDBRANCH 46 47
ENDBRANCH 40 46
ENDBRANCH 37 40
ENDBRANCH 31 36
ENDBRANCH 1 31
TORSDOF 19
ENDMDL
MODEL 19
USER: ADFR SOLUTION from run 14
USER: SCORE 15.689353 LL:  -4.335 LR: -13.909 RR:   0.000 FEB:  -8.242
USER: RMSD 3.616959
USER: SEED 719134
USER: STATUS no improvement in best in 10 clusters for 5 generations
USER: GENES 21
USER: genes 0 Translation |==|  0.44321 0.44538 0.60726
USER: genes 1 Rotation |==|  0.43211 0.67247 0.40486 0.95453
USER: genes 2 Torsion [C]-N--CA-[CB] |==|  0.52010
USER: genes 3 Torsion [N]-CA--C-[N] |==|  0.27466
USER: genes 4 Torsion [C]-N--CA-[CB] |==|  0.39488
USER: genes 5 Torsion [N]-CA--C-[N] |==|  0.91013
USER: genes 6 Torsion [C]-N--CA-[C] |==|  0.65378
USER: genes 7 Torsion [N]-CA--C-[OXT] |==|  0.02940
USER: genes 8 Torsion [N]-CA--CB-[CG] |==|  0.83718
USER: genes 9 Torsion [CA]-CB--CG-[CD1] |==|  0.69333
USER: genes 10 Torsion [N]-CA--CB-[CG] |==|  0.58586
USER: genes 11 Torsion [CA]-CB--CG-[CD2] |==|  0.82014
USER: genes 12 Torsion [N]-C--CA-[N] |==|  0.12128
USER: genes 13 Torsion [C]-CA--CB-[CG] |==|  0.52469
USER: genes 14 Torsion [CA]-CB--CG-[CD1] |==|  0.26181
USER: genes 15 Torsion [C]-CA--N-[C] |==|  0.58545
USER: genes 16 Torsion [N]-C--CA-[N] |==|  0.34519
USER: genes 17 Torsion [C]-CA--N-[C] |==|  0.75853
USER: genes 18 Torsion [C]-CA--CB-[CG] |==|  0.08594
USER: genes 19 Torsion [CA]-CB--CG-[CD] |==|  0.73438
USER: genes 20 Torsion [CB]-CG--CD-[OE1] |==|  0.78202
ROOT
ATOM      1  C   LEU E   1       2.220  -5.920 -11.055  1.00 34.74 LIG 0.24  C 
ATOM      2 O    LEU E   1       3.070  -5.178 -10.574  1.00 33.94 LIG-0.27  OA
ATOM      3  N   ALA E   2       2.519  -7.003 -11.771  1.00 36.28 LIG-0.35  N 
ATOM      4 H    ALA E   2       1.927  -7.535 -12.096  1.00 36.28 LIG 0.16  HD
ENDROOT
BRANCH 3 5
ATOM      5  CA  ALA E   2       3.899  -7.389 -12.074  1.00 35.94 LIG 0.17  C 
ATOM      6  CB  ALA E   2       3.921  -8.558 -13.051  1.00 33.95 LIG 0.04  C 
BRANCH 5 7
ATOM      7  C   ALA E   2       4.658  -6.194 -12.646  1.00 35.46 LIG 0.24  C 
ATOM      8 O    ALA E   2       4.527  -5.890 -13.833  1.00 34.79 LIG-0.27  OA
ATOM      9  N   LEU E   3       5.436  -5.514 -11.799  1.00 35.08 LIG-0.35  N 
ATOM     10 H    LEU E   3       5.455  -5.654 -10.951  1.00 35.08 LIG 0.16  HD
BRANCH 9 11
ATOM     11  CA  LEU E   3       6.346  -4.443 -12.254  1.00 35.40 LIG 0.18  C 
BRANCH 11 12
ATOM     12  C   LEU E   3       7.770  -4.949 -12.472  1.00 36.56 LIG 0.24  C 
ATOM     13  N   PHE E   4       8.158  -5.934 -11.661  1.00 37.64 LIG-0.34  N 
ATOM     14 H    PHE E   4       7.633  -6.290 -11.081  1.00 37.64 LIG 0.16  HD
ATOM     15 O    LEU E   3       8.494  -4.437 -13.327  1.00 36.99 LIG-0.27  OA
BRANCH 13 16
ATOM     16  CA  PHE E   4       9.494  -6.516 -11.660  1.00 39.79 LIG 0.19  C 
BRANCH 16 17
ATOM     17  C   PHE E   4       9.390  -8.036 -11.863  1.00 40.57 LIG 0.20  C 
ATOM     18 OXT  PHE E   4       8.326  -8.549 -12.187  1.00 44.77 LIG-0.65  OA
ATOM     19 O    PHE E   4      10.351  -8.806 -11.732  1.00 38.71 LIG-0.65  OA
ENDBRANCH 16 17
BRANCH 16 20
ATOM     20  CB  PHE E   4      10.218  -6.207 -10.341  1.00 41.62 LIG 0.07  C 
BRANCH 20 21
ATOM     21  CG  PHE E   4      10.360  -4.737 -10.058  1.00 42.37 LIG-0.06  A 
ATOM     22  CD1 PHE E   4      11.615  -4.119 -10.110  1.00 43.46 LIG 0.01  A 
ATOM     23  CE1 PHE E   4      11.756  -2.769  -9.837  1.00 44.96 LIG 0.00  A 
ATOM     24  CZ  PHE E   4      10.635  -2.019  -9.502  1.00 45.96 LIG 0.00  A 
ATOM     25  CE2 PHE E   4       9.377  -2.619  -9.450  1.00 43.80 LIG 0.00  A 
ATOM     26  CD2 PHE E   4       9.247  -3.971  -9.727  1.00 42.63 LIG 0.01  A 
ENDBRANCH 20 21
ENDBRANCH 16 20
ENDBRANCH 13 16
ENDBRANCH 11 12
BRANCH 11 27
ATOM     27  CB  LEU E   3       6.392  -3.282 -11.253  1.00 33.50 LIG 0.04  C 
BRANCH 27 28
ATOM     28  CG  LEU E   3       6.634  -1.838 -11.697  1.00 34.48 LIG-0.02  C 
ATOM     29  CD2 LEU E   3       8.015  -1.642 -12.298  1.00 30.77 LIG 0.01  C 
ATOM     30  CD1 LEU E   3       6.441  -0.901 -10.508  1.00 32.68 LIG 0.01  C 
ENDBRANCH 27 28
ENDBRANCH 11 27
ENDBRANCH 9 11
ENDBRANCH 5 7
ENDBRANCH 3 5
BRANCH 1 31
ATOM     31  CA  LEU E   1       0.734  -5.643 -10.838  1.00 33.78 LIG 0.18  C 
BRANCH 31 32
ATOM     32  CB  LEU E   1       0.536  -4.571  -9.765  1.00 32.47 LIG 0.04  C 
BRANCH 32 33
ATOM     33  CG  LEU E   1      -0.913  -4.356  -9.305  1.00 32.32 LIG-0.02  C 
ATOM     34  CD1 LEU E   1      -1.207  -5.190  -8.063  1.00 30.19 LIG 0.01  C 
ATOM     35  CD2 LEU E   1      -1.208  -2.873  -9.075  1.00 31.57 LIG 0.01  C 
ENDBRANCH 32 33
ENDBRANCH 31 32
BRANCH 31 36
ATOM     36  N   LEU E   1       0.010  -6.870 -10.497  1.00 33.92 LIG-0.35  N 
ATOM     37  C   GLN E   0      -1.266  -7.033 -10.843  1.00 32.69 LIG 0.24  C 
ATOM     38 O    GLN E   0      -1.934  -6.152 -11.388  1.00 35.54 LIG-0.27  OA
ATOM     39 H    LEU E   1       0.473  -7.453 -10.067  1.00 33.92 LIG 0.16  HD
BRANCH 37 40
ATOM     40  CA  GLN E   0      -1.884  -8.381 -10.532  1.00 31.66 LIG 0.18  C 
BRANCH 40 41
ATOM     41  N   GLN E   0      -3.113  -8.211  -9.696  1.00 30.66 LIG-0.35  N 
ATOM     42  C   ACE E  -1      -3.100  -8.138  -8.361  1.00 29.47 LIG 0.21  C 
ATOM     43 O    ACE E  -1      -2.122  -7.841  -7.690  1.00 28.51 LIG-0.27  OA
ATOM     44  CH3 ACE E  -1      -4.423  -8.393  -7.681  1.00 29.76 LIG 0.12  C 
ATOM     45 H    GLN E   0      -3.836  -8.164 -10.158  1.00 30.66 LIG 0.16  HD
ENDBRANCH 40 41
BRANCH 40 46
ATOM     46  CB  GLN E   0      -2.216  -9.121 -11.840  1.00 31.02 LIG 0.04  C 
BRANCH 46 47
ATOM     47  CG  GLN E   0      -1.287  -8.813 -13.015  1.00 30.22 LIG 0.10  C 
BRANCH 47 48
ATOM     48  CD  GLN E   0      -1.827  -7.728 -13.937  1.00 30.34 LIG 0.21  C 
ATOM     49 OE1  GLN E   0      -2.707  -7.976 -14.773  1.00 29.98 LIG-0.27  OA
ATOM     50  NE2 GLN E   0      -1.304  -6.519 -13.791  1.00 28.66 LIG-0.37  N 
ATOM     51 21HE GLN E   0      -0.694  -6.383 -13.200  1.00 28.66 LIG 0.16  HD
ATOM     52 22HE GLN E   0      -1.575  -5.870 -14.287  1.00 28.66 LIG 0.16  HD
ENDBRANCH 47 48
ENDBRANCH 46 47
ENDBRANCH 40 46
ENDBRANCH 37 40
ENDBRANCH 31 36
ENDBRANCH 1 31
TORSDOF 19
ENDMDL
MODEL 20
USER: ADFR SOLUTION from run 73
USER: SCORE 15.644768 LL:  -3.951 LR: -13.902 RR:   0.000 FEB:  -8.234
USER: RMSD 10.918603
USER: SEED 72
USER: STATUS no improvement in best in 16 clusters for 5 generations
USER: GENES 21
USER: genes 0 Translation |==|  0.63253 0.54392 0.53865
USER: genes 1 Rotation |==|  0.41858 0.92783 0.27979 0.60881
USER: genes 2 Torsion [C]-N--CA-[CB] |==|  0.20420
USER: genes 3 Torsion [N]-CA--C-[N] |==|  0.43512
USER: genes 4 Torsion [C]-N--CA-[CB] |==|  0.15501
USER: genes 5 Torsion [N]-CA--C-[N] |==|  0.67523
USER: genes 6 Torsion [C]-N--CA-[C] |==|  0.19309
USER: genes 7 Torsion [N]-CA--C-[OXT] |==|  0.82399
USER: genes 8 Torsion [N]-CA--CB-[CG] |==|  0.87577
USER: genes 9 Torsion [CA]-CB--CG-[CD1] |==|  0.84299
USER: genes 10 Torsion [N]-CA--CB-[CG] |==|  0.64599
USER: genes 11 Torsion [CA]-CB--CG-[CD2] |==|  0.76859
USER: genes 12 Torsion [N]-C--CA-[N] |==|  0.37248
USER: genes 13 Torsion [C]-CA--CB-[CG] |==|  0.30376
USER: genes 14 Torsion [CA]-CB--CG-[CD1] |==|  0.25253
USER: genes 15 Torsion [C]-CA--N-[C] |==|  0.55556
USER: genes 16 Torsion [N]-C--CA-[N] |==|  0.43795
USER: genes 17 Torsion [C]-CA--N-[C] |==|  0.61572
USER: genes 18 Torsion [C]-CA--CB-[CG] |==|  0.22661
USER: genes 19 Torsion [CA]-CB--CG-[CD] |==|  0.68283
USER: genes 20 Torsion [CB]-CG--CD-[OE1] |==|  0.75877
ROOT
ATOM      1  C   LEU E   1       7.048  -4.294 -12.187  1.00 34.74 LIG 0.24  C 
ATOM      2 O    LEU E   1       7.524  -4.589 -13.279  1.00 33.94 LIG-0.27  OA
ATOM      3  N   ALA E   2       5.941  -4.853 -11.700  1.00 36.28 LIG-0.35  N 
ATOM      4 H    ALA E   2       5.613  -4.662 -10.928  1.00 36.28 LIG 0.16  HD
ENDROOT
BRANCH 3 5
ATOM      5  CA  ALA E   2       5.173  -5.855 -12.443  1.00 35.94 LIG 0.17  C 
ATOM      6  CB  ALA E   2       5.910  -7.189 -12.454  1.00 33.95 LIG 0.04  C 
BRANCH 5 7
ATOM      7  C   ALA E   2       3.787  -6.011 -11.823  1.00 35.46 LIG 0.24  C 
ATOM      8 O    ALA E   2       3.596  -5.687 -10.649  1.00 34.79 LIG-0.27  OA
ATOM      9  N   LEU E   3       2.823  -6.490 -12.616  1.00 35.08 LIG-0.35  N 
ATOM     10 H    LEU E   3       2.922  -6.621 -13.460  1.00 35.08 LIG 0.16  HD
BRANCH 9 11
ATOM     11  CA  LEU E   3       1.484  -6.840 -12.101  1.00 35.40 LIG 0.18  C 
BRANCH 11 12
ATOM     12  C   LEU E   3       0.544  -7.310 -13.209  1.00 36.56 LIG 0.24  C 
ATOM     13  N   PHE E   4      -0.530  -6.545 -13.411  1.00 37.64 LIG-0.34  N 
ATOM     14 H    PHE E   4      -0.667  -5.815 -12.977  1.00 37.64 LIG 0.16  HD
ATOM     15 O    LEU E   3       0.776  -8.347 -13.832  1.00 36.99 LIG-0.27  OA
BRANCH 13 16
ATOM     16  CA  PHE E   4      -1.581  -6.846 -14.373  1.00 39.79 LIG 0.19  C 
BRANCH 16 17
ATOM     17  C   PHE E   4      -2.380  -8.069 -13.892  1.00 40.57 LIG 0.20  C 
ATOM     18 OXT  PHE E   4      -1.837  -9.162 -13.782  1.00 44.77 LIG-0.65  OA
ATOM     19 O    PHE E   4      -3.577  -8.019 -13.582  1.00 38.71 LIG-0.65  OA
ENDBRANCH 16 17
BRANCH 16 20
ATOM     20  CB  PHE E   4      -0.984  -7.117 -15.762  1.00 41.62 LIG 0.07  C 
BRANCH 20 21
ATOM     21  CG  PHE E   4       0.076  -6.131 -16.168  1.00 42.37 LIG-0.06  A 
ATOM     22  CD1 PHE E   4      -0.201  -4.759 -16.198  1.00 43.46 LIG 0.01  A 
ATOM     23  CE1 PHE E   4       0.765  -3.846 -16.584  1.00 44.96 LIG 0.00  A 
ATOM     24  CZ  PHE E   4       2.027  -4.300 -16.951  1.00 45.96 LIG 0.00  A 
ATOM     25  CE2 PHE E   4       2.320  -5.662 -16.921  1.00 43.80 LIG 0.00  A 
ATOM     26  CD2 PHE E   4       1.346  -6.568 -16.531  1.00 42.63 LIG 0.01  A 
ENDBRANCH 20 21
ENDBRANCH 16 20
ENDBRANCH 13 16
ENDBRANCH 11 12
BRANCH 11 27
ATOM     27  CB  LEU E   3       0.831  -5.653 -11.382  1.00 33.50 LIG 0.04  C 
BRANCH 27 28
ATOM     28  CG  LEU E   3       0.271  -5.775  -9.963  1.00 34.48 LIG-0.02  C 
ATOM     29  CD2 LEU E   3      -1.136  -6.345  -9.944  1.00 30.77 LIG 0.01  C 
ATOM     30  CD1 LEU E   3       0.292  -4.405  -9.290  1.00 32.68 LIG 0.01  C 
ENDBRANCH 27 28
ENDBRANCH 11 27
ENDBRANCH 9 11
ENDBRANCH 5 7
ENDBRANCH 3 5
BRANCH 1 31
ATOM     31  CA  LEU E   1       7.727  -3.255 -11.299  1.00 33.78 LIG 0.18  C 
BRANCH 31 32
ATOM     32  CB  LEU E   1       7.406  -1.839 -11.783  1.00 32.47 LIG 0.04  C 
BRANCH 32 33
ATOM     33  CG  LEU E   1       6.470  -1.027 -10.878  1.00 32.32 LIG-0.02  C 
ATOM     34  CD1 LEU E   1       7.275  -0.227  -9.860  1.00 30.19 LIG 0.01  C 
ATOM     35  CD2 LEU E   1       5.543  -0.129 -11.700  1.00 31.57 LIG 0.01  C 
ENDBRANCH 32 33
ENDBRANCH 31 32
BRANCH 31 36
ATOM     36  N   LEU E   1       9.174  -3.474 -11.236  1.00 33.92 LIG-0.35  N 
ATOM     37  C   GLN E   0       9.903  -2.964 -10.246  1.00 32.69 LIG 0.24  C 
ATOM     38 O    GLN E   0       9.437  -2.221  -9.380  1.00 35.54 LIG-0.27  OA
ATOM     39 H    LEU E   1       9.494  -3.948 -11.879  1.00 33.92 LIG 0.16  HD
BRANCH 37 40
ATOM     40  CA  GLN E   0      11.371  -3.341 -10.223  1.00 31.66 LIG 0.18  C 
BRANCH 40 41
ATOM     41  N   GLN E   0      12.157  -2.330  -9.449  1.00 30.66 LIG-0.35  N 
ATOM     42  C   ACE E  -1      13.353  -1.869  -9.829  1.00 29.47 LIG 0.21  C 
ATOM     43 O    ACE E  -1      13.785  -1.914 -10.973  1.00 28.51 LIG-0.27  OA
ATOM     44  CH3 ACE E  -1      14.168  -1.202  -8.748  1.00 29.76 LIG 0.12  C 
ATOM     45 H    GLN E   0      11.764  -2.071  -8.730  1.00 30.66 LIG 0.16  HD
ENDBRANCH 40 41
BRANCH 40 46
ATOM     46  CB  GLN E   0      11.543  -4.743  -9.614  1.00 31.02 LIG 0.04  C 
BRANCH 46 47
ATOM     47  CG  GLN E   0      11.292  -5.906 -10.576  1.00 30.22 LIG 0.10  C 
BRANCH 47 48
ATOM     48  CD  GLN E   0      10.075  -6.741 -10.201  1.00 30.34 LIG 0.21  C 
ATOM     49 OE1  GLN E   0      10.166  -7.683  -9.402  1.00 29.98 LIG-0.27  OA
ATOM     50  NE2 GLN E   0       8.930  -6.401 -10.775  1.00 28.66 LIG-0.37  N 
ATOM     51 21HE GLN E   0       8.904  -5.741 -11.325  1.00 28.66 LIG 0.16  HD
ATOM     52 22HE GLN E   0       8.212  -6.841 -10.597  1.00 28.66 LIG 0.16  HD
ENDBRANCH 47 48
ENDBRANCH 46 47
ENDBRANCH 40 46
ENDBRANCH 37 40
ENDBRANCH 31 36
ENDBRANCH 1 31
TORSDOF 19
ENDMDL
MODEL 21
USER: ADFR SOLUTION from run 30
USER: SCORE 16.606337 LL:  -4.243 LR: -13.860 RR:   0.000 FEB:  -8.192
USER: RMSD 10.498845
USER: SEED 29
USER: STATUS searching
USER: GENES 21
USER: genes 0 Translation |==|  0.60215 0.52098 0.52821
USER: genes 1 Rotation |==|  0.41185 0.96446 0.35148 0.56673
USER: genes 2 Torsion [C]-N--CA-[CB] |==|  0.18888
USER: genes 3 Torsion [N]-CA--C-[N] |==|  0.15362
USER: genes 4 Torsion [C]-N--CA-[CB] |==|  0.54017
USER: genes 5 Torsion [N]-CA--C-[N] |==|  0.75466
USER: genes 6 Torsion [C]-N--CA-[C] |==|  0.11586
USER: genes 7 Torsion [N]-CA--C-[OXT] |==|  0.13112
USER: genes 8 Torsion [N]-CA--CB-[CG] |==|  0.82935
USER: genes 9 Torsion [CA]-CB--CG-[CD1] |==|  0.76490
USER: genes 10 Torsion [N]-CA--CB-[CG] |==|  0.45078
USER: genes 11 Torsion [CA]-CB--CG-[CD2] |==|  0.49594
USER: genes 12 Torsion [N]-C--CA-[N] |==|  0.44444
USER: genes 13 Torsion [C]-CA--CB-[CG] |==|  0.59705
USER: genes 14 Torsion [CA]-CB--CG-[CD1] |==|  0.45346
USER: genes 15 Torsion [C]-CA--N-[C] |==|  0.80550
USER: genes 16 Torsion [N]-C--CA-[N] |==|  0.93449
USER: genes 17 Torsion [C]-CA--N-[C] |==|  0.81315
USER: genes 18 Torsion [C]-CA--CB-[CG] |==|  0.89776
USER: genes 19 Torsion [CA]-CB--CG-[CD] |==|  0.27467
USER: genes 20 Torsion [CB]-CG--CD-[OE1] |==|  0.09252
ROOT
ATOM      1  C   LEU E   1       6.273  -4.673 -12.359  1.00 34.74 LIG 0.24  C 
ATOM      2 O    LEU E   1       6.473  -4.648 -13.570  1.00 33.94 LIG-0.27  OA
ATOM      3  N   ALA E   2       5.284  -5.366 -11.799  1.00 36.28 LIG-0.35  N 
ATOM      4 H    ALA E   2       5.150  -5.400 -10.950  1.00 36.28 LIG 0.16  HD
ENDROOT
BRANCH 3 5
ATOM      5  CA  ALA E   2       4.322  -6.142 -12.585  1.00 35.94 LIG 0.17  C 
ATOM      6  CB  ALA E   2       5.009  -7.334 -13.239  1.00 33.95 LIG 0.04  C 
BRANCH 5 7
ATOM      7  C   ALA E   2       3.174  -6.605 -11.691  1.00 35.46 LIG 0.24  C 
ATOM      8 O    ALA E   2       2.902  -7.804 -11.608  1.00 34.79 LIG-0.27  OA
ATOM      9  N   LEU E   3       2.518  -5.657 -11.015  1.00 35.08 LIG-0.35  N 
ATOM     10 H    LEU E   3       2.765  -4.834 -10.986  1.00 35.08 LIG 0.16  HD
BRANCH 9 11
ATOM     11  CA  LEU E   3       1.292  -5.947 -10.245  1.00 35.40 LIG 0.18  C 
BRANCH 11 12
ATOM     12  C   LEU E   3       0.329  -6.853 -11.011  1.00 36.56 LIG 0.24  C 
ATOM     13  N   PHE E   4      -0.539  -6.225 -11.804  1.00 37.64 LIG-0.34  N 
ATOM     14 H    PHE E   4      -0.535  -5.371 -11.911  1.00 37.64 LIG 0.16  HD
ATOM     15 O    LEU E   3       0.361  -8.075 -10.858  1.00 36.99 LIG-0.27  OA
BRANCH 13 16
ATOM     16  CA  PHE E   4      -1.580  -6.894 -12.572  1.00 39.79 LIG 0.19  C 
BRANCH 16 17
ATOM     17  C   PHE E   4      -2.229  -7.989 -11.710  1.00 40.57 LIG 0.20  C 
ATOM     18 OXT  PHE E   4      -2.575  -7.750 -10.559  1.00 44.77 LIG-0.65  OA
ATOM     19 O    PHE E   4      -2.449  -9.136 -12.121  1.00 38.71 LIG-0.65  OA
ENDBRANCH 16 17
BRANCH 16 20
ATOM     20  CB  PHE E   4      -0.998  -7.507 -13.855  1.00 41.62 LIG 0.07  C 
BRANCH 20 21
ATOM     21  CG  PHE E   4      -0.396  -6.495 -14.791  1.00 42.37 LIG-0.06  A 
ATOM     22  CD1 PHE E   4      -1.200  -5.804 -15.705  1.00 43.46 LIG 0.01  A 
ATOM     23  CE1 PHE E   4      -0.651  -4.881 -16.579  1.00 44.96 LIG 0.00  A 
ATOM     24  CZ  PHE E   4       0.718  -4.642 -16.550  1.00 45.96 LIG 0.00  A 
ATOM     25  CE2 PHE E   4       1.531  -5.319 -15.643  1.00 43.80 LIG 0.00  A 
ATOM     26  CD2 PHE E   4       0.971  -6.240 -14.770  1.00 42.63 LIG 0.01  A 
ENDBRANCH 20 21
ENDBRANCH 16 20
ENDBRANCH 13 16
ENDBRANCH 11 12
BRANCH 11 27
ATOM     27  CB  LEU E   3       0.548  -4.660  -9.867  1.00 33.50 LIG 0.04  C 
BRANCH 27 28
ATOM     28  CG  LEU E   3      -0.919  -4.670  -9.431  1.00 34.48 LIG-0.02  C 
ATOM     29  CD2 LEU E   3      -1.426  -3.284  -9.075  1.00 30.77 LIG 0.01  C 
ATOM     30  CD1 LEU E   3      -1.089  -5.614  -8.244  1.00 32.68 LIG 0.01  C 
ENDBRANCH 27 28
ENDBRANCH 11 27
ENDBRANCH 9 11
ENDBRANCH 5 7
ENDBRANCH 3 5
BRANCH 1 31
ATOM     31  CA  LEU E   1       7.183  -3.902 -11.406  1.00 33.78 LIG 0.18  C 
BRANCH 31 32
ATOM     32  CB  LEU E   1       6.488  -2.636 -10.901  1.00 32.47 LIG 0.04  C 
BRANCH 32 33
ATOM     33  CG  LEU E   1       7.402  -1.424 -10.678  1.00 32.32 LIG-0.02  C 
ATOM     34  CD1 LEU E   1       6.578  -0.145 -10.583  1.00 30.19 LIG 0.01  C 
ATOM     35  CD2 LEU E   1       8.293  -1.617  -9.449  1.00 31.57 LIG 0.01  C 
ENDBRANCH 32 33
ENDBRANCH 31 32
BRANCH 31 36
ATOM     36  N   LEU E   1       8.465  -3.581 -12.039  1.00 33.92 LIG-0.35  N 
ATOM     37  C   GLN E   0       9.357  -4.533 -12.305  1.00 32.69 LIG 0.24  C 
ATOM     38 O    GLN E   0       9.205  -5.711 -11.970  1.00 35.54 LIG-0.27  OA
ATOM     39 H    LEU E   1       8.580  -2.747 -12.216  1.00 33.92 LIG 0.16  HD
BRANCH 37 40
ATOM     40  CA  GLN E   0      10.601  -4.104 -13.055  1.00 31.66 LIG 0.18  C 
BRANCH 40 41
ATOM     41  N   GLN E   0      10.336  -2.853 -13.832  1.00 30.66 LIG-0.35  N 
ATOM     42  C   ACE E  -1       9.508  -2.790 -14.880  1.00 29.47 LIG 0.21  C 
ATOM     43 O    ACE E  -1       8.617  -3.595 -15.112  1.00 28.51 LIG-0.27  OA
ATOM     44  CH3 ACE E  -1       9.686  -1.592 -15.780  1.00 29.76 LIG 0.12  C 
ATOM     45 H    GLN E   0      10.770  -2.171 -13.539  1.00 30.66 LIG 0.16  HD
ENDBRANCH 40 41
BRANCH 40 46
ATOM     46  CB  GLN E   0      11.763  -3.894 -12.070  1.00 31.02 LIG 0.04  C 
BRANCH 46 47
ATOM     47  CG  GLN E   0      11.371  -3.290 -10.721  1.00 30.22 LIG 0.10  C 
BRANCH 47 48
ATOM     48  CD  GLN E   0      11.221  -4.330  -9.619  1.00 30.34 LIG 0.21  C 
ATOM     49 OE1  GLN E   0      11.930  -5.345  -9.595  1.00 29.98 LIG-0.27  OA
ATOM     50  NE2 GLN E   0      10.298  -4.084  -8.700  1.00 28.66 LIG-0.37  N 
ATOM     51 21HE GLN E   0       9.824  -3.368  -8.748  1.00 28.66 LIG 0.16  HD
ATOM     52 22HE GLN E   0      10.173  -4.640  -8.055  1.00 28.66 LIG 0.16  HD
ENDBRANCH 47 48
ENDBRANCH 46 47
ENDBRANCH 40 46
ENDBRANCH 37 40
ENDBRANCH 31 36
ENDBRANCH 1 31
TORSDOF 19
ENDMDL
MODEL 22
USER: ADFR SOLUTION from run 81
USER: SCORE 16.447991 LL:  -3.952 LR: -13.846 RR:   0.000 FEB:  -8.178
USER: RMSD 3.809505
USER: SEED 80
USER: STATUS searching
USER: GENES 21
USER: genes 0 Translation |==|  0.46962 0.40220 0.54615
USER: genes 1 Rotation |==|  0.94280 0.47861 0.50089 0.73123
USER: genes 2 Torsion [C]-N--CA-[CB] |==|  0.17348
USER: genes 3 Torsion [N]-CA--C-[N] |==|  0.11625
USER: genes 4 Torsion [C]-N--CA-[CB] |==|  0.53494
USER: genes 5 Torsion [N]-CA--C-[N] |==|  0.91961
USER: genes 6 Torsion [C]-N--CA-[C] |==|  0.53359
USER: genes 7 Torsion [N]-CA--C-[OXT] |==|  0.41623
USER: genes 8 Torsion [N]-CA--CB-[CG] |==|  0.52378
USER: genes 9 Torsion [CA]-CB--CG-[CD1] |==|  0.14117
USER: genes 10 Torsion [N]-CA--CB-[CG] |==|  0.74530
USER: genes 11 Torsion [CA]-CB--CG-[CD2] |==|  0.99449
USER: genes 12 Torsion [N]-C--CA-[N] |==|  0.36166
USER: genes 13 Torsion [C]-CA--CB-[CG] |==|  0.52925
USER: genes 14 Torsion [CA]-CB--CG-[CD1] |==|  0.32576
USER: genes 15 Torsion [C]-CA--N-[C] |==|  0.84270
USER: genes 16 Torsion [N]-C--CA-[N] |==|  0.43883
USER: genes 17 Torsion [C]-CA--N-[C] |==|  0.77793
USER: genes 18 Torsion [C]-CA--CB-[CG] |==|  0.24499
USER: genes 19 Torsion [CA]-CB--CG-[CD] |==|  0.10620
USER: genes 20 Torsion [CB]-CG--CD-[OE1] |==|  0.18004
ROOT
ATOM      1  C   LEU E   1       2.893  -6.633 -12.063  1.00 34.74 LIG 0.24  C 
ATOM      2 O    LEU E   1       2.786  -7.855 -12.075  1.00 33.94 LIG-0.27  OA
ATOM      3  N   ALA E   2       4.047  -6.001 -12.270  1.00 36.28 LIG-0.35  N 
ATOM      4 H    ALA E   2       4.124  -5.145 -12.280  1.00 36.28 LIG 0.16  HD
ENDROOT
BRANCH 3 5
ATOM      5  CA  ALA E   2       5.305  -6.715 -12.502  1.00 35.94 LIG 0.17  C 
ATOM      6  CB  ALA E   2       5.217  -7.545 -13.777  1.00 33.95 LIG 0.04  C 
BRANCH 5 7
ATOM      7  C   ALA E   2       6.459  -5.720 -12.586  1.00 35.46 LIG 0.24  C 
ATOM      8 O    ALA E   2       7.328  -5.854 -13.449  1.00 34.79 LIG-0.27  OA
ATOM      9  N   LEU E   3       6.456  -4.719 -11.700  1.00 35.08 LIG-0.35  N 
ATOM     10 H    LEU E   3       5.803  -4.559 -11.163  1.00 35.08 LIG 0.16  HD
BRANCH 9 11
ATOM     11  CA  LEU E   3       7.592  -3.785 -11.566  1.00 35.40 LIG 0.18  C 
BRANCH 11 12
ATOM     12  C   LEU E   3       8.936  -4.509 -11.541  1.00 36.56 LIG 0.24  C 
ATOM     13  N   PHE E   4       8.909  -5.748 -11.048  1.00 37.64 LIG-0.34  N 
ATOM     14 H    PHE E   4       8.181  -6.132 -10.797  1.00 37.64 LIG 0.16  HD
ATOM     15 O    LEU E   3       9.960  -3.946 -11.928  1.00 36.99 LIG-0.27  OA
BRANCH 13 16
ATOM     16  CA  PHE E   4      10.087  -6.588 -10.877  1.00 39.79 LIG 0.19  C 
BRANCH 16 17
ATOM     17  C   PHE E   4       9.649  -8.030 -10.576  1.00 40.57 LIG 0.20  C 
ATOM     18 OXT  PHE E   4      10.344  -8.977 -10.923  1.00 44.77 LIG-0.65  OA
ATOM     19 O    PHE E   4       8.607  -8.310  -9.968  1.00 38.71 LIG-0.65  OA
ENDBRANCH 16 17
BRANCH 16 20
ATOM     20  CB  PHE E   4      10.972  -6.056  -9.739  1.00 41.62 LIG 0.07  C 
BRANCH 20 21
ATOM     21  CG  PHE E   4      12.304  -6.747  -9.635  1.00 42.37 LIG-0.06  A 
ATOM     22  CD1 PHE E   4      13.124  -6.887 -10.761  1.00 43.46 LIG 0.01  A 
ATOM     23  CE1 PHE E   4      14.345  -7.534 -10.676  1.00 44.96 LIG 0.00  A 
ATOM     24  CZ  PHE E   4      14.759  -8.055  -9.456  1.00 45.96 LIG 0.00  A 
ATOM     25  CE2 PHE E   4      13.956  -7.920  -8.325  1.00 43.80 LIG 0.00  A 
ATOM     26  CD2 PHE E   4      12.736  -7.269  -8.420  1.00 42.63 LIG 0.01  A 
ENDBRANCH 20 21
ENDBRANCH 16 20
ENDBRANCH 13 16
ENDBRANCH 11 12
BRANCH 11 27
ATOM     27  CB  LEU E   3       7.474  -2.938 -10.292  1.00 33.50 LIG 0.04  C 
BRANCH 27 28
ATOM     28  CG  LEU E   3       6.783  -1.573 -10.288  1.00 34.48 LIG-0.02  C 
ATOM     29  CD2 LEU E   3       6.296  -1.168 -11.668  1.00 30.77 LIG 0.01  C 
ATOM     30  CD1 LEU E   3       7.742  -0.520  -9.739  1.00 32.68 LIG 0.01  C 
ENDBRANCH 27 28
ENDBRANCH 11 27
ENDBRANCH 9 11
ENDBRANCH 5 7
ENDBRANCH 3 5
BRANCH 1 31
ATOM     31  CA  LEU E   1       1.673  -5.748 -11.821  1.00 33.78 LIG 0.18  C 
BRANCH 31 32
ATOM     32  CB  LEU E   1       1.271  -5.774 -10.345  1.00 32.47 LIG 0.04  C 
BRANCH 32 33
ATOM     33  CG  LEU E   1      -0.082  -5.130 -10.017  1.00 32.32 LIG-0.02  C 
ATOM     34  CD1 LEU E   1      -1.041  -6.169  -9.445  1.00 30.19 LIG 0.01  C 
ATOM     35  CD2 LEU E   1       0.084  -3.934  -9.076  1.00 31.57 LIG 0.01  C 
ENDBRANCH 32 33
ENDBRANCH 31 32
BRANCH 31 36
ATOM     36  N   LEU E   1       0.552  -6.143 -12.678  1.00 33.92 LIG-0.35  N 
ATOM     37  C   GLN E   0       0.681  -6.182 -14.003  1.00 32.69 LIG 0.24  C 
ATOM     38 O    GLN E   0       1.702  -5.819 -14.591  1.00 35.54 LIG-0.27  OA
ATOM     39 H    LEU E   1      -0.171  -6.340 -12.256  1.00 33.92 LIG 0.16  HD
BRANCH 37 40
ATOM     40  CA  GLN E   0      -0.508  -6.706 -14.783  1.00 31.66 LIG 0.18  C 
BRANCH 40 41
ATOM     41  N   GLN E   0      -0.460  -6.216 -16.196  1.00 30.66 LIG-0.35  N 
ATOM     42  C   ACE E  -1      -0.850  -4.994 -16.574  1.00 29.47 LIG 0.21  C 
ATOM     43 O    ACE E  -1      -0.941  -4.031 -15.825  1.00 28.51 LIG-0.27  OA
ATOM     44  CH3 ACE E  -1      -1.131  -4.825 -18.046  1.00 29.76 LIG 0.12  C 
ATOM     45 H    GLN E   0      -0.156  -6.800 -16.749  1.00 30.66 LIG 0.16  HD
ENDBRANCH 40 41
BRANCH 40 46
ATOM     46  CB  GLN E   0      -0.528  -8.243 -14.742  1.00 31.02 LIG 0.04  C 
BRANCH 46 47
ATOM     47  CG  GLN E   0      -1.271  -8.853 -13.553  1.00 30.22 LIG 0.10  C 
BRANCH 47 48
ATOM     48  CD  GLN E   0      -2.532  -8.086 -13.177  1.00 30.34 LIG 0.21  C 
ATOM     49 OE1  GLN E   0      -3.495  -8.017 -13.952  1.00 29.98 LIG-0.27  OA
ATOM     50  NE2 GLN E   0      -2.534  -7.507 -11.985  1.00 28.66 LIG-0.37  N 
ATOM     51 21HE GLN E   0      -1.847  -7.575 -11.472  1.00 28.66 LIG 0.16  HD
ATOM     52 22HE GLN E   0      -3.223  -7.061 -11.724  1.00 28.66 LIG 0.16  HD
ENDBRANCH 47 48
ENDBRANCH 46 47
ENDBRANCH 40 46
ENDBRANCH 37 40
ENDBRANCH 31 36
ENDBRANCH 1 31
TORSDOF 19
ENDMDL
MODEL 23
USER: ADFR SOLUTION from run 44
USER: SCORE 16.941139 LL:  -3.525 LR: -13.822 RR:   0.000 FEB:  -8.154
USER: RMSD 3.476032
USER: SEED 43
USER: STATUS searching
USER: GENES 21
USER: genes 0 Translation |==|  0.46576 0.38356 0.44357
USER: genes 1 Rotation |==|  0.07071 0.48486 0.25138 0.56057
USER: genes 2 Torsion [C]-N--CA-[CB] |==|  0.86105
USER: genes 3 Torsion [N]-CA--C-[N] |==|  0.34097
USER: genes 4 Torsion [C]-N--CA-[CB] |==|  0.53360
USER: genes 5 Torsion [N]-CA--C-[N] |==|  0.45046
USER: genes 6 Torsion [C]-N--CA-[C] |==|  0.84416
USER: genes 7 Torsion [N]-CA--C-[OXT] |==|  0.37973
USER: genes 8 Torsion [N]-CA--CB-[CG] |==|  0.83259
USER: genes 9 Torsion [CA]-CB--CG-[CD1] |==|  0.20260
USER: genes 10 Torsion [N]-CA--CB-[CG] |==|  0.54356
USER: genes 11 Torsion [CA]-CB--CG-[CD2] |==|  0.62597
USER: genes 12 Torsion [N]-C--CA-[N] |==|  0.99628
USER: genes 13 Torsion [C]-CA--CB-[CG] |==|  0.66124
USER: genes 14 Torsion [CA]-CB--CG-[CD1] |==|  0.41834
USER: genes 15 Torsion [C]-CA--N-[C] |==|  0.76863
USER: genes 16 Torsion [N]-C--CA-[N] |==|  0.39502
USER: genes 17 Torsion [C]-CA--N-[C] |==|  0.82915
USER: genes 18 Torsion [C]-CA--CB-[CG] |==|  0.49226
USER: genes 19 Torsion [CA]-CB--CG-[CD] |==|  0.73497
USER: genes 20 Torsion [CB]-CG--CD-[OE1] |==|  0.33810
ROOT
ATOM      1  C   LEU E   1       2.795  -6.940 -13.756  1.00 34.74 LIG 0.24  C 
ATOM      2 O    LEU E   1       3.763  -7.370 -14.376  1.00 33.94 LIG-0.27  OA
ATOM      3  N   ALA E   2       2.866  -6.521 -12.494  1.00 36.28 LIG-0.35  N 
ATOM      4 H    ALA E   2       2.194  -6.203 -12.061  1.00 36.28 LIG 0.16  HD
ENDROOT
BRANCH 3 5
ATOM      5  CA  ALA E   2       4.108  -6.565 -11.719  1.00 35.94 LIG 0.17  C 
ATOM      6  CB  ALA E   2       4.743  -7.947 -11.812  1.00 33.95 LIG 0.04  C 
BRANCH 5 7
ATOM      7  C   ALA E   2       5.072  -5.494 -12.222  1.00 35.46 LIG 0.24  C 
ATOM      8 O    ALA E   2       5.407  -5.473 -13.408  1.00 34.79 LIG-0.27  OA
ATOM      9  N   LEU E   3       5.501  -4.601 -11.325  1.00 35.08 LIG-0.35  N 
ATOM     10 H    LEU E   3       5.195  -4.545 -10.523  1.00 35.08 LIG 0.16  HD
BRANCH 9 11
ATOM     11  CA  LEU E   3       6.556  -3.616 -11.639  1.00 35.40 LIG 0.18  C 
BRANCH 11 12
ATOM     12  C   LEU E   3       7.746  -4.252 -12.354  1.00 36.56 LIG 0.24  C 
ATOM     13  N   PHE E   4       8.552  -3.402 -12.992  1.00 37.64 LIG-0.34  N 
ATOM     14 H    PHE E   4       8.436  -2.550 -12.971  1.00 37.64 LIG 0.16  HD
ATOM     15 O    LEU E   3       7.903  -5.474 -12.347  1.00 36.99 LIG-0.27  OA
BRANCH 13 16
ATOM     16  CA  PHE E   4       9.705  -3.805 -13.785  1.00 39.79 LIG 0.19  C 
BRANCH 16 17
ATOM     17  C   PHE E   4      10.653  -4.650 -12.919  1.00 40.57 LIG 0.20  C 
ATOM     18 OXT  PHE E   4      11.165  -5.668 -13.368  1.00 44.77 LIG-0.65  OA
ATOM     19 O    PHE E   4      10.959  -4.350 -11.757  1.00 38.71 LIG-0.65  OA
ENDBRANCH 16 17
BRANCH 16 20
ATOM     20  CB  PHE E   4      10.445  -2.574 -14.331  1.00 41.62 LIG 0.07  C 
BRANCH 20 21
ATOM     21  CG  PHE E   4       9.598  -1.705 -15.221  1.00 42.37 LIG-0.06  A 
ATOM     22  CD1 PHE E   4       8.586  -0.904 -14.679  1.00 43.46 LIG 0.01  A 
ATOM     23  CE1 PHE E   4       7.794  -0.112 -15.493  1.00 44.96 LIG 0.00  A 
ATOM     24  CZ  PHE E   4       8.004  -0.118 -16.867  1.00 45.96 LIG 0.00  A 
ATOM     25  CE2 PHE E   4       9.011  -0.908 -17.421  1.00 43.80 LIG 0.00  A 
ATOM     26  CD2 PHE E   4       9.800  -1.695 -16.597  1.00 42.63 LIG 0.01  A 
ENDBRANCH 20 21
ENDBRANCH 16 20
ENDBRANCH 13 16
ENDBRANCH 11 12
BRANCH 11 27
ATOM     27  CB  LEU E   3       7.068  -2.919 -10.372  1.00 33.50 LIG 0.04  C 
BRANCH 27 28
ATOM     28  CG  LEU E   3       7.890  -1.629 -10.434  1.00 34.48 LIG-0.02  C 
ATOM     29  CD2 LEU E   3       9.098  -1.670  -9.516  1.00 30.77 LIG 0.01  C 
ATOM     30  CD1 LEU E   3       6.998  -0.443 -10.077  1.00 32.68 LIG 0.01  C 
ENDBRANCH 27 28
ENDBRANCH 11 27
ENDBRANCH 9 11
ENDBRANCH 5 7
ENDBRANCH 3 5
BRANCH 1 31
ATOM     31  CA  LEU E   1       1.425  -6.845 -14.423  1.00 33.78 LIG 0.18  C 
BRANCH 31 32
ATOM     32  CB  LEU E   1       1.500  -5.994 -15.692  1.00 32.47 LIG 0.04  C 
BRANCH 32 33
ATOM     33  CG  LEU E   1       0.576  -4.769 -15.723  1.00 32.32 LIG-0.02  C 
ATOM     34  CD1 LEU E   1       1.187  -3.662 -16.575  1.00 30.19 LIG 0.01  C 
ATOM     35  CD2 LEU E   1      -0.828  -5.144 -16.202  1.00 31.57 LIG 0.01  C 
ENDBRANCH 32 33
ENDBRANCH 31 32
BRANCH 31 36
ATOM     36  N   LEU E   1       0.419  -6.320 -13.497  1.00 33.92 LIG-0.35  N 
ATOM     37  C   GLN E   0      -0.199  -7.119 -12.629  1.00 32.69 LIG 0.24  C 
ATOM     38 O    GLN E   0      -0.031  -8.340 -12.601  1.00 35.54 LIG-0.27  OA
ATOM     39 H    LEU E   1       0.271  -5.475 -13.567  1.00 33.92 LIG 0.16  HD
BRANCH 37 40
ATOM     40  CA  GLN E   0      -1.143  -6.452 -11.649  1.00 31.66 LIG 0.18  C 
BRANCH 40 41
ATOM     41  N   GLN E   0      -2.346  -7.311 -11.417  1.00 30.66 LIG-0.35  N 
ATOM     42  C   ACE E  -1      -3.208  -7.659 -12.378  1.00 29.47 LIG 0.21  C 
ATOM     43 O    ACE E  -1      -2.958  -7.644 -13.575  1.00 28.51 LIG-0.27  OA
ATOM     44  CH3 ACE E  -1      -4.552  -8.152 -11.901  1.00 29.76 LIG 0.12  C 
ATOM     45 H    GLN E   0      -2.432  -7.564 -10.599  1.00 30.66 LIG 0.16  HD
ENDBRANCH 40 41
BRANCH 40 46
ATOM     46  CB  GLN E   0      -0.413  -6.173 -10.324  1.00 31.02 LIG 0.04  C 
BRANCH 46 47
ATOM     47  CG  GLN E   0      -1.239  -5.439  -9.268  1.00 30.22 LIG 0.10  C 
BRANCH 47 48
ATOM     48  CD  GLN E   0      -1.017  -3.932  -9.273  1.00 30.34 LIG 0.21  C 
ATOM     49 OE1  GLN E   0      -1.957  -3.146  -9.449  1.00 29.98 LIG-0.27  OA
ATOM     50  NE2 GLN E   0       0.229  -3.521  -9.079  1.00 28.66 LIG-0.37  N 
ATOM     51 21HE GLN E   0       0.857  -4.096  -8.960  1.00 28.66 LIG 0.16  HD
ATOM     52 22HE GLN E   0       0.408  -2.680  -9.073  1.00 28.66 LIG 0.16  HD
ENDBRANCH 47 48
ENDBRANCH 46 47
ENDBRANCH 40 46
ENDBRANCH 37 40
ENDBRANCH 31 36
ENDBRANCH 1 31
TORSDOF 19
ENDMDL
MODEL 24
USER: ADFR SOLUTION from run 38
USER: SCORE 16.491742 LL:  -4.303 LR: -13.825 RR:   0.000 FEB:  -8.157
USER: RMSD 11.495061
USER: SEED 37
USER: STATUS searching
USER: GENES 21
USER: genes 0 Translation |==|  0.60968 0.51777 0.52422
USER: genes 1 Rotation |==|  0.42326 0.95349 0.30782 0.53910
USER: genes 2 Torsion [C]-N--CA-[CB] |==|  0.22970
USER: genes 3 Torsion [N]-CA--C-[N] |==|  0.53419
USER: genes 4 Torsion [C]-N--CA-[CB] |==|  0.15931
USER: genes 5 Torsion [N]-CA--C-[N] |==|  0.64444
USER: genes 6 Torsion [C]-N--CA-[C] |==|  0.67005
USER: genes 7 Torsion [N]-CA--C-[OXT] |==|  0.08192
USER: genes 8 Torsion [N]-CA--CB-[CG] |==|  0.90060
USER: genes 9 Torsion [CA]-CB--CG-[CD1] |==|  0.34556
USER: genes 10 Torsion [N]-CA--CB-[CG] |==|  0.66973
USER: genes 11 Torsion [CA]-CB--CG-[CD2] |==|  0.90823
USER: genes 12 Torsion [N]-C--CA-[N] |==|  0.45100
USER: genes 13 Torsion [C]-CA--CB-[CG] |==|  0.38205
USER: genes 14 Torsion [CA]-CB--CG-[CD1] |==|  0.09798
USER: genes 15 Torsion [C]-CA--N-[C] |==|  0.71692
USER: genes 16 Torsion [N]-C--CA-[N] |==|  0.04433
USER: genes 17 Torsion [C]-CA--N-[C] |==|  0.73092
USER: genes 18 Torsion [C]-CA--CB-[CG] |==|  0.43649
USER: genes 19 Torsion [CA]-CB--CG-[CD] |==|  0.33755
USER: genes 20 Torsion [CB]-CG--CD-[OE1] |==|  0.38783
ROOT
ATOM      1  C   LEU E   1       6.465  -4.726 -12.425  1.00 34.74 LIG 0.24  C 
ATOM      2 O    LEU E   1       6.592  -4.945 -13.626  1.00 33.94 LIG-0.27  OA
ATOM      3  N   ALA E   2       5.456  -5.206 -11.700  1.00 36.28 LIG-0.35  N 
ATOM      4 H    ALA E   2       5.372  -5.069 -10.855  1.00 36.28 LIG 0.16  HD
ENDROOT
BRANCH 3 5
ATOM      5  CA  ALA E   2       4.386  -6.018 -12.282  1.00 35.94 LIG 0.17  C 
ATOM      6  CB  ALA E   2       4.824  -7.473 -12.393  1.00 33.95 LIG 0.04  C 
BRANCH 5 7
ATOM      7  C   ALA E   2       3.123  -5.899 -11.433  1.00 35.46 LIG 0.24  C 
ATOM      8 O    ALA E   2       3.038  -5.019 -10.574  1.00 34.79 LIG-0.27  OA
ATOM      9  N   LEU E   3       2.143  -6.772 -11.686  1.00 35.08 LIG-0.35  N 
ATOM     10 H    LEU E   3       2.151  -7.320 -12.348  1.00 35.08 LIG 0.16  HD
BRANCH 9 11
ATOM     11  CA  LEU E   3       0.940  -6.871 -10.835  1.00 35.40 LIG 0.18  C 
BRANCH 11 12
ATOM     12  C   LEU E   3      -0.041  -7.926 -11.341  1.00 36.56 LIG 0.24  C 
ATOM     13  N   PHE E   4      -1.298  -7.509 -11.501  1.00 37.64 LIG-0.34  N 
ATOM     14 H    PHE E   4      -1.536  -6.694 -11.368  1.00 37.64 LIG 0.16  HD
ATOM     15 O    LEU E   3       0.331  -9.082 -11.546  1.00 36.99 LIG-0.27  OA
BRANCH 13 16
ATOM     16  CA  PHE E   4      -2.400  -8.368 -11.913  1.00 39.79 LIG 0.19  C 
BRANCH 16 17
ATOM     17  C   PHE E   4      -2.978  -7.856 -13.242  1.00 40.57 LIG 0.20  C 
ATOM     18 OXT  PHE E   4      -2.265  -7.269 -14.046  1.00 44.77 LIG-0.65  OA
ATOM     19 O    PHE E   4      -4.160  -8.019 -13.576  1.00 38.71 LIG-0.65  OA
ENDBRANCH 16 17
BRANCH 16 20
ATOM     20  CB  PHE E   4      -3.495  -8.399 -10.837  1.00 41.62 LIG 0.07  C 
BRANCH 20 21
ATOM     21  CG  PHE E   4      -2.964  -8.346  -9.431  1.00 42.37 LIG-0.06  A 
ATOM     22  CD1 PHE E   4      -3.396  -7.352  -8.543  1.00 43.46 LIG 0.01  A 
ATOM     23  CE1 PHE E   4      -2.901  -7.288  -7.252  1.00 44.96 LIG 0.00  A 
ATOM     24  CZ  PHE E   4      -1.958  -8.220  -6.834  1.00 45.96 LIG 0.00  A 
ATOM     25  CE2 PHE E   4      -1.521  -9.217  -7.704  1.00 43.80 LIG 0.00  A 
ATOM     26  CD2 PHE E   4      -2.025  -9.274  -8.994  1.00 42.63 LIG 0.01  A 
ENDBRANCH 20 21
ENDBRANCH 16 20
ENDBRANCH 13 16
ENDBRANCH 11 12
BRANCH 11 27
ATOM     27  CB  LEU E   3       0.203  -5.528 -10.745  1.00 33.50 LIG 0.04  C 
BRANCH 27 28
ATOM     28  CG  LEU E   3       0.005  -4.800  -9.414  1.00 34.48 LIG-0.02  C 
ATOM     29  CD2 LEU E   3      -0.161  -5.761  -8.250  1.00 30.77 LIG 0.01  C 
ATOM     30  CD1 LEU E   3      -1.209  -3.881  -9.515  1.00 32.68 LIG 0.01  C 
ENDBRANCH 27 28
ENDBRANCH 11 27
ENDBRANCH 9 11
ENDBRANCH 5 7
ENDBRANCH 3 5
BRANCH 1 31
ATOM     31  CA  LEU E   1       7.494  -3.882 -11.677  1.00 33.78 LIG 0.18  C 
BRANCH 31 32
ATOM     32  CB  LEU E   1       6.920  -2.505 -11.339  1.00 32.47 LIG 0.04  C 
BRANCH 32 33
ATOM     33  CG  LEU E   1       7.233  -1.985  -9.930  1.00 32.32 LIG-0.02  C 
ATOM     34  CD1 LEU E   1       8.627  -2.424  -9.497  1.00 30.19 LIG 0.01  C 
ATOM     35  CD2 LEU E   1       7.066  -0.466  -9.847  1.00 31.57 LIG 0.01  C 
ENDBRANCH 32 33
ENDBRANCH 31 32
BRANCH 31 36
ATOM     36  N   LEU E   1       8.738  -3.762 -12.440  1.00 33.92 LIG-0.35  N 
ATOM     37  C   GLN E   0       9.807  -4.492 -12.130  1.00 32.69 LIG 0.24  C 
ATOM     38 O    GLN E   0       9.850  -5.244 -11.153  1.00 35.54 LIG-0.27  OA
ATOM     39 H    LEU E   1       8.711  -3.192 -13.084  1.00 33.92 LIG 0.16  HD
BRANCH 37 40
ATOM     40  CA  GLN E   0      11.004  -4.364 -13.051  1.00 31.66 LIG 0.18  C 
BRANCH 40 41
ATOM     41  N   GLN E   0      10.873  -3.147 -13.911  1.00 30.66 LIG-0.35  N 
ATOM     42  C   ACE E  -1      10.399  -3.166 -15.161  1.00 29.47 LIG 0.21  C 
ATOM     43 O    ACE E  -1       9.699  -4.055 -15.626  1.00 28.51 LIG-0.27  OA
ATOM     44  CH3 ACE E  -1      10.730  -1.958 -16.002  1.00 29.76 LIG 0.12  C 
ATOM     45 H    GLN E   0      11.133  -2.425 -13.522  1.00 30.66 LIG 0.16  HD
ENDBRANCH 40 41
BRANCH 40 46
ATOM     46  CB  GLN E   0      12.300  -4.306 -12.224  1.00 31.02 LIG 0.04  C 
BRANCH 46 47
ATOM     47  CG  GLN E   0      13.568  -4.720 -12.971  1.00 30.22 LIG 0.10  C 
BRANCH 47 48
ATOM     48  CD  GLN E   0      14.628  -3.628 -13.002  1.00 30.34 LIG 0.21  C 
ATOM     49 OE1  GLN E   0      15.828  -3.894 -12.852  1.00 29.98 LIG-0.27  OA
ATOM     50  NE2 GLN E   0      14.192  -2.391 -13.198  1.00 28.66 LIG-0.37  N 
ATOM     51 21HE GLN E   0      13.351  -2.243 -13.299  1.00 28.66 LIG 0.16  HD
ATOM     52 22HE GLN E   0      14.751  -1.737 -13.225  1.00 28.66 LIG 0.16  HD
ENDBRANCH 47 48
ENDBRANCH 46 47
ENDBRANCH 40 46
ENDBRANCH 37 40
ENDBRANCH 31 36
ENDBRANCH 1 31
TORSDOF 19
ENDMDL
MODEL 25
USER: ADFR SOLUTION from run 143
USER: SCORE 16.295673 LL:  -3.972 LR: -13.723 RR:   0.000 FEB:  -8.055
USER: RMSD 10.791500
USER: SEED 142
USER: STATUS searching
USER: GENES 21
USER: genes 0 Translation |==|  0.61262 0.51614 0.53334
USER: genes 1 Rotation |==|  0.43190 0.94952 0.31274 0.59070
USER: genes 2 Torsion [C]-N--CA-[CB] |==|  0.16530
USER: genes 3 Torsion [N]-CA--C-[N] |==|  0.14190
USER: genes 4 Torsion [C]-N--CA-[CB] |==|  0.54455
USER: genes 5 Torsion [N]-CA--C-[N] |==|  0.74538
USER: genes 6 Torsion [C]-N--CA-[C] |==|  0.11042
USER: genes 7 Torsion [N]-CA--C-[OXT] |==|  0.15154
USER: genes 8 Torsion [N]-CA--CB-[CG] |==|  0.81673
USER: genes 9 Torsion [CA]-CB--CG-[CD1] |==|  0.25416
USER: genes 10 Torsion [N]-CA--CB-[CG] |==|  0.47137
USER: genes 11 Torsion [CA]-CB--CG-[CD2] |==|  0.47384
USER: genes 12 Torsion [N]-C--CA-[N] |==|  0.37644
USER: genes 13 Torsion [C]-CA--CB-[CG] |==|  0.37360
USER: genes 14 Torsion [CA]-CB--CG-[CD1] |==|  0.20140
USER: genes 15 Torsion [C]-CA--N-[C] |==|  0.84444
USER: genes 16 Torsion [N]-C--CA-[N] |==|  0.10776
USER: genes 17 Torsion [C]-CA--N-[C] |==|  0.14345
USER: genes 18 Torsion [C]-CA--CB-[CG] |==|  0.55587
USER: genes 19 Torsion [CA]-CB--CG-[CD] |==|  0.37986
USER: genes 20 Torsion [CB]-CG--CD-[OE1] |==|  0.33473
ROOT
ATOM      1  C   LEU E   1       6.540  -4.753 -12.275  1.00 34.74 LIG 0.24  C 
ATOM      2 O    LEU E   1       6.913  -4.904 -13.434  1.00 33.94 LIG-0.27  OA
ATOM      3  N   ALA E   2       5.437  -5.316 -11.785  1.00 36.28 LIG-0.35  N 
ATOM      4 H    ALA E   2       5.181  -5.226 -10.969  1.00 36.28 LIG 0.16  HD
ENDROOT
BRANCH 3 5
ATOM      5  CA  ALA E   2       4.549  -6.147 -12.601  1.00 35.94 LIG 0.17  C 
ATOM      6  CB  ALA E   2       5.307  -7.346 -13.158  1.00 33.95 LIG 0.04  C 
BRANCH 5 7
ATOM      7  C   ALA E   2       3.355  -6.605 -11.767  1.00 35.46 LIG 0.24  C 
ATOM      8 O    ALA E   2       3.060  -7.800 -11.716  1.00 34.79 LIG-0.27  OA
ATOM      9  N   LEU E   3       2.685  -5.656 -11.105  1.00 35.08 LIG-0.35  N 
ATOM     10 H    LEU E   3       2.943  -4.838 -11.052  1.00 35.08 LIG 0.16  HD
BRANCH 9 11
ATOM     11  CA  LEU E   3       1.420  -5.938 -10.396  1.00 35.40 LIG 0.18  C 
BRANCH 11 12
ATOM     12  C   LEU E   3       0.495  -6.846 -11.203  1.00 36.56 LIG 0.24  C 
ATOM     13  N   PHE E   4      -0.378  -6.219 -11.992  1.00 37.64 LIG-0.34  N 
ATOM     14 H    PHE E   4      -0.396  -5.363 -12.075  1.00 37.64 LIG 0.16  HD
ATOM     15 O    LEU E   3       0.557  -8.071 -11.084  1.00 36.99 LIG-0.27  OA
BRANCH 13 16
ATOM     16  CA  PHE E   4      -1.389  -6.894 -12.796  1.00 39.79 LIG 0.19  C 
BRANCH 16 17
ATOM     17  C   PHE E   4      -1.986  -8.061 -11.993  1.00 40.57 LIG 0.20  C 
ATOM     18 OXT  PHE E   4      -2.463  -7.870 -10.881  1.00 44.77 LIG-0.65  OA
ATOM     19 O    PHE E   4      -2.033  -9.223 -12.417  1.00 38.71 LIG-0.65  OA
ENDBRANCH 16 17
BRANCH 16 20
ATOM     20  CB  PHE E   4      -0.781  -7.412 -14.108  1.00 41.62 LIG 0.07  C 
BRANCH 20 21
ATOM     21  CG  PHE E   4      -0.325  -6.319 -15.036  1.00 42.37 LIG-0.06  A 
ATOM     22  CD1 PHE E   4       0.991  -5.844 -14.984  1.00 43.46 LIG 0.01  A 
ATOM     23  CE1 PHE E   4       1.415  -4.829 -15.825  1.00 44.96 LIG 0.00  A 
ATOM     24  CZ  PHE E   4       0.518  -4.272 -16.730  1.00 45.96 LIG 0.00  A 
ATOM     25  CE2 PHE E   4      -0.794  -4.738 -16.797  1.00 43.80 LIG 0.00  A 
ATOM     26  CD2 PHE E   4      -1.207  -5.756 -15.952  1.00 42.63 LIG 0.01  A 
ENDBRANCH 20 21
ENDBRANCH 16 20
ENDBRANCH 13 16
ENDBRANCH 11 12
BRANCH 11 27
ATOM     27  CB  LEU E   3       0.662  -4.645 -10.066  1.00 33.50 LIG 0.04  C 
BRANCH 27 28
ATOM     28  CG  LEU E   3      -0.777  -4.661  -9.545  1.00 34.48 LIG-0.02  C 
ATOM     29  CD2 LEU E   3      -1.236  -3.292  -9.075  1.00 30.77 LIG 0.01  C 
ATOM     30  CD1 LEU E   3      -0.893  -5.673  -8.408  1.00 32.68 LIG 0.01  C 
ENDBRANCH 27 28
ENDBRANCH 11 27
ENDBRANCH 9 11
ENDBRANCH 5 7
ENDBRANCH 3 5
BRANCH 1 31
ATOM     31  CA  LEU E   1       7.352  -3.901 -11.303  1.00 33.78 LIG 0.18  C 
BRANCH 31 32
ATOM     32  CB  LEU E   1       7.068  -2.414 -11.520  1.00 32.47 LIG 0.04  C 
BRANCH 32 33
ATOM     33  CG  LEU E   1       6.828  -1.593 -10.246  1.00 32.32 LIG-0.02  C 
ATOM     34  CD1 LEU E   1       8.135  -1.395  -9.486  1.00 30.19 LIG 0.01  C 
ATOM     35  CD2 LEU E   1       6.149  -0.259 -10.563  1.00 31.57 LIG 0.01  C 
ENDBRANCH 32 33
ENDBRANCH 31 32
BRANCH 31 36
ATOM     36  N   LEU E   1       8.785  -4.185 -11.418  1.00 33.92 LIG-0.35  N 
ATOM     37  C   GLN E   0       9.254  -5.422 -11.268  1.00 32.69 LIG 0.24  C 
ATOM     38 O    GLN E   0       8.543  -6.378 -10.950  1.00 35.54 LIG-0.27  OA
ATOM     39 H    LEU E   1       9.275  -3.498 -11.585  1.00 33.92 LIG 0.16  HD
BRANCH 37 40
ATOM     40  CA  GLN E   0      10.737  -5.618 -11.512  1.00 31.66 LIG 0.18  C 
BRANCH 40 41
ATOM     41  N   GLN E   0      11.512  -4.457 -10.973  1.00 30.66 LIG-0.35  N 
ATOM     42  C   ACE E  -1      11.383  -3.991  -9.726  1.00 29.47 LIG 0.21  C 
ATOM     43 O    ACE E  -1      10.925  -4.630  -8.789  1.00 28.51 LIG-0.27  OA
ATOM     44  CH3 ACE E  -1      11.905  -2.594  -9.495  1.00 29.76 LIG 0.12  C 
ATOM     45 H    GLN E   0      12.054  -4.113 -11.545  1.00 30.66 LIG 0.16  HD
ENDBRANCH 40 41
BRANCH 40 46
ATOM     46  CB  GLN E   0      11.207  -6.931 -10.864  1.00 31.02 LIG 0.04  C 
BRANCH 46 47
ATOM     47  CG  GLN E   0      12.712  -7.029 -10.609  1.00 30.22 LIG 0.10  C 
BRANCH 47 48
ATOM     48  CD  GLN E   0      13.051  -7.613  -9.244  1.00 30.34 LIG 0.21  C 
ATOM     49 OE1  GLN E   0      13.725  -8.647  -9.139  1.00 29.98 LIG-0.27  OA
ATOM     50  NE2 GLN E   0      12.587  -6.956  -8.191  1.00 28.66 LIG-0.37  N 
ATOM     51 21HE GLN E   0      12.121  -6.241  -8.301  1.00 28.66 LIG 0.16  HD
ATOM     52 22HE GLN E   0      12.751  -7.243  -7.397  1.00 28.66 LIG 0.16  HD
ENDBRANCH 47 48
ENDBRANCH 46 47
ENDBRANCH 40 46
ENDBRANCH 37 40
ENDBRANCH 31 36
ENDBRANCH 1 31
TORSDOF 19
ENDMDL
MODEL 26
USER: ADFR SOLUTION from run 58
USER: SCORE 14.312524 LL:  -4.248 LR: -13.665 RR:   0.000 FEB:  -7.998
USER: RMSD 3.782083
USER: SEED 57
USER: STATUS no improvement in best in 8 clusters for 5 generations
USER: GENES 21
USER: genes 0 Translation |==|  0.44972 0.44100 0.57828
USER: genes 1 Rotation |==|  0.46454 0.62028 0.43398 0.97950
USER: genes 2 Torsion [C]-N--CA-[CB] |==|  0.49470
USER: genes 3 Torsion [N]-CA--C-[N] |==|  0.26113
USER: genes 4 Torsion [C]-N--CA-[CB] |==|  0.44785
USER: genes 5 Torsion [N]-CA--C-[N] |==|  0.91307
USER: genes 6 Torsion [C]-N--CA-[C] |==|  0.51466
USER: genes 7 Torsion [N]-CA--C-[OXT] |==|  0.70932
USER: genes 8 Torsion [N]-CA--CB-[CG] |==|  0.67761
USER: genes 9 Torsion [CA]-CB--CG-[CD1] |==|  0.56659
USER: genes 10 Torsion [N]-CA--CB-[CG] |==|  0.41860
USER: genes 11 Torsion [CA]-CB--CG-[CD2] |==|  0.70421
USER: genes 12 Torsion [N]-C--CA-[N] |==|  0.89911
USER: genes 13 Torsion [C]-CA--CB-[CG] |==|  0.27624
USER: genes 14 Torsion [CA]-CB--CG-[CD1] |==|  0.00917
USER: genes 15 Torsion [C]-CA--N-[C] |==|  0.22006
USER: genes 16 Torsion [N]-C--CA-[N] |==|  0.64561
USER: genes 17 Torsion [C]-CA--N-[C] |==|  0.15647
USER: genes 18 Torsion [C]-CA--CB-[CG] |==|  0.35317
USER: genes 19 Torsion [CA]-CB--CG-[CD] |==|  0.75894
USER: genes 20 Torsion [CB]-CG--CD-[OE1] |==|  0.06992
ROOT
ATOM      1  C   LEU E   1       2.386  -5.992 -11.533  1.00 34.74 LIG 0.24  C 
ATOM      2 O    LEU E   1       3.009  -5.251 -10.780  1.00 33.94 LIG-0.27  OA
ATOM      3  N   ALA E   2       2.968  -6.929 -12.280  1.00 36.28 LIG-0.35  N 
ATOM      4 H    ALA E   2       2.534  -7.462 -12.797  1.00 36.28 LIG 0.16  HD
ENDROOT
BRANCH 3 5
ATOM      5  CA  ALA E   2       4.417  -7.139 -12.290  1.00 35.94 LIG 0.17  C 
ATOM      6  CB  ALA E   2       4.779  -8.306 -13.200  1.00 33.95 LIG 0.04  C 
BRANCH 5 7
ATOM      7  C   ALA E   2       5.124  -5.864 -12.742  1.00 35.46 LIG 0.24  C 
ATOM      8 O    ALA E   2       5.276  -5.636 -13.944  1.00 34.79 LIG-0.27  OA
ATOM      9  N   LEU E   3       5.537  -5.031 -11.782  1.00 35.08 LIG-0.35  N 
ATOM     10 H    LEU E   3       5.345  -5.131 -10.949  1.00 35.08 LIG 0.16  HD
BRANCH 9 11
ATOM     11  CA  LEU E   3       6.372  -3.849 -12.072  1.00 35.40 LIG 0.18  C 
BRANCH 11 12
ATOM     12  C   LEU E   3       7.832  -4.220 -12.326  1.00 36.56 LIG 0.24  C 
ATOM     13  N   PHE E   4       8.274  -5.289 -11.662  1.00 37.64 LIG-0.34  N 
ATOM     14 H    PHE E   4       7.766  -5.763 -11.155  1.00 37.64 LIG 0.16  HD
ATOM     15 O    LEU E   3       8.532  -3.538 -13.075  1.00 36.99 LIG-0.27  OA
BRANCH 13 16
ATOM     16  CA  PHE E   4       9.646  -5.775 -11.712  1.00 39.79 LIG 0.19  C 
BRANCH 16 17
ATOM     17  C   PHE E   4       9.751  -7.094 -10.930  1.00 40.57 LIG 0.20  C 
ATOM     18 OXT  PHE E   4      10.269  -7.120  -9.820  1.00 44.77 LIG-0.65  OA
ATOM     19 O    PHE E   4       9.315  -8.172 -11.355  1.00 38.71 LIG-0.65  OA
ENDBRANCH 16 17
BRANCH 16 20
ATOM     20  CB  PHE E   4      10.612  -4.734 -11.125  1.00 41.62 LIG 0.07  C 
BRANCH 20 21
ATOM     21  CG  PHE E   4      11.596  -4.190 -12.124  1.00 42.37 LIG-0.06  A 
ATOM     22  CD1 PHE E   4      12.816  -3.649 -11.700  1.00 43.46 LIG 0.01  A 
ATOM     23  CE1 PHE E   4      13.720  -3.133 -12.612  1.00 44.96 LIG 0.00  A 
ATOM     24  CZ  PHE E   4      13.409  -3.149 -13.967  1.00 45.96 LIG 0.00  A 
ATOM     25  CE2 PHE E   4      12.200  -3.687 -14.405  1.00 43.80 LIG 0.00  A 
ATOM     26  CD2 PHE E   4      11.303  -4.203 -13.483  1.00 42.63 LIG 0.01  A 
ENDBRANCH 20 21
ENDBRANCH 16 20
ENDBRANCH 13 16
ENDBRANCH 11 12
BRANCH 11 27
ATOM     27  CB  LEU E   3       6.324  -2.831 -10.925  1.00 33.50 LIG 0.04  C 
BRANCH 27 28
ATOM     28  CG  LEU E   3       7.499  -1.900 -10.619  1.00 34.48 LIG-0.02  C 
ATOM     29  CD2 LEU E   3       8.248  -2.310  -9.363  1.00 30.77 LIG 0.01  C 
ATOM     30  CD1 LEU E   3       6.989  -0.468 -10.484  1.00 32.68 LIG 0.01  C 
ENDBRANCH 27 28
ENDBRANCH 11 27
ENDBRANCH 9 11
ENDBRANCH 5 7
ENDBRANCH 3 5
BRANCH 1 31
ATOM     31  CA  LEU E   1       0.867  -5.887 -11.645  1.00 33.78 LIG 0.18  C 
BRANCH 31 32
ATOM     32  CB  LEU E   1       0.185  -6.834 -10.656  1.00 32.47 LIG 0.04  C 
BRANCH 32 33
ATOM     33  CG  LEU E   1      -0.314  -6.187  -9.357  1.00 32.32 LIG-0.02  C 
ATOM     34  CD1 LEU E   1      -0.077  -4.682  -9.386  1.00 30.19 LIG 0.01  C 
ATOM     35  CD2 LEU E   1      -1.783  -6.525  -9.096  1.00 31.57 LIG 0.01  C 
ENDBRANCH 32 33
ENDBRANCH 31 32
BRANCH 31 36
ATOM     36  N   LEU E   1       0.416  -6.144 -13.015  1.00 33.92 LIG-0.35  N 
ATOM     37  C   GLN E   0       0.314  -7.386 -13.483  1.00 32.69 LIG 0.24  C 
ATOM     38 O    GLN E   0       0.661  -8.379 -12.839  1.00 35.54 LIG-0.27  OA
ATOM     39 H    LEU E   1       0.231  -5.438 -13.471  1.00 33.92 LIG 0.16  HD
BRANCH 37 40
ATOM     40  CA  GLN E   0      -0.263  -7.540 -14.876  1.00 31.66 LIG 0.18  C 
BRANCH 40 41
ATOM     41  N   GLN E   0      -1.393  -8.520 -14.867  1.00 30.66 LIG-0.35  N 
ATOM     42  C   ACE E  -1      -2.473  -8.403 -14.087  1.00 29.47 LIG 0.21  C 
ATOM     43 O    ACE E  -1      -2.852  -7.359 -13.576  1.00 28.51 LIG-0.27  OA
ATOM     44  CH3 ACE E  -1      -3.281  -9.663 -13.900  1.00 29.76 LIG 0.12  C 
ATOM     45 H    GLN E   0      -1.283  -9.172 -15.417  1.00 30.66 LIG 0.16  HD
ENDBRANCH 40 41
BRANCH 40 46
ATOM     46  CB  GLN E   0      -0.733  -6.174 -15.403  1.00 31.02 LIG 0.04  C 
BRANCH 46 47
ATOM     47  CG  GLN E   0      -0.179  -5.778 -16.772  1.00 30.22 LIG 0.10  C 
BRANCH 47 48
ATOM     48  CD  GLN E   0       1.170  -5.076 -16.692  1.00 30.34 LIG 0.21  C 
ATOM     49 OE1  GLN E   0       1.933  -5.258 -15.733  1.00 29.98 LIG-0.27  OA
ATOM     50  NE2 GLN E   0       1.473  -4.269 -17.699  1.00 28.66 LIG-0.37  N 
ATOM     51 21HE GLN E   0       0.920  -4.166 -18.349  1.00 28.66 LIG 0.16  HD
ATOM     52 22HE GLN E   0       2.224  -3.848 -17.703  1.00 28.66 LIG 0.16  HD
ENDBRANCH 47 48
ENDBRANCH 46 47
ENDBRANCH 40 46
ENDBRANCH 37 40
ENDBRANCH 31 36
ENDBRANCH 1 31
TORSDOF 19
ENDMDL
MODEL 27
USER: ADFR SOLUTION from run 148
USER: SCORE 16.067595 LL:  -4.305 LR: -13.659 RR:   0.000 FEB:  -7.992
USER: RMSD 11.360913
USER: SEED 147
USER: STATUS searching
USER: GENES 21
USER: genes 0 Translation |==|  0.60592 0.51375 0.52212
USER: genes 1 Rotation |==|  0.41440 0.96097 0.32826 0.52621
USER: genes 2 Torsion [C]-N--CA-[CB] |==|  0.24949
USER: genes 3 Torsion [N]-CA--C-[N] |==|  0.53740
USER: genes 4 Torsion [C]-N--CA-[CB] |==|  0.16584
USER: genes 5 Torsion [N]-CA--C-[N] |==|  0.66481
USER: genes 6 Torsion [C]-N--CA-[C] |==|  0.63873
USER: genes 7 Torsion [N]-CA--C-[OXT] |==|  0.59186
USER: genes 8 Torsion [N]-CA--CB-[CG] |==|  0.92461
USER: genes 9 Torsion [CA]-CB--CG-[CD1] |==|  0.27582
USER: genes 10 Torsion [N]-CA--CB-[CG] |==|  0.65365
USER: genes 11 Torsion [CA]-CB--CG-[CD2] |==|  0.57982
USER: genes 12 Torsion [N]-C--CA-[N] |==|  0.50512
USER: genes 13 Torsion [C]-CA--CB-[CG] |==|  0.57211
USER: genes 14 Torsion [CA]-CB--CG-[CD1] |==|  0.43522
USER: genes 15 Torsion [C]-CA--N-[C] |==|  0.75684
USER: genes 16 Torsion [N]-C--CA-[N] |==|  0.46667
USER: genes 17 Torsion [C]-CA--N-[C] |==|  0.62542
USER: genes 18 Torsion [C]-CA--CB-[CG] |==|  0.40301
USER: genes 19 Torsion [CA]-CB--CG-[CD] |==|  0.78666
USER: genes 20 Torsion [CB]-CG--CD-[OE1] |==|  0.97359
ROOT
ATOM      1  C   LEU E   1       6.369  -4.792 -12.460  1.00 34.74 LIG 0.24  C 
ATOM      2 O    LEU E   1       6.408  -4.919 -13.680  1.00 33.94 LIG-0.27  OA
ATOM      3  N   ALA E   2       5.423  -5.341 -11.700  1.00 36.28 LIG-0.35  N 
ATOM      4 H    ALA E   2       5.402  -5.269 -10.843  1.00 36.28 LIG 0.16  HD
ENDROOT
BRANCH 3 5
ATOM      5  CA  ALA E   2       4.321  -6.127 -12.260  1.00 35.94 LIG 0.17  C 
ATOM      6  CB  ALA E   2       4.708  -7.598 -12.348  1.00 33.95 LIG 0.04  C 
BRANCH 5 7
ATOM      7  C   ALA E   2       3.070  -5.949 -11.404  1.00 35.46 LIG 0.24  C 
ATOM      8 O    ALA E   2       3.013  -5.039 -10.575  1.00 34.79 LIG-0.27  OA
ATOM      9  N   LEU E   3       2.067  -6.807 -11.618  1.00 35.08 LIG-0.35  N 
ATOM     10 H    LEU E   3       2.057  -7.378 -12.262  1.00 35.08 LIG 0.16  HD
BRANCH 9 11
ATOM     11  CA  LEU E   3       0.871  -6.850 -10.753  1.00 35.40 LIG 0.18  C 
BRANCH 11 12
ATOM     12  C   LEU E   3      -0.113  -7.937 -11.180  1.00 36.56 LIG 0.24  C 
ATOM     13  N   PHE E   4      -1.333  -7.509 -11.506  1.00 37.64 LIG-0.34  N 
ATOM     14 H    PHE E   4      -1.544  -6.675 -11.515  1.00 37.64 LIG 0.16  HD
ATOM     15 O    LEU E   3       0.223  -9.122 -11.181  1.00 36.99 LIG-0.27  OA
BRANCH 13 16
ATOM     16  CA  PHE E   4      -2.436  -8.384 -11.879  1.00 39.79 LIG 0.19  C 
BRANCH 16 17
ATOM     17  C   PHE E   4      -3.068  -7.882 -13.187  1.00 40.57 LIG 0.20  C 
ATOM     18 OXT  PHE E   4      -4.269  -8.015 -13.389  1.00 44.77 LIG-0.65  OA
ATOM     19 O    PHE E   4      -2.423  -7.314 -14.079  1.00 38.71 LIG-0.65  OA
ENDBRANCH 16 17
BRANCH 16 20
ATOM     20  CB  PHE E   4      -3.492  -8.430 -10.765  1.00 41.62 LIG 0.07  C 
BRANCH 20 21
ATOM     21  CG  PHE E   4      -2.937  -8.163  -9.393  1.00 42.37 LIG-0.06  A 
ATOM     22  CD1 PHE E   4      -3.056  -6.894  -8.812  1.00 43.46 LIG 0.01  A 
ATOM     23  CE1 PHE E   4      -2.535  -6.636  -7.555  1.00 44.96 LIG 0.00  A 
ATOM     24  CZ  PHE E   4      -1.882  -7.650  -6.865  1.00 45.96 LIG 0.00  A 
ATOM     25  CE2 PHE E   4      -1.760  -8.919  -7.428  1.00 43.80 LIG 0.00  A 
ATOM     26  CD2 PHE E   4      -2.287  -9.167  -8.686  1.00 42.63 LIG 0.01  A 
ENDBRANCH 20 21
ENDBRANCH 16 20
ENDBRANCH 13 16
ENDBRANCH 11 12
BRANCH 11 27
ATOM     27  CB  LEU E   3       0.134  -5.504 -10.749  1.00 33.50 LIG 0.04  C 
BRANCH 27 28
ATOM     28  CG  LEU E   3      -0.169  -4.751  -9.451  1.00 34.48 LIG-0.02  C 
ATOM     29  CD2 LEU E   3      -1.420  -3.896  -9.558  1.00 30.77 LIG 0.01  C 
ATOM     30  CD1 LEU E   3       1.030  -3.886  -9.075  1.00 32.68 LIG 0.01  C 
ENDBRANCH 27 28
ENDBRANCH 11 27
ENDBRANCH 9 11
ENDBRANCH 5 7
ENDBRANCH 3 5
BRANCH 1 31
ATOM     31  CA  LEU E   1       7.442  -3.989 -11.729  1.00 33.78 LIG 0.18  C 
BRANCH 31 32
ATOM     32  CB  LEU E   1       6.805  -2.913 -10.847  1.00 32.47 LIG 0.04  C 
BRANCH 32 33
ATOM     33  CG  LEU E   1       7.682  -1.687 -10.561  1.00 32.32 LIG-0.02  C 
ATOM     34  CD1 LEU E   1       6.817  -0.485 -10.202  1.00 30.19 LIG 0.01  C 
ATOM     35  CD2 LEU E   1       8.718  -1.986  -9.475  1.00 31.57 LIG 0.01  C 
ENDBRANCH 32 33
ENDBRANCH 31 32
BRANCH 31 36
ATOM     36  N   LEU E   1       8.398  -3.400 -12.669  1.00 33.92 LIG-0.35  N 
ATOM     37  C   GLN E   0       9.470  -4.078 -13.074  1.00 32.69 LIG 0.24  C 
ATOM     38 O    GLN E   0       9.770  -5.190 -12.633  1.00 35.54 LIG-0.27  OA
ATOM     39 H    LEU E   1       8.205  -2.602 -12.925  1.00 33.92 LIG 0.16  HD
BRANCH 37 40
ATOM     40  CA  GLN E   0      10.333  -3.414 -14.128  1.00 31.66 LIG 0.18  C 
BRANCH 40 41
ATOM     41  N   GLN E   0      11.634  -4.140 -14.270  1.00 30.66 LIG-0.35  N 
ATOM     42  C   ACE E  -1      12.822  -3.531 -14.342  1.00 29.47 LIG 0.21  C 
ATOM     43 O    ACE E  -1      13.045  -2.394 -13.950  1.00 28.51 LIG-0.27  OA
ATOM     44  CH3 ACE E  -1      13.949  -4.365 -14.900  1.00 29.76 LIG 0.12  C 
ATOM     45 H    GLN E   0      11.545  -4.995 -14.302  1.00 30.66 LIG 0.16  HD
ENDBRANCH 40 41
BRANCH 40 46
ATOM     46  CB  GLN E   0       9.585  -3.373 -15.471  1.00 31.02 LIG 0.04  C 
BRANCH 46 47
ATOM     47  CG  GLN E   0       9.849  -2.133 -16.326  1.00 30.22 LIG 0.10  C 
BRANCH 47 48
ATOM     48  CD  GLN E   0       9.106  -0.897 -15.835  1.00 30.34 LIG 0.21  C 
ATOM     49 OE1  GLN E   0       8.243  -0.977 -14.951  1.00 29.98 LIG-0.27  OA
ATOM     50  NE2 GLN E   0       9.438   0.252 -16.405  1.00 28.66 LIG-0.37  N 
ATOM     51 21HE GLN E   0      10.043   0.271 -17.016  1.00 28.66 LIG 0.16  HD
ATOM     52 22HE GLN E   0       9.049   0.981 -16.164  1.00 28.66 LIG 0.16  HD
ENDBRANCH 47 48
ENDBRANCH 46 47
ENDBRANCH 40 46
ENDBRANCH 37 40
ENDBRANCH 31 36
ENDBRANCH 1 31
TORSDOF 19
ENDMDL
MODEL 28
USER: ADFR SOLUTION from run 19
USER: SCORE 15.935855 LL:  -4.297 LR: -13.645 RR:   0.000 FEB:  -7.977
USER: RMSD 11.260692
USER: SEED 18
USER: STATUS no improvement in best in 15 clusters for 5 generations
USER: GENES 21
USER: genes 0 Translation |==|  0.61208 0.49851 0.52266
USER: genes 1 Rotation |==|  0.45266 0.94907 0.28749 0.53055
USER: genes 2 Torsion [C]-N--CA-[CB] |==|  0.21037
USER: genes 3 Torsion [N]-CA--C-[N] |==|  0.54693
USER: genes 4 Torsion [C]-N--CA-[CB] |==|  0.17084
USER: genes 5 Torsion [N]-CA--C-[N] |==|  0.68813
USER: genes 6 Torsion [C]-N--CA-[C] |==|  0.61019
USER: genes 7 Torsion [N]-CA--C-[OXT] |==|  0.14807
USER: genes 8 Torsion [N]-CA--CB-[CG] |==|  0.92570
USER: genes 9 Torsion [CA]-CB--CG-[CD1] |==|  0.77337
USER: genes 10 Torsion [N]-CA--CB-[CG] |==|  0.65046
USER: genes 11 Torsion [CA]-CB--CG-[CD2] |==|  0.58237
USER: genes 12 Torsion [N]-C--CA-[N] |==|  0.39523
USER: genes 13 Torsion [C]-CA--CB-[CG] |==|  0.26975
USER: genes 14 Torsion [CA]-CB--CG-[CD1] |==|  0.20441
USER: genes 15 Torsion [C]-CA--N-[C] |==|  0.52787
USER: genes 16 Torsion [N]-C--CA-[N] |==|  0.39448
USER: genes 17 Torsion [C]-CA--N-[C] |==|  0.69215
USER: genes 18 Torsion [C]-CA--CB-[CG] |==|  0.99056
USER: genes 19 Torsion [CA]-CB--CG-[CD] |==|  0.74963
USER: genes 20 Torsion [CB]-CG--CD-[OE1] |==|  0.79590
ROOT
ATOM      1  C   LEU E   1       6.526  -5.044 -12.451  1.00 34.74 LIG 0.24  C 
ATOM      2 O    LEU E   1       6.653  -5.370 -13.627  1.00 33.94 LIG-0.27  OA
ATOM      3  N   ALA E   2       5.449  -5.339 -11.726  1.00 36.28 LIG-0.35  N 
ATOM      4 H    ALA E   2       5.363  -5.127 -10.897  1.00 36.28 LIG 0.16  HD
ENDROOT
BRANCH 3 5
ATOM      5  CA  ALA E   2       4.300  -6.058 -12.280  1.00 35.94 LIG 0.17  C 
ATOM      6  CB  ALA E   2       4.621  -7.540 -12.427  1.00 33.95 LIG 0.04  C 
BRANCH 5 7
ATOM      7  C   ALA E   2       3.080  -5.857 -11.384  1.00 35.46 LIG 0.24  C 
ATOM      8 O    ALA E   2       3.060  -4.934 -10.568  1.00 34.79 LIG-0.27  OA
ATOM      9  N   LEU E   3       2.064  -6.709 -11.550  1.00 35.08 LIG-0.35  N 
ATOM     10 H    LEU E   3       2.027  -7.289 -12.184  1.00 35.08 LIG 0.16  HD
BRANCH 9 11
ATOM     11  CA  LEU E   3       0.899  -6.728 -10.644  1.00 35.40 LIG 0.18  C 
BRANCH 11 12
ATOM     12  C   LEU E   3      -0.087  -7.842 -10.993  1.00 36.56 LIG 0.24  C 
ATOM     13  N   PHE E   4      -1.267  -7.436 -11.461  1.00 37.64 LIG-0.34  N 
ATOM     14 H    PHE E   4      -1.452  -6.607 -11.597  1.00 37.64 LIG 0.16  HD
ATOM     15 O    LEU E   3       0.211  -9.024 -10.811  1.00 36.99 LIG-0.27  OA
BRANCH 13 16
ATOM     16  CA  PHE E   4      -2.368  -8.330 -11.794  1.00 39.79 LIG 0.19  C 
BRANCH 16 17
ATOM     17  C   PHE E   4      -3.057  -7.838 -13.078  1.00 40.57 LIG 0.20  C 
ATOM     18 OXT  PHE E   4      -2.405  -7.631 -14.094  1.00 44.77 LIG-0.65  OA
ATOM     19 O    PHE E   4      -4.277  -7.644 -13.162  1.00 38.71 LIG-0.65  OA
ENDBRANCH 16 17
BRANCH 16 20
ATOM     20  CB  PHE E   4      -3.382  -8.394 -10.642  1.00 41.62 LIG 0.07  C 
BRANCH 20 21
ATOM     21  CG  PHE E   4      -2.783  -8.108  -9.292  1.00 42.37 LIG-0.06  A 
ATOM     22  CD1 PHE E   4      -2.106  -9.111  -8.587  1.00 43.46 LIG 0.01  A 
ATOM     23  CE1 PHE E   4      -1.564  -8.859  -7.338  1.00 44.96 LIG 0.00  A 
ATOM     24  CZ  PHE E   4      -1.699  -7.595  -6.776  1.00 45.96 LIG 0.00  A 
ATOM     25  CE2 PHE E   4      -2.366  -6.585  -7.468  1.00 43.80 LIG 0.00  A 
ATOM     26  CD2 PHE E   4      -2.903  -6.847  -8.719  1.00 42.63 LIG 0.01  A 
ENDBRANCH 20 21
ENDBRANCH 16 20
ENDBRANCH 13 16
ENDBRANCH 11 12
BRANCH 11 27
ATOM     27  CB  LEU E   3       0.146  -5.391 -10.669  1.00 33.50 LIG 0.04  C 
BRANCH 27 28
ATOM     28  CG  LEU E   3      -0.144  -4.602  -9.390  1.00 34.48 LIG-0.02  C 
ATOM     29  CD2 LEU E   3      -1.417  -3.782  -9.495  1.00 30.77 LIG 0.01  C 
ATOM     30  CD1 LEU E   3       1.042  -3.696  -9.073  1.00 32.68 LIG 0.01  C 
ENDBRANCH 27 28
ENDBRANCH 11 27
ENDBRANCH 9 11
ENDBRANCH 5 7
ENDBRANCH 3 5
BRANCH 1 31
ATOM     31  CA  LEU E   1       7.634  -4.276 -11.734  1.00 33.78 LIG 0.18  C 
BRANCH 31 32
ATOM     32  CB  LEU E   1       7.475  -2.770 -11.951  1.00 32.47 LIG 0.04  C 
BRANCH 32 33
ATOM     33  CG  LEU E   1       6.763  -2.011 -10.823  1.00 32.32 LIG-0.02  C 
ATOM     34  CD1 LEU E   1       7.677  -1.877  -9.611  1.00 30.19 LIG 0.01  C 
ATOM     35  CD2 LEU E   1       6.255  -0.649 -11.304  1.00 31.57 LIG 0.01  C 
ENDBRANCH 32 33
ENDBRANCH 31 32
BRANCH 31 36
ATOM     36  N   LEU E   1       8.959  -4.732 -12.162  1.00 33.92 LIG-0.35  N 
ATOM     37  C   GLN E   0      10.060  -4.340 -11.524  1.00 32.69 LIG 0.24  C 
ATOM     38 O    GLN E   0      10.048  -3.521 -10.602  1.00 35.54 LIG-0.27  OA
ATOM     39 H    LEU E   1       8.955  -5.259 -12.842  1.00 33.92 LIG 0.16  HD
BRANCH 37 40
ATOM     40  CA  GLN E   0      11.365  -4.956 -11.985  1.00 31.66 LIG 0.18  C 
BRANCH 40 41
ATOM     41  N   GLN E   0      12.462  -3.939 -11.953  1.00 30.66 LIG-0.35  N 
ATOM     42  C   ACE E  -1      13.043  -3.436 -13.047  1.00 29.47 LIG 0.21  C 
ATOM     43 O    ACE E  -1      12.547  -3.447 -14.165  1.00 28.51 LIG-0.27  OA
ATOM     44  CH3 ACE E  -1      14.378  -2.769 -12.828  1.00 29.76 LIG 0.12  C 
ATOM     45 H    GLN E   0      12.686  -3.704 -11.157  1.00 30.66 LIG 0.16  HD
ENDBRANCH 40 41
BRANCH 40 46
ATOM     46  CB  GLN E   0      11.719  -6.163 -11.099  1.00 31.02 LIG 0.04  C 
BRANCH 46 47
ATOM     47  CG  GLN E   0      10.759  -6.420  -9.937  1.00 30.22 LIG 0.10  C 
BRANCH 47 48
ATOM     48  CD  GLN E   0      11.157  -5.693  -8.659  1.00 30.34 LIG 0.21  C 
ATOM     49 OE1  GLN E   0      12.120  -6.072  -7.979  1.00 29.98 LIG-0.27  OA
ATOM     50  NE2 GLN E   0      10.418  -4.644  -8.325  1.00 28.66 LIG-0.37  N 
ATOM     51 21HE GLN E   0       9.756  -4.409  -8.821  1.00 28.66 LIG 0.16  HD
ATOM     52 22HE GLN E   0      10.601  -4.198  -7.612  1.00 28.66 LIG 0.16  HD
ENDBRANCH 47 48
ENDBRANCH 46 47
ENDBRANCH 40 46
ENDBRANCH 37 40
ENDBRANCH 31 36
ENDBRANCH 1 31
TORSDOF 19
ENDMDL
MODEL 29
USER: ADFR SOLUTION from run 123
USER: SCORE 16.306822 LL:  -3.689 LR: -13.565 RR:   0.000 FEB:  -7.897
USER: RMSD 4.086314
USER: SEED 122
USER: STATUS no improvement in best in 18 clusters for 5 generations
USER: GENES 21
USER: genes 0 Translation |==|  0.45573 0.38932 0.46792
USER: genes 1 Rotation |==|  0.04511 0.49990 0.30404 0.56836
USER: genes 2 Torsion [C]-N--CA-[CB] |==|  0.86553
USER: genes 3 Torsion [N]-CA--C-[N] |==|  0.32862
USER: genes 4 Torsion [C]-N--CA-[CB] |==|  0.51183
USER: genes 5 Torsion [N]-CA--C-[N] |==|  0.48880
USER: genes 6 Torsion [C]-N--CA-[C] |==|  0.82611
USER: genes 7 Torsion [N]-CA--C-[OXT] |==|  0.38126
USER: genes 8 Torsion [N]-CA--CB-[CG] |==|  0.83205
USER: genes 9 Torsion [CA]-CB--CG-[CD1] |==|  0.19687
USER: genes 10 Torsion [N]-CA--CB-[CG] |==|  0.72375
USER: genes 11 Torsion [CA]-CB--CG-[CD2] |==|  0.90745
USER: genes 12 Torsion [N]-C--CA-[N] |==|  0.98211
USER: genes 13 Torsion [C]-CA--CB-[CG] |==|  0.46012
USER: genes 14 Torsion [CA]-CB--CG-[CD1] |==|  0.47456
USER: genes 15 Torsion [C]-CA--N-[C] |==|  0.78099
USER: genes 16 Torsion [N]-C--CA-[N] |==|  0.02186
USER: genes 17 Torsion [C]-CA--N-[C] |==|  0.63957
USER: genes 18 Torsion [C]-CA--CB-[CG] |==|  0.35986
USER: genes 19 Torsion [CA]-CB--CG-[CD] |==|  0.25125
USER: genes 20 Torsion [CB]-CG--CD-[OE1] |==|  0.78060
ROOT
ATOM      1  C   LEU E   1       2.539  -6.845 -13.354  1.00 34.74 LIG 0.24  C 
ATOM      2 O    LEU E   1       3.324  -7.260 -14.202  1.00 33.94 LIG-0.27  OA
ATOM      3  N   ALA E   2       2.916  -6.477 -12.131  1.00 36.28 LIG-0.35  N 
ATOM      4 H    ALA E   2       2.373  -6.170 -11.539  1.00 36.28 LIG 0.16  HD
ENDROOT
BRANCH 3 5
ATOM      5  CA  ALA E   2       4.306  -6.563 -11.677  1.00 35.94 LIG 0.17  C 
ATOM      6  CB  ALA E   2       4.888  -7.932 -12.004  1.00 33.95 LIG 0.04  C 
BRANCH 5 7
ATOM      7  C   ALA E   2       5.133  -5.456 -12.326  1.00 35.46 LIG 0.24  C 
ATOM      8 O    ALA E   2       5.245  -5.408 -13.553  1.00 34.79 LIG-0.27  OA
ATOM      9  N   LEU E   3       5.696  -4.565 -11.505  1.00 35.08 LIG-0.35  N 
ATOM     10 H    LEU E   3       5.541  -4.530 -10.660  1.00 35.08 LIG 0.16  HD
BRANCH 9 11
ATOM     11  CA  LEU E   3       6.650  -3.545 -11.986  1.00 35.40 LIG 0.18  C 
BRANCH 11 12
ATOM     12  C   LEU E   3       7.813  -4.161 -12.761  1.00 36.56 LIG 0.24  C 
ATOM     13  N   PHE E   4       8.669  -3.290 -13.297  1.00 37.64 LIG-0.34  N 
ATOM     14 H    PHE E   4       8.597  -2.441 -13.184  1.00 37.64 LIG 0.16  HD
ATOM     15 O    LEU E   3       7.905  -5.383 -12.888  1.00 36.99 LIG-0.27  OA
BRANCH 13 16
ATOM     16  CA  PHE E   4       9.808  -3.664 -14.125  1.00 39.79 LIG 0.19  C 
BRANCH 16 17
ATOM     17  C   PHE E   4      10.783  -4.517 -13.298  1.00 40.57 LIG 0.20  C 
ATOM     18 OXT  PHE E   4      11.303  -5.514 -13.783  1.00 44.77 LIG-0.65  OA
ATOM     19 O    PHE E   4      11.105  -4.243 -12.133  1.00 38.71 LIG-0.65  OA
ENDBRANCH 16 17
BRANCH 16 20
ATOM     20  CB  PHE E   4      10.522  -2.414 -14.661  1.00 41.62 LIG 0.07  C 
BRANCH 20 21
ATOM     21  CG  PHE E   4       9.648  -1.539 -15.517  1.00 42.37 LIG-0.06  A 
ATOM     22  CD1 PHE E   4       8.610  -0.793 -14.946  1.00 43.46 LIG 0.01  A 
ATOM     23  CE1 PHE E   4       7.793   0.004 -15.729  1.00 44.96 LIG 0.00  A 
ATOM     24  CZ  PHE E   4       8.004   0.060 -17.102  1.00 45.96 LIG 0.00  A 
ATOM     25  CE2 PHE E   4       9.037  -0.674 -17.685  1.00 43.80 LIG 0.00  A 
ATOM     26  CD2 PHE E   4       9.851  -1.467 -16.891  1.00 42.63 LIG 0.01  A 
ENDBRANCH 20 21
ENDBRANCH 16 20
ENDBRANCH 13 16
ENDBRANCH 11 12
BRANCH 11 27
ATOM     27  CB  LEU E   3       7.223  -2.720 -10.827  1.00 33.50 LIG 0.04  C 
BRANCH 27 28
ATOM     28  CG  LEU E   3       6.683  -1.333 -10.475  1.00 34.48 LIG-0.02  C 
ATOM     29  CD2 LEU E   3       6.214  -0.568 -11.700  1.00 30.77 LIG 0.01  C 
ATOM     30  CD1 LEU E   3       7.760  -0.540  -9.740  1.00 32.68 LIG 0.01  C 
ENDBRANCH 27 28
ENDBRANCH 11 27
ENDBRANCH 9 11
ENDBRANCH 5 7
ENDBRANCH 3 5
BRANCH 1 31
ATOM     31  CA  LEU E   1       1.052  -6.711 -13.672  1.00 33.78 LIG 0.18  C 
BRANCH 31 32
ATOM     32  CB  LEU E   1       0.830  -5.713 -14.810  1.00 32.47 LIG 0.04  C 
BRANCH 32 33
ATOM     33  CG  LEU E   1      -0.564  -5.742 -15.452  1.00 32.32 LIG-0.02  C 
ATOM     34  CD1 LEU E   1      -0.734  -4.565 -16.406  1.00 30.19 LIG 0.01  C 
ATOM     35  CD2 LEU E   1      -0.828  -7.079 -16.148  1.00 31.57 LIG 0.01  C 
ENDBRANCH 32 33
ENDBRANCH 31 32
BRANCH 31 36
ATOM     36  N   LEU E   1       0.287  -6.330 -12.482  1.00 33.92 LIG-0.35  N 
ATOM     37  C   GLN E   0      -0.036  -7.230 -11.556  1.00 32.69 LIG 0.24  C 
ATOM     38 O    GLN E   0       0.209  -8.434 -11.671  1.00 35.54 LIG-0.27  OA
ATOM     39 H    LEU E   1       0.075  -5.497 -12.442  1.00 33.92 LIG 0.16  HD
BRANCH 37 40
ATOM     40  CA  GLN E   0      -0.735  -6.706 -10.317  1.00 31.66 LIG 0.18  C 
BRANCH 40 41
ATOM     41  N   GLN E   0      -1.089  -5.263 -10.490  1.00 30.66 LIG-0.35  N 
ATOM     42  C   ACE E  -1      -0.797  -4.313  -9.595  1.00 29.47 LIG 0.21  C 
ATOM     43 O    ACE E  -1       0.072  -4.407  -8.739  1.00 28.51 LIG-0.27  OA
ATOM     44  CH3 ACE E  -1      -1.582  -3.031  -9.725  1.00 29.76 LIG 0.12  C 
ATOM     45 H    GLN E   0      -1.501  -5.098 -11.226  1.00 30.66 LIG 0.16  HD
ENDBRANCH 40 41
BRANCH 40 46
ATOM     46  CB  GLN E   0      -1.994  -7.542 -10.031  1.00 31.02 LIG 0.04  C 
BRANCH 46 47
ATOM     47  CG  GLN E   0      -2.120  -8.060  -8.598  1.00 30.22 LIG 0.10  C 
BRANCH 47 48
ATOM     48  CD  GLN E   0      -2.869  -7.104  -7.679  1.00 30.34 LIG 0.21  C 
ATOM     49 OE1  GLN E   0      -2.313  -6.106  -7.200  1.00 29.98 LIG-0.27  OA
ATOM     50  NE2 GLN E   0      -4.137  -7.402  -7.429  1.00 28.66 LIG-0.37  N 
ATOM     51 21HE GLN E   0      -4.491  -8.103  -7.779  1.00 28.66 LIG 0.16  HD
ATOM     52 22HE GLN E   0      -4.606  -6.894  -6.917  1.00 28.66 LIG 0.16  HD
ENDBRANCH 47 48
ENDBRANCH 46 47
ENDBRANCH 40 46
ENDBRANCH 37 40
ENDBRANCH 31 36
ENDBRANCH 1 31
TORSDOF 19
ENDMDL
MODEL 30
USER: ADFR SOLUTION from run 198
USER: SCORE 15.695183 LL:  -4.244 LR: -13.561 RR:   0.000 FEB:  -7.893
USER: RMSD 4.302881
USER: SEED 197
USER: STATUS no improvement in best in 20 clusters for 5 generations
USER: GENES 21
USER: genes 0 Translation |==|  0.45171 0.43023 0.53745
USER: genes 1 Rotation |==|  0.49508 0.60748 0.42077 0.98182
USER: genes 2 Torsion [C]-N--CA-[CB] |==|  0.50019
USER: genes 3 Torsion [N]-CA--C-[N] |==|  0.27778
USER: genes 4 Torsion [C]-N--CA-[CB] |==|  0.39796
USER: genes 5 Torsion [N]-CA--C-[N] |==|  0.94219
USER: genes 6 Torsion [C]-N--CA-[C] |==|  0.50734
USER: genes 7 Torsion [N]-CA--C-[OXT] |==|  0.40187
USER: genes 8 Torsion [N]-CA--CB-[CG] |==|  0.46896
USER: genes 9 Torsion [CA]-CB--CG-[CD1] |==|  0.67377
USER: genes 10 Torsion [N]-CA--CB-[CG] |==|  0.46760
USER: genes 11 Torsion [CA]-CB--CG-[CD2] |==|  0.71496
USER: genes 12 Torsion [N]-C--CA-[N] |==|  0.95942
USER: genes 13 Torsion [C]-CA--CB-[CG] |==|  0.29627
USER: genes 14 Torsion [CA]-CB--CG-[CD1] |==|  0.47192
USER: genes 15 Torsion [C]-CA--N-[C] |==|  0.79802
USER: genes 16 Torsion [N]-C--CA-[N] |==|  0.37185
USER: genes 17 Torsion [C]-CA--N-[C] |==|  0.85062
USER: genes 18 Torsion [C]-CA--CB-[CG] |==|  0.72736
USER: genes 19 Torsion [CA]-CB--CG-[CD] |==|  0.20038
USER: genes 20 Torsion [CB]-CG--CD-[OE1] |==|  0.14583
ROOT
ATOM      1  C   LEU E   1       2.436  -6.170 -12.207  1.00 34.74 LIG 0.24  C 
ATOM      2 O    LEU E   1       3.053  -5.556 -11.342  1.00 33.94 LIG-0.27  OA
ATOM      3  N   ALA E   2       3.004  -7.074 -13.003  1.00 36.28 LIG-0.35  N 
ATOM      4 H    ALA E   2       2.573  -7.520 -13.599  1.00 36.28 LIG 0.16  HD
ENDROOT
BRANCH 3 5
ATOM      5  CA  ALA E   2       4.432  -7.395 -12.937  1.00 35.94 LIG 0.17  C 
ATOM      6  CB  ALA E   2       4.785  -8.460 -13.967  1.00 33.95 LIG 0.04  C 
BRANCH 5 7
ATOM      7  C   ALA E   2       5.259  -6.132 -13.161  1.00 35.46 LIG 0.24  C 
ATOM      8 O    ALA E   2       5.432  -5.703 -14.303  1.00 34.79 LIG-0.27  OA
ATOM      9  N   LEU E   3       5.753  -5.535 -12.072  1.00 35.08 LIG-0.35  N 
ATOM     10 H    LEU E   3       5.553  -5.767 -11.269  1.00 35.08 LIG 0.16  HD
BRANCH 9 11
ATOM     11  CA  LEU E   3       6.700  -4.405 -12.158  1.00 35.40 LIG 0.18  C 
BRANCH 11 12
ATOM     12  C   LEU E   3       8.154  -4.861 -12.063  1.00 36.56 LIG 0.24  C 
ATOM     13  N   PHE E   4       8.344  -6.057 -11.503  1.00 37.64 LIG-0.34  N 
ATOM     14 H    PHE E   4       7.693  -6.557 -11.248  1.00 37.64 LIG 0.16  HD
ATOM     15 O    LEU E   3       9.067  -4.135 -12.458  1.00 36.99 LIG-0.27  OA
BRANCH 13 16
ATOM     16  CA  PHE E   4       9.652  -6.650 -11.260  1.00 39.79 LIG 0.19  C 
BRANCH 16 17
ATOM     17  C   PHE E   4       9.474  -8.056 -10.665  1.00 40.57 LIG 0.20  C 
ATOM     18 OXT  PHE E   4      10.253  -8.956 -10.952  1.00 44.77 LIG-0.65  OA
ATOM     19 O    PHE E   4       8.569  -8.347  -9.871  1.00 38.71 LIG-0.65  OA
ENDBRANCH 16 17
BRANCH 16 20
ATOM     20  CB  PHE E   4      10.477  -5.772 -10.307  1.00 41.62 LIG 0.07  C 
BRANCH 20 21
ATOM     21  CG  PHE E   4      11.725  -6.439  -9.798  1.00 42.37 LIG-0.06  A 
ATOM     22  CD1 PHE E   4      11.892  -6.690  -8.431  1.00 43.46 LIG 0.01  A 
ATOM     23  CE1 PHE E   4      13.045  -7.291  -7.954  1.00 44.96 LIG 0.00  A 
ATOM     24  CZ  PHE E   4      14.051  -7.644  -8.845  1.00 45.96 LIG 0.00  A 
ATOM     25  CE2 PHE E   4      13.897  -7.405 -10.210  1.00 43.80 LIG 0.00  A 
ATOM     26  CD2 PHE E   4      12.738  -6.805 -10.677  1.00 42.63 LIG 0.01  A 
ENDBRANCH 20 21
ENDBRANCH 16 20
ENDBRANCH 13 16
ENDBRANCH 11 12
BRANCH 11 27
ATOM     27  CB  LEU E   3       6.443  -3.373 -11.052  1.00 33.50 LIG 0.04  C 
BRANCH 27 28
ATOM     28  CG  LEU E   3       7.434  -2.247 -10.749  1.00 34.48 LIG-0.02  C 
ATOM     29  CD2 LEU E   3       8.266  -2.526  -9.510  1.00 30.77 LIG 0.01  C 
ATOM     30  CD1 LEU E   3       6.675  -0.933 -10.588  1.00 32.68 LIG 0.01  C 
ENDBRANCH 27 28
ENDBRANCH 11 27
ENDBRANCH 9 11
ENDBRANCH 5 7
ENDBRANCH 3 5
BRANCH 1 31
ATOM     31  CA  LEU E   1       0.942  -5.936 -12.409  1.00 33.78 LIG 0.18  C 
BRANCH 31 32
ATOM     32  CB  LEU E   1       0.142  -6.497 -11.232  1.00 32.47 LIG 0.04  C 
BRANCH 32 33
ATOM     33  CG  LEU E   1      -0.442  -5.452 -10.271  1.00 32.32 LIG-0.02  C 
ATOM     34  CD1 LEU E   1      -1.412  -6.108  -9.296  1.00 30.19 LIG 0.01  C 
ATOM     35  CD2 LEU E   1       0.665  -4.687  -9.542  1.00 31.57 LIG 0.01  C 
ENDBRANCH 32 33
ENDBRANCH 31 32
BRANCH 31 36
ATOM     36  N   LEU E   1       0.481  -6.508 -13.677  1.00 33.92 LIG-0.35  N 
ATOM     37  C   GLN E   0       0.796  -5.942 -14.841  1.00 32.69 LIG 0.24  C 
ATOM     38 O    GLN E   0       1.412  -4.877 -14.927  1.00 35.54 LIG-0.27  OA
ATOM     39 H    LEU E   1       0.005  -7.220 -13.598  1.00 33.92 LIG 0.16  HD
BRANCH 37 40
ATOM     40  CA  GLN E   0       0.356  -6.676 -16.091  1.00 31.66 LIG 0.18  C 
BRANCH 40 41
ATOM     41  N   GLN E   0      -0.273  -5.725 -17.060  1.00 30.66 LIG-0.35  N 
ATOM     42  C   ACE E  -1      -1.286  -4.910 -16.751  1.00 29.47 LIG 0.21  C 
ATOM     43 O    ACE E  -1      -1.583  -4.569 -15.614  1.00 28.51 LIG-0.27  OA
ATOM     44  CH3 ACE E  -1      -2.054  -4.350 -17.923  1.00 29.76 LIG 0.12  C 
ATOM     45 H    GLN E   0       0.082  -5.751 -17.843  1.00 30.66 LIG 0.16  HD
ENDBRANCH 40 41
BRANCH 40 46
ATOM     46  CB  GLN E   0       1.559  -7.388 -16.733  1.00 31.02 LIG 0.04  C 
BRANCH 46 47
ATOM     47  CG  GLN E   0       2.214  -6.639 -17.895  1.00 30.22 LIG 0.10  C 
BRANCH 47 48
ATOM     48  CD  GLN E   0       3.004  -5.415 -17.451  1.00 30.34 LIG 0.21  C 
ATOM     49 OE1  GLN E   0       3.868  -5.496 -16.568  1.00 29.98 LIG-0.27  OA
ATOM     50  NE2 GLN E   0       2.713  -4.275 -18.061  1.00 28.66 LIG-0.37  N 
ATOM     51 21HE GLN E   0       2.106  -4.256 -18.670  1.00 28.66 LIG 0.16  HD
ATOM     52 22HE GLN E   0       3.130  -3.554 -17.847  1.00 28.66 LIG 0.16  HD
ENDBRANCH 47 48
ENDBRANCH 46 47
ENDBRANCH 40 46
ENDBRANCH 37 40
ENDBRANCH 31 36
ENDBRANCH 1 31
TORSDOF 19
ENDMDL
MODEL 31
USER: ADFR SOLUTION from run 111
USER: SCORE 15.318745 LL:  -3.137 LR: -13.560 RR:   0.000 FEB:  -7.892
USER: RMSD 10.897155
USER: SEED 110
USER: STATUS no improvement in best in 9 clusters for 5 generations
USER: GENES 21
USER: genes 0 Translation |==|  0.60212 0.49814 0.49015
USER: genes 1 Rotation |==|  0.68033 0.04536 0.57654 0.57020
USER: genes 2 Torsion [C]-N--CA-[CB] |==|  0.46668
USER: genes 3 Torsion [N]-CA--C-[N] |==|  0.38664
USER: genes 4 Torsion [C]-N--CA-[CB] |==|  0.52864
USER: genes 5 Torsion [N]-CA--C-[N] |==|  0.48734
USER: genes 6 Torsion [C]-N--CA-[C] |==|  0.26406
USER: genes 7 Torsion [N]-CA--C-[OXT] |==|  0.32657
USER: genes 8 Torsion [N]-CA--CB-[CG] |==|  0.56474
USER: genes 9 Torsion [CA]-CB--CG-[CD1] |==|  0.11636
USER: genes 10 Torsion [N]-CA--CB-[CG] |==|  0.76655
USER: genes 11 Torsion [CA]-CB--CG-[CD2] |==|  0.05417
USER: genes 12 Torsion [N]-C--CA-[N] |==|  0.44302
USER: genes 13 Torsion [C]-CA--CB-[CG] |==|  0.31924
USER: genes 14 Torsion [CA]-CB--CG-[CD1] |==|  0.03583
USER: genes 15 Torsion [C]-CA--N-[C] |==|  0.54465
USER: genes 16 Torsion [N]-C--CA-[N] |==|  0.87579
USER: genes 17 Torsion [C]-CA--N-[C] |==|  0.81086
USER: genes 18 Torsion [C]-CA--CB-[CG] |==|  0.66123
USER: genes 19 Torsion [CA]-CB--CG-[CD] |==|  0.44679
USER: genes 20 Torsion [CB]-CG--CD-[OE1] |==|  0.62996
ROOT
ATOM      1  C   LEU E   1       6.272  -5.050 -12.988  1.00 34.74 LIG 0.24  C 
ATOM      2 O    LEU E   1       5.652  -4.943 -14.041  1.00 33.94 LIG-0.27  OA
ATOM      3  N   ALA E   2       6.002  -5.981 -12.075  1.00 36.28 LIG-0.35  N 
ATOM      4 H    ALA E   2       6.444  -6.071 -11.343  1.00 36.28 LIG 0.16  HD
ENDROOT
BRANCH 3 5
ATOM      5  CA  ALA E   2       4.913  -6.948 -12.236  1.00 35.94 LIG 0.17  C 
ATOM      6  CB  ALA E   2       5.030  -8.057 -11.198  1.00 33.95 LIG 0.04  C 
BRANCH 5 7
ATOM      7  C   ALA E   2       3.567  -6.238 -12.119  1.00 35.46 LIG 0.24  C 
ATOM      8 O    ALA E   2       3.407  -5.354 -11.276  1.00 34.79 LIG-0.27  OA
ATOM      9  N   LEU E   3       2.611  -6.617 -12.973  1.00 35.08 LIG-0.35  N 
ATOM     10 H    LEU E   3       2.743  -7.158 -13.628  1.00 35.08 LIG 0.16  HD
BRANCH 9 11
ATOM     11  CA  LEU E   3       1.221  -6.130 -12.862  1.00 35.40 LIG 0.18  C 
BRANCH 11 12
ATOM     12  C   LEU E   3       0.683  -6.237 -11.437  1.00 36.56 LIG 0.24  C 
ATOM     13  N   PHE E   4      -0.534  -5.727 -11.245  1.00 37.64 LIG-0.34  N 
ATOM     14 H    PHE E   4      -1.004  -5.395 -11.884  1.00 37.64 LIG 0.16  HD
ATOM     15 O    LEU E   3       1.367  -6.738 -10.543  1.00 36.99 LIG-0.27  OA
BRANCH 13 16
ATOM     16  CA  PHE E   4      -1.204  -5.670  -9.952  1.00 39.79 LIG 0.19  C 
BRANCH 16 17
ATOM     17  C   PHE E   4      -0.958  -4.296  -9.309  1.00 40.57 LIG 0.20  C 
ATOM     18 OXT  PHE E   4      -1.895  -3.542  -9.075  1.00 44.77 LIG-0.65  OA
ATOM     19 O    PHE E   4       0.165  -3.890  -8.982  1.00 38.71 LIG-0.65  OA
ENDBRANCH 16 17
BRANCH 16 20
ATOM     20  CB  PHE E   4      -0.695  -6.786  -9.028  1.00 41.62 LIG 0.07  C 
BRANCH 20 21
ATOM     21  CG  PHE E   4      -1.664  -7.158  -7.939  1.00 42.37 LIG-0.06  A 
ATOM     22  CD1 PHE E   4      -3.033  -7.271  -8.211  1.00 43.46 LIG 0.01  A 
ATOM     23  CE1 PHE E   4      -3.932  -7.600  -7.211  1.00 44.96 LIG 0.00  A 
ATOM     24  CZ  PHE E   4      -3.468  -7.815  -5.918  1.00 45.96 LIG 0.00  A 
ATOM     25  CE2 PHE E   4      -2.108  -7.710  -5.632  1.00 43.80 LIG 0.00  A 
ATOM     26  CD2 PHE E   4      -1.216  -7.383  -6.642  1.00 42.63 LIG 0.01  A 
ENDBRANCH 20 21
ENDBRANCH 16 20
ENDBRANCH 13 16
ENDBRANCH 11 12
BRANCH 11 27
ATOM     27  CB  LEU E   3       0.279  -6.903 -13.794  1.00 33.50 LIG 0.04  C 
BRANCH 27 28
ATOM     28  CG  LEU E   3       0.112  -6.528 -15.268  1.00 34.48 LIG-0.02  C 
ATOM     29  CD2 LEU E   3       1.266  -5.688 -15.785  1.00 30.77 LIG 0.01  C 
ATOM     30  CD1 LEU E   3      -1.207  -5.783 -15.455  1.00 32.68 LIG 0.01  C 
ENDBRANCH 27 28
ENDBRANCH 11 27
ENDBRANCH 9 11
ENDBRANCH 5 7
ENDBRANCH 3 5
BRANCH 1 31
ATOM     31  CA  LEU E   1       7.428  -4.105 -12.667  1.00 33.78 LIG 0.18  C 
BRANCH 31 32
ATOM     32  CB  LEU E   1       7.000  -3.057 -11.638  1.00 32.47 LIG 0.04  C 
BRANCH 32 33
ATOM     33  CG  LEU E   1       7.714  -3.132 -10.282  1.00 32.32 LIG-0.02  C 
ATOM     34  CD1 LEU E   1       8.929  -4.049 -10.369  1.00 30.19 LIG 0.01  C 
ATOM     35  CD2 LEU E   1       8.091  -1.738  -9.775  1.00 31.57 LIG 0.01  C 
ENDBRANCH 32 33
ENDBRANCH 31 32
BRANCH 31 36
ATOM     36  N   LEU E   1       7.946  -3.469 -13.881  1.00 33.92 LIG-0.35  N 
ATOM     37  C   GLN E   0       9.133  -2.867 -13.887  1.00 32.69 LIG 0.24  C 
ATOM     38 O    GLN E   0       9.826  -2.733 -12.875  1.00 35.54 LIG-0.27  OA
ATOM     39 H    LEU E   1       7.426  -3.522 -14.564  1.00 33.92 LIG 0.16  HD
BRANCH 37 40
ATOM     40  CA  GLN E   0       9.616  -2.336 -15.222  1.00 31.66 LIG 0.18  C 
BRANCH 40 41
ATOM     41  N   GLN E   0       9.386  -3.348 -16.299  1.00 30.66 LIG-0.35  N 
ATOM     42  C   ACE E  -1      10.039  -4.512 -16.379  1.00 29.47 LIG 0.21  C 
ATOM     43 O    ACE E  -1      10.609  -5.055 -15.443  1.00 28.51 LIG-0.27  OA
ATOM     44  CH3 ACE E  -1       9.993  -5.195 -17.723  1.00 29.76 LIG 0.12  C 
ATOM     45 H    GLN E   0       8.787  -3.110 -16.869  1.00 30.66 LIG 0.16  HD
ENDBRANCH 40 41
BRANCH 40 46
ATOM     46  CB  GLN E   0       8.897  -1.017 -15.554  1.00 31.02 LIG 0.04  C 
BRANCH 46 47
ATOM     47  CG  GLN E   0       8.117  -1.015 -16.869  1.00 30.22 LIG 0.10  C 
BRANCH 47 48
ATOM     48  CD  GLN E   0       7.072   0.090 -16.944  1.00 30.34 LIG 0.21  C 
ATOM     49 OE1  GLN E   0       5.918  -0.143 -17.328  1.00 29.98 LIG-0.27  OA
ATOM     50  NE2 GLN E   0       7.469   1.300 -16.575  1.00 28.66 LIG-0.37  N 
ATOM     51 21HE GLN E   0       8.278   1.426 -16.313  1.00 28.66 LIG 0.16  HD
ATOM     52 22HE GLN E   0       6.916   1.960 -16.598  1.00 28.66 LIG 0.16  HD
ENDBRANCH 47 48
ENDBRANCH 46 47
ENDBRANCH 40 46
ENDBRANCH 37 40
ENDBRANCH 31 36
ENDBRANCH 1 31
TORSDOF 19
ENDMDL
MODEL 32
USER: ADFR SOLUTION from run 14
USER: SCORE 17.009507 LL:  -3.864 LR: -13.550 RR:   0.000 FEB:  -7.882
USER: RMSD 1.842992
USER: SEED 719134
USER: STATUS no improvement in best in 10 clusters for 5 generations
USER: GENES 21
USER: genes 0 Translation |==|  0.46305 0.37857 0.44926
USER: genes 1 Rotation |==|  0.07083 0.48580 0.24511 0.52542
USER: genes 2 Torsion [C]-N--CA-[CB] |==|  0.86519
USER: genes 3 Torsion [N]-CA--C-[N] |==|  0.35163
USER: genes 4 Torsion [C]-N--CA-[CB] |==|  0.53333
USER: genes 5 Torsion [N]-CA--C-[N] |==|  0.44401
USER: genes 6 Torsion [C]-N--CA-[C] |==|  0.19486
USER: genes 7 Torsion [N]-CA--C-[OXT] |==|  0.12105
USER: genes 8 Torsion [N]-CA--CB-[CG] |==|  0.89885
USER: genes 9 Torsion [CA]-CB--CG-[CD1] |==|  0.86159
USER: genes 10 Torsion [N]-CA--CB-[CG] |==|  0.73353
USER: genes 11 Torsion [CA]-CB--CG-[CD2] |==|  0.93905
USER: genes 12 Torsion [N]-C--CA-[N] |==|  0.97165
USER: genes 13 Torsion [C]-CA--CB-[CG] |==|  0.64939
USER: genes 14 Torsion [CA]-CB--CG-[CD1] |==|  0.42847
USER: genes 15 Torsion [C]-CA--N-[C] |==|  0.79278
USER: genes 16 Torsion [N]-C--CA-[N] |==|  0.37061
USER: genes 17 Torsion [C]-CA--N-[C] |==|  0.82840
USER: genes 18 Torsion [C]-CA--CB-[CG] |==|  0.48354
USER: genes 19 Torsion [CA]-CB--CG-[CD] |==|  0.73680
USER: genes 20 Torsion [CB]-CG--CD-[OE1] |==|  0.34814
ROOT
ATOM      1  C   LEU E   1       2.726  -7.023 -13.662  1.00 34.74 LIG 0.24  C 
ATOM      2 O    LEU E   1       3.670  -7.594 -14.198  1.00 33.94 LIG-0.27  OA
ATOM      3  N   ALA E   2       2.803  -6.463 -12.456  1.00 36.28 LIG-0.35  N 
ATOM      4 H    ALA E   2       2.149  -6.047 -12.083  1.00 36.28 LIG 0.16  HD
ENDROOT
BRANCH 3 5
ATOM      5  CA  ALA E   2       4.021  -6.508 -11.644  1.00 35.94 LIG 0.17  C 
ATOM      6  CB  ALA E   2       4.570  -7.928 -11.586  1.00 33.95 LIG 0.04  C 
BRANCH 5 7
ATOM      7  C   ALA E   2       5.062  -5.551 -12.219  1.00 35.46 LIG 0.24  C 
ATOM      8 O    ALA E   2       5.373  -5.619 -13.409  1.00 34.79 LIG-0.27  OA
ATOM      9  N   LEU E   3       5.584  -4.653 -11.377  1.00 35.08 LIG-0.35  N 
ATOM     10 H    LEU E   3       5.300  -4.530 -10.574  1.00 35.08 LIG 0.16  HD
BRANCH 9 11
ATOM     11  CA  LEU E   3       6.712  -3.780 -11.759  1.00 35.40 LIG 0.18  C 
BRANCH 11 12
ATOM     12  C   LEU E   3       7.831  -4.553 -12.456  1.00 36.56 LIG 0.24  C 
ATOM     13  N   PHE E   4       8.665  -3.815 -13.190  1.00 37.64 LIG-0.34  N 
ATOM     14 H    PHE E   4       8.605  -2.958 -13.239  1.00 37.64 LIG 0.16  HD
ATOM     15 O    LEU E   3       7.907  -5.778 -12.351  1.00 36.99 LIG-0.27  OA
BRANCH 13 16
ATOM     16  CA  PHE E   4       9.758  -4.359 -13.984  1.00 39.79 LIG 0.19  C 
BRANCH 16 17
ATOM     17  C   PHE E   4       9.184  -5.124 -15.188  1.00 40.57 LIG 0.20  C 
ATOM     18 OXT  PHE E   4       8.260  -4.654 -15.841  1.00 44.77 LIG-0.65  OA
ATOM     19 O    PHE E   4       9.622  -6.218 -15.569  1.00 38.71 LIG-0.65  OA
ENDBRANCH 16 17
BRANCH 16 20
ATOM     20  CB  PHE E   4      10.633  -5.292 -13.134  1.00 41.62 LIG 0.07  C 
BRANCH 20 21
ATOM     21  CG  PHE E   4      10.798  -4.836 -11.710  1.00 42.37 LIG-0.06  A 
ATOM     22  CD1 PHE E   4      11.176  -3.519 -11.423  1.00 43.46 LIG 0.01  A 
ATOM     23  CE1 PHE E   4      11.343  -3.096 -10.116  1.00 44.96 LIG 0.00  A 
ATOM     24  CZ  PHE E   4      11.137  -3.994  -9.075  1.00 45.96 LIG 0.00  A 
ATOM     25  CE2 PHE E   4      10.756  -5.307  -9.344  1.00 43.80 LIG 0.00  A 
ATOM     26  CD2 PHE E   4      10.589  -5.720 -10.657  1.00 42.63 LIG 0.01  A 
ENDBRANCH 20 21
ENDBRANCH 16 20
ENDBRANCH 13 16
ENDBRANCH 11 12
BRANCH 11 27
ATOM     27  CB  LEU E   3       7.306  -3.064 -10.540  1.00 33.50 LIG 0.04  C 
BRANCH 27 28
ATOM     28  CG  LEU E   3       6.890  -1.643 -10.153  1.00 34.48 LIG-0.02  C 
ATOM     29  CD2 LEU E   3       6.300  -0.875 -11.323  1.00 30.77 LIG 0.01  C 
ATOM     30  CD1 LEU E   3       8.095  -0.897  -9.588  1.00 32.68 LIG 0.01  C 
ENDBRANCH 27 28
ENDBRANCH 11 27
ENDBRANCH 9 11
ENDBRANCH 5 7
ENDBRANCH 3 5
BRANCH 1 31
ATOM     31  CA  LEU E   1       1.382  -6.905 -14.377  1.00 33.78 LIG 0.18  C 
BRANCH 31 32
ATOM     32  CB  LEU E   1       1.508  -6.030 -15.625  1.00 32.47 LIG 0.04  C 
BRANCH 32 33
ATOM     33  CG  LEU E   1       0.523  -4.857 -15.714  1.00 32.32 LIG-0.02  C 
ATOM     34  CD1 LEU E   1       1.099  -3.741 -16.576  1.00 30.19 LIG 0.01  C 
ATOM     35  CD2 LEU E   1      -0.845  -5.318 -16.222  1.00 31.57 LIG 0.01  C 
ENDBRANCH 32 33
ENDBRANCH 31 32
BRANCH 31 36
ATOM     36  N   LEU E   1       0.346  -6.392 -13.478  1.00 33.92 LIG-0.35  N 
ATOM     37  C   GLN E   0      -0.187  -7.163 -12.532  1.00 32.69 LIG 0.24  C 
ATOM     38 O    GLN E   0       0.089  -8.358 -12.403  1.00 35.54 LIG-0.27  OA
ATOM     39 H    LEU E   1       0.123  -5.573 -13.616  1.00 33.92 LIG 0.16  HD
BRANCH 37 40
ATOM     40  CA  GLN E   0      -1.173  -6.499 -11.592  1.00 31.66 LIG 0.18  C 
BRANCH 40 41
ATOM     41  N   GLN E   0      -2.393  -7.350 -11.431  1.00 30.66 LIG-0.35  N 
ATOM     42  C   ACE E  -1      -3.212  -7.674 -12.437  1.00 29.47 LIG 0.21  C 
ATOM     43 O    ACE E  -1      -2.906  -7.644 -13.620  1.00 28.51 LIG-0.27  OA
ATOM     44  CH3 ACE E  -1      -4.582  -8.161 -12.031  1.00 29.76 LIG 0.12  C 
ATOM     45 H    GLN E   0      -2.520  -7.613 -10.622  1.00 30.66 LIG 0.16  HD
ENDBRANCH 40 41
BRANCH 40 46
ATOM     46  CB  GLN E   0      -0.508  -6.241 -10.229  1.00 31.02 LIG 0.04  C 
BRANCH 46 47
ATOM     47  CG  GLN E   0      -1.352  -5.445  -9.233  1.00 30.22 LIG 0.10  C 
BRANCH 47 48
ATOM     48  CD  GLN E   0      -1.056  -3.952  -9.255  1.00 30.34 LIG 0.21  C 
ATOM     49 OE1  GLN E   0      -1.957  -3.121  -9.431  1.00 29.98 LIG-0.27  OA
ATOM     50  NE2 GLN E   0       0.210  -3.602  -9.075  1.00 28.66 LIG-0.37  N 
ATOM     51 21HE GLN E   0       0.811  -4.206  -8.956  1.00 28.66 LIG 0.16  HD
ATOM     52 22HE GLN E   0       0.432  -2.770  -9.078  1.00 28.66 LIG 0.16  HD
ENDBRANCH 47 48
ENDBRANCH 46 47
ENDBRANCH 40 46
ENDBRANCH 37 40
ENDBRANCH 31 36
ENDBRANCH 1 31
TORSDOF 19
ENDMDL
MODEL 33
USER: ADFR SOLUTION from run 64
USER: SCORE 16.387080 LL:  -4.091 LR: -13.538 RR:   0.000 FEB:  -7.870
USER: RMSD 4.053619
USER: SEED 63
USER: STATUS searching
USER: GENES 21
USER: genes 0 Translation |==|  0.45813 0.38678 0.54499
USER: genes 1 Rotation |==|  0.27940 0.54572 0.40563 0.93628
USER: genes 2 Torsion [C]-N--CA-[CB] |==|  0.49521
USER: genes 3 Torsion [N]-CA--C-[N] |==|  0.37516
USER: genes 4 Torsion [C]-N--CA-[CB] |==|  0.17782
USER: genes 5 Torsion [N]-CA--C-[N] |==|  0.05281
USER: genes 6 Torsion [C]-N--CA-[C] |==|  0.67898
USER: genes 7 Torsion [N]-CA--C-[OXT] |==|  0.40523
USER: genes 8 Torsion [N]-CA--CB-[CG] |==|  0.79736
USER: genes 9 Torsion [CA]-CB--CG-[CD1] |==|  0.68905
USER: genes 10 Torsion [N]-CA--CB-[CG] |==|  0.65466
USER: genes 11 Torsion [CA]-CB--CG-[CD2] |==|  0.93623
USER: genes 12 Torsion [N]-C--CA-[N] |==|  0.31709
USER: genes 13 Torsion [C]-CA--CB-[CG] |==|  0.41655
USER: genes 14 Torsion [CA]-CB--CG-[CD1] |==|  0.14216
USER: genes 15 Torsion [C]-CA--N-[C] |==|  0.76377
USER: genes 16 Torsion [N]-C--CA-[N] |==|  0.48009
USER: genes 17 Torsion [C]-CA--N-[C] |==|  0.52326
USER: genes 18 Torsion [C]-CA--CB-[CG] |==|  0.22926
USER: genes 19 Torsion [CA]-CB--CG-[CD] |==|  0.24957
USER: genes 20 Torsion [CB]-CG--CD-[OE1] |==|  0.84430
ROOT
ATOM      1  C   LEU E   1       2.600  -6.887 -12.083  1.00 34.74 LIG 0.24  C 
ATOM      2 O    LEU E   1       3.087  -5.762 -12.040  1.00 33.94 LIG-0.27  OA
ATOM      3  N   ALA E   2       3.301  -7.993 -11.840  1.00 36.28 LIG-0.35  N 
ATOM      4 H    ALA E   2       2.960  -8.783 -11.852  1.00 36.28 LIG 0.16  HD
ENDROOT
BRANCH 3 5
ATOM      5  CA  ALA E   2       4.731  -7.966 -11.527  1.00 35.94 LIG 0.17  C 
ATOM      6  CB  ALA E   2       5.243  -9.376 -11.258  1.00 33.95 LIG 0.04  C 
BRANCH 5 7
ATOM      7  C   ALA E   2       5.502  -7.325 -12.678  1.00 35.46 LIG 0.24  C 
ATOM      8 O    ALA E   2       5.240  -7.631 -13.843  1.00 34.79 LIG-0.27  OA
ATOM      9  N   LEU E   3       6.436  -6.427 -12.350  1.00 35.08 LIG-0.35  N 
ATOM     10 H    LEU E   3       6.555  -6.132 -11.551  1.00 35.08 LIG 0.16  HD
BRANCH 9 11
ATOM     11  CA  LEU E   3       7.361  -5.854 -13.349  1.00 35.40 LIG 0.18  C 
BRANCH 11 12
ATOM     12  C   LEU E   3       8.423  -4.963 -12.709  1.00 36.56 LIG 0.24  C 
ATOM     13  N   PHE E   4       8.612  -5.145 -11.401  1.00 37.64 LIG-0.34  N 
ATOM     14 H    PHE E   4       8.194  -5.749 -10.953  1.00 37.64 LIG 0.16  HD
ATOM     15 O    LEU E   3       9.024  -4.122 -13.379  1.00 36.99 LIG-0.27  OA
BRANCH 13 16
ATOM     16  CA  PHE E   4       9.529  -4.359 -10.588  1.00 39.79 LIG 0.19  C 
BRANCH 16 17
ATOM     17  C   PHE E   4      10.648  -5.269 -10.055  1.00 40.57 LIG 0.20  C 
ATOM     18 OXT  PHE E   4      11.785  -4.836  -9.909  1.00 44.77 LIG-0.65  OA
ATOM     19 O    PHE E   4      10.467  -6.451  -9.734  1.00 38.71 LIG-0.65  OA
ENDBRANCH 16 17
BRANCH 16 20
ATOM     20  CB  PHE E   4       8.786  -3.695  -9.419  1.00 41.62 LIG 0.07  C 
BRANCH 20 21
ATOM     21  CG  PHE E   4       7.909  -2.546  -9.835  1.00 42.37 LIG-0.06  A 
ATOM     22  CD1 PHE E   4       8.227  -1.235  -9.458  1.00 43.46 LIG 0.01  A 
ATOM     23  CE1 PHE E   4       7.418  -0.173  -9.825  1.00 44.96 LIG 0.00  A 
ATOM     24  CZ  PHE E   4       6.271  -0.414 -10.573  1.00 45.96 LIG 0.00  A 
ATOM     25  CE2 PHE E   4       5.944  -1.713 -10.959  1.00 43.80 LIG 0.00  A 
ATOM     26  CD2 PHE E   4       6.762  -2.769 -10.589  1.00 42.63 LIG 0.01  A 
ENDBRANCH 20 21
ENDBRANCH 16 20
ENDBRANCH 13 16
ENDBRANCH 11 12
BRANCH 11 27
ATOM     27  CB  LEU E   3       6.609  -5.030 -14.403  1.00 33.50 LIG 0.04  C 
BRANCH 27 28
ATOM     28  CG  LEU E   3       6.734  -5.322 -15.899  1.00 34.48 LIG-0.02  C 
ATOM     29  CD2 LEU E   3       8.018  -6.059 -16.239  1.00 30.77 LIG 0.01  C 
ATOM     30  CD1 LEU E   3       6.656  -4.013 -16.680  1.00 32.68 LIG 0.01  C 
ENDBRANCH 27 28
ENDBRANCH 11 27
ENDBRANCH 9 11
ENDBRANCH 5 7
ENDBRANCH 3 5
BRANCH 1 31
ATOM     31  CA  LEU E   1       1.122  -7.082 -12.409  1.00 33.78 LIG 0.18  C 
BRANCH 31 32
ATOM     32  CB  LEU E   1       0.788  -6.489 -13.780  1.00 32.47 LIG 0.04  C 
BRANCH 32 33
ATOM     33  CG  LEU E   1      -0.352  -7.180 -14.539  1.00 32.32 LIG-0.02  C 
ATOM     34  CD1 LEU E   1      -1.583  -7.309 -13.650  1.00 30.19 LIG 0.01  C 
ATOM     35  CD2 LEU E   1      -0.671  -6.452 -15.847  1.00 31.57 LIG 0.01  C 
ENDBRANCH 32 33
ENDBRANCH 31 32
BRANCH 31 36
ATOM     36  N   LEU E   1       0.268  -6.507 -11.366  1.00 33.92 LIG-0.35  N 
ATOM     37  C   GLN E   0      -0.044  -7.202 -10.274  1.00 32.69 LIG 0.24  C 
ATOM     38 O    GLN E   0       0.288  -8.378 -10.106  1.00 35.54 LIG-0.27  OA
ATOM     39 H    LEU E   1      -0.002  -5.706 -11.524  1.00 33.92 LIG 0.16  HD
BRANCH 37 40
ATOM     40  CA  GLN E   0      -0.845  -6.473  -9.214  1.00 31.66 LIG 0.18  C 
BRANCH 40 41
ATOM     41  N   GLN E   0      -1.266  -7.421  -8.135  1.00 30.66 LIG-0.35  N 
ATOM     42  C   ACE E  -1      -2.117  -7.101  -7.154  1.00 29.47 LIG 0.21  C 
ATOM     43 O    ACE E  -1      -2.914  -6.175  -7.200  1.00 28.51 LIG-0.27  OA
ATOM     44  CH3 ACE E  -1      -2.094  -8.009  -5.950  1.00 29.76 LIG 0.12  C 
ATOM     45 H    GLN E   0      -0.907  -8.199  -8.206  1.00 30.66 LIG 0.16  HD
ENDBRANCH 40 41
BRANCH 40 46
ATOM     46  CB  GLN E   0      -0.013  -5.319  -8.628  1.00 31.02 LIG 0.04  C 
BRANCH 46 47
ATOM     47  CG  GLN E   0      -0.023  -4.028  -9.447  1.00 30.22 LIG 0.10  C 
BRANCH 47 48
ATOM     48  CD  GLN E   0      -1.149  -3.080  -9.057  1.00 30.34 LIG 0.21  C 
ATOM     49 OE1  GLN E   0      -2.332  -3.446  -9.075  1.00 29.98 LIG-0.27  OA
ATOM     50  NE2 GLN E   0      -0.788  -1.855  -8.700  1.00 28.66 LIG-0.37  N 
ATOM     51 21HE GLN E   0       0.043  -1.635  -8.699  1.00 28.66 LIG 0.16  HD
ATOM     52 22HE GLN E   0      -1.386  -1.280  -8.470  1.00 28.66 LIG 0.16  HD
ENDBRANCH 47 48
ENDBRANCH 46 47
ENDBRANCH 40 46
ENDBRANCH 37 40
ENDBRANCH 31 36
ENDBRANCH 1 31
TORSDOF 19
ENDMDL
MODEL 34
USER: ADFR SOLUTION from run 124
USER: SCORE 15.562229 LL:  -4.145 LR: -13.532 RR:   0.000 FEB:  -7.864
USER: RMSD 10.736385
USER: SEED 123
USER: STATUS no improvement in best in 8 clusters for 5 generations
USER: GENES 21
USER: genes 0 Translation |==|  0.61941 0.50262 0.52390
USER: genes 1 Rotation |==|  0.27754 0.94742 0.51788 0.50349
USER: genes 2 Torsion [C]-N--CA-[CB] |==|  0.48333
USER: genes 3 Torsion [N]-CA--C-[N] |==|  0.35006
USER: genes 4 Torsion [C]-N--CA-[CB] |==|  0.49028
USER: genes 5 Torsion [N]-CA--C-[N] |==|  0.45397
USER: genes 6 Torsion [C]-N--CA-[C] |==|  0.57189
USER: genes 7 Torsion [N]-CA--C-[OXT] |==|  0.14088
USER: genes 8 Torsion [N]-CA--CB-[CG] |==|  0.11003
USER: genes 9 Torsion [CA]-CB--CG-[CD1] |==|  0.78773
USER: genes 10 Torsion [N]-CA--CB-[CG] |==|  0.59590
USER: genes 11 Torsion [CA]-CB--CG-[CD2] |==|  0.67174
USER: genes 12 Torsion [N]-C--CA-[N] |==|  0.17671
USER: genes 13 Torsion [C]-CA--CB-[CG] |==|  0.38965
USER: genes 14 Torsion [CA]-CB--CG-[CD1] |==|  0.61537
USER: genes 15 Torsion [C]-CA--N-[C] |==|  0.61802
USER: genes 16 Torsion [N]-C--CA-[N] |==|  0.21619
USER: genes 17 Torsion [C]-CA--N-[C] |==|  0.77748
USER: genes 18 Torsion [C]-CA--CB-[CG] |==|  0.32167
USER: genes 19 Torsion [CA]-CB--CG-[CD] |==|  0.28177
USER: genes 20 Torsion [CB]-CG--CD-[OE1] |==|  0.38944
ROOT
ATOM      1  C   LEU E   1       6.713  -4.976 -12.431  1.00 34.74 LIG 0.24  C 
ATOM      2 O    LEU E   1       6.151  -4.474 -13.399  1.00 33.94 LIG-0.27  OA
ATOM      3  N   ALA E   2       6.553  -6.249 -12.075  1.00 36.28 LIG-0.35  N 
ATOM      4 H    ALA E   2       6.958  -6.610 -11.407  1.00 36.28 LIG 0.16  HD
ENDROOT
BRANCH 3 5
ATOM      5  CA  ALA E   2       5.663  -7.162 -12.796  1.00 35.94 LIG 0.17  C 
ATOM      6  CB  ALA E   2       5.800  -8.578 -12.252  1.00 33.95 LIG 0.04  C 
BRANCH 5 7
ATOM      7  C   ALA E   2       4.219  -6.678 -12.680  1.00 35.46 LIG 0.24  C 
ATOM      8 O    ALA E   2       3.732  -6.450 -11.572  1.00 34.79 LIG-0.27  OA
ATOM      9  N   LEU E   3       3.548  -6.507 -13.824  1.00 35.08 LIG-0.35  N 
ATOM     10 H    LEU E   3       3.910  -6.564 -14.602  1.00 35.08 LIG 0.16  HD
BRANCH 9 11
ATOM     11  CA  LEU E   3       2.104  -6.202 -13.849  1.00 35.40 LIG 0.18  C 
BRANCH 11 12
ATOM     12  C   LEU E   3       1.267  -7.313 -13.218  1.00 36.56 LIG 0.24  C 
ATOM     13  N   PHE E   4       0.019  -6.974 -12.892  1.00 37.64 LIG-0.34  N 
ATOM     14 H    PHE E   4      -0.309  -6.197 -13.059  1.00 37.64 LIG 0.16  HD
ATOM     15 O    LEU E   3       1.754  -8.425 -13.012  1.00 36.99 LIG-0.27  OA
BRANCH 13 16
ATOM     16  CA  PHE E   4      -0.924  -7.862 -12.225  1.00 39.79 LIG 0.19  C 
BRANCH 16 17
ATOM     17  C   PHE E   4      -2.360  -7.440 -12.573  1.00 40.57 LIG 0.20  C 
ATOM     18 OXT  PHE E   4      -2.693  -7.269 -13.739  1.00 44.77 LIG-0.65  OA
ATOM     19 O    PHE E   4      -3.243  -7.269 -11.721  1.00 38.71 LIG-0.65  OA
ENDBRANCH 16 17
BRANCH 16 20
ATOM     20  CB  PHE E   4      -0.717  -7.829 -10.703  1.00 41.62 LIG 0.07  C 
BRANCH 20 21
ATOM     21  CG  PHE E   4      -0.424  -6.456 -10.162  1.00 42.37 LIG-0.06  A 
ATOM     22  CD1 PHE E   4       0.844  -5.884 -10.320  1.00 43.46 LIG 0.01  A 
ATOM     23  CE1 PHE E   4       1.125  -4.626  -9.813  1.00 44.96 LIG 0.00  A 
ATOM     24  CZ  PHE E   4       0.135  -3.926  -9.134  1.00 45.96 LIG 0.00  A 
ATOM     25  CE2 PHE E   4      -1.134  -4.480  -8.973  1.00 43.80 LIG 0.00  A 
ATOM     26  CD2 PHE E   4      -1.406  -5.739  -9.487  1.00 42.63 LIG 0.01  A 
ENDBRANCH 20 21
ENDBRANCH 16 20
ENDBRANCH 13 16
ENDBRANCH 11 12
BRANCH 11 27
ATOM     27  CB  LEU E   3       1.603  -5.971 -15.281  1.00 33.50 LIG 0.04  C 
BRANCH 27 28
ATOM     28  CG  LEU E   3       0.503  -4.957 -15.600  1.00 34.48 LIG-0.02  C 
ATOM     29  CD2 LEU E   3      -0.726  -5.611 -16.206  1.00 30.77 LIG 0.01  C 
ATOM     30  CD1 LEU E   3       1.053  -3.893 -16.546  1.00 32.68 LIG 0.01  C 
ENDBRANCH 27 28
ENDBRANCH 11 27
ENDBRANCH 9 11
ENDBRANCH 5 7
ENDBRANCH 3 5
BRANCH 1 31
ATOM     31  CA  LEU E   1       7.664  -4.148 -11.570  1.00 33.78 LIG 0.18  C 
BRANCH 31 32
ATOM     32  CB  LEU E   1       7.611  -2.673 -11.971  1.00 32.47 LIG 0.04  C 
BRANCH 32 33
ATOM     33  CG  LEU E   1       7.662  -1.670 -10.810  1.00 32.32 LIG-0.02  C 
ATOM     34  CD1 LEU E   1       6.676  -0.531 -11.047  1.00 30.19 LIG 0.01  C 
ATOM     35  CD2 LEU E   1       7.418  -2.361  -9.467  1.00 31.57 LIG 0.01  C 
ENDBRANCH 32 33
ENDBRANCH 31 32
BRANCH 31 36
ATOM     36  N   LEU E   1       9.033  -4.664 -11.644  1.00 33.92 LIG-0.35  N 
ATOM     37  C   GLN E   0       9.790  -4.764 -10.553  1.00 32.69 LIG 0.24  C 
ATOM     38 O    GLN E   0       9.430  -4.362  -9.444  1.00 35.54 LIG-0.27  OA
ATOM     39 H    LEU E   1       9.290  -4.888 -12.434  1.00 33.92 LIG 0.16  HD
BRANCH 37 40
ATOM     40  CA  GLN E   0      11.150  -5.409 -10.730  1.00 31.66 LIG 0.18  C 
BRANCH 40 41
ATOM     41  N   GLN E   0      12.110  -4.441 -11.346  1.00 30.66 LIG-0.35  N 
ATOM     42  C   ACE E  -1      12.157  -4.171 -12.655  1.00 29.47 LIG 0.21  C 
ATOM     43 O    ACE E  -1      11.242  -4.374 -13.441  1.00 28.51 LIG-0.27  OA
ATOM     44  CH3 ACE E  -1      13.429  -3.520 -13.141  1.00 29.76 LIG 0.12  C 
ATOM     45 H    GLN E   0      12.634  -4.069 -10.775  1.00 30.66 LIG 0.16  HD
ENDBRANCH 40 41
BRANCH 40 46
ATOM     46  CB  GLN E   0      11.677  -5.904  -9.372  1.00 31.02 LIG 0.04  C 
BRANCH 46 47
ATOM     47  CG  GLN E   0      11.852  -7.418  -9.256  1.00 30.22 LIG 0.10  C 
BRANCH 47 48
ATOM     48  CD  GLN E   0      13.299  -7.868  -9.407  1.00 30.34 LIG 0.21  C 
ATOM     49 OE1  GLN E   0      13.769  -8.769  -8.700  1.00 29.98 LIG-0.27  OA
ATOM     50  NE2 GLN E   0      14.014  -7.243 -10.332  1.00 28.66 LIG-0.37  N 
ATOM     51 21HE GLN E   0      13.656  -6.621 -10.806  1.00 28.66 LIG 0.16  HD
ATOM     52 22HE GLN E   0      14.838  -7.459 -10.459  1.00 28.66 LIG 0.16  HD
ENDBRANCH 47 48
ENDBRANCH 46 47
ENDBRANCH 40 46
ENDBRANCH 37 40
ENDBRANCH 31 36
ENDBRANCH 1 31
TORSDOF 19
ENDMDL
MODEL 35
USER: ADFR SOLUTION from run 144
USER: SCORE 16.607379 LL:  -4.465 LR: -13.532 RR:   0.000 FEB:  -7.864
USER: RMSD 4.874402
USER: SEED 143
USER: STATUS no improvement in best in 12 clusters for 5 generations
USER: GENES 21
USER: genes 0 Translation |==|  0.46982 0.43619 0.59081
USER: genes 1 Rotation |==|  0.32891 0.66538 0.34762 0.91250
USER: genes 2 Torsion [C]-N--CA-[CB] |==|  0.51069
USER: genes 3 Torsion [N]-CA--C-[N] |==|  0.27438
USER: genes 4 Torsion [C]-N--CA-[CB] |==|  0.17841
USER: genes 5 Torsion [N]-CA--C-[N] |==|  0.08526
USER: genes 6 Torsion [C]-N--CA-[C] |==|  0.64989
USER: genes 7 Torsion [N]-CA--C-[OXT] |==|  0.45800
USER: genes 8 Torsion [N]-CA--CB-[CG] |==|  0.78015
USER: genes 9 Torsion [CA]-CB--CG-[CD1] |==|  0.17993
USER: genes 10 Torsion [N]-CA--CB-[CG] |==|  0.69851
USER: genes 11 Torsion [CA]-CB--CG-[CD2] |==|  0.73107
USER: genes 12 Torsion [N]-C--CA-[N] |==|  0.85803
USER: genes 13 Torsion [C]-CA--CB-[CG] |==|  0.36539
USER: genes 14 Torsion [CA]-CB--CG-[CD1] |==|  0.86373
USER: genes 15 Torsion [C]-CA--N-[C] |==|  0.88787
USER: genes 16 Torsion [N]-C--CA-[N] |==|  0.03861
USER: genes 17 Torsion [C]-CA--N-[C] |==|  0.70946
USER: genes 18 Torsion [C]-CA--CB-[CG] |==|  0.69761
USER: genes 19 Torsion [CA]-CB--CG-[CD] |==|  0.39357
USER: genes 20 Torsion [CB]-CG--CD-[OE1] |==|  0.00094
ROOT
ATOM      1  C   LEU E   1       2.898  -6.072 -11.327  1.00 34.74 LIG 0.24  C 
ATOM      2 O    LEU E   1       3.844  -5.290 -11.299  1.00 33.94 LIG-0.27  OA
ATOM      3  N   ALA E   2       3.046  -7.388 -11.463  1.00 36.28 LIG-0.35  N 
ATOM      4 H    ALA E   2       2.388  -7.942 -11.466  1.00 36.28 LIG 0.16  HD
ENDROOT
BRANCH 3 5
ATOM      5  CA  ALA E   2       4.358  -8.020 -11.624  1.00 35.94 LIG 0.17  C 
ATOM      6  CB  ALA E   2       4.201  -9.519 -11.851  1.00 33.95 LIG 0.04  C 
BRANCH 5 7
ATOM      7  C   ALA E   2       5.106  -7.374 -12.787  1.00 35.46 LIG 0.24  C 
ATOM      8 O    ALA E   2       4.853  -7.708 -13.945  1.00 34.79 LIG-0.27  OA
ATOM      9  N   LEU E   3       6.013  -6.443 -12.475  1.00 35.08 LIG-0.35  N 
ATOM     10 H    LEU E   3       6.124  -6.131 -11.681  1.00 35.08 LIG 0.16  HD
BRANCH 9 11
ATOM     11  CA  LEU E   3       6.918  -5.859 -13.486  1.00 35.40 LIG 0.18  C 
BRANCH 11 12
ATOM     12  C   LEU E   3       7.958  -4.929 -12.862  1.00 36.56 LIG 0.24  C 
ATOM     13  N   PHE E   4       8.333  -5.241 -11.621  1.00 37.64 LIG-0.34  N 
ATOM     14 H    PHE E   4       8.043  -5.939 -11.211  1.00 37.64 LIG 0.16  HD
ATOM     15 O    LEU E   3       8.375  -3.949 -13.481  1.00 36.99 LIG-0.27  OA
BRANCH 13 16
ATOM     16  CA  PHE E   4       9.263  -4.453 -10.824  1.00 39.79 LIG 0.19  C 
BRANCH 16 17
ATOM     17  C   PHE E   4      10.405  -5.355 -10.329  1.00 40.57 LIG 0.20  C 
ATOM     18 OXT  PHE E   4      11.435  -4.865  -9.880  1.00 44.77 LIG-0.65  OA
ATOM     19 O    PHE E   4      10.347  -6.592 -10.339  1.00 38.71 LIG-0.65  OA
ENDBRANCH 16 17
BRANCH 16 20
ATOM     20  CB  PHE E   4       8.543  -3.809  -9.629  1.00 41.62 LIG 0.07  C 
BRANCH 20 21
ATOM     21  CG  PHE E   4       7.760  -2.576  -9.988  1.00 42.37 LIG-0.06  A 
ATOM     22  CD1 PHE E   4       6.656  -2.658 -10.846  1.00 43.46 LIG 0.01  A 
ATOM     23  CE1 PHE E   4       5.939  -1.525 -11.192  1.00 44.96 LIG 0.00  A 
ATOM     24  CZ  PHE E   4       6.324  -0.290 -10.684  1.00 45.96 LIG 0.00  A 
ATOM     25  CE2 PHE E   4       7.418  -0.193  -9.825  1.00 43.80 LIG 0.00  A 
ATOM     26  CD2 PHE E   4       8.128  -1.334  -9.483  1.00 42.63 LIG 0.01  A 
ENDBRANCH 20 21
ENDBRANCH 16 20
ENDBRANCH 13 16
ENDBRANCH 11 12
BRANCH 11 27
ATOM     27  CB  LEU E   3       6.140  -5.072 -14.548  1.00 33.50 LIG 0.04  C 
BRANCH 27 28
ATOM     28  CG  LEU E   3       5.982  -5.584 -15.981  1.00 34.48 LIG-0.02  C 
ATOM     29  CD2 LEU E   3       7.004  -4.979 -16.927  1.00 30.77 LIG 0.01  C 
ATOM     30  CD1 LEU E   3       4.568  -5.286 -16.473  1.00 32.68 LIG 0.01  C 
ENDBRANCH 27 28
ENDBRANCH 11 27
ENDBRANCH 9 11
ENDBRANCH 5 7
ENDBRANCH 3 5
BRANCH 1 31
ATOM     31  CA  LEU E   1       1.466  -5.564 -11.185  1.00 33.78 LIG 0.18  C 
BRANCH 31 32
ATOM     32  CB  LEU E   1       0.903  -5.911  -9.806  1.00 32.47 LIG 0.04  C 
BRANCH 32 33
ATOM     33  CG  LEU E   1       0.221  -4.757  -9.059  1.00 32.32 LIG-0.02  C 
ATOM     34  CD1 LEU E   1       1.111  -3.519  -9.066  1.00 30.19 LIG 0.01  C 
ATOM     35  CD2 LEU E   1      -1.164  -4.462  -9.638  1.00 31.57 LIG 0.01  C 
ENDBRANCH 32 33
ENDBRANCH 31 32
BRANCH 31 36
ATOM     36  N   LEU E   1       0.609  -6.090 -12.251  1.00 33.92 LIG-0.35  N 
ATOM     37  C   GLN E   0       1.049  -6.184 -13.503  1.00 32.69 LIG 0.24  C 
ATOM     38 O    GLN E   0       2.154  -5.769 -13.862  1.00 35.54 LIG-0.27  OA
ATOM     39 H    LEU E   1      -0.179  -6.323 -11.996  1.00 33.92 LIG 0.16  HD
BRANCH 37 40
ATOM     40  CA  GLN E   0       0.116  -6.839 -14.502  1.00 31.66 LIG 0.18  C 
BRANCH 40 41
ATOM     41  N   GLN E   0      -1.262  -6.951 -13.931  1.00 30.66 LIG-0.35  N 
ATOM     42  C   ACE E  -1      -1.790  -8.094 -13.480  1.00 29.47 LIG 0.21  C 
ATOM     43 O    ACE E  -1      -1.141  -9.073 -13.139  1.00 28.51 LIG-0.27  OA
ATOM     44  CH3 ACE E  -1      -3.293  -8.109 -13.345  1.00 29.76 LIG 0.12  C 
ATOM     45 H    GLN E   0      -1.688  -6.204 -13.921  1.00 30.66 LIG 0.16  HD
ENDBRANCH 40 41
BRANCH 40 46
ATOM     46  CB  GLN E   0       0.098  -6.033 -15.811  1.00 31.02 LIG 0.04  C 
BRANCH 46 47
ATOM     47  CG  GLN E   0      -1.196  -5.264 -16.083  1.00 30.22 LIG 0.10  C 
BRANCH 47 48
ATOM     48  CD  GLN E   0      -0.959  -3.897 -16.712  1.00 30.34 LIG 0.21  C 
ATOM     49 OE1  GLN E   0       0.185  -3.496 -16.965  1.00 29.98 LIG-0.27  OA
ATOM     50  NE2 GLN E   0      -2.040  -3.174 -16.969  1.00 28.66 LIG-0.37  N 
ATOM     51 21HE GLN E   0      -2.820  -3.483 -16.780  1.00 28.66 LIG 0.16  HD
ATOM     52 22HE GLN E   0      -1.962  -2.394 -17.325  1.00 28.66 LIG 0.16  HD
ENDBRANCH 47 48
ENDBRANCH 46 47
ENDBRANCH 40 46
ENDBRANCH 37 40
ENDBRANCH 31 36
ENDBRANCH 1 31
TORSDOF 19
ENDMDL
MODEL 36
USER: ADFR SOLUTION from run 38
USER: SCORE 15.271131 LL:  -4.017 LR: -13.508 RR:   0.000 FEB:  -7.840
USER: RMSD 11.443104
USER: SEED 37
USER: STATUS searching
USER: GENES 21
USER: genes 0 Translation |==|  0.61408 0.52683 0.54436
USER: genes 1 Rotation |==|  0.43640 0.93741 0.27631 0.56778
USER: genes 2 Torsion [C]-N--CA-[CB] |==|  0.20883
USER: genes 3 Torsion [N]-CA--C-[N] |==|  0.53945
USER: genes 4 Torsion [C]-N--CA-[CB] |==|  0.14547
USER: genes 5 Torsion [N]-CA--C-[N] |==|  0.64374
USER: genes 6 Torsion [C]-N--CA-[C] |==|  0.66616
USER: genes 7 Torsion [N]-CA--C-[OXT] |==|  0.08783
USER: genes 8 Torsion [N]-CA--CB-[CG] |==|  0.90402
USER: genes 9 Torsion [CA]-CB--CG-[CD1] |==|  0.33867
USER: genes 10 Torsion [N]-CA--CB-[CG] |==|  0.67938
USER: genes 11 Torsion [CA]-CB--CG-[CD2] |==|  0.90428
USER: genes 12 Torsion [N]-C--CA-[N] |==|  0.36742
USER: genes 13 Torsion [C]-CA--CB-[CG] |==|  0.28928
USER: genes 14 Torsion [CA]-CB--CG-[CD1] |==|  0.23061
USER: genes 15 Torsion [C]-CA--N-[C] |==|  0.53957
USER: genes 16 Torsion [N]-C--CA-[N] |==|  0.82778
USER: genes 17 Torsion [C]-CA--N-[C] |==|  0.74871
USER: genes 18 Torsion [C]-CA--CB-[CG] |==|  0.33753
USER: genes 19 Torsion [CA]-CB--CG-[CD] |==|  0.34896
USER: genes 20 Torsion [CB]-CG--CD-[OE1] |==|  0.50393
ROOT
ATOM      1  C   LEU E   1       6.577  -4.576 -12.093  1.00 34.74 LIG 0.24  C 
ATOM      2 O    LEU E   1       6.878  -4.934 -13.228  1.00 33.94 LIG-0.27  OA
ATOM      3  N   ALA E   2       5.467  -4.973 -11.475  1.00 36.28 LIG-0.35  N 
ATOM      4 H    ALA E   2       5.260  -4.739 -10.673  1.00 36.28 LIG 0.16  HD
ENDROOT
BRANCH 3 5
ATOM      5  CA  ALA E   2       4.484  -5.854 -12.110  1.00 35.94 LIG 0.17  C 
ATOM      6  CB  ALA E   2       5.001  -7.286 -12.149  1.00 33.95 LIG 0.04  C 
BRANCH 5 7
ATOM      7  C   ALA E   2       3.158  -5.780 -11.358  1.00 35.46 LIG 0.24  C 
ATOM      8 O    ALA E   2       2.952  -4.866 -10.558  1.00 34.79 LIG-0.27  OA
ATOM      9  N   LEU E   3       2.259  -6.732 -11.629  1.00 35.08 LIG-0.35  N 
ATOM     10 H    LEU E   3       2.352  -7.311 -12.257  1.00 35.08 LIG 0.16  HD
BRANCH 9 11
ATOM     11  CA  LEU E   3       1.006  -6.871 -10.858  1.00 35.40 LIG 0.18  C 
BRANCH 11 12
ATOM     12  C   LEU E   3       0.082  -7.936 -11.445  1.00 36.56 LIG 0.24  C 
ATOM     13  N   PHE E   4      -1.172  -7.543 -11.673  1.00 37.64 LIG-0.34  N 
ATOM     14 H    PHE E   4      -1.436  -6.736 -11.538  1.00 37.64 LIG 0.16  HD
ATOM     15 O    LEU E   3       0.493  -9.079 -11.652  1.00 36.99 LIG-0.27  OA
BRANCH 13 16
ATOM     16  CA  PHE E   4      -2.227  -8.416 -12.169  1.00 39.79 LIG 0.19  C 
BRANCH 16 17
ATOM     17  C   PHE E   4      -2.759  -7.868 -13.503  1.00 40.57 LIG 0.20  C 
ATOM     18 OXT  PHE E   4      -2.018  -7.261 -14.267  1.00 44.77 LIG-0.65  OA
ATOM     19 O    PHE E   4      -3.929  -8.019 -13.880  1.00 38.71 LIG-0.65  OA
ENDBRANCH 16 17
BRANCH 16 20
ATOM     20  CB  PHE E   4      -3.369  -8.523 -11.147  1.00 41.62 LIG 0.07  C 
BRANCH 20 21
ATOM     21  CG  PHE E   4      -2.906  -8.481  -9.717  1.00 42.37 LIG-0.06  A 
ATOM     22  CD1 PHE E   4      -3.385  -7.498  -8.842  1.00 43.46 LIG 0.01  A 
ATOM     23  CE1 PHE E   4      -2.953  -7.445  -7.528  1.00 44.96 LIG 0.00  A 
ATOM     24  CZ  PHE E   4      -2.028  -8.377  -7.073  1.00 45.96 LIG 0.00  A 
ATOM     25  CE2 PHE E   4      -1.546  -9.364  -7.931  1.00 43.80 LIG 0.00  A 
ATOM     26  CD2 PHE E   4      -1.986  -9.411  -9.245  1.00 42.63 LIG 0.01  A 
ENDBRANCH 20 21
ENDBRANCH 16 20
ENDBRANCH 13 16
ENDBRANCH 11 12
BRANCH 11 27
ATOM     27  CB  LEU E   3       0.237  -5.546 -10.792  1.00 33.50 LIG 0.04  C 
BRANCH 27 28
ATOM     28  CG  LEU E   3       0.006  -4.809  -9.471  1.00 34.48 LIG-0.02  C 
ATOM     29  CD2 LEU E   3      -0.184  -5.761  -8.304  1.00 30.77 LIG 0.01  C 
ATOM     30  CD1 LEU E   3      -1.207  -3.893  -9.606  1.00 32.68 LIG 0.01  C 
ENDBRANCH 27 28
ENDBRANCH 11 27
ENDBRANCH 9 11
ENDBRANCH 5 7
ENDBRANCH 3 5
BRANCH 1 31
ATOM     31  CA  LEU E   1       7.494  -3.646 -11.304  1.00 33.78 LIG 0.18  C 
BRANCH 31 32
ATOM     32  CB  LEU E   1       7.357  -2.205 -11.798  1.00 32.47 LIG 0.04  C 
BRANCH 32 33
ATOM     33  CG  LEU E   1       6.544  -1.269 -10.893  1.00 32.32 LIG-0.02  C 
ATOM     34  CD1 LEU E   1       7.418  -0.723  -9.770  1.00 30.19 LIG 0.01  C 
ATOM     35  CD2 LEU E   1       5.890  -0.145 -11.700  1.00 31.57 LIG 0.01  C 
ENDBRANCH 32 33
ENDBRANCH 31 32
BRANCH 31 36
ATOM     36  N   LEU E   1       8.888  -4.093 -11.368  1.00 33.92 LIG-0.35  N 
ATOM     37  C   GLN E   0       9.805  -3.605 -10.536  1.00 32.69 LIG 0.24  C 
ATOM     38 O    GLN E   0       9.570  -2.704  -9.727  1.00 35.54 LIG-0.27  OA
ATOM     39 H    LEU E   1       9.049  -4.682 -11.975  1.00 33.92 LIG 0.16  HD
BRANCH 37 40
ATOM     40  CA  GLN E   0      11.190  -4.215 -10.621  1.00 31.66 LIG 0.18  C 
BRANCH 40 41
ATOM     41  N   GLN E   0      11.139  -5.671 -10.280  1.00 30.66 LIG-0.35  N 
ATOM     42  C   ACE E  -1      11.296  -6.152  -9.042  1.00 29.47 LIG 0.21  C 
ATOM     43 O    ACE E  -1      11.138  -5.501  -8.018  1.00 28.51 LIG-0.27  OA
ATOM     44  CH3 ACE E  -1      11.635  -7.619  -8.950  1.00 29.76 LIG 0.12  C 
ATOM     45 H    GLN E   0      10.998  -6.176 -10.961  1.00 30.66 LIG 0.16  HD
ENDBRANCH 40 41
BRANCH 40 46
ATOM     46  CB  GLN E   0      11.770  -4.008 -12.030  1.00 31.02 LIG 0.04  C 
BRANCH 46 47
ATOM     47  CG  GLN E   0      13.092  -3.242 -12.083  1.00 30.22 LIG 0.10  C 
BRANCH 47 48
ATOM     48  CD  GLN E   0      14.190  -3.992 -12.825  1.00 30.34 LIG 0.21  C 
ATOM     49 OE1  GLN E   0      15.329  -3.519 -12.934  1.00 29.98 LIG-0.27  OA
ATOM     50  NE2 GLN E   0      13.855  -5.168 -13.338  1.00 28.66 LIG-0.37  N 
ATOM     51 21HE GLN E   0      13.054  -5.466 -13.243  1.00 28.66 LIG 0.16  HD
ATOM     52 22HE GLN E   0      14.439  -5.633 -13.767  1.00 28.66 LIG 0.16  HD
ENDBRANCH 47 48
ENDBRANCH 46 47
ENDBRANCH 40 46
ENDBRANCH 37 40
ENDBRANCH 31 36
ENDBRANCH 1 31
TORSDOF 19
ENDMDL
MODEL 37
USER: ADFR SOLUTION from run 198
USER: SCORE 15.066698 LL:  -4.466 LR: -13.427 RR:   0.000 FEB:  -7.759
USER: RMSD 3.304621
USER: SEED 197
USER: STATUS no improvement in best in 20 clusters for 5 generations
USER: GENES 21
USER: genes 0 Translation |==|  0.44088 0.46672 0.60308
USER: genes 1 Rotation |==|  0.46190 0.65597 0.37517 0.95677
USER: genes 2 Torsion [C]-N--CA-[CB] |==|  0.50607
USER: genes 3 Torsion [N]-CA--C-[N] |==|  0.25047
USER: genes 4 Torsion [C]-N--CA-[CB] |==|  0.45026
USER: genes 5 Torsion [N]-CA--C-[N] |==|  0.90722
USER: genes 6 Torsion [C]-N--CA-[C] |==|  0.48355
USER: genes 7 Torsion [N]-CA--C-[OXT] |==|  0.44191
USER: genes 8 Torsion [N]-CA--CB-[CG] |==|  0.31592
USER: genes 9 Torsion [CA]-CB--CG-[CD1] |==|  0.75277
USER: genes 10 Torsion [N]-CA--CB-[CG] |==|  0.51369
USER: genes 11 Torsion [CA]-CB--CG-[CD2] |==|  0.71275
USER: genes 12 Torsion [N]-C--CA-[N] |==|  0.03210
USER: genes 13 Torsion [C]-CA--CB-[CG] |==|  0.52639
USER: genes 14 Torsion [CA]-CB--CG-[CD1] |==|  0.35239
USER: genes 15 Torsion [C]-CA--N-[C] |==|  0.20040
USER: genes 16 Torsion [N]-C--CA-[N] |==|  0.13153
USER: genes 17 Torsion [C]-CA--N-[C] |==|  0.62820
USER: genes 18 Torsion [C]-CA--CB-[CG] |==|  0.72983
USER: genes 19 Torsion [CA]-CB--CG-[CD] |==|  0.16243
USER: genes 20 Torsion [CB]-CG--CD-[OE1] |==|  0.68755
ROOT
ATOM      1  C   LEU E   1       2.160  -5.568 -11.124  1.00 34.74 LIG 0.24  C 
ATOM      2 O    LEU E   1       3.048  -4.977 -10.517  1.00 33.94 LIG-0.27  OA
ATOM      3  N   ALA E   2       2.384  -6.646 -11.874  1.00 36.28 LIG-0.35  N 
ATOM      4 H    ALA E   2       1.764  -7.073 -12.288  1.00 36.28 LIG 0.16  HD
ENDROOT
BRANCH 3 5
ATOM      5  CA  ALA E   2       3.724  -7.207 -12.065  1.00 35.94 LIG 0.17  C 
ATOM      6  CB  ALA E   2       3.670  -8.399 -13.011  1.00 33.95 LIG 0.04  C 
BRANCH 5 7
ATOM      7  C   ALA E   2       4.665  -6.132 -12.604  1.00 35.46 LIG 0.24  C 
ATOM      8 O    ALA E   2       4.774  -5.962 -13.819  1.00 34.79 LIG-0.27  OA
ATOM      9  N   LEU E   3       5.326  -5.403 -11.700  1.00 35.08 LIG-0.35  N 
ATOM     10 H    LEU E   3       5.180  -5.445 -10.854  1.00 35.08 LIG 0.16  HD
BRANCH 9 11
ATOM     11  CA  LEU E   3       6.384  -4.446 -12.084  1.00 35.40 LIG 0.18  C 
BRANCH 11 12
ATOM     12  C   LEU E   3       7.692  -5.146 -12.448  1.00 36.56 LIG 0.24  C 
ATOM     13  N   PHE E   4       7.952  -6.263 -11.767  1.00 37.64 LIG-0.34  N 
ATOM     14 H    PHE E   4       7.406  -6.592 -11.191  1.00 37.64 LIG 0.16  HD
ATOM     15 O    LEU E   3       8.446  -4.666 -13.295  1.00 36.99 LIG-0.27  OA
BRANCH 13 16
ATOM     16  CA  PHE E   4       9.171  -7.047 -11.915  1.00 39.79 LIG 0.19  C 
BRANCH 16 17
ATOM     17  C   PHE E   4       9.184  -8.174 -10.870  1.00 40.57 LIG 0.20  C 
ATOM     18 OXT  PHE E   4       9.885  -9.165 -11.032  1.00 44.77 LIG-0.65  OA
ATOM     19 O    PHE E   4       8.520  -8.139  -9.825  1.00 38.71 LIG-0.65  OA
ENDBRANCH 16 17
BRANCH 16 20
ATOM     20  CB  PHE E   4      10.412  -6.157 -11.748  1.00 41.62 LIG 0.07  C 
BRANCH 20 21
ATOM     21  CG  PHE E   4      11.227  -6.479 -10.526  1.00 42.37 LIG-0.06  A 
ATOM     22  CD1 PHE E   4      10.949  -5.860  -9.301  1.00 43.46 LIG 0.01  A 
ATOM     23  CE1 PHE E   4      11.705  -6.140  -8.175  1.00 44.96 LIG 0.00  A 
ATOM     24  CZ  PHE E   4      12.756  -7.045  -8.265  1.00 45.96 LIG 0.00  A 
ATOM     25  CE2 PHE E   4      13.042  -7.673  -9.476  1.00 43.80 LIG 0.00  A 
ATOM     26  CD2 PHE E   4      12.278  -7.387 -10.597  1.00 42.63 LIG 0.01  A 
ENDBRANCH 20 21
ENDBRANCH 16 20
ENDBRANCH 13 16
ENDBRANCH 11 12
BRANCH 11 27
ATOM     27  CB  LEU E   3       6.668  -3.443 -10.959  1.00 33.50 LIG 0.04  C 
BRANCH 27 28
ATOM     28  CG  LEU E   3       7.642  -2.276 -11.142  1.00 34.48 LIG-0.02  C 
ATOM     29  CD2 LEU E   3       8.977  -2.527 -10.462  1.00 30.77 LIG 0.01  C 
ATOM     30  CD1 LEU E   3       7.008  -0.997 -10.602  1.00 32.68 LIG 0.01  C 
ENDBRANCH 27 28
ENDBRANCH 11 27
ENDBRANCH 9 11
ENDBRANCH 5 7
ENDBRANCH 3 5
BRANCH 1 31
ATOM     31  CA  LEU E   1       0.711  -5.096 -11.036  1.00 33.78 LIG 0.18  C 
BRANCH 31 32
ATOM     32  CB  LEU E   1       0.342  -4.750  -9.593  1.00 32.47 LIG 0.04  C 
BRANCH 32 33
ATOM     33  CG  LEU E   1      -1.147  -4.481  -9.337  1.00 32.32 LIG-0.02  C 
ATOM     34  CD1 LEU E   1      -1.658  -5.353  -8.196  1.00 30.19 LIG 0.01  C 
ATOM     35  CD2 LEU E   1      -1.406  -2.995  -9.075  1.00 31.57 LIG 0.01  C 
ENDBRANCH 32 33
ENDBRANCH 31 32
BRANCH 31 36
ATOM     36  N   LEU E   1      -0.207  -6.094 -11.589  1.00 33.92 LIG-0.35  N 
ATOM     37  C   GLN E   0      -0.457  -7.231 -10.942  1.00 32.69 LIG 0.24  C 
ATOM     38 O    GLN E   0       0.115  -7.551  -9.897  1.00 35.54 LIG-0.27  OA
ATOM     39 H    LEU E   1      -0.556  -5.882 -12.346  1.00 33.92 LIG 0.16  HD
BRANCH 37 40
ATOM     40  CA  GLN E   0      -1.502  -8.142 -11.553  1.00 31.66 LIG 0.18  C 
BRANCH 40 41
ATOM     41  N   GLN E   0      -1.255  -8.309 -13.019  1.00 30.66 LIG-0.35  N 
ATOM     42  C   ACE E  -1      -2.211  -8.219 -13.950  1.00 29.47 LIG 0.21  C 
ATOM     43 O    ACE E  -1      -3.285  -7.654 -13.792  1.00 28.51 LIG-0.27  OA
ATOM     44  CH3 ACE E  -1      -1.874  -8.822 -15.291  1.00 29.76 LIG 0.12  C 
ATOM     45 H    GLN E   0      -0.432  -8.469 -13.210  1.00 30.66 LIG 0.16  HD
ENDBRANCH 40 41
BRANCH 40 46
ATOM     46  CB  GLN E   0      -1.490  -9.506 -10.843  1.00 31.02 LIG 0.04  C 
BRANCH 46 47
ATOM     47  CG  GLN E   0      -0.685 -10.599 -11.547  1.00 30.22 LIG 0.10  C 
BRANCH 47 48
ATOM     48  CD  GLN E   0       0.779 -10.231 -11.747  1.00 30.34 LIG 0.21  C 
ATOM     49 OE1  GLN E   0       1.242 -10.034 -12.879  1.00 29.98 LIG-0.27  OA
ATOM     50  NE2 GLN E   0       1.516 -10.134 -10.650  1.00 28.66 LIG-0.37  N 
ATOM     51 21HE GLN E   0       1.161 -10.277  -9.880  1.00 28.66 LIG 0.16  HD
ATOM     52 22HE GLN E   0       2.349  -9.927 -10.707  1.00 28.66 LIG 0.16  HD
ENDBRANCH 47 48
ENDBRANCH 46 47
ENDBRANCH 40 46
ENDBRANCH 37 40
ENDBRANCH 31 36
ENDBRANCH 1 31
TORSDOF 19
ENDMDL
MODEL 38
USER: ADFR SOLUTION from run 19
USER: SCORE 16.211817 LL:  -4.338 LR: -13.398 RR:   0.000 FEB:  -7.730
USER: RMSD 10.962923
USER: SEED 18
USER: STATUS no improvement in best in 15 clusters for 5 generations
USER: GENES 21
USER: genes 0 Translation |==|  0.60141 0.52123 0.53385
USER: genes 1 Rotation |==|  0.41365 0.95314 0.32224 0.57492
USER: genes 2 Torsion [C]-N--CA-[CB] |==|  0.18061
USER: genes 3 Torsion [N]-CA--C-[N] |==|  0.15613
USER: genes 4 Torsion [C]-N--CA-[CB] |==|  0.56450
USER: genes 5 Torsion [N]-CA--C-[N] |==|  0.76963
USER: genes 6 Torsion [C]-N--CA-[C] |==|  0.58614
USER: genes 7 Torsion [N]-CA--C-[OXT] |==|  0.05003
USER: genes 8 Torsion [N]-CA--CB-[CG] |==|  0.79427
USER: genes 9 Torsion [CA]-CB--CG-[CD1] |==|  0.33576
USER: genes 10 Torsion [N]-CA--CB-[CG] |==|  0.50329
USER: genes 11 Torsion [CA]-CB--CG-[CD2] |==|  0.43982
USER: genes 12 Torsion [N]-C--CA-[N] |==|  0.40757
USER: genes 13 Torsion [C]-CA--CB-[CG] |==|  0.41368
USER: genes 14 Torsion [CA]-CB--CG-[CD1] |==|  0.03267
USER: genes 15 Torsion [C]-CA--N-[C] |==|  0.67735
USER: genes 16 Torsion [N]-C--CA-[N] |==|  0.36533
USER: genes 17 Torsion [C]-CA--N-[C] |==|  0.86061
USER: genes 18 Torsion [C]-CA--CB-[CG] |==|  0.09455
USER: genes 19 Torsion [CA]-CB--CG-[CD] |==|  0.72989
USER: genes 20 Torsion [CB]-CG--CD-[OE1] |==|  0.81224
ROOT
ATOM      1  C   LEU E   1       6.254  -4.669 -12.266  1.00 34.74 LIG 0.24  C 
ATOM      2 O    LEU E   1       6.525  -4.784 -13.458  1.00 33.94 LIG-0.27  OA
ATOM      3  N   ALA E   2       5.228  -5.291 -11.689  1.00 36.28 LIG-0.35  N 
ATOM      4 H    ALA E   2       5.044  -5.227 -10.852  1.00 36.28 LIG 0.16  HD
ENDROOT
BRANCH 3 5
ATOM      5  CA  ALA E   2       4.308  -6.151 -12.437  1.00 35.94 LIG 0.17  C 
ATOM      6  CB  ALA E   2       5.041  -7.376 -12.970  1.00 33.95 LIG 0.04  C 
BRANCH 5 7
ATOM      7  C   ALA E   2       3.143  -6.567 -11.542  1.00 35.46 LIG 0.24  C 
ATOM      8 O    ALA E   2       2.904  -7.762 -11.356  1.00 34.79 LIG-0.27  OA
ATOM      9  N   LEU E   3       2.435  -5.583 -10.980  1.00 35.08 LIG-0.35  N 
ATOM     10 H    LEU E   3       2.655  -4.753 -11.021  1.00 35.08 LIG 0.16  HD
BRANCH 9 11
ATOM     11  CA  LEU E   3       1.191  -5.841 -10.228  1.00 35.40 LIG 0.18  C 
BRANCH 11 12
ATOM     12  C   LEU E   3       0.386  -6.997 -10.820  1.00 36.56 LIG 0.24  C 
ATOM     13  N   PHE E   4      -0.398  -6.680 -11.851  1.00 37.64 LIG-0.34  N 
ATOM     14 H    PHE E   4      -0.422  -5.889 -12.188  1.00 37.64 LIG 0.16  HD
ATOM     15 O    LEU E   3       0.458  -8.126 -10.332  1.00 36.99 LIG-0.27  OA
BRANCH 13 16
ATOM     16  CA  PHE E   4      -1.291  -7.616 -12.519  1.00 39.79 LIG 0.19  C 
BRANCH 16 17
ATOM     17  C   PHE E   4      -1.423  -7.229 -14.001  1.00 40.57 LIG 0.20  C 
ATOM     18 OXT  PHE E   4      -0.598  -6.490 -14.527  1.00 44.77 LIG-0.65  OA
ATOM     19 O    PHE E   4      -2.332  -7.643 -14.733  1.00 38.71 LIG-0.65  OA
ENDBRANCH 16 17
BRANCH 16 20
ATOM     20  CB  PHE E   4      -2.674  -7.618 -11.849  1.00 41.62 LIG 0.07  C 
BRANCH 20 21
ATOM     21  CG  PHE E   4      -2.701  -8.323 -10.521  1.00 42.37 LIG-0.06  A 
ATOM     22  CD1 PHE E   4      -3.088  -7.641  -9.361  1.00 43.46 LIG 0.01  A 
ATOM     23  CE1 PHE E   4      -3.102  -8.279  -8.132  1.00 44.96 LIG 0.00  A 
ATOM     24  CZ  PHE E   4      -2.722  -9.613  -8.050  1.00 45.96 LIG 0.00  A 
ATOM     25  CE2 PHE E   4      -2.338 -10.307  -9.197  1.00 43.80 LIG 0.00  A 
ATOM     26  CD2 PHE E   4      -2.330  -9.659 -10.423  1.00 42.63 LIG 0.01  A 
ENDBRANCH 20 21
ENDBRANCH 16 20
ENDBRANCH 13 16
ENDBRANCH 11 12
BRANCH 11 27
ATOM     27  CB  LEU E   3       0.292  -4.599 -10.184  1.00 33.50 LIG 0.04  C 
BRANCH 27 28
ATOM     28  CG  LEU E   3      -1.046  -4.592  -9.443  1.00 34.48 LIG-0.02  C 
ATOM     29  CD2 LEU E   3      -1.500  -3.189  -9.082  1.00 30.77 LIG 0.01  C 
ATOM     30  CD1 LEU E   3      -0.933  -5.448  -8.184  1.00 32.68 LIG 0.01  C 
ENDBRANCH 27 28
ENDBRANCH 11 27
ENDBRANCH 9 11
ENDBRANCH 5 7
ENDBRANCH 3 5
BRANCH 1 31
ATOM     31  CA  LEU E   1       7.112  -3.794 -11.356  1.00 33.78 LIG 0.18  C 
BRANCH 31 32
ATOM     32  CB  LEU E   1       6.565  -2.367 -11.305  1.00 32.47 LIG 0.04  C 
BRANCH 32 33
ATOM     33  CG  LEU E   1       6.791  -1.619  -9.984  1.00 32.32 LIG-0.02  C 
ATOM     34  CD1 LEU E   1       7.776  -2.379  -9.103  1.00 30.19 LIG 0.01  C 
ATOM     35  CD2 LEU E   1       7.246  -0.179 -10.232  1.00 31.57 LIG 0.01  C 
ENDBRANCH 32 33
ENDBRANCH 31 32
BRANCH 31 36
ATOM     36  N   LEU E   1       8.515  -3.805 -11.778  1.00 33.92 LIG-0.35  N 
ATOM     37  C   GLN E   0       9.466  -4.305 -10.991  1.00 32.69 LIG 0.24  C 
ATOM     38 O    GLN E   0       9.248  -4.710  -9.846  1.00 35.54 LIG-0.27  OA
ATOM     39 H    LEU E   1       8.659  -3.468 -12.557  1.00 33.92 LIG 0.16  HD
BRANCH 37 40
ATOM     40  CA  GLN E   0      10.865  -4.362 -11.571  1.00 31.66 LIG 0.18  C 
BRANCH 40 41
ATOM     41  N   GLN E   0      11.854  -3.793 -10.603  1.00 30.66 LIG-0.35  N 
ATOM     42  C   ACE E  -1      11.709  -2.608 -10.002  1.00 29.47 LIG 0.21  C 
ATOM     43 O    ACE E  -1      10.645  -2.020  -9.870  1.00 28.51 LIG-0.27  OA
ATOM     44  CH3 ACE E  -1      12.966  -2.019  -9.411  1.00 29.76 LIG 0.12  C 
ATOM     45 H    GLN E   0      12.531  -4.305 -10.467  1.00 30.66 LIG 0.16  HD
ENDBRANCH 40 41
BRANCH 40 46
ATOM     46  CB  GLN E   0      11.227  -5.814 -11.927  1.00 31.02 LIG 0.04  C 
BRANCH 46 47
ATOM     47  CG  GLN E   0      10.062  -6.674 -12.418  1.00 30.22 LIG 0.10  C 
BRANCH 47 48
ATOM     48  CD  GLN E   0       9.450  -7.535 -11.321  1.00 30.34 LIG 0.21  C 
ATOM     49 OE1  GLN E   0      10.082  -8.471 -10.812  1.00 29.98 LIG-0.27  OA
ATOM     50  NE2 GLN E   0       8.216  -7.225 -10.950  1.00 28.66 LIG-0.37  N 
ATOM     51 21HE GLN E   0       7.806  -6.568 -11.326  1.00 28.66 LIG 0.16  HD
ATOM     52 22HE GLN E   0       7.824  -7.680 -10.334  1.00 28.66 LIG 0.16  HD
ENDBRANCH 47 48
ENDBRANCH 46 47
ENDBRANCH 40 46
ENDBRANCH 37 40
ENDBRANCH 31 36
ENDBRANCH 1 31
TORSDOF 19
ENDMDL
MODEL 39
USER: ADFR SOLUTION from run 191
USER: SCORE 14.879562 LL:  -3.804 LR: -13.393 RR:   0.000 FEB:  -7.725
USER: RMSD 3.694798
USER: SEED 190
USER: STATUS no improvement in best in 14 clusters for 5 generations
USER: GENES 21
USER: genes 0 Translation |==|  0.44548 0.39425 0.55014
USER: genes 1 Rotation |==|  0.97986 0.50399 0.46316 0.63550
USER: genes 2 Torsion [C]-N--CA-[CB] |==|  0.14667
USER: genes 3 Torsion [N]-CA--C-[N] |==|  0.14400
USER: genes 4 Torsion [C]-N--CA-[CB] |==|  0.46615
USER: genes 5 Torsion [N]-CA--C-[N] |==|  0.88050
USER: genes 6 Torsion [C]-N--CA-[C] |==|  0.54172
USER: genes 7 Torsion [N]-CA--C-[OXT] |==|  0.44738
USER: genes 8 Torsion [N]-CA--CB-[CG] |==|  0.48067
USER: genes 9 Torsion [CA]-CB--CG-[CD1] |==|  0.66945
USER: genes 10 Torsion [N]-CA--CB-[CG] |==|  0.63635
USER: genes 11 Torsion [CA]-CB--CG-[CD2] |==|  0.06674
USER: genes 12 Torsion [N]-C--CA-[N] |==|  0.59816
USER: genes 13 Torsion [C]-CA--CB-[CG] |==|  0.52863
USER: genes 14 Torsion [CA]-CB--CG-[CD1] |==|  0.53580
USER: genes 15 Torsion [C]-CA--N-[C] |==|  0.66432
USER: genes 16 Torsion [N]-C--CA-[N] |==|  0.34474
USER: genes 17 Torsion [C]-CA--N-[C] |==|  0.80920
USER: genes 18 Torsion [C]-CA--CB-[CG] |==|  0.81956
USER: genes 19 Torsion [CA]-CB--CG-[CD] |==|  0.27803
USER: genes 20 Torsion [CB]-CG--CD-[OE1] |==|  0.59421
ROOT
ATOM      1  C   LEU E   1       2.278  -6.764 -11.998  1.00 34.74 LIG 0.24  C 
ATOM      2 O    LEU E   1       2.161  -7.883 -12.487  1.00 33.94 LIG-0.27  OA
ATOM      3  N   ALA E   2       3.386  -6.034 -12.106  1.00 36.28 LIG-0.35  N 
ATOM      4 H    ALA E   2       3.467  -5.242 -11.780  1.00 36.28 LIG 0.16  HD
ENDROOT
BRANCH 3 5
ATOM      5  CA  ALA E   2       4.582  -6.517 -12.799  1.00 35.94 LIG 0.17  C 
ATOM      6  CB  ALA E   2       4.227  -6.994 -14.202  1.00 33.95 LIG 0.04  C 
BRANCH 5 7
ATOM      7  C   ALA E   2       5.632  -5.411 -12.856  1.00 35.46 LIG 0.24  C 
ATOM      8 O    ALA E   2       6.138  -5.095 -13.935  1.00 34.79 LIG-0.27  OA
ATOM      9  N   LEU E   3       5.944  -4.817 -11.700  1.00 35.08 LIG-0.35  N 
ATOM     10 H    LEU E   3       5.524  -4.959 -10.963  1.00 35.08 LIG 0.16  HD
BRANCH 9 11
ATOM     11  CA  LEU E   3       7.054  -3.849 -11.588  1.00 35.40 LIG 0.18  C 
BRANCH 11 12
ATOM     12  C   LEU E   3       8.420  -4.519 -11.721  1.00 36.56 LIG 0.24  C 
ATOM     13  N   PHE E   4       8.560  -5.670 -11.062  1.00 37.64 LIG-0.34  N 
ATOM     14 H    PHE E   4       7.916  -6.034 -10.623  1.00 37.64 LIG 0.16  HD
ATOM     15 O    LEU E   3       9.319  -3.988 -12.376  1.00 36.99 LIG-0.27  OA
BRANCH 13 16
ATOM     16  CA  PHE E   4       9.797  -6.437 -11.005  1.00 39.79 LIG 0.19  C 
BRANCH 16 17
ATOM     17  C   PHE E   4       9.498  -7.855 -10.493  1.00 40.57 LIG 0.20  C 
ATOM     18 OXT  PHE E   4      10.294  -8.766 -10.684  1.00 44.77 LIG-0.65  OA
ATOM     19 O    PHE E   4       8.473  -8.146  -9.861  1.00 38.71 LIG-0.65  OA
ENDBRANCH 16 17
BRANCH 16 20
ATOM     20  CB  PHE E   4      10.820  -5.749 -10.088  1.00 41.62 LIG 0.07  C 
BRANCH 20 21
ATOM     21  CG  PHE E   4      12.061  -6.563  -9.848  1.00 42.37 LIG-0.06  A 
ATOM     22  CD1 PHE E   4      12.408  -6.968  -8.553  1.00 43.46 LIG 0.01  A 
ATOM     23  CE1 PHE E   4      13.556  -7.706  -8.322  1.00 44.96 LIG 0.00  A 
ATOM     24  CZ  PHE E   4      14.378  -8.044  -9.390  1.00 45.96 LIG 0.00  A 
ATOM     25  CE2 PHE E   4      14.045  -7.652 -10.686  1.00 43.80 LIG 0.00  A 
ATOM     26  CD2 PHE E   4      12.891  -6.915 -10.907  1.00 42.63 LIG 0.01  A 
ENDBRANCH 20 21
ENDBRANCH 16 20
ENDBRANCH 13 16
ENDBRANCH 11 12
BRANCH 11 27
ATOM     27  CB  LEU E   3       7.011  -3.099 -10.250  1.00 33.50 LIG 0.04  C 
BRANCH 27 28
ATOM     28  CG  LEU E   3       7.122  -1.574 -10.174  1.00 34.48 LIG-0.02  C 
ATOM     29  CD2 LEU E   3       6.695  -0.899 -11.465  1.00 30.77 LIG 0.01  C 
ATOM     30  CD1 LEU E   3       8.557  -1.187  -9.826  1.00 32.68 LIG 0.01  C 
ENDBRANCH 27 28
ENDBRANCH 11 27
ENDBRANCH 9 11
ENDBRANCH 5 7
ENDBRANCH 3 5
BRANCH 1 31
ATOM     31  CA  LEU E   1       1.121  -6.126 -11.232  1.00 33.78 LIG 0.18  C 
BRANCH 31 32
ATOM     32  CB  LEU E   1       1.628  -5.007 -10.320  1.00 32.47 LIG 0.04  C 
BRANCH 32 33
ATOM     33  CG  LEU E   1       0.605  -4.455  -9.318  1.00 32.32 LIG-0.02  C 
ATOM     34  CD1 LEU E   1       1.112  -3.157  -8.700  1.00 30.19 LIG 0.01  C 
ATOM     35  CD2 LEU E   1      -0.768  -4.275  -9.969  1.00 31.57 LIG 0.01  C 
ENDBRANCH 32 33
ENDBRANCH 31 32
BRANCH 31 36
ATOM     36  N   LEU E   1       0.374  -7.129 -10.468  1.00 33.92 LIG-0.35  N 
ATOM     37  C   GLN E   0      -0.925  -7.327 -10.681  1.00 32.69 LIG 0.24  C 
ATOM     38 O    GLN E   0      -1.592  -6.642 -11.460  1.00 35.54 LIG-0.27  OA
ATOM     39 H    LEU E   1       0.841  -7.560  -9.888  1.00 33.92 LIG 0.16  HD
BRANCH 37 40
ATOM     40  CA  GLN E   0      -1.572  -8.460  -9.911  1.00 31.66 LIG 0.18  C 
BRANCH 40 41
ATOM     41  N   GLN E   0      -2.739  -7.954  -9.122  1.00 30.66 LIG-0.35  N 
ATOM     42  C   ACE E  -1      -2.628  -7.140  -8.067  1.00 29.47 LIG 0.21  C 
ATOM     43 O    ACE E  -1      -1.657  -6.434  -7.834  1.00 28.51 LIG-0.27  OA
ATOM     44  CH3 ACE E  -1      -3.832  -7.080  -7.160  1.00 29.76 LIG 0.12  C 
ATOM     45 H    GLN E   0      -3.497  -8.238  -9.414  1.00 30.66 LIG 0.16  HD
ENDBRANCH 40 41
BRANCH 40 46
ATOM     46  CB  GLN E   0      -2.013  -9.570 -10.880  1.00 31.02 LIG 0.04  C 
BRANCH 46 47
ATOM     47  CG  GLN E   0      -3.112  -9.174 -11.866  1.00 30.22 LIG 0.10  C 
BRANCH 47 48
ATOM     48  CD  GLN E   0      -2.580  -8.837 -13.253  1.00 30.34 LIG 0.21  C 
ATOM     49 OE1  GLN E   0      -3.115  -7.964 -13.950  1.00 29.98 LIG-0.27  OA
ATOM     50  NE2 GLN E   0      -1.522  -9.525 -13.659  1.00 28.66 LIG-0.37  N 
ATOM     51 21HE GLN E   0      -1.176 -10.123 -13.148  1.00 28.66 LIG 0.16  HD
ATOM     52 22HE GLN E   0      -1.182  -9.372 -14.435  1.00 28.66 LIG 0.16  HD
ENDBRANCH 47 48
ENDBRANCH 46 47
ENDBRANCH 40 46
ENDBRANCH 37 40
ENDBRANCH 31 36
ENDBRANCH 1 31
TORSDOF 19
ENDMDL
MODEL 40
USER: ADFR SOLUTION from run 150
USER: SCORE 15.105803 LL:  -4.551 LR: -13.370 RR:   0.000 FEB:  -7.703
USER: RMSD 3.031783
USER: SEED 149
USER: STATUS no improvement in best in 16 clusters for 5 generations
USER: GENES 21
USER: genes 0 Translation |==|  0.46220 0.39813 0.49295
USER: genes 1 Rotation |==|  0.45749 0.50585 0.42474 0.99244
USER: genes 2 Torsion [C]-N--CA-[CB] |==|  0.47187
USER: genes 3 Torsion [N]-CA--C-[N] |==|  0.28997
USER: genes 4 Torsion [C]-N--CA-[CB] |==|  0.45968
USER: genes 5 Torsion [N]-CA--C-[N] |==|  0.91891
USER: genes 6 Torsion [C]-N--CA-[C] |==|  0.60204
USER: genes 7 Torsion [N]-CA--C-[OXT] |==|  0.45800
USER: genes 8 Torsion [N]-CA--CB-[CG] |==|  0.84252
USER: genes 9 Torsion [CA]-CB--CG-[CD1] |==|  0.22266
USER: genes 10 Torsion [N]-CA--CB-[CG] |==|  0.62537
USER: genes 11 Torsion [CA]-CB--CG-[CD2] |==|  0.85326
USER: genes 12 Torsion [N]-C--CA-[N] |==|  0.37251
USER: genes 13 Torsion [C]-CA--CB-[CG] |==|  0.43681
USER: genes 14 Torsion [CA]-CB--CG-[CD1] |==|  0.01001
USER: genes 15 Torsion [C]-CA--N-[C] |==|  0.84444
USER: genes 16 Torsion [N]-C--CA-[N] |==|  0.88508
USER: genes 17 Torsion [C]-CA--N-[C] |==|  0.69760
USER: genes 18 Torsion [C]-CA--CB-[CG] |==|  0.90907
USER: genes 19 Torsion [CA]-CB--CG-[CD] |==|  0.38131
USER: genes 20 Torsion [CB]-CG--CD-[OE1] |==|  0.33671
ROOT
ATOM      1  C   LEU E   1       2.704  -6.700 -12.941  1.00 34.74 LIG 0.24  C 
ATOM      2 O    LEU E   1       2.941  -5.876 -12.063  1.00 33.94 LIG-0.27  OA
ATOM      3  N   ALA E   2       3.545  -7.680 -13.267  1.00 36.28 LIG-0.35  N 
ATOM      4 H    ALA E   2       3.376  -8.269 -13.870  1.00 36.28 LIG 0.16  HD
ENDROOT
BRANCH 3 5
ATOM      5  CA  ALA E   2       4.849  -7.844 -12.622  1.00 35.94 LIG 0.17  C 
ATOM      6  CB  ALA E   2       5.473  -9.178 -13.017  1.00 33.95 LIG 0.04  C 
BRANCH 5 7
ATOM      7  C   ALA E   2       5.767  -6.686 -13.005  1.00 35.46 LIG 0.24  C 
ATOM      8 O    ALA E   2       6.270  -6.642 -14.129  1.00 34.79 LIG-0.27  OA
ATOM      9  N   LEU E   3       5.970  -5.747 -12.076  1.00 35.08 LIG-0.35  N 
ATOM     10 H    LEU E   3       5.544  -5.715 -11.329  1.00 35.08 LIG 0.16  HD
BRANCH 9 11
ATOM     11  CA  LEU E   3       6.957  -4.664 -12.255  1.00 35.40 LIG 0.18  C 
BRANCH 11 12
ATOM     12  C   LEU E   3       8.394  -5.165 -12.130  1.00 36.56 LIG 0.24  C 
ATOM     13  N   PHE E   4       8.565  -6.220 -11.332  1.00 37.64 LIG-0.34  N 
ATOM     14 H    PHE E   4       7.909  -6.619 -10.944  1.00 37.64 LIG 0.16  HD
ATOM     15 O    LEU E   3       9.313  -4.591 -12.716  1.00 36.99 LIG-0.27  OA
BRANCH 13 16
ATOM     16  CA  PHE E   4       9.859  -6.816 -11.026  1.00 39.79 LIG 0.19  C 
BRANCH 16 17
ATOM     17  C   PHE E   4       9.709  -8.342 -10.926  1.00 40.57 LIG 0.20  C 
ATOM     18 OXT  PHE E   4      10.696  -9.067 -10.951  1.00 44.77 LIG-0.65  OA
ATOM     19 O    PHE E   4       8.616  -8.910 -10.800  1.00 38.71 LIG-0.65  OA
ENDBRANCH 16 17
BRANCH 16 20
ATOM     20  CB  PHE E   4      10.418  -6.252  -9.711  1.00 41.62 LIG 0.07  C 
BRANCH 20 21
ATOM     21  CG  PHE E   4      10.549  -4.754  -9.703  1.00 42.37 LIG-0.06  A 
ATOM     22  CD1 PHE E   4       9.433  -3.942  -9.462  1.00 43.46 LIG 0.01  A 
ATOM     23  CE1 PHE E   4       9.543  -2.562  -9.466  1.00 44.96 LIG 0.00  A 
ATOM     24  CZ  PHE E   4      10.778  -1.976  -9.718  1.00 45.96 LIG 0.00  A 
ATOM     25  CE2 PHE E   4      11.899  -2.770  -9.955  1.00 43.80 LIG 0.00  A 
ATOM     26  CD2 PHE E   4      11.778  -4.151  -9.946  1.00 42.63 LIG 0.01  A 
ENDBRANCH 20 21
ENDBRANCH 16 20
ENDBRANCH 13 16
ENDBRANCH 11 12
BRANCH 11 27
ATOM     27  CB  LEU E   3       6.747  -3.537 -11.235  1.00 33.50 LIG 0.04  C 
BRANCH 27 28
ATOM     28  CG  LEU E   3       6.773  -2.062 -11.641  1.00 34.48 LIG-0.02  C 
ATOM     29  CD2 LEU E   3       8.031  -1.696 -12.409  1.00 30.77 LIG 0.01  C 
ATOM     30  CD1 LEU E   3       6.646  -1.191 -10.395  1.00 32.68 LIG 0.01  C 
ENDBRANCH 27 28
ENDBRANCH 11 27
ENDBRANCH 9 11
ENDBRANCH 5 7
ENDBRANCH 3 5
BRANCH 1 31
ATOM     31  CA  LEU E   1       1.389  -6.652 -13.716  1.00 33.78 LIG 0.18  C 
BRANCH 31 32
ATOM     32  CB  LEU E   1       1.436  -5.568 -14.794  1.00 32.47 LIG 0.04  C 
BRANCH 32 33
ATOM     33  CG  LEU E   1       0.459  -5.754 -15.962  1.00 32.32 LIG-0.02  C 
ATOM     34  CD1 LEU E   1      -0.424  -6.975 -15.729  1.00 30.19 LIG 0.01  C 
ATOM     35  CD2 LEU E   1      -0.371  -4.491 -16.200  1.00 31.57 LIG 0.01  C 
ENDBRANCH 32 33
ENDBRANCH 31 32
BRANCH 31 36
ATOM     36  N   LEU E   1       0.250  -6.451 -12.816  1.00 33.92 LIG-0.35  N 
ATOM     37  C   GLN E   0       0.023  -7.281 -11.800  1.00 32.69 LIG 0.24  C 
ATOM     38 O    GLN E   0       0.691  -8.298 -11.598  1.00 35.54 LIG-0.27  OA
ATOM     39 H    LEU E   1      -0.239  -5.769 -13.003  1.00 33.92 LIG 0.16  HD
BRANCH 37 40
ATOM     40  CA  GLN E   0      -1.119  -6.918 -10.873  1.00 31.66 LIG 0.18  C 
BRANCH 40 41
ATOM     41  N   GLN E   0      -1.123  -5.446 -10.601  1.00 30.66 LIG-0.35  N 
ATOM     42  C   ACE E  -1      -0.787  -4.906  -9.425  1.00 29.47 LIG 0.21  C 
ATOM     43 O    ACE E  -1      -0.111  -5.463  -8.571  1.00 28.51 LIG-0.27  OA
ATOM     44  CH3 ACE E  -1      -1.247  -3.486  -9.205  1.00 29.76 LIG 0.12  C 
ATOM     45 H    GLN E   0      -1.363  -4.975 -11.279  1.00 30.66 LIG 0.16  HD
ENDBRANCH 40 41
BRANCH 40 46
ATOM     46  CB  GLN E   0      -2.458  -7.358 -11.490  1.00 31.02 LIG 0.04  C 
BRANCH 46 47
ATOM     47  CG  GLN E   0      -2.521  -7.298 -13.016  1.00 30.22 LIG 0.10  C 
BRANCH 47 48
ATOM     48  CD  GLN E   0      -3.198  -8.513 -13.636  1.00 30.34 LIG 0.21  C 
ATOM     49 OE1  GLN E   0      -4.204  -8.394 -14.348  1.00 29.98 LIG-0.27  OA
ATOM     50  NE2 GLN E   0      -2.649  -9.691 -13.371  1.00 28.66 LIG-0.37  N 
ATOM     51 21HE GLN E   0      -1.950  -9.736 -12.872  1.00 28.66 LIG 0.16  HD
ATOM     52 22HE GLN E   0      -2.992 -10.409 -13.697  1.00 28.66 LIG 0.16  HD
ENDBRANCH 47 48
ENDBRANCH 46 47
ENDBRANCH 40 46
ENDBRANCH 37 40
ENDBRANCH 31 36
ENDBRANCH 1 31
TORSDOF 19
ENDMDL
MODEL 41
USER: ADFR SOLUTION from run 123
USER: SCORE 16.250723 LL:  -3.975 LR: -13.327 RR:   0.000 FEB:  -7.659
USER: RMSD 2.850346
USER: SEED 122
USER: STATUS no improvement in best in 18 clusters for 5 generations
USER: GENES 21
USER: genes 0 Translation |==|  0.45350 0.38702 0.46647
USER: genes 1 Rotation |==|  0.04688 0.50307 0.30277 0.57600
USER: genes 2 Torsion [C]-N--CA-[CB] |==|  0.87078
USER: genes 3 Torsion [N]-CA--C-[N] |==|  0.32228
USER: genes 4 Torsion [C]-N--CA-[CB] |==|  0.51277
USER: genes 5 Torsion [N]-CA--C-[N] |==|  0.49444
USER: genes 6 Torsion [C]-N--CA-[C] |==|  0.19638
USER: genes 7 Torsion [N]-CA--C-[OXT] |==|  0.59975
USER: genes 8 Torsion [N]-CA--CB-[CG] |==|  0.88469
USER: genes 9 Torsion [CA]-CB--CG-[CD1] |==|  0.39612
USER: genes 10 Torsion [N]-CA--CB-[CG] |==|  0.69340
USER: genes 11 Torsion [CA]-CB--CG-[CD2] |==|  0.93704
USER: genes 12 Torsion [N]-C--CA-[N] |==|  0.98816
USER: genes 13 Torsion [C]-CA--CB-[CG] |==|  0.46117
USER: genes 14 Torsion [CA]-CB--CG-[CD1] |==|  0.47434
USER: genes 15 Torsion [C]-CA--N-[C] |==|  0.78295
USER: genes 16 Torsion [N]-C--CA-[N] |==|  0.01872
USER: genes 17 Torsion [C]-CA--N-[C] |==|  0.63996
USER: genes 18 Torsion [C]-CA--CB-[CG] |==|  0.35542
USER: genes 19 Torsion [CA]-CB--CG-[CD] |==|  0.25126
USER: genes 20 Torsion [CB]-CG--CD-[OE1] |==|  0.78062
ROOT
ATOM      1  C   LEU E   1       2.482  -6.883 -13.378  1.00 34.74 LIG 0.24  C 
ATOM      2 O    LEU E   1       3.271  -7.269 -14.235  1.00 33.94 LIG-0.27  OA
ATOM      3  N   ALA E   2       2.852  -6.557 -12.141  1.00 36.28 LIG-0.35  N 
ATOM      4 H    ALA E   2       2.306  -6.270 -11.543  1.00 36.28 LIG 0.16  HD
ENDROOT
BRANCH 3 5
ATOM      5  CA  ALA E   2       4.240  -6.658 -11.682  1.00 35.94 LIG 0.17  C 
ATOM      6  CB  ALA E   2       4.838  -7.998 -12.093  1.00 33.95 LIG 0.04  C 
BRANCH 5 7
ATOM      7  C   ALA E   2       5.060  -5.504 -12.252  1.00 35.46 LIG 0.24  C 
ATOM      8 O    ALA E   2       5.215  -5.399 -13.470  1.00 34.79 LIG-0.27  OA
ATOM      9  N   LEU E   3       5.569  -4.635 -11.372  1.00 35.08 LIG-0.35  N 
ATOM     10 H    LEU E   3       5.382  -4.642 -10.532  1.00 35.08 LIG 0.16  HD
BRANCH 9 11
ATOM     11  CA  LEU E   3       6.512  -3.572 -11.773  1.00 35.40 LIG 0.18  C 
BRANCH 11 12
ATOM     12  C   LEU E   3       7.715  -4.123 -12.536  1.00 36.56 LIG 0.24  C 
ATOM     13  N   PHE E   4       8.587  -3.210 -12.965  1.00 37.64 LIG-0.34  N 
ATOM     14 H    PHE E   4       8.504  -2.372 -12.793  1.00 37.64 LIG 0.16  HD
ATOM     15 O    LEU E   3       7.823  -5.332 -12.749  1.00 36.99 LIG-0.27  OA
BRANCH 13 16
ATOM     16  CA  PHE E   4       9.766  -3.516 -13.764  1.00 39.79 LIG 0.19  C 
BRANCH 16 17
ATOM     17  C   PHE E   4       9.333  -3.926 -15.181  1.00 40.57 LIG 0.20  C 
ATOM     18 OXT  PHE E   4       9.945  -4.793 -15.792  1.00 44.77 LIG-0.65  OA
ATOM     19 O    PHE E   4       8.358  -3.432 -15.762  1.00 38.71 LIG-0.65  OA
ENDBRANCH 16 17
BRANCH 16 20
ATOM     20  CB  PHE E   4      10.584  -4.643 -13.115  1.00 41.62 LIG 0.07  C 
BRANCH 20 21
ATOM     21  CG  PHE E   4      10.700  -4.522 -11.620  1.00 42.37 LIG-0.06  A 
ATOM     22  CD1 PHE E   4      10.669  -5.664 -10.809  1.00 43.46 LIG 0.01  A 
ATOM     23  CE1 PHE E   4      10.761  -5.560  -9.431  1.00 44.96 LIG 0.00  A 
ATOM     24  CZ  PHE E   4      10.881  -4.304  -8.847  1.00 45.96 LIG 0.00  A 
ATOM     25  CE2 PHE E   4      10.917  -3.159  -9.641  1.00 43.80 LIG 0.00  A 
ATOM     26  CD2 PHE E   4      10.827  -3.275 -11.020  1.00 42.63 LIG 0.01  A 
ENDBRANCH 20 21
ENDBRANCH 16 20
ENDBRANCH 13 16
ENDBRANCH 11 12
BRANCH 11 27
ATOM     27  CB  LEU E   3       7.026  -2.790 -10.557  1.00 33.50 LIG 0.04  C 
BRANCH 27 28
ATOM     28  CG  LEU E   3       6.621  -1.338 -10.297  1.00 34.48 LIG-0.02  C 
ATOM     29  CD2 LEU E   3       6.167  -0.630 -11.562  1.00 30.77 LIG 0.01  C 
ATOM     30  CD1 LEU E   3       7.793  -0.589  -9.668  1.00 32.68 LIG 0.01  C 
ENDBRANCH 27 28
ENDBRANCH 11 27
ENDBRANCH 9 11
ENDBRANCH 5 7
ENDBRANCH 3 5
BRANCH 1 31
ATOM     31  CA  LEU E   1       0.997  -6.738 -13.699  1.00 33.78 LIG 0.18  C 
BRANCH 31 32
ATOM     32  CB  LEU E   1       0.786  -5.742 -14.841  1.00 32.47 LIG 0.04  C 
BRANCH 32 33
ATOM     33  CG  LEU E   1      -0.610  -5.754 -15.480  1.00 32.32 LIG-0.02  C 
ATOM     34  CD1 LEU E   1      -0.768  -4.578 -16.437  1.00 30.19 LIG 0.01  C 
ATOM     35  CD2 LEU E   1      -0.892  -7.090 -16.172  1.00 31.57 LIG 0.01  C 
ENDBRANCH 32 33
ENDBRANCH 31 32
BRANCH 31 36
ATOM     36  N   LEU E   1       0.233  -6.347 -12.512  1.00 33.92 LIG-0.35  N 
ATOM     37  C   GLN E   0      -0.088  -7.239 -11.577  1.00 32.69 LIG 0.24  C 
ATOM     38 O    GLN E   0       0.159  -8.443 -11.682  1.00 35.54 LIG-0.27  OA
ATOM     39 H    LEU E   1       0.019  -5.514 -12.481  1.00 33.92 LIG 0.16  HD
BRANCH 37 40
ATOM     40  CA  GLN E   0      -0.786  -6.704 -10.343  1.00 31.66 LIG 0.18  C 
BRANCH 40 41
ATOM     41  N   GLN E   0      -1.118  -5.256 -10.518  1.00 30.66 LIG-0.35  N 
ATOM     42  C   ACE E  -1      -0.816  -4.309  -9.623  1.00 29.47 LIG 0.21  C 
ATOM     43 O    ACE E  -1       0.048  -4.415  -8.764  1.00 28.51 LIG-0.27  OA
ATOM     44  CH3 ACE E  -1      -1.582  -3.017  -9.757  1.00 29.76 LIG 0.12  C 
ATOM     45 H    GLN E   0      -1.526  -5.086 -11.256  1.00 30.66 LIG 0.16  HD
ENDBRANCH 40 41
BRANCH 40 46
ATOM     46  CB  GLN E   0      -2.059  -7.522 -10.064  1.00 31.02 LIG 0.04  C 
BRANCH 46 47
ATOM     47  CG  GLN E   0      -2.182  -8.069  -8.641  1.00 30.22 LIG 0.10  C 
BRANCH 47 48
ATOM     48  CD  GLN E   0      -2.904  -7.120  -7.694  1.00 30.34 LIG 0.21  C 
ATOM     49 OE1  GLN E   0      -2.325  -6.144  -7.198  1.00 29.98 LIG-0.27  OA
ATOM     50  NE2 GLN E   0      -4.175  -7.399  -7.439  1.00 28.66 LIG-0.37  N 
ATOM     51 21HE GLN E   0      -4.546  -8.085  -7.802  1.00 28.66 LIG 0.16  HD
ATOM     52 22HE GLN E   0      -4.629  -6.893  -6.911  1.00 28.66 LIG 0.16  HD
ENDBRANCH 47 48
ENDBRANCH 46 47
ENDBRANCH 40 46
ENDBRANCH 37 40
ENDBRANCH 31 36
ENDBRANCH 1 31
TORSDOF 19
ENDMDL
MODEL 42
USER: ADFR SOLUTION from run 17
USER: SCORE 15.811300 LL:  -4.377 LR: -13.305 RR:   0.000 FEB:  -7.637
USER: RMSD 10.639797
USER: SEED 16
USER: STATUS no improvement in best in 19 clusters for 5 generations
USER: GENES 21
USER: genes 0 Translation |==|  0.61164 0.50780 0.50160
USER: genes 1 Rotation |==|  0.72140 0.05398 0.53634 0.52695
USER: genes 2 Torsion [C]-N--CA-[CB] |==|  0.48333
USER: genes 3 Torsion [N]-CA--C-[N] |==|  0.31752
USER: genes 4 Torsion [C]-N--CA-[CB] |==|  0.47096
USER: genes 5 Torsion [N]-CA--C-[N] |==|  0.40881
USER: genes 6 Torsion [C]-N--CA-[C] |==|  0.63216
USER: genes 7 Torsion [N]-CA--C-[OXT] |==|  0.65842
USER: genes 8 Torsion [N]-CA--CB-[CG] |==|  0.08564
USER: genes 9 Torsion [CA]-CB--CG-[CD1] |==|  0.80132
USER: genes 10 Torsion [N]-CA--CB-[CG] |==|  0.57605
USER: genes 11 Torsion [CA]-CB--CG-[CD2] |==|  0.75194
USER: genes 12 Torsion [N]-C--CA-[N] |==|  0.40085
USER: genes 13 Torsion [C]-CA--CB-[CG] |==|  0.51259
USER: genes 14 Torsion [CA]-CB--CG-[CD1] |==|  0.39729
USER: genes 15 Torsion [C]-CA--N-[C] |==|  0.77897
USER: genes 16 Torsion [N]-C--CA-[N] |==|  0.01303
USER: genes 17 Torsion [C]-CA--N-[C] |==|  0.71513
USER: genes 18 Torsion [C]-CA--CB-[CG] |==|  0.42082
USER: genes 19 Torsion [CA]-CB--CG-[CD] |==|  0.98208
USER: genes 20 Torsion [CB]-CG--CD-[OE1] |==|  0.79086
ROOT
ATOM      1  C   LEU E   1       6.515  -4.890 -12.799  1.00 34.74 LIG 0.24  C 
ATOM      2 O    LEU E   1       5.939  -4.642 -13.854  1.00 33.94 LIG-0.27  OA
ATOM      3  N   ALA E   2       6.363  -6.037 -12.139  1.00 36.28 LIG-0.35  N 
ATOM      4 H    ALA E   2       6.777  -6.222 -11.408  1.00 36.28 LIG 0.16  HD
ENDROOT
BRANCH 3 5
ATOM      5  CA  ALA E   2       5.467  -7.099 -12.601  1.00 35.94 LIG 0.17  C 
ATOM      6  CB  ALA E   2       5.615  -8.338 -11.727  1.00 33.95 LIG 0.04  C 
BRANCH 5 7
ATOM      7  C   ALA E   2       4.024  -6.601 -12.590  1.00 35.46 LIG 0.24  C 
ATOM      8 O    ALA E   2       3.480  -6.310 -11.523  1.00 34.79 LIG-0.27  OA
ATOM      9  N   LEU E   3       3.416  -6.491 -13.775  1.00 35.08 LIG-0.35  N 
ATOM     10 H    LEU E   3       3.817  -6.593 -14.529  1.00 35.08 LIG 0.16  HD
BRANCH 9 11
ATOM     11  CA  LEU E   3       1.977  -6.179 -13.894  1.00 35.40 LIG 0.18  C 
BRANCH 11 12
ATOM     12  C   LEU E   3       1.095  -7.325 -13.404  1.00 36.56 LIG 0.24  C 
ATOM     13  N   PHE E   4      -0.057  -6.959 -12.839  1.00 37.64 LIG-0.34  N 
ATOM     14 H    PHE E   4      -0.308  -6.138 -12.789  1.00 37.64 LIG 0.16  HD
ATOM     15 O    LEU E   3       1.467  -8.494 -13.510  1.00 36.99 LIG-0.27  OA
BRANCH 13 16
ATOM     16  CA  PHE E   4      -1.013  -7.887 -12.250  1.00 39.79 LIG 0.19  C 
BRANCH 16 17
ATOM     17  C   PHE E   4      -2.426  -7.558 -12.757  1.00 40.57 LIG 0.20  C 
ATOM     18 OXT  PHE E   4      -3.327  -7.304 -11.967  1.00 44.77 LIG-0.65  OA
ATOM     19 O    PHE E   4      -2.723  -7.513 -13.959  1.00 38.71 LIG-0.65  OA
ENDBRANCH 16 17
BRANCH 16 20
ATOM     20  CB  PHE E   4      -0.970  -7.810 -10.717  1.00 41.62 LIG 0.07  C 
BRANCH 20 21
ATOM     21  CG  PHE E   4      -0.606  -6.449 -10.190  1.00 42.37 LIG-0.06  A 
ATOM     22  CD1 PHE E   4       0.701  -5.962 -10.314  1.00 43.46 LIG 0.01  A 
ATOM     23  CE1 PHE E   4       1.046  -4.717  -9.819  1.00 44.96 LIG 0.00  A 
ATOM     24  CZ  PHE E   4       0.082  -3.942  -9.185  1.00 45.96 LIG 0.00  A 
ATOM     25  CE2 PHE E   4      -1.225  -4.410  -9.057  1.00 43.80 LIG 0.00  A 
ATOM     26  CD2 PHE E   4      -1.561  -5.658  -9.559  1.00 42.63 LIG 0.01  A 
ENDBRANCH 20 21
ENDBRANCH 16 20
ENDBRANCH 13 16
ENDBRANCH 11 12
BRANCH 11 27
ATOM     27  CB  LEU E   3       1.591  -5.857 -15.344  1.00 33.50 LIG 0.04  C 
BRANCH 27 28
ATOM     28  CG  LEU E   3       0.411  -4.943 -15.683  1.00 34.48 LIG-0.02  C 
ATOM     29  CD2 LEU E   3      -0.894  -5.708 -15.814  1.00 30.77 LIG 0.01  C 
ATOM     30  CD1 LEU E   3       0.710  -4.188 -16.976  1.00 32.68 LIG 0.01  C 
ENDBRANCH 27 28
ENDBRANCH 11 27
ENDBRANCH 9 11
ENDBRANCH 5 7
ENDBRANCH 3 5
BRANCH 1 31
ATOM     31  CA  LEU E   1       7.474  -3.876 -12.180  1.00 33.78 LIG 0.18  C 
BRANCH 31 32
ATOM     32  CB  LEU E   1       6.723  -2.920 -11.251  1.00 32.47 LIG 0.04  C 
BRANCH 32 33
ATOM     33  CG  LEU E   1       7.564  -1.784 -10.652  1.00 32.32 LIG-0.02  C 
ATOM     34  CD1 LEU E   1       6.741  -0.504 -10.561  1.00 30.19 LIG 0.01  C 
ATOM     35  CD2 LEU E   1       8.147  -2.181  -9.294  1.00 31.57 LIG 0.01  C 
ENDBRANCH 32 33
ENDBRANCH 31 32
BRANCH 31 36
ATOM     36  N   LEU E   1       8.207  -3.140 -13.213  1.00 33.92 LIG-0.35  N 
ATOM     37  C   GLN E   0       9.260  -3.678 -13.823  1.00 32.69 LIG 0.24  C 
ATOM     38 O    GLN E   0       9.731  -4.775 -13.512  1.00 35.54 LIG-0.27  OA
ATOM     39 H    LEU E   1       7.900  -2.353 -13.379  1.00 33.92 LIG 0.16  HD
BRANCH 37 40
ATOM     40  CA  GLN E   0       9.877  -2.871 -14.948  1.00 31.66 LIG 0.18  C 
BRANCH 40 41
ATOM     41  N   GLN E   0       9.206  -1.538 -15.061  1.00 30.66 LIG-0.35  N 
ATOM     42  C   ACE E  -1       8.299  -1.238 -15.997  1.00 29.47 LIG 0.21  C 
ATOM     43 O    ACE E  -1       7.648  -2.062 -16.623  1.00 28.51 LIG-0.27  OA
ATOM     44  CH3 ACE E  -1       8.056   0.234 -16.221  1.00 29.76 LIG 0.12  C 
ATOM     45 H    GLN E   0       9.460  -0.977 -14.461  1.00 30.66 LIG 0.16  HD
ENDBRANCH 40 41
BRANCH 40 46
ATOM     46  CB  GLN E   0      11.386  -2.700 -14.705  1.00 31.02 LIG 0.04  C 
BRANCH 46 47
ATOM     47  CG  GLN E   0      12.234  -2.544 -15.968  1.00 30.22 LIG 0.10  C 
BRANCH 47 48
ATOM     48  CD  GLN E   0      11.439  -2.743 -17.252  1.00 30.34 LIG 0.21  C 
ATOM     49 OE1  GLN E   0      11.098  -3.873 -17.627  1.00 29.98 LIG-0.27  OA
ATOM     50  NE2 GLN E   0      11.138  -1.646 -17.933  1.00 28.66 LIG-0.37  N 
ATOM     51 21HE GLN E   0      11.391  -0.877 -17.643  1.00 28.66 LIG 0.16  HD
ATOM     52 22HE GLN E   0      10.690  -1.703 -18.665  1.00 28.66 LIG 0.16  HD
ENDBRANCH 47 48
ENDBRANCH 46 47
ENDBRANCH 40 46
ENDBRANCH 37 40
ENDBRANCH 31 36
ENDBRANCH 1 31
TORSDOF 19
ENDMDL
MODEL 43
USER: ADFR SOLUTION from run 34
USER: SCORE 15.249811 LL:  -4.134 LR: -13.298 RR:   0.000 FEB:  -7.630
USER: RMSD 5.200853
USER: SEED 33
USER: STATUS no improvement in best in 9 clusters for 5 generations
USER: GENES 21
USER: genes 0 Translation |==|  0.34260 0.37614 0.63278
USER: genes 1 Rotation |==|  0.80799 0.68964 0.39035 0.82734
USER: genes 2 Torsion [C]-N--CA-[CB] |==|  0.50000
USER: genes 3 Torsion [N]-CA--C-[N] |==|  0.38348
USER: genes 4 Torsion [C]-N--CA-[CB] |==|  0.48658
USER: genes 5 Torsion [N]-CA--C-[N] |==|  0.43031
USER: genes 6 Torsion [C]-N--CA-[C] |==|  0.81602
USER: genes 7 Torsion [N]-CA--C-[OXT] |==|  0.31819
USER: genes 8 Torsion [N]-CA--CB-[CG] |==|  0.69201
USER: genes 9 Torsion [CA]-CB--CG-[CD1] |==|  0.50119
USER: genes 10 Torsion [N]-CA--CB-[CG] |==|  0.59016
USER: genes 11 Torsion [CA]-CB--CG-[CD2] |==|  0.10562
USER: genes 12 Torsion [N]-C--CA-[N] |==|  0.38453
USER: genes 13 Torsion [C]-CA--CB-[CG] |==|  0.18318
USER: genes 14 Torsion [CA]-CB--CG-[CD1] |==|  0.31414
USER: genes 15 Torsion [C]-CA--N-[C] |==|  0.48667
USER: genes 16 Torsion [N]-C--CA-[N] |==|  0.92086
USER: genes 17 Torsion [C]-CA--N-[C] |==|  0.84014
USER: genes 18 Torsion [C]-CA--CB-[CG] |==|  0.05224
USER: genes 19 Torsion [CA]-CB--CG-[CD] |==|  0.74656
USER: genes 20 Torsion [CB]-CG--CD-[OE1] |==|  0.37261
ROOT
ATOM      1  C   LEU E   1      -0.346  -7.063 -10.634  1.00 34.74 LIG 0.24  C 
ATOM      2 O    LEU E   1       0.397  -7.950 -10.224  1.00 33.94 LIG-0.27  OA
ATOM      3  N   ALA E   2      -0.238  -6.526 -11.848  1.00 36.28 LIG-0.35  N 
ATOM      4 H    ALA E   2      -0.766  -5.916 -12.146  1.00 36.28 LIG 0.16  HD
ENDROOT
BRANCH 3 5
ATOM      5  CA  ALA E   2       0.803  -6.929 -12.797  1.00 35.94 LIG 0.17  C 
ATOM      6  CB  ALA E   2       0.671  -6.143 -14.095  1.00 33.95 LIG 0.04  C 
BRANCH 5 7
ATOM      7  C   ALA E   2       2.181  -6.718 -12.176  1.00 35.46 LIG 0.24  C 
ATOM      8 O    ALA E   2       2.411  -5.705 -11.513  1.00 34.79 LIG-0.27  OA
ATOM      9  N   LEU E   3       3.086  -7.680 -12.379  1.00 35.08 LIG-0.35  N 
ATOM     10 H    LEU E   3       2.906  -8.435 -12.751  1.00 35.08 LIG 0.16  HD
BRANCH 9 11
ATOM     11  CA  LEU E   3       4.499  -7.529 -11.975  1.00 35.40 LIG 0.18  C 
BRANCH 11 12
ATOM     12  C   LEU E   3       5.194  -6.390 -12.720  1.00 36.56 LIG 0.24  C 
ATOM     13  N   PHE E   4       6.238  -5.849 -12.091  1.00 37.64 LIG-0.34  N 
ATOM     14 H    PHE E   4       6.529  -6.143 -11.337  1.00 37.64 LIG 0.16  HD
ATOM     15 O    LEU E   3       4.772  -6.004 -13.810  1.00 36.99 LIG-0.27  OA
BRANCH 13 16
ATOM     16  CA  PHE E   4       7.000  -4.715 -12.595  1.00 39.79 LIG 0.19  C 
BRANCH 16 17
ATOM     17  C   PHE E   4       7.737  -5.124 -13.881  1.00 40.57 LIG 0.20  C 
ATOM     18 OXT  PHE E   4       7.447  -4.610 -14.954  1.00 44.77 LIG-0.65  OA
ATOM     19 O    PHE E   4       8.651  -5.960 -13.903  1.00 38.71 LIG-0.65  OA
ENDBRANCH 16 17
BRANCH 16 20
ATOM     20  CB  PHE E   4       8.006  -4.226 -11.542  1.00 41.62 LIG 0.07  C 
BRANCH 20 21
ATOM     21  CG  PHE E   4       7.670  -2.879 -10.964  1.00 42.37 LIG-0.06  A 
ATOM     22  CD1 PHE E   4       8.497  -2.293  -9.998  1.00 43.46 LIG 0.01  A 
ATOM     23  CE1 PHE E   4       8.187  -1.060  -9.450  1.00 44.96 LIG 0.00  A 
ATOM     24  CZ  PHE E   4       7.036  -0.398  -9.863  1.00 45.96 LIG 0.00  A 
ATOM     25  CE2 PHE E   4       6.206  -0.967 -10.827  1.00 43.80 LIG 0.00  A 
ATOM     26  CD2 PHE E   4       6.527  -2.201 -11.371  1.00 42.63 LIG 0.01  A 
ENDBRANCH 20 21
ENDBRANCH 16 20
ENDBRANCH 13 16
ENDBRANCH 11 12
BRANCH 11 27
ATOM     27  CB  LEU E   3       5.293  -8.819 -12.214  1.00 33.50 LIG 0.04  C 
BRANCH 27 28
ATOM     28  CG  LEU E   3       6.454  -9.235 -11.308  1.00 34.48 LIG-0.02  C 
ATOM     29  CD2 LEU E   3       6.191  -8.914  -9.848  1.00 30.77 LIG 0.01  C 
ATOM     30  CD1 LEU E   3       7.733  -8.546 -11.776  1.00 32.68 LIG 0.01  C 
ENDBRANCH 27 28
ENDBRANCH 11 27
ENDBRANCH 9 11
ENDBRANCH 5 7
ENDBRANCH 3 5
BRANCH 1 31
ATOM     31  CA  LEU E   1      -1.473  -6.525  -9.756  1.00 33.78 LIG 0.18  C 
BRANCH 31 32
ATOM     32  CB  LEU E   1      -0.945  -5.462  -8.790  1.00 32.47 LIG 0.04  C 
BRANCH 32 33
ATOM     33  CG  LEU E   1      -0.438  -4.169  -9.443  1.00 32.32 LIG-0.02  C 
ATOM     34  CD1 LEU E   1      -1.342  -2.997  -9.075  1.00 30.19 LIG 0.01  C 
ATOM     35  CD2 LEU E   1       1.022  -3.897  -9.075  1.00 31.57 LIG 0.01  C 
ENDBRANCH 32 33
ENDBRANCH 31 32
BRANCH 31 36
ATOM     36  N   LEU E   1      -2.143  -7.608  -9.031  1.00 33.92 LIG-0.35  N 
ATOM     37  C   GLN E   0      -3.094  -7.349  -8.136  1.00 32.69 LIG 0.24  C 
ATOM     38 O    GLN E   0      -3.412  -6.205  -7.803  1.00 35.54 LIG-0.27  OA
ATOM     39 H    LEU E   1      -1.871  -8.398  -9.234  1.00 33.92 LIG 0.16  HD
BRANCH 37 40
ATOM     40  CA  GLN E   0      -3.793  -8.547  -7.525  1.00 31.66 LIG 0.18  C 
BRANCH 40 41
ATOM     41  N   GLN E   0      -3.788  -9.697  -8.482  1.00 30.66 LIG-0.35  N 
ATOM     42  C   ACE E  -1      -4.309  -9.643  -9.713  1.00 29.47 LIG 0.21  C 
ATOM     43 O    ACE E  -1      -4.513  -8.611 -10.337  1.00 28.51 LIG-0.27  OA
ATOM     44  CH3 ACE E  -1      -4.594 -10.976 -10.359  1.00 29.76 LIG 0.12  C 
ATOM     45 H    GLN E   0      -3.416 -10.404  -8.164  1.00 30.66 LIG 0.16  HD
ENDBRANCH 40 41
BRANCH 40 46
ATOM     46  CB  GLN E   0      -3.107  -8.938  -6.205  1.00 31.02 LIG 0.04  C 
BRANCH 46 47
ATOM     47  CG  GLN E   0      -2.236  -7.849  -5.577  1.00 30.22 LIG 0.10  C 
BRANCH 47 48
ATOM     48  CD  GLN E   0      -0.781  -7.915  -6.023  1.00 30.34 LIG 0.21  C 
ATOM     49 OE1  GLN E   0      -0.171  -6.895  -6.371  1.00 29.98 LIG-0.27  OA
ATOM     50  NE2 GLN E   0      -0.217  -9.114  -6.013  1.00 28.66 LIG-0.37  N 
ATOM     51 21HE GLN E   0      -0.671  -9.801  -5.765  1.00 28.66 LIG 0.16  HD
ATOM     52 22HE GLN E   0       0.603  -9.206  -6.256  1.00 28.66 LIG 0.16  HD
ENDBRANCH 47 48
ENDBRANCH 46 47
ENDBRANCH 40 46
ENDBRANCH 37 40
ENDBRANCH 31 36
ENDBRANCH 1 31
TORSDOF 19
ENDMDL
MODEL 44
USER: ADFR SOLUTION from run 87
USER: SCORE 15.466122 LL:  -4.237 LR: -13.281 RR:   0.000 FEB:  -7.613
USER: RMSD 3.941902
USER: SEED 86
USER: STATUS no improvement in best in 18 clusters for 5 generations
USER: GENES 21
USER: genes 0 Translation |==|  0.44967 0.43948 0.57532
USER: genes 1 Rotation |==|  0.49376 0.60141 0.43934 0.98579
USER: genes 2 Torsion [C]-N--CA-[CB] |==|  0.47427
USER: genes 3 Torsion [N]-CA--C-[N] |==|  0.26871
USER: genes 4 Torsion [C]-N--CA-[CB] |==|  0.51667
USER: genes 5 Torsion [N]-CA--C-[N] |==|  0.49437
USER: genes 6 Torsion [C]-N--CA-[C] |==|  0.18719
USER: genes 7 Torsion [N]-CA--C-[OXT] |==|  0.62823
USER: genes 8 Torsion [N]-CA--CB-[CG] |==|  0.89298
USER: genes 9 Torsion [CA]-CB--CG-[CD1] |==|  0.83675
USER: genes 10 Torsion [N]-CA--CB-[CG] |==|  0.57198
USER: genes 11 Torsion [CA]-CB--CG-[CD2] |==|  0.55953
USER: genes 12 Torsion [N]-C--CA-[N] |==|  0.98214
USER: genes 13 Torsion [C]-CA--CB-[CG] |==|  0.29960
USER: genes 14 Torsion [CA]-CB--CG-[CD1] |==|  0.46744
USER: genes 15 Torsion [C]-CA--N-[C] |==|  0.78434
USER: genes 16 Torsion [N]-C--CA-[N] |==|  0.02422
USER: genes 17 Torsion [C]-CA--N-[C] |==|  0.16335
USER: genes 18 Torsion [C]-CA--CB-[CG] |==|  0.93362
USER: genes 19 Torsion [CA]-CB--CG-[CD] |==|  0.37670
USER: genes 20 Torsion [CB]-CG--CD-[OE1] |==|  0.87915
ROOT
ATOM      1  C   LEU E   1       2.385  -6.018 -11.582  1.00 34.74 LIG 0.24  C 
ATOM      2 O    LEU E   1       2.932  -5.365 -10.698  1.00 33.94 LIG-0.27  OA
ATOM      3  N   ALA E   2       3.039  -6.870 -12.369  1.00 36.28 LIG-0.35  N 
ATOM      4 H    ALA E   2       2.657  -7.341 -12.979  1.00 36.28 LIG 0.16  HD
ENDROOT
BRANCH 3 5
ATOM      5  CA  ALA E   2       4.484  -7.083 -12.268  1.00 35.94 LIG 0.17  C 
ATOM      6  CB  ALA E   2       4.908  -8.267 -13.129  1.00 33.95 LIG 0.04  C 
BRANCH 5 7
ATOM      7  C   ALA E   2       5.226  -5.818 -12.690  1.00 35.46 LIG 0.24  C 
ATOM      8 O    ALA E   2       5.424  -5.587 -13.884  1.00 34.79 LIG-0.27  OA
ATOM      9  N   LEU E   3       5.620  -4.996 -11.712  1.00 35.08 LIG-0.35  N 
ATOM     10 H    LEU E   3       5.398  -5.096 -10.887  1.00 35.08 LIG 0.16  HD
BRANCH 9 11
ATOM     11  CA  LEU E   3       6.484  -3.827 -11.968  1.00 35.40 LIG 0.18  C 
BRANCH 11 12
ATOM     12  C   LEU E   3       7.745  -4.199 -12.745  1.00 36.56 LIG 0.24  C 
ATOM     13  N   PHE E   4       8.552  -3.181 -13.048  1.00 37.64 LIG-0.34  N 
ATOM     14 H    PHE E   4       8.397  -2.375 -12.791  1.00 37.64 LIG 0.16  HD
ATOM     15 O    LEU E   3       7.955  -5.365 -13.080  1.00 36.99 LIG-0.27  OA
BRANCH 13 16
ATOM     16  CA  PHE E   4       9.771  -3.307 -13.836  1.00 39.79 LIG 0.19  C 
BRANCH 16 17
ATOM     17  C   PHE E   4       9.408  -3.677 -15.283  1.00 40.57 LIG 0.20  C 
ATOM     18 OXT  PHE E   4      10.010  -4.571 -15.866  1.00 44.77 LIG-0.65  OA
ATOM     19 O    PHE E   4       8.502  -3.122 -15.920  1.00 38.71 LIG-0.65  OA
ENDBRANCH 16 17
BRANCH 16 20
ATOM     20  CB  PHE E   4      10.697  -4.375 -13.234  1.00 41.62 LIG 0.07  C 
BRANCH 20 21
ATOM     21  CG  PHE E   4      10.720  -4.377 -11.730  1.00 42.37 LIG-0.06  A 
ATOM     22  CD1 PHE E   4      11.104  -3.232 -11.022  1.00 43.46 LIG 0.01  A 
ATOM     23  CE1 PHE E   4      11.142  -3.231  -9.638  1.00 44.96 LIG 0.00  A 
ATOM     24  CZ  PHE E   4      10.797  -4.385  -8.944  1.00 45.96 LIG 0.00  A 
ATOM     25  CE2 PHE E   4      10.408  -5.532  -9.635  1.00 43.80 LIG 0.00  A 
ATOM     26  CD2 PHE E   4      10.372  -5.521 -11.020  1.00 42.63 LIG 0.01  A 
ENDBRANCH 20 21
ENDBRANCH 16 20
ENDBRANCH 13 16
ENDBRANCH 11 12
BRANCH 11 27
ATOM     27  CB  LEU E   3       6.906  -3.143 -10.660  1.00 33.50 LIG 0.04  C 
BRANCH 27 28
ATOM     28  CG  LEU E   3       7.278  -1.659 -10.606  1.00 34.48 LIG-0.02  C 
ATOM     29  CD2 LEU E   3       8.133  -1.323  -9.397  1.00 30.77 LIG 0.01  C 
ATOM     30  CD1 LEU E   3       6.005  -0.817 -10.601  1.00 32.68 LIG 0.01  C 
ENDBRANCH 27 28
ENDBRANCH 11 27
ENDBRANCH 9 11
ENDBRANCH 5 7
ENDBRANCH 3 5
BRANCH 1 31
ATOM     31  CA  LEU E   1       0.882  -5.895 -11.821  1.00 33.78 LIG 0.18  C 
BRANCH 31 32
ATOM     32  CB  LEU E   1       0.100  -6.338 -10.583  1.00 32.47 LIG 0.04  C 
BRANCH 32 33
ATOM     33  CG  LEU E   1      -0.575  -5.211  -9.789  1.00 32.32 LIG-0.02  C 
ATOM     34  CD1 LEU E   1      -1.547  -5.789  -8.767  1.00 30.19 LIG 0.01  C 
ATOM     35  CD2 LEU E   1       0.461  -4.296  -9.133  1.00 31.57 LIG 0.01  C 
ENDBRANCH 32 33
ENDBRANCH 31 32
BRANCH 31 36
ATOM     36  N   LEU E   1       0.469  -6.654 -13.004  1.00 33.92 LIG-0.35  N 
ATOM     37  C   GLN E   0       0.680  -6.183 -14.231  1.00 32.69 LIG 0.24  C 
ATOM     38 O    GLN E   0       1.153  -5.066 -14.451  1.00 35.54 LIG-0.27  OA
ATOM     39 H    LEU E   1       0.089  -7.407 -12.833  1.00 33.92 LIG 0.16  HD
BRANCH 37 40
ATOM     40  CA  GLN E   0       0.309  -7.098 -15.381  1.00 31.66 LIG 0.18  C 
BRANCH 40 41
ATOM     41  N   GLN E   0      -0.431  -8.296 -14.875  1.00 30.66 LIG-0.35  N 
ATOM     42  C   ACE E  -1      -1.577  -8.228 -14.189  1.00 29.47 LIG 0.21  C 
ATOM     43 O    ACE E  -1      -2.337  -7.270 -14.197  1.00 28.51 LIG-0.27  OA
ATOM     44  CH3 ACE E  -1      -1.945  -9.467 -13.411  1.00 29.76 LIG 0.12  C 
ATOM     45 H    GLN E   0      -0.047  -9.041 -15.069  1.00 30.66 LIG 0.16  HD
ENDBRANCH 40 41
BRANCH 40 46
ATOM     46  CB  GLN E   0      -0.539  -6.331 -16.410  1.00 31.02 LIG 0.04  C 
BRANCH 46 47
ATOM     47  CG  GLN E   0      -1.288  -5.117 -15.860  1.00 30.22 LIG 0.10  C 
BRANCH 47 48
ATOM     48  CD  GLN E   0      -1.192  -3.894 -16.763  1.00 30.34 LIG 0.21  C 
ATOM     49 OE1  GLN E   0      -0.119  -3.567 -17.287  1.00 29.98 LIG-0.27  OA
ATOM     50  NE2 GLN E   0      -2.313  -3.212 -16.951  1.00 28.66 LIG-0.37  N 
ATOM     51 21HE GLN E   0      -3.041  -3.469 -16.570  1.00 28.66 LIG 0.16  HD
ATOM     52 22HE GLN E   0      -2.314  -2.514 -17.453  1.00 28.66 LIG 0.16  HD
ENDBRANCH 47 48
ENDBRANCH 46 47
ENDBRANCH 40 46
ENDBRANCH 37 40
ENDBRANCH 31 36
ENDBRANCH 1 31
TORSDOF 19
ENDMDL
MODEL 45
USER: ADFR SOLUTION from run 69
USER: SCORE 15.757948 LL:  -4.240 LR: -13.274 RR:   0.000 FEB:  -7.607
USER: RMSD 4.696418
USER: SEED 68
USER: STATUS no improvement in best in 7 clusters for 5 generations
USER: GENES 21
USER: genes 0 Translation |==|  0.48323 0.39617 0.53227
USER: genes 1 Rotation |==|  0.05580 0.66533 0.39000 0.61513
USER: genes 2 Torsion [C]-N--CA-[CB] |==|  0.78917
USER: genes 3 Torsion [N]-CA--C-[N] |==|  0.22596
USER: genes 4 Torsion [C]-N--CA-[CB] |==|  0.21111
USER: genes 5 Torsion [N]-CA--C-[N] |==|  0.02589
USER: genes 6 Torsion [C]-N--CA-[C] |==|  0.69345
USER: genes 7 Torsion [N]-CA--C-[OXT] |==|  0.36835
USER: genes 8 Torsion [N]-CA--CB-[CG] |==|  0.81943
USER: genes 9 Torsion [CA]-CB--CG-[CD1] |==|  0.16121
USER: genes 10 Torsion [N]-CA--CB-[CG] |==|  0.72724
USER: genes 11 Torsion [CA]-CB--CG-[CD2] |==|  0.63198
USER: genes 12 Torsion [N]-C--CA-[N] |==|  0.54025
USER: genes 13 Torsion [C]-CA--CB-[CG] |==|  0.45093
USER: genes 14 Torsion [CA]-CB--CG-[CD1] |==|  0.87766
USER: genes 15 Torsion [C]-CA--N-[C] |==|  0.15825
USER: genes 16 Torsion [N]-C--CA-[N] |==|  0.23432
USER: genes 17 Torsion [C]-CA--N-[C] |==|  0.76387
USER: genes 18 Torsion [C]-CA--CB-[CG] |==|  0.11481
USER: genes 19 Torsion [CA]-CB--CG-[CD] |==|  0.28364
USER: genes 20 Torsion [CB]-CG--CD-[OE1] |==|  0.11107
ROOT
ATOM      1  C   LEU E   1       3.240  -6.732 -12.293  1.00 34.74 LIG 0.24  C 
ATOM      2 O    LEU E   1       3.441  -6.922 -13.488  1.00 33.94 LIG-0.27  OA
ATOM      3  N   ALA E   2       4.050  -7.185 -11.337  1.00 36.28 LIG-0.35  N 
ATOM      4 H    ALA E   2       3.923  -7.040 -10.499  1.00 36.28 LIG 0.16  HD
ENDROOT
BRANCH 3 5
ATOM      5  CA  ALA E   2       5.245  -7.981 -11.630  1.00 35.94 LIG 0.17  C 
ATOM      6  CB  ALA E   2       4.856  -9.409 -11.988  1.00 33.95 LIG 0.04  C 
BRANCH 5 7
ATOM      7  C   ALA E   2       6.033  -7.335 -12.766  1.00 35.46 LIG 0.24  C 
ATOM      8 O    ALA E   2       5.902  -7.747 -13.920  1.00 34.79 LIG-0.27  OA
ATOM      9  N   LEU E   3       6.835  -6.317 -12.440  1.00 35.08 LIG-0.35  N 
ATOM     10 H    LEU E   3       6.856  -5.957 -11.659  1.00 35.08 LIG 0.16  HD
BRANCH 9 11
ATOM     11  CA  LEU E   3       7.771  -5.712 -13.409  1.00 35.40 LIG 0.18  C 
BRANCH 11 12
ATOM     12  C   LEU E   3       8.862  -4.891 -12.724  1.00 36.56 LIG 0.24  C 
ATOM     13  N   PHE E   4       8.917  -5.007 -11.396  1.00 37.64 LIG-0.34  N 
ATOM     14 H    PHE E   4       8.402  -5.536 -10.956  1.00 37.64 LIG 0.16  HD
ATOM     15 O    LEU E   3       9.603  -4.158 -13.381  1.00 36.99 LIG-0.27  OA
BRANCH 13 16
ATOM     16  CA  PHE E   4       9.838  -4.265 -10.546  1.00 39.79 LIG 0.19  C 
BRANCH 16 17
ATOM     17  C   PHE E   4      10.887  -5.227  -9.966  1.00 40.57 LIG 0.20  C 
ATOM     18 OXT  PHE E   4      12.078  -4.941  -9.996  1.00 44.77 LIG-0.65  OA
ATOM     19 O    PHE E   4      10.596  -6.307  -9.433  1.00 38.71 LIG-0.65  OA
ENDBRANCH 16 17
BRANCH 16 20
ATOM     20  CB  PHE E   4       9.081  -3.560  -9.411  1.00 41.62 LIG 0.07  C 
BRANCH 20 21
ATOM     21  CG  PHE E   4       8.135  -2.491  -9.886  1.00 42.37 LIG-0.06  A 
ATOM     22  CD1 PHE E   4       7.106  -2.799 -10.784  1.00 43.46 LIG 0.01  A 
ATOM     23  CE1 PHE E   4       6.241  -1.818 -11.237  1.00 44.96 LIG 0.00  A 
ATOM     24  CZ  PHE E   4       6.400  -0.509 -10.797  1.00 45.96 LIG 0.00  A 
ATOM     25  CE2 PHE E   4       7.417  -0.188  -9.899  1.00 43.80 LIG 0.00  A 
ATOM     26  CD2 PHE E   4       8.277  -1.179  -9.450  1.00 42.63 LIG 0.01  A 
ENDBRANCH 20 21
ENDBRANCH 16 20
ENDBRANCH 13 16
ENDBRANCH 11 12
BRANCH 11 27
ATOM     27  CB  LEU E   3       7.038  -4.806 -14.407  1.00 33.50 LIG 0.04  C 
BRANCH 27 28
ATOM     28  CG  LEU E   3       6.645  -5.292 -15.804  1.00 34.48 LIG-0.02  C 
ATOM     29  CD2 LEU E   3       7.025  -4.299 -16.888  1.00 30.77 LIG 0.01  C 
ATOM     30  CD1 LEU E   3       5.144  -5.565 -15.842  1.00 32.68 LIG 0.01  C 
ENDBRANCH 27 28
ENDBRANCH 11 27
ENDBRANCH 9 11
ENDBRANCH 5 7
ENDBRANCH 3 5
BRANCH 1 31
ATOM     31  CA  LEU E   1       2.028  -5.931 -11.826  1.00 33.78 LIG 0.18  C 
BRANCH 31 32
ATOM     32  CB  LEU E   1       1.396  -6.575 -10.591  1.00 32.47 LIG 0.04  C 
BRANCH 32 33
ATOM     33  CG  LEU E   1       0.456  -5.672  -9.781  1.00 32.32 LIG-0.02  C 
ATOM     34  CD1 LEU E   1       1.067  -4.286  -9.608  1.00 30.19 LIG 0.01  C 
ATOM     35  CD2 LEU E   1      -0.934  -5.604 -10.417  1.00 31.57 LIG 0.01  C 
ENDBRANCH 32 33
ENDBRANCH 31 32
BRANCH 31 36
ATOM     36  N   LEU E   1       1.045  -5.781 -12.902  1.00 33.92 LIG-0.35  N 
ATOM     37  C   GLN E   0       0.524  -6.846 -13.510  1.00 32.69 LIG 0.24  C 
ATOM     38 O    GLN E   0       0.885  -8.001 -13.271  1.00 35.54 LIG-0.27  OA
ATOM     39 H    LEU E   1       0.845  -4.967 -13.096  1.00 33.92 LIG 0.16  HD
BRANCH 37 40
ATOM     40  CA  GLN E   0      -0.560  -6.578 -14.534  1.00 31.66 LIG 0.18  C 
BRANCH 40 41
ATOM     41  N   GLN E   0       0.046  -6.253 -15.863  1.00 30.66 LIG-0.35  N 
ATOM     42  C   ACE E  -1       0.449  -5.028 -16.218  1.00 29.47 LIG 0.21  C 
ATOM     43 O    ACE E  -1       0.713  -4.128 -15.433  1.00 28.51 LIG-0.27  OA
ATOM     44  CH3 ACE E  -1       0.630  -4.806 -17.699  1.00 29.76 LIG 0.12  C 
ATOM     45 H    GLN E   0       0.113  -6.935 -16.382  1.00 30.66 LIG 0.16  HD
ENDBRANCH 40 41
BRANCH 40 46
ATOM     46  CB  GLN E   0      -1.491  -7.798 -14.646  1.00 31.02 LIG 0.04  C 
BRANCH 46 47
ATOM     47  CG  GLN E   0      -1.855  -8.462 -13.318  1.00 30.22 LIG 0.10  C 
BRANCH 47 48
ATOM     48  CD  GLN E   0      -3.251  -8.099 -12.829  1.00 30.34 LIG 0.21  C 
ATOM     49 OE1  GLN E   0      -4.204  -8.013 -13.616  1.00 29.98 LIG-0.27  OA
ATOM     50  NE2 GLN E   0      -3.381  -7.885 -11.527  1.00 28.66 LIG-0.37  N 
ATOM     51 21HE GLN E   0      -2.698  -7.954 -11.010  1.00 28.66 LIG 0.16  HD
ATOM     52 22HE GLN E   0      -4.149  -7.678 -11.200  1.00 28.66 LIG 0.16  HD
ENDBRANCH 47 48
ENDBRANCH 46 47
ENDBRANCH 40 46
ENDBRANCH 37 40
ENDBRANCH 31 36
ENDBRANCH 1 31
TORSDOF 19
ENDMDL
MODEL 46
USER: ADFR SOLUTION from run 152
USER: SCORE 15.919258 LL:  -4.726 LR: -13.236 RR:   0.000 FEB:  -7.569
USER: RMSD 4.127369
USER: SEED 151
USER: STATUS no improvement in best in 27 clusters for 5 generations
USER: GENES 21
USER: genes 0 Translation |==|  0.45545 0.43093 0.54720
USER: genes 1 Rotation |==|  0.48241 0.61696 0.40108 0.97563
USER: genes 2 Torsion [C]-N--CA-[CB] |==|  0.50054
USER: genes 3 Torsion [N]-CA--C-[N] |==|  0.28135
USER: genes 4 Torsion [C]-N--CA-[CB] |==|  0.38963
USER: genes 5 Torsion [N]-CA--C-[N] |==|  0.90273
USER: genes 6 Torsion [C]-N--CA-[C] |==|  0.61343
USER: genes 7 Torsion [N]-CA--C-[OXT] |==|  0.45191
USER: genes 8 Torsion [N]-CA--CB-[CG] |==|  0.85078
USER: genes 9 Torsion [CA]-CB--CG-[CD1] |==|  0.22716
USER: genes 10 Torsion [N]-CA--CB-[CG] |==|  0.63448
USER: genes 11 Torsion [CA]-CB--CG-[CD2] |==|  0.83734
USER: genes 12 Torsion [N]-C--CA-[N] |==|  0.96730
USER: genes 13 Torsion [C]-CA--CB-[CG] |==|  0.29730
USER: genes 14 Torsion [CA]-CB--CG-[CD1] |==|  0.47027
USER: genes 15 Torsion [C]-CA--N-[C] |==|  0.76849
USER: genes 16 Torsion [N]-C--CA-[N] |==|  0.94333
USER: genes 17 Torsion [C]-CA--N-[C] |==|  0.78932
USER: genes 18 Torsion [C]-CA--CB-[CG] |==|  0.29098
USER: genes 19 Torsion [CA]-CB--CG-[CD] |==|  0.75511
USER: genes 20 Torsion [CB]-CG--CD-[OE1] |==|  0.20124
ROOT
ATOM      1  C   LEU E   1       2.532  -6.159 -12.046  1.00 34.74 LIG 0.24  C 
ATOM      2 O    LEU E   1       3.232  -5.540 -11.251  1.00 33.94 LIG-0.27  OA
ATOM      3  N   ALA E   2       2.996  -7.145 -12.811  1.00 36.28 LIG-0.35  N 
ATOM      4 H    ALA E   2       2.505  -7.593 -13.357  1.00 36.28 LIG 0.16  HD
ENDROOT
BRANCH 3 5
ATOM      5  CA  ALA E   2       4.400  -7.562 -12.792  1.00 35.94 LIG 0.17  C 
ATOM      6  CB  ALA E   2       4.628  -8.706 -13.772  1.00 33.95 LIG 0.04  C 
BRANCH 5 7
ATOM      7  C   ALA E   2       5.298  -6.375 -13.129  1.00 35.46 LIG 0.24  C 
ATOM      8 O    ALA E   2       5.423  -6.009 -14.299  1.00 34.79 LIG-0.27  OA
ATOM      9  N   LEU E   3       5.907  -5.770 -12.104  1.00 35.08 LIG-0.35  N 
ATOM     10 H    LEU E   3       5.746  -5.952 -11.279  1.00 35.08 LIG 0.16  HD
BRANCH 9 11
ATOM     11  CA  LEU E   3       6.924  -4.719 -12.304  1.00 35.40 LIG 0.18  C 
BRANCH 11 12
ATOM     12  C   LEU E   3       8.347  -5.266 -12.210  1.00 36.56 LIG 0.24  C 
ATOM     13  N   PHE E   4       8.525  -6.248 -11.325  1.00 37.64 LIG-0.34  N 
ATOM     14 H    PHE E   4       7.878  -6.581 -10.866  1.00 37.64 LIG 0.16  HD
ATOM     15 O    LEU E   3       9.251  -4.787 -12.896  1.00 36.99 LIG-0.27  OA
BRANCH 13 16
ATOM     16  CA  PHE E   4       9.811  -6.866 -11.034  1.00 39.79 LIG 0.19  C 
BRANCH 16 17
ATOM     17  C   PHE E   4       9.628  -8.384 -10.882  1.00 40.57 LIG 0.20  C 
ATOM     18 OXT  PHE E   4      10.592  -9.137 -10.950  1.00 44.77 LIG-0.65  OA
ATOM     19 O    PHE E   4       8.530  -8.918 -10.672  1.00 38.71 LIG-0.65  OA
ENDBRANCH 16 17
BRANCH 16 20
ATOM     20  CB  PHE E   4      10.418  -6.276  -9.752  1.00 41.62 LIG 0.07  C 
BRANCH 20 21
ATOM     21  CG  PHE E   4      10.520  -4.775  -9.766  1.00 42.37 LIG-0.06  A 
ATOM     22  CD1 PHE E   4       9.410  -3.983  -9.450  1.00 43.46 LIG 0.01  A 
ATOM     23  CE1 PHE E   4       9.492  -2.602  -9.474  1.00 44.96 LIG 0.00  A 
ATOM     24  CZ  PHE E   4      10.693  -1.994  -9.821  1.00 45.96 LIG 0.00  A 
ATOM     25  CE2 PHE E   4      11.808  -2.769 -10.134  1.00 43.80 LIG 0.00  A 
ATOM     26  CD2 PHE E   4      11.716  -4.152 -10.104  1.00 42.63 LIG 0.01  A 
ENDBRANCH 20 21
ENDBRANCH 16 20
ENDBRANCH 13 16
ENDBRANCH 11 12
BRANCH 11 27
ATOM     27  CB  LEU E   3       6.771  -3.587 -11.280  1.00 33.50 LIG 0.04  C 
BRANCH 27 28
ATOM     28  CG  LEU E   3       6.762  -2.115 -11.695  1.00 34.48 LIG-0.02  C 
ATOM     29  CD2 LEU E   3       8.032  -1.712 -12.423  1.00 30.77 LIG 0.01  C 
ATOM     30  CD1 LEU E   3       6.564  -1.241 -10.459  1.00 32.68 LIG 0.01  C 
ENDBRANCH 27 28
ENDBRANCH 11 27
ENDBRANCH 9 11
ENDBRANCH 5 7
ENDBRANCH 3 5
BRANCH 1 31
ATOM     31  CA  LEU E   1       1.048  -5.831 -12.192  1.00 33.78 LIG 0.18  C 
BRANCH 31 32
ATOM     32  CB  LEU E   1       0.285  -6.200 -10.918  1.00 32.47 LIG 0.04  C 
BRANCH 32 33
ATOM     33  CG  LEU E   1      -0.170  -5.017 -10.053  1.00 32.32 LIG-0.02  C 
ATOM     34  CD1 LEU E   1      -1.133  -5.488  -8.970  1.00 30.19 LIG 0.01  C 
ATOM     35  CD2 LEU E   1       1.027  -4.269  -9.462  1.00 31.57 LIG 0.01  C 
ENDBRANCH 32 33
ENDBRANCH 31 32
BRANCH 31 36
ATOM     36  N   LEU E   1       0.470  -6.497 -13.362  1.00 33.92 LIG-0.35  N 
ATOM     37  C   GLN E   0       0.578  -5.964 -14.578  1.00 32.69 LIG 0.24  C 
ATOM     38 O    GLN E   0       1.087  -4.861 -14.788  1.00 35.54 LIG-0.27  OA
ATOM     39 H    LEU E   1       0.069  -7.238 -13.192  1.00 33.92 LIG 0.16  HD
BRANCH 37 40
ATOM     40  CA  GLN E   0       0.036  -6.789 -15.728  1.00 31.66 LIG 0.18  C 
BRANCH 40 41
ATOM     41  N   GLN E   0      -0.066  -8.229 -15.335  1.00 30.66 LIG-0.35  N 
ATOM     42  C   ACE E  -1       0.984  -9.052 -15.245  1.00 29.47 LIG 0.21  C 
ATOM     43 O    ACE E  -1       2.143  -8.688 -15.112  1.00 28.51 LIG-0.27  OA
ATOM     44  CH3 ACE E  -1       0.659 -10.526 -15.256  1.00 29.76 LIG 0.12  C 
ATOM     45 H    GLN E   0      -0.872  -8.481 -15.170  1.00 30.66 LIG 0.16  HD
ENDBRANCH 40 41
BRANCH 40 46
ATOM     46  CB  GLN E   0      -1.336  -6.247 -16.163  1.00 31.02 LIG 0.04  C 
BRANCH 46 47
ATOM     47  CG  GLN E   0      -1.337  -5.446 -17.466  1.00 30.22 LIG 0.10  C 
BRANCH 47 48
ATOM     48  CD  GLN E   0      -1.057  -3.964 -17.258  1.00 30.34 LIG 0.21  C 
ATOM     49 OE1  GLN E   0       0.076  -3.560 -16.962  1.00 29.98 LIG-0.27  OA
ATOM     50  NE2 GLN E   0      -2.087  -3.144 -17.413  1.00 28.66 LIG-0.37  N 
ATOM     51 21HE GLN E   0      -2.860  -3.459 -17.619  1.00 28.66 LIG 0.16  HD
ATOM     52 22HE GLN E   0      -1.983  -2.296 -17.308  1.00 28.66 LIG 0.16  HD
ENDBRANCH 47 48
ENDBRANCH 46 47
ENDBRANCH 40 46
ENDBRANCH 37 40
ENDBRANCH 31 36
ENDBRANCH 1 31
TORSDOF 19
ENDMDL
MODEL 47
USER: ADFR SOLUTION from run 54
USER: SCORE 15.580343 LL:  -4.043 LR: -13.225 RR:   0.000 FEB:  -7.558
USER: RMSD 5.013676
USER: SEED 53
USER: STATUS no improvement in best in 17 clusters for 5 generations
USER: GENES 21
USER: genes 0 Translation |==|  0.44991 0.44548 0.57920
USER: genes 1 Rotation |==|  0.45526 0.61832 0.43098 0.97878
USER: genes 2 Torsion [C]-N--CA-[CB] |==|  0.50138
USER: genes 3 Torsion [N]-CA--C-[N] |==|  0.26511
USER: genes 4 Torsion [C]-N--CA-[CB] |==|  0.50689
USER: genes 5 Torsion [N]-CA--C-[N] |==|  0.45959
USER: genes 6 Torsion [C]-N--CA-[C] |==|  0.81611
USER: genes 7 Torsion [N]-CA--C-[OXT] |==|  0.44881
USER: genes 8 Torsion [N]-CA--CB-[CG] |==|  0.80529
USER: genes 9 Torsion [CA]-CB--CG-[CD1] |==|  0.43582
USER: genes 10 Torsion [N]-CA--CB-[CG] |==|  0.55979
USER: genes 11 Torsion [CA]-CB--CG-[CD2] |==|  0.56144
USER: genes 12 Torsion [N]-C--CA-[N] |==|  0.97435
USER: genes 13 Torsion [C]-CA--CB-[CG] |==|  0.30745
USER: genes 14 Torsion [CA]-CB--CG-[CD1] |==|  0.45934
USER: genes 15 Torsion [C]-CA--N-[C] |==|  0.80000
USER: genes 16 Torsion [N]-C--CA-[N] |==|  0.01667
USER: genes 17 Torsion [C]-CA--N-[C] |==|  0.19362
USER: genes 18 Torsion [C]-CA--CB-[CG] |==|  0.98262
USER: genes 19 Torsion [CA]-CB--CG-[CD] |==|  0.34026
USER: genes 20 Torsion [CB]-CG--CD-[OE1] |==|  0.27985
ROOT
ATOM      1  C   LEU E   1       2.391  -5.919 -11.518  1.00 34.74 LIG 0.24  C 
ATOM      2 O    LEU E   1       3.014  -5.150 -10.793  1.00 33.94 LIG-0.27  OA
ATOM      3  N   ALA E   2       2.973  -6.885 -12.225  1.00 36.28 LIG-0.35  N 
ATOM      4 H    ALA E   2       2.538  -7.437 -12.722  1.00 36.28 LIG 0.16  HD
ENDROOT
BRANCH 3 5
ATOM      5  CA  ALA E   2       4.422  -7.099 -12.223  1.00 35.94 LIG 0.17  C 
ATOM      6  CB  ALA E   2       4.788  -8.265 -13.132  1.00 33.95 LIG 0.04  C 
BRANCH 5 7
ATOM      7  C   ALA E   2       5.135  -5.825 -12.667  1.00 35.46 LIG 0.24  C 
ATOM      8 O    ALA E   2       5.275  -5.582 -13.867  1.00 34.79 LIG-0.27  OA
ATOM      9  N   LEU E   3       5.568  -5.009 -11.700  1.00 35.08 LIG-0.35  N 
ATOM     10 H    LEU E   3       5.385  -5.118 -10.867  1.00 35.08 LIG 0.16  HD
BRANCH 9 11
ATOM     11  CA  LEU E   3       6.412  -3.831 -11.985  1.00 35.40 LIG 0.18  C 
BRANCH 11 12
ATOM     12  C   LEU E   3       7.681  -4.201 -12.750  1.00 36.56 LIG 0.24  C 
ATOM     13  N   PHE E   4       8.334  -3.178 -13.303  1.00 37.64 LIG-0.34  N 
ATOM     14 H    PHE E   4       8.084  -2.361 -13.205  1.00 37.64 LIG 0.16  HD
ATOM     15 O    LEU E   3       8.031  -5.377 -12.854  1.00 36.99 LIG-0.27  OA
BRANCH 13 16
ATOM     16  CA  PHE E   4       9.529  -3.317 -14.124  1.00 39.79 LIG 0.19  C 
BRANCH 16 17
ATOM     17  C   PHE E   4      10.686  -3.844 -13.260  1.00 40.57 LIG 0.20  C 
ATOM     18 OXT  PHE E   4      11.672  -4.350 -13.782  1.00 44.77 LIG-0.65  OA
ATOM     19 O    PHE E   4      10.697  -3.773 -12.024  1.00 38.71 LIG-0.65  OA
ENDBRANCH 16 17
BRANCH 16 20
ATOM     20  CB  PHE E   4       9.912  -1.970 -14.756  1.00 41.62 LIG 0.07  C 
BRANCH 20 21
ATOM     21  CG  PHE E   4       8.958  -1.509 -15.823  1.00 42.37 LIG-0.06  A 
ATOM     22  CD1 PHE E   4       8.861  -0.152 -16.154  1.00 43.46 LIG 0.01  A 
ATOM     23  CE1 PHE E   4       7.974   0.282 -17.126  1.00 44.96 LIG 0.00  A 
ATOM     24  CZ  PHE E   4       7.167  -0.644 -17.776  1.00 45.96 LIG 0.00  A 
ATOM     25  CE2 PHE E   4       7.255  -1.999 -17.461  1.00 43.80 LIG 0.00  A 
ATOM     26  CD2 PHE E   4       8.147  -2.422 -16.489  1.00 42.63 LIG 0.01  A 
ENDBRANCH 20 21
ENDBRANCH 16 20
ENDBRANCH 13 16
ENDBRANCH 11 12
BRANCH 11 27
ATOM     27  CB  LEU E   3       6.817  -3.105 -10.696  1.00 33.50 LIG 0.04  C 
BRANCH 27 28
ATOM     28  CG  LEU E   3       7.257  -1.640 -10.695  1.00 34.48 LIG-0.02  C 
ATOM     29  CD2 LEU E   3       8.096  -1.289  -9.480  1.00 30.77 LIG 0.01  C 
ATOM     30  CD1 LEU E   3       6.025  -0.741 -10.762  1.00 32.68 LIG 0.01  C 
ENDBRANCH 27 28
ENDBRANCH 11 27
ENDBRANCH 9 11
ENDBRANCH 5 7
ENDBRANCH 3 5
BRANCH 1 31
ATOM     31  CA  LEU E   1       0.873  -5.814 -11.638  1.00 33.78 LIG 0.18  C 
BRANCH 31 32
ATOM     32  CB  LEU E   1       0.202  -6.128 -10.299  1.00 32.47 LIG 0.04  C 
BRANCH 32 33
ATOM     33  CG  LEU E   1      -0.467  -4.937  -9.599  1.00 32.32 LIG-0.02  C 
ATOM     34  CD1 LEU E   1      -1.392  -5.423  -8.489  1.00 30.19 LIG 0.01  C 
ATOM     35  CD2 LEU E   1       0.574  -3.944  -9.076  1.00 31.57 LIG 0.01  C 
ENDBRANCH 32 33
ENDBRANCH 31 32
BRANCH 31 36
ATOM     36  N   LEU E   1       0.363  -6.686 -12.699  1.00 33.92 LIG-0.35  N 
ATOM     37  C   GLN E   0       0.564  -6.396 -13.983  1.00 32.69 LIG 0.24  C 
ATOM     38 O    GLN E   0       1.109  -5.356 -14.361  1.00 35.54 LIG-0.27  OA
ATOM     39 H    LEU E   1      -0.065  -7.379 -12.420  1.00 33.92 LIG 0.16  HD
BRANCH 37 40
ATOM     40  CA  GLN E   0       0.085  -7.421 -14.991  1.00 31.66 LIG 0.18  C 
BRANCH 40 41
ATOM     41  N   GLN E   0      -0.666  -8.518 -14.304  1.00 30.66 LIG-0.35  N 
ATOM     42  C   ACE E  -1      -1.869  -8.357 -13.743  1.00 29.47 LIG 0.21  C 
ATOM     43 O    ACE E  -1      -2.649  -7.455 -14.015  1.00 28.51 LIG-0.27  OA
ATOM     44  CH3 ACE E  -1      -2.272  -9.421 -12.751  1.00 29.76 LIG 0.12  C 
ATOM     45 H    GLN E   0      -0.247  -9.269 -14.304  1.00 30.66 LIG 0.16  HD
ENDBRANCH 40 41
BRANCH 40 46
ATOM     46  CB  GLN E   0      -0.798  -6.742 -16.052  1.00 31.02 LIG 0.04  C 
BRANCH 46 47
ATOM     47  CG  GLN E   0      -1.118  -5.270 -15.787  1.00 30.22 LIG 0.10  C 
BRANCH 47 48
ATOM     48  CD  GLN E   0      -0.680  -4.348 -16.918  1.00 30.34 LIG 0.21  C 
ATOM     49 OE1  GLN E   0      -1.493  -3.924 -17.750  1.00 29.98 LIG-0.27  OA
ATOM     50  NE2 GLN E   0       0.607  -4.032 -16.953  1.00 28.66 LIG-0.37  N 
ATOM     51 21HE GLN E   0       1.143  -4.345 -16.358  1.00 28.66 LIG 0.16  HD
ATOM     52 22HE GLN E   0       0.906  -3.514 -17.572  1.00 28.66 LIG 0.16  HD
ENDBRANCH 47 48
ENDBRANCH 46 47
ENDBRANCH 40 46
ENDBRANCH 37 40
ENDBRANCH 31 36
ENDBRANCH 1 31
TORSDOF 19
ENDMDL
MODEL 48
USER: ADFR SOLUTION from run 101
USER: SCORE 15.037202 LL:  -4.295 LR: -13.229 RR:   0.000 FEB:  -7.561
USER: RMSD 3.800460
USER: SEED 100
USER: STATUS no improvement in best in 8 clusters for 5 generations
USER: GENES 21
USER: genes 0 Translation |==|  0.44170 0.41179 0.54862
USER: genes 1 Rotation |==|  0.06526 0.65322 0.45724 0.68893
USER: genes 2 Torsion [C]-N--CA-[CB] |==|  0.83786
USER: genes 3 Torsion [N]-CA--C-[N] |==|  0.15293
USER: genes 4 Torsion [C]-N--CA-[CB] |==|  0.50514
USER: genes 5 Torsion [N]-CA--C-[N] |==|  0.89511
USER: genes 6 Torsion [C]-N--CA-[C] |==|  0.53787
USER: genes 7 Torsion [N]-CA--C-[OXT] |==|  0.46455
USER: genes 8 Torsion [N]-CA--CB-[CG] |==|  0.27755
USER: genes 9 Torsion [CA]-CB--CG-[CD1] |==|  0.75259
USER: genes 10 Torsion [N]-CA--CB-[CG] |==|  0.53229
USER: genes 11 Torsion [CA]-CB--CG-[CD2] |==|  0.60100
USER: genes 12 Torsion [N]-C--CA-[N] |==|  0.92020
USER: genes 13 Torsion [C]-CA--CB-[CG] |==|  0.61293
USER: genes 14 Torsion [CA]-CB--CG-[CD1] |==|  0.41925
USER: genes 15 Torsion [C]-CA--N-[C] |==|  0.63598
USER: genes 16 Torsion [N]-C--CA-[N] |==|  0.36871
USER: genes 17 Torsion [C]-CA--N-[C] |==|  0.69080
USER: genes 18 Torsion [C]-CA--CB-[CG] |==|  0.41182
USER: genes 19 Torsion [CA]-CB--CG-[CD] |==|  0.13888
USER: genes 20 Torsion [CB]-CG--CD-[OE1] |==|  0.20770
ROOT
ATOM      1  C   LEU E   1       2.181  -6.474 -12.023  1.00 34.74 LIG 0.24  C 
ATOM      2 O    LEU E   1       2.228  -6.218 -13.222  1.00 33.94 LIG-0.27  OA
ATOM      3  N   ALA E   2       3.175  -7.069 -11.366  1.00 36.28 LIG-0.35  N 
ATOM      4 H    ALA E   2       3.155  -7.236 -10.523  1.00 36.28 LIG 0.16  HD
ENDROOT
BRANCH 3 5
ATOM      5  CA  ALA E   2       4.409  -7.500 -12.028  1.00 35.94 LIG 0.17  C 
ATOM      6  CB  ALA E   2       4.095  -8.485 -13.148  1.00 33.95 LIG 0.04  C 
BRANCH 5 7
ATOM      7  C   ALA E   2       5.157  -6.286 -12.573  1.00 35.46 LIG 0.24  C 
ATOM      8 O    ALA E   2       5.454  -6.229 -13.767  1.00 34.79 LIG-0.27  OA
ATOM      9  N   LEU E   3       5.444  -5.315 -11.700  1.00 35.08 LIG-0.35  N 
ATOM     10 H    LEU E   3       5.152  -5.299 -10.891  1.00 35.08 LIG 0.16  HD
BRANCH 9 11
ATOM     11  CA  LEU E   3       6.301  -4.166 -12.057  1.00 35.40 LIG 0.18  C 
BRANCH 11 12
ATOM     12  C   LEU E   3       7.673  -4.604 -12.565  1.00 36.56 LIG 0.24  C 
ATOM     13  N   PHE E   4       8.201  -5.662 -11.948  1.00 37.64 LIG-0.34  N 
ATOM     14 H    PHE E   4       7.785  -6.095 -11.332  1.00 37.64 LIG 0.16  HD
ATOM     15 O    LEU E   3       8.237  -3.981 -13.465  1.00 36.99 LIG-0.27  OA
BRANCH 13 16
ATOM     16  CA  PHE E   4       9.523  -6.203 -12.235  1.00 39.79 LIG 0.19  C 
BRANCH 16 17
ATOM     17  C   PHE E   4       9.657  -7.594 -11.594  1.00 40.57 LIG 0.20  C 
ATOM     18 OXT  PHE E   4      10.588  -8.331 -11.897  1.00 44.77 LIG-0.65  OA
ATOM     19 O    PHE E   4       8.866  -8.030 -10.748  1.00 38.71 LIG-0.65  OA
ENDBRANCH 16 17
BRANCH 16 20
ATOM     20  CB  PHE E   4      10.619  -5.267 -11.702  1.00 41.62 LIG 0.07  C 
BRANCH 20 21
ATOM     21  CG  PHE E   4      11.204  -5.708 -10.388  1.00 42.37 LIG-0.06  A 
ATOM     22  CD1 PHE E   4      10.635  -5.289  -9.179  1.00 43.46 LIG 0.01  A 
ATOM     23  CE1 PHE E   4      11.177  -5.678  -7.966  1.00 44.96 LIG 0.00  A 
ATOM     24  CZ  PHE E   4      12.303  -6.492  -7.950  1.00 45.96 LIG 0.00  A 
ATOM     25  CE2 PHE E   4      12.878  -6.921  -9.145  1.00 43.80 LIG 0.00  A 
ATOM     26  CD2 PHE E   4      12.327  -6.527 -10.355  1.00 42.63 LIG 0.01  A 
ENDBRANCH 20 21
ENDBRANCH 16 20
ENDBRANCH 13 16
ENDBRANCH 11 12
BRANCH 11 27
ATOM     27  CB  LEU E   3       6.505  -3.226 -10.862  1.00 33.50 LIG 0.04  C 
BRANCH 27 28
ATOM     28  CG  LEU E   3       7.128  -1.837 -11.021  1.00 34.48 LIG-0.02  C 
ATOM     29  CD2 LEU E   3       8.010  -1.461  -9.844  1.00 30.77 LIG 0.01  C 
ATOM     30  CD1 LEU E   3       6.020  -0.802 -11.201  1.00 32.68 LIG 0.01  C 
ENDBRANCH 27 28
ENDBRANCH 11 27
ENDBRANCH 9 11
ENDBRANCH 5 7
ENDBRANCH 3 5
BRANCH 1 31
ATOM     31  CA  LEU E   1       0.954  -6.100 -11.195  1.00 33.78 LIG 0.18  C 
BRANCH 31 32
ATOM     32  CB  LEU E   1       1.040  -4.645 -10.730  1.00 32.47 LIG 0.04  C 
BRANCH 32 33
ATOM     33  CG  LEU E   1       0.578  -4.383  -9.290  1.00 32.32 LIG-0.02  C 
ATOM     34  CD1 LEU E   1       1.320  -3.189  -8.701  1.00 30.19 LIG 0.01  C 
ATOM     35  CD2 LEU E   1      -0.940  -4.198  -9.219  1.00 31.57 LIG 0.01  C 
ENDBRANCH 32 33
ENDBRANCH 31 32
BRANCH 31 36
ATOM     36  N   LEU E   1       0.784  -7.007 -10.058  1.00 33.92 LIG-0.35  N 
ATOM     37  C   GLN E   0      -0.394  -7.572  -9.800  1.00 32.69 LIG 0.24  C 
ATOM     38 O    GLN E   0      -1.418  -7.315 -10.437  1.00 35.54 LIG-0.27  OA
ATOM     39 H    LEU E   1       1.494  -7.133  -9.589  1.00 33.92 LIG 0.16  HD
BRANCH 37 40
ATOM     40  CA  GLN E   0      -0.430  -8.574  -8.664  1.00 31.66 LIG 0.18  C 
BRANCH 40 41
ATOM     41  N   GLN E   0      -1.591  -8.298  -7.762  1.00 30.66 LIG-0.35  N 
ATOM     42  C   ACE E  -1      -1.470  -7.846  -6.509  1.00 29.47 LIG 0.21  C 
ATOM     43 O    ACE E  -1      -0.484  -7.271  -6.070  1.00 28.51 LIG-0.27  OA
ATOM     44  CH3 ACE E  -1      -2.682  -8.029  -5.630  1.00 29.76 LIG 0.12  C 
ATOM     45 H    GLN E   0      -2.353  -8.458  -8.128  1.00 30.66 LIG 0.16  HD
ENDBRANCH 40 41
BRANCH 40 46
ATOM     46  CB  GLN E   0      -0.507 -10.004  -9.226  1.00 31.02 LIG 0.04  C 
BRANCH 46 47
ATOM     47  CG  GLN E   0       0.179 -11.075  -8.377  1.00 30.22 LIG 0.10  C 
BRANCH 47 48
ATOM     48  CD  GLN E   0      -0.227 -11.027  -6.910  1.00 30.34 LIG 0.21  C 
ATOM     49 OE1  GLN E   0      -1.335 -11.437  -6.537  1.00 29.98 LIG-0.27  OA
ATOM     50  NE2 GLN E   0       0.668 -10.528  -6.069  1.00 28.66 LIG-0.37  N 
ATOM     51 21HE GLN E   0       1.428 -10.253  -6.363  1.00 28.66 LIG 0.16  HD
ATOM     52 22HE GLN E   0       0.489 -10.480  -5.228  1.00 28.66 LIG 0.16  HD
ENDBRANCH 47 48
ENDBRANCH 46 47
ENDBRANCH 40 46
ENDBRANCH 37 40
ENDBRANCH 31 36
ENDBRANCH 1 31
TORSDOF 19
ENDMDL
MODEL 49
USER: ADFR SOLUTION from run 135
USER: SCORE 15.064243 LL:  -4.520 LR: -13.187 RR:   0.000 FEB:  -7.519
USER: RMSD 3.991264
USER: SEED 134
USER: STATUS no improvement in best in 4 clusters for 5 generations
USER: GENES 21
USER: genes 0 Translation |==|  0.44697 0.40592 0.58884
USER: genes 1 Rotation |==|  0.84313 0.47700 0.48278 0.86255
USER: genes 2 Torsion [C]-N--CA-[CB] |==|  0.17135
USER: genes 3 Torsion [N]-CA--C-[N] |==|  0.19597
USER: genes 4 Torsion [C]-N--CA-[CB] |==|  0.50155
USER: genes 5 Torsion [N]-CA--C-[N] |==|  0.90540
USER: genes 6 Torsion [C]-N--CA-[C] |==|  0.64091
USER: genes 7 Torsion [N]-CA--C-[OXT] |==|  0.40658
USER: genes 8 Torsion [N]-CA--CB-[CG] |==|  0.85866
USER: genes 9 Torsion [CA]-CB--CG-[CD1] |==|  0.85391
USER: genes 10 Torsion [N]-CA--CB-[CG] |==|  0.00810
USER: genes 11 Torsion [CA]-CB--CG-[CD2] |==|  0.68964
USER: genes 12 Torsion [N]-C--CA-[N] |==|  0.19269
USER: genes 13 Torsion [C]-CA--CB-[CG] |==|  0.31842
USER: genes 14 Torsion [CA]-CB--CG-[CD1] |==|  0.53876
USER: genes 15 Torsion [C]-CA--N-[C] |==|  0.18331
USER: genes 16 Torsion [N]-C--CA-[N] |==|  0.06107
USER: genes 17 Torsion [C]-CA--N-[C] |==|  0.67270
USER: genes 18 Torsion [C]-CA--CB-[CG] |==|  0.20812
USER: genes 19 Torsion [CA]-CB--CG-[CD] |==|  0.13233
USER: genes 20 Torsion [CB]-CG--CD-[OE1] |==|  0.82182
ROOT
ATOM      1  C   LEU E   1       2.316  -6.571 -11.359  1.00 34.74 LIG 0.24  C 
ATOM      2 O    LEU E   1       2.174  -7.535 -10.612  1.00 33.94 LIG-0.27  OA
ATOM      3  N   ALA E   2       3.461  -6.292 -11.979  1.00 36.28 LIG-0.35  N 
ATOM      4 H    ALA E   2       3.560  -5.628 -12.516  1.00 36.28 LIG 0.16  HD
ENDROOT
BRANCH 3 5
ATOM      5  CA  ALA E   2       4.670  -7.098 -11.798  1.00 35.94 LIG 0.17  C 
ATOM      6  CB  ALA E   2       4.431  -8.527 -12.270  1.00 33.95 LIG 0.04  C 
BRANCH 5 7
ATOM      7  C   ALA E   2       5.833  -6.467 -12.559  1.00 35.46 LIG 0.24  C 
ATOM      8 O    ALA E   2       6.269  -7.006 -13.578  1.00 34.79 LIG-0.27  OA
ATOM      9  N   LEU E   3       6.320  -5.321 -12.072  1.00 35.08 LIG-0.35  N 
ATOM     10 H    LEU E   3       5.958  -4.886 -11.424  1.00 35.08 LIG 0.16  HD
BRANCH 9 11
ATOM     11  CA  LEU E   3       7.542  -4.693 -12.613  1.00 35.40 LIG 0.18  C 
BRANCH 11 12
ATOM     12  C   LEU E   3       8.750  -5.625 -12.544  1.00 36.56 LIG 0.24  C 
ATOM     13  N   PHE E   4       8.782  -6.443 -11.491  1.00 37.64 LIG-0.34  N 
ATOM     14 H    PHE E   4       8.149  -6.475 -10.909  1.00 37.64 LIG 0.16  HD
ATOM     15 O    LEU E   3       9.632  -5.575 -13.403  1.00 36.99 LIG-0.27  OA
BRANCH 13 16
ATOM     16  CA  PHE E   4       9.873  -7.364 -11.202  1.00 39.79 LIG 0.19  C 
BRANCH 16 17
ATOM     17  C   PHE E   4       9.304  -8.769 -10.950  1.00 40.57 LIG 0.20  C 
ATOM     18 OXT  PHE E   4       9.934  -9.765 -11.284  1.00 44.77 LIG-0.65  OA
ATOM     19 O    PHE E   4       8.215  -8.971 -10.396  1.00 38.71 LIG-0.65  OA
ENDBRANCH 16 17
BRANCH 16 20
ATOM     20  CB  PHE E   4      10.673  -6.891  -9.978  1.00 41.62 LIG 0.07  C 
BRANCH 20 21
ATOM     21  CG  PHE E   4      11.108  -5.453 -10.059  1.00 42.37 LIG-0.06  A 
ATOM     22  CD1 PHE E   4      11.804  -4.981 -11.178  1.00 43.46 LIG 0.01  A 
ATOM     23  CE1 PHE E   4      12.220  -3.663 -11.254  1.00 44.96 LIG 0.00  A 
ATOM     24  CZ  PHE E   4      11.947  -2.799 -10.200  1.00 45.96 LIG 0.00  A 
ATOM     25  CE2 PHE E   4      11.251  -3.252  -9.081  1.00 43.80 LIG 0.00  A 
ATOM     26  CD2 PHE E   4      10.837  -4.574  -9.016  1.00 42.63 LIG 0.01  A 
ENDBRANCH 20 21
ENDBRANCH 16 20
ENDBRANCH 13 16
ENDBRANCH 11 12
BRANCH 11 27
ATOM     27  CB  LEU E   3       7.886  -3.398 -11.867  1.00 33.50 LIG 0.04  C 
BRANCH 27 28
ATOM     28  CG  LEU E   3       7.065  -2.911 -10.670  1.00 34.48 LIG-0.02  C 
ATOM     29  CD2 LEU E   3       6.290  -1.642 -10.980  1.00 30.77 LIG 0.01  C 
ATOM     30  CD1 LEU E   3       7.991  -2.684  -9.479  1.00 32.68 LIG 0.01  C 
ENDBRANCH 27 28
ENDBRANCH 11 27
ENDBRANCH 9 11
ENDBRANCH 5 7
ENDBRANCH 3 5
BRANCH 1 31
ATOM     31  CA  LEU E   1       1.149  -5.627 -11.638  1.00 33.78 LIG 0.18  C 
BRANCH 31 32
ATOM     32  CB  LEU E   1       0.018  -5.855 -10.634  1.00 32.47 LIG 0.04  C 
BRANCH 32 33
ATOM     33  CG  LEU E   1      -0.272  -4.683  -9.686  1.00 32.32 LIG-0.02  C 
ATOM     34  CD1 LEU E   1      -1.158  -5.138  -8.532  1.00 30.19 LIG 0.01  C 
ATOM     35  CD2 LEU E   1       1.023  -4.038  -9.187  1.00 31.57 LIG 0.01  C 
ENDBRANCH 32 33
ENDBRANCH 31 32
BRANCH 31 36
ATOM     36  N   LEU E   1       0.668  -5.769 -13.014  1.00 33.92 LIG-0.35  N 
ATOM     37  C   GLN E   0       0.094  -6.897 -13.428  1.00 32.69 LIG 0.24  C 
ATOM     38 O    GLN E   0       0.003  -7.905 -12.723  1.00 35.54 LIG-0.27  OA
ATOM     39 H    LEU E   1       0.789  -5.077 -13.510  1.00 33.92 LIG 0.16  HD
BRANCH 37 40
ATOM     40  CA  GLN E   0      -0.461  -6.896 -14.838  1.00 31.66 LIG 0.18  C 
BRANCH 40 41
ATOM     41  N   GLN E   0       0.200  -5.833 -15.658  1.00 30.66 LIG-0.35  N 
ATOM     42  C   ACE E  -1      -0.452  -4.799 -16.201  1.00 29.47 LIG 0.21  C 
ATOM     43 O    ACE E  -1      -1.541  -4.389 -15.825  1.00 28.51 LIG-0.27  OA
ATOM     44  CH3 ACE E  -1       0.271  -4.086 -17.317  1.00 29.76 LIG 0.12  C 
ATOM     45 H    GLN E   0       1.047  -5.949 -15.747  1.00 30.66 LIG 0.16  HD
ENDBRANCH 40 41
BRANCH 40 46
ATOM     46  CB  GLN E   0      -0.262  -8.279 -15.482  1.00 31.02 LIG 0.04  C 
BRANCH 46 47
ATOM     47  CG  GLN E   0      -1.211  -9.370 -14.985  1.00 30.22 LIG 0.10  C 
BRANCH 47 48
ATOM     48  CD  GLN E   0      -2.668  -8.929 -14.952  1.00 30.34 LIG 0.21  C 
ATOM     49 OE1  GLN E   0      -3.046  -8.018 -14.203  1.00 29.98 LIG-0.27  OA
ATOM     50  NE2 GLN E   0      -3.495  -9.571 -15.765  1.00 28.66 LIG-0.37  N 
ATOM     51 21HE GLN E   0      -3.198 -10.199 -16.272  1.00 28.66 LIG 0.16  HD
ATOM     52 22HE GLN E   0      -4.329  -9.360 -15.786  1.00 28.66 LIG 0.16  HD
ENDBRANCH 47 48
ENDBRANCH 46 47
ENDBRANCH 40 46
ENDBRANCH 37 40
ENDBRANCH 31 36
ENDBRANCH 1 31
TORSDOF 19
ENDMDL
MODEL 50
USER: ADFR SOLUTION from run 97
USER: SCORE 15.846916 LL:  -4.110 LR: -13.169 RR:   0.000 FEB:  -7.501
USER: RMSD 4.326591
USER: SEED 96
USER: STATUS no improvement in best in 9 clusters for 5 generations
USER: GENES 21
USER: genes 0 Translation |==|  0.44120 0.40687 0.54665
USER: genes 1 Rotation |==|  0.02768 0.63525 0.40834 0.51474
USER: genes 2 Torsion [C]-N--CA-[CB] |==|  0.84999
USER: genes 3 Torsion [N]-CA--C-[N] |==|  0.29139
USER: genes 4 Torsion [C]-N--CA-[CB] |==|  0.15926
USER: genes 5 Torsion [N]-CA--C-[N] |==|  0.04828
USER: genes 6 Torsion [C]-N--CA-[C] |==|  0.68457
USER: genes 7 Torsion [N]-CA--C-[OXT] |==|  0.57205
USER: genes 8 Torsion [N]-CA--CB-[CG] |==|  0.82372
USER: genes 9 Torsion [CA]-CB--CG-[CD1] |==|  0.66538
USER: genes 10 Torsion [N]-CA--CB-[CG] |==|  0.66749
USER: genes 11 Torsion [CA]-CB--CG-[CD2] |==|  0.02786
USER: genes 12 Torsion [N]-C--CA-[N] |==|  0.63352
USER: genes 13 Torsion [C]-CA--CB-[CG] |==|  0.60194
USER: genes 14 Torsion [CA]-CB--CG-[CD1] |==|  0.32908
USER: genes 15 Torsion [C]-CA--N-[C] |==|  0.15799
USER: genes 16 Torsion [N]-C--CA-[N] |==|  0.41140
USER: genes 17 Torsion [C]-CA--N-[C] |==|  0.81361
USER: genes 18 Torsion [C]-CA--CB-[CG] |==|  0.79695
USER: genes 19 Torsion [CA]-CB--CG-[CD] |==|  0.47533
USER: genes 20 Torsion [CB]-CG--CD-[OE1] |==|  0.74741
ROOT
ATOM      1  C   LEU E   1       2.169  -6.556 -12.055  1.00 34.74 LIG 0.24  C 
ATOM      2 O    LEU E   1       2.175  -7.182 -13.111  1.00 33.94 LIG-0.27  OA
ATOM      3  N   ALA E   2       3.178  -6.581 -11.188  1.00 36.28 LIG-0.35  N 
ATOM      4 H    ALA E   2       3.186  -6.131 -10.455  1.00 36.28 LIG 0.16  HD
ENDROOT
BRANCH 3 5
ATOM      5  CA  ALA E   2       4.381  -7.388 -11.403  1.00 35.94 LIG 0.17  C 
ATOM      6  CB  ALA E   2       4.007  -8.842 -11.658  1.00 33.95 LIG 0.04  C 
BRANCH 5 7
ATOM      7  C   ALA E   2       5.181  -6.824 -12.575  1.00 35.46 LIG 0.24  C 
ATOM      8 O    ALA E   2       4.786  -6.993 -13.730  1.00 34.79 LIG-0.27  OA
ATOM      9  N   LEU E   3       6.292  -6.144 -12.274  1.00 35.08 LIG-0.35  N 
ATOM     10 H    LEU E   3       6.520  -5.933 -11.472  1.00 35.08 LIG 0.16  HD
BRANCH 9 11
ATOM     11  CA  LEU E   3       7.239  -5.688 -13.311  1.00 35.40 LIG 0.18  C 
BRANCH 11 12
ATOM     12  C   LEU E   3       8.417  -4.916 -12.719  1.00 36.56 LIG 0.24  C 
ATOM     13  N   PHE E   4       8.608  -5.080 -11.409  1.00 37.64 LIG-0.34  N 
ATOM     14 H    PHE E   4       8.129  -5.614 -10.934  1.00 37.64 LIG 0.16  HD
ATOM     15 O    LEU E   3       9.102  -4.177 -13.426  1.00 36.99 LIG-0.27  OA
BRANCH 13 16
ATOM     16  CA  PHE E   4       9.633  -4.389 -10.638  1.00 39.79 LIG 0.19  C 
BRANCH 16 17
ATOM     17  C   PHE E   4      10.669  -5.408 -10.136  1.00 40.57 LIG 0.20  C 
ATOM     18 OXT  PHE E   4      11.323  -5.183  -9.125  1.00 44.77 LIG-0.65  OA
ATOM     19 O    PHE E   4      10.885  -6.490 -10.698  1.00 38.71 LIG-0.65  OA
ENDBRANCH 16 17
BRANCH 16 20
ATOM     20  CB  PHE E   4       9.006  -3.644  -9.450  1.00 41.62 LIG 0.07  C 
BRANCH 20 21
ATOM     21  CG  PHE E   4       8.058  -2.548  -9.855  1.00 42.37 LIG-0.06  A 
ATOM     22  CD1 PHE E   4       8.294  -1.223  -9.468  1.00 43.46 LIG 0.01  A 
ATOM     23  CE1 PHE E   4       7.418  -0.212  -9.825  1.00 44.96 LIG 0.00  A 
ATOM     24  CZ  PHE E   4       6.287  -0.519 -10.573  1.00 45.96 LIG 0.00  A 
ATOM     25  CE2 PHE E   4       6.041  -1.833 -10.969  1.00 43.80 LIG 0.00  A 
ATOM     26  CD2 PHE E   4       6.926  -2.837 -10.608  1.00 42.63 LIG 0.01  A 
ENDBRANCH 20 21
ENDBRANCH 16 20
ENDBRANCH 13 16
ENDBRANCH 11 12
BRANCH 11 27
ATOM     27  CB  LEU E   3       6.548  -4.794 -14.349  1.00 33.50 LIG 0.04  C 
BRANCH 27 28
ATOM     28  CG  LEU E   3       6.498  -5.166 -15.833  1.00 34.48 LIG-0.02  C 
ATOM     29  CD2 LEU E   3       6.976  -6.584 -16.089  1.00 30.77 LIG 0.01  C 
ATOM     30  CD1 LEU E   3       7.339  -4.175 -16.632  1.00 32.68 LIG 0.01  C 
ENDBRANCH 27 28
ENDBRANCH 11 27
ENDBRANCH 9 11
ENDBRANCH 5 7
ENDBRANCH 3 5
BRANCH 1 31
ATOM     31  CA  LEU E   1       0.977  -5.678 -11.680  1.00 33.78 LIG 0.18  C 
BRANCH 31 32
ATOM     32  CB  LEU E   1       1.124  -5.149 -10.252  1.00 32.47 LIG 0.04  C 
BRANCH 32 33
ATOM     33  CG  LEU E   1      -0.178  -5.048  -9.447  1.00 32.32 LIG-0.02  C 
ATOM     34  CD1 LEU E   1      -0.115  -5.945  -8.217  1.00 30.19 LIG 0.01  C 
ATOM     35  CD2 LEU E   1      -0.490  -3.597  -9.075  1.00 31.57 LIG 0.01  C 
ENDBRANCH 32 33
ENDBRANCH 31 32
BRANCH 31 36
ATOM     36  N   LEU E   1      -0.287  -6.399 -11.846  1.00 33.92 LIG-0.35  N 
ATOM     37  C   GLN E   0      -0.510  -7.549 -11.214  1.00 32.69 LIG 0.24  C 
ATOM     38 O    GLN E   0       0.342  -8.116 -10.525  1.00 35.54 LIG-0.27  OA
ATOM     39 H    LEU E   1      -0.850  -6.020 -12.374  1.00 33.92 LIG 0.16  HD
BRANCH 37 40
ATOM     40  CA  GLN E   0      -1.890  -8.154 -11.375  1.00 31.66 LIG 0.18  C 
BRANCH 40 41
ATOM     41  N   GLN E   0      -1.813  -9.648 -11.331  1.00 30.66 LIG-0.35  N 
ATOM     42  C   ACE E  -1      -1.218 -10.390 -12.270  1.00 29.47 LIG 0.21  C 
ATOM     43 O    ACE E  -1      -0.378  -9.974 -13.056  1.00 28.51 LIG-0.27  OA
ATOM     44  CH3 ACE E  -1      -1.598 -11.850 -12.286  1.00 29.76 LIG 0.12  C 
ATOM     45 H    GLN E   0      -2.191  -9.988 -10.638  1.00 30.66 LIG 0.16  HD
ENDBRANCH 40 41
BRANCH 40 46
ATOM     46  CB  GLN E   0      -2.827  -7.627 -10.274  1.00 31.02 LIG 0.04  C 
BRANCH 46 47
ATOM     47  CG  GLN E   0      -2.571  -8.192  -8.877  1.00 30.22 LIG 0.10  C 
BRANCH 47 48
ATOM     48  CD  GLN E   0      -3.372  -7.488  -7.790  1.00 30.34 LIG 0.21  C 
ATOM     49 OE1  GLN E   0      -2.912  -6.510  -7.185  1.00 29.98 LIG-0.27  OA
ATOM     50  NE2 GLN E   0      -4.577  -7.980  -7.536  1.00 28.66 LIG-0.37  N 
ATOM     51 21HE GLN E   0      -4.865  -8.660  -7.976  1.00 28.66 LIG 0.16  HD
ATOM     52 22HE GLN E   0      -5.071  -7.618  -6.932  1.00 28.66 LIG 0.16  HD
ENDBRANCH 47 48
ENDBRANCH 46 47
ENDBRANCH 40 46
ENDBRANCH 37 40
ENDBRANCH 31 36
ENDBRANCH 1 31
TORSDOF 19
ENDMDL
