MODEL 1
USER: ADFR SOLUTION from run 140
USER: SCORE 15.864393 LL:  -4.228 LR: -13.774 RR:   0.000 FEB:  -8.106
USER: RMSD 11.061777
USER: SEED 139
USER: STATUS no improvement in best in 3 clusters for 5 generations
USER: GENES 21
USER: genes 0 Translation |==|  0.30967 0.48652 0.56458
USER: genes 1 Rotation |==|  0.64127 0.06193 0.41333 0.67501
USER: genes 2 Torsion [C]-N--CA-[CB] |==|  0.18207
USER: genes 3 Torsion [N]-CA--C-[N] |==|  0.05556
USER: genes 4 Torsion [C]-N--CA-[CB] |==|  0.39423
USER: genes 5 Torsion [N]-CA--C-[N] |==|  0.18983
USER: genes 6 Torsion [C]-N--CA-[CB] |==|  0.32126
USER: genes 7 Torsion [N]-CA--C-[O] |==|  0.19934
USER: genes 8 Torsion [N]-CA--CB-[CG] |==|  0.90196
USER: genes 9 Torsion [CA]-CB--CG-[CD1] |==|  0.82627
USER: genes 10 Torsion [N]-CA--CB-[CG] |==|  0.73642
USER: genes 11 Torsion [CA]-CB--CG-[OD2] |==|  0.31955
USER: genes 12 Torsion [N]-C--CA-[N] |==|  0.42411
USER: genes 13 Torsion [C]-CA--CB-[CG] |==|  0.77783
USER: genes 14 Torsion [CA]-CB--CG-[CD2] |==|  0.52512
USER: genes 15 Torsion [C]-CA--N-[C] |==|  0.80628
USER: genes 16 Torsion [N]-C--CA-[N] |==|  0.33478
USER: genes 17 Torsion [C]-CA--N-[C] |==|  0.61716
USER: genes 18 Torsion [C]-CA--CB-[CG] |==|  0.48141
USER: genes 19 Torsion [CA]-CB--CG-[CD] |==|  0.52982
USER: genes 20 Torsion [CB]-CG--CD-[OE1] |==|  0.85435
ROOT
ATOM      1  C   LEU E   1      -0.961  -7.211 -11.467  1.00 39.66 LIG 0.24  C 
ATOM      2 O    LEU E   1      -1.911  -6.611 -11.977  1.00 37.26 LIG-0.27  OA
ATOM      3  N   ASP E   2      -1.099  -8.351 -10.788  1.00 41.55 LIG-0.35  N 
ATOM      4 H    ASP E   2      -0.441  -8.775 -10.431  1.00 41.55 LIG 0.16  HD
ENDROOT
BRANCH 3 5
ATOM      5  CA  ASP E   2      -2.402  -8.994 -10.584  1.00 42.33 LIG 0.19  C 
BRANCH 5 6
ATOM      6  C   ASP E   2      -2.294 -10.162  -9.610  1.00 41.58 LIG 0.24  C 
ATOM      7 O    ASP E   2      -3.167 -11.038  -9.580  1.00 40.78 LIG-0.27  OA
ATOM      8  N   ALA E   3      -1.223 -10.160  -8.814  1.00 40.17 LIG-0.35  N 
ATOM      9 H    ALA E   3      -0.630  -9.538  -8.825  1.00 40.17 LIG 0.16  HD
BRANCH 8 10
ATOM     10  CA  ALA E   3      -0.950 -11.222  -7.837  1.00 38.52 LIG 0.17  C 
ATOM     11  CB  ALA E   3       0.548 -11.515  -7.785  1.00 38.62 LIG 0.04  C 
BRANCH 10 12
ATOM     12  C   ALA E   3      -1.481 -10.912  -6.438  1.00 38.02 LIG 0.24  C 
ATOM     13 O    ALA E   3      -0.705 -10.696  -5.506  1.00 36.71 LIG-0.27  OA
ATOM     14  N   PHE E   4      -2.806 -10.895  -6.311  1.00 38.01 LIG-0.34  N 
ATOM     15 H    PHE E   4      -3.342 -11.131  -6.940  1.00 38.01 LIG 0.16  HD
BRANCH 14 16
ATOM     16  CA  PHE E   4      -3.485 -10.473  -5.088  1.00 38.29 LIG 0.19  C 
BRANCH 16 17
ATOM     17  C   PHE E   4      -4.400 -11.590  -4.594  1.00 39.00 LIG 0.20  C 
ATOM     18 OXT  PHE E   4      -5.625 -11.499  -4.706  1.00 39.22 LIG-0.65  OA
ATOM     19 O    PHE E   4      -3.934 -12.620  -4.096  1.00 39.04 LIG-0.65  OA
ENDBRANCH 16 17
BRANCH 16 20
ATOM     20  CB  PHE E   4      -4.314  -9.201  -5.344  1.00 37.57 LIG 0.07  C 
BRANCH 20 21
ATOM     21  CG  PHE E   4      -3.677  -8.251  -6.328  1.00 36.97 LIG-0.06  A 
ATOM     22  CD1 PHE E   4      -2.445  -7.657  -6.053  1.00 35.77 LIG 0.01  A 
ATOM     23  CE1 PHE E   4      -1.868  -6.772  -6.950  1.00 35.50 LIG 0.00  A 
ATOM     24  CZ  PHE E   4      -2.521  -6.475  -8.139  1.00 35.20 LIG 0.00  A 
ATOM     25  CE2 PHE E   4      -3.750  -7.057  -8.423  1.00 34.71 LIG 0.00  A 
ATOM     26  CD2 PHE E   4      -4.320  -7.939  -7.521  1.00 35.45 LIG 0.01  A 
ENDBRANCH 20 21
ENDBRANCH 16 20
ENDBRANCH 14 16
ENDBRANCH 10 12
ENDBRANCH 8 10
ENDBRANCH 5 6
BRANCH 5 27
ATOM     27  CB  ASP E   2      -2.992  -9.475 -11.916  1.00 43.54 LIG 0.15  C 
BRANCH 27 28
ATOM     28  CG  ASP E   2      -3.950  -8.467 -12.536  1.00 45.99 LIG 0.17  C 
ATOM     29 OD2  ASP E   2      -3.635  -7.939 -13.627  1.00 46.35 LIG-0.65  OA
ATOM     30 OD1  ASP E   2      -5.021  -8.207 -11.944  1.00 46.97 LIG-0.65  OA
ENDBRANCH 27 28
ENDBRANCH 5 27
ENDBRANCH 3 5
BRANCH 1 31
ATOM     31  CA  LEU E   1       0.471  -6.677 -11.613  1.00 39.47 LIG 0.18  C 
BRANCH 31 32
ATOM     32  CB  LEU E   1       0.925  -5.894 -10.369  1.00 38.97 LIG 0.04  C 
BRANCH 32 33
ATOM     33  CG  LEU E   1       0.436  -4.441 -10.249  1.00 40.05 LIG-0.02  C 
ATOM     34  CD2 LEU E   1       1.125  -3.708  -9.100  1.00 40.58 LIG 0.01  C 
ATOM     35  CD1 LEU E   1      -1.076  -4.375 -10.090  1.00 39.33 LIG 0.01  C 
ENDBRANCH 32 33
ENDBRANCH 31 32
BRANCH 31 36
ATOM     36  N   LEU E   1       0.630  -5.868 -12.822  1.00 38.97 LIG-0.35  N 
ATOM     37  C   GLN E   0       0.598  -6.408 -14.039  1.00 38.27 LIG 0.24  C 
ATOM     38 O    GLN E   0       0.449  -7.619 -14.242  1.00 40.12 LIG-0.27  OA
ATOM     39 H    LEU E   1       0.743  -5.029 -12.674  1.00 38.97 LIG 0.16  HD
BRANCH 37 40
ATOM     40  CA  GLN E   0       0.737  -5.432 -15.206  1.00 36.47 LIG 0.18  C 
BRANCH 40 41
ATOM     41  N   GLN E   0       1.923  -5.735 -16.068  1.00 35.61 LIG-0.35  N 
ATOM     42  C   ACE E  -1       2.748  -4.805 -16.560  1.00 35.56 LIG 0.21  C 
ATOM     43 O    ACE E  -1       2.621  -3.603 -16.374  1.00 35.09 LIG-0.27  OA
ATOM     44  CH3 ACE E  -1       3.784  -5.305 -17.541  1.00 35.40 LIG 0.12  C 
ATOM     45 H    GLN E   0       2.026  -6.575 -16.221  1.00 35.61 LIG 0.16  HD
ENDBRANCH 40 41
BRANCH 40 46
ATOM     46  CB  GLN E   0      -0.554  -5.437 -16.036  1.00 35.42 LIG 0.04  C 
BRANCH 46 47
ATOM     47  CG  GLN E   0      -0.586  -4.377 -17.136  1.00 33.87 LIG 0.10  C 
BRANCH 47 48
ATOM     48  CD  GLN E   0      -1.962  -4.236 -17.761  1.00 33.67 LIG 0.21  C 
ATOM     49 OE1  GLN E   0      -2.559  -5.220 -18.195  1.00 31.67 LIG-0.27  OA
ATOM     50  NE2 GLN E   0      -2.466  -3.005 -17.820  1.00 33.23 LIG-0.37  N 
ATOM     51 22HE GLN E   0      -3.240  -2.874 -18.172  1.00 33.23 LIG 0.16  HD
ATOM     52 21HE GLN E   0      -2.018  -2.341 -17.506  1.00 33.23 LIG 0.16  HD
ENDBRANCH 47 48
ENDBRANCH 46 47
ENDBRANCH 40 46
ENDBRANCH 37 40
ENDBRANCH 31 36
ENDBRANCH 1 31
TORSDOF 19
ENDMDL
MODEL 2
USER: ADFR SOLUTION from run 79
USER: SCORE 14.924609 LL:  -3.198 LR: -13.768 RR:   0.000 FEB:  -8.101
USER: RMSD 3.887674
USER: SEED 78
USER: STATUS no improvement in best in 12 clusters for 5 generations
USER: GENES 21
USER: genes 0 Translation |==|  0.49719 0.50324 0.56290
USER: genes 1 Rotation |==|  0.13013 0.57673 0.32671 0.77800
USER: genes 2 Torsion [C]-N--CA-[CB] |==|  0.55411
USER: genes 3 Torsion [N]-CA--C-[N] |==|  0.33987
USER: genes 4 Torsion [C]-N--CA-[CB] |==|  0.25471
USER: genes 5 Torsion [N]-CA--C-[N] |==|  0.97778
USER: genes 6 Torsion [C]-N--CA-[CB] |==|  0.26632
USER: genes 7 Torsion [N]-CA--C-[O] |==|  0.67350
USER: genes 8 Torsion [N]-CA--CB-[CG] |==|  0.06212
USER: genes 9 Torsion [CA]-CB--CG-[CD1] |==|  0.78238
USER: genes 10 Torsion [N]-CA--CB-[CG] |==|  0.58854
USER: genes 11 Torsion [CA]-CB--CG-[OD2] |==|  0.90274
USER: genes 12 Torsion [N]-C--CA-[N] |==|  0.16363
USER: genes 13 Torsion [C]-CA--CB-[CG] |==|  0.27789
USER: genes 14 Torsion [CA]-CB--CG-[CD2] |==|  0.54029
USER: genes 15 Torsion [C]-CA--N-[C] |==|  0.55589
USER: genes 16 Torsion [N]-C--CA-[N] |==|  0.29510
USER: genes 17 Torsion [C]-CA--N-[C] |==|  0.77201
USER: genes 18 Torsion [C]-CA--CB-[CG] |==|  0.76524
USER: genes 19 Torsion [CA]-CB--CG-[CD] |==|  0.62714
USER: genes 20 Torsion [CB]-CG--CD-[OE1] |==|  0.02924
ROOT
ATOM      1  C   LEU E   1       3.680  -6.948 -11.496  1.00 39.66 LIG 0.24  C 
ATOM      2 O    LEU E   1       4.470  -6.313 -12.201  1.00 37.26 LIG-0.27  OA
ATOM      3  N   ASP E   2       4.073  -7.831 -10.576  1.00 41.55 LIG-0.35  N 
ATOM      4 H    ASP E   2       3.528  -8.275 -10.081  1.00 41.55 LIG 0.16  HD
ENDROOT
BRANCH 3 5
ATOM      5  CA  ASP E   2       5.487  -8.129 -10.322  1.00 42.33 LIG 0.19  C 
BRANCH 5 6
ATOM      6  C   ASP E   2       6.289  -8.139 -11.619  1.00 41.58 LIG 0.24  C 
ATOM      7 O    ASP E   2       5.984  -8.905 -12.540  1.00 40.78 LIG-0.27  OA
ATOM      8  N   ALA E   3       7.318  -7.292 -11.675  1.00 40.17 LIG-0.35  N 
ATOM      9 H    ALA E   3       7.539  -6.775 -11.024  1.00 40.17 LIG 0.16  HD
BRANCH 8 10
ATOM     10  CA  ALA E   3       8.179  -7.154 -12.857  1.00 38.52 LIG 0.17  C 
ATOM     11  CB  ALA E   3       7.642  -6.056 -13.774  1.00 38.62 LIG 0.04  C 
BRANCH 10 12
ATOM     12  C   ALA E   3       9.645  -6.891 -12.514  1.00 38.02 LIG 0.24  C 
ATOM     13 O    ALA E   3      10.507  -6.899 -13.394  1.00 36.71 LIG-0.27  OA
ATOM     14  N   PHE E   4       9.908  -6.660 -11.230  1.00 38.01 LIG-0.34  N 
ATOM     15 H    PHE E   4       9.320  -6.741 -10.608  1.00 38.01 LIG 0.16  HD
BRANCH 14 16
ATOM     16  CA  PHE E   4      11.223  -6.245 -10.747  1.00 38.29 LIG 0.19  C 
BRANCH 16 17
ATOM     17  C   PHE E   4      11.506  -6.899  -9.397  1.00 39.00 LIG 0.20  C 
ATOM     18 OXT  PHE E   4      11.605  -8.124  -9.297  1.00 39.22 LIG-0.65  OA
ATOM     19 O    PHE E   4      11.667  -6.215  -8.381  1.00 39.04 LIG-0.65  OA
ENDBRANCH 16 17
BRANCH 16 20
ATOM     20  CB  PHE E   4      11.284  -4.714 -10.602  1.00 37.57 LIG 0.07  C 
BRANCH 20 21
ATOM     21  CG  PHE E   4       9.931  -4.065 -10.455  1.00 36.97 LIG-0.06  A 
ATOM     22  CD1 PHE E   4       9.111  -3.860 -11.565  1.00 35.77 LIG 0.01  A 
ATOM     23  CE1 PHE E   4       7.875  -3.249 -11.432  1.00 35.50 LIG 0.00  A 
ATOM     24  CZ  PHE E   4       7.442  -2.838 -10.178  1.00 35.20 LIG 0.00  A 
ATOM     25  CE2 PHE E   4       8.250  -3.032  -9.065  1.00 34.71 LIG 0.00  A 
ATOM     26  CD2 PHE E   4       9.485  -3.642  -9.206  1.00 35.45 LIG 0.01  A 
ENDBRANCH 20 21
ENDBRANCH 16 20
ENDBRANCH 14 16
ENDBRANCH 10 12
ENDBRANCH 8 10
ENDBRANCH 5 6
BRANCH 5 27
ATOM     27  CB  ASP E   2       5.644  -9.472  -9.599  1.00 43.54 LIG 0.15  C 
BRANCH 27 28
ATOM     28  CG  ASP E   2       6.845  -9.501  -8.662  1.00 45.99 LIG 0.17  C 
ATOM     29 OD2  ASP E   2       7.875  -8.874  -8.996  1.00 46.35 LIG-0.65  OA
ATOM     30 OD1  ASP E   2       6.758 -10.138  -7.588  1.00 46.97 LIG-0.65  OA
ENDBRANCH 27 28
ENDBRANCH 5 27
ENDBRANCH 3 5
BRANCH 1 31
ATOM     31  CA  LEU E   1       2.167  -6.730 -11.626  1.00 39.47 LIG 0.18  C 
BRANCH 31 32
ATOM     32  CB  LEU E   1       1.819  -5.770 -12.778  1.00 38.97 LIG 0.04  C 
BRANCH 32 33
ATOM     33  CG  LEU E   1       1.352  -6.410 -14.096  1.00 40.05 LIG-0.02  C 
ATOM     34  CD2 LEU E   1       1.380  -5.410 -15.249  1.00 40.58 LIG 0.01  C 
ATOM     35  CD1 LEU E   1      -0.035  -7.021 -13.955  1.00 39.33 LIG 0.01  C 
ENDBRANCH 32 33
ENDBRANCH 31 32
BRANCH 31 36
ATOM     36  N   LEU E   1       1.572  -6.271 -10.370  1.00 38.97 LIG-0.35  N 
ATOM     37  C   GLN E   0       0.270  -6.391 -10.123  1.00 38.27 LIG 0.24  C 
ATOM     38 O    GLN E   0      -0.533  -6.877 -10.928  1.00 40.12 LIG-0.27  OA
ATOM     39 H    LEU E   1       2.134  -5.925  -9.819  1.00 38.97 LIG 0.16  HD
BRANCH 37 40
ATOM     40  CA  GLN E   0      -0.198  -5.904  -8.752  1.00 36.47 LIG 0.18  C 
BRANCH 40 41
ATOM     41  N   GLN E   0      -0.942  -4.607  -8.828  1.00 35.61 LIG-0.35  N 
ATOM     42  C   ACE E  -1      -0.353  -3.408  -8.891  1.00 35.56 LIG 0.21  C 
ATOM     43 O    ACE E  -1       0.857  -3.233  -8.880  1.00 35.09 LIG-0.27  OA
ATOM     44  CH3 ACE E  -1      -1.282  -2.219  -8.794  1.00 35.40 LIG 0.12  C 
ATOM     45 H    GLN E   0      -1.796  -4.706  -8.827  1.00 35.61 LIG 0.16  HD
ENDBRANCH 40 41
BRANCH 40 46
ATOM     46  CB  GLN E   0      -1.059  -6.987  -8.089  1.00 35.42 LIG 0.04  C 
BRANCH 46 47
ATOM     47  CG  GLN E   0      -2.527  -6.954  -8.511  1.00 33.87 LIG 0.10  C 
BRANCH 47 48
ATOM     48  CD  GLN E   0      -3.470  -7.080  -7.329  1.00 33.67 LIG 0.21  C 
ATOM     49 OE1  GLN E   0      -3.047  -6.999  -6.177  1.00 31.67 LIG-0.27  OA
ATOM     50  NE2 GLN E   0      -4.755  -7.289  -7.610  1.00 33.23 LIG-0.37  N 
ATOM     51 22HE GLN E   0      -5.326  -7.375  -6.973  1.00 33.23 LIG 0.16  HD
ATOM     52 21HE GLN E   0      -5.012  -7.340  -8.429  1.00 33.23 LIG 0.16  HD
ENDBRANCH 47 48
ENDBRANCH 46 47
ENDBRANCH 40 46
ENDBRANCH 37 40
ENDBRANCH 31 36
ENDBRANCH 1 31
TORSDOF 19
ENDMDL
MODEL 3
USER: ADFR SOLUTION from run 129
USER: SCORE 15.528632 LL:  -4.158 LR: -13.578 RR:   0.000 FEB:  -7.911
USER: RMSD 10.785775
USER: SEED 128
USER: STATUS no improvement in best in 3 clusters for 5 generations
USER: GENES 21
USER: genes 0 Translation |==|  0.32515 0.49340 0.60059
USER: genes 1 Rotation |==|  0.56820 0.42073 0.05209 0.69607
USER: genes 2 Torsion [C]-N--CA-[CB] |==|  0.50043
USER: genes 3 Torsion [N]-CA--C-[N] |==|  0.53846
USER: genes 4 Torsion [C]-N--CA-[CB] |==|  0.86455
USER: genes 5 Torsion [N]-CA--C-[N] |==|  0.17933
USER: genes 6 Torsion [C]-N--CA-[CB] |==|  0.34518
USER: genes 7 Torsion [N]-CA--C-[O] |==|  0.68291
USER: genes 8 Torsion [N]-CA--CB-[CG] |==|  0.80964
USER: genes 9 Torsion [CA]-CB--CG-[CD1] |==|  0.87350
USER: genes 10 Torsion [N]-CA--CB-[CG] |==|  0.88309
USER: genes 11 Torsion [CA]-CB--CG-[OD2] |==|  0.20166
USER: genes 12 Torsion [N]-C--CA-[N] |==|  0.99068
USER: genes 13 Torsion [C]-CA--CB-[CG] |==|  0.09434
USER: genes 14 Torsion [CA]-CB--CG-[CD2] |==|  0.68597
USER: genes 15 Torsion [C]-CA--N-[C] |==|  0.67778
USER: genes 16 Torsion [N]-C--CA-[N] |==|  0.08850
USER: genes 17 Torsion [C]-CA--N-[C] |==|  0.65098
USER: genes 18 Torsion [C]-CA--CB-[CG] |==|  0.81061
USER: genes 19 Torsion [CA]-CB--CG-[CD] |==|  0.76498
USER: genes 20 Torsion [CB]-CG--CD-[OE1] |==|  0.41347
ROOT
ATOM      1  C   LEU E   1      -0.578  -7.103 -10.846  1.00 39.66 LIG 0.24  C 
ATOM      2 O    LEU E   1      -0.563  -7.224  -9.617  1.00 37.26 LIG-0.27  OA
ATOM      3  N   ASP E   2      -1.467  -7.718 -11.627  1.00 41.55 LIG-0.35  N 
ATOM      4 H    ASP E   2      -1.483  -7.636 -12.484  1.00 41.55 LIG 0.16  HD
ENDROOT
BRANCH 3 5
ATOM      5  CA  ASP E   2      -2.510  -8.600 -11.092  1.00 42.33 LIG 0.19  C 
BRANCH 5 6
ATOM      6  C   ASP E   2      -1.904  -9.739 -10.279  1.00 41.58 LIG 0.24  C 
ATOM      7 O    ASP E   2      -0.718  -9.702  -9.932  1.00 40.78 LIG-0.27  OA
ATOM      8  N   ALA E   3      -2.726 -10.750  -9.990  1.00 40.17 LIG-0.35  N 
ATOM      9 H    ALA E   3      -3.544 -10.780 -10.252  1.00 40.17 LIG 0.16  HD
BRANCH 8 10
ATOM     10  CA  ALA E   3      -2.315 -11.914  -9.195  1.00 38.52 LIG 0.17  C 
ATOM     11  CB  ALA E   3      -0.995 -12.472  -9.722  1.00 38.62 LIG 0.04  C 
BRANCH 10 12
ATOM     12  C   ALA E   3      -2.210 -11.622  -7.699  1.00 38.02 LIG 0.24  C 
ATOM     13 O    ALA E   3      -1.124 -11.686  -7.122  1.00 36.71 LIG-0.27  OA
ATOM     14  N   PHE E   4      -3.349 -11.303  -7.088  1.00 38.01 LIG-0.34  N 
ATOM     15 H    PHE E   4      -4.116 -11.344  -7.473  1.00 38.01 LIG 0.16  HD
BRANCH 14 16
ATOM     16  CA  PHE E   4      -3.411 -10.850  -5.701  1.00 38.29 LIG 0.19  C 
BRANCH 16 17
ATOM     17  C   PHE E   4      -4.164 -11.874  -4.857  1.00 39.00 LIG 0.20  C 
ATOM     18 OXT  PHE E   4      -3.692 -12.994  -4.651  1.00 39.22 LIG-0.65  OA
ATOM     19 O    PHE E   4      -5.252 -11.595  -4.341  1.00 39.04 LIG-0.65  OA
ENDBRANCH 16 17
BRANCH 16 20
ATOM     20  CB  PHE E   4      -4.119  -9.486  -5.611  1.00 37.57 LIG 0.07  C 
BRANCH 20 21
ATOM     21  CG  PHE E   4      -3.331  -8.353  -6.221  1.00 36.97 LIG-0.06  A 
ATOM     22  CD1 PHE E   4      -1.969  -8.206  -5.958  1.00 35.77 LIG 0.01  A 
ATOM     23  CE1 PHE E   4      -1.249  -7.156  -6.507  1.00 35.50 LIG 0.00  A 
ATOM     24  CZ  PHE E   4      -1.890  -6.241  -7.331  1.00 35.20 LIG 0.00  A 
ATOM     25  CE2 PHE E   4      -3.246  -6.373  -7.598  1.00 34.71 LIG 0.00  A 
ATOM     26  CD2 PHE E   4      -3.959  -7.424  -7.045  1.00 35.45 LIG 0.01  A 
ENDBRANCH 20 21
ENDBRANCH 16 20
ENDBRANCH 14 16
ENDBRANCH 10 12
ENDBRANCH 8 10
ENDBRANCH 5 6
BRANCH 5 27
ATOM     27  CB  ASP E   2      -3.382  -9.167 -12.220  1.00 43.54 LIG 0.15  C 
BRANCH 27 28
ATOM     28  CG  ASP E   2      -3.732  -8.126 -13.275  1.00 45.99 LIG 0.17  C 
ATOM     29 OD2  ASP E   2      -2.833  -7.749 -14.060  1.00 46.35 LIG-0.65  OA
ATOM     30 OD1  ASP E   2      -4.904  -7.692 -13.331  1.00 46.97 LIG-0.65  OA
ENDBRANCH 27 28
ENDBRANCH 5 27
ENDBRANCH 3 5
BRANCH 1 31
ATOM     31  CA  LEU E   1       0.437  -6.194 -11.555  1.00 39.47 LIG 0.18  C 
BRANCH 31 32
ATOM     32  CB  LEU E   1       0.373  -4.746 -11.038  1.00 38.97 LIG 0.04  C 
BRANCH 32 33
ATOM     33  CG  LEU E   1       0.039  -4.557  -9.549  1.00 40.05 LIG-0.02  C 
ATOM     34  CD2 LEU E   1      -1.320  -3.887  -9.358  1.00 40.58 LIG 0.01  C 
ATOM     35  CD1 LEU E   1       1.125  -3.769  -8.831  1.00 39.33 LIG 0.01  C 
ENDBRANCH 32 33
ENDBRANCH 31 32
BRANCH 31 36
ATOM     36  N   LEU E   1       0.280  -6.234 -13.009  1.00 38.97 LIG-0.35  N 
ATOM     37  C   GLN E   0       1.237  -6.705 -13.806  1.00 38.27 LIG 0.24  C 
ATOM     38 O    GLN E   0       2.323  -7.125 -13.391  1.00 40.12 LIG-0.27  OA
ATOM     39 H    LEU E   1      -0.473  -5.931 -13.292  1.00 38.97 LIG 0.16  HD
BRANCH 37 40
ATOM     40  CA  GLN E   0       0.913  -6.721 -15.300  1.00 36.47 LIG 0.18  C 
BRANCH 40 41
ATOM     41  N   GLN E   0       0.008  -5.598 -15.702  1.00 35.61 LIG-0.35  N 
ATOM     42  C   ACE E  -1      -1.148  -5.765 -16.353  1.00 35.56 LIG 0.21  C 
ATOM     43 O    ACE E  -1      -1.589  -6.849 -16.706  1.00 35.09 LIG-0.27  OA
ATOM     44  CH3 ACE E  -1      -1.828  -4.495 -16.811  1.00 35.40 LIG 0.12  C 
ATOM     45 H    GLN E   0       0.305  -4.824 -15.472  1.00 35.61 LIG 0.16  HD
ENDBRANCH 40 41
BRANCH 40 46
ATOM     46  CB  GLN E   0       2.218  -6.683 -16.108  1.00 35.42 LIG 0.04  C 
BRANCH 46 47
ATOM     47  CG  GLN E   0       2.976  -5.361 -15.997  1.00 33.87 LIG 0.10  C 
BRANCH 47 48
ATOM     48  CD  GLN E   0       2.470  -4.322 -16.979  1.00 33.67 LIG 0.21  C 
ATOM     49 OE1  GLN E   0       2.509  -3.124 -16.702  1.00 31.67 LIG-0.27  OA
ATOM     50  NE2 GLN E   0       1.981  -4.777 -18.131  1.00 33.23 LIG-0.37  N 
ATOM     51 22HE GLN E   0       1.675  -4.226 -18.716  1.00 33.23 LIG 0.16  HD
ATOM     52 21HE GLN E   0       1.969  -5.623 -18.288  1.00 33.23 LIG 0.16  HD
ENDBRANCH 47 48
ENDBRANCH 46 47
ENDBRANCH 40 46
ENDBRANCH 37 40
ENDBRANCH 31 36
ENDBRANCH 1 31
TORSDOF 19
ENDMDL
MODEL 4
USER: ADFR SOLUTION from run 156
USER: SCORE 16.337069 LL:  -4.684 LR: -13.474 RR:   0.000 FEB:  -7.806
USER: RMSD 10.607792
USER: SEED 155
USER: STATUS no improvement in best in 3 clusters for 5 generations
USER: GENES 21
USER: genes 0 Translation |==|  0.27322 0.48718 0.63025
USER: genes 1 Rotation |==|  0.63120 0.51622 0.04164 0.64975
USER: genes 2 Torsion [C]-N--CA-[CB] |==|  0.60657
USER: genes 3 Torsion [N]-CA--C-[N] |==|  0.81315
USER: genes 4 Torsion [C]-N--CA-[CB] |==|  0.50909
USER: genes 5 Torsion [N]-CA--C-[N] |==|  0.30556
USER: genes 6 Torsion [C]-N--CA-[CB] |==|  0.24568
USER: genes 7 Torsion [N]-CA--C-[O] |==|  0.62979
USER: genes 8 Torsion [N]-CA--CB-[CG] |==|  0.78814
USER: genes 9 Torsion [CA]-CB--CG-[CD1] |==|  0.89036
USER: genes 10 Torsion [N]-CA--CB-[CG] |==|  0.02736
USER: genes 11 Torsion [CA]-CB--CG-[OD2] |==|  0.31804
USER: genes 12 Torsion [N]-C--CA-[N] |==|  0.88126
USER: genes 13 Torsion [C]-CA--CB-[CG] |==|  0.35487
USER: genes 14 Torsion [CA]-CB--CG-[CD2] |==|  0.49912
USER: genes 15 Torsion [C]-CA--N-[C] |==|  0.82768
USER: genes 16 Torsion [N]-C--CA-[N] |==|  0.92860
USER: genes 17 Torsion [C]-CA--N-[C] |==|  0.63409
USER: genes 18 Torsion [C]-CA--CB-[CG] |==|  0.09355
USER: genes 19 Torsion [CA]-CB--CG-[CD] |==|  0.62677
USER: genes 20 Torsion [CB]-CG--CD-[OE1] |==|  0.84477
ROOT
ATOM      1  C   LEU E   1      -1.863  -7.201 -10.334  1.00 39.66 LIG 0.24  C 
ATOM      2 O    LEU E   1      -2.000  -7.867  -9.304  1.00 37.26 LIG-0.27  OA
ATOM      3  N   ASP E   2      -2.691  -7.291 -11.376  1.00 41.55 LIG-0.35  N 
ATOM      4 H    ASP E   2      -2.601  -6.829 -12.096  1.00 41.55 LIG 0.16  HD
ENDROOT
BRANCH 3 5
ATOM      5  CA  ASP E   2      -3.844  -8.198 -11.390  1.00 42.33 LIG 0.19  C 
BRANCH 5 6
ATOM      6  C   ASP E   2      -3.697  -9.293 -10.339  1.00 41.58 LIG 0.24  C 
ATOM      7 O    ASP E   2      -4.449  -9.328  -9.358  1.00 40.78 LIG-0.27  OA
ATOM      8  N   ALA E   3      -2.718 -10.175 -10.550  1.00 40.17 LIG-0.35  N 
ATOM      9 H    ALA E   3      -2.185 -10.134 -11.222  1.00 40.17 LIG 0.16  HD
BRANCH 8 10
ATOM     10  CA  ALA E   3      -2.453 -11.307  -9.652  1.00 38.52 LIG 0.17  C 
ATOM     11  CB  ALA E   3      -1.223 -12.077 -10.126  1.00 38.62 LIG 0.04  C 
BRANCH 10 12
ATOM     12  C   ALA E   3      -2.293 -10.898  -8.188  1.00 38.02 LIG 0.24  C 
ATOM     13 O    ALA E   3      -1.304 -10.265  -7.818  1.00 36.71 LIG-0.27  OA
ATOM     14  N   PHE E   4      -3.277 -11.269  -7.372  1.00 38.01 LIG-0.34  N 
ATOM     15 H    PHE E   4      -3.922 -11.784  -7.615  1.00 38.01 LIG 0.16  HD
BRANCH 14 16
ATOM     16  CA  PHE E   4      -3.363 -10.837  -5.978  1.00 38.29 LIG 0.19  C 
BRANCH 16 17
ATOM     17  C   PHE E   4      -4.074 -11.905  -5.151  1.00 39.00 LIG 0.20  C 
ATOM     18 OXT  PHE E   4      -3.750 -13.092  -5.238  1.00 39.22 LIG-0.65  OA
ATOM     19 O    PHE E   4      -4.972 -11.601  -4.359  1.00 39.04 LIG-0.65  OA
ENDBRANCH 16 17
BRANCH 16 20
ATOM     20  CB  PHE E   4      -4.130  -9.507  -5.873  1.00 37.57 LIG 0.07  C 
BRANCH 20 21
ATOM     21  CG  PHE E   4      -3.321  -8.306  -6.294  1.00 36.97 LIG-0.06  A 
ATOM     22  CD1 PHE E   4      -1.970  -8.201  -5.961  1.00 35.77 LIG 0.01  A 
ATOM     23  CE1 PHE E   4      -1.231  -7.090  -6.335  1.00 35.50 LIG 0.00  A 
ATOM     24  CZ  PHE E   4      -1.839  -6.070  -7.054  1.00 35.20 LIG 0.00  A 
ATOM     25  CE2 PHE E   4      -3.184  -6.160  -7.389  1.00 34.71 LIG 0.00  A 
ATOM     26  CD2 PHE E   4      -3.916  -7.272  -7.011  1.00 35.45 LIG 0.01  A 
ENDBRANCH 20 21
ENDBRANCH 16 20
ENDBRANCH 14 16
ENDBRANCH 10 12
ENDBRANCH 8 10
ENDBRANCH 5 6
BRANCH 5 27
ATOM     27  CB  ASP E   2      -4.033  -8.826 -12.777  1.00 43.54 LIG 0.15  C 
BRANCH 27 28
ATOM     28  CG  ASP E   2      -2.862  -8.551 -13.712  1.00 45.99 LIG 0.17  C 
ATOM     29 OD2  ASP E   2      -2.163  -9.518 -14.090  1.00 46.35 LIG-0.65  OA
ATOM     30 OD1  ASP E   2      -2.646  -7.375 -14.081  1.00 46.97 LIG-0.65  OA
ENDBRANCH 27 28
ENDBRANCH 5 27
ENDBRANCH 3 5
BRANCH 1 31
ATOM     31  CA  LEU E   1      -0.716  -6.189 -10.464  1.00 39.47 LIG 0.18  C 
BRANCH 31 32
ATOM     32  CB  LEU E   1      -1.168  -4.758 -10.120  1.00 38.97 LIG 0.04  C 
BRANCH 32 33
ATOM     33  CG  LEU E   1      -0.329  -3.999  -9.077  1.00 40.05 LIG-0.02  C 
ATOM     34  CD2 LEU E   1      -0.875  -2.595  -8.831  1.00 40.58 LIG 0.01  C 
ATOM     35  CD1 LEU E   1       1.136  -3.938  -9.481  1.00 39.33 LIG 0.01  C 
ENDBRANCH 32 33
ENDBRANCH 31 32
BRANCH 31 36
ATOM     36  N   LEU E   1      -0.097  -6.233 -11.788  1.00 38.97 LIG-0.35  N 
ATOM     37  C   GLN E   0       0.509  -7.327 -12.245  1.00 38.27 LIG 0.24  C 
ATOM     38 O    GLN E   0       0.610  -8.372 -11.592  1.00 40.12 LIG-0.27  OA
ATOM     39 H    LEU E   1      -0.162  -5.500 -12.234  1.00 38.97 LIG 0.16  HD
BRANCH 37 40
ATOM     40  CA  GLN E   0       1.073  -7.236 -13.662  1.00 36.47 LIG 0.18  C 
BRANCH 40 41
ATOM     41  N   GLN E   0       0.355  -6.224 -14.500  1.00 35.61 LIG-0.35  N 
ATOM     42  C   ACE E  -1      -0.094  -6.460 -15.738  1.00 35.56 LIG 0.21  C 
ATOM     43 O    ACE E  -1       0.043  -7.521 -16.330  1.00 35.09 LIG-0.27  OA
ATOM     44  CH3 ACE E  -1      -0.642  -5.258 -16.473  1.00 35.40 LIG 0.12  C 
ATOM     45 H    GLN E   0       0.257  -5.466 -14.107  1.00 35.61 LIG 0.16  HD
ENDBRANCH 40 41
BRANCH 40 46
ATOM     46  CB  GLN E   0       2.574  -6.922 -13.598  1.00 35.42 LIG 0.04  C 
BRANCH 46 47
ATOM     47  CG  GLN E   0       3.285  -7.543 -12.397  1.00 33.87 LIG 0.10  C 
BRANCH 47 48
ATOM     48  CD  GLN E   0       4.205  -6.559 -11.699  1.00 33.67 LIG 0.21  C 
ATOM     49 OE1  GLN E   0       5.096  -5.982 -12.321  1.00 31.67 LIG-0.27  OA
ATOM     50  NE2 GLN E   0       4.001  -6.372 -10.396  1.00 33.23 LIG-0.37  N 
ATOM     51 22HE GLN E   0       4.503  -5.830  -9.956  1.00 33.23 LIG 0.16  HD
ATOM     52 21HE GLN E   0       3.368  -6.795  -9.995  1.00 33.23 LIG 0.16  HD
ENDBRANCH 47 48
ENDBRANCH 46 47
ENDBRANCH 40 46
ENDBRANCH 37 40
ENDBRANCH 31 36
ENDBRANCH 1 31
TORSDOF 19
ENDMDL
MODEL 5
USER: ADFR SOLUTION from run 189
USER: SCORE 15.514000 LL:  -3.762 LR: -13.422 RR:   0.000 FEB:  -7.755
USER: RMSD 10.806549
USER: SEED 188
USER: STATUS no improvement in best in 11 clusters for 5 generations
USER: GENES 21
USER: genes 0 Translation |==|  0.36439 0.55518 0.59924
USER: genes 1 Rotation |==|  0.51439 0.15497 0.66186 0.82334
USER: genes 2 Torsion [C]-N--CA-[CB] |==|  0.88293
USER: genes 3 Torsion [N]-CA--C-[N] |==|  0.36188
USER: genes 4 Torsion [C]-N--CA-[CB] |==|  0.51459
USER: genes 5 Torsion [N]-CA--C-[N] |==|  0.42222
USER: genes 6 Torsion [C]-N--CA-[CB] |==|  0.26875
USER: genes 7 Torsion [N]-CA--C-[O] |==|  0.82165
USER: genes 8 Torsion [N]-CA--CB-[CG] |==|  0.81242
USER: genes 9 Torsion [CA]-CB--CG-[CD1] |==|  0.36666
USER: genes 10 Torsion [N]-CA--CB-[CG] |==|  0.77579
USER: genes 11 Torsion [CA]-CB--CG-[OD2] |==|  0.53046
USER: genes 12 Torsion [N]-C--CA-[N] |==|  0.65550
USER: genes 13 Torsion [C]-CA--CB-[CG] |==|  0.39398
USER: genes 14 Torsion [CA]-CB--CG-[CD2] |==|  0.72222
USER: genes 15 Torsion [C]-CA--N-[C] |==|  0.58997
USER: genes 16 Torsion [N]-C--CA-[N] |==|  0.40643
USER: genes 17 Torsion [C]-CA--N-[C] |==|  0.67383
USER: genes 18 Torsion [C]-CA--CB-[CG] |==|  0.55471
USER: genes 19 Torsion [CA]-CB--CG-[CD] |==|  0.55628
USER: genes 20 Torsion [CB]-CG--CD-[OE1] |==|  0.80451
ROOT
ATOM      1  C   LEU E   1       0.394  -6.130 -10.869  1.00 39.66 LIG 0.24  C 
ATOM      2 O    LEU E   1      -0.812  -6.237 -11.113  1.00 37.26 LIG-0.27  OA
ATOM      3  N   ASP E   2       0.869  -5.853  -9.654  1.00 41.55 LIG-0.35  N 
ATOM      4 H    ASP E   2       1.708  -5.778  -9.478  1.00 41.55 LIG 0.16  HD
ENDROOT
BRANCH 3 5
ATOM      5  CA  ASP E   2      -0.004  -5.646  -8.494  1.00 42.33 LIG 0.19  C 
BRANCH 5 6
ATOM      6  C   ASP E   2      -0.459  -6.977  -7.903  1.00 41.58 LIG 0.24  C 
ATOM      7 O    ASP E   2      -0.943  -7.853  -8.629  1.00 40.78 LIG-0.27  OA
ATOM      8  N   ALA E   3      -0.308  -7.111  -6.585  1.00 40.17 LIG-0.35  N 
ATOM      9 H    ALA E   3       0.010  -6.491  -6.082  1.00 40.17 LIG 0.16  HD
BRANCH 8 10
ATOM     10  CA  ALA E   3      -0.670  -8.335  -5.857  1.00 38.52 LIG 0.17  C 
ATOM     11  CB  ALA E   3      -0.498  -8.124  -4.355  1.00 38.62 LIG 0.04  C 
BRANCH 10 12
ATOM     12  C   ALA E   3      -2.081  -8.832  -6.167  1.00 38.02 LIG 0.24  C 
ATOM     13 O    ALA E   3      -2.964  -8.043  -6.508  1.00 36.71 LIG-0.27  OA
ATOM     14  N   PHE E   4      -2.275 -10.143  -6.044  1.00 38.01 LIG-0.34  N 
ATOM     15 H    PHE E   4      -1.683 -10.678  -5.723  1.00 38.01 LIG 0.16  HD
BRANCH 14 16
ATOM     16  CA  PHE E   4      -3.514 -10.808  -6.442  1.00 38.29 LIG 0.19  C 
BRANCH 16 17
ATOM     17  C   PHE E   4      -3.845 -11.918  -5.448  1.00 39.00 LIG 0.20  C 
ATOM     18 OXT  PHE E   4      -4.875 -11.874  -4.772  1.00 39.22 LIG-0.65  OA
ATOM     19 O    PHE E   4      -3.103 -12.897  -5.318  1.00 39.04 LIG-0.65  OA
ENDBRANCH 16 17
BRANCH 16 20
ATOM     20  CB  PHE E   4      -3.375 -11.404  -7.854  1.00 37.57 LIG 0.07  C 
BRANCH 20 21
ATOM     21  CG  PHE E   4      -3.250 -10.366  -8.941  1.00 36.97 LIG-0.06  A 
ATOM     22  CD1 PHE E   4      -2.255 -10.465  -9.914  1.00 35.77 LIG 0.01  A 
ATOM     23  CE1 PHE E   4      -2.131  -9.502 -10.903  1.00 35.50 LIG 0.00  A 
ATOM     24  CZ  PHE E   4      -3.009  -8.426 -10.930  1.00 35.20 LIG 0.00  A 
ATOM     25  CE2 PHE E   4      -4.002  -8.313  -9.964  1.00 34.71 LIG 0.00  A 
ATOM     26  CD2 PHE E   4      -4.119  -9.279  -8.979  1.00 35.45 LIG 0.01  A 
ENDBRANCH 20 21
ENDBRANCH 16 20
ENDBRANCH 14 16
ENDBRANCH 10 12
ENDBRANCH 8 10
ENDBRANCH 5 6
BRANCH 5 27
ATOM     27  CB  ASP E   2      -1.225  -4.796  -8.869  1.00 43.54 LIG 0.15  C 
BRANCH 27 28
ATOM     28  CG  ASP E   2      -0.917  -3.304  -8.903  1.00 45.99 LIG 0.17  C 
ATOM     29 OD2  ASP E   2      -1.873  -2.501  -8.991  1.00 46.35 LIG-0.65  OA
ATOM     30 OD1  ASP E   2       0.276  -2.932  -8.831  1.00 46.97 LIG-0.65  OA
ENDBRANCH 27 28
ENDBRANCH 5 27
ENDBRANCH 3 5
BRANCH 1 31
ATOM     31  CA  LEU E   1       1.437  -6.341 -11.975  1.00 39.47 LIG 0.18  C 
BRANCH 31 32
ATOM     32  CB  LEU E   1       2.875  -6.213 -11.444  1.00 38.97 LIG 0.04  C 
BRANCH 32 33
ATOM     33  CG  LEU E   1       3.917  -7.184 -12.025  1.00 40.05 LIG-0.02  C 
ATOM     34  CD2 LEU E   1       4.180  -8.357 -11.084  1.00 40.58 LIG 0.01  C 
ATOM     35  CD1 LEU E   1       5.218  -6.468 -12.359  1.00 39.33 LIG 0.01  C 
ENDBRANCH 32 33
ENDBRANCH 31 32
BRANCH 31 36
ATOM     36  N   LEU E   1       1.220  -5.442 -13.108  1.00 38.97 LIG-0.35  N 
ATOM     37  C   GLN E   0       1.512  -5.799 -14.357  1.00 38.27 LIG 0.24  C 
ATOM     38 O    GLN E   0       1.997  -6.897 -14.654  1.00 40.12 LIG-0.27  OA
ATOM     39 H    LEU E   1       0.891  -4.676 -12.894  1.00 38.97 LIG 0.16  HD
BRANCH 37 40
ATOM     40  CA  GLN E   0       1.192  -4.769 -15.439  1.00 36.47 LIG 0.18  C 
BRANCH 40 41
ATOM     41  N   GLN E   0       2.172  -4.803 -16.570  1.00 35.61 LIG-0.35  N 
ATOM     42  C   ACE E  -1       2.968  -3.781 -16.903  1.00 35.56 LIG 0.21  C 
ATOM     43 O    ACE E  -1       2.977  -2.700 -16.331  1.00 35.09 LIG-0.27  OA
ATOM     44  CH3 ACE E  -1       3.763  -3.961 -18.176  1.00 35.40 LIG 0.12  C 
ATOM     45 H    GLN E   0       2.176  -5.552 -16.993  1.00 35.61 LIG 0.16  HD
ENDBRANCH 40 41
BRANCH 40 46
ATOM     46  CB  GLN E   0      -0.238  -4.989 -15.951  1.00 35.42 LIG 0.04  C 
BRANCH 46 47
ATOM     47  CG  GLN E   0      -0.507  -4.364 -17.319  1.00 33.87 LIG 0.10  C 
BRANCH 47 48
ATOM     48  CD  GLN E   0      -1.989  -4.162 -17.579  1.00 33.67 LIG 0.21  C 
ATOM     49 OE1  GLN E   0      -2.729  -5.124 -17.772  1.00 31.67 LIG-0.27  OA
ATOM     50  NE2 GLN E   0      -2.425  -2.904 -17.596  1.00 33.23 LIG-0.37  N 
ATOM     51 22HE GLN E   0      -3.255  -2.739 -17.746  1.00 33.23 LIG 0.16  HD
ATOM     52 21HE GLN E   0      -1.875  -2.257 -17.456  1.00 33.23 LIG 0.16  HD
ENDBRANCH 47 48
ENDBRANCH 46 47
ENDBRANCH 40 46
ENDBRANCH 37 40
ENDBRANCH 31 36
ENDBRANCH 1 31
TORSDOF 19
ENDMDL
MODEL 6
USER: ADFR SOLUTION from run 54
USER: SCORE 14.653916 LL:  -3.085 LR: -13.321 RR:   0.000 FEB:  -7.653
USER: RMSD 9.506467
USER: SEED 53
USER: STATUS no improvement in best in 4 clusters for 5 generations
USER: GENES 21
USER: genes 0 Translation |==|  0.72899 0.65353 0.55553
USER: genes 1 Rotation |==|  0.28470 0.70501 0.19772 0.76503
USER: genes 2 Torsion [C]-N--CA-[CB] |==|  0.18288
USER: genes 3 Torsion [N]-CA--C-[N] |==|  0.18275
USER: genes 4 Torsion [C]-N--CA-[CB] |==|  0.87125
USER: genes 5 Torsion [N]-CA--C-[N] |==|  0.33891
USER: genes 6 Torsion [C]-N--CA-[CB] |==|  0.27300
USER: genes 7 Torsion [N]-CA--C-[O] |==|  0.87124
USER: genes 8 Torsion [N]-CA--CB-[CG] |==|  0.54450
USER: genes 9 Torsion [CA]-CB--CG-[CD1] |==|  0.25177
USER: genes 10 Torsion [N]-CA--CB-[CG] |==|  0.62100
USER: genes 11 Torsion [CA]-CB--CG-[OD2] |==|  0.80418
USER: genes 12 Torsion [N]-C--CA-[N] |==|  0.74181
USER: genes 13 Torsion [C]-CA--CB-[CG] |==|  0.26754
USER: genes 14 Torsion [CA]-CB--CG-[CD2] |==|  0.28501
USER: genes 15 Torsion [C]-CA--N-[C] |==|  0.76350
USER: genes 16 Torsion [N]-C--CA-[N] |==|  0.93564
USER: genes 17 Torsion [C]-CA--N-[C] |==|  0.78389
USER: genes 18 Torsion [C]-CA--CB-[CG] |==|  0.41668
USER: genes 19 Torsion [CA]-CB--CG-[CD] |==|  0.34011
USER: genes 20 Torsion [CB]-CG--CD-[OE1] |==|  0.11957
ROOT
ATOM      1  C   LEU E   1       9.418  -4.581 -11.623  1.00 39.66 LIG 0.24  C 
ATOM      2 O    LEU E   1      10.631  -4.615 -11.849  1.00 37.26 LIG-0.27  OA
ATOM      3  N   ASP E   2       8.726  -5.639 -11.197  1.00 41.55 LIG-0.35  N 
ATOM      4 H    ASP E   2       7.881  -5.621 -11.036  1.00 41.55 LIG 0.16  HD
ENDROOT
BRANCH 3 5
ATOM      5  CA  ASP E   2       9.351  -6.946 -10.961  1.00 42.33 LIG 0.19  C 
BRANCH 5 6
ATOM      6  C   ASP E   2       8.301  -8.016 -10.683  1.00 41.58 LIG 0.24  C 
ATOM      7 O    ASP E   2       8.240  -8.565  -9.577  1.00 40.78 LIG-0.27  OA
ATOM      8  N   ALA E   3       7.486  -8.310 -11.698  1.00 40.17 LIG-0.35  N 
ATOM      9 H    ALA E   3       7.545  -7.940 -12.472  1.00 40.17 LIG 0.16  HD
BRANCH 8 10
ATOM     10  CA  ALA E   3       6.403  -9.297 -11.596  1.00 38.52 LIG 0.17  C 
ATOM     11  CB  ALA E   3       6.913 -10.570 -10.923  1.00 38.62 LIG 0.04  C 
BRANCH 10 12
ATOM     12  C   ALA E   3       5.166  -8.770 -10.868  1.00 38.02 LIG 0.24  C 
ATOM     13 O    ALA E   3       5.249  -8.346  -9.715  1.00 36.71 LIG-0.27  OA
ATOM     14  N   PHE E   4       4.029  -8.803 -11.559  1.00 38.01 LIG-0.34  N 
ATOM     15 H    PHE E   4       3.957  -9.178 -12.329  1.00 38.01 LIG 0.16  HD
BRANCH 14 16
ATOM     16  CA  PHE E   4       2.785  -8.205 -11.078  1.00 38.29 LIG 0.19  C 
BRANCH 16 17
ATOM     17  C   PHE E   4       1.608  -9.109 -11.434  1.00 39.00 LIG 0.20  C 
ATOM     18 OXT  PHE E   4       0.729  -9.357 -10.605  1.00 39.22 LIG-0.65  OA
ATOM     19 O    PHE E   4       1.495  -9.590 -12.566  1.00 39.04 LIG-0.65  OA
ENDBRANCH 16 17
BRANCH 16 20
ATOM     20  CB  PHE E   4       2.578  -6.816 -11.706  1.00 37.57 LIG 0.07  C 
BRANCH 20 21
ATOM     21  CG  PHE E   4       1.546  -5.977 -10.995  1.00 36.97 LIG-0.06  A 
ATOM     22  CD1 PHE E   4       1.913  -5.120  -9.956  1.00 35.77 LIG 0.01  A 
ATOM     23  CE1 PHE E   4       0.962  -4.362  -9.292  1.00 35.50 LIG 0.00  A 
ATOM     24  CZ  PHE E   4      -0.372  -4.450  -9.667  1.00 35.20 LIG 0.00  A 
ATOM     25  CE2 PHE E   4      -0.752  -5.301 -10.697  1.00 34.71 LIG 0.00  A 
ATOM     26  CD2 PHE E   4       0.204  -6.057 -11.355  1.00 35.45 LIG 0.01  A 
ENDBRANCH 20 21
ENDBRANCH 16 20
ENDBRANCH 14 16
ENDBRANCH 10 12
ENDBRANCH 8 10
ENDBRANCH 5 6
BRANCH 5 27
ATOM     27  CB  ASP E   2      10.347  -6.876  -9.796  1.00 43.54 LIG 0.15  C 
BRANCH 27 28
ATOM     28  CG  ASP E   2      11.649  -7.611 -10.089  1.00 45.99 LIG 0.17  C 
ATOM     29 OD2  ASP E   2      11.628  -8.861 -10.139  1.00 46.35 LIG-0.65  OA
ATOM     30 OD1  ASP E   2      12.690  -6.944 -10.279  1.00 46.97 LIG-0.65  OA
ENDBRANCH 27 28
ENDBRANCH 5 27
ENDBRANCH 3 5
BRANCH 1 31
ATOM     31  CA  LEU E   1       8.625  -3.278 -11.800  1.00 39.47 LIG 0.18  C 
BRANCH 31 32
ATOM     32  CB  LEU E   1       7.473  -3.161 -10.786  1.00 38.97 LIG 0.04  C 
BRANCH 32 33
ATOM     33  CG  LEU E   1       7.753  -2.347  -9.511  1.00 40.05 LIG-0.02  C 
ATOM     34  CD2 LEU E   1       7.124  -0.958  -9.582  1.00 40.58 LIG 0.01  C 
ATOM     35  CD1 LEU E   1       9.246  -2.242  -9.236  1.00 39.33 LIG 0.01  C 
ENDBRANCH 32 33
ENDBRANCH 31 32
BRANCH 31 36
ATOM     36  N   LEU E   1       8.131  -3.123 -13.168  1.00 38.97 LIG-0.35  N 
ATOM     37  C   GLN E   0       8.882  -2.594 -14.132  1.00 38.27 LIG 0.24  C 
ATOM     38 O    GLN E   0      10.033  -2.183 -13.949  1.00 40.12 LIG-0.27  OA
ATOM     39 H    LEU E   1       7.326  -3.402 -13.287  1.00 38.97 LIG 0.16  HD
BRANCH 37 40
ATOM     40  CA  GLN E   0       8.243  -2.534 -15.519  1.00 36.47 LIG 0.18  C 
BRANCH 40 41
ATOM     41  N   GLN E   0       7.150  -3.543 -15.690  1.00 35.61 LIG-0.35  N 
ATOM     42  C   ACE E  -1       7.360  -4.843 -15.920  1.00 35.56 LIG 0.21  C 
ATOM     43 O    ACE E  -1       8.466  -5.354 -16.030  1.00 35.09 LIG-0.27  OA
ATOM     44  CH3 ACE E  -1       6.126  -5.659 -16.227  1.00 35.40 LIG 0.12  C 
ATOM     45 H    GLN E   0       6.362  -3.204 -15.627  1.00 35.61 LIG 0.16  HD
ENDBRANCH 40 41
BRANCH 40 46
ATOM     46  CB  GLN E   0       7.720  -1.116 -15.783  1.00 35.42 LIG 0.04  C 
BRANCH 46 47
ATOM     47  CG  GLN E   0       7.737  -0.715 -17.257  1.00 33.87 LIG 0.10  C 
BRANCH 47 48
ATOM     48  CD  GLN E   0       6.362  -0.319 -17.763  1.00 33.67 LIG 0.21  C 
ATOM     49 OE1  GLN E   0       5.625   0.395 -17.084  1.00 31.67 LIG-0.27  OA
ATOM     50  NE2 GLN E   0       6.006  -0.790 -18.956  1.00 33.23 LIG-0.37  N 
ATOM     51 22HE GLN E   0       5.233  -0.599 -19.281  1.00 33.23 LIG 0.16  HD
ATOM     52 21HE GLN E   0       6.549  -1.287 -19.401  1.00 33.23 LIG 0.16  HD
ENDBRANCH 47 48
ENDBRANCH 46 47
ENDBRANCH 40 46
ENDBRANCH 37 40
ENDBRANCH 31 36
ENDBRANCH 1 31
TORSDOF 19
ENDMDL
MODEL 7
USER: ADFR SOLUTION from run 51
USER: SCORE 14.988268 LL:  -3.420 LR: -13.283 RR:   0.000 FEB:  -7.615
USER: RMSD 4.037442
USER: SEED 50
USER: STATUS no improvement in best in 26 clusters for 5 generations
USER: GENES 21
USER: genes 0 Translation |==|  0.47935 0.49734 0.58653
USER: genes 1 Rotation |==|  0.16609 0.56852 0.36380 0.83950
USER: genes 2 Torsion [C]-N--CA-[CB] |==|  0.52309
USER: genes 3 Torsion [N]-CA--C-[N] |==|  0.39772
USER: genes 4 Torsion [C]-N--CA-[CB] |==|  0.21775
USER: genes 5 Torsion [N]-CA--C-[N] |==|  0.99602
USER: genes 6 Torsion [C]-N--CA-[CB] |==|  0.31889
USER: genes 7 Torsion [N]-CA--C-[O] |==|  0.63231
USER: genes 8 Torsion [N]-CA--CB-[CG] |==|  0.91356
USER: genes 9 Torsion [CA]-CB--CG-[CD1] |==|  0.87385
USER: genes 10 Torsion [N]-CA--CB-[CG] |==|  0.59096
USER: genes 11 Torsion [CA]-CB--CG-[OD2] |==|  0.86428
USER: genes 12 Torsion [N]-C--CA-[N] |==|  0.13229
USER: genes 13 Torsion [C]-CA--CB-[CG] |==|  0.71865
USER: genes 14 Torsion [CA]-CB--CG-[CD2] |==|  0.12414
USER: genes 15 Torsion [C]-CA--N-[C] |==|  0.59521
USER: genes 16 Torsion [N]-C--CA-[N] |==|  0.37334
USER: genes 17 Torsion [C]-CA--N-[C] |==|  0.69187
USER: genes 18 Torsion [C]-CA--CB-[CG] |==|  0.40709
USER: genes 19 Torsion [CA]-CB--CG-[CD] |==|  0.10467
USER: genes 20 Torsion [CB]-CG--CD-[OE1] |==|  0.23269
ROOT
ATOM      1  C   LEU E   1       3.239  -7.041 -11.088  1.00 39.66 LIG 0.24  C 
ATOM      2 O    LEU E   1       3.892  -6.116 -11.581  1.00 37.26 LIG-0.27  OA
ATOM      3  N   ASP E   2       3.798  -8.060 -10.434  1.00 41.55 LIG-0.35  N 
ATOM      4 H    ASP E   2       3.349  -8.706 -10.087  1.00 41.55 LIG 0.16  HD
ENDROOT
BRANCH 3 5
ATOM      5  CA  ASP E   2       5.249  -8.173 -10.242  1.00 42.33 LIG 0.19  C 
BRANCH 5 6
ATOM      6  C   ASP E   2       5.995  -7.964 -11.556  1.00 41.58 LIG 0.24  C 
ATOM      7 O    ASP E   2       5.532  -8.396 -12.617  1.00 40.78 LIG-0.27  OA
ATOM      8  N   ALA E   3       7.154  -7.309 -11.469  1.00 40.17 LIG-0.35  N 
ATOM      9 H    ALA E   3       7.482  -7.028 -10.726  1.00 40.17 LIG 0.16  HD
BRANCH 8 10
ATOM     10  CA  ALA E   3       7.988  -6.999 -12.638  1.00 38.52 LIG 0.17  C 
ATOM     11  CB  ALA E   3       7.417  -5.798 -13.388  1.00 38.62 LIG 0.04  C 
BRANCH 10 12
ATOM     12  C   ALA E   3       9.457  -6.759 -12.290  1.00 38.02 LIG 0.24  C 
ATOM     13 O    ALA E   3      10.280  -6.515 -13.173  1.00 36.71 LIG-0.27  OA
ATOM     14  N   PHE E   4       9.767  -6.833 -10.997  1.00 38.01 LIG-0.34  N 
ATOM     15 H    PHE E   4       9.210  -7.089 -10.394  1.00 38.01 LIG 0.16  HD
BRANCH 14 16
ATOM     16  CA  PHE E   4      11.085  -6.487 -10.471  1.00 38.29 LIG 0.19  C 
BRANCH 16 17
ATOM     17  C   PHE E   4      11.654  -7.666  -9.687  1.00 39.00 LIG 0.20  C 
ATOM     18 OXT  PHE E   4      11.657  -8.802 -10.168  1.00 39.22 LIG-0.65  OA
ATOM     19 O    PHE E   4      12.147  -7.505  -8.566  1.00 39.04 LIG-0.65  OA
ENDBRANCH 16 17
BRANCH 16 20
ATOM     20  CB  PHE E   4      10.992  -5.254  -9.554  1.00 37.57 LIG 0.07  C 
BRANCH 20 21
ATOM     21  CG  PHE E   4       9.902  -4.289  -9.945  1.00 36.97 LIG-0.06  A 
ATOM     22  CD1 PHE E   4       9.723  -3.914 -11.278  1.00 35.77 LIG 0.01  A 
ATOM     23  CE1 PHE E   4       8.731  -3.014 -11.635  1.00 35.50 LIG 0.00  A 
ATOM     24  CZ  PHE E   4       7.901  -2.482 -10.657  1.00 35.20 LIG 0.00  A 
ATOM     25  CE2 PHE E   4       8.070  -2.844  -9.327  1.00 34.71 LIG 0.00  A 
ATOM     26  CD2 PHE E   4       9.064  -3.742  -8.977  1.00 35.45 LIG 0.01  A 
ENDBRANCH 20 21
ENDBRANCH 16 20
ENDBRANCH 14 16
ENDBRANCH 10 12
ENDBRANCH 8 10
ENDBRANCH 5 6
BRANCH 5 27
ATOM     27  CB  ASP E   2       5.619  -9.535  -9.641  1.00 43.54 LIG 0.15  C 
BRANCH 27 28
ATOM     28  CG  ASP E   2       6.833  -9.464  -8.724  1.00 45.99 LIG 0.17  C 
ATOM     29 OD2  ASP E   2       7.857  -8.875  -9.137  1.00 46.35 LIG-0.65  OA
ATOM     30 OD1  ASP E   2       6.764  -9.984  -7.588  1.00 46.97 LIG-0.65  OA
ENDBRANCH 27 28
ENDBRANCH 5 27
ENDBRANCH 3 5
BRANCH 1 31
ATOM     31  CA  LEU E   1       1.707  -7.054 -11.184  1.00 39.47 LIG 0.18  C 
BRANCH 31 32
ATOM     32  CB  LEU E   1       1.156  -5.754 -11.796  1.00 38.97 LIG 0.04  C 
BRANCH 32 33
ATOM     33  CG  LEU E   1       0.577  -4.718 -10.817  1.00 40.05 LIG-0.02  C 
ATOM     34  CD2 LEU E   1       1.478  -4.530  -9.600  1.00 40.58 LIG 0.01  C 
ATOM     35  CD1 LEU E   1      -0.833  -5.092 -10.384  1.00 39.33 LIG 0.01  C 
ENDBRANCH 32 33
ENDBRANCH 31 32
BRANCH 31 36
ATOM     36  N   LEU E   1       1.083  -7.323  -9.888  1.00 38.97 LIG-0.35  N 
ATOM     37  C   GLN E   0      -0.049  -8.016  -9.784  1.00 38.27 LIG 0.24  C 
ATOM     38 O    GLN E   0      -0.663  -8.468 -10.757  1.00 40.12 LIG-0.27  OA
ATOM     39 H    LEU E   1       1.509  -6.997  -9.216  1.00 38.97 LIG 0.16  HD
BRANCH 37 40
ATOM     40  CA  GLN E   0      -0.559  -8.251  -8.362  1.00 36.47 LIG 0.18  C 
BRANCH 40 41
ATOM     41  N   GLN E   0      -2.026  -7.988  -8.229  1.00 35.61 LIG-0.35  N 
ATOM     42  C   ACE E  -1      -2.544  -6.962  -7.544  1.00 35.56 LIG 0.21  C 
ATOM     43 O    ACE E  -1      -1.880  -6.133  -6.938  1.00 35.09 LIG-0.27  OA
ATOM     44  CH3 ACE E  -1      -4.048  -6.970  -7.394  1.00 35.40 LIG 0.12  C 
ATOM     45 H    GLN E   0      -2.514  -8.565  -8.640  1.00 35.61 LIG 0.16  HD
ENDBRANCH 40 41
BRANCH 40 46
ATOM     46  CB  GLN E   0      -0.222  -9.684  -7.927  1.00 35.42 LIG 0.04  C 
BRANCH 46 47
ATOM     47  CG  GLN E   0       0.084  -9.821  -6.436  1.00 33.87 LIG 0.10  C 
BRANCH 47 48
ATOM     48  CD  GLN E   0      -0.799  -8.931  -5.582  1.00 33.67 LIG 0.21  C 
ATOM     49 OE1  GLN E   0      -1.925  -9.297  -5.248  1.00 31.67 LIG-0.27  OA
ATOM     50  NE2 GLN E   0      -0.295  -7.749  -5.232  1.00 33.23 LIG-0.37  N 
ATOM     51 22HE GLN E   0      -0.761  -7.207  -4.755  1.00 33.23 LIG 0.16  HD
ATOM     52 21HE GLN E   0       0.497  -7.528  -5.485  1.00 33.23 LIG 0.16  HD
ENDBRANCH 47 48
ENDBRANCH 46 47
ENDBRANCH 40 46
ENDBRANCH 37 40
ENDBRANCH 31 36
ENDBRANCH 1 31
TORSDOF 19
ENDMDL
MODEL 8
USER: ADFR SOLUTION from run 146
USER: SCORE 14.153889 LL:  -3.413 LR: -13.229 RR:   0.000 FEB:  -7.561
USER: RMSD 3.827605
USER: SEED 145
USER: STATUS no improvement in best in 19 clusters for 5 generations
USER: GENES 21
USER: genes 0 Translation |==|  0.49501 0.50588 0.56623
USER: genes 1 Rotation |==|  0.21113 0.54211 0.33734 0.87192
USER: genes 2 Torsion [C]-N--CA-[CB] |==|  0.48905
USER: genes 3 Torsion [N]-CA--C-[N] |==|  0.37188
USER: genes 4 Torsion [C]-N--CA-[CB] |==|  0.23729
USER: genes 5 Torsion [N]-CA--C-[N] |==|  0.98733
USER: genes 6 Torsion [C]-N--CA-[CB] |==|  0.31191
USER: genes 7 Torsion [N]-CA--C-[O] |==|  0.70278
USER: genes 8 Torsion [N]-CA--CB-[CG] |==|  0.93670
USER: genes 9 Torsion [CA]-CB--CG-[CD1] |==|  0.34669
USER: genes 10 Torsion [N]-CA--CB-[CG] |==|  0.55961
USER: genes 11 Torsion [CA]-CB--CG-[OD2] |==|  0.40658
USER: genes 12 Torsion [N]-C--CA-[N] |==|  0.25079
USER: genes 13 Torsion [C]-CA--CB-[CG] |==|  0.22448
USER: genes 14 Torsion [CA]-CB--CG-[CD2] |==|  0.71912
USER: genes 15 Torsion [C]-CA--N-[C] |==|  0.74189
USER: genes 16 Torsion [N]-C--CA-[N] |==|  0.56484
USER: genes 17 Torsion [C]-CA--N-[C] |==|  0.53058
USER: genes 18 Torsion [C]-CA--CB-[CG] |==|  0.23337
USER: genes 19 Torsion [CA]-CB--CG-[CD] |==|  0.22192
USER: genes 20 Torsion [CB]-CG--CD-[OE1] |==|  0.87675
ROOT
ATOM      1  C   LEU E   1       3.627  -6.906 -11.439  1.00 39.66 LIG 0.24  C 
ATOM      2 O    LEU E   1       4.343  -5.919 -11.626  1.00 37.26 LIG-0.27  OA
ATOM      3  N   ASP E   2       4.065  -8.024 -10.857  1.00 41.55 LIG-0.35  N 
ATOM      4 H    ASP E   2       3.571  -8.715 -10.722  1.00 41.55 LIG 0.16  HD
ENDROOT
BRANCH 3 5
ATOM      5  CA  ASP E   2       5.447  -8.178 -10.389  1.00 42.33 LIG 0.19  C 
BRANCH 5 6
ATOM      6  C   ASP E   2       6.437  -8.055 -11.543  1.00 41.58 LIG 0.24  C 
ATOM      7 O    ASP E   2       6.244  -8.661 -12.603  1.00 40.78 LIG-0.27  OA
ATOM      8  N   ALA E   3       7.496  -7.275 -11.322  1.00 40.17 LIG-0.35  N 
ATOM      9 H    ALA E   3       7.636  -6.872 -10.575  1.00 40.17 LIG 0.16  HD
BRANCH 8 10
ATOM     10  CA  ALA E   3       8.532  -7.025 -12.332  1.00 38.52 LIG 0.17  C 
ATOM     11  CB  ALA E   3       8.113  -5.871 -13.241  1.00 38.62 LIG 0.04  C 
BRANCH 10 12
ATOM     12  C   ALA E   3       9.913  -6.757 -11.734  1.00 38.02 LIG 0.24  C 
ATOM     13 O    ALA E   3      10.895  -6.613 -12.463  1.00 36.71 LIG-0.27  OA
ATOM     14  N   PHE E   4       9.967  -6.692 -10.406  1.00 38.01 LIG-0.34  N 
ATOM     15 H    PHE E   4       9.299  -6.879  -9.898  1.00 38.01 LIG 0.16  HD
BRANCH 14 16
ATOM     16  CA  PHE E   4      11.169  -6.297  -9.674  1.00 38.29 LIG 0.19  C 
BRANCH 16 17
ATOM     17  C   PHE E   4      11.510  -7.360  -8.633  1.00 39.00 LIG 0.20  C 
ATOM     18 OXT  PHE E   4      12.003  -8.439  -8.969  1.00 39.22 LIG-0.65  OA
ATOM     19 O    PHE E   4      11.325  -7.152  -7.429  1.00 39.04 LIG-0.65  OA
ENDBRANCH 16 17
BRANCH 16 20
ATOM     20  CB  PHE E   4      10.954  -4.942  -8.978  1.00 37.57 LIG 0.07  C 
BRANCH 20 21
ATOM     21  CG  PHE E   4       9.867  -4.104  -9.604  1.00 36.97 LIG-0.06  A 
ATOM     22  CD1 PHE E   4       8.801  -3.629  -8.840  1.00 35.77 LIG 0.01  A 
ATOM     23  CE1 PHE E   4       7.794  -2.872  -9.419  1.00 35.50 LIG 0.00  A 
ATOM     24  CZ  PHE E   4       7.848  -2.580 -10.775  1.00 35.20 LIG 0.00  A 
ATOM     25  CE2 PHE E   4       8.902  -3.050 -11.548  1.00 34.71 LIG 0.00  A 
ATOM     26  CD2 PHE E   4       9.903  -3.806 -10.963  1.00 35.45 LIG 0.01  A 
ENDBRANCH 20 21
ENDBRANCH 16 20
ENDBRANCH 14 16
ENDBRANCH 10 12
ENDBRANCH 8 10
ENDBRANCH 5 6
BRANCH 5 27
ATOM     27  CB  ASP E   2       5.639  -9.524  -9.677  1.00 43.54 LIG 0.15  C 
BRANCH 27 28
ATOM     28  CG  ASP E   2       6.842  -9.531  -8.743  1.00 45.99 LIG 0.17  C 
ATOM     29 OD2  ASP E   2       6.777 -10.212  -7.695  1.00 46.35 LIG-0.65  OA
ATOM     30 OD1  ASP E   2       7.855  -8.867  -9.056  1.00 46.97 LIG-0.65  OA
ENDBRANCH 27 28
ENDBRANCH 5 27
ENDBRANCH 3 5
BRANCH 1 31
ATOM     31  CA  LEU E   1       2.148  -6.891 -11.852  1.00 39.47 LIG 0.18  C 
BRANCH 31 32
ATOM     32  CB  LEU E   1       1.923  -6.109 -13.158  1.00 38.97 LIG 0.04  C 
BRANCH 32 33
ATOM     33  CG  LEU E   1       2.223  -6.853 -14.471  1.00 40.05 LIG-0.02  C 
ATOM     34  CD2 LEU E   1       3.577  -6.449 -15.049  1.00 40.58 LIG 0.01  C 
ATOM     35  CD1 LEU E   1       1.121  -6.637 -15.496  1.00 39.33 LIG 0.01  C 
ENDBRANCH 32 33
ENDBRANCH 31 32
BRANCH 31 36
ATOM     36  N   LEU E   1       1.290  -6.377 -10.784  1.00 38.97 LIG-0.35  N 
ATOM     37  C   GLN E   0       0.707  -7.185  -9.901  1.00 38.27 LIG 0.24  C 
ATOM     38 O    GLN E   0       0.829  -8.415  -9.919  1.00 40.12 LIG-0.27  OA
ATOM     39 H    LEU E   1       1.200  -5.522 -10.783  1.00 38.97 LIG 0.16  HD
BRANCH 37 40
ATOM     40  CA  GLN E   0      -0.128  -6.500  -8.819  1.00 36.47 LIG 0.18  C 
BRANCH 40 41
ATOM     41  N   GLN E   0      -0.279  -7.344  -7.592  1.00 35.61 LIG-0.35  N 
ATOM     42  C   ACE E  -1      -1.128  -7.070  -6.595  1.00 35.56 LIG 0.21  C 
ATOM     43 O    ACE E  -1      -1.865  -6.095  -6.566  1.00 35.09 LIG-0.27  OA
ATOM     44  CH3 ACE E  -1      -1.008  -7.954  -5.375  1.00 35.40 LIG 0.12  C 
ATOM     45 H    GLN E   0       0.238  -8.031  -7.586  1.00 35.61 LIG 0.16  HD
ENDBRANCH 40 41
BRANCH 40 46
ATOM     46  CB  GLN E   0       0.497  -5.142  -8.472  1.00 35.42 LIG 0.04  C 
BRANCH 46 47
ATOM     47  CG  GLN E   0       0.081  -4.012  -9.412  1.00 33.87 LIG 0.10  C 
BRANCH 47 48
ATOM     48  CD  GLN E   0      -1.291  -3.457  -9.075  1.00 33.67 LIG 0.21  C 
ATOM     49 OE1  GLN E   0      -2.228  -4.212  -8.819  1.00 31.67 LIG-0.27  OA
ATOM     50  NE2 GLN E   0      -1.418  -2.132  -9.084  1.00 33.23 LIG-0.37  N 
ATOM     51 22HE GLN E   0      -2.178  -1.771  -8.907  1.00 33.23 LIG 0.16  HD
ATOM     52 21HE GLN E   0      -0.739  -1.637  -9.269  1.00 33.23 LIG 0.16  HD
ENDBRANCH 47 48
ENDBRANCH 46 47
ENDBRANCH 40 46
ENDBRANCH 37 40
ENDBRANCH 31 36
ENDBRANCH 1 31
TORSDOF 19
ENDMDL
MODEL 9
USER: ADFR SOLUTION from run 192
USER: SCORE 14.446761 LL:  -3.102 LR: -13.227 RR:   0.000 FEB:  -7.559
USER: RMSD 3.696780
USER: SEED 191
USER: STATUS no improvement in best in 20 clusters for 5 generations
USER: GENES 21
USER: genes 0 Translation |==|  0.42687 0.54245 0.55621
USER: genes 1 Rotation |==|  0.97127 0.35118 0.57455 0.51424
USER: genes 2 Torsion [C]-N--CA-[CB] |==|  0.83168
USER: genes 3 Torsion [N]-CA--C-[N] |==|  0.33699
USER: genes 4 Torsion [C]-N--CA-[CB] |==|  0.17846
USER: genes 5 Torsion [N]-CA--C-[N] |==|  0.97222
USER: genes 6 Torsion [C]-N--CA-[CB] |==|  0.20608
USER: genes 7 Torsion [N]-CA--C-[O] |==|  0.10522
USER: genes 8 Torsion [N]-CA--CB-[CG] |==|  0.12264
USER: genes 9 Torsion [CA]-CB--CG-[CD1] |==|  0.83673
USER: genes 10 Torsion [N]-CA--CB-[CG] |==|  0.60424
USER: genes 11 Torsion [CA]-CB--CG-[OD2] |==|  0.43477
USER: genes 12 Torsion [N]-C--CA-[N] |==|  0.63336
USER: genes 13 Torsion [C]-CA--CB-[CG] |==|  0.45767
USER: genes 14 Torsion [CA]-CB--CG-[CD2] |==|  0.61230
USER: genes 15 Torsion [C]-CA--N-[C] |==|  0.19716
USER: genes 16 Torsion [N]-C--CA-[N] |==|  0.25605
USER: genes 17 Torsion [C]-CA--N-[C] |==|  0.72410
USER: genes 18 Torsion [C]-CA--CB-[CG] |==|  0.18425
USER: genes 19 Torsion [CA]-CB--CG-[CD] |==|  0.56494
USER: genes 20 Torsion [CB]-CG--CD-[OE1] |==|  0.25509
ROOT
ATOM      1  C   LEU E   1       1.940  -6.330 -11.611  1.00 39.66 LIG 0.24  C 
ATOM      2 O    LEU E   1       1.853  -6.916 -12.695  1.00 37.26 LIG-0.27  OA
ATOM      3  N   ASP E   2       2.976  -6.479 -10.784  1.00 41.55 LIG-0.35  N 
ATOM      4 H    ASP E   2       3.043  -6.073 -10.029  1.00 41.55 LIG 0.16  HD
ENDROOT
BRANCH 3 5
ATOM      5  CA  ASP E   2       4.109  -7.359 -11.091  1.00 42.33 LIG 0.19  C 
BRANCH 5 6
ATOM      6  C   ASP E   2       4.838  -6.901 -12.350  1.00 41.58 LIG 0.24  C 
ATOM      7 O    ASP E   2       4.240  -6.824 -13.429  1.00 40.78 LIG-0.27  OA
ATOM      8  N   ALA E   3       6.131  -6.608 -12.200  1.00 40.17 LIG-0.35  N 
ATOM      9 H    ALA E   3       6.548  -6.683 -11.452  1.00 40.17 LIG 0.16  HD
BRANCH 8 10
ATOM     10  CA  ALA E   3       6.976  -6.128 -13.301  1.00 38.52 LIG 0.17  C 
ATOM     11  CB  ALA E   3       6.482  -4.768 -13.789  1.00 38.62 LIG 0.04  C 
BRANCH 10 12
ATOM     12  C   ALA E   3       8.460  -6.058 -12.943  1.00 38.02 LIG 0.24  C 
ATOM     13 O    ALA E   3       9.307  -5.850 -13.813  1.00 36.71 LIG-0.27  OA
ATOM     14  N   PHE E   4       8.755  -6.233 -11.657  1.00 38.01 LIG-0.34  N 
ATOM     15 H    PHE E   4       8.173  -6.463 -11.068  1.00 38.01 LIG 0.16  HD
BRANCH 14 16
ATOM     16  CA  PHE E   4      10.100  -6.051 -11.114  1.00 38.29 LIG 0.19  C 
BRANCH 16 17
ATOM     17  C   PHE E   4      10.185  -6.678  -9.726  1.00 39.00 LIG 0.20  C 
ATOM     18 OXT  PHE E   4      10.816  -6.127  -8.821  1.00 39.22 LIG-0.65  OA
ATOM     19 O    PHE E   4       9.603  -7.738  -9.471  1.00 39.04 LIG-0.65  OA
ENDBRANCH 16 17
BRANCH 16 20
ATOM     20  CB  PHE E   4      10.447  -4.554 -11.027  1.00 37.57 LIG 0.07  C 
BRANCH 20 21
ATOM     21  CG  PHE E   4       9.330  -3.704 -10.474  1.00 36.97 LIG-0.06  A 
ATOM     22  CD1 PHE E   4       8.083  -3.668 -11.098  1.00 35.77 LIG 0.01  A 
ATOM     23  CE1 PHE E   4       7.062  -2.875 -10.598  1.00 35.50 LIG 0.00  A 
ATOM     24  CZ  PHE E   4       7.280  -2.110  -9.460  1.00 35.20 LIG 0.00  A 
ATOM     25  CE2 PHE E   4       8.518  -2.134  -8.831  1.00 34.71 LIG 0.00  A 
ATOM     26  CD2 PHE E   4       9.533  -2.928  -9.337  1.00 35.45 LIG 0.01  A 
ENDBRANCH 20 21
ENDBRANCH 16 20
ENDBRANCH 14 16
ENDBRANCH 10 12
ENDBRANCH 8 10
ENDBRANCH 5 6
BRANCH 5 27
ATOM     27  CB  ASP E   2       3.647  -8.813 -11.254  1.00 43.54 LIG 0.15  C 
BRANCH 27 28
ATOM     28  CG  ASP E   2       4.643  -9.816 -10.685  1.00 45.99 LIG 0.17  C 
ATOM     29 OD2  ASP E   2       4.222 -10.946 -10.348  1.00 46.35 LIG-0.65  OA
ATOM     30 OD1  ASP E   2       5.845  -9.483 -10.582  1.00 46.97 LIG-0.65  OA
ENDBRANCH 27 28
ENDBRANCH 5 27
ENDBRANCH 3 5
BRANCH 1 31
ATOM     31  CA  LEU E   1       0.844  -5.356 -11.159  1.00 39.47 LIG 0.18  C 
BRANCH 31 32
ATOM     32  CB  LEU E   1       1.078  -4.850  -9.724  1.00 38.97 LIG 0.04  C 
BRANCH 32 33
ATOM     33  CG  LEU E   1       0.274  -3.614  -9.286  1.00 40.05 LIG-0.02  C 
ATOM     34  CD2 LEU E   1       1.124  -2.655  -8.456  1.00 40.58 LIG 0.01  C 
ATOM     35  CD1 LEU E   1      -0.981  -4.011  -8.522  1.00 39.33 LIG 0.01  C 
ENDBRANCH 32 33
ENDBRANCH 31 32
BRANCH 31 36
ATOM     36  N   LEU E   1      -0.492  -5.938 -11.293  1.00 38.97 LIG-0.35  N 
ATOM     37  C   GLN E   0      -0.917  -6.913 -10.493  1.00 38.27 LIG 0.24  C 
ATOM     38 O    GLN E   0      -0.225  -7.410  -9.598  1.00 40.12 LIG-0.27  OA
ATOM     39 H    LEU E   1      -0.965  -5.595 -11.924  1.00 38.97 LIG 0.16  HD
BRANCH 37 40
ATOM     40  CA  GLN E   0      -2.350  -7.392 -10.728  1.00 36.47 LIG 0.18  C 
BRANCH 40 41
ATOM     41  N   GLN E   0      -2.420  -8.546 -11.679  1.00 35.61 LIG-0.35  N 
ATOM     42  C   ACE E  -1      -2.729  -8.431 -12.975  1.00 35.56 LIG 0.21  C 
ATOM     43 O    ACE E  -1      -3.002  -7.374 -13.527  1.00 35.09 LIG-0.27  OA
ATOM     44  CH3 ACE E  -1      -2.907  -9.733 -13.721  1.00 35.40 LIG 0.12  C 
ATOM     45 H    GLN E   0      -2.241  -9.301 -11.309  1.00 35.61 LIG 0.16  HD
ENDBRANCH 40 41
BRANCH 40 46
ATOM     46  CB  GLN E   0      -2.996  -7.754  -9.384  1.00 35.42 LIG 0.04  C 
BRANCH 46 47
ATOM     47  CG  GLN E   0      -3.203  -6.559  -8.455  1.00 33.87 LIG 0.10  C 
BRANCH 47 48
ATOM     48  CD  GLN E   0      -3.293  -6.970  -6.997  1.00 33.67 LIG 0.21  C 
ATOM     49 OE1  GLN E   0      -2.287  -6.999  -6.290  1.00 31.67 LIG-0.27  OA
ATOM     50  NE2 GLN E   0      -4.500  -7.300  -6.543  1.00 33.23 LIG-0.37  N 
ATOM     51 22HE GLN E   0      -4.599  -7.547  -5.725  1.00 33.23 LIG 0.16  HD
ATOM     52 21HE GLN E   0      -5.180  -7.267  -7.069  1.00 33.23 LIG 0.16  HD
ENDBRANCH 47 48
ENDBRANCH 46 47
ENDBRANCH 40 46
ENDBRANCH 37 40
ENDBRANCH 31 36
ENDBRANCH 1 31
TORSDOF 19
ENDMDL
MODEL 10
USER: ADFR SOLUTION from run 19
USER: SCORE 15.073382 LL:  -3.904 LR: -13.223 RR:   0.000 FEB:  -7.555
USER: RMSD 4.032332
USER: SEED 18
USER: STATUS no improvement in best in 9 clusters for 5 generations
USER: GENES 21
USER: genes 0 Translation |==|  0.48628 0.50844 0.58620
USER: genes 1 Rotation |==|  0.18303 0.57138 0.35354 0.85070
USER: genes 2 Torsion [C]-N--CA-[CB] |==|  0.50700
USER: genes 3 Torsion [N]-CA--C-[N] |==|  0.38065
USER: genes 4 Torsion [C]-N--CA-[CB] |==|  0.22894
USER: genes 5 Torsion [N]-CA--C-[N] |==|  0.97778
USER: genes 6 Torsion [C]-N--CA-[CB] |==|  0.33105
USER: genes 7 Torsion [N]-CA--C-[O] |==|  0.65560
USER: genes 8 Torsion [N]-CA--CB-[CG] |==|  0.93217
USER: genes 9 Torsion [CA]-CB--CG-[CD1] |==|  0.85674
USER: genes 10 Torsion [N]-CA--CB-[CG] |==|  0.58646
USER: genes 11 Torsion [CA]-CB--CG-[OD2] |==|  0.87546
USER: genes 12 Torsion [N]-C--CA-[N] |==|  0.04795
USER: genes 13 Torsion [C]-CA--CB-[CG] |==|  0.68847
USER: genes 14 Torsion [CA]-CB--CG-[CD2] |==|  0.70178
USER: genes 15 Torsion [C]-CA--N-[C] |==|  0.57781
USER: genes 16 Torsion [N]-C--CA-[N] |==|  0.89629
USER: genes 17 Torsion [C]-CA--N-[C] |==|  0.86307
USER: genes 18 Torsion [C]-CA--CB-[CG] |==|  0.85657
USER: genes 19 Torsion [CA]-CB--CG-[CD] |==|  0.51533
USER: genes 20 Torsion [CB]-CG--CD-[OE1] |==|  0.81141
ROOT
ATOM      1  C   LEU E   1       3.410  -6.866 -11.094  1.00 39.66 LIG 0.24  C 
ATOM      2 O    LEU E   1       4.114  -5.931 -11.488  1.00 37.26 LIG-0.27  OA
ATOM      3  N   ASP E   2       3.908  -7.948 -10.493  1.00 41.55 LIG-0.35  N 
ATOM      4 H    ASP E   2       3.423  -8.602 -10.215  1.00 41.55 LIG 0.16  HD
ENDROOT
BRANCH 3 5
ATOM      5  CA  ASP E   2       5.344  -8.124 -10.249  1.00 42.33 LIG 0.19  C 
BRANCH 5 6
ATOM      6  C   ASP E   2       6.143  -7.986 -11.540  1.00 41.58 LIG 0.24  C 
ATOM      7 O    ASP E   2       5.750  -8.521 -12.583  1.00 40.78 LIG-0.27  OA
ATOM      8  N   ALA E   3       7.268  -7.274 -11.455  1.00 40.17 LIG-0.35  N 
ATOM      9 H    ALA E   3       7.548  -6.921 -10.723  1.00 40.17 LIG 0.16  HD
BRANCH 8 10
ATOM     10  CA  ALA E   3       8.144  -7.020 -12.607  1.00 38.52 LIG 0.17  C 
ATOM     11  CB  ALA E   3       7.612  -5.843 -13.423  1.00 38.62 LIG 0.04  C 
BRANCH 10 12
ATOM     12  C   ALA E   3       9.603  -6.782 -12.220  1.00 38.02 LIG 0.24  C 
ATOM     13 O    ALA E   3      10.477  -6.702 -13.085  1.00 36.71 LIG-0.27  OA
ATOM     14  N   PHE E   4       9.847  -6.673 -10.916  1.00 38.01 LIG-0.34  N 
ATOM     15 H    PHE E   4       9.252  -6.816 -10.312  1.00 38.01 LIG 0.16  HD
BRANCH 14 16
ATOM     16  CA  PHE E   4      11.153  -6.298 -10.377  1.00 38.29 LIG 0.19  C 
BRANCH 16 17
ATOM     17  C   PHE E   4      11.682  -7.416  -9.483  1.00 39.00 LIG 0.20  C 
ATOM     18 OXT  PHE E   4      11.829  -8.559  -9.921  1.00 39.22 LIG-0.65  OA
ATOM     19 O    PHE E   4      11.998  -7.195  -8.309  1.00 39.04 LIG-0.65  OA
ENDBRANCH 16 17
BRANCH 16 20
ATOM     20  CB  PHE E   4      11.046  -4.995  -9.565  1.00 37.57 LIG 0.07  C 
BRANCH 20 21
ATOM     21  CG  PHE E   4       9.880  -4.126  -9.965  1.00 36.97 LIG-0.06  A 
ATOM     22  CD1 PHE E   4       9.673  -3.777 -11.301  1.00 35.77 LIG 0.01  A 
ATOM     23  CE1 PHE E   4       8.610  -2.965 -11.665  1.00 35.50 LIG 0.00  A 
ATOM     24  CZ  PHE E   4       7.738  -2.496 -10.693  1.00 35.20 LIG 0.00  A 
ATOM     25  CE2 PHE E   4       7.935  -2.832  -9.359  1.00 34.71 LIG 0.00  A 
ATOM     26  CD2 PHE E   4       8.999  -3.643  -9.002  1.00 35.45 LIG 0.01  A 
ENDBRANCH 20 21
ENDBRANCH 16 20
ENDBRANCH 14 16
ENDBRANCH 10 12
ENDBRANCH 8 10
ENDBRANCH 5 6
BRANCH 5 27
ATOM     27  CB  ASP E   2       5.628  -9.485  -9.601  1.00 43.54 LIG 0.15  C 
BRANCH 27 28
ATOM     28  CG  ASP E   2       6.836  -9.457  -8.674  1.00 45.99 LIG 0.17  C 
ATOM     29 OD2  ASP E   2       7.873  -8.875  -9.066  1.00 46.35 LIG-0.65  OA
ATOM     30 OD1  ASP E   2       6.751 -10.003  -7.551  1.00 46.97 LIG-0.65  OA
ENDBRANCH 27 28
ENDBRANCH 5 27
ENDBRANCH 3 5
BRANCH 1 31
ATOM     31  CA  LEU E   1       1.885  -6.820 -11.256  1.00 39.47 LIG 0.18  C 
BRANCH 31 32
ATOM     32  CB  LEU E   1       1.326  -5.400 -11.053  1.00 38.97 LIG 0.04  C 
BRANCH 32 33
ATOM     33  CG  LEU E   1       0.456  -5.170  -9.805  1.00 40.05 LIG-0.02  C 
ATOM     34  CD2 LEU E   1      -1.018  -5.014 -10.168  1.00 40.58 LIG 0.01  C 
ATOM     35  CD1 LEU E   1       0.938  -3.968  -9.006  1.00 39.33 LIG 0.01  C 
ENDBRANCH 32 33
ENDBRANCH 31 32
BRANCH 31 36
ATOM     36  N   LEU E   1       1.214  -7.773 -10.372  1.00 38.97 LIG-0.35  N 
ATOM     37  C   GLN E   0       0.035  -8.309 -10.682  1.00 38.27 LIG 0.24  C 
ATOM     38 O    GLN E   0      -0.586  -8.038 -11.716  1.00 40.12 LIG-0.27  OA
ATOM     39 H    LEU E   1       1.646  -7.950  -9.650  1.00 38.97 LIG 0.16  HD
BRANCH 37 40
ATOM     40  CA  GLN E   0      -0.522  -9.320  -9.680  1.00 36.47 LIG 0.18  C 
BRANCH 40 41
ATOM     41  N   GLN E   0       0.546 -10.180  -9.080  1.00 35.61 LIG-0.35  N 
ATOM     42  C   ACE E  -1       1.478 -10.823  -9.791  1.00 35.56 LIG 0.21  C 
ATOM     43 O    ACE E  -1       1.555 -10.793 -11.012  1.00 35.09 LIG-0.27  OA
ATOM     44  CH3 ACE E  -1       2.359 -11.769  -9.009  1.00 35.40 LIG 0.12  C 
ATOM     45 H    GLN E   0       0.505 -10.223  -8.222  1.00 35.61 LIG 0.16  HD
ENDBRANCH 40 41
BRANCH 40 46
ATOM     46  CB  GLN E   0      -1.304  -8.580  -8.585  1.00 35.42 LIG 0.04  C 
BRANCH 46 47
ATOM     47  CG  GLN E   0      -0.524  -7.440  -7.933  1.00 33.87 LIG 0.10  C 
BRANCH 47 48
ATOM     48  CD  GLN E   0      -1.274  -6.820  -6.768  1.00 33.67 LIG 0.21  C 
ATOM     49 OE1  GLN E   0      -2.307  -6.179  -6.957  1.00 31.67 LIG-0.27  OA
ATOM     50  NE2 GLN E   0      -0.750  -6.999  -5.558  1.00 33.23 LIG-0.37  N 
ATOM     51 22HE GLN E   0      -1.136  -6.660  -4.868  1.00 33.23 LIG 0.16  HD
ATOM     52 21HE GLN E   0      -0.025  -7.453  -5.466  1.00 33.23 LIG 0.16  HD
ENDBRANCH 47 48
ENDBRANCH 46 47
ENDBRANCH 40 46
ENDBRANCH 37 40
ENDBRANCH 31 36
ENDBRANCH 1 31
TORSDOF 19
ENDMDL
MODEL 11
USER: ADFR SOLUTION from run 35
USER: SCORE 13.955184 LL:  -3.987 LR: -13.127 RR:   0.000 FEB:  -7.459
USER: RMSD 10.787557
USER: SEED 34
USER: STATUS no improvement in best in 17 clusters for 5 generations
USER: GENES 21
USER: genes 0 Translation |==|  0.36939 0.53292 0.55790
USER: genes 1 Rotation |==|  0.50993 0.20909 0.14257 0.69368
USER: genes 2 Torsion [C]-N--CA-[CB] |==|  0.33372
USER: genes 3 Torsion [N]-CA--C-[N] |==|  0.63993
USER: genes 4 Torsion [C]-N--CA-[CB] |==|  0.81093
USER: genes 5 Torsion [N]-CA--C-[N] |==|  0.31416
USER: genes 6 Torsion [C]-N--CA-[CB] |==|  0.25514
USER: genes 7 Torsion [N]-CA--C-[O] |==|  0.76289
USER: genes 8 Torsion [N]-CA--CB-[CG] |==|  0.85980
USER: genes 9 Torsion [CA]-CB--CG-[CD1] |==|  0.79312
USER: genes 10 Torsion [N]-CA--CB-[CG] |==|  0.08202
USER: genes 11 Torsion [CA]-CB--CG-[OD2] |==|  0.13765
USER: genes 12 Torsion [N]-C--CA-[N] |==|  0.25410
USER: genes 13 Torsion [C]-CA--CB-[CG] |==|  0.35691
USER: genes 14 Torsion [CA]-CB--CG-[CD2] |==|  0.73896
USER: genes 15 Torsion [C]-CA--N-[C] |==|  0.56667
USER: genes 16 Torsion [N]-C--CA-[N] |==|  0.93509
USER: genes 17 Torsion [C]-CA--N-[C] |==|  0.60457
USER: genes 18 Torsion [C]-CA--CB-[CG] |==|  0.23448
USER: genes 19 Torsion [CA]-CB--CG-[CD] |==|  0.47727
USER: genes 20 Torsion [CB]-CG--CD-[OE1] |==|  0.28204
ROOT
ATOM      1  C   LEU E   1       0.517  -6.480 -11.582  1.00 39.66 LIG 0.24  C 
ATOM      2 O    LEU E   1       0.342  -5.562 -10.777  1.00 37.26 LIG-0.27  OA
ATOM      3  N   ASP E   2      -0.303  -7.527 -11.683  1.00 41.55 LIG-0.35  N 
ATOM      4 H    ASP E   2      -0.187  -8.170 -12.243  1.00 41.55 LIG 0.16  HD
ENDROOT
BRANCH 3 5
ATOM      5  CA  ASP E   2      -1.493  -7.681 -10.838  1.00 42.33 LIG 0.19  C 
BRANCH 5 6
ATOM      6  C   ASP E   2      -1.388  -8.922  -9.959  1.00 41.58 LIG 0.24  C 
ATOM      7 O    ASP E   2      -0.374  -9.130  -9.284  1.00 40.78 LIG-0.27  OA
ATOM      8  N   ALA E   3      -2.439  -9.744  -9.983  1.00 40.17 LIG-0.35  N 
ATOM      9 H    ALA E   3      -3.134  -9.605 -10.470  1.00 40.17 LIG 0.16  HD
BRANCH 8 10
ATOM     10  CA  ALA E   3      -2.516 -10.970  -9.179  1.00 38.52 LIG 0.17  C 
ATOM     11  CB  ALA E   3      -1.500 -11.993  -9.680  1.00 38.62 LIG 0.04  C 
BRANCH 10 12
ATOM     12  C   ALA E   3      -2.332 -10.727  -7.681  1.00 38.02 LIG 0.24  C 
ATOM     13 O    ALA E   3      -1.249 -10.345  -7.236  1.00 36.71 LIG-0.27  OA
ATOM     14  N   PHE E   4      -3.400 -10.954  -6.921  1.00 38.01 LIG-0.34  N 
ATOM     15 H    PHE E   4      -4.126 -11.302  -7.221  1.00 38.01 LIG 0.16  HD
BRANCH 14 16
ATOM     16  CA  PHE E   4      -3.449 -10.632  -5.496  1.00 38.29 LIG 0.19  C 
BRANCH 16 17
ATOM     17  C   PHE E   4      -4.327 -11.647  -4.768  1.00 39.00 LIG 0.20  C 
ATOM     18 OXT  PHE E   4      -3.829 -12.624  -4.204  1.00 39.22 LIG-0.65  OA
ATOM     19 O    PHE E   4      -5.552 -11.499  -4.706  1.00 39.04 LIG-0.65  OA
ENDBRANCH 16 17
BRANCH 16 20
ATOM     20  CB  PHE E   4      -4.012  -9.216  -5.282  1.00 37.57 LIG 0.07  C 
BRANCH 20 21
ATOM     21  CG  PHE E   4      -3.337  -8.162  -6.124  1.00 36.97 LIG-0.06  A 
ATOM     22  CD1 PHE E   4      -2.056  -7.707  -5.809  1.00 35.77 LIG 0.01  A 
ATOM     23  CE1 PHE E   4      -1.443  -6.727  -6.574  1.00 35.50 LIG 0.00  A 
ATOM     24  CZ  PHE E   4      -2.108  -6.194  -7.670  1.00 35.20 LIG 0.00  A 
ATOM     25  CE2 PHE E   4      -3.385  -6.636  -7.993  1.00 34.71 LIG 0.00  A 
ATOM     26  CD2 PHE E   4      -3.991  -7.614  -7.223  1.00 35.45 LIG 0.01  A 
ENDBRANCH 20 21
ENDBRANCH 16 20
ENDBRANCH 14 16
ENDBRANCH 10 12
ENDBRANCH 8 10
ENDBRANCH 5 6
BRANCH 5 27
ATOM     27  CB  ASP E   2      -2.767  -7.749 -11.690  1.00 43.54 LIG 0.15  C 
BRANCH 27 28
ATOM     28  CG  ASP E   2      -2.522  -8.348 -13.070  1.00 45.99 LIG 0.17  C 
ATOM     29 OD2  ASP E   2      -1.897  -9.429 -13.146  1.00 46.35 LIG-0.65  OA
ATOM     30 OD1  ASP E   2      -2.962  -7.748 -14.076  1.00 46.97 LIG-0.65  OA
ENDBRANCH 27 28
ENDBRANCH 5 27
ENDBRANCH 3 5
BRANCH 1 31
ATOM     31  CA  LEU E   1       1.706  -6.453 -12.553  1.00 39.47 LIG 0.18  C 
BRANCH 31 32
ATOM     32  CB  LEU E   1       2.973  -5.874 -11.897  1.00 38.97 LIG 0.04  C 
BRANCH 32 33
ATOM     33  CG  LEU E   1       4.257  -6.713 -12.012  1.00 40.05 LIG-0.02  C 
ATOM     34  CD2 LEU E   1       4.452  -7.612 -10.793  1.00 40.58 LIG 0.01  C 
ATOM     35  CD1 LEU E   1       5.479  -5.831 -12.224  1.00 39.33 LIG 0.01  C 
ENDBRANCH 32 33
ENDBRANCH 31 32
BRANCH 31 36
ATOM     36  N   LEU E   1       1.386  -5.735 -13.787  1.00 38.97 LIG-0.35  N 
ATOM     37  C   GLN E   0       2.038  -5.966 -14.924  1.00 38.27 LIG 0.24  C 
ATOM     38 O    GLN E   0       2.963  -6.781 -15.025  1.00 40.12 LIG-0.27  OA
ATOM     39 H    LEU E   1       0.749  -5.163 -13.708  1.00 38.97 LIG 0.16  HD
BRANCH 37 40
ATOM     40  CA  GLN E   0       1.564  -5.169 -16.139  1.00 36.47 LIG 0.18  C 
BRANCH 40 41
ATOM     41  N   GLN E   0       0.148  -4.704 -16.002  1.00 35.61 LIG-0.35  N 
ATOM     42  C   ACE E  -1      -0.727  -4.660 -17.012  1.00 35.56 LIG 0.21  C 
ATOM     43 O    ACE E  -1      -0.467  -4.982 -18.163  1.00 35.09 LIG-0.27  OA
ATOM     44  CH3 ACE E  -1      -2.052  -4.004 -16.699  1.00 35.40 LIG 0.12  C 
ATOM     45 H    GLN E   0      -0.054  -4.463 -15.201  1.00 35.61 LIG 0.16  HD
ENDBRANCH 40 41
BRANCH 40 46
ATOM     46  CB  GLN E   0       2.507  -3.981 -16.373  1.00 35.42 LIG 0.04  C 
BRANCH 46 47
ATOM     47  CG  GLN E   0       3.752  -4.331 -17.186  1.00 33.87 LIG 0.10  C 
BRANCH 47 48
ATOM     48  CD  GLN E   0       4.557  -3.101 -17.566  1.00 33.67 LIG 0.21  C 
ATOM     49 OE1  GLN E   0       5.577  -2.804 -16.948  1.00 31.67 LIG-0.27  OA
ATOM     50  NE2 GLN E   0       4.093  -2.375 -18.581  1.00 33.23 LIG-0.37  N 
ATOM     51 22HE GLN E   0       4.512  -1.665 -18.828  1.00 33.23 LIG 0.16  HD
ATOM     52 21HE GLN E   0       3.375  -2.616 -18.989  1.00 33.23 LIG 0.16  HD
ENDBRANCH 47 48
ENDBRANCH 46 47
ENDBRANCH 40 46
ENDBRANCH 37 40
ENDBRANCH 31 36
ENDBRANCH 1 31
TORSDOF 19
ENDMDL
MODEL 12
USER: ADFR SOLUTION from run 158
USER: SCORE 14.380728 LL:  -3.215 LR: -13.028 RR:   0.000 FEB:  -7.360
USER: RMSD 10.152542
USER: SEED 157
USER: STATUS no improvement in best in 7 clusters for 5 generations
USER: GENES 21
USER: genes 0 Translation |==|  0.59598 0.58543 0.47451
USER: genes 1 Rotation |==|  0.67224 0.06363 0.55232 0.66484
USER: genes 2 Torsion [C]-N--CA-[CB] |==|  0.49444
USER: genes 3 Torsion [N]-CA--C-[N] |==|  0.28423
USER: genes 4 Torsion [C]-N--CA-[CB] |==|  0.52023
USER: genes 5 Torsion [N]-CA--C-[N] |==|  0.38677
USER: genes 6 Torsion [C]-N--CA-[CB] |==|  0.09190
USER: genes 7 Torsion [N]-CA--C-[O] |==|  0.30290
USER: genes 8 Torsion [N]-CA--CB-[CG] |==|  0.58748
USER: genes 9 Torsion [CA]-CB--CG-[CD1] |==|  0.53044
USER: genes 10 Torsion [N]-CA--CB-[CG] |==|  0.84821
USER: genes 11 Torsion [CA]-CB--CG-[OD2] |==|  0.36665
USER: genes 12 Torsion [N]-C--CA-[N] |==|  0.49542
USER: genes 13 Torsion [C]-CA--CB-[CG] |==|  0.34952
USER: genes 14 Torsion [CA]-CB--CG-[CD2] |==|  0.89698
USER: genes 15 Torsion [C]-CA--N-[C] |==|  0.52723
USER: genes 16 Torsion [N]-C--CA-[N] |==|  0.95706
USER: genes 17 Torsion [C]-CA--N-[C] |==|  0.81110
USER: genes 18 Torsion [C]-CA--CB-[CG] |==|  0.49729
USER: genes 19 Torsion [CA]-CB--CG-[CD] |==|  0.21719
USER: genes 20 Torsion [CB]-CG--CD-[OE1] |==|  0.17335
ROOT
ATOM      1  C   LEU E   1       6.126  -5.654 -13.021  1.00 39.66 LIG 0.24  C 
ATOM      2 O    LEU E   1       5.231  -5.645 -13.871  1.00 37.26 LIG-0.27  OA
ATOM      3  N   ASP E   2       6.088  -6.423 -11.932  1.00 41.55 LIG-0.35  N 
ATOM      4 H    ASP E   2       6.709  -6.435 -11.337  1.00 41.55 LIG 0.16  HD
ENDROOT
BRANCH 3 5
ATOM      5  CA  ASP E   2       4.972  -7.332 -11.647  1.00 42.33 LIG 0.19  C 
BRANCH 5 6
ATOM      6  C   ASP E   2       3.655  -6.570 -11.540  1.00 41.58 LIG 0.24  C 
ATOM      7 O    ASP E   2       3.375  -5.940 -10.514  1.00 40.78 LIG-0.27  OA
ATOM      8  N   ALA E   3       2.852  -6.643 -12.603  1.00 40.17 LIG-0.35  N 
ATOM      9 H    ALA E   3       3.042  -7.100 -13.306  1.00 40.17 LIG 0.16  HD
BRANCH 8 10
ATOM     10  CA  ALA E   3       1.560  -5.950 -12.680  1.00 38.52 LIG 0.17  C 
ATOM     11  CB  ALA E   3       0.808  -6.376 -13.938  1.00 38.62 LIG 0.04  C 
BRANCH 10 12
ATOM     12  C   ALA E   3       0.686  -6.155 -11.443  1.00 38.02 LIG 0.24  C 
ATOM     13 O    ALA E   3       0.615  -7.258 -10.900  1.00 36.71 LIG-0.27  OA
ATOM     14  N   PHE E   4       0.028  -5.080 -11.013  1.00 38.01 LIG-0.34  N 
ATOM     15 H    PHE E   4       0.011  -4.336 -11.443  1.00 38.01 LIG 0.16  HD
BRANCH 14 16
ATOM     16  CA  PHE E   4      -0.731  -5.055  -9.764  1.00 38.29 LIG 0.19  C 
BRANCH 16 17
ATOM     17  C   PHE E   4      -0.809  -3.626  -9.236  1.00 39.00 LIG 0.20  C 
ATOM     18 OXT  PHE E   4       0.193  -3.059  -8.795  1.00 39.22 LIG-0.65  OA
ATOM     19 O    PHE E   4      -1.872  -2.995  -9.263  1.00 39.04 LIG-0.65  OA
ENDBRANCH 16 17
BRANCH 16 20
ATOM     20  CB  PHE E   4      -0.066  -5.959  -8.711  1.00 37.57 LIG 0.07  C 
BRANCH 20 21
ATOM     21  CG  PHE E   4      -1.042  -6.594  -7.753  1.00 36.97 LIG-0.06  A 
ATOM     22  CD1 PHE E   4      -0.594  -7.254  -6.608  1.00 35.77 LIG 0.01  A 
ATOM     23  CE1 PHE E   4      -1.491  -7.851  -5.736  1.00 35.50 LIG 0.00  A 
ATOM     24  CZ  PHE E   4      -2.853  -7.789  -6.002  1.00 35.20 LIG 0.00  A 
ATOM     25  CE2 PHE E   4      -3.312  -7.139  -7.140  1.00 34.71 LIG 0.00  A 
ATOM     26  CD2 PHE E   4      -2.410  -6.546  -8.007  1.00 35.45 LIG 0.01  A 
ENDBRANCH 20 21
ENDBRANCH 16 20
ENDBRANCH 14 16
ENDBRANCH 10 12
ENDBRANCH 8 10
ENDBRANCH 5 6
BRANCH 5 27
ATOM     27  CB  ASP E   2       5.224  -8.123 -10.357  1.00 43.54 LIG 0.15  C 
BRANCH 27 28
ATOM     28  CG  ASP E   2       6.550  -8.874 -10.375  1.00 45.99 LIG 0.17  C 
ATOM     29 OD2  ASP E   2       7.303  -8.775  -9.379  1.00 46.35 LIG-0.65  OA
ATOM     30 OD1  ASP E   2       6.838  -9.569 -11.374  1.00 46.97 LIG-0.65  OA
ENDBRANCH 27 28
ENDBRANCH 5 27
ENDBRANCH 3 5
BRANCH 1 31
ATOM     31  CA  LEU E   1       7.373  -4.774 -13.189  1.00 39.47 LIG 0.18  C 
BRANCH 31 32
ATOM     32  CB  LEU E   1       7.595  -3.851 -11.978  1.00 38.97 LIG 0.04  C 
BRANCH 32 33
ATOM     33  CG  LEU E   1       8.973  -3.921 -11.298  1.00 40.05 LIG-0.02  C 
ATOM     34  CD2 LEU E   1       9.517  -5.348 -11.274  1.00 40.58 LIG 0.01  C 
ATOM     35  CD1 LEU E   1       8.928  -3.345  -9.890  1.00 39.33 LIG 0.01  C 
ENDBRANCH 32 33
ENDBRANCH 31 32
BRANCH 31 36
ATOM     36  N   LEU E   1       7.330  -4.001 -14.430  1.00 38.97 LIG-0.35  N 
ATOM     37  C   GLN E   0       8.387  -3.322 -14.872  1.00 38.27 LIG 0.24  C 
ATOM     38 O    GLN E   0       9.466  -3.277 -14.271  1.00 40.12 LIG-0.27  OA
ATOM     39 H    LEU E   1       6.574  -4.028 -14.838  1.00 38.97 LIG 0.16  HD
BRANCH 37 40
ATOM     40  CA  GLN E   0       8.204  -2.595 -16.204  1.00 36.47 LIG 0.18  C 
BRANCH 40 41
ATOM     41  N   GLN E   0       7.000  -3.071 -16.956  1.00 35.61 LIG-0.35  N 
ATOM     42  C   ACE E  -1       6.887  -4.290 -17.494  1.00 35.56 LIG 0.21  C 
ATOM     43 O    ACE E  -1       7.757  -5.148 -17.446  1.00 35.09 LIG-0.27  OA
ATOM     44  CH3 ACE E  -1       5.663  -4.514 -18.351  1.00 35.40 LIG 0.12  C 
ATOM     45 H    GLN E   0       6.379  -2.480 -17.011  1.00 35.61 LIG 0.16  HD
ENDBRANCH 40 41
BRANCH 40 46
ATOM     46  CB  GLN E   0       8.128  -1.082 -15.957  1.00 35.42 LIG 0.04  C 
BRANCH 46 47
ATOM     47  CG  GLN E   0       7.968  -0.256 -17.232  1.00 33.87 LIG 0.10  C 
BRANCH 47 48
ATOM     48  CD  GLN E   0       6.544  -0.272 -17.756  1.00 33.67 LIG 0.21  C 
ATOM     49 OE1  GLN E   0       5.623   0.190 -17.084  1.00 31.67 LIG-0.27  OA
ATOM     50  NE2 GLN E   0       6.356  -0.815 -18.956  1.00 33.23 LIG-0.37  N 
ATOM     51 22HE GLN E   0       5.565  -0.854 -19.291  1.00 33.23 LIG 0.16  HD
ATOM     52 21HE GLN E   0       7.026  -1.128 -19.396  1.00 33.23 LIG 0.16  HD
ENDBRANCH 47 48
ENDBRANCH 46 47
ENDBRANCH 40 46
ENDBRANCH 37 40
ENDBRANCH 31 36
ENDBRANCH 1 31
TORSDOF 19
ENDMDL
MODEL 13
USER: ADFR SOLUTION from run 31
USER: SCORE 14.951126 LL:  -3.546 LR: -13.012 RR:   0.000 FEB:  -7.344
USER: RMSD 8.611366
USER: SEED 30
USER: STATUS no improvement in best in 21 clusters for 5 generations
USER: GENES 21
USER: genes 0 Translation |==|  0.29445 0.53763 0.75772
USER: genes 1 Rotation |==|  0.67420 0.79626 0.65316 0.82928
USER: genes 2 Torsion [C]-N--CA-[CB] |==|  0.83303
USER: genes 3 Torsion [N]-CA--C-[N] |==|  0.28355
USER: genes 4 Torsion [C]-N--CA-[CB] |==|  0.16108
USER: genes 5 Torsion [N]-CA--C-[N] |==|  0.13244
USER: genes 6 Torsion [C]-N--CA-[CB] |==|  0.85531
USER: genes 7 Torsion [N]-CA--C-[O] |==|  0.77203
USER: genes 8 Torsion [N]-CA--CB-[CG] |==|  0.72895
USER: genes 9 Torsion [CA]-CB--CG-[CD1] |==|  0.05780
USER: genes 10 Torsion [N]-CA--CB-[CG] |==|  0.73610
USER: genes 11 Torsion [CA]-CB--CG-[OD2] |==|  0.96935
USER: genes 12 Torsion [N]-C--CA-[N] |==|  0.16082
USER: genes 13 Torsion [C]-CA--CB-[CG] |==|  0.42600
USER: genes 14 Torsion [CA]-CB--CG-[CD2] |==|  0.22477
USER: genes 15 Torsion [C]-CA--N-[C] |==|  0.65922
USER: genes 16 Torsion [N]-C--CA-[N] |==|  0.49652
USER: genes 17 Torsion [C]-CA--N-[C] |==|  0.56701
USER: genes 18 Torsion [C]-CA--CB-[CG] |==|  0.87912
USER: genes 19 Torsion [CA]-CB--CG-[CD] |==|  0.52567
USER: genes 20 Torsion [CB]-CG--CD-[OE1] |==|  0.14283
ROOT
ATOM      1  C   LEU E   1      -1.337  -6.406  -8.135  1.00 39.66 LIG 0.24  C 
ATOM      2 O    LEU E   1      -0.252  -6.242  -7.570  1.00 37.26 LIG-0.27  OA
ATOM      3  N   ASP E   2      -1.708  -5.716  -9.215  1.00 41.55 LIG-0.35  N 
ATOM      4 H    ASP E   2      -2.462  -5.826  -9.614  1.00 41.55 LIG 0.16  HD
ENDROOT
BRANCH 3 5
ATOM      5  CA  ASP E   2      -0.854  -4.692  -9.827  1.00 42.33 LIG 0.19  C 
BRANCH 5 6
ATOM      6  C   ASP E   2       0.447  -5.297 -10.344  1.00 41.58 LIG 0.24  C 
ATOM      7 O    ASP E   2       1.370  -5.562  -9.565  1.00 40.78 LIG-0.27  OA
ATOM      8  N   ALA E   3       0.512  -5.501 -11.661  1.00 40.17 LIG-0.35  N 
ATOM      9 H    ALA E   3      -0.125  -5.295 -12.201  1.00 40.17 LIG 0.16  HD
BRANCH 8 10
ATOM     10  CA  ALA E   3       1.679  -6.098 -12.323  1.00 38.52 LIG 0.17  C 
ATOM     11  CB  ALA E   3       1.963  -7.481 -11.740  1.00 38.62 LIG 0.04  C 
BRANCH 10 12
ATOM     12  C   ALA E   3       1.540  -6.180 -13.843  1.00 38.02 LIG 0.24  C 
ATOM     13 O    ALA E   3       1.804  -7.223 -14.442  1.00 36.71 LIG-0.27  OA
ATOM     14  N   PHE E   4       1.125  -5.070 -14.448  1.00 38.01 LIG-0.34  N 
ATOM     15 H    PHE E   4       1.026  -4.320 -14.039  1.00 38.01 LIG 0.16  HD
BRANCH 14 16
ATOM     16  CA  PHE E   4       0.795  -5.011 -15.870  1.00 38.29 LIG 0.19  C 
BRANCH 16 17
ATOM     17  C   PHE E   4      -0.475  -5.815 -16.138  1.00 39.00 LIG 0.20  C 
ATOM     18 OXT  PHE E   4      -1.567  -5.253 -16.247  1.00 39.22 LIG-0.65  OA
ATOM     19 O    PHE E   4      -0.432  -7.042 -16.277  1.00 39.04 LIG-0.65  OA
ENDBRANCH 16 17
BRANCH 16 20
ATOM     20  CB  PHE E   4       1.951  -5.576 -16.714  1.00 37.57 LIG 0.07  C 
BRANCH 20 21
ATOM     21  CG  PHE E   4       2.865  -4.516 -17.276  1.00 36.97 LIG-0.06  A 
ATOM     22  CD1 PHE E   4       2.921  -3.244 -16.706  1.00 35.77 LIG 0.01  A 
ATOM     23  CE1 PHE E   4       3.749  -2.265 -17.232  1.00 35.50 LIG 0.00  A 
ATOM     24  CZ  PHE E   4       4.538  -2.554 -18.338  1.00 35.20 LIG 0.00  A 
ATOM     25  CE2 PHE E   4       4.490  -3.815 -18.917  1.00 34.71 LIG 0.00  A 
ATOM     26  CD2 PHE E   4       3.659  -4.787 -18.387  1.00 35.45 LIG 0.01  A 
ENDBRANCH 20 21
ENDBRANCH 16 20
ENDBRANCH 14 16
ENDBRANCH 10 12
ENDBRANCH 8 10
ENDBRANCH 5 6
BRANCH 5 27
ATOM     27  CB  ASP E   2      -0.547  -3.565  -8.832  1.00 43.54 LIG 0.15  C 
BRANCH 27 28
ATOM     28  CG  ASP E   2      -1.500  -2.384  -8.966  1.00 45.99 LIG 0.17  C 
ATOM     29 OD2  ASP E   2      -2.260  -2.343  -9.959  1.00 46.35 LIG-0.65  OA
ATOM     30 OD1  ASP E   2      -1.500  -1.503  -8.077  1.00 46.97 LIG-0.65  OA
ENDBRANCH 27 28
ENDBRANCH 5 27
ENDBRANCH 3 5
BRANCH 1 31
ATOM     31  CA  LEU E   1      -2.332  -7.459  -7.628  1.00 39.47 LIG 0.18  C 
BRANCH 31 32
ATOM     32  CB  LEU E   1      -1.840  -8.144  -6.341  1.00 38.97 LIG 0.04  C 
BRANCH 32 33
ATOM     33  CG  LEU E   1      -2.919  -8.710  -5.401  1.00 40.05 LIG-0.02  C 
ATOM     34  CD2 LEU E   1      -3.418 -10.074  -5.873  1.00 40.58 LIG 0.01  C 
ATOM     35  CD1 LEU E   1      -4.083  -7.742  -5.247  1.00 39.33 LIG 0.01  C 
ENDBRANCH 32 33
ENDBRANCH 31 32
BRANCH 31 36
ATOM     36  N   LEU E   1      -2.648  -8.451  -8.656  1.00 38.97 LIG-0.35  N 
ATOM     37  C   GLN E   0      -3.897  -8.673  -9.060  1.00 38.27 LIG 0.24  C 
ATOM     38 O    GLN E   0      -4.877  -8.080  -8.595  1.00 40.12 LIG-0.27  OA
ATOM     39 H    LEU E   1      -1.963  -8.867  -8.968  1.00 38.97 LIG 0.16  HD
BRANCH 37 40
ATOM     40  CA  GLN E   0      -4.066  -9.710 -10.170  1.00 36.47 LIG 0.18  C 
BRANCH 40 41
ATOM     41  N   GLN E   0      -5.500  -9.921 -10.543  1.00 35.61 LIG-0.35  N 
ATOM     42  C   ACE E  -1      -5.970 -11.037 -11.110  1.00 35.56 LIG 0.21  C 
ATOM     43 O    ACE E  -1      -5.281 -12.006 -11.399  1.00 35.09 LIG-0.27  OA
ATOM     44  CH3 ACE E  -1      -7.412 -10.984 -11.558  1.00 35.40 LIG 0.12  C 
ATOM     45 H    GLN E   0      -6.002  -9.247 -10.358  1.00 35.61 LIG 0.16  HD
ENDBRANCH 40 41
BRANCH 40 46
ATOM     46  CB  GLN E   0      -3.241  -9.290 -11.394  1.00 35.42 LIG 0.04  C 
BRANCH 46 47
ATOM     47  CG  GLN E   0      -3.353  -7.804 -11.734  1.00 33.87 LIG 0.10  C 
BRANCH 47 48
ATOM     48  CD  GLN E   0      -2.712  -7.468 -13.068  1.00 33.67 LIG 0.21  C 
ATOM     49 OE1  GLN E   0      -3.001  -8.104 -14.081  1.00 31.67 LIG-0.27  OA
ATOM     50  NE2 GLN E   0      -1.829  -6.472 -13.072  1.00 33.23 LIG-0.37  N 
ATOM     51 22HE GLN E   0      -1.435  -6.250 -13.804  1.00 33.23 LIG 0.16  HD
ATOM     52 21HE GLN E   0      -1.653  -6.051 -12.343  1.00 33.23 LIG 0.16  HD
ENDBRANCH 47 48
ENDBRANCH 46 47
ENDBRANCH 40 46
ENDBRANCH 37 40
ENDBRANCH 31 36
ENDBRANCH 1 31
TORSDOF 19
ENDMDL
MODEL 14
USER: ADFR SOLUTION from run 16
USER: SCORE 15.840950 LL:  -4.059 LR: -13.012 RR:   0.000 FEB:  -7.345
USER: RMSD 10.440924
USER: SEED 313144
USER: STATUS no improvement in best in 6 clusters for 5 generations
USER: GENES 21
USER: genes 0 Translation |==|  0.36158 0.58482 0.59955
USER: genes 1 Rotation |==|  0.30522 0.17693 0.29533 0.75651
USER: genes 2 Torsion [C]-N--CA-[CB] |==|  0.14444
USER: genes 3 Torsion [N]-CA--C-[N] |==|  0.13829
USER: genes 4 Torsion [C]-N--CA-[CB] |==|  0.83717
USER: genes 5 Torsion [N]-CA--C-[N] |==|  0.37984
USER: genes 6 Torsion [C]-N--CA-[CB] |==|  0.25772
USER: genes 7 Torsion [N]-CA--C-[O] |==|  0.76190
USER: genes 8 Torsion [N]-CA--CB-[CG] |==|  0.87719
USER: genes 9 Torsion [CA]-CB--CG-[CD1] |==|  0.77356
USER: genes 10 Torsion [N]-CA--CB-[CG] |==|  0.68711
USER: genes 11 Torsion [CA]-CB--CG-[OD2] |==|  0.54482
USER: genes 12 Torsion [N]-C--CA-[N] |==|  0.43444
USER: genes 13 Torsion [C]-CA--CB-[CG] |==|  0.76163
USER: genes 14 Torsion [CA]-CB--CG-[CD2] |==|  0.65410
USER: genes 15 Torsion [C]-CA--N-[C] |==|  0.56233
USER: genes 16 Torsion [N]-C--CA-[N] |==|  0.77905
USER: genes 17 Torsion [C]-CA--N-[C] |==|  0.55127
USER: genes 18 Torsion [C]-CA--CB-[CG] |==|  0.42165
USER: genes 19 Torsion [CA]-CB--CG-[CD] |==|  0.56900
USER: genes 20 Torsion [CB]-CG--CD-[OE1] |==|  0.11389
ROOT
ATOM      1  C   LEU E   1       0.324  -5.663 -10.864  1.00 39.66 LIG 0.24  C 
ATOM      2 O    LEU E   1       0.484  -4.447 -11.008  1.00 37.26 LIG-0.27  OA
ATOM      3  N   ASP E   2      -0.158  -6.207  -9.745  1.00 41.55 LIG-0.35  N 
ATOM      4 H    ASP E   2      -0.273  -7.053  -9.639  1.00 41.55 LIG 0.16  HD
ENDROOT
BRANCH 3 5
ATOM      5  CA  ASP E   2      -0.541  -5.403  -8.579  1.00 42.33 LIG 0.19  C 
BRANCH 5 6
ATOM      6  C   ASP E   2      -1.178  -6.268  -7.498  1.00 41.58 LIG 0.24  C 
ATOM      7 O    ASP E   2      -2.250  -5.937  -6.979  1.00 40.78 LIG-0.27  OA
ATOM      8  N   ALA E   3      -0.505  -7.370  -7.161  1.00 40.17 LIG-0.35  N 
ATOM      9 H    ALA E   3       0.250  -7.585  -7.511  1.00 40.17 LIG 0.16  HD
BRANCH 8 10
ATOM     10  CA  ALA E   3      -0.987  -8.328  -6.158  1.00 38.52 LIG 0.17  C 
ATOM     11  CB  ALA E   3      -1.185  -7.629  -4.815  1.00 38.62 LIG 0.04  C 
BRANCH 10 12
ATOM     12  C   ALA E   3      -2.267  -9.053  -6.575  1.00 38.02 LIG 0.24  C 
ATOM     13 O    ALA E   3      -3.193  -8.437  -7.102  1.00 36.71 LIG-0.27  OA
ATOM     14  N   PHE E   4      -2.299 -10.361  -6.330  1.00 38.01 LIG-0.34  N 
ATOM     15 H    PHE E   4      -1.689 -10.771  -5.884  1.00 38.01 LIG 0.16  HD
BRANCH 14 16
ATOM     16  CA  PHE E   4      -3.375 -11.233  -6.794  1.00 38.29 LIG 0.19  C 
BRANCH 16 17
ATOM     17  C   PHE E   4      -3.617 -12.341  -5.773  1.00 39.00 LIG 0.20  C 
ATOM     18 OXT  PHE E   4      -4.499 -12.231  -4.918  1.00 39.22 LIG-0.65  OA
ATOM     19 O    PHE E   4      -2.953 -13.383  -5.795  1.00 39.04 LIG-0.65  OA
ENDBRANCH 16 17
BRANCH 16 20
ATOM     20  CB  PHE E   4      -3.014 -11.856  -8.155  1.00 37.57 LIG 0.07  C 
BRANCH 20 21
ATOM     21  CG  PHE E   4      -2.418 -10.874  -9.131  1.00 36.97 LIG-0.06  A 
ATOM     22  CD1 PHE E   4      -3.234 -10.023  -9.879  1.00 35.77 LIG 0.01  A 
ATOM     23  CE1 PHE E   4      -2.686  -9.132 -10.788  1.00 35.50 LIG 0.00  A 
ATOM     24  CZ  PHE E   4      -1.309  -9.079 -10.955  1.00 35.20 LIG 0.00  A 
ATOM     25  CE2 PHE E   4      -0.485  -9.922 -10.220  1.00 34.71 LIG 0.00  A 
ATOM     26  CD2 PHE E   4      -1.040 -10.811  -9.315  1.00 35.45 LIG 0.01  A 
ENDBRANCH 20 21
ENDBRANCH 16 20
ENDBRANCH 14 16
ENDBRANCH 10 12
ENDBRANCH 8 10
ENDBRANCH 5 6
BRANCH 5 27
ATOM     27  CB  ASP E   2      -1.501  -4.276  -8.981  1.00 43.54 LIG 0.15  C 
BRANCH 27 28
ATOM     28  CG  ASP E   2      -0.882  -2.892  -8.831  1.00 45.99 LIG 0.17  C 
ATOM     29 OD2  ASP E   2      -1.642  -1.897  -8.828  1.00 46.35 LIG-0.65  OA
ATOM     30 OD1  ASP E   2       0.359  -2.795  -8.705  1.00 46.97 LIG-0.65  OA
ENDBRANCH 27 28
ENDBRANCH 5 27
ENDBRANCH 3 5
BRANCH 1 31
ATOM     31  CA  LEU E   1       0.657  -6.636 -12.004  1.00 39.47 LIG 0.18  C 
BRANCH 31 32
ATOM     32  CB  LEU E   1       1.998  -7.355 -11.776  1.00 38.97 LIG 0.04  C 
BRANCH 32 33
ATOM     33  CG  LEU E   1       3.265  -6.625 -12.254  1.00 40.05 LIG-0.02  C 
ATOM     34  CD2 LEU E   1       4.082  -7.485 -13.214  1.00 40.58 LIG 0.01  C 
ATOM     35  CD1 LEU E   1       4.123  -6.176 -11.080  1.00 39.33 LIG 0.01  C 
ENDBRANCH 32 33
ENDBRANCH 31 32
BRANCH 31 36
ATOM     36  N   LEU E   1       0.637  -5.974 -13.308  1.00 38.97 LIG-0.35  N 
ATOM     37  C   GLN E   0       0.458  -6.653 -14.439  1.00 38.27 LIG 0.24  C 
ATOM     38 O    GLN E   0       0.312  -7.880 -14.480  1.00 40.12 LIG-0.27  OA
ATOM     39 H    LEU E   1       0.750  -5.122 -13.274  1.00 38.97 LIG 0.16  HD
BRANCH 37 40
ATOM     40  CA  GLN E   0       0.421  -5.820 -15.720  1.00 36.47 LIG 0.18  C 
BRANCH 40 41
ATOM     41  N   GLN E   0      -0.905  -5.159 -15.935  1.00 35.61 LIG-0.35  N 
ATOM     42  C   ACE E  -1      -1.321  -4.681 -17.113  1.00 35.56 LIG 0.21  C 
ATOM     43 O    ACE E  -1      -0.661  -4.716 -18.142  1.00 35.09 LIG-0.27  OA
ATOM     44  CH3 ACE E  -1      -2.618  -3.906 -17.081  1.00 35.40 LIG 0.12  C 
ATOM     45 H    GLN E   0      -1.382  -5.115 -15.221  1.00 35.61 LIG 0.16  HD
ENDBRANCH 40 41
BRANCH 40 46
ATOM     46  CB  GLN E   0       1.548  -4.778 -15.687  1.00 35.42 LIG 0.04  C 
BRANCH 46 47
ATOM     47  CG  GLN E   0       2.056  -4.374 -17.070  1.00 33.87 LIG 0.10  C 
BRANCH 47 48
ATOM     48  CD  GLN E   0       3.483  -3.858 -17.032  1.00 33.67 LIG 0.21  C 
ATOM     49 OE1  GLN E   0       4.330  -4.406 -16.330  1.00 31.67 LIG-0.27  OA
ATOM     50  NE2 GLN E   0       3.751  -2.791 -17.782  1.00 33.23 LIG-0.37  N 
ATOM     51 22HE GLN E   0       4.545  -2.458 -17.787  1.00 33.23 LIG 0.16  HD
ATOM     52 21HE GLN E   0       3.132  -2.435 -18.260  1.00 33.23 LIG 0.16  HD
ENDBRANCH 47 48
ENDBRANCH 46 47
ENDBRANCH 40 46
ENDBRANCH 37 40
ENDBRANCH 31 36
ENDBRANCH 1 31
TORSDOF 19
ENDMDL
MODEL 15
USER: ADFR SOLUTION from run 14
USER: SCORE 15.990322 LL:  -4.808 LR: -12.871 RR:   0.000 FEB:  -7.203
USER: RMSD 10.839615
USER: SEED 616835
USER: STATUS 1 or 2 clusters left
USER: GENES 21
USER: genes 0 Translation |==|  0.32206 0.46557 0.56962
USER: genes 1 Rotation |==|  0.48843 0.53227 0.00970 0.59182
USER: genes 2 Torsion [C]-N--CA-[CB] |==|  0.51253
USER: genes 3 Torsion [N]-CA--C-[N] |==|  0.32714
USER: genes 4 Torsion [C]-N--CA-[CB] |==|  0.15320
USER: genes 5 Torsion [N]-CA--C-[N] |==|  0.09607
USER: genes 6 Torsion [C]-N--CA-[CB] |==|  0.40597
USER: genes 7 Torsion [N]-CA--C-[O] |==|  0.27194
USER: genes 8 Torsion [N]-CA--CB-[CG] |==|  0.91794
USER: genes 9 Torsion [CA]-CB--CG-[CD1] |==|  0.31291
USER: genes 10 Torsion [N]-CA--CB-[CG] |==|  0.13363
USER: genes 11 Torsion [CA]-CB--CG-[OD2] |==|  0.86919
USER: genes 12 Torsion [N]-C--CA-[N] |==|  0.93953
USER: genes 13 Torsion [C]-CA--CB-[CG] |==|  0.00193
USER: genes 14 Torsion [CA]-CB--CG-[CD2] |==|  0.77158
USER: genes 15 Torsion [C]-CA--N-[C] |==|  0.79671
USER: genes 16 Torsion [N]-C--CA-[N] |==|  0.60556
USER: genes 17 Torsion [C]-CA--N-[C] |==|  0.66625
USER: genes 18 Torsion [C]-CA--CB-[CG] |==|  0.35868
USER: genes 19 Torsion [CA]-CB--CG-[CD] |==|  0.31319
USER: genes 20 Torsion [CB]-CG--CD-[OE1] |==|  0.82516
ROOT
ATOM      1  C   LEU E   1      -0.654  -7.541 -11.380  1.00 39.66 LIG 0.24  C 
ATOM      2 O    LEU E   1      -0.313  -8.171 -10.375  1.00 37.26 LIG-0.27  OA
ATOM      3  N   ASP E   2      -1.923  -7.436 -11.778  1.00 41.55 LIG-0.35  N 
ATOM      4 H    ASP E   2      -2.167  -6.997 -12.477  1.00 41.55 LIG 0.16  HD
ENDROOT
BRANCH 3 5
ATOM      5  CA  ASP E   2      -3.032  -8.066 -11.052  1.00 42.33 LIG 0.19  C 
BRANCH 5 6
ATOM      6  C   ASP E   2      -2.773  -9.552 -10.833  1.00 41.58 LIG 0.24  C 
ATOM      7 O    ASP E   2      -2.665 -10.320 -11.796  1.00 40.78 LIG-0.27  OA
ATOM      8  N   ALA E   3      -2.684  -9.947  -9.561  1.00 40.17 LIG-0.35  N 
ATOM      9 H    ALA E   3      -2.781  -9.413  -8.895  1.00 40.17 LIG 0.16  HD
BRANCH 8 10
ATOM     10  CA  ALA E   3      -2.413 -11.337  -9.171  1.00 38.52 LIG 0.17  C 
ATOM     11  CB  ALA E   3      -1.127 -11.827  -9.833  1.00 38.62 LIG 0.04  C 
BRANCH 10 12
ATOM     12  C   ALA E   3      -2.345 -11.542  -7.658  1.00 38.02 LIG 0.24  C 
ATOM     13 O    ALA E   3      -1.567 -12.363  -7.170  1.00 36.71 LIG-0.27  OA
ATOM     14  N   PHE E   4      -3.167 -10.786  -6.933  1.00 38.01 LIG-0.34  N 
ATOM     15 H    PHE E   4      -3.768 -10.279  -7.280  1.00 38.01 LIG 0.16  HD
BRANCH 14 16
ATOM     16  CA  PHE E   4      -3.131 -10.742  -5.473  1.00 38.29 LIG 0.19  C 
BRANCH 16 17
ATOM     17  C   PHE E   4      -4.116 -11.758  -4.902  1.00 39.00 LIG 0.20  C 
ATOM     18 OXT  PHE E   4      -5.319 -11.499  -4.827  1.00 39.22 LIG-0.65  OA
ATOM     19 O    PHE E   4      -3.734 -12.871  -4.526  1.00 39.04 LIG-0.65  OA
ENDBRANCH 16 17
BRANCH 16 20
ATOM     20  CB  PHE E   4      -3.491  -9.333  -4.968  1.00 37.57 LIG 0.07  C 
BRANCH 20 21
ATOM     21  CG  PHE E   4      -3.112  -8.231  -5.925  1.00 36.97 LIG-0.06  A 
ATOM     22  CD1 PHE E   4      -4.093  -7.476  -6.570  1.00 35.77 LIG 0.01  A 
ATOM     23  CE1 PHE E   4      -3.744  -6.473  -7.462  1.00 35.50 LIG 0.00  A 
ATOM     24  CZ  PHE E   4      -2.404  -6.214  -7.715  1.00 35.20 LIG 0.00  A 
ATOM     25  CE2 PHE E   4      -1.418  -6.961  -7.083  1.00 34.71 LIG 0.00  A 
ATOM     26  CD2 PHE E   4      -1.774  -7.961  -6.194  1.00 35.45 LIG 0.01  A 
ENDBRANCH 20 21
ENDBRANCH 16 20
ENDBRANCH 14 16
ENDBRANCH 10 12
ENDBRANCH 8 10
ENDBRANCH 5 6
BRANCH 5 27
ATOM     27  CB  ASP E   2      -4.358  -7.870 -11.797  1.00 43.54 LIG 0.15  C 
BRANCH 27 28
ATOM     28  CG  ASP E   2      -4.257  -8.208 -13.279  1.00 45.99 LIG 0.17  C 
ATOM     29 OD2  ASP E   2      -3.291  -7.750 -13.930  1.00 46.35 LIG-0.65  OA
ATOM     30 OD1  ASP E   2      -5.133  -8.939 -13.794  1.00 46.97 LIG-0.65  OA
ENDBRANCH 27 28
ENDBRANCH 5 27
ENDBRANCH 3 5
BRANCH 1 31
ATOM     31  CA  LEU E   1       0.389  -6.806 -12.233  1.00 39.47 LIG 0.18  C 
BRANCH 31 32
ATOM     32  CB  LEU E   1       0.866  -5.504 -11.565  1.00 38.97 LIG 0.04  C 
BRANCH 32 33
ATOM     33  CG  LEU E   1       0.258  -5.167 -10.193  1.00 40.05 LIG-0.02  C 
ATOM     34  CD2 LEU E   1      -1.107  -4.499 -10.331  1.00 40.58 LIG 0.01  C 
ATOM     35  CD1 LEU E   1       1.196  -4.296  -9.369  1.00 39.33 LIG 0.01  C 
ENDBRANCH 32 33
ENDBRANCH 31 32
BRANCH 31 36
ATOM     36  N   LEU E   1      -0.101  -6.546 -13.587  1.00 38.97 LIG-0.35  N 
ATOM     37  C   GLN E   0      -0.217  -7.516 -14.491  1.00 38.27 LIG 0.24  C 
ATOM     38 O    GLN E   0       0.088  -8.693 -14.269  1.00 40.12 LIG-0.27  OA
ATOM     39 H    LEU E   1      -0.302  -5.724 -13.739  1.00 38.97 LIG 0.16  HD
BRANCH 37 40
ATOM     40  CA  GLN E   0      -0.780  -7.100 -15.849  1.00 36.47 LIG 0.18  C 
BRANCH 40 41
ATOM     41  N   GLN E   0      -1.691  -8.134 -16.434  1.00 35.61 LIG-0.35  N 
ATOM     42  C   ACE E  -1      -1.481  -8.739 -17.608  1.00 35.56 LIG 0.21  C 
ATOM     43 O    ACE E  -1      -0.531  -8.507 -18.343  1.00 35.09 LIG-0.27  OA
ATOM     44  CH3 ACE E  -1      -2.603  -9.629 -18.093  1.00 35.40 LIG 0.12  C 
ATOM     45 H    GLN E   0      -2.372  -8.306 -15.938  1.00 35.61 LIG 0.16  HD
ENDBRANCH 40 41
BRANCH 40 46
ATOM     46  CB  GLN E   0      -1.504  -5.753 -15.713  1.00 35.42 LIG 0.04  C 
BRANCH 46 47
ATOM     47  CG  GLN E   0      -1.069  -4.710 -16.741  1.00 33.87 LIG 0.10  C 
BRANCH 47 48
ATOM     48  CD  GLN E   0      -2.174  -4.373 -17.725  1.00 33.67 LIG 0.21  C 
ATOM     49 OE1  GLN E   0      -2.626  -5.232 -18.481  1.00 31.67 LIG-0.27  OA
ATOM     50  NE2 GLN E   0      -2.607  -3.115 -17.727  1.00 33.23 LIG-0.37  N 
ATOM     51 22HE GLN E   0      -3.228  -2.874 -18.273  1.00 33.23 LIG 0.16  HD
ATOM     52 21HE GLN E   0      -2.266  -2.542 -17.184  1.00 33.23 LIG 0.16  HD
ENDBRANCH 47 48
ENDBRANCH 46 47
ENDBRANCH 40 46
ENDBRANCH 37 40
ENDBRANCH 31 36
ENDBRANCH 1 31
TORSDOF 19
ENDMDL
MODEL 16
USER: ADFR SOLUTION from run 46
USER: SCORE 15.545214 LL:  -4.073 LR: -12.851 RR:   0.000 FEB:  -7.183
USER: RMSD 10.942323
USER: SEED 45
USER: STATUS no improvement in best in 11 clusters for 5 generations
USER: GENES 21
USER: genes 0 Translation |==|  0.34332 0.47762 0.47621
USER: genes 1 Rotation |==|  0.54531 0.19699 0.89488 0.51416
USER: genes 2 Torsion [C]-N--CA-[CB] |==|  0.81246
USER: genes 3 Torsion [N]-CA--C-[N] |==|  0.50556
USER: genes 4 Torsion [C]-N--CA-[CB] |==|  0.84721
USER: genes 5 Torsion [N]-CA--C-[N] |==|  0.36113
USER: genes 6 Torsion [C]-N--CA-[CB] |==|  0.20585
USER: genes 7 Torsion [N]-CA--C-[O] |==|  0.14248
USER: genes 8 Torsion [N]-CA--CB-[CG] |==|  0.80266
USER: genes 9 Torsion [CA]-CB--CG-[CD1] |==|  0.30889
USER: genes 10 Torsion [N]-CA--CB-[CG] |==|  0.58828
USER: genes 11 Torsion [CA]-CB--CG-[OD2] |==|  0.47020
USER: genes 12 Torsion [N]-C--CA-[N] |==|  0.77912
USER: genes 13 Torsion [C]-CA--CB-[CG] |==|  0.18697
USER: genes 14 Torsion [CA]-CB--CG-[CD2] |==|  0.05912
USER: genes 15 Torsion [C]-CA--N-[C] |==|  0.63173
USER: genes 16 Torsion [N]-C--CA-[N] |==|  0.48091
USER: genes 17 Torsion [C]-CA--N-[C] |==|  0.74038
USER: genes 18 Torsion [C]-CA--CB-[CG] |==|  0.39298
USER: genes 19 Torsion [CA]-CB--CG-[CD] |==|  0.74106
USER: genes 20 Torsion [CB]-CG--CD-[OE1] |==|  0.98862
ROOT
ATOM      1  C   LEU E   1      -0.128  -7.351 -12.991  1.00 39.66 LIG 0.24  C 
ATOM      2 O    LEU E   1      -0.031  -8.550 -13.272  1.00 37.26 LIG-0.27  OA
ATOM      3  N   ASP E   2      -1.219  -6.819 -12.440  1.00 41.55 LIG-0.35  N 
ATOM      4 H    ASP E   2      -1.293  -5.985 -12.241  1.00 41.55 LIG 0.16  HD
ENDROOT
BRANCH 3 5
ATOM      5  CA  ASP E   2      -2.409  -7.615 -12.118  1.00 42.33 LIG 0.19  C 
BRANCH 5 6
ATOM      6  C   ASP E   2      -2.055  -8.795 -11.220  1.00 41.58 LIG 0.24  C 
ATOM      7 O    ASP E   2      -0.893  -8.965 -10.833  1.00 40.78 LIG-0.27  OA
ATOM      8  N   ALA E   3      -3.064  -9.609 -10.902  1.00 40.17 LIG-0.35  N 
ATOM      9 H    ALA E   3      -3.867  -9.498 -11.190  1.00 40.17 LIG 0.16  HD
BRANCH 8 10
ATOM     10  CA  ALA E   3      -2.906 -10.777 -10.026  1.00 38.52 LIG 0.17  C 
ATOM     11  CB  ALA E   3      -1.806 -11.691 -10.562  1.00 38.62 LIG 0.04  C 
BRANCH 10 12
ATOM     12  C   ALA E   3      -2.631 -10.411  -8.568  1.00 38.02 LIG 0.24  C 
ATOM     13 O    ALA E   3      -1.747  -9.603  -8.280  1.00 36.71 LIG-0.27  OA
ATOM     14  N   PHE E   4      -3.398 -11.015  -7.664  1.00 38.01 LIG-0.34  N 
ATOM     15 H    PHE E   4      -3.953 -11.641  -7.860  1.00 38.01 LIG 0.16  HD
BRANCH 14 16
ATOM     16  CA  PHE E   4      -3.375 -10.675  -6.242  1.00 38.29 LIG 0.19  C 
BRANCH 16 17
ATOM     17  C   PHE E   4      -4.069 -11.772  -5.439  1.00 39.00 LIG 0.20  C 
ATOM     18 OXT  PHE E   4      -4.976 -11.499  -4.649  1.00 39.22 LIG-0.65  OA
ATOM     19 O    PHE E   4      -3.755 -12.958  -5.581  1.00 39.04 LIG-0.65  OA
ENDBRANCH 16 17
BRANCH 16 20
ATOM     20  CB  PHE E   4      -4.084  -9.330  -5.999  1.00 37.57 LIG 0.07  C 
BRANCH 20 21
ATOM     21  CG  PHE E   4      -3.314  -8.139  -6.511  1.00 36.97 LIG-0.06  A 
ATOM     22  CD1 PHE E   4      -3.777  -7.402  -7.602  1.00 35.77 LIG 0.01  A 
ATOM     23  CE1 PHE E   4      -3.061  -6.317  -8.082  1.00 35.50 LIG 0.00  A 
ATOM     24  CZ  PHE E   4      -1.870  -5.954  -7.468  1.00 35.20 LIG 0.00  A 
ATOM     25  CE2 PHE E   4      -1.395  -6.680  -6.383  1.00 34.71 LIG 0.00  A 
ATOM     26  CD2 PHE E   4      -2.115  -7.764  -5.910  1.00 35.45 LIG 0.01  A 
ENDBRANCH 20 21
ENDBRANCH 16 20
ENDBRANCH 14 16
ENDBRANCH 10 12
ENDBRANCH 8 10
ENDBRANCH 5 6
BRANCH 5 27
ATOM     27  CB  ASP E   2      -3.095  -8.117 -13.395  1.00 43.54 LIG 0.15  C 
BRANCH 27 28
ATOM     28  CG  ASP E   2      -4.606  -8.242 -13.243  1.00 45.99 LIG 0.17  C 
ATOM     29 OD2  ASP E   2      -5.293  -8.445 -14.270  1.00 46.35 LIG-0.65  OA
ATOM     30 OD1  ASP E   2      -5.108  -8.150 -12.100  1.00 46.97 LIG-0.65  OA
ENDBRANCH 27 28
ENDBRANCH 5 27
ENDBRANCH 3 5
BRANCH 1 31
ATOM     31  CA  LEU E   1       1.043  -6.391 -13.246  1.00 39.47 LIG 0.18  C 
BRANCH 31 32
ATOM     32  CB  LEU E   1       1.316  -5.482 -12.035  1.00 38.97 LIG 0.04  C 
BRANCH 32 33
ATOM     33  CG  LEU E   1       1.848  -6.163 -10.763  1.00 40.05 LIG-0.02  C 
ATOM     34  CD2 LEU E   1       2.493  -7.511 -11.074  1.00 40.58 LIG 0.01  C 
ATOM     35  CD1 LEU E   1       0.751  -6.326  -9.720  1.00 39.33 LIG 0.01  C 
ENDBRANCH 32 33
ENDBRANCH 31 32
BRANCH 31 36
ATOM     36  N   LEU E   1       0.842  -5.597 -14.458  1.00 38.97 LIG-0.35  N 
ATOM     37  C   GLN E   0       1.800  -5.453 -15.371  1.00 38.27 LIG 0.24  C 
ATOM     38 O    GLN E   0       2.923  -5.958 -15.264  1.00 40.12 LIG-0.27  OA
ATOM     39 H    LEU E   1       0.062  -5.240 -14.522  1.00 38.97 LIG 0.16  HD
BRANCH 37 40
ATOM     40  CA  GLN E   0       1.429  -4.628 -16.603  1.00 36.47 LIG 0.18  C 
BRANCH 40 41
ATOM     41  N   GLN E   0       2.602  -4.377 -17.498  1.00 35.61 LIG-0.35  N 
ATOM     42  C   ACE E  -1       3.374  -3.286 -17.433  1.00 35.56 LIG 0.21  C 
ATOM     43 O    ACE E  -1       3.202  -2.367 -16.646  1.00 35.09 LIG-0.27  OA
ATOM     44  CH3 ACE E  -1       4.402  -3.148 -18.532  1.00 35.40 LIG 0.12  C 
ATOM     45 H    GLN E   0       2.736  -5.007 -18.067  1.00 35.61 LIG 0.16  HD
ENDBRANCH 40 41
BRANCH 40 46
ATOM     46  CB  GLN E   0       0.301  -5.330 -17.370  1.00 35.42 LIG 0.04  C 
BRANCH 46 47
ATOM     47  CG  GLN E   0      -0.740  -4.374 -17.951  1.00 33.87 LIG 0.10  C 
BRANCH 47 48
ATOM     48  CD  GLN E   0      -1.918  -4.168 -17.018  1.00 33.67 LIG 0.21  C 
ATOM     49 OE1  GLN E   0      -2.002  -4.795 -15.963  1.00 31.67 LIG-0.27  OA
ATOM     50  NE2 GLN E   0      -2.842  -3.292 -17.408  1.00 33.23 LIG-0.37  N 
ATOM     51 22HE GLN E   0      -3.532  -3.147 -16.915  1.00 33.23 LIG 0.16  HD
ATOM     52 21HE GLN E   0      -2.749  -2.872 -18.153  1.00 33.23 LIG 0.16  HD
ENDBRANCH 47 48
ENDBRANCH 46 47
ENDBRANCH 40 46
ENDBRANCH 37 40
ENDBRANCH 31 36
ENDBRANCH 1 31
TORSDOF 19
ENDMDL
MODEL 17
USER: ADFR SOLUTION from run 158
USER: SCORE 14.568960 LL:  -2.970 LR: -12.805 RR:   0.000 FEB:  -7.137
USER: RMSD 10.787186
USER: SEED 157
USER: STATUS no improvement in best in 7 clusters for 5 generations
USER: GENES 21
USER: genes 0 Translation |==|  0.64296 0.63065 0.50108
USER: genes 1 Rotation |==|  0.70111 0.05087 0.49412 0.58834
USER: genes 2 Torsion [C]-N--CA-[CB] |==|  0.49444
USER: genes 3 Torsion [N]-CA--C-[N] |==|  0.40868
USER: genes 4 Torsion [C]-N--CA-[CB] |==|  0.49540
USER: genes 5 Torsion [N]-CA--C-[N] |==|  0.49421
USER: genes 6 Torsion [C]-N--CA-[CB] |==|  0.88258
USER: genes 7 Torsion [N]-CA--C-[O] |==|  0.40402
USER: genes 8 Torsion [N]-CA--CB-[CG] |==|  0.56617
USER: genes 9 Torsion [CA]-CB--CG-[CD1] |==|  0.63512
USER: genes 10 Torsion [N]-CA--CB-[CG] |==|  0.90325
USER: genes 11 Torsion [CA]-CB--CG-[OD2] |==|  0.38291
USER: genes 12 Torsion [N]-C--CA-[N] |==|  0.39393
USER: genes 13 Torsion [C]-CA--CB-[CG] |==|  0.27063
USER: genes 14 Torsion [CA]-CB--CG-[CD2] |==|  0.50101
USER: genes 15 Torsion [C]-CA--N-[C] |==|  0.82189
USER: genes 16 Torsion [N]-C--CA-[N] |==|  0.95958
USER: genes 17 Torsion [C]-CA--N-[C] |==|  0.82169
USER: genes 18 Torsion [C]-CA--CB-[CG] |==|  0.83017
USER: genes 19 Torsion [CA]-CB--CG-[CD] |==|  0.38672
USER: genes 20 Torsion [CB]-CG--CD-[OE1] |==|  0.89328
ROOT
ATOM      1  C   LEU E   1       7.288  -4.941 -12.562  1.00 39.66 LIG 0.24  C 
ATOM      2 O    LEU E   1       6.564  -4.641 -13.516  1.00 37.26 LIG-0.27  OA
ATOM      3  N   ASP E   2       7.110  -6.042 -11.831  1.00 41.55 LIG-0.35  N 
ATOM      4 H    ASP E   2       7.612  -6.258 -11.166  1.00 41.55 LIG 0.16  HD
ENDROOT
BRANCH 3 5
ATOM      5  CA  ASP E   2       6.028  -6.998 -12.095  1.00 42.33 LIG 0.19  C 
BRANCH 5 6
ATOM      6  C   ASP E   2       4.663  -6.326 -11.994  1.00 41.58 LIG 0.24  C 
ATOM      7 O    ASP E   2       4.473  -5.408 -11.188  1.00 40.78 LIG-0.27  OA
ATOM      8  N   ALA E   3       3.719  -6.798 -12.810  1.00 40.17 LIG-0.35  N 
ATOM      9 H    ALA E   3       3.851  -7.450 -13.354  1.00 40.17 LIG 0.16  HD
BRANCH 8 10
ATOM     10  CA  ALA E   3       2.357  -6.250 -12.861  1.00 38.52 LIG 0.17  C 
ATOM     11  CB  ALA E   3       1.536  -6.980 -13.922  1.00 38.62 LIG 0.04  C 
BRANCH 10 12
ATOM     12  C   ALA E   3       1.637  -6.285 -11.514  1.00 38.02 LIG 0.24  C 
ATOM     13 O    ALA E   3       2.180  -6.775 -10.524  1.00 36.71 LIG-0.27  OA
ATOM     14  N   PHE E   4       0.413  -5.760 -11.497  1.00 38.01 LIG-0.34  N 
ATOM     15 H    PHE E   4       0.003  -5.499 -12.206  1.00 38.01 LIG 0.16  HD
BRANCH 14 16
ATOM     16  CA  PHE E   4      -0.358  -5.574 -10.270  1.00 38.29 LIG 0.19  C 
BRANCH 16 17
ATOM     17  C   PHE E   4       0.136  -4.332  -9.533  1.00 39.00 LIG 0.20  C 
ATOM     18 OXT  PHE E   4       1.323  -4.003  -9.576  1.00 39.22 LIG-0.65  OA
ATOM     19 O    PHE E   4      -0.647  -3.616  -8.900  1.00 39.04 LIG-0.65  OA
ENDBRANCH 16 17
BRANCH 16 20
ATOM     20  CB  PHE E   4      -0.221  -6.805  -9.356  1.00 37.57 LIG 0.07  C 
BRANCH 20 21
ATOM     21  CG  PHE E   4      -1.366  -6.972  -8.388  1.00 36.97 LIG-0.06  A 
ATOM     22  CD1 PHE E   4      -1.129  -7.205  -7.033  1.00 35.77 LIG 0.01  A 
ATOM     23  CE1 PHE E   4      -2.181  -7.375  -6.147  1.00 35.50 LIG 0.00  A 
ATOM     24  CZ  PHE E   4      -3.488  -7.307  -6.611  1.00 35.20 LIG 0.00  A 
ATOM     25  CE2 PHE E   4      -3.738  -7.079  -7.959  1.00 34.71 LIG 0.00  A 
ATOM     26  CD2 PHE E   4      -2.681  -6.913  -8.838  1.00 35.45 LIG 0.01  A 
ENDBRANCH 20 21
ENDBRANCH 16 20
ENDBRANCH 14 16
ENDBRANCH 10 12
ENDBRANCH 8 10
ENDBRANCH 5 6
BRANCH 5 27
ATOM     27  CB  ASP E   2       6.099  -8.188 -11.130  1.00 43.54 LIG 0.15  C 
BRANCH 27 28
ATOM     28  CG  ASP E   2       7.528  -8.576 -10.776  1.00 45.99 LIG 0.17  C 
ATOM     29 OD2  ASP E   2       7.789  -8.863  -9.585  1.00 46.35 LIG-0.65  OA
ATOM     30 OD1  ASP E   2       8.389  -8.607 -11.683  1.00 46.97 LIG-0.65  OA
ENDBRANCH 27 28
ENDBRANCH 5 27
ENDBRANCH 3 5
BRANCH 1 31
ATOM     31  CA  LEU E   1       8.479  -4.053 -12.175  1.00 39.47 LIG 0.18  C 
BRANCH 31 32
ATOM     32  CB  LEU E   1       8.073  -2.941 -11.191  1.00 38.97 LIG 0.04  C 
BRANCH 32 33
ATOM     33  CG  LEU E   1       8.333  -3.208  -9.699  1.00 40.05 LIG-0.02  C 
ATOM     34  CD2 LEU E   1       7.880  -2.037  -8.831  1.00 40.58 LIG 0.01  C 
ATOM     35  CD1 LEU E   1       9.798  -3.528  -9.439  1.00 39.33 LIG 0.01  C 
ENDBRANCH 32 33
ENDBRANCH 31 32
BRANCH 31 36
ATOM     36  N   LEU E   1       9.144  -3.490 -13.350  1.00 38.97 LIG-0.35  N 
ATOM     37  C   GLN E   0       9.757  -4.260 -14.247  1.00 38.27 LIG 0.24  C 
ATOM     38 O    GLN E   0       9.826  -5.490 -14.154  1.00 40.12 LIG-0.27  OA
ATOM     39 H    LEU E   1       9.101  -2.633 -13.404  1.00 38.97 LIG 0.16  HD
BRANCH 37 40
ATOM     40  CA  GLN E   0      10.371  -3.532 -15.442  1.00 36.47 LIG 0.18  C 
BRANCH 40 41
ATOM     41  N   GLN E   0       9.879  -2.124 -15.570  1.00 35.61 LIG-0.35  N 
ATOM     42  C   ACE E  -1       8.607  -1.795 -15.820  1.00 35.56 LIG 0.21  C 
ATOM     43 O    ACE E  -1       7.706  -2.605 -15.986  1.00 35.09 LIG-0.27  OA
ATOM     44  CH3 ACE E  -1       8.351  -0.327 -16.076  1.00 35.40 LIG 0.12  C 
ATOM     45 H    GLN E   0      10.499  -1.537 -15.467  1.00 35.61 LIG 0.16  HD
ENDBRANCH 40 41
BRANCH 40 46
ATOM     46  CB  GLN E   0      11.902  -3.565 -15.332  1.00 35.42 LIG 0.04  C 
BRANCH 46 47
ATOM     47  CG  GLN E   0      12.446  -2.874 -14.083  1.00 33.87 LIG 0.10  C 
BRANCH 47 48
ATOM     48  CD  GLN E   0      13.593  -3.643 -13.452  1.00 33.67 LIG 0.21  C 
ATOM     49 OE1  GLN E   0      13.578  -4.872 -13.412  1.00 31.67 LIG-0.27  OA
ATOM     50  NE2 GLN E   0      14.590  -2.919 -12.947  1.00 33.23 LIG-0.37  N 
ATOM     51 22HE GLN E   0      15.258  -3.310 -12.572  1.00 33.23 LIG 0.16  HD
ATOM     52 21HE GLN E   0      14.564  -2.060 -12.994  1.00 33.23 LIG 0.16  HD
ENDBRANCH 47 48
ENDBRANCH 46 47
ENDBRANCH 40 46
ENDBRANCH 37 40
ENDBRANCH 31 36
ENDBRANCH 1 31
TORSDOF 19
ENDMDL
MODEL 18
USER: ADFR SOLUTION from run 78
USER: SCORE 16.499844 LL:  -4.335 LR: -12.720 RR:   0.000 FEB:  -7.052
USER: RMSD 10.858209
USER: SEED 77
USER: STATUS searching
USER: GENES 21
USER: genes 0 Translation |==|  0.31394 0.49415 0.62185
USER: genes 1 Rotation |==|  0.68436 0.45519 0.08606 0.70653
USER: genes 2 Torsion [C]-N--CA-[CB] |==|  0.54500
USER: genes 3 Torsion [N]-CA--C-[N] |==|  0.41688
USER: genes 4 Torsion [C]-N--CA-[CB] |==|  0.85554
USER: genes 5 Torsion [N]-CA--C-[N] |==|  0.32817
USER: genes 6 Torsion [C]-N--CA-[CB] |==|  0.23738
USER: genes 7 Torsion [N]-CA--C-[O] |==|  0.76710
USER: genes 8 Torsion [N]-CA--CB-[CG] |==|  0.78034
USER: genes 9 Torsion [CA]-CB--CG-[CD1] |==|  0.87846
USER: genes 10 Torsion [N]-CA--CB-[CG] |==|  0.79385
USER: genes 11 Torsion [CA]-CB--CG-[OD2] |==|  0.25221
USER: genes 12 Torsion [N]-C--CA-[N] |==|  0.91822
USER: genes 13 Torsion [C]-CA--CB-[CG] |==|  0.30322
USER: genes 14 Torsion [CA]-CB--CG-[CD2] |==|  0.52915
USER: genes 15 Torsion [C]-CA--N-[C] |==|  0.79768
USER: genes 16 Torsion [N]-C--CA-[N] |==|  0.41635
USER: genes 17 Torsion [C]-CA--N-[C] |==|  0.83032
USER: genes 18 Torsion [C]-CA--CB-[CG] |==|  0.39134
USER: genes 19 Torsion [CA]-CB--CG-[CD] |==|  0.90407
USER: genes 20 Torsion [CB]-CG--CD-[OE1] |==|  0.35347
ROOT
ATOM      1  C   LEU E   1      -0.855  -7.091 -10.479  1.00 39.66 LIG 0.24  C 
ATOM      2 O    LEU E   1      -1.227  -7.577  -9.407  1.00 37.26 LIG-0.27  OA
ATOM      3  N   ASP E   2      -1.263  -7.546 -11.665  1.00 41.55 LIG-0.35  N 
ATOM      4 H    ASP E   2      -1.008  -7.211 -12.415  1.00 41.55 LIG 0.16  HD
ENDROOT
BRANCH 3 5
ATOM      5  CA  ASP E   2      -2.193  -8.672 -11.800  1.00 42.33 LIG 0.19  C 
BRANCH 5 6
ATOM      6  C   ASP E   2      -1.865  -9.780 -10.804  1.00 41.58 LIG 0.24  C 
ATOM      7 O    ASP E   2      -0.701  -9.966 -10.433  1.00 40.78 LIG-0.27  OA
ATOM      8  N   ALA E   3      -2.899 -10.514 -10.388  1.00 40.17 LIG-0.35  N 
ATOM      9 H    ALA E   3      -3.704 -10.394 -10.665  1.00 40.17 LIG 0.16  HD
BRANCH 8 10
ATOM     10  CA  ALA E   3      -2.766 -11.603  -9.411  1.00 38.52 LIG 0.17  C 
ATOM     11  CB  ALA E   3      -1.670 -12.572  -9.850  1.00 38.62 LIG 0.04  C 
BRANCH 10 12
ATOM     12  C   ALA E   3      -2.505 -11.114  -7.987  1.00 38.02 LIG 0.24  C 
ATOM     13 O    ALA E   3      -1.489 -10.470  -7.720  1.00 36.71 LIG-0.27  OA
ATOM     14  N   PHE E   4      -3.432 -11.430  -7.086  1.00 38.01 LIG-0.34  N 
ATOM     15 H    PHE E   4      -4.094 -11.953  -7.255  1.00 38.01 LIG 0.16  HD
BRANCH 14 16
ATOM     16  CA  PHE E   4      -3.421 -10.921  -5.716  1.00 38.29 LIG 0.19  C 
BRANCH 16 17
ATOM     17  C   PHE E   4      -4.144 -11.901  -4.796  1.00 39.00 LIG 0.20  C 
ATOM     18 OXT  PHE E   4      -3.514 -12.723  -4.128  1.00 39.22 LIG-0.65  OA
ATOM     19 O    PHE E   4      -5.374 -11.874  -4.681  1.00 39.04 LIG-0.65  OA
ENDBRANCH 16 17
BRANCH 16 20
ATOM     20  CB  PHE E   4      -4.108  -9.545  -5.648  1.00 37.57 LIG 0.07  C 
BRANCH 20 21
ATOM     21  CG  PHE E   4      -3.233  -8.408  -6.113  1.00 36.97 LIG-0.06  A 
ATOM     22  CD1 PHE E   4      -1.897  -8.326  -5.720  1.00 35.77 LIG 0.01  A 
ATOM     23  CE1 PHE E   4      -1.099  -7.271  -6.135  1.00 35.50 LIG 0.00  A 
ATOM     24  CZ  PHE E   4      -1.632  -6.287  -6.956  1.00 35.20 LIG 0.00  A 
ATOM     25  CE2 PHE E   4      -2.961  -6.355  -7.352  1.00 34.71 LIG 0.00  A 
ATOM     26  CD2 PHE E   4      -3.753  -7.410  -6.932  1.00 35.45 LIG 0.01  A 
ENDBRANCH 20 21
ENDBRANCH 16 20
ENDBRANCH 14 16
ENDBRANCH 10 12
ENDBRANCH 8 10
ENDBRANCH 5 6
BRANCH 5 27
ATOM     27  CB  ASP E   2      -2.176  -9.231 -13.228  1.00 43.54 LIG 0.15  C 
BRANCH 27 28
ATOM     28  CG  ASP E   2      -2.895  -8.329 -14.223  1.00 45.99 LIG 0.17  C 
ATOM     29 OD2  ASP E   2      -2.230  -7.453 -14.820  1.00 46.35 LIG-0.65  OA
ATOM     30 OD1  ASP E   2      -4.119  -8.499 -14.419  1.00 46.97 LIG-0.65  OA
ENDBRANCH 27 28
ENDBRANCH 5 27
ENDBRANCH 3 5
BRANCH 1 31
ATOM     31  CA  LEU E   1       0.101  -5.891 -10.504  1.00 39.47 LIG 0.18  C 
BRANCH 31 32
ATOM     32  CB  LEU E   1      -0.644  -4.556 -10.331  1.00 38.97 LIG 0.04  C 
BRANCH 32 33
ATOM     33  CG  LEU E   1      -0.446  -3.820  -8.995  1.00 40.05 LIG-0.02  C 
ATOM     34  CD2 LEU E   1      -1.424  -2.658  -8.841  1.00 40.58 LIG 0.01  C 
ATOM     35  CD1 LEU E   1       0.988  -3.334  -8.836  1.00 39.33 LIG 0.01  C 
ENDBRANCH 32 33
ENDBRANCH 31 32
BRANCH 31 36
ATOM     36  N   LEU E   1       0.923  -5.874 -11.715  1.00 38.97 LIG-0.35  N 
ATOM     37  C   GLN E   0       1.922  -6.734 -11.899  1.00 38.27 LIG 0.24  C 
ATOM     38 O    GLN E   0       2.241  -7.593 -11.070  1.00 40.12 LIG-0.27  OA
ATOM     39 H    LEU E   1       0.702  -5.267 -12.283  1.00 38.97 LIG 0.16  HD
BRANCH 37 40
ATOM     40  CA  GLN E   0       2.663  -6.621 -13.230  1.00 36.47 LIG 0.18  C 
BRANCH 40 41
ATOM     41  N   GLN E   0       4.100  -7.029 -13.122  1.00 35.61 LIG-0.35  N 
ATOM     42  C   ACE E  -1       4.993  -6.422 -12.334  1.00 35.56 LIG 0.21  C 
ATOM     43 O    ACE E  -1       4.743  -5.459 -11.623  1.00 35.09 LIG-0.27  OA
ATOM     44  CH3 ACE E  -1       6.424  -6.881 -12.496  1.00 35.40 LIG 0.12  C 
ATOM     45 H    GLN E   0       4.300  -7.699 -13.622  1.00 35.61 LIG 0.16  HD
ENDBRANCH 40 41
BRANCH 40 46
ATOM     46  CB  GLN E   0       1.939  -7.457 -14.294  1.00 35.42 LIG 0.04  C 
BRANCH 46 47
ATOM     47  CG  GLN E   0       1.895  -6.800 -15.673  1.00 33.87 LIG 0.10  C 
BRANCH 47 48
ATOM     48  CD  GLN E   0       1.773  -5.289 -15.588  1.00 33.67 LIG 0.21  C 
ATOM     49 OE1  GLN E   0       2.563  -4.561 -16.186  1.00 31.67 LIG-0.27  OA
ATOM     50  NE2 GLN E   0       0.787  -4.812 -14.832  1.00 33.23 LIG-0.37  N 
ATOM     51 22HE GLN E   0       0.683  -3.962 -14.748  1.00 33.23 LIG 0.16  HD
ATOM     52 21HE GLN E   0       0.254  -5.353 -14.428  1.00 33.23 LIG 0.16  HD
ENDBRANCH 47 48
ENDBRANCH 46 47
ENDBRANCH 40 46
ENDBRANCH 37 40
ENDBRANCH 31 36
ENDBRANCH 1 31
TORSDOF 19
ENDMDL
MODEL 19
USER: ADFR SOLUTION from run 146
USER: SCORE 14.708001 LL:  -3.899 LR: -12.636 RR:   0.000 FEB:  -6.968
USER: RMSD 4.084893
USER: SEED 145
USER: STATUS no improvement in best in 19 clusters for 5 generations
USER: GENES 21
USER: genes 0 Translation |==|  0.50123 0.52750 0.59655
USER: genes 1 Rotation |==|  0.18641 0.60475 0.33236 0.83554
USER: genes 2 Torsion [C]-N--CA-[CB] |==|  0.51210
USER: genes 3 Torsion [N]-CA--C-[N] |==|  0.35938
USER: genes 4 Torsion [C]-N--CA-[CB] |==|  0.21554
USER: genes 5 Torsion [N]-CA--C-[N] |==|  0.99138
USER: genes 6 Torsion [C]-N--CA-[CB] |==|  0.32967
USER: genes 7 Torsion [N]-CA--C-[O] |==|  0.62288
USER: genes 8 Torsion [N]-CA--CB-[CG] |==|  0.92252
USER: genes 9 Torsion [CA]-CB--CG-[CD1] |==|  0.36664
USER: genes 10 Torsion [N]-CA--CB-[CG] |==|  0.60536
USER: genes 11 Torsion [CA]-CB--CG-[OD2] |==|  0.37037
USER: genes 12 Torsion [N]-C--CA-[N] |==|  0.97004
USER: genes 13 Torsion [C]-CA--CB-[CG] |==|  0.58101
USER: genes 14 Torsion [CA]-CB--CG-[CD2] |==|  0.85091
USER: genes 15 Torsion [C]-CA--N-[C] |==|  0.73382
USER: genes 16 Torsion [N]-C--CA-[N] |==|  0.97880
USER: genes 17 Torsion [C]-CA--N-[C] |==|  0.20826
USER: genes 18 Torsion [C]-CA--CB-[CG] |==|  0.12976
USER: genes 19 Torsion [CA]-CB--CG-[CD] |==|  0.66576
USER: genes 20 Torsion [CB]-CG--CD-[OE1] |==|  0.75311
ROOT
ATOM      1  C   LEU E   1       3.780  -6.566 -10.916  1.00 39.66 LIG 0.24  C 
ATOM      2 O    LEU E   1       4.608  -5.757 -11.345  1.00 37.26 LIG-0.27  OA
ATOM      3  N   ASP E   2       4.121  -7.716 -10.331  1.00 41.55 LIG-0.35  N 
ATOM      4 H    ASP E   2       3.549  -8.282 -10.028  1.00 41.55 LIG 0.16  HD
ENDROOT
BRANCH 3 5
ATOM      5  CA  ASP E   2       5.518  -8.124 -10.150  1.00 42.33 LIG 0.19  C 
BRANCH 5 6
ATOM      6  C   ASP E   2       6.283  -8.073 -11.468  1.00 41.58 LIG 0.24  C 
ATOM      7 O    ASP E   2       5.834  -8.630 -12.476  1.00 40.78 LIG-0.27  OA
ATOM      8  N   ALA E   3       7.440  -7.409 -11.445  1.00 40.17 LIG-0.35  N 
ATOM      9 H    ALA E   3       7.758  -7.041 -10.736  1.00 40.17 LIG 0.16  HD
BRANCH 8 10
ATOM     10  CA  ALA E   3       8.291  -7.240 -12.631  1.00 38.52 LIG 0.17  C 
ATOM     11  CB  ALA E   3       7.718  -6.153 -13.538  1.00 38.62 LIG 0.04  C 
BRANCH 10 12
ATOM     12  C   ALA E   3       9.751  -6.939 -12.294  1.00 38.02 LIG 0.24  C 
ATOM     13 O    ALA E   3      10.591  -6.828 -13.188  1.00 36.71 LIG-0.27  OA
ATOM     14  N   PHE E   4      10.032  -6.808 -11.000  1.00 38.01 LIG-0.34  N 
ATOM     15 H    PHE E   4       9.464  -6.971 -10.376  1.00 38.01 LIG 0.16  HD
BRANCH 14 16
ATOM     16  CA  PHE E   4      11.338  -6.374 -10.507  1.00 38.29 LIG 0.19  C 
BRANCH 16 17
ATOM     17  C   PHE E   4      11.937  -7.456  -9.613  1.00 39.00 LIG 0.20  C 
ATOM     18 OXT  PHE E   4      11.920  -8.641  -9.956  1.00 39.22 LIG-0.65  OA
ATOM     19 O    PHE E   4      12.476  -7.167  -8.539  1.00 39.04 LIG-0.65  OA
ENDBRANCH 16 17
BRANCH 16 20
ATOM     20  CB  PHE E   4      11.204  -5.063  -9.711  1.00 37.57 LIG 0.07  C 
BRANCH 20 21
ATOM     21  CG  PHE E   4      10.040  -4.208 -10.144  1.00 36.97 LIG-0.06  A 
ATOM     22  CD1 PHE E   4       9.160  -3.668  -9.205  1.00 35.77 LIG 0.01  A 
ATOM     23  CE1 PHE E   4       8.082  -2.895  -9.605  1.00 35.50 LIG 0.00  A 
ATOM     24  CZ  PHE E   4       7.875  -2.649 -10.956  1.00 35.20 LIG 0.00  A 
ATOM     25  CE2 PHE E   4       8.741  -3.183 -11.902  1.00 34.71 LIG 0.00  A 
ATOM     26  CD2 PHE E   4       9.816  -3.956 -11.495  1.00 35.45 LIG 0.01  A 
ENDBRANCH 20 21
ENDBRANCH 16 20
ENDBRANCH 14 16
ENDBRANCH 10 12
ENDBRANCH 8 10
ENDBRANCH 5 6
BRANCH 5 27
ATOM     27  CB  ASP E   2       5.605  -9.533  -9.549  1.00 43.54 LIG 0.15  C 
BRANCH 27 28
ATOM     28  CG  ASP E   2       6.740  -9.677  -8.543  1.00 45.99 LIG 0.17  C 
ATOM     29 OD2  ASP E   2       6.499 -10.235  -7.449  1.00 46.35 LIG-0.65  OA
ATOM     30 OD1  ASP E   2       7.875  -9.244  -8.846  1.00 46.97 LIG-0.65  OA
ENDBRANCH 27 28
ENDBRANCH 5 27
ENDBRANCH 3 5
BRANCH 1 31
ATOM     31  CA  LEU E   1       2.277  -6.271 -11.010  1.00 39.47 LIG 0.18  C 
BRANCH 31 32
ATOM     32  CB  LEU E   1       1.874  -5.052 -10.161  1.00 38.97 LIG 0.04  C 
BRANCH 32 33
ATOM     33  CG  LEU E   1       0.441  -5.040  -9.603  1.00 40.05 LIG-0.02  C 
ATOM     34  CD2 LEU E   1      -0.595  -5.242 -10.706  1.00 40.58 LIG 0.01  C 
ATOM     35  CD1 LEU E   1       0.155  -3.759  -8.833  1.00 39.33 LIG 0.01  C 
ENDBRANCH 32 33
ENDBRANCH 31 32
BRANCH 31 36
ATOM     36  N   LEU E   1       1.469  -7.439 -10.658  1.00 38.97 LIG-0.35  N 
ATOM     37  C   GLN E   0       0.989  -8.267 -11.583  1.00 38.27 LIG 0.24  C 
ATOM     38 O    GLN E   0       1.170  -8.110 -12.796  1.00 40.12 LIG-0.27  OA
ATOM     39 H    LEU E   1       1.338  -7.537  -9.813  1.00 38.97 LIG 0.16  HD
BRANCH 37 40
ATOM     40  CA  GLN E   0       0.198  -9.465 -11.061  1.00 36.47 LIG 0.18  C 
BRANCH 40 41
ATOM     41  N   GLN E   0       0.261  -9.588  -9.570  1.00 35.61 LIG-0.35  N 
ATOM     42  C   ACE E  -1      -0.414  -8.801  -8.725  1.00 35.56 LIG 0.21  C 
ATOM     43 O    ACE E  -1      -1.146  -7.885  -9.072  1.00 35.09 LIG-0.27  OA
ATOM     44  CH3 ACE E  -1      -0.083  -8.981  -7.261  1.00 35.40 LIG 0.12  C 
ATOM     45 H    GLN E   0       0.779 -10.220  -9.303  1.00 35.61 LIG 0.16  HD
ENDBRANCH 40 41
BRANCH 40 46
ATOM     46  CB  GLN E   0      -1.258  -9.366 -11.537  1.00 35.42 LIG 0.04  C 
BRANCH 46 47
ATOM     47  CG  GLN E   0      -1.402  -9.030 -13.021  1.00 33.87 LIG 0.10  C 
BRANCH 47 48
ATOM     48  CD  GLN E   0      -2.168  -7.740 -13.249  1.00 33.67 LIG 0.21  C 
ATOM     49 OE1  GLN E   0      -3.393  -7.749 -13.358  1.00 31.67 LIG-0.27  OA
ATOM     50  NE2 GLN E   0      -1.447  -6.624 -13.332  1.00 33.23 LIG-0.37  N 
ATOM     51 22HE GLN E   0      -1.837  -5.869 -13.468  1.00 33.23 LIG 0.16  HD
ATOM     52 21HE GLN E   0      -0.591  -6.658 -13.251  1.00 33.23 LIG 0.16  HD
ENDBRANCH 47 48
ENDBRANCH 46 47
ENDBRANCH 40 46
ENDBRANCH 37 40
ENDBRANCH 31 36
ENDBRANCH 1 31
TORSDOF 19
ENDMDL
MODEL 20
USER: ADFR SOLUTION from run 79
USER: SCORE 14.370455 LL:  -3.519 LR: -12.559 RR:   0.000 FEB:  -6.891
USER: RMSD 4.325088
USER: SEED 78
USER: STATUS no improvement in best in 12 clusters for 5 generations
USER: GENES 21
USER: genes 0 Translation |==|  0.50396 0.54164 0.57194
USER: genes 1 Rotation |==|  0.18316 0.61100 0.30219 0.81332
USER: genes 2 Torsion [C]-N--CA-[CB] |==|  0.53944
USER: genes 3 Torsion [N]-CA--C-[N] |==|  0.35605
USER: genes 4 Torsion [C]-N--CA-[CB] |==|  0.20556
USER: genes 5 Torsion [N]-CA--C-[N] |==|  0.97489
USER: genes 6 Torsion [C]-N--CA-[CB] |==|  0.34140
USER: genes 7 Torsion [N]-CA--C-[O] |==|  0.19593
USER: genes 8 Torsion [N]-CA--CB-[CG] |==|  0.93191
USER: genes 9 Torsion [CA]-CB--CG-[CD1] |==|  0.87025
USER: genes 10 Torsion [N]-CA--CB-[CG] |==|  0.58568
USER: genes 11 Torsion [CA]-CB--CG-[OD2] |==|  0.92684
USER: genes 12 Torsion [N]-C--CA-[N] |==|  0.80879
USER: genes 13 Torsion [C]-CA--CB-[CG] |==|  0.40755
USER: genes 14 Torsion [CA]-CB--CG-[CD2] |==|  0.64537
USER: genes 15 Torsion [C]-CA--N-[C] |==|  0.66639
USER: genes 16 Torsion [N]-C--CA-[N] |==|  0.08964
USER: genes 17 Torsion [C]-CA--N-[C] |==|  0.17194
USER: genes 18 Torsion [C]-CA--CB-[CG] |==|  0.26313
USER: genes 19 Torsion [CA]-CB--CG-[CD] |==|  0.63009
USER: genes 20 Torsion [CB]-CG--CD-[OE1] |==|  0.93605
ROOT
ATOM      1  C   LEU E   1       3.848  -6.343 -11.340  1.00 39.66 LIG 0.24  C 
ATOM      2 O    LEU E   1       4.783  -5.680 -11.798  1.00 37.26 LIG-0.27  OA
ATOM      3  N   ASP E   2       4.024  -7.473 -10.653  1.00 41.55 LIG-0.35  N 
ATOM      4 H    ASP E   2       3.377  -7.939 -10.330  1.00 41.55 LIG 0.16  HD
ENDROOT
BRANCH 3 5
ATOM      5  CA  ASP E   2       5.353  -8.032 -10.383  1.00 42.33 LIG 0.19  C 
BRANCH 5 6
ATOM      6  C   ASP E   2       6.243  -7.961 -11.620  1.00 41.58 LIG 0.24  C 
ATOM      7 O    ASP E   2       5.852  -8.414 -12.702  1.00 40.78 LIG-0.27  OA
ATOM      8  N   ALA E   3       7.440  -7.398 -11.445  1.00 40.17 LIG-0.35  N 
ATOM      9 H    ALA E   3       7.715  -7.103 -10.686  1.00 40.17 LIG 0.16  HD
BRANCH 8 10
ATOM     10  CA  ALA E   3       8.410  -7.225 -12.534  1.00 38.52 LIG 0.17  C 
ATOM     11  CB  ALA E   3       7.966  -6.096 -13.461  1.00 38.62 LIG 0.04  C 
BRANCH 10 12
ATOM     12  C   ALA E   3       9.837  -6.980 -12.044  1.00 38.02 LIG 0.24  C 
ATOM     13 O    ALA E   3      10.782  -6.982 -12.834  1.00 36.71 LIG-0.27  OA
ATOM     14  N   PHE E   4       9.973  -6.772 -10.736  1.00 38.01 LIG-0.34  N 
ATOM     15 H    PHE E   4       9.326  -6.857 -10.176  1.00 38.01 LIG 0.16  HD
BRANCH 14 16
ATOM     16  CA  PHE E   4      11.237  -6.375 -10.118  1.00 38.29 LIG 0.19  C 
BRANCH 16 17
ATOM     17  C   PHE E   4      11.711  -7.469  -9.166  1.00 39.00 LIG 0.20  C 
ATOM     18 OXT  PHE E   4      11.667  -7.307  -7.945  1.00 39.22 LIG-0.65  OA
ATOM     19 O    PHE E   4      12.125  -8.551  -9.597  1.00 39.04 LIG-0.65  OA
ENDBRANCH 16 17
BRANCH 16 20
ATOM     20  CB  PHE E   4      11.067  -5.055  -9.344  1.00 37.57 LIG 0.07  C 
BRANCH 20 21
ATOM     21  CG  PHE E   4       9.926  -4.204  -9.842  1.00 36.97 LIG-0.06  A 
ATOM     22  CD1 PHE E   4       9.752  -3.968 -11.206  1.00 35.77 LIG 0.01  A 
ATOM     23  CE1 PHE E   4       8.713  -3.172 -11.662  1.00 35.50 LIG 0.00  A 
ATOM     24  CZ  PHE E   4       7.831  -2.605 -10.752  1.00 35.20 LIG 0.00  A 
ATOM     25  CE2 PHE E   4       7.995  -2.828  -9.391  1.00 34.71 LIG 0.00  A 
ATOM     26  CD2 PHE E   4       9.036  -3.624  -8.943  1.00 35.45 LIG 0.01  A 
ENDBRANCH 20 21
ENDBRANCH 16 20
ENDBRANCH 14 16
ENDBRANCH 10 12
ENDBRANCH 8 10
ENDBRANCH 5 6
BRANCH 5 27
ATOM     27  CB  ASP E   2       5.250  -9.483  -9.896  1.00 43.54 LIG 0.15  C 
BRANCH 27 28
ATOM     28  CG  ASP E   2       6.371  -9.865  -8.937  1.00 45.99 LIG 0.17  C 
ATOM     29 OD2  ASP E   2       7.459  -9.251  -9.019  1.00 46.35 LIG-0.65  OA
ATOM     30 OD1  ASP E   2       6.165 -10.767  -8.095  1.00 46.97 LIG-0.65  OA
ENDBRANCH 27 28
ENDBRANCH 5 27
ENDBRANCH 3 5
BRANCH 1 31
ATOM     31  CA  LEU E   1       2.397  -5.876 -11.519  1.00 39.47 LIG 0.18  C 
BRANCH 31 32
ATOM     32  CB  LEU E   1       1.675  -5.707 -10.170  1.00 38.97 LIG 0.04  C 
BRANCH 32 33
ATOM     33  CG  LEU E   1       0.625  -4.586 -10.083  1.00 40.05 LIG-0.02  C 
ATOM     34  CD2 LEU E   1       0.878  -3.669  -8.890  1.00 40.58 LIG 0.01  C 
ATOM     35  CD1 LEU E   1      -0.787  -5.152 -10.029  1.00 39.33 LIG 0.01  C 
ENDBRANCH 32 33
ENDBRANCH 31 32
BRANCH 31 36
ATOM     36  N   LEU E   1       1.643  -6.765 -12.403  1.00 38.97 LIG-0.35  N 
ATOM     37  C   GLN E   0       1.089  -6.329 -13.533  1.00 38.27 LIG 0.24  C 
ATOM     38 O    GLN E   0       1.152  -5.155 -13.912  1.00 40.12 LIG-0.27  OA
ATOM     39 H    LEU E   1       1.595  -7.579 -12.129  1.00 38.97 LIG 0.16  HD
BRANCH 37 40
ATOM     40  CA  GLN E   0       0.369  -7.383 -14.373  1.00 36.47 LIG 0.18  C 
BRANCH 40 41
ATOM     41  N   GLN E   0      -0.256  -8.455 -13.534  1.00 35.61 LIG-0.35  N 
ATOM     42  C   ACE E  -1      -1.217  -8.234 -12.631  1.00 35.56 LIG 0.21  C 
ATOM     43 O    ACE E  -1      -1.684  -7.132 -12.377  1.00 35.09 LIG-0.27  OA
ATOM     44  CH3 ACE E  -1      -1.594  -9.421 -11.775  1.00 35.40 LIG 0.12  C 
ATOM     45 H    GLN E   0       0.064  -9.237 -13.689  1.00 35.61 LIG 0.16  HD
ENDBRANCH 40 41
BRANCH 40 46
ATOM     46  CB  GLN E   0      -0.684  -6.702 -15.258  1.00 35.42 LIG 0.04  C 
BRANCH 46 47
ATOM     47  CG  GLN E   0      -0.190  -6.375 -16.666  1.00 33.87 LIG 0.10  C 
BRANCH 47 48
ATOM     48  CD  GLN E   0      -0.541  -4.960 -17.086  1.00 33.67 LIG 0.21  C 
ATOM     49 OE1  GLN E   0      -1.477  -4.362 -16.558  1.00 31.67 LIG-0.27  OA
ATOM     50  NE2 GLN E   0       0.204  -4.421 -18.049  1.00 33.23 LIG-0.37  N 
ATOM     51 22HE GLN E   0       0.038  -3.624 -18.326  1.00 33.23 LIG 0.16  HD
ATOM     52 21HE GLN E   0       0.850  -4.871 -18.395  1.00 33.23 LIG 0.16  HD
ENDBRANCH 47 48
ENDBRANCH 46 47
ENDBRANCH 40 46
ENDBRANCH 37 40
ENDBRANCH 31 36
ENDBRANCH 1 31
TORSDOF 19
ENDMDL
MODEL 21
USER: ADFR SOLUTION from run 196
USER: SCORE 15.512311 LL:  -3.835 LR: -12.556 RR:   0.000 FEB:  -6.888
USER: RMSD 9.970899
USER: SEED 195
USER: STATUS no improvement in best in 10 clusters for 5 generations
USER: GENES 21
USER: genes 0 Translation |==|  0.34102 0.46323 0.45547
USER: genes 1 Rotation |==|  0.55154 0.73494 0.06544 0.55752
USER: genes 2 Torsion [C]-N--CA-[CB] |==|  0.85291
USER: genes 3 Torsion [N]-CA--C-[N] |==|  0.35010
USER: genes 4 Torsion [C]-N--CA-[CB] |==|  0.73829
USER: genes 5 Torsion [N]-CA--C-[N] |==|  0.15980
USER: genes 6 Torsion [C]-N--CA-[CB] |==|  0.35463
USER: genes 7 Torsion [N]-CA--C-[O] |==|  0.00728
USER: genes 8 Torsion [N]-CA--CB-[CG] |==|  0.23391
USER: genes 9 Torsion [CA]-CB--CG-[CD1] |==|  0.39280
USER: genes 10 Torsion [N]-CA--CB-[CG] |==|  0.89098
USER: genes 11 Torsion [CA]-CB--CG-[OD2] |==|  0.92000
USER: genes 12 Torsion [N]-C--CA-[N] |==|  0.87244
USER: genes 13 Torsion [C]-CA--CB-[CG] |==|  0.27432
USER: genes 14 Torsion [CA]-CB--CG-[CD2] |==|  0.25274
USER: genes 15 Torsion [C]-CA--N-[C] |==|  0.73453
USER: genes 16 Torsion [N]-C--CA-[N] |==|  0.39467
USER: genes 17 Torsion [C]-CA--N-[C] |==|  0.67319
USER: genes 18 Torsion [C]-CA--CB-[CG] |==|  0.37118
USER: genes 19 Torsion [CA]-CB--CG-[CD] |==|  0.73246
USER: genes 20 Torsion [CB]-CG--CD-[OE1] |==|  0.04311
ROOT
ATOM      1  C   LEU E   1      -0.185  -7.578 -13.349  1.00 39.66 LIG 0.24  C 
ATOM      2 O    LEU E   1      -0.030  -8.793 -13.193  1.00 37.26 LIG-0.27  OA
ATOM      3  N   ASP E   2      -1.378  -7.016 -13.546  1.00 41.55 LIG-0.35  N 
ATOM      4 H    ASP E   2      -1.492  -6.170 -13.655  1.00 41.55 LIG 0.16  HD
ENDROOT
BRANCH 3 5
ATOM      5  CA  ASP E   2      -2.619  -7.797 -13.598  1.00 42.33 LIG 0.19  C 
BRANCH 5 6
ATOM      6  C   ASP E   2      -2.976  -8.355 -12.225  1.00 41.58 LIG 0.24  C 
ATOM      7 O    ASP E   2      -2.160  -9.034 -11.591  1.00 40.78 LIG-0.27  OA
ATOM      8  N   ALA E   3      -4.201  -8.070 -11.780  1.00 40.17 LIG-0.35  N 
ATOM      9 H    ALA E   3      -4.772  -7.615 -12.233  1.00 40.17 LIG 0.16  HD
BRANCH 8 10
ATOM     10  CA  ALA E   3      -4.699  -8.506 -10.469  1.00 38.52 LIG 0.17  C 
ATOM     11  CB  ALA E   3      -5.464  -9.820 -10.607  1.00 38.62 LIG 0.04  C 
BRANCH 10 12
ATOM     12  C   ALA E   3      -3.601  -8.638  -9.414  1.00 38.02 LIG 0.24  C 
ATOM     13 O    ALA E   3      -3.412  -9.708  -8.834  1.00 36.71 LIG-0.27  OA
ATOM     14  N   PHE E   4      -2.886  -7.539  -9.180  1.00 38.01 LIG-0.34  N 
ATOM     15 H    PHE E   4      -3.076  -6.773  -9.522  1.00 38.01 LIG 0.16  HD
BRANCH 14 16
ATOM     16  CA  PHE E   4      -1.706  -7.523  -8.319  1.00 38.29 LIG 0.19  C 
BRANCH 16 17
ATOM     17  C   PHE E   4      -2.004  -6.726  -7.052  1.00 39.00 LIG 0.20  C 
ATOM     18 OXT  PHE E   4      -1.124  -6.519  -6.213  1.00 39.22 LIG-0.65  OA
ATOM     19 O    PHE E   4      -3.126  -6.249  -6.850  1.00 39.04 LIG-0.65  OA
ENDBRANCH 16 17
BRANCH 16 20
ATOM     20  CB  PHE E   4      -0.510  -6.893  -9.055  1.00 37.57 LIG 0.07  C 
BRANCH 20 21
ATOM     21  CG  PHE E   4      -0.481  -5.386  -8.986  1.00 36.97 LIG-0.06  A 
ATOM     22  CD1 PHE E   4       0.725  -4.701  -8.835  1.00 35.77 LIG 0.01  A 
ATOM     23  CE1 PHE E   4       0.749  -3.317  -8.755  1.00 35.50 LIG 0.00  A 
ATOM     24  CZ  PHE E   4      -0.439  -2.603  -8.831  1.00 35.20 LIG 0.00  A 
ATOM     25  CE2 PHE E   4      -1.647  -3.273  -8.978  1.00 34.71 LIG 0.00  A 
ATOM     26  CD2 PHE E   4      -1.664  -4.655  -9.056  1.00 35.45 LIG 0.01  A 
ENDBRANCH 20 21
ENDBRANCH 16 20
ENDBRANCH 14 16
ENDBRANCH 10 12
ENDBRANCH 8 10
ENDBRANCH 5 6
BRANCH 5 27
ATOM     27  CB  ASP E   2      -2.506  -8.940 -14.614  1.00 43.54 LIG 0.15  C 
BRANCH 27 28
ATOM     28  CG  ASP E   2      -1.758  -8.535 -15.878  1.00 45.99 LIG 0.17  C 
ATOM     29 OD2  ASP E   2      -1.800  -7.337 -16.236  1.00 46.35 LIG-0.65  OA
ATOM     30 OD1  ASP E   2      -1.118  -9.407 -16.508  1.00 46.97 LIG-0.65  OA
ENDBRANCH 27 28
ENDBRANCH 5 27
ENDBRANCH 3 5
BRANCH 1 31
ATOM     31  CA  LEU E   1       1.017  -6.624 -13.298  1.00 39.47 LIG 0.18  C 
BRANCH 31 32
ATOM     32  CB  LEU E   1       1.138  -5.923 -11.933  1.00 38.97 LIG 0.04  C 
BRANCH 32 33
ATOM     33  CG  LEU E   1       2.147  -6.517 -10.936  1.00 40.05 LIG-0.02  C 
ATOM     34  CD2 LEU E   1       3.524  -5.875 -11.079  1.00 40.58 LIG 0.01  C 
ATOM     35  CD1 LEU E   1       2.247  -8.029 -11.083  1.00 39.33 LIG 0.01  C 
ENDBRANCH 32 33
ENDBRANCH 31 32
BRANCH 31 36
ATOM     36  N   LEU E   1       0.981  -5.644 -14.384  1.00 38.97 LIG-0.35  N 
ATOM     37  C   GLN E   0       1.644  -5.832 -15.523  1.00 38.27 LIG 0.24  C 
ATOM     38 O    GLN E   0       2.344  -6.826 -15.746  1.00 40.12 LIG-0.27  OA
ATOM     39 H    LEU E   1       0.500  -4.950 -14.219  1.00 38.97 LIG 0.16  HD
BRANCH 37 40
ATOM     40  CA  GLN E   0       1.478  -4.741 -16.580  1.00 36.47 LIG 0.18  C 
BRANCH 40 41
ATOM     41  N   GLN E   0       2.747  -4.469 -17.326  1.00 35.61 LIG-0.35  N 
ATOM     42  C   ACE E  -1       3.385  -3.293 -17.314  1.00 35.56 LIG 0.21  C 
ATOM     43 O    ACE E  -1       2.998  -2.306 -16.706  1.00 35.09 LIG-0.27  OA
ATOM     44  CH3 ACE E  -1       4.555  -3.177 -18.264  1.00 35.40 LIG 0.12  C 
ATOM     45 H    GLN E   0       3.032  -5.148 -17.770  1.00 35.61 LIG 0.16  HD
ENDBRANCH 40 41
BRANCH 40 46
ATOM     46  CB  GLN E   0       0.352  -5.131 -17.547  1.00 35.42 LIG 0.04  C 
BRANCH 46 47
ATOM     47  CG  GLN E   0      -0.633  -3.999 -17.837  1.00 33.87 LIG 0.10  C 
BRANCH 47 48
ATOM     48  CD  GLN E   0      -1.870  -4.073 -16.961  1.00 33.67 LIG 0.21  C 
ATOM     49 OE1  GLN E   0      -1.885  -4.779 -15.954  1.00 31.67 LIG-0.27  OA
ATOM     50  NE2 GLN E   0      -2.920  -3.351 -17.349  1.00 33.23 LIG-0.37  N 
ATOM     51 22HE GLN E   0      -3.646  -3.367 -16.888  1.00 33.23 LIG 0.16  HD
ATOM     52 21HE GLN E   0      -2.871  -2.870 -18.060  1.00 33.23 LIG 0.16  HD
ENDBRANCH 47 48
ENDBRANCH 46 47
ENDBRANCH 40 46
ENDBRANCH 37 40
ENDBRANCH 31 36
ENDBRANCH 1 31
TORSDOF 19
ENDMDL
MODEL 22
USER: ADFR SOLUTION from run 187
USER: SCORE 14.480263 LL:  -3.715 LR: -12.537 RR:   0.000 FEB:  -6.870
USER: RMSD 4.674854
USER: SEED 186
USER: STATUS no improvement in best in 19 clusters for 5 generations
USER: GENES 21
USER: genes 0 Translation |==|  0.50566 0.51522 0.56104
USER: genes 1 Rotation |==|  0.16480 0.57053 0.30731 0.80909
USER: genes 2 Torsion [C]-N--CA-[CB] |==|  0.53103
USER: genes 3 Torsion [N]-CA--C-[N] |==|  0.36828
USER: genes 4 Torsion [C]-N--CA-[CB] |==|  0.20000
USER: genes 5 Torsion [N]-CA--C-[N] |==|  0.01201
USER: genes 6 Torsion [C]-N--CA-[CB] |==|  0.33082
USER: genes 7 Torsion [N]-CA--C-[O] |==|  0.63964
USER: genes 8 Torsion [N]-CA--CB-[CG] |==|  0.90592
USER: genes 9 Torsion [CA]-CB--CG-[CD1] |==|  0.88347
USER: genes 10 Torsion [N]-CA--CB-[CG] |==|  0.57369
USER: genes 11 Torsion [CA]-CB--CG-[OD2] |==|  0.42194
USER: genes 12 Torsion [N]-C--CA-[N] |==|  0.69437
USER: genes 13 Torsion [C]-CA--CB-[CG] |==|  0.36246
USER: genes 14 Torsion [CA]-CB--CG-[CD2] |==|  0.21295
USER: genes 15 Torsion [C]-CA--N-[C] |==|  0.65155
USER: genes 16 Torsion [N]-C--CA-[N] |==|  0.45834
USER: genes 17 Torsion [C]-CA--N-[C] |==|  0.78835
USER: genes 18 Torsion [C]-CA--CB-[CG] |==|  0.87037
USER: genes 19 Torsion [CA]-CB--CG-[CD] |==|  0.78749
USER: genes 20 Torsion [CB]-CG--CD-[OE1] |==|  0.28937
ROOT
ATOM      1  C   LEU E   1       3.890  -6.759 -11.528  1.00 39.66 LIG 0.24  C 
ATOM      2 O    LEU E   1       4.765  -6.038 -12.016  1.00 37.26 LIG-0.27  OA
ATOM      3  N   ASP E   2       4.159  -7.773 -10.704  1.00 41.55 LIG-0.35  N 
ATOM      4 H    ASP E   2       3.553  -8.278 -10.359  1.00 41.55 LIG 0.16  HD
ENDROOT
BRANCH 3 5
ATOM      5  CA  ASP E   2       5.526  -8.124 -10.305  1.00 42.33 LIG 0.19  C 
BRANCH 5 6
ATOM      6  C   ASP E   2       6.461  -8.152 -11.510  1.00 41.58 LIG 0.24  C 
ATOM      7 O    ASP E   2       6.138  -8.749 -12.542  1.00 40.78 LIG-0.27  OA
ATOM      8  N   ALA E   3       7.621  -7.509 -11.362  1.00 40.17 LIG-0.35  N 
ATOM      9 H    ALA E   3       7.850  -7.113 -10.635  1.00 40.17 LIG 0.16  HD
BRANCH 8 10
ATOM     10  CA  ALA E   3       8.626  -7.414 -12.429  1.00 38.52 LIG 0.17  C 
ATOM     11  CB  ALA E   3       8.143  -6.465 -13.524  1.00 38.62 LIG 0.04  C 
BRANCH 10 12
ATOM     12  C   ALA E   3      10.006  -6.990 -11.928  1.00 38.02 LIG 0.24  C 
ATOM     13 O    ALA E   3      10.928  -6.792 -12.721  1.00 36.71 LIG-0.27  OA
ATOM     14  N   PHE E   4      10.129  -6.856 -10.610  1.00 38.01 LIG-0.34  N 
ATOM     15 H    PHE E   4       9.511  -7.079 -10.054  1.00 38.01 LIG 0.16  HD
BRANCH 14 16
ATOM     16  CA  PHE E   4      11.327  -6.316  -9.970  1.00 38.29 LIG 0.19  C 
BRANCH 16 17
ATOM     17  C   PHE E   4      11.924  -7.359  -9.029  1.00 39.00 LIG 0.20  C 
ATOM     18 OXT  PHE E   4      12.156  -8.505  -9.421  1.00 39.22 LIG-0.65  OA
ATOM     19 O    PHE E   4      12.211  -7.072  -7.862  1.00 39.04 LIG-0.65  OA
ENDBRANCH 16 17
BRANCH 16 20
ATOM     20  CB  PHE E   4      10.987  -5.041  -9.178  1.00 37.57 LIG 0.07  C 
BRANCH 20 21
ATOM     21  CG  PHE E   4       9.896  -4.211  -9.807  1.00 36.97 LIG-0.06  A 
ATOM     22  CD1 PHE E   4       9.861  -4.002 -11.186  1.00 35.77 LIG 0.01  A 
ATOM     23  CE1 PHE E   4       8.868  -3.225 -11.762  1.00 35.50 LIG 0.00  A 
ATOM     24  CZ  PHE E   4       7.892  -2.651 -10.958  1.00 35.20 LIG 0.00  A 
ATOM     25  CE2 PHE E   4       7.917  -2.848  -9.584  1.00 34.71 LIG 0.00  A 
ATOM     26  CD2 PHE E   4       8.913  -3.624  -9.016  1.00 35.45 LIG 0.01  A 
ENDBRANCH 20 21
ENDBRANCH 16 20
ENDBRANCH 14 16
ENDBRANCH 10 12
ENDBRANCH 8 10
ENDBRANCH 5 6
BRANCH 5 27
ATOM     27  CB  ASP E   2       5.559  -9.479  -9.587  1.00 43.54 LIG 0.15  C 
BRANCH 27 28
ATOM     28  CG  ASP E   2       6.729  -9.607  -8.621  1.00 45.99 LIG 0.17  C 
ATOM     29 OD2  ASP E   2       6.602 -10.359  -7.628  1.00 46.35 LIG-0.65  OA
ATOM     30 OD1  ASP E   2       7.780  -8.969  -8.856  1.00 46.97 LIG-0.65  OA
ENDBRANCH 27 28
ENDBRANCH 5 27
ENDBRANCH 3 5
BRANCH 1 31
ATOM     31  CA  LEU E   1       2.407  -6.504 -11.831  1.00 39.47 LIG 0.18  C 
BRANCH 31 32
ATOM     32  CB  LEU E   1       1.482  -7.233 -10.840  1.00 38.97 LIG 0.04  C 
BRANCH 32 33
ATOM     33  CG  LEU E   1       0.369  -6.396 -10.188  1.00 40.05 LIG-0.02  C 
ATOM     34  CD2 LEU E   1      -0.790  -6.153 -11.152  1.00 40.58 LIG 0.01  C 
ATOM     35  CD1 LEU E   1       0.906  -5.074  -9.658  1.00 39.33 LIG 0.01  C 
ENDBRANCH 32 33
ENDBRANCH 31 32
BRANCH 31 36
ATOM     36  N   LEU E   1       2.065  -6.851 -13.211  1.00 38.97 LIG-0.35  N 
ATOM     37  C   GLN E   0       1.482  -5.979 -14.031  1.00 38.27 LIG 0.24  C 
ATOM     38 O    GLN E   0       1.173  -4.831 -13.694  1.00 40.12 LIG-0.27  OA
ATOM     39 H    LEU E   1       2.274  -7.654 -13.436  1.00 38.97 LIG 0.16  HD
BRANCH 37 40
ATOM     40  CA  GLN E   0       1.224  -6.471 -15.454  1.00 36.47 LIG 0.18  C 
BRANCH 40 41
ATOM     41  N   GLN E   0       0.264  -5.596 -16.198  1.00 35.61 LIG-0.35  N 
ATOM     42  C   ACE E  -1      -1.059  -5.599 -16.003  1.00 35.56 LIG 0.21  C 
ATOM     43 O    ACE E  -1      -1.636  -6.325 -15.205  1.00 35.09 LIG-0.27  OA
ATOM     44  CH3 ACE E  -1      -1.863  -4.761 -16.970  1.00 35.40 LIG 0.12  C 
ATOM     45 H    GLN E   0       0.648  -5.083 -16.772  1.00 35.61 LIG 0.16  HD
ENDBRANCH 40 41
BRANCH 40 46
ATOM     46  CB  GLN E   0       2.556  -6.582 -16.209  1.00 35.42 LIG 0.04  C 
BRANCH 46 47
ATOM     47  CG  GLN E   0       3.461  -5.362 -16.047  1.00 33.87 LIG 0.10  C 
BRANCH 47 48
ATOM     48  CD  GLN E   0       3.003  -4.188 -16.892  1.00 33.67 LIG 0.21  C 
ATOM     49 OE1  GLN E   0       2.428  -3.230 -16.378  1.00 31.67 LIG-0.27  OA
ATOM     50  NE2 GLN E   0       3.248  -4.262 -18.199  1.00 33.23 LIG-0.37  N 
ATOM     51 22HE GLN E   0       3.000  -3.624 -18.720  1.00 33.23 LIG 0.16  HD
ATOM     52 21HE GLN E   0       3.653  -4.949 -18.522  1.00 33.23 LIG 0.16  HD
ENDBRANCH 47 48
ENDBRANCH 46 47
ENDBRANCH 40 46
ENDBRANCH 37 40
ENDBRANCH 31 36
ENDBRANCH 1 31
TORSDOF 19
ENDMDL
MODEL 23
USER: ADFR SOLUTION from run 142
USER: SCORE 14.211348 LL:  -3.770 LR: -12.525 RR:   0.000 FEB:  -6.858
USER: RMSD 10.190914
USER: SEED 141
USER: STATUS 1 or 2 clusters left
USER: GENES 21
USER: genes 0 Translation |==|  0.67968 0.43874 0.53688
USER: genes 1 Rotation |==|  0.50648 0.15854 0.86502 0.51132
USER: genes 2 Torsion [C]-N--CA-[CB] |==|  0.26111
USER: genes 3 Torsion [N]-CA--C-[N] |==|  0.47121
USER: genes 4 Torsion [C]-N--CA-[CB] |==|  0.18892
USER: genes 5 Torsion [N]-CA--C-[N] |==|  0.53046
USER: genes 6 Torsion [C]-N--CA-[CB] |==|  0.27489
USER: genes 7 Torsion [N]-CA--C-[O] |==|  0.01471
USER: genes 8 Torsion [N]-CA--CB-[CG] |==|  0.96123
USER: genes 9 Torsion [CA]-CB--CG-[CD1] |==|  0.74792
USER: genes 10 Torsion [N]-CA--CB-[CG] |==|  0.88192
USER: genes 11 Torsion [CA]-CB--CG-[OD2] |==|  0.22790
USER: genes 12 Torsion [N]-C--CA-[N] |==|  0.93349
USER: genes 13 Torsion [C]-CA--CB-[CG] |==|  0.68750
USER: genes 14 Torsion [CA]-CB--CG-[CD2] |==|  0.80071
USER: genes 15 Torsion [C]-CA--N-[C] |==|  0.82985
USER: genes 16 Torsion [N]-C--CA-[N] |==|  0.97335
USER: genes 17 Torsion [C]-CA--N-[C] |==|  0.69489
USER: genes 18 Torsion [C]-CA--CB-[CG] |==|  0.21605
USER: genes 19 Torsion [CA]-CB--CG-[CD] |==|  0.51107
USER: genes 20 Torsion [CB]-CG--CD-[OE1] |==|  0.32308
ROOT
ATOM      1  C   LEU E   1       8.197  -7.964 -11.945  1.00 39.66 LIG 0.24  C 
ATOM      2 O    LEU E   1       8.222  -9.094 -12.441  1.00 37.26 LIG-0.27  OA
ATOM      3  N   ASP E   2       7.095  -7.421 -11.426  1.00 41.55 LIG-0.35  N 
ATOM      4 H    ASP E   2       7.071  -6.634 -11.078  1.00 41.55 LIG 0.16  HD
ENDROOT
BRANCH 3 5
ATOM      5  CA  ASP E   2       5.806  -8.122 -11.402  1.00 42.33 LIG 0.19  C 
BRANCH 5 6
ATOM      6  C   ASP E   2       4.649  -7.157 -11.637  1.00 41.58 LIG 0.24  C 
ATOM      7 O    ASP E   2       4.836  -5.935 -11.619  1.00 40.78 LIG-0.27  OA
ATOM      8  N   ALA E   3       3.457  -7.718 -11.849  1.00 40.17 LIG-0.35  N 
ATOM      9 H    ALA E   3       3.328  -8.568 -11.840  1.00 40.17 LIG 0.16  HD
BRANCH 8 10
ATOM     10  CA  ALA E   3       2.242  -6.938 -12.118  1.00 38.52 LIG 0.17  C 
ATOM     11  CB  ALA E   3       2.345  -6.256 -13.480  1.00 38.62 LIG 0.04  C 
BRANCH 10 12
ATOM     12  C   ALA E   3       0.958  -7.764 -12.032  1.00 38.02 LIG 0.24  C 
ATOM     13 O    ALA E   3       0.975  -8.904 -11.568  1.00 36.71 LIG-0.27  OA
ATOM     14  N   PHE E   4      -0.144  -7.171 -12.485  1.00 38.01 LIG-0.34  N 
ATOM     15 H    PHE E   4      -0.138  -6.411 -12.887  1.00 38.01 LIG 0.16  HD
BRANCH 14 16
ATOM     16  CA  PHE E   4      -1.478  -7.751 -12.344  1.00 38.29 LIG 0.19  C 
BRANCH 16 17
ATOM     17  C   PHE E   4      -2.281  -7.514 -13.620  1.00 39.00 LIG 0.20  C 
ATOM     18 OXT  PHE E   4      -3.476  -7.811 -13.679  1.00 39.22 LIG-0.65  OA
ATOM     19 O    PHE E   4      -1.758  -6.996 -14.612  1.00 39.04 LIG-0.65  OA
ENDBRANCH 16 17
BRANCH 16 20
ATOM     20  CB  PHE E   4      -2.214  -7.123 -11.147  1.00 37.57 LIG 0.07  C 
BRANCH 20 21
ATOM     21  CG  PHE E   4      -1.314  -6.340 -10.224  1.00 36.97 LIG-0.06  A 
ATOM     22  CD1 PHE E   4      -0.697  -6.956  -9.134  1.00 35.77 LIG 0.01  A 
ATOM     23  CE1 PHE E   4       0.118  -6.232  -8.278  1.00 35.50 LIG 0.00  A 
ATOM     24  CZ  PHE E   4       0.328  -4.879  -8.508  1.00 35.20 LIG 0.00  A 
ATOM     25  CE2 PHE E   4      -0.283  -4.253  -9.587  1.00 34.71 LIG 0.00  A 
ATOM     26  CD2 PHE E   4      -1.097  -4.982 -10.438  1.00 35.45 LIG 0.01  A 
ENDBRANCH 20 21
ENDBRANCH 16 20
ENDBRANCH 14 16
ENDBRANCH 10 12
ENDBRANCH 8 10
ENDBRANCH 5 6
BRANCH 5 27
ATOM     27  CB  ASP E   2       5.608  -8.862 -10.073  1.00 43.54 LIG 0.15  C 
BRANCH 27 28
ATOM     28  CG  ASP E   2       6.868  -9.579  -9.603  1.00 45.99 LIG 0.17  C 
ATOM     29 OD2  ASP E   2       7.741  -8.915  -9.000  1.00 46.35 LIG-0.65  OA
ATOM     30 OD1  ASP E   2       6.984 -10.805  -9.825  1.00 46.97 LIG-0.65  OA
ENDBRANCH 27 28
ENDBRANCH 5 27
ENDBRANCH 3 5
BRANCH 1 31
ATOM     31  CA  LEU E   1       9.472  -7.112 -11.874  1.00 39.47 LIG 0.18  C 
BRANCH 31 32
ATOM     32  CB  LEU E   1      10.400  -7.557 -10.729  1.00 38.97 LIG 0.04  C 
BRANCH 32 33
ATOM     33  CG  LEU E   1      10.577  -6.574  -9.559  1.00 40.05 LIG-0.02  C 
ATOM     34  CD2 LEU E   1      11.417  -5.365  -9.963  1.00 40.58 LIG 0.01  C 
ATOM     35  CD1 LEU E   1      11.182  -7.261  -8.344  1.00 39.33 LIG 0.01  C 
ENDBRANCH 32 33
ENDBRANCH 31 32
BRANCH 31 36
ATOM     36  N   LEU E   1       9.169  -5.685 -11.771  1.00 38.97 LIG-0.35  N 
ATOM     37  C   GLN E   0       8.499  -5.038 -12.723  1.00 38.27 LIG 0.24  C 
ATOM     38 O    GLN E   0       8.098  -5.579 -13.759  1.00 40.12 LIG-0.27  OA
ATOM     39 H    LEU E   1       9.460  -5.312 -11.053  1.00 38.97 LIG 0.16  HD
BRANCH 37 40
ATOM     40  CA  GLN E   0       8.222  -3.559 -12.457  1.00 36.47 LIG 0.18  C 
BRANCH 40 41
ATOM     41  N   GLN E   0       8.563  -3.155 -11.056  1.00 35.61 LIG-0.35  N 
ATOM     42  C   ACE E  -1       7.656  -2.837 -10.126  1.00 35.56 LIG 0.21  C 
ATOM     43 O    ACE E  -1       6.448  -2.826 -10.317  1.00 35.09 LIG-0.27  OA
ATOM     44  CH3 ACE E  -1       8.214  -2.298  -8.829  1.00 35.40 LIG 0.12  C 
ATOM     45 H    GLN E   0       9.409  -3.146 -10.902  1.00 35.61 LIG 0.16  HD
ENDBRANCH 40 41
BRANCH 40 46
ATOM     46  CB  GLN E   0       8.991  -2.703 -13.472  1.00 35.42 LIG 0.04  C 
BRANCH 46 47
ATOM     47  CG  GLN E   0       8.341  -2.650 -14.854  1.00 33.87 LIG 0.10  C 
BRANCH 47 48
ATOM     48  CD  GLN E   0       9.178  -1.876 -15.856  1.00 33.67 LIG 0.21  C 
ATOM     49 OE1  GLN E   0       9.652  -2.435 -16.843  1.00 31.67 LIG-0.27  OA
ATOM     50  NE2 GLN E   0       9.372  -0.584 -15.599  1.00 33.23 LIG-0.37  N 
ATOM     51 22HE GLN E   0       9.846  -0.106 -16.134  1.00 33.23 LIG 0.16  HD
ATOM     52 21HE GLN E   0       9.024  -0.228 -14.897  1.00 33.23 LIG 0.16  HD
ENDBRANCH 47 48
ENDBRANCH 46 47
ENDBRANCH 40 46
ENDBRANCH 37 40
ENDBRANCH 31 36
ENDBRANCH 1 31
TORSDOF 19
ENDMDL
MODEL 24
USER: ADFR SOLUTION from run 92
USER: SCORE 15.445936 LL:  -3.940 LR: -12.479 RR:   0.000 FEB:  -6.812
USER: RMSD 9.189255
USER: SEED 91
USER: STATUS searching
USER: GENES 21
USER: genes 0 Translation |==|  0.29419 0.54176 0.74640
USER: genes 1 Rotation |==|  0.66939 0.78334 0.64318 0.84717
USER: genes 2 Torsion [C]-N--CA-[CB] |==|  0.83333
USER: genes 3 Torsion [N]-CA--C-[N] |==|  0.29462
USER: genes 4 Torsion [C]-N--CA-[CB] |==|  0.15907
USER: genes 5 Torsion [N]-CA--C-[N] |==|  0.05244
USER: genes 6 Torsion [C]-N--CA-[CB] |==|  0.50811
USER: genes 7 Torsion [N]-CA--C-[O] |==|  0.81562
USER: genes 8 Torsion [N]-CA--CB-[CG] |==|  0.61539
USER: genes 9 Torsion [CA]-CB--CG-[CD1] |==|  0.43728
USER: genes 10 Torsion [N]-CA--CB-[CG] |==|  0.78437
USER: genes 11 Torsion [CA]-CB--CG-[OD2] |==|  0.95366
USER: genes 12 Torsion [N]-C--CA-[N] |==|  0.11326
USER: genes 13 Torsion [C]-CA--CB-[CG] |==|  0.35464
USER: genes 14 Torsion [CA]-CB--CG-[CD2] |==|  0.04407
USER: genes 15 Torsion [C]-CA--N-[C] |==|  0.16366
USER: genes 16 Torsion [N]-C--CA-[N] |==|  0.05410
USER: genes 17 Torsion [C]-CA--N-[C] |==|  0.68142
USER: genes 18 Torsion [C]-CA--CB-[CG] |==|  0.88960
USER: genes 19 Torsion [CA]-CB--CG-[CD] |==|  0.73205
USER: genes 20 Torsion [CB]-CG--CD-[OE1] |==|  0.02146
ROOT
ATOM      1  C   LEU E   1      -1.344  -6.341  -8.331  1.00 39.66 LIG 0.24  C 
ATOM      2 O    LEU E   1      -0.291  -6.209  -7.699  1.00 37.26 LIG-0.27  OA
ATOM      3  N   ASP E   2      -1.602  -5.683  -9.462  1.00 41.55 LIG-0.35  N 
ATOM      4 H    ASP E   2      -2.332  -5.772  -9.907  1.00 41.55 LIG 0.16  HD
ENDROOT
BRANCH 3 5
ATOM      5  CA  ASP E   2      -0.652  -4.736 -10.057  1.00 42.33 LIG 0.19  C 
BRANCH 5 6
ATOM      6  C   ASP E   2       0.643  -5.434 -10.458  1.00 41.58 LIG 0.24  C 
ATOM      7 O    ASP E   2       1.463  -5.779  -9.599  1.00 40.78 LIG-0.27  OA
ATOM      8  N   ALA E   3       0.820  -5.628 -11.766  1.00 40.17 LIG-0.35  N 
ATOM      9 H    ALA E   3       0.257  -5.367 -12.361  1.00 40.17 LIG 0.16  HD
BRANCH 8 10
ATOM     10  CA  ALA E   3       1.997  -6.306 -12.324  1.00 38.52 LIG 0.17  C 
ATOM     11  CB  ALA E   3       2.129  -7.706 -11.729  1.00 38.62 LIG 0.04  C 
BRANCH 10 12
ATOM     12  C   ALA E   3       1.993  -6.375 -13.851  1.00 38.02 LIG 0.24  C 
ATOM     13 O    ALA E   3       2.702  -7.188 -14.445  1.00 36.71 LIG-0.27  OA
ATOM     14  N   PHE E   4       1.187  -5.514 -14.468  1.00 38.01 LIG-0.34  N 
ATOM     15 H    PHE E   4       0.761  -4.891 -14.057  1.00 38.01 LIG 0.16  HD
BRANCH 14 16
ATOM     16  CA  PHE E   4       0.945  -5.539 -15.909  1.00 38.29 LIG 0.19  C 
BRANCH 16 17
ATOM     17  C   PHE E   4       2.272  -5.435 -16.657  1.00 39.00 LIG 0.20  C 
ATOM     18 OXT  PHE E   4       2.680  -6.368 -17.353  1.00 39.22 LIG-0.65  OA
ATOM     19 O    PHE E   4       2.953  -4.406 -16.602  1.00 39.04 LIG-0.65  OA
ENDBRANCH 16 17
BRANCH 16 20
ATOM     20  CB  PHE E   4       0.028  -4.374 -16.321  1.00 37.57 LIG 0.07  C 
BRANCH 20 21
ATOM     21  CG  PHE E   4      -1.020  -4.759 -17.336  1.00 36.97 LIG-0.06  A 
ATOM     22  CD1 PHE E   4      -2.190  -4.011 -17.473  1.00 35.77 LIG 0.01  A 
ATOM     23  CE1 PHE E   4      -3.161  -4.373 -18.394  1.00 35.50 LIG 0.00  A 
ATOM     24  CZ  PHE E   4      -2.965  -5.492 -19.194  1.00 35.20 LIG 0.00  A 
ATOM     25  CE2 PHE E   4      -1.807  -6.247 -19.065  1.00 34.71 LIG 0.00  A 
ATOM     26  CD2 PHE E   4      -0.843  -5.879 -18.141  1.00 35.45 LIG 0.01  A 
ENDBRANCH 20 21
ENDBRANCH 16 20
ENDBRANCH 14 16
ENDBRANCH 10 12
ENDBRANCH 8 10
ENDBRANCH 5 6
BRANCH 5 27
ATOM     27  CB  ASP E   2      -0.348  -3.583  -9.092  1.00 43.54 LIG 0.15  C 
BRANCH 27 28
ATOM     28  CG  ASP E   2      -1.462  -2.545  -9.044  1.00 45.99 LIG 0.17  C 
ATOM     29 OD2  ASP E   2      -2.308  -2.537  -9.966  1.00 46.35 LIG-0.65  OA
ATOM     30 OD1  ASP E   2      -1.501  -1.744  -8.083  1.00 46.97 LIG-0.65  OA
ENDBRANCH 27 28
ENDBRANCH 5 27
ENDBRANCH 3 5
BRANCH 1 31
ATOM     31  CA  LEU E   1      -2.428  -7.315  -7.848  1.00 39.47 LIG 0.18  C 
BRANCH 31 32
ATOM     32  CB  LEU E   1      -1.906  -8.265  -6.756  1.00 38.97 LIG 0.04  C 
BRANCH 32 33
ATOM     33  CG  LEU E   1      -2.726  -8.344  -5.457  1.00 40.05 LIG-0.02  C 
ATOM     34  CD2 LEU E   1      -4.122  -7.753  -5.636  1.00 40.58 LIG 0.01  C 
ATOM     35  CD1 LEU E   1      -2.005  -7.664  -4.303  1.00 39.33 LIG 0.01  C 
ENDBRANCH 32 33
ENDBRANCH 31 32
BRANCH 31 36
ATOM     36  N   LEU E   1      -3.015  -8.069  -8.956  1.00 38.97 LIG-0.35  N 
ATOM     37  C   GLN E   0      -2.276  -8.843  -9.749  1.00 38.27 LIG 0.24  C 
ATOM     38 O    GLN E   0      -1.053  -8.973  -9.625  1.00 40.12 LIG-0.27  OA
ATOM     39 H    LEU E   1      -3.864  -7.967  -9.043  1.00 38.97 LIG 0.16  HD
BRANCH 37 40
ATOM     40  CA  GLN E   0      -3.035  -9.601 -10.837  1.00 36.47 LIG 0.18  C 
BRANCH 40 41
ATOM     41  N   GLN E   0      -4.378  -9.002 -11.122  1.00 35.61 LIG-0.35  N 
ATOM     42  C   ACE E  -1      -5.539  -9.620 -10.885  1.00 35.56 LIG 0.21  C 
ATOM     43 O    ACE E  -1      -5.638 -10.748 -10.421  1.00 35.09 LIG-0.27  OA
ATOM     44  CH3 ACE E  -1      -6.772  -8.912 -11.397  1.00 35.40 LIG 0.12  C 
ATOM     45 H    GLN E   0      -4.332  -8.212 -11.459  1.00 35.61 LIG 0.16  HD
ENDBRANCH 40 41
BRANCH 40 46
ATOM     46  CB  GLN E   0      -2.183  -9.658 -12.112  1.00 35.42 LIG 0.04  C 
BRANCH 46 47
ATOM     47  CG  GLN E   0      -1.428  -8.363 -12.409  1.00 33.87 LIG 0.10  C 
BRANCH 47 48
ATOM     48  CD  GLN E   0      -2.166  -7.478 -13.396  1.00 33.67 LIG 0.21  C 
ATOM     49 OE1  GLN E   0      -3.308  -7.756 -13.757  1.00 31.67 LIG-0.27  OA
ATOM     50  NE2 GLN E   0      -1.510  -6.410 -13.846  1.00 33.23 LIG-0.37  N 
ATOM     51 22HE GLN E   0      -1.884  -5.883 -14.413  1.00 33.23 LIG 0.16  HD
ATOM     52 21HE GLN E   0      -0.711  -6.248 -13.570  1.00 33.23 LIG 0.16  HD
ENDBRANCH 47 48
ENDBRANCH 46 47
ENDBRANCH 40 46
ENDBRANCH 37 40
ENDBRANCH 31 36
ENDBRANCH 1 31
TORSDOF 19
ENDMDL
MODEL 25
USER: ADFR SOLUTION from run 194
USER: SCORE 13.043593 LL:  -4.264 LR: -12.453 RR:   0.000 FEB:  -6.786
USER: RMSD 3.516410
USER: SEED 193
USER: STATUS no improvement in best in 10 clusters for 5 generations
USER: GENES 21
USER: genes 0 Translation |==|  0.42847 0.58228 0.58789
USER: genes 1 Rotation |==|  0.47831 0.66185 0.34136 0.94516
USER: genes 2 Torsion [C]-N--CA-[CB] |==|  0.46194
USER: genes 3 Torsion [N]-CA--C-[N] |==|  0.25604
USER: genes 4 Torsion [C]-N--CA-[CB] |==|  0.41408
USER: genes 5 Torsion [N]-CA--C-[N] |==|  0.83514
USER: genes 6 Torsion [C]-N--CA-[CB] |==|  0.18341
USER: genes 7 Torsion [N]-CA--C-[O] |==|  0.51950
USER: genes 8 Torsion [N]-CA--CB-[CG] |==|  0.14854
USER: genes 9 Torsion [CA]-CB--CG-[CD1] |==|  0.77884
USER: genes 10 Torsion [N]-CA--CB-[CG] |==|  0.93341
USER: genes 11 Torsion [CA]-CB--CG-[OD2] |==|  0.25967
USER: genes 12 Torsion [N]-C--CA-[N] |==|  0.08008
USER: genes 13 Torsion [C]-CA--CB-[CG] |==|  0.56140
USER: genes 14 Torsion [CA]-CB--CG-[CD2] |==|  0.64821
USER: genes 15 Torsion [C]-CA--N-[C] |==|  0.17778
USER: genes 16 Torsion [N]-C--CA-[N] |==|  0.21324
USER: genes 17 Torsion [C]-CA--N-[C] |==|  0.66985
USER: genes 18 Torsion [C]-CA--CB-[CG] |==|  0.30163
USER: genes 19 Torsion [CA]-CB--CG-[CD] |==|  0.67154
USER: genes 20 Torsion [CB]-CG--CD-[OE1] |==|  0.00264
ROOT
ATOM      1  C   LEU E   1       1.980  -5.703 -11.065  1.00 39.66 LIG 0.24  C 
ATOM      2 O    LEU E   1       2.906  -5.352 -10.328  1.00 37.26 LIG-0.27  OA
ATOM      3  N   ASP E   2       2.083  -6.708 -11.936  1.00 41.55 LIG-0.35  N 
ATOM      4 H    ASP E   2       1.441  -6.958 -12.451  1.00 41.55 LIG 0.16  HD
ENDROOT
BRANCH 3 5
ATOM      5  CA  ASP E   2       3.316  -7.487 -12.098  1.00 42.33 LIG 0.19  C 
BRANCH 5 6
ATOM      6  C   ASP E   2       4.404  -6.662 -12.776  1.00 41.58 LIG 0.24  C 
ATOM      7 O    ASP E   2       4.495  -6.634 -14.009  1.00 40.78 LIG-0.27  OA
ATOM      8  N   ALA E   3       5.229  -6.003 -11.961  1.00 40.17 LIG-0.35  N 
ATOM      9 H    ALA E   3       5.175  -6.042 -11.104  1.00 40.17 LIG 0.16  HD
BRANCH 8 10
ATOM     10  CA  ALA E   3       6.316  -5.142 -12.445  1.00 38.52 LIG 0.17  C 
ATOM     11  CB  ALA E   3       6.562  -4.001 -11.460  1.00 38.62 LIG 0.04  C 
BRANCH 10 12
ATOM     12  C   ALA E   3       7.615  -5.898 -12.718  1.00 38.02 LIG 0.24  C 
ATOM     13 O    ALA E   3       8.119  -5.895 -13.842  1.00 36.71 LIG-0.27  OA
ATOM     14  N   PHE E   4       8.143  -6.540 -11.678  1.00 38.01 LIG-0.34  N 
ATOM     15 H    PHE E   4       7.745  -6.613 -10.919  1.00 38.01 LIG 0.16  HD
BRANCH 14 16
ATOM     16  CA  PHE E   4       9.452  -7.187 -11.720  1.00 38.29 LIG 0.19  C 
BRANCH 16 17
ATOM     17  C   PHE E   4       9.680  -7.972 -10.431  1.00 39.00 LIG 0.20  C 
ATOM     18 OXT  PHE E   4       8.770  -8.124  -9.614  1.00 39.22 LIG-0.65  OA
ATOM     19 O    PHE E   4      10.774  -8.495 -10.191  1.00 39.04 LIG-0.65  OA
ENDBRANCH 16 17
BRANCH 16 20
ATOM     20  CB  PHE E   4      10.566  -6.137 -11.888  1.00 37.57 LIG 0.07  C 
BRANCH 20 21
ATOM     21  CG  PHE E   4      10.520  -5.035 -10.860  1.00 36.97 LIG-0.06  A 
ATOM     22  CD1 PHE E   4       9.624  -3.973 -10.990  1.00 35.77 LIG 0.01  A 
ATOM     23  CE1 PHE E   4       9.593  -2.952 -10.053  1.00 35.50 LIG 0.00  A 
ATOM     24  CZ  PHE E   4      10.461  -2.986  -8.970  1.00 35.20 LIG 0.00  A 
ATOM     25  CE2 PHE E   4      11.360  -4.035  -8.831  1.00 34.71 LIG 0.00  A 
ATOM     26  CD2 PHE E   4      11.386  -5.051  -9.771  1.00 35.45 LIG 0.01  A 
ENDBRANCH 20 21
ENDBRANCH 16 20
ENDBRANCH 14 16
ENDBRANCH 10 12
ENDBRANCH 8 10
ENDBRANCH 5 6
BRANCH 5 27
ATOM     27  CB  ASP E   2       3.054  -8.769 -12.900  1.00 43.54 LIG 0.15  C 
BRANCH 27 28
ATOM     28  CG  ASP E   2       1.602  -9.222 -12.830  1.00 45.99 LIG 0.17  C 
ATOM     29 OD2  ASP E   2       0.818  -8.848 -13.731  1.00 46.35 LIG-0.65  OA
ATOM     30 OD1  ASP E   2       1.243  -9.960 -11.885  1.00 46.97 LIG-0.65  OA
ENDBRANCH 27 28
ENDBRANCH 5 27
ENDBRANCH 3 5
BRANCH 1 31
ATOM     31  CA  LEU E   1       0.617  -5.000 -10.997  1.00 39.47 LIG 0.18  C 
BRANCH 31 32
ATOM     32  CB  LEU E   1       0.370  -4.352  -9.623  1.00 38.97 LIG 0.04  C 
BRANCH 32 33
ATOM     33  CG  LEU E   1      -1.095  -4.087  -9.236  1.00 40.05 LIG-0.02  C 
ATOM     34  CD2 LEU E   1      -1.315  -2.632  -8.831  1.00 40.58 LIG 0.01  C 
ATOM     35  CD1 LEU E   1      -1.556  -5.023  -8.129  1.00 39.33 LIG 0.01  C 
ENDBRANCH 32 33
ENDBRANCH 31 32
BRANCH 31 36
ATOM     36  N   LEU E   1      -0.480  -5.902 -11.351  1.00 38.97 LIG-0.35  N 
ATOM     37  C   GLN E   0      -0.773  -6.974 -10.618  1.00 38.27 LIG 0.24  C 
ATOM     38 O    GLN E   0      -0.144  -7.298  -9.605  1.00 40.12 LIG-0.27  OA
ATOM     39 H    LEU E   1      -0.907  -5.677 -12.063  1.00 38.97 LIG 0.16  HD
BRANCH 37 40
ATOM     40  CA  GLN E   0      -1.970  -7.798 -11.090  1.00 36.47 LIG 0.18  C 
BRANCH 40 41
ATOM     41  N   GLN E   0      -1.646  -8.654 -12.275  1.00 35.61 LIG-0.35  N 
ATOM     42  C   ACE E  -1      -2.247  -8.546 -13.464  1.00 35.56 LIG 0.21  C 
ATOM     43 O    ACE E  -1      -3.139  -7.747 -13.715  1.00 35.09 LIG-0.27  OA
ATOM     44  CH3 ACE E  -1      -1.891  -9.612 -14.475  1.00 35.40 LIG 0.12  C 
ATOM     45 H    GLN E   0      -1.027  -9.230 -12.117  1.00 35.61 LIG 0.16  HD
ENDBRANCH 40 41
BRANCH 40 46
ATOM     46  CB  GLN E   0      -2.494  -8.653  -9.928  1.00 35.42 LIG 0.04  C 
BRANCH 46 47
ATOM     47  CG  GLN E   0      -3.837  -8.183  -9.371  1.00 33.87 LIG 0.10  C 
BRANCH 47 48
ATOM     48  CD  GLN E   0      -3.744  -7.770  -7.914  1.00 33.67 LIG 0.21  C 
ATOM     49 OE1  GLN E   0      -2.670  -7.816  -7.316  1.00 31.67 LIG-0.27  OA
ATOM     50  NE2 GLN E   0      -4.874  -7.374  -7.333  1.00 33.23 LIG-0.37  N 
ATOM     51 22HE GLN E   0      -4.873  -7.138  -6.506  1.00 33.23 LIG 0.16  HD
ATOM     52 21HE GLN E   0      -5.606  -7.356  -7.784  1.00 33.23 LIG 0.16  HD
ENDBRANCH 47 48
ENDBRANCH 46 47
ENDBRANCH 40 46
ENDBRANCH 37 40
ENDBRANCH 31 36
ENDBRANCH 1 31
TORSDOF 19
ENDMDL
MODEL 26
USER: ADFR SOLUTION from run 72
USER: SCORE 15.526745 LL:  -4.233 LR: -12.390 RR:   0.000 FEB:  -6.722
USER: RMSD 10.481181
USER: SEED 71
USER: STATUS no improvement in best in 5 clusters for 5 generations
USER: GENES 21
USER: genes 0 Translation |==|  0.36804 0.47513 0.61271
USER: genes 1 Rotation |==|  0.57893 0.47600 0.16551 0.86237
USER: genes 2 Torsion [C]-N--CA-[CB] |==|  0.84306
USER: genes 3 Torsion [N]-CA--C-[N] |==|  0.34603
USER: genes 4 Torsion [C]-N--CA-[CB] |==|  0.51803
USER: genes 5 Torsion [N]-CA--C-[N] |==|  0.38371
USER: genes 6 Torsion [C]-N--CA-[CB] |==|  0.37055
USER: genes 7 Torsion [N]-CA--C-[O] |==|  0.23312
USER: genes 8 Torsion [N]-CA--CB-[CG] |==|  0.86830
USER: genes 9 Torsion [CA]-CB--CG-[CD1] |==|  0.30472
USER: genes 10 Torsion [N]-CA--CB-[CG] |==|  0.77746
USER: genes 11 Torsion [CA]-CB--CG-[OD2] |==|  0.11733
USER: genes 12 Torsion [N]-C--CA-[N] |==|  0.98461
USER: genes 13 Torsion [C]-CA--CB-[CG] |==|  0.22052
USER: genes 14 Torsion [CA]-CB--CG-[CD2] |==|  0.44483
USER: genes 15 Torsion [C]-CA--N-[C] |==|  0.76430
USER: genes 16 Torsion [N]-C--CA-[N] |==|  0.13323
USER: genes 17 Torsion [C]-CA--N-[C] |==|  0.57376
USER: genes 18 Torsion [C]-CA--CB-[CG] |==|  0.81913
USER: genes 19 Torsion [CA]-CB--CG-[CD] |==|  0.74956
USER: genes 20 Torsion [CB]-CG--CD-[OE1] |==|  0.42604
ROOT
ATOM      1  C   LEU E   1       0.484  -7.391 -10.637  1.00 39.66 LIG 0.24  C 
ATOM      2 O    LEU E   1       0.712  -7.473  -9.426  1.00 37.26 LIG-0.27  OA
ATOM      3  N   ASP E   2       0.262  -8.454 -11.410  1.00 41.55 LIG-0.35  N 
ATOM      4 H    ASP E   2       0.101  -8.403 -12.254  1.00 41.55 LIG 0.16  HD
ENDROOT
BRANCH 3 5
ATOM      5  CA  ASP E   2       0.273  -9.825 -10.887  1.00 42.33 LIG 0.19  C 
BRANCH 5 6
ATOM      6  C   ASP E   2      -0.881 -10.054  -9.917  1.00 41.58 LIG 0.24  C 
ATOM      7 O    ASP E   2      -1.025  -9.325  -8.929  1.00 40.78 LIG-0.27  OA
ATOM      8  N   ALA E   3      -1.691 -11.075 -10.205  1.00 40.17 LIG-0.35  N 
ATOM      9 H    ALA E   3      -1.574 -11.592 -10.882  1.00 40.17 LIG 0.16  HD
BRANCH 8 10
ATOM     10  CA  ALA E   3      -2.864 -11.420  -9.393  1.00 38.52 LIG 0.17  C 
ATOM     11  CB  ALA E   3      -3.483 -12.725  -9.890  1.00 38.62 LIG 0.04  C 
BRANCH 10 12
ATOM     12  C   ALA E   3      -2.564 -11.510  -7.897  1.00 38.02 LIG 0.24  C 
ATOM     13 O    ALA E   3      -1.533 -12.052  -7.495  1.00 36.71 LIG-0.27  OA
ATOM     14  N   PHE E   4      -3.475 -10.973  -7.089  1.00 38.01 LIG-0.34  N 
ATOM     15 H    PHE E   4      -4.232 -10.675  -7.366  1.00 38.01 LIG 0.16  HD
BRANCH 14 16
ATOM     16  CA  PHE E   4      -3.282 -10.837  -5.646  1.00 38.29 LIG 0.19  C 
BRANCH 16 17
ATOM     17  C   PHE E   4      -4.127 -11.874  -4.912  1.00 39.00 LIG 0.20  C 
ATOM     18 OXT  PHE E   4      -5.250 -11.590  -4.490  1.00 39.22 LIG-0.65  OA
ATOM     19 O    PHE E   4      -3.716 -13.027  -4.748  1.00 39.04 LIG-0.65  OA
ENDBRANCH 16 17
BRANCH 16 20
ATOM     20  CB  PHE E   4      -3.679  -9.424  -5.182  1.00 37.57 LIG 0.07  C 
BRANCH 20 21
ATOM     21  CG  PHE E   4      -3.106  -8.322  -6.036  1.00 36.97 LIG-0.06  A 
ATOM     22  CD1 PHE E   4      -3.927  -7.562  -6.870  1.00 35.77 LIG 0.01  A 
ATOM     23  CE1 PHE E   4      -3.397  -6.559  -7.666  1.00 35.50 LIG 0.00  A 
ATOM     24  CZ  PHE E   4      -2.033  -6.303  -7.632  1.00 35.20 LIG 0.00  A 
ATOM     25  CE2 PHE E   4      -1.203  -7.054  -6.809  1.00 34.71 LIG 0.00  A 
ATOM     26  CD2 PHE E   4      -1.740  -8.055  -6.017  1.00 35.45 LIG 0.01  A 
ENDBRANCH 20 21
ENDBRANCH 16 20
ENDBRANCH 14 16
ENDBRANCH 10 12
ENDBRANCH 8 10
ENDBRANCH 5 6
BRANCH 5 27
ATOM     27  CB  ASP E   2       1.606 -10.139 -10.197  1.00 43.54 LIG 0.15  C 
BRANCH 27 28
ATOM     28  CG  ASP E   2       2.713 -10.492 -11.183  1.00 45.99 LIG 0.17  C 
ATOM     29 OD2  ASP E   2       2.815  -9.813 -12.230  1.00 46.35 LIG-0.65  OA
ATOM     30 OD1  ASP E   2       3.487 -11.436 -10.911  1.00 46.97 LIG-0.65  OA
ENDBRANCH 27 28
ENDBRANCH 5 27
ENDBRANCH 3 5
BRANCH 1 31
ATOM     31  CA  LEU E   1       0.416  -6.022 -11.328  1.00 39.47 LIG 0.18  C 
BRANCH 31 32
ATOM     32  CB  LEU E   1      -0.677  -5.123 -10.722  1.00 38.97 LIG 0.04  C 
BRANCH 32 33
ATOM     33  CG  LEU E   1      -0.335  -4.412  -9.402  1.00 40.05 LIG-0.02  C 
ATOM     34  CD2 LEU E   1      -1.249  -3.214  -9.156  1.00 40.58 LIG 0.01  C 
ATOM     35  CD1 LEU E   1       1.125  -3.985  -9.363  1.00 39.33 LIG 0.01  C 
ENDBRANCH 32 33
ENDBRANCH 31 32
BRANCH 31 36
ATOM     36  N   LEU E   1       0.240  -6.150 -12.775  1.00 38.97 LIG-0.35  N 
ATOM     37  C   GLN E   0       1.273  -6.326 -13.596  1.00 38.27 LIG 0.24  C 
ATOM     38 O    GLN E   0       2.447  -6.378 -13.211  1.00 40.12 LIG-0.27  OA
ATOM     39 H    LEU E   1      -0.578  -6.103 -13.037  1.00 38.97 LIG 0.16  HD
BRANCH 37 40
ATOM     40  CA  GLN E   0       0.929  -6.484 -15.077  1.00 36.47 LIG 0.18  C 
BRANCH 40 41
ATOM     41  N   GLN E   0      -0.027  -5.438 -15.558  1.00 35.61 LIG-0.35  N 
ATOM     42  C   ACE E  -1      -0.865  -5.605 -16.587  1.00 35.56 LIG 0.21  C 
ATOM     43 O    ACE E  -1      -0.937  -6.625 -17.258  1.00 35.09 LIG-0.27  OA
ATOM     44  CH3 ACE E  -1      -1.627  -4.372 -17.015  1.00 35.40 LIG 0.12  C 
ATOM     45 H    GLN E   0       0.013  -4.708 -15.106  1.00 35.61 LIG 0.16  HD
ENDBRANCH 40 41
BRANCH 40 46
ATOM     46  CB  GLN E   0       2.219  -6.466 -15.908  1.00 35.42 LIG 0.04  C 
BRANCH 46 47
ATOM     47  CG  GLN E   0       2.963  -5.132 -15.865  1.00 33.87 LIG 0.10  C 
BRANCH 47 48
ATOM     48  CD  GLN E   0       2.520  -4.188 -16.968  1.00 33.67 LIG 0.21  C 
ATOM     49 OE1  GLN E   0       2.614  -2.970 -16.827  1.00 31.67 LIG-0.27  OA
ATOM     50  NE2 GLN E   0       2.025  -4.749 -18.069  1.00 33.23 LIG-0.37  N 
ATOM     51 22HE GLN E   0       1.754  -4.254 -18.718  1.00 33.23 LIG 0.16  HD
ATOM     52 21HE GLN E   0       1.975  -5.606 -18.130  1.00 33.23 LIG 0.16  HD
ENDBRANCH 47 48
ENDBRANCH 46 47
ENDBRANCH 40 46
ENDBRANCH 37 40
ENDBRANCH 31 36
ENDBRANCH 1 31
TORSDOF 19
ENDMDL
MODEL 27
USER: ADFR SOLUTION from run 183
USER: SCORE 14.228626 LL:  -3.758 LR: -12.384 RR:   0.000 FEB:  -6.716
USER: RMSD 11.335537
USER: SEED 182
USER: STATUS searching
USER: GENES 21
USER: genes 0 Translation |==|  0.34084 0.57824 0.59721
USER: genes 1 Rotation |==|  0.44948 0.15323 0.64573 0.82551
USER: genes 2 Torsion [C]-N--CA-[CB] |==|  0.87194
USER: genes 3 Torsion [N]-CA--C-[N] |==|  0.86264
USER: genes 4 Torsion [C]-N--CA-[CB] |==|  0.15961
USER: genes 5 Torsion [N]-CA--C-[N] |==|  0.00879
USER: genes 6 Torsion [C]-N--CA-[CB] |==|  0.19120
USER: genes 7 Torsion [N]-CA--C-[O] |==|  0.16971
USER: genes 8 Torsion [N]-CA--CB-[CG] |==|  0.73643
USER: genes 9 Torsion [CA]-CB--CG-[CD1] |==|  0.40136
USER: genes 10 Torsion [N]-CA--CB-[CG] |==|  0.71586
USER: genes 11 Torsion [CA]-CB--CG-[OD2] |==|  0.56438
USER: genes 12 Torsion [N]-C--CA-[N] |==|  0.63096
USER: genes 13 Torsion [C]-CA--CB-[CG] |==|  0.41924
USER: genes 14 Torsion [CA]-CB--CG-[CD2] |==|  0.89490
USER: genes 15 Torsion [C]-CA--N-[C] |==|  0.63990
USER: genes 16 Torsion [N]-C--CA-[N] |==|  0.29366
USER: genes 17 Torsion [C]-CA--N-[C] |==|  0.64576
USER: genes 18 Torsion [C]-CA--CB-[CG] |==|  0.27753
USER: genes 19 Torsion [CA]-CB--CG-[CD] |==|  0.24196
USER: genes 20 Torsion [CB]-CG--CD-[OE1] |==|  0.99762
ROOT
ATOM      1  C   LEU E   1      -0.189  -5.767 -10.904  1.00 39.66 LIG 0.24  C 
ATOM      2 O    LEU E   1      -1.369  -5.640 -11.246  1.00 37.26 LIG-0.27  OA
ATOM      3  N   ASP E   2       0.255  -5.445  -9.688  1.00 41.55 LIG-0.35  N 
ATOM      4 H    ASP E   2       1.076  -5.532  -9.444  1.00 41.55 LIG 0.16  HD
ENDROOT
BRANCH 3 5
ATOM      5  CA  ASP E   2      -0.624  -4.905  -8.645  1.00 42.33 LIG 0.19  C 
BRANCH 5 6
ATOM      6  C   ASP E   2      -1.478  -6.004  -8.022  1.00 41.58 LIG 0.24  C 
ATOM      7 O    ASP E   2      -1.543  -6.129  -6.794  1.00 40.78 LIG-0.27  OA
ATOM      8  N   ALA E   3      -2.121  -6.800  -8.879  1.00 40.17 LIG-0.35  N 
ATOM      9 H    ALA E   3      -2.056  -6.722  -9.733  1.00 40.17 LIG 0.16  HD
BRANCH 8 10
ATOM     10  CA  ALA E   3      -3.005  -7.891  -8.450  1.00 38.52 LIG 0.17  C 
ATOM     11  CB  ALA E   3      -4.121  -7.345  -7.561  1.00 38.62 LIG 0.04  C 
BRANCH 10 12
ATOM     12  C   ALA E   3      -3.594  -8.688  -9.614  1.00 38.02 LIG 0.24  C 
ATOM     13 O    ALA E   3      -4.400  -9.597  -9.408  1.00 36.71 LIG-0.27  OA
ATOM     14  N   PHE E   4      -3.181  -8.334 -10.828  1.00 38.01 LIG-0.34  N 
ATOM     15 H    PHE E   4      -2.555  -7.761 -10.963  1.00 38.01 LIG 0.16  HD
BRANCH 14 16
ATOM     16  CA  PHE E   4      -3.749  -8.885 -12.057  1.00 38.29 LIG 0.19  C 
BRANCH 16 17
ATOM     17  C   PHE E   4      -2.900  -8.461 -13.252  1.00 39.00 LIG 0.20  C 
ATOM     18 OXT  PHE E   4      -3.375  -7.760 -14.148  1.00 39.22 LIG-0.65  OA
ATOM     19 O    PHE E   4      -1.712  -8.790 -13.336  1.00 39.04 LIG-0.65  OA
ENDBRANCH 16 17
BRANCH 16 20
ATOM     20  CB  PHE E   4      -5.194  -8.392 -12.250  1.00 37.57 LIG 0.07  C 
BRANCH 20 21
ATOM     21  CG  PHE E   4      -6.235  -9.348 -11.723  1.00 36.97 LIG-0.06  A 
ATOM     22  CD1 PHE E   4      -7.409  -8.874 -11.136  1.00 35.77 LIG 0.01  A 
ATOM     23  CE1 PHE E   4      -8.359  -9.753 -10.638  1.00 35.50 LIG 0.00  A 
ATOM     24  CZ  PHE E   4      -8.143 -11.121 -10.728  1.00 35.20 LIG 0.00  A 
ATOM     25  CE2 PHE E   4      -6.977 -11.606 -11.307  1.00 34.71 LIG 0.00  A 
ATOM     26  CD2 PHE E   4      -6.032 -10.722 -11.801  1.00 35.45 LIG 0.01  A 
ENDBRANCH 20 21
ENDBRANCH 16 20
ENDBRANCH 14 16
ENDBRANCH 10 12
ENDBRANCH 8 10
ENDBRANCH 5 6
BRANCH 5 27
ATOM     27  CB  ASP E   2      -1.525  -3.797  -9.205  1.00 43.54 LIG 0.15  C 
BRANCH 27 28
ATOM     28  CG  ASP E   2      -1.043  -2.401  -8.831  1.00 45.99 LIG 0.17  C 
ATOM     29 OD2  ASP E   2      -1.875  -1.465  -8.830  1.00 46.35 LIG-0.65  OA
ATOM     30 OD1  ASP E   2       0.160  -2.237  -8.528  1.00 46.97 LIG-0.65  OA
ENDBRANCH 27 28
ENDBRANCH 5 27
ENDBRANCH 3 5
BRANCH 1 31
ATOM     31  CA  LEU E   1       0.850  -6.341 -11.877  1.00 39.47 LIG 0.18  C 
BRANCH 31 32
ATOM     32  CB  LEU E   1       2.278  -6.259 -11.310  1.00 38.97 LIG 0.04  C 
BRANCH 32 33
ATOM     33  CG  LEU E   1       3.272  -7.335 -11.779  1.00 40.05 LIG-0.02  C 
ATOM     34  CD2 LEU E   1       2.601  -8.699 -11.918  1.00 40.58 LIG 0.01  C 
ATOM     35  CD1 LEU E   1       4.473  -7.425 -10.848  1.00 39.33 LIG 0.01  C 
ENDBRANCH 32 33
ENDBRANCH 31 32
BRANCH 31 36
ATOM     36  N   LEU E   1       0.775  -5.703 -13.192  1.00 38.97 LIG-0.35  N 
ATOM     37  C   GLN E   0       0.706  -6.415 -14.316  1.00 38.27 LIG 0.24  C 
ATOM     38 O    GLN E   0       0.714  -7.650 -14.340  1.00 40.12 LIG-0.27  OA
ATOM     39 H    LEU E   1       0.780  -4.844 -13.169  1.00 38.97 LIG 0.16  HD
BRANCH 37 40
ATOM     40  CA  GLN E   0       0.592  -5.609 -15.609  1.00 36.47 LIG 0.18  C 
BRANCH 40 41
ATOM     41  N   GLN E   0       1.868  -5.598 -16.392  1.00 35.61 LIG-0.35  N 
ATOM     42  C   ACE E  -1       2.470  -4.486 -16.827  1.00 35.56 LIG 0.21  C 
ATOM     43 O    ACE E  -1       2.039  -3.355 -16.649  1.00 35.09 LIG-0.27  OA
ATOM     44  CH3 ACE E  -1       3.656  -4.700 -17.738  1.00 35.40 LIG 0.12  C 
ATOM     45 H    GLN E   0       2.184  -6.384 -16.537  1.00 35.61 LIG 0.16  HD
ENDBRANCH 40 41
BRANCH 40 46
ATOM     46  CB  GLN E   0      -0.561  -6.163 -16.458  1.00 35.42 LIG 0.04  C 
BRANCH 46 47
ATOM     47  CG  GLN E   0      -1.852  -5.352 -16.351  1.00 33.87 LIG 0.10  C 
BRANCH 47 48
ATOM     48  CD  GLN E   0      -1.896  -4.205 -17.344  1.00 33.67 LIG 0.21  C 
ATOM     49 OE1  GLN E   0      -0.954  -3.999 -18.108  1.00 31.67 LIG-0.27  OA
ATOM     50  NE2 GLN E   0      -2.989  -3.444 -17.328  1.00 33.23 LIG-0.37  N 
ATOM     51 22HE GLN E   0      -3.056  -2.777 -17.868  1.00 33.23 LIG 0.16  HD
ATOM     52 21HE GLN E   0      -3.627  -3.620 -16.779  1.00 33.23 LIG 0.16  HD
ENDBRANCH 47 48
ENDBRANCH 46 47
ENDBRANCH 40 46
ENDBRANCH 37 40
ENDBRANCH 31 36
ENDBRANCH 1 31
TORSDOF 19
ENDMDL
MODEL 28
USER: ADFR SOLUTION from run 146
USER: SCORE 14.062259 LL:  -4.385 LR: -12.367 RR:   0.000 FEB:  -6.699
USER: RMSD 3.776390
USER: SEED 145
USER: STATUS no improvement in best in 19 clusters for 5 generations
USER: GENES 21
USER: genes 0 Translation |==|  0.50721 0.49346 0.53151
USER: genes 1 Rotation |==|  0.16166 0.52375 0.31031 0.81461
USER: genes 2 Torsion [C]-N--CA-[CB] |==|  0.51233
USER: genes 3 Torsion [N]-CA--C-[N] |==|  0.35493
USER: genes 4 Torsion [C]-N--CA-[CB] |==|  0.25531
USER: genes 5 Torsion [N]-CA--C-[N] |==|  0.96730
USER: genes 6 Torsion [C]-N--CA-[CB] |==|  0.27107
USER: genes 7 Torsion [N]-CA--C-[O] |==|  0.73581
USER: genes 8 Torsion [N]-CA--CB-[CG] |==|  0.06397
USER: genes 9 Torsion [CA]-CB--CG-[CD1] |==|  0.27026
USER: genes 10 Torsion [N]-CA--CB-[CG] |==|  0.54371
USER: genes 11 Torsion [CA]-CB--CG-[OD2] |==|  0.40051
USER: genes 12 Torsion [N]-C--CA-[N] |==|  0.17566
USER: genes 13 Torsion [C]-CA--CB-[CG] |==|  0.47672
USER: genes 14 Torsion [CA]-CB--CG-[CD2] |==|  0.84971
USER: genes 15 Torsion [C]-CA--N-[C] |==|  0.72942
USER: genes 16 Torsion [N]-C--CA-[N] |==|  0.92624
USER: genes 17 Torsion [C]-CA--N-[C] |==|  0.22058
USER: genes 18 Torsion [C]-CA--CB-[CG] |==|  0.08110
USER: genes 19 Torsion [CA]-CB--CG-[CD] |==|  0.66514
USER: genes 20 Torsion [CB]-CG--CD-[OE1] |==|  0.59537
ROOT
ATOM      1  C   LEU E   1       3.928  -7.102 -12.037  1.00 39.66 LIG 0.24  C 
ATOM      2 O    LEU E   1       4.743  -6.289 -12.485  1.00 37.26 LIG-0.27  OA
ATOM      3  N   ASP E   2       4.243  -8.018 -11.121  1.00 41.55 LIG-0.35  N 
ATOM      4 H    ASP E   2       3.680  -8.587 -10.804  1.00 41.55 LIG 0.16  HD
ENDROOT
BRANCH 3 5
ATOM      5  CA  ASP E   2       5.594  -8.143 -10.562  1.00 42.33 LIG 0.19  C 
BRANCH 5 6
ATOM      6  C   ASP E   2       6.638  -8.268 -11.667  1.00 41.58 LIG 0.24  C 
ATOM      7 O    ASP E   2       6.517  -9.122 -12.552  1.00 40.78 LIG-0.27  OA
ATOM      8  N   ALA E   3       7.662  -7.415 -11.600  1.00 40.17 LIG-0.35  N 
ATOM      9 H    ALA E   3       7.752  -6.836 -10.971  1.00 40.17 LIG 0.16  HD
BRANCH 8 10
ATOM     10  CA  ALA E   3       8.741  -7.380 -12.596  1.00 38.52 LIG 0.17  C 
ATOM     11  CB  ALA E   3       8.406  -6.378 -13.699  1.00 38.62 LIG 0.04  C 
BRANCH 10 12
ATOM     12  C   ALA E   3      10.112  -7.071 -11.995  1.00 38.02 LIG 0.24  C 
ATOM     13 O    ALA E   3      11.137  -7.218 -12.662  1.00 36.71 LIG-0.27  OA
ATOM     14  N   PHE E   4      10.110  -6.643 -10.735  1.00 38.01 LIG-0.34  N 
ATOM     15 H    PHE E   4       9.404  -6.624 -10.245  1.00 38.01 LIG 0.16  HD
BRANCH 14 16
ATOM     16  CA  PHE E   4      11.310  -6.161 -10.054  1.00 38.29 LIG 0.19  C 
BRANCH 16 17
ATOM     17  C   PHE E   4      11.304  -6.633  -8.602  1.00 39.00 LIG 0.20  C 
ATOM     18 OXT  PHE E   4      11.755  -7.738  -8.295  1.00 39.22 LIG-0.65  OA
ATOM     19 O    PHE E   4      10.870  -5.908  -7.701  1.00 39.04 LIG-0.65  OA
ENDBRANCH 16 17
BRANCH 16 20
ATOM     20  CB  PHE E   4      11.373  -4.624 -10.097  1.00 37.57 LIG 0.07  C 
BRANCH 20 21
ATOM     21  CG  PHE E   4      10.029  -3.968 -10.294  1.00 36.97 LIG-0.06  A 
ATOM     22  CD1 PHE E   4       9.304  -3.481  -9.205  1.00 35.77 LIG 0.01  A 
ATOM     23  CE1 PHE E   4       8.062  -2.893  -9.386  1.00 35.50 LIG 0.00  A 
ATOM     24  CZ  PHE E   4       7.533  -2.782 -10.665  1.00 35.20 LIG 0.00  A 
ATOM     25  CE2 PHE E   4       8.243  -3.265 -11.757  1.00 34.71 LIG 0.00  A 
ATOM     26  CD2 PHE E   4       9.482  -3.853 -11.568  1.00 35.45 LIG 0.01  A 
ENDBRANCH 20 21
ENDBRANCH 16 20
ENDBRANCH 14 16
ENDBRANCH 10 12
ENDBRANCH 8 10
ENDBRANCH 5 6
BRANCH 5 27
ATOM     27  CB  ASP E   2       5.688  -9.348  -9.616  1.00 43.54 LIG 0.15  C 
BRANCH 27 28
ATOM     28  CG  ASP E   2       6.926  -9.305  -8.729  1.00 45.99 LIG 0.17  C 
ATOM     29 OD2  ASP E   2       6.832  -9.734  -7.556  1.00 46.35 LIG-0.65  OA
ATOM     30 OD1  ASP E   2       7.993  -8.855  -9.201  1.00 46.97 LIG-0.65  OA
ENDBRANCH 27 28
ENDBRANCH 5 27
ENDBRANCH 3 5
BRANCH 1 31
ATOM     31  CA  LEU E   1       2.467  -7.083 -12.506  1.00 39.47 LIG 0.18  C 
BRANCH 31 32
ATOM     32  CB  LEU E   1       2.256  -6.137 -13.701  1.00 38.97 LIG 0.04  C 
BRANCH 32 33
ATOM     33  CG  LEU E   1       0.879  -6.182 -14.386  1.00 40.05 LIG-0.02  C 
ATOM     34  CD2 LEU E   1       0.509  -7.600 -14.813  1.00 40.58 LIG 0.01  C 
ATOM     35  CD1 LEU E   1       0.820  -5.235 -15.576  1.00 39.33 LIG 0.01  C 
ENDBRANCH 32 33
ENDBRANCH 31 32
BRANCH 31 36
ATOM     36  N   LEU E   1       1.549  -6.754 -11.415  1.00 38.97 LIG-0.35  N 
ATOM     37  C   GLN E   0       0.901  -7.696 -10.732  1.00 38.27 LIG 0.24  C 
ATOM     38 O    GLN E   0       1.009  -8.904 -10.971  1.00 40.12 LIG-0.27  OA
ATOM     39 H    LEU E   1       1.471  -5.911 -11.261  1.00 38.97 LIG 0.16  HD
BRANCH 37 40
ATOM     40  CA  GLN E   0       0.009  -7.201  -9.595  1.00 36.47 LIG 0.18  C 
BRANCH 40 41
ATOM     41  N   GLN E   0       0.469  -5.891  -9.034  1.00 35.61 LIG-0.35  N 
ATOM     42  C   ACE E  -1       0.229  -4.706  -9.605  1.00 35.56 LIG 0.21  C 
ATOM     43 O    ACE E  -1      -0.380  -4.559 -10.656  1.00 35.09 LIG-0.27  OA
ATOM     44  CH3 ACE E  -1       0.921  -3.523  -8.969  1.00 35.40 LIG 0.12  C 
ATOM     45 H    GLN E   0       0.909  -5.972  -8.299  1.00 35.61 LIG 0.16  HD
ENDBRANCH 40 41
BRANCH 40 46
ATOM     46  CB  GLN E   0      -1.442  -7.102 -10.086  1.00 35.42 LIG 0.04  C 
BRANCH 46 47
ATOM     47  CG  GLN E   0      -1.788  -8.098 -11.192  1.00 33.87 LIG 0.10  C 
BRANCH 47 48
ATOM     48  CD  GLN E   0      -2.248  -7.410 -12.464  1.00 33.67 LIG 0.21  C 
ATOM     49 OE1  GLN E   0      -3.107  -7.922 -13.179  1.00 31.67 LIG-0.27  OA
ATOM     50  NE2 GLN E   0      -1.667  -6.249 -12.758  1.00 33.23 LIG-0.37  N 
ATOM     51 22HE GLN E   0      -1.889  -5.826 -13.473  1.00 33.23 LIG 0.16  HD
ATOM     52 21HE GLN E   0      -1.069  -5.923 -12.233  1.00 33.23 LIG 0.16  HD
ENDBRANCH 47 48
ENDBRANCH 46 47
ENDBRANCH 40 46
ENDBRANCH 37 40
ENDBRANCH 31 36
ENDBRANCH 1 31
TORSDOF 19
ENDMDL
MODEL 29
USER: ADFR SOLUTION from run 134
USER: SCORE 14.989201 LL:  -3.951 LR: -12.368 RR:   0.000 FEB:  -6.700
USER: RMSD 4.582374
USER: SEED 133
USER: STATUS no improvement in best in 3 clusters for 5 generations
USER: GENES 21
USER: genes 0 Translation |==|  0.43104 0.54733 0.56229
USER: genes 1 Rotation |==|  0.05548 0.65229 0.48253 0.67001
USER: genes 2 Torsion [C]-N--CA-[CB] |==|  0.17923
USER: genes 3 Torsion [N]-CA--C-[N] |==|  0.63209
USER: genes 4 Torsion [C]-N--CA-[CB] |==|  0.15243
USER: genes 5 Torsion [N]-CA--C-[N] |==|  0.10973
USER: genes 6 Torsion [C]-N--CA-[CB] |==|  0.41064
USER: genes 7 Torsion [N]-CA--C-[O] |==|  0.05840
USER: genes 8 Torsion [N]-CA--CB-[CG] |==|  0.14691
USER: genes 9 Torsion [CA]-CB--CG-[CD1] |==|  0.72102
USER: genes 10 Torsion [N]-CA--CB-[CG] |==|  0.58326
USER: genes 11 Torsion [CA]-CB--CG-[OD2] |==|  0.36813
USER: genes 12 Torsion [N]-C--CA-[N] |==|  0.87306
USER: genes 13 Torsion [C]-CA--CB-[CG] |==|  0.44132
USER: genes 14 Torsion [CA]-CB--CG-[CD2] |==|  0.92093
USER: genes 15 Torsion [C]-CA--N-[C] |==|  0.66214
USER: genes 16 Torsion [N]-C--CA-[N] |==|  0.89076
USER: genes 17 Torsion [C]-CA--N-[C] |==|  0.84121
USER: genes 18 Torsion [C]-CA--CB-[CG] |==|  0.26305
USER: genes 19 Torsion [CA]-CB--CG-[CD] |==|  0.71839
USER: genes 20 Torsion [CB]-CG--CD-[OE1] |==|  0.95589
ROOT
ATOM      1  C   LEU E   1       2.043  -6.254 -11.506  1.00 39.66 LIG 0.24  C 
ATOM      2 O    LEU E   1       1.989  -5.909 -12.691  1.00 37.26 LIG-0.27  OA
ATOM      3  N   ASP E   2       3.089  -6.894 -10.981  1.00 41.55 LIG-0.35  N 
ATOM      4 H    ASP E   2       3.133  -7.135 -10.157  1.00 41.55 LIG 0.16  HD
ENDROOT
BRANCH 3 5
ATOM      5  CA  ASP E   2       4.274  -7.249 -11.771  1.00 42.33 LIG 0.19  C 
BRANCH 5 6
ATOM      6  C   ASP E   2       5.230  -8.123 -10.968  1.00 41.58 LIG 0.24  C 
ATOM      7 O    ASP E   2       4.807  -9.095 -10.331  1.00 40.78 LIG-0.27  OA
ATOM      8  N   ALA E   3       6.514  -7.763 -10.998  1.00 40.17 LIG-0.35  N 
ATOM      9 H    ALA E   3       6.800  -7.075 -11.425  1.00 40.17 LIG 0.16  HD
BRANCH 8 10
ATOM     10  CA  ALA E   3       7.572  -8.508 -10.302  1.00 38.52 LIG 0.17  C 
ATOM     11  CB  ALA E   3       7.552  -9.974 -10.732  1.00 38.62 LIG 0.04  C 
BRANCH 10 12
ATOM     12  C   ALA E   3       8.966  -7.914 -10.501  1.00 38.02 LIG 0.24  C 
ATOM     13 O    ALA E   3       9.943  -8.646 -10.660  1.00 36.71 LIG-0.27  OA
ATOM     14  N   PHE E   4       9.037  -6.585 -10.489  1.00 38.01 LIG-0.34  N 
ATOM     15 H    PHE E   4       8.369  -6.080 -10.291  1.00 38.01 LIG 0.16  HD
BRANCH 14 16
ATOM     16  CA  PHE E   4      10.257  -5.848 -10.810  1.00 38.29 LIG 0.19  C 
BRANCH 16 17
ATOM     17  C   PHE E   4      11.057  -5.595  -9.536  1.00 39.00 LIG 0.20  C 
ATOM     18 OXT  PHE E   4      11.876  -4.675  -9.476  1.00 39.22 LIG-0.65  OA
ATOM     19 O    PHE E   4      10.884  -6.289  -8.529  1.00 39.04 LIG-0.65  OA
ENDBRANCH 16 17
BRANCH 16 20
ATOM     20  CB  PHE E   4       9.913  -4.505 -11.480  1.00 37.57 LIG 0.07  C 
BRANCH 20 21
ATOM     21  CG  PHE E   4       8.934  -3.669 -10.694  1.00 36.97 LIG-0.06  A 
ATOM     22  CD1 PHE E   4       7.584  -3.632 -11.044  1.00 35.77 LIG 0.01  A 
ATOM     23  CE1 PHE E   4       6.688  -2.851 -10.331  1.00 35.50 LIG 0.00  A 
ATOM     24  CZ  PHE E   4       7.136  -2.100  -9.253  1.00 35.20 LIG 0.00  A 
ATOM     25  CE2 PHE E   4       8.478  -2.125  -8.896  1.00 34.71 LIG 0.00  A 
ATOM     26  CD2 PHE E   4       9.368  -2.906  -9.614  1.00 35.45 LIG 0.01  A 
ENDBRANCH 20 21
ENDBRANCH 16 20
ENDBRANCH 14 16
ENDBRANCH 10 12
ENDBRANCH 8 10
ENDBRANCH 5 6
BRANCH 5 27
ATOM     27  CB  ASP E   2       5.003  -5.992 -12.263  1.00 43.54 LIG 0.15  C 
BRANCH 27 28
ATOM     28  CG  ASP E   2       5.724  -6.208 -13.587  1.00 45.99 LIG 0.17  C 
ATOM     29 OD2  ASP E   2       5.574  -5.356 -14.492  1.00 46.35 LIG-0.65  OA
ATOM     30 OD1  ASP E   2       6.448  -7.219 -13.723  1.00 46.97 LIG-0.65  OA
ENDBRANCH 27 28
ENDBRANCH 5 27
ENDBRANCH 3 5
BRANCH 1 31
ATOM     31  CA  LEU E   1       0.890  -5.933 -10.545  1.00 39.47 LIG 0.18  C 
BRANCH 31 32
ATOM     32  CB  LEU E   1       1.188  -4.695  -9.680  1.00 38.97 LIG 0.04  C 
BRANCH 32 33
ATOM     33  CG  LEU E   1      -0.022  -3.976  -9.060  1.00 40.05 LIG-0.02  C 
ATOM     34  CD2 LEU E   1      -1.276  -4.148  -9.913  1.00 40.58 LIG 0.01  C 
ATOM     35  CD1 LEU E   1       0.267  -2.500  -8.831  1.00 39.33 LIG 0.01  C 
ENDBRANCH 32 33
ENDBRANCH 31 32
BRANCH 31 36
ATOM     36  N   LEU E   1       0.544  -7.081  -9.707  1.00 38.97 LIG-0.35  N 
ATOM     37  C   GLN E   0      -0.680  -7.605  -9.703  1.00 38.27 LIG 0.24  C 
ATOM     38 O    GLN E   0      -1.612  -7.162 -10.384  1.00 40.12 LIG-0.27  OA
ATOM     39 H    LEU E   1       1.194  -7.378  -9.228  1.00 38.97 LIG 0.16  HD
BRANCH 37 40
ATOM     40  CA  GLN E   0      -0.879  -8.827  -8.807  1.00 36.47 LIG 0.18  C 
BRANCH 40 41
ATOM     41  N   GLN E   0       0.293  -9.757  -8.837  1.00 35.61 LIG-0.35  N 
ATOM     42  C   ACE E  -1       0.778 -10.317  -9.951  1.00 35.56 LIG 0.21  C 
ATOM     43 O    ACE E  -1       0.310 -10.145 -11.068  1.00 35.09 LIG-0.27  OA
ATOM     44  CH3 ACE E  -1       1.859 -11.352  -9.744  1.00 35.40 LIG 0.12  C 
ATOM     45 H    GLN E   0       0.632  -9.900  -8.060  1.00 35.61 LIG 0.16  HD
ENDBRANCH 40 41
BRANCH 40 46
ATOM     46  CB  GLN E   0      -1.174  -8.369  -7.372  1.00 35.42 LIG 0.04  C 
BRANCH 46 47
ATOM     47  CG  GLN E   0      -2.664  -8.279  -7.046  1.00 33.87 LIG 0.10  C 
BRANCH 47 48
ATOM     48  CD  GLN E   0      -3.179  -6.852  -7.087  1.00 33.67 LIG 0.21  C 
ATOM     49 OE1  GLN E   0      -2.397  -5.902  -7.069  1.00 31.67 LIG-0.27  OA
ATOM     50  NE2 GLN E   0      -4.500  -6.695  -7.130  1.00 33.23 LIG-0.37  N 
ATOM     51 22HE GLN E   0      -4.839  -5.905  -7.147  1.00 33.23 LIG 0.16  HD
ATOM     52 21HE GLN E   0      -5.014  -7.385  -7.141  1.00 33.23 LIG 0.16  HD
ENDBRANCH 47 48
ENDBRANCH 46 47
ENDBRANCH 40 46
ENDBRANCH 37 40
ENDBRANCH 31 36
ENDBRANCH 1 31
TORSDOF 19
ENDMDL
MODEL 30
USER: ADFR SOLUTION from run 120
USER: SCORE 14.151257 LL:  -3.820 LR: -12.334 RR:   0.000 FEB:  -6.666
USER: RMSD 4.654436
USER: SEED 119
USER: STATUS searching
USER: GENES 21
USER: genes 0 Translation |==|  0.50753 0.51576 0.56317
USER: genes 1 Rotation |==|  0.17637 0.56370 0.30863 0.82340
USER: genes 2 Torsion [C]-N--CA-[CB] |==|  0.51675
USER: genes 3 Torsion [N]-CA--C-[N] |==|  0.35308
USER: genes 4 Torsion [C]-N--CA-[CB] |==|  0.22222
USER: genes 5 Torsion [N]-CA--C-[N] |==|  0.01679
USER: genes 6 Torsion [C]-N--CA-[CB] |==|  0.31701
USER: genes 7 Torsion [N]-CA--C-[O] |==|  0.65717
USER: genes 8 Torsion [N]-CA--CB-[CG] |==|  0.91221
USER: genes 9 Torsion [CA]-CB--CG-[CD1] |==|  0.37303
USER: genes 10 Torsion [N]-CA--CB-[CG] |==|  0.56796
USER: genes 11 Torsion [CA]-CB--CG-[OD2] |==|  0.92452
USER: genes 12 Torsion [N]-C--CA-[N] |==|  0.72917
USER: genes 13 Torsion [C]-CA--CB-[CG] |==|  0.30471
USER: genes 14 Torsion [CA]-CB--CG-[CD2] |==|  0.26816
USER: genes 15 Torsion [C]-CA--N-[C] |==|  0.65835
USER: genes 16 Torsion [N]-C--CA-[N] |==|  0.87459
USER: genes 17 Torsion [C]-CA--N-[C] |==|  0.85543
USER: genes 18 Torsion [C]-CA--CB-[CG] |==|  0.20165
USER: genes 19 Torsion [CA]-CB--CG-[CD] |==|  0.65690
USER: genes 20 Torsion [CB]-CG--CD-[OE1] |==|  0.73392
ROOT
ATOM      1  C   LEU E   1       3.936  -6.751 -11.491  1.00 39.66 LIG 0.24  C 
ATOM      2 O    LEU E   1       4.801  -5.972 -11.903  1.00 37.26 LIG-0.27  OA
ATOM      3  N   ASP E   2       4.212  -7.800 -10.716  1.00 41.55 LIG-0.35  N 
ATOM      4 H    ASP E   2       3.614  -8.346 -10.425  1.00 41.55 LIG 0.16  HD
ENDROOT
BRANCH 3 5
ATOM      5  CA  ASP E   2       5.576  -8.124 -10.283  1.00 42.33 LIG 0.19  C 
BRANCH 5 6
ATOM      6  C   ASP E   2       6.533  -8.172 -11.468  1.00 41.58 LIG 0.24  C 
ATOM      7 O    ASP E   2       6.283  -8.881 -12.450  1.00 40.78 LIG-0.27  OA
ATOM      8  N   ALA E   3       7.631  -7.421 -11.362  1.00 40.17 LIG-0.35  N 
ATOM      9 H    ALA E   3       7.810  -6.946 -10.669  1.00 40.17 LIG 0.16  HD
BRANCH 8 10
ATOM     10  CA  ALA E   3       8.645  -7.330 -12.421  1.00 38.52 LIG 0.17  C 
ATOM     11  CB  ALA E   3       8.183  -6.363 -13.509  1.00 38.62 LIG 0.04  C 
BRANCH 10 12
ATOM     12  C   ALA E   3      10.027  -6.931 -11.905  1.00 38.02 LIG 0.24  C 
ATOM     13 O    ALA E   3      10.949  -6.707 -12.691  1.00 36.71 LIG-0.27  OA
ATOM     14  N   PHE E   4      10.151  -6.847 -10.583  1.00 38.01 LIG-0.34  N 
ATOM     15 H    PHE E   4       9.533  -7.088 -10.036  1.00 38.01 LIG 0.16  HD
BRANCH 14 16
ATOM     16  CA  PHE E   4      11.352  -6.337  -9.925  1.00 38.29 LIG 0.19  C 
BRANCH 16 17
ATOM     17  C   PHE E   4      11.875  -7.371  -8.931  1.00 39.00 LIG 0.20  C 
ATOM     18 OXT  PHE E   4      12.178  -8.507  -9.303  1.00 39.22 LIG-0.65  OA
ATOM     19 O    PHE E   4      12.030  -7.086  -7.739  1.00 39.04 LIG-0.65  OA
ENDBRANCH 16 17
BRANCH 16 20
ATOM     20  CB  PHE E   4      11.044  -5.022  -9.186  1.00 37.57 LIG 0.07  C 
BRANCH 20 21
ATOM     21  CG  PHE E   4       9.971  -4.193  -9.847  1.00 36.97 LIG-0.06  A 
ATOM     22  CD1 PHE E   4       8.943  -3.623  -9.095  1.00 35.77 LIG 0.01  A 
ATOM     23  CE1 PHE E   4       7.948  -2.875  -9.705  1.00 35.50 LIG 0.00  A 
ATOM     24  CZ  PHE E   4       7.976  -2.685 -11.080  1.00 35.20 LIG 0.00  A 
ATOM     25  CE2 PHE E   4       8.992  -3.250 -11.841  1.00 34.71 LIG 0.00  A 
ATOM     26  CD2 PHE E   4       9.981  -3.998 -11.225  1.00 35.45 LIG 0.01  A 
ENDBRANCH 20 21
ENDBRANCH 16 20
ENDBRANCH 14 16
ENDBRANCH 10 12
ENDBRANCH 8 10
ENDBRANCH 5 6
BRANCH 5 27
ATOM     27  CB  ASP E   2       5.610  -9.460  -9.528  1.00 43.54 LIG 0.15  C 
BRANCH 27 28
ATOM     28  CG  ASP E   2       6.793  -9.568  -8.574  1.00 45.99 LIG 0.17  C 
ATOM     29 OD2  ASP E   2       7.828  -8.915  -8.834  1.00 46.35 LIG-0.65  OA
ATOM     30 OD1  ASP E   2       6.687 -10.294  -7.560  1.00 46.97 LIG-0.65  OA
ENDBRANCH 27 28
ENDBRANCH 5 27
ENDBRANCH 3 5
BRANCH 1 31
ATOM     31  CA  LEU E   1       2.457  -6.532 -11.839  1.00 39.47 LIG 0.18  C 
BRANCH 31 32
ATOM     32  CB  LEU E   1       1.521  -7.092 -10.754  1.00 38.97 LIG 0.04  C 
BRANCH 32 33
ATOM     33  CG  LEU E   1       0.757  -6.065  -9.900  1.00 40.05 LIG-0.02  C 
ATOM     34  CD2 LEU E   1      -0.654  -5.829 -10.432  1.00 40.58 LIG 0.01  C 
ATOM     35  CD1 LEU E   1       1.516  -4.750  -9.804  1.00 39.33 LIG 0.01  C 
ENDBRANCH 32 33
ENDBRANCH 31 32
BRANCH 31 36
ATOM     36  N   LEU E   1       2.119  -7.083 -13.152  1.00 38.97 LIG-0.35  N 
ATOM     37  C   GLN E   0       1.592  -6.330 -14.115  1.00 38.27 LIG 0.24  C 
ATOM     38 O    GLN E   0       1.335  -5.129 -13.977  1.00 40.12 LIG-0.27  OA
ATOM     39 H    LEU E   1       2.290  -7.921 -13.238  1.00 38.97 LIG 0.16  HD
BRANCH 37 40
ATOM     40  CA  GLN E   0       1.330  -7.036 -15.445  1.00 36.47 LIG 0.18  C 
BRANCH 40 41
ATOM     41  N   GLN E   0       2.480  -7.892 -15.876  1.00 35.61 LIG-0.35  N 
ATOM     42  C   ACE E  -1       3.744  -7.462 -15.959  1.00 35.56 LIG 0.21  C 
ATOM     43 O    ACE E  -1       4.101  -6.320 -15.707  1.00 35.09 LIG-0.27  OA
ATOM     44  CH3 ACE E  -1       4.725  -8.434 -16.572  1.00 35.40 LIG 0.12  C 
ATOM     45 H    GLN E   0       2.250  -8.698 -16.068  1.00 35.61 LIG 0.16  HD
ENDBRANCH 40 41
BRANCH 40 46
ATOM     46  CB  GLN E   0       0.043  -7.867 -15.341  1.00 35.42 LIG 0.04  C 
BRANCH 46 47
ATOM     47  CG  GLN E   0      -1.234  -7.028 -15.319  1.00 33.87 LIG 0.10  C 
BRANCH 47 48
ATOM     48  CD  GLN E   0      -2.082  -7.301 -14.090  1.00 33.67 LIG 0.21  C 
ATOM     49 OE1  GLN E   0      -3.013  -8.103 -14.136  1.00 31.67 LIG-0.27  OA
ATOM     50  NE2 GLN E   0      -1.769  -6.624 -12.987  1.00 33.23 LIG-0.37  N 
ATOM     51 22HE GLN E   0      -2.227  -6.739 -12.268  1.00 33.23 LIG 0.16  HD
ATOM     52 21HE GLN E   0      -1.111  -6.070 -12.995  1.00 33.23 LIG 0.16  HD
ENDBRANCH 47 48
ENDBRANCH 46 47
ENDBRANCH 40 46
ENDBRANCH 37 40
ENDBRANCH 31 36
ENDBRANCH 1 31
TORSDOF 19
ENDMDL
MODEL 31
USER: ADFR SOLUTION from run 172
USER: SCORE 15.372901 LL:  -4.267 LR: -12.326 RR:   0.000 FEB:  -6.658
USER: RMSD 10.419601
USER: SEED 171
USER: STATUS no improvement in best in 2 clusters for 5 generations
USER: GENES 21
USER: genes 0 Translation |==|  0.34069 0.48729 0.58840
USER: genes 1 Rotation |==|  0.56896 0.61558 0.02183 0.55691
USER: genes 2 Torsion [C]-N--CA-[CB] |==|  0.77645
USER: genes 3 Torsion [N]-CA--C-[N] |==|  0.20143
USER: genes 4 Torsion [C]-N--CA-[CB] |==|  0.85865
USER: genes 5 Torsion [N]-CA--C-[N] |==|  0.81683
USER: genes 6 Torsion [C]-N--CA-[CB] |==|  0.17997
USER: genes 7 Torsion [N]-CA--C-[O] |==|  0.61907
USER: genes 8 Torsion [N]-CA--CB-[CG] |==|  0.10573
USER: genes 9 Torsion [CA]-CB--CG-[CD1] |==|  0.71443
USER: genes 10 Torsion [N]-CA--CB-[CG] |==|  0.78171
USER: genes 11 Torsion [CA]-CB--CG-[OD2] |==|  0.17392
USER: genes 12 Torsion [N]-C--CA-[N] |==|  0.92778
USER: genes 13 Torsion [C]-CA--CB-[CG] |==|  0.83170
USER: genes 14 Torsion [CA]-CB--CG-[CD2] |==|  0.56873
USER: genes 15 Torsion [C]-CA--N-[C] |==|  0.75313
USER: genes 16 Torsion [N]-C--CA-[N] |==|  0.33799
USER: genes 17 Torsion [C]-CA--N-[C] |==|  0.56838
USER: genes 18 Torsion [C]-CA--CB-[CG] |==|  0.31575
USER: genes 19 Torsion [CA]-CB--CG-[CD] |==|  0.30939
USER: genes 20 Torsion [CB]-CG--CD-[OE1] |==|  0.42417
ROOT
ATOM      1  C   LEU E   1      -0.193  -7.199 -11.056  1.00 39.66 LIG 0.24  C 
ATOM      2 O    LEU E   1      -0.201  -8.200 -10.333  1.00 37.26 LIG-0.27  OA
ATOM      3  N   ASP E   2      -1.291  -6.709 -11.634  1.00 41.55 LIG-0.35  N 
ATOM      4 H    ASP E   2      -1.292  -6.012 -12.138  1.00 41.55 LIG 0.16  HD
ENDROOT
BRANCH 3 5
ATOM      5  CA  ASP E   2      -2.613  -7.321 -11.461  1.00 42.33 LIG 0.19  C 
BRANCH 5 6
ATOM      6  C   ASP E   2      -2.842  -7.739 -10.012  1.00 41.58 LIG 0.24  C 
ATOM      7 O    ASP E   2      -2.838  -8.933  -9.694  1.00 40.78 LIG-0.27  OA
ATOM      8  N   ALA E   3      -3.049  -6.746  -9.145  1.00 40.17 LIG-0.35  N 
ATOM      9 H    ALA E   3      -3.071  -5.918  -9.375  1.00 40.17 LIG 0.16  HD
BRANCH 8 10
ATOM     10  CA  ALA E   3      -3.260  -6.967  -7.709  1.00 38.52 LIG 0.17  C 
ATOM     11  CB  ALA E   3      -4.349  -8.016  -7.493  1.00 38.62 LIG 0.04  C 
BRANCH 10 12
ATOM     12  C   ALA E   3      -1.987  -7.360  -6.960  1.00 38.02 LIG 0.24  C 
ATOM     13 O    ALA E   3      -1.500  -6.611  -6.113  1.00 36.71 LIG-0.27  OA
ATOM     14  N   PHE E   4      -1.462  -8.539  -7.287  1.00 38.01 LIG-0.34  N 
ATOM     15 H    PHE E   4      -1.753  -9.020  -7.939  1.00 38.01 LIG 0.16  HD
BRANCH 14 16
ATOM     16  CA  PHE E   4      -0.338  -9.139  -6.572  1.00 38.29 LIG 0.19  C 
BRANCH 16 17
ATOM     17  C   PHE E   4       0.105 -10.414  -7.284  1.00 39.00 LIG 0.20  C 
ATOM     18 OXT  PHE E   4       0.219 -10.445  -8.512  1.00 39.22 LIG-0.65  OA
ATOM     19 O    PHE E   4       0.384 -11.434  -6.646  1.00 39.04 LIG-0.65  OA
ENDBRANCH 16 17
BRANCH 16 20
ATOM     20  CB  PHE E   4      -0.736  -9.469  -5.123  1.00 37.57 LIG 0.07  C 
BRANCH 20 21
ATOM     21  CG  PHE E   4      -2.147  -9.984  -4.984  1.00 36.97 LIG-0.06  A 
ATOM     22  CD1 PHE E   4      -3.167  -9.157  -4.513  1.00 35.77 LIG 0.01  A 
ATOM     23  CE1 PHE E   4      -4.461  -9.635  -4.371  1.00 35.50 LIG 0.00  A 
ATOM     24  CZ  PHE E   4      -4.747 -10.952  -4.706  1.00 35.20 LIG 0.00  A 
ATOM     25  CE2 PHE E   4      -3.740 -11.787  -5.173  1.00 34.71 LIG 0.00  A 
ATOM     26  CD2 PHE E   4      -2.451 -11.302  -5.311  1.00 35.45 LIG 0.01  A 
ENDBRANCH 20 21
ENDBRANCH 16 20
ENDBRANCH 14 16
ENDBRANCH 10 12
ENDBRANCH 8 10
ENDBRANCH 5 6
BRANCH 5 27
ATOM     27  CB  ASP E   2      -2.783  -8.533 -12.387  1.00 43.54 LIG 0.15  C 
BRANCH 27 28
ATOM     28  CG  ASP E   2      -3.100  -8.137 -13.823  1.00 45.99 LIG 0.17  C 
ATOM     29 OD2  ASP E   2      -2.252  -7.471 -14.458  1.00 46.35 LIG-0.65  OA
ATOM     30 OD1  ASP E   2      -4.188  -8.499 -14.324  1.00 46.97 LIG-0.65  OA
ENDBRANCH 27 28
ENDBRANCH 5 27
ENDBRANCH 3 5
BRANCH 1 31
ATOM     31  CA  LEU E   1       1.111  -6.432 -11.315  1.00 39.47 LIG 0.18  C 
BRANCH 31 32
ATOM     32  CB  LEU E   1       1.471  -5.496 -10.148  1.00 38.97 LIG 0.04  C 
BRANCH 32 33
ATOM     33  CG  LEU E   1       0.457  -4.390  -9.809  1.00 40.05 LIG-0.02  C 
ATOM     34  CD2 LEU E   1       1.125  -3.208  -9.112  1.00 40.58 LIG 0.01  C 
ATOM     35  CD1 LEU E   1      -0.690  -4.927  -8.965  1.00 39.33 LIG 0.01  C 
ENDBRANCH 32 33
ENDBRANCH 31 32
BRANCH 31 36
ATOM     36  N   LEU E   1       1.068  -5.695 -12.578  1.00 38.97 LIG-0.35  N 
ATOM     37  C   GLN E   0       1.449  -6.247 -13.728  1.00 38.27 LIG 0.24  C 
ATOM     38 O    GLN E   0       1.877  -7.403 -13.819  1.00 40.12 LIG-0.27  OA
ATOM     39 H    LEU E   1       0.779  -4.888 -12.507  1.00 38.97 LIG 0.16  HD
BRANCH 37 40
ATOM     40  CA  GLN E   0       1.309  -5.367 -14.970  1.00 36.47 LIG 0.18  C 
BRANCH 40 41
ATOM     41  N   GLN E   0       2.611  -5.168 -15.680  1.00 35.61 LIG-0.35  N 
ATOM     42  C   ACE E  -1       2.882  -4.121 -16.467  1.00 35.56 LIG 0.21  C 
ATOM     43 O    ACE E  -1       2.094  -3.216 -16.707  1.00 35.09 LIG-0.27  OA
ATOM     44  CH3 ACE E  -1       4.190  -4.193 -17.221  1.00 35.40 LIG 0.12  C 
ATOM     45 H    GLN E   0       3.177  -5.798 -15.534  1.00 35.61 LIG 0.16  HD
ENDBRANCH 40 41
BRANCH 40 46
ATOM     46  CB  GLN E   0       0.262  -5.974 -15.913  1.00 35.42 LIG 0.04  C 
BRANCH 46 47
ATOM     47  CG  GLN E   0      -0.996  -5.121 -16.072  1.00 33.87 LIG 0.10  C 
BRANCH 47 48
ATOM     48  CD  GLN E   0      -1.117  -4.524 -17.462  1.00 33.67 LIG 0.21  C 
ATOM     49 OE1  GLN E   0      -2.219  -4.253 -17.935  1.00 31.67 LIG-0.27  OA
ATOM     50  NE2 GLN E   0       0.019  -4.328 -18.128  1.00 33.23 LIG-0.37  N 
ATOM     51 22HE GLN E   0       0.001  -3.999 -18.922  1.00 33.23 LIG 0.16  HD
ATOM     52 21HE GLN E   0       0.772  -4.531 -17.763  1.00 33.23 LIG 0.16  HD
ENDBRANCH 47 48
ENDBRANCH 46 47
ENDBRANCH 40 46
ENDBRANCH 37 40
ENDBRANCH 31 36
ENDBRANCH 1 31
TORSDOF 19
ENDMDL
MODEL 32
USER: ADFR SOLUTION from run 44
USER: SCORE 14.289358 LL:  -3.479 LR: -12.319 RR:   0.000 FEB:  -6.652
USER: RMSD 10.751437
USER: SEED 43
USER: STATUS no improvement in best in 6 clusters for 5 generations
USER: GENES 21
USER: genes 0 Translation |==|  0.61940 0.62841 0.47683
USER: genes 1 Rotation |==|  0.60137 0.01587 0.56520 0.53298
USER: genes 2 Torsion [C]-N--CA-[CB] |==|  0.24809
USER: genes 3 Torsion [N]-CA--C-[N] |==|  0.41784
USER: genes 4 Torsion [C]-N--CA-[CB] |==|  0.15290
USER: genes 5 Torsion [N]-CA--C-[N] |==|  0.11527
USER: genes 6 Torsion [C]-N--CA-[CB] |==|  0.42219
USER: genes 7 Torsion [N]-CA--C-[O] |==|  0.55023
USER: genes 8 Torsion [N]-CA--CB-[CG] |==|  0.80624
USER: genes 9 Torsion [CA]-CB--CG-[CD1] |==|  0.18409
USER: genes 10 Torsion [N]-CA--CB-[CG] |==|  0.11631
USER: genes 11 Torsion [CA]-CB--CG-[OD2] |==|  0.75184
USER: genes 12 Torsion [N]-C--CA-[N] |==|  0.49480
USER: genes 13 Torsion [C]-CA--CB-[CG] |==|  0.49648
USER: genes 14 Torsion [CA]-CB--CG-[CD2] |==|  0.83904
USER: genes 15 Torsion [C]-CA--N-[C] |==|  0.76940
USER: genes 16 Torsion [N]-C--CA-[N] |==|  0.94581
USER: genes 17 Torsion [C]-CA--N-[C] |==|  0.83886
USER: genes 18 Torsion [C]-CA--CB-[CG] |==|  0.98559
USER: genes 19 Torsion [CA]-CB--CG-[CD] |==|  0.48732
USER: genes 20 Torsion [CB]-CG--CD-[OE1] |==|  0.64337
ROOT
ATOM      1  C   LEU E   1       6.705  -4.977 -12.981  1.00 39.66 LIG 0.24  C 
ATOM      2 O    LEU E   1       6.451  -4.755 -14.168  1.00 37.26 LIG-0.27  OA
ATOM      3  N   ASP E   2       5.914  -5.704 -12.191  1.00 41.55 LIG-0.35  N 
ATOM      4 H    ASP E   2       6.086  -5.863 -11.363  1.00 41.55 LIG 0.16  HD
ENDROOT
BRANCH 3 5
ATOM      5  CA  ASP E   2       4.663  -6.306 -12.666  1.00 42.33 LIG 0.19  C 
BRANCH 5 6
ATOM      6  C   ASP E   2       3.626  -6.373 -11.551  1.00 41.58 LIG 0.24  C 
ATOM      7 O    ASP E   2       3.977  -6.494 -10.372  1.00 40.78 LIG-0.27  OA
ATOM      8  N   ALA E   3       2.350  -6.304 -11.937  1.00 40.17 LIG-0.35  N 
ATOM      9 H    ALA E   3       2.110  -6.241 -12.760  1.00 40.17 LIG 0.16  HD
BRANCH 8 10
ATOM     10  CA  ALA E   3       1.225  -6.329 -10.993  1.00 38.52 LIG 0.17  C 
ATOM     11  CB  ALA E   3       1.390  -5.225  -9.950  1.00 38.62 LIG 0.04  C 
BRANCH 10 12
ATOM     12  C   ALA E   3      -0.140  -6.220 -11.671  1.00 38.02 LIG 0.24  C 
ATOM     13 O    ALA E   3      -1.027  -5.515 -11.189  1.00 36.71 LIG-0.27  OA
ATOM     14  N   PHE E   4      -0.290  -6.927 -12.790  1.00 38.01 LIG-0.34  N 
ATOM     15 H    PHE E   4       0.299  -7.484 -13.076  1.00 38.01 LIG 0.16  HD
BRANCH 14 16
ATOM     16  CA  PHE E   4      -1.470  -6.826 -13.645  1.00 38.29 LIG 0.19  C 
BRANCH 16 17
ATOM     17  C   PHE E   4      -2.547  -7.790 -13.154  1.00 39.00 LIG 0.20  C 
ATOM     18 OXT  PHE E   4      -2.519  -8.236 -12.005  1.00 39.22 LIG-0.65  OA
ATOM     19 O    PHE E   4      -3.483  -8.124 -13.888  1.00 39.04 LIG-0.65  OA
ENDBRANCH 16 17
BRANCH 16 20
ATOM     20  CB  PHE E   4      -1.107  -7.157 -15.104  1.00 37.57 LIG 0.07  C 
BRANCH 20 21
ATOM     21  CG  PHE E   4      -0.245  -6.111 -15.766  1.00 36.97 LIG-0.06  A 
ATOM     22  CD1 PHE E   4       1.060  -5.880 -15.331  1.00 35.77 LIG 0.01  A 
ATOM     23  CE1 PHE E   4       1.846  -4.907 -15.930  1.00 35.50 LIG 0.00  A 
ATOM     24  CZ  PHE E   4       1.331  -4.157 -16.978  1.00 35.20 LIG 0.00  A 
ATOM     25  CE2 PHE E   4       0.032  -4.374 -17.419  1.00 34.71 LIG 0.00  A 
ATOM     26  CD2 PHE E   4      -0.747  -5.346 -16.815  1.00 35.45 LIG 0.01  A 
ENDBRANCH 20 21
ENDBRANCH 16 20
ENDBRANCH 14 16
ENDBRANCH 10 12
ENDBRANCH 8 10
ENDBRANCH 5 6
BRANCH 5 27
ATOM     27  CB  ASP E   2       4.911  -7.709 -13.236  1.00 43.54 LIG 0.15  C 
BRANCH 27 28
ATOM     28  CG  ASP E   2       5.881  -8.526 -12.392  1.00 45.99 LIG 0.17  C 
ATOM     29 OD2  ASP E   2       7.104  -8.446 -12.646  1.00 46.35 LIG-0.65  OA
ATOM     30 OD1  ASP E   2       5.427  -9.238 -11.469  1.00 46.97 LIG-0.65  OA
ENDBRANCH 27 28
ENDBRANCH 5 27
ENDBRANCH 3 5
BRANCH 1 31
ATOM     31  CA  LEU E   1       7.991  -4.434 -12.341  1.00 39.47 LIG 0.18  C 
BRANCH 31 32
ATOM     32  CB  LEU E   1       7.699  -3.580 -11.095  1.00 38.97 LIG 0.04  C 
BRANCH 32 33
ATOM     33  CG  LEU E   1       8.915  -3.005 -10.349  1.00 40.05 LIG-0.02  C 
ATOM     34  CD2 LEU E   1       9.866  -4.108  -9.888  1.00 40.58 LIG 0.01  C 
ATOM     35  CD1 LEU E   1       8.488  -2.144  -9.169  1.00 39.33 LIG 0.01  C 
ENDBRANCH 32 33
ENDBRANCH 31 32
BRANCH 31 36
ATOM     36  N   LEU E   1       8.805  -3.690 -13.302  1.00 38.97 LIG-0.35  N 
ATOM     37  C   GLN E   0       9.640  -4.302 -14.139  1.00 38.27 LIG 0.24  C 
ATOM     38 O    GLN E   0       9.804  -5.527 -14.162  1.00 40.12 LIG-0.27  OA
ATOM     39 H    LEU E   1       8.694  -2.837 -13.274  1.00 38.97 LIG 0.16  HD
BRANCH 37 40
ATOM     40  CA  GLN E   0      10.393  -3.395 -15.112  1.00 36.47 LIG 0.18  C 
BRANCH 40 41
ATOM     41  N   GLN E   0       9.737  -2.060 -15.276  1.00 35.61 LIG-0.35  N 
ATOM     42  C   ACE E  -1       8.477  -1.891 -15.692  1.00 35.56 LIG 0.21  C 
ATOM     43 O    ACE E  -1       7.724  -2.804 -15.998  1.00 35.09 LIG-0.27  OA
ATOM     44  CH3 ACE E  -1       8.061  -0.460 -15.948  1.00 35.40 LIG 0.12  C 
ATOM     45 H    GLN E   0      10.252  -1.402 -15.075  1.00 35.61 LIG 0.16  HD
ENDBRANCH 40 41
BRANCH 40 46
ATOM     46  CB  GLN E   0      11.846  -3.233 -14.643  1.00 35.42 LIG 0.04  C 
BRANCH 46 47
ATOM     47  CG  GLN E   0      12.137  -3.891 -13.295  1.00 33.87 LIG 0.10  C 
BRANCH 47 48
ATOM     48  CD  GLN E   0      13.604  -3.806 -12.917  1.00 33.67 LIG 0.21  C 
ATOM     49 OE1  GLN E   0      14.225  -4.814 -12.583  1.00 31.67 LIG-0.27  OA
ATOM     50  NE2 GLN E   0      14.161  -2.598 -12.956  1.00 33.23 LIG-0.37  N 
ATOM     51 22HE GLN E   0      14.989  -2.499 -12.742  1.00 33.23 LIG 0.16  HD
ATOM     52 21HE GLN E   0      13.694  -1.916 -13.194  1.00 33.23 LIG 0.16  HD
ENDBRANCH 47 48
ENDBRANCH 46 47
ENDBRANCH 40 46
ENDBRANCH 37 40
ENDBRANCH 31 36
ENDBRANCH 1 31
TORSDOF 19
ENDMDL
MODEL 33
USER: ADFR SOLUTION from run 74
USER: SCORE 16.016734 LL:  -5.256 LR: -12.284 RR:   0.000 FEB:  -6.617
USER: RMSD 11.183984
USER: SEED 73
USER: STATUS no improvement in best in 6 clusters for 5 generations
USER: GENES 21
USER: genes 0 Translation |==|  0.28260 0.46856 0.61211
USER: genes 1 Rotation |==|  0.55317 0.54953 0.02309 0.63144
USER: genes 2 Torsion [C]-N--CA-[CB] |==|  0.52936
USER: genes 3 Torsion [N]-CA--C-[N] |==|  0.27722
USER: genes 4 Torsion [C]-N--CA-[CB] |==|  0.14895
USER: genes 5 Torsion [N]-CA--C-[N] |==|  0.07223
USER: genes 6 Torsion [C]-N--CA-[CB] |==|  0.40766
USER: genes 7 Torsion [N]-CA--C-[O] |==|  0.80282
USER: genes 8 Torsion [N]-CA--CB-[CG] |==|  0.90346
USER: genes 9 Torsion [CA]-CB--CG-[CD1] |==|  0.26341
USER: genes 10 Torsion [N]-CA--CB-[CG] |==|  0.53982
USER: genes 11 Torsion [CA]-CB--CG-[OD2] |==|  0.50956
USER: genes 12 Torsion [N]-C--CA-[N] |==|  0.91178
USER: genes 13 Torsion [C]-CA--CB-[CG] |==|  0.40345
USER: genes 14 Torsion [CA]-CB--CG-[CD2] |==|  0.92873
USER: genes 15 Torsion [C]-CA--N-[C] |==|  0.69462
USER: genes 16 Torsion [N]-C--CA-[N] |==|  0.33172
USER: genes 17 Torsion [C]-CA--N-[C] |==|  0.61746
USER: genes 18 Torsion [C]-CA--CB-[CG] |==|  0.27842
USER: genes 19 Torsion [CA]-CB--CG-[CD] |==|  0.83053
USER: genes 20 Torsion [CB]-CG--CD-[OE1] |==|  0.21689
ROOT
ATOM      1  C   LEU E   1      -1.631  -7.494 -10.647  1.00 39.66 LIG 0.24  C 
ATOM      2 O    LEU E   1      -1.443  -8.208  -9.658  1.00 37.26 LIG-0.27  OA
ATOM      3  N   ASP E   2      -2.768  -7.500 -11.343  1.00 41.55 LIG-0.35  N 
ATOM      4 H    ASP E   2      -2.906  -7.004 -12.033  1.00 41.55 LIG 0.16  HD
ENDROOT
BRANCH 3 5
ATOM      5  CA  ASP E   2      -3.902  -8.363 -10.994  1.00 42.33 LIG 0.19  C 
BRANCH 5 6
ATOM      6  C   ASP E   2      -3.444  -9.792 -10.724  1.00 41.58 LIG 0.24  C 
ATOM      7 O    ASP E   2      -3.225 -10.569 -11.660  1.00 40.78 LIG-0.27  OA
ATOM      8  N   ALA E   3      -3.311 -10.129  -9.440  1.00 40.17 LIG-0.35  N 
ATOM      9 H    ALA E   3      -3.484  -9.591  -8.792  1.00 40.17 LIG 0.16  HD
BRANCH 8 10
ATOM     10  CA  ALA E   3      -2.855 -11.454  -9.002  1.00 38.52 LIG 0.17  C 
ATOM     11  CB  ALA E   3      -1.527 -11.802  -9.672  1.00 38.62 LIG 0.04  C 
BRANCH 10 12
ATOM     12  C   ALA E   3      -2.734 -11.585  -7.484  1.00 38.02 LIG 0.24  C 
ATOM     13 O    ALA E   3      -1.953 -12.396  -6.983  1.00 36.71 LIG-0.27  OA
ATOM     14  N   PHE E   4      -3.514 -10.778  -6.768  1.00 38.01 LIG-0.34  N 
ATOM     15 H    PHE E   4      -4.119 -10.277  -7.118  1.00 38.01 LIG 0.16  HD
BRANCH 14 16
ATOM     16  CA  PHE E   4      -3.423 -10.662  -5.314  1.00 38.29 LIG 0.19  C 
BRANCH 16 17
ATOM     17  C   PHE E   4      -4.393 -11.640  -4.657  1.00 39.00 LIG 0.20  C 
ATOM     18 OXT  PHE E   4      -3.978 -12.624  -4.041  1.00 39.22 LIG-0.65  OA
ATOM     19 O    PHE E   4      -5.613 -11.454  -4.706  1.00 39.04 LIG-0.65  OA
ENDBRANCH 16 17
BRANCH 16 20
ATOM     20  CB  PHE E   4      -3.754  -9.227  -4.867  1.00 37.57 LIG 0.07  C 
BRANCH 20 21
ATOM     21  CG  PHE E   4      -3.291  -8.168  -5.836  1.00 36.97 LIG-0.06  A 
ATOM     22  CD1 PHE E   4      -4.156  -7.658  -6.805  1.00 35.77 LIG 0.01  A 
ATOM     23  CE1 PHE E   4      -3.725  -6.697  -7.706  1.00 35.50 LIG 0.00  A 
ATOM     24  CZ  PHE E   4      -2.419  -6.231  -7.641  1.00 35.20 LIG 0.00  A 
ATOM     25  CE2 PHE E   4      -1.546  -6.733  -6.684  1.00 34.71 LIG 0.00  A 
ATOM     26  CD2 PHE E   4      -1.983  -7.694  -5.789  1.00 35.45 LIG 0.01  A 
ENDBRANCH 20 21
ENDBRANCH 16 20
ENDBRANCH 14 16
ENDBRANCH 10 12
ENDBRANCH 8 10
ENDBRANCH 5 6
BRANCH 5 27
ATOM     27  CB  ASP E   2      -4.961  -8.355 -12.104  1.00 43.54 LIG 0.15  C 
BRANCH 27 28
ATOM     28  CG  ASP E   2      -6.293  -8.942 -11.653  1.00 45.99 LIG 0.17  C 
ATOM     29 OD2  ASP E   2      -7.212  -9.047 -12.495  1.00 46.35 LIG-0.65  OA
ATOM     30 OD1  ASP E   2      -6.420  -9.310 -10.464  1.00 46.97 LIG-0.65  OA
ENDBRANCH 27 28
ENDBRANCH 5 27
ENDBRANCH 3 5
BRANCH 1 31
ATOM     31  CA  LEU E   1      -0.546  -6.518 -11.125  1.00 39.47 LIG 0.18  C 
BRANCH 31 32
ATOM     32  CB  LEU E   1      -0.619  -5.170 -10.386  1.00 38.97 LIG 0.04  C 
BRANCH 32 33
ATOM     33  CG  LEU E   1       0.718  -4.462 -10.104  1.00 40.05 LIG-0.02  C 
ATOM     34  CD2 LEU E   1       1.875  -5.455 -10.031  1.00 40.58 LIG 0.01  C 
ATOM     35  CD1 LEU E   1       0.648  -3.631  -8.831  1.00 39.33 LIG 0.01  C 
ENDBRANCH 32 33
ENDBRANCH 31 32
BRANCH 31 36
ATOM     36  N   LEU E   1      -0.592  -6.320 -12.574  1.00 38.97 LIG-0.35  N 
ATOM     37  C   GLN E   0       0.358  -6.794 -13.378  1.00 38.27 LIG 0.24  C 
ATOM     38 O    GLN E   0       1.346  -7.415 -12.972  1.00 40.12 LIG-0.27  OA
ATOM     39 H    LEU E   1      -1.276  -5.878 -12.849  1.00 38.97 LIG 0.16  HD
BRANCH 37 40
ATOM     40  CA  GLN E   0       0.153  -6.543 -14.872  1.00 36.47 LIG 0.18  C 
BRANCH 40 41
ATOM     41  N   GLN E   0       1.257  -5.731 -15.473  1.00 35.61 LIG-0.35  N 
ATOM     42  C   ACE E  -1       1.065  -4.738 -16.348  1.00 35.56 LIG 0.21  C 
ATOM     43 O    ACE E  -1      -0.031  -4.391 -16.767  1.00 35.09 LIG-0.27  OA
ATOM     44  CH3 ACE E  -1       2.318  -4.155 -16.960  1.00 35.40 LIG 0.12  C 
ATOM     45 H    GLN E   0       2.038  -5.964 -15.200  1.00 35.61 LIG 0.16  HD
ENDBRANCH 40 41
BRANCH 40 46
ATOM     46  CB  GLN E   0       0.007  -7.886 -15.601  1.00 35.42 LIG 0.04  C 
BRANCH 46 47
ATOM     47  CG  GLN E   0      -1.440  -8.263 -15.917  1.00 33.87 LIG 0.10  C 
BRANCH 47 48
ATOM     48  CD  GLN E   0      -2.285  -8.407 -14.665  1.00 33.67 LIG 0.21  C 
ATOM     49 OE1  GLN E   0      -2.711  -7.414 -14.077  1.00 31.67 LIG-0.27  OA
ATOM     50  NE2 GLN E   0      -2.522  -9.648 -14.245  1.00 33.23 LIG-0.37  N 
ATOM     51 22HE GLN E   0      -2.990  -9.780 -13.535  1.00 33.23 LIG 0.16  HD
ATOM     52 21HE GLN E   0      -2.206 -10.318 -14.682  1.00 33.23 LIG 0.16  HD
ENDBRANCH 47 48
ENDBRANCH 46 47
ENDBRANCH 40 46
ENDBRANCH 37 40
ENDBRANCH 31 36
ENDBRANCH 1 31
TORSDOF 19
ENDMDL
MODEL 34
USER: ADFR SOLUTION from run 20
USER: SCORE 15.897676 LL:  -4.612 LR: -12.268 RR:   0.000 FEB:  -6.600
USER: RMSD 10.632367
USER: SEED 19
USER: STATUS no improvement in best in 3 clusters for 5 generations
USER: GENES 21
USER: genes 0 Translation |==|  0.35103 0.49397 0.55859
USER: genes 1 Rotation |==|  0.54647 0.67598 0.03980 0.57132
USER: genes 2 Torsion [C]-N--CA-[CB] |==|  0.80556
USER: genes 3 Torsion [N]-CA--C-[N] |==|  0.20115
USER: genes 4 Torsion [C]-N--CA-[CB] |==|  0.55184
USER: genes 5 Torsion [N]-CA--C-[N] |==|  0.40722
USER: genes 6 Torsion [C]-N--CA-[CB] |==|  0.31491
USER: genes 7 Torsion [N]-CA--C-[O] |==|  0.43154
USER: genes 8 Torsion [N]-CA--CB-[CG] |==|  0.87802
USER: genes 9 Torsion [CA]-CB--CG-[CD1] |==|  0.25498
USER: genes 10 Torsion [N]-CA--CB-[CG] |==|  0.87970
USER: genes 11 Torsion [CA]-CB--CG-[OD2] |==|  0.89116
USER: genes 12 Torsion [N]-C--CA-[N] |==|  0.89323
USER: genes 13 Torsion [C]-CA--CB-[CG] |==|  0.94122
USER: genes 14 Torsion [CA]-CB--CG-[CD2] |==|  0.59844
USER: genes 15 Torsion [C]-CA--N-[C] |==|  0.78756
USER: genes 16 Torsion [N]-C--CA-[N] |==|  0.38389
USER: genes 17 Torsion [C]-CA--N-[C] |==|  0.62850
USER: genes 18 Torsion [C]-CA--CB-[CG] |==|  0.51144
USER: genes 19 Torsion [CA]-CB--CG-[CD] |==|  0.56223
USER: genes 20 Torsion [CB]-CG--CD-[OE1] |==|  0.84366
ROOT
ATOM      1  C   LEU E   1       0.063  -7.094 -11.570  1.00 39.66 LIG 0.24  C 
ATOM      2 O    LEU E   1       0.235  -8.223 -11.101  1.00 37.26 LIG-0.27  OA
ATOM      3  N   ASP E   2      -1.134  -6.631 -11.933  1.00 41.55 LIG-0.35  N 
ATOM      4 H    ASP E   2      -1.261  -5.845 -12.259  1.00 41.55 LIG 0.16  HD
ENDROOT
BRANCH 3 5
ATOM      5  CA  ASP E   2      -2.359  -7.429 -11.807  1.00 42.33 LIG 0.19  C 
BRANCH 5 6
ATOM      6  C   ASP E   2      -2.518  -7.975 -10.392  1.00 41.58 LIG 0.24  C 
ATOM      7 O    ASP E   2      -2.351  -9.177 -10.160  1.00 40.78 LIG-0.27  OA
ATOM      8  N   ALA E   3      -2.851  -7.083  -9.457  1.00 40.17 LIG-0.35  N 
ATOM      9 H    ALA E   3      -2.986  -6.251  -9.627  1.00 40.17 LIG 0.16  HD
BRANCH 8 10
ATOM     10  CA  ALA E   3      -3.019  -7.432  -8.041  1.00 38.52 LIG 0.17  C 
ATOM     11  CB  ALA E   3      -3.826  -6.351  -7.325  1.00 38.62 LIG 0.04  C 
BRANCH 10 12
ATOM     12  C   ALA E   3      -3.658  -8.803  -7.824  1.00 38.02 LIG 0.24  C 
ATOM     13 O    ALA E   3      -4.499  -9.236  -8.614  1.00 36.71 LIG-0.27  OA
ATOM     14  N   PHE E   4      -3.246  -9.472  -6.750  1.00 38.01 LIG-0.34  N 
ATOM     15 H    PHE E   4      -2.726  -9.132  -6.155  1.00 38.01 LIG 0.16  HD
BRANCH 14 16
ATOM     16  CA  PHE E   4      -3.636 -10.852  -6.470  1.00 38.29 LIG 0.19  C 
BRANCH 16 17
ATOM     17  C   PHE E   4      -4.247 -10.943  -5.074  1.00 39.00 LIG 0.20  C 
ATOM     18 OXT  PHE E   4      -3.986 -10.099  -4.214  1.00 39.22 LIG-0.65  OA
ATOM     19 O    PHE E   4      -5.036 -11.848  -4.784  1.00 39.04 LIG-0.65  OA
ENDBRANCH 16 17
BRANCH 16 20
ATOM     20  CB  PHE E   4      -2.416 -11.785  -6.561  1.00 37.57 LIG 0.07  C 
BRANCH 20 21
ATOM     21  CG  PHE E   4      -1.533 -11.514  -7.753  1.00 36.97 LIG-0.06  A 
ATOM     22  CD1 PHE E   4      -0.450 -10.638  -7.657  1.00 35.77 LIG 0.01  A 
ATOM     23  CE1 PHE E   4       0.351 -10.377  -8.757  1.00 35.50 LIG 0.00  A 
ATOM     24  CZ  PHE E   4       0.078 -10.997  -9.969  1.00 35.20 LIG 0.00  A 
ATOM     25  CE2 PHE E   4      -0.998 -11.868 -10.079  1.00 34.71 LIG 0.00  A 
ATOM     26  CD2 PHE E   4      -1.795 -12.123  -8.976  1.00 35.45 LIG 0.01  A 
ENDBRANCH 20 21
ENDBRANCH 16 20
ENDBRANCH 14 16
ENDBRANCH 10 12
ENDBRANCH 8 10
ENDBRANCH 5 6
BRANCH 5 27
ATOM     27  CB  ASP E   2      -2.368  -8.584 -12.817  1.00 43.54 LIG 0.15  C 
BRANCH 27 28
ATOM     28  CG  ASP E   2      -1.896  -8.160 -14.202  1.00 45.99 LIG 0.17  C 
ATOM     29 OD2  ASP E   2      -2.250  -7.039 -14.634  1.00 46.35 LIG-0.65  OA
ATOM     30 OD1  ASP E   2      -1.165  -8.936 -14.856  1.00 46.97 LIG-0.65  OA
ENDBRANCH 27 28
ENDBRANCH 5 27
ENDBRANCH 3 5
BRANCH 1 31
ATOM     31  CA  LEU E   1       1.245  -6.130 -11.742  1.00 39.47 LIG 0.18  C 
BRANCH 31 32
ATOM     32  CB  LEU E   1       1.428  -5.217 -10.516  1.00 38.97 LIG 0.04  C 
BRANCH 32 33
ATOM     33  CG  LEU E   1       0.204  -5.033  -9.602  1.00 40.05 LIG-0.02  C 
ATOM     34  CD2 LEU E   1       0.137  -3.620  -9.029  1.00 40.58 LIG 0.01  C 
ATOM     35  CD1 LEU E   1       0.189  -6.062  -8.481  1.00 39.33 LIG 0.01  C 
ENDBRANCH 32 33
ENDBRANCH 31 32
BRANCH 31 36
ATOM     36  N   LEU E   1       1.128  -5.337 -12.966  1.00 38.97 LIG-0.35  N 
ATOM     37  C   GLN E   0       1.395  -5.851 -14.165  1.00 38.27 LIG 0.24  C 
ATOM     38 O    GLN E   0       1.772  -7.016 -14.337  1.00 40.12 LIG-0.27  OA
ATOM     39 H    LEU E   1       0.875  -4.525 -12.839  1.00 38.97 LIG 0.16  HD
BRANCH 37 40
ATOM     40  CA  GLN E   0       1.189  -4.914 -15.354  1.00 36.47 LIG 0.18  C 
BRANCH 40 41
ATOM     41  N   GLN E   0       2.283  -5.028 -16.370  1.00 35.61 LIG-0.35  N 
ATOM     42  C   ACE E  -1       2.898  -3.980 -16.928  1.00 35.56 LIG 0.21  C 
ATOM     43 O    ACE E  -1       2.628  -2.812 -16.684  1.00 35.09 LIG-0.27  OA
ATOM     44  CH3 ACE E  -1       3.857  -4.308 -18.050  1.00 35.40 LIG 0.12  C 
ATOM     45 H    GLN E   0       2.482  -5.841 -16.564  1.00 35.61 LIG 0.16  HD
ENDBRANCH 40 41
BRANCH 40 46
ATOM     46  CB  GLN E   0      -0.178  -5.191 -15.994  1.00 35.42 LIG 0.04  C 
BRANCH 46 47
ATOM     47  CG  GLN E   0      -0.446  -4.374 -17.258  1.00 33.87 LIG 0.10  C 
BRANCH 47 48
ATOM     48  CD  GLN E   0      -1.928  -4.240 -17.555  1.00 33.67 LIG 0.21  C 
ATOM     49 OE1  GLN E   0      -2.635  -5.238 -17.683  1.00 31.67 LIG-0.27  OA
ATOM     50  NE2 GLN E   0      -2.402  -3.002 -17.678  1.00 33.23 LIG-0.37  N 
ATOM     51 22HE GLN E   0      -3.235  -2.877 -17.854  1.00 33.23 LIG 0.16  HD
ATOM     52 21HE GLN E   0      -1.876  -2.329 -17.582  1.00 33.23 LIG 0.16  HD
ENDBRANCH 47 48
ENDBRANCH 46 47
ENDBRANCH 40 46
ENDBRANCH 37 40
ENDBRANCH 31 36
ENDBRANCH 1 31
TORSDOF 19
ENDMDL
MODEL 35
USER: ADFR SOLUTION from run 198
USER: SCORE 15.908206 LL:  -4.291 LR: -12.239 RR:   0.000 FEB:  -6.571
USER: RMSD 10.727930
USER: SEED 197
USER: STATUS no improvement in best in 3 clusters for 5 generations
USER: GENES 21
USER: genes 0 Translation |==|  0.35446 0.47681 0.53324
USER: genes 1 Rotation |==|  0.56192 0.67183 0.04185 0.58209
USER: genes 2 Torsion [C]-N--CA-[CB] |==|  0.83865
USER: genes 3 Torsion [N]-CA--C-[N] |==|  0.42714
USER: genes 4 Torsion [C]-N--CA-[CB] |==|  0.51111
USER: genes 5 Torsion [N]-CA--C-[N] |==|  0.43235
USER: genes 6 Torsion [C]-N--CA-[CB] |==|  0.28612
USER: genes 7 Torsion [N]-CA--C-[O] |==|  0.31913
USER: genes 8 Torsion [N]-CA--CB-[CG] |==|  0.94930
USER: genes 9 Torsion [CA]-CB--CG-[CD1] |==|  0.19393
USER: genes 10 Torsion [N]-CA--CB-[CG] |==|  0.62556
USER: genes 11 Torsion [CA]-CB--CG-[OD2] |==|  0.04321
USER: genes 12 Torsion [N]-C--CA-[N] |==|  0.91948
USER: genes 13 Torsion [C]-CA--CB-[CG] |==|  0.76784
USER: genes 14 Torsion [CA]-CB--CG-[CD2] |==|  0.51505
USER: genes 15 Torsion [C]-CA--N-[C] |==|  0.77093
USER: genes 16 Torsion [N]-C--CA-[N] |==|  0.41093
USER: genes 17 Torsion [C]-CA--N-[C] |==|  0.66177
USER: genes 18 Torsion [C]-CA--CB-[CG] |==|  0.55550
USER: genes 19 Torsion [CA]-CB--CG-[CD] |==|  0.27763
USER: genes 20 Torsion [CB]-CG--CD-[OE1] |==|  0.16390
ROOT
ATOM      1  C   LEU E   1       0.148  -7.364 -12.008  1.00 39.66 LIG 0.24  C 
ATOM      2 O    LEU E   1       0.304  -8.487 -11.517  1.00 37.26 LIG-0.27  OA
ATOM      3  N   ASP E   2      -1.026  -6.925 -12.463  1.00 41.55 LIG-0.35  N 
ATOM      4 H    ASP E   2      -1.142  -6.144 -12.804  1.00 41.55 LIG 0.16  HD
ENDROOT
BRANCH 3 5
ATOM      5  CA  ASP E   2      -2.243  -7.744 -12.423  1.00 42.33 LIG 0.19  C 
BRANCH 5 6
ATOM      6  C   ASP E   2      -2.662  -8.039 -10.986  1.00 41.58 LIG 0.24  C 
ATOM      7 O    ASP E   2      -1.823  -8.059 -10.079  1.00 40.78 LIG-0.27  OA
ATOM      8  N   ALA E   3      -3.961  -8.275 -10.795  1.00 40.17 LIG-0.35  N 
ATOM      9 H    ALA E   3      -4.538  -8.280 -11.433  1.00 40.17 LIG 0.16  HD
BRANCH 8 10
ATOM     10  CA  ALA E   3      -4.539  -8.550  -9.473  1.00 38.52 LIG 0.17  C 
ATOM     11  CB  ALA E   3      -6.026  -8.874  -9.606  1.00 38.62 LIG 0.04  C 
BRANCH 10 12
ATOM     12  C   ALA E   3      -3.818  -9.663  -8.714  1.00 38.02 LIG 0.24  C 
ATOM     13 O    ALA E   3      -3.178 -10.524  -9.320  1.00 36.71 LIG-0.27  OA
ATOM     14  N   PHE E   4      -3.933  -9.630  -7.388  1.00 38.01 LIG-0.34  N 
ATOM     15 H    PHE E   4      -4.450  -9.082  -6.974  1.00 38.01 LIG 0.16  HD
BRANCH 14 16
ATOM     16  CA  PHE E   4      -3.191 -10.522  -6.500  1.00 38.29 LIG 0.19  C 
BRANCH 16 17
ATOM     17  C   PHE E   4      -4.120 -11.058  -5.414  1.00 39.00 LIG 0.20  C 
ATOM     18 OXT  PHE E   4      -4.638 -10.298  -4.593  1.00 39.22 LIG-0.65  OA
ATOM     19 O    PHE E   4      -4.395 -12.261  -5.350  1.00 39.04 LIG-0.65  OA
ENDBRANCH 16 17
BRANCH 16 20
ATOM     20  CB  PHE E   4      -2.013  -9.776  -5.849  1.00 37.57 LIG 0.07  C 
BRANCH 20 21
ATOM     21  CG  PHE E   4      -1.630  -8.506  -6.565  1.00 36.97 LIG-0.06  A 
ATOM     22  CD1 PHE E   4      -2.468  -7.390  -6.542  1.00 35.77 LIG 0.01  A 
ATOM     23  CE1 PHE E   4      -2.123  -6.229  -7.214  1.00 35.50 LIG 0.00  A 
ATOM     24  CZ  PHE E   4      -0.926  -6.170  -7.916  1.00 35.20 LIG 0.00  A 
ATOM     25  CE2 PHE E   4      -0.084  -7.274  -7.951  1.00 34.71 LIG 0.00  A 
ATOM     26  CD2 PHE E   4      -0.436  -8.432  -7.278  1.00 35.45 LIG 0.01  A 
ENDBRANCH 20 21
ENDBRANCH 16 20
ENDBRANCH 14 16
ENDBRANCH 10 12
ENDBRANCH 8 10
ENDBRANCH 5 6
BRANCH 5 27
ATOM     27  CB  ASP E   2      -2.047  -9.058 -13.190  1.00 43.54 LIG 0.15  C 
BRANCH 27 28
ATOM     28  CG  ASP E   2      -3.222  -9.390 -14.101  1.00 45.99 LIG 0.17  C 
ATOM     29 OD2  ASP E   2      -4.043  -8.483 -14.368  1.00 46.35 LIG-0.65  OA
ATOM     30 OD1  ASP E   2      -3.322 -10.550 -14.560  1.00 46.97 LIG-0.65  OA
ENDBRANCH 27 28
ENDBRANCH 5 27
ENDBRANCH 3 5
BRANCH 1 31
ATOM     31  CA  LEU E   1       1.323  -6.380 -12.098  1.00 39.47 LIG 0.18  C 
BRANCH 31 32
ATOM     32  CB  LEU E   1       1.540  -5.619 -10.778  1.00 38.97 LIG 0.04  C 
BRANCH 32 33
ATOM     33  CG  LEU E   1       0.668  -4.374 -10.545  1.00 40.05 LIG-0.02  C 
ATOM     34  CD2 LEU E   1       1.069  -3.636  -9.270  1.00 40.58 LIG 0.01  C 
ATOM     35  CD1 LEU E   1      -0.811  -4.731 -10.511  1.00 39.33 LIG 0.01  C 
ENDBRANCH 32 33
ENDBRANCH 31 32
BRANCH 31 36
ATOM     36  N   LEU E   1       1.168  -5.449 -13.215  1.00 38.97 LIG-0.35  N 
ATOM     37  C   GLN E   0       1.512  -5.779 -14.459  1.00 38.27 LIG 0.24  C 
ATOM     38 O    GLN E   0       1.995  -6.875 -14.762  1.00 40.12 LIG-0.27  OA
ATOM     39 H    LEU E   1       0.841  -4.684 -12.996  1.00 38.97 LIG 0.16  HD
BRANCH 37 40
ATOM     40  CA  GLN E   0       1.254  -4.716 -15.526  1.00 36.47 LIG 0.18  C 
BRANCH 40 41
ATOM     41  N   GLN E   0       2.261  -4.761 -16.634  1.00 35.61 LIG-0.35  N 
ATOM     42  C   ACE E  -1       3.042  -3.731 -16.978  1.00 35.56 LIG 0.21  C 
ATOM     43 O    ACE E  -1       3.012  -2.634 -16.439  1.00 35.09 LIG-0.27  OA
ATOM     44  CH3 ACE E  -1       3.870  -3.930 -18.227  1.00 35.40 LIG 0.12  C 
ATOM     45 H    GLN E   0       2.292  -5.522 -17.034  1.00 35.61 LIG 0.16  HD
ENDBRANCH 40 41
BRANCH 40 46
ATOM     46  CB  GLN E   0      -0.169  -4.878 -16.079  1.00 35.42 LIG 0.04  C 
BRANCH 46 47
ATOM     47  CG  GLN E   0      -0.380  -4.223 -17.443  1.00 33.87 LIG 0.10  C 
BRANCH 47 48
ATOM     48  CD  GLN E   0      -0.316  -5.225 -18.580  1.00 33.67 LIG 0.21  C 
ATOM     49 OE1  GLN E   0      -1.091  -6.179 -18.621  1.00 31.67 LIG-0.27  OA
ATOM     50  NE2 GLN E   0       0.619  -5.018 -19.505  1.00 33.23 LIG-0.37  N 
ATOM     51 22HE GLN E   0       0.699  -5.564 -20.165  1.00 33.23 LIG 0.16  HD
ATOM     52 21HE GLN E   0       1.144  -4.339 -19.442  1.00 33.23 LIG 0.16  HD
ENDBRANCH 47 48
ENDBRANCH 46 47
ENDBRANCH 40 46
ENDBRANCH 37 40
ENDBRANCH 31 36
ENDBRANCH 1 31
TORSDOF 19
ENDMDL
MODEL 36
USER: ADFR SOLUTION from run 192
USER: SCORE 13.539179 LL:  -3.120 LR: -12.216 RR:   0.000 FEB:  -6.549
USER: RMSD 3.456082
USER: SEED 191
USER: STATUS no improvement in best in 20 clusters for 5 generations
USER: GENES 21
USER: genes 0 Translation |==|  0.44039 0.52738 0.54509
USER: genes 1 Rotation |==|  0.03526 0.65351 0.39935 0.51791
USER: genes 2 Torsion [C]-N--CA-[CB] |==|  0.82737
USER: genes 3 Torsion [N]-CA--C-[N] |==|  0.30666
USER: genes 4 Torsion [C]-N--CA-[CB] |==|  0.14788
USER: genes 5 Torsion [N]-CA--C-[N] |==|  0.02356
USER: genes 6 Torsion [C]-N--CA-[CB] |==|  0.84188
USER: genes 7 Torsion [N]-CA--C-[O] |==|  0.03746
USER: genes 8 Torsion [N]-CA--CB-[CG] |==|  0.69502
USER: genes 9 Torsion [CA]-CB--CG-[CD1] |==|  0.95697
USER: genes 10 Torsion [N]-CA--CB-[CG] |==|  0.61167
USER: genes 11 Torsion [CA]-CB--CG-[OD2] |==|  0.41025
USER: genes 12 Torsion [N]-C--CA-[N] |==|  0.65746
USER: genes 13 Torsion [C]-CA--CB-[CG] |==|  0.47828
USER: genes 14 Torsion [CA]-CB--CG-[CD2] |==|  0.62617
USER: genes 15 Torsion [C]-CA--N-[C] |==|  0.17866
USER: genes 16 Torsion [N]-C--CA-[N] |==|  0.24043
USER: genes 17 Torsion [C]-CA--N-[C] |==|  0.72931
USER: genes 18 Torsion [C]-CA--CB-[CG] |==|  0.31984
USER: genes 19 Torsion [CA]-CB--CG-[CD] |==|  0.68654
USER: genes 20 Torsion [CB]-CG--CD-[OE1] |==|  0.02398
ROOT
ATOM      1  C   LEU E   1       2.275  -6.568 -11.803  1.00 39.66 LIG 0.24  C 
ATOM      2 O    LEU E   1       2.343  -7.050 -12.937  1.00 37.26 LIG-0.27  OA
ATOM      3  N   ASP E   2       3.185  -6.802 -10.856  1.00 41.55 LIG-0.35  N 
ATOM      4 H    ASP E   2       3.143  -6.467 -10.064  1.00 41.55 LIG 0.16  HD
ENDROOT
BRANCH 3 5
ATOM      5  CA  ASP E   2       4.352  -7.661 -11.080  1.00 42.33 LIG 0.19  C 
BRANCH 5 6
ATOM      6  C   ASP E   2       5.230  -7.117 -12.202  1.00 41.58 LIG 0.24  C 
ATOM      7 O    ASP E   2       4.841  -7.148 -13.375  1.00 40.78 LIG-0.27  OA
ATOM      8  N   ALA E   3       6.415  -6.629 -11.831  1.00 40.17 LIG-0.35  N 
ATOM      9 H    ALA E   3       6.689  -6.628 -11.017  1.00 40.17 LIG 0.16  HD
BRANCH 8 10
ATOM     10  CA  ALA E   3       7.372  -6.042 -12.778  1.00 38.52 LIG 0.17  C 
ATOM     11  CB  ALA E   3       6.694  -4.951 -13.603  1.00 38.62 LIG 0.04  C 
BRANCH 10 12
ATOM     12  C   ALA E   3       8.633  -5.497 -12.109  1.00 38.02 LIG 0.24  C 
ATOM     13 O    ALA E   3       9.452  -4.840 -12.753  1.00 36.71 LIG-0.27  OA
ATOM     14  N   PHE E   4       8.772  -5.780 -10.816  1.00 38.01 LIG-0.34  N 
ATOM     15 H    PHE E   4       8.246  -6.311 -10.391  1.00 38.01 LIG 0.16  HD
BRANCH 14 16
ATOM     16  CA  PHE E   4       9.835  -5.218  -9.985  1.00 38.29 LIG 0.19  C 
BRANCH 16 17
ATOM     17  C   PHE E   4       9.667  -3.704  -9.888  1.00 39.00 LIG 0.20  C 
ATOM     18 OXT  PHE E   4      10.584  -2.991  -9.474  1.00 39.22 LIG-0.65  OA
ATOM     19 O    PHE E   4       8.618  -3.157 -10.246  1.00 39.04 LIG-0.65  OA
ENDBRANCH 16 17
BRANCH 16 20
ATOM     20  CB  PHE E   4      11.215  -5.547 -10.581  1.00 37.57 LIG 0.07  C 
BRANCH 20 21
ATOM     21  CG  PHE E   4      12.003  -6.544  -9.770  1.00 36.97 LIG-0.06  A 
ATOM     22  CD1 PHE E   4      11.641  -6.844  -8.456  1.00 35.77 LIG 0.01  A 
ATOM     23  CE1 PHE E   4      12.375  -7.749  -7.706  1.00 35.50 LIG 0.00  A 
ATOM     24  CZ  PHE E   4      13.482  -8.370  -8.268  1.00 35.20 LIG 0.00  A 
ATOM     25  CE2 PHE E   4      13.856  -8.078  -9.574  1.00 34.71 LIG 0.00  A 
ATOM     26  CD2 PHE E   4      13.119  -7.172 -10.317  1.00 35.45 LIG 0.01  A 
ENDBRANCH 20 21
ENDBRANCH 16 20
ENDBRANCH 14 16
ENDBRANCH 10 12
ENDBRANCH 8 10
ENDBRANCH 5 6
BRANCH 5 27
ATOM     27  CB  ASP E   2       3.923  -9.098 -11.402  1.00 43.54 LIG 0.15  C 
BRANCH 27 28
ATOM     28  CG  ASP E   2       4.807 -10.142 -10.732  1.00 45.99 LIG 0.17  C 
ATOM     29 OD2  ASP E   2       4.288 -11.227 -10.385  1.00 46.35 LIG-0.65  OA
ATOM     30 OD1  ASP E   2       6.021  -9.887 -10.561  1.00 46.97 LIG-0.65  OA
ENDBRANCH 27 28
ENDBRANCH 5 27
ENDBRANCH 3 5
BRANCH 1 31
ATOM     31  CA  LEU E   1       1.123  -5.628 -11.421  1.00 39.47 LIG 0.18  C 
BRANCH 31 32
ATOM     32  CB  LEU E   1       1.270  -5.088  -9.988  1.00 38.97 LIG 0.04  C 
BRANCH 32 33
ATOM     33  CG  LEU E   1       0.279  -3.994  -9.555  1.00 40.05 LIG-0.02  C 
ATOM     34  CD2 LEU E   1       0.985  -2.850  -8.831  1.00 40.58 LIG 0.01  C 
ATOM     35  CD1 LEU E   1      -0.835  -4.564  -8.689  1.00 39.33 LIG 0.01  C 
ENDBRANCH 32 33
ENDBRANCH 31 32
BRANCH 31 36
ATOM     36  N   LEU E   1      -0.182  -6.263 -11.606  1.00 38.97 LIG-0.35  N 
ATOM     37  C   GLN E   0      -0.555  -7.324 -10.894  1.00 38.27 LIG 0.24  C 
ATOM     38 O    GLN E   0       0.165  -7.860 -10.044  1.00 40.12 LIG-0.27  OA
ATOM     39 H    LEU E   1      -0.675  -5.892 -12.206  1.00 38.97 LIG 0.16  HD
BRANCH 37 40
ATOM     40  CA  GLN E   0      -1.962  -7.852 -11.170  1.00 36.47 LIG 0.18  C 
BRANCH 40 41
ATOM     41  N   GLN E   0      -1.997  -8.824 -12.308  1.00 35.61 LIG-0.35  N 
ATOM     42  C   ACE E  -1      -2.329  -8.498 -13.562  1.00 35.56 LIG 0.21  C 
ATOM     43 O    ACE E  -1      -2.655  -7.374 -13.917  1.00 35.09 LIG-0.27  OA
ATOM     44  CH3 ACE E  -1      -2.462  -9.655 -14.524  1.00 35.40 LIG 0.12  C 
ATOM     45 H    GLN E   0      -1.780  -9.624 -12.078  1.00 35.61 LIG 0.16  HD
ENDBRANCH 40 41
BRANCH 40 46
ATOM     46  CB  GLN E   0      -2.531  -8.489  -9.894  1.00 35.42 LIG 0.04  C 
BRANCH 46 47
ATOM     47  CG  GLN E   0      -3.748  -7.759  -9.328  1.00 33.87 LIG 0.10  C 
BRANCH 47 48
ATOM     48  CD  GLN E   0      -3.456  -7.103  -7.991  1.00 33.67 LIG 0.21  C 
ATOM     49 OE1  GLN E   0      -2.308  -7.054  -7.552  1.00 31.67 LIG-0.27  OA
ATOM     50  NE2 GLN E   0      -4.500  -6.605  -7.331  1.00 33.23 LIG-0.37  N 
ATOM     51 22HE GLN E   0      -4.385  -6.231  -6.565  1.00 33.23 LIG 0.16  HD
ATOM     52 21HE GLN E   0      -5.289  -6.659  -7.670  1.00 33.23 LIG 0.16  HD
ENDBRANCH 47 48
ENDBRANCH 46 47
ENDBRANCH 40 46
ENDBRANCH 37 40
ENDBRANCH 31 36
ENDBRANCH 1 31
TORSDOF 19
ENDMDL
MODEL 37
USER: ADFR SOLUTION from run 69
USER: SCORE 15.012078 LL:  -4.194 LR: -12.148 RR:   0.000 FEB:  -6.480
USER: RMSD 10.897260
USER: SEED 68
USER: STATUS no improvement in best in 4 clusters for 5 generations
USER: GENES 21
USER: genes 0 Translation |==|  0.34359 0.50501 0.65390
USER: genes 1 Rotation |==|  0.70139 0.49832 0.05842 0.62017
USER: genes 2 Torsion [C]-N--CA-[CB] |==|  0.55864
USER: genes 3 Torsion [N]-CA--C-[N] |==|  0.38334
USER: genes 4 Torsion [C]-N--CA-[CB] |==|  0.86458
USER: genes 5 Torsion [N]-CA--C-[N] |==|  0.34088
USER: genes 6 Torsion [C]-N--CA-[CB] |==|  0.26818
USER: genes 7 Torsion [N]-CA--C-[O] |==|  0.23905
USER: genes 8 Torsion [N]-CA--CB-[CG] |==|  0.84279
USER: genes 9 Torsion [CA]-CB--CG-[CD1] |==|  0.78266
USER: genes 10 Torsion [N]-CA--CB-[CG] |==|  0.56094
USER: genes 11 Torsion [CA]-CB--CG-[OD2] |==|  0.53414
USER: genes 12 Torsion [N]-C--CA-[N] |==|  0.81113
USER: genes 13 Torsion [C]-CA--CB-[CG] |==|  0.24472
USER: genes 14 Torsion [CA]-CB--CG-[CD2] |==|  0.69514
USER: genes 15 Torsion [C]-CA--N-[C] |==|  0.21453
USER: genes 16 Torsion [N]-C--CA-[N] |==|  0.43158
USER: genes 17 Torsion [C]-CA--N-[C] |==|  0.68895
USER: genes 18 Torsion [C]-CA--CB-[CG] |==|  0.56467
USER: genes 19 Torsion [CA]-CB--CG-[CD] |==|  0.80046
USER: genes 20 Torsion [CB]-CG--CD-[OE1] |==|  0.35275
ROOT
ATOM      1  C   LEU E   1      -0.121  -6.920  -9.926  1.00 39.66 LIG 0.24  C 
ATOM      2 O    LEU E   1      -0.624  -7.599  -9.026  1.00 37.26 LIG-0.27  OA
ATOM      3  N   ASP E   2      -0.614  -6.873 -11.165  1.00 41.55 LIG-0.35  N 
ATOM      4 H    ASP E   2      -0.269  -6.400 -11.796  1.00 41.55 LIG 0.16  HD
ENDROOT
BRANCH 3 5
ATOM      5  CA  ASP E   2      -1.803  -7.631 -11.569  1.00 42.33 LIG 0.19  C 
BRANCH 5 6
ATOM      6  C   ASP E   2      -1.852  -8.989 -10.878  1.00 41.58 LIG 0.24  C 
ATOM      7 O    ASP E   2      -0.829  -9.675 -10.767  1.00 40.78 LIG-0.27  OA
ATOM      8  N   ALA E   3      -3.048  -9.371 -10.427  1.00 40.17 LIG-0.35  N 
ATOM      9 H    ALA E   3      -3.761  -8.900 -10.525  1.00 40.17 LIG 0.16  HD
BRANCH 8 10
ATOM     10  CA  ALA E   3      -3.270 -10.636  -9.715  1.00 38.52 LIG 0.17  C 
ATOM     11  CB  ALA E   3      -2.627 -11.790 -10.482  1.00 38.62 LIG 0.04  C 
BRANCH 10 12
ATOM     12  C   ALA E   3      -2.773 -10.616  -8.270  1.00 38.02 LIG 0.24  C 
ATOM     13 O    ALA E   3      -1.596 -10.358  -8.014  1.00 36.71 LIG-0.27  OA
ATOM     14  N   PHE E   4      -3.685 -10.891  -7.340  1.00 38.01 LIG-0.34  N 
ATOM     15 H    PHE E   4      -4.481 -11.155  -7.525  1.00 38.01 LIG 0.16  HD
BRANCH 14 16
ATOM     16  CA  PHE E   4      -3.424 -10.770  -5.907  1.00 38.29 LIG 0.19  C 
BRANCH 16 17
ATOM     17  C   PHE E   4      -4.125 -11.901  -5.159  1.00 39.00 LIG 0.20  C 
ATOM     18 OXT  PHE E   4      -5.260 -11.748  -4.702  1.00 39.22 LIG-0.65  OA
ATOM     19 O    PHE E   4      -3.582 -13.001  -5.016  1.00 39.04 LIG-0.65  OA
ENDBRANCH 16 17
BRANCH 16 20
ATOM     20  CB  PHE E   4      -3.926  -9.414  -5.380  1.00 37.57 LIG 0.07  C 
BRANCH 20 21
ATOM     21  CG  PHE E   4      -3.332  -8.228  -6.098  1.00 36.97 LIG-0.06  A 
ATOM     22  CD1 PHE E   4      -2.039  -7.790  -5.808  1.00 35.77 LIG 0.01  A 
ATOM     23  CE1 PHE E   4      -1.499  -6.691  -6.457  1.00 35.50 LIG 0.00  A 
ATOM     24  CZ  PHE E   4      -2.251  -6.018  -7.411  1.00 35.20 LIG 0.00  A 
ATOM     25  CE2 PHE E   4      -3.541  -6.441  -7.707  1.00 34.71 LIG 0.00  A 
ATOM     26  CD2 PHE E   4      -4.073  -7.540  -7.053  1.00 35.45 LIG 0.01  A 
ENDBRANCH 20 21
ENDBRANCH 16 20
ENDBRANCH 14 16
ENDBRANCH 10 12
ENDBRANCH 8 10
ENDBRANCH 5 6
BRANCH 5 27
ATOM     27  CB  ASP E   2      -1.845  -7.816 -13.092  1.00 43.54 LIG 0.15  C 
BRANCH 27 28
ATOM     28  CG  ASP E   2      -3.248  -8.100 -13.613  1.00 45.99 LIG 0.17  C 
ATOM     29 OD2  ASP E   2      -3.374  -8.498 -14.793  1.00 46.35 LIG-0.65  OA
ATOM     30 OD1  ASP E   2      -4.222  -7.938 -12.846  1.00 46.97 LIG-0.65  OA
ENDBRANCH 27 28
ENDBRANCH 5 27
ENDBRANCH 3 5
BRANCH 1 31
ATOM     31  CA  LEU E   1       1.115  -6.052  -9.653  1.00 39.47 LIG 0.18  C 
BRANCH 31 32
ATOM     32  CB  LEU E   1       0.858  -4.567  -9.968  1.00 38.97 LIG 0.04  C 
BRANCH 32 33
ATOM     33  CG  LEU E   1       0.275  -3.710  -8.832  1.00 40.05 LIG-0.02  C 
ATOM     34  CD2 LEU E   1      -1.173  -3.313  -9.113  1.00 40.58 LIG 0.01  C 
ATOM     35  CD1 LEU E   1       1.125  -2.474  -8.576  1.00 39.33 LIG 0.01  C 
ENDBRANCH 32 33
ENDBRANCH 31 32
BRANCH 31 36
ATOM     36  N   LEU E   1       2.293  -6.539 -10.372  1.00 38.97 LIG-0.35  N 
ATOM     37  C   GLN E   0       2.462  -6.319 -11.674  1.00 38.27 LIG 0.24  C 
ATOM     38 O    GLN E   0       1.646  -5.708 -12.373  1.00 40.12 LIG-0.27  OA
ATOM     39 H    LEU E   1       2.852  -6.972  -9.883  1.00 38.97 LIG 0.16  HD
BRANCH 37 40
ATOM     40  CA  GLN E   0       3.761  -6.853 -12.278  1.00 36.47 LIG 0.18  C 
BRANCH 40 41
ATOM     41  N   GLN E   0       3.646  -7.109 -13.748  1.00 35.61 LIG-0.35  N 
ATOM     42  C   ACE E  -1       3.676  -8.326 -14.301  1.00 35.56 LIG 0.21  C 
ATOM     43 O    ACE E  -1       3.814  -9.366 -13.672  1.00 35.09 LIG-0.27  OA
ATOM     44  CH3 ACE E  -1       3.712  -8.356 -15.812  1.00 35.40 LIG 0.12  C 
ATOM     45 H    GLN E   0       3.558  -6.390 -14.212  1.00 35.61 LIG 0.16  HD
ENDBRANCH 40 41
BRANCH 40 46
ATOM     46  CB  GLN E   0       4.905  -5.873 -11.984  1.00 35.42 LIG 0.04  C 
BRANCH 46 47
ATOM     47  CG  GLN E   0       6.075  -5.978 -12.961  1.00 33.87 LIG 0.10  C 
BRANCH 47 48
ATOM     48  CD  GLN E   0       6.884  -7.245 -12.758  1.00 33.67 LIG 0.21  C 
ATOM     49 OE1  GLN E   0       7.110  -8.003 -13.700  1.00 31.67 LIG-0.27  OA
ATOM     50  NE2 GLN E   0       7.316  -7.486 -11.522  1.00 33.23 LIG-0.37  N 
ATOM     51 22HE GLN E   0       7.772  -8.196 -11.357  1.00 33.23 LIG 0.16  HD
ATOM     52 21HE GLN E   0       7.137  -6.932 -10.889  1.00 33.23 LIG 0.16  HD
ENDBRANCH 47 48
ENDBRANCH 46 47
ENDBRANCH 40 46
ENDBRANCH 37 40
ENDBRANCH 31 36
ENDBRANCH 1 31
TORSDOF 19
ENDMDL
MODEL 38
USER: ADFR SOLUTION from run 194
USER: SCORE 13.082665 LL:  -3.352 LR: -12.150 RR:   0.000 FEB:  -6.483
USER: RMSD 4.402352
USER: SEED 193
USER: STATUS no improvement in best in 10 clusters for 5 generations
USER: GENES 21
USER: genes 0 Translation |==|  0.44766 0.51841 0.55157
USER: genes 1 Rotation |==|  0.88548 0.47214 0.47671 0.81636
USER: genes 2 Torsion [C]-N--CA-[CB] |==|  0.17725
USER: genes 3 Torsion [N]-CA--C-[N] |==|  0.11952
USER: genes 4 Torsion [C]-N--CA-[CB] |==|  0.53048
USER: genes 5 Torsion [N]-CA--C-[N] |==|  0.88658
USER: genes 6 Torsion [C]-N--CA-[CB] |==|  0.25125
USER: genes 7 Torsion [N]-CA--C-[O] |==|  0.42502
USER: genes 8 Torsion [N]-CA--CB-[CG] |==|  0.46408
USER: genes 9 Torsion [CA]-CB--CG-[CD1] |==|  0.68517
USER: genes 10 Torsion [N]-CA--CB-[CG] |==|  0.13861
USER: genes 11 Torsion [CA]-CB--CG-[OD2] |==|  0.06462
USER: genes 12 Torsion [N]-C--CA-[N] |==|  0.16645
USER: genes 13 Torsion [C]-CA--CB-[CG] |==|  0.32353
USER: genes 14 Torsion [CA]-CB--CG-[CD2] |==|  0.00159
USER: genes 15 Torsion [C]-CA--N-[C] |==|  0.11743
USER: genes 16 Torsion [N]-C--CA-[N] |==|  0.35864
USER: genes 17 Torsion [C]-CA--N-[C] |==|  0.67722
USER: genes 18 Torsion [C]-CA--CB-[CG] |==|  0.87513
USER: genes 19 Torsion [CA]-CB--CG-[CD] |==|  0.29692
USER: genes 20 Torsion [CB]-CG--CD-[OE1] |==|  0.38771
ROOT
ATOM      1  C   LEU E   1       2.455  -6.709 -11.691  1.00 39.66 LIG 0.24  C 
ATOM      2 O    LEU E   1       2.217  -7.871 -11.347  1.00 37.26 LIG-0.27  OA
ATOM      3  N   ASP E   2       3.661  -6.298 -12.084  1.00 41.55 LIG-0.35  N 
ATOM      4 H    ASP E   2       3.833  -5.490 -12.326  1.00 41.55 LIG 0.16  HD
ENDROOT
BRANCH 3 5
ATOM      5  CA  ASP E   2       4.820  -7.196 -12.139  1.00 42.33 LIG 0.19  C 
BRANCH 5 6
ATOM      6  C   ASP E   2       6.097  -6.428 -12.467  1.00 41.58 LIG 0.24  C 
ATOM      7 O    ASP E   2       6.916  -6.887 -13.271  1.00 40.78 LIG-0.27  OA
ATOM      8  N   ALA E   3       6.258  -5.267 -11.831  1.00 40.17 LIG-0.35  N 
ATOM      9 H    ALA E   3       5.695  -4.962 -11.257  1.00 40.17 LIG 0.16  HD
BRANCH 8 10
ATOM     10  CA  ALA E   3       7.415  -4.389 -12.047  1.00 38.52 LIG 0.17  C 
ATOM     11  CB  ALA E   3       7.445  -3.288 -10.990  1.00 38.62 LIG 0.04  C 
BRANCH 10 12
ATOM     12  C   ALA E   3       8.748  -5.136 -12.076  1.00 38.02 LIG 0.24  C 
ATOM     13 O    ALA E   3       9.619  -4.836 -12.894  1.00 36.71 LIG-0.27  OA
ATOM     14  N   PHE E   4       8.890  -6.105 -11.174  1.00 38.01 LIG-0.34  N 
ATOM     15 H    PHE E   4       8.250  -6.369 -10.664  1.00 38.01 LIG 0.16  HD
BRANCH 14 16
ATOM     16  CA  PHE E   4      10.147  -6.819 -10.960  1.00 38.29 LIG 0.19  C 
BRANCH 16 17
ATOM     17  C   PHE E   4       9.857  -8.252 -10.524  1.00 39.00 LIG 0.20  C 
ATOM     18 OXT  PHE E   4       8.801  -8.539  -9.956  1.00 39.22 LIG-0.65  OA
ATOM     19 O    PHE E   4      10.663  -9.161 -10.752  1.00 39.04 LIG-0.65  OA
ENDBRANCH 16 17
BRANCH 16 20
ATOM     20  CB  PHE E   4      10.990  -6.112  -9.884  1.00 37.57 LIG 0.07  C 
BRANCH 20 21
ATOM     21  CG  PHE E   4      12.148  -6.938  -9.383  1.00 36.97 LIG-0.06  A 
ATOM     22  CD1 PHE E   4      12.178  -7.403  -8.067  1.00 35.77 LIG 0.01  A 
ATOM     23  CE1 PHE E   4      13.250  -8.149  -7.602  1.00 35.50 LIG 0.00  A 
ATOM     24  CZ  PHE E   4      14.305  -8.442  -8.455  1.00 35.20 LIG 0.00  A 
ATOM     25  CE2 PHE E   4      14.290  -7.982  -9.766  1.00 34.71 LIG 0.00  A 
ATOM     26  CD2 PHE E   4      13.217  -7.236 -10.223  1.00 35.45 LIG 0.01  A 
ENDBRANCH 20 21
ENDBRANCH 16 20
ENDBRANCH 14 16
ENDBRANCH 10 12
ENDBRANCH 8 10
ENDBRANCH 5 6
BRANCH 5 27
ATOM     27  CB  ASP E   2       4.602  -8.312 -13.169  1.00 43.54 LIG 0.15  C 
BRANCH 27 28
ATOM     28  CG  ASP E   2       4.145  -7.784 -14.523  1.00 45.99 LIG 0.17  C 
ATOM     29 OD2  ASP E   2       4.409  -6.597 -14.819  1.00 46.35 LIG-0.65  OA
ATOM     30 OD1  ASP E   2       3.532  -8.554 -15.296  1.00 46.97 LIG-0.65  OA
ENDBRANCH 27 28
ENDBRANCH 5 27
ENDBRANCH 3 5
BRANCH 1 31
ATOM     31  CA  LEU E   1       1.339  -5.655 -11.710  1.00 39.47 LIG 0.18  C 
BRANCH 31 32
ATOM     32  CB  LEU E   1       0.023  -6.198 -11.125  1.00 38.97 LIG 0.04  C 
BRANCH 32 33
ATOM     33  CG  LEU E   1      -0.497  -5.521  -9.845  1.00 40.05 LIG-0.02  C 
ATOM     34  CD2 LEU E   1       0.422  -4.389  -9.395  1.00 40.58 LIG 0.01  C 
ATOM     35  CD1 LEU E   1      -0.689  -6.529  -8.722  1.00 39.33 LIG 0.01  C 
ENDBRANCH 32 33
ENDBRANCH 31 32
BRANCH 31 36
ATOM     36  N   LEU E   1       1.125  -5.112 -13.052  1.00 38.97 LIG-0.35  N 
ATOM     37  C   GLN E   0       1.117  -5.890 -14.132  1.00 38.27 LIG 0.24  C 
ATOM     38 O    GLN E   0       1.301  -7.112 -14.093  1.00 40.12 LIG-0.27  OA
ATOM     39 H    LEU E   1       1.008  -4.260 -13.074  1.00 38.97 LIG 0.16  HD
BRANCH 37 40
ATOM     40  CA  GLN E   0       0.841  -5.185 -15.460  1.00 36.47 LIG 0.18  C 
BRANCH 40 41
ATOM     41  N   GLN E   0       1.860  -5.515 -16.506  1.00 35.61 LIG-0.35  N 
ATOM     42  C   ACE E  -1       2.689  -4.619 -17.053  1.00 35.56 LIG 0.21  C 
ATOM     43 O    ACE E  -1       2.699  -3.428 -16.772  1.00 35.09 LIG-0.27  OA
ATOM     44  CH3 ACE E  -1       3.525  -5.122 -18.207  1.00 35.40 LIG 0.12  C 
ATOM     45 H    GLN E   0       1.864  -6.346 -16.727  1.00 35.61 LIG 0.16  HD
ENDBRANCH 40 41
BRANCH 40 46
ATOM     46  CB  GLN E   0      -0.571  -5.540 -15.946  1.00 35.42 LIG 0.04  C 
BRANCH 46 47
ATOM     47  CG  GLN E   0      -0.909  -7.026 -15.829  1.00 33.87 LIG 0.10  C 
BRANCH 47 48
ATOM     48  CD  GLN E   0      -1.885  -7.308 -14.702  1.00 33.67 LIG 0.21  C 
ATOM     49 OE1  GLN E   0      -2.794  -8.124 -14.848  1.00 31.67 LIG-0.27  OA
ATOM     50  NE2 GLN E   0      -1.708  -6.624 -13.573  1.00 33.23 LIG-0.37  N 
ATOM     51 22HE GLN E   0      -2.241  -6.745 -12.909  1.00 33.23 LIG 0.16  HD
ATOM     52 21HE GLN E   0      -1.060  -6.061 -13.510  1.00 33.23 LIG 0.16  HD
ENDBRANCH 47 48
ENDBRANCH 46 47
ENDBRANCH 40 46
ENDBRANCH 37 40
ENDBRANCH 31 36
ENDBRANCH 1 31
TORSDOF 19
ENDMDL
MODEL 39
USER: ADFR SOLUTION from run 175
USER: SCORE 15.486422 LL:  -4.660 LR: -12.141 RR:   0.000 FEB:  -6.473
USER: RMSD 10.309954
USER: SEED 174
USER: STATUS searching
USER: GENES 21
USER: genes 0 Translation |==|  0.36619 0.58980 0.61160
USER: genes 1 Rotation |==|  0.33561 0.13481 0.31911 0.73852
USER: genes 2 Torsion [C]-N--CA-[CB] |==|  0.14311
USER: genes 3 Torsion [N]-CA--C-[N] |==|  0.12468
USER: genes 4 Torsion [C]-N--CA-[CB] |==|  0.82414
USER: genes 5 Torsion [N]-CA--C-[N] |==|  0.36519
USER: genes 6 Torsion [C]-N--CA-[CB] |==|  0.26084
USER: genes 7 Torsion [N]-CA--C-[O] |==|  0.75225
USER: genes 8 Torsion [N]-CA--CB-[CG] |==|  0.87097
USER: genes 9 Torsion [CA]-CB--CG-[CD1] |==|  0.80131
USER: genes 10 Torsion [N]-CA--CB-[CG] |==|  0.68287
USER: genes 11 Torsion [CA]-CB--CG-[OD2] |==|  0.49635
USER: genes 12 Torsion [N]-C--CA-[N] |==|  0.32121
USER: genes 13 Torsion [C]-CA--CB-[CG] |==|  0.30673
USER: genes 14 Torsion [CA]-CB--CG-[CD2] |==|  0.39144
USER: genes 15 Torsion [C]-CA--N-[C] |==|  0.57293
USER: genes 16 Torsion [N]-C--CA-[N] |==|  0.71269
USER: genes 17 Torsion [C]-CA--N-[C] |==|  0.17605
USER: genes 18 Torsion [C]-CA--CB-[CG] |==|  0.51574
USER: genes 19 Torsion [CA]-CB--CG-[CD] |==|  0.59452
USER: genes 20 Torsion [CB]-CG--CD-[OE1] |==|  0.67835
ROOT
ATOM      1  C   LEU E   1       0.438  -5.585 -10.656  1.00 39.66 LIG 0.24  C 
ATOM      2 O    LEU E   1       0.427  -4.376 -10.906  1.00 37.26 LIG-0.27  OA
ATOM      3  N   ASP E   2      -0.118  -6.107  -9.562  1.00 41.55 LIG-0.35  N 
ATOM      4 H    ASP E   2      -0.115  -6.948  -9.382  1.00 41.55 LIG 0.16  HD
ENDROOT
BRANCH 3 5
ATOM      5  CA  ASP E   2      -0.795  -5.285  -8.552  1.00 42.33 LIG 0.19  C 
BRANCH 5 6
ATOM      6  C   ASP E   2      -1.457  -6.153  -7.488  1.00 41.58 LIG 0.24  C 
ATOM      7 O    ASP E   2      -2.604  -5.904  -7.099  1.00 40.78 LIG-0.27  OA
ATOM      8  N   ALA E   3      -0.722  -7.163  -7.019  1.00 40.17 LIG-0.35  N 
ATOM      9 H    ALA E   3       0.082  -7.319  -7.278  1.00 40.17 LIG 0.16  HD
BRANCH 8 10
ATOM     10  CA  ALA E   3      -1.214  -8.111  -6.012  1.00 38.52 LIG 0.17  C 
ATOM     11  CB  ALA E   3      -1.507  -7.383  -4.702  1.00 38.62 LIG 0.04  C 
BRANCH 10 12
ATOM     12  C   ALA E   3      -2.441  -8.901  -6.467  1.00 38.02 LIG 0.24  C 
ATOM     13 O    ALA E   3      -3.406  -8.325  -6.971  1.00 36.71 LIG-0.27  OA
ATOM     14  N   PHE E   4      -2.385 -10.218  -6.282  1.00 38.01 LIG-0.34  N 
ATOM     15 H    PHE E   4      -1.750 -10.606  -5.853  1.00 38.01 LIG 0.16  HD
BRANCH 14 16
ATOM     16  CA  PHE E   4      -3.399 -11.139  -6.792  1.00 38.29 LIG 0.19  C 
BRANCH 16 17
ATOM     17  C   PHE E   4      -3.588 -12.292  -5.809  1.00 39.00 LIG 0.20  C 
ATOM     18 OXT  PHE E   4      -4.446 -12.235  -4.926  1.00 39.22 LIG-0.65  OA
ATOM     19 O    PHE E   4      -2.903 -13.317  -5.894  1.00 39.04 LIG-0.65  OA
ENDBRANCH 16 17
BRANCH 16 20
ATOM     20  CB  PHE E   4      -2.981 -11.694  -8.165  1.00 37.57 LIG 0.07  C 
BRANCH 20 21
ATOM     21  CG  PHE E   4      -2.482 -10.638  -9.119  1.00 36.97 LIG-0.06  A 
ATOM     22  CD1 PHE E   4      -3.361  -9.718  -9.691  1.00 35.77 LIG 0.01  A 
ATOM     23  CE1 PHE E   4      -2.904  -8.757 -10.580  1.00 35.50 LIG 0.00  A 
ATOM     24  CZ  PHE E   4      -1.555  -8.706 -10.903  1.00 35.20 LIG 0.00  A 
ATOM     25  CE2 PHE E   4      -0.669  -9.618 -10.343  1.00 34.71 LIG 0.00  A 
ATOM     26  CD2 PHE E   4      -1.133 -10.575  -9.457  1.00 35.45 LIG 0.01  A 
ENDBRANCH 20 21
ENDBRANCH 16 20
ENDBRANCH 14 16
ENDBRANCH 10 12
ENDBRANCH 8 10
ENDBRANCH 5 6
BRANCH 5 27
ATOM     27  CB  ASP E   2      -1.838  -4.365  -9.201  1.00 43.54 LIG 0.15  C 
BRANCH 27 28
ATOM     28  CG  ASP E   2      -1.482  -2.889  -9.078  1.00 45.99 LIG 0.17  C 
ATOM     29 OD2  ASP E   2      -2.250  -2.047  -9.594  1.00 46.35 LIG-0.65  OA
ATOM     30 OD1  ASP E   2      -0.443  -2.568  -8.458  1.00 46.97 LIG-0.65  OA
ENDBRANCH 27 28
ENDBRANCH 5 27
ENDBRANCH 3 5
BRANCH 1 31
ATOM     31  CA  LEU E   1       1.087  -6.579 -11.629  1.00 39.47 LIG 0.18  C 
BRANCH 31 32
ATOM     32  CB  LEU E   1       2.592  -6.310 -11.809  1.00 38.97 LIG 0.04  C 
BRANCH 32 33
ATOM     33  CG  LEU E   1       3.557  -7.349 -11.213  1.00 40.05 LIG-0.02  C 
ATOM     34  CD2 LEU E   1       4.756  -7.592 -12.126  1.00 40.58 LIG 0.01  C 
ATOM     35  CD1 LEU E   1       2.845  -8.659 -10.910  1.00 39.33 LIG 0.01  C 
ENDBRANCH 32 33
ENDBRANCH 31 32
BRANCH 31 36
ATOM     36  N   LEU E   1       0.405  -6.600 -12.922  1.00 38.97 LIG-0.35  N 
ATOM     37  C   GLN E   0       0.425  -7.673 -13.711  1.00 38.27 LIG 0.24  C 
ATOM     38 O    GLN E   0       1.025  -8.715 -13.425  1.00 40.12 LIG-0.27  OA
ATOM     39 H    LEU E   1      -0.002  -5.869 -13.120  1.00 38.97 LIG 0.16  HD
BRANCH 37 40
ATOM     40  CA  GLN E   0      -0.367  -7.560 -15.012  1.00 36.47 LIG 0.18  C 
BRANCH 40 41
ATOM     41  N   GLN E   0      -1.670  -8.295 -14.956  1.00 35.61 LIG-0.35  N 
ATOM     42  C   ACE E  -1      -2.668  -7.987 -14.120  1.00 35.56 LIG 0.21  C 
ATOM     43 O    ACE E  -1      -2.625  -7.082 -13.299  1.00 35.09 LIG-0.27  OA
ATOM     44  CH3 ACE E  -1      -3.830  -8.954 -14.108  1.00 35.40 LIG 0.12  C 
ATOM     45 H    GLN E   0      -1.719  -8.943 -15.519  1.00 35.61 LIG 0.16  HD
ENDBRANCH 40 41
BRANCH 40 46
ATOM     46  CB  GLN E   0      -0.593  -6.079 -15.349  1.00 35.42 LIG 0.04  C 
BRANCH 46 47
ATOM     47  CG  GLN E   0      -1.494  -5.851 -16.561  1.00 33.87 LIG 0.10  C 
BRANCH 47 48
ATOM     48  CD  GLN E   0      -1.088  -4.626 -17.359  1.00 33.67 LIG 0.21  C 
ATOM     49 OE1  GLN E   0      -1.843  -3.659 -17.454  1.00 31.67 LIG-0.27  OA
ATOM     50  NE2 GLN E   0       0.106  -4.666 -17.948  1.00 33.23 LIG-0.37  N 
ATOM     51 22HE GLN E   0       0.376  -3.997 -18.418  1.00 33.23 LIG 0.16  HD
ATOM     52 21HE GLN E   0       0.605  -5.360 -17.859  1.00 33.23 LIG 0.16  HD
ENDBRANCH 47 48
ENDBRANCH 46 47
ENDBRANCH 40 46
ENDBRANCH 37 40
ENDBRANCH 31 36
ENDBRANCH 1 31
TORSDOF 19
ENDMDL
MODEL 40
USER: ADFR SOLUTION from run 26
USER: SCORE 14.534582 LL:  -3.906 LR: -12.134 RR:   0.000 FEB:  -6.467
USER: RMSD 5.924755
USER: SEED 25
USER: STATUS no improvement in best in 11 clusters for 5 generations
USER: GENES 21
USER: genes 0 Translation |==|  0.31088 0.50844 0.57232
USER: genes 1 Rotation |==|  0.76674 0.50974 0.79099 0.80672
USER: genes 2 Torsion [C]-N--CA-[CB] |==|  0.87996
USER: genes 3 Torsion [N]-CA--C-[N] |==|  0.89001
USER: genes 4 Torsion [C]-N--CA-[CB] |==|  0.46408
USER: genes 5 Torsion [N]-CA--C-[N] |==|  0.36672
USER: genes 6 Torsion [C]-N--CA-[CB] |==|  0.51655
USER: genes 7 Torsion [N]-CA--C-[O] |==|  0.81618
USER: genes 8 Torsion [N]-CA--CB-[CG] |==|  0.76585
USER: genes 9 Torsion [CA]-CB--CG-[CD1] |==|  0.00408
USER: genes 10 Torsion [N]-CA--CB-[CG] |==|  0.79899
USER: genes 11 Torsion [CA]-CB--CG-[OD2] |==|  0.45990
USER: genes 12 Torsion [N]-C--CA-[N] |==|  0.11554
USER: genes 13 Torsion [C]-CA--CB-[CG] |==|  0.44853
USER: genes 14 Torsion [CA]-CB--CG-[CD2] |==|  0.87574
USER: genes 15 Torsion [C]-CA--N-[C] |==|  0.17494
USER: genes 16 Torsion [N]-C--CA-[N] |==|  0.01335
USER: genes 17 Torsion [C]-CA--N-[C] |==|  0.68844
USER: genes 18 Torsion [C]-CA--CB-[CG] |==|  0.37056
USER: genes 19 Torsion [CA]-CB--CG-[CD] |==|  0.25226
USER: genes 20 Torsion [CB]-CG--CD-[OE1] |==|  0.24093
ROOT
ATOM      1  C   LEU E   1      -0.931  -6.866 -11.333  1.00 39.66 LIG 0.24  C 
ATOM      2 O    LEU E   1      -0.640  -7.747 -10.518  1.00 37.26 LIG-0.27  OA
ATOM      3  N   ASP E   2      -0.539  -5.597 -11.205  1.00 41.55 LIG-0.35  N 
ATOM      4 H    ASP E   2      -0.737  -4.979 -11.770  1.00 41.55 LIG 0.16  HD
ENDROOT
BRANCH 3 5
ATOM      5  CA  ASP E   2       0.273  -5.134 -10.074  1.00 42.33 LIG 0.19  C 
BRANCH 5 6
ATOM      6  C   ASP E   2       1.744  -5.486 -10.271  1.00 41.58 LIG 0.24  C 
ATOM      7 O    ASP E   2       2.630  -4.684  -9.956  1.00 40.78 LIG-0.27  OA
ATOM      8  N   ALA E   3       1.989  -6.685 -10.802  1.00 40.17 LIG-0.35  N 
ATOM      9 H    ALA E   3       1.369  -7.231 -11.039  1.00 40.17 LIG 0.16  HD
BRANCH 8 10
ATOM     10  CA  ALA E   3       3.347  -7.195 -11.036  1.00 38.52 LIG 0.17  C 
ATOM     11  CB  ALA E   3       3.302  -8.690 -11.345  1.00 38.62 LIG 0.04  C 
BRANCH 10 12
ATOM     12  C   ALA E   3       4.096  -6.447 -12.138  1.00 38.02 LIG 0.24  C 
ATOM     13 O    ALA E   3       3.558  -6.225 -13.224  1.00 36.71 LIG-0.27  OA
ATOM     14  N   PHE E   4       5.336  -6.065 -11.841  1.00 38.01 LIG-0.34  N 
ATOM     15 H    PHE E   4       5.739  -6.296 -11.117  1.00 38.01 LIG 0.16  HD
BRANCH 14 16
ATOM     16  CA  PHE E   4       6.140  -5.214 -12.715  1.00 38.29 LIG 0.19  C 
BRANCH 16 17
ATOM     17  C   PHE E   4       6.188  -5.814 -14.117  1.00 39.00 LIG 0.20  C 
ATOM     18 OXT  PHE E   4       5.683  -5.223 -15.075  1.00 39.22 LIG-0.65  OA
ATOM     19 O    PHE E   4       6.755  -6.891 -14.329  1.00 39.04 LIG-0.65  OA
ENDBRANCH 16 17
BRANCH 16 20
ATOM     20  CB  PHE E   4       7.571  -5.076 -12.164  1.00 37.57 LIG 0.07  C 
BRANCH 20 21
ATOM     21  CG  PHE E   4       7.717  -3.998 -11.119  1.00 36.97 LIG-0.06  A 
ATOM     22  CD1 PHE E   4       6.614  -3.249 -10.706  1.00 35.77 LIG 0.01  A 
ATOM     23  CE1 PHE E   4       6.752  -2.248  -9.758  1.00 35.50 LIG 0.00  A 
ATOM     24  CZ  PHE E   4       8.000  -1.989  -9.207  1.00 35.20 LIG 0.00  A 
ATOM     25  CE2 PHE E   4       9.106  -2.725  -9.612  1.00 34.71 LIG 0.00  A 
ATOM     26  CD2 PHE E   4       8.961  -3.722 -10.561  1.00 35.45 LIG 0.01  A 
ENDBRANCH 20 21
ENDBRANCH 16 20
ENDBRANCH 14 16
ENDBRANCH 10 12
ENDBRANCH 8 10
ENDBRANCH 5 6
BRANCH 5 27
ATOM     27  CB  ASP E   2      -0.234  -5.727  -8.754  1.00 43.54 LIG 0.15  C 
BRANCH 27 28
ATOM     28  CG  ASP E   2      -1.553  -5.113  -8.299  1.00 45.99 LIG 0.17  C 
ATOM     29 OD2  ASP E   2      -2.200  -5.693  -7.399  1.00 46.35 LIG-0.65  OA
ATOM     30 OD1  ASP E   2      -1.939  -4.048  -8.831  1.00 46.97 LIG-0.65  OA
ENDBRANCH 27 28
ENDBRANCH 5 27
ENDBRANCH 3 5
BRANCH 1 31
ATOM     31  CA  LEU E   1      -1.757  -7.199 -12.584  1.00 39.47 LIG 0.18  C 
BRANCH 31 32
ATOM     32  CB  LEU E   1      -1.876  -8.717 -12.809  1.00 38.97 LIG 0.04  C 
BRANCH 32 33
ATOM     33  CG  LEU E   1      -3.008  -9.192 -13.735  1.00 40.05 LIG-0.02  C 
ATOM     34  CD2 LEU E   1      -4.322  -8.478 -13.430  1.00 40.58 LIG 0.01  C 
ATOM     35  CD1 LEU E   1      -3.191 -10.701 -13.658  1.00 39.33 LIG 0.01  C 
ENDBRANCH 32 33
ENDBRANCH 31 32
BRANCH 31 36
ATOM     36  N   LEU E   1      -1.230  -6.537 -13.777  1.00 38.97 LIG-0.35  N 
ATOM     37  C   GLN E   0      -0.012  -6.800 -14.248  1.00 38.27 LIG 0.24  C 
ATOM     38 O    GLN E   0       0.765  -7.600 -13.715  1.00 40.12 LIG-0.27  OA
ATOM     39 H    LEU E   1      -1.771  -5.974 -14.137  1.00 38.97 LIG 0.16  HD
BRANCH 37 40
ATOM     40  CA  GLN E   0       0.384  -6.060 -15.525  1.00 36.47 LIG 0.18  C 
BRANCH 40 41
ATOM     41  N   GLN E   0      -0.652  -5.070 -15.958  1.00 35.61 LIG-0.35  N 
ATOM     42  C   ACE E  -1      -1.392  -5.196 -17.065  1.00 35.56 LIG 0.21  C 
ATOM     43 O    ACE E  -1      -1.297  -6.125 -17.855  1.00 35.09 LIG-0.27  OA
ATOM     44  CH3 ACE E  -1      -2.260  -4.007 -17.408  1.00 35.40 LIG 0.12  C 
ATOM     45 H    GLN E   0      -0.728  -4.402 -15.422  1.00 35.61 LIG 0.16  HD
ENDBRANCH 40 41
BRANCH 40 46
ATOM     46  CB  GLN E   0       1.741  -5.373 -15.320  1.00 35.42 LIG 0.04  C 
BRANCH 46 47
ATOM     47  CG  GLN E   0       2.723  -5.589 -16.471  1.00 33.87 LIG 0.10  C 
BRANCH 47 48
ATOM     48  CD  GLN E   0       2.619  -4.507 -17.529  1.00 33.67 LIG 0.21  C 
ATOM     49 OE1  GLN E   0       3.258  -3.462 -17.423  1.00 31.67 LIG-0.27  OA
ATOM     50  NE2 GLN E   0       1.802  -4.749 -18.552  1.00 33.23 LIG-0.37  N 
ATOM     51 22HE GLN E   0       1.704  -4.161 -19.172  1.00 33.23 LIG 0.16  HD
ATOM     52 21HE GLN E   0       1.371  -5.492 -18.591  1.00 33.23 LIG 0.16  HD
ENDBRANCH 47 48
ENDBRANCH 46 47
ENDBRANCH 40 46
ENDBRANCH 37 40
ENDBRANCH 31 36
ENDBRANCH 1 31
TORSDOF 19
ENDMDL
MODEL 41
USER: ADFR SOLUTION from run 54
USER: SCORE 13.667269 LL:  -3.203 LR: -12.123 RR:   0.000 FEB:  -6.456
USER: RMSD 10.140307
USER: SEED 53
USER: STATUS no improvement in best in 4 clusters for 5 generations
USER: GENES 21
USER: genes 0 Translation |==|  0.72849 0.65584 0.56193
USER: genes 1 Rotation |==|  0.30514 0.70493 0.19325 0.77557
USER: genes 2 Torsion [C]-N--CA-[CB] |==|  0.17195
USER: genes 3 Torsion [N]-CA--C-[N] |==|  0.17220
USER: genes 4 Torsion [C]-N--CA-[CB] |==|  0.88256
USER: genes 5 Torsion [N]-CA--C-[N] |==|  0.37768
USER: genes 6 Torsion [C]-N--CA-[CB] |==|  0.24562
USER: genes 7 Torsion [N]-CA--C-[O] |==|  0.90178
USER: genes 8 Torsion [N]-CA--CB-[CG] |==|  0.56564
USER: genes 9 Torsion [CA]-CB--CG-[CD1] |==|  0.23983
USER: genes 10 Torsion [N]-CA--CB-[CG] |==|  0.60237
USER: genes 11 Torsion [CA]-CB--CG-[OD2] |==|  0.86701
USER: genes 12 Torsion [N]-C--CA-[N] |==|  0.74628
USER: genes 13 Torsion [C]-CA--CB-[CG] |==|  0.28144
USER: genes 14 Torsion [CA]-CB--CG-[CD2] |==|  0.28807
USER: genes 15 Torsion [C]-CA--N-[C] |==|  0.77193
USER: genes 16 Torsion [N]-C--CA-[N] |==|  0.42673
USER: genes 17 Torsion [C]-CA--N-[C] |==|  0.65301
USER: genes 18 Torsion [C]-CA--CB-[CG] |==|  0.82309
USER: genes 19 Torsion [CA]-CB--CG-[CD] |==|  0.79285
USER: genes 20 Torsion [CB]-CG--CD-[OE1] |==|  0.78435
ROOT
ATOM      1  C   LEU E   1       9.405  -4.545 -11.513  1.00 39.66 LIG 0.24  C 
ATOM      2 O    LEU E   1      10.631  -4.590 -11.650  1.00 37.26 LIG-0.27  OA
ATOM      3  N   ASP E   2       8.668  -5.610 -11.197  1.00 41.55 LIG-0.35  N 
ATOM      4 H    ASP E   2       7.813  -5.585 -11.099  1.00 41.55 LIG 0.16  HD
ENDROOT
BRANCH 3 5
ATOM      5  CA  ASP E   2       9.253  -6.939 -10.987  1.00 42.33 LIG 0.19  C 
BRANCH 5 6
ATOM      6  C   ASP E   2       8.170  -7.987 -10.751  1.00 41.58 LIG 0.24  C 
ATOM      7 O    ASP E   2       8.123  -8.612  -9.685  1.00 40.78 LIG-0.27  OA
ATOM      8  N   ALA E   3       7.312  -8.175 -11.755  1.00 40.17 LIG-0.35  N 
ATOM      9 H    ALA E   3       7.361  -7.753 -12.502  1.00 40.17 LIG 0.16  HD
BRANCH 8 10
ATOM     10  CA  ALA E   3       6.194  -9.125 -11.686  1.00 38.52 LIG 0.17  C 
ATOM     11  CB  ALA E   3       6.650 -10.427 -11.031  1.00 38.62 LIG 0.04  C 
BRANCH 10 12
ATOM     12  C   ALA E   3       4.967  -8.569 -10.966  1.00 38.02 LIG 0.24  C 
ATOM     13 O    ALA E   3       5.087  -7.940  -9.913  1.00 36.71 LIG-0.27  OA
ATOM     14  N   PHE E   4       3.794  -8.809 -11.547  1.00 38.01 LIG-0.34  N 
ATOM     15 H    PHE E   4       3.704  -9.321 -12.233  1.00 38.01 LIG 0.16  HD
BRANCH 14 16
ATOM     16  CA  PHE E   4       2.537  -8.228 -11.080  1.00 38.29 LIG 0.19  C 
BRANCH 16 17
ATOM     17  C   PHE E   4       1.381  -9.170 -11.404  1.00 39.00 LIG 0.20  C 
ATOM     18 OXT  PHE E   4       0.410  -9.262 -10.650  1.00 39.22 LIG-0.65  OA
ATOM     19 O    PHE E   4       1.381  -9.843 -12.441  1.00 39.04 LIG-0.65  OA
ENDBRANCH 16 17
BRANCH 16 20
ATOM     20  CB  PHE E   4       2.293  -6.863 -11.750  1.00 37.57 LIG 0.07  C 
BRANCH 20 21
ATOM     21  CG  PHE E   4       1.380  -5.957 -10.963  1.00 36.97 LIG-0.06  A 
ATOM     22  CD1 PHE E   4       1.885  -5.129  -9.960  1.00 35.77 LIG 0.01  A 
ATOM     23  CE1 PHE E   4       1.043  -4.308  -9.226  1.00 35.50 LIG 0.00  A 
ATOM     24  CZ  PHE E   4      -0.319  -4.304  -9.495  1.00 35.20 LIG 0.00  A 
ATOM     25  CE2 PHE E   4      -0.835  -5.126 -10.489  1.00 34.71 LIG 0.00  A 
ATOM     26  CD2 PHE E   4       0.012  -5.944 -11.216  1.00 35.45 LIG 0.01  A 
ENDBRANCH 20 21
ENDBRANCH 16 20
ENDBRANCH 14 16
ENDBRANCH 10 12
ENDBRANCH 8 10
ENDBRANCH 5 6
BRANCH 5 27
ATOM     27  CB  ASP E   2      10.235  -6.927  -9.809  1.00 43.54 LIG 0.15  C 
BRANCH 27 28
ATOM     28  CG  ASP E   2      11.445  -7.823 -10.041  1.00 45.99 LIG 0.17  C 
ATOM     29 OD2  ASP E   2      11.252  -8.988 -10.455  1.00 46.35 LIG-0.65  OA
ATOM     30 OD1  ASP E   2      12.588  -7.363  -9.821  1.00 46.97 LIG-0.65  OA
ENDBRANCH 27 28
ENDBRANCH 5 27
ENDBRANCH 3 5
BRANCH 1 31
ATOM     31  CA  LEU E   1       8.648  -3.219 -11.677  1.00 39.47 LIG 0.18  C 
BRANCH 31 32
ATOM     32  CB  LEU E   1       7.449  -3.117 -10.718  1.00 38.97 LIG 0.04  C 
BRANCH 32 33
ATOM     33  CG  LEU E   1       7.643  -2.261  -9.455  1.00 40.05 LIG-0.02  C 
ATOM     34  CD2 LEU E   1       6.947  -0.908  -9.581  1.00 40.58 LIG 0.01  C 
ATOM     35  CD1 LEU E   1       9.118  -2.072  -9.133  1.00 39.33 LIG 0.01  C 
ENDBRANCH 32 33
ENDBRANCH 31 32
BRANCH 31 36
ATOM     36  N   LEU E   1       8.227  -3.000 -13.061  1.00 38.97 LIG-0.35  N 
ATOM     37  C   GLN E   0       9.056  -2.504 -13.978  1.00 38.27 LIG 0.24  C 
ATOM     38 O    GLN E   0      10.223  -2.180 -13.735  1.00 40.12 LIG-0.27  OA
ATOM     39 H    LEU E   1       7.411  -3.218 -13.221  1.00 38.97 LIG 0.16  HD
BRANCH 37 40
ATOM     40  CA  GLN E   0       8.485  -2.370 -15.389  1.00 36.47 LIG 0.18  C 
BRANCH 40 41
ATOM     41  N   GLN E   0       9.159  -1.291 -16.179  1.00 35.61 LIG-0.35  N 
ATOM     42  C   ACE E  -1       8.514  -0.278 -16.766  1.00 35.56 LIG 0.21  C 
ATOM     43 O    ACE E  -1       7.301  -0.125 -16.737  1.00 35.09 LIG-0.27  OA
ATOM     44  CH3 ACE E  -1       9.359   0.608 -17.652  1.00 35.40 LIG 0.12  C 
ATOM     45 H    GLN E   0      10.013  -1.385 -16.221  1.00 35.61 LIG 0.16  HD
ENDBRANCH 40 41
BRANCH 40 46
ATOM     46  CB  GLN E   0       8.587  -3.719 -16.114  1.00 35.42 LIG 0.04  C 
BRANCH 46 47
ATOM     47  CG  GLN E   0      10.021  -4.198 -16.331  1.00 33.87 LIG 0.10  C 
BRANCH 47 48
ATOM     48  CD  GLN E   0      10.726  -3.429 -17.434  1.00 33.67 LIG 0.21  C 
ATOM     49 OE1  GLN E   0      10.495  -3.676 -18.616  1.00 31.67 LIG-0.27  OA
ATOM     50  NE2 GLN E   0      11.597  -2.499 -17.050  1.00 33.23 LIG-0.37  N 
ATOM     51 22HE GLN E   0      12.027  -2.043 -17.639  1.00 33.23 LIG 0.16  HD
ATOM     52 21HE GLN E   0      11.732  -2.355 -16.212  1.00 33.23 LIG 0.16  HD
ENDBRANCH 47 48
ENDBRANCH 46 47
ENDBRANCH 40 46
ENDBRANCH 37 40
ENDBRANCH 31 36
ENDBRANCH 1 31
TORSDOF 19
ENDMDL
MODEL 42
USER: ADFR SOLUTION from run 57
USER: SCORE 13.593702 LL:  -3.753 LR: -12.069 RR:   0.000 FEB:  -6.402
USER: RMSD 4.750084
USER: SEED 56
USER: STATUS no improvement in best in 12 clusters for 5 generations
USER: GENES 21
USER: genes 0 Translation |==|  0.34542 0.50341 0.56934
USER: genes 1 Rotation |==|  0.85542 0.65649 0.36241 0.78329
USER: genes 2 Torsion [C]-N--CA-[CB] |==|  0.48061
USER: genes 3 Torsion [N]-CA--C-[N] |==|  0.88397
USER: genes 4 Torsion [C]-N--CA-[CB] |==|  0.84422
USER: genes 5 Torsion [N]-CA--C-[N] |==|  0.47061
USER: genes 6 Torsion [C]-N--CA-[CB] |==|  0.25856
USER: genes 7 Torsion [N]-CA--C-[O] |==|  0.49959
USER: genes 8 Torsion [N]-CA--CB-[CG] |==|  0.14099
USER: genes 9 Torsion [CA]-CB--CG-[CD1] |==|  0.25415
USER: genes 10 Torsion [N]-CA--CB-[CG] |==|  0.75399
USER: genes 11 Torsion [CA]-CB--CG-[OD2] |==|  0.12314
USER: genes 12 Torsion [N]-C--CA-[N] |==|  0.40827
USER: genes 13 Torsion [C]-CA--CB-[CG] |==|  0.28104
USER: genes 14 Torsion [CA]-CB--CG-[CD2] |==|  0.57200
USER: genes 15 Torsion [C]-CA--N-[C] |==|  0.81142
USER: genes 16 Torsion [N]-C--CA-[N] |==|  0.57138
USER: genes 17 Torsion [C]-CA--N-[C] |==|  0.66746
USER: genes 18 Torsion [C]-CA--CB-[CG] |==|  0.31339
USER: genes 19 Torsion [CA]-CB--CG-[CD] |==|  0.86255
USER: genes 20 Torsion [CB]-CG--CD-[OE1] |==|  0.74207
ROOT
ATOM      1  C   LEU E   1      -0.076  -6.945 -11.385  1.00 39.66 LIG 0.24  C 
ATOM      2 O    LEU E   1       0.270  -8.116 -11.201  1.00 37.26 LIG-0.27  OA
ATOM      3  N   ASP E   2       0.307  -6.231 -12.444  1.00 41.55 LIG-0.35  N 
ATOM      4 H    ASP E   2       0.068  -5.415 -12.579  1.00 41.55 LIG 0.16  HD
ENDROOT
BRANCH 3 5
ATOM      5  CA  ASP E   2       1.181  -6.776 -13.489  1.00 42.33 LIG 0.19  C 
BRANCH 5 6
ATOM      6  C   ASP E   2       2.561  -7.110 -12.934  1.00 41.58 LIG 0.24  C 
ATOM      7 O    ASP E   2       3.133  -8.157 -13.261  1.00 40.78 LIG-0.27  OA
ATOM      8  N   ALA E   3       3.081  -6.219 -12.088  1.00 40.17 LIG-0.35  N 
ATOM      9 H    ALA E   3       2.670  -5.503 -11.848  1.00 40.17 LIG 0.16  HD
BRANCH 8 10
ATOM     10  CA  ALA E   3       4.410  -6.371 -11.481  1.00 38.52 LIG 0.17  C 
ATOM     11  CB  ALA E   3       4.500  -7.702 -10.738  1.00 38.62 LIG 0.04  C 
BRANCH 10 12
ATOM     12  C   ALA E   3       5.555  -6.243 -12.485  1.00 38.02 LIG 0.24  C 
ATOM     13 O    ALA E   3       5.330  -6.227 -13.696  1.00 36.71 LIG-0.27  OA
ATOM     14  N   PHE E   4       6.776  -6.153 -11.963  1.00 38.01 LIG-0.34  N 
ATOM     15 H    PHE E   4       6.938  -6.252 -11.125  1.00 38.01 LIG 0.16  HD
BRANCH 14 16
ATOM     16  CA  PHE E   4       7.968  -5.877 -12.763  1.00 38.29 LIG 0.19  C 
BRANCH 16 17
ATOM     17  C   PHE E   4       9.166  -6.619 -12.177  1.00 39.00 LIG 0.20  C 
ATOM     18 OXT  PHE E   4       9.038  -7.342 -11.186  1.00 39.22 LIG-0.65  OA
ATOM     19 O    PHE E   4      10.283  -6.532 -12.697  1.00 39.04 LIG-0.65  OA
ENDBRANCH 16 17
BRANCH 16 20
ATOM     20  CB  PHE E   4       8.259  -4.366 -12.790  1.00 37.57 LIG 0.07  C 
BRANCH 20 21
ATOM     21  CG  PHE E   4       8.285  -3.729 -11.424  1.00 36.97 LIG-0.06  A 
ATOM     22  CD1 PHE E   4       9.477  -3.624 -10.706  1.00 35.77 LIG 0.01  A 
ATOM     23  CE1 PHE E   4       9.497  -3.053  -9.443  1.00 35.50 LIG 0.00  A 
ATOM     24  CZ  PHE E   4       8.319  -2.575  -8.886  1.00 35.20 LIG 0.00  A 
ATOM     25  CE2 PHE E   4       7.125  -2.676  -9.588  1.00 34.71 LIG 0.00  A 
ATOM     26  CD2 PHE E   4       7.112  -3.249 -10.848  1.00 35.45 LIG 0.01  A 
ENDBRANCH 20 21
ENDBRANCH 16 20
ENDBRANCH 14 16
ENDBRANCH 10 12
ENDBRANCH 8 10
ENDBRANCH 5 6
BRANCH 5 27
ATOM     27  CB  ASP E   2       1.312  -5.796 -14.662  1.00 43.54 LIG 0.15  C 
BRANCH 27 28
ATOM     28  CG  ASP E   2       0.230  -5.989 -15.717  1.00 45.99 LIG 0.17  C 
ATOM     29 OD2  ASP E   2      -0.951  -6.149 -15.334  1.00 46.35 LIG-0.65  OA
ATOM     30 OD1  ASP E   2       0.554  -5.970 -16.925  1.00 46.97 LIG-0.65  OA
ENDBRANCH 27 28
ENDBRANCH 5 27
ENDBRANCH 3 5
BRANCH 1 31
ATOM     31  CA  LEU E   1      -1.010  -6.241 -10.391  1.00 39.47 LIG 0.18  C 
BRANCH 31 32
ATOM     32  CB  LEU E   1      -0.229  -5.460  -9.319  1.00 38.97 LIG 0.04  C 
BRANCH 32 33
ATOM     33  CG  LEU E   1      -0.119  -3.938  -9.513  1.00 40.05 LIG-0.02  C 
ATOM     34  CD2 LEU E   1       1.124  -3.372  -8.831  1.00 40.58 LIG 0.01  C 
ATOM     35  CD1 LEU E   1      -1.369  -3.224  -9.020  1.00 39.33 LIG 0.01  C 
ENDBRANCH 32 33
ENDBRANCH 31 32
BRANCH 31 36
ATOM     36  N   LEU E   1      -1.951  -7.174  -9.772  1.00 38.97 LIG-0.35  N 
ATOM     37  C   GLN E   0      -2.919  -7.764 -10.470  1.00 38.27 LIG 0.24  C 
ATOM     38 O    GLN E   0      -3.109  -7.562 -11.675  1.00 40.12 LIG-0.27  OA
ATOM     39 H    LEU E   1      -1.820  -7.303  -8.932  1.00 38.97 LIG 0.16  HD
BRANCH 37 40
ATOM     40  CA  GLN E   0      -3.798  -8.745  -9.696  1.00 36.47 LIG 0.18  C 
BRANCH 40 41
ATOM     41  N   GLN E   0      -4.413  -9.785 -10.580  1.00 35.61 LIG-0.35  N 
ATOM     42  C   ACE E  -1      -5.731  -9.958 -10.728  1.00 35.56 LIG 0.21  C 
ATOM     43 O    ACE E  -1      -6.582  -9.297 -10.149  1.00 35.09 LIG-0.27  OA
ATOM     44  CH3 ACE E  -1      -6.144 -11.166 -11.536  1.00 35.40 LIG 0.12  C 
ATOM     45 H    GLN E   0      -3.832 -10.268 -10.991  1.00 35.61 LIG 0.16  HD
ENDBRANCH 40 41
BRANCH 40 46
ATOM     46  CB  GLN E   0      -2.974  -9.400  -8.579  1.00 35.42 LIG 0.04  C 
BRANCH 46 47
ATOM     47  CG  GLN E   0      -3.419  -9.008  -7.171  1.00 33.87 LIG 0.10  C 
BRANCH 47 48
ATOM     48  CD  GLN E   0      -3.563  -7.506  -7.009  1.00 33.67 LIG 0.21  C 
ATOM     49 OE1  GLN E   0      -2.627  -6.827  -6.591  1.00 31.67 LIG-0.27  OA
ATOM     50  NE2 GLN E   0      -4.744  -6.981  -7.331  1.00 33.23 LIG-0.37  N 
ATOM     51 22HE GLN E   0      -4.875  -6.135  -7.249  1.00 33.23 LIG 0.16  HD
ATOM     52 21HE GLN E   0      -5.375  -7.489  -7.620  1.00 33.23 LIG 0.16  HD
ENDBRANCH 47 48
ENDBRANCH 46 47
ENDBRANCH 40 46
ENDBRANCH 37 40
ENDBRANCH 31 36
ENDBRANCH 1 31
TORSDOF 19
ENDMDL
MODEL 43
USER: ADFR SOLUTION from run 44
USER: SCORE 15.968604 LL:  -4.676 LR: -12.043 RR:   0.000 FEB:  -6.376
USER: RMSD 10.444462
USER: SEED 43
USER: STATUS no improvement in best in 6 clusters for 5 generations
USER: GENES 21
USER: genes 0 Translation |==|  0.28406 0.43929 0.46154
USER: genes 1 Rotation |==|  0.67824 0.18430 0.83271 0.58867
USER: genes 2 Torsion [C]-N--CA-[CB] |==|  0.85556
USER: genes 3 Torsion [N]-CA--C-[N] |==|  0.34770
USER: genes 4 Torsion [C]-N--CA-[CB] |==|  0.15770
USER: genes 5 Torsion [N]-CA--C-[N] |==|  0.13007
USER: genes 6 Torsion [C]-N--CA-[CB] |==|  0.28848
USER: genes 7 Torsion [N]-CA--C-[O] |==|  0.62624
USER: genes 8 Torsion [N]-CA--CB-[CG] |==|  0.92364
USER: genes 9 Torsion [CA]-CB--CG-[CD1] |==|  0.29995
USER: genes 10 Torsion [N]-CA--CB-[CG] |==|  0.87983
USER: genes 11 Torsion [CA]-CB--CG-[OD2] |==|  0.25331
USER: genes 12 Torsion [N]-C--CA-[N] |==|  0.16666
USER: genes 13 Torsion [C]-CA--CB-[CG] |==|  0.43069
USER: genes 14 Torsion [CA]-CB--CG-[CD2] |==|  0.19385
USER: genes 15 Torsion [C]-CA--N-[C] |==|  0.14330
USER: genes 16 Torsion [N]-C--CA-[N] |==|  0.13230
USER: genes 17 Torsion [C]-CA--N-[C] |==|  0.12821
USER: genes 18 Torsion [C]-CA--CB-[CG] |==|  0.38580
USER: genes 19 Torsion [CA]-CB--CG-[CD] |==|  0.94523
USER: genes 20 Torsion [CB]-CG--CD-[OE1] |==|  0.81726
ROOT
ATOM      1  C   LEU E   1      -1.594  -7.955 -13.244  1.00 39.66 LIG 0.24  C 
ATOM      2 O    LEU E   1      -1.664  -9.078 -13.753  1.00 37.26 LIG-0.27  OA
ATOM      3  N   ASP E   2      -2.152  -7.651 -12.072  1.00 41.55 LIG-0.35  N 
ATOM      4 H    ASP E   2      -2.106  -6.871 -11.711  1.00 41.55 LIG 0.16  HD
ENDROOT
BRANCH 3 5
ATOM      5  CA  ASP E   2      -2.905  -8.630 -11.279  1.00 42.33 LIG 0.19  C 
BRANCH 5 6
ATOM      6  C   ASP E   2      -1.979  -9.683 -10.680  1.00 41.58 LIG 0.24  C 
ATOM      7 O    ASP E   2      -1.225 -10.342 -11.406  1.00 40.78 LIG-0.27  OA
ATOM      8  N   ALA E   3      -2.052  -9.839  -9.357  1.00 40.17 LIG-0.35  N 
ATOM      9 H    ALA E   3      -2.593  -9.392  -8.860  1.00 40.17 LIG 0.16  HD
BRANCH 8 10
ATOM     10  CA  ALA E   3      -1.214 -10.789  -8.615  1.00 38.52 LIG 0.17  C 
ATOM     11  CB  ALA E   3       0.263 -10.502  -8.875  1.00 38.62 LIG 0.04  C 
BRANCH 10 12
ATOM     12  C   ALA E   3      -1.497 -10.805  -7.113  1.00 38.02 LIG 0.24  C 
ATOM     13 O    ALA E   3      -0.572 -10.769  -6.300  1.00 36.71 LIG-0.27  OA
ATOM     14  N   PHE E   4      -2.780 -10.860  -6.765  1.00 38.01 LIG-0.34  N 
ATOM     15 H    PHE E   4      -3.417 -10.973  -7.332  1.00 38.01 LIG 0.16  HD
BRANCH 14 16
ATOM     16  CA  PHE E   4      -3.239 -10.732  -5.383  1.00 38.29 LIG 0.19  C 
BRANCH 16 17
ATOM     17  C   PHE E   4      -4.291 -11.798  -5.089  1.00 39.00 LIG 0.20  C 
ATOM     18 OXT  PHE E   4      -4.109 -12.973  -5.416  1.00 39.22 LIG-0.65  OA
ATOM     19 O    PHE E   4      -5.336 -11.512  -4.495  1.00 39.04 LIG-0.65  OA
ENDBRANCH 16 17
BRANCH 16 20
ATOM     20  CB  PHE E   4      -3.837  -9.335  -5.141  1.00 37.57 LIG 0.07  C 
BRANCH 20 21
ATOM     21  CG  PHE E   4      -3.265  -8.267  -6.040  1.00 36.97 LIG-0.06  A 
ATOM     22  CD1 PHE E   4      -4.024  -7.723  -7.077  1.00 35.77 LIG 0.01  A 
ATOM     23  CE1 PHE E   4      -3.493  -6.753  -7.912  1.00 35.50 LIG 0.00  A 
ATOM     24  CZ  PHE E   4      -2.191  -6.313  -7.713  1.00 35.20 LIG 0.00  A 
ATOM     25  CE2 PHE E   4      -1.423  -6.849  -6.687  1.00 34.71 LIG 0.00  A 
ATOM     26  CD2 PHE E   4      -1.961  -7.818  -5.858  1.00 35.45 LIG 0.01  A 
ENDBRANCH 20 21
ENDBRANCH 16 20
ENDBRANCH 14 16
ENDBRANCH 10 12
ENDBRANCH 8 10
ENDBRANCH 5 6
BRANCH 5 27
ATOM     27  CB  ASP E   2      -3.988  -9.308 -12.129  1.00 43.54 LIG 0.15  C 
BRANCH 27 28
ATOM     28  CG  ASP E   2      -4.746  -8.325 -13.013  1.00 45.99 LIG 0.17  C 
ATOM     29 OD2  ASP E   2      -4.322  -8.119 -14.172  1.00 46.35 LIG-0.65  OA
ATOM     30 OD1  ASP E   2      -5.769  -7.768 -12.557  1.00 46.97 LIG-0.65  OA
ENDBRANCH 27 28
ENDBRANCH 5 27
ENDBRANCH 3 5
BRANCH 1 31
ATOM     31  CA  LEU E   1      -0.820  -6.828 -13.941  1.00 39.47 LIG 0.18  C 
BRANCH 31 32
ATOM     32  CB  LEU E   1      -0.325  -7.245 -15.337  1.00 38.97 LIG 0.04  C 
BRANCH 32 33
ATOM     33  CG  LEU E   1      -0.080  -6.115 -16.351  1.00 40.05 LIG-0.02  C 
ATOM     34  CD2 LEU E   1       1.134  -5.271 -15.970  1.00 40.58 LIG 0.01  C 
ATOM     35  CD1 LEU E   1      -1.311  -5.235 -16.511  1.00 39.33 LIG 0.01  C 
ENDBRANCH 32 33
ENDBRANCH 31 32
BRANCH 31 36
ATOM     36  N   LEU E   1       0.290  -6.342 -13.121  1.00 38.97 LIG-0.35  N 
ATOM     37  C   GLN E   0       1.192  -7.170 -12.597  1.00 38.27 LIG 0.24  C 
ATOM     38 O    GLN E   0       1.157  -8.396 -12.746  1.00 40.12 LIG-0.27  OA
ATOM     39 H    LEU E   1       0.303  -5.489 -13.013  1.00 38.97 LIG 0.16  HD
BRANCH 37 40
ATOM     40  CA  GLN E   0       2.316  -6.512 -11.797  1.00 36.47 LIG 0.18  C 
BRANCH 40 41
ATOM     41  N   GLN E   0       1.807  -5.501 -10.818  1.00 35.61 LIG-0.35  N 
ATOM     42  C   ACE E  -1       0.771  -5.708  -9.998  1.00 35.56 LIG 0.21  C 
ATOM     43 O    ACE E  -1       0.114  -6.739  -9.965  1.00 35.09 LIG-0.27  OA
ATOM     44  CH3 ACE E  -1       0.314  -4.504  -9.207  1.00 35.40 LIG 0.12  C 
ATOM     45 H    GLN E   0       2.249  -4.763 -10.831  1.00 35.61 LIG 0.16  HD
ENDBRANCH 40 41
BRANCH 40 46
ATOM     46  CB  GLN E   0       3.139  -7.594 -11.084  1.00 35.42 LIG 0.04  C 
BRANCH 46 47
ATOM     47  CG  GLN E   0       4.646  -7.346 -11.116  1.00 33.87 LIG 0.10  C 
BRANCH 47 48
ATOM     48  CD  GLN E   0       5.049  -6.382 -12.217  1.00 33.67 LIG 0.21  C 
ATOM     49 OE1  GLN E   0       4.909  -6.687 -13.400  1.00 31.67 LIG-0.27  OA
ATOM     50  NE2 GLN E   0       5.562  -5.216 -11.831  1.00 33.23 LIG-0.37  N 
ATOM     51 22HE GLN E   0       5.812  -4.640 -12.419  1.00 33.23 LIG 0.16  HD
ATOM     52 21HE GLN E   0       5.645  -5.039 -10.993  1.00 33.23 LIG 0.16  HD
ENDBRANCH 47 48
ENDBRANCH 46 47
ENDBRANCH 40 46
ENDBRANCH 37 40
ENDBRANCH 31 36
ENDBRANCH 1 31
TORSDOF 19
ENDMDL
MODEL 44
USER: ADFR SOLUTION from run 199
USER: SCORE 14.916295 LL:  -4.210 LR: -12.027 RR:   0.000 FEB:  -6.359
USER: RMSD 10.223884
USER: SEED 198
USER: STATUS no improvement in best in 14 clusters for 5 generations
USER: GENES 21
USER: genes 0 Translation |==|  0.34652 0.46640 0.46211
USER: genes 1 Rotation |==|  0.52359 0.75210 0.06923 0.51806
USER: genes 2 Torsion [C]-N--CA-[CB] |==|  0.82169
USER: genes 3 Torsion [N]-CA--C-[N] |==|  0.49897
USER: genes 4 Torsion [C]-N--CA-[CB] |==|  0.75294
USER: genes 5 Torsion [N]-CA--C-[N] |==|  0.16459
USER: genes 6 Torsion [C]-N--CA-[CB] |==|  0.40569
USER: genes 7 Torsion [N]-CA--C-[O] |==|  0.47821
USER: genes 8 Torsion [N]-CA--CB-[CG] |==|  0.71696
USER: genes 9 Torsion [CA]-CB--CG-[CD1] |==|  0.98360
USER: genes 10 Torsion [N]-CA--CB-[CG] |==|  0.55211
USER: genes 11 Torsion [CA]-CB--CG-[OD2] |==|  0.54517
USER: genes 12 Torsion [N]-C--CA-[N] |==|  0.85084
USER: genes 13 Torsion [C]-CA--CB-[CG] |==|  0.28458
USER: genes 14 Torsion [CA]-CB--CG-[CD2] |==|  0.22740
USER: genes 15 Torsion [C]-CA--N-[C] |==|  0.70036
USER: genes 16 Torsion [N]-C--CA-[N] |==|  0.90061
USER: genes 17 Torsion [C]-CA--N-[C] |==|  0.85992
USER: genes 18 Torsion [C]-CA--CB-[CG] |==|  0.25247
USER: genes 19 Torsion [CA]-CB--CG-[CD] |==|  0.39028
USER: genes 20 Torsion [CB]-CG--CD-[OE1] |==|  0.25310
ROOT
ATOM      1  C   LEU E   1      -0.049  -7.528 -13.235  1.00 39.66 LIG 0.24  C 
ATOM      2 O    LEU E   1       0.031  -8.759 -13.185  1.00 37.26 LIG-0.27  OA
ATOM      3  N   ASP E   2      -1.208  -6.871 -13.179  1.00 41.55 LIG-0.35  N 
ATOM      4 H    ASP E   2      -1.270  -6.013 -13.211  1.00 41.55 LIG 0.16  HD
ENDROOT
BRANCH 3 5
ATOM      5  CA  ASP E   2      -2.499  -7.558 -13.056  1.00 42.33 LIG 0.19  C 
BRANCH 5 6
ATOM      6  C   ASP E   2      -2.546  -8.420 -11.799  1.00 41.58 LIG 0.24  C 
ATOM      7 O    ASP E   2      -1.569  -8.485 -11.045  1.00 40.78 LIG-0.27  OA
ATOM      8  N   ALA E   3      -3.685  -9.083 -11.590  1.00 40.17 LIG-0.35  N 
ATOM      9 H    ALA E   3      -4.354  -9.051 -12.129  1.00 40.17 LIG 0.16  HD
BRANCH 8 10
ATOM     10  CA  ALA E   3      -3.911  -9.938 -10.417  1.00 38.52 LIG 0.17  C 
ATOM     11  CB  ALA E   3      -3.444 -11.363 -10.706  1.00 38.62 LIG 0.04  C 
BRANCH 10 12
ATOM     12  C   ALA E   3      -3.250  -9.410  -9.144  1.00 38.02 LIG 0.24  C 
ATOM     13 O    ALA E   3      -2.416 -10.087  -8.542  1.00 36.71 LIG-0.27  OA
ATOM     14  N   PHE E   4      -3.635  -8.198  -8.750  1.00 38.01 LIG-0.34  N 
ATOM     15 H    PHE E   4      -4.279  -7.765  -9.122  1.00 38.01 LIG 0.16  HD
BRANCH 14 16
ATOM     16  CA  PHE E   4      -3.004  -7.479  -7.646  1.00 38.29 LIG 0.19  C 
BRANCH 16 17
ATOM     17  C   PHE E   4      -3.757  -7.761  -6.349  1.00 39.00 LIG 0.20  C 
ATOM     18 OXT  PHE E   4      -4.808  -8.405  -6.356  1.00 39.22 LIG-0.65  OA
ATOM     19 O    PHE E   4      -3.316  -7.374  -5.262  1.00 39.04 LIG-0.65  OA
ENDBRANCH 16 17
BRANCH 16 20
ATOM     20  CB  PHE E   4      -3.000  -5.965  -7.922  1.00 37.57 LIG 0.07  C 
BRANCH 20 21
ATOM     21  CG  PHE E   4      -1.668  -5.438  -8.394  1.00 36.97 LIG-0.06  A 
ATOM     22  CD1 PHE E   4      -0.544  -6.265  -8.431  1.00 35.77 LIG 0.01  A 
ATOM     23  CE1 PHE E   4       0.683  -5.775  -8.850  1.00 35.50 LIG 0.00  A 
ATOM     24  CZ  PHE E   4       0.797  -4.449  -9.242  1.00 35.20 LIG 0.00  A 
ATOM     25  CE2 PHE E   4      -0.313  -3.614  -9.206  1.00 34.71 LIG 0.00  A 
ATOM     26  CD2 PHE E   4      -1.535  -4.109  -8.785  1.00 35.45 LIG 0.01  A 
ENDBRANCH 20 21
ENDBRANCH 16 20
ENDBRANCH 14 16
ENDBRANCH 10 12
ENDBRANCH 8 10
ENDBRANCH 5 6
BRANCH 5 27
ATOM     27  CB  ASP E   2      -2.781  -8.421 -14.293  1.00 43.54 LIG 0.15  C 
BRANCH 27 28
ATOM     28  CG  ASP E   2      -4.254  -8.782 -14.435  1.00 45.99 LIG 0.17  C 
ATOM     29 OD2  ASP E   2      -4.565  -9.718 -15.207  1.00 46.35 LIG-0.65  OA
ATOM     30 OD1  ASP E   2      -5.101  -8.143 -13.772  1.00 46.97 LIG-0.65  OA
ENDBRANCH 27 28
ENDBRANCH 5 27
ENDBRANCH 3 5
BRANCH 1 31
ATOM     31  CA  LEU E   1       1.217  -6.666 -13.339  1.00 39.47 LIG 0.18  C 
BRANCH 31 32
ATOM     32  CB  LEU E   1       1.523  -5.928 -12.024  1.00 38.97 LIG 0.04  C 
BRANCH 32 33
ATOM     33  CG  LEU E   1       2.642  -6.513 -11.146  1.00 40.05 LIG-0.02  C 
ATOM     34  CD2 LEU E   1       4.022  -6.073 -11.626  1.00 40.58 LIG 0.01  C 
ATOM     35  CD1 LEU E   1       2.559  -8.031 -11.080  1.00 39.33 LIG 0.01  C 
ENDBRANCH 32 33
ENDBRANCH 31 32
BRANCH 31 36
ATOM     36  N   LEU E   1       1.144  -5.725 -14.458  1.00 38.97 LIG-0.35  N 
ATOM     37  C   GLN E   0       1.871  -5.887 -15.561  1.00 38.27 LIG 0.24  C 
ATOM     38 O    GLN E   0       2.665  -6.821 -15.722  1.00 40.12 LIG-0.27  OA
ATOM     39 H    LEU E   1       0.598  -5.072 -14.336  1.00 38.97 LIG 0.16  HD
BRANCH 37 40
ATOM     40  CA  GLN E   0       1.658  -4.847 -16.660  1.00 36.47 LIG 0.18  C 
BRANCH 40 41
ATOM     41  N   GLN E   0       0.235  -4.391 -16.749  1.00 35.61 LIG-0.35  N 
ATOM     42  C   ACE E  -1      -0.813  -5.218 -16.820  1.00 35.56 LIG 0.21  C 
ATOM     43 O    ACE E  -1      -0.729  -6.438 -16.836  1.00 35.09 LIG-0.27  OA
ATOM     44  CH3 ACE E  -1      -2.150  -4.557 -17.071  1.00 35.40 LIG 0.12  C 
ATOM     45 H    GLN E   0       0.152  -3.535 -16.750  1.00 35.61 LIG 0.16  HD
ENDBRANCH 40 41
BRANCH 40 46
ATOM     46  CB  GLN E   0       2.597  -3.655 -16.427  1.00 35.42 LIG 0.04  C 
BRANCH 46 47
ATOM     47  CG  GLN E   0       3.948  -3.787 -17.130  1.00 33.87 LIG 0.10  C 
BRANCH 47 48
ATOM     48  CD  GLN E   0       4.424  -2.470 -17.716  1.00 33.67 LIG 0.21  C 
ATOM     49 OE1  GLN E   0       5.131  -1.709 -17.059  1.00 31.67 LIG-0.27  OA
ATOM     50  NE2 GLN E   0       4.026  -2.192 -18.956  1.00 33.23 LIG-0.37  N 
ATOM     51 22HE GLN E   0       4.265  -1.454 -19.328  1.00 33.23 LIG 0.16  HD
ATOM     52 21HE GLN E   0       3.531  -2.750 -19.384  1.00 33.23 LIG 0.16  HD
ENDBRANCH 47 48
ENDBRANCH 46 47
ENDBRANCH 40 46
ENDBRANCH 37 40
ENDBRANCH 31 36
ENDBRANCH 1 31
TORSDOF 19
ENDMDL
MODEL 45
USER: ADFR SOLUTION from run 43
USER: SCORE 15.806422 LL:  -4.461 LR: -12.018 RR:   0.000 FEB:  -6.350
USER: RMSD 9.746785
USER: SEED 42
USER: STATUS no improvement in best in 5 clusters for 5 generations
USER: GENES 21
USER: genes 0 Translation |==|  0.34563 0.47805 0.48162
USER: genes 1 Rotation |==|  0.50901 0.70595 0.04550 0.53063
USER: genes 2 Torsion [C]-N--CA-[CB] |==|  0.85554
USER: genes 3 Torsion [N]-CA--C-[N] |==|  0.35925
USER: genes 4 Torsion [C]-N--CA-[CB] |==|  0.84245
USER: genes 5 Torsion [N]-CA--C-[N] |==|  0.99125
USER: genes 6 Torsion [C]-N--CA-[CB] |==|  0.25839
USER: genes 7 Torsion [N]-CA--C-[O] |==|  0.64485
USER: genes 8 Torsion [N]-CA--CB-[CG] |==|  0.86203
USER: genes 9 Torsion [CA]-CB--CG-[CD1] |==|  0.29986
USER: genes 10 Torsion [N]-CA--CB-[CG] |==|  0.84291
USER: genes 11 Torsion [CA]-CB--CG-[OD2] |==|  0.01675
USER: genes 12 Torsion [N]-C--CA-[N] |==|  0.89489
USER: genes 13 Torsion [C]-CA--CB-[CG] |==|  0.24571
USER: genes 14 Torsion [CA]-CB--CG-[CD2] |==|  0.24385
USER: genes 15 Torsion [C]-CA--N-[C] |==|  0.74630
USER: genes 16 Torsion [N]-C--CA-[N] |==|  0.35752
USER: genes 17 Torsion [C]-CA--N-[C] |==|  0.85941
USER: genes 18 Torsion [C]-CA--CB-[CG] |==|  0.24867
USER: genes 19 Torsion [CA]-CB--CG-[CD] |==|  0.36699
USER: genes 20 Torsion [CB]-CG--CD-[OE1] |==|  0.17253
ROOT
ATOM      1  C   LEU E   1      -0.071  -7.345 -12.898  1.00 39.66 LIG 0.24  C 
ATOM      2 O    LEU E   1       0.087  -8.531 -12.594  1.00 37.26 LIG-0.27  OA
ATOM      3  N   ASP E   2      -1.268  -6.759 -12.948  1.00 41.55 LIG-0.35  N 
ATOM      4 H    ASP E   2      -1.384  -5.932 -13.157  1.00 41.55 LIG 0.16  HD
ENDROOT
BRANCH 3 5
ATOM      5  CA  ASP E   2      -2.511  -7.478 -12.646  1.00 42.33 LIG 0.19  C 
BRANCH 5 6
ATOM      6  C   ASP E   2      -2.616  -7.797 -11.159  1.00 41.58 LIG 0.24  C 
ATOM      7 O    ASP E   2      -1.683  -8.352 -10.568  1.00 40.78 LIG-0.27  OA
ATOM      8  N   ALA E   3      -3.760  -7.448 -10.568  1.00 40.17 LIG-0.35  N 
ATOM      9 H    ALA E   3      -4.414  -7.081 -10.988  1.00 40.17 LIG 0.16  HD
BRANCH 8 10
ATOM     10  CA  ALA E   3      -4.019  -7.658  -9.137  1.00 38.52 LIG 0.17  C 
ATOM     11  CB  ALA E   3      -3.851  -9.134  -8.783  1.00 38.62 LIG 0.04  C 
BRANCH 10 12
ATOM     12  C   ALA E   3      -3.149  -6.790  -8.228  1.00 38.02 LIG 0.24  C 
ATOM     13 O    ALA E   3      -3.297  -6.817  -7.006  1.00 36.71 LIG-0.27  OA
ATOM     14  N   PHE E   4      -2.248  -6.028  -8.843  1.00 38.01 LIG-0.34  N 
ATOM     15 H    PHE E   4      -2.206  -5.945  -9.698  1.00 38.01 LIG 0.16  HD
BRANCH 14 16
ATOM     16  CA  PHE E   4      -1.237  -5.252  -8.128  1.00 38.29 LIG 0.19  C 
BRANCH 16 17
ATOM     17  C   PHE E   4      -0.959  -3.952  -8.878  1.00 39.00 LIG 0.20  C 
ATOM     18 OXT  PHE E   4      -1.878  -3.188  -9.181  1.00 39.22 LIG-0.65  OA
ATOM     19 O    PHE E   4       0.195  -3.625  -9.175  1.00 39.04 LIG-0.65  OA
ENDBRANCH 16 17
BRANCH 16 20
ATOM     20  CB  PHE E   4       0.066  -6.060  -7.994  1.00 37.57 LIG 0.07  C 
BRANCH 20 21
ATOM     21  CG  PHE E   4      -0.139  -7.458  -7.466  1.00 36.97 LIG-0.06  A 
ATOM     22  CD1 PHE E   4      -0.001  -8.566  -8.303  1.00 35.77 LIG 0.01  A 
ATOM     23  CE1 PHE E   4      -0.206  -9.849  -7.821  1.00 35.50 LIG 0.00  A 
ATOM     24  CZ  PHE E   4      -0.547 -10.037  -6.489  1.00 35.20 LIG 0.00  A 
ATOM     25  CE2 PHE E   4      -0.691  -8.942  -5.646  1.00 34.71 LIG 0.00  A 
ATOM     26  CD2 PHE E   4      -0.487  -7.663  -6.135  1.00 35.45 LIG 0.01  A 
ENDBRANCH 20 21
ENDBRANCH 16 20
ENDBRANCH 14 16
ENDBRANCH 10 12
ENDBRANCH 8 10
ENDBRANCH 5 6
BRANCH 5 27
ATOM     27  CB  ASP E   2      -2.610  -8.771 -13.466  1.00 43.54 LIG 0.15  C 
BRANCH 27 28
ATOM     28  CG  ASP E   2      -2.511  -8.526 -14.967  1.00 45.99 LIG 0.17  C 
ATOM     29 OD2  ASP E   2      -2.251  -7.369 -15.365  1.00 46.35 LIG-0.65  OA
ATOM     30 OD1  ASP E   2      -2.681  -9.489 -15.749  1.00 46.97 LIG-0.65  OA
ENDBRANCH 27 28
ENDBRANCH 5 27
ENDBRANCH 3 5
BRANCH 1 31
ATOM     31  CA  LEU E   1       1.137  -6.452 -13.218  1.00 39.47 LIG 0.18  C 
BRANCH 31 32
ATOM     32  CB  LEU E   1       1.659  -5.720 -11.969  1.00 38.97 LIG 0.04  C 
BRANCH 32 33
ATOM     33  CG  LEU E   1       2.714  -6.457 -11.125  1.00 40.05 LIG-0.02  C 
ATOM     34  CD2 LEU E   1       4.129  -6.181 -11.627  1.00 40.58 LIG 0.01  C 
ATOM     35  CD1 LEU E   1       2.445  -7.954 -11.085  1.00 39.33 LIG 0.01  C 
ENDBRANCH 32 33
ENDBRANCH 31 32
BRANCH 31 36
ATOM     36  N   LEU E   1       0.843  -5.503 -14.292  1.00 38.97 LIG-0.35  N 
ATOM     37  C   GLN E   0       1.081  -5.791 -15.569  1.00 38.27 LIG 0.24  C 
ATOM     38 O    GLN E   0       1.576  -6.859 -15.945  1.00 40.12 LIG-0.27  OA
ATOM     39 H    LEU E   1       0.508  -4.757 -14.023  1.00 38.97 LIG 0.16  HD
BRANCH 37 40
ATOM     40  CA  GLN E   0       0.685  -4.716 -16.581  1.00 36.47 LIG 0.18  C 
BRANCH 40 41
ATOM     41  N   GLN E   0       1.799  -4.375 -17.521  1.00 35.61 LIG-0.35  N 
ATOM     42  C   ACE E  -1       3.041  -4.066 -17.131  1.00 35.56 LIG 0.21  C 
ATOM     43 O    ACE E  -1       3.403  -4.013 -15.964  1.00 35.09 LIG-0.27  OA
ATOM     44  CH3 ACE E  -1       3.970  -3.593 -18.225  1.00 35.40 LIG 0.12  C 
ATOM     45 H    GLN E   0       1.564  -4.397 -18.348  1.00 35.61 LIG 0.16  HD
ENDBRANCH 40 41
BRANCH 40 46
ATOM     46  CB  GLN E   0      -0.559  -5.174 -17.355  1.00 35.42 LIG 0.04  C 
BRANCH 46 47
ATOM     47  CG  GLN E   0      -1.878  -4.766 -16.701  1.00 33.87 LIG 0.10  C 
BRANCH 47 48
ATOM     48  CD  GLN E   0      -2.843  -4.140 -17.690  1.00 33.67 LIG 0.21  C 
ATOM     49 OE1  GLN E   0      -3.264  -4.783 -18.650  1.00 31.67 LIG-0.27  OA
ATOM     50  NE2 GLN E   0      -3.190  -2.874 -17.466  1.00 33.23 LIG-0.37  N 
ATOM     51 22HE GLN E   0      -3.728  -2.474 -18.004  1.00 33.23 LIG 0.16  HD
ATOM     52 21HE GLN E   0      -2.874  -2.457 -16.783  1.00 33.23 LIG 0.16  HD
ENDBRANCH 47 48
ENDBRANCH 46 47
ENDBRANCH 40 46
ENDBRANCH 37 40
ENDBRANCH 31 36
ENDBRANCH 1 31
TORSDOF 19
ENDMDL
MODEL 46
USER: ADFR SOLUTION from run 197
USER: SCORE 14.839604 LL:  -4.028 LR: -12.011 RR:   0.000 FEB:  -6.343
USER: RMSD 10.587522
USER: SEED 196
USER: STATUS no improvement in best in 27 clusters for 5 generations
USER: GENES 21
USER: genes 0 Translation |==|  0.33096 0.55472 0.60112
USER: genes 1 Rotation |==|  0.47823 0.10186 0.58688 0.78890
USER: genes 2 Torsion [C]-N--CA-[CB] |==|  0.84923
USER: genes 3 Torsion [N]-CA--C-[N] |==|  0.40462
USER: genes 4 Torsion [C]-N--CA-[CB] |==|  0.84689
USER: genes 5 Torsion [N]-CA--C-[N] |==|  0.32222
USER: genes 6 Torsion [C]-N--CA-[CB] |==|  0.22205
USER: genes 7 Torsion [N]-CA--C-[O] |==|  0.48058
USER: genes 8 Torsion [N]-CA--CB-[CG] |==|  0.97736
USER: genes 9 Torsion [CA]-CB--CG-[CD1] |==|  0.23650
USER: genes 10 Torsion [N]-CA--CB-[CG] |==|  0.84358
USER: genes 11 Torsion [CA]-CB--CG-[OD2] |==|  0.53747
USER: genes 12 Torsion [N]-C--CA-[N] |==|  0.57437
USER: genes 13 Torsion [C]-CA--CB-[CG] |==|  0.41055
USER: genes 14 Torsion [CA]-CB--CG-[CD2] |==|  0.21353
USER: genes 15 Torsion [C]-CA--N-[C] |==|  0.67280
USER: genes 16 Torsion [N]-C--CA-[N] |==|  0.31276
USER: genes 17 Torsion [C]-CA--N-[C] |==|  0.62944
USER: genes 18 Torsion [C]-CA--CB-[CG] |==|  0.30710
USER: genes 19 Torsion [CA]-CB--CG-[CD] |==|  0.24859
USER: genes 20 Torsion [CB]-CG--CD-[OE1] |==|  0.02424
ROOT
ATOM      1  C   LEU E   1      -0.434  -6.137 -10.837  1.00 39.66 LIG 0.24  C 
ATOM      2 O    LEU E   1      -1.510  -5.871 -11.381  1.00 37.26 LIG-0.27  OA
ATOM      3  N   ASP E   2      -0.279  -6.184  -9.513  1.00 41.55 LIG-0.35  N 
ATOM      4 H    ASP E   2       0.468  -6.370  -9.128  1.00 41.55 LIG 0.16  HD
ENDROOT
BRANCH 3 5
ATOM      5  CA  ASP E   2      -1.381  -5.919  -8.581  1.00 42.33 LIG 0.19  C 
BRANCH 5 6
ATOM      6  C   ASP E   2      -2.433  -7.021  -8.643  1.00 41.58 LIG 0.24  C 
ATOM      7 O    ASP E   2      -2.690  -7.584  -9.713  1.00 40.78 LIG-0.27  OA
ATOM      8  N   ALA E   3      -3.040  -7.313  -7.491  1.00 40.17 LIG-0.35  N 
ATOM      9 H    ALA E   3      -2.872  -6.905  -6.754  1.00 40.17 LIG 0.16  HD
BRANCH 8 10
ATOM     10  CA  ALA E   3      -4.058  -8.365  -7.367  1.00 38.52 LIG 0.17  C 
ATOM     11  CB  ALA E   3      -5.188  -8.124  -8.365  1.00 38.62 LIG 0.04  C 
BRANCH 10 12
ATOM     12  C   ALA E   3      -3.496  -9.777  -7.529  1.00 38.02 LIG 0.24  C 
ATOM     13 O    ALA E   3      -3.001 -10.137  -8.598  1.00 36.71 LIG-0.27  OA
ATOM     14  N   PHE E   4      -3.582 -10.562  -6.458  1.00 38.01 LIG-0.34  N 
ATOM     15 H    PHE E   4      -4.005 -10.339  -5.743  1.00 38.01 LIG 0.16  HD
BRANCH 14 16
ATOM     16  CA  PHE E   4      -2.965 -11.885  -6.386  1.00 38.29 LIG 0.19  C 
BRANCH 16 17
ATOM     17  C   PHE E   4      -3.648 -12.714  -5.302  1.00 39.00 LIG 0.20  C 
ATOM     18 OXT  PHE E   4      -4.505 -12.214  -4.569  1.00 39.22 LIG-0.65  OA
ATOM     19 O    PHE E   4      -3.376 -13.910  -5.151  1.00 39.04 LIG-0.65  OA
ENDBRANCH 16 17
BRANCH 16 20
ATOM     20  CB  PHE E   4      -1.463 -11.762  -6.073  1.00 37.57 LIG 0.07  C 
BRANCH 20 21
ATOM     21  CG  PHE E   4      -0.950 -10.345  -6.109  1.00 36.97 LIG-0.06  A 
ATOM     22  CD1 PHE E   4      -1.052  -9.518  -4.989  1.00 35.77 LIG 0.01  A 
ATOM     23  CE1 PHE E   4      -0.595  -8.210  -5.028  1.00 35.50 LIG 0.00  A 
ATOM     24  CZ  PHE E   4      -0.025  -7.716  -6.193  1.00 35.20 LIG 0.00  A 
ATOM     25  CE2 PHE E   4       0.079  -8.526  -7.316  1.00 34.71 LIG 0.00  A 
ATOM     26  CD2 PHE E   4      -0.381  -9.831  -7.270  1.00 35.45 LIG 0.01  A 
ENDBRANCH 20 21
ENDBRANCH 16 20
ENDBRANCH 14 16
ENDBRANCH 10 12
ENDBRANCH 8 10
ENDBRANCH 5 6
BRANCH 5 27
ATOM     27  CB  ASP E   2      -2.030  -4.559  -8.870  1.00 43.54 LIG 0.15  C 
BRANCH 27 28
ATOM     28  CG  ASP E   2      -1.033  -3.409  -8.831  1.00 45.99 LIG 0.17  C 
ATOM     29 OD2  ASP E   2      -1.476  -2.238  -8.796  1.00 46.35 LIG-0.65  OA
ATOM     30 OD1  ASP E   2       0.191  -3.669  -8.824  1.00 46.97 LIG-0.65  OA
ENDBRANCH 27 28
ENDBRANCH 5 27
ENDBRANCH 3 5
BRANCH 1 31
ATOM     31  CA  LEU E   1       0.809  -6.462 -11.678  1.00 39.47 LIG 0.18  C 
BRANCH 31 32
ATOM     32  CB  LEU E   1       2.113  -6.113 -10.938  1.00 38.97 LIG 0.04  C 
BRANCH 32 33
ATOM     33  CG  LEU E   1       3.334  -7.001 -11.232  1.00 40.05 LIG-0.02  C 
ATOM     34  CD2 LEU E   1       3.966  -6.661 -12.579  1.00 40.58 LIG 0.01  C 
ATOM     35  CD1 LEU E   1       2.974  -8.479 -11.171  1.00 39.33 LIG 0.01  C 
ENDBRANCH 32 33
ENDBRANCH 31 32
BRANCH 31 36
ATOM     36  N   LEU E   1       0.765  -5.812 -12.988  1.00 38.97 LIG-0.35  N 
ATOM     37  C   GLN E   0       0.744  -6.512 -14.120  1.00 38.27 LIG 0.24  C 
ATOM     38 O    GLN E   0       0.774  -7.747 -14.156  1.00 40.12 LIG-0.27  OA
ATOM     39 H    LEU E   1       0.754  -4.952 -12.956  1.00 38.97 LIG 0.16  HD
BRANCH 37 40
ATOM     40  CA  GLN E   0       0.657  -5.695 -15.408  1.00 36.47 LIG 0.18  C 
BRANCH 40 41
ATOM     41  N   GLN E   0       1.904  -5.788 -16.231  1.00 35.61 LIG-0.35  N 
ATOM     42  C   ACE E  -1       2.520  -4.735 -16.779  1.00 35.56 LIG 0.21  C 
ATOM     43 O    ACE E  -1       2.128  -3.580 -16.683  1.00 35.09 LIG-0.27  OA
ATOM     44  CH3 ACE E  -1       3.667  -5.060 -17.707  1.00 35.40 LIG 0.12  C 
ATOM     45 H    GLN E   0       2.193  -6.593 -16.320  1.00 35.61 LIG 0.16  HD
ENDBRANCH 40 41
BRANCH 40 46
ATOM     46  CB  GLN E   0      -0.565  -6.146 -16.221  1.00 35.42 LIG 0.04  C 
BRANCH 46 47
ATOM     47  CG  GLN E   0      -1.685  -5.109 -16.281  1.00 33.87 LIG 0.10  C 
BRANCH 47 48
ATOM     48  CD  GLN E   0      -1.532  -4.162 -17.457  1.00 33.67 LIG 0.21  C 
ATOM     49 OE1  GLN E   0      -0.683  -4.369 -18.323  1.00 31.67 LIG-0.27  OA
ATOM     50  NE2 GLN E   0      -2.347  -3.110 -17.486  1.00 33.23 LIG-0.37  N 
ATOM     51 22HE GLN E   0      -2.292  -2.541 -18.129  1.00 33.23 LIG 0.16  HD
ATOM     52 21HE GLN E   0      -2.928  -2.999 -16.861  1.00 33.23 LIG 0.16  HD
ENDBRANCH 47 48
ENDBRANCH 46 47
ENDBRANCH 40 46
ENDBRANCH 37 40
ENDBRANCH 31 36
ENDBRANCH 1 31
TORSDOF 19
ENDMDL
MODEL 47
USER: ADFR SOLUTION from run 41
USER: SCORE 12.202436 LL:  -3.042 LR: -11.975 RR:   0.000 FEB:  -6.307
USER: RMSD 5.213211
USER: SEED 40
USER: STATUS no improvement in best in 10 clusters for 5 generations
USER: GENES 21
USER: genes 0 Translation |==|  0.44185 0.48016 0.52641
USER: genes 1 Rotation |==|  0.92820 0.30973 0.67325 0.52068
USER: genes 2 Torsion [C]-N--CA-[CB] |==|  0.82701
USER: genes 3 Torsion [N]-CA--C-[N] |==|  0.30000
USER: genes 4 Torsion [C]-N--CA-[CB] |==|  0.17381
USER: genes 5 Torsion [N]-CA--C-[N] |==|  0.56717
USER: genes 6 Torsion [C]-N--CA-[CB] |==|  0.79753
USER: genes 7 Torsion [N]-CA--C-[O] |==|  0.07394
USER: genes 8 Torsion [N]-CA--CB-[CG] |==|  0.89872
USER: genes 9 Torsion [CA]-CB--CG-[CD1] |==|  0.41965
USER: genes 10 Torsion [N]-CA--CB-[CG] |==|  0.93939
USER: genes 11 Torsion [CA]-CB--CG-[OD2] |==|  0.79605
USER: genes 12 Torsion [N]-C--CA-[N] |==|  0.45640
USER: genes 13 Torsion [C]-CA--CB-[CG] |==|  0.25354
USER: genes 14 Torsion [CA]-CB--CG-[CD2] |==|  0.46579
USER: genes 15 Torsion [C]-CA--N-[C] |==|  0.87208
USER: genes 16 Torsion [N]-C--CA-[N] |==|  0.04540
USER: genes 17 Torsion [C]-CA--N-[C] |==|  0.55122
USER: genes 18 Torsion [C]-CA--CB-[CG] |==|  0.24353
USER: genes 19 Torsion [CA]-CB--CG-[CD] |==|  0.34300
USER: genes 20 Torsion [CB]-CG--CD-[OE1] |==|  0.41528
ROOT
ATOM      1  C   LEU E   1       2.311  -7.311 -12.125  1.00 39.66 LIG 0.24  C 
ATOM      2 O    LEU E   1       2.508  -8.037 -13.104  1.00 37.26 LIG-0.27  OA
ATOM      3  N   ASP E   2       2.905  -7.502 -10.946  1.00 41.55 LIG-0.35  N 
ATOM      4 H    ASP E   2       2.773  -6.999 -10.261  1.00 41.55 LIG 0.16  HD
ENDROOT
BRANCH 3 5
ATOM      5  CA  ASP E   2       3.849  -8.600 -10.708  1.00 42.33 LIG 0.19  C 
BRANCH 5 6
ATOM      6  C   ASP E   2       5.055  -8.501 -11.635  1.00 41.58 LIG 0.24  C 
ATOM      7 O    ASP E   2       4.945  -8.760 -12.839  1.00 40.78 LIG-0.27  OA
ATOM      8  N   ALA E   3       6.202  -8.134 -11.061  1.00 40.17 LIG-0.35  N 
ATOM      9 H    ALA E   3       6.278  -7.974 -10.220  1.00 40.17 LIG 0.16  HD
BRANCH 8 10
ATOM     10  CA  ALA E   3       7.454  -7.964 -11.810  1.00 38.52 LIG 0.17  C 
ATOM     11  CB  ALA E   3       7.303  -6.848 -12.842  1.00 38.62 LIG 0.04  C 
BRANCH 10 12
ATOM     12  C   ALA E   3       8.667  -7.702 -10.917  1.00 38.02 LIG 0.24  C 
ATOM     13 O    ALA E   3       8.673  -8.071  -9.742  1.00 36.71 LIG-0.27  OA
ATOM     14  N   PHE E   4       9.683  -7.063 -11.492  1.00 38.01 LIG-0.34  N 
ATOM     15 H    PHE E   4       9.643  -6.730 -12.284  1.00 38.01 LIG 0.16  HD
BRANCH 14 16
ATOM     16  CA  PHE E   4      10.973  -6.862 -10.836  1.00 38.29 LIG 0.19  C 
BRANCH 16 17
ATOM     17  C   PHE E   4      11.456  -8.179 -10.234  1.00 39.00 LIG 0.20  C 
ATOM     18 OXT  PHE E   4      12.193  -8.190  -9.246  1.00 39.22 LIG-0.65  OA
ATOM     19 O    PHE E   4      11.100  -9.262 -10.709  1.00 39.04 LIG-0.65  OA
ENDBRANCH 16 17
BRANCH 16 20
ATOM     20  CB  PHE E   4      10.853  -5.801  -9.726  1.00 37.57 LIG 0.07  C 
BRANCH 20 21
ATOM     21  CG  PHE E   4       9.912  -4.673 -10.066  1.00 36.97 LIG-0.06  A 
ATOM     22  CD1 PHE E   4       9.224  -3.989  -9.063  1.00 35.77 LIG 0.01  A 
ATOM     23  CE1 PHE E   4       8.347  -2.963  -9.376  1.00 35.50 LIG 0.00  A 
ATOM     24  CZ  PHE E   4       8.152  -2.607 -10.704  1.00 35.20 LIG 0.00  A 
ATOM     25  CE2 PHE E   4       8.827  -3.282 -11.713  1.00 34.71 LIG 0.00  A 
ATOM     26  CD2 PHE E   4       9.701  -4.307 -11.392  1.00 35.45 LIG 0.01  A 
ENDBRANCH 20 21
ENDBRANCH 16 20
ENDBRANCH 14 16
ENDBRANCH 10 12
ENDBRANCH 8 10
ENDBRANCH 5 6
BRANCH 5 27
ATOM     27  CB  ASP E   2       3.164  -9.961 -10.885  1.00 43.54 LIG 0.15  C 
BRANCH 27 28
ATOM     28  CG  ASP E   2       1.650  -9.884 -10.732  1.00 45.99 LIG 0.17  C 
ATOM     29 OD2  ASP E   2       1.175  -9.728  -9.584  1.00 46.35 LIG-0.65  OA
ATOM     30 OD1  ASP E   2       0.934  -9.968 -11.754  1.00 46.97 LIG-0.65  OA
ENDBRANCH 27 28
ENDBRANCH 5 27
ENDBRANCH 3 5
BRANCH 1 31
ATOM     31  CA  LEU E   1       1.367  -6.105 -12.223  1.00 39.47 LIG 0.18  C 
BRANCH 31 32
ATOM     32  CB  LEU E   1       0.075  -6.316 -11.414  1.00 38.97 LIG 0.04  C 
BRANCH 32 33
ATOM     33  CG  LEU E   1       0.083  -5.825  -9.957  1.00 40.05 LIG-0.02  C 
ATOM     34  CD2 LEU E   1      -1.322  -5.811  -9.360  1.00 40.58 LIG 0.01  C 
ATOM     35  CD1 LEU E   1       0.726  -4.452  -9.836  1.00 39.33 LIG 0.01  C 
ENDBRANCH 32 33
ENDBRANCH 31 32
BRANCH 31 36
ATOM     36  N   LEU E   1       1.060  -5.764 -13.613  1.00 38.97 LIG-0.35  N 
ATOM     37  C   GLN E   0       2.008  -5.692 -14.545  1.00 38.27 LIG 0.24  C 
ATOM     38 O    GLN E   0       3.206  -5.888 -14.313  1.00 40.12 LIG-0.27  OA
ATOM     39 H    LEU E   1       0.226  -5.620 -13.766  1.00 38.97 LIG 0.16  HD
BRANCH 37 40
ATOM     40  CA  GLN E   0       1.530  -5.366 -15.959  1.00 36.47 LIG 0.18  C 
BRANCH 40 41
ATOM     41  N   GLN E   0       0.142  -4.807 -15.980  1.00 35.61 LIG-0.35  N 
ATOM     42  C   ACE E  -1      -0.635  -4.771 -17.068  1.00 35.56 LIG 0.21  C 
ATOM     43 O    ACE E  -1      -0.295  -5.177 -18.171  1.00 35.09 LIG-0.27  OA
ATOM     44  CH3 ACE E  -1      -1.936  -4.017 -16.917  1.00 35.40 LIG 0.12  C 
ATOM     45 H    GLN E   0      -0.115  -4.506 -15.216  1.00 35.61 LIG 0.16  HD
ENDBRANCH 40 41
BRANCH 40 46
ATOM     46  CB  GLN E   0       2.517  -4.396 -16.623  1.00 35.42 LIG 0.04  C 
BRANCH 46 47
ATOM     47  CG  GLN E   0       3.676  -5.087 -17.340  1.00 33.87 LIG 0.10  C 
BRANCH 47 48
ATOM     48  CD  GLN E   0       3.768  -4.693 -18.802  1.00 33.67 LIG 0.21  C 
ATOM     49 OE1  GLN E   0       4.854  -4.665 -19.378  1.00 31.67 LIG-0.27  OA
ATOM     50  NE2 GLN E   0       2.625  -4.374 -19.407  1.00 33.23 LIG-0.37  N 
ATOM     51 22HE GLN E   0       2.628  -4.136 -20.234  1.00 33.23 LIG 0.16  HD
ATOM     52 21HE GLN E   0       1.885  -4.405 -18.971  1.00 33.23 LIG 0.16  HD
ENDBRANCH 47 48
ENDBRANCH 46 47
ENDBRANCH 40 46
ENDBRANCH 37 40
ENDBRANCH 31 36
ENDBRANCH 1 31
TORSDOF 19
ENDMDL
MODEL 48
USER: ADFR SOLUTION from run 154
USER: SCORE 13.470752 LL:  -4.201 LR: -11.971 RR:   0.000 FEB:  -6.303
USER: RMSD 10.688704
USER: SEED 153
USER: STATUS no improvement in best in 12 clusters for 5 generations
USER: GENES 21
USER: genes 0 Translation |==|  0.35241 0.50988 0.54660
USER: genes 1 Rotation |==|  0.57104 0.24983 0.14965 0.74418
USER: genes 2 Torsion [C]-N--CA-[CB] |==|  0.35551
USER: genes 3 Torsion [N]-CA--C-[N] |==|  0.35926
USER: genes 4 Torsion [C]-N--CA-[CB] |==|  0.15867
USER: genes 5 Torsion [N]-CA--C-[N] |==|  0.17913
USER: genes 6 Torsion [C]-N--CA-[CB] |==|  0.30756
USER: genes 7 Torsion [N]-CA--C-[O] |==|  0.62400
USER: genes 8 Torsion [N]-CA--CB-[CG] |==|  0.91384
USER: genes 9 Torsion [CA]-CB--CG-[CD1] |==|  0.29410
USER: genes 10 Torsion [N]-CA--CB-[CG] |==|  0.83611
USER: genes 11 Torsion [CA]-CB--CG-[OD2] |==|  0.77393
USER: genes 12 Torsion [N]-C--CA-[N] |==|  0.80556
USER: genes 13 Torsion [C]-CA--CB-[CG] |==|  0.41588
USER: genes 14 Torsion [CA]-CB--CG-[CD2] |==|  0.57592
USER: genes 15 Torsion [C]-CA--N-[C] |==|  0.73586
USER: genes 16 Torsion [N]-C--CA-[N] |==|  0.36338
USER: genes 17 Torsion [C]-CA--N-[C] |==|  0.82974
USER: genes 18 Torsion [C]-CA--CB-[CG] |==|  0.48938
USER: genes 19 Torsion [CA]-CB--CG-[CD] |==|  0.32516
USER: genes 20 Torsion [CB]-CG--CD-[OE1] |==|  0.67861
ROOT
ATOM      1  C   LEU E   1       0.097  -6.843 -11.777  1.00 39.66 LIG 0.24  C 
ATOM      2 O    LEU E   1      -0.315  -6.185 -10.817  1.00 37.26 LIG-0.27  OA
ATOM      3  N   ASP E   2      -0.380  -8.048 -12.093  1.00 41.55 LIG-0.35  N 
ATOM      4 H    ASP E   2      -0.098  -8.511 -12.761  1.00 41.55 LIG 0.16  HD
ENDROOT
BRANCH 3 5
ATOM      5  CA  ASP E   2      -1.442  -8.703 -11.320  1.00 42.33 LIG 0.19  C 
BRANCH 5 6
ATOM      6  C   ASP E   2      -0.899  -9.891 -10.533  1.00 41.58 LIG 0.24  C 
ATOM      7 O    ASP E   2      -0.224 -10.761 -11.096  1.00 40.78 LIG-0.27  OA
ATOM      8  N   ALA E   3      -1.207  -9.921  -9.236  1.00 40.17 LIG-0.35  N 
ATOM      9 H    ALA E   3      -1.694  -9.324  -8.853  1.00 40.17 LIG 0.16  HD
BRANCH 8 10
ATOM     10  CA  ALA E   3      -0.745 -10.978  -8.327  1.00 38.52 LIG 0.17  C 
ATOM     11  CB  ALA E   3       0.780 -11.056  -8.342  1.00 38.62 LIG 0.04  C 
BRANCH 10 12
ATOM     12  C   ALA E   3      -1.255 -10.815  -6.895  1.00 38.02 LIG 0.24  C 
ATOM     13 O    ALA E   3      -0.471 -10.604  -5.969  1.00 36.71 LIG-0.27  OA
ATOM     14  N   PHE E   4      -2.573 -10.915  -6.734  1.00 38.01 LIG-0.34  N 
ATOM     15 H    PHE E   4      -3.108 -11.147  -7.365  1.00 38.01 LIG 0.16  HD
BRANCH 14 16
ATOM     16  CA  PHE E   4      -3.245 -10.639  -5.466  1.00 38.29 LIG 0.19  C 
BRANCH 16 17
ATOM     17  C   PHE E   4      -4.149 -11.811  -5.096  1.00 39.00 LIG 0.20  C 
ATOM     18 OXT  PHE E   4      -3.744 -12.973  -5.179  1.00 39.22 LIG-0.65  OA
ATOM     19 O    PHE E   4      -5.297 -11.622  -4.681  1.00 39.04 LIG-0.65  OA
ENDBRANCH 16 17
BRANCH 16 20
ATOM     20  CB  PHE E   4      -4.084  -9.353  -5.570  1.00 37.57 LIG 0.07  C 
BRANCH 20 21
ATOM     21  CG  PHE E   4      -3.513  -8.333  -6.524  1.00 36.97 LIG-0.06  A 
ATOM     22  CD1 PHE E   4      -4.099  -8.113  -7.771  1.00 35.77 LIG 0.01  A 
ATOM     23  CE1 PHE E   4      -3.565  -7.187  -8.653  1.00 35.50 LIG 0.00  A 
ATOM     24  CZ  PHE E   4      -2.436  -6.465  -8.291  1.00 35.20 LIG 0.00  A 
ATOM     25  CE2 PHE E   4      -1.841  -6.676  -7.054  1.00 34.71 LIG 0.00  A 
ATOM     26  CD2 PHE E   4      -2.379  -7.604  -6.179  1.00 35.45 LIG 0.01  A 
ENDBRANCH 20 21
ENDBRANCH 16 20
ENDBRANCH 14 16
ENDBRANCH 10 12
ENDBRANCH 8 10
ENDBRANCH 5 6
BRANCH 5 27
ATOM     27  CB  ASP E   2      -2.586  -9.160 -12.235  1.00 43.54 LIG 0.15  C 
BRANCH 27 28
ATOM     28  CG  ASP E   2      -3.217  -8.010 -13.010  1.00 45.99 LIG 0.17  C 
ATOM     29 OD2  ASP E   2      -4.069  -7.299 -12.431  1.00 46.35 LIG-0.65  OA
ATOM     30 OD1  ASP E   2      -2.856  -7.807 -14.191  1.00 46.97 LIG-0.65  OA
ENDBRANCH 27 28
ENDBRANCH 5 27
ENDBRANCH 3 5
BRANCH 1 31
ATOM     31  CA  LEU E   1       1.191  -6.284 -12.697  1.00 39.47 LIG 0.18  C 
BRANCH 31 32
ATOM     32  CB  LEU E   1       0.745  -6.249 -14.169  1.00 38.97 LIG 0.04  C 
BRANCH 32 33
ATOM     33  CG  LEU E   1       1.344  -5.139 -15.049  1.00 40.05 LIG-0.02  C 
ATOM     34  CD2 LEU E   1       0.411  -4.767 -16.199  1.00 40.58 LIG 0.01  C 
ATOM     35  CD1 LEU E   1       2.715  -5.531 -15.581  1.00 39.33 LIG 0.01  C 
ENDBRANCH 32 33
ENDBRANCH 31 32
BRANCH 31 36
ATOM     36  N   LEU E   1       2.450  -7.015 -12.553  1.00 38.97 LIG-0.35  N 
ATOM     37  C   GLN E   0       3.418  -6.595 -11.740  1.00 38.27 LIG 0.24  C 
ATOM     38 O    GLN E   0       3.338  -5.564 -11.064  1.00 40.12 LIG-0.27  OA
ATOM     39 H    LEU E   1       2.504  -7.726 -13.034  1.00 38.97 LIG 0.16  HD
BRANCH 37 40
ATOM     40  CA  GLN E   0       4.658  -7.485 -11.664  1.00 36.47 LIG 0.18  C 
BRANCH 40 41
ATOM     41  N   GLN E   0       5.929  -6.712 -11.833  1.00 35.61 LIG-0.35  N 
ATOM     42  C   ACE E  -1       6.242  -6.016 -12.932  1.00 35.56 LIG 0.21  C 
ATOM     43 O    ACE E  -1       5.534  -5.944 -13.927  1.00 35.09 LIG-0.27  OA
ATOM     44  CH3 ACE E  -1       7.641  -5.445 -12.966  1.00 35.40 LIG 0.12  C 
ATOM     45 H    GLN E   0       6.447  -6.756 -11.148  1.00 35.61 LIG 0.16  HD
ENDBRANCH 40 41
BRANCH 40 46
ATOM     46  CB  GLN E   0       4.660  -8.250 -10.334  1.00 35.42 LIG 0.04  C 
BRANCH 46 47
ATOM     47  CG  GLN E   0       5.814  -9.242 -10.193  1.00 33.87 LIG 0.10  C 
BRANCH 47 48
ATOM     48  CD  GLN E   0       6.744  -8.887  -9.048  1.00 33.67 LIG 0.21  C 
ATOM     49 OE1  GLN E   0       7.914  -8.577  -9.263  1.00 31.67 LIG-0.27  OA
ATOM     50  NE2 GLN E   0       6.228  -8.942  -7.822  1.00 33.23 LIG-0.37  N 
ATOM     51 22HE GLN E   0       6.719  -8.757  -7.140  1.00 33.23 LIG 0.16  HD
ATOM     52 21HE GLN E   0       5.404  -9.163  -7.711  1.00 33.23 LIG 0.16  HD
ENDBRANCH 47 48
ENDBRANCH 46 47
ENDBRANCH 40 46
ENDBRANCH 37 40
ENDBRANCH 31 36
ENDBRANCH 1 31
TORSDOF 19
ENDMDL
MODEL 49
USER: ADFR SOLUTION from run 72
USER: SCORE 15.722147 LL:  -4.585 LR: -11.955 RR:   0.000 FEB:  -6.288
USER: RMSD 10.527940
USER: SEED 71
USER: STATUS no improvement in best in 5 clusters for 5 generations
USER: GENES 21
USER: genes 0 Translation |==|  0.36828 0.48216 0.62504
USER: genes 1 Rotation |==|  0.59086 0.48859 0.15726 0.85234
USER: genes 2 Torsion [C]-N--CA-[CB] |==|  0.83993
USER: genes 3 Torsion [N]-CA--C-[N] |==|  0.33376
USER: genes 4 Torsion [C]-N--CA-[CB] |==|  0.52330
USER: genes 5 Torsion [N]-CA--C-[N] |==|  0.36667
USER: genes 6 Torsion [C]-N--CA-[CB] |==|  0.38288
USER: genes 7 Torsion [N]-CA--C-[O] |==|  0.27105
USER: genes 8 Torsion [N]-CA--CB-[CG] |==|  0.90733
USER: genes 9 Torsion [CA]-CB--CG-[CD1] |==|  0.26779
USER: genes 10 Torsion [N]-CA--CB-[CG] |==|  0.81146
USER: genes 11 Torsion [CA]-CB--CG-[OD2] |==|  0.12327
USER: genes 12 Torsion [N]-C--CA-[N] |==|  0.97402
USER: genes 13 Torsion [C]-CA--CB-[CG] |==|  0.24779
USER: genes 14 Torsion [CA]-CB--CG-[CD2] |==|  0.45410
USER: genes 15 Torsion [C]-CA--N-[C] |==|  0.77127
USER: genes 16 Torsion [N]-C--CA-[N] |==|  0.46343
USER: genes 17 Torsion [C]-CA--N-[C] |==|  0.70777
USER: genes 18 Torsion [C]-CA--CB-[CG] |==|  0.27260
USER: genes 19 Torsion [CA]-CB--CG-[CD] |==|  0.69068
USER: genes 20 Torsion [CB]-CG--CD-[OE1] |==|  0.40617
ROOT
ATOM      1  C   LEU E   1       0.490  -7.280 -10.424  1.00 39.66 LIG 0.24  C 
ATOM      2 O    LEU E   1       0.722  -7.464  -9.226  1.00 37.26 LIG-0.27  OA
ATOM      3  N   ASP E   2       0.220  -8.272 -11.274  1.00 41.55 LIG-0.35  N 
ATOM      4 H    ASP E   2       0.056  -8.150 -12.110  1.00 41.55 LIG 0.16  HD
ENDROOT
BRANCH 3 5
ATOM      5  CA  ASP E   2       0.178  -9.678 -10.857  1.00 42.33 LIG 0.19  C 
BRANCH 5 6
ATOM      6  C   ASP E   2      -0.961  -9.928  -9.875  1.00 41.58 LIG 0.24  C 
ATOM      7 O    ASP E   2      -1.002  -9.329  -8.794  1.00 40.78 LIG-0.27  OA
ATOM      8  N   ALA E   3      -1.876 -10.820 -10.258  1.00 40.17 LIG-0.35  N 
ATOM      9 H    ALA E   3      -1.832 -11.249 -11.002  1.00 40.17 LIG 0.16  HD
BRANCH 8 10
ATOM     10  CA  ALA E   3      -3.052 -11.162  -9.446  1.00 38.52 LIG 0.17  C 
ATOM     11  CB  ALA E   3      -3.785 -12.354 -10.058  1.00 38.62 LIG 0.04  C 
BRANCH 10 12
ATOM     12  C   ALA E   3      -2.719 -11.436  -7.980  1.00 38.02 LIG 0.24  C 
ATOM     13 O    ALA E   3      -1.791 -12.187  -7.677  1.00 36.71 LIG-0.27  OA
ATOM     14  N   PHE E   4      -3.488 -10.819  -7.086  1.00 38.01 LIG-0.34  N 
ATOM     15 H    PHE E   4      -4.187 -10.367  -7.299  1.00 38.01 LIG 0.16  HD
BRANCH 14 16
ATOM     16  CA  PHE E   4      -3.222 -10.848  -5.649  1.00 38.29 LIG 0.19  C 
BRANCH 16 17
ATOM     17  C   PHE E   4      -4.143 -11.861  -4.974  1.00 39.00 LIG 0.20  C 
ATOM     18 OXT  PHE E   4      -5.307 -11.568  -4.694  1.00 39.22 LIG-0.65  OA
ATOM     19 O    PHE E   4      -3.750 -13.004  -4.718  1.00 39.04 LIG-0.65  OA
ENDBRANCH 16 17
BRANCH 16 20
ATOM     20  CB  PHE E   4      -3.446  -9.456  -5.032  1.00 37.57 LIG 0.07  C 
BRANCH 20 21
ATOM     21  CG  PHE E   4      -3.094  -8.319  -5.958  1.00 36.97 LIG-0.06  A 
ATOM     22  CD1 PHE E   4      -4.077  -7.687  -6.721  1.00 35.77 LIG 0.01  A 
ATOM     23  CE1 PHE E   4      -3.750  -6.652  -7.584  1.00 35.50 LIG 0.00  A 
ATOM     24  CZ  PHE E   4      -2.430  -6.236  -7.689  1.00 35.20 LIG 0.00  A 
ATOM     25  CE2 PHE E   4      -1.441  -6.859  -6.939  1.00 34.71 LIG 0.00  A 
ATOM     26  CD2 PHE E   4      -1.775  -7.893  -6.080  1.00 35.45 LIG 0.01  A 
ENDBRANCH 20 21
ENDBRANCH 16 20
ENDBRANCH 14 16
ENDBRANCH 10 12
ENDBRANCH 8 10
ENDBRANCH 5 6
BRANCH 5 27
ATOM     27  CB  ASP E   2       1.512 -10.105 -10.230  1.00 43.54 LIG 0.15  C 
BRANCH 27 28
ATOM     28  CG  ASP E   2       2.652 -10.143 -11.239  1.00 45.99 LIG 0.17  C 
ATOM     29 OD2  ASP E   2       2.766  -9.192 -12.045  1.00 46.35 LIG-0.65  OA
ATOM     30 OD1  ASP E   2       3.442 -11.114 -11.222  1.00 46.97 LIG-0.65  OA
ENDBRANCH 27 28
ENDBRANCH 5 27
ENDBRANCH 3 5
BRANCH 1 31
ATOM     31  CA  LEU E   1       0.473  -5.861 -11.009  1.00 39.47 LIG 0.18  C 
BRANCH 31 32
ATOM     32  CB  LEU E   1      -0.640  -4.996 -10.392  1.00 38.97 LIG 0.04  C 
BRANCH 32 33
ATOM     33  CG  LEU E   1      -0.281  -4.207  -9.122  1.00 40.05 LIG-0.02  C 
ATOM     34  CD2 LEU E   1      -1.295  -3.101  -8.840  1.00 40.58 LIG 0.01  C 
ATOM     35  CD1 LEU E   1       1.125  -3.631  -9.205  1.00 39.33 LIG 0.01  C 
ENDBRANCH 32 33
ENDBRANCH 31 32
BRANCH 31 36
ATOM     36  N   LEU E   1       0.373  -5.874 -12.468  1.00 38.97 LIG-0.35  N 
ATOM     37  C   GLN E   0       1.440  -6.050 -13.245  1.00 38.27 LIG 0.24  C 
ATOM     38 O    GLN E   0       2.585  -6.198 -12.804  1.00 40.12 LIG-0.27  OA
ATOM     39 H    LEU E   1      -0.425  -5.760 -12.769  1.00 38.97 LIG 0.16  HD
BRANCH 37 40
ATOM     40  CA  GLN E   0       1.173  -6.081 -14.749  1.00 36.47 LIG 0.18  C 
BRANCH 40 41
ATOM     41  N   GLN E   0       2.428  -5.965 -15.557  1.00 35.61 LIG-0.35  N 
ATOM     42  C   ACE E  -1       2.799  -4.858 -16.209  1.00 35.56 LIG 0.21  C 
ATOM     43 O    ACE E  -1       2.150  -3.821 -16.232  1.00 35.09 LIG-0.27  OA
ATOM     44  CH3 ACE E  -1       4.013  -5.000 -17.099  1.00 35.40 LIG 0.12  C 
ATOM     45 H    GLN E   0       2.896  -6.686 -15.563  1.00 35.61 LIG 0.16  HD
ENDBRANCH 40 41
BRANCH 40 46
ATOM     46  CB  GLN E   0       0.412  -7.364 -15.109  1.00 35.42 LIG 0.04  C 
BRANCH 46 47
ATOM     47  CG  GLN E   0      -1.098  -7.170 -15.244  1.00 33.87 LIG 0.10  C 
BRANCH 47 48
ATOM     48  CD  GLN E   0      -1.870  -7.861 -14.135  1.00 33.67 LIG 0.21  C 
ATOM     49 OE1  GLN E   0      -2.911  -7.375 -13.697  1.00 31.67 LIG-0.27  OA
ATOM     50  NE2 GLN E   0      -1.355  -8.997 -13.668  1.00 33.23 LIG-0.37  N 
ATOM     51 22HE GLN E   0      -1.753  -9.421 -13.034  1.00 33.23 LIG 0.16  HD
ATOM     52 21HE GLN E   0      -0.624  -9.306 -14.000  1.00 33.23 LIG 0.16  HD
ENDBRANCH 47 48
ENDBRANCH 46 47
ENDBRANCH 40 46
ENDBRANCH 37 40
ENDBRANCH 31 36
ENDBRANCH 1 31
TORSDOF 19
ENDMDL
MODEL 50
USER: ADFR SOLUTION from run 192
USER: SCORE 13.219998 LL:  -3.240 LR: -11.957 RR:   0.000 FEB:  -6.289
USER: RMSD 3.603629
USER: SEED 191
USER: STATUS no improvement in best in 20 clusters for 5 generations
USER: GENES 21
USER: genes 0 Translation |==|  0.42392 0.54021 0.54938
USER: genes 1 Rotation |==|  0.02708 0.62706 0.39906 0.50361
USER: genes 2 Torsion [C]-N--CA-[CB] |==|  0.83901
USER: genes 3 Torsion [N]-CA--C-[N] |==|  0.37833
USER: genes 4 Torsion [C]-N--CA-[CB] |==|  0.23799
USER: genes 5 Torsion [N]-CA--C-[N] |==|  0.83430
USER: genes 6 Torsion [C]-N--CA-[CB] |==|  0.31704
USER: genes 7 Torsion [N]-CA--C-[O] |==|  0.43002
USER: genes 8 Torsion [N]-CA--CB-[CG] |==|  0.77880
USER: genes 9 Torsion [CA]-CB--CG-[CD1] |==|  0.17088
USER: genes 10 Torsion [N]-CA--CB-[CG] |==|  0.58771
USER: genes 11 Torsion [CA]-CB--CG-[OD2] |==|  0.51463
USER: genes 12 Torsion [N]-C--CA-[N] |==|  0.64117
USER: genes 13 Torsion [C]-CA--CB-[CG] |==|  0.53883
USER: genes 14 Torsion [CA]-CB--CG-[CD2] |==|  0.64636
USER: genes 15 Torsion [C]-CA--N-[C] |==|  0.16734
USER: genes 16 Torsion [N]-C--CA-[N] |==|  0.23936
USER: genes 17 Torsion [C]-CA--N-[C] |==|  0.75562
USER: genes 18 Torsion [C]-CA--CB-[CG] |==|  0.31464
USER: genes 19 Torsion [CA]-CB--CG-[CD] |==|  0.66434
USER: genes 20 Torsion [CB]-CG--CD-[OE1] |==|  0.01777
ROOT
ATOM      1  C   LEU E   1       1.867  -6.366 -11.729  1.00 39.66 LIG 0.24  C 
ATOM      2 O    LEU E   1       1.965  -6.925 -12.825  1.00 37.26 LIG-0.27  OA
ATOM      3  N   ASP E   2       2.810  -6.438 -10.788  1.00 41.55 LIG-0.35  N 
ATOM      4 H    ASP E   2       2.749  -6.049 -10.023  1.00 41.55 LIG 0.16  HD
ENDROOT
BRANCH 3 5
ATOM      5  CA  ASP E   2       4.052  -7.196 -10.974  1.00 42.33 LIG 0.19  C 
BRANCH 5 6
ATOM      6  C   ASP E   2       4.904  -6.594 -12.087  1.00 41.58 LIG 0.24  C 
ATOM      7 O    ASP E   2       4.386  -6.243 -13.154  1.00 40.78 LIG-0.27  OA
ATOM      8  N   ALA E   3       6.209  -6.489 -11.831  1.00 40.17 LIG-0.35  N 
ATOM      9 H    ALA E   3       6.567  -6.753 -11.095  1.00 40.17 LIG 0.16  HD
BRANCH 8 10
ATOM     10  CA  ALA E   3       7.168  -5.910 -12.781  1.00 38.52 LIG 0.17  C 
ATOM     11  CB  ALA E   3       7.214  -4.392 -12.621  1.00 38.62 LIG 0.04  C 
BRANCH 10 12
ATOM     12  C   ALA E   3       8.572  -6.501 -12.663  1.00 38.02 LIG 0.24  C 
ATOM     13 O    ALA E   3       9.098  -7.065 -13.623  1.00 36.71 LIG-0.27  OA
ATOM     14  N   PHE E   4       9.163  -6.360 -11.479  1.00 38.01 LIG-0.34  N 
ATOM     15 H    PHE E   4       8.762  -6.044 -10.787  1.00 38.01 LIG 0.16  HD
BRANCH 14 16
ATOM     16  CA  PHE E   4      10.556  -6.730 -11.233  1.00 38.29 LIG 0.19  C 
BRANCH 16 17
ATOM     17  C   PHE E   4      10.631  -7.708 -10.064  1.00 39.00 LIG 0.20  C 
ATOM     18 OXT  PHE E   4       9.737  -7.749  -9.215  1.00 39.22 LIG-0.65  OA
ATOM     19 O    PHE E   4      11.575  -8.498  -9.957  1.00 39.04 LIG-0.65  OA
ENDBRANCH 16 17
BRANCH 16 20
ATOM     20  CB  PHE E   4      11.396  -5.480 -10.915  1.00 37.57 LIG 0.07  C 
BRANCH 20 21
ATOM     21  CG  PHE E   4      11.798  -4.693 -12.137  1.00 36.97 LIG-0.06  A 
ATOM     22  CD1 PHE E   4      10.835  -4.123 -12.970  1.00 35.77 LIG 0.01  A 
ATOM     23  CE1 PHE E   4      11.205  -3.414 -14.102  1.00 35.50 LIG 0.00  A 
ATOM     24  CZ  PHE E   4      12.550  -3.263 -14.409  1.00 35.20 LIG 0.00  A 
ATOM     25  CE2 PHE E   4      13.520  -3.828 -13.590  1.00 34.71 LIG 0.00  A 
ATOM     26  CD2 PHE E   4      13.142  -4.536 -12.462  1.00 35.45 LIG 0.01  A 
ENDBRANCH 20 21
ENDBRANCH 16 20
ENDBRANCH 14 16
ENDBRANCH 10 12
ENDBRANCH 8 10
ENDBRANCH 5 6
BRANCH 5 27
ATOM     27  CB  ASP E   2       3.756  -8.670 -11.281  1.00 43.54 LIG 0.15  C 
BRANCH 27 28
ATOM     28  CG  ASP E   2       4.831  -9.610 -10.750  1.00 45.99 LIG 0.17  C 
ATOM     29 OD2  ASP E   2       4.746 -10.828 -11.028  1.00 46.35 LIG-0.65  OA
ATOM     30 OD1  ASP E   2       5.765  -9.136 -10.066  1.00 46.97 LIG-0.65  OA
ENDBRANCH 27 28
ENDBRANCH 5 27
ENDBRANCH 3 5
BRANCH 1 31
ATOM     31  CA  LEU E   1       0.635  -5.514 -11.392  1.00 39.47 LIG 0.18  C 
BRANCH 31 32
ATOM     32  CB  LEU E   1       0.684  -4.972  -9.953  1.00 38.97 LIG 0.04  C 
BRANCH 32 33
ATOM     33  CG  LEU E   1      -0.623  -4.392  -9.386  1.00 40.05 LIG-0.02  C 
ATOM     34  CD2 LEU E   1      -0.419  -2.984  -8.831  1.00 40.58 LIG 0.01  C 
ATOM     35  CD1 LEU E   1      -1.220  -5.302  -8.323  1.00 39.33 LIG 0.01  C 
ENDBRANCH 32 33
ENDBRANCH 31 32
BRANCH 31 36
ATOM     36  N   LEU E   1      -0.612  -6.241 -11.631  1.00 38.97 LIG-0.35  N 
ATOM     37  C   GLN E   0      -0.898  -7.375 -10.994  1.00 38.27 LIG 0.24  C 
ATOM     38 O    GLN E   0      -0.140  -7.904 -10.173  1.00 40.12 LIG-0.27  OA
ATOM     39 H    LEU E   1      -1.130  -5.874 -12.211  1.00 38.97 LIG 0.16  HD
BRANCH 37 40
ATOM     40  CA  GLN E   0      -2.255  -7.998 -11.317  1.00 36.47 LIG 0.18  C 
BRANCH 40 41
ATOM     41  N   GLN E   0      -2.205  -8.885 -12.522  1.00 35.61 LIG-0.35  N 
ATOM     42  C   ACE E  -1      -2.385  -8.456 -13.776  1.00 35.56 LIG 0.21  C 
ATOM     43 O    ACE E  -1      -2.625  -7.296 -14.079  1.00 35.09 LIG-0.27  OA
ATOM     44  CH3 ACE E  -1      -2.461  -9.536 -14.831  1.00 35.40 LIG 0.12  C 
ATOM     45 H    GLN E   0      -2.048  -9.709 -12.331  1.00 35.61 LIG 0.16  HD
ENDBRANCH 40 41
BRANCH 40 46
ATOM     46  CB  GLN E   0      -2.770  -8.770 -10.095  1.00 35.42 LIG 0.04  C 
BRANCH 46 47
ATOM     47  CG  GLN E   0      -4.019  -8.161  -9.460  1.00 33.87 LIG 0.10  C 
BRANCH 47 48
ATOM     48  CD  GLN E   0      -3.801  -7.779  -8.008  1.00 33.67 LIG 0.21  C 
ATOM     49 OE1  GLN E   0      -2.684  -7.858  -7.499  1.00 31.67 LIG-0.27  OA
ATOM     50  NE2 GLN E   0      -4.873  -7.373  -7.330  1.00 33.23 LIG-0.37  N 
ATOM     51 22HE GLN E   0      -4.800  -7.153  -6.502  1.00 33.23 LIG 0.16  HD
ATOM     52 21HE GLN E   0      -5.638  -7.332  -7.721  1.00 33.23 LIG 0.16  HD
ENDBRANCH 47 48
ENDBRANCH 46 47
ENDBRANCH 40 46
ENDBRANCH 37 40
ENDBRANCH 31 36
ENDBRANCH 1 31
TORSDOF 19
ENDMDL
MODEL 51
USER: ADFR SOLUTION from run 169
USER: SCORE 15.391259 LL:  -4.460 LR: -11.943 RR:   0.000 FEB:  -6.275
USER: RMSD 10.538198
USER: SEED 168
USER: STATUS no improvement in best in 6 clusters for 5 generations
USER: GENES 21
USER: genes 0 Translation |==|  0.36931 0.58717 0.59139
USER: genes 1 Rotation |==|  0.31318 0.17910 0.28618 0.75768
USER: genes 2 Torsion [C]-N--CA-[CB] |==|  0.14904
USER: genes 3 Torsion [N]-CA--C-[N] |==|  0.12350
USER: genes 4 Torsion [C]-N--CA-[CB] |==|  0.81598
USER: genes 5 Torsion [N]-CA--C-[N] |==|  0.15978
USER: genes 6 Torsion [C]-N--CA-[CB] |==|  0.23618
USER: genes 7 Torsion [N]-CA--C-[O] |==|  0.99683
USER: genes 8 Torsion [N]-CA--CB-[CG] |==|  0.20998
USER: genes 9 Torsion [CA]-CB--CG-[CD1] |==|  0.32579
USER: genes 10 Torsion [N]-CA--CB-[CG] |==|  0.68031
USER: genes 11 Torsion [CA]-CB--CG-[OD2] |==|  0.04117
USER: genes 12 Torsion [N]-C--CA-[N] |==|  0.42271
USER: genes 13 Torsion [C]-CA--CB-[CG] |==|  0.77815
USER: genes 14 Torsion [CA]-CB--CG-[CD2] |==|  0.67237
USER: genes 15 Torsion [C]-CA--N-[C] |==|  0.54444
USER: genes 16 Torsion [N]-C--CA-[N] |==|  0.30741
USER: genes 17 Torsion [C]-CA--N-[C] |==|  0.67108
USER: genes 18 Torsion [C]-CA--CB-[CG] |==|  0.27071
USER: genes 19 Torsion [CA]-CB--CG-[CD] |==|  0.22070
USER: genes 20 Torsion [CB]-CG--CD-[OE1] |==|  0.98097
ROOT
ATOM      1  C   LEU E   1       0.515  -5.626 -11.004  1.00 39.66 LIG 0.24  C 
ATOM      2 O    LEU E   1       0.677  -4.405 -11.090  1.00 37.26 LIG-0.27  OA
ATOM      3  N   ASP E   2       0.012  -6.220  -9.921  1.00 41.55 LIG-0.35  N 
ATOM      4 H    ASP E   2      -0.104  -7.070  -9.856  1.00 41.55 LIG 0.16  HD
ENDROOT
BRANCH 3 5
ATOM      5  CA  ASP E   2      -0.395  -5.469  -8.728  1.00 42.33 LIG 0.19  C 
BRANCH 5 6
ATOM      6  C   ASP E   2      -1.016  -6.390  -7.683  1.00 41.58 LIG 0.24  C 
ATOM      7 O    ASP E   2      -2.046  -6.058  -7.086  1.00 40.78 LIG-0.27  OA
ATOM      8  N   ALA E   3      -0.375  -7.540  -7.465  1.00 40.17 LIG-0.35  N 
ATOM      9 H    ALA E   3       0.352  -7.757  -7.868  1.00 40.17 LIG 0.16  HD
BRANCH 8 10
ATOM     10  CA  ALA E   3      -0.849  -8.553  -6.513  1.00 38.52 LIG 0.17  C 
ATOM     11  CB  ALA E   3      -0.773  -8.011  -5.087  1.00 38.62 LIG 0.04  C 
BRANCH 10 12
ATOM     12  C   ALA E   3      -2.259  -9.058  -6.815  1.00 38.02 LIG 0.24  C 
ATOM     13 O    ALA E   3      -3.153  -8.967  -5.972  1.00 36.71 LIG-0.27  OA
ATOM     14  N   PHE E   4      -2.439  -9.588  -8.022  1.00 38.01 LIG-0.34  N 
ATOM     15 H    PHE E   4      -1.796  -9.730  -8.575  1.00 38.01 LIG 0.16  HD
BRANCH 14 16
ATOM     16  CA  PHE E   4      -3.750  -9.984  -8.533  1.00 38.29 LIG 0.19  C 
BRANCH 16 17
ATOM     17  C   PHE E   4      -3.586 -11.085  -9.577  1.00 39.00 LIG 0.20  C 
ATOM     18 OXT  PHE E   4      -4.567 -11.568 -10.146  1.00 39.22 LIG-0.65  OA
ATOM     19 O    PHE E   4      -2.466 -11.498  -9.893  1.00 39.04 LIG-0.65  OA
ENDBRANCH 16 17
BRANCH 16 20
ATOM     20  CB  PHE E   4      -4.468  -8.777  -9.164  1.00 37.57 LIG 0.07  C 
BRANCH 20 21
ATOM     21  CG  PHE E   4      -3.932  -8.395 -10.521  1.00 36.97 LIG-0.06  A 
ATOM     22  CD1 PHE E   4      -4.742  -8.462 -11.655  1.00 35.77 LIG 0.01  A 
ATOM     23  CE1 PHE E   4      -4.244  -8.125 -12.904  1.00 35.50 LIG 0.00  A 
ATOM     24  CZ  PHE E   4      -2.925  -7.712 -13.029  1.00 35.20 LIG 0.00  A 
ATOM     25  CE2 PHE E   4      -2.106  -7.644 -11.909  1.00 34.71 LIG 0.00  A 
ATOM     26  CD2 PHE E   4      -2.610  -7.983 -10.665  1.00 35.45 LIG 0.01  A 
ENDBRANCH 20 21
ENDBRANCH 16 20
ENDBRANCH 14 16
ENDBRANCH 10 12
ENDBRANCH 8 10
ENDBRANCH 5 6
BRANCH 5 27
ATOM     27  CB  ASP E   2      -1.380  -4.351  -9.091  1.00 43.54 LIG 0.15  C 
BRANCH 27 28
ATOM     28  CG  ASP E   2      -0.816  -2.960  -8.831  1.00 45.99 LIG 0.17  C 
ATOM     29 OD2  ASP E   2       0.416  -2.844  -8.641  1.00 46.35 LIG-0.65  OA
ATOM     30 OD1  ASP E   2      -1.597  -1.982  -8.826  1.00 46.97 LIG-0.65  OA
ENDBRANCH 27 28
ENDBRANCH 5 27
ENDBRANCH 3 5
BRANCH 1 31
ATOM     31  CA  LEU E   1       0.871  -6.546 -12.181  1.00 39.47 LIG 0.18  C 
BRANCH 31 32
ATOM     32  CB  LEU E   1       2.256  -7.195 -12.007  1.00 38.97 LIG 0.04  C 
BRANCH 32 33
ATOM     33  CG  LEU E   1       3.476  -6.328 -12.363  1.00 40.05 LIG-0.02  C 
ATOM     34  CD2 LEU E   1       4.279  -6.931 -13.512  1.00 40.58 LIG 0.01  C 
ATOM     35  CD1 LEU E   1       4.368  -6.101 -11.151  1.00 39.33 LIG 0.01  C 
ENDBRANCH 32 33
ENDBRANCH 31 32
BRANCH 31 36
ATOM     36  N   LEU E   1       0.781  -5.850 -13.464  1.00 38.97 LIG-0.35  N 
ATOM     37  C   GLN E   0       0.736  -6.509 -14.620  1.00 38.27 LIG 0.24  C 
ATOM     38 O    GLN E   0       0.783  -7.741 -14.703  1.00 40.12 LIG-0.27  OA
ATOM     39 H    LEU E   1       0.759  -4.992 -13.400  1.00 38.97 LIG 0.16  HD
BRANCH 37 40
ATOM     40  CA  GLN E   0       0.601  -5.647 -15.875  1.00 36.47 LIG 0.18  C 
BRANCH 40 41
ATOM     41  N   GLN E   0       1.842  -5.655 -16.712  1.00 35.61 LIG-0.35  N 
ATOM     42  C   ACE E  -1       2.569  -4.565 -16.984  1.00 35.56 LIG 0.21  C 
ATOM     43 O    ACE E  -1       2.295  -3.439 -16.593  1.00 35.09 LIG-0.27  OA
ATOM     44  CH3 ACE E  -1       3.688  -4.760 -17.981  1.00 35.40 LIG 0.12  C 
ATOM     45 H    GLN E   0       2.048  -6.436 -17.006  1.00 35.61 LIG 0.16  HD
ENDBRANCH 40 41
BRANCH 40 46
ATOM     46  CB  GLN E   0      -0.609  -6.118 -16.693  1.00 35.42 LIG 0.04  C 
BRANCH 46 47
ATOM     47  CG  GLN E   0      -1.875  -5.297 -16.452  1.00 33.87 LIG 0.10  C 
BRANCH 47 48
ATOM     48  CD  GLN E   0      -1.866  -3.986 -17.217  1.00 33.67 LIG 0.21  C 
ATOM     49 OE1  GLN E   0      -0.864  -3.624 -17.831  1.00 31.67 LIG-0.27  OA
ATOM     50  NE2 GLN E   0      -2.983  -3.262 -17.172  1.00 33.23 LIG-0.37  N 
ATOM     51 22HE GLN E   0      -3.023  -2.508 -17.584  1.00 33.23 LIG 0.16  HD
ATOM     52 21HE GLN E   0      -3.663  -3.548 -16.731  1.00 33.23 LIG 0.16  HD
ENDBRANCH 47 48
ENDBRANCH 46 47
ENDBRANCH 40 46
ENDBRANCH 37 40
ENDBRANCH 31 36
ENDBRANCH 1 31
TORSDOF 19
ENDMDL
MODEL 52
USER: ADFR SOLUTION from run 49
USER: SCORE 13.978367 LL:  -3.439 LR: -11.927 RR:   0.000 FEB:  -6.259
USER: RMSD 3.941474
USER: SEED 48
USER: STATUS no improvement in best in 8 clusters for 5 generations
USER: GENES 21
USER: genes 0 Translation |==|  0.49590 0.52420 0.59422
USER: genes 1 Rotation |==|  0.16585 0.62304 0.35433 0.81935
USER: genes 2 Torsion [C]-N--CA-[CB] |==|  0.53393
USER: genes 3 Torsion [N]-CA--C-[N] |==|  0.36149
USER: genes 4 Torsion [C]-N--CA-[CB] |==|  0.23889
USER: genes 5 Torsion [N]-CA--C-[N] |==|  0.04438
USER: genes 6 Torsion [C]-N--CA-[CB] |==|  0.18405
USER: genes 7 Torsion [N]-CA--C-[O] |==|  0.75040
USER: genes 8 Torsion [N]-CA--CB-[CG] |==|  0.64815
USER: genes 9 Torsion [CA]-CB--CG-[CD1] |==|  0.90705
USER: genes 10 Torsion [N]-CA--CB-[CG] |==|  0.63208
USER: genes 11 Torsion [CA]-CB--CG-[OD2] |==|  0.39922
USER: genes 12 Torsion [N]-C--CA-[N] |==|  0.98021
USER: genes 13 Torsion [C]-CA--CB-[CG] |==|  0.54088
USER: genes 14 Torsion [CA]-CB--CG-[CD2] |==|  0.83807
USER: genes 15 Torsion [C]-CA--N-[C] |==|  0.65412
USER: genes 16 Torsion [N]-C--CA-[N] |==|  0.88394
USER: genes 17 Torsion [C]-CA--N-[C] |==|  0.84977
USER: genes 18 Torsion [C]-CA--CB-[CG] |==|  0.97086
USER: genes 19 Torsion [CA]-CB--CG-[CD] |==|  0.62714
USER: genes 20 Torsion [CB]-CG--CD-[OE1] |==|  0.68851
ROOT
ATOM      1  C   LEU E   1       3.648  -6.618 -10.956  1.00 39.66 LIG 0.24  C 
ATOM      2 O    LEU E   1       4.395  -5.830 -11.543  1.00 37.26 LIG-0.27  OA
ATOM      3  N   ASP E   2       4.084  -7.733 -10.368  1.00 41.55 LIG-0.35  N 
ATOM      4 H    ASP E   2       3.569  -8.286  -9.956  1.00 41.55 LIG 0.16  HD
ENDROOT
BRANCH 3 5
ATOM      5  CA  ASP E   2       5.498  -8.125 -10.370  1.00 42.33 LIG 0.19  C 
BRANCH 5 6
ATOM      6  C   ASP E   2       6.115  -7.955 -11.754  1.00 41.58 LIG 0.24  C 
ATOM      7 O    ASP E   2       5.559  -8.429 -12.752  1.00 40.78 LIG-0.27  OA
ATOM      8  N   ALA E   3       7.267  -7.285 -11.801  1.00 40.17 LIG-0.35  N 
ATOM      9 H    ALA E   3       7.660  -6.975 -11.102  1.00 40.17 LIG 0.16  HD
BRANCH 8 10
ATOM     10  CA  ALA E   3       7.983  -7.008 -13.053  1.00 38.52 LIG 0.17  C 
ATOM     11  CB  ALA E   3       7.448  -5.729 -13.693  1.00 38.62 LIG 0.04  C 
BRANCH 10 12
ATOM     12  C   ALA E   3       9.499  -6.923 -12.881  1.00 38.02 LIG 0.24  C 
ATOM     13 O    ALA E   3      10.203  -6.417 -13.755  1.00 36.71 LIG-0.27  OA
ATOM     14  N   PHE E   4       9.983  -7.423 -11.746  1.00 38.01 LIG-0.34  N 
ATOM     15 H    PHE E   4       9.501  -7.853 -11.178  1.00 38.01 LIG 0.16  HD
BRANCH 14 16
ATOM     16  CA  PHE E   4      11.383  -7.293 -11.349  1.00 38.29 LIG 0.19  C 
BRANCH 16 17
ATOM     17  C   PHE E   4      11.643  -8.124 -10.096  1.00 39.00 LIG 0.20  C 
ATOM     18 OXT  PHE E   4      12.027  -9.293 -10.180  1.00 39.22 LIG-0.65  OA
ATOM     19 O    PHE E   4      11.500  -7.636  -8.969  1.00 39.04 LIG-0.65  OA
ENDBRANCH 16 17
BRANCH 16 20
ATOM     20  CB  PHE E   4      11.730  -5.819 -11.073  1.00 37.57 LIG 0.07  C 
BRANCH 20 21
ATOM     21  CG  PHE E   4      12.929  -5.324 -11.841  1.00 36.97 LIG-0.06  A 
ATOM     22  CD1 PHE E   4      13.996  -6.176 -12.130  1.00 35.77 LIG 0.01  A 
ATOM     23  CE1 PHE E   4      15.104  -5.716 -12.823  1.00 35.50 LIG 0.00  A 
ATOM     24  CZ  PHE E   4      15.154  -4.393 -13.239  1.00 35.20 LIG 0.00  A 
ATOM     25  CE2 PHE E   4      14.101  -3.533 -12.956  1.00 34.71 LIG 0.00  A 
ATOM     26  CD2 PHE E   4      12.997  -3.999 -12.262  1.00 35.45 LIG 0.01  A 
ENDBRANCH 20 21
ENDBRANCH 16 20
ENDBRANCH 14 16
ENDBRANCH 10 12
ENDBRANCH 8 10
ENDBRANCH 5 6
BRANCH 5 27
ATOM     27  CB  ASP E   2       5.667  -9.574  -9.896  1.00 43.54 LIG 0.15  C 
BRANCH 27 28
ATOM     28  CG  ASP E   2       6.764  -9.728  -8.850  1.00 45.99 LIG 0.17  C 
ATOM     29 OD2  ASP E   2       6.594 -10.557  -7.927  1.00 46.35 LIG-0.65  OA
ATOM     30 OD1  ASP E   2       7.800  -9.033  -8.952  1.00 46.97 LIG-0.65  OA
ENDBRANCH 27 28
ENDBRANCH 5 27
ENDBRANCH 3 5
BRANCH 1 31
ATOM     31  CA  LEU E   1       2.144  -6.335 -10.846  1.00 39.47 LIG 0.18  C 
BRANCH 31 32
ATOM     32  CB  LEU E   1       1.856  -5.026 -10.090  1.00 38.97 LIG 0.04  C 
BRANCH 32 33
ATOM     33  CG  LEU E   1       0.411  -4.807  -9.610  1.00 40.05 LIG-0.02  C 
ATOM     34  CD2 LEU E   1      -0.578  -4.837 -10.773  1.00 40.58 LIG 0.01  C 
ATOM     35  CD1 LEU E   1       0.276  -3.507  -8.831  1.00 39.33 LIG 0.01  C 
ENDBRANCH 32 33
ENDBRANCH 31 32
BRANCH 31 36
ATOM     36  N   LEU E   1       1.422  -7.455 -10.240  1.00 38.97 LIG-0.35  N 
ATOM     37  C   GLN E   0       0.394  -8.041 -10.850  1.00 38.27 LIG 0.24  C 
ATOM     38 O    GLN E   0      -0.037  -7.684 -11.952  1.00 40.12 LIG-0.27  OA
ATOM     39 H    LEU E   1       1.720  -7.692  -9.469  1.00 38.97 LIG 0.16  HD
BRANCH 37 40
ATOM     40  CA  GLN E   0      -0.234  -9.223 -10.113  1.00 36.47 LIG 0.18  C 
BRANCH 40 41
ATOM     41  N   GLN E   0       0.791 -10.123  -9.496  1.00 35.61 LIG-0.35  N 
ATOM     42  C   ACE E  -1       1.805 -10.676 -10.170  1.00 35.56 LIG 0.21  C 
ATOM     43 O    ACE E  -1       2.002 -10.522 -11.367  1.00 35.09 LIG-0.27  OA
ATOM     44  CH3 ACE E  -1       2.628 -11.683  -9.400  1.00 35.40 LIG 0.12  C 
ATOM     45 H    GLN E   0       0.666 -10.254  -8.655  1.00 35.61 LIG 0.16  HD
ENDBRANCH 40 41
BRANCH 40 46
ATOM     46  CB  GLN E   0      -1.212  -8.704  -9.050  1.00 35.42 LIG 0.04  C 
BRANCH 46 47
ATOM     47  CG  GLN E   0      -1.128  -7.196  -8.817  1.00 33.87 LIG 0.10  C 
BRANCH 47 48
ATOM     48  CD  GLN E   0      -1.107  -6.840  -7.342  1.00 33.67 LIG 0.21  C 
ATOM     49 OE1  GLN E   0      -2.056  -6.252  -6.825  1.00 31.67 LIG-0.27  OA
ATOM     50  NE2 GLN E   0      -0.018  -7.186  -6.660  1.00 33.23 LIG-0.37  N 
ATOM     51 22HE GLN E   0       0.043  -6.998  -5.823  1.00 33.23 LIG 0.16  HD
ATOM     52 21HE GLN E   0       0.626  -7.596  -7.058  1.00 33.23 LIG 0.16  HD
ENDBRANCH 47 48
ENDBRANCH 46 47
ENDBRANCH 40 46
ENDBRANCH 37 40
ENDBRANCH 31 36
ENDBRANCH 1 31
TORSDOF 19
ENDMDL
MODEL 53
USER: ADFR SOLUTION from run 157
USER: SCORE 16.131529 LL:  -4.926 LR: -11.923 RR:   0.000 FEB:  -6.255
USER: RMSD 10.233974
USER: SEED 156
USER: STATUS 1 or 2 clusters left
USER: GENES 21
USER: genes 0 Translation |==|  0.28155 0.48995 0.62750
USER: genes 1 Rotation |==|  0.74794 0.44233 0.76977 0.83530
USER: genes 2 Torsion [C]-N--CA-[CB] |==|  0.55086
USER: genes 3 Torsion [N]-CA--C-[N] |==|  0.31273
USER: genes 4 Torsion [C]-N--CA-[CB] |==|  0.84908
USER: genes 5 Torsion [N]-CA--C-[N] |==|  0.35557
USER: genes 6 Torsion [C]-N--CA-[CB] |==|  0.30285
USER: genes 7 Torsion [N]-CA--C-[O] |==|  0.29260
USER: genes 8 Torsion [N]-CA--CB-[CG] |==|  0.91230
USER: genes 9 Torsion [CA]-CB--CG-[CD1] |==|  0.21130
USER: genes 10 Torsion [N]-CA--CB-[CG] |==|  0.09296
USER: genes 11 Torsion [CA]-CB--CG-[OD2] |==|  0.37315
USER: genes 12 Torsion [N]-C--CA-[N] |==|  0.13069
USER: genes 13 Torsion [C]-CA--CB-[CG] |==|  0.26349
USER: genes 14 Torsion [CA]-CB--CG-[CD2] |==|  0.14976
USER: genes 15 Torsion [C]-CA--N-[C] |==|  0.16654
USER: genes 16 Torsion [N]-C--CA-[N] |==|  0.98340
USER: genes 17 Torsion [C]-CA--N-[C] |==|  0.78465
USER: genes 18 Torsion [C]-CA--CB-[CG] |==|  0.93004
USER: genes 19 Torsion [CA]-CB--CG-[CD] |==|  0.37056
USER: genes 20 Torsion [CB]-CG--CD-[OE1] |==|  0.84488
ROOT
ATOM      1  C   LEU E   1      -1.657  -7.157 -10.382  1.00 39.66 LIG 0.24  C 
ATOM      2 O    LEU E   1      -1.743  -8.104  -9.594  1.00 37.26 LIG-0.27  OA
ATOM      3  N   ASP E   2      -0.984  -6.039 -10.105  1.00 41.55 LIG-0.35  N 
ATOM      4 H    ASP E   2      -0.919  -5.376 -10.650  1.00 41.55 LIG 0.16  HD
ENDROOT
BRANCH 3 5
ATOM      5  CA  ASP E   2      -0.285  -5.834  -8.832  1.00 42.33 LIG 0.19  C 
BRANCH 5 6
ATOM      6  C   ASP E   2      -1.090  -6.397  -7.665  1.00 41.58 LIG 0.24  C 
ATOM      7 O    ASP E   2      -2.161  -5.876  -7.331  1.00 40.78 LIG-0.27  OA
ATOM      8  N   ALA E   3      -0.560  -7.454  -7.048  1.00 40.17 LIG-0.35  N 
ATOM      9 H    ALA E   3       0.195  -7.799  -7.270  1.00 40.17 LIG 0.16  HD
BRANCH 8 10
ATOM     10  CA  ALA E   3      -1.213  -8.136  -5.923  1.00 38.52 LIG 0.17  C 
ATOM     11  CB  ALA E   3      -1.542  -7.134  -4.819  1.00 38.62 LIG 0.04  C 
BRANCH 10 12
ATOM     12  C   ALA E   3      -2.467  -8.911  -6.328  1.00 38.02 LIG 0.24  C 
ATOM     13 O    ALA E   3      -3.363  -8.364  -6.972  1.00 36.71 LIG-0.27  OA
ATOM     14  N   PHE E   4      -2.513 -10.184  -5.941  1.00 38.01 LIG-0.34  N 
ATOM     15 H    PHE E   4      -1.929 -10.538  -5.418  1.00 38.01 LIG 0.16  HD
BRANCH 14 16
ATOM     16  CA  PHE E   4      -3.560 -11.110  -6.365  1.00 38.29 LIG 0.19  C 
BRANCH 16 17
ATOM     17  C   PHE E   4      -4.142 -11.823  -5.147  1.00 39.00 LIG 0.20  C 
ATOM     18 OXT  PHE E   4      -3.501 -12.699  -4.562  1.00 39.22 LIG-0.65  OA
ATOM     19 O    PHE E   4      -5.255 -11.521  -4.706  1.00 39.04 LIG-0.65  OA
ENDBRANCH 16 17
BRANCH 16 20
ATOM     20  CB  PHE E   4      -2.994 -12.149  -7.350  1.00 37.57 LIG 0.07  C 
BRANCH 20 21
ATOM     21  CG  PHE E   4      -1.871 -11.622  -8.207  1.00 36.97 LIG-0.06  A 
ATOM     22  CD1 PHE E   4      -0.589 -11.454  -7.683  1.00 35.77 LIG 0.01  A 
ATOM     23  CE1 PHE E   4       0.439 -10.954  -8.467  1.00 35.50 LIG 0.00  A 
ATOM     24  CZ  PHE E   4       0.193 -10.620  -9.792  1.00 35.20 LIG 0.00  A 
ATOM     25  CE2 PHE E   4      -1.080 -10.779 -10.325  1.00 34.71 LIG 0.00  A 
ATOM     26  CD2 PHE E   4      -2.102 -11.277  -9.536  1.00 35.45 LIG 0.01  A 
ENDBRANCH 20 21
ENDBRANCH 16 20
ENDBRANCH 14 16
ENDBRANCH 10 12
ENDBRANCH 8 10
ENDBRANCH 5 6
BRANCH 5 27
ATOM     27  CB  ASP E   2       0.004  -4.345  -8.597  1.00 43.54 LIG 0.15  C 
BRANCH 27 28
ATOM     28  CG  ASP E   2      -1.079  -3.437  -9.167  1.00 45.99 LIG 0.17  C 
ATOM     29 OD2  ASP E   2      -1.502  -2.498  -8.456  1.00 46.35 LIG-0.65  OA
ATOM     30 OD1  ASP E   2      -1.500  -3.652 -10.326  1.00 46.97 LIG-0.65  OA
ENDBRANCH 27 28
ENDBRANCH 5 27
ENDBRANCH 3 5
BRANCH 1 31
ATOM     31  CA  LEU E   1      -2.315  -7.230 -11.767  1.00 39.47 LIG 0.18  C 
BRANCH 31 32
ATOM     32  CB  LEU E   1      -2.895  -8.626 -12.057  1.00 38.97 LIG 0.04  C 
BRANCH 32 33
ATOM     33  CG  LEU E   1      -4.386  -8.834 -11.745  1.00 40.05 LIG-0.02  C 
ATOM     34  CD2 LEU E   1      -5.257  -7.785 -12.432  1.00 40.58 LIG 0.01  C 
ATOM     35  CD1 LEU E   1      -4.644  -8.840 -10.245  1.00 39.33 LIG 0.01  C 
ENDBRANCH 32 33
ENDBRANCH 31 32
BRANCH 31 36
ATOM     36  N   LEU E   1      -1.396  -6.818 -12.828  1.00 38.97 LIG-0.35  N 
ATOM     37  C   GLN E   0      -0.247  -7.453 -13.049  1.00 38.27 LIG 0.24  C 
ATOM     38 O    GLN E   0       0.139  -8.415 -12.376  1.00 40.12 LIG-0.27  OA
ATOM     39 H    LEU E   1      -1.665  -6.141 -13.286  1.00 38.97 LIG 0.16  HD
BRANCH 37 40
ATOM     40  CA  GLN E   0       0.589  -6.933 -14.219  1.00 36.47 LIG 0.18  C 
BRANCH 40 41
ATOM     41  N   GLN E   0      -0.121  -5.874 -15.004  1.00 35.61 LIG-0.35  N 
ATOM     42  C   ACE E  -1      -1.090  -6.122 -15.891  1.00 35.56 LIG 0.21  C 
ATOM     43 O    ACE E  -1      -1.496  -7.241 -16.173  1.00 35.09 LIG-0.27  OA
ATOM     44  CH3 ACE E  -1      -1.559  -4.932 -16.695  1.00 35.40 LIG 0.12  C 
ATOM     45 H    GLN E   0       0.156  -5.079 -14.829  1.00 35.61 LIG 0.16  HD
ENDBRANCH 40 41
BRANCH 40 46
ATOM     46  CB  GLN E   0       1.935  -6.413 -13.697  1.00 35.42 LIG 0.04  C 
BRANCH 46 47
ATOM     47  CG  GLN E   0       1.901  -5.966 -12.236  1.00 33.87 LIG 0.10  C 
BRANCH 47 48
ATOM     48  CD  GLN E   0       3.073  -6.509 -11.439  1.00 33.67 LIG 0.21  C 
ATOM     49 OE1  GLN E   0       3.292  -7.718 -11.390  1.00 31.67 LIG-0.27  OA
ATOM     50  NE2 GLN E   0       3.826  -5.615 -10.802  1.00 33.23 LIG-0.37  N 
ATOM     51 22HE GLN E   0       4.497  -5.875 -10.331  1.00 33.23 LIG 0.16  HD
ATOM     52 21HE GLN E   0       3.640  -4.777 -10.860  1.00 33.23 LIG 0.16  HD
ENDBRANCH 47 48
ENDBRANCH 46 47
ENDBRANCH 40 46
ENDBRANCH 37 40
ENDBRANCH 31 36
ENDBRANCH 1 31
TORSDOF 19
ENDMDL
MODEL 54
USER: ADFR SOLUTION from run 194
USER: SCORE 12.605400 LL:  -3.297 LR: -11.922 RR:   0.000 FEB:  -6.255
USER: RMSD 4.557605
USER: SEED 193
USER: STATUS no improvement in best in 10 clusters for 5 generations
USER: GENES 21
USER: genes 0 Translation |==|  0.44198 0.52305 0.55150
USER: genes 1 Rotation |==|  0.86167 0.46053 0.48963 0.84283
USER: genes 2 Torsion [C]-N--CA-[CB] |==|  0.17212
USER: genes 3 Torsion [N]-CA--C-[N] |==|  0.12995
USER: genes 4 Torsion [C]-N--CA-[CB] |==|  0.54141
USER: genes 5 Torsion [N]-CA--C-[N] |==|  0.88663
USER: genes 6 Torsion [C]-N--CA-[CB] |==|  0.25180
USER: genes 7 Torsion [N]-CA--C-[O] |==|  0.41480
USER: genes 8 Torsion [N]-CA--CB-[CG] |==|  0.46311
USER: genes 9 Torsion [CA]-CB--CG-[CD1] |==|  0.71524
USER: genes 10 Torsion [N]-CA--CB-[CG] |==|  0.13911
USER: genes 11 Torsion [CA]-CB--CG-[OD2] |==|  0.05950
USER: genes 12 Torsion [N]-C--CA-[N] |==|  0.15451
USER: genes 13 Torsion [C]-CA--CB-[CG] |==|  0.30873
USER: genes 14 Torsion [CA]-CB--CG-[CD2] |==|  0.91590
USER: genes 15 Torsion [C]-CA--N-[C] |==|  0.13605
USER: genes 16 Torsion [N]-C--CA-[N] |==|  0.82390
USER: genes 17 Torsion [C]-CA--N-[C] |==|  0.64239
USER: genes 18 Torsion [C]-CA--CB-[CG] |==|  0.44242
USER: genes 19 Torsion [CA]-CB--CG-[CD] |==|  0.92467
USER: genes 20 Torsion [CB]-CG--CD-[OE1] |==|  0.83792
ROOT
ATOM      1  C   LEU E   1       2.314  -6.636 -11.693  1.00 39.66 LIG 0.24  C 
ATOM      2 O    LEU E   1       2.048  -7.735 -11.197  1.00 37.26 LIG-0.27  OA
ATOM      3  N   ASP E   2       3.545  -6.286 -12.069  1.00 41.55 LIG-0.35  N 
ATOM      4 H    ASP E   2       3.736  -5.522 -12.416  1.00 41.55 LIG 0.16  HD
ENDROOT
BRANCH 3 5
ATOM      5  CA  ASP E   2       4.698  -7.181 -11.924  1.00 42.33 LIG 0.19  C 
BRANCH 5 6
ATOM      6  C   ASP E   2       5.992  -6.483 -12.328  1.00 41.58 LIG 0.24  C 
ATOM      7 O    ASP E   2       6.807  -7.048 -13.066  1.00 40.78 LIG-0.27  OA
ATOM      8  N   ALA E   3       6.173  -5.258 -11.831  1.00 40.17 LIG-0.35  N 
ATOM      9 H    ALA E   3       5.613  -4.877 -11.302  1.00 40.17 LIG 0.16  HD
BRANCH 8 10
ATOM     10  CA  ALA E   3       7.350  -4.434 -12.139  1.00 38.52 LIG 0.17  C 
ATOM     11  CB  ALA E   3       7.450  -3.271 -11.154  1.00 38.62 LIG 0.04  C 
BRANCH 10 12
ATOM     12  C   ALA E   3       8.657  -5.226 -12.161  1.00 38.02 LIG 0.24  C 
ATOM     13 O    ALA E   3       9.509  -5.007 -13.024  1.00 36.71 LIG-0.27  OA
ATOM     14  N   PHE E   4       8.797  -6.142 -11.206  1.00 38.01 LIG-0.34  N 
ATOM     15 H    PHE E   4       8.167  -6.352 -10.660  1.00 38.01 LIG 0.16  HD
BRANCH 14 16
ATOM     16  CA  PHE E   4      10.038  -6.883 -10.986  1.00 38.29 LIG 0.19  C 
BRANCH 16 17
ATOM     17  C   PHE E   4       9.718  -8.278 -10.456  1.00 39.00 LIG 0.20  C 
ATOM     18 OXT  PHE E   4       8.704  -8.481  -9.784  1.00 39.22 LIG-0.65  OA
ATOM     19 O    PHE E   4      10.453  -9.238 -10.710  1.00 39.04 LIG-0.65  OA
ENDBRANCH 16 17
BRANCH 16 20
ATOM     20  CB  PHE E   4      10.936  -6.142  -9.980  1.00 37.57 LIG 0.07  C 
BRANCH 20 21
ATOM     21  CG  PHE E   4      12.078  -6.977  -9.458  1.00 36.97 LIG-0.06  A 
ATOM     22  CD1 PHE E   4      12.023  -7.548  -8.185  1.00 35.77 LIG 0.01  A 
ATOM     23  CE1 PHE E   4      13.080  -8.303  -7.700  1.00 35.50 LIG 0.00  A 
ATOM     24  CZ  PHE E   4      14.205  -8.498  -8.489  1.00 35.20 LIG 0.00  A 
ATOM     25  CE2 PHE E   4      14.274  -7.933  -9.756  1.00 34.71 LIG 0.00  A 
ATOM     26  CD2 PHE E   4      13.216  -7.179 -10.234  1.00 35.45 LIG 0.01  A 
ENDBRANCH 20 21
ENDBRANCH 16 20
ENDBRANCH 14 16
ENDBRANCH 10 12
ENDBRANCH 8 10
ENDBRANCH 5 6
BRANCH 5 27
ATOM     27  CB  ASP E   2       4.511  -8.457 -12.755  1.00 43.54 LIG 0.15  C 
BRANCH 27 28
ATOM     28  CG  ASP E   2       4.115  -8.169 -14.197  1.00 45.99 LIG 0.17  C 
ATOM     29 OD2  ASP E   2       4.371  -7.039 -14.670  1.00 46.35 LIG-0.65  OA
ATOM     30 OD1  ASP E   2       3.558  -9.071 -14.863  1.00 46.97 LIG-0.65  OA
ENDBRANCH 27 28
ENDBRANCH 5 27
ENDBRANCH 3 5
BRANCH 1 31
ATOM     31  CA  LEU E   1       1.209  -5.597 -11.931  1.00 39.47 LIG 0.18  C 
BRANCH 31 32
ATOM     32  CB  LEU E   1      -0.164  -6.094 -11.446  1.00 38.97 LIG 0.04  C 
BRANCH 32 33
ATOM     33  CG  LEU E   1      -0.763  -5.387 -10.219  1.00 40.05 LIG-0.02  C 
ATOM     34  CD2 LEU E   1       0.325  -4.872  -9.280  1.00 40.58 LIG 0.01  C 
ATOM     35  CD1 LEU E   1      -1.727  -6.294  -9.470  1.00 39.33 LIG 0.01  C 
ENDBRANCH 32 33
ENDBRANCH 31 32
BRANCH 31 36
ATOM     36  N   LEU E   1       1.146  -5.182 -13.333  1.00 38.97 LIG-0.35  N 
ATOM     37  C   GLN E   0       1.123  -6.066 -14.328  1.00 38.27 LIG 0.24  C 
ATOM     38 O    GLN E   0       1.168  -7.289 -14.153  1.00 40.12 LIG-0.27  OA
ATOM     39 H    LEU E   1       1.125  -4.330 -13.448  1.00 38.97 LIG 0.16  HD
BRANCH 37 40
ATOM     40  CA  GLN E   0       1.015  -5.483 -15.736  1.00 36.47 LIG 0.18  C 
BRANCH 40 41
ATOM     41  N   GLN E   0      -0.269  -4.743 -15.953  1.00 35.61 LIG-0.35  N 
ATOM     42  C   ACE E  -1      -1.092  -4.958 -16.985  1.00 35.56 LIG 0.21  C 
ATOM     43 O    ACE E  -1      -0.884  -5.771 -17.875  1.00 35.09 LIG-0.27  OA
ATOM     44  CH3 ACE E  -1      -2.248  -3.993 -17.109  1.00 35.40 LIG 0.12  C 
ATOM     45 H    GLN E   0      -0.430  -4.158 -15.344  1.00 35.61 LIG 0.16  HD
ENDBRANCH 40 41
BRANCH 40 46
ATOM     46  CB  GLN E   0       2.220  -4.572 -16.009  1.00 35.42 LIG 0.04  C 
BRANCH 46 47
ATOM     47  CG  GLN E   0       2.495  -4.337 -17.493  1.00 33.87 LIG 0.10  C 
BRANCH 47 48
ATOM     48  CD  GLN E   0       2.010  -5.486 -18.358  1.00 33.67 LIG 0.21  C 
ATOM     49 OE1  GLN E   0       2.429  -6.628 -18.178  1.00 31.67 LIG-0.27  OA
ATOM     50  NE2 GLN E   0       1.129  -5.185 -19.310  1.00 33.23 LIG-0.37  N 
ATOM     51 22HE GLN E   0       0.831  -5.802 -19.831  1.00 33.23 LIG 0.16  HD
ATOM     52 21HE GLN E   0       0.859  -4.374 -19.406  1.00 33.23 LIG 0.16  HD
ENDBRANCH 47 48
ENDBRANCH 46 47
ENDBRANCH 40 46
ENDBRANCH 37 40
ENDBRANCH 31 36
ENDBRANCH 1 31
TORSDOF 19
ENDMDL
MODEL 55
USER: ADFR SOLUTION from run 144
USER: SCORE 15.584983 LL:  -4.686 LR: -11.901 RR:   0.000 FEB:  -6.233
USER: RMSD 10.440949
USER: SEED 143
USER: STATUS searching
USER: GENES 21
USER: genes 0 Translation |==|  0.36636 0.58565 0.61283
USER: genes 1 Rotation |==|  0.31572 0.15584 0.29995 0.73994
USER: genes 2 Torsion [C]-N--CA-[CB] |==|  0.14246
USER: genes 3 Torsion [N]-CA--C-[N] |==|  0.15075
USER: genes 4 Torsion [C]-N--CA-[CB] |==|  0.81499
USER: genes 5 Torsion [N]-CA--C-[N] |==|  0.36144
USER: genes 6 Torsion [C]-N--CA-[CB] |==|  0.24773
USER: genes 7 Torsion [N]-CA--C-[O] |==|  0.76171
USER: genes 8 Torsion [N]-CA--CB-[CG] |==|  0.85432
USER: genes 9 Torsion [CA]-CB--CG-[CD1] |==|  0.29678
USER: genes 10 Torsion [N]-CA--CB-[CG] |==|  0.68268
USER: genes 11 Torsion [CA]-CB--CG-[OD2] |==|  0.55947
USER: genes 12 Torsion [N]-C--CA-[N] |==|  0.32887
USER: genes 13 Torsion [C]-CA--CB-[CG] |==|  0.34474
USER: genes 14 Torsion [CA]-CB--CG-[CD2] |==|  0.95947
USER: genes 15 Torsion [C]-CA--N-[C] |==|  0.61138
USER: genes 16 Torsion [N]-C--CA-[N] |==|  0.14710
USER: genes 17 Torsion [C]-CA--N-[C] |==|  0.63785
USER: genes 18 Torsion [C]-CA--CB-[CG] |==|  0.27117
USER: genes 19 Torsion [CA]-CB--CG-[CD] |==|  0.89155
USER: genes 20 Torsion [CB]-CG--CD-[OE1] |==|  0.21116
ROOT
ATOM      1  C   LEU E   1       0.442  -5.650 -10.635  1.00 39.66 LIG 0.24  C 
ATOM      2 O    LEU E   1       0.567  -4.437 -10.827  1.00 37.26 LIG-0.27  OA
ATOM      3  N   ASP E   2      -0.124  -6.160  -9.540  1.00 41.55 LIG-0.35  N 
ATOM      4 H    ASP E   2      -0.215  -7.004  -9.401  1.00 41.55 LIG 0.16  HD
ENDROOT
BRANCH 3 5
ATOM      5  CA  ASP E   2      -0.650  -5.318  -8.459  1.00 42.33 LIG 0.19  C 
BRANCH 5 6
ATOM      6  C   ASP E   2      -1.369  -6.156  -7.408  1.00 41.58 LIG 0.24  C 
ATOM      7 O    ASP E   2      -2.530  -5.888  -7.078  1.00 40.78 LIG-0.27  OA
ATOM      8  N   ALA E   3      -0.667  -7.162  -6.884  1.00 40.17 LIG-0.35  N 
ATOM      9 H    ALA E   3       0.147  -7.331  -7.102  1.00 40.17 LIG 0.16  HD
BRANCH 8 10
ATOM     10  CA  ALA E   3      -1.214  -8.083  -5.879  1.00 38.52 LIG 0.17  C 
ATOM     11  CB  ALA E   3      -1.483  -7.338  -4.574  1.00 38.62 LIG 0.04  C 
BRANCH 10 12
ATOM     12  C   ALA E   3      -2.474  -8.812  -6.345  1.00 38.02 LIG 0.24  C 
ATOM     13 O    ALA E   3      -3.415  -8.188  -6.836  1.00 36.71 LIG-0.27  OA
ATOM     14  N   PHE E   4      -2.473 -10.133  -6.183  1.00 38.01 LIG-0.34  N 
ATOM     15 H    PHE E   4      -1.853 -10.555  -5.762  1.00 38.01 LIG 0.16  HD
BRANCH 14 16
ATOM     16  CA  PHE E   4      -3.525 -11.002  -6.706  1.00 38.29 LIG 0.19  C 
BRANCH 16 17
ATOM     17  C   PHE E   4      -3.679 -12.224  -5.804  1.00 39.00 LIG 0.20  C 
ATOM     18 OXT  PHE E   4      -4.532 -12.249  -4.914  1.00 39.22 LIG-0.65  OA
ATOM     19 O    PHE E   4      -2.971 -13.224  -5.963  1.00 39.04 LIG-0.65  OA
ENDBRANCH 16 17
BRANCH 16 20
ATOM     20  CB  PHE E   4      -3.187 -11.456  -8.137  1.00 37.57 LIG 0.07  C 
BRANCH 20 21
ATOM     21  CG  PHE E   4      -2.861 -10.319  -9.072  1.00 36.97 LIG-0.06  A 
ATOM     22  CD1 PHE E   4      -1.549 -10.087  -9.487  1.00 35.77 LIG 0.01  A 
ATOM     23  CE1 PHE E   4      -1.248  -9.032 -10.334  1.00 35.50 LIG 0.00  A 
ATOM     24  CZ  PHE E   4      -2.264  -8.197 -10.780  1.00 35.20 LIG 0.00  A 
ATOM     25  CE2 PHE E   4      -3.574  -8.414 -10.372  1.00 34.71 LIG 0.00  A 
ATOM     26  CD2 PHE E   4      -3.867  -9.469  -9.525  1.00 35.45 LIG 0.01  A 
ENDBRANCH 20 21
ENDBRANCH 16 20
ENDBRANCH 14 16
ENDBRANCH 10 12
ENDBRANCH 8 10
ENDBRANCH 5 6
BRANCH 5 27
ATOM     27  CB  ASP E   2      -1.597  -4.244  -9.011  1.00 43.54 LIG 0.15  C 
BRANCH 27 28
ATOM     28  CG  ASP E   2      -1.057  -2.832  -8.831  1.00 45.99 LIG 0.17  C 
ATOM     29 OD2  ASP E   2      -1.867  -1.878  -8.853  1.00 46.35 LIG-0.65  OA
ATOM     30 OD1  ASP E   2       0.172  -2.672  -8.657  1.00 46.97 LIG-0.65  OA
ENDBRANCH 27 28
ENDBRANCH 5 27
ENDBRANCH 3 5
BRANCH 1 31
ATOM     31  CA  LEU E   1       0.922  -6.661 -11.685  1.00 39.47 LIG 0.18  C 
BRANCH 31 32
ATOM     32  CB  LEU E   1       2.448  -6.611 -11.879  1.00 38.97 LIG 0.04  C 
BRANCH 32 33
ATOM     33  CG  LEU E   1       3.215  -7.929 -11.682  1.00 40.05 LIG-0.02  C 
ATOM     34  CD2 LEU E   1       2.358  -8.979 -10.980  1.00 40.58 LIG 0.01  C 
ATOM     35  CD1 LEU E   1       4.514  -7.707 -10.922  1.00 39.33 LIG 0.01  C 
ENDBRANCH 32 33
ENDBRANCH 31 32
BRANCH 31 36
ATOM     36  N   LEU E   1       0.230  -6.490 -12.963  1.00 38.97 LIG-0.35  N 
ATOM     37  C   GLN E   0      -0.162  -7.530 -13.695  1.00 38.27 LIG 0.24  C 
ATOM     38 O    GLN E   0       0.039  -8.706 -13.369  1.00 40.12 LIG-0.27  OA
ATOM     39 H    LEU E   1       0.103  -5.670 -13.189  1.00 38.97 LIG 0.16  HD
BRANCH 37 40
ATOM     40  CA  GLN E   0      -0.909  -7.195 -14.985  1.00 36.47 LIG 0.18  C 
BRANCH 40 41
ATOM     41  N   GLN E   0      -0.156  -6.230 -15.849  1.00 35.61 LIG-0.35  N 
ATOM     42  C   ACE E  -1      -0.690  -5.124 -16.377  1.00 35.56 LIG 0.21  C 
ATOM     43 O    ACE E  -1      -1.855  -4.781 -16.226  1.00 35.09 LIG-0.27  OA
ATOM     44  CH3 ACE E  -1       0.190  -4.376 -17.352  1.00 35.40 LIG 0.12  C 
ATOM     45 H    GLN E   0       0.663  -6.457 -15.976  1.00 35.61 LIG 0.16  HD
ENDBRANCH 40 41
BRANCH 40 46
ATOM     46  CB  GLN E   0      -1.214  -8.488 -15.753  1.00 35.42 LIG 0.04  C 
BRANCH 46 47
ATOM     47  CG  GLN E   0      -2.627  -9.023 -15.526  1.00 33.87 LIG 0.10  C 
BRANCH 47 48
ATOM     48  CD  GLN E   0      -3.078  -8.865 -14.086  1.00 33.67 LIG 0.21  C 
ATOM     49 OE1  GLN E   0      -3.427  -7.768 -13.654  1.00 31.67 LIG-0.27  OA
ATOM     50  NE2 GLN E   0      -3.063  -9.962 -13.332  1.00 33.23 LIG-0.37  N 
ATOM     51 22HE GLN E   0      -3.304  -9.921 -12.507  1.00 33.23 LIG 0.16  HD
ATOM     52 21HE GLN E   0      -2.813 -10.713 -13.670  1.00 33.23 LIG 0.16  HD
ENDBRANCH 47 48
ENDBRANCH 46 47
ENDBRANCH 40 46
ENDBRANCH 37 40
ENDBRANCH 31 36
ENDBRANCH 1 31
TORSDOF 19
ENDMDL
MODEL 56
USER: ADFR SOLUTION from run 82
USER: SCORE 13.003231 LL:  -3.693 LR: -11.880 RR:   0.000 FEB:  -6.212
USER: RMSD 3.087757
USER: SEED 81
USER: STATUS no improvement in best in 25 clusters for 5 generations
USER: GENES 21
USER: genes 0 Translation |==|  0.49739 0.48435 0.55237
USER: genes 1 Rotation |==|  0.36738 0.48140 0.41832 0.97476
USER: genes 2 Torsion [C]-N--CA-[CB] |==|  0.35649
USER: genes 3 Torsion [N]-CA--C-[N] |==|  0.72103
USER: genes 4 Torsion [C]-N--CA-[CB] |==|  0.82495
USER: genes 5 Torsion [N]-CA--C-[N] |==|  0.09620
USER: genes 6 Torsion [C]-N--CA-[CB] |==|  0.33921
USER: genes 7 Torsion [N]-CA--C-[O] |==|  0.55818
USER: genes 8 Torsion [N]-CA--CB-[CG] |==|  0.76704
USER: genes 9 Torsion [CA]-CB--CG-[CD1] |==|  0.54534
USER: genes 10 Torsion [N]-CA--CB-[CG] |==|  0.54042
USER: genes 11 Torsion [CA]-CB--CG-[OD2] |==|  0.41386
USER: genes 12 Torsion [N]-C--CA-[N] |==|  0.42636
USER: genes 13 Torsion [C]-CA--CB-[CG] |==|  0.68915
USER: genes 14 Torsion [CA]-CB--CG-[CD2] |==|  0.74586
USER: genes 15 Torsion [C]-CA--N-[C] |==|  0.69455
USER: genes 16 Torsion [N]-C--CA-[N] |==|  0.42094
USER: genes 17 Torsion [C]-CA--N-[C] |==|  0.80921
USER: genes 18 Torsion [C]-CA--CB-[CG] |==|  0.49319
USER: genes 19 Torsion [CA]-CB--CG-[CD] |==|  0.72554
USER: genes 20 Torsion [CB]-CG--CD-[OE1] |==|  0.42156
ROOT
ATOM      1  C   LEU E   1       3.685  -7.245 -11.678  1.00 39.66 LIG 0.24  C 
ATOM      2 O    LEU E   1       3.827  -6.204 -11.030  1.00 37.26 LIG-0.27  OA
ATOM      3  N   ASP E   2       4.585  -8.231 -11.678  1.00 41.55 LIG-0.35  N 
ATOM      4 H    ASP E   2       4.491  -8.959 -12.126  1.00 41.55 LIG 0.16  HD
ENDROOT
BRANCH 3 5
ATOM      5  CA  ASP E   2       5.831  -8.161 -10.906  1.00 42.33 LIG 0.19  C 
BRANCH 5 6
ATOM      6  C   ASP E   2       7.037  -7.988 -11.822  1.00 41.58 LIG 0.24  C 
ATOM      7 O    ASP E   2       7.314  -6.879 -12.294  1.00 40.78 LIG-0.27  OA
ATOM      8  N   ALA E   3       7.742  -9.092 -12.074  1.00 40.17 LIG-0.35  N 
ATOM      9 H    ALA E   3       7.533  -9.865 -11.760  1.00 40.17 LIG 0.16  HD
BRANCH 8 10
ATOM     10  CA  ALA E   3       8.947  -9.101 -12.913  1.00 38.52 LIG 0.17  C 
ATOM     11  CB  ALA E   3       8.596  -8.688 -14.341  1.00 38.62 LIG 0.04  C 
BRANCH 10 12
ATOM     12  C   ALA E   3      10.074  -8.225 -12.367  1.00 38.02 LIG 0.24  C 
ATOM     13 O    ALA E   3      10.824  -7.618 -13.133  1.00 36.71 LIG-0.27  OA
ATOM     14  N   PHE E   4      10.177  -8.171 -11.041  1.00 38.01 LIG-0.34  N 
ATOM     15 H    PHE E   4       9.709  -8.662 -10.513  1.00 38.01 LIG 0.16  HD
BRANCH 14 16
ATOM     16  CA  PHE E   4      11.096  -7.271 -10.348  1.00 38.29 LIG 0.19  C 
BRANCH 16 17
ATOM     17  C   PHE E   4      12.122  -8.085  -9.565  1.00 39.00 LIG 0.20  C 
ATOM     18 OXT  PHE E   4      12.373  -9.252  -9.875  1.00 39.22 LIG-0.65  OA
ATOM     19 O    PHE E   4      12.743  -7.586  -8.621  1.00 39.04 LIG-0.65  OA
ENDBRANCH 16 17
BRANCH 16 20
ATOM     20  CB  PHE E   4      10.324  -6.351  -9.385  1.00 37.57 LIG 0.07  C 
BRANCH 20 21
ATOM     21  CG  PHE E   4       9.745  -5.127 -10.050  1.00 36.97 LIG-0.06  A 
ATOM     22  CD1 PHE E   4       9.318  -4.036  -9.293  1.00 35.77 LIG 0.01  A 
ATOM     23  CE1 PHE E   4       8.771  -2.919  -9.904  1.00 35.50 LIG 0.00  A 
ATOM     24  CZ  PHE E   4       8.650  -2.881 -11.286  1.00 35.20 LIG 0.00  A 
ATOM     25  CE2 PHE E   4       9.068  -3.962 -12.052  1.00 34.71 LIG 0.00  A 
ATOM     26  CD2 PHE E   4       9.612  -5.075 -11.435  1.00 35.45 LIG 0.01  A 
ENDBRANCH 20 21
ENDBRANCH 16 20
ENDBRANCH 14 16
ENDBRANCH 10 12
ENDBRANCH 8 10
ENDBRANCH 5 6
BRANCH 5 27
ATOM     27  CB  ASP E   2       6.009  -9.412 -10.037  1.00 43.54 LIG 0.15  C 
BRANCH 27 28
ATOM     28  CG  ASP E   2       7.081  -9.240  -8.968  1.00 45.99 LIG 0.17  C 
ATOM     29 OD2  ASP E   2       6.949  -9.858  -7.888  1.00 46.35 LIG-0.65  OA
ATOM     30 OD1  ASP E   2       8.061  -8.499  -9.208  1.00 46.97 LIG-0.65  OA
ENDBRANCH 27 28
ENDBRANCH 5 27
ENDBRANCH 3 5
BRANCH 1 31
ATOM     31  CA  LEU E   1       2.422  -7.479 -12.518  1.00 39.47 LIG 0.18  C 
BRANCH 31 32
ATOM     32  CB  LEU E   1       2.656  -7.177 -14.008  1.00 38.97 LIG 0.04  C 
BRANCH 32 33
ATOM     33  CG  LEU E   1       1.926  -5.955 -14.591  1.00 40.05 LIG-0.02  C 
ATOM     34  CD2 LEU E   1       0.569  -6.337 -15.177  1.00 40.58 LIG 0.01  C 
ATOM     35  CD1 LEU E   1       2.775  -5.245 -15.634  1.00 39.33 LIG 0.01  C 
ENDBRANCH 32 33
ENDBRANCH 31 32
BRANCH 31 36
ATOM     36  N   LEU E   1       1.280  -6.719 -12.007  1.00 38.97 LIG-0.35  N 
ATOM     37  C   GLN E   0       0.246  -7.315 -11.418  1.00 38.27 LIG 0.24  C 
ATOM     38 O    GLN E   0       0.159  -8.540 -11.271  1.00 40.12 LIG-0.27  OA
ATOM     39 H    LEU E   1       1.342  -5.869 -12.121  1.00 38.97 LIG 0.16  HD
BRANCH 37 40
ATOM     40  CA  GLN E   0      -0.852  -6.388 -10.900  1.00 36.47 LIG 0.18  C 
BRANCH 40 41
ATOM     41  N   GLN E   0      -2.198  -7.043 -10.889  1.00 35.61 LIG-0.35  N 
ATOM     42  C   ACE E  -1      -2.879  -7.373 -11.992  1.00 35.56 LIG 0.21  C 
ATOM     43 O    ACE E  -1      -2.487  -7.166 -13.132  1.00 35.09 LIG-0.27  OA
ATOM     44  CH3 ACE E  -1      -4.287  -7.873 -11.764  1.00 35.40 LIG 0.12  C 
ATOM     45 H    GLN E   0      -2.498  -7.190 -10.097  1.00 35.61 LIG 0.16  HD
ENDBRANCH 40 41
BRANCH 40 46
ATOM     46  CB  GLN E   0      -0.481  -5.886  -9.497  1.00 35.42 LIG 0.04  C 
BRANCH 46 47
ATOM     47  CG  GLN E   0      -1.488  -4.900  -8.907  1.00 33.87 LIG 0.10  C 
BRANCH 47 48
ATOM     48  CD  GLN E   0      -1.045  -3.458  -9.069  1.00 33.67 LIG 0.21  C 
ATOM     49 OE1  GLN E   0      -1.874  -2.552  -9.146  1.00 31.67 LIG-0.27  OA
ATOM     50  NE2 GLN E   0       0.267  -3.240  -9.133  1.00 33.23 LIG-0.37  N 
ATOM     51 22HE GLN E   0       0.565  -2.439  -9.232  1.00 33.23 LIG 0.16  HD
ATOM     52 21HE GLN E   0       0.815  -3.899  -9.075  1.00 33.23 LIG 0.16  HD
ENDBRANCH 47 48
ENDBRANCH 46 47
ENDBRANCH 40 46
ENDBRANCH 37 40
ENDBRANCH 31 36
ENDBRANCH 1 31
TORSDOF 19
ENDMDL
MODEL 57
USER: ADFR SOLUTION from run 35
USER: SCORE 14.068314 LL:  -3.666 LR: -11.863 RR:   0.000 FEB:  -6.195
USER: RMSD 3.891396
USER: SEED 34
USER: STATUS no improvement in best in 17 clusters for 5 generations
USER: GENES 21
USER: genes 0 Translation |==|  0.48933 0.50666 0.57210
USER: genes 1 Rotation |==|  0.17891 0.56085 0.34452 0.84500
USER: genes 2 Torsion [C]-N--CA-[CB] |==|  0.52254
USER: genes 3 Torsion [N]-CA--C-[N] |==|  0.39621
USER: genes 4 Torsion [C]-N--CA-[CB] |==|  0.86949
USER: genes 5 Torsion [N]-CA--C-[N] |==|  0.38921
USER: genes 6 Torsion [C]-N--CA-[CB] |==|  0.29451
USER: genes 7 Torsion [N]-CA--C-[O] |==|  0.01810
USER: genes 8 Torsion [N]-CA--CB-[CG] |==|  0.95275
USER: genes 9 Torsion [CA]-CB--CG-[CD1] |==|  0.19239
USER: genes 10 Torsion [N]-CA--CB-[CG] |==|  0.57847
USER: genes 11 Torsion [CA]-CB--CG-[OD2] |==|  0.86989
USER: genes 12 Torsion [N]-C--CA-[N] |==|  0.22549
USER: genes 13 Torsion [C]-CA--CB-[CG] |==|  0.35751
USER: genes 14 Torsion [CA]-CB--CG-[CD2] |==|  0.52161
USER: genes 15 Torsion [C]-CA--N-[C] |==|  0.69515
USER: genes 16 Torsion [N]-C--CA-[N] |==|  0.15556
USER: genes 17 Torsion [C]-CA--N-[C] |==|  0.77662
USER: genes 18 Torsion [C]-CA--CB-[CG] |==|  0.77460
USER: genes 19 Torsion [CA]-CB--CG-[CD] |==|  0.71888
USER: genes 20 Torsion [CB]-CG--CD-[OE1] |==|  0.11152
ROOT
ATOM      1  C   LEU E   1       3.486  -6.894 -11.337  1.00 39.66 LIG 0.24  C 
ATOM      2 O    LEU E   1       4.209  -5.978 -11.740  1.00 37.26 LIG-0.27  OA
ATOM      3  N   ASP E   2       3.952  -7.950 -10.669  1.00 41.55 LIG-0.35  N 
ATOM      4 H    ASP E   2       3.453  -8.591 -10.384  1.00 41.55 LIG 0.16  HD
ENDROOT
BRANCH 3 5
ATOM      5  CA  ASP E   2       5.375  -8.118 -10.353  1.00 42.33 LIG 0.19  C 
BRANCH 5 6
ATOM      6  C   ASP E   2       6.242  -7.902 -11.589  1.00 41.58 LIG 0.24  C 
ATOM      7 O    ASP E   2       5.866  -8.299 -12.697  1.00 40.78 LIG-0.27  OA
ATOM      8  N   ALA E   3       7.404  -7.279 -11.383  1.00 40.17 LIG-0.35  N 
ATOM      9 H    ALA E   3       7.671  -7.024 -10.607  1.00 40.17 LIG 0.16  HD
BRANCH 8 10
ATOM     10  CA  ALA E   3       8.348  -6.967 -12.464  1.00 38.52 LIG 0.17  C 
ATOM     11  CB  ALA E   3       8.549  -8.190 -13.356  1.00 38.62 LIG 0.04  C 
BRANCH 10 12
ATOM     12  C   ALA E   3       7.934  -5.759 -13.304  1.00 38.02 LIG 0.24  C 
ATOM     13 O    ALA E   3       6.754  -5.581 -13.608  1.00 36.71 LIG-0.27  OA
ATOM     14  N   PHE E   4       8.918  -4.940 -13.667  1.00 38.01 LIG-0.34  N 
ATOM     15 H    PHE E   4       9.749  -5.112 -13.528  1.00 38.01 LIG 0.16  HD
BRANCH 14 16
ATOM     16  CA  PHE E   4       8.687  -3.664 -14.341  1.00 38.29 LIG 0.19  C 
BRANCH 16 17
ATOM     17  C   PHE E   4       9.628  -3.533 -15.535  1.00 39.00 LIG 0.20  C 
ATOM     18 OXT  PHE E   4       9.710  -2.475 -16.163  1.00 39.22 LIG-0.65  OA
ATOM     19 O    PHE E   4      10.348  -4.476 -15.883  1.00 39.04 LIG-0.65  OA
ENDBRANCH 16 17
BRANCH 16 20
ATOM     20  CB  PHE E   4       8.920  -2.493 -13.369  1.00 37.57 LIG 0.07  C 
BRANCH 20 21
ATOM     21  CG  PHE E   4       8.920  -2.901 -11.917  1.00 36.97 LIG-0.06  A 
ATOM     22  CD1 PHE E   4       9.956  -3.675 -11.392  1.00 35.77 LIG 0.01  A 
ATOM     23  CE1 PHE E   4       9.947  -4.063 -10.062  1.00 35.50 LIG 0.00  A 
ATOM     24  CZ  PHE E   4       8.899  -3.674  -9.238  1.00 35.20 LIG 0.00  A 
ATOM     25  CE2 PHE E   4       7.861  -2.906  -9.749  1.00 34.71 LIG 0.00  A 
ATOM     26  CD2 PHE E   4       7.875  -2.523 -11.080  1.00 35.45 LIG 0.01  A 
ENDBRANCH 20 21
ENDBRANCH 16 20
ENDBRANCH 14 16
ENDBRANCH 10 12
ENDBRANCH 8 10
ENDBRANCH 5 6
BRANCH 5 27
ATOM     27  CB  ASP E   2       5.646  -9.507  -9.761  1.00 43.54 LIG 0.15  C 
BRANCH 27 28
ATOM     28  CG  ASP E   2       6.845  -9.523  -8.821  1.00 45.99 LIG 0.17  C 
ATOM     29 OD2  ASP E   2       7.900  -8.964  -9.193  1.00 46.35 LIG-0.65  OA
ATOM     30 OD1  ASP E   2       6.732 -10.084  -7.707  1.00 46.97 LIG-0.65  OA
ENDBRANCH 27 28
ENDBRANCH 5 27
ENDBRANCH 3 5
BRANCH 1 31
ATOM     31  CA  LEU E   1       1.969  -6.852 -11.569  1.00 39.47 LIG 0.18  C 
BRANCH 31 32
ATOM     32  CB  LEU E   1       1.599  -6.035 -12.820  1.00 38.97 LIG 0.04  C 
BRANCH 32 33
ATOM     33  CG  LEU E   1       0.667  -6.714 -13.839  1.00 40.05 LIG-0.02  C 
ATOM     34  CD2 LEU E   1       0.530  -5.886 -15.114  1.00 40.58 LIG 0.01  C 
ATOM     35  CD1 LEU E   1      -0.702  -6.996 -13.237  1.00 39.33 LIG 0.01  C 
ENDBRANCH 32 33
ENDBRANCH 31 32
BRANCH 31 36
ATOM     36  N   LEU E   1       1.252  -6.355 -10.394  1.00 38.97 LIG-0.35  N 
ATOM     37  C   GLN E   0       0.492  -7.152  -9.645  1.00 38.27 LIG 0.24  C 
ATOM     38 O    GLN E   0       0.320  -8.352  -9.887  1.00 40.12 LIG-0.27  OA
ATOM     39 H    LEU E   1       1.368  -5.517 -10.237  1.00 38.97 LIG 0.16  HD
BRANCH 37 40
ATOM     40  CA  GLN E   0      -0.161  -6.499  -8.427  1.00 36.47 LIG 0.18  C 
BRANCH 40 41
ATOM     41  N   GLN E   0      -0.989  -5.306  -8.791  1.00 35.61 LIG-0.35  N 
ATOM     42  C   ACE E  -1      -0.486  -4.090  -9.028  1.00 35.56 LIG 0.21  C 
ATOM     43 O    ACE E  -1       0.702  -3.810  -8.960  1.00 35.09 LIG-0.27  OA
ATOM     44  CH3 ACE E  -1      -1.504  -2.989  -9.216  1.00 35.40 LIG 0.12  C 
ATOM     45 H    GLN E   0      -1.830  -5.478  -8.835  1.00 35.61 LIG 0.16  HD
ENDBRANCH 40 41
BRANCH 40 46
ATOM     46  CB  GLN E   0      -1.006  -7.540  -7.679  1.00 35.42 LIG 0.04  C 
BRANCH 46 47
ATOM     47  CG  GLN E   0      -2.387  -7.770  -8.291  1.00 33.87 LIG 0.10  C 
BRANCH 47 48
ATOM     48  CD  GLN E   0      -3.483  -7.046  -7.532  1.00 33.67 LIG 0.21  C 
ATOM     49 OE1  GLN E   0      -3.301  -5.909  -7.099  1.00 31.67 LIG-0.27  OA
ATOM     50  NE2 GLN E   0      -4.624  -7.708  -7.356  1.00 33.23 LIG-0.37  N 
ATOM     51 22HE GLN E   0      -5.272  -7.341  -6.925  1.00 33.23 LIG 0.16  HD
ATOM     52 21HE GLN E   0      -4.714  -8.502  -7.673  1.00 33.23 LIG 0.16  HD
ENDBRANCH 47 48
ENDBRANCH 46 47
ENDBRANCH 40 46
ENDBRANCH 37 40
ENDBRANCH 31 36
ENDBRANCH 1 31
TORSDOF 19
ENDMDL
MODEL 58
USER: ADFR SOLUTION from run 36
USER: SCORE 13.908435 LL:  -3.535 LR: -11.837 RR:   0.000 FEB:  -6.170
USER: RMSD 9.493248
USER: SEED 35
USER: STATUS no improvement in best in 8 clusters for 5 generations
USER: GENES 21
USER: genes 0 Translation |==|  0.30558 0.53612 0.72753
USER: genes 1 Rotation |==|  0.72002 0.79440 0.67484 0.79043
USER: genes 2 Torsion [C]-N--CA-[CB] |==|  0.80386
USER: genes 3 Torsion [N]-CA--C-[N] |==|  0.21251
USER: genes 4 Torsion [C]-N--CA-[CB] |==|  0.16600
USER: genes 5 Torsion [N]-CA--C-[N] |==|  0.99473
USER: genes 6 Torsion [C]-N--CA-[CB] |==|  0.77242
USER: genes 7 Torsion [N]-CA--C-[O] |==|  0.12987
USER: genes 8 Torsion [N]-CA--CB-[CG] |==|  0.68083
USER: genes 9 Torsion [CA]-CB--CG-[CD1] |==|  0.73812
USER: genes 10 Torsion [N]-CA--CB-[CG] |==|  0.72786
USER: genes 11 Torsion [CA]-CB--CG-[OD2] |==|  0.48062
USER: genes 12 Torsion [N]-C--CA-[N] |==|  0.12117
USER: genes 13 Torsion [C]-CA--CB-[CG] |==|  0.32614
USER: genes 14 Torsion [CA]-CB--CG-[CD2] |==|  0.10980
USER: genes 15 Torsion [C]-CA--N-[C] |==|  0.65605
USER: genes 16 Torsion [N]-C--CA-[N] |==|  0.02129
USER: genes 17 Torsion [C]-CA--N-[C] |==|  0.72844
USER: genes 18 Torsion [C]-CA--CB-[CG] |==|  0.35800
USER: genes 19 Torsion [CA]-CB--CG-[CD] |==|  0.08236
USER: genes 20 Torsion [CB]-CG--CD-[OE1] |==|  0.75979
ROOT
ATOM      1  C   LEU E   1      -1.062  -6.430  -8.656  1.00 39.66 LIG 0.24  C 
ATOM      2 O    LEU E   1       0.083  -6.392  -8.195  1.00 37.26 LIG-0.27  OA
ATOM      3  N   ASP E   2      -1.537  -5.515  -9.502  1.00 41.55 LIG-0.35  N 
ATOM      4 H    ASP E   2      -2.333  -5.537  -9.828  1.00 41.55 LIG 0.16  HD
ENDROOT
BRANCH 3 5
ATOM      5  CA  ASP E   2      -0.737  -4.373  -9.959  1.00 42.33 LIG 0.19  C 
BRANCH 5 6
ATOM      6  C   ASP E   2       0.608  -4.830 -10.514  1.00 41.58 LIG 0.24  C 
ATOM      7 O    ASP E   2       1.642  -4.689  -9.850  1.00 40.78 LIG-0.27  OA
ATOM      8  N   ALA E   3       0.583  -5.366 -11.735  1.00 40.17 LIG-0.35  N 
ATOM      9 H    ALA E   3      -0.135  -5.443 -12.201  1.00 40.17 LIG 0.16  HD
BRANCH 8 10
ATOM     10  CA  ALA E   3       1.783  -5.882 -12.408  1.00 38.52 LIG 0.17  C 
ATOM     11  CB  ALA E   3       2.410  -7.002 -11.581  1.00 38.62 LIG 0.04  C 
BRANCH 10 12
ATOM     12  C   ALA E   3       1.521  -6.358 -13.837  1.00 38.02 LIG 0.24  C 
ATOM     13 O    ALA E   3       2.442  -6.783 -14.535  1.00 36.71 LIG-0.27  OA
ATOM     14  N   PHE E   4       0.259  -6.279 -14.252  1.00 38.01 LIG-0.34  N 
ATOM     15 H    PHE E   4      -0.364  -5.901 -13.795  1.00 38.01 LIG 0.16  HD
BRANCH 14 16
ATOM     16  CA  PHE E   4      -0.197  -6.825 -15.529  1.00 38.29 LIG 0.19  C 
BRANCH 16 17
ATOM     17  C   PHE E   4       0.496  -8.158 -15.795  1.00 39.00 LIG 0.20  C 
ATOM     18 OXT  PHE E   4       1.019  -8.392 -16.888  1.00 39.22 LIG-0.65  OA
ATOM     19 O    PHE E   4       0.572  -9.023 -14.916  1.00 39.04 LIG-0.65  OA
ENDBRANCH 16 17
BRANCH 16 20
ATOM     20  CB  PHE E   4       0.111  -5.845 -16.675  1.00 37.57 LIG 0.07  C 
BRANCH 20 21
ATOM     21  CG  PHE E   4      -1.121  -5.285 -17.340  1.00 36.97 LIG-0.06  A 
ATOM     22  CD1 PHE E   4      -1.648  -5.881 -18.487  1.00 35.77 LIG 0.01  A 
ATOM     23  CE1 PHE E   4      -2.771  -5.357 -19.108  1.00 35.50 LIG 0.00  A 
ATOM     24  CZ  PHE E   4      -3.384  -4.229 -18.581  1.00 35.20 LIG 0.00  A 
ATOM     25  CE2 PHE E   4      -2.868  -3.623 -17.442  1.00 34.71 LIG 0.00  A 
ATOM     26  CD2 PHE E   4      -1.745  -4.152 -16.828  1.00 35.45 LIG 0.01  A 
ENDBRANCH 20 21
ENDBRANCH 16 20
ENDBRANCH 14 16
ENDBRANCH 10 12
ENDBRANCH 8 10
ENDBRANCH 5 6
BRANCH 5 27
ATOM     27  CB  ASP E   2      -0.519  -3.365  -8.823  1.00 43.54 LIG 0.15  C 
BRANCH 27 28
ATOM     28  CG  ASP E   2      -1.496  -2.197  -8.876  1.00 45.99 LIG 0.17  C 
ATOM     29 OD2  ASP E   2      -1.500  -1.382  -7.927  1.00 46.35 LIG-0.65  OA
ATOM     30 OD1  ASP E   2      -2.250  -2.084  -9.868  1.00 46.97 LIG-0.65  OA
ENDBRANCH 27 28
ENDBRANCH 5 27
ENDBRANCH 3 5
BRANCH 1 31
ATOM     31  CA  LEU E   1      -2.014  -7.577  -8.291  1.00 39.47 LIG 0.18  C 
BRANCH 31 32
ATOM     32  CB  LEU E   1      -1.291  -8.712  -7.544  1.00 38.97 LIG 0.04  C 
BRANCH 32 33
ATOM     33  CG  LEU E   1      -1.755  -9.001  -6.106  1.00 40.05 LIG-0.02  C 
ATOM     34  CD2 LEU E   1      -3.272  -8.899  -5.974  1.00 40.58 LIG 0.01  C 
ATOM     35  CD1 LEU E   1      -1.070  -8.081  -5.106  1.00 39.33 LIG 0.01  C 
ENDBRANCH 32 33
ENDBRANCH 31 32
BRANCH 31 36
ATOM     36  N   LEU E   1      -2.719  -8.094  -9.464  1.00 38.97 LIG-0.35  N 
ATOM     37  C   GLN E   0      -4.049  -8.141  -9.522  1.00 38.27 LIG 0.24  C 
ATOM     38 O    GLN E   0      -4.783  -7.772  -8.598  1.00 40.12 LIG-0.27  OA
ATOM     39 H    LEU E   1      -2.203  -8.359 -10.099  1.00 38.97 LIG 0.16  HD
BRANCH 37 40
ATOM     40  CA  GLN E   0      -4.642  -8.668 -10.828  1.00 36.47 LIG 0.18  C 
BRANCH 40 41
ATOM     41  N   GLN E   0      -3.598  -9.214 -11.752  1.00 35.61 LIG-0.35  N 
ATOM     42  C   ACE E  -1      -3.066  -8.527 -12.769  1.00 35.56 LIG 0.21  C 
ATOM     43 O    ACE E  -1      -3.379  -7.383 -13.067  1.00 35.09 LIG-0.27  OA
ATOM     44  CH3 ACE E  -1      -2.152  -9.314 -13.680  1.00 35.40 LIG 0.12  C 
ATOM     45 H    GLN E   0      -3.370 -10.022 -11.567  1.00 35.61 LIG 0.16  HD
ENDBRANCH 40 41
BRANCH 40 46
ATOM     46  CB  GLN E   0      -5.703  -9.733 -10.516  1.00 35.42 LIG 0.04  C 
BRANCH 46 47
ATOM     47  CG  GLN E   0      -7.041  -9.495 -11.213  1.00 33.87 LIG 0.10  C 
BRANCH 47 48
ATOM     48  CD  GLN E   0      -6.881  -8.770 -12.537  1.00 33.67 LIG 0.21  C 
ATOM     49 OE1  GLN E   0      -6.844  -7.541 -12.579  1.00 31.67 LIG-0.27  OA
ATOM     50  NE2 GLN E   0      -6.796  -9.529 -13.627  1.00 33.23 LIG-0.37  N 
ATOM     51 22HE GLN E   0      -6.713  -9.163 -14.401  1.00 33.23 LIG 0.16  HD
ATOM     52 21HE GLN E   0      -6.827 -10.386 -13.557  1.00 33.23 LIG 0.16  HD
ENDBRANCH 47 48
ENDBRANCH 46 47
ENDBRANCH 40 46
ENDBRANCH 37 40
ENDBRANCH 31 36
ENDBRANCH 1 31
TORSDOF 19
ENDMDL
MODEL 59
USER: ADFR SOLUTION from run 41
USER: SCORE 12.310029 LL:  -3.103 LR: -11.826 RR:   0.000 FEB:  -6.158
USER: RMSD 5.030254
USER: SEED 40
USER: STATUS no improvement in best in 10 clusters for 5 generations
USER: GENES 21
USER: genes 0 Translation |==|  0.46072 0.48619 0.53041
USER: genes 1 Rotation |==|  0.08940 0.71329 0.31442 0.53839
USER: genes 2 Torsion [C]-N--CA-[CB] |==|  0.79990
USER: genes 3 Torsion [N]-CA--C-[N] |==|  0.26339
USER: genes 4 Torsion [C]-N--CA-[CB] |==|  0.19444
USER: genes 5 Torsion [N]-CA--C-[N] |==|  0.56289
USER: genes 6 Torsion [C]-N--CA-[CB] |==|  0.79175
USER: genes 7 Torsion [N]-CA--C-[O] |==|  0.10675
USER: genes 8 Torsion [N]-CA--CB-[CG] |==|  0.90240
USER: genes 9 Torsion [CA]-CB--CG-[CD1] |==|  0.41064
USER: genes 10 Torsion [N]-CA--CB-[CG] |==|  0.93790
USER: genes 11 Torsion [CA]-CB--CG-[OD2] |==|  0.79727
USER: genes 12 Torsion [N]-C--CA-[N] |==|  0.48641
USER: genes 13 Torsion [C]-CA--CB-[CG] |==|  0.27217
USER: genes 14 Torsion [CA]-CB--CG-[CD2] |==|  0.45837
USER: genes 15 Torsion [C]-CA--N-[C] |==|  0.19432
USER: genes 16 Torsion [N]-C--CA-[N] |==|  0.20244
USER: genes 17 Torsion [C]-CA--N-[C] |==|  0.70386
USER: genes 18 Torsion [C]-CA--CB-[CG] |==|  0.29829
USER: genes 19 Torsion [CA]-CB--CG-[CD] |==|  0.19216
USER: genes 20 Torsion [CB]-CG--CD-[OE1] |==|  0.00335
ROOT
ATOM      1  C   LEU E   1       2.778  -7.216 -12.056  1.00 39.66 LIG 0.24  C 
ATOM      2 O    LEU E   1       3.127  -7.729 -13.124  1.00 37.26 LIG-0.27  OA
ATOM      3  N   ASP E   2       3.173  -7.672 -10.867  1.00 41.55 LIG-0.35  N 
ATOM      4 H    ASP E   2       2.935  -7.319 -10.119  1.00 41.55 LIG 0.16  HD
ENDROOT
BRANCH 3 5
ATOM      5  CA  ASP E   2       4.061  -8.831 -10.722  1.00 42.33 LIG 0.19  C 
BRANCH 5 6
ATOM      6  C   ASP E   2       5.300  -8.689 -11.600  1.00 41.58 LIG 0.24  C 
ATOM      7 O    ASP E   2       5.275  -9.047 -12.783  1.00 40.78 LIG-0.27  OA
ATOM      8  N   ALA E   3       6.379  -8.175 -11.008  1.00 40.17 LIG-0.35  N 
ATOM      9 H    ALA E   3       6.397  -7.946 -10.179  1.00 40.17 LIG 0.16  HD
BRANCH 8 10
ATOM     10  CA  ALA E   3       7.647  -7.945 -11.712  1.00 38.52 LIG 0.17  C 
ATOM     11  CB  ALA E   3       7.495  -6.799 -12.710  1.00 38.62 LIG 0.04  C 
BRANCH 10 12
ATOM     12  C   ALA E   3       8.824  -7.681 -10.774  1.00 38.02 LIG 0.24  C 
ATOM     13 O    ALA E   3       8.794  -8.066  -9.605  1.00 36.71 LIG-0.27  OA
ATOM     14  N   PHE E   4       9.853  -7.023 -11.305  1.00 38.01 LIG-0.34  N 
ATOM     15 H    PHE E   4       9.835  -6.681 -12.094  1.00 38.01 LIG 0.16  HD
BRANCH 14 16
ATOM     16  CA  PHE E   4      11.117  -6.816 -10.602  1.00 38.29 LIG 0.19  C 
BRANCH 16 17
ATOM     17  C   PHE E   4      11.568  -8.124  -9.957  1.00 39.00 LIG 0.20  C 
ATOM     18 OXT  PHE E   4      12.076  -8.132  -8.834  1.00 39.22 LIG-0.65  OA
ATOM     19 O    PHE E   4      11.412  -9.204 -10.536  1.00 39.04 LIG-0.65  OA
ENDBRANCH 16 17
BRANCH 16 20
ATOM     20  CB  PHE E   4      10.959  -5.734  -9.519  1.00 37.57 LIG 0.07  C 
BRANCH 20 21
ATOM     21  CG  PHE E   4      10.013  -4.624  -9.904  1.00 36.97 LIG-0.06  A 
ATOM     22  CD1 PHE E   4       9.245  -3.972  -8.939  1.00 35.77 LIG 0.01  A 
ATOM     23  CE1 PHE E   4       8.364  -2.963  -9.296  1.00 35.50 LIG 0.00  A 
ATOM     24  CZ  PHE E   4       8.247  -2.592 -10.628  1.00 35.20 LIG 0.00  A 
ATOM     25  CE2 PHE E   4       9.004  -3.235 -11.600  1.00 34.71 LIG 0.00  A 
ATOM     26  CD2 PHE E   4       9.881  -4.243 -11.236  1.00 35.45 LIG 0.01  A 
ENDBRANCH 20 21
ENDBRANCH 16 20
ENDBRANCH 14 16
ENDBRANCH 10 12
ENDBRANCH 8 10
ENDBRANCH 5 6
BRANCH 5 27
ATOM     27  CB  ASP E   2       3.325 -10.133 -11.063  1.00 43.54 LIG 0.15  C 
BRANCH 27 28
ATOM     28  CG  ASP E   2       1.812 -10.007 -10.931  1.00 45.99 LIG 0.17  C 
ATOM     29 OD2  ASP E   2       1.318  -9.949  -9.782  1.00 46.35 LIG-0.65  OA
ATOM     30 OD1  ASP E   2       1.117  -9.955 -11.970  1.00 46.97 LIG-0.65  OA
ENDBRANCH 27 28
ENDBRANCH 5 27
ENDBRANCH 3 5
BRANCH 1 31
ATOM     31  CA  LEU E   1       1.868  -5.980 -12.042  1.00 39.47 LIG 0.18  C 
BRANCH 31 32
ATOM     32  CB  LEU E   1       0.561  -6.235 -11.270  1.00 38.97 LIG 0.04  C 
BRANCH 32 33
ATOM     33  CG  LEU E   1       0.512  -5.746  -9.813  1.00 40.05 LIG-0.02  C 
ATOM     34  CD2 LEU E   1      -0.918  -5.717  -9.277  1.00 40.58 LIG 0.01  C 
ATOM     35  CD1 LEU E   1       1.164  -4.380  -9.663  1.00 39.33 LIG 0.01  C 
ENDBRANCH 32 33
ENDBRANCH 31 32
BRANCH 31 36
ATOM     36  N   LEU E   1       1.586  -5.496 -13.394  1.00 38.97 LIG-0.35  N 
ATOM     37  C   GLN E   0       0.814  -6.176 -14.238  1.00 38.27 LIG 0.24  C 
ATOM     38 O    GLN E   0       0.294  -7.262 -13.960  1.00 40.12 LIG-0.27  OA
ATOM     39 H    LEU E   1       1.960  -4.745 -13.585  1.00 38.97 LIG 0.16  HD
BRANCH 37 40
ATOM     40  CA  GLN E   0       0.578  -5.524 -15.600  1.00 36.47 LIG 0.18  C 
BRANCH 40 41
ATOM     41  N   GLN E   0       1.789  -5.580 -16.479  1.00 35.61 LIG-0.35  N 
ATOM     42  C   ACE E  -1       2.561  -4.524 -16.758  1.00 35.56 LIG 0.21  C 
ATOM     43 O    ACE E  -1       2.360  -3.393 -16.338  1.00 35.09 LIG-0.27  OA
ATOM     44  CH3 ACE E  -1       3.635  -4.757 -17.796  1.00 35.40 LIG 0.12  C 
ATOM     45 H    GLN E   0       1.944  -6.365 -16.794  1.00 35.61 LIG 0.16  HD
ENDBRANCH 40 41
BRANCH 40 46
ATOM     46  CB  GLN E   0      -0.623  -6.189 -16.287  1.00 35.42 LIG 0.04  C 
BRANCH 46 47
ATOM     47  CG  GLN E   0      -1.875  -5.315 -16.325  1.00 33.87 LIG 0.10  C 
BRANCH 47 48
ATOM     48  CD  GLN E   0      -1.719  -4.124 -17.252  1.00 33.67 LIG 0.21  C 
ATOM     49 OE1  GLN E   0      -0.681  -3.957 -17.890  1.00 31.67 LIG-0.27  OA
ATOM     50  NE2 GLN E   0      -2.749  -3.284 -17.322  1.00 33.23 LIG-0.37  N 
ATOM     51 22HE GLN E   0      -2.705  -2.590 -17.829  1.00 33.23 LIG 0.16  HD
ATOM     52 21HE GLN E   0      -3.459  -3.434 -16.860  1.00 33.23 LIG 0.16  HD
ENDBRANCH 47 48
ENDBRANCH 46 47
ENDBRANCH 40 46
ENDBRANCH 37 40
ENDBRANCH 31 36
ENDBRANCH 1 31
TORSDOF 19
ENDMDL
MODEL 60
USER: ADFR SOLUTION from run 36
USER: SCORE 14.196197 LL:  -3.577 LR: -11.817 RR:   0.000 FEB:  -6.150
USER: RMSD 8.627668
USER: SEED 35
USER: STATUS no improvement in best in 8 clusters for 5 generations
USER: GENES 21
USER: genes 0 Translation |==|  0.30696 0.53382 0.73025
USER: genes 1 Rotation |==|  0.70599 0.79403 0.68019 0.79773
USER: genes 2 Torsion [C]-N--CA-[CB] |==|  0.81109
USER: genes 3 Torsion [N]-CA--C-[N] |==|  0.21645
USER: genes 4 Torsion [C]-N--CA-[CB] |==|  0.18212
USER: genes 5 Torsion [N]-CA--C-[N] |==|  0.12386
USER: genes 6 Torsion [C]-N--CA-[CB] |==|  0.85738
USER: genes 7 Torsion [N]-CA--C-[O] |==|  0.12189
USER: genes 8 Torsion [N]-CA--CB-[CG] |==|  0.76876
USER: genes 9 Torsion [CA]-CB--CG-[CD1] |==|  0.56011
USER: genes 10 Torsion [N]-CA--CB-[CG] |==|  0.72292
USER: genes 11 Torsion [CA]-CB--CG-[OD2] |==|  0.48685
USER: genes 12 Torsion [N]-C--CA-[N] |==|  0.10850
USER: genes 13 Torsion [C]-CA--CB-[CG] |==|  0.31938
USER: genes 14 Torsion [CA]-CB--CG-[CD2] |==|  0.12601
USER: genes 15 Torsion [C]-CA--N-[C] |==|  0.66483
USER: genes 16 Torsion [N]-C--CA-[N] |==|  0.01250
USER: genes 17 Torsion [C]-CA--N-[C] |==|  0.72259
USER: genes 18 Torsion [C]-CA--CB-[CG] |==|  0.36139
USER: genes 19 Torsion [CA]-CB--CG-[CD] |==|  0.08556
USER: genes 20 Torsion [CB]-CG--CD-[OE1] |==|  0.73393
ROOT
ATOM      1  C   LEU E   1      -1.028  -6.466  -8.609  1.00 39.66 LIG 0.24  C 
ATOM      2 O    LEU E   1       0.091  -6.373  -8.097  1.00 37.26 LIG-0.27  OA
ATOM      3  N   ASP E   2      -1.493  -5.596  -9.506  1.00 41.55 LIG-0.35  N 
ATOM      4 H    ASP E   2      -2.271  -5.656  -9.868  1.00 41.55 LIG 0.16  HD
ENDROOT
BRANCH 3 5
ATOM      5  CA  ASP E   2      -0.711  -4.441  -9.963  1.00 42.33 LIG 0.19  C 
BRANCH 5 6
ATOM      6  C   ASP E   2       0.650  -4.875 -10.498  1.00 41.58 LIG 0.24  C 
ATOM      7 O    ASP E   2       1.669  -4.732  -9.813  1.00 40.78 LIG-0.27  OA
ATOM      8  N   ALA E   3       0.654  -5.394 -11.727  1.00 40.17 LIG-0.35  N 
ATOM      9 H    ALA E   3      -0.054  -5.472 -12.208  1.00 40.17 LIG 0.16  HD
BRANCH 8 10
ATOM     10  CA  ALA E   3       1.872  -5.886 -12.385  1.00 38.52 LIG 0.17  C 
ATOM     11  CB  ALA E   3       2.417  -7.103 -11.640  1.00 38.62 LIG 0.04  C 
BRANCH 10 12
ATOM     12  C   ALA E   3       1.674  -6.212 -13.865  1.00 38.02 LIG 0.24  C 
ATOM     13 O    ALA E   3       2.132  -7.250 -14.346  1.00 36.71 LIG-0.27  OA
ATOM     14  N   PHE E   4       0.990  -5.315 -14.570  1.00 38.01 LIG-0.34  N 
ATOM     15 H    PHE E   4       0.748  -4.553 -14.254  1.00 38.01 LIG 0.16  HD
BRANCH 14 16
ATOM     16  CA  PHE E   4       0.580  -5.533 -15.956  1.00 38.29 LIG 0.19  C 
BRANCH 16 17
ATOM     17  C   PHE E   4      -0.504  -6.606 -16.010  1.00 39.00 LIG 0.20  C 
ATOM     18 OXT  PHE E   4      -0.457  -7.510 -16.846  1.00 39.22 LIG-0.65  OA
ATOM     19 O    PHE E   4      -1.438  -6.606 -15.201  1.00 39.04 LIG-0.65  OA
ENDBRANCH 16 17
BRANCH 16 20
ATOM     20  CB  PHE E   4       1.782  -5.970 -16.811  1.00 37.57 LIG 0.07  C 
BRANCH 20 21
ATOM     21  CG  PHE E   4       2.625  -4.821 -17.304  1.00 36.97 LIG-0.06  A 
ATOM     22  CD1 PHE E   4       3.453  -4.968 -18.418  1.00 35.77 LIG 0.01  A 
ATOM     23  CE1 PHE E   4       4.240  -3.916 -18.861  1.00 35.50 LIG 0.00  A 
ATOM     24  CZ  PHE E   4       4.201  -2.700 -18.193  1.00 35.20 LIG 0.00  A 
ATOM     25  CE2 PHE E   4       3.384  -2.541 -17.081  1.00 34.71 LIG 0.00  A 
ATOM     26  CD2 PHE E   4       2.603  -3.597 -16.643  1.00 35.45 LIG 0.01  A 
ENDBRANCH 20 21
ENDBRANCH 16 20
ENDBRANCH 14 16
ENDBRANCH 10 12
ENDBRANCH 8 10
ENDBRANCH 5 6
BRANCH 5 27
ATOM     27  CB  ASP E   2      -0.527  -3.420  -8.833  1.00 43.54 LIG 0.15  C 
BRANCH 27 28
ATOM     28  CG  ASP E   2      -1.498  -2.250  -8.931  1.00 45.99 LIG 0.17  C 
ATOM     29 OD2  ASP E   2      -1.501  -1.401  -8.012  1.00 46.35 LIG-0.65  OA
ATOM     30 OD1  ASP E   2      -2.250  -2.171  -9.928  1.00 46.97 LIG-0.65  OA
ENDBRANCH 27 28
ENDBRANCH 5 27
ENDBRANCH 3 5
BRANCH 1 31
ATOM     31  CA  LEU E   1      -1.957  -7.634  -8.251  1.00 39.47 LIG 0.18  C 
BRANCH 31 32
ATOM     32  CB  LEU E   1      -1.206  -8.769  -7.532  1.00 38.97 LIG 0.04  C 
BRANCH 32 33
ATOM     33  CG  LEU E   1      -1.608  -9.051  -6.074  1.00 40.05 LIG-0.02  C 
ATOM     34  CD2 LEU E   1      -3.124  -9.083  -5.904  1.00 40.58 LIG 0.01  C 
ATOM     35  CD1 LEU E   1      -0.987  -8.039  -5.122  1.00 39.33 LIG 0.01  C 
ENDBRANCH 32 33
ENDBRANCH 31 32
BRANCH 31 36
ATOM     36  N   LEU E   1      -2.669  -8.143  -9.423  1.00 38.97 LIG-0.35  N 
ATOM     37  C   GLN E   0      -3.999  -8.153  -9.489  1.00 38.27 LIG 0.24  C 
ATOM     38 O    GLN E   0      -4.728  -7.754  -8.575  1.00 40.12 LIG-0.27  OA
ATOM     39 H    LEU E   1      -2.156  -8.429 -10.052  1.00 38.97 LIG 0.16  HD
BRANCH 37 40
ATOM     40  CA  GLN E   0      -4.599  -8.677 -10.794  1.00 36.47 LIG 0.18  C 
BRANCH 40 41
ATOM     41  N   GLN E   0      -3.557  -9.192 -11.737  1.00 35.61 LIG-0.35  N 
ATOM     42  C   ACE E  -1      -3.079  -8.499 -12.776  1.00 35.56 LIG 0.21  C 
ATOM     43 O    ACE E  -1      -3.448  -7.374 -13.082  1.00 35.09 LIG-0.27  OA
ATOM     44  CH3 ACE E  -1      -2.157  -9.261 -13.700  1.00 35.40 LIG 0.12  C 
ATOM     45 H    GLN E   0      -3.290  -9.987 -11.546  1.00 35.61 LIG 0.16  HD
ENDBRANCH 40 41
BRANCH 40 46
ATOM     46  CB  GLN E   0      -5.635  -9.765 -10.481  1.00 35.42 LIG 0.04  C 
BRANCH 46 47
ATOM     47  CG  GLN E   0      -6.977  -9.560 -11.182  1.00 33.87 LIG 0.10  C 
BRANCH 47 48
ATOM     48  CD  GLN E   0      -6.828  -8.860 -12.521  1.00 33.67 LIG 0.21  C 
ATOM     49 OE1  GLN E   0      -6.977  -7.643 -12.613  1.00 31.67 LIG-0.27  OA
ATOM     50  NE2 GLN E   0      -6.542  -9.631 -13.568  1.00 33.23 LIG-0.37  N 
ATOM     51 22HE GLN E   0      -6.455  -9.280 -14.349  1.00 33.23 LIG 0.16  HD
ATOM     52 21HE GLN E   0      -6.445 -10.479 -13.464  1.00 33.23 LIG 0.16  HD
ENDBRANCH 47 48
ENDBRANCH 46 47
ENDBRANCH 40 46
ENDBRANCH 37 40
ENDBRANCH 31 36
ENDBRANCH 1 31
TORSDOF 19
ENDMDL
MODEL 61
USER: ADFR SOLUTION from run 181
USER: SCORE 12.872425 LL:  -3.216 LR: -11.815 RR:   0.000 FEB:  -6.147
USER: RMSD 5.499836
USER: SEED 180
USER: STATUS no improvement in best in 28 clusters for 5 generations
USER: GENES 21
USER: genes 0 Translation |==|  0.31916 0.49809 0.61688
USER: genes 1 Rotation |==|  0.78931 0.66604 0.67663 0.82792
USER: genes 2 Torsion [C]-N--CA-[CB] |==|  0.83868
USER: genes 3 Torsion [N]-CA--C-[N] |==|  0.69133
USER: genes 4 Torsion [C]-N--CA-[CB] |==|  0.80103
USER: genes 5 Torsion [N]-CA--C-[N] |==|  0.31163
USER: genes 6 Torsion [C]-N--CA-[CB] |==|  0.51194
USER: genes 7 Torsion [N]-CA--C-[O] |==|  0.93694
USER: genes 8 Torsion [N]-CA--CB-[CG] |==|  0.78165
USER: genes 9 Torsion [CA]-CB--CG-[CD1] |==|  0.98428
USER: genes 10 Torsion [N]-CA--CB-[CG] |==|  0.76909
USER: genes 11 Torsion [CA]-CB--CG-[OD2] |==|  0.19509
USER: genes 12 Torsion [N]-C--CA-[N] |==|  0.26671
USER: genes 13 Torsion [C]-CA--CB-[CG] |==|  0.22836
USER: genes 14 Torsion [CA]-CB--CG-[CD2] |==|  0.78496
USER: genes 15 Torsion [C]-CA--N-[C] |==|  0.69162
USER: genes 16 Torsion [N]-C--CA-[N] |==|  0.41054
USER: genes 17 Torsion [C]-CA--N-[C] |==|  0.82028
USER: genes 18 Torsion [C]-CA--CB-[CG] |==|  0.79466
USER: genes 19 Torsion [CA]-CB--CG-[CD] |==|  0.22545
USER: genes 20 Torsion [CB]-CG--CD-[OE1] |==|  0.60085
ROOT
ATOM      1  C   LEU E   1      -0.726  -7.029 -10.565  1.00 39.66 LIG 0.24  C 
ATOM      2 O    LEU E   1       0.117  -7.614  -9.878  1.00 37.26 LIG-0.27  OA
ATOM      3  N   ASP E   2      -0.502  -5.848 -11.143  1.00 41.55 LIG-0.35  N 
ATOM      4 H    ASP E   2      -1.085  -5.436 -11.624  1.00 41.55 LIG 0.16  HD
ENDROOT
BRANCH 3 5
ATOM      5  CA  ASP E   2       0.773  -5.134 -11.011  1.00 42.33 LIG 0.19  C 
BRANCH 5 6
ATOM      6  C   ASP E   2       1.911  -5.914 -11.661  1.00 41.58 LIG 0.24  C 
ATOM      7 O    ASP E   2       1.956  -6.053 -12.889  1.00 40.78 LIG-0.27  OA
ATOM      8  N   ALA E   3       2.817  -6.427 -10.827  1.00 40.17 LIG-0.35  N 
ATOM      9 H    ALA E   3       2.770  -6.345  -9.973  1.00 40.17 LIG 0.16  HD
BRANCH 8 10
ATOM     10  CA  ALA E   3       3.990  -7.182 -11.285  1.00 38.52 LIG 0.17  C 
ATOM     11  CB  ALA E   3       3.562  -8.552 -11.807  1.00 38.62 LIG 0.04  C 
BRANCH 10 12
ATOM     12  C   ALA E   3       4.816  -6.445 -12.339  1.00 38.02 LIG 0.24  C 
ATOM     13 O    ALA E   3       4.360  -6.243 -13.465  1.00 36.71 LIG-0.27  OA
ATOM     14  N   PHE E   4       6.028  -6.051 -11.955  1.00 38.01 LIG-0.34  N 
ATOM     15 H    PHE E   4       6.376  -6.269 -11.200  1.00 38.01 LIG 0.16  HD
BRANCH 14 16
ATOM     16  CA  PHE E   4       6.891  -5.207 -12.779  1.00 38.29 LIG 0.19  C 
BRANCH 16 17
ATOM     17  C   PHE E   4       7.080  -5.847 -14.151  1.00 39.00 LIG 0.20  C 
ATOM     18 OXT  PHE E   4       7.424  -5.170 -15.122  1.00 39.22 LIG-0.65  OA
ATOM     19 O    PHE E   4       6.917  -7.061 -14.314  1.00 39.04 LIG-0.65  OA
ENDBRANCH 16 17
BRANCH 16 20
ATOM     20  CB  PHE E   4       8.261  -5.018 -12.104  1.00 37.57 LIG 0.07  C 
BRANCH 20 21
ATOM     21  CG  PHE E   4       8.253  -4.000 -10.991  1.00 36.97 LIG-0.06  A 
ATOM     22  CD1 PHE E   4       7.114  -3.239 -10.726  1.00 35.77 LIG 0.01  A 
ATOM     23  CE1 PHE E   4       7.113  -2.292  -9.714  1.00 35.50 LIG 0.00  A 
ATOM     24  CZ  PHE E   4       8.256  -2.100  -8.950  1.00 35.20 LIG 0.00  A 
ATOM     25  CE2 PHE E   4       9.398  -2.848  -9.206  1.00 34.71 LIG 0.00  A 
ATOM     26  CD2 PHE E   4       9.392  -3.791 -10.220  1.00 35.45 LIG 0.01  A 
ENDBRANCH 20 21
ENDBRANCH 16 20
ENDBRANCH 14 16
ENDBRANCH 10 12
ENDBRANCH 8 10
ENDBRANCH 5 6
BRANCH 5 27
ATOM     27  CB  ASP E   2       1.100  -4.863  -9.537  1.00 43.54 LIG 0.15  C 
BRANCH 27 28
ATOM     28  CG  ASP E   2       0.409  -3.616  -9.000  1.00 45.99 LIG 0.17  C 
ATOM     29 OD2  ASP E   2      -0.831  -3.647  -8.836  1.00 46.35 LIG-0.65  OA
ATOM     30 OD1  ASP E   2       1.102  -2.609  -8.730  1.00 46.97 LIG-0.65  OA
ENDBRANCH 27 28
ENDBRANCH 5 27
ENDBRANCH 3 5
BRANCH 1 31
ATOM     31  CA  LEU E   1      -2.103  -7.659 -10.816  1.00 39.47 LIG 0.18  C 
BRANCH 31 32
ATOM     32  CB  LEU E   1      -2.683  -8.304  -9.545  1.00 38.97 LIG 0.04  C 
BRANCH 32 33
ATOM     33  CG  LEU E   1      -3.391  -7.365  -8.553  1.00 40.05 LIG-0.02  C 
ATOM     34  CD2 LEU E   1      -2.390  -6.568  -7.720  1.00 40.58 LIG 0.01  C 
ATOM     35  CD1 LEU E   1      -4.346  -8.130  -7.649  1.00 39.33 LIG 0.01  C 
ENDBRANCH 32 33
ENDBRANCH 31 32
BRANCH 31 36
ATOM     36  N   LEU E   1      -2.069  -8.622 -11.918  1.00 38.97 LIG-0.35  N 
ATOM     37  C   GLN E   0      -2.676  -8.384 -13.078  1.00 38.27 LIG 0.24  C 
ATOM     38 O    GLN E   0      -3.322  -7.356 -13.310  1.00 40.12 LIG-0.27  OA
ATOM     39 H    LEU E   1      -1.627  -9.339 -11.746  1.00 38.97 LIG 0.16  HD
BRANCH 37 40
ATOM     40  CA  GLN E   0      -2.519  -9.465 -14.148  1.00 36.47 LIG 0.18  C 
BRANCH 40 41
ATOM     41  N   GLN E   0      -3.719  -9.572 -15.035  1.00 35.61 LIG-0.35  N 
ATOM     42  C   ACE E  -1      -4.930  -9.952 -14.615  1.00 35.56 LIG 0.21  C 
ATOM     43 O    ACE E  -1      -5.191 -10.268 -13.462  1.00 35.09 LIG-0.27  OA
ATOM     44  CH3 ACE E  -1      -5.964 -10.154 -15.699  1.00 35.40 LIG 0.12  C 
ATOM     45 H    GLN E   0      -3.556  -9.363 -15.854  1.00 35.61 LIG 0.16  HD
ENDBRANCH 40 41
BRANCH 40 46
ATOM     46  CB  GLN E   0      -1.255  -9.188 -14.973  1.00 35.42 LIG 0.04  C 
BRANCH 46 47
ATOM     47  CG  GLN E   0      -1.397  -8.020 -15.948  1.00 33.87 LIG 0.10  C 
BRANCH 47 48
ATOM     48  CD  GLN E   0      -1.204  -6.676 -15.270  1.00 33.67 LIG 0.21  C 
ATOM     49 OE1  GLN E   0      -1.868  -5.699 -15.613  1.00 31.67 LIG-0.27  OA
ATOM     50  NE2 GLN E   0      -0.283  -6.619 -14.310  1.00 33.23 LIG-0.37  N 
ATOM     51 22HE GLN E   0      -0.133  -5.876 -13.902  1.00 33.23 LIG 0.16  HD
ATOM     52 21HE GLN E   0       0.162  -7.324 -14.099  1.00 33.23 LIG 0.16  HD
ENDBRANCH 47 48
ENDBRANCH 46 47
ENDBRANCH 40 46
ENDBRANCH 37 40
ENDBRANCH 31 36
ENDBRANCH 1 31
TORSDOF 19
ENDMDL
MODEL 62
USER: ADFR SOLUTION from run 105
USER: SCORE 14.128518 LL:  -3.792 LR: -11.810 RR:   0.000 FEB:  -6.143
USER: RMSD 5.098543
USER: SEED 104
USER: STATUS no improvement in best in 19 clusters for 5 generations
USER: GENES 21
USER: genes 0 Translation |==|  0.33691 0.54600 0.57713
USER: genes 1 Rotation |==|  0.31697 0.83675 0.51048 0.82092
USER: genes 2 Torsion [C]-N--CA-[CB] |==|  0.76115
USER: genes 3 Torsion [N]-CA--C-[N] |==|  0.18284
USER: genes 4 Torsion [C]-N--CA-[CB] |==|  0.27494
USER: genes 5 Torsion [N]-CA--C-[N] |==|  0.55899
USER: genes 6 Torsion [C]-N--CA-[CB] |==|  0.37238
USER: genes 7 Torsion [N]-CA--C-[O] |==|  0.68390
USER: genes 8 Torsion [N]-CA--CB-[CG] |==|  0.11444
USER: genes 9 Torsion [CA]-CB--CG-[CD1] |==|  0.78023
USER: genes 10 Torsion [N]-CA--CB-[CG] |==|  0.89192
USER: genes 11 Torsion [CA]-CB--CG-[OD2] |==|  0.66463
USER: genes 12 Torsion [N]-C--CA-[N] |==|  0.03357
USER: genes 13 Torsion [C]-CA--CB-[CG] |==|  0.23311
USER: genes 14 Torsion [CA]-CB--CG-[CD2] |==|  0.04505
USER: genes 15 Torsion [C]-CA--N-[C] |==|  0.73387
USER: genes 16 Torsion [N]-C--CA-[N] |==|  0.93889
USER: genes 17 Torsion [C]-CA--N-[C] |==|  0.83281
USER: genes 18 Torsion [C]-CA--CB-[CG] |==|  0.82376
USER: genes 19 Torsion [CA]-CB--CG-[CD] |==|  0.24456
USER: genes 20 Torsion [CB]-CG--CD-[OE1] |==|  0.62979
ROOT
ATOM      1  C   LEU E   1      -0.287  -6.275 -11.251  1.00 39.66 LIG 0.24  C 
ATOM      2 O    LEU E   1       0.341  -5.283 -11.634  1.00 37.26 LIG-0.27  OA
ATOM      3  N   ASP E   2      -0.343  -7.413 -11.943  1.00 41.55 LIG-0.35  N 
ATOM      4 H    ASP E   2      -0.778  -8.108 -11.681  1.00 41.55 LIG 0.16  HD
ENDROOT
BRANCH 3 5
ATOM      5  CA  ASP E   2       0.337  -7.587 -13.231  1.00 42.33 LIG 0.19  C 
BRANCH 5 6
ATOM      6  C   ASP E   2       1.680  -6.865 -13.247  1.00 41.58 LIG 0.24  C 
ATOM      7 O    ASP E   2       1.870  -5.907 -14.005  1.00 40.78 LIG-0.27  OA
ATOM      8  N   ALA E   3       2.606  -7.339 -12.412  1.00 40.17 LIG-0.35  N 
ATOM      9 H    ALA E   3       2.476  -8.018 -11.901  1.00 40.17 LIG 0.16  HD
BRANCH 8 10
ATOM     10  CA  ALA E   3       3.944  -6.747 -12.280  1.00 38.52 LIG 0.17  C 
ATOM     11  CB  ALA E   3       3.996  -5.830 -11.059  1.00 38.62 LIG 0.04  C 
BRANCH 10 12
ATOM     12  C   ALA E   3       5.064  -7.785 -12.213  1.00 38.02 LIG 0.24  C 
ATOM     13 O    ALA E   3       4.891  -8.924 -12.647  1.00 36.71 LIG-0.27  OA
ATOM     14  N   PHE E   4       6.206  -7.372 -11.667  1.00 38.01 LIG-0.34  N 
ATOM     15 H    PHE E   4       6.296  -6.605 -11.288  1.00 38.01 LIG 0.16  HD
BRANCH 14 16
ATOM     16  CA  PHE E   4       7.424  -8.179 -11.657  1.00 38.29 LIG 0.19  C 
BRANCH 16 17
ATOM     17  C   PHE E   4       7.653  -8.749 -10.260  1.00 39.00 LIG 0.20  C 
ATOM     18 OXT  PHE E   4       6.890  -9.595  -9.789  1.00 39.22 LIG-0.65  OA
ATOM     19 O    PHE E   4       8.623  -8.395  -9.581  1.00 39.04 LIG-0.65  OA
ENDBRANCH 16 17
BRANCH 16 20
ATOM     20  CB  PHE E   4       8.637  -7.328 -12.074  1.00 37.57 LIG 0.07  C 
BRANCH 20 21
ATOM     21  CG  PHE E   4       8.637  -5.942 -11.479  1.00 36.97 LIG-0.06  A 
ATOM     22  CD1 PHE E   4       7.844  -4.931 -12.023  1.00 35.77 LIG 0.01  A 
ATOM     23  CE1 PHE E   4       7.856  -3.653 -11.486  1.00 35.50 LIG 0.00  A 
ATOM     24  CZ  PHE E   4       8.664  -3.375 -10.392  1.00 35.20 LIG 0.00  A 
ATOM     25  CE2 PHE E   4       9.462  -4.371  -9.844  1.00 34.71 LIG 0.00  A 
ATOM     26  CD2 PHE E   4       9.445  -5.645 -10.386  1.00 35.45 LIG 0.01  A 
ENDBRANCH 20 21
ENDBRANCH 16 20
ENDBRANCH 14 16
ENDBRANCH 10 12
ENDBRANCH 8 10
ENDBRANCH 5 6
BRANCH 5 27
ATOM     27  CB  ASP E   2      -0.539  -7.087 -14.387  1.00 43.54 LIG 0.15  C 
BRANCH 27 28
ATOM     28  CG  ASP E   2      -2.013  -7.423 -14.199  1.00 45.99 LIG 0.17  C 
ATOM     29 OD2  ASP E   2      -2.579  -8.124 -15.067  1.00 46.35 LIG-0.65  OA
ATOM     30 OD1  ASP E   2      -2.604  -6.999 -13.181  1.00 46.97 LIG-0.65  OA
ENDBRANCH 27 28
ENDBRANCH 5 27
ENDBRANCH 3 5
BRANCH 1 31
ATOM     31  CA  LEU E   1      -1.033  -6.257  -9.909  1.00 39.47 LIG 0.18  C 
BRANCH 31 32
ATOM     32  CB  LEU E   1      -0.211  -5.574  -8.801  1.00 38.97 LIG 0.04  C 
BRANCH 32 33
ATOM     33  CG  LEU E   1      -0.294  -4.040  -8.725  1.00 40.05 LIG-0.02  C 
ATOM     34  CD2 LEU E   1      -1.484  -3.500  -9.514  1.00 40.58 LIG 0.01  C 
ATOM     35  CD1 LEU E   1       0.997  -3.390  -9.198  1.00 39.33 LIG 0.01  C 
ENDBRANCH 32 33
ENDBRANCH 31 32
BRANCH 31 36
ATOM     36  N   LEU E   1      -1.444  -7.600  -9.497  1.00 38.97 LIG-0.35  N 
ATOM     37  C   GLN E   0      -2.664  -8.069  -9.749  1.00 38.27 LIG 0.24  C 
ATOM     38 O    GLN E   0      -3.539  -7.414 -10.327  1.00 40.12 LIG-0.27  OA
ATOM     39 H    LEU E   1      -0.835  -8.046  -9.087  1.00 38.97 LIG 0.16  HD
BRANCH 37 40
ATOM     40  CA  GLN E   0      -2.935  -9.503  -9.294  1.00 36.47 LIG 0.18  C 
BRANCH 40 41
ATOM     41  N   GLN E   0      -1.677 -10.298  -9.129  1.00 35.61 LIG-0.35  N 
ATOM     42  C   ACE E  -1      -0.808 -10.538 -10.116  1.00 35.56 LIG 0.21  C 
ATOM     43 O    ACE E  -1      -0.947 -10.148 -11.267  1.00 35.09 LIG-0.27  OA
ATOM     44  CH3 ACE E  -1       0.310 -11.499  -9.781  1.00 35.40 LIG 0.12  C 
ATOM     45 H    GLN E   0      -1.564 -10.591  -8.328  1.00 35.61 LIG 0.16  HD
ENDBRANCH 40 41
BRANCH 40 46
ATOM     46  CB  GLN E   0      -3.742  -9.483  -7.989  1.00 35.42 LIG 0.04  C 
BRANCH 46 47
ATOM     47  CG  GLN E   0      -3.003  -8.843  -6.815  1.00 33.87 LIG 0.10  C 
BRANCH 47 48
ATOM     48  CD  GLN E   0      -3.218  -7.343  -6.747  1.00 33.67 LIG 0.21  C 
ATOM     49 OE1  GLN E   0      -2.268  -6.580  -6.578  1.00 31.67 LIG-0.27  OA
ATOM     50  NE2 GLN E   0      -4.472  -6.913  -6.868  1.00 33.23 LIG-0.37  N 
ATOM     51 22HE GLN E   0      -4.644  -6.072  -6.828  1.00 33.23 LIG 0.16  HD
ATOM     52 21HE GLN E   0      -5.110  -7.478  -6.985  1.00 33.23 LIG 0.16  HD
ENDBRANCH 47 48
ENDBRANCH 46 47
ENDBRANCH 40 46
ENDBRANCH 37 40
ENDBRANCH 31 36
ENDBRANCH 1 31
TORSDOF 19
ENDMDL
MODEL 63
USER: ADFR SOLUTION from run 77
USER: SCORE 14.082859 LL:  -3.979 LR: -11.814 RR:   0.000 FEB:  -6.146
USER: RMSD 4.257964
USER: SEED 76
USER: STATUS searching
USER: GENES 21
USER: genes 0 Translation |==|  0.48462 0.50935 0.58601
USER: genes 1 Rotation |==|  0.16582 0.58083 0.35005 0.83062
USER: genes 2 Torsion [C]-N--CA-[CB] |==|  0.52249
USER: genes 3 Torsion [N]-CA--C-[N] |==|  0.37392
USER: genes 4 Torsion [C]-N--CA-[CB] |==|  0.19364
USER: genes 5 Torsion [N]-CA--C-[N] |==|  0.01173
USER: genes 6 Torsion [C]-N--CA-[CB] |==|  0.19497
USER: genes 7 Torsion [N]-CA--C-[O] |==|  0.11475
USER: genes 8 Torsion [N]-CA--CB-[CG] |==|  0.13157
USER: genes 9 Torsion [CA]-CB--CG-[CD1] |==|  0.79934
USER: genes 10 Torsion [N]-CA--CB-[CG] |==|  0.58144
USER: genes 11 Torsion [CA]-CB--CG-[OD2] |==|  0.36364
USER: genes 12 Torsion [N]-C--CA-[N] |==|  0.05406
USER: genes 13 Torsion [C]-CA--CB-[CG] |==|  0.68021
USER: genes 14 Torsion [CA]-CB--CG-[CD2] |==|  0.68937
USER: genes 15 Torsion [C]-CA--N-[C] |==|  0.56667
USER: genes 16 Torsion [N]-C--CA-[N] |==|  0.36261
USER: genes 17 Torsion [C]-CA--N-[C] |==|  0.79599
USER: genes 18 Torsion [C]-CA--CB-[CG] |==|  0.23659
USER: genes 19 Torsion [CA]-CB--CG-[CD] |==|  0.76815
USER: genes 20 Torsion [CB]-CG--CD-[OE1] |==|  0.35483
ROOT
ATOM      1  C   LEU E   1       3.369  -6.852 -11.097  1.00 39.66 LIG 0.24  C 
ATOM      2 O    LEU E   1       4.093  -5.991 -11.608  1.00 37.26 LIG-0.27  OA
ATOM      3  N   ASP E   2       3.848  -7.900 -10.424  1.00 41.55 LIG-0.35  N 
ATOM      4 H    ASP E   2       3.349  -8.502 -10.065  1.00 41.55 LIG 0.16  HD
ENDROOT
BRANCH 3 5
ATOM      5  CA  ASP E   2       5.285  -8.124 -10.233  1.00 42.33 LIG 0.19  C 
BRANCH 5 6
ATOM      6  C   ASP E   2       6.042  -8.005 -11.551  1.00 41.58 LIG 0.24  C 
ATOM      7 O    ASP E   2       5.616  -8.559 -12.572  1.00 40.78 LIG-0.27  OA
ATOM      8  N   ALA E   3       7.166  -7.288 -11.515  1.00 40.17 LIG-0.35  N 
ATOM      9 H    ALA E   3       7.468  -6.922 -10.798  1.00 40.17 LIG 0.16  HD
BRANCH 8 10
ATOM     10  CA  ALA E   3       8.003  -7.051 -12.698  1.00 38.52 LIG 0.17  C 
ATOM     11  CB  ALA E   3       7.286  -6.118 -13.672  1.00 38.62 LIG 0.04  C 
BRANCH 10 12
ATOM     12  C   ALA E   3       9.390  -6.504 -12.362  1.00 38.02 LIG 0.24  C 
ATOM     13 O    ALA E   3      10.173  -6.184 -13.258  1.00 36.71 LIG-0.27  OA
ATOM     14  N   PHE E   4       9.676  -6.404 -11.066  1.00 38.01 LIG-0.34  N 
ATOM     15 H    PHE E   4       9.163  -6.709 -10.446  1.00 38.01 LIG 0.16  HD
BRANCH 14 16
ATOM     16  CA  PHE E   4      10.890  -5.766 -10.563  1.00 38.29 LIG 0.19  C 
BRANCH 16 17
ATOM     17  C   PHE E   4      11.048  -6.060  -9.074  1.00 39.00 LIG 0.20  C 
ATOM     18 OXT  PHE E   4      11.396  -5.176  -8.288  1.00 39.22 LIG-0.65  OA
ATOM     19 O    PHE E   4      10.806  -7.183  -8.618  1.00 39.04 LIG-0.65  OA
ENDBRANCH 16 17
BRANCH 16 20
ATOM     20  CB  PHE E   4      10.831  -4.244 -10.785  1.00 37.57 LIG 0.07  C 
BRANCH 20 21
ATOM     21  CG  PHE E   4       9.527  -3.620 -10.357  1.00 36.97 LIG-0.06  A 
ATOM     22  CD1 PHE E   4       8.360  -3.822 -11.097  1.00 35.77 LIG 0.01  A 
ATOM     23  CE1 PHE E   4       7.165  -3.235 -10.712  1.00 35.50 LIG 0.00  A 
ATOM     24  CZ  PHE E   4       7.125  -2.440  -9.574  1.00 35.20 LIG 0.00  A 
ATOM     25  CE2 PHE E   4       8.279  -2.228  -8.831  1.00 34.71 LIG 0.00  A 
ATOM     26  CD2 PHE E   4       9.470  -2.816  -9.223  1.00 35.45 LIG 0.01  A 
ENDBRANCH 20 21
ENDBRANCH 16 20
ENDBRANCH 14 16
ENDBRANCH 10 12
ENDBRANCH 8 10
ENDBRANCH 5 6
BRANCH 5 27
ATOM     27  CB  ASP E   2       5.547  -9.498  -9.602  1.00 43.54 LIG 0.15  C 
BRANCH 27 28
ATOM     28  CG  ASP E   2       6.812  -9.526  -8.754  1.00 45.99 LIG 0.17  C 
ATOM     29 OD2  ASP E   2       6.746 -10.009  -7.601  1.00 46.35 LIG-0.65  OA
ATOM     30 OD1  ASP E   2       7.875  -9.078  -9.240  1.00 46.97 LIG-0.65  OA
ENDBRANCH 27 28
ENDBRANCH 5 27
ENDBRANCH 3 5
BRANCH 1 31
ATOM     31  CA  LEU E   1       1.841  -6.744 -11.191  1.00 39.47 LIG 0.18  C 
BRANCH 31 32
ATOM     32  CB  LEU E   1       1.362  -5.282 -11.146  1.00 38.97 LIG 0.04  C 
BRANCH 32 33
ATOM     33  CG  LEU E   1       0.513  -4.869  -9.932  1.00 40.05 LIG-0.02  C 
ATOM     34  CD2 LEU E   1      -0.929  -4.567 -10.330  1.00 40.58 LIG 0.01  C 
ATOM     35  CD1 LEU E   1       1.125  -3.680  -9.206  1.00 39.33 LIG 0.01  C 
ENDBRANCH 32 33
ENDBRANCH 31 32
BRANCH 31 36
ATOM     36  N   LEU E   1       1.175  -7.541 -10.160  1.00 38.97 LIG-0.35  N 
ATOM     37  C   GLN E   0      -0.073  -7.982 -10.309  1.00 38.27 LIG 0.24  C 
ATOM     38 O    GLN E   0      -0.764  -7.744 -11.306  1.00 40.12 LIG-0.27  OA
ATOM     39 H    LEU E   1       1.657  -7.694  -9.465  1.00 38.97 LIG 0.16  HD
BRANCH 37 40
ATOM     40  CA  GLN E   0      -0.620  -8.835  -9.166  1.00 36.47 LIG 0.18  C 
BRANCH 40 41
ATOM     41  N   GLN E   0      -1.967  -8.377  -8.702  1.00 35.61 LIG-0.35  N 
ATOM     42  C   ACE E  -1      -2.174  -7.269  -7.981  1.00 35.56 LIG 0.21  C 
ATOM     43 O    ACE E  -1      -1.287  -6.515  -7.607  1.00 35.09 LIG-0.27  OA
ATOM     44  CH3 ACE E  -1      -3.585  -7.074  -7.475  1.00 35.40 LIG 0.12  C 
ATOM     45 H    GLN E   0      -2.606  -8.898  -8.946  1.00 35.61 LIG 0.16  HD
ENDBRANCH 40 41
BRANCH 40 46
ATOM     46  CB  GLN E   0      -0.667 -10.307  -9.601  1.00 35.42 LIG 0.04  C 
BRANCH 46 47
ATOM     47  CG  GLN E   0       0.651 -11.053  -9.400  1.00 33.87 LIG 0.10  C 
BRANCH 47 48
ATOM     48  CD  GLN E   0       1.619 -10.835 -10.548  1.00 33.67 LIG 0.21  C 
ATOM     49 OE1  GLN E   0       2.770 -10.458 -10.336  1.00 31.67 LIG-0.27  OA
ATOM     50  NE2 GLN E   0       1.151 -11.061 -11.774  1.00 33.23 LIG-0.37  N 
ATOM     51 22HE GLN E   0       1.660 -10.943 -12.457  1.00 33.23 LIG 0.16  HD
ATOM     52 21HE GLN E   0       0.339 -11.323 -11.882  1.00 33.23 LIG 0.16  HD
ENDBRANCH 47 48
ENDBRANCH 46 47
ENDBRANCH 40 46
ENDBRANCH 37 40
ENDBRANCH 31 36
ENDBRANCH 1 31
TORSDOF 19
ENDMDL
MODEL 64
USER: ADFR SOLUTION from run 150
USER: SCORE 14.367954 LL:  -3.721 LR: -11.804 RR:   0.000 FEB:  -6.137
USER: RMSD 4.669382
USER: SEED 149
USER: STATUS no improvement in best in 6 clusters for 5 generations
USER: GENES 21
USER: genes 0 Translation |==|  0.48269 0.54296 0.52911
USER: genes 1 Rotation |==|  0.39983 0.70733 0.37346 0.92541
USER: genes 2 Torsion [C]-N--CA-[CB] |==|  0.75962
USER: genes 3 Torsion [N]-CA--C-[N] |==|  0.19974
USER: genes 4 Torsion [C]-N--CA-[CB] |==|  0.52064
USER: genes 5 Torsion [N]-CA--C-[N] |==|  0.26667
USER: genes 6 Torsion [C]-N--CA-[CB] |==|  0.43562
USER: genes 7 Torsion [N]-CA--C-[O] |==|  0.82468
USER: genes 8 Torsion [N]-CA--CB-[CG] |==|  0.06650
USER: genes 9 Torsion [CA]-CB--CG-[CD1] |==|  0.23252
USER: genes 10 Torsion [N]-CA--CB-[CG] |==|  0.84761
USER: genes 11 Torsion [CA]-CB--CG-[OD2] |==|  0.96157
USER: genes 12 Torsion [N]-C--CA-[N] |==|  0.92260
USER: genes 13 Torsion [C]-CA--CB-[CG] |==|  0.42334
USER: genes 14 Torsion [CA]-CB--CG-[CD2] |==|  0.15218
USER: genes 15 Torsion [C]-CA--N-[C] |==|  0.82386
USER: genes 16 Torsion [N]-C--CA-[N] |==|  0.09333
USER: genes 17 Torsion [C]-CA--N-[C] |==|  0.67457
USER: genes 18 Torsion [C]-CA--CB-[CG] |==|  0.64259
USER: genes 19 Torsion [CA]-CB--CG-[CD] |==|  0.46905
USER: genes 20 Torsion [CB]-CG--CD-[OE1] |==|  0.10572
ROOT
ATOM      1  C   LEU E   1       3.322  -6.322 -12.079  1.00 39.66 LIG 0.24  C 
ATOM      2 O    LEU E   1       4.319  -5.689 -11.721  1.00 37.26 LIG-0.27  OA
ATOM      3  N   ASP E   2       3.391  -7.458 -12.775  1.00 41.55 LIG-0.35  N 
ATOM      4 H    ASP E   2       2.699  -7.904 -13.026  1.00 41.55 LIG 0.16  HD
ENDROOT
BRANCH 3 5
ATOM      5  CA  ASP E   2       4.667  -8.056 -13.182  1.00 42.33 LIG 0.19  C 
BRANCH 5 6
ATOM      6  C   ASP E   2       5.735  -7.858 -12.112  1.00 41.58 LIG 0.24  C 
ATOM      7 O    ASP E   2       6.670  -7.070 -12.296  1.00 40.78 LIG-0.27  OA
ATOM      8  N   ALA E   3       5.590  -8.585 -11.003  1.00 40.17 LIG-0.35  N 
ATOM      9 H    ALA E   3       4.950  -9.147 -10.888  1.00 40.17 LIG 0.16  HD
BRANCH 8 10
ATOM     10  CA  ALA E   3       6.512  -8.499  -9.863  1.00 38.52 LIG 0.17  C 
ATOM     11  CB  ALA E   3       6.182  -9.581  -8.837  1.00 38.62 LIG 0.04  C 
BRANCH 10 12
ATOM     12  C   ALA E   3       7.985  -8.578 -10.264  1.00 38.02 LIG 0.24  C 
ATOM     13 O    ALA E   3       8.532  -9.668 -10.434  1.00 36.71 LIG-0.27  OA
ATOM     14  N   PHE E   4       8.609  -7.412 -10.412  1.00 38.01 LIG-0.34  N 
ATOM     15 H    PHE E   4       8.251  -6.657 -10.209  1.00 38.01 LIG 0.16  HD
BRANCH 14 16
ATOM     16  CA  PHE E   4       9.969  -7.295 -10.934  1.00 38.29 LIG 0.19  C 
BRANCH 16 17
ATOM     17  C   PHE E   4      10.975  -7.556  -9.817  1.00 39.00 LIG 0.20  C 
ATOM     18 OXT  PHE E   4      11.766  -8.499  -9.887  1.00 39.22 LIG-0.65  OA
ATOM     19 O    PHE E   4      11.036  -6.814  -8.831  1.00 39.04 LIG-0.65  OA
ENDBRANCH 16 17
BRANCH 16 20
ATOM     20  CB  PHE E   4      10.201  -5.891 -11.520  1.00 37.57 LIG 0.07  C 
BRANCH 20 21
ATOM     21  CG  PHE E   4       9.287  -4.836 -10.948  1.00 36.97 LIG-0.06  A 
ATOM     22  CD1 PHE E   4       9.594  -4.201  -9.743  1.00 35.77 LIG 0.01  A 
ATOM     23  CE1 PHE E   4       8.745  -3.244  -9.210  1.00 35.50 LIG 0.00  A 
ATOM     24  CZ  PHE E   4       7.578  -2.908  -9.883  1.00 35.20 LIG 0.00  A 
ATOM     25  CE2 PHE E   4       7.260  -3.535 -11.081  1.00 34.71 LIG 0.00  A 
ATOM     26  CD2 PHE E   4       8.111  -4.491 -11.607  1.00 35.45 LIG 0.01  A 
ENDBRANCH 20 21
ENDBRANCH 16 20
ENDBRANCH 14 16
ENDBRANCH 10 12
ENDBRANCH 8 10
ENDBRANCH 5 6
BRANCH 5 27
ATOM     27  CB  ASP E   2       5.148  -7.470 -14.516  1.00 43.54 LIG 0.15  C 
BRANCH 27 28
ATOM     28  CG  ASP E   2       4.110  -7.596 -15.624  1.00 45.99 LIG 0.17  C 
ATOM     29 OD2  ASP E   2       3.136  -8.360 -15.443  1.00 46.35 LIG-0.65  OA
ATOM     30 OD1  ASP E   2       4.259  -6.926 -16.671  1.00 46.97 LIG-0.65  OA
ENDBRANCH 27 28
ENDBRANCH 5 27
ENDBRANCH 3 5
BRANCH 1 31
ATOM     31  CA  LEU E   1       1.913  -5.837 -11.709  1.00 39.47 LIG 0.18  C 
BRANCH 31 32
ATOM     32  CB  LEU E   1       1.518  -6.249 -10.280  1.00 38.97 LIG 0.04  C 
BRANCH 32 33
ATOM     33  CG  LEU E   1       0.508  -5.345  -9.553  1.00 40.05 LIG-0.02  C 
ATOM     34  CD2 LEU E   1      -0.770  -5.161 -10.367  1.00 40.58 LIG 0.01  C 
ATOM     35  CD1 LEU E   1       1.118  -3.994  -9.208  1.00 39.33 LIG 0.01  C 
ENDBRANCH 32 33
ENDBRANCH 31 32
BRANCH 31 36
ATOM     36  N   LEU E   1       0.911  -6.287 -12.675  1.00 38.97 LIG-0.35  N 
ATOM     37  C   GLN E   0       0.937  -5.898 -13.948  1.00 38.27 LIG 0.24  C 
ATOM     38 O    GLN E   0       1.787  -5.126 -14.406  1.00 40.12 LIG-0.27  OA
ATOM     39 H    LEU E   1       0.316  -6.815 -12.348  1.00 38.97 LIG 0.16  HD
BRANCH 37 40
ATOM     40  CA  GLN E   0      -0.152  -6.482 -14.847  1.00 36.47 LIG 0.18  C 
BRANCH 40 41
ATOM     41  N   GLN E   0      -1.441  -6.700 -14.118  1.00 35.61 LIG-0.35  N 
ATOM     42  C   ACE E  -1      -2.006  -7.899 -13.936  1.00 35.56 LIG 0.21  C 
ATOM     43 O    ACE E  -1      -1.541  -8.950 -14.356  1.00 35.09 LIG-0.27  OA
ATOM     44  CH3 ACE E  -1      -3.386  -7.884 -13.320  1.00 35.40 LIG 0.12  C 
ATOM     45 H    GLN E   0      -1.791  -5.972 -13.822  1.00 35.61 LIG 0.16  HD
ENDBRANCH 40 41
BRANCH 40 46
ATOM     46  CB  GLN E   0      -0.362  -5.567 -16.061  1.00 35.42 LIG 0.04  C 
BRANCH 46 47
ATOM     47  CG  GLN E   0      -1.821  -5.178 -16.297  1.00 33.87 LIG 0.10  C 
BRANCH 47 48
ATOM     48  CD  GLN E   0      -1.963  -4.070 -17.324  1.00 33.67 LIG 0.21  C 
ATOM     49 OE1  GLN E   0      -1.237  -4.036 -18.316  1.00 31.67 LIG-0.27  OA
ATOM     50  NE2 GLN E   0      -2.896  -3.151 -17.084  1.00 33.23 LIG-0.37  N 
ATOM     51 22HE GLN E   0      -3.009  -2.499 -17.634  1.00 33.23 LIG 0.16  HD
ATOM     52 21HE GLN E   0      -3.385  -3.208 -16.378  1.00 33.23 LIG 0.16  HD
ENDBRANCH 47 48
ENDBRANCH 46 47
ENDBRANCH 40 46
ENDBRANCH 37 40
ENDBRANCH 31 36
ENDBRANCH 1 31
TORSDOF 19
ENDMDL
MODEL 65
USER: ADFR SOLUTION from run 42
USER: SCORE 13.689033 LL:  -3.670 LR: -11.799 RR:   0.000 FEB:  -6.132
USER: RMSD 4.453355
USER: SEED 41
USER: STATUS no improvement in best in 11 clusters for 5 generations
USER: GENES 21
USER: genes 0 Translation |==|  0.44346 0.53113 0.59299
USER: genes 1 Rotation |==|  0.38532 0.65012 0.29751 0.91631
USER: genes 2 Torsion [C]-N--CA-[CB] |==|  0.56126
USER: genes 3 Torsion [N]-CA--C-[N] |==|  0.82967
USER: genes 4 Torsion [C]-N--CA-[CB] |==|  0.77691
USER: genes 5 Torsion [N]-CA--C-[N] |==|  0.74372
USER: genes 6 Torsion [C]-N--CA-[CB] |==|  0.30945
USER: genes 7 Torsion [N]-CA--C-[O] |==|  0.61356
USER: genes 8 Torsion [N]-CA--CB-[CG] |==|  0.10105
USER: genes 9 Torsion [CA]-CB--CG-[CD1] |==|  0.76770
USER: genes 10 Torsion [N]-CA--CB-[CG] |==|  0.01097
USER: genes 11 Torsion [CA]-CB--CG-[OD2] |==|  0.82015
USER: genes 12 Torsion [N]-C--CA-[N] |==|  0.90110
USER: genes 13 Torsion [C]-CA--CB-[CG] |==|  0.31689
USER: genes 14 Torsion [CA]-CB--CG-[CD2] |==|  0.27202
USER: genes 15 Torsion [C]-CA--N-[C] |==|  0.85265
USER: genes 16 Torsion [N]-C--CA-[N] |==|  0.01348
USER: genes 17 Torsion [C]-CA--N-[C] |==|  0.71847
USER: genes 18 Torsion [C]-CA--CB-[CG] |==|  0.61017
USER: genes 19 Torsion [CA]-CB--CG-[CD] |==|  0.48008
USER: genes 20 Torsion [CB]-CG--CD-[OE1] |==|  0.11377
ROOT
ATOM      1  C   LEU E   1       2.351  -6.509 -10.977  1.00 39.66 LIG 0.24  C 
ATOM      2 O    LEU E   1       3.373  -5.981 -10.529  1.00 37.26 LIG-0.27  OA
ATOM      3  N   ASP E   2       2.303  -7.781 -11.376  1.00 41.55 LIG-0.35  N 
ATOM      4 H    ASP E   2       1.594  -8.155 -11.687  1.00 41.55 LIG 0.16  HD
ENDROOT
BRANCH 3 5
ATOM      5  CA  ASP E   2       3.470  -8.668 -11.320  1.00 42.33 LIG 0.19  C 
BRANCH 5 6
ATOM      6  C   ASP E   2       4.757  -7.906 -11.618  1.00 41.58 LIG 0.24  C 
ATOM      7 O    ASP E   2       5.652  -7.828 -10.768  1.00 40.78 LIG-0.27  OA
ATOM      8  N   ALA E   3       4.834  -7.342 -12.824  1.00 40.17 LIG-0.35  N 
ATOM      9 H    ALA E   3       4.200  -7.381 -13.404  1.00 40.17 LIG 0.16  HD
BRANCH 8 10
ATOM     10  CA  ALA E   3       6.011  -6.594 -13.285  1.00 38.52 LIG 0.17  C 
ATOM     11  CB  ALA E   3       5.989  -5.176 -12.716  1.00 38.62 LIG 0.04  C 
BRANCH 10 12
ATOM     12  C   ALA E   3       7.336  -7.280 -12.952  1.00 38.02 LIG 0.24  C 
ATOM     13 O    ALA E   3       7.824  -8.108 -13.722  1.00 36.71 LIG-0.27  OA
ATOM     14  N   PHE E   4       7.901  -6.923 -11.802  1.00 38.01 LIG-0.34  N 
ATOM     15 H    PHE E   4       7.517  -6.412 -11.227  1.00 38.01 LIG 0.16  HD
BRANCH 14 16
ATOM     16  CA  PHE E   4       9.235  -7.363 -11.397  1.00 38.29 LIG 0.19  C 
BRANCH 16 17
ATOM     17  C   PHE E   4       9.174  -7.976 -10.001  1.00 39.00 LIG 0.20  C 
ATOM     18 OXT  PHE E   4       8.254  -8.733  -9.683  1.00 39.22 LIG-0.65  OA
ATOM     19 O    PHE E   4      10.058  -7.749  -9.168  1.00 39.04 LIG-0.65  OA
ENDBRANCH 16 17
BRANCH 16 20
ATOM     20  CB  PHE E   4      10.216  -6.177 -11.398  1.00 37.57 LIG 0.07  C 
BRANCH 20 21
ATOM     21  CG  PHE E   4       9.598  -4.879 -10.944  1.00 36.97 LIG-0.06  A 
ATOM     22  CD1 PHE E   4       8.886  -4.075 -11.836  1.00 35.77 LIG 0.01  A 
ATOM     23  CE1 PHE E   4       8.332  -2.874 -11.422  1.00 35.50 LIG 0.00  A 
ATOM     24  CZ  PHE E   4       8.481  -2.466 -10.103  1.00 35.20 LIG 0.00  A 
ATOM     25  CE2 PHE E   4       9.190  -3.254  -9.206  1.00 34.71 LIG 0.00  A 
ATOM     26  CD2 PHE E   4       9.742  -4.452  -9.627  1.00 35.45 LIG 0.01  A 
ENDBRANCH 20 21
ENDBRANCH 16 20
ENDBRANCH 14 16
ENDBRANCH 10 12
ENDBRANCH 8 10
ENDBRANCH 5 6
BRANCH 5 27
ATOM     27  CB  ASP E   2       3.317  -9.839 -12.299  1.00 43.54 LIG 0.15  C 
BRANCH 27 28
ATOM     28  CG  ASP E   2       2.054  -9.739 -13.145  1.00 45.99 LIG 0.17  C 
ATOM     29 OD2  ASP E   2       0.945  -9.810 -12.569  1.00 46.35 LIG-0.65  OA
ATOM     30 OD1  ASP E   2       2.165  -9.579 -14.381  1.00 46.97 LIG-0.65  OA
ENDBRANCH 27 28
ENDBRANCH 5 27
ENDBRANCH 3 5
BRANCH 1 31
ATOM     31  CA  LEU E   1       1.040  -5.716 -11.076  1.00 39.47 LIG 0.18  C 
BRANCH 31 32
ATOM     32  CB  LEU E   1       0.197  -5.831  -9.794  1.00 38.97 LIG 0.04  C 
BRANCH 32 33
ATOM     33  CG  LEU E   1       0.002  -4.544  -8.976  1.00 40.05 LIG-0.02  C 
ATOM     34  CD2 LEU E   1      -1.339  -3.880  -9.282  1.00 40.58 LIG 0.01  C 
ATOM     35  CD1 LEU E   1       1.144  -3.564  -9.200  1.00 39.33 LIG 0.01  C 
ENDBRANCH 32 33
ENDBRANCH 31 32
BRANCH 31 36
ATOM     36  N   LEU E   1       0.256  -6.104 -12.249  1.00 38.97 LIG-0.35  N 
ATOM     37  C   GLN E   0       0.778  -6.109 -13.474  1.00 38.27 LIG 0.24  C 
ATOM     38 O    GLN E   0       1.944  -5.776 -13.718  1.00 40.12 LIG-0.27  OA
ATOM     39 H    LEU E   1      -0.557  -6.325 -12.074  1.00 38.97 LIG 0.16  HD
BRANCH 37 40
ATOM     40  CA  GLN E   0      -0.150  -6.577 -14.594  1.00 36.47 LIG 0.18  C 
BRANCH 40 41
ATOM     41  N   GLN E   0      -1.542  -6.842 -14.111  1.00 35.61 LIG-0.35  N 
ATOM     42  C   ACE E  -1      -2.029  -8.063 -13.863  1.00 35.56 LIG 0.21  C 
ATOM     43 O    ACE E  -1      -1.399  -9.100 -14.015  1.00 35.09 LIG-0.27  OA
ATOM     44  CH3 ACE E  -1      -3.505  -8.124 -13.543  1.00 35.40 LIG 0.12  C 
ATOM     45 H    GLN E   0      -2.007  -6.126 -14.006  1.00 35.61 LIG 0.16  HD
ENDBRANCH 40 41
BRANCH 40 46
ATOM     46  CB  GLN E   0      -0.156  -5.538 -15.724  1.00 35.42 LIG 0.04  C 
BRANCH 46 47
ATOM     47  CG  GLN E   0      -1.533  -5.307 -16.344  1.00 33.87 LIG 0.10  C 
BRANCH 47 48
ATOM     48  CD  GLN E   0      -1.534  -4.155 -17.332  1.00 33.67 LIG 0.21  C 
ATOM     49 OE1  GLN E   0      -0.600  -4.000 -18.117  1.00 31.67 LIG-0.27  OA
ATOM     50  NE2 GLN E   0      -2.582  -3.334 -17.290  1.00 33.23 LIG-0.37  N 
ATOM     51 22HE GLN E   0      -2.623  -2.663 -17.826  1.00 33.23 LIG 0.16  HD
ATOM     52 21HE GLN E   0      -3.216  -3.476 -16.727  1.00 33.23 LIG 0.16  HD
ENDBRANCH 47 48
ENDBRANCH 46 47
ENDBRANCH 40 46
ENDBRANCH 37 40
ENDBRANCH 31 36
ENDBRANCH 1 31
TORSDOF 19
ENDMDL
MODEL 66
USER: ADFR SOLUTION from run 31
USER: SCORE 14.150078 LL:  -3.228 LR: -11.792 RR:   0.000 FEB:  -6.124
USER: RMSD 8.840584
USER: SEED 30
USER: STATUS no improvement in best in 21 clusters for 5 generations
USER: GENES 21
USER: genes 0 Translation |==|  0.30797 0.53059 0.73742
USER: genes 1 Rotation |==|  0.73993 0.80827 0.64128 0.77828
USER: genes 2 Torsion [C]-N--CA-[CB] |==|  0.77778
USER: genes 3 Torsion [N]-CA--C-[N] |==|  0.25432
USER: genes 4 Torsion [C]-N--CA-[CB] |==|  0.19832
USER: genes 5 Torsion [N]-CA--C-[N] |==|  0.11046
USER: genes 6 Torsion [C]-N--CA-[CB] |==|  0.87871
USER: genes 7 Torsion [N]-CA--C-[O] |==|  0.75375
USER: genes 8 Torsion [N]-CA--CB-[CG] |==|  0.72947
USER: genes 9 Torsion [CA]-CB--CG-[CD1] |==|  0.04766
USER: genes 10 Torsion [N]-CA--CB-[CG] |==|  0.74379
USER: genes 11 Torsion [CA]-CB--CG-[OD2] |==|  0.46430
USER: genes 12 Torsion [N]-C--CA-[N] |==|  0.39313
USER: genes 13 Torsion [C]-CA--CB-[CG] |==|  0.37877
USER: genes 14 Torsion [CA]-CB--CG-[CD2] |==|  0.32172
USER: genes 15 Torsion [C]-CA--N-[C] |==|  0.62548
USER: genes 16 Torsion [N]-C--CA-[N] |==|  0.87951
USER: genes 17 Torsion [C]-CA--N-[C] |==|  0.84018
USER: genes 18 Torsion [C]-CA--CB-[CG] |==|  0.05049
USER: genes 19 Torsion [CA]-CB--CG-[CD] |==|  0.29198
USER: genes 20 Torsion [CB]-CG--CD-[OE1] |==|  0.49549
ROOT
ATOM      1  C   LEU E   1      -1.003  -6.517  -8.485  1.00 39.66 LIG 0.24  C 
ATOM      2 O    LEU E   1       0.197  -6.565  -8.198  1.00 37.26 LIG-0.27  OA
ATOM      3  N   ASP E   2      -1.523  -5.586  -9.286  1.00 41.55 LIG-0.35  N 
ATOM      4 H    ASP E   2      -2.357  -5.547  -9.491  1.00 41.55 LIG 0.16  HD
ENDROOT
BRANCH 3 5
ATOM      5  CA  ASP E   2      -0.710  -4.528  -9.897  1.00 42.33 LIG 0.19  C 
BRANCH 5 6
ATOM      6  C   ASP E   2       0.610  -5.082 -10.423  1.00 41.58 LIG 0.24  C 
ATOM      7 O    ASP E   2       1.605  -5.137  -9.691  1.00 40.78 LIG-0.27  OA
ATOM      8  N   ALA E   3       0.608  -5.482 -11.696  1.00 40.17 LIG-0.35  N 
ATOM      9 H    ALA E   3      -0.081  -5.423 -12.207  1.00 40.17 LIG 0.16  HD
BRANCH 8 10
ATOM     10  CA  ALA E   3       1.785  -6.064 -12.355  1.00 38.52 LIG 0.17  C 
ATOM     11  CB  ALA E   3       2.050  -7.467 -11.814  1.00 38.62 LIG 0.04  C 
BRANCH 10 12
ATOM     12  C   ALA E   3       1.676  -6.093 -13.879  1.00 38.02 LIG 0.24  C 
ATOM     13 O    ALA E   3       2.082  -7.064 -14.519  1.00 36.71 LIG-0.27  OA
ATOM     14  N   PHE E   4       1.125  -5.020 -14.442  1.00 38.01 LIG-0.34  N 
ATOM     15 H    PHE E   4       0.923  -4.309 -14.002  1.00 38.01 LIG 0.16  HD
BRANCH 14 16
ATOM     16  CA  PHE E   4       0.807  -4.940 -15.866  1.00 38.29 LIG 0.19  C 
BRANCH 16 17
ATOM     17  C   PHE E   4      -0.470  -5.726 -16.154  1.00 39.00 LIG 0.20  C 
ATOM     18 OXT  PHE E   4      -1.570  -5.169 -16.145  1.00 39.22 LIG-0.65  OA
ATOM     19 O    PHE E   4      -0.427  -6.930 -16.427  1.00 39.04 LIG-0.65  OA
ENDBRANCH 16 17
BRANCH 16 20
ATOM     20  CB  PHE E   4       1.963  -5.508 -16.709  1.00 37.57 LIG 0.07  C 
BRANCH 20 21
ATOM     21  CG  PHE E   4       2.896  -4.452 -17.246  1.00 36.97 LIG-0.06  A 
ATOM     22  CD1 PHE E   4       2.908  -3.166 -16.705  1.00 35.77 LIG 0.01  A 
ATOM     23  CE1 PHE E   4       3.755  -2.191 -17.210  1.00 35.50 LIG 0.00  A 
ATOM     24  CZ  PHE E   4       4.604  -2.498 -18.264  1.00 35.20 LIG 0.00  A 
ATOM     25  CE2 PHE E   4       4.599  -3.773 -18.815  1.00 34.71 LIG 0.00  A 
ATOM     26  CD2 PHE E   4       3.750  -4.741 -18.306  1.00 35.45 LIG 0.01  A 
ENDBRANCH 20 21
ENDBRANCH 16 20
ENDBRANCH 14 16
ENDBRANCH 10 12
ENDBRANCH 8 10
ENDBRANCH 5 6
BRANCH 5 27
ATOM     27  CB  ASP E   2      -0.440  -3.396  -8.897  1.00 43.54 LIG 0.15  C 
BRANCH 27 28
ATOM     28  CG  ASP E   2      -1.475  -2.281  -8.975  1.00 45.99 LIG 0.17  C 
ATOM     29 OD2  ASP E   2      -1.505  -1.432  -8.056  1.00 46.35 LIG-0.65  OA
ATOM     30 OD1  ASP E   2      -2.251  -2.244  -9.956  1.00 46.97 LIG-0.65  OA
ENDBRANCH 27 28
ENDBRANCH 5 27
ENDBRANCH 3 5
BRANCH 1 31
ATOM     31  CA  LEU E   1      -1.980  -7.569  -7.943  1.00 39.47 LIG 0.18  C 
BRANCH 31 32
ATOM     32  CB  LEU E   1      -2.546  -7.176  -6.567  1.00 38.97 LIG 0.04  C 
BRANCH 32 33
ATOM     33  CG  LEU E   1      -4.054  -7.388  -6.353  1.00 40.05 LIG-0.02  C 
ATOM     34  CD2 LEU E   1      -4.328  -8.426  -5.268  1.00 40.58 LIG 0.01  C 
ATOM     35  CD1 LEU E   1      -4.751  -7.775  -7.649  1.00 39.33 LIG 0.01  C 
ENDBRANCH 32 33
ENDBRANCH 31 32
BRANCH 31 36
ATOM     36  N   LEU E   1      -1.375  -8.901  -7.895  1.00 38.97 LIG-0.35  N 
ATOM     37  C   GLN E   0      -2.022  -9.983  -8.324  1.00 38.27 LIG 0.24  C 
ATOM     38 O    GLN E   0      -3.172  -9.953  -8.777  1.00 40.12 LIG-0.27  OA
ATOM     39 H    LEU E   1      -0.579  -8.916  -7.570  1.00 38.97 LIG 0.16  HD
BRANCH 37 40
ATOM     40  CA  GLN E   0      -1.247 -11.297  -8.249  1.00 36.47 LIG 0.18  C 
BRANCH 40 41
ATOM     41  N   GLN E   0       0.170 -11.155  -8.712  1.00 35.61 LIG-0.35  N 
ATOM     42  C   ACE E  -1       0.520 -10.713  -9.925  1.00 35.56 LIG 0.21  C 
ATOM     43 O    ACE E  -1      -0.275 -10.388 -10.796  1.00 35.09 LIG-0.27  OA
ATOM     44  CH3 ACE E  -1       1.993 -10.801 -10.251  1.00 35.40 LIG 0.12  C 
ATOM     45 H    GLN E   0       0.746 -11.387  -8.118  1.00 35.61 LIG 0.16  HD
ENDBRANCH 40 41
BRANCH 40 46
ATOM     46  CB  GLN E   0      -1.297 -11.841  -6.814  1.00 35.42 LIG 0.04  C 
BRANCH 46 47
ATOM     47  CG  GLN E   0      -2.411 -11.235  -5.963  1.00 33.87 LIG 0.10  C 
BRANCH 47 48
ATOM     48  CD  GLN E   0      -3.569 -12.195  -5.759  1.00 33.67 LIG 0.21  C 
ATOM     49 OE1  GLN E   0      -4.537 -11.874  -5.071  1.00 31.67 LIG-0.27  OA
ATOM     50  NE2 GLN E   0      -3.469 -13.384  -6.349  1.00 33.23 LIG-0.37  N 
ATOM     51 22HE GLN E   0      -4.097 -13.964  -6.256  1.00 33.23 LIG 0.16  HD
ATOM     52 21HE GLN E   0      -2.776 -13.572  -6.823  1.00 33.23 LIG 0.16  HD
ENDBRANCH 47 48
ENDBRANCH 46 47
ENDBRANCH 40 46
ENDBRANCH 37 40
ENDBRANCH 31 36
ENDBRANCH 1 31
TORSDOF 19
ENDMDL
MODEL 67
USER: ADFR SOLUTION from run 158
USER: SCORE 13.710663 LL:  -3.228 LR: -11.779 RR:   0.000 FEB:  -6.112
USER: RMSD 10.583908
USER: SEED 157
USER: STATUS no improvement in best in 7 clusters for 5 generations
USER: GENES 21
USER: genes 0 Translation |==|  0.61548 0.59412 0.48723
USER: genes 1 Rotation |==|  0.70093 0.06627 0.53138 0.64324
USER: genes 2 Torsion [C]-N--CA-[CB] |==|  0.51114
USER: genes 3 Torsion [N]-CA--C-[N] |==|  0.30893
USER: genes 4 Torsion [C]-N--CA-[CB] |==|  0.51918
USER: genes 5 Torsion [N]-CA--C-[N] |==|  0.43890
USER: genes 6 Torsion [C]-N--CA-[CB] |==|  0.85184
USER: genes 7 Torsion [N]-CA--C-[O] |==|  0.58668
USER: genes 8 Torsion [N]-CA--CB-[CG] |==|  0.78010
USER: genes 9 Torsion [CA]-CB--CG-[CD1] |==|  0.65684
USER: genes 10 Torsion [N]-CA--CB-[CG] |==|  0.87319
USER: genes 11 Torsion [CA]-CB--CG-[OD2] |==|  0.41426
USER: genes 12 Torsion [N]-C--CA-[N] |==|  0.46664
USER: genes 13 Torsion [C]-CA--CB-[CG] |==|  0.34358
USER: genes 14 Torsion [CA]-CB--CG-[CD2] |==|  0.86928
USER: genes 15 Torsion [C]-CA--N-[C] |==|  0.53899
USER: genes 16 Torsion [N]-C--CA-[N] |==|  0.87461
USER: genes 17 Torsion [C]-CA--N-[C] |==|  0.81855
USER: genes 18 Torsion [C]-CA--CB-[CG] |==|  0.49227
USER: genes 19 Torsion [CA]-CB--CG-[CD] |==|  0.28036
USER: genes 20 Torsion [CB]-CG--CD-[OE1] |==|  0.15741
ROOT
ATOM      1  C   LEU E   1       6.608  -5.517 -12.801  1.00 39.66 LIG 0.24  C 
ATOM      2 O    LEU E   1       5.738  -5.463 -13.675  1.00 37.26 LIG-0.27  OA
ATOM      3  N   ASP E   2       6.611  -6.432 -11.831  1.00 41.55 LIG-0.35  N 
ATOM      4 H    ASP E   2       7.215  -6.475 -11.220  1.00 41.55 LIG 0.16  HD
ENDROOT
BRANCH 3 5
ATOM      5  CA  ASP E   2       5.571  -7.461 -11.715  1.00 42.33 LIG 0.19  C 
BRANCH 5 6
ATOM      6  C   ASP E   2       4.179  -6.838 -11.702  1.00 41.58 LIG 0.24  C 
ATOM      7 O    ASP E   2       3.800  -6.167 -10.735  1.00 40.78 LIG-0.27  OA
ATOM      8  N   ALA E   3       3.425  -7.075 -12.776  1.00 40.17 LIG-0.35  N 
ATOM      9 H    ALA E   3       3.685  -7.559 -13.437  1.00 40.17 LIG 0.16  HD
BRANCH 8 10
ATOM     10  CA  ALA E   3       2.070  -6.531 -12.940  1.00 38.52 LIG 0.17  C 
ATOM     11  CB  ALA E   3       1.414  -7.120 -14.186  1.00 38.62 LIG 0.04  C 
BRANCH 10 12
ATOM     12  C   ALA E   3       1.178  -6.744 -11.717  1.00 38.02 LIG 0.24  C 
ATOM     13 O    ALA E   3       1.429  -7.634 -10.904  1.00 36.71 LIG-0.27  OA
ATOM     14  N   PHE E   4       0.141  -5.917 -11.605  1.00 38.01 LIG-0.34  N 
ATOM     15 H    PHE E   4      -0.081  -5.355 -12.217  1.00 38.01 LIG 0.16  HD
BRANCH 14 16
ATOM     16  CA  PHE E   4      -0.726  -5.879 -10.429  1.00 38.29 LIG 0.19  C 
BRANCH 16 17
ATOM     17  C   PHE E   4       0.055  -5.347  -9.230  1.00 39.00 LIG 0.20  C 
ATOM     18 OXT  PHE E   4       0.947  -4.509  -9.378  1.00 39.22 LIG-0.65  OA
ATOM     19 O    PHE E   4      -0.206  -5.726  -8.084  1.00 39.04 LIG-0.65  OA
ENDBRANCH 16 17
BRANCH 16 20
ATOM     20  CB  PHE E   4      -1.265  -7.285 -10.112  1.00 37.57 LIG 0.07  C 
BRANCH 20 21
ATOM     21  CG  PHE E   4      -2.419  -7.703 -10.988  1.00 36.97 LIG-0.06  A 
ATOM     22  CD1 PHE E   4      -3.639  -8.087 -10.430  1.00 35.77 LIG 0.01  A 
ATOM     23  CE1 PHE E   4      -4.694  -8.487 -11.235  1.00 35.50 LIG 0.00  A 
ATOM     24  CZ  PHE E   4      -4.539  -8.501 -12.615  1.00 35.20 LIG 0.00  A 
ATOM     25  CE2 PHE E   4      -3.329  -8.124 -13.184  1.00 34.71 LIG 0.00  A 
ATOM     26  CD2 PHE E   4      -2.279  -7.728 -12.373  1.00 35.45 LIG 0.01  A 
ENDBRANCH 20 21
ENDBRANCH 16 20
ENDBRANCH 14 16
ENDBRANCH 10 12
ENDBRANCH 8 10
ENDBRANCH 5 6
BRANCH 5 27
ATOM     27  CB  ASP E   2       5.777  -8.309 -10.453  1.00 43.54 LIG 0.15  C 
BRANCH 27 28
ATOM     28  CG  ASP E   2       7.224  -8.745 -10.265  1.00 45.99 LIG 0.17  C 
ATOM     29 OD2  ASP E   2       7.651  -8.900  -9.098  1.00 46.35 LIG-0.65  OA
ATOM     30 OD1  ASP E   2       7.933  -8.943 -11.277  1.00 46.97 LIG-0.65  OA
ENDBRANCH 27 28
ENDBRANCH 5 27
ENDBRANCH 3 5
BRANCH 1 31
ATOM     31  CA  LEU E   1       7.778  -4.522 -12.801  1.00 39.47 LIG 0.18  C 
BRANCH 31 32
ATOM     32  CB  LEU E   1       7.739  -3.587 -11.579  1.00 38.97 LIG 0.04  C 
BRANCH 32 33
ATOM     33  CG  LEU E   1       8.988  -3.566 -10.683  1.00 40.05 LIG-0.02  C 
ATOM     34  CD2 LEU E   1       9.469  -4.977 -10.355  1.00 40.58 LIG 0.01  C 
ATOM     35  CD1 LEU E   1       8.742  -2.778  -9.405  1.00 39.33 LIG 0.01  C 
ENDBRANCH 32 33
ENDBRANCH 31 32
BRANCH 31 36
ATOM     36  N   LEU E   1       7.838  -3.752 -14.043  1.00 38.97 LIG-0.35  N 
ATOM     37  C   GLN E   0       8.912  -3.039 -14.377  1.00 38.27 LIG 0.24  C 
ATOM     38 O    GLN E   0       9.922  -2.959 -13.669  1.00 40.12 LIG-0.27  OA
ATOM     39 H    LEU E   1       7.129  -3.804 -14.526  1.00 38.97 LIG 0.16  HD
BRANCH 37 40
ATOM     40  CA  GLN E   0       8.844  -2.320 -15.724  1.00 36.47 LIG 0.18  C 
BRANCH 40 41
ATOM     41  N   GLN E   0       8.309  -3.196 -16.814  1.00 35.61 LIG-0.35  N 
ATOM     42  C   ACE E  -1       8.930  -4.289 -17.269  1.00 35.56 LIG 0.21  C 
ATOM     43 O    ACE E  -1      10.009  -4.690 -16.858  1.00 35.09 LIG-0.27  OA
ATOM     44  CH3 ACE E  -1       8.304  -4.937 -18.483  1.00 35.40 LIG 0.12  C 
ATOM     45 H    GLN E   0       7.554  -2.927 -17.125  1.00 35.61 LIG 0.16  HD
ENDBRANCH 40 41
BRANCH 40 46
ATOM     46  CB  GLN E   0       7.998  -1.047 -15.584  1.00 35.42 LIG 0.04  C 
BRANCH 46 47
ATOM     47  CG  GLN E   0       7.920  -0.214 -16.862  1.00 33.87 LIG 0.10  C 
BRANCH 47 48
ATOM     48  CD  GLN E   0       6.616  -0.424 -17.609  1.00 33.67 LIG 0.21  C 
ATOM     49 OE1  GLN E   0       5.536  -0.224 -17.055  1.00 31.67 LIG-0.27  OA
ATOM     50  NE2 GLN E   0       6.711  -0.840 -18.870  1.00 33.23 LIG-0.37  N 
ATOM     51 22HE GLN E   0       5.999  -0.980 -19.331  1.00 33.23 LIG 0.16  HD
ATOM     52 21HE GLN E   0       7.485  -0.969 -19.223  1.00 33.23 LIG 0.16  HD
ENDBRANCH 47 48
ENDBRANCH 46 47
ENDBRANCH 40 46
ENDBRANCH 37 40
ENDBRANCH 31 36
ENDBRANCH 1 31
TORSDOF 19
ENDMDL
