MODEL 1
USER: ADFR SOLUTION from run 150
USER: SCORE 15.206748 LL:  -4.037 LR: -13.014 RR:   0.000 FEB:  -7.346
USER: RMSD 4.371439
USER: SEED 149
USER: STATUS no improvement in best in 14 clusters for 5 generations
USER: GENES 21
USER: genes 0 Translation |==|  0.47573 0.52286 0.61702
USER: genes 1 Rotation |==|  0.51819 0.65991 0.35741 0.95140
USER: genes 2 Torsion [C]-N--CA-[CB] |==|  0.50626
USER: genes 3 Torsion [N]-CA--CB-[CG] |==|  0.90230
USER: genes 4 Torsion [CA]-CB--CG-[OD2] |==|  0.40379
USER: genes 5 Torsion [N]-CA--C-[N] |==|  0.29064
USER: genes 6 Torsion [C]-N--CA-[C] |==|  0.68554
USER: genes 7 Torsion [N]-CA--C-[N] |==|  0.93333
USER: genes 8 Torsion [C]-N--CA-[CB] |==|  0.17233
USER: genes 9 Torsion [N]-CA--C-[OXT] |==|  0.91071
USER: genes 10 Torsion [N]-CA--CB-[CG] |==|  0.49292
USER: genes 11 Torsion [CA]-CB--CG-[CD2] |==|  0.65899
USER: genes 12 Torsion [N]-C--CA-[N] |==|  0.06096
USER: genes 13 Torsion [C]-CA--CB-[CG] |==|  0.55131
USER: genes 14 Torsion [CA]-CB--CG-[CD2] |==|  0.66344
USER: genes 15 Torsion [C]-CA--N-[C] |==|  0.18820
USER: genes 16 Torsion [N]-C--CA-[N] |==|  0.21059
USER: genes 17 Torsion [C]-CA--CB-[CG] |==|  0.30349
USER: genes 18 Torsion [CA]-CB--CG-[CD] |==|  0.68578
USER: genes 19 Torsion [CB]-CG--CD-[OE1] |==|  0.97131
USER: genes 20 Torsion [C]-CA--N-[C] |==|  0.63761
ROOT
ATOM      1  C   LEU E   1       2.216  -5.381 -11.293  1.00 28.67 LIG 0.24  C 
ATOM      2 O    LEU E   1       3.178  -4.995 -10.622  1.00 26.53 LIG-0.27  OA
ATOM      3  N   ASP E   2       2.266  -6.435 -12.101  1.00 29.47 LIG-0.35  N 
ATOM      4 H    ASP E   2       1.582  -6.770 -12.500  1.00 29.47 LIG 0.16  HD
ENDROOT
BRANCH 3 5
ATOM      5  CA  ASP E   2       3.518  -7.118 -12.377  1.00 30.54 LIG 0.19  C 
BRANCH 5 6
ATOM      6  CB  ASP E   2       3.325  -8.263 -13.376  1.00 32.40 LIG 0.15  C 
BRANCH 6 7
ATOM      7  CG  ASP E   2       1.995  -8.963 -13.208  1.00 34.09 LIG 0.17  C 
ATOM      8 OD2  ASP E   2       1.423  -9.397 -14.227  1.00 37.71 LIG-0.65  OA
ATOM      9 OD1  ASP E   2       1.522  -9.091 -12.057  1.00 36.77 LIG-0.65  OA
ENDBRANCH 6 7
ENDBRANCH 5 6
BRANCH 5 10
ATOM     10  C   ASP E   2       4.477  -6.097 -12.938  1.00 30.01 LIG 0.24  C 
ATOM     11 O    ASP E   2       4.358  -5.692 -14.095  1.00 27.94 LIG-0.27  OA
ATOM     12  N   LEU E   3       5.420  -5.681 -12.104  1.00 30.14 LIG-0.35  N 
ATOM     13 H    LEU E   3       5.493  -5.955 -11.292  1.00 30.14 LIG 0.16  HD
BRANCH 12 14
ATOM     14  CA  LEU E   3       6.429  -4.713 -12.495  1.00 30.90 LIG 0.18  C 
BRANCH 14 15
ATOM     15  C   LEU E   3       7.804  -5.380 -12.517  1.00 32.33 LIG 0.24  C 
ATOM     16 O    LEU E   3       8.728  -4.907 -13.190  1.00 31.45 LIG-0.27  OA
ATOM     17  N   ALA E   4       7.936  -6.459 -11.751  1.00 33.58 LIG-0.34  N 
ATOM     18 H    ALA E   4       7.295  -6.796 -11.287  1.00 33.58 LIG 0.16  HD
BRANCH 17 19
ATOM     19  CA  ALA E   4       9.204  -7.175 -11.630  1.00 35.71 LIG 0.18  C 
ATOM     20  CB  ALA E   4      10.268  -6.268 -11.031  1.00 36.03 LIG 0.04  C 
BRANCH 19 21
ATOM     21  C   ALA E   4       9.035  -8.421 -10.772  1.00 37.05 LIG 0.20  C 
ATOM     22 OXT  ALA E   4       8.223  -8.440  -9.849  1.00 36.72 LIG-0.65  OA
ATOM     23 O    ALA E   4       9.702  -9.436 -10.982  1.00 37.61 LIG-0.65  OA
ENDBRANCH 19 21
ENDBRANCH 17 19
ENDBRANCH 14 15
BRANCH 14 24
ATOM     24  CB  LEU E   3       6.409  -3.536 -11.518  1.00 30.03 LIG 0.04  C 
BRANCH 24 25
ATOM     25  CG  LEU E   3       7.421  -2.406 -11.679  1.00 29.85 LIG-0.02  C 
ATOM     26  CD1 LEU E   3       6.756  -1.093 -12.052  1.00 29.46 LIG 0.01  C 
ATOM     27  CD2 LEU E   3       8.206  -2.277 -10.385  1.00 29.65 LIG 0.01  C 
ENDBRANCH 24 25
ENDBRANCH 14 24
ENDBRANCH 12 14
ENDBRANCH 5 10
ENDBRANCH 3 5
BRANCH 1 28
ATOM     28  CA  LEU E   1       0.879  -4.664 -11.221  1.00 29.46 LIG 0.18  C 
BRANCH 28 29
ATOM     29  CB  LEU E   1       0.631  -4.134  -9.809  1.00 29.35 LIG 0.04  C 
BRANCH 29 30
ATOM     30  CG  LEU E   1      -0.834  -3.796  -9.495  1.00 30.22 LIG-0.02  C 
ATOM     31  CD2 LEU E   1      -0.988  -2.334  -9.099  1.00 31.32 LIG 0.01  C 
ATOM     32  CD1 LEU E   1      -1.386  -4.709  -8.415  1.00 30.06 LIG 0.01  C 
ENDBRANCH 29 30
ENDBRANCH 28 29
BRANCH 28 33
ATOM     33  N   LEU E   1      -0.180  -5.577 -11.643  1.00 28.73 LIG-0.35  N 
ATOM     34  C   GLN E   0      -0.498  -6.635 -10.906  1.00 28.95 LIG 0.24  C 
ATOM     35 O    GLN E   0       0.141  -6.974  -9.913  1.00 30.73 LIG-0.27  OA
ATOM     36 H    LEU E   1      -0.560  -5.370 -12.386  1.00 28.73 LIG 0.16  HD
BRANCH 34 37
ATOM     37  CA  GLN E   0      -1.708  -7.445 -11.344  1.00 28.12 LIG 0.18  C 
BRANCH 37 38
ATOM     38  CB  GLN E   0      -2.169  -8.331 -10.180  1.00 27.70 LIG 0.04  C 
BRANCH 38 39
ATOM     39  CG  GLN E   0      -3.490  -7.915  -9.536  1.00 26.51 LIG 0.10  C 
BRANCH 39 40
ATOM     40  CD  GLN E   0      -3.311  -7.425  -8.111  1.00 26.51 LIG 0.21  C 
ATOM     41 OE1  GLN E   0      -2.230  -7.569  -7.529  1.00 26.66 LIG-0.27  OA
ATOM     42  NE2 GLN E   0      -4.363  -6.840  -7.540  1.00 24.64 LIG-0.37  N 
ATOM     43 22HE GLN E   0      -4.306  -6.545  -6.734  1.00 24.64 LIG 0.16  HD
ATOM     44 21HE GLN E   0      -5.099  -6.758  -7.977  1.00 24.64 LIG 0.16  HD
ENDBRANCH 39 40
ENDBRANCH 38 39
ENDBRANCH 37 38
BRANCH 37 45
ATOM     45  N   GLN E   0      -1.350  -8.288 -12.540  1.00 28.94 LIG-0.35  N 
ATOM     46  C   ACE E  -1      -2.103  -8.326 -13.666  1.00 29.25 LIG 0.21  C 
ATOM     47 O    ACE E  -1      -2.699  -7.288 -13.965  1.00 28.69 LIG-0.27  OA
ATOM     48  CH3 ACE E  -1      -1.360  -9.004 -14.807  1.00 29.73 LIG 0.12  C 
ATOM     49 H    GLN E   0      -0.627  -8.742 -12.441  1.00 28.94 LIG 0.16  HD
ENDBRANCH 37 45
ENDBRANCH 34 37
ENDBRANCH 28 33
ENDBRANCH 1 28
TORSDOF 19
ENDMDL
MODEL 2
USER: ADFR SOLUTION from run 96
USER: SCORE 15.292988 LL:  -3.417 LR: -13.004 RR:   0.000 FEB:  -7.336
USER: RMSD 3.265317
USER: SEED 95
USER: STATUS no improvement in best in 11 clusters for 5 generations
USER: GENES 21
USER: genes 0 Translation |==|  0.50508 0.47616 0.50052
USER: genes 1 Rotation |==|  0.49363 0.49513 0.45997 0.99833
USER: genes 2 Torsion [C]-N--CA-[CB] |==|  0.50000
USER: genes 3 Torsion [N]-CA--CB-[CG] |==|  0.13438
USER: genes 4 Torsion [CA]-CB--CG-[OD2] |==|  0.28922
USER: genes 5 Torsion [N]-CA--C-[N] |==|  0.40870
USER: genes 6 Torsion [C]-N--CA-[C] |==|  0.63353
USER: genes 7 Torsion [N]-CA--C-[N] |==|  0.94541
USER: genes 8 Torsion [C]-N--CA-[CB] |==|  0.18410
USER: genes 9 Torsion [N]-CA--C-[OXT] |==|  0.00728
USER: genes 10 Torsion [N]-CA--CB-[CG] |==|  0.45564
USER: genes 11 Torsion [CA]-CB--CG-[CD2] |==|  0.72112
USER: genes 12 Torsion [N]-C--CA-[N] |==|  0.40277
USER: genes 13 Torsion [C]-CA--CB-[CG] |==|  0.56903
USER: genes 14 Torsion [CA]-CB--CG-[CD2] |==|  0.83009
USER: genes 15 Torsion [C]-CA--N-[C] |==|  0.80760
USER: genes 16 Torsion [N]-C--CA-[N] |==|  0.36148
USER: genes 17 Torsion [C]-CA--CB-[CG] |==|  0.43071
USER: genes 18 Torsion [CA]-CB--CG-[CD] |==|  0.73560
USER: genes 19 Torsion [CB]-CG--CD-[OE1] |==|  0.41722
USER: genes 20 Torsion [C]-CA--N-[C] |==|  0.79364
ROOT
ATOM      1  C   LEU E   1       2.876  -6.221 -13.215  1.00 28.67 LIG 0.24  C 
ATOM      2 O    LEU E   1       2.999  -5.446 -12.262  1.00 26.53 LIG-0.27  OA
ATOM      3  N   ASP E   2       3.782  -7.144 -13.526  1.00 29.47 LIG-0.35  N 
ATOM      4 H    ASP E   2       3.667  -7.749 -14.126  1.00 29.47 LIG 0.16  HD
ENDROOT
BRANCH 3 5
ATOM      5  CA  ASP E   2       5.067  -7.199 -12.854  1.00 30.54 LIG 0.19  C 
BRANCH 5 6
ATOM      6  CB  ASP E   2       5.931  -8.346 -13.386  1.00 32.40 LIG 0.15  C 
BRANCH 6 7
ATOM      7  CG  ASP E   2       5.986  -8.380 -14.898  1.00 34.09 LIG 0.17  C 
ATOM      8 OD2  ASP E   2       7.021  -7.973 -15.461  1.00 37.71 LIG-0.65  OA
ATOM      9 OD1  ASP E   2       4.999  -8.822 -15.526  1.00 36.77 LIG-0.65  OA
ENDBRANCH 6 7
ENDBRANCH 5 6
BRANCH 5 10
ATOM     10  C   ASP E   2       5.758  -5.878 -13.090  1.00 30.01 LIG 0.24  C 
ATOM     11 O    ASP E   2       5.583  -5.255 -14.139  1.00 27.94 LIG-0.27  OA
ATOM     12  N   LEU E   3       6.536  -5.456 -12.103  1.00 30.14 LIG-0.35  N 
ATOM     13 H    LEU E   3       6.646  -5.886 -11.366  1.00 30.14 LIG 0.16  HD
BRANCH 12 14
ATOM     14  CA  LEU E   3       7.283  -4.213 -12.180  1.00 30.90 LIG 0.18  C 
BRANCH 14 15
ATOM     15  C   LEU E   3       8.732  -4.454 -11.757  1.00 32.33 LIG 0.24  C 
ATOM     16 O    LEU E   3       9.621  -3.646 -12.051  1.00 31.45 LIG-0.27  OA
ATOM     17  N   ALA E   4       8.950  -5.552 -11.039  1.00 33.58 LIG-0.34  N 
ATOM     18 H    ALA E   4       8.337  -6.121 -10.838  1.00 33.58 LIG 0.16  HD
BRANCH 17 19
ATOM     19  CA  ALA E   4      10.274  -5.890 -10.520  1.00 35.71 LIG 0.18  C 
ATOM     20  CB  ALA E   4      10.708  -4.874  -9.477  1.00 36.03 LIG 0.04  C 
BRANCH 19 21
ATOM     21  C   ALA E   4      10.271  -7.289  -9.920  1.00 37.05 LIG 0.20  C 
ATOM     22 OXT  ALA E   4       9.259  -7.986  -9.960  1.00 36.72 LIG-0.65  OA
ATOM     23 O    ALA E   4      11.279  -7.755  -9.385  1.00 37.61 LIG-0.65  OA
ENDBRANCH 19 21
ENDBRANCH 17 19
ENDBRANCH 14 15
BRANCH 14 24
ATOM     24  CB  LEU E   3       6.619  -3.166 -11.285  1.00 30.03 LIG 0.04  C 
BRANCH 24 25
ATOM     25  CG  LEU E   3       7.391  -1.908 -10.899  1.00 29.85 LIG-0.02  C 
ATOM     26  CD1 LEU E   3       6.533  -0.659 -10.998  1.00 29.46 LIG 0.01  C 
ATOM     27  CD2 LEU E   3       7.933  -2.091  -9.491  1.00 29.65 LIG 0.01  C 
ENDBRANCH 24 25
ENDBRANCH 14 24
ENDBRANCH 12 14
ENDBRANCH 5 10
ENDBRANCH 3 5
BRANCH 1 28
ATOM     28  CA  LEU E   1       1.646  -6.175 -14.103  1.00 29.46 LIG 0.18  C 
BRANCH 28 29
ATOM     29  CB  LEU E   1       1.850  -5.186 -15.252  1.00 29.35 LIG 0.04  C 
BRANCH 29 30
ATOM     30  CG  LEU E   1       0.557  -4.604 -15.841  1.00 30.22 LIG-0.02  C 
ATOM     31  CD2 LEU E   1      -0.325  -5.701 -16.422  1.00 31.32 LIG 0.01  C 
ATOM     32  CD1 LEU E   1       0.860  -3.544 -16.884  1.00 30.06 LIG 0.01  C 
ENDBRANCH 29 30
ENDBRANCH 28 29
BRANCH 28 33
ATOM     33  N   LEU E   1       0.482  -5.822 -13.296  1.00 28.73 LIG-0.35  N 
ATOM     34  C   GLN E   0      -0.004  -6.671 -12.397  1.00 28.95 LIG 0.24  C 
ATOM     35 O    GLN E   0       0.405  -7.823 -12.276  1.00 30.73 LIG-0.27  OA
ATOM     36 H    LEU E   1       0.156  -5.042 -13.454  1.00 28.73 LIG 0.16  HD
BRANCH 34 37
ATOM     37  CA  GLN E   0      -1.122  -6.165 -11.501  1.00 28.12 LIG 0.18  C 
BRANCH 37 38
ATOM     38  CB  GLN E   0      -0.580  -5.973 -10.078  1.00 27.70 LIG 0.04  C 
BRANCH 38 39
ATOM     39  CG  GLN E   0      -1.338  -4.953  -9.230  1.00 26.51 LIG 0.10  C 
BRANCH 39 40
ATOM     40  CD  GLN E   0      -0.701  -3.577  -9.270  1.00 26.51 LIG 0.21  C 
ATOM     41 OE1  GLN E   0      -1.394  -2.561  -9.140  1.00 26.66 LIG-0.27  OA
ATOM     42  NE2 GLN E   0       0.618  -3.529  -9.447  1.00 24.64 LIG-0.37  N 
ATOM     43 22HE GLN E   0       1.021  -2.769  -9.474  1.00 24.64 LIG 0.16  HD
ATOM     44 21HE GLN E   0       1.067  -4.257  -9.535  1.00 24.64 LIG 0.16  HD
ENDBRANCH 39 40
ENDBRANCH 38 39
ENDBRANCH 37 38
BRANCH 37 45
ATOM     45  N   GLN E   0      -2.262  -7.149 -11.502  1.00 28.94 LIG-0.35  N 
ATOM     46  C   ACE E  -1      -3.111  -7.292 -12.548  1.00 29.25 LIG 0.21  C 
ATOM     47 O    ACE E  -1      -2.638  -7.095 -13.671  1.00 28.69 LIG-0.27  OA
ATOM     48  CH3 ACE E  -1      -3.958  -8.546 -12.408  1.00 29.73 LIG 0.12  C 
ATOM     49 H    GLN E   0      -2.324  -7.610 -10.778  1.00 28.94 LIG 0.16  HD
ENDBRANCH 37 45
ENDBRANCH 34 37
ENDBRANCH 28 33
ENDBRANCH 1 28
TORSDOF 19
ENDMDL
MODEL 3
USER: ADFR SOLUTION from run 48
USER: SCORE 14.326806 LL:  -4.001 LR: -12.887 RR:   0.000 FEB:  -7.219
USER: RMSD 4.806041
USER: SEED 47
USER: STATUS no improvement in best in 10 clusters for 5 generations
USER: GENES 21
USER: genes 0 Translation |==|  0.53195 0.50708 0.57089
USER: genes 1 Rotation |==|  0.68516 0.64655 0.42921 0.93501
USER: genes 2 Torsion [C]-N--CA-[CB] |==|  0.46722
USER: genes 3 Torsion [N]-CA--CB-[CG] |==|  0.99649
USER: genes 4 Torsion [CA]-CB--CG-[OD2] |==|  0.21215
USER: genes 5 Torsion [N]-CA--C-[N] |==|  0.25197
USER: genes 6 Torsion [C]-N--CA-[C] |==|  0.67558
USER: genes 7 Torsion [N]-CA--C-[N] |==|  0.91188
USER: genes 8 Torsion [C]-N--CA-[CB] |==|  0.17548
USER: genes 9 Torsion [N]-CA--C-[OXT] |==|  0.48669
USER: genes 10 Torsion [N]-CA--CB-[CG] |==|  0.53449
USER: genes 11 Torsion [CA]-CB--CG-[CD2] |==|  0.68460
USER: genes 12 Torsion [N]-C--CA-[N] |==|  0.04148
USER: genes 13 Torsion [C]-CA--CB-[CG] |==|  0.37104
USER: genes 14 Torsion [CA]-CB--CG-[CD2] |==|  0.22588
USER: genes 15 Torsion [C]-CA--N-[C] |==|  0.18815
USER: genes 16 Torsion [N]-C--CA-[N] |==|  0.75944
USER: genes 17 Torsion [C]-CA--CB-[CG] |==|  0.61843
USER: genes 18 Torsion [CA]-CB--CG-[CD] |==|  0.54142
USER: genes 19 Torsion [CB]-CG--CD-[OE1] |==|  0.48595
USER: genes 20 Torsion [C]-CA--N-[C] |==|  0.70742
ROOT
ATOM      1  C   LEU E   1       3.481  -5.665 -12.054  1.00 28.67 LIG 0.24  C 
ATOM      2 O    LEU E   1       4.242  -5.850 -11.099  1.00 26.53 LIG-0.27  OA
ATOM      3  N   ASP E   2       3.802  -5.960 -13.311  1.00 29.47 LIG-0.35  N 
ATOM      4 H    ASP E   2       3.251  -5.925 -13.970  1.00 29.47 LIG 0.16  HD
ENDROOT
BRANCH 3 5
ATOM      5  CA  ASP E   2       5.146  -6.376 -13.670  1.00 30.54 LIG 0.19  C 
BRANCH 5 6
ATOM      6  CB  ASP E   2       5.198  -6.934 -15.096  1.00 32.40 LIG 0.15  C 
BRANCH 6 7
ATOM      7  CG  ASP E   2       3.842  -6.945 -15.766  1.00 34.09 LIG 0.17  C 
ATOM      8 OD2  ASP E   2       3.386  -5.866 -16.193  1.00 37.71 LIG-0.65  OA
ATOM      9 OD1  ASP E   2       3.233  -8.031 -15.877  1.00 36.77 LIG-0.65  OA
ENDBRANCH 6 7
ENDBRANCH 5 6
BRANCH 5 10
ATOM     10  C   ASP E   2       6.040  -5.166 -13.555  1.00 30.01 LIG 0.24  C 
ATOM     11 O    ASP E   2       6.201  -4.409 -14.512  1.00 27.94 LIG-0.27  OA
ATOM     12  N   LEU E   3       6.612  -4.990 -12.371  1.00 30.14 LIG-0.35  N 
ATOM     13 H    LEU E   3       6.487  -5.512 -11.699  1.00 30.14 LIG 0.16  HD
BRANCH 12 14
ATOM     14  CA  LEU E   3       7.512  -3.883 -12.101  1.00 30.90 LIG 0.18  C 
BRANCH 14 15
ATOM     15  C   LEU E   3       8.905  -4.419 -11.770  1.00 32.33 LIG 0.24  C 
ATOM     16 O    LEU E   3       9.917  -3.762 -12.040  1.00 31.45 LIG-0.27  OA
ATOM     17  N   ALA E   4       8.940  -5.598 -11.157  1.00 33.58 LIG-0.34  N 
ATOM     18 H    ALA E   4       8.239  -6.063 -10.974  1.00 33.58 LIG 0.16  HD
BRANCH 17 19
ATOM     19  CA  ALA E   4      10.195  -6.216 -10.733  1.00 35.71 LIG 0.18  C 
ATOM     20  CB  ALA E   4      10.881  -5.353  -9.686  1.00 36.03 LIG 0.04  C 
BRANCH 19 21
ATOM     21  C   ALA E   4       9.943  -7.611 -10.179  1.00 37.05 LIG 0.20  C 
ATOM     22 OXT  ALA E   4      10.882  -8.333  -9.849  1.00 36.72 LIG-0.65  OA
ATOM     23 O    ALA E   4       8.798  -8.047 -10.046  1.00 37.61 LIG-0.65  OA
ENDBRANCH 19 21
ENDBRANCH 17 19
ENDBRANCH 14 15
BRANCH 14 24
ATOM     24  CB  LEU E   3       6.959  -3.049 -10.945  1.00 30.03 LIG 0.04  C 
BRANCH 24 25
ATOM     25  CG  LEU E   3       7.560  -1.678 -10.651  1.00 29.85 LIG-0.02  C 
ATOM     26  CD1 LEU E   3       6.514  -0.577 -10.683  1.00 29.46 LIG 0.01  C 
ATOM     27  CD2 LEU E   3       8.253  -1.738  -9.300  1.00 29.65 LIG 0.01  C 
ENDBRANCH 24 25
ENDBRANCH 14 24
ENDBRANCH 12 14
ENDBRANCH 5 10
ENDBRANCH 3 5
BRANCH 1 28
ATOM     28  CA  LEU E   1       2.092  -5.088 -11.843  1.00 29.46 LIG 0.18  C 
BRANCH 28 29
ATOM     29  CB  LEU E   1       1.439  -5.704 -10.605  1.00 29.35 LIG 0.04  C 
BRANCH 29 30
ATOM     30  CG  LEU E   1       0.770  -4.695  -9.660  1.00 30.22 LIG-0.02  C 
ATOM     31  CD2 LEU E   1      -0.617  -4.312 -10.156  1.00 31.32 LIG 0.01  C 
ATOM     32  CD1 LEU E   1       1.637  -3.463  -9.474  1.00 30.06 LIG 0.01  C 
ENDBRANCH 29 30
ENDBRANCH 28 29
BRANCH 28 33
ATOM     33  N   LEU E   1       1.289  -5.317 -13.041  1.00 28.73 LIG-0.35  N 
ATOM     34  C   GLN E   0       0.927  -6.546 -13.392  1.00 28.95 LIG 0.24  C 
ATOM     35 O    GLN E   0       1.335  -7.552 -12.818  1.00 30.73 LIG-0.27  OA
ATOM     36 H    LEU E   1       1.082  -4.606 -13.478  1.00 28.73 LIG 0.16  HD
BRANCH 34 37
ATOM     37  CA  GLN E   0      -0.030  -6.677 -14.566  1.00 28.12 LIG 0.18  C 
BRANCH 37 38
ATOM     38  CB  GLN E   0       0.275  -5.575 -15.589  1.00 27.70 LIG 0.04  C 
BRANCH 38 39
ATOM     39  CG  GLN E   0      -0.953  -4.890 -16.185  1.00 26.51 LIG 0.10  C 
BRANCH 39 40
ATOM     40  CD  GLN E   0      -0.623  -4.083 -17.427  1.00 26.51 LIG 0.21  C 
ATOM     41 OE1  GLN E   0      -1.522  -3.544 -18.082  1.00 26.66 LIG-0.27  OA
ATOM     42  NE2 GLN E   0       0.664  -3.991 -17.760  1.00 24.64 LIG-0.37  N 
ATOM     43 22HE GLN E   0       0.897  -3.542 -18.455  1.00 24.64 LIG 0.16  HD
ATOM     44 21HE GLN E   0       1.262  -4.381 -17.280  1.00 24.64 LIG 0.16  HD
ENDBRANCH 39 40
ENDBRANCH 38 39
ENDBRANCH 37 38
BRANCH 37 45
ATOM     45  N   GLN E   0      -1.451  -6.567 -14.080  1.00 28.94 LIG-0.35  N 
ATOM     46  C   ACE E  -1      -2.279  -7.635 -13.975  1.00 29.25 LIG 0.21  C 
ATOM     47 O    ACE E  -1      -1.751  -8.714 -13.694  1.00 28.69 LIG-0.27  OA
ATOM     48  CH3 ACE E  -1      -3.529  -7.292 -13.181  1.00 29.73 LIG 0.12  C 
ATOM     49 H    GLN E   0      -1.687  -5.765 -13.876  1.00 28.94 LIG 0.16  HD
ENDBRANCH 37 45
ENDBRANCH 34 37
ENDBRANCH 28 33
ENDBRANCH 1 28
TORSDOF 19
ENDMDL
MODEL 4
USER: ADFR SOLUTION from run 8
USER: SCORE 14.595995 LL:  -3.912 LR: -12.519 RR:   0.000 FEB:  -6.851
USER: RMSD 4.697814
USER: SEED 289536
USER: STATUS searching
USER: GENES 21
USER: genes 0 Translation |==|  0.47101 0.52465 0.61817
USER: genes 1 Rotation |==|  0.49922 0.66490 0.36053 0.95095
USER: genes 2 Torsion [C]-N--CA-[CB] |==|  0.51667
USER: genes 3 Torsion [N]-CA--CB-[CG] |==|  0.89279
USER: genes 4 Torsion [CA]-CB--CG-[OD2] |==|  0.91608
USER: genes 5 Torsion [N]-CA--C-[N] |==|  0.30643
USER: genes 6 Torsion [C]-N--CA-[C] |==|  0.66849
USER: genes 7 Torsion [N]-CA--C-[N] |==|  0.93405
USER: genes 8 Torsion [C]-N--CA-[CB] |==|  0.17367
USER: genes 9 Torsion [N]-CA--C-[OXT] |==|  0.91152
USER: genes 10 Torsion [N]-CA--CB-[CG] |==|  0.48247
USER: genes 11 Torsion [CA]-CB--CG-[CD2] |==|  0.60203
USER: genes 12 Torsion [N]-C--CA-[N] |==|  0.07575
USER: genes 13 Torsion [C]-CA--CB-[CG] |==|  0.54863
USER: genes 14 Torsion [CA]-CB--CG-[CD2] |==|  0.64343
USER: genes 15 Torsion [C]-CA--N-[C] |==|  0.17442
USER: genes 16 Torsion [N]-C--CA-[N] |==|  0.71005
USER: genes 17 Torsion [C]-CA--CB-[CG] |==|  0.18451
USER: genes 18 Torsion [CA]-CB--CG-[CD] |==|  0.59469
USER: genes 19 Torsion [CB]-CG--CD-[OE1] |==|  0.72514
USER: genes 20 Torsion [C]-CA--N-[C] |==|  0.68310
ROOT
ATOM      1  C   LEU E   1       2.110  -5.348 -11.274  1.00 28.67 LIG 0.24  C 
ATOM      2 O    LEU E   1       3.083  -4.890 -10.667  1.00 26.53 LIG-0.27  OA
ATOM      3  N   ASP E   2       2.168  -6.447 -12.021  1.00 29.47 LIG-0.35  N 
ATOM      4 H    ASP E   2       1.481  -6.828 -12.372  1.00 29.47 LIG 0.16  HD
ENDROOT
BRANCH 3 5
ATOM      5  CA  ASP E   2       3.432  -7.101 -12.307  1.00 30.54 LIG 0.19  C 
BRANCH 5 6
ATOM      6  CB  ASP E   2       3.256  -8.252 -13.302  1.00 32.40 LIG 0.15  C 
BRANCH 6 7
ATOM      7  CG  ASP E   2       1.983  -9.034 -13.067  1.00 34.09 LIG 0.17  C 
ATOM      8 OD2  ASP E   2       1.542  -9.110 -11.904  1.00 37.71 LIG-0.65  OA
ATOM      9 OD1  ASP E   2       1.414  -9.568 -14.045  1.00 36.77 LIG-0.65  OA
ENDBRANCH 6 7
ENDBRANCH 5 6
BRANCH 5 10
ATOM     10  C   ASP E   2       4.361  -6.059 -12.880  1.00 30.01 LIG 0.24  C 
ATOM     11 O    ASP E   2       4.161  -5.584 -13.998  1.00 27.94 LIG-0.27  OA
ATOM     12  N   LEU E   3       5.373  -5.705 -12.099  1.00 30.14 LIG-0.35  N 
ATOM     13 H    LEU E   3       5.503  -6.029 -11.313  1.00 30.14 LIG 0.16  HD
BRANCH 12 14
ATOM     14  CA  LEU E   3       6.365  -4.728 -12.508  1.00 30.90 LIG 0.18  C 
BRANCH 14 15
ATOM     15  C   LEU E   3       7.750  -5.374 -12.529  1.00 32.33 LIG 0.24  C 
ATOM     16 O    LEU E   3       8.663  -4.894 -13.211  1.00 31.45 LIG-0.27  OA
ATOM     17  N   ALA E   4       7.901  -6.443 -11.753  1.00 33.58 LIG-0.34  N 
ATOM     18 H    ALA E   4       7.267  -6.786 -11.284  1.00 33.58 LIG 0.16  HD
BRANCH 17 19
ATOM     19  CA  ALA E   4       9.180  -7.139 -11.630  1.00 35.71 LIG 0.18  C 
ATOM     20  CB  ALA E   4      10.229  -6.214 -11.034  1.00 36.03 LIG 0.04  C 
BRANCH 19 21
ATOM     21  C   ALA E   4       9.030  -8.385 -10.769  1.00 37.05 LIG 0.20  C 
ATOM     22 OXT  ALA E   4       8.215  -8.417  -9.850  1.00 36.72 LIG-0.65  OA
ATOM     23 O    ALA E   4       9.717  -9.388 -10.974  1.00 37.61 LIG-0.65  OA
ENDBRANCH 19 21
ENDBRANCH 17 19
ENDBRANCH 14 15
BRANCH 14 24
ATOM     24  CB  LEU E   3       6.332  -3.538 -11.548  1.00 30.03 LIG 0.04  C 
BRANCH 24 25
ATOM     25  CG  LEU E   3       7.380  -2.437 -11.677  1.00 29.85 LIG-0.02  C 
ATOM     26  CD1 LEU E   3       6.897  -1.288 -12.545  1.00 29.46 LIG 0.01  C 
ATOM     27  CD2 LEU E   3       7.744  -1.956 -10.283  1.00 29.65 LIG 0.01  C 
ENDBRANCH 24 25
ENDBRANCH 14 24
ENDBRANCH 12 14
ENDBRANCH 5 10
ENDBRANCH 3 5
BRANCH 1 28
ATOM     28  CA  LEU E   1       0.751  -4.676 -11.190  1.00 29.46 LIG 0.18  C 
BRANCH 28 29
ATOM     29  CB  LEU E   1       0.591  -3.958  -9.848  1.00 29.35 LIG 0.04  C 
BRANCH 29 30
ATOM     30  CG  LEU E   1      -0.857  -3.609  -9.472  1.00 30.22 LIG-0.02  C 
ATOM     31  CD2 LEU E   1      -0.988  -2.139  -9.099  1.00 31.32 LIG 0.01  C 
ATOM     32  CD1 LEU E   1      -1.359  -4.499  -8.350  1.00 30.06 LIG 0.01  C 
ENDBRANCH 29 30
ENDBRANCH 28 29
BRANCH 28 33
ATOM     33  N   LEU E   1      -0.294  -5.675 -11.389  1.00 28.73 LIG-0.35  N 
ATOM     34  C   GLN E   0      -0.441  -6.684 -10.538  1.00 28.95 LIG 0.24  C 
ATOM     35 O    GLN E   0       0.348  -6.906  -9.623  1.00 30.73 LIG-0.27  OA
ATOM     36 H    LEU E   1      -0.785  -5.550 -12.085  1.00 28.73 LIG 0.16  HD
BRANCH 34 37
ATOM     37  CA  GLN E   0      -1.644  -7.591 -10.740  1.00 28.12 LIG 0.18  C 
BRANCH 37 38
ATOM     38  CB  GLN E   0      -2.204  -7.377 -12.153  1.00 27.70 LIG 0.04  C 
BRANCH 38 39
ATOM     39  CG  GLN E   0      -1.284  -7.824 -13.287  1.00 26.51 LIG 0.10  C 
BRANCH 39 40
ATOM     40  CD  GLN E   0      -1.405  -6.941 -14.515  1.00 26.51 LIG 0.21  C 
ATOM     41 OE1  GLN E   0      -2.103  -7.292 -15.473  1.00 26.66 LIG-0.27  OA
ATOM     42  NE2 GLN E   0      -0.731  -5.792 -14.498  1.00 24.64 LIG-0.37  N 
ATOM     43 22HE GLN E   0      -0.773  -5.259 -15.172  1.00 24.64 LIG 0.16  HD
ATOM     44 21HE GLN E   0      -0.255  -5.582 -13.813  1.00 24.64 LIG 0.16  HD
ENDBRANCH 39 40
ENDBRANCH 38 39
ENDBRANCH 37 38
BRANCH 37 45
ATOM     45  N   GLN E   0      -2.694  -7.283  -9.705  1.00 28.94 LIG-0.35  N 
ATOM     46  C   ACE E  -1      -3.059  -8.163  -8.742  1.00 29.25 LIG 0.21  C 
ATOM     47 O    ACE E  -1      -2.179  -8.925  -8.330  1.00 28.69 LIG-0.27  OA
ATOM     48  CH3 ACE E  -1      -3.897  -7.492  -7.665  1.00 29.73 LIG 0.12  C 
ATOM     49 H    GLN E   0      -3.038  -6.499  -9.783  1.00 28.94 LIG 0.16  HD
ENDBRANCH 37 45
ENDBRANCH 34 37
ENDBRANCH 28 33
ENDBRANCH 1 28
TORSDOF 19
ENDMDL
MODEL 5
USER: ADFR SOLUTION from run 96
USER: SCORE 14.644850 LL:  -3.550 LR: -12.512 RR:   0.000 FEB:  -6.845
USER: RMSD 4.040345
USER: SEED 95
USER: STATUS no improvement in best in 11 clusters for 5 generations
USER: GENES 21
USER: genes 0 Translation |==|  0.50881 0.47538 0.53417
USER: genes 1 Rotation |==|  0.49916 0.57451 0.44510 0.99136
USER: genes 2 Torsion [C]-N--CA-[CB] |==|  0.52260
USER: genes 3 Torsion [N]-CA--CB-[CG] |==|  0.11891
USER: genes 4 Torsion [CA]-CB--CG-[OD2] |==|  0.30757
USER: genes 5 Torsion [N]-CA--C-[N] |==|  0.37547
USER: genes 6 Torsion [C]-N--CA-[C] |==|  0.60584
USER: genes 7 Torsion [N]-CA--C-[N] |==|  0.92859
USER: genes 8 Torsion [C]-N--CA-[CB] |==|  0.19436
USER: genes 9 Torsion [N]-CA--C-[OXT] |==|  0.00806
USER: genes 10 Torsion [N]-CA--CB-[CG] |==|  0.49576
USER: genes 11 Torsion [CA]-CB--CG-[CD2] |==|  0.73907
USER: genes 12 Torsion [N]-C--CA-[N] |==|  0.40156
USER: genes 13 Torsion [C]-CA--CB-[CG] |==|  0.34396
USER: genes 14 Torsion [CA]-CB--CG-[CD2] |==|  0.45441
USER: genes 15 Torsion [C]-CA--N-[C] |==|  0.83275
USER: genes 16 Torsion [N]-C--CA-[N] |==|  0.04804
USER: genes 17 Torsion [C]-CA--CB-[CG] |==|  0.63709
USER: genes 18 Torsion [CA]-CB--CG-[CD] |==|  0.75292
USER: genes 19 Torsion [CB]-CG--CD-[OE1] |==|  0.04935
USER: genes 20 Torsion [C]-CA--N-[C] |==|  0.63384
ROOT
ATOM      1  C   LEU E   1       2.960  -6.235 -12.660  1.00 28.67 LIG 0.24  C 
ATOM      2 O    LEU E   1       3.426  -5.524 -11.764  1.00 26.53 LIG-0.27  OA
ATOM      3  N   ASP E   2       3.657  -7.189 -13.271  1.00 29.47 LIG-0.35  N 
ATOM      4 H    ASP E   2       3.319  -7.751 -13.827  1.00 29.47 LIG 0.16  HD
ENDROOT
BRANCH 3 5
ATOM      5  CA  ASP E   2       5.080  -7.355 -13.034  1.00 30.54 LIG 0.19  C 
BRANCH 5 6
ATOM      6  CB  ASP E   2       5.692  -8.380 -13.994  1.00 32.40 LIG 0.15  C 
BRANCH 6 7
ATOM      7  CG  ASP E   2       5.191  -8.221 -15.412  1.00 34.09 LIG 0.17  C 
ATOM      8 OD2  ASP E   2       5.988  -7.810 -16.278  1.00 37.71 LIG-0.65  OA
ATOM      9 OD1  ASP E   2       4.003  -8.515 -15.668  1.00 36.77 LIG-0.65  OA
ENDBRANCH 6 7
ENDBRANCH 5 6
BRANCH 5 10
ATOM     10  C   ASP E   2       5.732  -6.008 -13.231  1.00 30.01 LIG 0.24  C 
ATOM     11 O    ASP E   2       5.431  -5.298 -14.191  1.00 27.94 LIG-0.27  OA
ATOM     12  N   LEU E   3       6.620  -5.664 -12.308  1.00 30.14 LIG-0.35  N 
ATOM     13 H    LEU E   3       6.818  -6.156 -11.631  1.00 30.14 LIG 0.16  HD
BRANCH 12 14
ATOM     14  CA  LEU E   3       7.346  -4.408 -12.360  1.00 30.90 LIG 0.18  C 
BRANCH 14 15
ATOM     15  C   LEU E   3       8.786  -4.624 -11.893  1.00 32.33 LIG 0.24  C 
ATOM     16 O    LEU E   3       9.690  -3.860 -12.251  1.00 31.45 LIG-0.27  OA
ATOM     17  N   ALA E   4       8.978  -5.649 -11.068  1.00 33.58 LIG-0.34  N 
ATOM     18 H    ALA E   4       8.355  -6.188 -10.822  1.00 33.58 LIG 0.16  HD
BRANCH 17 19
ATOM     19  CA  ALA E   4      10.290  -5.951 -10.498  1.00 35.71 LIG 0.18  C 
ATOM     20  CB  ALA E   4      10.683  -4.889  -9.485  1.00 36.03 LIG 0.04  C 
BRANCH 19 21
ATOM     21  C   ALA E   4      10.284  -7.325  -9.842  1.00 37.05 LIG 0.20  C 
ATOM     22 OXT  ALA E   4       9.283  -8.036  -9.888  1.00 36.72 LIG-0.65  OA
ATOM     23 O    ALA E   4      11.278  -7.755  -9.255  1.00 37.61 LIG-0.65  OA
ENDBRANCH 19 21
ENDBRANCH 17 19
ENDBRANCH 14 15
BRANCH 14 24
ATOM     24  CB  LEU E   3       6.637  -3.374 -11.485  1.00 30.03 LIG 0.04  C 
BRANCH 24 25
ATOM     25  CG  LEU E   3       7.227  -1.975 -11.344  1.00 29.85 LIG-0.02  C 
ATOM     26  CD1 LEU E   3       6.151  -0.905 -11.280  1.00 29.46 LIG 0.01  C 
ATOM     27  CD2 LEU E   3       8.104  -1.947 -10.103  1.00 29.65 LIG 0.01  C 
ENDBRANCH 24 25
ENDBRANCH 14 24
ENDBRANCH 12 14
ENDBRANCH 5 10
ENDBRANCH 3 5
BRANCH 1 28
ATOM     28  CA  LEU E   1       1.523  -6.068 -13.119  1.00 29.46 LIG 0.18  C 
BRANCH 28 29
ATOM     29  CB  LEU E   1       1.433  -5.020 -14.230  1.00 29.35 LIG 0.04  C 
BRANCH 29 30
ATOM     30  CG  LEU E   1       0.785  -5.514 -15.532  1.00 30.22 LIG-0.02  C 
ATOM     31  CD2 LEU E   1       0.371  -4.347 -16.417  1.00 31.32 LIG 0.01  C 
ATOM     32  CD1 LEU E   1      -0.399  -6.420 -15.243  1.00 30.06 LIG 0.01  C 
ENDBRANCH 29 30
ENDBRANCH 28 29
BRANCH 28 33
ATOM     33  N   LEU E   1       0.691  -5.706 -11.975  1.00 28.73 LIG-0.35  N 
ATOM     34  C   GLN E   0       0.590  -6.514 -10.925  1.00 28.95 LIG 0.24  C 
ATOM     35 O    GLN E   0       1.078  -7.641 -10.901  1.00 30.73 LIG-0.27  OA
ATOM     36 H    LEU E   1       0.289  -4.949 -12.046  1.00 28.73 LIG 0.16  HD
BRANCH 34 37
ATOM     37  CA  GLN E   0      -0.176  -5.992  -9.721  1.00 28.12 LIG 0.18  C 
BRANCH 37 38
ATOM     38  CB  GLN E   0      -1.054  -7.117  -9.156  1.00 27.70 LIG 0.04  C 
BRANCH 38 39
ATOM     39  CG  GLN E   0      -2.511  -6.735  -8.907  1.00 26.51 LIG 0.10  C 
BRANCH 39 40
ATOM     40  CD  GLN E   0      -2.733  -6.167  -7.518  1.00 26.51 LIG 0.21  C 
ATOM     41 OE1  GLN E   0      -1.779  -5.750  -6.851  1.00 26.66 LIG-0.27  OA
ATOM     42  NE2 GLN E   0      -3.988  -6.142  -7.071  1.00 24.64 LIG-0.37  N 
ATOM     43 22HE GLN E   0      -4.160  -5.826  -6.290  1.00 24.64 LIG 0.16  HD
ATOM     44 21HE GLN E   0      -4.626  -6.441  -7.565  1.00 24.64 LIG 0.16  HD
ENDBRANCH 39 40
ENDBRANCH 38 39
ENDBRANCH 37 38
BRANCH 37 45
ATOM     45  N   GLN E   0      -1.024  -4.816 -10.128  1.00 28.94 LIG-0.35  N 
ATOM     46  C   ACE E  -1      -1.050  -3.652  -9.434  1.00 29.25 LIG 0.21  C 
ATOM     47 O    ACE E  -1      -0.003  -3.324  -8.869  1.00 28.69 LIG-0.27  OA
ATOM     48  CH3 ACE E  -1      -1.738  -2.550 -10.224  1.00 29.73 LIG 0.12  C 
ATOM     49 H    GLN E   0      -1.488  -4.951 -10.838  1.00 28.94 LIG 0.16  HD
ENDBRANCH 37 45
ENDBRANCH 34 37
ENDBRANCH 28 33
ENDBRANCH 1 28
TORSDOF 19
ENDMDL
MODEL 6
USER: ADFR SOLUTION from run 124
USER: SCORE 13.967922 LL:  -3.381 LR: -12.491 RR:   0.000 FEB:  -6.823
USER: RMSD 9.089606
USER: SEED 123
USER: STATUS no improvement in best in 6 clusters for 5 generations
USER: GENES 21
USER: genes 0 Translation |==|  0.38964 0.42520 0.51406
USER: genes 1 Rotation |==|  0.47052 0.62247 0.01813 0.54397
USER: genes 2 Torsion [C]-N--CA-[CB] |==|  0.88062
USER: genes 3 Torsion [N]-CA--CB-[CG] |==|  0.76667
USER: genes 4 Torsion [CA]-CB--CG-[OD2] |==|  0.98599
USER: genes 5 Torsion [N]-CA--C-[N] |==|  0.38011
USER: genes 6 Torsion [C]-N--CA-[C] |==|  0.17987
USER: genes 7 Torsion [N]-CA--C-[N] |==|  0.04639
USER: genes 8 Torsion [C]-N--CA-[CB] |==|  0.30286
USER: genes 9 Torsion [N]-CA--C-[OXT] |==|  0.89793
USER: genes 10 Torsion [N]-CA--CB-[CG] |==|  0.64443
USER: genes 11 Torsion [CA]-CB--CG-[CD2] |==|  0.85071
USER: genes 12 Torsion [N]-C--CA-[N] |==|  0.91264
USER: genes 13 Torsion [C]-CA--CB-[CG] |==|  0.28247
USER: genes 14 Torsion [CA]-CB--CG-[CD2] |==|  0.53005
USER: genes 15 Torsion [C]-CA--N-[C] |==|  0.62778
USER: genes 16 Torsion [N]-C--CA-[N] |==|  0.64290
USER: genes 17 Torsion [C]-CA--CB-[CG] |==|  0.43623
USER: genes 18 Torsion [CA]-CB--CG-[CD] |==|  0.25575
USER: genes 19 Torsion [CB]-CG--CD-[OE1] |==|  0.90463
USER: genes 20 Torsion [C]-CA--N-[C] |==|  0.71811
ROOT
ATOM      1  C   LEU E   1       0.279  -7.138 -12.992  1.00 28.67 LIG 0.24  C 
ATOM      2 O    LEU E   1       0.521  -8.250 -12.510  1.00 26.53 LIG-0.27  OA
ATOM      3  N   ASP E   2      -0.894  -6.525 -12.859  1.00 29.47 LIG-0.35  N 
ATOM      4 H    ASP E   2      -1.045  -5.716 -13.108  1.00 29.47 LIG 0.16  HD
ENDROOT
BRANCH 3 5
ATOM      5  CA  ASP E   2      -2.036  -7.198 -12.268  1.00 30.54 LIG 0.19  C 
BRANCH 5 6
ATOM      6  CB  ASP E   2      -2.167  -8.636 -12.781  1.00 32.40 LIG 0.15  C 
BRANCH 6 7
ATOM      7  CG  ASP E   2      -2.901  -8.718 -14.101  1.00 34.09 LIG 0.17  C 
ATOM      8 OD2  ASP E   2      -3.390  -7.672 -14.571  1.00 37.71 LIG-0.65  OA
ATOM      9 OD1  ASP E   2      -2.983  -9.825 -14.677  1.00 36.77 LIG-0.65  OA
ENDBRANCH 6 7
ENDBRANCH 5 6
BRANCH 5 10
ATOM     10  C   ASP E   2      -1.838  -7.199 -10.772  1.00 30.01 LIG 0.24  C 
ATOM     11 O    ASP E   2      -0.735  -7.449 -10.284  1.00 27.94 LIG-0.27  OA
ATOM     12  N   LEU E   3      -2.913  -6.907 -10.053  1.00 30.14 LIG-0.35  N 
ATOM     13 H    LEU E   3      -3.679  -6.719 -10.397  1.00 30.14 LIG 0.16  HD
BRANCH 12 14
ATOM     14  CA  LEU E   3      -2.893  -6.881  -8.602  1.00 30.90 LIG 0.18  C 
BRANCH 14 15
ATOM     15  C   LEU E   3      -1.969  -5.763  -8.119  1.00 32.33 LIG 0.24  C 
ATOM     16 O    LEU E   3      -1.534  -5.756  -6.961  1.00 31.45 LIG-0.27  OA
ATOM     17  N   ALA E   4      -1.653  -4.842  -9.024  1.00 33.58 LIG-0.34  N 
ATOM     18 H    ALA E   4      -1.959  -4.838  -9.828  1.00 33.58 LIG 0.16  HD
BRANCH 17 19
ATOM     19  CA  ALA E   4      -0.740  -3.740  -8.725  1.00 35.71 LIG 0.18  C 
ATOM     20  CB  ALA E   4       0.580  -3.936  -9.453  1.00 36.03 LIG 0.04  C 
BRANCH 19 21
ATOM     21  C   ALA E   4      -1.363  -2.409  -9.119  1.00 37.05 LIG 0.20  C 
ATOM     22 OXT  ALA E   4      -2.062  -2.317 -10.126  1.00 36.72 LIG-0.65  OA
ATOM     23 O    ALA E   4      -1.185  -1.396  -8.440  1.00 37.61 LIG-0.65  OA
ENDBRANCH 19 21
ENDBRANCH 17 19
ENDBRANCH 14 15
BRANCH 14 24
ATOM     24  CB  LEU E   3      -2.429  -8.239  -8.075  1.00 30.03 LIG 0.04  C 
BRANCH 24 25
ATOM     25  CG  LEU E   3      -3.267  -8.968  -7.029  1.00 29.85 LIG-0.02  C 
ATOM     26  CD1 LEU E   3      -2.613 -10.259  -6.572  1.00 29.46 LIG 0.01  C 
ATOM     27  CD2 LEU E   3      -3.500  -8.025  -5.860  1.00 29.65 LIG 0.01  C 
ENDBRANCH 24 25
ENDBRANCH 14 24
ENDBRANCH 12 14
ENDBRANCH 5 10
ENDBRANCH 3 5
BRANCH 1 28
ATOM     28  CA  LEU E   1       1.338  -6.380 -13.772  1.00 29.46 LIG 0.18  C 
BRANCH 28 29
ATOM     29  CB  LEU E   1       2.193  -5.532 -12.830  1.00 29.35 LIG 0.04  C 
BRANCH 29 30
ATOM     30  CG  LEU E   1       3.569  -6.127 -12.495  1.00 30.22 LIG-0.02  C 
ATOM     31  CD2 LEU E   1       4.236  -5.364 -11.359  1.00 31.32 LIG 0.01  C 
ATOM     32  CD1 LEU E   1       4.462  -6.162 -13.721  1.00 30.06 LIG 0.01  C 
ENDBRANCH 29 30
ENDBRANCH 28 29
BRANCH 28 33
ATOM     33  N   LEU E   1       0.691  -5.559 -14.791  1.00 28.73 LIG-0.35  N 
ATOM     34  C   GLN E   0       1.150  -5.535 -16.037  1.00 28.95 LIG 0.24  C 
ATOM     35 O    GLN E   0       2.192  -6.090 -16.376  1.00 30.73 LIG-0.27  OA
ATOM     36 H    LEU E   1       0.010  -5.111 -14.515  1.00 28.73 LIG 0.16  HD
BRANCH 34 37
ATOM     37  CA  GLN E   0       0.328  -4.771 -17.063  1.00 28.12 LIG 0.18  C 
BRANCH 37 38
ATOM     38  CB  GLN E   0      -0.994  -4.331 -16.422  1.00 27.70 LIG 0.04  C 
BRANCH 38 39
ATOM     39  CG  GLN E   0      -1.668  -3.133 -17.088  1.00 26.51 LIG 0.10  C 
BRANCH 39 40
ATOM     40  CD  GLN E   0      -2.662  -3.547 -18.157  1.00 26.51 LIG 0.21  C 
ATOM     41 OE1  GLN E   0      -2.454  -4.548 -18.853  1.00 26.66 LIG-0.27  OA
ATOM     42  NE2 GLN E   0      -3.747  -2.786 -18.297  1.00 24.64 LIG-0.37  N 
ATOM     43 22HE GLN E   0      -4.338  -2.985 -18.889  1.00 24.64 LIG 0.16  HD
ATOM     44 21HE GLN E   0      -3.856  -2.097 -17.794  1.00 24.64 LIG 0.16  HD
ENDBRANCH 39 40
ENDBRANCH 38 39
ENDBRANCH 37 38
BRANCH 37 45
ATOM     45  N   GLN E   0       0.068  -5.646 -18.261  1.00 28.94 LIG-0.35  N 
ATOM     46  C   ACE E  -1       0.762  -5.534 -19.419  1.00 29.25 LIG 0.21  C 
ATOM     47 O    ACE E  -1       1.941  -5.181 -19.322  1.00 28.69 LIG-0.27  OA
ATOM     48  CH3 ACE E  -1       0.510  -6.722 -20.334  1.00 29.73 LIG 0.12  C 
ATOM     49 H    GLN E   0      -0.561  -6.220 -18.141  1.00 28.94 LIG 0.16  HD
ENDBRANCH 37 45
ENDBRANCH 34 37
ENDBRANCH 28 33
ENDBRANCH 1 28
TORSDOF 19
ENDMDL
MODEL 7
USER: ADFR SOLUTION from run 81
USER: SCORE 13.207328 LL:  -3.689 LR: -12.482 RR:   0.000 FEB:  -6.814
USER: RMSD 10.086881
USER: SEED 80
USER: STATUS no improvement in best in 14 clusters for 5 generations
USER: GENES 21
USER: genes 0 Translation |==|  0.67533 0.56500 0.54596
USER: genes 1 Rotation |==|  0.41518 0.90953 0.26267 0.63700
USER: genes 2 Torsion [C]-N--CA-[CB] |==|  0.32561
USER: genes 3 Torsion [N]-CA--CB-[CG] |==|  0.76750
USER: genes 4 Torsion [CA]-CB--CG-[OD2] |==|  0.22570
USER: genes 5 Torsion [N]-CA--C-[N] |==|  0.81452
USER: genes 6 Torsion [C]-N--CA-[C] |==|  0.59907
USER: genes 7 Torsion [N]-CA--C-[N] |==|  0.58331
USER: genes 8 Torsion [C]-N--CA-[CB] |==|  0.24915
USER: genes 9 Torsion [N]-CA--C-[OXT] |==|  0.80369
USER: genes 10 Torsion [N]-CA--CB-[CG] |==|  0.65917
USER: genes 11 Torsion [CA]-CB--CG-[CD2] |==|  0.06793
USER: genes 12 Torsion [N]-C--CA-[N] |==|  0.36278
USER: genes 13 Torsion [C]-CA--CB-[CG] |==|  0.40814
USER: genes 14 Torsion [CA]-CB--CG-[CD2] |==|  0.52559
USER: genes 15 Torsion [C]-CA--N-[C] |==|  0.64544
USER: genes 16 Torsion [N]-C--CA-[N] |==|  0.27180
USER: genes 17 Torsion [C]-CA--CB-[CG] |==|  0.24996
USER: genes 18 Torsion [CA]-CB--CG-[CD] |==|  0.99872
USER: genes 19 Torsion [CB]-CG--CD-[OE1] |==|  0.25733
USER: genes 20 Torsion [C]-CA--N-[C] |==|  0.65591
ROOT
ATOM      1  C   LEU E   1       6.707  -4.622 -12.466  1.00 28.67 LIG 0.24  C 
ATOM      2 O    LEU E   1       7.272  -4.922 -13.522  1.00 26.53 LIG-0.27  OA
ATOM      3  N   ASP E   2       5.687  -5.311 -11.962  1.00 29.47 LIG-0.35  N 
ATOM      4 H    ASP E   2       5.347  -5.170 -11.185  1.00 29.47 LIG 0.16  HD
ENDROOT
BRANCH 3 5
ATOM      5  CA  ASP E   2       5.056  -6.383 -12.711  1.00 30.54 LIG 0.19  C 
BRANCH 5 6
ATOM      6  CB  ASP E   2       5.211  -7.731 -12.000  1.00 32.40 LIG 0.15  C 
BRANCH 6 7
ATOM      7  CG  ASP E   2       6.536  -8.397 -12.300  1.00 34.09 LIG 0.17  C 
ATOM      8 OD2  ASP E   2       7.541  -8.028 -11.661  1.00 37.71 LIG-0.65  OA
ATOM      9 OD1  ASP E   2       6.575  -9.298 -13.167  1.00 36.77 LIG-0.65  OA
ENDBRANCH 6 7
ENDBRANCH 5 6
BRANCH 5 10
ATOM     10  C   ASP E   2       3.594  -6.038 -12.852  1.00 30.01 LIG 0.24  C 
ATOM     11 O    ASP E   2       3.111  -5.786 -13.957  1.00 27.94 LIG-0.27  OA
ATOM     12  N   LEU E   3       2.896  -6.038 -11.724  1.00 30.14 LIG-0.35  N 
ATOM     13 H    LEU E   3       3.233  -6.227 -10.956  1.00 30.14 LIG 0.16  HD
BRANCH 12 14
ATOM     14  CA  LEU E   3       1.482  -5.712 -11.686  1.00 30.90 LIG 0.18  C 
BRANCH 14 15
ATOM     15  C   LEU E   3       1.161  -4.953 -10.399  1.00 32.33 LIG 0.24  C 
ATOM     16 O    LEU E   3       2.000  -4.212  -9.874  1.00 31.45 LIG-0.27  OA
ATOM     17  N   ALA E   4      -0.067  -5.122  -9.919  1.00 33.58 LIG-0.34  N 
ATOM     18 H    ALA E   4      -0.652  -5.642 -10.276  1.00 33.58 LIG 0.16  HD
BRANCH 17 19
ATOM     19  CA  ALA E   4      -0.537  -4.424  -8.724  1.00 35.71 LIG 0.18  C 
ATOM     20  CB  ALA E   4      -1.165  -3.092  -9.103  1.00 36.03 LIG 0.04  C 
BRANCH 19 21
ATOM     21  C   ALA E   4      -1.541  -5.279  -7.966  1.00 37.05 LIG 0.20  C 
ATOM     22 OXT  ALA E   4      -2.665  -5.480  -8.422  1.00 36.72 LIG-0.65  OA
ATOM     23 O    ALA E   4      -1.253  -5.792  -6.882  1.00 37.61 LIG-0.65  OA
ENDBRANCH 19 21
ENDBRANCH 17 19
ENDBRANCH 14 15
BRANCH 14 24
ATOM     24  CB  LEU E   3       0.662  -6.999 -11.781  1.00 30.03 LIG 0.04  C 
BRANCH 24 25
ATOM     25  CG  LEU E   3      -0.357  -7.162 -12.905  1.00 29.85 LIG-0.02  C 
ATOM     26  CD1 LEU E   3      -1.770  -6.849 -12.445  1.00 29.46 LIG 0.01  C 
ATOM     27  CD2 LEU E   3       0.056  -6.267 -14.060  1.00 29.65 LIG 0.01  C 
ENDBRANCH 24 25
ENDBRANCH 14 24
ENDBRANCH 12 14
ENDBRANCH 5 10
ENDBRANCH 3 5
BRANCH 1 28
ATOM     28  CA  LEU E   1       7.165  -3.426 -11.650  1.00 29.46 LIG 0.18  C 
BRANCH 28 29
ATOM     29  CB  LEU E   1       6.732  -2.122 -12.321  1.00 29.35 LIG 0.04  C 
BRANCH 29 30
ATOM     30  CG  LEU E   1       6.396  -0.978 -11.353  1.00 30.22 LIG-0.02  C 
ATOM     31  CD2 LEU E   1       5.764   0.196 -12.087  1.00 31.32 LIG 0.01  C 
ATOM     32  CD1 LEU E   1       7.627  -0.535 -10.584  1.00 30.06 LIG 0.01  C 
ENDBRANCH 29 30
ENDBRANCH 28 29
BRANCH 28 33
ATOM     33  N   LEU E   1       8.614  -3.484 -11.482  1.00 28.73 LIG-0.35  N 
ATOM     34  C   GLN E   0       9.162  -3.398 -10.275  1.00 28.95 LIG 0.24  C 
ATOM     35 O    GLN E   0       8.512  -3.146  -9.263  1.00 30.73 LIG-0.27  OA
ATOM     36 H    LEU E   1       9.059  -3.577 -12.212  1.00 28.73 LIG 0.16  HD
BRANCH 34 37
ATOM     37  CA  GLN E   0      10.663  -3.616 -10.179  1.00 28.12 LIG 0.18  C 
BRANCH 37 38
ATOM     38  CB  GLN E   0      10.975  -4.418  -8.908  1.00 27.70 LIG 0.04  C 
BRANCH 38 39
ATOM     39  CG  GLN E   0      10.980  -5.934  -9.087  1.00 26.51 LIG 0.10  C 
BRANCH 39 40
ATOM     40  CD  GLN E   0      10.658  -6.352 -10.510  1.00 26.51 LIG 0.21  C 
ATOM     41 OE1  GLN E   0      11.565  -6.540 -11.329  1.00 26.66 LIG-0.27  OA
ATOM     42  NE2 GLN E   0       9.371  -6.504 -10.816  1.00 24.64 LIG-0.37  N 
ATOM     43 22HE GLN E   0       9.143  -6.743 -11.610  1.00 24.64 LIG 0.16  HD
ATOM     44 21HE GLN E   0       8.767  -6.364 -10.219  1.00 24.64 LIG 0.16  HD
ENDBRANCH 39 40
ENDBRANCH 38 39
ENDBRANCH 37 38
BRANCH 37 45
ATOM     45  N   GLN E   0      11.371  -2.287 -10.151  1.00 28.94 LIG-0.35  N 
ATOM     46  C   ACE E  -1      12.334  -1.946 -11.041  1.00 29.25 LIG 0.21  C 
ATOM     47 O    ACE E  -1      12.222  -2.413 -12.178  1.00 28.69 LIG-0.27  OA
ATOM     48  CH3 ACE E  -1      12.650  -0.461 -10.974  1.00 29.73 LIG 0.12  C 
ATOM     49 H    GLN E   0      11.107  -1.767  -9.519  1.00 28.94 LIG 0.16  HD
ENDBRANCH 37 45
ENDBRANCH 34 37
ENDBRANCH 28 33
ENDBRANCH 1 28
TORSDOF 19
ENDMDL
MODEL 8
USER: ADFR SOLUTION from run 164
USER: SCORE 12.769598 LL:  -3.172 LR: -12.473 RR:   0.000 FEB:  -6.806
USER: RMSD 9.949781
USER: SEED 163
USER: STATUS no improvement in best in 13 clusters for 5 generations
USER: GENES 21
USER: genes 0 Translation |==|  0.66482 0.60598 0.55132
USER: genes 1 Rotation |==|  0.40827 0.94878 0.31278 0.57161
USER: genes 2 Torsion [C]-N--CA-[CB] |==|  0.26083
USER: genes 3 Torsion [N]-CA--CB-[CG] |==|  0.67861
USER: genes 4 Torsion [CA]-CB--CG-[OD2] |==|  0.85538
USER: genes 5 Torsion [N]-CA--C-[N] |==|  0.49425
USER: genes 6 Torsion [C]-N--CA-[C] |==|  0.48901
USER: genes 7 Torsion [N]-CA--C-[N] |==|  0.45881
USER: genes 8 Torsion [C]-N--CA-[CB] |==|  0.46269
USER: genes 9 Torsion [N]-CA--C-[OXT] |==|  0.19452
USER: genes 10 Torsion [N]-CA--CB-[CG] |==|  0.61908
USER: genes 11 Torsion [CA]-CB--CG-[CD2] |==|  0.29792
USER: genes 12 Torsion [N]-C--CA-[N] |==|  0.27280
USER: genes 13 Torsion [C]-CA--CB-[CG] |==|  0.38114
USER: genes 14 Torsion [CA]-CB--CG-[CD2] |==|  0.15254
USER: genes 15 Torsion [C]-CA--N-[C] |==|  0.63457
USER: genes 16 Torsion [N]-C--CA-[N] |==|  0.88069
USER: genes 17 Torsion [C]-CA--CB-[CG] |==|  0.01567
USER: genes 18 Torsion [CA]-CB--CG-[CD] |==|  0.56449
USER: genes 19 Torsion [CB]-CG--CD-[OE1] |==|  0.15247
USER: genes 20 Torsion [C]-CA--N-[C] |==|  0.59445
ROOT
ATOM      1  C   LEU E   1       6.471  -3.884 -12.377  1.00 28.67 LIG 0.24  C 
ATOM      2 O    LEU E   1       6.669  -3.998 -13.591  1.00 26.53 LIG-0.27  OA
ATOM      3  N   ASP E   2       5.579  -4.613 -11.713  1.00 29.47 LIG-0.35  N 
ATOM      4 H    ASP E   2       5.497  -4.612 -10.857  1.00 29.47 LIG 0.16  HD
ENDROOT
BRANCH 3 5
ATOM      5  CA  ASP E   2       4.652  -5.490 -12.406  1.00 30.54 LIG 0.19  C 
BRANCH 5 6
ATOM      6  CB  ASP E   2       5.194  -6.920 -12.497  1.00 32.40 LIG 0.15  C 
BRANCH 6 7
ATOM      7  CG  ASP E   2       5.454  -7.354 -13.922  1.00 34.09 LIG 0.17  C 
ATOM      8 OD2  ASP E   2       4.536  -7.225 -14.756  1.00 37.71 LIG-0.65  OA
ATOM      9 OD1  ASP E   2       6.578  -7.817 -14.216  1.00 36.77 LIG-0.65  OA
ENDBRANCH 6 7
ENDBRANCH 5 6
BRANCH 5 10
ATOM     10  C   ASP E   2       3.354  -5.477 -11.636  1.00 30.01 LIG 0.24  C 
ATOM     11 O    ASP E   2       3.244  -4.822 -10.599  1.00 27.94 LIG-0.27  OA
ATOM     12  N   LEU E   3       2.373  -6.200 -12.160  1.00 30.14 LIG-0.35  N 
ATOM     13 H    LEU E   3       2.448  -6.645 -12.892  1.00 30.14 LIG 0.16  HD
BRANCH 12 14
ATOM     14  CA  LEU E   3       1.067  -6.304 -11.534  1.00 30.90 LIG 0.18  C 
BRANCH 14 15
ATOM     15  C   LEU E   3       0.132  -7.122 -12.424  1.00 32.33 LIG 0.24  C 
ATOM     16 O    LEU E   3       0.434  -7.377 -13.596  1.00 31.45 LIG-0.27  OA
ATOM     17  N   ALA E   4      -0.986  -7.554 -11.847  1.00 33.58 LIG-0.34  N 
ATOM     18 H    ALA E   4      -1.204  -7.373 -11.035  1.00 33.58 LIG 0.16  HD
BRANCH 17 19
ATOM     19  CA  ALA E   4      -1.954  -8.389 -12.555  1.00 35.71 LIG 0.18  C 
ATOM     20  CB  ALA E   4      -2.944  -8.997 -11.575  1.00 36.03 LIG 0.04  C 
BRANCH 19 21
ATOM     21  C   ALA E   4      -2.691  -7.575 -13.608  1.00 37.05 LIG 0.20  C 
ATOM     22 OXT  ALA E   4      -2.111  -7.184 -14.618  1.00 36.72 LIG-0.65  OA
ATOM     23 O    ALA E   4      -3.884  -7.292 -13.476  1.00 37.61 LIG-0.65  OA
ENDBRANCH 19 21
ENDBRANCH 17 19
ENDBRANCH 14 15
BRANCH 14 24
ATOM     24  CB  LEU E   3       0.505  -4.902 -11.294  1.00 30.03 LIG 0.04  C 
BRANCH 24 25
ATOM     25  CG  LEU E   3      -0.184  -4.584  -9.971  1.00 29.85 LIG-0.02  C 
ATOM     26  CD1 LEU E   3      -0.555  -5.840  -9.203  1.00 29.46 LIG 0.01  C 
ATOM     27  CD2 LEU E   3       0.735  -3.691  -9.154  1.00 29.65 LIG 0.01  C 
ENDBRANCH 24 25
ENDBRANCH 14 24
ENDBRANCH 12 14
ENDBRANCH 5 10
ENDBRANCH 3 5
BRANCH 1 28
ATOM     28  CA  LEU E   1       7.265  -2.891 -11.548  1.00 29.46 LIG 0.18  C 
BRANCH 28 29
ATOM     29  CB  LEU E   1       7.418  -1.568 -12.298  1.00 29.35 LIG 0.04  C 
BRANCH 29 30
ATOM     30  CG  LEU E   1       7.213  -0.311 -11.439  1.00 30.22 LIG-0.02  C 
ATOM     31  CD2 LEU E   1       8.133  -0.319 -10.226  1.00 31.32 LIG 0.01  C 
ATOM     32  CD1 LEU E   1       5.762  -0.170 -11.016  1.00 30.06 LIG 0.01  C 
ENDBRANCH 29 30
ENDBRANCH 28 29
BRANCH 28 33
ATOM     33  N   LEU E   1       8.563  -3.471 -11.215  1.00 28.73 LIG-0.35  N 
ATOM     34  C   GLN E   0       9.021  -3.443  -9.969  1.00 28.95 LIG 0.24  C 
ATOM     35 O    GLN E   0       8.454  -2.837  -9.063  1.00 30.73 LIG-0.27  OA
ATOM     36 H    LEU E   1       8.984  -3.817 -11.881  1.00 28.73 LIG 0.16  HD
BRANCH 34 37
ATOM     37  CA  GLN E   0      10.309  -4.198  -9.688  1.00 28.12 LIG 0.18  C 
BRANCH 37 38
ATOM     38  CB  GLN E   0      11.500  -3.363 -10.178  1.00 27.70 LIG 0.04  C 
BRANCH 38 39
ATOM     39  CG  GLN E   0      11.144  -1.967 -10.684  1.00 26.51 LIG 0.10  C 
BRANCH 39 40
ATOM     40  CD  GLN E   0      12.184  -1.414 -11.641  1.00 26.51 LIG 0.21  C 
ATOM     41 OE1  GLN E   0      12.512  -2.052 -12.647  1.00 26.66 LIG-0.27  OA
ATOM     42  NE2 GLN E   0      12.707  -0.226 -11.340  1.00 24.64 LIG-0.37  N 
ATOM     43 22HE GLN E   0      13.298   0.126 -11.856  1.00 24.64 LIG 0.16  HD
ATOM     44 21HE GLN E   0      12.453   0.188 -10.630  1.00 24.64 LIG 0.16  HD
ENDBRANCH 39 40
ENDBRANCH 38 39
ENDBRANCH 37 38
BRANCH 37 45
ATOM     45  N   GLN E   0      10.280  -5.533 -10.384  1.00 28.94 LIG-0.35  N 
ATOM     46  C   ACE E  -1      10.856  -6.646  -9.868  1.00 29.25 LIG 0.21  C 
ATOM     47 O    ACE E  -1      10.866  -6.740  -8.638  1.00 28.69 LIG-0.27  OA
ATOM     48  CH3 ACE E  -1      10.415  -7.896 -10.615  1.00 29.73 LIG 0.12  C 
ATOM     49 H    GLN E   0       9.865  -5.523 -11.137  1.00 28.94 LIG 0.16  HD
ENDBRANCH 37 45
ENDBRANCH 34 37
ENDBRANCH 28 33
ENDBRANCH 1 28
TORSDOF 19
ENDMDL
MODEL 9
USER: ADFR SOLUTION from run 81
USER: SCORE 14.153051 LL:  -3.788 LR: -12.445 RR:   0.000 FEB:  -6.778
USER: RMSD 10.056078
USER: SEED 80
USER: STATUS no improvement in best in 14 clusters for 5 generations
USER: GENES 21
USER: genes 0 Translation |==|  0.68507 0.56247 0.56426
USER: genes 1 Rotation |==|  0.47084 0.87837 0.22432 0.67317
USER: genes 2 Torsion [C]-N--CA-[CB] |==|  0.26621
USER: genes 3 Torsion [N]-CA--CB-[CG] |==|  0.53738
USER: genes 4 Torsion [CA]-CB--CG-[OD2] |==|  0.30053
USER: genes 5 Torsion [N]-CA--C-[N] |==|  0.82778
USER: genes 6 Torsion [C]-N--CA-[C] |==|  0.59776
USER: genes 7 Torsion [N]-CA--C-[N] |==|  0.59032
USER: genes 8 Torsion [C]-N--CA-[CB] |==|  0.22907
USER: genes 9 Torsion [N]-CA--C-[OXT] |==|  0.83188
USER: genes 10 Torsion [N]-CA--CB-[CG] |==|  0.63735
USER: genes 11 Torsion [CA]-CB--CG-[CD2] |==|  0.10481
USER: genes 12 Torsion [N]-C--CA-[N] |==|  0.39770
USER: genes 13 Torsion [C]-CA--CB-[CG] |==|  0.40350
USER: genes 14 Torsion [CA]-CB--CG-[CD2] |==|  0.51458
USER: genes 15 Torsion [C]-CA--N-[C] |==|  0.65077
USER: genes 16 Torsion [N]-C--CA-[N] |==|  0.92306
USER: genes 17 Torsion [C]-CA--CB-[CG] |==|  0.84237
USER: genes 18 Torsion [CA]-CB--CG-[CD] |==|  0.65936
USER: genes 19 Torsion [CB]-CG--CD-[OE1] |==|  0.18702
USER: genes 20 Torsion [C]-CA--N-[C] |==|  0.79332
ROOT
ATOM      1  C   LEU E   1       6.926  -4.668 -12.164  1.00 28.67 LIG 0.24  C 
ATOM      2 O    LEU E   1       7.708  -5.154 -12.986  1.00 26.53 LIG-0.27  OA
ATOM      3  N   ASP E   2       5.718  -5.167 -11.922  1.00 29.47 LIG-0.35  N 
ATOM      4 H    ASP E   2       5.203  -4.897 -11.289  1.00 29.47 LIG 0.16  HD
ENDROOT
BRANCH 3 5
ATOM      5  CA  ASP E   2       5.166  -6.237 -12.733  1.00 30.54 LIG 0.19  C 
BRANCH 5 6
ATOM      6  CB  ASP E   2       5.404  -7.608 -12.092  1.00 32.40 LIG 0.15  C 
BRANCH 6 7
ATOM      7  CG  ASP E   2       5.138  -8.751 -13.047  1.00 34.09 LIG 0.17  C 
ATOM      8 OD2  ASP E   2       6.113  -9.393 -13.485  1.00 37.71 LIG-0.65  OA
ATOM      9 OD1  ASP E   2       3.956  -9.015 -13.357  1.00 36.77 LIG-0.65  OA
ENDBRANCH 6 7
ENDBRANCH 5 6
BRANCH 5 10
ATOM     10  C   ASP E   2       3.685  -5.981 -12.874  1.00 30.01 LIG 0.24  C 
ATOM     11 O    ASP E   2       3.182  -5.790 -13.982  1.00 27.94 LIG-0.27  OA
ATOM     12  N   LEU E   3       2.995  -5.989 -11.742  1.00 30.14 LIG-0.35  N 
ATOM     13 H    LEU E   3       3.346  -6.137 -10.971  1.00 30.14 LIG 0.16  HD
BRANCH 12 14
ATOM     14  CA  LEU E   3       1.564  -5.745 -11.703  1.00 30.90 LIG 0.18  C 
BRANCH 14 15
ATOM     15  C   LEU E   3       1.205  -4.980 -10.430  1.00 32.33 LIG 0.24  C 
ATOM     16 O    LEU E   3       1.982  -4.147  -9.950  1.00 31.45 LIG-0.27  OA
ATOM     17  N   ALA E   4       0.010  -5.249  -9.912  1.00 33.58 LIG-0.34  N 
ATOM     18 H    ALA E   4      -0.531  -5.833 -10.237  1.00 33.58 LIG 0.16  HD
BRANCH 17 19
ATOM     19  CA  ALA E   4      -0.494  -4.561  -8.725  1.00 35.71 LIG 0.18  C 
ATOM     20  CB  ALA E   4      -1.098  -3.220  -9.108  1.00 36.03 LIG 0.04  C 
BRANCH 19 21
ATOM     21  C   ALA E   4      -1.530  -5.417  -8.010  1.00 37.05 LIG 0.20  C 
ATOM     22 OXT  ALA E   4      -2.564  -5.757  -8.582  1.00 36.72 LIG-0.65  OA
ATOM     23 O    ALA E   4      -1.357  -5.791  -6.849  1.00 37.61 LIG-0.65  OA
ENDBRANCH 19 21
ENDBRANCH 17 19
ENDBRANCH 14 15
BRANCH 14 24
ATOM     24  CB  LEU E   3       0.819  -7.079 -11.767  1.00 30.03 LIG 0.04  C 
BRANCH 24 25
ATOM     25  CG  LEU E   3      -0.318  -7.260 -12.768  1.00 29.85 LIG-0.02  C 
ATOM     26  CD1 LEU E   3      -1.643  -6.756 -12.224  1.00 29.46 LIG 0.01  C 
ATOM     27  CD2 LEU E   3       0.056  -6.542 -14.054  1.00 29.65 LIG 0.01  C 
ENDBRANCH 24 25
ENDBRANCH 14 24
ENDBRANCH 12 14
ENDBRANCH 5 10
ENDBRANCH 3 5
BRANCH 1 28
ATOM     28  CA  LEU E   1       7.314  -3.447 -11.348  1.00 29.46 LIG 0.18  C 
BRANCH 28 29
ATOM     29  CB  LEU E   1       6.982  -2.165 -12.112  1.00 29.35 LIG 0.04  C 
BRANCH 29 30
ATOM     30  CG  LEU E   1       6.525  -0.991 -11.233  1.00 30.22 LIG-0.02  C 
ATOM     31  CD2 LEU E   1       6.095   0.197 -12.083  1.00 31.32 LIG 0.01  C 
ATOM     32  CD1 LEU E   1       7.610  -0.588 -10.251  1.00 30.06 LIG 0.01  C 
ENDBRANCH 29 30
ENDBRANCH 28 29
BRANCH 28 33
ATOM     33  N   LEU E   1       8.734  -3.520 -11.017  1.00 28.73 LIG-0.35  N 
ATOM     34  C   GLN E   0       9.143  -3.432  -9.756  1.00 28.95 LIG 0.24  C 
ATOM     35 O    GLN E   0       8.387  -3.167  -8.826  1.00 30.73 LIG-0.27  OA
ATOM     36 H    LEU E   1       9.257  -3.622 -11.692  1.00 28.73 LIG 0.16  HD
BRANCH 34 37
ATOM     37  CA  GLN E   0      10.622  -3.666  -9.491  1.00 28.12 LIG 0.18  C 
BRANCH 37 38
ATOM     38  CB  GLN E   0      11.354  -2.318  -9.498  1.00 27.70 LIG 0.04  C 
BRANCH 38 39
ATOM     39  CG  GLN E   0      11.194  -1.503 -10.779  1.00 26.51 LIG 0.10  C 
BRANCH 39 40
ATOM     40  CD  GLN E   0      12.526  -1.170 -11.426  1.00 26.51 LIG 0.21  C 
ATOM     41 OE1  GLN E   0      13.225  -2.065 -11.916  1.00 26.66 LIG-0.27  OA
ATOM     42  NE2 GLN E   0      12.887   0.112 -11.437  1.00 24.64 LIG-0.37  N 
ATOM     43 22HE GLN E   0      13.633   0.346 -11.796  1.00 24.64 LIG 0.16  HD
ATOM     44 21HE GLN E   0      12.373   0.706 -11.086  1.00 24.64 LIG 0.16  HD
ENDBRANCH 39 40
ENDBRANCH 38 39
ENDBRANCH 37 38
BRANCH 37 45
ATOM     45  N   GLN E   0      11.190  -4.580 -10.544  1.00 28.94 LIG-0.35  N 
ATOM     46  C   ACE E  -1      10.945  -5.913 -10.574  1.00 29.25 LIG 0.21  C 
ATOM     47 O    ACE E  -1       9.842  -6.278 -10.156  1.00 28.69 LIG-0.27  OA
ATOM     48  CH3 ACE E  -1      11.379  -6.528 -11.894  1.00 29.73 LIG 0.12  C 
ATOM     49 H    GLN E   0      11.683  -4.179 -11.123  1.00 28.94 LIG 0.16  HD
ENDBRANCH 37 45
ENDBRANCH 34 37
ENDBRANCH 28 33
ENDBRANCH 1 28
TORSDOF 19
ENDMDL
MODEL 10
USER: ADFR SOLUTION from run 150
USER: SCORE 14.299033 LL:  -4.325 LR: -12.425 RR:   0.000 FEB:  -6.757
USER: RMSD 4.744890
USER: SEED 149
USER: STATUS no improvement in best in 14 clusters for 5 generations
USER: GENES 21
USER: genes 0 Translation |==|  0.52859 0.50908 0.57807
USER: genes 1 Rotation |==|  0.67638 0.64574 0.42210 0.93770
USER: genes 2 Torsion [C]-N--CA-[CB] |==|  0.46725
USER: genes 3 Torsion [N]-CA--CB-[CG] |==|  0.00470
USER: genes 4 Torsion [CA]-CB--CG-[OD2] |==|  0.20808
USER: genes 5 Torsion [N]-CA--C-[N] |==|  0.25115
USER: genes 6 Torsion [C]-N--CA-[C] |==|  0.67589
USER: genes 7 Torsion [N]-CA--C-[N] |==|  0.91667
USER: genes 8 Torsion [C]-N--CA-[CB] |==|  0.19747
USER: genes 9 Torsion [N]-CA--C-[OXT] |==|  0.42200
USER: genes 10 Torsion [N]-CA--CB-[CG] |==|  0.51241
USER: genes 11 Torsion [CA]-CB--CG-[CD2] |==|  0.68372
USER: genes 12 Torsion [N]-C--CA-[N] |==|  0.02182
USER: genes 13 Torsion [C]-CA--CB-[CG] |==|  0.39619
USER: genes 14 Torsion [CA]-CB--CG-[CD2] |==|  0.20328
USER: genes 15 Torsion [C]-CA--N-[C] |==|  0.20332
USER: genes 16 Torsion [N]-C--CA-[N] |==|  0.12787
USER: genes 17 Torsion [C]-CA--CB-[CG] |==|  0.20399
USER: genes 18 Torsion [CA]-CB--CG-[CD] |==|  0.08756
USER: genes 19 Torsion [CB]-CG--CD-[OE1] |==|  0.24912
USER: genes 20 Torsion [C]-CA--N-[C] |==|  0.60574
ROOT
ATOM      1  C   LEU E   1       3.405  -5.628 -11.936  1.00 28.67 LIG 0.24  C 
ATOM      2 O    LEU E   1       4.173  -5.783 -10.981  1.00 26.53 LIG-0.27  OA
ATOM      3  N   ASP E   2       3.710  -5.982 -13.181  1.00 29.47 LIG-0.35  N 
ATOM      4 H    ASP E   2       3.153  -5.968 -13.836  1.00 29.47 LIG 0.16  HD
ENDROOT
BRANCH 3 5
ATOM      5  CA  ASP E   2       5.044  -6.433 -13.534  1.00 30.54 LIG 0.19  C 
BRANCH 5 6
ATOM      6  CB  ASP E   2       5.075  -7.053 -14.935  1.00 32.40 LIG 0.15  C 
BRANCH 6 7
ATOM      7  CG  ASP E   2       3.727  -7.008 -15.620  1.00 34.09 LIG 0.17  C 
ATOM      8 OD2  ASP E   2       3.330  -5.916 -16.072  1.00 37.71 LIG-0.65  OA
ATOM      9 OD1  ASP E   2       3.065  -8.065 -15.717  1.00 36.77 LIG-0.65  OA
ENDBRANCH 6 7
ENDBRANCH 5 6
BRANCH 5 10
ATOM     10  C   ASP E   2       5.956  -5.232 -13.480  1.00 30.01 LIG 0.24  C 
ATOM     11 O    ASP E   2       6.123  -4.523 -14.472  1.00 27.94 LIG-0.27  OA
ATOM     12  N   LEU E   3       6.537  -5.009 -12.308  1.00 30.14 LIG-0.35  N 
ATOM     13 H    LEU E   3       6.409  -5.498 -11.612  1.00 30.14 LIG 0.16  HD
BRANCH 12 14
ATOM     14  CA  LEU E   3       7.455  -3.905 -12.094  1.00 30.90 LIG 0.18  C 
BRANCH 14 15
ATOM     15  C   LEU E   3       8.842  -4.445 -11.749  1.00 32.33 LIG 0.24  C 
ATOM     16 O    LEU E   3       9.861  -3.801 -12.026  1.00 31.45 LIG-0.27  OA
ATOM     17  N   ALA E   4       8.866  -5.614 -11.114  1.00 33.58 LIG-0.34  N 
ATOM     18 H    ALA E   4       8.162  -6.070 -10.926  1.00 33.58 LIG 0.16  HD
BRANCH 17 19
ATOM     19  CA  ALA E   4      10.115  -6.233 -10.675  1.00 35.71 LIG 0.18  C 
ATOM     20  CB  ALA E   4      10.705  -5.460  -9.506  1.00 36.03 LIG 0.04  C 
BRANCH 19 21
ATOM     21  C   ALA E   4       9.881  -7.684 -10.279  1.00 37.05 LIG 0.20  C 
ATOM     22 OXT  ALA E   4      10.784  -8.513 -10.375  1.00 36.72 LIG-0.65  OA
ATOM     23 O    ALA E   4       8.788  -8.061  -9.853  1.00 37.61 LIG-0.65  OA
ENDBRANCH 19 21
ENDBRANCH 17 19
ENDBRANCH 14 15
BRANCH 14 24
ATOM     24  CB  LEU E   3       6.922  -3.011 -10.974  1.00 30.03 LIG 0.04  C 
BRANCH 24 25
ATOM     25  CG  LEU E   3       7.656  -1.720 -10.626  1.00 29.85 LIG-0.02  C 
ATOM     26  CD1 LEU E   3       6.753  -0.504 -10.730  1.00 29.46 LIG 0.01  C 
ATOM     27  CD2 LEU E   3       8.232  -1.858  -9.227  1.00 29.65 LIG 0.01  C 
ENDBRANCH 24 25
ENDBRANCH 14 24
ENDBRANCH 12 14
ENDBRANCH 5 10
ENDBRANCH 3 5
BRANCH 1 28
ATOM     28  CA  LEU E   1       2.027  -5.024 -11.737  1.00 29.46 LIG 0.18  C 
BRANCH 28 29
ATOM     29  CB  LEU E   1       1.307  -5.702 -10.571  1.00 29.35 LIG 0.04  C 
BRANCH 29 30
ATOM     30  CG  LEU E   1       0.452  -4.763  -9.707  1.00 30.22 LIG-0.02  C 
ATOM     31  CD2 LEU E   1      -0.819  -4.350 -10.437  1.00 31.32 LIG 0.01  C 
ATOM     32  CD1 LEU E   1       1.246  -3.544  -9.274  1.00 30.06 LIG 0.01  C 
ENDBRANCH 29 30
ENDBRANCH 28 29
BRANCH 28 33
ATOM     33  N   LEU E   1       1.265  -5.144 -12.977  1.00 28.73 LIG-0.35  N 
ATOM     34  C   GLN E   0       0.789  -6.320 -13.371  1.00 28.95 LIG 0.24  C 
ATOM     35 O    GLN E   0       1.055  -7.373 -12.798  1.00 30.73 LIG-0.27  OA
ATOM     36 H    LEU E   1       1.160  -4.407 -13.409  1.00 28.73 LIG 0.16  HD
BRANCH 34 37
ATOM     37  CA  GLN E   0      -0.116  -6.326 -14.592  1.00 28.12 LIG 0.18  C 
BRANCH 37 38
ATOM     38  CB  GLN E   0      -0.300  -7.771 -15.075  1.00 27.70 LIG 0.04  C 
BRANCH 38 39
ATOM     39  CG  GLN E   0      -1.207  -8.633 -14.199  1.00 26.51 LIG 0.10  C 
BRANCH 39 40
ATOM     40  CD  GLN E   0      -2.304  -7.827 -13.529  1.00 26.51 LIG 0.21  C 
ATOM     41 OE1  GLN E   0      -3.394  -7.664 -14.090  1.00 26.66 LIG-0.27  OA
ATOM     42  NE2 GLN E   0      -2.030  -7.319 -12.329  1.00 24.64 LIG-0.37  N 
ATOM     43 22HE GLN E   0      -2.624  -6.857 -11.911  1.00 24.64 LIG 0.16  HD
ATOM     44 21HE GLN E   0      -1.260  -7.453 -11.971  1.00 24.64 LIG 0.16  HD
ENDBRANCH 39 40
ENDBRANCH 38 39
ENDBRANCH 37 38
BRANCH 37 45
ATOM     45  N   GLN E   0       0.492  -5.480 -15.680  1.00 28.94 LIG-0.35  N 
ATOM     46  C   ACE E  -1      -0.245  -4.689 -16.497  1.00 29.25 LIG 0.21  C 
ATOM     47 O    ACE E  -1      -1.266  -4.195 -16.010  1.00 28.69 LIG-0.27  OA
ATOM     48  CH3 ACE E  -1       0.634  -3.730 -17.283  1.00 29.73 LIG 0.12  C 
ATOM     49 H    GLN E   0       1.347  -5.547 -15.735  1.00 28.94 LIG 0.16  HD
ENDBRANCH 37 45
ENDBRANCH 34 37
ENDBRANCH 28 33
ENDBRANCH 1 28
TORSDOF 19
ENDMDL
MODEL 11
USER: ADFR SOLUTION from run 26
USER: SCORE 14.746309 LL:  -3.560 LR: -12.373 RR:   0.000 FEB:  -6.705
USER: RMSD 9.792132
USER: SEED 25
USER: STATUS searching
USER: GENES 21
USER: genes 0 Translation |==|  0.51008 0.50706 0.55619
USER: genes 1 Rotation |==|  0.57001 0.15710 0.14765 0.55806
USER: genes 2 Torsion [C]-N--CA-[CB] |==|  0.53567
USER: genes 3 Torsion [N]-CA--CB-[CG] |==|  0.61130
USER: genes 4 Torsion [CA]-CB--CG-[OD2] |==|  0.14126
USER: genes 5 Torsion [N]-CA--C-[N] |==|  0.37100
USER: genes 6 Torsion [C]-N--CA-[C] |==|  0.78155
USER: genes 7 Torsion [N]-CA--C-[N] |==|  0.47426
USER: genes 8 Torsion [C]-N--CA-[CB] |==|  0.15122
USER: genes 9 Torsion [N]-CA--C-[OXT] |==|  0.50393
USER: genes 10 Torsion [N]-CA--CB-[CG] |==|  0.73481
USER: genes 11 Torsion [CA]-CB--CG-[CD2] |==|  0.42591
USER: genes 12 Torsion [N]-C--CA-[N] |==|  0.45987
USER: genes 13 Torsion [C]-CA--CB-[CG] |==|  0.24627
USER: genes 14 Torsion [CA]-CB--CG-[CD2] |==|  0.05406
USER: genes 15 Torsion [C]-CA--N-[C] |==|  0.67094
USER: genes 16 Torsion [N]-C--CA-[N] |==|  0.26667
USER: genes 17 Torsion [C]-CA--CB-[CG] |==|  0.33539
USER: genes 18 Torsion [CA]-CB--CG-[CD] |==|  0.15593
USER: genes 19 Torsion [CB]-CG--CD-[OE1] |==|  0.17816
USER: genes 20 Torsion [C]-CA--N-[C] |==|  0.58049
ROOT
ATOM      1  C   LEU E   1       2.989  -5.665 -12.297  1.00 28.67 LIG 0.24  C 
ATOM      2 O    LEU E   1       2.604  -4.788 -11.517  1.00 26.53 LIG-0.27  OA
ATOM      3  N   ASP E   2       2.170  -6.336 -13.102  1.00 29.47 LIG-0.35  N 
ATOM      4 H    ASP E   2       2.434  -6.879 -13.713  1.00 29.47 LIG 0.16  HD
ENDROOT
BRANCH 3 5
ATOM      5  CA  ASP E   2       0.729  -6.195 -13.002  1.00 30.54 LIG 0.19  C 
BRANCH 5 6
ATOM      6  CB  ASP E   2       0.001  -7.283 -13.799  1.00 32.40 LIG 0.15  C 
BRANCH 6 7
ATOM      7  CG  ASP E   2      -1.213  -6.755 -14.529  1.00 34.09 LIG 0.17  C 
ATOM      8 OD2  ASP E   2      -1.080  -5.741 -15.242  1.00 37.71 LIG-0.65  OA
ATOM      9 OD1  ASP E   2      -2.302  -7.356 -14.400  1.00 36.77 LIG-0.65  OA
ENDBRANCH 6 7
ENDBRANCH 5 6
BRANCH 5 10
ATOM     10  C   ASP E   2       0.364  -6.292 -11.541  1.00 30.01 LIG 0.24  C 
ATOM     11 O    ASP E   2       0.842  -7.178 -10.831  1.00 27.94 LIG-0.27  OA
ATOM     12  N   LEU E   3      -0.481  -5.369 -11.101  1.00 30.14 LIG-0.35  N 
ATOM     13 H    LEU E   3      -0.802  -4.744 -11.595  1.00 30.14 LIG 0.16  HD
BRANCH 12 14
ATOM     14  CA  LEU E   3      -0.943  -5.333  -9.725  1.00 30.90 LIG 0.18  C 
BRANCH 14 15
ATOM     15  C   LEU E   3      -2.038  -6.380  -9.520  1.00 32.33 LIG 0.24  C 
ATOM     16 O    LEU E   3      -2.506  -7.003 -10.480  1.00 31.45 LIG-0.27  OA
ATOM     17  N   ALA E   4      -2.414  -6.584  -8.261  1.00 33.58 LIG-0.34  N 
ATOM     18 H    ALA E   4      -2.098  -6.147  -7.591  1.00 33.58 LIG 0.16  HD
BRANCH 17 19
ATOM     19  CA  ALA E   4      -3.415  -7.587  -7.903  1.00 35.71 LIG 0.18  C 
ATOM     20  CB  ALA E   4      -3.018  -8.948  -8.451  1.00 36.03 LIG 0.04  C 
BRANCH 19 21
ATOM     21  C   ALA E   4      -3.583  -7.659  -6.392  1.00 37.05 LIG 0.20  C 
ATOM     22 OXT  ALA E   4      -4.363  -8.463  -5.886  1.00 36.72 LIG-0.65  OA
ATOM     23 O    ALA E   4      -2.942  -6.919  -5.644  1.00 37.61 LIG-0.65  OA
ENDBRANCH 19 21
ENDBRANCH 17 19
ENDBRANCH 14 15
BRANCH 14 24
ATOM     24  CB  LEU E   3      -1.459  -3.931  -9.399  1.00 30.03 LIG 0.04  C 
BRANCH 24 25
ATOM     25  CG  LEU E   3      -0.532  -2.925  -8.724  1.00 29.85 LIG-0.02  C 
ATOM     26  CD1 LEU E   3       0.922  -3.148  -9.099  1.00 29.46 LIG 0.01  C 
ATOM     27  CD2 LEU E   3      -0.988  -1.525  -9.100  1.00 29.65 LIG 0.01  C 
ENDBRANCH 24 25
ENDBRANCH 14 24
ENDBRANCH 12 14
ENDBRANCH 5 10
ENDBRANCH 3 5
BRANCH 1 28
ATOM     28  CA  LEU E   1       4.460  -6.027 -12.397  1.00 29.46 LIG 0.18  C 
BRANCH 28 29
ATOM     29  CB  LEU E   1       4.713  -7.409 -11.794  1.00 29.35 LIG 0.04  C 
BRANCH 29 30
ATOM     30  CG  LEU E   1       4.560  -8.580 -12.776  1.00 30.22 LIG-0.02  C 
ATOM     31  CD2 LEU E   1       4.657  -8.104 -14.219  1.00 31.32 LIG 0.01  C 
ATOM     32  CD1 LEU E   1       3.259  -9.325 -12.539  1.00 30.06 LIG 0.01  C 
ENDBRANCH 29 30
ENDBRANCH 28 29
BRANCH 28 33
ATOM     33  N   LEU E   1       5.255  -5.000 -11.731  1.00 28.73 LIG-0.35  N 
ATOM     34  C   GLN E   0       6.147  -4.285 -12.409  1.00 28.95 LIG 0.24  C 
ATOM     35 O    GLN E   0       6.439  -4.519 -13.579  1.00 30.73 LIG-0.27  OA
ATOM     36 H    LEU E   1       5.096  -4.908 -10.891  1.00 28.73 LIG 0.16  HD
BRANCH 34 37
ATOM     37  CA  GLN E   0       6.821  -3.140 -11.671  1.00 28.12 LIG 0.18  C 
BRANCH 37 38
ATOM     38  CB  GLN E   0       7.016  -1.964 -12.637  1.00 27.70 LIG 0.04  C 
BRANCH 38 39
ATOM     39  CG  GLN E   0       6.333  -0.664 -12.217  1.00 26.51 LIG 0.10  C 
BRANCH 39 40
ATOM     40  CD  GLN E   0       6.760  -0.204 -10.835  1.00 26.51 LIG 0.21  C 
ATOM     41 OE1  GLN E   0       7.934   0.119 -10.617  1.00 26.66 LIG-0.27  OA
ATOM     42  NE2 GLN E   0       5.817  -0.167  -9.895  1.00 24.64 LIG-0.37  N 
ATOM     43 22HE GLN E   0       6.015   0.090  -9.098  1.00 24.64 LIG 0.16  HD
ATOM     44 21HE GLN E   0       5.011  -0.400 -10.085  1.00 24.64 LIG 0.16  HD
ENDBRANCH 39 40
ENDBRANCH 38 39
ENDBRANCH 37 38
BRANCH 37 45
ATOM     45  N   GLN E   0       8.147  -3.598 -11.124  1.00 28.94 LIG-0.35  N 
ATOM     46  C   ACE E  -1       8.704  -3.073 -10.005  1.00 29.25 LIG 0.21  C 
ATOM     47 O    ACE E  -1       7.922  -2.691  -9.130  1.00 28.69 LIG-0.27  OA
ATOM     48  CH3 ACE E  -1       9.869  -3.917  -9.516  1.00 29.73 LIG 0.12  C 
ATOM     49 H    GLN E   0       8.517  -4.222 -11.586  1.00 28.94 LIG 0.16  HD
ENDBRANCH 37 45
ENDBRANCH 34 37
ENDBRANCH 28 33
ENDBRANCH 1 28
TORSDOF 19
ENDMDL
MODEL 12
USER: ADFR SOLUTION from run 155
USER: SCORE 13.465105 LL:  -3.702 LR: -12.347 RR:   0.000 FEB:  -6.680
USER: RMSD 9.896013
USER: SEED 154
USER: STATUS no improvement in best in 11 clusters for 5 generations
USER: GENES 21
USER: genes 0 Translation |==|  0.48520 0.54518 0.63855
USER: genes 1 Rotation |==|  0.41215 0.17877 0.15775 0.64820
USER: genes 2 Torsion [C]-N--CA-[CB] |==|  0.28680
USER: genes 3 Torsion [N]-CA--CB-[CG] |==|  0.58874
USER: genes 4 Torsion [CA]-CB--CG-[OD2] |==|  0.92143
USER: genes 5 Torsion [N]-CA--C-[N] |==|  0.61158
USER: genes 6 Torsion [C]-N--CA-[C] |==|  0.72043
USER: genes 7 Torsion [N]-CA--C-[N] |==|  0.01745
USER: genes 8 Torsion [C]-N--CA-[CB] |==|  0.18726
USER: genes 9 Torsion [N]-CA--C-[OXT] |==|  0.97125
USER: genes 10 Torsion [N]-CA--CB-[CG] |==|  0.74249
USER: genes 11 Torsion [CA]-CB--CG-[CD2] |==|  0.03878
USER: genes 12 Torsion [N]-C--CA-[N] |==|  0.53451
USER: genes 13 Torsion [C]-CA--CB-[CG] |==|  0.28811
USER: genes 14 Torsion [CA]-CB--CG-[CD2] |==|  0.94800
USER: genes 15 Torsion [C]-CA--N-[C] |==|  0.61092
USER: genes 16 Torsion [N]-C--CA-[N] |==|  0.52759
USER: genes 17 Torsion [C]-CA--CB-[CG] |==|  0.70254
USER: genes 18 Torsion [CA]-CB--CG-[CD] |==|  0.53935
USER: genes 19 Torsion [CB]-CG--CD-[OE1] |==|  0.28274
USER: genes 20 Torsion [C]-CA--N-[C] |==|  0.75181
ROOT
ATOM      1  C   LEU E   1       2.429  -4.979 -10.938  1.00 28.67 LIG 0.24  C 
ATOM      2 O    LEU E   1       2.760  -4.025 -10.226  1.00 26.53 LIG-0.27  OA
ATOM      3  N   ASP E   2       1.211  -5.511 -10.924  1.00 29.47 LIG-0.35  N 
ATOM      4 H    ASP E   2       0.940  -6.110 -11.477  1.00 29.47 LIG 0.16  HD
ENDROOT
BRANCH 3 5
ATOM      5  CA  ASP E   2       0.220  -5.106  -9.942  1.00 30.54 LIG 0.19  C 
BRANCH 5 6
ATOM      6  CB  ASP E   2      -0.822  -4.164 -10.553  1.00 32.40 LIG 0.15  C 
BRANCH 6 7
ATOM      7  CG  ASP E   2      -1.350  -3.157  -9.555  1.00 34.09 LIG 0.17  C 
ATOM      8 OD2  ASP E   2      -1.363  -3.471  -8.349  1.00 37.71 LIG-0.65  OA
ATOM      9 OD1  ASP E   2      -1.746  -2.046  -9.972  1.00 36.77 LIG-0.65  OA
ENDBRANCH 6 7
ENDBRANCH 5 6
BRANCH 5 10
ATOM     10  C   ASP E   2      -0.450  -6.358  -9.432  1.00 30.01 LIG 0.24  C 
ATOM     11 O    ASP E   2       0.206  -7.375  -9.205  1.00 27.94 LIG-0.27  OA
ATOM     12  N   LEU E   3      -1.760  -6.269  -9.246  1.00 30.14 LIG-0.35  N 
ATOM     13 H    LEU E   3      -2.214  -5.553  -9.392  1.00 30.14 LIG 0.16  HD
BRANCH 12 14
ATOM     14  CA  LEU E   3      -2.556  -7.388  -8.774  1.00 30.90 LIG 0.18  C 
BRANCH 14 15
ATOM     15  C   LEU E   3      -3.274  -8.044  -9.953  1.00 32.33 LIG 0.24  C 
ATOM     16 O    LEU E   3      -4.120  -8.928  -9.768  1.00 31.45 LIG-0.27  OA
ATOM     17  N   ALA E   4      -2.952  -7.582 -11.157  1.00 33.58 LIG-0.34  N 
ATOM     18 H    ALA E   4      -2.359  -6.973 -11.292  1.00 33.58 LIG 0.16  HD
BRANCH 17 19
ATOM     19  CA  ALA E   4      -3.591  -8.076 -12.376  1.00 35.71 LIG 0.18  C 
ATOM     20  CB  ALA E   4      -5.055  -7.667 -12.408  1.00 36.03 LIG 0.04  C 
BRANCH 19 21
ATOM     21  C   ALA E   4      -2.872  -7.547 -13.608  1.00 37.05 LIG 0.20  C 
ATOM     22 OXT  ALA E   4      -2.021  -6.666 -13.507  1.00 36.72 LIG-0.65  OA
ATOM     23 O    ALA E   4      -3.123  -7.989 -14.731  1.00 37.61 LIG-0.65  OA
ENDBRANCH 19 21
ENDBRANCH 17 19
ENDBRANCH 14 15
BRANCH 14 24
ATOM     24  CB  LEU E   3      -3.558  -6.894  -7.730  1.00 30.03 LIG 0.04  C 
BRANCH 24 25
ATOM     25  CG  LEU E   3      -3.186  -6.935  -6.251  1.00 29.85 LIG-0.02  C 
ATOM     26  CD1 LEU E   3      -3.966  -7.998  -5.496  1.00 29.46 LIG 0.01  C 
ATOM     27  CD2 LEU E   3      -1.689  -7.169  -6.139  1.00 29.65 LIG 0.01  C 
ENDBRANCH 24 25
ENDBRANCH 14 24
ENDBRANCH 12 14
ENDBRANCH 5 10
ENDBRANCH 3 5
BRANCH 1 28
ATOM     28  CA  LEU E   1       3.415  -5.606 -11.907  1.00 29.46 LIG 0.18  C 
BRANCH 28 29
ATOM     29  CB  LEU E   1       3.335  -7.132 -11.839  1.00 29.35 LIG 0.04  C 
BRANCH 29 30
ATOM     30  CG  LEU E   1       2.590  -7.792 -13.009  1.00 30.22 LIG-0.02  C 
ATOM     31  CD2 LEU E   1       1.707  -6.787 -13.735  1.00 31.32 LIG 0.01  C 
ATOM     32  CD1 LEU E   1       1.777  -8.983 -12.535  1.00 30.06 LIG 0.01  C 
ENDBRANCH 29 30
ENDBRANCH 28 29
BRANCH 28 33
ATOM     33  N   LEU E   1       4.760  -5.127 -11.604  1.00 28.73 LIG-0.35  N 
ATOM     34  C   GLN E   0       5.610  -4.827 -12.579  1.00 28.95 LIG 0.24  C 
ATOM     35 O    GLN E   0       5.370  -5.042 -13.764  1.00 30.73 LIG-0.27  OA
ATOM     36 H    LEU E   1       4.940  -5.063 -10.765  1.00 28.73 LIG 0.16  HD
BRANCH 34 37
ATOM     37  CA  GLN E   0       6.933  -4.197 -12.174  1.00 28.12 LIG 0.18  C 
BRANCH 37 38
ATOM     38  CB  GLN E   0       6.663  -3.037 -11.206  1.00 27.70 LIG 0.04  C 
BRANCH 38 39
ATOM     39  CG  GLN E   0       6.865  -1.643 -11.797  1.00 26.51 LIG 0.10  C 
BRANCH 39 40
ATOM     40  CD  GLN E   0       6.923  -0.564 -10.732  1.00 26.51 LIG 0.21  C 
ATOM     41 OE1  GLN E   0       8.009  -0.089 -10.379  1.00 26.66 LIG-0.27  OA
ATOM     42  NE2 GLN E   0       5.762  -0.167 -10.214  1.00 24.64 LIG-0.37  N 
ATOM     43 22HE GLN E   0       5.748   0.444  -9.609  1.00 24.64 LIG 0.16  HD
ATOM     44 21HE GLN E   0       5.027  -0.522 -10.485  1.00 24.64 LIG 0.16  HD
ENDBRANCH 39 40
ENDBRANCH 38 39
ENDBRANCH 37 38
BRANCH 37 45
ATOM     45  N   GLN E   0       7.659  -3.704 -13.398  1.00 28.94 LIG-0.35  N 
ATOM     46  C   ACE E  -1       8.517  -4.477 -14.107  1.00 29.25 LIG 0.21  C 
ATOM     47 O    ACE E  -1       8.267  -5.685 -14.144  1.00 28.69 LIG-0.27  OA
ATOM     48  CH3 ACE E  -1       8.862  -3.841 -15.444  1.00 29.73 LIG 0.12  C 
ATOM     49 H    GLN E   0       7.479  -2.889 -13.604  1.00 28.94 LIG 0.16  HD
ENDBRANCH 37 45
ENDBRANCH 34 37
ENDBRANCH 28 33
ENDBRANCH 1 28
TORSDOF 19
ENDMDL
MODEL 13
USER: ADFR SOLUTION from run 157
USER: SCORE 13.722696 LL:  -3.077 LR: -12.319 RR:   0.000 FEB:  -6.652
USER: RMSD 3.636441
USER: SEED 156
USER: STATUS no improvement in best in 8 clusters for 5 generations
USER: GENES 21
USER: genes 0 Translation |==|  0.51077 0.48738 0.53556
USER: genes 1 Rotation |==|  0.48361 0.54542 0.46210 0.99622
USER: genes 2 Torsion [C]-N--CA-[CB] |==|  0.50301
USER: genes 3 Torsion [N]-CA--CB-[CG] |==|  0.78207
USER: genes 4 Torsion [CA]-CB--CG-[OD2] |==|  0.42505
USER: genes 5 Torsion [N]-CA--C-[N] |==|  0.36661
USER: genes 6 Torsion [C]-N--CA-[C] |==|  0.64007
USER: genes 7 Torsion [N]-CA--C-[N] |==|  0.93466
USER: genes 8 Torsion [C]-N--CA-[CB] |==|  0.26275
USER: genes 9 Torsion [N]-CA--C-[OXT] |==|  0.95408
USER: genes 10 Torsion [N]-CA--CB-[CG] |==|  0.46045
USER: genes 11 Torsion [CA]-CB--CG-[CD2] |==|  0.70948
USER: genes 12 Torsion [N]-C--CA-[N] |==|  0.42427
USER: genes 13 Torsion [C]-CA--CB-[CG] |==|  0.42606
USER: genes 14 Torsion [CA]-CB--CG-[CD2] |==|  0.75586
USER: genes 15 Torsion [C]-CA--N-[C] |==|  0.81830
USER: genes 16 Torsion [N]-C--CA-[N] |==|  0.53330
USER: genes 17 Torsion [C]-CA--CB-[CG] |==|  0.53802
USER: genes 18 Torsion [CA]-CB--CG-[CD] |==|  0.65597
USER: genes 19 Torsion [CB]-CG--CD-[OE1] |==|  0.57012
USER: genes 20 Torsion [C]-CA--N-[C] |==|  0.62472
ROOT
ATOM      1  C   LEU E   1       3.004  -6.019 -12.637  1.00 28.67 LIG 0.24  C 
ATOM      2 O    LEU E   1       3.312  -5.220 -11.747  1.00 26.53 LIG-0.27  OA
ATOM      3  N   ASP E   2       3.835  -6.947 -13.103  1.00 29.47 LIG-0.35  N 
ATOM      4 H    ASP E   2       3.605  -7.567 -13.653  1.00 29.47 LIG 0.16  HD
ENDROOT
BRANCH 3 5
ATOM      5  CA  ASP E   2       5.230  -6.982 -12.705  1.00 30.54 LIG 0.19  C 
BRANCH 5 6
ATOM      6  CB  ASP E   2       5.983  -8.124 -13.395  1.00 32.40 LIG 0.15  C 
BRANCH 6 7
ATOM      7  CG  ASP E   2       5.717  -9.468 -12.753  1.00 34.09 LIG 0.17  C 
ATOM      8 OD2  ASP E   2       5.819 -10.490 -13.458  1.00 37.71 LIG-0.65  OA
ATOM      9 OD1  ASP E   2       5.415  -9.506 -11.540  1.00 36.77 LIG-0.65  OA
ENDBRANCH 6 7
ENDBRANCH 5 6
BRANCH 5 10
ATOM     10  C   ASP E   2       5.843  -5.656 -13.083  1.00 30.01 LIG 0.24  C 
ATOM     11 O    ASP E   2       5.662  -5.177 -14.203  1.00 27.94 LIG-0.27  OA
ATOM     12  N   LEU E   3       6.559  -5.067 -12.135  1.00 30.14 LIG-0.35  N 
ATOM     13 H    LEU E   3       6.672  -5.397 -11.349  1.00 30.14 LIG 0.16  HD
BRANCH 12 14
ATOM     14  CA  LEU E   3       7.227  -3.795 -12.344  1.00 30.90 LIG 0.18  C 
BRANCH 14 15
ATOM     15  C   LEU E   3       8.690  -3.902 -11.914  1.00 32.33 LIG 0.24  C 
ATOM     16 O    LEU E   3       9.539  -3.118 -12.353  1.00 31.45 LIG-0.27  OA
ATOM     17  N   ALA E   4       8.964  -4.857 -11.029  1.00 33.58 LIG-0.34  N 
ATOM     18 H    ALA E   4       8.379  -5.410 -10.727  1.00 33.58 LIG 0.16  HD
BRANCH 17 19
ATOM     19  CA  ALA E   4      10.307  -5.050 -10.486  1.00 35.71 LIG 0.18  C 
ATOM     20  CB  ALA E   4      10.454  -4.310  -9.166  1.00 36.03 LIG 0.04  C 
BRANCH 19 21
ATOM     21  C   ALA E   4      10.597  -6.531 -10.292  1.00 37.05 LIG 0.20  C 
ATOM     22 OXT  ALA E   4       9.683  -7.353 -10.287  1.00 36.72 LIG-0.65  OA
ATOM     23 O    ALA E   4      11.750  -6.941 -10.140  1.00 37.61 LIG-0.65  OA
ENDBRANCH 19 21
ENDBRANCH 17 19
ENDBRANCH 14 15
BRANCH 14 24
ATOM     24  CB  LEU E   3       6.503  -2.705 -11.552  1.00 30.03 LIG 0.04  C 
BRANCH 24 25
ATOM     25  CG  LEU E   3       7.180  -1.355 -11.337  1.00 29.85 LIG-0.02  C 
ATOM     26  CD1 LEU E   3       6.252  -0.195 -11.648  1.00 29.46 LIG 0.01  C 
ATOM     27  CD2 LEU E   3       7.677  -1.292  -9.902  1.00 29.65 LIG 0.01  C 
ENDBRANCH 24 25
ENDBRANCH 14 24
ENDBRANCH 12 14
ENDBRANCH 5 10
ENDBRANCH 3 5
BRANCH 1 28
ATOM     28  CA  LEU E   1       1.619  -5.998 -13.258  1.00 29.46 LIG 0.18  C 
BRANCH 28 29
ATOM     29  CB  LEU E   1       1.626  -5.189 -14.556  1.00 29.35 LIG 0.04  C 
BRANCH 29 30
ATOM     30  CG  LEU E   1       0.549  -5.593 -15.574  1.00 30.22 LIG-0.02  C 
ATOM     31  CD2 LEU E   1       1.043  -6.710 -16.483  1.00 31.32 LIG 0.01  C 
ATOM     32  CD1 LEU E   1       0.091  -4.397 -16.388  1.00 30.06 LIG 0.01  C 
ENDBRANCH 29 30
ENDBRANCH 28 29
BRANCH 28 33
ATOM     33  N   LEU E   1       0.668  -5.452 -12.294  1.00 28.73 LIG-0.35  N 
ATOM     34  C   GLN E   0       0.397  -6.099 -11.166  1.00 28.95 LIG 0.24  C 
ATOM     35 O    GLN E   0       0.824  -7.224 -10.923  1.00 30.73 LIG-0.27  OA
ATOM     36 H    LEU E   1       0.314  -4.702 -12.521  1.00 28.73 LIG 0.16  HD
BRANCH 34 37
ATOM     37  CA  GLN E   0      -0.489  -5.388 -10.157  1.00 28.12 LIG 0.18  C 
BRANCH 37 38
ATOM     38  CB  GLN E   0       0.002  -3.945  -9.983  1.00 27.70 LIG 0.04  C 
BRANCH 38 39
ATOM     39  CG  GLN E   0      -0.574  -3.208  -8.775  1.00 26.51 LIG 0.10  C 
BRANCH 39 40
ATOM     40  CD  GLN E   0      -1.265  -1.913  -9.160  1.00 26.51 LIG 0.21  C 
ATOM     41 OE1  GLN E   0      -1.370  -0.991  -8.343  1.00 26.66 LIG-0.27  OA
ATOM     42  NE2 GLN E   0      -1.738  -1.830 -10.403  1.00 24.64 LIG-0.37  N 
ATOM     43 22HE GLN E   0      -2.135  -1.113 -10.665  1.00 24.64 LIG 0.16  HD
ATOM     44 21HE GLN E   0      -1.646  -2.493 -10.943  1.00 24.64 LIG 0.16  HD
ENDBRANCH 39 40
ENDBRANCH 38 39
ENDBRANCH 37 38
BRANCH 37 45
ATOM     45  N   GLN E   0      -0.452  -6.119  -8.841  1.00 28.94 LIG-0.35  N 
ATOM     46  C   ACE E  -1      -1.564  -6.386  -8.113  1.00 29.25 LIG 0.21  C 
ATOM     47 O    ACE E  -1      -2.603  -6.583  -8.749  1.00 28.69 LIG-0.27  OA
ATOM     48  CH3 ACE E  -1      -1.276  -7.387  -7.006  1.00 29.73 LIG 0.12  C 
ATOM     49 H    GLN E   0       0.339  -6.351  -8.595  1.00 28.94 LIG 0.16  HD
ENDBRANCH 37 45
ENDBRANCH 34 37
ENDBRANCH 28 33
ENDBRANCH 1 28
TORSDOF 19
ENDMDL
MODEL 14
USER: ADFR SOLUTION from run 158
USER: SCORE 13.355725 LL:  -3.665 LR: -12.279 RR:   0.000 FEB:  -6.611
USER: RMSD 9.422037
USER: SEED 157
USER: STATUS no improvement in best in 33 clusters for 5 generations
USER: GENES 21
USER: genes 0 Translation |==|  0.40786 0.50821 0.61506
USER: genes 1 Rotation |==|  0.48802 0.21770 0.81079 0.77125
USER: genes 2 Torsion [C]-N--CA-[CB] |==|  0.85145
USER: genes 3 Torsion [N]-CA--CB-[CG] |==|  0.62715
USER: genes 4 Torsion [CA]-CB--CG-[OD2] |==|  0.43370
USER: genes 5 Torsion [N]-CA--C-[N] |==|  0.72807
USER: genes 6 Torsion [C]-N--CA-[C] |==|  0.58910
USER: genes 7 Torsion [N]-CA--C-[N] |==|  0.04768
USER: genes 8 Torsion [C]-N--CA-[CB] |==|  0.19215
USER: genes 9 Torsion [N]-CA--C-[OXT] |==|  0.18646
USER: genes 10 Torsion [N]-CA--CB-[CG] |==|  0.66015
USER: genes 11 Torsion [CA]-CB--CG-[CD2] |==|  0.09898
USER: genes 12 Torsion [N]-C--CA-[N] |==|  0.67310
USER: genes 13 Torsion [C]-CA--CB-[CG] |==|  0.47419
USER: genes 14 Torsion [CA]-CB--CG-[CD2] |==|  0.78495
USER: genes 15 Torsion [C]-CA--N-[C] |==|  0.63743
USER: genes 16 Torsion [N]-C--CA-[N] |==|  0.43950
USER: genes 17 Torsion [C]-CA--CB-[CG] |==|  0.49243
USER: genes 18 Torsion [CA]-CB--CG-[CD] |==|  0.80784
USER: genes 19 Torsion [CB]-CG--CD-[OE1] |==|  0.15745
USER: genes 20 Torsion [C]-CA--N-[C] |==|  0.78982
ROOT
ATOM      1  C   LEU E   1       0.689  -5.644 -11.326  1.00 28.67 LIG 0.24  C 
ATOM      2 O    LEU E   1      -0.436  -6.116 -11.519  1.00 26.53 LIG-0.27  OA
ATOM      3  N   ASP E   2       0.981  -4.853 -10.297  1.00 29.47 LIG-0.35  N 
ATOM      4 H    ASP E   2       1.777  -4.595 -10.099  1.00 29.47 LIG 0.16  HD
ENDROOT
BRANCH 3 5
ATOM      5  CA  ASP E   2      -0.053  -4.354  -9.409  1.00 30.54 LIG 0.19  C 
BRANCH 5 6
ATOM      6  CB  ASP E   2      -1.172  -3.654 -10.188  1.00 32.40 LIG 0.15  C 
BRANCH 6 7
ATOM      7  CG  ASP E   2      -1.574  -2.335  -9.568  1.00 34.09 LIG 0.17  C 
ATOM      8 OD2  ASP E   2      -2.110  -1.478 -10.298  1.00 37.71 LIG-0.65  OA
ATOM      9 OD1  ASP E   2      -1.363  -2.152  -8.349  1.00 36.77 LIG-0.65  OA
ENDBRANCH 6 7
ENDBRANCH 5 6
BRANCH 5 10
ATOM     10  C   ASP E   2      -0.610  -5.535  -8.653  1.00 30.01 LIG 0.24  C 
ATOM     11 O    ASP E   2      -0.038  -5.967  -7.651  1.00 27.94 LIG-0.27  OA
ATOM     12  N   LEU E   3      -1.733  -6.046  -9.139  1.00 30.14 LIG-0.35  N 
ATOM     13 H    LEU E   3      -2.138  -5.734  -9.830  1.00 30.14 LIG 0.16  HD
BRANCH 12 14
ATOM     14  CA  LEU E   3      -2.389  -7.192  -8.536  1.00 30.90 LIG 0.18  C 
BRANCH 14 15
ATOM     15  C   LEU E   3      -3.090  -8.014  -9.618  1.00 32.33 LIG 0.24  C 
ATOM     16 O    LEU E   3      -3.981  -8.820  -9.324  1.00 31.45 LIG-0.27  OA
ATOM     17  N   ALA E   4      -2.702  -7.776 -10.868  1.00 33.58 LIG-0.34  N 
ATOM     18 H    ALA E   4      -2.078  -7.222 -11.077  1.00 33.58 LIG 0.16  HD
BRANCH 17 19
ATOM     19  CA  ALA E   4      -3.315  -8.447 -12.012  1.00 35.71 LIG 0.18  C 
ATOM     20  CB  ALA E   4      -4.743  -7.963 -12.205  1.00 36.03 LIG 0.04  C 
BRANCH 19 21
ATOM     21  C   ALA E   4      -2.503  -8.199 -13.275  1.00 37.05 LIG 0.20  C 
ATOM     22 OXT  ALA E   4      -1.373  -8.668 -13.395  1.00 36.72 LIG-0.65  OA
ATOM     23 O    ALA E   4      -2.957  -7.529 -14.204  1.00 37.61 LIG-0.65  OA
ENDBRANCH 19 21
ENDBRANCH 17 19
ENDBRANCH 14 15
BRANCH 14 24
ATOM     24  CB  LEU E   3      -3.387  -6.712  -7.482  1.00 30.03 LIG 0.04  C 
BRANCH 24 25
ATOM     25  CG  LEU E   3      -3.253  -7.196  -6.042  1.00 29.85 LIG-0.02  C 
ATOM     26  CD1 LEU E   3      -3.987  -8.505  -5.809  1.00 29.46 LIG 0.01  C 
ATOM     27  CD2 LEU E   3      -1.775  -7.330  -5.716  1.00 29.65 LIG 0.01  C 
ENDBRANCH 24 25
ENDBRANCH 14 24
ENDBRANCH 12 14
ENDBRANCH 5 10
ENDBRANCH 3 5
BRANCH 1 28
ATOM     28  CA  LEU E   1       1.838  -5.960 -12.267  1.00 29.46 LIG 0.18  C 
BRANCH 28 29
ATOM     29  CB  LEU E   1       3.146  -5.378 -11.729  1.00 29.35 LIG 0.04  C 
BRANCH 29 30
ATOM     30  CG  LEU E   1       4.408  -5.825 -12.481  1.00 30.22 LIG-0.02  C 
ATOM     31  CD2 LEU E   1       4.814  -7.237 -12.084  1.00 31.32 LIG 0.01  C 
ATOM     32  CD1 LEU E   1       5.550  -4.850 -12.258  1.00 30.06 LIG 0.01  C 
ENDBRANCH 29 30
ENDBRANCH 28 29
BRANCH 28 33
ATOM     33  N   LEU E   1       1.528  -5.440 -13.595  1.00 28.73 LIG-0.35  N 
ATOM     34  C   GLN E   0       1.657  -6.207 -14.672  1.00 28.95 LIG 0.24  C 
ATOM     35 O    GLN E   0       2.148  -7.332 -14.635  1.00 30.73 LIG-0.27  OA
ATOM     36 H    LEU E   1       1.266  -4.621 -13.611  1.00 28.73 LIG 0.16  HD
BRANCH 34 37
ATOM     37  CA  GLN E   0       1.173  -5.632 -15.993  1.00 28.12 LIG 0.18  C 
BRANCH 37 38
ATOM     38  CB  GLN E   0      -0.350  -5.790 -16.084  1.00 27.70 LIG 0.04  C 
BRANCH 38 39
ATOM     39  CG  GLN E   0      -0.988  -5.195 -17.337  1.00 26.51 LIG 0.10  C 
BRANCH 39 40
ATOM     40  CD  GLN E   0      -0.937  -3.678 -17.350  1.00 26.51 LIG 0.21  C 
ATOM     41 OE1  GLN E   0       0.144  -3.086 -17.252  1.00 26.66 LIG-0.27  OA
ATOM     42  NE2 GLN E   0      -2.099  -3.038 -17.473  1.00 24.64 LIG-0.37  N 
ATOM     43 22HE GLN E   0      -2.116  -2.178 -17.487  1.00 24.64 LIG 0.16  HD
ATOM     44 21HE GLN E   0      -2.831  -3.485 -17.538  1.00 24.64 LIG 0.16  HD
ENDBRANCH 39 40
ENDBRANCH 38 39
ENDBRANCH 37 38
BRANCH 37 45
ATOM     45  N   GLN E   0       1.846  -6.345 -17.137  1.00 28.94 LIG-0.35  N 
ATOM     46  C   ACE E  -1       3.134  -6.117 -17.491  1.00 29.25 LIG 0.21  C 
ATOM     47 O    ACE E  -1       3.911  -5.819 -16.580  1.00 28.69 LIG-0.27  OA
ATOM     48  CH3 ACE E  -1       3.639  -7.176 -18.459  1.00 29.73 LIG 0.12  C 
ATOM     49 H    GLN E   0       1.338  -6.908 -17.542  1.00 28.94 LIG 0.16  HD
ENDBRANCH 37 45
ENDBRANCH 34 37
ENDBRANCH 28 33
ENDBRANCH 1 28
TORSDOF 19
ENDMDL
MODEL 15
USER: ADFR SOLUTION from run 177
USER: SCORE 13.831034 LL:  -3.504 LR: -12.267 RR:   0.000 FEB:  -6.599
USER: RMSD 9.974959
USER: SEED 176
USER: STATUS no improvement in best in 7 clusters for 5 generations
USER: GENES 21
USER: genes 0 Translation |==|  0.67538 0.57131 0.54194
USER: genes 1 Rotation |==|  0.42864 0.92141 0.27766 0.63373
USER: genes 2 Torsion [C]-N--CA-[CB] |==|  0.31111
USER: genes 3 Torsion [N]-CA--CB-[CG] |==|  0.51512
USER: genes 4 Torsion [CA]-CB--CG-[OD2] |==|  0.08188
USER: genes 5 Torsion [N]-CA--C-[N] |==|  0.38816
USER: genes 6 Torsion [C]-N--CA-[C] |==|  0.79864
USER: genes 7 Torsion [N]-CA--C-[N] |==|  0.45160
USER: genes 8 Torsion [C]-N--CA-[CB] |==|  0.29816
USER: genes 9 Torsion [N]-CA--C-[OXT] |==|  0.60881
USER: genes 10 Torsion [N]-CA--CB-[CG] |==|  0.64553
USER: genes 11 Torsion [CA]-CB--CG-[CD2] |==|  0.74081
USER: genes 12 Torsion [N]-C--CA-[N] |==|  0.35274
USER: genes 13 Torsion [C]-CA--CB-[CG] |==|  0.39491
USER: genes 14 Torsion [CA]-CB--CG-[CD2] |==|  0.55647
USER: genes 15 Torsion [C]-CA--N-[C] |==|  0.62813
USER: genes 16 Torsion [N]-C--CA-[N] |==|  0.27043
USER: genes 17 Torsion [C]-CA--CB-[CG] |==|  0.28489
USER: genes 18 Torsion [CA]-CB--CG-[CD] |==|  0.97682
USER: genes 19 Torsion [CB]-CG--CD-[OE1] |==|  0.27968
USER: genes 20 Torsion [C]-CA--N-[C] |==|  0.71745
ROOT
ATOM      1  C   LEU E   1       6.708  -4.508 -12.532  1.00 28.67 LIG 0.24  C 
ATOM      2 O    LEU E   1       7.253  -4.742 -13.616  1.00 26.53 LIG-0.27  OA
ATOM      3  N   ASP E   2       5.663  -5.195 -12.078  1.00 29.47 LIG-0.35  N 
ATOM      4 H    ASP E   2       5.335  -5.106 -11.289  1.00 29.47 LIG 0.16  HD
ENDROOT
BRANCH 3 5
ATOM      5  CA  ASP E   2       4.983  -6.172 -12.908  1.00 30.54 LIG 0.19  C 
BRANCH 5 6
ATOM      6  CB  ASP E   2       5.194  -7.597 -12.384  1.00 32.40 LIG 0.15  C 
BRANCH 6 7
ATOM      7  CG  ASP E   2       4.607  -8.646 -13.302  1.00 34.09 LIG 0.17  C 
ATOM      8 OD2  ASP E   2       4.549  -8.399 -14.522  1.00 37.71 LIG-0.65  OA
ATOM      9 OD1  ASP E   2       4.209  -9.724 -12.808  1.00 36.77 LIG-0.65  OA
ENDBRANCH 6 7
ENDBRANCH 5 6
BRANCH 5 10
ATOM     10  C   ASP E   2       3.513  -5.830 -12.899  1.00 30.01 LIG 0.24  C 
ATOM     11 O    ASP E   2       2.961  -5.453 -11.864  1.00 27.94 LIG-0.27  OA
ATOM     12  N   LEU E   3       2.890  -5.957 -14.063  1.00 30.14 LIG-0.35  N 
ATOM     13 H    LEU E   3       3.281  -6.207 -14.787  1.00 30.14 LIG 0.16  HD
BRANCH 12 14
ATOM     14  CA  LEU E   3       1.474  -5.682 -14.219  1.00 30.90 LIG 0.18  C 
BRANCH 14 15
ATOM     15  C   LEU E   3       0.656  -6.791 -13.558  1.00 32.33 LIG 0.24  C 
ATOM     16 O    LEU E   3       1.178  -7.872 -13.259  1.00 31.45 LIG-0.27  OA
ATOM     17  N   ALA E   4      -0.618  -6.500 -13.307  1.00 33.58 LIG-0.34  N 
ATOM     18 H    ALA E   4      -0.988  -5.754 -13.521  1.00 33.58 LIG 0.16  HD
BRANCH 17 19
ATOM     19  CA  ALA E   4      -1.511  -7.441 -12.635  1.00 35.71 LIG 0.18  C 
ATOM     20  CB  ALA E   4      -1.795  -6.978 -11.215  1.00 36.03 LIG 0.04  C 
BRANCH 19 21
ATOM     21  C   ALA E   4      -2.814  -7.587 -13.409  1.00 37.05 LIG 0.20  C 
ATOM     22 OXT  ALA E   4      -3.887  -7.678 -12.817  1.00 36.72 LIG-0.65  OA
ATOM     23 O    ALA E   4      -2.824  -7.613 -14.641  1.00 37.61 LIG-0.65  OA
ENDBRANCH 19 21
ENDBRANCH 17 19
ENDBRANCH 14 15
BRANCH 14 24
ATOM     24  CB  LEU E   3       1.139  -5.569 -15.707  1.00 30.03 LIG 0.04  C 
BRANCH 24 25
ATOM     25  CG  LEU E   3       0.395  -4.340 -16.220  1.00 29.85 LIG-0.02  C 
ATOM     26  CD1 LEU E   3       0.875  -3.917 -17.598  1.00 29.46 LIG 0.01  C 
ATOM     27  CD2 LEU E   3      -1.093  -4.647 -16.227  1.00 29.65 LIG 0.01  C 
ENDBRANCH 24 25
ENDBRANCH 14 24
ENDBRANCH 12 14
ENDBRANCH 5 10
ENDBRANCH 3 5
BRANCH 1 28
ATOM     28  CA  LEU E   1       7.222  -3.406 -11.623  1.00 29.46 LIG 0.18  C 
BRANCH 28 29
ATOM     29  CB  LEU E   1       6.918  -2.032 -12.223  1.00 29.35 LIG 0.04  C 
BRANCH 29 30
ATOM     30  CG  LEU E   1       6.518  -0.956 -11.203  1.00 30.22 LIG-0.02  C 
ATOM     31  CD2 LEU E   1       5.770   0.187 -11.874  1.00 31.32 LIG 0.01  C 
ATOM     32  CD1 LEU E   1       7.731  -0.441 -10.450  1.00 30.06 LIG 0.01  C 
ENDBRANCH 29 30
ENDBRANCH 28 29
BRANCH 28 33
ATOM     33  N   LEU E   1       8.654  -3.589 -11.406  1.00 28.73 LIG-0.35  N 
ATOM     34  C   GLN E   0       9.173  -3.498 -10.186  1.00 28.95 LIG 0.24  C 
ATOM     35 O    GLN E   0       8.521  -3.143  -9.208  1.00 30.73 LIG-0.27  OA
ATOM     36 H    LEU E   1       9.109  -3.754 -12.117  1.00 28.73 LIG 0.16  HD
BRANCH 34 37
ATOM     37  CA  GLN E   0      10.644  -3.848 -10.033  1.00 28.12 LIG 0.18  C 
BRANCH 37 38
ATOM     38  CB  GLN E   0      10.846  -4.607  -8.715  1.00 27.70 LIG 0.04  C 
BRANCH 38 39
ATOM     39  CG  GLN E   0      11.014  -6.118  -8.858  1.00 26.51 LIG 0.10  C 
BRANCH 39 40
ATOM     40  CD  GLN E   0      10.746  -6.600 -10.272  1.00 26.51 LIG 0.21  C 
ATOM     41 OE1  GLN E   0      11.684  -6.850 -11.038  1.00 26.66 LIG-0.27  OA
ATOM     42  NE2 GLN E   0       9.470  -6.738 -10.629  1.00 24.64 LIG-0.37  N 
ATOM     43 22HE GLN E   0       9.272  -7.011 -11.420  1.00 24.64 LIG 0.16  HD
ATOM     44 21HE GLN E   0       8.844  -6.554 -10.068  1.00 24.64 LIG 0.16  HD
ENDBRANCH 39 40
ENDBRANCH 38 39
ENDBRANCH 37 38
BRANCH 37 45
ATOM     45  N   GLN E   0      11.472  -2.590 -10.050  1.00 28.94 LIG-0.35  N 
ATOM     46  C   ACE E  -1      12.165  -2.179 -11.139  1.00 29.25 LIG 0.21  C 
ATOM     47 O    ACE E  -1      11.676  -2.454 -12.239  1.00 28.69 LIG-0.27  OA
ATOM     48  CH3 ACE E  -1      12.651  -0.748 -10.980  1.00 29.73 LIG 0.12  C 
ATOM     49 H    GLN E   0      11.463  -2.159  -9.306  1.00 28.94 LIG 0.16  HD
ENDBRANCH 37 45
ENDBRANCH 34 37
ENDBRANCH 28 33
ENDBRANCH 1 28
TORSDOF 19
ENDMDL
MODEL 16
USER: ADFR SOLUTION from run 199
USER: SCORE 14.155136 LL:  -3.842 LR: -12.272 RR:   0.000 FEB:  -6.604
USER: RMSD 8.521104
USER: SEED 198
USER: STATUS no improvement in best in 7 clusters for 5 generations
USER: GENES 21
USER: genes 0 Translation |==|  0.64572 0.48446 0.48926
USER: genes 1 Rotation |==|  0.72942 0.12415 0.73482 0.53100
USER: genes 2 Torsion [C]-N--CA-[CB] |==|  0.44508
USER: genes 3 Torsion [N]-CA--CB-[CG] |==|  0.78240
USER: genes 4 Torsion [CA]-CB--CG-[OD2] |==|  0.41690
USER: genes 5 Torsion [N]-CA--C-[N] |==|  0.87037
USER: genes 6 Torsion [C]-N--CA-[C] |==|  0.83780
USER: genes 7 Torsion [N]-CA--C-[N] |==|  0.37963
USER: genes 8 Torsion [C]-N--CA-[CB] |==|  0.18048
USER: genes 9 Torsion [N]-CA--C-[OXT] |==|  0.59897
USER: genes 10 Torsion [N]-CA--CB-[CG] |==|  0.61337
USER: genes 11 Torsion [CA]-CB--CG-[CD2] |==|  0.04398
USER: genes 12 Torsion [N]-C--CA-[N] |==|  0.08755
USER: genes 13 Torsion [C]-CA--CB-[CG] |==|  0.57400
USER: genes 14 Torsion [CA]-CB--CG-[CD2] |==|  0.62382
USER: genes 15 Torsion [C]-CA--N-[C] |==|  0.68248
USER: genes 16 Torsion [N]-C--CA-[N] |==|  0.11525
USER: genes 17 Torsion [C]-CA--CB-[CG] |==|  0.82160
USER: genes 18 Torsion [CA]-CB--CG-[CD] |==|  0.27245
USER: genes 19 Torsion [CB]-CG--CD-[OE1] |==|  0.61746
USER: genes 20 Torsion [C]-CA--N-[C] |==|  0.70498
ROOT
ATOM      1  C   LEU E   1       6.041  -6.072 -13.401  1.00 28.67 LIG 0.24  C 
ATOM      2 O    LEU E   1       5.789  -6.720 -14.422  1.00 26.53 LIG-0.27  OA
ATOM      3  N   ASP E   2       5.899  -6.562 -12.173  1.00 29.47 LIG-0.35  N 
ATOM      4 H    ASP E   2       6.159  -6.157 -11.460  1.00 29.47 LIG 0.16  HD
ENDROOT
BRANCH 3 5
ATOM      5  CA  ASP E   2       5.278  -7.853 -11.941  1.00 30.54 LIG 0.19  C 
BRANCH 5 6
ATOM      6  CB  ASP E   2       5.652  -8.417 -10.566  1.00 32.40 LIG 0.15  C 
BRANCH 6 7
ATOM      7  CG  ASP E   2       7.038  -9.023 -10.544  1.00 34.09 LIG 0.17  C 
ATOM      8 OD2  ASP E   2       7.677  -8.995  -9.474  1.00 37.71 LIG-0.65  OA
ATOM      9 OD1  ASP E   2       7.488  -9.537 -11.591  1.00 36.77 LIG-0.65  OA
ENDBRANCH 6 7
ENDBRANCH 5 6
BRANCH 5 10
ATOM     10  C   ASP E   2       3.785  -7.661 -12.033  1.00 30.01 LIG 0.24  C 
ATOM     11 O    ASP E   2       3.088  -8.441 -12.684  1.00 27.94 LIG-0.27  OA
ATOM     12  N   LEU E   3       3.301  -6.621 -11.367  1.00 30.14 LIG-0.35  N 
ATOM     13 H    LEU E   3       3.787  -6.086 -10.901  1.00 30.14 LIG 0.16  HD
BRANCH 12 14
ATOM     14  CA  LEU E   3       1.888  -6.289 -11.365  1.00 30.90 LIG 0.18  C 
BRANCH 14 15
ATOM     15  C   LEU E   3       1.411  -6.053 -12.799  1.00 32.33 LIG 0.24  C 
ATOM     16 O    LEU E   3       2.105  -5.417 -13.601  1.00 31.45 LIG-0.27  OA
ATOM     17  N   ALA E   4       0.240  -6.597 -13.116  1.00 33.58 LIG-0.34  N 
ATOM     18 H    ALA E   4      -0.250  -7.033 -12.559  1.00 33.58 LIG 0.16  HD
BRANCH 17 19
ATOM     19  CA  ALA E   4      -0.323  -6.500 -14.461  1.00 35.71 LIG 0.18  C 
ATOM     20  CB  ALA E   4       0.554  -7.244 -15.455  1.00 36.03 LIG 0.04  C 
BRANCH 19 21
ATOM     21  C   ALA E   4      -1.738  -7.058 -14.490  1.00 37.05 LIG 0.20  C 
ATOM     22 OXT  ALA E   4      -2.151  -7.667 -15.474  1.00 36.72 LIG-0.65  OA
ATOM     23 O    ALA E   4      -2.499  -6.917 -13.530  1.00 37.61 LIG-0.65  OA
ENDBRANCH 19 21
ENDBRANCH 17 19
ENDBRANCH 14 15
BRANCH 14 24
ATOM     24  CB  LEU E   3       1.658  -5.048 -10.502  1.00 30.03 LIG 0.04  C 
BRANCH 24 25
ATOM     25  CG  LEU E   3       0.444  -4.985  -9.581  1.00 29.85 LIG-0.02  C 
ATOM     26  CD1 LEU E   3      -0.615  -4.027 -10.097  1.00 29.46 LIG 0.01  C 
ATOM     27  CD2 LEU E   3      -0.114  -6.389  -9.426  1.00 29.65 LIG 0.01  C 
ENDBRANCH 24 25
ENDBRANCH 14 24
ENDBRANCH 12 14
ENDBRANCH 5 10
ENDBRANCH 3 5
BRANCH 1 28
ATOM     28  CA  LEU E   1       6.555  -4.646 -13.491  1.00 29.46 LIG 0.18  C 
BRANCH 28 29
ATOM     29  CB  LEU E   1       7.256  -4.412 -14.829  1.00 29.35 LIG 0.04  C 
BRANCH 29 30
ATOM     30  CG  LEU E   1       8.331  -3.315 -14.812  1.00 30.22 LIG-0.02  C 
ATOM     31  CD2 LEU E   1       8.211  -2.408 -16.028  1.00 31.32 LIG 0.01  C 
ATOM     32  CD1 LEU E   1       9.722  -3.916 -14.720  1.00 30.06 LIG 0.01  C 
ENDBRANCH 29 30
ENDBRANCH 28 29
BRANCH 28 33
ATOM     33  N   LEU E   1       7.449  -4.385 -12.366  1.00 28.73 LIG-0.35  N 
ATOM     34  C   GLN E   0       7.125  -3.499 -11.432  1.00 28.95 LIG 0.24  C 
ATOM     35 O    GLN E   0       6.137  -2.772 -11.514  1.00 30.73 LIG-0.27  OA
ATOM     36 H    LEU E   1       8.177  -4.844 -12.370  1.00 28.73 LIG 0.16  HD
BRANCH 34 37
ATOM     37  CA  GLN E   0       8.042  -3.399 -10.224  1.00 28.12 LIG 0.18  C 
BRANCH 37 38
ATOM     38  CB  GLN E   0       7.773  -2.077  -9.494  1.00 27.70 LIG 0.04  C 
BRANCH 38 39
ATOM     39  CG  GLN E   0       8.101  -0.819 -10.296  1.00 26.51 LIG 0.10  C 
BRANCH 39 40
ATOM     40  CD  GLN E   0       6.875  -0.213 -10.954  1.00 26.51 LIG 0.21  C 
ATOM     41 OE1  GLN E   0       6.930   0.208 -12.115  1.00 26.66 LIG-0.27  OA
ATOM     42  NE2 GLN E   0       5.762  -0.167 -10.224  1.00 24.64 LIG-0.37  N 
ATOM     43 22HE GLN E   0       5.042   0.166 -10.558  1.00 24.64 LIG 0.16  HD
ATOM     44 21HE GLN E   0       5.762  -0.470  -9.419  1.00 24.64 LIG 0.16  HD
ENDBRANCH 39 40
ENDBRANCH 38 39
ENDBRANCH 37 38
BRANCH 37 45
ATOM     45  N   GLN E   0       9.479  -3.473 -10.669  1.00 28.94 LIG-0.35  N 
ATOM     46  C   ACE E  -1      10.254  -4.569 -10.477  1.00 29.25 LIG 0.21  C 
ATOM     47 O    ACE E  -1       9.680  -5.661 -10.506  1.00 28.69 LIG-0.27  OA
ATOM     48  CH3 ACE E  -1      11.540  -4.487 -11.284  1.00 29.73 LIG 0.12  C 
ATOM     49 H    GLN E   0       9.761  -2.758 -11.053  1.00 28.94 LIG 0.16  HD
ENDBRANCH 37 45
ENDBRANCH 34 37
ENDBRANCH 28 33
ENDBRANCH 1 28
TORSDOF 19
ENDMDL
MODEL 17
USER: ADFR SOLUTION from run 14
USER: SCORE 14.439080 LL:  -4.399 LR: -12.257 RR:   0.000 FEB:  -6.589
USER: RMSD 9.462805
USER: SEED 878050
USER: STATUS no improvement in best in 4 clusters for 5 generations
USER: GENES 21
USER: genes 0 Translation |==|  0.66876 0.59789 0.55054
USER: genes 1 Rotation |==|  0.38969 0.98329 0.46983 0.55793
USER: genes 2 Torsion [C]-N--CA-[CB] |==|  0.26666
USER: genes 3 Torsion [N]-CA--CB-[CG] |==|  0.86219
USER: genes 4 Torsion [CA]-CB--CG-[OD2] |==|  0.77711
USER: genes 5 Torsion [N]-CA--C-[N] |==|  0.28861
USER: genes 6 Torsion [C]-N--CA-[C] |==|  0.76295
USER: genes 7 Torsion [N]-CA--C-[N] |==|  0.84182
USER: genes 8 Torsion [C]-N--CA-[CB] |==|  0.84183
USER: genes 9 Torsion [N]-CA--C-[OXT] |==|  0.49526
USER: genes 10 Torsion [N]-CA--CB-[CG] |==|  0.50133
USER: genes 11 Torsion [CA]-CB--CG-[CD2] |==|  0.48579
USER: genes 12 Torsion [N]-C--CA-[N] |==|  0.18510
USER: genes 13 Torsion [C]-CA--CB-[CG] |==|  0.38541
USER: genes 14 Torsion [CA]-CB--CG-[CD2] |==|  0.05472
USER: genes 15 Torsion [C]-CA--N-[C] |==|  0.17648
USER: genes 16 Torsion [N]-C--CA-[N] |==|  0.95616
USER: genes 17 Torsion [C]-CA--CB-[CG] |==|  0.69945
USER: genes 18 Torsion [CA]-CB--CG-[CD] |==|  0.20566
USER: genes 19 Torsion [CB]-CG--CD-[OE1] |==|  0.55787
USER: genes 20 Torsion [C]-CA--N-[C] |==|  0.79022
ROOT
ATOM      1  C   LEU E   1       6.559  -4.030 -12.390  1.00 28.67 LIG 0.24  C 
ATOM      2 O    LEU E   1       6.473  -3.419 -13.460  1.00 26.53 LIG-0.27  OA
ATOM      3  N   ASP E   2       5.879  -5.142 -12.128  1.00 29.47 LIG-0.35  N 
ATOM      4 H    ASP E   2       5.999  -5.627 -11.428  1.00 29.47 LIG 0.16  HD
ENDROOT
BRANCH 3 5
ATOM      5  CA  ASP E   2       4.853  -5.632 -13.031  1.00 30.54 LIG 0.19  C 
BRANCH 5 6
ATOM      6  CB  ASP E   2       5.407  -6.697 -13.984  1.00 32.40 LIG 0.15  C 
BRANCH 6 7
ATOM      7  CG  ASP E   2       6.687  -6.262 -14.662  1.00 34.09 LIG 0.17  C 
ATOM      8 OD2  ASP E   2       6.605  -5.502 -15.647  1.00 37.71 LIG-0.65  OA
ATOM      9 OD1  ASP E   2       7.778  -6.669 -14.207  1.00 36.77 LIG-0.65  OA
ENDBRANCH 6 7
ENDBRANCH 5 6
BRANCH 5 10
ATOM     10  C   ASP E   2       3.748  -6.217 -12.188  1.00 30.01 LIG 0.24  C 
ATOM     11 O    ASP E   2       3.883  -7.315 -11.647  1.00 27.94 LIG-0.27  OA
ATOM     12  N   LEU E   3       2.659  -5.468 -12.074  1.00 30.14 LIG-0.35  N 
ATOM     13 H    LEU E   3       2.572  -4.695 -12.441  1.00 30.14 LIG 0.16  HD
BRANCH 12 14
ATOM     14  CA  LEU E   3       1.500  -5.894 -11.311  1.00 30.90 LIG 0.18  C 
BRANCH 14 15
ATOM     15  C   LEU E   3       0.596  -6.762 -12.185  1.00 32.33 LIG 0.24  C 
ATOM     16 O    LEU E   3       0.271  -7.901 -11.827  1.00 31.45 LIG-0.27  OA
ATOM     17  N   ALA E   4       0.171  -6.202 -13.314  1.00 33.58 LIG-0.34  N 
ATOM     18 H    ALA E   4       0.400  -5.414 -13.571  1.00 33.58 LIG 0.16  HD
BRANCH 17 19
ATOM     19  CA  ALA E   4      -0.739  -6.890 -14.228  1.00 35.71 LIG 0.18  C 
ATOM     20  CB  ALA E   4      -0.143  -8.218 -14.666  1.00 36.03 LIG 0.04  C 
BRANCH 19 21
ATOM     21  C   ALA E   4      -2.091  -7.114 -13.567  1.00 37.05 LIG 0.20  C 
ATOM     22 OXT  ALA E   4      -3.008  -7.652 -14.184  1.00 36.72 LIG-0.65  OA
ATOM     23 O    ALA E   4      -2.297  -6.767 -12.402  1.00 37.61 LIG-0.65  OA
ENDBRANCH 19 21
ENDBRANCH 17 19
ENDBRANCH 14 15
BRANCH 14 24
ATOM     24  CB  LEU E   3       0.748  -4.664 -10.800  1.00 30.03 LIG 0.04  C 
BRANCH 24 25
ATOM     25  CG  LEU E   3      -0.509  -4.847  -9.955  1.00 29.85 LIG-0.02  C 
ATOM     26  CD1 LEU E   3      -0.278  -5.783  -8.783  1.00 29.46 LIG 0.01  C 
ATOM     27  CD2 LEU E   3      -0.972  -3.479  -9.483  1.00 29.65 LIG 0.01  C 
ENDBRANCH 24 25
ENDBRANCH 14 24
ENDBRANCH 12 14
ENDBRANCH 5 10
ENDBRANCH 3 5
BRANCH 1 28
ATOM     28  CA  LEU E   1       7.483  -3.543 -11.288  1.00 29.46 LIG 0.18  C 
BRANCH 28 29
ATOM     29  CB  LEU E   1       8.017  -2.148 -11.614  1.00 29.35 LIG 0.04  C 
BRANCH 29 30
ATOM     30  CG  LEU E   1       8.069  -1.182 -10.421  1.00 30.22 LIG-0.02  C 
ATOM     31  CD2 LEU E   1       8.039  -1.938  -9.100  1.00 31.32 LIG 0.01  C 
ATOM     32  CD1 LEU E   1       6.941  -0.168 -10.489  1.00 30.06 LIG 0.01  C 
ENDBRANCH 29 30
ENDBRANCH 28 29
BRANCH 28 33
ATOM     33  N   LEU E   1       8.569  -4.503 -11.111  1.00 28.73 LIG-0.35  N 
ATOM     34  C   GLN E   0       9.437  -4.735 -12.089  1.00 28.95 LIG 0.24  C 
ATOM     35 O    GLN E   0       9.315  -4.262 -13.216  1.00 30.73 LIG-0.27  OA
ATOM     36 H    LEU E   1       8.589  -4.887 -10.341  1.00 28.73 LIG 0.16  HD
BRANCH 34 37
ATOM     37  CA  GLN E   0      10.618  -5.635 -11.766  1.00 28.12 LIG 0.18  C 
BRANCH 37 38
ATOM     38  CB  GLN E   0      10.398  -7.007 -12.416  1.00 27.70 LIG 0.04  C 
BRANCH 38 39
ATOM     39  CG  GLN E   0      10.069  -8.137 -11.443  1.00 26.51 LIG 0.10  C 
BRANCH 39 40
ATOM     40  CD  GLN E   0       8.652  -8.047 -10.907  1.00 26.51 LIG 0.21  C 
ATOM     41 OE1  GLN E   0       8.342  -8.619  -9.855  1.00 26.66 LIG-0.27  OA
ATOM     42  NE2 GLN E   0       7.784  -7.329 -11.618  1.00 24.64 LIG-0.37  N 
ATOM     43 22HE GLN E   0       6.970  -7.250 -11.349  1.00 24.64 LIG 0.16  HD
ATOM     44 21HE GLN E   0       8.036  -6.946 -12.345  1.00 24.64 LIG 0.16  HD
ENDBRANCH 39 40
ENDBRANCH 38 39
ENDBRANCH 37 38
BRANCH 37 45
ATOM     45  N   GLN E   0      10.760  -5.775 -10.274  1.00 28.94 LIG-0.35  N 
ATOM     46  C   ACE E  -1      11.268  -4.796  -9.486  1.00 29.25 LIG 0.21  C 
ATOM     47 O    ACE E  -1      11.057  -3.635  -9.847  1.00 28.69 LIG-0.27  OA
ATOM     48  CH3 ACE E  -1      11.012  -5.079  -8.015  1.00 29.73 LIG 0.12  C 
ATOM     49 H    GLN E   0      10.489  -6.533  -9.969  1.00 28.94 LIG 0.16  HD
ENDBRANCH 37 45
ENDBRANCH 34 37
ENDBRANCH 28 33
ENDBRANCH 1 28
TORSDOF 19
ENDMDL
MODEL 18
USER: ADFR SOLUTION from run 47
USER: SCORE 14.106576 LL:  -3.544 LR: -12.253 RR:   0.000 FEB:  -6.585
USER: RMSD 8.662894
USER: SEED 46
USER: STATUS no improvement in best in 4 clusters for 5 generations
USER: GENES 21
USER: genes 0 Translation |==|  0.39527 0.45571 0.50851
USER: genes 1 Rotation |==|  0.45031 0.63083 0.02753 0.58478
USER: genes 2 Torsion [C]-N--CA-[CB] |==|  0.88291
USER: genes 3 Torsion [N]-CA--CB-[CG] |==|  0.76561
USER: genes 4 Torsion [CA]-CB--CG-[OD2] |==|  0.54410
USER: genes 5 Torsion [N]-CA--C-[N] |==|  0.36484
USER: genes 6 Torsion [C]-N--CA-[C] |==|  0.18376
USER: genes 7 Torsion [N]-CA--C-[N] |==|  0.02797
USER: genes 8 Torsion [C]-N--CA-[CB] |==|  0.30282
USER: genes 9 Torsion [N]-CA--C-[OXT] |==|  0.41704
USER: genes 10 Torsion [N]-CA--CB-[CG] |==|  0.73203
USER: genes 11 Torsion [CA]-CB--CG-[CD2] |==|  0.14805
USER: genes 12 Torsion [N]-C--CA-[N] |==|  0.42124
USER: genes 13 Torsion [C]-CA--CB-[CG] |==|  0.27173
USER: genes 14 Torsion [CA]-CB--CG-[CD2] |==|  0.58774
USER: genes 15 Torsion [C]-CA--N-[C] |==|  0.82200
USER: genes 16 Torsion [N]-C--CA-[N] |==|  0.75338
USER: genes 17 Torsion [C]-CA--CB-[CG] |==|  0.37501
USER: genes 18 Torsion [CA]-CB--CG-[CD] |==|  0.84175
USER: genes 19 Torsion [CB]-CG--CD-[OE1] |==|  0.68303
USER: genes 20 Torsion [C]-CA--N-[C] |==|  0.15449
ROOT
ATOM      1  C   LEU E   1       0.406  -6.589 -13.084  1.00 28.67 LIG 0.24  C 
ATOM      2 O    LEU E   1       0.862  -7.658 -12.665  1.00 26.53 LIG-0.27  OA
ATOM      3  N   ASP E   2      -0.849  -6.201 -12.876  1.00 29.47 LIG-0.35  N 
ATOM      4 H    ASP E   2      -1.153  -5.423 -13.080  1.00 29.47 LIG 0.16  HD
ENDROOT
BRANCH 3 5
ATOM      5  CA  ASP E   2      -1.826  -7.091 -12.274  1.00 30.54 LIG 0.19  C 
BRANCH 5 6
ATOM      6  CB  ASP E   2      -1.711  -8.512 -12.834  1.00 32.40 LIG 0.15  C 
BRANCH 6 7
ATOM      7  CG  ASP E   2      -2.475  -8.690 -14.127  1.00 34.09 LIG 0.17  C 
ATOM      8 OD2  ASP E   2      -2.710  -9.850 -14.520  1.00 37.71 LIG-0.65  OA
ATOM      9 OD1  ASP E   2      -2.850  -7.673 -14.751  1.00 36.77 LIG-0.65  OA
ENDBRANCH 6 7
ENDBRANCH 5 6
BRANCH 5 10
ATOM     10  C   ASP E   2      -1.573  -7.099 -10.786  1.00 30.01 LIG 0.24  C 
ATOM     11 O    ASP E   2      -0.436  -7.258 -10.342  1.00 27.94 LIG-0.27  OA
ATOM     12  N   LEU E   3      -2.644  -6.919 -10.024  1.00 30.14 LIG-0.35  N 
ATOM     13 H    LEU E   3      -3.436  -6.794 -10.337  1.00 30.14 LIG 0.16  HD
BRANCH 12 14
ATOM     14  CA  LEU E   3      -2.574  -6.916  -8.574  1.00 30.90 LIG 0.18  C 
BRANCH 14 15
ATOM     15  C   LEU E   3      -1.765  -5.708  -8.099  1.00 32.33 LIG 0.24  C 
ATOM     16 O    LEU E   3      -1.395  -5.617  -6.923  1.00 31.45 LIG-0.27  OA
ATOM     17  N   ALA E   4      -1.472  -4.806  -9.030  1.00 33.58 LIG-0.34  N 
ATOM     18 H    ALA E   4      -1.734  -4.861  -9.848  1.00 33.58 LIG 0.16  HD
BRANCH 17 19
ATOM     19  CA  ALA E   4      -0.664  -3.623  -8.739  1.00 35.71 LIG 0.18  C 
ATOM     20  CB  ALA E   4       0.705  -3.746  -9.388  1.00 36.03 LIG 0.04  C 
BRANCH 19 21
ATOM     21  C   ALA E   4      -1.365  -2.364  -9.227  1.00 37.05 LIG 0.20  C 
ATOM     22 OXT  ALA E   4      -1.192  -1.289  -8.655  1.00 36.72 LIG-0.65  OA
ATOM     23 O    ALA E   4      -2.116  -2.390 -10.204  1.00 37.61 LIG-0.65  OA
ENDBRANCH 19 21
ENDBRANCH 17 19
ENDBRANCH 14 15
BRANCH 14 24
ATOM     24  CB  LEU E   3      -1.939  -8.221  -8.094  1.00 30.03 LIG 0.04  C 
BRANCH 24 25
ATOM     25  CG  LEU E   3      -2.833  -9.377  -7.656  1.00 29.85 LIG-0.02  C 
ATOM     26  CD1 LEU E   3      -3.551  -9.081  -6.351  1.00 29.46 LIG 0.01  C 
ATOM     27  CD2 LEU E   3      -3.821  -9.669  -8.773  1.00 29.65 LIG 0.01  C 
ENDBRANCH 24 25
ENDBRANCH 14 24
ENDBRANCH 12 14
ENDBRANCH 5 10
ENDBRANCH 3 5
BRANCH 1 28
ATOM     28  CA  LEU E   1       1.277  -5.624 -13.867  1.00 29.46 LIG 0.18  C 
BRANCH 28 29
ATOM     29  CB  LEU E   1       1.098  -5.841 -15.371  1.00 29.35 LIG 0.04  C 
BRANCH 29 30
ATOM     30  CG  LEU E   1       0.118  -4.873 -16.050  1.00 30.22 LIG-0.02  C 
ATOM     31  CD2 LEU E   1      -0.590  -5.540 -17.221  1.00 31.32 LIG 0.01  C 
ATOM     32  CD1 LEU E   1       0.823  -3.605 -16.496  1.00 30.06 LIG 0.01  C 
ENDBRANCH 29 30
ENDBRANCH 28 29
BRANCH 28 33
ATOM     33  N   LEU E   1       2.669  -5.796 -13.464  1.00 28.73 LIG-0.35  N 
ATOM     34  C   GLN E   0       3.056  -5.524 -12.223  1.00 28.95 LIG 0.24  C 
ATOM     35 O    GLN E   0       2.314  -5.010 -11.390  1.00 30.73 LIG-0.27  OA
ATOM     36 H    LEU E   1       3.193  -6.078 -14.086  1.00 28.73 LIG 0.16  HD
BRANCH 34 37
ATOM     37  CA  GLN E   0       4.488  -5.872 -11.852  1.00 28.12 LIG 0.18  C 
BRANCH 37 38
ATOM     38  CB  GLN E   0       5.383  -5.703 -13.087  1.00 27.70 LIG 0.04  C 
BRANCH 38 39
ATOM     39  CG  GLN E   0       6.701  -4.973 -12.834  1.00 26.51 LIG 0.10  C 
BRANCH 39 40
ATOM     40  CD  GLN E   0       6.495  -3.593 -12.238  1.00 26.51 LIG 0.21  C 
ATOM     41 OE1  GLN E   0       6.802  -2.581 -12.879  1.00 26.66 LIG-0.27  OA
ATOM     42  NE2 GLN E   0       5.973  -3.538 -11.014  1.00 24.64 LIG-0.37  N 
ATOM     43 22HE GLN E   0       5.837  -2.776 -10.638  1.00 24.64 LIG 0.16  HD
ATOM     44 21HE GLN E   0       5.772  -4.264 -10.599  1.00 24.64 LIG 0.16  HD
ENDBRANCH 39 40
ENDBRANCH 38 39
ENDBRANCH 37 38
BRANCH 37 45
ATOM     45  N   GLN E   0       4.554  -7.288 -11.344  1.00 28.94 LIG-0.35  N 
ATOM     46  C   ACE E  -1       4.104  -8.349 -12.057  1.00 29.25 LIG 0.21  C 
ATOM     47 O    ACE E  -1       4.204  -8.268 -13.285  1.00 28.69 LIG-0.27  OA
ATOM     48  CH3 ACE E  -1       4.568  -9.663 -11.450  1.00 29.73 LIG 0.12  C 
ATOM     49 H    GLN E   0       4.902  -7.360 -10.561  1.00 28.94 LIG 0.16  HD
ENDBRANCH 37 45
ENDBRANCH 34 37
ENDBRANCH 28 33
ENDBRANCH 1 28
TORSDOF 19
ENDMDL
MODEL 19
USER: ADFR SOLUTION from run 160
USER: SCORE 14.410947 LL:  -3.390 LR: -12.236 RR:   0.000 FEB:  -6.568
USER: RMSD 9.392272
USER: SEED 159
USER: STATUS no improvement in best in 6 clusters for 5 generations
USER: GENES 21
USER: genes 0 Translation |==|  0.53223 0.50911 0.53931
USER: genes 1 Rotation |==|  0.60893 0.23163 0.09356 0.53034
USER: genes 2 Torsion [C]-N--CA-[CB] |==|  0.53137
USER: genes 3 Torsion [N]-CA--CB-[CG] |==|  0.74296
USER: genes 4 Torsion [CA]-CB--CG-[OD2] |==|  0.99694
USER: genes 5 Torsion [N]-CA--C-[N] |==|  0.35952
USER: genes 6 Torsion [C]-N--CA-[C] |==|  0.77778
USER: genes 7 Torsion [N]-CA--C-[N] |==|  0.95299
USER: genes 8 Torsion [C]-N--CA-[CB] |==|  0.19633
USER: genes 9 Torsion [N]-CA--C-[OXT] |==|  0.55301
USER: genes 10 Torsion [N]-CA--CB-[CG] |==|  0.93824
USER: genes 11 Torsion [CA]-CB--CG-[CD2] |==|  0.81749
USER: genes 12 Torsion [N]-C--CA-[N] |==|  0.39544
USER: genes 13 Torsion [C]-CA--CB-[CG] |==|  0.41642
USER: genes 14 Torsion [CA]-CB--CG-[CD2] |==|  0.54661
USER: genes 15 Torsion [C]-CA--N-[C] |==|  0.69804
USER: genes 16 Torsion [N]-C--CA-[N] |==|  0.23739
USER: genes 17 Torsion [C]-CA--CB-[CG] |==|  0.36519
USER: genes 18 Torsion [CA]-CB--CG-[CD] |==|  0.10952
USER: genes 19 Torsion [CB]-CG--CD-[OE1] |==|  0.20250
USER: genes 20 Torsion [C]-CA--N-[C] |==|  0.61088
ROOT
ATOM      1  C   LEU E   1       3.487  -5.628 -12.575  1.00 28.67 LIG 0.24  C 
ATOM      2 O    LEU E   1       2.960  -5.129 -11.576  1.00 26.53 LIG-0.27  OA
ATOM      3  N   ASP E   2       2.809  -5.953 -13.672  1.00 29.47 LIG-0.35  N 
ATOM      4 H    ASP E   2       3.175  -6.212 -14.406  1.00 29.47 LIG 0.16  HD
ENDROOT
BRANCH 3 5
ATOM      5  CA  ASP E   2       1.359  -5.891 -13.710  1.00 30.54 LIG 0.19  C 
BRANCH 5 6
ATOM      6  CB  ASP E   2       0.801  -6.568 -14.966  1.00 32.40 LIG 0.15  C 
BRANCH 6 7
ATOM      7  CG  ASP E   2       0.602  -5.598 -16.110  1.00 34.09 LIG 0.17  C 
ATOM      8 OD2  ASP E   2       0.877  -4.397 -15.921  1.00 37.71 LIG-0.65  OA
ATOM      9 OD1  ASP E   2       0.178  -6.035 -17.203  1.00 36.77 LIG-0.65  OA
ENDBRANCH 6 7
ENDBRANCH 5 6
BRANCH 5 10
ATOM     10  C   ASP E   2       0.843  -6.587 -12.475  1.00 30.01 LIG 0.24  C 
ATOM     11 O    ASP E   2       1.246  -7.710 -12.171  1.00 27.94 LIG-0.27  OA
ATOM     12  N   LEU E   3      -0.044  -5.904 -11.763  1.00 30.14 LIG-0.35  N 
ATOM     13 H    LEU E   3      -0.314  -5.114 -11.970  1.00 30.14 LIG 0.16  HD
BRANCH 12 14
ATOM     14  CA  LEU E   3      -0.648  -6.438 -10.556  1.00 30.90 LIG 0.18  C 
BRANCH 14 15
ATOM     15  C   LEU E   3      -1.780  -7.398 -10.926  1.00 32.33 LIG 0.24  C 
ATOM     16 O    LEU E   3      -2.247  -8.179 -10.089  1.00 31.45 LIG-0.27  OA
ATOM     17  N   ALA E   4      -2.232  -7.305 -12.173  1.00 33.58 LIG-0.34  N 
ATOM     18 H    ALA E   4      -1.906  -6.769 -12.761  1.00 33.58 LIG 0.16  HD
BRANCH 17 19
ATOM     19  CA  ALA E   4      -3.343  -8.121 -12.658  1.00 35.71 LIG 0.18  C 
ATOM     20  CB  ALA E   4      -4.648  -7.667 -12.024  1.00 36.03 LIG 0.04  C 
BRANCH 19 21
ATOM     21  C   ALA E   4      -3.442  -8.042 -14.175  1.00 37.05 LIG 0.20  C 
ATOM     22 OXT  ALA E   4      -4.481  -8.353 -14.752  1.00 36.72 LIG-0.65  OA
ATOM     23 O    ALA E   4      -2.488  -7.663 -14.857  1.00 37.61 LIG-0.65  OA
ENDBRANCH 19 21
ENDBRANCH 17 19
ENDBRANCH 14 15
BRANCH 14 24
ATOM     24  CB  LEU E   3      -1.168  -5.286  -9.695  1.00 30.03 LIG 0.04  C 
BRANCH 24 25
ATOM     25  CG  LEU E   3      -0.586  -3.888  -9.877  1.00 29.85 LIG-0.02  C 
ATOM     26  CD1 LEU E   3      -1.363  -2.841  -9.099  1.00 29.46 LIG 0.01  C 
ATOM     27  CD2 LEU E   3       0.873  -3.917  -9.453  1.00 29.65 LIG 0.01  C 
ENDBRANCH 24 25
ENDBRANCH 14 24
ENDBRANCH 12 14
ENDBRANCH 5 10
ENDBRANCH 3 5
BRANCH 1 28
ATOM     28  CA  LEU E   1       4.982  -5.893 -12.618  1.00 29.46 LIG 0.18  C 
BRANCH 28 29
ATOM     29  CB  LEU E   1       5.302  -7.256 -12.003  1.00 29.35 LIG 0.04  C 
BRANCH 29 30
ATOM     30  CG  LEU E   1       6.538  -7.954 -12.588  1.00 30.22 LIG-0.02  C 
ATOM     31  CD2 LEU E   1       6.552  -9.435 -12.236  1.00 31.32 LIG 0.01  C 
ATOM     32  CD1 LEU E   1       7.817  -7.277 -12.127  1.00 30.06 LIG 0.01  C 
ENDBRANCH 29 30
ENDBRANCH 28 29
BRANCH 28 33
ATOM     33  N   LEU E   1       5.682  -4.816 -11.925  1.00 28.73 LIG-0.35  N 
ATOM     34  C   GLN E   0       6.399  -3.926 -12.601  1.00 28.95 LIG 0.24  C 
ATOM     35 O    GLN E   0       6.615  -4.019 -13.807  1.00 30.73 LIG-0.27  OA
ATOM     36 H    LEU E   1       5.587  -4.816 -11.070  1.00 28.73 LIG 0.16  HD
BRANCH 34 37
ATOM     37  CA  GLN E   0       6.970  -2.757 -11.815  1.00 28.12 LIG 0.18  C 
BRANCH 37 38
ATOM     38  CB  GLN E   0       7.156  -1.560 -12.757  1.00 27.70 LIG 0.04  C 
BRANCH 38 39
ATOM     39  CG  GLN E   0       6.599  -0.236 -12.237  1.00 26.51 LIG 0.10  C 
BRANCH 39 40
ATOM     40  CD  GLN E   0       6.842  -0.048 -10.751  1.00 26.51 LIG 0.21  C 
ATOM     41 OE1  GLN E   0       7.976   0.205 -10.328  1.00 26.66 LIG-0.27  OA
ATOM     42  NE2 GLN E   0       5.786  -0.167  -9.948  1.00 24.64 LIG-0.37  N 
ATOM     43 22HE GLN E   0       5.877  -0.066  -9.099  1.00 24.64 LIG 0.16  HD
ATOM     44 21HE GLN E   0       5.012  -0.345 -10.279  1.00 24.64 LIG 0.16  HD
ENDBRANCH 39 40
ENDBRANCH 38 39
ENDBRANCH 37 38
BRANCH 37 45
ATOM     45  N   GLN E   0       8.286  -3.151 -11.199  1.00 28.94 LIG-0.35  N 
ATOM     46  C   ACE E  -1       8.655  -2.780  -9.948  1.00 29.25 LIG 0.21  C 
ATOM     47 O    ACE E  -1       7.748  -2.658  -9.121  1.00 28.69 LIG-0.27  OA
ATOM     48  CH3 ACE E  -1       9.871  -3.560  -9.474  1.00 29.73 LIG 0.12  C 
ATOM     49 H    GLN E   0       8.780  -3.632 -11.713  1.00 28.94 LIG 0.16  HD
ENDBRANCH 37 45
ENDBRANCH 34 37
ENDBRANCH 28 33
ENDBRANCH 1 28
TORSDOF 19
ENDMDL
MODEL 20
USER: ADFR SOLUTION from run 180
USER: SCORE 14.821589 LL:  -4.042 LR: -12.233 RR:   0.000 FEB:  -6.565
USER: RMSD 10.231308
USER: SEED 179
USER: STATUS searching
USER: GENES 21
USER: genes 0 Translation |==|  0.30847 0.42286 0.65113
USER: genes 1 Rotation |==|  0.48847 0.34185 0.71331 0.92351
USER: genes 2 Torsion [C]-N--CA-[CB] |==|  0.89277
USER: genes 3 Torsion [N]-CA--CB-[CG] |==|  0.65861
USER: genes 4 Torsion [CA]-CB--CG-[OD2] |==|  0.50745
USER: genes 5 Torsion [N]-CA--C-[N] |==|  0.89085
USER: genes 6 Torsion [C]-N--CA-[C] |==|  0.60408
USER: genes 7 Torsion [N]-CA--C-[N] |==|  0.49444
USER: genes 8 Torsion [C]-N--CA-[CB] |==|  0.22764
USER: genes 9 Torsion [N]-CA--C-[OXT] |==|  0.07442
USER: genes 10 Torsion [N]-CA--CB-[CG] |==|  0.10109
USER: genes 11 Torsion [CA]-CB--CG-[CD2] |==|  0.13507
USER: genes 12 Torsion [N]-C--CA-[N] |==|  0.90177
USER: genes 13 Torsion [C]-CA--CB-[CG] |==|  0.30410
USER: genes 14 Torsion [CA]-CB--CG-[CD2] |==|  0.94211
USER: genes 15 Torsion [C]-CA--N-[C] |==|  0.71113
USER: genes 16 Torsion [N]-C--CA-[N] |==|  0.52597
USER: genes 17 Torsion [C]-CA--CB-[CG] |==|  0.28008
USER: genes 18 Torsion [CA]-CB--CG-[CD] |==|  0.55102
USER: genes 19 Torsion [CB]-CG--CD-[OE1] |==|  0.05707
USER: genes 20 Torsion [C]-CA--N-[C] |==|  0.76505
ROOT
ATOM      1  C   LEU E   1      -1.548  -7.181 -10.730  1.00 28.67 LIG 0.24  C 
ATOM      2 O    LEU E   1      -2.619  -6.908 -10.180  1.00 26.53 LIG-0.27  OA
ATOM      3  N   ASP E   2      -0.364  -6.819 -10.243  1.00 29.47 LIG-0.35  N 
ATOM      4 H    ASP E   2       0.389  -7.081 -10.563  1.00 29.47 LIG 0.16  HD
ENDROOT
BRANCH 3 5
ATOM      5  CA  ASP E   2      -0.257  -5.930  -9.100  1.00 30.54 LIG 0.19  C 
BRANCH 5 6
ATOM      6  CB  ASP E   2      -1.316  -4.823  -9.149  1.00 32.40 LIG 0.15  C 
BRANCH 6 7
ATOM      7  CG  ASP E   2      -0.710  -3.438  -9.117  1.00 34.09 LIG 0.17  C 
ATOM      8 OD2  ASP E   2      -1.479  -2.457  -9.101  1.00 37.71 LIG-0.65  OA
ATOM      9 OD1  ASP E   2       0.535  -3.325  -9.099  1.00 36.77 LIG-0.65  OA
ENDBRANCH 6 7
ENDBRANCH 5 6
BRANCH 5 10
ATOM     10  C   ASP E   2      -0.440  -6.765  -7.857  1.00 30.01 LIG 0.24  C 
ATOM     11 O    ASP E   2       0.234  -6.549  -6.849  1.00 27.94 LIG-0.27  OA
ATOM     12  N   LEU E   3      -1.363  -7.714  -7.937  1.00 30.14 LIG-0.35  N 
ATOM     13 H    LEU E   3      -1.843  -7.854  -8.637  1.00 30.14 LIG 0.16  HD
BRANCH 12 14
ATOM     14  CA  LEU E   3      -1.651  -8.613  -6.834  1.00 30.90 LIG 0.18  C 
BRANCH 14 15
ATOM     15  C   LEU E   3      -1.949 -10.012  -7.372  1.00 32.33 LIG 0.24  C 
ATOM     16 O    LEU E   3      -1.932 -10.241  -8.588  1.00 31.45 LIG-0.27  OA
ATOM     17  N   ALA E   4      -2.189 -10.945  -6.456  1.00 33.58 LIG-0.34  N 
ATOM     18 H    ALA E   4      -2.210 -10.790  -5.610  1.00 33.58 LIG 0.16  HD
BRANCH 17 19
ATOM     19  CA  ALA E   4      -2.441 -12.339  -6.815  1.00 35.71 LIG 0.18  C 
ATOM     20  CB  ALA E   4      -1.129 -13.069  -7.052  1.00 36.03 LIG 0.04  C 
BRANCH 19 21
ATOM     21  C   ALA E   4      -3.238 -13.037  -5.721  1.00 37.05 LIG 0.20  C 
ATOM     22 OXT  ALA E   4      -3.983 -12.396  -4.983  1.00 36.72 LIG-0.65  OA
ATOM     23 O    ALA E   4      -3.158 -14.255  -5.552  1.00 37.61 LIG-0.65  OA
ENDBRANCH 19 21
ENDBRANCH 17 19
ENDBRANCH 14 15
BRANCH 14 24
ATOM     24  CB  LEU E   3      -2.835  -8.072  -6.033  1.00 30.03 LIG 0.04  C 
BRANCH 24 25
ATOM     25  CG  LEU E   3      -3.982  -7.376  -6.760  1.00 29.85 LIG-0.02  C 
ATOM     26  CD1 LEU E   3      -3.600  -5.981  -7.224  1.00 29.46 LIG 0.01  C 
ATOM     27  CD2 LEU E   3      -4.407  -8.247  -7.930  1.00 29.65 LIG 0.01  C 
ENDBRANCH 24 25
ENDBRANCH 14 24
ENDBRANCH 12 14
ENDBRANCH 5 10
ENDBRANCH 3 5
BRANCH 1 28
ATOM     28  CA  LEU E   1      -1.516  -7.978 -12.022  1.00 29.46 LIG 0.18  C 
BRANCH 28 29
ATOM     29  CB  LEU E   1      -1.385  -9.473 -11.725  1.00 29.35 LIG 0.04  C 
BRANCH 29 30
ATOM     30  CG  LEU E   1      -2.643 -10.303 -12.021  1.00 30.22 LIG-0.02  C 
ATOM     31  CD2 LEU E   1      -3.885  -9.423 -12.057  1.00 31.32 LIG 0.01  C 
ATOM     32  CD1 LEU E   1      -2.805 -11.426 -11.013  1.00 30.06 LIG 0.01  C 
ENDBRANCH 29 30
ENDBRANCH 28 29
BRANCH 28 33
ATOM     33  N   LEU E   1      -0.417  -7.501 -12.856  1.00 28.73 LIG-0.35  N 
ATOM     34  C   GLN E   0      -0.651  -6.727 -13.910  1.00 28.95 LIG 0.24  C 
ATOM     35 O    GLN E   0      -1.783  -6.470 -14.312  1.00 30.73 LIG-0.27  OA
ATOM     36 H    LEU E   1       0.364  -7.760 -12.608  1.00 28.73 LIG 0.16  HD
BRANCH 34 37
ATOM     37  CA  GLN E   0       0.559  -6.157 -14.632  1.00 28.12 LIG 0.18  C 
BRANCH 37 38
ATOM     38  CB  GLN E   0       1.504  -5.520 -13.605  1.00 27.70 LIG 0.04  C 
BRANCH 38 39
ATOM     39  CG  GLN E   0       2.711  -6.375 -13.222  1.00 26.51 LIG 0.10  C 
BRANCH 39 40
ATOM     40  CD  GLN E   0       3.351  -5.926 -11.922  1.00 26.51 LIG 0.21  C 
ATOM     41 OE1  GLN E   0       2.712  -5.245 -11.111  1.00 26.66 LIG-0.27  OA
ATOM     42  NE2 GLN E   0       4.610  -6.303 -11.709  1.00 24.64 LIG-0.37  N 
ATOM     43 22HE GLN E   0       5.012  -6.073 -10.984  1.00 24.64 LIG 0.16  HD
ATOM     44 21HE GLN E   0       5.023  -6.777 -12.297  1.00 24.64 LIG 0.16  HD
ENDBRANCH 39 40
ENDBRANCH 38 39
ENDBRANCH 37 38
BRANCH 37 45
ATOM     45  N   GLN E   0       0.113  -5.134 -15.644  1.00 28.94 LIG-0.35  N 
ATOM     46  C   ACE E  -1      -0.292  -5.462 -16.894  1.00 29.25 LIG 0.21  C 
ATOM     47 O    ACE E  -1      -0.862  -6.549 -17.020  1.00 28.69 LIG-0.27  OA
ATOM     48  CH3 ACE E  -1      -0.968  -4.288 -17.585  1.00 29.73 LIG 0.12  C 
ATOM     49 H    GLN E   0       0.141  -4.324 -15.354  1.00 28.94 LIG 0.16  HD
ENDBRANCH 37 45
ENDBRANCH 34 37
ENDBRANCH 28 33
ENDBRANCH 1 28
TORSDOF 19
ENDMDL
MODEL 21
USER: ADFR SOLUTION from run 12
USER: SCORE 12.759546 LL:  -3.465 LR: -12.207 RR:   0.000 FEB:  -6.539
USER: RMSD 9.877089
USER: SEED 52013
USER: STATUS no improvement in best in 8 clusters for 5 generations
USER: GENES 21
USER: genes 0 Translation |==|  0.65949 0.55107 0.50271
USER: genes 1 Rotation |==|  0.68768 0.05915 0.64290 0.50256
USER: genes 2 Torsion [C]-N--CA-[CB] |==|  0.47785
USER: genes 3 Torsion [N]-CA--CB-[CG] |==|  0.82686
USER: genes 4 Torsion [CA]-CB--CG-[OD2] |==|  0.36835
USER: genes 5 Torsion [N]-CA--C-[N] |==|  0.73518
USER: genes 6 Torsion [C]-N--CA-[C] |==|  0.61395
USER: genes 7 Torsion [N]-CA--C-[N] |==|  0.64513
USER: genes 8 Torsion [C]-N--CA-[CB] |==|  0.28871
USER: genes 9 Torsion [N]-CA--C-[OXT] |==|  0.17332
USER: genes 10 Torsion [N]-CA--CB-[CG] |==|  0.74150
USER: genes 11 Torsion [CA]-CB--CG-[CD2] |==|  0.27921
USER: genes 12 Torsion [N]-C--CA-[N] |==|  0.48889
USER: genes 13 Torsion [C]-CA--CB-[CG] |==|  0.42228
USER: genes 14 Torsion [CA]-CB--CG-[CD2] |==|  0.33603
USER: genes 15 Torsion [C]-CA--N-[C] |==|  0.79865
USER: genes 16 Torsion [N]-C--CA-[N] |==|  0.45688
USER: genes 17 Torsion [C]-CA--CB-[CG] |==|  0.47999
USER: genes 18 Torsion [CA]-CB--CG-[CD] |==|  0.77857
USER: genes 19 Torsion [CB]-CG--CD-[OE1] |==|  0.68838
USER: genes 20 Torsion [C]-CA--N-[C] |==|  0.57208
ROOT
ATOM      1  C   LEU E   1       6.350  -4.873 -13.179  1.00 28.67 LIG 0.24  C 
ATOM      2 O    LEU E   1       6.031  -4.955 -14.370  1.00 26.53 LIG-0.27  OA
ATOM      3  N   ASP E   2       6.040  -5.797 -12.275  1.00 29.47 LIG-0.35  N 
ATOM      4 H    ASP E   2       6.335  -5.799 -11.467  1.00 29.47 LIG 0.16  HD
ENDROOT
BRANCH 3 5
ATOM      5  CA  ASP E   2       5.155  -6.902 -12.596  1.00 30.54 LIG 0.19  C 
BRANCH 5 6
ATOM      6  CB  ASP E   2       5.108  -7.931 -11.462  1.00 32.40 LIG 0.15  C 
BRANCH 6 7
ATOM      7  CG  ASP E   2       6.453  -8.572 -11.202  1.00 34.09 LIG 0.17  C 
ATOM      8 OD2  ASP E   2       6.852  -8.651 -10.023  1.00 37.71 LIG-0.65  OA
ATOM      9 OD1  ASP E   2       7.112  -9.006 -12.172  1.00 36.77 LIG-0.65  OA
ENDBRANCH 6 7
ENDBRANCH 5 6
BRANCH 5 10
ATOM     10  C   ASP E   2       3.780  -6.327 -12.831  1.00 30.01 LIG 0.24  C 
ATOM     11 O    ASP E   2       3.462  -5.887 -13.936  1.00 27.94 LIG-0.27  OA
ATOM     12  N   LEU E   3       2.967  -6.346 -11.783  1.00 30.14 LIG-0.35  N 
ATOM     13 H    LEU E   3       3.186  -6.667 -11.016  1.00 30.14 LIG 0.16  HD
BRANCH 12 14
ATOM     14  CA  LEU E   3       1.616  -5.817 -11.839  1.00 30.90 LIG 0.18  C 
BRANCH 14 15
ATOM     15  C   LEU E   3       1.308  -5.049 -10.554  1.00 32.33 LIG 0.24  C 
ATOM     16 O    LEU E   3       2.052  -4.140 -10.165  1.00 31.45 LIG-0.27  OA
ATOM     17  N   ALA E   4       0.193  -5.402  -9.922  1.00 33.58 LIG-0.34  N 
ATOM     18 H    ALA E   4      -0.323  -6.038 -10.184  1.00 33.58 LIG 0.16  HD
BRANCH 17 19
ATOM     19  CA  ALA E   4      -0.260  -4.725  -8.708  1.00 35.71 LIG 0.18  C 
ATOM     20  CB  ALA E   4      -1.415  -3.790  -9.025  1.00 36.03 LIG 0.04  C 
BRANCH 19 21
ATOM     21  C   ALA E   4      -0.681  -5.741  -7.656  1.00 37.05 LIG 0.20  C 
ATOM     22 OXT  ALA E   4       0.132  -6.539  -7.195  1.00 36.72 LIG-0.65  OA
ATOM     23 O    ALA E   4      -1.840  -5.785  -7.240  1.00 37.61 LIG-0.65  OA
ENDBRANCH 19 21
ENDBRANCH 17 19
ENDBRANCH 14 15
BRANCH 14 24
ATOM     24  CB  LEU E   3       0.628  -6.968 -12.037  1.00 30.03 LIG 0.04  C 
BRANCH 24 25
ATOM     25  CG  LEU E   3       0.195  -7.353 -13.448  1.00 29.85 LIG-0.02  C 
ATOM     26  CD1 LEU E   3       0.377  -6.212 -14.433  1.00 29.46 LIG 0.01  C 
ATOM     27  CD2 LEU E   3       0.986  -8.578 -13.875  1.00 29.65 LIG 0.01  C 
ENDBRANCH 24 25
ENDBRANCH 14 24
ENDBRANCH 12 14
ENDBRANCH 5 10
ENDBRANCH 3 5
BRANCH 1 28
ATOM     28  CA  LEU E   1       7.150  -3.688 -12.668  1.00 29.46 LIG 0.18  C 
BRANCH 28 29
ATOM     29  CB  LEU E   1       6.365  -2.935 -11.593  1.00 29.35 LIG 0.04  C 
BRANCH 29 30
ATOM     30  CG  LEU E   1       7.230  -2.198 -10.560  1.00 30.22 LIG-0.02  C 
ATOM     31  CD2 LEU E   1       6.927  -0.706 -10.554  1.00 31.32 LIG 0.01  C 
ATOM     32  CD1 LEU E   1       8.707  -2.448 -10.805  1.00 30.06 LIG 0.01  C 
ENDBRANCH 29 30
ENDBRANCH 28 29
BRANCH 28 33
ATOM     33  N   LEU E   1       7.491  -2.817 -13.789  1.00 28.73 LIG-0.35  N 
ATOM     34  C   GLN E   0       8.408  -3.181 -14.678  1.00 28.95 LIG 0.24  C 
ATOM     35 O    GLN E   0       9.098  -4.189 -14.551  1.00 30.73 LIG-0.27  OA
ATOM     36 H    LEU E   1       7.056  -2.075 -13.815  1.00 28.73 LIG 0.16  HD
BRANCH 34 37
ATOM     37  CA  GLN E   0       8.592  -2.282 -15.891  1.00 28.12 LIG 0.18  C 
BRANCH 37 38
ATOM     38  CB  GLN E   0       7.410  -2.481 -16.848  1.00 27.70 LIG 0.04  C 
BRANCH 38 39
ATOM     39  CG  GLN E   0       7.370  -1.517 -18.032  1.00 26.51 LIG 0.10  C 
BRANCH 39 40
ATOM     40  CD  GLN E   0       6.811  -0.157 -17.655  1.00 26.51 LIG 0.21  C 
ATOM     41 OE1  GLN E   0       5.721   0.218 -18.100  1.00 26.66 LIG-0.27  OA
ATOM     42  NE2 GLN E   0       7.547   0.588 -16.831  1.00 24.64 LIG-0.37  N 
ATOM     43 22HE GLN E   0       7.267   1.365 -16.589  1.00 24.64 LIG 0.16  HD
ATOM     44 21HE GLN E   0       8.301   0.293 -16.542  1.00 24.64 LIG 0.16  HD
ENDBRANCH 39 40
ENDBRANCH 38 39
ENDBRANCH 37 38
BRANCH 37 45
ATOM     45  N   GLN E   0       9.890  -2.614 -16.578  1.00 28.94 LIG-0.35  N 
ATOM     46  C   ACE E  -1      10.575  -1.719 -17.330  1.00 29.25 LIG 0.21  C 
ATOM     47 O    ACE E  -1      10.496  -0.536 -16.986  1.00 28.69 LIG-0.27  OA
ATOM     48  CH3 ACE E  -1      11.978  -2.215 -17.643  1.00 29.73 LIG 0.12  C 
ATOM     49 H    GLN E   0      10.154  -3.422 -16.450  1.00 28.94 LIG 0.16  HD
ENDBRANCH 37 45
ENDBRANCH 34 37
ENDBRANCH 28 33
ENDBRANCH 1 28
TORSDOF 19
ENDMDL
MODEL 22
USER: ADFR SOLUTION from run 96
USER: SCORE 14.675412 LL:  -3.492 LR: -12.147 RR:   0.000 FEB:  -6.479
USER: RMSD 1.205684
USER: SEED 95
USER: STATUS no improvement in best in 11 clusters for 5 generations
USER: GENES 21
USER: genes 0 Translation |==|  0.49530 0.48563 0.53478
USER: genes 1 Rotation |==|  0.43215 0.48682 0.50227 0.99519
USER: genes 2 Torsion [C]-N--CA-[CB] |==|  0.49156
USER: genes 3 Torsion [N]-CA--CB-[CG] |==|  0.75506
USER: genes 4 Torsion [CA]-CB--CG-[OD2] |==|  0.16324
USER: genes 5 Torsion [N]-CA--C-[N] |==|  0.38109
USER: genes 6 Torsion [C]-N--CA-[C] |==|  0.85000
USER: genes 7 Torsion [N]-CA--C-[N] |==|  0.35830
USER: genes 8 Torsion [C]-N--CA-[CB] |==|  0.20175
USER: genes 9 Torsion [N]-CA--C-[OXT] |==|  0.49097
USER: genes 10 Torsion [N]-CA--CB-[CG] |==|  0.65262
USER: genes 11 Torsion [CA]-CB--CG-[CD2] |==|  0.90319
USER: genes 12 Torsion [N]-C--CA-[N] |==|  0.40404
USER: genes 13 Torsion [C]-CA--CB-[CG] |==|  0.58502
USER: genes 14 Torsion [CA]-CB--CG-[CD2] |==|  0.76608
USER: genes 15 Torsion [C]-CA--N-[C] |==|  0.74517
USER: genes 16 Torsion [N]-C--CA-[N] |==|  0.36204
USER: genes 17 Torsion [C]-CA--CB-[CG] |==|  0.39060
USER: genes 18 Torsion [CA]-CB--CG-[CD] |==|  0.80746
USER: genes 19 Torsion [CB]-CG--CD-[OE1] |==|  0.40544
USER: genes 20 Torsion [C]-CA--N-[C] |==|  0.79537
ROOT
ATOM      1  C   LEU E   1       2.656  -6.051 -12.650  1.00 28.67 LIG 0.24  C 
ATOM      2 O    LEU E   1       2.621  -5.055 -11.919  1.00 26.53 LIG-0.27  OA
ATOM      3  N   ASP E   2       3.709  -6.859 -12.731  1.00 29.47 LIG-0.35  N 
ATOM      4 H    ASP E   2       3.713  -7.603 -13.161  1.00 29.47 LIG 0.16  HD
ENDROOT
BRANCH 3 5
ATOM      5  CA  ASP E   2       4.964  -6.533 -12.078  1.00 30.54 LIG 0.19  C 
BRANCH 5 6
ATOM      6  CB  ASP E   2       5.996  -7.652 -12.255  1.00 32.40 LIG 0.15  C 
BRANCH 6 7
ATOM      7  CG  ASP E   2       5.904  -8.704 -11.172  1.00 34.09 LIG 0.17  C 
ATOM      8 OD2  ASP E   2       4.826  -9.312 -11.029  1.00 37.71 LIG-0.65  OA
ATOM      9 OD1  ASP E   2       6.912  -8.932 -10.467  1.00 36.77 LIG-0.65  OA
ENDBRANCH 6 7
ENDBRANCH 5 6
BRANCH 5 10
ATOM     10  C   ASP E   2       5.477  -5.255 -12.695  1.00 30.01 LIG 0.24  C 
ATOM     11 O    ASP E   2       5.419  -5.076 -13.912  1.00 27.94 LIG-0.27  OA
ATOM     12  N   LEU E   3       5.970  -4.367 -11.842  1.00 30.14 LIG-0.35  N 
ATOM     13 H    LEU E   3       5.997  -4.489 -10.991  1.00 30.14 LIG 0.16  HD
BRANCH 12 14
ATOM     14  CA  LEU E   3       6.517  -3.095 -12.275  1.00 30.90 LIG 0.18  C 
BRANCH 14 15
ATOM     15  C   LEU E   3       7.593  -3.329 -13.335  1.00 32.33 LIG 0.24  C 
ATOM     16 O    LEU E   3       8.499  -4.150 -13.149  1.00 31.45 LIG-0.27  OA
ATOM     17  N   ALA E   4       7.465  -2.624 -14.455  1.00 33.58 LIG-0.34  N 
ATOM     18 H    ALA E   4       6.842  -2.045 -14.587  1.00 33.58 LIG 0.16  HD
BRANCH 17 19
ATOM     19  CA  ALA E   4       8.388  -2.775 -15.579  1.00 35.71 LIG 0.18  C 
ATOM     20  CB  ALA E   4       8.143  -4.098 -16.288  1.00 36.03 LIG 0.04  C 
BRANCH 19 21
ATOM     21  C   ALA E   4       8.233  -1.620 -16.557  1.00 37.05 LIG 0.20  C 
ATOM     22 OXT  ALA E   4       8.963  -1.531 -17.541  1.00 36.72 LIG-0.65  OA
ATOM     23 O    ALA E   4       7.375  -0.751 -16.387  1.00 37.61 LIG-0.65  OA
ENDBRANCH 19 21
ENDBRANCH 17 19
ENDBRANCH 14 15
BRANCH 14 24
ATOM     24  CB  LEU E   3       7.091  -2.351 -11.069  1.00 30.03 LIG 0.04  C 
BRANCH 24 25
ATOM     25  CG  LEU E   3       6.614  -0.935 -10.759  1.00 29.85 LIG-0.02  C 
ATOM     26  CD1 LEU E   3       7.615  -0.167  -9.915  1.00 29.46 LIG 0.01  C 
ATOM     27  CD2 LEU E   3       6.342  -0.223 -12.074  1.00 29.65 LIG 0.01  C 
ENDBRANCH 24 25
ENDBRANCH 14 24
ENDBRANCH 12 14
ENDBRANCH 5 10
ENDBRANCH 3 5
BRANCH 1 28
ATOM     28  CA  LEU E   1       1.464  -6.428 -13.510  1.00 29.46 LIG 0.18  C 
BRANCH 28 29
ATOM     29  CB  LEU E   1       1.547  -5.741 -14.874  1.00 29.35 LIG 0.04  C 
BRANCH 29 30
ATOM     30  CG  LEU E   1       0.191  -5.417 -15.518  1.00 30.22 LIG-0.02  C 
ATOM     31  CD2 LEU E   1      -0.361  -6.619 -16.271  1.00 31.32 LIG 0.01  C 
ATOM     32  CD1 LEU E   1       0.295  -4.209 -16.430  1.00 30.06 LIG 0.01  C 
ENDBRANCH 29 30
ENDBRANCH 28 29
BRANCH 28 33
ATOM     33  N   LEU E   1       0.233  -6.075 -12.809  1.00 28.73 LIG-0.35  N 
ATOM     34  C   GLN E   0      -0.380  -6.956 -12.026  1.00 28.95 LIG 0.24  C 
ATOM     35 O    GLN E   0      -0.029  -8.130 -11.940  1.00 30.73 LIG-0.27  OA
ATOM     36 H    LEU E   1      -0.044  -5.273 -12.948  1.00 28.73 LIG 0.16  HD
BRANCH 34 37
ATOM     37  CA  GLN E   0      -1.569  -6.457 -11.221  1.00 28.12 LIG 0.18  C 
BRANCH 37 38
ATOM     38  CB  GLN E   0      -1.176  -6.374  -9.741  1.00 27.70 LIG 0.04  C 
BRANCH 38 39
ATOM     39  CG  GLN E   0      -1.724  -5.160  -8.994  1.00 26.51 LIG 0.10  C 
BRANCH 39 40
ATOM     40  CD  GLN E   0      -1.082  -3.862  -9.448  1.00 26.51 LIG 0.21  C 
ATOM     41 OE1  GLN E   0      -1.738  -2.814  -9.474  1.00 26.66 LIG-0.27  OA
ATOM     42  NE2 GLN E   0       0.200  -3.917  -9.804  1.00 24.64 LIG-0.37  N 
ATOM     43 22HE GLN E   0       0.604  -3.204 -10.066  1.00 24.64 LIG 0.16  HD
ATOM     44 21HE GLN E   0       0.623  -4.665  -9.773  1.00 24.64 LIG 0.16  HD
ENDBRANCH 39 40
ENDBRANCH 38 39
ENDBRANCH 37 38
BRANCH 37 45
ATOM     45  N   GLN E   0      -2.737  -7.390 -11.406  1.00 28.94 LIG-0.35  N 
ATOM     46  C   ACE E  -1      -3.465  -7.442 -12.547  1.00 29.25 LIG 0.21  C 
ATOM     47 O    ACE E  -1      -2.860  -7.208 -13.597  1.00 28.69 LIG-0.27  OA
ATOM     48  CH3 ACE E  -1      -4.369  -8.665 -12.574  1.00 29.73 LIG 0.12  C 
ATOM     49 H    GLN E   0      -2.898  -7.884 -10.721  1.00 28.94 LIG 0.16  HD
ENDBRANCH 37 45
ENDBRANCH 34 37
ENDBRANCH 28 33
ENDBRANCH 1 28
TORSDOF 19
ENDMDL
MODEL 23
USER: ADFR SOLUTION from run 177
USER: SCORE 14.376167 LL:  -3.653 LR: -12.150 RR:   0.000 FEB:  -6.482
USER: RMSD 9.890191
USER: SEED 176
USER: STATUS no improvement in best in 7 clusters for 5 generations
USER: GENES 21
USER: genes 0 Translation |==|  0.68071 0.56997 0.55151
USER: genes 1 Rotation |==|  0.45836 0.90777 0.25984 0.65592
USER: genes 2 Torsion [C]-N--CA-[CB] |==|  0.28333
USER: genes 3 Torsion [N]-CA--CB-[CG] |==|  0.57412
USER: genes 4 Torsion [CA]-CB--CG-[OD2] |==|  0.00864
USER: genes 5 Torsion [N]-CA--C-[N] |==|  0.39796
USER: genes 6 Torsion [C]-N--CA-[C] |==|  0.81109
USER: genes 7 Torsion [N]-CA--C-[N] |==|  0.42555
USER: genes 8 Torsion [C]-N--CA-[CB] |==|  0.30613
USER: genes 9 Torsion [N]-CA--C-[OXT] |==|  0.57744
USER: genes 10 Torsion [N]-CA--CB-[CG] |==|  0.73716
USER: genes 11 Torsion [CA]-CB--CG-[CD2] |==|  0.74761
USER: genes 12 Torsion [N]-C--CA-[N] |==|  0.37022
USER: genes 13 Torsion [C]-CA--CB-[CG] |==|  0.39290
USER: genes 14 Torsion [CA]-CB--CG-[CD2] |==|  0.54840
USER: genes 15 Torsion [C]-CA--N-[C] |==|  0.62844
USER: genes 16 Torsion [N]-C--CA-[N] |==|  0.94374
USER: genes 17 Torsion [C]-CA--CB-[CG] |==|  0.85030
USER: genes 18 Torsion [CA]-CB--CG-[CD] |==|  0.73630
USER: genes 19 Torsion [CB]-CG--CD-[OE1] |==|  0.11551
USER: genes 20 Torsion [C]-CA--N-[C] |==|  0.76275
ROOT
ATOM      1  C   LEU E   1       6.828  -4.532 -12.374  1.00 28.67 LIG 0.24  C 
ATOM      2 O    LEU E   1       7.511  -4.852 -13.353  1.00 26.53 LIG-0.27  OA
ATOM      3  N   ASP E   2       5.679  -5.124 -12.062  1.00 29.47 LIG-0.35  N 
ATOM      4 H    ASP E   2       5.243  -4.977 -11.336  1.00 29.47 LIG 0.16  HD
ENDROOT
BRANCH 3 5
ATOM      5  CA  ASP E   2       5.059  -6.089 -12.953  1.00 30.54 LIG 0.19  C 
BRANCH 5 6
ATOM      6  CB  ASP E   2       5.297  -7.526 -12.476  1.00 32.40 LIG 0.15  C 
BRANCH 6 7
ATOM      7  CG  ASP E   2       5.266  -8.527 -13.609  1.00 34.09 LIG 0.17  C 
ATOM      8 OD2  ASP E   2       5.119  -8.100 -14.771  1.00 37.71 LIG-0.65  OA
ATOM      9 OD1  ASP E   2       5.398  -9.742 -13.343  1.00 36.77 LIG-0.65  OA
ENDBRANCH 6 7
ENDBRANCH 5 6
BRANCH 5 10
ATOM     10  C   ASP E   2       3.580  -5.793 -12.984  1.00 30.01 LIG 0.24  C 
ATOM     11 O    ASP E   2       2.993  -5.411 -11.971  1.00 27.94 LIG-0.27  OA
ATOM     12  N   LEU E   3       2.989  -5.964 -14.159  1.00 30.14 LIG-0.35  N 
ATOM     13 H    LEU E   3       3.403  -6.217 -14.868  1.00 30.14 LIG 0.16  HD
BRANCH 12 14
ATOM     14  CA  LEU E   3       1.568  -5.737 -14.353  1.00 30.90 LIG 0.18  C 
BRANCH 14 15
ATOM     15  C   LEU E   3       0.767  -6.794 -13.593  1.00 32.33 LIG 0.24  C 
ATOM     16 O    LEU E   3       1.259  -7.899 -13.335  1.00 31.45 LIG-0.27  OA
ATOM     17  N   ALA E   4      -0.455  -6.431 -13.213  1.00 33.58 LIG-0.34  N 
ATOM     18 H    ALA E   4      -0.805  -5.667 -13.396  1.00 33.58 LIG 0.16  HD
BRANCH 17 19
ATOM     19  CA  ALA E   4      -1.321  -7.316 -12.436  1.00 35.71 LIG 0.18  C 
ATOM     20  CB  ALA E   4      -1.482  -6.786 -11.020  1.00 36.03 LIG 0.04  C 
BRANCH 19 21
ATOM     21  C   ALA E   4      -2.682  -7.452 -13.103  1.00 37.05 LIG 0.20  C 
ATOM     22 OXT  ALA E   4      -3.686  -7.692 -12.436  1.00 36.72 LIG-0.65  OA
ATOM     23 O    ALA E   4      -2.810  -7.322 -14.322  1.00 37.61 LIG-0.65  OA
ENDBRANCH 19 21
ENDBRANCH 17 19
ENDBRANCH 14 15
BRANCH 14 24
ATOM     24  CB  LEU E   3       1.246  -5.778 -15.847  1.00 30.03 LIG 0.04  C 
BRANCH 24 25
ATOM     25  CG  LEU E   3       1.205  -4.478 -16.645  1.00 29.85 LIG-0.02  C 
ATOM     26  CD1 LEU E   3       1.690  -4.667 -18.071  1.00 29.46 LIG 0.01  C 
ATOM     27  CD2 LEU E   3      -0.217  -3.942 -16.615  1.00 29.65 LIG 0.01  C 
ENDBRANCH 24 25
ENDBRANCH 14 24
ENDBRANCH 12 14
ENDBRANCH 5 10
ENDBRANCH 3 5
BRANCH 1 28
ATOM     28  CA  LEU E   1       7.280  -3.428 -11.436  1.00 29.46 LIG 0.18  C 
BRANCH 28 29
ATOM     29  CB  LEU E   1       7.028  -2.056 -12.063  1.00 29.35 LIG 0.04  C 
BRANCH 29 30
ATOM     30  CG  LEU E   1       6.544  -0.977 -11.082  1.00 30.22 LIG-0.02  C 
ATOM     31  CD2 LEU E   1       5.920   0.198 -11.822  1.00 31.32 LIG 0.01  C 
ATOM     32  CD1 LEU E   1       7.675  -0.510 -10.183  1.00 30.06 LIG 0.01  C 
ENDBRANCH 29 30
ENDBRANCH 28 29
BRANCH 28 33
ATOM     33  N   LEU E   1       8.691  -3.617 -11.114  1.00 28.73 LIG-0.35  N 
ATOM     34  C   GLN E   0       9.120  -3.525  -9.860  1.00 28.95 LIG 0.24  C 
ATOM     35 O    GLN E   0       8.400  -3.164  -8.933  1.00 30.73 LIG-0.27  OA
ATOM     36 H    LEU E   1       9.196  -3.786 -11.789  1.00 28.73 LIG 0.16  HD
BRANCH 34 37
ATOM     37  CA  GLN E   0      10.575  -3.881  -9.598  1.00 28.12 LIG 0.18  C 
BRANCH 37 38
ATOM     38  CB  GLN E   0      11.395  -2.591  -9.470  1.00 27.70 LIG 0.04  C 
BRANCH 38 39
ATOM     39  CG  GLN E   0      11.260  -1.621 -10.641  1.00 26.51 LIG 0.10  C 
BRANCH 39 40
ATOM     40  CD  GLN E   0      12.361  -1.797 -11.670  1.00 26.51 LIG 0.21  C 
ATOM     41 OE1  GLN E   0      12.734  -2.927 -12.003  1.00 26.66 LIG-0.27  OA
ATOM     42  NE2 GLN E   0      12.887  -0.686 -12.184  1.00 24.64 LIG-0.37  N 
ATOM     43 22HE GLN E   0      13.512  -0.738 -12.772  1.00 24.64 LIG 0.16  HD
ATOM     44 21HE GLN E   0      12.601   0.084 -11.928  1.00 24.64 LIG 0.16  HD
ENDBRANCH 39 40
ENDBRANCH 38 39
ENDBRANCH 37 38
BRANCH 37 45
ATOM     45  N   GLN E   0      11.101  -4.731 -10.725  1.00 28.94 LIG-0.35  N 
ATOM     46  C   ACE E  -1      10.950  -6.077 -10.766  1.00 29.25 LIG 0.21  C 
ATOM     47 O    ACE E  -1       9.922  -6.530 -10.255  1.00 28.69 LIG-0.27  OA
ATOM     48  CH3 ACE E  -1      11.297  -6.633 -12.138  1.00 29.73 LIG 0.12  C 
ATOM     49 H    GLN E   0      11.507  -4.283 -11.337  1.00 28.94 LIG 0.16  HD
ENDBRANCH 37 45
ENDBRANCH 34 37
ENDBRANCH 28 33
ENDBRANCH 1 28
TORSDOF 19
ENDMDL
MODEL 24
USER: ADFR SOLUTION from run 176
USER: SCORE 13.648008 LL:  -3.773 LR: -12.138 RR:   0.000 FEB:  -6.470
USER: RMSD 10.030906
USER: SEED 175
USER: STATUS no improvement in best in 32 clusters for 5 generations
USER: GENES 21
USER: genes 0 Translation |==|  0.49152 0.54686 0.64101
USER: genes 1 Rotation |==|  0.43279 0.16585 0.17556 0.66901
USER: genes 2 Torsion [C]-N--CA-[CB] |==|  0.25000
USER: genes 3 Torsion [N]-CA--CB-[CG] |==|  0.57341
USER: genes 4 Torsion [CA]-CB--CG-[OD2] |==|  0.43415
USER: genes 5 Torsion [N]-CA--C-[N] |==|  0.56217
USER: genes 6 Torsion [C]-N--CA-[C] |==|  0.78742
USER: genes 7 Torsion [N]-CA--C-[N] |==|  0.96337
USER: genes 8 Torsion [C]-N--CA-[CB] |==|  0.23222
USER: genes 9 Torsion [N]-CA--C-[OXT] |==|  0.99192
USER: genes 10 Torsion [N]-CA--CB-[CG] |==|  0.61024
USER: genes 11 Torsion [CA]-CB--CG-[CD2] |==|  0.34148
USER: genes 12 Torsion [N]-C--CA-[N] |==|  0.52416
USER: genes 13 Torsion [C]-CA--CB-[CG] |==|  0.26522
USER: genes 14 Torsion [CA]-CB--CG-[CD2] |==|  0.65791
USER: genes 15 Torsion [C]-CA--N-[C] |==|  0.58495
USER: genes 16 Torsion [N]-C--CA-[N] |==|  0.90428
USER: genes 17 Torsion [C]-CA--CB-[CG] |==|  0.50875
USER: genes 18 Torsion [CA]-CB--CG-[CD] |==|  0.27470
USER: genes 19 Torsion [CB]-CG--CD-[OE1] |==|  0.80977
USER: genes 20 Torsion [C]-CA--N-[C] |==|  0.61411
ROOT
ATOM      1  C   LEU E   1       2.571  -4.949 -10.897  1.00 28.67 LIG 0.24  C 
ATOM      2 O    LEU E   1       2.760  -3.929 -10.226  1.00 26.53 LIG-0.27  OA
ATOM      3  N   ASP E   2       1.439  -5.645 -10.864  1.00 29.47 LIG-0.35  N 
ATOM      4 H    ASP E   2       1.260  -6.299 -11.393  1.00 29.47 LIG 0.16  HD
ENDROOT
BRANCH 3 5
ATOM      5  CA  ASP E   2       0.393  -5.342  -9.903  1.00 30.54 LIG 0.19  C 
BRANCH 5 6
ATOM      6  CB  ASP E   2      -0.598  -4.315 -10.459  1.00 32.40 LIG 0.15  C 
BRANCH 6 7
ATOM      7  CG  ASP E   2      -1.277  -3.514  -9.370  1.00 34.09 LIG 0.17  C 
ATOM      8 OD2  ASP E   2      -1.737  -2.393  -9.660  1.00 37.71 LIG-0.65  OA
ATOM      9 OD1  ASP E   2      -1.362  -4.007  -8.223  1.00 36.77 LIG-0.65  OA
ENDBRANCH 6 7
ENDBRANCH 5 6
BRANCH 5 10
ATOM     10  C   ASP E   2      -0.321  -6.634  -9.589  1.00 30.01 LIG 0.24  C 
ATOM     11 O    ASP E   2       0.234  -7.719  -9.764  1.00 27.94 LIG-0.27  OA
ATOM     12  N   LEU E   3      -1.554  -6.504  -9.117  1.00 30.14 LIG-0.35  N 
ATOM     13 H    LEU E   3      -1.935  -5.744  -8.983  1.00 30.14 LIG 0.16  HD
BRANCH 12 14
ATOM     14  CA  LEU E   3      -2.381  -7.648  -8.781  1.00 30.90 LIG 0.18  C 
BRANCH 14 15
ATOM     15  C   LEU E   3      -2.930  -8.283 -10.059  1.00 32.33 LIG 0.24  C 
ATOM     16 O    LEU E   3      -3.481  -9.390 -10.031  1.00 31.45 LIG-0.27  OA
ATOM     17  N   ALA E   4      -2.802  -7.558 -11.166  1.00 33.58 LIG-0.34  N 
ATOM     18 H    ALA E   4      -2.412  -6.791 -11.192  1.00 33.58 LIG 0.16  HD
BRANCH 17 19
ATOM     19  CA  ALA E   4      -3.322  -8.009 -12.455  1.00 35.71 LIG 0.18  C 
ATOM     20  CB  ALA E   4      -4.798  -7.668 -12.577  1.00 36.03 LIG 0.04  C 
BRANCH 19 21
ATOM     21  C   ALA E   4      -2.541  -7.377 -13.597  1.00 37.05 LIG 0.20  C 
ATOM     22 OXT  ALA E   4      -1.649  -6.562 -13.371  1.00 36.72 LIG-0.65  OA
ATOM     23 O    ALA E   4      -2.781  -7.667 -14.771  1.00 37.61 LIG-0.65  OA
ENDBRANCH 19 21
ENDBRANCH 17 19
ENDBRANCH 14 15
BRANCH 14 24
ATOM     24  CB  LEU E   3      -3.518  -7.201  -7.861  1.00 30.03 LIG 0.04  C 
BRANCH 24 25
ATOM     25  CG  LEU E   3      -3.940  -8.092  -6.697  1.00 29.85 LIG-0.02  C 
ATOM     26  CD1 LEU E   3      -3.120  -9.367  -6.627  1.00 29.46 LIG 0.01  C 
ATOM     27  CD2 LEU E   3      -3.821  -7.291  -5.412  1.00 29.65 LIG 0.01  C 
ENDBRANCH 24 25
ENDBRANCH 14 24
ENDBRANCH 12 14
ENDBRANCH 5 10
ENDBRANCH 3 5
BRANCH 1 28
ATOM     28  CA  LEU E   1       3.643  -5.472 -11.836  1.00 29.46 LIG 0.18  C 
BRANCH 28 29
ATOM     29  CB  LEU E   1       3.842  -6.975 -11.639  1.00 29.35 LIG 0.04  C 
BRANCH 29 30
ATOM     30  CG  LEU E   1       3.053  -7.864 -12.611  1.00 30.22 LIG-0.02  C 
ATOM     31  CD2 LEU E   1       2.152  -8.835 -11.861  1.00 31.32 LIG 0.01  C 
ATOM     32  CD1 LEU E   1       3.985  -8.606 -13.551  1.00 30.06 LIG 0.01  C 
ENDBRANCH 29 30
ENDBRANCH 28 29
BRANCH 28 33
ATOM     33  N   LEU E   1       4.883  -4.735 -11.610  1.00 28.73 LIG-0.35  N 
ATOM     34  C   GLN E   0       5.745  -4.534 -12.601  1.00 28.95 LIG 0.24  C 
ATOM     35 O    GLN E   0       5.617  -5.044 -13.711  1.00 30.73 LIG-0.27  OA
ATOM     36 H    LEU E   1       4.996  -4.456 -10.804  1.00 28.73 LIG 0.16  HD
BRANCH 34 37
ATOM     37  CA  GLN E   0       6.934  -3.632 -12.312  1.00 28.12 LIG 0.18  C 
BRANCH 37 38
ATOM     38  CB  GLN E   0       8.067  -4.472 -11.708  1.00 27.70 LIG 0.04  C 
BRANCH 38 39
ATOM     39  CG  GLN E   0       9.307  -3.681 -11.295  1.00 26.51 LIG 0.10  C 
BRANCH 39 40
ATOM     40  CD  GLN E   0       9.335  -3.381  -9.808  1.00 26.51 LIG 0.21  C 
ATOM     41 OE1  GLN E   0       8.519  -2.596  -9.311  1.00 26.66 LIG-0.27  OA
ATOM     42  NE2 GLN E   0      10.267  -4.002  -9.086  1.00 24.64 LIG-0.37  N 
ATOM     43 22HE GLN E   0      10.318  -3.863  -8.239  1.00 24.64 LIG 0.16  HD
ATOM     44 21HE GLN E   0      10.818  -4.541  -9.468  1.00 24.64 LIG 0.16  HD
ENDBRANCH 39 40
ENDBRANCH 38 39
ENDBRANCH 37 38
BRANCH 37 45
ATOM     45  N   GLN E   0       6.524  -2.538 -11.362  1.00 28.94 LIG-0.35  N 
ATOM     46  C   ACE E  -1       6.933  -1.253 -11.497  1.00 29.25 LIG 0.21  C 
ATOM     47 O    ACE E  -1       7.115  -0.852 -12.650  1.00 28.69 LIG-0.27  OA
ATOM     48  CH3 ACE E  -1       6.137  -0.320 -10.600  1.00 29.73 LIG 0.12  C 
ATOM     49 H    GLN E   0       6.009  -2.804 -10.727  1.00 28.94 LIG 0.16  HD
ENDBRANCH 37 45
ENDBRANCH 34 37
ENDBRANCH 28 33
ENDBRANCH 1 28
TORSDOF 19
ENDMDL
MODEL 25
USER: ADFR SOLUTION from run 12
USER: SCORE 13.051908 LL:  -3.627 LR: -12.122 RR:   0.000 FEB:  -6.455
USER: RMSD 9.751456
USER: SEED 52013
USER: STATUS no improvement in best in 8 clusters for 5 generations
USER: GENES 21
USER: genes 0 Translation |==|  0.67293 0.54801 0.51336
USER: genes 1 Rotation |==|  0.36280 0.93534 0.30555 0.56198
USER: genes 2 Torsion [C]-N--CA-[CB] |==|  0.41038
USER: genes 3 Torsion [N]-CA--CB-[CG] |==|  0.82133
USER: genes 4 Torsion [CA]-CB--CG-[OD2] |==|  0.34907
USER: genes 5 Torsion [N]-CA--C-[N] |==|  0.76919
USER: genes 6 Torsion [C]-N--CA-[C] |==|  0.60322
USER: genes 7 Torsion [N]-CA--C-[N] |==|  0.65361
USER: genes 8 Torsion [C]-N--CA-[CB] |==|  0.27906
USER: genes 9 Torsion [N]-CA--C-[OXT] |==|  0.16672
USER: genes 10 Torsion [N]-CA--CB-[CG] |==|  0.56617
USER: genes 11 Torsion [CA]-CB--CG-[CD2] |==|  0.59974
USER: genes 12 Torsion [N]-C--CA-[N] |==|  0.38515
USER: genes 13 Torsion [C]-CA--CB-[CG] |==|  0.38913
USER: genes 14 Torsion [CA]-CB--CG-[CD2] |==|  0.43838
USER: genes 15 Torsion [C]-CA--N-[C] |==|  0.76789
USER: genes 16 Torsion [N]-C--CA-[N] |==|  0.93351
USER: genes 17 Torsion [C]-CA--CB-[CG] |==|  0.11059
USER: genes 18 Torsion [CA]-CB--CG-[CD] |==|  0.69554
USER: genes 19 Torsion [CB]-CG--CD-[OE1] |==|  0.92556
USER: genes 20 Torsion [C]-CA--N-[C] |==|  0.78324
ROOT
ATOM      1  C   LEU E   1       6.653  -4.928 -13.004  1.00 28.67 LIG 0.24  C 
ATOM      2 O    LEU E   1       6.765  -5.114 -14.220  1.00 26.53 LIG-0.27  OA
ATOM      3  N   ASP E   2       5.945  -5.723 -12.206  1.00 29.47 LIG-0.35  N 
ATOM      4 H    ASP E   2       5.935  -5.660 -11.349  1.00 29.47 LIG 0.16  HD
ENDROOT
BRANCH 3 5
ATOM      5  CA  ASP E   2       5.114  -6.785 -12.743  1.00 30.54 LIG 0.19  C 
BRANCH 5 6
ATOM      6  CB  ASP E   2       5.050  -7.984 -11.790  1.00 32.40 LIG 0.15  C 
BRANCH 6 7
ATOM      7  CG  ASP E   2       6.394  -8.651 -11.605  1.00 34.09 LIG 0.17  C 
ATOM      8 OD2  ASP E   2       6.826  -8.798 -10.445  1.00 37.71 LIG-0.65  OA
ATOM      9 OD1  ASP E   2       7.019  -9.039 -12.617  1.00 36.77 LIG-0.65  OA
ENDBRANCH 6 7
ENDBRANCH 5 6
BRANCH 5 10
ATOM     10  C   ASP E   2       3.732  -6.217 -12.953  1.00 30.01 LIG 0.24  C 
ATOM     11 O    ASP E   2       3.378  -5.815 -14.062  1.00 27.94 LIG-0.27  OA
ATOM     12  N   LEU E   3       2.954  -6.197 -11.879  1.00 30.14 LIG-0.35  N 
ATOM     13 H    LEU E   3       3.198  -6.492 -11.108  1.00 30.14 LIG 0.16  HD
BRANCH 12 14
ATOM     14  CA  LEU E   3       1.602  -5.669 -11.909  1.00 30.90 LIG 0.18  C 
BRANCH 14 15
ATOM     15  C   LEU E   3       1.304  -4.936 -10.601  1.00 32.33 LIG 0.24  C 
ATOM     16 O    LEU E   3       2.018  -4.001 -10.221  1.00 31.45 LIG-0.27  OA
ATOM     17  N   ALA E   4       0.228  -5.351  -9.938  1.00 33.58 LIG-0.34  N 
ATOM     18 H    ALA E   4      -0.267  -6.006 -10.194  1.00 33.58 LIG 0.16  HD
BRANCH 17 19
ATOM     19  CA  ALA E   4      -0.212  -4.716  -8.698  1.00 35.71 LIG 0.18  C 
ATOM     20  CB  ALA E   4      -1.365  -3.764  -8.972  1.00 36.03 LIG 0.04  C 
BRANCH 19 21
ATOM     21  C   ALA E   4      -0.631  -5.766  -7.679  1.00 37.05 LIG 0.20  C 
ATOM     22 OXT  ALA E   4       0.170  -6.611  -7.286  1.00 36.72 LIG-0.65  OA
ATOM     23 O    ALA E   4      -1.776  -5.792  -7.224  1.00 37.61 LIG-0.65  OA
ENDBRANCH 19 21
ENDBRANCH 17 19
ENDBRANCH 14 15
BRANCH 14 24
ATOM     24  CB  LEU E   3       0.613  -6.814 -12.131  1.00 30.03 LIG 0.04  C 
BRANCH 24 25
ATOM     25  CG  LEU E   3      -0.756  -6.520 -12.735  1.00 29.85 LIG-0.02  C 
ATOM     26  CD1 LEU E   3      -0.760  -6.680 -14.245  1.00 29.46 LIG 0.01  C 
ATOM     27  CD2 LEU E   3      -1.775  -7.439 -12.083  1.00 29.65 LIG 0.01  C 
ENDBRANCH 24 25
ENDBRANCH 14 24
ENDBRANCH 12 14
ENDBRANCH 5 10
ENDBRANCH 3 5
BRANCH 1 28
ATOM     28  CA  LEU E   1       7.347  -3.759 -12.327  1.00 29.46 LIG 0.18  C 
BRANCH 28 29
ATOM     29  CB  LEU E   1       6.523  -2.481 -12.486  1.00 29.35 LIG 0.04  C 
BRANCH 29 30
ATOM     30  CG  LEU E   1       6.480  -1.582 -11.242  1.00 30.22 LIG-0.02  C 
ATOM     31  CD2 LEU E   1       6.137  -0.146 -11.613  1.00 31.32 LIG 0.01  C 
ATOM     32  CD1 LEU E   1       7.790  -1.644 -10.478  1.00 30.06 LIG 0.01  C 
ENDBRANCH 29 30
ENDBRANCH 28 29
BRANCH 28 33
ATOM     33  N   LEU E   1       8.686  -3.605 -12.887  1.00 28.73 LIG-0.35  N 
ATOM     34  C   GLN E   0       9.700  -4.334 -12.436  1.00 28.95 LIG 0.24  C 
ATOM     35 O    GLN E   0       9.607  -5.077 -11.462  1.00 30.73 LIG-0.27  OA
ATOM     36 H    LEU E   1       8.750  -3.018 -13.513  1.00 28.73 LIG 0.16  HD
BRANCH 34 37
ATOM     37  CA  GLN E   0      11.023  -4.214 -13.176  1.00 28.12 LIG 0.18  C 
BRANCH 37 38
ATOM     38  CB  GLN E   0      11.925  -3.219 -12.435  1.00 27.70 LIG 0.04  C 
BRANCH 38 39
ATOM     39  CG  GLN E   0      11.875  -3.311 -10.912  1.00 26.51 LIG 0.10  C 
BRANCH 39 40
ATOM     40  CD  GLN E   0      11.183  -2.118 -10.280  1.00 26.51 LIG 0.21  C 
ATOM     41 OE1  GLN E   0      11.172  -1.023 -10.854  1.00 26.66 LIG-0.27  OA
ATOM     42  NE2 GLN E   0      10.599  -2.318  -9.099  1.00 24.64 LIG-0.37  N 
ATOM     43 22HE GLN E   0      10.193  -1.669  -8.705  1.00 24.64 LIG 0.16  HD
ATOM     44 21HE GLN E   0      10.628  -3.094  -8.730  1.00 24.64 LIG 0.16  HD
ENDBRANCH 39 40
ENDBRANCH 38 39
ENDBRANCH 37 38
BRANCH 37 45
ATOM     45  N   GLN E   0      10.776  -3.753 -14.588  1.00 28.94 LIG-0.35  N 
ATOM     46  C   ACE E  -1      10.336  -4.580 -15.567  1.00 29.25 LIG 0.21  C 
ATOM     47 O    ACE E  -1       9.586  -5.496 -15.217  1.00 28.69 LIG-0.27  OA
ATOM     48  CH3 ACE E  -1       9.885  -3.800 -16.792  1.00 29.73 LIG 0.12  C 
ATOM     49 H    GLN E   0      10.942  -2.919 -14.715  1.00 28.94 LIG 0.16  HD
ENDBRANCH 37 45
ENDBRANCH 34 37
ENDBRANCH 28 33
ENDBRANCH 1 28
TORSDOF 19
ENDMDL
MODEL 26
USER: ADFR SOLUTION from run 99
USER: SCORE 14.835683 LL:  -4.097 LR: -12.078 RR:   0.000 FEB:  -6.410
USER: RMSD 4.777432
USER: SEED 98
USER: STATUS no improvement in best in 3 clusters for 5 generations
USER: GENES 21
USER: genes 0 Translation |==|  0.50951 0.52251 0.61395
USER: genes 1 Rotation |==|  0.42010 0.65096 0.33273 0.93914
USER: genes 2 Torsion [C]-N--CA-[CB] |==|  0.50556
USER: genes 3 Torsion [N]-CA--CB-[CG] |==|  0.00445
USER: genes 4 Torsion [CA]-CB--CG-[OD2] |==|  0.17304
USER: genes 5 Torsion [N]-CA--C-[N] |==|  0.27101
USER: genes 6 Torsion [C]-N--CA-[C] |==|  0.65033
USER: genes 7 Torsion [N]-CA--C-[N] |==|  0.00665
USER: genes 8 Torsion [C]-N--CA-[CB] |==|  0.20984
USER: genes 9 Torsion [N]-CA--C-[OXT] |==|  0.92466
USER: genes 10 Torsion [N]-CA--CB-[CG] |==|  0.27378
USER: genes 11 Torsion [CA]-CB--CG-[CD2] |==|  0.81533
USER: genes 12 Torsion [N]-C--CA-[N] |==|  0.93371
USER: genes 13 Torsion [C]-CA--CB-[CG] |==|  0.56555
USER: genes 14 Torsion [CA]-CB--CG-[CD2] |==|  0.64289
USER: genes 15 Torsion [C]-CA--N-[C] |==|  0.83760
USER: genes 16 Torsion [N]-C--CA-[N] |==|  0.06592
USER: genes 17 Torsion [C]-CA--CB-[CG] |==|  0.70820
USER: genes 18 Torsion [CA]-CB--CG-[CD] |==|  0.35983
USER: genes 19 Torsion [CB]-CG--CD-[OE1] |==|  0.98581
USER: genes 20 Torsion [C]-CA--N-[C] |==|  0.70067
ROOT
ATOM      1  C   LEU E   1       2.976  -5.387 -11.344  1.00 28.67 LIG 0.24  C 
ATOM      2 O    LEU E   1       3.980  -4.770 -10.974  1.00 26.53 LIG-0.27  OA
ATOM      3  N   ASP E   2       2.993  -6.672 -11.684  1.00 29.47 LIG-0.35  N 
ATOM      4 H    ASP E   2       2.289  -7.136 -11.852  1.00 29.47 LIG 0.16  HD
ENDROOT
BRANCH 3 5
ATOM      5  CA  ASP E   2       4.240  -7.407 -11.800  1.00 30.54 LIG 0.19  C 
BRANCH 5 6
ATOM      6  CB  ASP E   2       4.001  -8.851 -12.251  1.00 32.40 LIG 0.15  C 
BRANCH 6 7
ATOM      7  CG  ASP E   2       2.539  -9.148 -12.501  1.00 34.09 LIG 0.17  C 
ATOM      8 OD2  ASP E   2       1.953  -8.512 -13.399  1.00 37.71 LIG-0.65  OA
ATOM      9 OD1  ASP E   2       1.975 -10.023 -11.809  1.00 36.77 LIG-0.65  OA
ENDBRANCH 6 7
ENDBRANCH 5 6
BRANCH 5 10
ATOM     10  C   ASP E   2       5.099  -6.685 -12.810  1.00 30.01 LIG 0.24  C 
ATOM     11 O    ASP E   2       4.937  -6.866 -14.017  1.00 27.94 LIG-0.27  OA
ATOM     12  N   LEU E   3       6.006  -5.861 -12.303  1.00 30.14 LIG-0.35  N 
ATOM     13 H    LEU E   3       6.108  -5.726 -11.460  1.00 30.14 LIG 0.16  HD
BRANCH 12 14
ATOM     14  CA  LEU E   3       6.920  -5.104 -13.139  1.00 30.90 LIG 0.18  C 
BRANCH 14 15
ATOM     15  C   LEU E   3       8.360  -5.368 -12.700  1.00 32.33 LIG 0.24  C 
ATOM     16 O    LEU E   3       9.304  -4.768 -13.229  1.00 31.45 LIG-0.27  OA
ATOM     17  N   ALA E   4       8.512  -6.243 -11.711  1.00 33.58 LIG-0.34  N 
ATOM     18 H    ALA E   4       7.860  -6.668 -11.345  1.00 33.58 LIG 0.16  HD
BRANCH 17 19
ATOM     19  CA  ALA E   4       9.824  -6.561 -11.150  1.00 35.71 LIG 0.18  C 
ATOM     20  CB  ALA E   4      10.303  -5.432 -10.252  1.00 36.03 LIG 0.04  C 
BRANCH 19 21
ATOM     21  C   ALA E   4       9.769  -7.865 -10.367  1.00 37.05 LIG 0.20  C 
ATOM     22 OXT  ALA E   4       8.719  -8.240  -9.849  1.00 36.72 LIG-0.65  OA
ATOM     23 O    ALA E   4      10.769  -8.574 -10.237  1.00 37.61 LIG-0.65  OA
ENDBRANCH 19 21
ENDBRANCH 17 19
ENDBRANCH 14 15
BRANCH 14 24
ATOM     24  CB  LEU E   3       6.583  -3.615 -13.041  1.00 30.03 LIG 0.04  C 
BRANCH 24 25
ATOM     25  CG  LEU E   3       7.390  -2.720 -12.106  1.00 29.85 LIG-0.02  C 
ATOM     26  CD1 LEU E   3       7.075  -1.249 -12.310  1.00 29.46 LIG 0.01  C 
ATOM     27  CD2 LEU E   3       7.112  -3.148 -10.675  1.00 29.65 LIG 0.01  C 
ENDBRANCH 24 25
ENDBRANCH 14 24
ENDBRANCH 12 14
ENDBRANCH 5 10
ENDBRANCH 3 5
BRANCH 1 28
ATOM     28  CA  LEU E   1       1.624  -4.700 -11.419  1.00 29.46 LIG 0.18  C 
BRANCH 28 29
ATOM     29  CB  LEU E   1       0.985  -4.623 -10.032  1.00 29.35 LIG 0.04  C 
BRANCH 29 30
ATOM     30  CG  LEU E   1      -0.546  -4.491 -10.033  1.00 30.22 LIG-0.02  C 
ATOM     31  CD2 LEU E   1      -0.998  -3.324  -9.166  1.00 31.32 LIG 0.01  C 
ATOM     32  CD1 LEU E   1      -1.205  -5.783  -9.586  1.00 30.06 LIG 0.01  C 
ENDBRANCH 29 30
ENDBRANCH 28 29
BRANCH 28 33
ATOM     33  N   LEU E   1       0.770  -5.418 -12.361  1.00 28.73 LIG-0.35  N 
ATOM     34  C   GLN E   0       1.140  -5.578 -13.627  1.00 28.95 LIG 0.24  C 
ATOM     35 O    GLN E   0       2.138  -5.043 -14.104  1.00 30.73 LIG-0.27  OA
ATOM     36 H    LEU E   1       0.035  -5.714 -12.028  1.00 28.73 LIG 0.16  HD
BRANCH 34 37
ATOM     37  CA  GLN E   0       0.263  -6.463 -14.497  1.00 28.12 LIG 0.18  C 
BRANCH 37 38
ATOM     38  CB  GLN E   0       0.240  -5.902 -15.925  1.00 27.70 LIG 0.04  C 
BRANCH 38 39
ATOM     39  CG  GLN E   0      -1.050  -5.185 -16.316  1.00 26.51 LIG 0.10  C 
BRANCH 39 40
ATOM     40  CD  GLN E   0      -0.794  -3.814 -16.914  1.00 26.51 LIG 0.21  C 
ATOM     41 OE1  GLN E   0       0.351  -3.351 -16.953  1.00 26.66 LIG-0.27  OA
ATOM     42  NE2 GLN E   0      -1.852  -3.156 -17.385  1.00 24.64 LIG-0.37  N 
ATOM     43 22HE GLN E   0      -1.753  -2.377 -17.735  1.00 24.64 LIG 0.16  HD
ATOM     44 21HE GLN E   0      -2.635  -3.511 -17.340  1.00 24.64 LIG 0.16  HD
ENDBRANCH 39 40
ENDBRANCH 38 39
ENDBRANCH 37 38
BRANCH 37 45
ATOM     45  N   GLN E   0      -1.130  -6.516 -13.929  1.00 28.94 LIG-0.35  N 
ATOM     46  C   ACE E  -1      -1.634  -7.613 -13.312  1.00 29.25 LIG 0.21  C 
ATOM     47 O    ACE E  -1      -0.829  -8.312 -12.691  1.00 28.69 LIG-0.27  OA
ATOM     48  CH3 ACE E  -1      -2.924  -7.292 -12.575  1.00 29.73 LIG 0.12  C 
ATOM     49 H    GLN E   0      -1.575  -5.788 -14.033  1.00 28.94 LIG 0.16  HD
ENDBRANCH 37 45
ENDBRANCH 34 37
ENDBRANCH 28 33
ENDBRANCH 1 28
TORSDOF 19
ENDMDL
MODEL 27
USER: ADFR SOLUTION from run 94
USER: SCORE 15.019660 LL:  -3.807 LR: -12.064 RR:   0.000 FEB:  -6.396
USER: RMSD 5.376632
USER: SEED 93
USER: STATUS no improvement in best in 5 clusters for 5 generations
USER: GENES 21
USER: genes 0 Translation |==|  0.61495 0.44659 0.52816
USER: genes 1 Rotation |==|  0.02219 0.41283 0.59141 0.57577
USER: genes 2 Torsion [C]-N--CA-[CB] |==|  0.16828
USER: genes 3 Torsion [N]-CA--CB-[CG] |==|  0.59671
USER: genes 4 Torsion [CA]-CB--CG-[OD2] |==|  0.18232
USER: genes 5 Torsion [N]-CA--C-[N] |==|  0.08455
USER: genes 6 Torsion [C]-N--CA-[C] |==|  0.65757
USER: genes 7 Torsion [N]-CA--C-[N] |==|  0.96550
USER: genes 8 Torsion [C]-N--CA-[CB] |==|  0.15706
USER: genes 9 Torsion [N]-CA--C-[OXT] |==|  0.94241
USER: genes 10 Torsion [N]-CA--CB-[CG] |==|  0.73620
USER: genes 11 Torsion [CA]-CB--CG-[CD2] |==|  0.15938
USER: genes 12 Torsion [N]-C--CA-[N] |==|  0.28338
USER: genes 13 Torsion [C]-CA--CB-[CG] |==|  0.24075
USER: genes 14 Torsion [CA]-CB--CG-[CD2] |==|  0.11887
USER: genes 15 Torsion [C]-CA--N-[C] |==|  0.81103
USER: genes 16 Torsion [N]-C--CA-[N] |==|  0.90801
USER: genes 17 Torsion [C]-CA--CB-[CG] |==|  0.29117
USER: genes 18 Torsion [CA]-CB--CG-[CD] |==|  0.33752
USER: genes 19 Torsion [CB]-CG--CD-[OE1] |==|  0.18221
USER: genes 20 Torsion [C]-CA--N-[C] |==|  0.81667
ROOT
ATOM      1  C   LEU E   1       5.348  -6.753 -12.759  1.00 28.67 LIG 0.24  C 
ATOM      2 O    LEU E   1       5.185  -7.208 -13.896  1.00 26.53 LIG-0.27  OA
ATOM      3  N   ASP E   2       6.181  -5.753 -12.486  1.00 29.47 LIG-0.35  N 
ATOM      4 H    ASP E   2       6.235  -5.366 -11.720  1.00 29.47 LIG 0.16  HD
ENDROOT
BRANCH 3 5
ATOM      5  CA  ASP E   2       7.085  -5.226 -13.493  1.00 30.54 LIG 0.19  C 
BRANCH 5 6
ATOM      6  CB  ASP E   2       6.320  -4.667 -14.697  1.00 32.40 LIG 0.15  C 
BRANCH 6 7
ATOM      7  CG  ASP E   2       7.051  -4.889 -16.003  1.00 34.09 LIG 0.17  C 
ATOM      8 OD2  ASP E   2       7.207  -6.059 -16.402  1.00 37.71 LIG-0.65  OA
ATOM      9 OD1  ASP E   2       7.463  -3.894 -16.639  1.00 36.77 LIG-0.65  OA
ENDBRANCH 6 7
ENDBRANCH 5 6
BRANCH 5 10
ATOM     10  C   ASP E   2       7.898  -4.133 -12.844  1.00 30.01 LIG 0.24  C 
ATOM     11 O    ASP E   2       8.301  -3.173 -13.502  1.00 27.94 LIG-0.27  OA
ATOM     12  N   LEU E   3       8.125  -4.284 -11.546  1.00 30.14 LIG-0.35  N 
ATOM     13 H    LEU E   3       7.830  -4.948 -11.085  1.00 30.14 LIG 0.16  HD
BRANCH 12 14
ATOM     14  CA  LEU E   3       8.902  -3.329 -10.777  1.00 30.90 LIG 0.18  C 
BRANCH 14 15
ATOM     15  C   LEU E   3      10.074  -4.041 -10.101  1.00 32.33 LIG 0.24  C 
ATOM     16 O    LEU E   3      10.980  -3.397  -9.560  1.00 31.45 LIG-0.27  OA
ATOM     17  N   ALA E   4      10.026  -5.370 -10.111  1.00 33.58 LIG-0.34  N 
ATOM     18 H    ALA E   4       9.402  -5.822 -10.493  1.00 33.58 LIG 0.16  HD
BRANCH 17 19
ATOM     19  CA  ALA E   4      11.049  -6.188  -9.462  1.00 35.71 LIG 0.18  C 
ATOM     20  CB  ALA E   4      11.166  -5.818  -7.992  1.00 36.03 LIG 0.04  C 
BRANCH 19 21
ATOM     21  C   ALA E   4      10.719  -7.667  -9.605  1.00 37.05 LIG 0.20  C 
ATOM     22 OXT  ALA E   4       9.571  -8.033  -9.848  1.00 36.72 LIG-0.65  OA
ATOM     23 O    ALA E   4      11.592  -8.529  -9.485  1.00 37.61 LIG-0.65  OA
ENDBRANCH 19 21
ENDBRANCH 17 19
ENDBRANCH 14 15
BRANCH 14 24
ATOM     24  CB  LEU E   3       8.000  -2.656  -9.741  1.00 30.03 LIG 0.04  C 
BRANCH 24 25
ATOM     25  CG  LEU E   3       7.347  -1.317 -10.067  1.00 29.85 LIG-0.02  C 
ATOM     26  CD1 LEU E   3       8.369  -0.206 -10.224  1.00 29.46 LIG 0.01  C 
ATOM     27  CD2 LEU E   3       6.517  -1.483 -11.329  1.00 29.65 LIG 0.01  C 
ENDBRANCH 24 25
ENDBRANCH 14 24
ENDBRANCH 12 14
ENDBRANCH 5 10
ENDBRANCH 3 5
BRANCH 1 28
ATOM     28  CA  LEU E   1       4.578  -7.315 -11.578  1.00 29.46 LIG 0.18  C 
BRANCH 28 29
ATOM     29  CB  LEU E   1       4.595  -8.844 -11.605  1.00 29.35 LIG 0.04  C 
BRANCH 29 30
ATOM     30  CG  LEU E   1       5.812  -9.487 -10.923  1.00 30.22 LIG-0.02  C 
ATOM     31  CD2 LEU E   1       6.138  -8.792  -9.609  1.00 31.32 LIG 0.01  C 
ATOM     32  CD1 LEU E   1       7.017  -9.489 -11.847  1.00 30.06 LIG 0.01  C 
ENDBRANCH 29 30
ENDBRANCH 28 29
BRANCH 28 33
ATOM     33  N   LEU E   1       3.213  -6.796 -11.602  1.00 28.73 LIG-0.35  N 
ATOM     34  C   GLN E   0       2.972  -5.509 -11.378  1.00 28.95 LIG 0.24  C 
ATOM     35 O    GLN E   0       3.843  -4.718 -11.025  1.00 30.73 LIG-0.27  OA
ATOM     36 H    LEU E   1       2.607  -7.382 -11.769  1.00 28.73 LIG 0.16  HD
BRANCH 34 37
ATOM     37  CA  GLN E   0       1.542  -5.030 -11.569  1.00 28.12 LIG 0.18  C 
BRANCH 37 38
ATOM     38  CB  GLN E   0       0.771  -5.209 -10.255  1.00 27.70 LIG 0.04  C 
BRANCH 38 39
ATOM     39  CG  GLN E   0       0.517  -3.922  -9.474  1.00 26.51 LIG 0.10  C 
BRANCH 39 40
ATOM     40  CD  GLN E   0      -0.960  -3.664  -9.244  1.00 26.51 LIG 0.21  C 
ATOM     41 OE1  GLN E   0      -1.626  -4.425  -8.533  1.00 26.66 LIG-0.27  OA
ATOM     42  NE2 GLN E   0      -1.483  -2.592  -9.838  1.00 24.64 LIG-0.37  N 
ATOM     43 22HE GLN E   0      -2.317  -2.406  -9.733  1.00 24.64 LIG 0.16  HD
ATOM     44 21HE GLN E   0      -0.988  -2.086 -10.326  1.00 24.64 LIG 0.16  HD
ENDBRANCH 39 40
ENDBRANCH 38 39
ENDBRANCH 37 38
BRANCH 37 45
ATOM     45  N   GLN E   0       0.886  -5.811 -12.677  1.00 28.94 LIG-0.35  N 
ATOM     46  C   ACE E  -1       1.283  -5.731 -13.970  1.00 29.25 LIG 0.21  C 
ATOM     47 O    ACE E  -1       2.485  -5.527 -14.165  1.00 28.69 LIG-0.27  OA
ATOM     48  CH3 ACE E  -1       0.665  -6.838 -14.810  1.00 29.73 LIG 0.12  C 
ATOM     49 H    GLN E   0       0.238  -6.311 -12.413  1.00 28.94 LIG 0.16  HD
ENDBRANCH 37 45
ENDBRANCH 34 37
ENDBRANCH 28 33
ENDBRANCH 1 28
TORSDOF 19
ENDMDL
MODEL 28
USER: ADFR SOLUTION from run 164
USER: SCORE 13.380300 LL:  -3.060 LR: -12.055 RR:   0.000 FEB:  -6.387
USER: RMSD 10.244923
USER: SEED 163
USER: STATUS no improvement in best in 13 clusters for 5 generations
USER: GENES 21
USER: genes 0 Translation |==|  0.68488 0.60538 0.53233
USER: genes 1 Rotation |==|  0.42159 0.96665 0.35696 0.57506
USER: genes 2 Torsion [C]-N--CA-[CB] |==|  0.19987
USER: genes 3 Torsion [N]-CA--CB-[CG] |==|  0.65383
USER: genes 4 Torsion [CA]-CB--CG-[OD2] |==|  0.88041
USER: genes 5 Torsion [N]-CA--C-[N] |==|  0.31009
USER: genes 6 Torsion [C]-N--CA-[C] |==|  0.69914
USER: genes 7 Torsion [N]-CA--C-[N] |==|  0.44079
USER: genes 8 Torsion [C]-N--CA-[CB] |==|  0.44631
USER: genes 9 Torsion [N]-CA--C-[OXT] |==|  0.82566
USER: genes 10 Torsion [N]-CA--CB-[CG] |==|  0.49227
USER: genes 11 Torsion [CA]-CB--CG-[CD2] |==|  0.50199
USER: genes 12 Torsion [N]-C--CA-[N] |==|  0.31166
USER: genes 13 Torsion [C]-CA--CB-[CG] |==|  0.38222
USER: genes 14 Torsion [CA]-CB--CG-[CD2] |==|  0.04684
USER: genes 15 Torsion [C]-CA--N-[C] |==|  0.66697
USER: genes 16 Torsion [N]-C--CA-[N] |==|  0.22186
USER: genes 17 Torsion [C]-CA--CB-[CG] |==|  0.40107
USER: genes 18 Torsion [CA]-CB--CG-[CD] |==|  0.50517
USER: genes 19 Torsion [CB]-CG--CD-[OE1] |==|  0.06822
USER: genes 20 Torsion [C]-CA--N-[C] |==|  0.75872
ROOT
ATOM      1  C   LEU E   1       6.922  -3.895 -12.691  1.00 28.67 LIG 0.24  C 
ATOM      2 O    LEU E   1       7.107  -3.775 -13.906  1.00 26.53 LIG-0.27  OA
ATOM      3  N   ASP E   2       6.012  -4.713 -12.169  1.00 29.47 LIG-0.35  N 
ATOM      4 H    ASP E   2       5.937  -4.876 -11.328  1.00 29.47 LIG 0.16  HD
ENDROOT
BRANCH 3 5
ATOM      5  CA  ASP E   2       5.054  -5.411 -13.007  1.00 30.54 LIG 0.19  C 
BRANCH 5 6
ATOM      6  CB  ASP E   2       5.722  -6.530 -13.812  1.00 32.40 LIG 0.15  C 
BRANCH 6 7
ATOM      7  CG  ASP E   2       5.485  -6.396 -15.300  1.00 34.09 LIG 0.17  C 
ATOM      8 OD2  ASP E   2       4.340  -6.096 -15.691  1.00 37.71 LIG-0.65  OA
ATOM      9 OD1  ASP E   2       6.443  -6.583 -16.082  1.00 36.77 LIG-0.65  OA
ENDBRANCH 6 7
ENDBRANCH 5 6
BRANCH 5 10
ATOM     10  C   ASP E   2       3.995  -5.988 -12.100  1.00 30.01 LIG 0.24  C 
ATOM     11 O    ASP E   2       4.265  -6.901 -11.319  1.00 27.94 LIG-0.27  OA
ATOM     12  N   LEU E   3       2.792  -5.440 -12.206  1.00 30.14 LIG-0.35  N 
ATOM     13 H    LEU E   3       2.609  -4.793 -12.742  1.00 30.14 LIG 0.16  HD
BRANCH 12 14
ATOM     14  CA  LEU E   3       1.661  -5.891 -11.415  1.00 30.90 LIG 0.18  C 
BRANCH 14 15
ATOM     15  C   LEU E   3       0.672  -6.641 -12.308  1.00 32.33 LIG 0.24  C 
ATOM     16 O    LEU E   3       0.686  -6.490 -13.536  1.00 31.45 LIG-0.27  OA
ATOM     17  N   ALA E   4      -0.158  -7.470 -11.683  1.00 33.58 LIG-0.34  N 
ATOM     18 H    ALA E   4      -0.177  -7.572 -10.829  1.00 33.58 LIG 0.16  HD
BRANCH 17 19
ATOM     19  CA  ALA E   4      -1.126  -8.292 -12.406  1.00 35.71 LIG 0.18  C 
ATOM     20  CB  ALA E   4      -1.589  -9.450 -11.537  1.00 36.03 LIG 0.04  C 
BRANCH 19 21
ATOM     21  C   ALA E   4      -2.319  -7.454 -12.843  1.00 37.05 LIG 0.20  C 
ATOM     22 OXT  ALA E   4      -3.046  -6.917 -12.010  1.00 36.72 LIG-0.65  OA
ATOM     23 O    ALA E   4      -2.582  -7.292 -14.036  1.00 37.61 LIG-0.65  OA
ENDBRANCH 19 21
ENDBRANCH 17 19
ENDBRANCH 14 15
BRANCH 14 24
ATOM     24  CB  LEU E   3       0.992  -4.686 -10.752  1.00 30.03 LIG 0.04  C 
BRANCH 24 25
ATOM     25  CG  LEU E   3      -0.266  -4.890  -9.914  1.00 29.85 LIG-0.02  C 
ATOM     26  CD1 LEU E   3      -0.040  -5.867  -8.773  1.00 29.46 LIG 0.01  C 
ATOM     27  CD2 LEU E   3      -0.722  -3.536  -9.395  1.00 29.65 LIG 0.01  C 
ENDBRANCH 24 25
ENDBRANCH 14 24
ENDBRANCH 12 14
ENDBRANCH 5 10
ENDBRANCH 3 5
BRANCH 1 28
ATOM     28  CA  LEU E   1       7.753  -3.106 -11.694  1.00 29.46 LIG 0.18  C 
BRANCH 28 29
ATOM     29  CB  LEU E   1       7.656  -1.608 -11.984  1.00 29.35 LIG 0.04  C 
BRANCH 29 30
ATOM     30  CG  LEU E   1       7.497  -0.720 -10.741  1.00 30.22 LIG-0.02  C 
ATOM     31  CD2 LEU E   1       7.879  -1.473  -9.474  1.00 31.32 LIG 0.01  C 
ATOM     32  CD1 LEU E   1       6.086  -0.171 -10.639  1.00 30.06 LIG 0.01  C 
ENDBRANCH 29 30
ENDBRANCH 28 29
BRANCH 28 33
ATOM     33  N   LEU E   1       9.135  -3.572 -11.745  1.00 28.73 LIG-0.35  N 
ATOM     34  C   GLN E   0       9.720  -4.084 -10.667  1.00 28.95 LIG 0.24  C 
ATOM     35 O    GLN E   0       9.191  -4.086  -9.558  1.00 30.73 LIG-0.27  OA
ATOM     36 H    LEU E   1       9.518  -3.486 -12.510  1.00 28.73 LIG 0.16  HD
BRANCH 34 37
ATOM     37  CA  GLN E   0      11.107  -4.678 -10.848  1.00 28.12 LIG 0.18  C 
BRANCH 37 38
ATOM     38  CB  GLN E   0      11.391  -5.655  -9.700  1.00 27.70 LIG 0.04  C 
BRANCH 38 39
ATOM     39  CG  GLN E   0      12.210  -6.885 -10.086  1.00 26.51 LIG 0.10  C 
BRANCH 39 40
ATOM     40  CD  GLN E   0      12.419  -7.833  -8.920  1.00 26.51 LIG 0.21  C 
ATOM     41 OE1  GLN E   0      11.625  -7.845  -7.972  1.00 26.66 LIG-0.27  OA
ATOM     42  NE2 GLN E   0      13.481  -8.634  -8.978  1.00 24.64 LIG-0.37  N 
ATOM     43 22HE GLN E   0      13.637  -9.189  -8.340  1.00 24.64 LIG 0.16  HD
ATOM     44 21HE GLN E   0      14.012  -8.596  -9.654  1.00 24.64 LIG 0.16  HD
ENDBRANCH 39 40
ENDBRANCH 38 39
ENDBRANCH 37 38
BRANCH 37 45
ATOM     45  N   GLN E   0      12.134  -3.577 -10.870  1.00 28.94 LIG-0.35  N 
ATOM     46  C   ACE E  -1      12.480  -2.914 -12.000  1.00 29.25 LIG 0.21  C 
ATOM     47 O    ACE E  -1      11.592  -2.766 -12.845  1.00 28.69 LIG-0.27  OA
ATOM     48  CH3 ACE E  -1      13.294  -1.669 -11.686  1.00 29.73 LIG 0.12  C 
ATOM     49 H    GLN E   0      12.480  -3.410 -10.101  1.00 28.94 LIG 0.16  HD
ENDBRANCH 37 45
ENDBRANCH 34 37
ENDBRANCH 28 33
ENDBRANCH 1 28
TORSDOF 19
ENDMDL
MODEL 29
USER: ADFR SOLUTION from run 200
USER: SCORE 13.779772 LL:  -3.710 LR: -12.029 RR:   0.000 FEB:  -6.361
USER: RMSD 5.216720
USER: SEED 199
USER: STATUS no improvement in best in 7 clusters for 5 generations
USER: GENES 21
USER: genes 0 Translation |==|  0.51095 0.48471 0.55534
USER: genes 1 Rotation |==|  0.81934 0.53131 0.46965 0.88226
USER: genes 2 Torsion [C]-N--CA-[CB] |==|  0.33202
USER: genes 3 Torsion [N]-CA--CB-[CG] |==|  0.04512
USER: genes 4 Torsion [CA]-CB--CG-[OD2] |==|  0.13363
USER: genes 5 Torsion [N]-CA--C-[N] |==|  0.21460
USER: genes 6 Torsion [C]-N--CA-[C] |==|  0.76713
USER: genes 7 Torsion [N]-CA--C-[N] |==|  0.93659
USER: genes 8 Torsion [C]-N--CA-[CB] |==|  0.18466
USER: genes 9 Torsion [N]-CA--C-[OXT] |==|  0.38500
USER: genes 10 Torsion [N]-CA--CB-[CG] |==|  0.64980
USER: genes 11 Torsion [CA]-CB--CG-[CD2] |==|  0.03076
USER: genes 12 Torsion [N]-C--CA-[N] |==|  0.10023
USER: genes 13 Torsion [C]-CA--CB-[CG] |==|  0.27548
USER: genes 14 Torsion [CA]-CB--CG-[CD2] |==|  0.33803
USER: genes 15 Torsion [C]-CA--N-[C] |==|  0.15151
USER: genes 16 Torsion [N]-C--CA-[N] |==|  0.45905
USER: genes 17 Torsion [C]-CA--CB-[CG] |==|  0.31443
USER: genes 18 Torsion [CA]-CB--CG-[CD] |==|  0.27731
USER: genes 19 Torsion [CB]-CG--CD-[OE1] |==|  0.95623
USER: genes 20 Torsion [C]-CA--N-[C] |==|  0.55859
ROOT
ATOM      1  C   LEU E   1       3.008  -6.067 -12.311  1.00 28.67 LIG 0.24  C 
ATOM      2 O    LEU E   1       3.175  -6.889 -11.404  1.00 26.53 LIG-0.27  OA
ATOM      3  N   ASP E   2       3.889  -5.869 -13.287  1.00 29.47 LIG-0.35  N 
ATOM      4 H    ASP E   2       3.744  -5.371 -13.973  1.00 29.47 LIG 0.16  HD
ENDROOT
BRANCH 3 5
ATOM      5  CA  ASP E   2       5.197  -6.499 -13.265  1.00 30.54 LIG 0.19  C 
BRANCH 5 6
ATOM      6  CB  ASP E   2       5.401  -7.410 -14.480  1.00 32.40 LIG 0.15  C 
BRANCH 6 7
ATOM      7  CG  ASP E   2       4.400  -7.144 -15.582  1.00 34.09 LIG 0.17  C 
ATOM      8 OD2  ASP E   2       4.208  -5.963 -15.933  1.00 37.71 LIG-0.65  OA
ATOM      9 OD1  ASP E   2       3.809  -8.113 -16.107  1.00 36.77 LIG-0.65  OA
ENDBRANCH 6 7
ENDBRANCH 5 6
BRANCH 5 10
ATOM     10  C   ASP E   2       6.230  -5.400 -13.263  1.00 30.01 LIG 0.24  C 
ATOM     11 O    ASP E   2       6.838  -5.106 -14.293  1.00 27.94 LIG-0.27  OA
ATOM     12  N   LEU E   3       6.414  -4.791 -12.099  1.00 30.14 LIG-0.35  N 
ATOM     13 H    LEU E   3       5.978  -4.989 -11.385  1.00 30.14 LIG 0.16  HD
BRANCH 12 14
ATOM     14  CA  LEU E   3       7.382  -3.723 -11.926  1.00 30.90 LIG 0.18  C 
BRANCH 14 15
ATOM     15  C   LEU E   3       8.766  -4.318 -11.669  1.00 32.33 LIG 0.24  C 
ATOM     16 O    LEU E   3       9.789  -3.654 -11.876  1.00 31.45 LIG-0.27  OA
ATOM     17  N   ALA E   4       8.784  -5.557 -11.188  1.00 33.58 LIG-0.34  N 
ATOM     18 H    ALA E   4       8.076  -6.026 -11.050  1.00 33.58 LIG 0.16  HD
BRANCH 17 19
ATOM     19  CA  ALA E   4      10.030  -6.240 -10.845  1.00 35.71 LIG 0.18  C 
ATOM     20  CB  ALA E   4      10.699  -5.556  -9.664  1.00 36.03 LIG 0.04  C 
BRANCH 19 21
ATOM     21  C   ALA E   4       9.765  -7.704 -10.523  1.00 37.05 LIG 0.20  C 
ATOM     22 OXT  ALA E   4      10.524  -8.581 -10.927  1.00 36.72 LIG-0.65  OA
ATOM     23 O    ALA E   4       8.790  -8.042  -9.849  1.00 37.61 LIG-0.65  OA
ENDBRANCH 19 21
ENDBRANCH 17 19
ENDBRANCH 14 15
BRANCH 14 24
ATOM     24  CB  LEU E   3       6.948  -2.827 -10.765  1.00 30.03 LIG 0.04  C 
BRANCH 24 25
ATOM     25  CG  LEU E   3       6.808  -1.324 -10.985  1.00 29.85 LIG-0.02  C 
ATOM     26  CD1 LEU E   3       7.860  -0.536 -10.224  1.00 29.46 LIG 0.01  C 
ATOM     27  CD2 LEU E   3       6.888  -1.048 -12.477  1.00 29.65 LIG 0.01  C 
ENDBRANCH 24 25
ENDBRANCH 14 24
ENDBRANCH 12 14
ENDBRANCH 5 10
ENDBRANCH 3 5
BRANCH 1 28
ATOM     28  CA  LEU E   1       1.748  -5.223 -12.374  1.00 29.46 LIG 0.18  C 
BRANCH 28 29
ATOM     29  CB  LEU E   1       0.628  -5.869 -11.557  1.00 29.35 LIG 0.04  C 
BRANCH 29 30
ATOM     30  CG  LEU E   1       0.430  -5.279 -10.154  1.00 30.22 LIG-0.02  C 
ATOM     31  CD2 LEU E   1      -0.985  -4.748  -9.975  1.00 31.32 LIG 0.01  C 
ATOM     32  CD1 LEU E   1       1.454  -4.195  -9.868  1.00 30.06 LIG 0.01  C 
ENDBRANCH 29 30
ENDBRANCH 28 29
BRANCH 28 33
ATOM     33  N   LEU E   1       1.357  -5.045 -13.770  1.00 28.73 LIG-0.35  N 
ATOM     34  C   GLN E   0       1.177  -6.095 -14.564  1.00 28.95 LIG 0.24  C 
ATOM     35 O    GLN E   0       1.439  -7.245 -14.220  1.00 30.73 LIG-0.27  OA
ATOM     36 H    LEU E   1       1.259  -4.227 -14.016  1.00 28.73 LIG 0.16  HD
BRANCH 34 37
ATOM     37  CA  GLN E   0       0.628  -5.824 -15.955  1.00 28.12 LIG 0.18  C 
BRANCH 37 38
ATOM     38  CB  GLN E   0      -0.862  -5.474 -15.850  1.00 27.70 LIG 0.04  C 
BRANCH 38 39
ATOM     39  CG  GLN E   0      -1.215  -4.036 -16.224  1.00 26.51 LIG 0.10  C 
BRANCH 39 40
ATOM     40  CD  GLN E   0      -1.764  -3.922 -17.634  1.00 26.51 LIG 0.21  C 
ATOM     41 OE1  GLN E   0      -1.620  -4.848 -18.441  1.00 26.66 LIG-0.27  OA
ATOM     42  NE2 GLN E   0      -2.399  -2.792 -17.943  1.00 24.64 LIG-0.37  N 
ATOM     43 22HE GLN E   0      -2.728  -2.685 -18.731  1.00 24.64 LIG 0.16  HD
ATOM     44 21HE GLN E   0      -2.479  -2.169 -17.355  1.00 24.64 LIG 0.16  HD
ENDBRANCH 39 40
ENDBRANCH 38 39
ENDBRANCH 37 38
BRANCH 37 45
ATOM     45  N   GLN E   0       0.825  -7.037 -16.826  1.00 28.94 LIG-0.35  N 
ATOM     46  C   ACE E  -1       0.829  -6.980 -18.180  1.00 29.25 LIG 0.21  C 
ATOM     47 O    ACE E  -1       1.270  -5.943 -18.685  1.00 28.69 LIG-0.27  OA
ATOM     48  CH3 ACE E  -1       1.348  -8.273 -18.788  1.00 29.73 LIG 0.12  C 
ATOM     49 H    GLN E   0       0.932  -7.767 -16.384  1.00 28.94 LIG 0.16  HD
ENDBRANCH 37 45
ENDBRANCH 34 37
ENDBRANCH 28 33
ENDBRANCH 1 28
TORSDOF 19
ENDMDL
MODEL 30
USER: ADFR SOLUTION from run 14
USER: SCORE 12.861174 LL:  -3.558 LR: -12.015 RR:   0.000 FEB:  -6.347
USER: RMSD 9.233705
USER: SEED 878050
USER: STATUS no improvement in best in 4 clusters for 5 generations
USER: GENES 21
USER: genes 0 Translation |==|  0.63683 0.55373 0.56043
USER: genes 1 Rotation |==|  0.72192 0.22614 0.23373 0.73420
USER: genes 2 Torsion [C]-N--CA-[CB] |==|  0.82165
USER: genes 3 Torsion [N]-CA--CB-[CG] |==|  0.78999
USER: genes 4 Torsion [CA]-CB--CG-[OD2] |==|  0.97148
USER: genes 5 Torsion [N]-CA--C-[N] |==|  0.70242
USER: genes 6 Torsion [C]-N--CA-[C] |==|  0.60666
USER: genes 7 Torsion [N]-CA--C-[N] |==|  0.64805
USER: genes 8 Torsion [C]-N--CA-[CB] |==|  0.26201
USER: genes 9 Torsion [N]-CA--C-[OXT] |==|  0.67135
USER: genes 10 Torsion [N]-CA--CB-[CG] |==|  0.61084
USER: genes 11 Torsion [CA]-CB--CG-[CD2] |==|  0.09730
USER: genes 12 Torsion [N]-C--CA-[N] |==|  0.13898
USER: genes 13 Torsion [C]-CA--CB-[CG] |==|  0.37595
USER: genes 14 Torsion [CA]-CB--CG-[CD2] |==|  0.83325
USER: genes 15 Torsion [C]-CA--N-[C] |==|  0.63519
USER: genes 16 Torsion [N]-C--CA-[N] |==|  0.91891
USER: genes 17 Torsion [C]-CA--CB-[CG] |==|  0.68988
USER: genes 18 Torsion [CA]-CB--CG-[CD] |==|  0.42831
USER: genes 19 Torsion [CB]-CG--CD-[OE1] |==|  0.49748
USER: genes 20 Torsion [C]-CA--N-[C] |==|  0.80108
ROOT
ATOM      1  C   LEU E   1       5.841  -4.825 -12.227  1.00 28.67 LIG 0.24  C 
ATOM      2 O    LEU E   1       4.889  -4.650 -11.459  1.00 26.53 LIG-0.27  OA
ATOM      3  N   ASP E   2       6.004  -5.932 -12.946  1.00 29.47 LIG-0.35  N 
ATOM      4 H    ASP E   2       6.607  -6.028 -13.551  1.00 29.47 LIG 0.16  HD
ENDROOT
BRANCH 3 5
ATOM      5  CA  ASP E   2       5.151  -7.091 -12.754  1.00 30.54 LIG 0.19  C 
BRANCH 5 6
ATOM      6  CB  ASP E   2       5.324  -7.689 -11.354  1.00 32.40 LIG 0.15  C 
BRANCH 6 7
ATOM      7  CG  ASP E   2       6.609  -8.473 -11.211  1.00 34.09 LIG 0.17  C 
ATOM      8 OD2  ASP E   2       7.269  -8.719 -12.240  1.00 37.71 LIG-0.65  OA
ATOM      9 OD1  ASP E   2       6.968  -8.840 -10.071  1.00 36.77 LIG-0.65  OA
ENDBRANCH 6 7
ENDBRANCH 5 6
BRANCH 5 10
ATOM     10  C   ASP E   2       3.724  -6.641 -12.952  1.00 30.01 LIG 0.24  C 
ATOM     11 O    ASP E   2       3.296  -6.385 -14.078  1.00 27.94 LIG-0.27  OA
ATOM     12  N   LEU E   3       2.994  -6.556 -11.848  1.00 30.14 LIG-0.35  N 
ATOM     13 H    LEU E   3       3.292  -6.749 -11.064  1.00 30.14 LIG 0.16  HD
BRANCH 12 14
ATOM     14  CA  LEU E   3       1.608  -6.125 -11.865  1.00 30.90 LIG 0.18  C 
BRANCH 14 15
ATOM     15  C   LEU E   3       1.324  -5.251 -10.643  1.00 32.33 LIG 0.24  C 
ATOM     16 O    LEU E   3       2.011  -4.251 -10.405  1.00 31.45 LIG-0.27  OA
ATOM     17  N   ALA E   4       0.289  -5.622  -9.895  1.00 33.58 LIG-0.34  N 
ATOM     18 H    ALA E   4      -0.187  -6.321 -10.052  1.00 33.58 LIG 0.16  HD
BRANCH 17 19
ATOM     19  CA  ALA E   4      -0.136  -4.858  -8.724  1.00 35.71 LIG 0.18  C 
ATOM     20  CB  ALA E   4      -1.237  -3.880  -9.102  1.00 36.03 LIG 0.04  C 
BRANCH 19 21
ATOM     21  C   ALA E   4      -0.620  -5.792  -7.624  1.00 37.05 LIG 0.20  C 
ATOM     22 OXT  ALA E   4      -1.779  -5.737  -7.220  1.00 36.72 LIG-0.65  OA
ATOM     23 O    ALA E   4       0.135  -6.624  -7.116  1.00 37.61 LIG-0.65  OA
ENDBRANCH 19 21
ENDBRANCH 17 19
ENDBRANCH 14 15
BRANCH 14 24
ATOM     24  CB  LEU E   3       0.694  -7.351 -11.884  1.00 30.03 LIG 0.04  C 
BRANCH 24 25
ATOM     25  CG  LEU E   3      -0.560  -7.342 -12.753  1.00 29.85 LIG-0.02  C 
ATOM     26  CD1 LEU E   3      -1.757  -6.761 -12.022  1.00 29.46 LIG 0.01  C 
ATOM     27  CD2 LEU E   3      -0.259  -6.560 -14.021  1.00 29.65 LIG 0.01  C 
ENDBRANCH 24 25
ENDBRANCH 14 24
ENDBRANCH 12 14
ENDBRANCH 5 10
ENDBRANCH 3 5
BRANCH 1 28
ATOM     28  CA  LEU E   1       6.899  -3.752 -12.412  1.00 29.46 LIG 0.18  C 
BRANCH 28 29
ATOM     29  CB  LEU E   1       6.504  -2.476 -11.668  1.00 29.35 LIG 0.04  C 
BRANCH 29 30
ATOM     30  CG  LEU E   1       7.637  -1.821 -10.865  1.00 30.22 LIG-0.02  C 
ATOM     31  CD2 LEU E   1       8.176  -2.768  -9.801  1.00 31.32 LIG 0.01  C 
ATOM     32  CD1 LEU E   1       7.181  -0.514 -10.243  1.00 30.06 LIG 0.01  C 
ENDBRANCH 29 30
ENDBRANCH 28 29
BRANCH 28 33
ATOM     33  N   LEU E   1       7.088  -3.503 -13.838  1.00 28.73 LIG-0.35  N 
ATOM     34  C   GLN E   0       8.306  -3.472 -14.367  1.00 28.95 LIG 0.24  C 
ATOM     35 O    GLN E   0       9.330  -3.527 -13.691  1.00 30.73 LIG-0.27  OA
ATOM     36 H    LEU E   1       6.361  -3.383 -14.283  1.00 28.73 LIG 0.16  HD
BRANCH 34 37
ATOM     37  CA  GLN E   0       8.401  -3.354 -15.880  1.00 28.12 LIG 0.18  C 
BRANCH 37 38
ATOM     38  CB  GLN E   0       8.496  -1.872 -16.265  1.00 27.70 LIG 0.04  C 
BRANCH 38 39
ATOM     39  CG  GLN E   0       7.277  -1.315 -16.995  1.00 26.51 LIG 0.10  C 
BRANCH 39 40
ATOM     40  CD  GLN E   0       7.121   0.183 -16.806  1.00 26.51 LIG 0.21  C 
ATOM     41 OE1  GLN E   0       6.190   0.790 -17.348  1.00 26.66 LIG-0.27  OA
ATOM     42  NE2 GLN E   0       8.023   0.789 -16.036  1.00 24.64 LIG-0.37  N 
ATOM     43 22HE GLN E   0       7.972   1.637 -15.899  1.00 24.64 LIG 0.16  HD
ATOM     44 21HE GLN E   0       8.657   0.333 -15.676  1.00 24.64 LIG 0.16  HD
ENDBRANCH 39 40
ENDBRANCH 38 39
ENDBRANCH 37 38
BRANCH 37 45
ATOM     45  N   GLN E   0       7.192  -3.987 -16.517  1.00 28.94 LIG-0.35  N 
ATOM     46  C   ACE E  -1       6.990  -5.327 -16.545  1.00 29.25 LIG 0.21  C 
ATOM     47 O    ACE E  -1       7.426  -5.969 -15.585  1.00 28.69 LIG-0.27  OA
ATOM     48  CH3 ACE E  -1       5.569  -5.666 -16.965  1.00 29.73 LIG 0.12  C 
ATOM     49 H    GLN E   0       6.644  -3.421 -16.860  1.00 28.94 LIG 0.16  HD
ENDBRANCH 37 45
ENDBRANCH 34 37
ENDBRANCH 28 33
ENDBRANCH 1 28
TORSDOF 19
ENDMDL
MODEL 31
USER: ADFR SOLUTION from run 132
USER: SCORE 13.943232 LL:  -3.435 LR: -11.980 RR:   0.000 FEB:  -6.312
USER: RMSD 4.077448
USER: SEED 131
USER: STATUS no improvement in best in 8 clusters for 5 generations
USER: GENES 21
USER: genes 0 Translation |==|  0.50900 0.47422 0.51284
USER: genes 1 Rotation |==|  0.48901 0.51916 0.45475 0.99746
USER: genes 2 Torsion [C]-N--CA-[CB] |==|  0.51262
USER: genes 3 Torsion [N]-CA--CB-[CG] |==|  0.08552
USER: genes 4 Torsion [CA]-CB--CG-[OD2] |==|  0.66168
USER: genes 5 Torsion [N]-CA--C-[N] |==|  0.40810
USER: genes 6 Torsion [C]-N--CA-[C] |==|  0.61117
USER: genes 7 Torsion [N]-CA--C-[N] |==|  0.94592
USER: genes 8 Torsion [C]-N--CA-[CB] |==|  0.18749
USER: genes 9 Torsion [N]-CA--C-[OXT] |==|  0.49563
USER: genes 10 Torsion [N]-CA--CB-[CG] |==|  0.45378
USER: genes 11 Torsion [CA]-CB--CG-[CD2] |==|  0.72498
USER: genes 12 Torsion [N]-C--CA-[N] |==|  0.37476
USER: genes 13 Torsion [C]-CA--CB-[CG] |==|  0.46745
USER: genes 14 Torsion [CA]-CB--CG-[CD2] |==|  0.80750
USER: genes 15 Torsion [C]-CA--N-[C] |==|  0.83569
USER: genes 16 Torsion [N]-C--CA-[N] |==|  0.88199
USER: genes 17 Torsion [C]-CA--CB-[CG] |==|  0.07198
USER: genes 18 Torsion [CA]-CB--CG-[CD] |==|  0.70069
USER: genes 19 Torsion [CB]-CG--CD-[OE1] |==|  0.61115
USER: genes 20 Torsion [C]-CA--N-[C] |==|  0.68558
ROOT
ATOM      1  C   LEU E   1       2.964  -6.256 -13.012  1.00 28.67 LIG 0.24  C 
ATOM      2 O    LEU E   1       3.196  -5.475 -12.084  1.00 26.53 LIG-0.27  OA
ATOM      3  N   ASP E   2       3.815  -7.203 -13.398  1.00 29.47 LIG-0.35  N 
ATOM      4 H    ASP E   2       3.629  -7.810 -13.977  1.00 29.47 LIG 0.16  HD
ENDROOT
BRANCH 3 5
ATOM      5  CA  ASP E   2       5.158  -7.280 -12.853  1.00 30.54 LIG 0.19  C 
BRANCH 5 6
ATOM      6  CB  ASP E   2       5.978  -8.382 -13.533  1.00 32.40 LIG 0.15  C 
BRANCH 6 7
ATOM      7  CG  ASP E   2       5.574  -8.601 -14.974  1.00 34.09 LIG 0.17  C 
ATOM      8 OD2  ASP E   2       5.188  -9.736 -15.314  1.00 37.71 LIG-0.65  OA
ATOM      9 OD1  ASP E   2       5.632  -7.637 -15.769  1.00 36.77 LIG-0.65  OA
ENDBRANCH 6 7
ENDBRANCH 5 6
BRANCH 5 10
ATOM     10  C   ASP E   2       5.814  -5.939 -13.071  1.00 30.01 LIG 0.24  C 
ATOM     11 O    ASP E   2       5.540  -5.258 -14.060  1.00 27.94 LIG-0.27  OA
ATOM     12  N   LEU E   3       6.674  -5.565 -12.133  1.00 30.14 LIG-0.35  N 
ATOM     13 H    LEU E   3       6.853  -6.035 -11.436  1.00 30.14 LIG 0.16  HD
BRANCH 12 14
ATOM     14  CA  LEU E   3       7.400  -4.309 -12.202  1.00 30.90 LIG 0.18  C 
BRANCH 14 15
ATOM     15  C   LEU E   3       8.839  -4.518 -11.731  1.00 32.33 LIG 0.24  C 
ATOM     16 O    LEU E   3       9.721  -3.696 -12.005  1.00 31.45 LIG-0.27  OA
ATOM     17  N   ALA E   4       9.056  -5.606 -10.998  1.00 33.58 LIG-0.34  N 
ATOM     18 H    ALA E   4       8.448  -6.185 -10.811  1.00 33.58 LIG 0.16  HD
BRANCH 17 19
ATOM     19  CA  ALA E   4      10.369  -5.914 -10.435  1.00 35.71 LIG 0.18  C 
ATOM     20  CB  ALA E   4      10.737  -4.897  -9.366  1.00 36.03 LIG 0.04  C 
BRANCH 19 21
ATOM     21  C   ALA E   4      10.383  -7.318  -9.849  1.00 37.05 LIG 0.20  C 
ATOM     22 OXT  ALA E   4      11.408  -7.780  -9.352  1.00 36.72 LIG-0.65  OA
ATOM     23 O    ALA E   4       9.371  -8.023  -9.857  1.00 37.61 LIG-0.65  OA
ENDBRANCH 19 21
ENDBRANCH 17 19
ENDBRANCH 14 15
BRANCH 14 24
ATOM     24  CB  LEU E   3       6.690  -3.264 -11.340  1.00 30.03 LIG 0.04  C 
BRANCH 24 25
ATOM     25  CG  LEU E   3       7.431  -1.994 -10.933  1.00 29.85 LIG-0.02  C 
ATOM     26  CD1 LEU E   3       6.553  -0.761 -11.042  1.00 29.46 LIG 0.01  C 
ATOM     27  CD2 LEU E   3       7.950  -2.176  -9.516  1.00 29.65 LIG 0.01  C 
ENDBRANCH 24 25
ENDBRANCH 14 24
ENDBRANCH 12 14
ENDBRANCH 5 10
ENDBRANCH 3 5
BRANCH 1 28
ATOM     28  CA  LEU E   1       1.655  -6.190 -13.777  1.00 29.46 LIG 0.18  C 
BRANCH 28 29
ATOM     29  CB  LEU E   1       1.683  -5.044 -14.790  1.00 29.35 LIG 0.04  C 
BRANCH 29 30
ATOM     30  CG  LEU E   1       0.534  -5.056 -15.809  1.00 30.22 LIG-0.02  C 
ATOM     31  CD2 LEU E   1       0.674  -6.218 -16.782  1.00 31.32 LIG 0.01  C 
ATOM     32  CD1 LEU E   1       0.452  -3.735 -16.553  1.00 30.06 LIG 0.01  C 
ENDBRANCH 29 30
ENDBRANCH 28 29
BRANCH 28 33
ATOM     33  N   LEU E   1       0.552  -6.041 -12.833  1.00 28.73 LIG-0.35  N 
ATOM     34  C   GLN E   0       0.336  -6.952 -11.891  1.00 28.95 LIG 0.24  C 
ATOM     35 O    GLN E   0       0.956  -8.011 -11.831  1.00 30.73 LIG-0.27  OA
ATOM     36 H    LEU E   1       0.075  -5.333 -12.943  1.00 28.73 LIG 0.16  HD
BRANCH 34 37
ATOM     37  CA  GLN E   0      -0.739  -6.643 -10.862  1.00 28.12 LIG 0.18  C 
BRANCH 37 38
ATOM     38  CB  GLN E   0      -2.118  -6.919 -11.475  1.00 27.70 LIG 0.04  C 
BRANCH 38 39
ATOM     39  CG  GLN E   0      -2.129  -7.952 -12.600  1.00 26.51 LIG 0.10  C 
BRANCH 39 40
ATOM     40  CD  GLN E   0      -2.352  -7.324 -13.963  1.00 26.51 LIG 0.21  C 
ATOM     41 OE1  GLN E   0      -3.078  -7.877 -14.797  1.00 26.66 LIG-0.27  OA
ATOM     42  NE2 GLN E   0      -1.737  -6.166 -14.200  1.00 24.64 LIG-0.37  N 
ATOM     43 22HE GLN E   0      -1.838  -5.773 -14.959  1.00 24.64 LIG 0.16  HD
ATOM     44 21HE GLN E   0      -1.239  -5.812 -13.595  1.00 24.64 LIG 0.16  HD
ENDBRANCH 39 40
ENDBRANCH 38 39
ENDBRANCH 37 38
BRANCH 37 45
ATOM     45  N   GLN E   0      -0.632  -5.204 -10.430  1.00 28.94 LIG-0.35  N 
ATOM     46  C   ACE E  -1      -0.274  -4.835  -9.176  1.00 29.25 LIG 0.21  C 
ATOM     47 O    ACE E  -1       0.517  -5.578  -8.589  1.00 28.69 LIG-0.27  OA
ATOM     48  CH3 ACE E  -1       0.049  -3.351  -9.105  1.00 29.73 LIG 0.12  C 
ATOM     49 H    GLN E   0      -0.819  -4.640 -11.052  1.00 28.94 LIG 0.16  HD
ENDBRANCH 37 45
ENDBRANCH 34 37
ENDBRANCH 28 33
ENDBRANCH 1 28
TORSDOF 19
ENDMDL
MODEL 32
USER: ADFR SOLUTION from run 17
USER: SCORE 14.177688 LL:  -3.647 LR: -11.955 RR:   0.000 FEB:  -6.287
USER: RMSD 4.673638
USER: SEED 16
USER: STATUS no improvement in best in 10 clusters for 5 generations
USER: GENES 21
USER: genes 0 Translation |==|  0.52137 0.52022 0.58331
USER: genes 1 Rotation |==|  0.59353 0.65583 0.41408 0.95781
USER: genes 2 Torsion [C]-N--CA-[CB] |==|  0.50911
USER: genes 3 Torsion [N]-CA--CB-[CG] |==|  0.09145
USER: genes 4 Torsion [CA]-CB--CG-[OD2] |==|  0.81174
USER: genes 5 Torsion [N]-CA--C-[N] |==|  0.27397
USER: genes 6 Torsion [C]-N--CA-[C] |==|  0.65632
USER: genes 7 Torsion [N]-CA--C-[N] |==|  0.93476
USER: genes 8 Torsion [C]-N--CA-[CB] |==|  0.18665
USER: genes 9 Torsion [N]-CA--C-[OXT] |==|  0.93104
USER: genes 10 Torsion [N]-CA--CB-[CG] |==|  0.50691
USER: genes 11 Torsion [CA]-CB--CG-[CD2] |==|  0.70805
USER: genes 12 Torsion [N]-C--CA-[N] |==|  0.10387
USER: genes 13 Torsion [C]-CA--CB-[CG] |==|  0.59478
USER: genes 14 Torsion [CA]-CB--CG-[CD2] |==|  0.67810
USER: genes 15 Torsion [C]-CA--N-[C] |==|  0.15285
USER: genes 16 Torsion [N]-C--CA-[N] |==|  0.45556
USER: genes 17 Torsion [C]-CA--CB-[CG] |==|  0.33232
USER: genes 18 Torsion [CA]-CB--CG-[CD] |==|  0.97648
USER: genes 19 Torsion [CB]-CG--CD-[OE1] |==|  0.32156
USER: genes 20 Torsion [C]-CA--N-[C] |==|  0.78595
ROOT
ATOM      1  C   LEU E   1       3.243  -5.428 -11.849  1.00 28.67 LIG 0.24  C 
ATOM      2 O    LEU E   1       4.077  -5.205 -10.966  1.00 26.53 LIG-0.27  OA
ATOM      3  N   ASP E   2       3.510  -6.136 -12.943  1.00 29.47 LIG-0.35  N 
ATOM      4 H    ASP E   2       2.917  -6.377 -13.517  1.00 29.47 LIG 0.16  HD
ENDROOT
BRANCH 3 5
ATOM      5  CA  ASP E   2       4.861  -6.565 -13.255  1.00 30.54 LIG 0.19  C 
BRANCH 5 6
ATOM      6  CB  ASP E   2       4.923  -7.293 -14.601  1.00 32.40 LIG 0.15  C 
BRANCH 6 7
ATOM      7  CG  ASP E   2       3.921  -6.756 -15.599  1.00 34.09 LIG 0.17  C 
ATOM      8 OD2  ASP E   2       2.708  -6.941 -15.376  1.00 37.71 LIG-0.65  OA
ATOM      9 OD1  ASP E   2       4.341  -6.140 -16.603  1.00 36.77 LIG-0.65  OA
ENDBRANCH 6 7
ENDBRANCH 5 6
BRANCH 5 10
ATOM     10  C   ASP E   2       5.730  -5.332 -13.293  1.00 30.01 LIG 0.24  C 
ATOM     11 O    ASP E   2       5.760  -4.614 -14.293  1.00 27.94 LIG-0.27  OA
ATOM     12  N   LEU E   3       6.429  -5.091 -12.192  1.00 30.14 LIG-0.35  N 
ATOM     13 H    LEU E   3       6.396  -5.586 -11.489  1.00 30.14 LIG 0.16  HD
BRANCH 12 14
ATOM     14  CA  LEU E   3       7.324  -3.955 -12.073  1.00 30.90 LIG 0.18  C 
BRANCH 14 15
ATOM     15  C   LEU E   3       8.729  -4.438 -11.712  1.00 32.33 LIG 0.24  C 
ATOM     16 O    LEU E   3       9.720  -3.737 -11.947  1.00 31.45 LIG-0.27  OA
ATOM     17  N   ALA E   4       8.796  -5.624 -11.115  1.00 33.58 LIG-0.34  N 
ATOM     18 H    ALA E   4       8.111  -6.119 -10.957  1.00 33.58 LIG 0.16  HD
BRANCH 17 19
ATOM     19  CA  ALA E   4      10.064  -6.196 -10.666  1.00 35.71 LIG 0.18  C 
ATOM     20  CB  ALA E   4      10.638  -5.377  -9.522  1.00 36.03 LIG 0.04  C 
BRANCH 19 21
ATOM     21  C   ALA E   4       9.873  -7.642 -10.231  1.00 37.05 LIG 0.20  C 
ATOM     22 OXT  ALA E   4       8.776  -8.042  -9.849  1.00 36.72 LIG-0.65  OA
ATOM     23 O    ALA E   4      10.810  -8.444 -10.253  1.00 37.61 LIG-0.65  OA
ENDBRANCH 19 21
ENDBRANCH 17 19
ENDBRANCH 14 15
BRANCH 14 24
ATOM     24  CB  LEU E   3       6.788  -2.994 -11.010  1.00 30.03 LIG 0.04  C 
BRANCH 24 25
ATOM     25  CG  LEU E   3       7.524  -1.686 -10.737  1.00 29.85 LIG-0.02  C 
ATOM     26  CD1 LEU E   3       6.581  -0.496 -10.709  1.00 29.46 LIG 0.01  C 
ATOM     27  CD2 LEU E   3       8.274  -1.824  -9.423  1.00 29.65 LIG 0.01  C 
ENDBRANCH 24 25
ENDBRANCH 14 24
ENDBRANCH 12 14
ENDBRANCH 5 10
ENDBRANCH 3 5
BRANCH 1 28
ATOM     28  CA  LEU E   1       1.822  -4.906 -11.728  1.00 29.46 LIG 0.18  C 
BRANCH 28 29
ATOM     29  CB  LEU E   1       1.504  -4.551 -10.275  1.00 29.35 LIG 0.04  C 
BRANCH 29 30
ATOM     30  CG  LEU E   1       0.049  -4.807  -9.853  1.00 30.22 LIG-0.02  C 
ATOM     31  CD2 LEU E   1      -0.654  -3.506  -9.490  1.00 31.32 LIG 0.01  C 
ATOM     32  CD1 LEU E   1      -0.019  -5.797  -8.704  1.00 30.06 LIG 0.01  C 
ENDBRANCH 29 30
ENDBRANCH 28 29
BRANCH 28 33
ATOM     33  N   LEU E   1       0.896  -5.907 -12.249  1.00 28.73 LIG-0.35  N 
ATOM     34  C   GLN E   0       0.901  -7.149 -11.777  1.00 28.95 LIG 0.24  C 
ATOM     35 O    GLN E   0       1.743  -7.557 -10.981  1.00 30.73 LIG-0.27  OA
ATOM     36 H    LEU E   1       0.368  -5.625 -12.867  1.00 28.73 LIG 0.16  HD
BRANCH 34 37
ATOM     37  CA  GLN E   0      -0.194  -8.081 -12.270  1.00 28.12 LIG 0.18  C 
BRANCH 37 38
ATOM     38  CB  GLN E   0      -1.517  -7.710 -11.589  1.00 27.70 LIG 0.04  C 
BRANCH 38 39
ATOM     39  CG  GLN E   0      -2.637  -7.292 -12.539  1.00 26.51 LIG 0.10  C 
BRANCH 39 40
ATOM     40  CD  GLN E   0      -2.155  -7.130 -13.969  1.00 26.51 LIG 0.21  C 
ATOM     41 OE1  GLN E   0      -2.583  -7.870 -14.863  1.00 26.66 LIG-0.27  OA
ATOM     42  NE2 GLN E   0      -1.266  -6.165 -14.199  1.00 24.64 LIG-0.37  N 
ATOM     43 22HE GLN E   0      -0.968  -6.036 -14.996  1.00 24.64 LIG 0.16  HD
ATOM     44 21HE GLN E   0      -0.991  -5.670 -13.552  1.00 24.64 LIG 0.16  HD
ENDBRANCH 39 40
ENDBRANCH 38 39
ENDBRANCH 37 38
BRANCH 37 45
ATOM     45  N   GLN E   0       0.176  -9.508 -11.961  1.00 28.94 LIG-0.35  N 
ATOM     46  C   ACE E  -1       1.084 -10.208 -12.684  1.00 29.25 LIG 0.21  C 
ATOM     47 O    ACE E  -1       2.014  -9.560 -13.173  1.00 28.69 LIG-0.27  OA
ATOM     48  CH3 ACE E  -1       1.484 -11.493 -11.978  1.00 29.73 LIG 0.12  C 
ATOM     49 H    GLN E   0      -0.243  -9.837 -11.286  1.00 28.94 LIG 0.16  HD
ENDBRANCH 37 45
ENDBRANCH 34 37
ENDBRANCH 28 33
ENDBRANCH 1 28
TORSDOF 19
ENDMDL
MODEL 33
USER: ADFR SOLUTION from run 58
USER: SCORE 14.515151 LL:  -3.532 LR: -11.948 RR:   0.000 FEB:  -6.280
USER: RMSD 8.915494
USER: SEED 57
USER: STATUS no improvement in best in 6 clusters for 5 generations
USER: GENES 21
USER: genes 0 Translation |==|  0.37549 0.43521 0.49521
USER: genes 1 Rotation |==|  0.44250 0.63418 0.02407 0.54668
USER: genes 2 Torsion [C]-N--CA-[CB] |==|  0.88656
USER: genes 3 Torsion [N]-CA--CB-[CG] |==|  0.80453
USER: genes 4 Torsion [CA]-CB--CG-[OD2] |==|  0.94610
USER: genes 5 Torsion [N]-CA--C-[N] |==|  0.38111
USER: genes 6 Torsion [C]-N--CA-[C] |==|  0.17929
USER: genes 7 Torsion [N]-CA--C-[N] |==|  0.02246
USER: genes 8 Torsion [C]-N--CA-[CB] |==|  0.32263
USER: genes 9 Torsion [N]-CA--C-[OXT] |==|  0.89404
USER: genes 10 Torsion [N]-CA--CB-[CG] |==|  0.65470
USER: genes 11 Torsion [CA]-CB--CG-[CD2] |==|  0.92091
USER: genes 12 Torsion [N]-C--CA-[N] |==|  0.42699
USER: genes 13 Torsion [C]-CA--CB-[CG] |==|  0.34240
USER: genes 14 Torsion [CA]-CB--CG-[CD2] |==|  0.09663
USER: genes 15 Torsion [C]-CA--N-[C] |==|  0.77536
USER: genes 16 Torsion [N]-C--CA-[N] |==|  0.41417
USER: genes 17 Torsion [C]-CA--CB-[CG] |==|  0.43109
USER: genes 18 Torsion [CA]-CB--CG-[CD] |==|  0.22943
USER: genes 19 Torsion [CB]-CG--CD-[OE1] |==|  0.26249
USER: genes 20 Torsion [C]-CA--N-[C] |==|  0.72414
ROOT
ATOM      1  C   LEU E   1      -0.039  -6.958 -13.303  1.00 28.67 LIG 0.24  C 
ATOM      2 O    LEU E   1       0.293  -8.077 -12.899  1.00 26.53 LIG-0.27  OA
ATOM      3  N   ASP E   2      -1.211  -6.398 -13.016  1.00 29.47 LIG-0.35  N 
ATOM      4 H    ASP E   2      -1.417  -5.586 -13.210  1.00 29.47 LIG 0.16  HD
ENDROOT
BRANCH 3 5
ATOM      5  CA  ASP E   2      -2.256  -7.138 -12.332  1.00 30.54 LIG 0.19  C 
BRANCH 5 6
ATOM      6  CB  ASP E   2      -2.358  -8.575 -12.854  1.00 32.40 LIG 0.15  C 
BRANCH 6 7
ATOM      7  CG  ASP E   2      -2.915  -8.646 -14.258  1.00 34.09 LIG 0.17  C 
ATOM      8 OD2  ASP E   2      -3.555  -7.667 -14.690  1.00 37.71 LIG-0.65  OA
ATOM      9 OD1  ASP E   2      -2.709  -9.676 -14.937  1.00 36.77 LIG-0.65  OA
ENDBRANCH 6 7
ENDBRANCH 5 6
BRANCH 5 10
ATOM     10  C   ASP E   2      -1.919  -7.144 -10.861  1.00 30.01 LIG 0.24  C 
ATOM     11 O    ASP E   2      -0.763  -7.333 -10.481  1.00 27.94 LIG-0.27  OA
ATOM     12  N   LEU E   3      -2.939  -6.927 -10.042  1.00 30.14 LIG-0.35  N 
ATOM     13 H    LEU E   3      -3.743  -6.782 -10.310  1.00 30.14 LIG 0.16  HD
BRANCH 12 14
ATOM     14  CA  LEU E   3      -2.786  -6.917  -8.598  1.00 30.90 LIG 0.18  C 
BRANCH 14 15
ATOM     15  C   LEU E   3      -1.884  -5.754  -8.183  1.00 32.33 LIG 0.24  C 
ATOM     16 O    LEU E   3      -1.472  -5.655  -7.021  1.00 31.45 LIG-0.27  OA
ATOM     17  N   ALA E   4      -1.560  -4.900  -9.149  1.00 33.58 LIG-0.34  N 
ATOM     18 H    ALA E   4      -1.850  -4.960  -9.957  1.00 33.58 LIG 0.16  HD
BRANCH 17 19
ATOM     19  CA  ALA E   4      -0.666  -3.767  -8.917  1.00 35.71 LIG 0.18  C 
ATOM     20  CB  ALA E   4       0.602  -3.917  -9.742  1.00 36.03 LIG 0.04  C 
BRANCH 19 21
ATOM     21  C   ALA E   4      -1.362  -2.458  -9.259  1.00 37.05 LIG 0.20  C 
ATOM     22 OXT  ALA E   4      -2.118  -2.384 -10.225  1.00 36.72 LIG-0.65  OA
ATOM     23 O    ALA E   4      -1.188  -1.446  -8.576  1.00 37.61 LIG-0.65  OA
ENDBRANCH 19 21
ENDBRANCH 17 19
ENDBRANCH 14 15
BRANCH 14 24
ATOM     24  CB  LEU E   3      -2.200  -8.253  -8.139  1.00 30.03 LIG 0.04  C 
BRANCH 24 25
ATOM     25  CG  LEU E   3      -2.941  -9.080  -7.094  1.00 29.85 LIG-0.02  C 
ATOM     26  CD1 LEU E   3      -1.996  -9.938  -6.270  1.00 29.46 LIG 0.01  C 
ATOM     27  CD2 LEU E   3      -3.736  -8.135  -6.209  1.00 29.65 LIG 0.01  C 
ENDBRANCH 24 25
ENDBRANCH 14 24
ENDBRANCH 12 14
ENDBRANCH 5 10
ENDBRANCH 3 5
BRANCH 1 28
ATOM     28  CA  LEU E   1       0.899  -6.129 -14.161  1.00 29.46 LIG 0.18  C 
BRANCH 28 29
ATOM     29  CB  LEU E   1       0.554  -6.288 -15.642  1.00 29.35 LIG 0.04  C 
BRANCH 29 30
ATOM     30  CG  LEU E   1       0.245  -4.976 -16.378  1.00 30.22 LIG-0.02  C 
ATOM     31  CD2 LEU E   1       1.100  -3.834 -15.847  1.00 31.32 LIG 0.01  C 
ATOM     32  CD1 LEU E   1      -1.231  -4.634 -16.288  1.00 30.06 LIG 0.01  C 
ENDBRANCH 29 30
ENDBRANCH 28 29
BRANCH 28 33
ATOM     33  N   LEU E   1       2.278  -6.525 -13.888  1.00 28.73 LIG-0.35  N 
ATOM     34  C   GLN E   0       2.922  -6.057 -12.825  1.00 28.95 LIG 0.24  C 
ATOM     35 O    GLN E   0       2.456  -5.190 -12.090  1.00 30.73 LIG-0.27  OA
ATOM     36 H    LEU E   1       2.617  -7.069 -14.462  1.00 28.73 LIG 0.16  HD
BRANCH 34 37
ATOM     37  CA  GLN E   0       4.298  -6.636 -12.539  1.00 28.12 LIG 0.18  C 
BRANCH 37 38
ATOM     38  CB  GLN E   0       4.148  -7.864 -11.631  1.00 27.70 LIG 0.04  C 
BRANCH 38 39
ATOM     39  CG  GLN E   0       5.286  -8.879 -11.726  1.00 26.51 LIG 0.10  C 
BRANCH 39 40
ATOM     40  CD  GLN E   0       6.479  -8.494 -10.871  1.00 26.51 LIG 0.21  C 
ATOM     41 OE1  GLN E   0       6.600  -8.943  -9.725  1.00 26.66 LIG-0.27  OA
ATOM     42  NE2 GLN E   0       7.369  -7.667 -11.417  1.00 24.64 LIG-0.37  N 
ATOM     43 22HE GLN E   0       8.062  -7.424 -10.969  1.00 24.64 LIG 0.16  HD
ATOM     44 21HE GLN E   0       7.251  -7.375 -12.218  1.00 24.64 LIG 0.16  HD
ENDBRANCH 39 40
ENDBRANCH 38 39
ENDBRANCH 37 38
BRANCH 37 45
ATOM     45  N   GLN E   0       5.162  -5.595 -11.878  1.00 28.94 LIG-0.35  N 
ATOM     46  C   ACE E  -1       6.078  -4.861 -12.555  1.00 29.25 LIG 0.21  C 
ATOM     47 O    ACE E  -1       5.812  -4.597 -13.731  1.00 28.69 LIG-0.27  OA
ATOM     48  CH3 ACE E  -1       6.579  -3.692 -11.721  1.00 29.73 LIG 0.12  C 
ATOM     49 H    GLN E   0       5.020  -5.510 -11.035  1.00 28.94 LIG 0.16  HD
ENDBRANCH 37 45
ENDBRANCH 34 37
ENDBRANCH 28 33
ENDBRANCH 1 28
TORSDOF 19
ENDMDL
MODEL 34
USER: ADFR SOLUTION from run 33
USER: SCORE 14.126663 LL:  -4.056 LR: -11.907 RR:   0.000 FEB:  -6.240
USER: RMSD 5.748751
USER: SEED 32
USER: STATUS no improvement in best in 15 clusters for 5 generations
USER: GENES 21
USER: genes 0 Translation |==|  0.37720 0.44260 0.53262
USER: genes 1 Rotation |==|  0.94092 0.59293 0.34591 0.65236
USER: genes 2 Torsion [C]-N--CA-[CB] |==|  0.44369
USER: genes 3 Torsion [N]-CA--CB-[CG] |==|  0.81258
USER: genes 4 Torsion [CA]-CB--CG-[OD2] |==|  0.97266
USER: genes 5 Torsion [N]-CA--C-[N] |==|  0.91059
USER: genes 6 Torsion [C]-N--CA-[C] |==|  0.77342
USER: genes 7 Torsion [N]-CA--C-[N] |==|  0.49951
USER: genes 8 Torsion [C]-N--CA-[CB] |==|  0.22071
USER: genes 9 Torsion [N]-CA--C-[OXT] |==|  0.34911
USER: genes 10 Torsion [N]-CA--CB-[CG] |==|  0.69281
USER: genes 11 Torsion [CA]-CB--CG-[CD2] |==|  0.86085
USER: genes 12 Torsion [N]-C--CA-[N] |==|  0.46301
USER: genes 13 Torsion [C]-CA--CB-[CG] |==|  0.28906
USER: genes 14 Torsion [CA]-CB--CG-[CD2] |==|  0.61108
USER: genes 15 Torsion [C]-CA--N-[C] |==|  0.52797
USER: genes 16 Torsion [N]-C--CA-[N] |==|  0.91258
USER: genes 17 Torsion [C]-CA--CB-[CG] |==|  0.25692
USER: genes 18 Torsion [CA]-CB--CG-[CD] |==|  0.89866
USER: genes 19 Torsion [CB]-CG--CD-[OE1] |==|  0.75712
USER: genes 20 Torsion [C]-CA--N-[C] |==|  0.80242
ROOT
ATOM      1  C   LEU E   1      -0.001  -6.825 -12.686  1.00 28.67 LIG 0.24  C 
ATOM      2 O    LEU E   1      -0.013  -8.024 -12.982  1.00 26.53 LIG-0.27  OA
ATOM      3  N   ASP E   2       0.525  -5.886 -13.467  1.00 29.47 LIG-0.35  N 
ATOM      4 H    ASP E   2       0.457  -5.042 -13.318  1.00 29.47 LIG 0.16  HD
ENDROOT
BRANCH 3 5
ATOM      5  CA  ASP E   2       1.273  -6.229 -14.662  1.00 30.54 LIG 0.19  C 
BRANCH 5 6
ATOM      6  CB  ASP E   2       1.345  -5.050 -15.638  1.00 32.40 LIG 0.15  C 
BRANCH 6 7
ATOM      7  CG  ASP E   2      -0.002  -4.706 -16.234  1.00 34.09 LIG 0.17  C 
ATOM      8 OD2  ASP E   2      -0.951  -5.490 -16.040  1.00 37.71 LIG-0.65  OA
ATOM      9 OD1  ASP E   2      -0.118  -3.647 -16.890  1.00 36.77 LIG-0.65  OA
ENDBRANCH 6 7
ENDBRANCH 5 6
BRANCH 5 10
ATOM     10  C   ASP E   2       2.663  -6.626 -14.229  1.00 30.01 LIG 0.24  C 
ATOM     11 O    ASP E   2       3.302  -7.470 -14.859  1.00 27.94 LIG-0.27  OA
ATOM     12  N   LEU E   3       3.125  -6.003 -13.153  1.00 30.14 LIG-0.35  N 
ATOM     13 H    LEU E   3       2.683  -5.404 -12.723  1.00 30.14 LIG 0.16  HD
BRANCH 12 14
ATOM     14  CA  LEU E   3       4.437  -6.282 -12.598  1.00 30.90 LIG 0.18  C 
BRANCH 14 15
ATOM     15  C   LEU E   3       4.373  -7.535 -11.724  1.00 32.33 LIG 0.24  C 
ATOM     16 O    LEU E   3       3.317  -8.165 -11.595  1.00 31.45 LIG-0.27  OA
ATOM     17  N   ALA E   4       5.518  -7.903 -11.156  1.00 33.58 LIG-0.34  N 
ATOM     18 H    ALA E   4       6.253  -7.465 -11.236  1.00 33.58 LIG 0.16  HD
BRANCH 17 19
ATOM     19  CA  ALA E   4       5.625  -9.107 -10.334  1.00 35.71 LIG 0.18  C 
ATOM     20  CB  ALA E   4       5.735 -10.340 -11.216  1.00 36.03 LIG 0.04  C 
BRANCH 19 21
ATOM     21  C   ALA E   4       6.829  -9.016  -9.408  1.00 37.05 LIG 0.20  C 
ATOM     22 OXT  ALA E   4       6.699  -9.167  -8.195  1.00 36.72 LIG-0.65  OA
ATOM     23 O    ALA E   4       7.958  -8.792  -9.850  1.00 37.61 LIG-0.65  OA
ENDBRANCH 19 21
ENDBRANCH 17 19
ENDBRANCH 14 15
BRANCH 14 24
ATOM     24  CB  LEU E   3       4.914  -5.076 -11.788  1.00 30.03 LIG 0.04  C 
BRANCH 24 25
ATOM     25  CG  LEU E   3       6.075  -4.232 -12.305  1.00 29.85 LIG-0.02  C 
ATOM     26  CD1 LEU E   3       6.513  -3.185 -11.297  1.00 29.46 LIG 0.01  C 
ATOM     27  CD2 LEU E   3       7.221  -5.163 -12.664  1.00 29.65 LIG 0.01  C 
ENDBRANCH 24 25
ENDBRANCH 14 24
ENDBRANCH 12 14
ENDBRANCH 5 10
ENDBRANCH 3 5
BRANCH 1 28
ATOM     28  CA  LEU E   1      -0.615  -6.338 -11.386  1.00 29.46 LIG 0.18  C 
BRANCH 28 29
ATOM     29  CB  LEU E   1       0.474  -5.864 -10.423  1.00 29.35 LIG 0.04  C 
BRANCH 29 30
ATOM     30  CG  LEU E   1       0.605  -4.339 -10.298  1.00 30.22 LIG-0.02  C 
ATOM     31  CD2 LEU E   1       2.066  -3.917 -10.224  1.00 31.32 LIG 0.01  C 
ATOM     32  CD1 LEU E   1      -0.168  -3.821  -9.099  1.00 30.06 LIG 0.01  C 
ENDBRANCH 29 30
ENDBRANCH 28 29
BRANCH 28 33
ATOM     33  N   LEU E   1      -1.416  -7.409 -10.800  1.00 28.73 LIG-0.35  N 
ATOM     34  C   GLN E   0      -2.215  -7.173  -9.766  1.00 28.95 LIG 0.24  C 
ATOM     35 O    GLN E   0      -2.240  -6.097  -9.173  1.00 30.73 LIG-0.27  OA
ATOM     36 H    LEU E   1      -1.323  -8.177 -11.177  1.00 28.73 LIG 0.16  HD
BRANCH 34 37
ATOM     37  CA  GLN E   0      -3.121  -8.308  -9.317  1.00 28.12 LIG 0.18  C 
BRANCH 37 38
ATOM     38  CB  GLN E   0      -2.386  -9.153  -8.268  1.00 27.70 LIG 0.04  C 
BRANCH 38 39
ATOM     39  CG  GLN E   0      -2.635  -8.742  -6.819  1.00 26.51 LIG 0.10  C 
BRANCH 39 40
ATOM     40  CD  GLN E   0      -2.760  -7.239  -6.655  1.00 26.51 LIG 0.21  C 
ATOM     41 OE1  GLN E   0      -1.755  -6.542  -6.474  1.00 26.66 LIG-0.27  OA
ATOM     42  NE2 GLN E   0      -3.988  -6.727  -6.720  1.00 24.64 LIG-0.37  N 
ATOM     43 22HE GLN E   0      -4.105  -5.879  -6.634  1.00 24.64 LIG 0.16  HD
ATOM     44 21HE GLN E   0      -4.664  -7.244  -6.846  1.00 24.64 LIG 0.16  HD
ENDBRANCH 39 40
ENDBRANCH 38 39
ENDBRANCH 37 38
BRANCH 37 45
ATOM     45  N   GLN E   0      -3.503  -9.155 -10.503  1.00 28.94 LIG-0.35  N 
ATOM     46  C   ACE E  -1      -4.353  -8.729 -11.469  1.00 29.25 LIG 0.21  C 
ATOM     47 O    ACE E  -1      -4.341  -7.521 -11.718  1.00 28.69 LIG-0.27  OA
ATOM     48  CH3 ACE E  -1      -4.319  -9.646 -12.681  1.00 29.73 LIG 0.12  C 
ATOM     49 H    GLN E   0      -3.132  -9.931 -10.509  1.00 28.94 LIG 0.16  HD
ENDBRANCH 37 45
ENDBRANCH 34 37
ENDBRANCH 28 33
ENDBRANCH 1 28
TORSDOF 19
ENDMDL
MODEL 35
USER: ADFR SOLUTION from run 129
USER: SCORE 14.938760 LL:  -4.086 LR: -11.891 RR:   0.000 FEB:  -6.223
USER: RMSD 9.354235
USER: SEED 128
USER: STATUS searching
USER: GENES 21
USER: genes 0 Translation |==|  0.38072 0.44874 0.50774
USER: genes 1 Rotation |==|  0.44019 0.58875 0.01757 0.57619
USER: genes 2 Torsion [C]-N--CA-[CB] |==|  0.80407
USER: genes 3 Torsion [N]-CA--CB-[CG] |==|  0.83438
USER: genes 4 Torsion [CA]-CB--CG-[OD2] |==|  0.19839
USER: genes 5 Torsion [N]-CA--C-[N] |==|  0.16350
USER: genes 6 Torsion [C]-N--CA-[C] |==|  0.76836
USER: genes 7 Torsion [N]-CA--C-[N] |==|  0.25622
USER: genes 8 Torsion [C]-N--CA-[CB] |==|  0.18787
USER: genes 9 Torsion [N]-CA--C-[OXT] |==|  0.49191
USER: genes 10 Torsion [N]-CA--CB-[CG] |==|  0.01931
USER: genes 11 Torsion [CA]-CB--CG-[CD2] |==|  0.53125
USER: genes 12 Torsion [N]-C--CA-[N] |==|  0.44865
USER: genes 13 Torsion [C]-CA--CB-[CG] |==|  0.36262
USER: genes 14 Torsion [CA]-CB--CG-[CD2] |==|  0.07322
USER: genes 15 Torsion [C]-CA--N-[C] |==|  0.81197
USER: genes 16 Torsion [N]-C--CA-[N] |==|  0.38752
USER: genes 17 Torsion [C]-CA--CB-[CG] |==|  0.40386
USER: genes 18 Torsion [CA]-CB--CG-[CD] |==|  0.05803
USER: genes 19 Torsion [CB]-CG--CD-[OE1] |==|  0.72676
USER: genes 20 Torsion [C]-CA--N-[C] |==|  0.70433
ROOT
ATOM      1  C   LEU E   1       0.078  -6.715 -13.096  1.00 28.67 LIG 0.24  C 
ATOM      2 O    LEU E   1       0.530  -7.697 -12.499  1.00 26.53 LIG-0.27  OA
ATOM      3  N   ASP E   2      -1.169  -6.279 -12.945  1.00 29.47 LIG-0.35  N 
ATOM      4 H    ASP E   2      -1.468  -5.546 -13.280  1.00 29.47 LIG 0.16  HD
ENDROOT
BRANCH 3 5
ATOM      5  CA  ASP E   2      -2.145  -7.034 -12.179  1.00 30.54 LIG 0.19  C 
BRANCH 5 6
ATOM      6  CB  ASP E   2      -2.561  -8.316 -12.908  1.00 32.40 LIG 0.15  C 
BRANCH 6 7
ATOM      7  CG  ASP E   2      -3.174  -8.042 -14.263  1.00 34.09 LIG 0.17  C 
ATOM      8 OD2  ASP E   2      -2.429  -7.648 -15.180  1.00 37.71 LIG-0.65  OA
ATOM      9 OD1  ASP E   2      -4.401  -8.228 -14.417  1.00 36.77 LIG-0.65  OA
ENDBRANCH 6 7
ENDBRANCH 5 6
BRANCH 5 10
ATOM     10  C   ASP E   2      -1.515  -7.374 -10.851  1.00 30.01 LIG 0.24  C 
ATOM     11 O    ASP E   2      -1.382  -8.547 -10.501  1.00 27.94 LIG-0.27  OA
ATOM     12  N   LEU E   3      -1.122  -6.338 -10.123  1.00 30.14 LIG-0.35  N 
ATOM     13 H    LEU E   3      -1.203  -5.520 -10.377  1.00 30.14 LIG 0.16  HD
BRANCH 12 14
ATOM     14  CA  LEU E   3      -0.511  -6.495  -8.816  1.00 30.90 LIG 0.18  C 
BRANCH 14 15
ATOM     15  C   LEU E   3      -1.598  -6.654  -7.753  1.00 32.33 LIG 0.24  C 
ATOM     16 O    LEU E   3      -2.120  -5.664  -7.226  1.00 31.45 LIG-0.27  OA
ATOM     17  N   ALA E   4      -1.953  -7.904  -7.472  1.00 33.58 LIG-0.34  N 
ATOM     18 H    ALA E   4      -1.588  -8.596  -7.829  1.00 33.58 LIG 0.16  HD
BRANCH 17 19
ATOM     19  CA  ALA E   4      -3.013  -8.214  -6.514  1.00 35.71 LIG 0.18  C 
ATOM     20  CB  ALA E   4      -4.360  -7.763  -7.054  1.00 36.03 LIG 0.04  C 
BRANCH 19 21
ATOM     21  C   ALA E   4      -3.042  -9.705  -6.213  1.00 37.05 LIG 0.20  C 
ATOM     22 OXT  ALA E   4      -3.829 -10.163  -5.388  1.00 36.72 LIG-0.65  OA
ATOM     23 O    ALA E   4      -2.282 -10.487  -6.788  1.00 37.61 LIG-0.65  OA
ENDBRANCH 19 21
ENDBRANCH 17 19
ENDBRANCH 14 15
BRANCH 14 24
ATOM     24  CB  LEU E   3       0.370  -5.281  -8.518  1.00 30.03 LIG 0.04  C 
BRANCH 24 25
ATOM     25  CG  LEU E   3       0.359  -4.089  -9.471  1.00 29.85 LIG-0.02  C 
ATOM     26  CD1 LEU E   3      -0.968  -3.351  -9.446  1.00 29.46 LIG 0.01  C 
ATOM     27  CD2 LEU E   3       1.507  -3.167  -9.099  1.00 29.65 LIG 0.01  C 
ENDBRANCH 24 25
ENDBRANCH 14 24
ENDBRANCH 12 14
ENDBRANCH 5 10
ENDBRANCH 3 5
BRANCH 1 28
ATOM     28  CA  LEU E   1       0.947  -5.917 -14.052  1.00 29.46 LIG 0.18  C 
BRANCH 28 29
ATOM     29  CB  LEU E   1       0.569  -6.222 -15.502  1.00 29.35 LIG 0.04  C 
BRANCH 29 30
ATOM     30  CG  LEU E   1       0.341  -4.986 -16.384  1.00 30.22 LIG-0.02  C 
ATOM     31  CD2 LEU E   1       1.128  -3.789 -15.867  1.00 31.32 LIG 0.01  C 
ATOM     32  CD1 LEU E   1      -1.137  -4.656 -16.489  1.00 30.06 LIG 0.01  C 
ENDBRANCH 29 30
ENDBRANCH 28 29
BRANCH 28 33
ATOM     33  N   LEU E   1       2.352  -6.217 -13.791  1.00 28.73 LIG-0.35  N 
ATOM     34  C   GLN E   0       2.928  -5.838 -12.656  1.00 28.95 LIG 0.24  C 
ATOM     35 O    GLN E   0       2.368  -5.123 -11.829  1.00 30.73 LIG-0.27  OA
ATOM     36 H    LEU E   1       2.752  -6.646 -14.420  1.00 28.73 LIG 0.16  HD
BRANCH 34 37
ATOM     37  CA  GLN E   0       4.348  -6.321 -12.406  1.00 28.12 LIG 0.18  C 
BRANCH 37 38
ATOM     38  CB  GLN E   0       4.309  -7.535 -11.470  1.00 27.70 LIG 0.04  C 
BRANCH 38 39
ATOM     39  CG  GLN E   0       5.376  -8.594 -11.741  1.00 26.51 LIG 0.10  C 
BRANCH 39 40
ATOM     40  CD  GLN E   0       6.555  -8.043 -12.520  1.00 26.51 LIG 0.21  C 
ATOM     41 OE1  GLN E   0       6.631  -8.206 -13.744  1.00 26.66 LIG-0.27  OA
ATOM     42  NE2 GLN E   0       7.482  -7.385 -11.825  1.00 24.64 LIG-0.37  N 
ATOM     43 22HE GLN E   0       8.167  -7.054 -12.226  1.00 24.64 LIG 0.16  HD
ATOM     44 21HE GLN E   0       7.395  -7.292 -10.974  1.00 24.64 LIG 0.16  HD
ENDBRANCH 39 40
ENDBRANCH 38 39
ENDBRANCH 37 38
BRANCH 37 45
ATOM     45  N   GLN E   0       5.164  -5.211 -11.797  1.00 28.94 LIG-0.35  N 
ATOM     46  C   ACE E  -1       6.109  -4.527 -12.487  1.00 29.25 LIG 0.21  C 
ATOM     47 O    ACE E  -1       5.906  -4.375 -13.695  1.00 28.69 LIG-0.27  OA
ATOM     48  CH3 ACE E  -1       6.551  -3.281 -11.737  1.00 29.73 LIG 0.12  C 
ATOM     49 H    GLN E   0       4.974  -5.053 -10.974  1.00 28.94 LIG 0.16  HD
ENDBRANCH 37 45
ENDBRANCH 34 37
ENDBRANCH 28 33
ENDBRANCH 1 28
TORSDOF 19
ENDMDL
MODEL 36
USER: ADFR SOLUTION from run 96
USER: SCORE 13.536120 LL:  -3.541 LR: -11.885 RR:   0.000 FEB:  -6.217
USER: RMSD 3.653302
USER: SEED 95
USER: STATUS no improvement in best in 11 clusters for 5 generations
USER: GENES 21
USER: genes 0 Translation |==|  0.52521 0.46428 0.53938
USER: genes 1 Rotation |==|  0.41078 0.47747 0.43327 0.98691
USER: genes 2 Torsion [C]-N--CA-[CB] |==|  0.43979
USER: genes 3 Torsion [N]-CA--CB-[CG] |==|  0.57770
USER: genes 4 Torsion [CA]-CB--CG-[OD2] |==|  0.21584
USER: genes 5 Torsion [N]-CA--C-[N] |==|  0.45905
USER: genes 6 Torsion [C]-N--CA-[C] |==|  0.57222
USER: genes 7 Torsion [N]-CA--C-[N] |==|  0.09626
USER: genes 8 Torsion [C]-N--CA-[CB] |==|  0.25185
USER: genes 9 Torsion [N]-CA--C-[OXT] |==|  0.06732
USER: genes 10 Torsion [N]-CA--CB-[CG] |==|  0.09506
USER: genes 11 Torsion [CA]-CB--CG-[CD2] |==|  0.54982
USER: genes 12 Torsion [N]-C--CA-[N] |==|  0.37037
USER: genes 13 Torsion [C]-CA--CB-[CG] |==|  0.59175
USER: genes 14 Torsion [CA]-CB--CG-[CD2] |==|  0.82449
USER: genes 15 Torsion [C]-CA--N-[C] |==|  0.73931
USER: genes 16 Torsion [N]-C--CA-[N] |==|  0.40133
USER: genes 17 Torsion [C]-CA--CB-[CG] |==|  0.44281
USER: genes 18 Torsion [CA]-CB--CG-[CD] |==|  0.76857
USER: genes 19 Torsion [CB]-CG--CD-[OE1] |==|  0.39844
USER: genes 20 Torsion [C]-CA--N-[C] |==|  0.78333
ROOT
ATOM      1  C   LEU E   1       3.329  -6.435 -12.574  1.00 28.67 LIG 0.24  C 
ATOM      2 O    LEU E   1       3.518  -5.403 -11.921  1.00 26.53 LIG-0.27  OA
ATOM      3  N   ASP E   2       4.127  -7.497 -12.507  1.00 29.47 LIG-0.35  N 
ATOM      4 H    ASP E   2       3.957  -8.252 -12.882  1.00 29.47 LIG 0.16  HD
ENDROOT
BRANCH 3 5
ATOM      5  CA  ASP E   2       5.379  -7.456 -11.773  1.00 30.54 LIG 0.19  C 
BRANCH 5 6
ATOM      6  CB  ASP E   2       5.847  -8.862 -11.384  1.00 32.40 LIG 0.15  C 
BRANCH 6 7
ATOM      7  CG  ASP E   2       6.689  -8.868 -10.127  1.00 34.09 LIG 0.17  C 
ATOM      8 OD2  ASP E   2       6.109  -8.769  -9.028  1.00 37.71 LIG-0.65  OA
ATOM      9 OD1  ASP E   2       7.930  -8.980 -10.233  1.00 36.77 LIG-0.65  OA
ENDBRANCH 6 7
ENDBRANCH 5 6
BRANCH 5 10
ATOM     10  C   ASP E   2       6.404  -6.798 -12.663  1.00 30.01 LIG 0.24  C 
ATOM     11 O    ASP E   2       6.189  -6.646 -13.866  1.00 27.94 LIG-0.27  OA
ATOM     12  N   LEU E   3       7.516  -6.402 -12.058  1.00 30.14 LIG-0.35  N 
ATOM     13 H    LEU E   3       7.658  -6.496 -11.215  1.00 30.14 LIG 0.16  HD
BRANCH 12 14
ATOM     14  CA  LEU E   3       8.606  -5.765 -12.775  1.00 30.90 LIG 0.18  C 
BRANCH 14 15
ATOM     15  C   LEU E   3       9.921  -6.005 -12.034  1.00 32.33 LIG 0.24  C 
ATOM     16 O    LEU E   3      10.796  -5.131 -11.995  1.00 31.45 LIG-0.27  OA
ATOM     17  N   ALA E   4      10.035  -7.181 -11.424  1.00 33.58 LIG-0.34  N 
ATOM     18 H    ALA E   4       9.434  -7.795 -11.454  1.00 33.58 LIG 0.16  HD
BRANCH 17 19
ATOM     19  CA  ALA E   4      11.214  -7.536 -10.635  1.00 35.71 LIG 0.18  C 
ATOM     20  CB  ALA E   4      11.017  -7.134  -9.182  1.00 36.03 LIG 0.04  C 
BRANCH 19 21
ATOM     21  C   ALA E   4      11.492  -9.029 -10.733  1.00 37.05 LIG 0.20  C 
ATOM     22 OXT  ALA E   4      11.096  -9.678 -11.698  1.00 36.72 LIG-0.65  OA
ATOM     23 O    ALA E   4      12.122  -9.619  -9.853  1.00 37.61 LIG-0.65  OA
ENDBRANCH 19 21
ENDBRANCH 17 19
ENDBRANCH 14 15
BRANCH 14 24
ATOM     24  CB  LEU E   3       8.320  -4.269 -12.909  1.00 30.03 LIG 0.04  C 
BRANCH 24 25
ATOM     25  CG  LEU E   3       7.586  -3.538 -11.789  1.00 29.85 LIG-0.02  C 
ATOM     26  CD1 LEU E   3       8.477  -3.299 -10.583  1.00 29.46 LIG 0.01  C 
ATOM     27  CD2 LEU E   3       7.047  -2.230 -12.342  1.00 29.65 LIG 0.01  C 
ENDBRANCH 24 25
ENDBRANCH 14 24
ENDBRANCH 12 14
ENDBRANCH 5 10
ENDBRANCH 3 5
BRANCH 1 28
ATOM     28  CA  LEU E   1       2.136  -6.560 -13.505  1.00 29.46 LIG 0.18  C 
BRANCH 28 29
ATOM     29  CB  LEU E   1       2.383  -5.784 -14.799  1.00 29.35 LIG 0.04  C 
BRANCH 29 30
ATOM     30  CG  LEU E   1       1.126  -5.162 -15.427  1.00 30.22 LIG-0.02  C 
ATOM     31  CD2 LEU E   1       0.132  -6.236 -15.847  1.00 31.32 LIG 0.01  C 
ATOM     32  CD1 LEU E   1       1.487  -4.271 -16.602  1.00 30.06 LIG 0.01  C 
ENDBRANCH 29 30
ENDBRANCH 28 29
BRANCH 28 33
ATOM     33  N   LEU E   1       0.938  -6.088 -12.818  1.00 28.73 LIG-0.35  N 
ATOM     34  C   GLN E   0       0.146  -6.937 -12.172  1.00 28.95 LIG 0.24  C 
ATOM     35 O    GLN E   0       0.298  -8.155 -12.213  1.00 30.73 LIG-0.27  OA
ATOM     36 H    LEU E   1       0.801  -5.240 -12.872  1.00 28.73 LIG 0.16  HD
BRANCH 34 37
ATOM     37  CA  GLN E   0      -0.995  -6.340 -11.364  1.00 28.12 LIG 0.18  C 
BRANCH 37 38
ATOM     38  CB  GLN E   0      -0.542  -6.164  -9.909  1.00 27.70 LIG 0.04  C 
BRANCH 38 39
ATOM     39  CG  GLN E   0      -1.354  -5.156  -9.098  1.00 26.51 LIG 0.10  C 
BRANCH 39 40
ATOM     40  CD  GLN E   0      -0.887  -3.728  -9.313  1.00 26.51 LIG 0.21  C 
ATOM     41 OE1  GLN E   0      -1.703  -2.799  -9.343  1.00 26.66 LIG-0.27  OA
ATOM     42  NE2 GLN E   0       0.423  -3.539  -9.461  1.00 24.64 LIG-0.37  N 
ATOM     43 22HE GLN E   0       0.732  -2.745  -9.583  1.00 24.64 LIG 0.16  HD
ATOM     44 21HE GLN E   0       0.960  -4.210  -9.435  1.00 24.64 LIG 0.16  HD
ENDBRANCH 39 40
ENDBRANCH 38 39
ENDBRANCH 37 38
BRANCH 37 45
ATOM     45  N   GLN E   0      -2.198  -7.243 -11.436  1.00 28.94 LIG-0.35  N 
ATOM     46  C   ACE E  -1      -3.020  -7.290 -12.512  1.00 29.25 LIG 0.21  C 
ATOM     47 O    ACE E  -1      -2.500  -7.085 -13.612  1.00 28.69 LIG-0.27  OA
ATOM     48  CH3 ACE E  -1      -3.954  -8.488 -12.445  1.00 29.73 LIG 0.12  C 
ATOM     49 H    GLN E   0      -2.313  -7.725 -10.733  1.00 28.94 LIG 0.16  HD
ENDBRANCH 37 45
ENDBRANCH 34 37
ENDBRANCH 28 33
ENDBRANCH 1 28
TORSDOF 19
ENDMDL
MODEL 37
USER: ADFR SOLUTION from run 1
USER: SCORE 14.433881 LL:  -4.067 LR: -11.854 RR:   0.000 FEB:  -6.186
USER: RMSD 5.356796
USER: SEED 61420
USER: STATUS no improvement in best in 13 clusters for 5 generations
USER: GENES 21
USER: genes 0 Translation |==|  0.52324 0.49817 0.54908
USER: genes 1 Rotation |==|  0.58903 0.60251 0.44718 0.97830
USER: genes 2 Torsion [C]-N--CA-[CB] |==|  0.49724
USER: genes 3 Torsion [N]-CA--CB-[CG] |==|  0.90860
USER: genes 4 Torsion [CA]-CB--CG-[OD2] |==|  0.39720
USER: genes 5 Torsion [N]-CA--C-[N] |==|  0.33382
USER: genes 6 Torsion [C]-N--CA-[C] |==|  0.62235
USER: genes 7 Torsion [N]-CA--C-[N] |==|  0.91931
USER: genes 8 Torsion [C]-N--CA-[CB] |==|  0.19864
USER: genes 9 Torsion [N]-CA--C-[OXT] |==|  0.50073
USER: genes 10 Torsion [N]-CA--CB-[CG] |==|  0.49669
USER: genes 11 Torsion [CA]-CB--CG-[CD2] |==|  0.69213
USER: genes 12 Torsion [N]-C--CA-[N] |==|  0.02608
USER: genes 13 Torsion [C]-CA--CB-[CG] |==|  0.30150
USER: genes 14 Torsion [CA]-CB--CG-[CD2] |==|  0.79646
USER: genes 15 Torsion [C]-CA--N-[C] |==|  0.71375
USER: genes 16 Torsion [N]-C--CA-[N] |==|  0.42674
USER: genes 17 Torsion [C]-CA--CB-[CG] |==|  0.85367
USER: genes 18 Torsion [CA]-CB--CG-[CD] |==|  0.72904
USER: genes 19 Torsion [CB]-CG--CD-[OE1] |==|  0.78922
USER: genes 20 Torsion [C]-CA--N-[C] |==|  0.81361
ROOT
ATOM      1  C   LEU E   1       3.285  -5.825 -12.414  1.00 28.67 LIG 0.24  C 
ATOM      2 O    LEU E   1       3.855  -5.504 -11.367  1.00 26.53 LIG-0.27  OA
ATOM      3  N   ASP E   2       3.876  -6.518 -13.384  1.00 29.47 LIG-0.35  N 
ATOM      4 H    ASP E   2       3.466  -6.827 -14.073  1.00 29.47 LIG 0.16  HD
ENDROOT
BRANCH 3 5
ATOM      5  CA  ASP E   2       5.297  -6.809 -13.346  1.00 30.54 LIG 0.19  C 
BRANCH 5 6
ATOM      6  CB  ASP E   2       5.733  -7.638 -14.559  1.00 32.40 LIG 0.15  C 
BRANCH 6 7
ATOM      7  CG  ASP E   2       4.654  -8.587 -15.032  1.00 34.09 LIG 0.17  C 
ATOM      8 OD2  ASP E   2       4.528  -8.775 -16.258  1.00 37.71 LIG-0.65  OA
ATOM      9 OD1  ASP E   2       3.936  -9.155 -14.180  1.00 36.77 LIG-0.65  OA
ENDBRANCH 6 7
ENDBRANCH 5 6
BRANCH 5 10
ATOM     10  C   ASP E   2       6.030  -5.490 -13.331  1.00 30.01 LIG 0.24  C 
ATOM     11 O    ASP E   2       5.888  -4.681 -14.249  1.00 27.94 LIG-0.27  OA
ATOM     12  N   LEU E   3       6.806  -5.280 -12.277  1.00 30.14 LIG-0.35  N 
ATOM     13 H    LEU E   3       6.893  -5.840 -11.630  1.00 30.14 LIG 0.16  HD
BRANCH 12 14
ATOM     14  CA  LEU E   3       7.590  -4.068 -12.119  1.00 30.90 LIG 0.18  C 
BRANCH 14 15
ATOM     15  C   LEU E   3       8.997  -4.422 -11.638  1.00 32.33 LIG 0.24  C 
ATOM     16 O    LEU E   3       9.959  -3.691 -11.901  1.00 31.45 LIG-0.27  OA
ATOM     17  N   ALA E   4       9.098  -5.528 -10.907  1.00 33.58 LIG-0.34  N 
ATOM     18 H    ALA E   4       8.433  -6.044 -10.728  1.00 33.58 LIG 0.16  HD
BRANCH 17 19
ATOM     19  CA  ALA E   4      10.369  -5.968 -10.335  1.00 35.71 LIG 0.18  C 
ATOM     20  CB  ALA E   4      10.779  -5.053  -9.193  1.00 36.03 LIG 0.04  C 
BRANCH 19 21
ATOM     21  C   ALA E   4      10.265  -7.405  -9.844  1.00 37.05 LIG 0.20  C 
ATOM     22 OXT  ALA E   4      11.229  -7.961  -9.324  1.00 36.72 LIG-0.65  OA
ATOM     23 O    ALA E   4       9.215  -8.042  -9.953  1.00 37.61 LIG-0.65  OA
ENDBRANCH 19 21
ENDBRANCH 17 19
ENDBRANCH 14 15
BRANCH 14 24
ATOM     24  CB  LEU E   3       6.891  -3.137 -11.126  1.00 30.03 LIG 0.04  C 
BRANCH 24 25
ATOM     25  CG  LEU E   3       7.534  -1.801 -10.767  1.00 29.85 LIG-0.02  C 
ATOM     26  CD1 LEU E   3       6.585  -0.635 -10.983  1.00 29.46 LIG 0.01  C 
ATOM     27  CD2 LEU E   3       8.002  -1.867  -9.323  1.00 29.65 LIG 0.01  C 
ENDBRANCH 24 25
ENDBRANCH 14 24
ENDBRANCH 12 14
ENDBRANCH 5 10
ENDBRANCH 3 5
BRANCH 1 28
ATOM     28  CA  LEU E   1       1.833  -5.451 -12.657  1.00 29.46 LIG 0.18  C 
BRANCH 28 29
ATOM     29  CB  LEU E   1       0.983  -5.779 -11.428  1.00 29.35 LIG 0.04  C 
BRANCH 29 30
ATOM     30  CG  LEU E   1       0.495  -4.556 -10.637  1.00 30.22 LIG-0.02  C 
ATOM     31  CD2 LEU E   1       1.634  -3.918  -9.853  1.00 31.32 LIG 0.01  C 
ATOM     32  CD1 LEU E   1      -0.654  -4.925  -9.717  1.00 30.06 LIG 0.01  C 
ENDBRANCH 29 30
ENDBRANCH 28 29
BRANCH 28 33
ATOM     33  N   LEU E   1       1.348  -6.150 -13.844  1.00 28.73 LIG-0.35  N 
ATOM     34  C   GLN E   0       1.217  -5.512 -15.001  1.00 28.95 LIG 0.24  C 
ATOM     35 O    GLN E   0       1.373  -4.299 -15.117  1.00 30.73 LIG-0.27  OA
ATOM     36 H    LEU E   1       1.163  -6.981 -13.723  1.00 28.73 LIG 0.16  HD
BRANCH 34 37
ATOM     37  CA  GLN E   0       0.848  -6.349 -16.215  1.00 28.12 LIG 0.18  C 
BRANCH 37 38
ATOM     38  CB  GLN E   0       2.125  -6.943 -16.824  1.00 27.70 LIG 0.04  C 
BRANCH 38 39
ATOM     39  CG  GLN E   0       3.226  -5.930 -17.130  1.00 26.51 LIG 0.10  C 
BRANCH 39 40
ATOM     40  CD  GLN E   0       3.229  -5.498 -18.585  1.00 26.51 LIG 0.21  C 
ATOM     41 OE1  GLN E   0       3.674  -6.247 -19.461  1.00 26.66 LIG-0.27  OA
ATOM     42  NE2 GLN E   0       2.731  -4.292 -18.855  1.00 24.64 LIG-0.37  N 
ATOM     43 22HE GLN E   0       2.710  -4.007 -19.667  1.00 24.64 LIG 0.16  HD
ATOM     44 21HE GLN E   0       2.430  -3.798 -18.218  1.00 24.64 LIG 0.16  HD
ENDBRANCH 39 40
ENDBRANCH 38 39
ENDBRANCH 37 38
BRANCH 37 45
ATOM     45  N   GLN E   0       0.131  -5.494 -17.225  1.00 28.94 LIG-0.35  N 
ATOM     46  C   ACE E  -1      -1.099  -4.968 -17.005  1.00 29.25 LIG 0.21  C 
ATOM     47 O    ACE E  -1      -1.370  -4.672 -15.838  1.00 28.69 LIG-0.27  OA
ATOM     48  CH3 ACE E  -1      -1.445  -3.913 -18.044  1.00 29.73 LIG 0.12  C 
ATOM     49 H    GLN E   0       0.573  -5.371 -17.953  1.00 28.94 LIG 0.16  HD
ENDBRANCH 37 45
ENDBRANCH 34 37
ENDBRANCH 28 33
ENDBRANCH 1 28
TORSDOF 19
ENDMDL
MODEL 38
USER: ADFR SOLUTION from run 196
USER: SCORE 14.193608 LL:  -3.366 LR: -11.833 RR:   0.000 FEB:  -6.165
USER: RMSD 4.321449
USER: SEED 195
USER: STATUS no improvement in best in 5 clusters for 5 generations
USER: GENES 21
USER: genes 0 Translation |==|  0.48995 0.45399 0.54577
USER: genes 1 Rotation |==|  0.98656 0.46916 0.47160 0.60723
USER: genes 2 Torsion [C]-N--CA-[CB] |==|  0.14887
USER: genes 3 Torsion [N]-CA--CB-[CG] |==|  0.67517
USER: genes 4 Torsion [CA]-CB--CG-[OD2] |==|  0.52211
USER: genes 5 Torsion [N]-CA--C-[N] |==|  0.15000
USER: genes 6 Torsion [C]-N--CA-[C] |==|  0.76392
USER: genes 7 Torsion [N]-CA--C-[N] |==|  0.94008
USER: genes 8 Torsion [C]-N--CA-[CB] |==|  0.15833
USER: genes 9 Torsion [N]-CA--C-[OXT] |==|  0.40190
USER: genes 10 Torsion [N]-CA--CB-[CG] |==|  0.53098
USER: genes 11 Torsion [CA]-CB--CG-[CD2] |==|  0.67888
USER: genes 12 Torsion [N]-C--CA-[N] |==|  0.62557
USER: genes 13 Torsion [C]-CA--CB-[CG] |==|  0.54756
USER: genes 14 Torsion [CA]-CB--CG-[CD2] |==|  0.87048
USER: genes 15 Torsion [C]-CA--N-[C] |==|  0.68934
USER: genes 16 Torsion [N]-C--CA-[N] |==|  0.90508
USER: genes 17 Torsion [C]-CA--CB-[CG] |==|  0.14848
USER: genes 18 Torsion [CA]-CB--CG-[CD] |==|  0.54337
USER: genes 19 Torsion [CB]-CG--CD-[OE1] |==|  0.15693
USER: genes 20 Torsion [C]-CA--N-[C] |==|  0.79468
ROOT
ATOM      1  C   LEU E   1       2.536  -6.620 -12.469  1.00 28.67 LIG 0.24  C 
ATOM      2 O    LEU E   1       2.348  -7.708 -13.023  1.00 26.53 LIG-0.27  OA
ATOM      3  N   ASP E   2       3.676  -5.942 -12.561  1.00 29.47 LIG-0.35  N 
ATOM      4 H    ASP E   2       3.788  -5.145 -12.260  1.00 29.47 LIG 0.16  HD
ENDROOT
BRANCH 3 5
ATOM      5  CA  ASP E   2       4.848  -6.517 -13.197  1.00 30.54 LIG 0.19  C 
BRANCH 5 6
ATOM      6  CB  ASP E   2       4.531  -7.021 -14.608  1.00 32.40 LIG 0.15  C 
BRANCH 6 7
ATOM      7  CG  ASP E   2       4.715  -8.515 -14.748  1.00 34.09 LIG 0.17  C 
ATOM      8 OD2  ASP E   2       4.634  -9.017 -15.886  1.00 37.71 LIG-0.65  OA
ATOM      9 OD1  ASP E   2       4.951  -9.191 -13.722  1.00 36.77 LIG-0.65  OA
ENDBRANCH 6 7
ENDBRANCH 5 6
BRANCH 5 10
ATOM     10  C   ASP E   2       5.905  -5.441 -13.256  1.00 30.01 LIG 0.24  C 
ATOM     11 O    ASP E   2       6.435  -5.139 -14.326  1.00 27.94 LIG-0.27  OA
ATOM     12  N   LEU E   3       6.197  -4.863 -12.099  1.00 30.14 LIG-0.35  N 
ATOM     13 H    LEU E   3       5.815  -5.066 -11.355  1.00 30.14 LIG 0.16  HD
BRANCH 12 14
ATOM     14  CA  LEU E   3       7.201  -3.822 -11.983  1.00 30.90 LIG 0.18  C 
BRANCH 14 15
ATOM     15  C   LEU E   3       8.584  -4.453 -11.821  1.00 32.33 LIG 0.24  C 
ATOM     16 O    LEU E   3       9.609  -3.807 -12.069  1.00 31.45 LIG-0.27  OA
ATOM     17  N   ALA E   4       8.599  -5.706 -11.375  1.00 33.58 LIG-0.34  N 
ATOM     18 H    ALA E   4       7.889  -6.162 -11.209  1.00 33.58 LIG 0.16  HD
BRANCH 17 19
ATOM     19  CA  ALA E   4       9.846  -6.425 -11.123  1.00 35.71 LIG 0.18  C 
ATOM     20  CB  ALA E   4      10.706  -5.660 -10.129  1.00 36.03 LIG 0.04  C 
BRANCH 19 21
ATOM     21  C   ALA E   4       9.559  -7.825 -10.598  1.00 37.05 LIG 0.20  C 
ATOM     22 OXT  ALA E   4      10.281  -8.770 -10.908  1.00 36.72 LIG-0.65  OA
ATOM     23 O    ALA E   4       8.602  -8.042  -9.852  1.00 37.61 LIG-0.65  OA
ENDBRANCH 19 21
ENDBRANCH 17 19
ENDBRANCH 14 15
BRANCH 14 24
ATOM     24  CB  LEU E   3       6.868  -2.924 -10.790  1.00 30.03 LIG 0.04  C 
BRANCH 24 25
ATOM     25  CG  LEU E   3       7.619  -1.610 -10.603  1.00 29.85 LIG-0.02  C 
ATOM     26  CD1 LEU E   3       6.683  -0.415 -10.588  1.00 29.46 LIG 0.01  C 
ATOM     27  CD2 LEU E   3       8.422  -1.695  -9.316  1.00 29.65 LIG 0.01  C 
ENDBRANCH 24 25
ENDBRANCH 14 24
ENDBRANCH 12 14
ENDBRANCH 5 10
ENDBRANCH 3 5
BRANCH 1 28
ATOM     28  CA  LEU E   1       1.443  -5.969 -11.640  1.00 29.46 LIG 0.18  C 
BRANCH 28 29
ATOM     29  CB  LEU E   1       2.005  -4.789 -10.845  1.00 29.35 LIG 0.04  C 
BRANCH 29 30
ATOM     30  CG  LEU E   1       1.122  -4.317  -9.680  1.00 30.22 LIG-0.02  C 
ATOM     31  CD2 LEU E   1      -0.331  -4.182 -10.111  1.00 31.32 LIG 0.01  C 
ATOM     32  CD1 LEU E   1       1.637  -3.013  -9.099  1.00 30.06 LIG 0.01  C 
ENDBRANCH 29 30
ENDBRANCH 28 29
BRANCH 28 33
ATOM     33  N   LEU E   1       0.845  -6.969 -10.760  1.00 28.73 LIG-0.35  N 
ATOM     34  C   GLN E   0      -0.406  -7.376 -10.945  1.00 28.95 LIG 0.24  C 
ATOM     35 O    GLN E   0      -1.160  -6.863 -11.767  1.00 30.73 LIG-0.27  OA
ATOM     36 H    LEU E   1       1.363  -7.256 -10.136  1.00 28.73 LIG 0.16  HD
BRANCH 34 37
ATOM     37  CA  GLN E   0      -0.895  -8.524 -10.077  1.00 28.12 LIG 0.18  C 
BRANCH 37 38
ATOM     38  CB  GLN E   0      -1.447  -7.960  -8.761  1.00 27.70 LIG 0.04  C 
BRANCH 38 39
ATOM     39  CG  GLN E   0      -2.510  -6.875  -8.918  1.00 26.51 LIG 0.10  C 
BRANCH 39 40
ATOM     40  CD  GLN E   0      -2.742  -6.099  -7.635  1.00 26.51 LIG 0.21  C 
ATOM     41 OE1  GLN E   0      -1.803  -5.525  -7.072  1.00 26.66 LIG-0.27  OA
ATOM     42  NE2 GLN E   0      -3.988  -6.071  -7.165  1.00 24.64 LIG-0.37  N 
ATOM     43 22HE GLN E   0      -4.165  -5.641  -6.442  1.00 24.64 LIG 0.16  HD
ATOM     44 21HE GLN E   0      -4.615  -6.484  -7.585  1.00 24.64 LIG 0.16  HD
ENDBRANCH 39 40
ENDBRANCH 38 39
ENDBRANCH 37 38
BRANCH 37 45
ATOM     45  N   GLN E   0       0.238  -9.479  -9.808  1.00 28.94 LIG-0.35  N 
ATOM     46  C   ACE E  -1       0.721 -10.331 -10.744  1.00 29.25 LIG 0.21  C 
ATOM     47 O    ACE E  -1       0.681  -9.942 -11.915  1.00 28.69 LIG-0.27  OA
ATOM     48  CH3 ACE E  -1       2.041 -10.946 -10.306  1.00 29.73 LIG 0.12  C 
ATOM     49 H    GLN E   0       0.547  -9.433  -9.007  1.00 28.94 LIG 0.16  HD
ENDBRANCH 37 45
ENDBRANCH 34 37
ENDBRANCH 28 33
ENDBRANCH 1 28
TORSDOF 19
ENDMDL
MODEL 39
USER: ADFR SOLUTION from run 139
USER: SCORE 13.309043 LL:  -3.580 LR: -11.820 RR:   0.000 FEB:  -6.152
USER: RMSD 9.895241
USER: SEED 138
USER: STATUS no improvement in best in 27 clusters for 5 generations
USER: GENES 21
USER: genes 0 Translation |==|  0.48682 0.53769 0.62761
USER: genes 1 Rotation |==|  0.51495 0.20688 0.11409 0.62218
USER: genes 2 Torsion [C]-N--CA-[CB] |==|  0.13889
USER: genes 3 Torsion [N]-CA--CB-[CG] |==|  0.59303
USER: genes 4 Torsion [CA]-CB--CG-[OD2] |==|  0.54803
USER: genes 5 Torsion [N]-CA--C-[N] |==|  0.93835
USER: genes 6 Torsion [C]-N--CA-[C] |==|  0.88713
USER: genes 7 Torsion [N]-CA--C-[N] |==|  0.32668
USER: genes 8 Torsion [C]-N--CA-[CB] |==|  0.22877
USER: genes 9 Torsion [N]-CA--C-[OXT] |==|  0.45870
USER: genes 10 Torsion [N]-CA--CB-[CG] |==|  0.81243
USER: genes 11 Torsion [CA]-CB--CG-[CD2] |==|  0.21092
USER: genes 12 Torsion [N]-C--CA-[N] |==|  0.45606
USER: genes 13 Torsion [C]-CA--CB-[CG] |==|  0.28363
USER: genes 14 Torsion [CA]-CB--CG-[CD2] |==|  0.07611
USER: genes 15 Torsion [C]-CA--N-[C] |==|  0.54658
USER: genes 16 Torsion [N]-C--CA-[N] |==|  0.32301
USER: genes 17 Torsion [C]-CA--CB-[CG] |==|  0.34372
USER: genes 18 Torsion [CA]-CB--CG-[CD] |==|  0.10302
USER: genes 19 Torsion [CB]-CG--CD-[OE1] |==|  0.21842
USER: genes 20 Torsion [C]-CA--N-[C] |==|  0.60056
ROOT
ATOM      1  C   LEU E   1       2.466  -5.114 -11.118  1.00 28.67 LIG 0.24  C 
ATOM      2 O    LEU E   1       2.387  -4.403 -10.111  1.00 26.53 LIG-0.27  OA
ATOM      3  N   ASP E   2       1.414  -5.706 -11.677  1.00 29.47 LIG-0.35  N 
ATOM      4 H    ASP E   2       1.439  -6.124 -12.428  1.00 29.47 LIG 0.16  HD
ENDROOT
BRANCH 3 5
ATOM      5  CA  ASP E   2       0.110  -5.688 -11.040  1.00 30.54 LIG 0.19  C 
BRANCH 5 6
ATOM      6  CB  ASP E   2      -0.291  -4.269 -10.622  1.00 32.40 LIG 0.15  C 
BRANCH 6 7
ATOM      7  CG  ASP E   2      -1.115  -4.248  -9.353  1.00 34.09 LIG 0.17  C 
ATOM      8 OD2  ASP E   2      -1.769  -3.220  -9.091  1.00 37.71 LIG-0.65  OA
ATOM      9 OD1  ASP E   2      -1.117  -5.261  -8.620  1.00 36.77 LIG-0.65  OA
ENDBRANCH 6 7
ENDBRANCH 5 6
BRANCH 5 10
ATOM     10  C   ASP E   2      -0.887  -6.236 -12.032  1.00 30.01 LIG 0.24  C 
ATOM     11 O    ASP E   2      -1.962  -6.701 -11.652  1.00 27.94 LIG-0.27  OA
ATOM     12  N   LEU E   3      -0.522  -6.167 -13.305  1.00 30.14 LIG-0.35  N 
ATOM     13 H    LEU E   3       0.224  -5.828 -13.569  1.00 30.14 LIG 0.16  HD
BRANCH 12 14
ATOM     14  CA  LEU E   3      -1.360  -6.664 -14.381  1.00 30.90 LIG 0.18  C 
BRANCH 14 15
ATOM     15  C   LEU E   3      -2.005  -7.986 -13.964  1.00 32.33 LIG 0.24  C 
ATOM     16 O    LEU E   3      -1.311  -8.970 -13.683  1.00 31.45 LIG-0.27  OA
ATOM     17  N   ALA E   4      -3.333  -7.985 -13.898  1.00 33.58 LIG-0.34  N 
ATOM     18 H    ALA E   4      -3.821  -7.306 -14.101  1.00 33.58 LIG 0.16  HD
BRANCH 17 19
ATOM     19  CA  ALA E   4      -4.090  -9.159 -13.468  1.00 35.71 LIG 0.18  C 
ATOM     20  CB  ALA E   4      -4.135  -9.231 -11.950  1.00 36.03 LIG 0.04  C 
BRANCH 19 21
ATOM     21  C   ALA E   4      -5.503  -9.121 -14.032  1.00 37.05 LIG 0.20  C 
ATOM     22 OXT  ALA E   4      -6.209 -10.126 -14.021  1.00 36.72 LIG-0.65  OA
ATOM     23 O    ALA E   4      -5.971  -8.085 -14.510  1.00 37.61 LIG-0.65  OA
ENDBRANCH 19 21
ENDBRANCH 17 19
ENDBRANCH 14 15
BRANCH 14 24
ATOM     24  CB  LEU E   3      -0.514  -6.843 -15.643  1.00 30.03 LIG 0.04  C 
BRANCH 24 25
ATOM     25  CG  LEU E   3       0.057  -5.617 -16.347  1.00 29.85 LIG-0.02  C 
ATOM     26  CD1 LEU E   3      -0.985  -4.529 -16.534  1.00 29.46 LIG 0.01  C 
ATOM     27  CD2 LEU E   3       1.242  -5.110 -15.542  1.00 29.65 LIG 0.01  C 
ENDBRANCH 24 25
ENDBRANCH 14 24
ENDBRANCH 12 14
ENDBRANCH 5 10
ENDBRANCH 3 5
BRANCH 1 28
ATOM     28  CA  LEU E   1       3.799  -5.347 -11.805  1.00 29.46 LIG 0.18  C 
BRANCH 28 29
ATOM     29  CB  LEU E   1       4.287  -6.775 -11.558  1.00 29.35 LIG 0.04  C 
BRANCH 29 30
ATOM     30  CG  LEU E   1       4.081  -7.740 -12.735  1.00 30.22 LIG-0.02  C 
ATOM     31  CD2 LEU E   1       4.075  -6.995 -14.062  1.00 31.32 LIG 0.01  C 
ATOM     32  CD1 LEU E   1       2.807  -8.548 -12.563  1.00 30.06 LIG 0.01  C 
ENDBRANCH 29 30
ENDBRANCH 28 29
BRANCH 28 33
ATOM     33  N   LEU E   1       4.766  -4.363 -11.327  1.00 28.73 LIG-0.35  N 
ATOM     34  C   GLN E   0       5.891  -4.135 -11.996  1.00 28.95 LIG 0.24  C 
ATOM     35 O    GLN E   0       6.240  -4.806 -12.964  1.00 30.73 LIG-0.27  OA
ATOM     36 H    LEU E   1       4.543  -3.962 -10.600  1.00 28.73 LIG 0.16  HD
BRANCH 34 37
ATOM     37  CA  GLN E   0       6.766  -2.992 -11.508  1.00 28.12 LIG 0.18  C 
BRANCH 37 38
ATOM     38  CB  GLN E   0       6.972  -1.992 -12.653  1.00 27.70 LIG 0.04  C 
BRANCH 38 39
ATOM     39  CG  GLN E   0       6.553  -0.557 -12.340  1.00 26.51 LIG 0.10  C 
BRANCH 39 40
ATOM     40  CD  GLN E   0       6.864  -0.161 -10.908  1.00 26.51 LIG 0.21  C 
ATOM     41 OE1  GLN E   0       8.014   0.152 -10.580  1.00 26.66 LIG-0.27  OA
ATOM     42  NE2 GLN E   0       5.847  -0.167 -10.048  1.00 24.64 LIG-0.37  N 
ATOM     43 22HE GLN E   0       5.977   0.053  -9.227  1.00 24.64 LIG 0.16  HD
ATOM     44 21HE GLN E   0       5.060  -0.391 -10.314  1.00 24.64 LIG 0.16  HD
ENDBRANCH 39 40
ENDBRANCH 38 39
ENDBRANCH 37 38
BRANCH 37 45
ATOM     45  N   GLN E   0       8.090  -3.530 -11.034  1.00 28.94 LIG-0.35  N 
ATOM     46  C   ACE E  -1       8.759  -3.014  -9.974  1.00 29.25 LIG 0.21  C 
ATOM     47 O    ACE E  -1       8.069  -2.549  -9.062  1.00 28.69 LIG-0.27  OA
ATOM     48  CH3 ACE E  -1       9.891  -3.928  -9.533  1.00 29.73 LIG 0.12  C 
ATOM     49 H    GLN E   0       8.381  -4.194 -11.497  1.00 28.94 LIG 0.16  HD
ENDBRANCH 37 45
ENDBRANCH 34 37
ENDBRANCH 28 33
ENDBRANCH 1 28
TORSDOF 19
ENDMDL
MODEL 40
USER: ADFR SOLUTION from run 160
USER: SCORE 13.065215 LL:  -3.219 LR: -11.796 RR:   0.000 FEB:  -6.128
USER: RMSD 9.581199
USER: SEED 159
USER: STATUS no improvement in best in 6 clusters for 5 generations
USER: GENES 21
USER: genes 0 Translation |==|  0.67377 0.57887 0.51618
USER: genes 1 Rotation |==|  0.67843 0.28955 0.16237 0.74470
USER: genes 2 Torsion [C]-N--CA-[CB] |==|  0.85158
USER: genes 3 Torsion [N]-CA--CB-[CG] |==|  0.56483
USER: genes 4 Torsion [CA]-CB--CG-[OD2] |==|  0.37253
USER: genes 5 Torsion [N]-CA--C-[N] |==|  0.27391
USER: genes 6 Torsion [C]-N--CA-[C] |==|  0.76095
USER: genes 7 Torsion [N]-CA--C-[N] |==|  0.44888
USER: genes 8 Torsion [C]-N--CA-[CB] |==|  0.33739
USER: genes 9 Torsion [N]-CA--C-[OXT] |==|  0.61755
USER: genes 10 Torsion [N]-CA--CB-[CG] |==|  0.49716
USER: genes 11 Torsion [CA]-CB--CG-[CD2] |==|  0.69696
USER: genes 12 Torsion [N]-C--CA-[N] |==|  0.18187
USER: genes 13 Torsion [C]-CA--CB-[CG] |==|  0.80905
USER: genes 14 Torsion [CA]-CB--CG-[CD2] |==|  0.78266
USER: genes 15 Torsion [C]-CA--N-[C] |==|  0.66564
USER: genes 16 Torsion [N]-C--CA-[N] |==|  0.28892
USER: genes 17 Torsion [C]-CA--CB-[CG] |==|  0.36260
USER: genes 18 Torsion [CA]-CB--CG-[CD] |==|  0.23512
USER: genes 19 Torsion [CB]-CG--CD-[OE1] |==|  0.10183
USER: genes 20 Torsion [C]-CA--N-[C] |==|  0.57581
ROOT
ATOM      1  C   LEU E   1       6.672  -4.372 -12.957  1.00 28.67 LIG 0.24  C 
ATOM      2 O    LEU E   1       6.073  -4.304 -11.879  1.00 26.53 LIG-0.27  OA
ATOM      3  N   ASP E   2       6.437  -5.317 -13.863  1.00 29.47 LIG-0.35  N 
ATOM      4 H    ASP E   2       6.777  -5.322 -14.653  1.00 29.47 LIG 0.16  HD
ENDROOT
BRANCH 3 5
ATOM      5  CA  ASP E   2       5.562  -6.440 -13.575  1.00 30.54 LIG 0.19  C 
BRANCH 5 6
ATOM      6  CB  ASP E   2       5.984  -7.165 -12.293  1.00 32.40 LIG 0.15  C 
BRANCH 6 7
ATOM      7  CG  ASP E   2       5.504  -8.599 -12.252  1.00 34.09 LIG 0.17  C 
ATOM      8 OD2  ASP E   2       6.312  -9.482 -11.903  1.00 37.71 LIG-0.65  OA
ATOM      9 OD1  ASP E   2       4.317  -8.846 -12.560  1.00 36.77 LIG-0.65  OA
ENDBRANCH 6 7
ENDBRANCH 5 6
BRANCH 5 10
ATOM     10  C   ASP E   2       4.162  -5.897 -13.426  1.00 30.01 LIG 0.24  C 
ATOM     11 O    ASP E   2       3.797  -5.381 -12.369  1.00 27.94 LIG-0.27  OA
ATOM     12  N   LEU E   3       3.388  -6.012 -14.497  1.00 30.14 LIG-0.35  N 
ATOM     13 H    LEU E   3       3.650  -6.360 -15.239  1.00 30.14 LIG 0.16  HD
BRANCH 12 14
ATOM     14  CA  LEU E   3       2.011  -5.553 -14.512  1.00 30.90 LIG 0.18  C 
BRANCH 14 15
ATOM     15  C   LEU E   3       1.095  -6.651 -13.972  1.00 32.33 LIG 0.24  C 
ATOM     16 O    LEU E   3       1.487  -7.822 -13.892  1.00 31.45 LIG-0.27  OA
ATOM     17  N   ALA E   4      -0.110  -6.255 -13.574  1.00 33.58 LIG-0.34  N 
ATOM     18 H    ALA E   4      -0.391  -5.444 -13.635  1.00 33.58 LIG 0.16  HD
BRANCH 17 19
ATOM     19  CA  ALA E   4      -1.078  -7.181 -12.989  1.00 35.71 LIG 0.18  C 
ATOM     20  CB  ALA E   4      -1.472  -6.721 -11.595  1.00 36.03 LIG 0.04  C 
BRANCH 19 21
ATOM     21  C   ALA E   4      -2.313  -7.292 -13.873  1.00 37.05 LIG 0.20  C 
ATOM     22 OXT  ALA E   4      -3.438  -7.306 -13.378  1.00 36.72 LIG-0.65  OA
ATOM     23 O    ALA E   4      -2.214  -7.367 -15.099  1.00 37.61 LIG-0.65  OA
ENDBRANCH 19 21
ENDBRANCH 17 19
ENDBRANCH 14 15
BRANCH 14 24
ATOM     24  CB  LEU E   3       1.619  -5.169 -15.940  1.00 30.03 LIG 0.04  C 
BRANCH 24 25
ATOM     25  CG  LEU E   3       0.204  -4.675 -16.225  1.00 29.85 LIG-0.02  C 
ATOM     26  CD1 LEU E   3       0.201  -3.354 -16.974  1.00 29.46 LIG 0.01  C 
ATOM     27  CD2 LEU E   3      -0.531  -5.751 -17.006  1.00 29.65 LIG 0.01  C 
ENDBRANCH 24 25
ENDBRANCH 14 24
ENDBRANCH 12 14
ENDBRANCH 5 10
ENDBRANCH 3 5
BRANCH 1 28
ATOM     28  CA  LEU E   1       7.729  -3.347 -13.328  1.00 29.46 LIG 0.18  C 
BRANCH 28 29
ATOM     29  CB  LEU E   1       8.050  -2.452 -12.130  1.00 29.35 LIG 0.04  C 
BRANCH 29 30
ATOM     30  CG  LEU E   1       6.919  -1.501 -11.713  1.00 30.22 LIG-0.02  C 
ATOM     31  CD2 LEU E   1       6.847  -0.293 -12.636  1.00 31.32 LIG 0.01  C 
ATOM     32  CD1 LEU E   1       7.076  -1.067 -10.267  1.00 30.06 LIG 0.01  C 
ENDBRANCH 29 30
ENDBRANCH 28 29
BRANCH 28 33
ATOM     33  N   LEU E   1       7.262  -2.565 -14.469  1.00 28.73 LIG-0.35  N 
ATOM     34  C   GLN E   0       7.948  -2.545 -15.606  1.00 28.95 LIG 0.24  C 
ATOM     35 O    GLN E   0       9.052  -3.069 -15.728  1.00 30.73 LIG-0.27  OA
ATOM     36 H    LEU E   1       6.528  -2.136 -14.336  1.00 28.73 LIG 0.16  HD
BRANCH 34 37
ATOM     37  CA  GLN E   0       7.314  -1.827 -16.785  1.00 28.12 LIG 0.18  C 
BRANCH 37 38
ATOM     38  CB  GLN E   0       7.458  -2.695 -18.041  1.00 27.70 LIG 0.04  C 
BRANCH 38 39
ATOM     39  CG  GLN E   0       6.172  -2.895 -18.839  1.00 26.51 LIG 0.10  C 
BRANCH 39 40
ATOM     40  CD  GLN E   0       5.908  -1.759 -19.810  1.00 26.51 LIG 0.21  C 
ATOM     41 OE1  GLN E   0       6.843  -1.212 -20.404  1.00 26.66 LIG-0.27  OA
ATOM     42  NE2 GLN E   0       4.637  -1.398 -19.982  1.00 24.64 LIG-0.37  N 
ATOM     43 22HE GLN E   0       4.441  -0.760 -20.525  1.00 24.64 LIG 0.16  HD
ATOM     44 21HE GLN E   0       4.013  -1.802 -19.550  1.00 24.64 LIG 0.16  HD
ENDBRANCH 39 40
ENDBRANCH 38 39
ENDBRANCH 37 38
BRANCH 37 45
ATOM     45  N   GLN E   0       7.980  -0.491 -16.987  1.00 28.94 LIG-0.35  N 
ATOM     46  C   ACE E  -1       7.351   0.569 -17.549  1.00 29.25 LIG 0.21  C 
ATOM     47 O    ACE E  -1       6.137   0.658 -17.348  1.00 28.69 LIG-0.27  OA
ATOM     48  CH3 ACE E  -1       8.142   1.852 -17.350  1.00 29.73 LIG 0.12  C 
ATOM     49 H    GLN E   0       8.795  -0.466 -16.713  1.00 28.94 LIG 0.16  HD
ENDBRANCH 37 45
ENDBRANCH 34 37
ENDBRANCH 28 33
ENDBRANCH 1 28
TORSDOF 19
ENDMDL
MODEL 41
USER: ADFR SOLUTION from run 136
USER: SCORE 14.194447 LL:  -3.382 LR: -11.787 RR:   0.000 FEB:  -6.120
USER: RMSD 9.730065
USER: SEED 135
USER: STATUS no improvement in best in 11 clusters for 5 generations
USER: GENES 21
USER: genes 0 Translation |==|  0.66126 0.55597 0.50261
USER: genes 1 Rotation |==|  0.71868 0.05806 0.57344 0.53846
USER: genes 2 Torsion [C]-N--CA-[CB] |==|  0.51274
USER: genes 3 Torsion [N]-CA--CB-[CG] |==|  0.84853
USER: genes 4 Torsion [CA]-CB--CG-[OD2] |==|  0.88519
USER: genes 5 Torsion [N]-CA--C-[N] |==|  0.29727
USER: genes 6 Torsion [C]-N--CA-[C] |==|  0.80849
USER: genes 7 Torsion [N]-CA--C-[N] |==|  0.44444
USER: genes 8 Torsion [C]-N--CA-[CB] |==|  0.33489
USER: genes 9 Torsion [N]-CA--C-[OXT] |==|  0.58821
USER: genes 10 Torsion [N]-CA--CB-[CG] |==|  0.51380
USER: genes 11 Torsion [CA]-CB--CG-[CD2] |==|  0.62061
USER: genes 12 Torsion [N]-C--CA-[N] |==|  0.42794
USER: genes 13 Torsion [C]-CA--CB-[CG] |==|  0.41420
USER: genes 14 Torsion [CA]-CB--CG-[CD2] |==|  0.35756
USER: genes 15 Torsion [C]-CA--N-[C] |==|  0.81271
USER: genes 16 Torsion [N]-C--CA-[N] |==|  0.46651
USER: genes 17 Torsion [C]-CA--CB-[CG] |==|  0.47333
USER: genes 18 Torsion [CA]-CB--CG-[CD] |==|  0.73703
USER: genes 19 Torsion [CB]-CG--CD-[OE1] |==|  0.72521
USER: genes 20 Torsion [C]-CA--N-[C] |==|  0.61208
ROOT
ATOM      1  C   LEU E   1       6.390  -4.785 -13.181  1.00 28.67 LIG 0.24  C 
ATOM      2 O    LEU E   1       5.766  -4.678 -14.241  1.00 26.53 LIG-0.27  OA
ATOM      3  N   ASP E   2       6.371  -5.882 -12.430  1.00 29.47 LIG-0.35  N 
ATOM      4 H    ASP E   2       6.872  -6.004 -11.742  1.00 29.47 LIG 0.16  HD
ENDROOT
BRANCH 3 5
ATOM      5  CA  ASP E   2       5.475  -6.985 -12.727  1.00 30.54 LIG 0.19  C 
BRANCH 5 6
ATOM      6  CB  ASP E   2       5.559  -8.079 -11.658  1.00 32.40 LIG 0.15  C 
BRANCH 6 7
ATOM      7  CG  ASP E   2       6.972  -8.573 -11.441  1.00 34.09 LIG 0.17  C 
ATOM      8 OD2  ASP E   2       7.698  -8.746 -12.439  1.00 37.71 LIG-0.65  OA
ATOM      9 OD1  ASP E   2       7.365  -8.781 -10.272  1.00 36.77 LIG-0.65  OA
ENDBRANCH 6 7
ENDBRANCH 5 6
BRANCH 5 10
ATOM     10  C   ASP E   2       4.074  -6.428 -12.787  1.00 30.01 LIG 0.24  C 
ATOM     11 O    ASP E   2       3.490  -6.081 -11.760  1.00 27.94 LIG-0.27  OA
ATOM     12  N   LEU E   3       3.547  -6.339 -14.001  1.00 30.14 LIG-0.35  N 
ATOM     13 H    LEU E   3       3.962  -6.569 -14.719  1.00 30.14 LIG 0.16  HD
BRANCH 12 14
ATOM     14  CA  LEU E   3       2.204  -5.839 -14.230  1.00 30.90 LIG 0.18  C 
BRANCH 14 15
ATOM     15  C   LEU E   3       1.182  -6.835 -13.683  1.00 32.33 LIG 0.24  C 
ATOM     16 O    LEU E   3       1.499  -8.009 -13.457  1.00 31.45 LIG-0.27  OA
ATOM     17  N   ALA E   4      -0.032  -6.347 -13.446  1.00 33.58 LIG-0.34  N 
ATOM     18 H    ALA E   4      -0.260  -5.534 -13.610  1.00 33.58 LIG 0.16  HD
BRANCH 17 19
ATOM     19  CA  ALA E   4      -1.101  -7.166 -12.878  1.00 35.71 LIG 0.18  C 
ATOM     20  CB  ALA E   4      -1.584  -6.566 -11.566  1.00 36.03 LIG 0.04  C 
BRANCH 19 21
ATOM     21  C   ALA E   4      -2.260  -7.287 -13.857  1.00 37.05 LIG 0.20  C 
ATOM     22 OXT  ALA E   4      -3.415  -7.392 -13.450  1.00 36.72 LIG-0.65  OA
ATOM     23 O    ALA E   4      -2.069  -7.280 -15.074  1.00 37.61 LIG-0.65  OA
ENDBRANCH 19 21
ENDBRANCH 17 19
ENDBRANCH 14 15
BRANCH 14 24
ATOM     24  CB  LEU E   3       1.996  -5.608 -15.727  1.00 30.03 LIG 0.04  C 
BRANCH 24 25
ATOM     25  CG  LEU E   3       0.698  -4.973 -16.218  1.00 29.85 LIG-0.02  C 
ATOM     26  CD1 LEU E   3       0.865  -3.496 -16.525  1.00 29.46 LIG 0.01  C 
ATOM     27  CD2 LEU E   3       0.223  -5.738 -17.442  1.00 29.65 LIG 0.01  C 
ENDBRANCH 24 25
ENDBRANCH 14 24
ENDBRANCH 12 14
ENDBRANCH 5 10
ENDBRANCH 3 5
BRANCH 1 28
ATOM     28  CA  LEU E   1       7.252  -3.645 -12.667  1.00 29.46 LIG 0.18  C 
BRANCH 28 29
ATOM     29  CB  LEU E   1       6.490  -2.826 -11.624  1.00 29.35 LIG 0.04  C 
BRANCH 29 30
ATOM     30  CG  LEU E   1       7.369  -2.186 -10.539  1.00 30.22 LIG-0.02  C 
ATOM     31  CD2 LEU E   1       7.076  -0.699 -10.400  1.00 31.32 LIG 0.01  C 
ATOM     32  CD1 LEU E   1       8.841  -2.423 -10.818  1.00 30.06 LIG 0.01  C 
ENDBRANCH 29 30
ENDBRANCH 28 29
BRANCH 28 33
ATOM     33  N   LEU E   1       7.676  -2.816 -13.791  1.00 28.73 LIG-0.35  N 
ATOM     34  C   GLN E   0       8.514  -3.290 -14.706  1.00 28.95 LIG 0.24  C 
ATOM     35 O    GLN E   0       9.068  -4.381 -14.603  1.00 30.73 LIG-0.27  OA
ATOM     36 H    LEU E   1       7.342  -2.023 -13.801  1.00 28.73 LIG 0.16  HD
BRANCH 34 37
ATOM     37  CA  GLN E   0       8.784  -2.412 -15.918  1.00 28.12 LIG 0.18  C 
BRANCH 37 38
ATOM     38  CB  GLN E   0       7.531  -2.375 -16.802  1.00 27.70 LIG 0.04  C 
BRANCH 38 39
ATOM     39  CG  GLN E   0       7.571  -1.353 -17.936  1.00 26.51 LIG 0.10  C 
BRANCH 39 40
ATOM     40  CD  GLN E   0       6.915  -0.038 -17.556  1.00 26.51 LIG 0.21  C 
ATOM     41 OE1  GLN E   0       5.755   0.207 -17.905  1.00 26.66 LIG-0.27  OA
ATOM     42  NE2 GLN E   0       7.646   0.814 -16.839  1.00 24.64 LIG-0.37  N 
ATOM     43 22HE GLN E   0       7.313   1.570 -16.599  1.00 24.64 LIG 0.16  HD
ATOM     44 21HE GLN E   0       8.450   0.608 -16.615  1.00 24.64 LIG 0.16  HD
ENDBRANCH 39 40
ENDBRANCH 38 39
ENDBRANCH 37 38
BRANCH 37 45
ATOM     45  N   GLN E   0       9.958  -2.955 -16.689  1.00 28.94 LIG-0.35  N 
ATOM     46  C   ACE E  -1      10.910  -2.162 -17.239  1.00 29.25 LIG 0.21  C 
ATOM     47 O    ACE E  -1      11.165  -1.114 -16.640  1.00 28.69 LIG-0.27  OA
ATOM     48  CH3 ACE E  -1      12.118  -2.971 -17.683  1.00 29.73 LIG 0.12  C 
ATOM     49 H    GLN E   0       9.968  -3.813 -16.748  1.00 28.94 LIG 0.16  HD
ENDBRANCH 37 45
ENDBRANCH 34 37
ENDBRANCH 28 33
ENDBRANCH 1 28
TORSDOF 19
ENDMDL
MODEL 42
USER: ADFR SOLUTION from run 71
USER: SCORE 14.105706 LL:  -3.861 LR: -11.785 RR:   0.000 FEB:  -6.118
USER: RMSD 5.097316
USER: SEED 70
USER: STATUS no improvement in best in 9 clusters for 5 generations
USER: GENES 21
USER: genes 0 Translation |==|  0.52566 0.50024 0.54567
USER: genes 1 Rotation |==|  0.57826 0.59673 0.44115 0.98068
USER: genes 2 Torsion [C]-N--CA-[CB] |==|  0.50023
USER: genes 3 Torsion [N]-CA--CB-[CG] |==|  0.42404
USER: genes 4 Torsion [CA]-CB--CG-[OD2] |==|  0.16374
USER: genes 5 Torsion [N]-CA--C-[N] |==|  0.32649
USER: genes 6 Torsion [C]-N--CA-[C] |==|  0.63425
USER: genes 7 Torsion [N]-CA--C-[N] |==|  0.93337
USER: genes 8 Torsion [C]-N--CA-[CB] |==|  0.18209
USER: genes 9 Torsion [N]-CA--C-[OXT] |==|  0.48230
USER: genes 10 Torsion [N]-CA--CB-[CG] |==|  0.50746
USER: genes 11 Torsion [CA]-CB--CG-[CD2] |==|  0.70923
USER: genes 12 Torsion [N]-C--CA-[N] |==|  0.99653
USER: genes 13 Torsion [C]-CA--CB-[CG] |==|  0.30826
USER: genes 14 Torsion [CA]-CB--CG-[CD2] |==|  0.79877
USER: genes 15 Torsion [C]-CA--N-[C] |==|  0.69126
USER: genes 16 Torsion [N]-C--CA-[N] |==|  0.88667
USER: genes 17 Torsion [C]-CA--CB-[CG] |==|  0.80213
USER: genes 18 Torsion [CA]-CB--CG-[CD] |==|  0.31708
USER: genes 19 Torsion [CB]-CG--CD-[OE1] |==|  0.33404
USER: genes 20 Torsion [C]-CA--N-[C] |==|  0.79074
ROOT
ATOM      1  C   LEU E   1       3.339  -5.788 -12.470  1.00 28.67 LIG 0.24  C 
ATOM      2 O    LEU E   1       3.900  -5.424 -11.432  1.00 26.53 LIG-0.27  OA
ATOM      3  N   ASP E   2       3.932  -6.538 -13.394  1.00 29.47 LIG-0.35  N 
ATOM      4 H    ASP E   2       3.527  -6.876 -14.074  1.00 29.47 LIG 0.16  HD
ENDROOT
BRANCH 3 5
ATOM      5  CA  ASP E   2       5.348  -6.851 -13.320  1.00 30.54 LIG 0.19  C 
BRANCH 5 6
ATOM      6  CB  ASP E   2       5.792  -7.726 -14.497  1.00 32.40 LIG 0.15  C 
BRANCH 6 7
ATOM      7  CG  ASP E   2       7.253  -7.540 -14.841  1.00 34.09 LIG 0.17  C 
ATOM      8 OD2  ASP E   2       8.102  -7.777 -13.960  1.00 37.71 LIG-0.65  OA
ATOM      9 OD1  ASP E   2       7.557  -7.165 -15.995  1.00 36.77 LIG-0.65  OA
ENDBRANCH 6 7
ENDBRANCH 5 6
BRANCH 5 10
ATOM     10  C   ASP E   2       6.102  -5.545 -13.333  1.00 30.01 LIG 0.24  C 
ATOM     11 O    ASP E   2       6.029  -4.785 -14.300  1.00 27.94 LIG-0.27  OA
ATOM     12  N   LEU E   3       6.819  -5.289 -12.247  1.00 30.14 LIG-0.35  N 
ATOM     13 H    LEU E   3       6.857  -5.814 -11.567  1.00 30.14 LIG 0.16  HD
BRANCH 12 14
ATOM     14  CA  LEU E   3       7.614  -4.082 -12.108  1.00 30.90 LIG 0.18  C 
BRANCH 14 15
ATOM     15  C   LEU E   3       9.019  -4.441 -11.627  1.00 32.33 LIG 0.24  C 
ATOM     16 O    LEU E   3       9.972  -3.677 -11.823  1.00 31.45 LIG-0.27  OA
ATOM     17  N   ALA E   4       9.129  -5.592 -10.970  1.00 33.58 LIG-0.34  N 
ATOM     18 H    ALA E   4       8.472  -6.131 -10.838  1.00 33.58 LIG 0.16  HD
BRANCH 17 19
ATOM     19  CA  ALA E   4      10.398  -6.047 -10.406  1.00 35.71 LIG 0.18  C 
ATOM     20  CB  ALA E   4      10.845  -5.115  -9.291  1.00 36.03 LIG 0.04  C 
BRANCH 19 21
ATOM     21  C   ALA E   4      10.271  -7.469  -9.881  1.00 37.05 LIG 0.20  C 
ATOM     22 OXT  ALA E   4      11.258  -8.077  -9.472  1.00 36.72 LIG-0.65  OA
ATOM     23 O    ALA E   4       9.179  -8.042  -9.849  1.00 37.61 LIG-0.65  OA
ENDBRANCH 19 21
ENDBRANCH 17 19
ENDBRANCH 14 15
BRANCH 14 24
ATOM     24  CB  LEU E   3       6.927  -3.131 -11.127  1.00 30.03 LIG 0.04  C 
BRANCH 24 25
ATOM     25  CG  LEU E   3       7.536  -1.759 -10.856  1.00 29.85 LIG-0.02  C 
ATOM     26  CD1 LEU E   3       6.502  -0.650 -10.934  1.00 29.46 LIG 0.01  C 
ATOM     27  CD2 LEU E   3       8.205  -1.792  -9.492  1.00 29.65 LIG 0.01  C 
ENDBRANCH 24 25
ENDBRANCH 14 24
ENDBRANCH 12 14
ENDBRANCH 5 10
ENDBRANCH 3 5
BRANCH 1 28
ATOM     28  CA  LEU E   1       1.898  -5.402 -12.754  1.00 29.46 LIG 0.18  C 
BRANCH 28 29
ATOM     29  CB  LEU E   1       0.982  -5.892 -11.632  1.00 29.35 LIG 0.04  C 
BRANCH 29 30
ATOM     30  CG  LEU E   1       0.377  -4.780 -10.762  1.00 30.22 LIG-0.02  C 
ATOM     31  CD2 LEU E   1       1.428  -4.163  -9.849  1.00 31.32 LIG 0.01  C 
ATOM     32  CD1 LEU E   1      -0.801  -5.297  -9.957  1.00 30.06 LIG 0.01  C 
ENDBRANCH 29 30
ENDBRANCH 28 29
BRANCH 28 33
ATOM     33  N   LEU E   1       1.499  -5.950 -14.047  1.00 28.73 LIG-0.35  N 
ATOM     34  C   GLN E   0       1.271  -5.150 -15.083  1.00 28.95 LIG 0.24  C 
ATOM     35 O    GLN E   0       1.262  -3.925 -14.991  1.00 30.73 LIG-0.27  OA
ATOM     36 H    LEU E   1       1.429  -6.807 -14.070  1.00 28.73 LIG 0.16  HD
BRANCH 34 37
ATOM     37  CA  GLN E   0       1.006  -5.814 -16.424  1.00 28.12 LIG 0.18  C 
BRANCH 37 38
ATOM     38  CB  GLN E   0      -0.457  -6.274 -16.478  1.00 27.70 LIG 0.04  C 
BRANCH 38 39
ATOM     39  CG  GLN E   0      -0.792  -7.467 -15.585  1.00 26.51 LIG 0.10  C 
BRANCH 39 40
ATOM     40  CD  GLN E   0      -1.749  -7.104 -14.466  1.00 26.51 LIG 0.21  C 
ATOM     41 OE1  GLN E   0      -2.846  -7.668 -14.371  1.00 26.66 LIG-0.27  OA
ATOM     42  NE2 GLN E   0      -1.347  -6.166 -13.610  1.00 24.64 LIG-0.37  N 
ATOM     43 22HE GLN E   0      -1.857  -5.931 -12.958  1.00 24.64 LIG 0.16  HD
ATOM     44 21HE GLN E   0      -0.577  -5.796 -13.708  1.00 24.64 LIG 0.16  HD
ENDBRANCH 39 40
ENDBRANCH 38 39
ENDBRANCH 37 38
BRANCH 37 45
ATOM     45  N   GLN E   0       1.934  -6.985 -16.606  1.00 28.94 LIG-0.35  N 
ATOM     46  C   ACE E  -1       3.247  -6.845 -16.911  1.00 29.25 LIG 0.21  C 
ATOM     47 O    ACE E  -1       3.811  -5.843 -16.464  1.00 28.69 LIG-0.27  OA
ATOM     48  CH3 ACE E  -1       4.001  -8.153 -16.733  1.00 29.73 LIG 0.12  C 
ATOM     49 H    GLN E   0       1.554  -7.749 -16.499  1.00 28.94 LIG 0.16  HD
ENDBRANCH 37 45
ENDBRANCH 34 37
ENDBRANCH 28 33
ENDBRANCH 1 28
TORSDOF 19
ENDMDL
MODEL 43
USER: ADFR SOLUTION from run 139
USER: SCORE 13.549967 LL:  -3.413 LR: -11.777 RR:   0.000 FEB:  -6.109
USER: RMSD 10.064357
USER: SEED 138
USER: STATUS no improvement in best in 27 clusters for 5 generations
USER: GENES 21
USER: genes 0 Translation |==|  0.48748 0.54649 0.64030
USER: genes 1 Rotation |==|  0.49246 0.14892 0.18675 0.66901
USER: genes 2 Torsion [C]-N--CA-[CB] |==|  0.17222
USER: genes 3 Torsion [N]-CA--CB-[CG] |==|  0.59720
USER: genes 4 Torsion [CA]-CB--CG-[OD2] |==|  0.48117
USER: genes 5 Torsion [N]-CA--C-[N] |==|  0.50452
USER: genes 6 Torsion [C]-N--CA-[C] |==|  0.81527
USER: genes 7 Torsion [N]-CA--C-[N] |==|  0.38313
USER: genes 8 Torsion [C]-N--CA-[CB] |==|  0.84229
USER: genes 9 Torsion [N]-CA--C-[OXT] |==|  0.31005
USER: genes 10 Torsion [N]-CA--CB-[CG] |==|  0.84585
USER: genes 11 Torsion [CA]-CB--CG-[CD2] |==|  0.26948
USER: genes 12 Torsion [N]-C--CA-[N] |==|  0.51664
USER: genes 13 Torsion [C]-CA--CB-[CG] |==|  0.28594
USER: genes 14 Torsion [CA]-CB--CG-[CD2] |==|  0.67841
USER: genes 15 Torsion [C]-CA--N-[C] |==|  0.52908
USER: genes 16 Torsion [N]-C--CA-[N] |==|  0.35093
USER: genes 17 Torsion [C]-CA--CB-[CG] |==|  0.34229
USER: genes 18 Torsion [CA]-CB--CG-[CD] |==|  0.08291
USER: genes 19 Torsion [CB]-CG--CD-[OE1] |==|  0.21033
USER: genes 20 Torsion [C]-CA--N-[C] |==|  0.61769
ROOT
ATOM      1  C   LEU E   1       2.480  -4.955 -10.909  1.00 28.67 LIG 0.24  C 
ATOM      2 O    LEU E   1       2.362  -3.934 -10.224  1.00 26.53 LIG-0.27  OA
ATOM      3  N   ASP E   2       1.505  -5.847 -11.063  1.00 29.47 LIG-0.35  N 
ATOM      4 H    ASP E   2       1.541  -6.510 -11.609  1.00 29.47 LIG 0.16  HD
ENDROOT
BRANCH 3 5
ATOM      5  CA  ASP E   2       0.274  -5.760 -10.299  1.00 30.54 LIG 0.19  C 
BRANCH 5 6
ATOM      6  CB  ASP E   2      -0.483  -4.463 -10.599  1.00 32.40 LIG 0.15  C 
BRANCH 6 7
ATOM      7  CG  ASP E   2      -1.197  -3.912  -9.384  1.00 34.09 LIG 0.17  C 
ATOM      8 OD2  ASP E   2      -1.740  -2.794  -9.475  1.00 37.71 LIG-0.65  OA
ATOM      9 OD1  ASP E   2      -1.225  -4.598  -8.339  1.00 36.77 LIG-0.65  OA
ENDBRANCH 6 7
ENDBRANCH 5 6
BRANCH 5 10
ATOM     10  C   ASP E   2      -0.574  -6.952 -10.669  1.00 30.01 LIG 0.24  C 
ATOM     11 O    ASP E   2      -0.158  -7.798 -11.462  1.00 27.94 LIG-0.27  OA
ATOM     12  N   LEU E   3      -1.761  -7.013 -10.081  1.00 30.14 LIG-0.35  N 
ATOM     13 H    LEU E   3      -2.043  -6.429  -9.517  1.00 30.14 LIG 0.16  HD
BRANCH 12 14
ATOM     14  CA  LEU E   3      -2.702  -8.088 -10.342  1.00 30.90 LIG 0.18  C 
BRANCH 14 15
ATOM     15  C   LEU E   3      -3.189  -8.008 -11.788  1.00 32.33 LIG 0.24  C 
ATOM     16 O    LEU E   3      -3.449  -6.917 -12.311  1.00 31.45 LIG-0.27  OA
ATOM     17  N   ALA E   4      -3.279  -9.167 -12.433  1.00 33.58 LIG-0.34  N 
ATOM     18 H    ALA E   4      -3.108  -9.929 -12.072  1.00 33.58 LIG 0.16  HD
BRANCH 17 19
ATOM     19  CA  ALA E   4      -3.683  -9.247 -13.836  1.00 35.71 LIG 0.18  C 
ATOM     20  CB  ALA E   4      -5.043  -8.595 -14.031  1.00 36.03 LIG 0.04  C 
BRANCH 19 21
ATOM     21  C   ALA E   4      -2.648  -8.577 -14.728  1.00 37.05 LIG 0.20  C 
ATOM     22 OXT  ALA E   4      -1.960  -9.244 -15.498  1.00 36.72 LIG-0.65  OA
ATOM     23 O    ALA E   4      -2.478  -7.357 -14.703  1.00 37.61 LIG-0.65  OA
ENDBRANCH 19 21
ENDBRANCH 17 19
ENDBRANCH 14 15
BRANCH 14 24
ATOM     24  CB  LEU E   3      -3.873  -7.985  -9.364  1.00 30.03 LIG 0.04  C 
BRANCH 24 25
ATOM     25  CG  LEU E   3      -3.602  -7.967  -7.863  1.00 29.85 LIG-0.02  C 
ATOM     26  CD1 LEU E   3      -2.302  -8.666  -7.509  1.00 29.46 LIG 0.01  C 
ATOM     27  CD2 LEU E   3      -3.594  -6.522  -7.394  1.00 29.65 LIG 0.01  C 
ENDBRANCH 24 25
ENDBRANCH 14 24
ENDBRANCH 12 14
ENDBRANCH 5 10
ENDBRANCH 3 5
BRANCH 1 28
ATOM     28  CA  LEU E   1       3.774  -5.254 -11.646  1.00 29.46 LIG 0.18  C 
BRANCH 28 29
ATOM     29  CB  LEU E   1       4.242  -6.679 -11.350  1.00 29.35 LIG 0.04  C 
BRANCH 29 30
ATOM     30  CG  LEU E   1       3.977  -7.692 -12.474  1.00 30.22 LIG-0.02  C 
ATOM     31  CD2 LEU E   1       2.999  -8.769 -12.023  1.00 31.32 LIG 0.01  C 
ATOM     32  CD1 LEU E   1       5.272  -8.310 -12.969  1.00 30.06 LIG 0.01  C 
ENDBRANCH 29 30
ENDBRANCH 28 29
BRANCH 28 33
ATOM     33  N   LEU E   1       4.783  -4.269 -11.266  1.00 28.73 LIG-0.35  N 
ATOM     34  C   GLN E   0       5.933  -4.187 -11.925  1.00 28.95 LIG 0.24  C 
ATOM     35 O    GLN E   0       6.265  -4.991 -12.792  1.00 30.73 LIG-0.27  OA
ATOM     36 H    LEU E   1       4.567  -3.769 -10.600  1.00 28.73 LIG 0.16  HD
BRANCH 34 37
ATOM     37  CA  GLN E   0       6.860  -3.039 -11.557  1.00 28.12 LIG 0.18  C 
BRANCH 37 38
ATOM     38  CB  GLN E   0       6.947  -2.064 -12.739  1.00 27.70 LIG 0.04  C 
BRANCH 38 39
ATOM     39  CG  GLN E   0       6.557  -0.623 -12.416  1.00 26.51 LIG 0.10  C 
BRANCH 39 40
ATOM     40  CD  GLN E   0       6.851  -0.251 -10.974  1.00 26.51 LIG 0.21  C 
ATOM     41 OE1  GLN E   0       8.010  -0.022 -10.610  1.00 26.66 LIG-0.27  OA
ATOM     42  NE2 GLN E   0       5.810  -0.184 -10.146  1.00 24.64 LIG-0.37  N 
ATOM     43 22HE GLN E   0       5.931   0.026  -9.320  1.00 24.64 LIG 0.16  HD
ATOM     44 21HE GLN E   0       5.018  -0.350 -10.436  1.00 24.64 LIG 0.16  HD
ENDBRANCH 39 40
ENDBRANCH 38 39
ENDBRANCH 37 38
BRANCH 37 45
ATOM     45  N   GLN E   0       8.225  -3.576 -11.216  1.00 28.94 LIG-0.35  N 
ATOM     46  C   ACE E  -1       8.954  -3.123 -10.167  1.00 29.25 LIG 0.21  C 
ATOM     47 O    ACE E  -1       8.319  -2.745  -9.178  1.00 28.69 LIG-0.27  OA
ATOM     48  CH3 ACE E  -1      10.133  -4.036  -9.875  1.00 29.73 LIG 0.12  C 
ATOM     49 H    GLN E   0       8.498  -4.195 -11.747  1.00 28.94 LIG 0.16  HD
ENDBRANCH 37 45
ENDBRANCH 34 37
ENDBRANCH 28 33
ENDBRANCH 1 28
TORSDOF 19
ENDMDL
MODEL 44
USER: ADFR SOLUTION from run 77
USER: SCORE 12.779907 LL:  -3.668 LR: -11.697 RR:   0.000 FEB:  -6.029
USER: RMSD 3.136328
USER: SEED 76
USER: STATUS no improvement in best in 11 clusters for 5 generations
USER: GENES 21
USER: genes 0 Translation |==|  0.46016 0.52610 0.57142
USER: genes 1 Rotation |==|  0.07724 0.69814 0.43914 0.66826
USER: genes 2 Torsion [C]-N--CA-[CB] |==|  0.86667
USER: genes 3 Torsion [N]-CA--CB-[CG] |==|  0.77582
USER: genes 4 Torsion [CA]-CB--CG-[OD2] |==|  0.91068
USER: genes 5 Torsion [N]-CA--C-[N] |==|  0.17529
USER: genes 6 Torsion [C]-N--CA-[C] |==|  0.83206
USER: genes 7 Torsion [N]-CA--C-[N] |==|  0.33603
USER: genes 8 Torsion [C]-N--CA-[CB] |==|  0.22332
USER: genes 9 Torsion [N]-CA--C-[OXT] |==|  0.48015
USER: genes 10 Torsion [N]-CA--CB-[CG] |==|  0.64726
USER: genes 11 Torsion [CA]-CB--CG-[CD2] |==|  0.87016
USER: genes 12 Torsion [N]-C--CA-[N] |==|  0.67766
USER: genes 13 Torsion [C]-CA--CB-[CG] |==|  0.42142
USER: genes 14 Torsion [CA]-CB--CG-[CD2] |==|  0.08881
USER: genes 15 Torsion [C]-CA--N-[C] |==|  0.19438
USER: genes 16 Torsion [N]-C--CA-[N] |==|  0.30930
USER: genes 17 Torsion [C]-CA--CB-[CG] |==|  0.04700
USER: genes 18 Torsion [CA]-CB--CG-[CD] |==|  0.32066
USER: genes 19 Torsion [CB]-CG--CD-[OE1] |==|  0.57540
USER: genes 20 Torsion [C]-CA--N-[C] |==|  0.70205
ROOT
ATOM      1  C   LEU E   1       1.866  -5.322 -12.046  1.00 28.67 LIG 0.24  C 
ATOM      2 O    LEU E   1       1.888  -5.227 -13.277  1.00 26.53 LIG-0.27  OA
ATOM      3  N   ASP E   2       2.825  -5.917 -11.342  1.00 29.47 LIG-0.35  N 
ATOM      4 H    ASP E   2       2.868  -5.909 -10.484  1.00 29.47 LIG 0.16  HD
ENDROOT
BRANCH 3 5
ATOM      5  CA  ASP E   2       3.899  -6.645 -11.994  1.00 30.54 LIG 0.19  C 
BRANCH 5 6
ATOM      6  CB  ASP E   2       3.361  -7.605 -13.059  1.00 32.40 LIG 0.15  C 
BRANCH 6 7
ATOM      7  CG  ASP E   2       2.846  -8.899 -12.469  1.00 34.09 LIG 0.17  C 
ATOM      8 OD2  ASP E   2       3.398  -9.341 -11.442  1.00 37.71 LIG-0.65  OA
ATOM      9 OD1  ASP E   2       1.883  -9.473 -13.023  1.00 36.77 LIG-0.65  OA
ENDBRANCH 6 7
ENDBRANCH 5 6
BRANCH 5 10
ATOM     10  C   ASP E   2       4.815  -5.628 -12.629  1.00 30.01 LIG 0.24  C 
ATOM     11 O    ASP E   2       4.963  -5.591 -13.851  1.00 27.94 LIG-0.27  OA
ATOM     12  N   LEU E   3       5.420  -4.800 -11.788  1.00 30.14 LIG-0.35  N 
ATOM     13 H    LEU E   3       5.304  -4.818 -10.936  1.00 30.14 LIG 0.16  HD
BRANCH 12 14
ATOM     14  CA  LEU E   3       6.344  -3.775 -12.238  1.00 30.90 LIG 0.18  C 
BRANCH 14 15
ATOM     15  C   LEU E   3       7.526  -4.424 -12.958  1.00 32.33 LIG 0.24  C 
ATOM     16 O    LEU E   3       8.230  -5.266 -12.388  1.00 31.45 LIG-0.27  OA
ATOM     17  N   ALA E   4       7.712  -4.048 -14.219  1.00 33.58 LIG-0.34  N 
ATOM     18 H    ALA E   4       7.230  -3.457 -14.617  1.00 33.58 LIG 0.16  HD
BRANCH 17 19
ATOM     19  CA  ALA E   4       8.770  -4.617 -15.051  1.00 35.71 LIG 0.18  C 
ATOM     20  CB  ALA E   4       8.340  -5.968 -15.601  1.00 36.03 LIG 0.04  C 
BRANCH 19 21
ATOM     21  C   ALA E   4       9.118  -3.673 -16.193  1.00 37.05 LIG 0.20  C 
ATOM     22 OXT  ALA E   4      10.073  -3.907 -16.930  1.00 36.72 LIG-0.65  OA
ATOM     23 O    ALA E   4       8.452  -2.658 -16.407  1.00 37.61 LIG-0.65  OA
ENDBRANCH 19 21
ENDBRANCH 17 19
ENDBRANCH 14 15
BRANCH 14 24
ATOM     24  CB  LEU E   3       6.819  -2.956 -11.036  1.00 30.03 LIG 0.04  C 
BRANCH 24 25
ATOM     25  CG  LEU E   3       6.694  -1.436 -11.064  1.00 29.85 LIG-0.02  C 
ATOM     26  CD1 LEU E   3       7.432  -0.782  -9.909  1.00 29.46 LIG 0.01  C 
ATOM     27  CD2 LEU E   3       7.213  -0.936 -12.401  1.00 29.65 LIG 0.01  C 
ENDBRANCH 24 25
ENDBRANCH 14 24
ENDBRANCH 12 14
ENDBRANCH 5 10
ENDBRANCH 3 5
BRANCH 1 28
ATOM     28  CA  LEU E   1       0.719  -4.738 -11.240  1.00 29.46 LIG 0.18  C 
BRANCH 28 29
ATOM     29  CB  LEU E   1       1.018  -4.823  -9.743  1.00 29.35 LIG 0.04  C 
BRANCH 29 30
ATOM     30  CG  LEU E   1       0.351  -3.734  -8.889  1.00 30.22 LIG-0.02  C 
ATOM     31  CD2 LEU E   1      -0.990  -3.318  -9.478  1.00 31.32 LIG 0.01  C 
ATOM     32  CD1 LEU E   1       1.265  -2.533  -8.724  1.00 30.06 LIG 0.01  C 
ENDBRANCH 29 30
ENDBRANCH 28 29
BRANCH 28 33
ATOM     33  N   LEU E   1      -0.515  -5.441 -11.579  1.00 28.73 LIG-0.35  N 
ATOM     34  C   GLN E   0      -0.703  -6.702 -11.205  1.00 28.95 LIG 0.24  C 
ATOM     35 O    GLN E   0       0.173  -7.378 -10.673  1.00 30.73 LIG-0.27  OA
ATOM     36 H    LEU E   1      -1.084  -4.977 -12.026  1.00 28.73 LIG 0.16  HD
BRANCH 34 37
ATOM     37  CA  GLN E   0      -2.073  -7.306 -11.471  1.00 28.12 LIG 0.18  C 
BRANCH 37 38
ATOM     38  CB  GLN E   0      -2.620  -7.905 -10.170  1.00 27.70 LIG 0.04  C 
BRANCH 38 39
ATOM     39  CG  GLN E   0      -1.925  -7.428  -8.896  1.00 26.51 LIG 0.10  C 
BRANCH 39 40
ATOM     40  CD  GLN E   0      -2.851  -6.639  -7.990  1.00 26.51 LIG 0.21  C 
ATOM     41 OE1  GLN E   0      -2.397  -5.786  -7.219  1.00 26.66 LIG-0.27  OA
ATOM     42  NE2 GLN E   0      -4.152  -6.912  -8.075  1.00 24.64 LIG-0.37  N 
ATOM     43 22HE GLN E   0      -4.714  -6.486  -7.581  1.00 24.64 LIG 0.16  HD
ATOM     44 21HE GLN E   0      -4.431  -7.513  -8.623  1.00 24.64 LIG 0.16  HD
ENDBRANCH 39 40
ENDBRANCH 38 39
ENDBRANCH 37 38
BRANCH 37 45
ATOM     45  N   GLN E   0      -1.964  -8.366 -12.536  1.00 28.94 LIG-0.35  N 
ATOM     46  C   ACE E  -1      -2.425  -8.192 -13.798  1.00 29.25 LIG 0.21  C 
ATOM     47 O    ACE E  -1      -2.375  -7.044 -14.249  1.00 28.69 LIG-0.27  OA
ATOM     48  CH3 ACE E  -1      -1.916  -9.281 -14.729  1.00 29.73 LIG 0.12  C 
ATOM     49 H    GLN E   0      -1.585  -9.089 -12.268  1.00 28.94 LIG 0.16  HD
ENDBRANCH 37 45
ENDBRANCH 34 37
ENDBRANCH 28 33
ENDBRANCH 1 28
TORSDOF 19
ENDMDL
MODEL 45
USER: ADFR SOLUTION from run 102
USER: SCORE 14.860901 LL:  -3.497 LR: -11.673 RR:   0.000 FEB:  -6.005
USER: RMSD 2.504684
USER: SEED 101
USER: STATUS no improvement in best in 4 clusters for 5 generations
USER: GENES 21
USER: genes 0 Translation |==|  0.51864 0.47879 0.42935
USER: genes 1 Rotation |==|  0.08350 0.50950 0.25406 0.62630
USER: genes 2 Torsion [C]-N--CA-[CB] |==|  0.85980
USER: genes 3 Torsion [N]-CA--CB-[CG] |==|  0.72364
USER: genes 4 Torsion [CA]-CB--CG-[OD2] |==|  0.71774
USER: genes 5 Torsion [N]-CA--C-[N] |==|  0.34444
USER: genes 6 Torsion [C]-N--CA-[C] |==|  0.72885
USER: genes 7 Torsion [N]-CA--C-[N] |==|  0.42722
USER: genes 8 Torsion [C]-N--CA-[CB] |==|  0.36467
USER: genes 9 Torsion [N]-CA--C-[OXT] |==|  0.03681
USER: genes 10 Torsion [N]-CA--CB-[CG] |==|  0.37655
USER: genes 11 Torsion [CA]-CB--CG-[CD2] |==|  0.76348
USER: genes 12 Torsion [N]-C--CA-[N] |==|  0.99314
USER: genes 13 Torsion [C]-CA--CB-[CG] |==|  0.45462
USER: genes 14 Torsion [CA]-CB--CG-[CD2] |==|  0.30322
USER: genes 15 Torsion [C]-CA--N-[C] |==|  0.74182
USER: genes 16 Torsion [N]-C--CA-[N] |==|  0.43286
USER: genes 17 Torsion [C]-CA--CB-[CG] |==|  0.31536
USER: genes 18 Torsion [CA]-CB--CG-[CD] |==|  0.65945
USER: genes 19 Torsion [CB]-CG--CD-[OE1] |==|  0.00103
USER: genes 20 Torsion [C]-CA--N-[C] |==|  0.80409
ROOT
ATOM      1  C   LEU E   1       3.181  -6.174 -14.390  1.00 28.67 LIG 0.24  C 
ATOM      2 O    LEU E   1       4.162  -6.452 -15.088  1.00 26.53 LIG-0.27  OA
ATOM      3  N   ASP E   2       3.259  -5.943 -13.082  1.00 29.47 LIG-0.35  N 
ATOM      4 H    ASP E   2       2.604  -5.658 -12.604  1.00 29.47 LIG 0.16  HD
ENDROOT
BRANCH 3 5
ATOM      5  CA  ASP E   2       4.491  -6.163 -12.348  1.00 30.54 LIG 0.19  C 
BRANCH 5 6
ATOM      6  CB  ASP E   2       5.071  -7.553 -12.627  1.00 32.40 LIG 0.15  C 
BRANCH 6 7
ATOM      7  CG  ASP E   2       4.746  -8.549 -11.536  1.00 34.09 LIG 0.17  C 
ATOM      8 OD2  ASP E   2       5.632  -8.822 -10.702  1.00 37.71 LIG-0.65  OA
ATOM      9 OD1  ASP E   2       3.602  -9.054 -11.502  1.00 36.77 LIG-0.65  OA
ENDBRANCH 6 7
ENDBRANCH 5 6
BRANCH 5 10
ATOM     10  C   ASP E   2       5.471  -5.098 -12.777  1.00 30.01 LIG 0.24  C 
ATOM     11 O    ASP E   2       5.756  -4.948 -13.965  1.00 27.94 LIG-0.27  OA
ATOM     12  N   LEU E   3       5.974  -4.358 -11.798  1.00 30.14 LIG-0.35  N 
ATOM     13 H    LEU E   3       5.762  -4.455 -10.970  1.00 30.14 LIG 0.16  HD
BRANCH 12 14
ATOM     14  CA  LEU E   3       6.940  -3.302 -12.042  1.00 30.90 LIG 0.18  C 
BRANCH 14 15
ATOM     15  C   LEU E   3       8.353  -3.824 -11.780  1.00 32.33 LIG 0.24  C 
ATOM     16 O    LEU E   3       8.545  -4.778 -11.017  1.00 31.45 LIG-0.27  OA
ATOM     17  N   ALA E   4       9.328  -3.211 -12.444  1.00 33.58 LIG-0.34  N 
ATOM     18 H    ALA E   4       9.201  -2.542 -12.970  1.00 33.58 LIG 0.16  HD
BRANCH 17 19
ATOM     19  CA  ALA E   4      10.724  -3.630 -12.335  1.00 35.71 LIG 0.18  C 
ATOM     20  CB  ALA E   4      11.342  -3.772 -13.717  1.00 36.03 LIG 0.04  C 
BRANCH 19 21
ATOM     21  C   ALA E   4      11.518  -2.630 -11.507  1.00 37.05 LIG 0.20  C 
ATOM     22 OXT  ALA E   4      10.944  -1.775 -10.836  1.00 36.72 LIG-0.65  OA
ATOM     23 O    ALA E   4      12.751  -2.656 -11.486  1.00 37.61 LIG-0.65  OA
ENDBRANCH 19 21
ENDBRANCH 17 19
ENDBRANCH 14 15
BRANCH 14 24
ATOM     24  CB  LEU E   3       6.624  -2.106 -11.143  1.00 30.03 LIG 0.04  C 
BRANCH 24 25
ATOM     25  CG  LEU E   3       7.756  -1.399 -10.404  1.00 29.85 LIG-0.02  C 
ATOM     26  CD1 LEU E   3       7.444   0.064 -10.148  1.00 29.46 LIG 0.01  C 
ATOM     27  CD2 LEU E   3       8.018  -2.141  -9.104  1.00 29.65 LIG 0.01  C 
ENDBRANCH 24 25
ENDBRANCH 14 24
ENDBRANCH 12 14
ENDBRANCH 5 10
ENDBRANCH 3 5
BRANCH 1 28
ATOM     28  CA  LEU E   1       1.796  -6.061 -15.002  1.00 29.46 LIG 0.18  C 
BRANCH 28 29
ATOM     29  CB  LEU E   1       1.779  -4.990 -16.093  1.00 29.35 LIG 0.04  C 
BRANCH 29 30
ATOM     30  CG  LEU E   1       0.570  -5.053 -17.039  1.00 30.22 LIG-0.02  C 
ATOM     31  CD2 LEU E   1      -0.379  -3.887 -16.797  1.00 31.32 LIG 0.01  C 
ATOM     32  CD1 LEU E   1      -0.157  -6.378 -16.909  1.00 30.06 LIG 0.01  C 
ENDBRANCH 29 30
ENDBRANCH 28 29
BRANCH 28 33
ATOM     33  N   LEU E   1       0.828  -5.767 -13.950  1.00 28.73 LIG-0.35  N 
ATOM     34  C   GLN E   0       0.171  -6.747 -13.338  1.00 28.95 LIG 0.24  C 
ATOM     35 O    GLN E   0       0.243  -7.921 -13.691  1.00 30.73 LIG-0.27  OA
ATOM     36 H    LEU E   1       0.728  -4.931 -13.773  1.00 28.73 LIG 0.16  HD
BRANCH 34 37
ATOM     37  CA  GLN E   0      -0.705  -6.360 -12.157  1.00 28.12 LIG 0.18  C 
BRANCH 37 38
ATOM     38  CB  GLN E   0       0.165  -6.252 -10.898  1.00 27.70 LIG 0.04  C 
BRANCH 38 39
ATOM     39  CG  GLN E   0       0.291  -4.845 -10.320  1.00 26.51 LIG 0.10  C 
BRANCH 39 40
ATOM     40  CD  GLN E   0       1.734  -4.384 -10.223  1.00 26.51 LIG 0.21  C 
ATOM     41 OE1  GLN E   0       2.653  -5.120 -10.598  1.00 26.66 LIG-0.27  OA
ATOM     42  NE2 GLN E   0       1.945  -3.167  -9.725  1.00 24.64 LIG-0.37  N 
ATOM     43 22HE GLN E   0       2.747  -2.864  -9.654  1.00 24.64 LIG 0.16  HD
ATOM     44 21HE GLN E   0       1.279  -2.684  -9.474  1.00 24.64 LIG 0.16  HD
ENDBRANCH 39 40
ENDBRANCH 38 39
ENDBRANCH 37 38
BRANCH 37 45
ATOM     45  N   GLN E   0      -1.785  -7.392 -11.965  1.00 28.94 LIG-0.35  N 
ATOM     46  C   ACE E  -1      -2.822  -7.543 -12.825  1.00 29.25 LIG 0.21  C 
ATOM     47 O    ACE E  -1      -2.594  -7.294 -14.012  1.00 28.69 LIG-0.27  OA
ATOM     48  CH3 ACE E  -1      -3.577  -8.836 -12.562  1.00 29.73 LIG 0.12  C 
ATOM     49 H    GLN E   0      -1.682  -7.875 -11.262  1.00 28.94 LIG 0.16  HD
ENDBRANCH 37 45
ENDBRANCH 34 37
ENDBRANCH 28 33
ENDBRANCH 1 28
TORSDOF 19
ENDMDL
MODEL 46
USER: ADFR SOLUTION from run 180
USER: SCORE 14.865476 LL:  -4.262 LR: -11.656 RR:   0.000 FEB:  -5.988
USER: RMSD 10.428865
USER: SEED 179
USER: STATUS searching
USER: GENES 21
USER: genes 0 Translation |==|  0.30765 0.42723 0.65379
USER: genes 1 Rotation |==|  0.49636 0.34830 0.71294 0.92618
USER: genes 2 Torsion [C]-N--CA-[CB] |==|  0.88843
USER: genes 3 Torsion [N]-CA--CB-[CG] |==|  0.66325
USER: genes 4 Torsion [CA]-CB--CG-[OD2] |==|  0.50213
USER: genes 5 Torsion [N]-CA--C-[N] |==|  0.88889
USER: genes 6 Torsion [C]-N--CA-[C] |==|  0.61452
USER: genes 7 Torsion [N]-CA--C-[N] |==|  0.49725
USER: genes 8 Torsion [C]-N--CA-[CB] |==|  0.23617
USER: genes 9 Torsion [N]-CA--C-[OXT] |==|  0.55719
USER: genes 10 Torsion [N]-CA--CB-[CG] |==|  0.10219
USER: genes 11 Torsion [CA]-CB--CG-[CD2] |==|  0.13312
USER: genes 12 Torsion [N]-C--CA-[N] |==|  0.90757
USER: genes 13 Torsion [C]-CA--CB-[CG] |==|  0.32347
USER: genes 14 Torsion [CA]-CB--CG-[CD2] |==|  0.03711
USER: genes 15 Torsion [C]-CA--N-[C] |==|  0.69364
USER: genes 16 Torsion [N]-C--CA-[N] |==|  0.99971
USER: genes 17 Torsion [C]-CA--CB-[CG] |==|  0.21604
USER: genes 18 Torsion [CA]-CB--CG-[CD] |==|  0.18247
USER: genes 19 Torsion [CB]-CG--CD-[OE1] |==|  0.72838
USER: genes 20 Torsion [C]-CA--N-[C] |==|  0.76548
ROOT
ATOM      1  C   LEU E   1      -1.566  -7.102 -10.686  1.00 28.67 LIG 0.24  C 
ATOM      2 O    LEU E   1      -2.616  -6.842 -10.091  1.00 26.53 LIG-0.27  OA
ATOM      3  N   ASP E   2      -0.366  -6.744 -10.239  1.00 29.47 LIG-0.35  N 
ATOM      4 H    ASP E   2       0.376  -6.998 -10.592  1.00 29.47 LIG 0.16  HD
ENDROOT
BRANCH 3 5
ATOM      5  CA  ASP E   2      -0.218  -5.873  -9.087  1.00 30.54 LIG 0.19  C 
BRANCH 5 6
ATOM      6  CB  ASP E   2      -1.257  -4.747  -9.097  1.00 32.40 LIG 0.15  C 
BRANCH 6 7
ATOM      7  CG  ASP E   2      -0.625  -3.373  -9.100  1.00 34.09 LIG 0.17  C 
ATOM      8 OD2  ASP E   2      -1.375  -2.377  -9.094  1.00 37.71 LIG-0.65  OA
ATOM      9 OD1  ASP E   2       0.623  -3.283  -9.100  1.00 36.77 LIG-0.65  OA
ENDBRANCH 6 7
ENDBRANCH 5 6
BRANCH 5 10
ATOM     10  C   ASP E   2      -0.388  -6.723  -7.852  1.00 30.01 LIG 0.24  C 
ATOM     11 O    ASP E   2       0.320  -6.541  -6.861  1.00 27.94 LIG-0.27  OA
ATOM     12  N   LEU E   3      -1.340  -7.644  -7.919  1.00 30.14 LIG-0.35  N 
ATOM     13 H    LEU E   3      -1.843  -7.759  -8.607  1.00 30.14 LIG 0.16  HD
BRANCH 12 14
ATOM     14  CA  LEU E   3      -1.621  -8.552  -6.822  1.00 30.90 LIG 0.18  C 
BRANCH 14 15
ATOM     15  C   LEU E   3      -1.882  -9.956  -7.367  1.00 32.33 LIG 0.24  C 
ATOM     16 O    LEU E   3      -1.828 -10.185  -8.581  1.00 31.45 LIG-0.27  OA
ATOM     17  N   ALA E   4      -2.134 -10.892  -6.457  1.00 33.58 LIG-0.34  N 
ATOM     18 H    ALA E   4      -2.180 -10.737  -5.612  1.00 33.58 LIG 0.16  HD
BRANCH 17 19
ATOM     19  CA  ALA E   4      -2.354 -12.290  -6.822  1.00 35.71 LIG 0.18  C 
ATOM     20  CB  ALA E   4      -1.026 -13.019  -6.948  1.00 36.03 LIG 0.04  C 
BRANCH 19 21
ATOM     21  C   ALA E   4      -3.234 -12.979  -5.788  1.00 37.05 LIG 0.20  C 
ATOM     22 OXT  ALA E   4      -3.238 -14.204  -5.686  1.00 36.72 LIG-0.65  OA
ATOM     23 O    ALA E   4      -3.957 -12.329  -5.031  1.00 37.61 LIG-0.65  OA
ENDBRANCH 19 21
ENDBRANCH 17 19
ENDBRANCH 14 15
BRANCH 14 24
ATOM     24  CB  LEU E   3      -2.826  -8.039  -6.033  1.00 30.03 LIG 0.04  C 
BRANCH 24 25
ATOM     25  CG  LEU E   3      -3.983  -7.374  -6.773  1.00 29.85 LIG-0.02  C 
ATOM     26  CD1 LEU E   3      -3.638  -5.965  -7.223  1.00 29.46 LIG 0.01  C 
ATOM     27  CD2 LEU E   3      -4.363  -8.250  -7.955  1.00 29.65 LIG 0.01  C 
ENDBRANCH 24 25
ENDBRANCH 14 24
ENDBRANCH 12 14
ENDBRANCH 5 10
ENDBRANCH 3 5
BRANCH 1 28
ATOM     28  CA  LEU E   1      -1.582  -7.878 -11.991  1.00 29.46 LIG 0.18  C 
BRANCH 28 29
ATOM     29  CB  LEU E   1      -1.486  -9.381 -11.722  1.00 29.35 LIG 0.04  C 
BRANCH 29 30
ATOM     30  CG  LEU E   1      -2.712 -10.194 -12.162  1.00 30.22 LIG-0.02  C 
ATOM     31  CD2 LEU E   1      -3.620  -9.374 -13.067  1.00 31.32 LIG 0.01  C 
ATOM     32  CD1 LEU E   1      -3.477 -10.722 -10.962  1.00 30.06 LIG 0.01  C 
ENDBRANCH 29 30
ENDBRANCH 28 29
BRANCH 28 33
ATOM     33  N   LEU E   1      -0.487  -7.417 -12.839  1.00 28.73 LIG-0.35  N 
ATOM     34  C   GLN E   0      -0.730  -6.723 -13.945  1.00 28.95 LIG 0.24  C 
ATOM     35 O    GLN E   0      -1.863  -6.534 -14.380  1.00 30.73 LIG-0.27  OA
ATOM     36 H    LEU E   1       0.299  -7.631 -12.563  1.00 28.73 LIG 0.16  HD
BRANCH 34 37
ATOM     37  CA  GLN E   0       0.471  -6.158 -14.686  1.00 28.12 LIG 0.18  C 
BRANCH 37 38
ATOM     38  CB  GLN E   0       0.488  -6.713 -16.116  1.00 27.70 LIG 0.04  C 
BRANCH 38 39
ATOM     39  CG  GLN E   0      -0.497  -6.053 -17.077  1.00 26.51 LIG 0.10  C 
BRANCH 39 40
ATOM     40  CD  GLN E   0      -0.163  -4.596 -17.341  1.00 26.51 LIG 0.21  C 
ATOM     41 OE1  GLN E   0      -0.743  -3.697 -16.722  1.00 26.66 LIG-0.27  OA
ATOM     42  NE2 GLN E   0       0.773  -4.350 -18.257  1.00 24.64 LIG-0.37  N 
ATOM     43 22HE GLN E   0       0.996  -3.539 -18.437  1.00 24.64 LIG 0.16  HD
ATOM     44 21HE GLN E   0       1.155  -5.002 -18.668  1.00 24.64 LIG 0.16  HD
ENDBRANCH 39 40
ENDBRANCH 38 39
ENDBRANCH 37 38
BRANCH 37 45
ATOM     45  N   GLN E   0       1.738  -6.529 -13.961  1.00 28.94 LIG-0.35  N 
ATOM     46  C   ACE E  -1       2.227  -5.813 -12.919  1.00 29.25 LIG 0.21  C 
ATOM     47 O    ACE E  -1       1.397  -5.259 -12.194  1.00 28.69 LIG-0.27  OA
ATOM     48  CH3 ACE E  -1       3.326  -6.572 -12.192  1.00 29.73 LIG 0.12  C 
ATOM     49 H    GLN E   0       2.120  -7.234 -14.269  1.00 28.94 LIG 0.16  HD
ENDBRANCH 37 45
ENDBRANCH 34 37
ENDBRANCH 28 33
ENDBRANCH 1 28
TORSDOF 19
ENDMDL
MODEL 47
USER: ADFR SOLUTION from run 96
USER: SCORE 14.361894 LL:  -3.474 LR: -11.638 RR:   0.000 FEB:  -5.970
USER: RMSD 2.731786
USER: SEED 95
USER: STATUS no improvement in best in 11 clusters for 5 generations
USER: GENES 21
USER: genes 0 Translation |==|  0.51247 0.48916 0.56280
USER: genes 1 Rotation |==|  0.41895 0.56190 0.48968 0.98938
USER: genes 2 Torsion [C]-N--CA-[CB] |==|  0.52222
USER: genes 3 Torsion [N]-CA--CB-[CG] |==|  0.71347
USER: genes 4 Torsion [CA]-CB--CG-[OD2] |==|  0.20852
USER: genes 5 Torsion [N]-CA--C-[N] |==|  0.33496
USER: genes 6 Torsion [C]-N--CA-[C] |==|  0.85065
USER: genes 7 Torsion [N]-CA--C-[N] |==|  0.36976
USER: genes 8 Torsion [C]-N--CA-[CB] |==|  0.20957
USER: genes 9 Torsion [N]-CA--C-[OXT] |==|  0.47111
USER: genes 10 Torsion [N]-CA--CB-[CG] |==|  0.64966
USER: genes 11 Torsion [CA]-CB--CG-[CD2] |==|  0.87754
USER: genes 12 Torsion [N]-C--CA-[N] |==|  0.36921
USER: genes 13 Torsion [C]-CA--CB-[CG] |==|  0.39349
USER: genes 14 Torsion [CA]-CB--CG-[CD2] |==|  0.50731
USER: genes 15 Torsion [C]-CA--N-[C] |==|  0.78397
USER: genes 16 Torsion [N]-C--CA-[N] |==|  0.02531
USER: genes 17 Torsion [C]-CA--CB-[CG] |==|  0.61486
USER: genes 18 Torsion [CA]-CB--CG-[CD] |==|  0.80376
USER: genes 19 Torsion [CB]-CG--CD-[OE1] |==|  0.05651
USER: genes 20 Torsion [C]-CA--N-[C] |==|  0.71264
ROOT
ATOM      1  C   LEU E   1       3.043  -5.987 -12.188  1.00 28.67 LIG 0.24  C 
ATOM      2 O    LEU E   1       3.302  -4.964 -11.547  1.00 26.53 LIG-0.27  OA
ATOM      3  N   ASP E   2       3.956  -6.898 -12.509  1.00 29.47 LIG-0.35  N 
ATOM      4 H    ASP E   2       3.774  -7.657 -12.871  1.00 29.47 LIG 0.16  HD
ENDROOT
BRANCH 3 5
ATOM      5  CA  ASP E   2       5.369  -6.671 -12.263  1.00 30.54 LIG 0.19  C 
BRANCH 5 6
ATOM      6  CB  ASP E   2       6.232  -7.770 -12.892  1.00 32.40 LIG 0.15  C 
BRANCH 6 7
ATOM      7  CG  ASP E   2       6.738  -8.767 -11.874  1.00 34.09 LIG 0.17  C 
ATOM      8 OD2  ASP E   2       5.936  -9.608 -11.422  1.00 37.71 LIG-0.65  OA
ATOM      9 OD1  ASP E   2       7.939  -8.719 -11.529  1.00 36.77 LIG-0.65  OA
ENDBRANCH 6 7
ENDBRANCH 5 6
BRANCH 5 10
ATOM     10  C   ASP E   2       5.723  -5.331 -12.858  1.00 30.01 LIG 0.24  C 
ATOM     11 O    ASP E   2       5.556  -5.112 -14.059  1.00 27.94 LIG-0.27  OA
ATOM     12  N   LEU E   3       6.204  -4.436 -12.005  1.00 30.14 LIG-0.35  N 
ATOM     13 H    LEU E   3       6.307  -4.587 -11.165  1.00 30.14 LIG 0.16  HD
BRANCH 12 14
ATOM     14  CA  LEU E   3       6.606  -3.105 -12.421  1.00 30.90 LIG 0.18  C 
BRANCH 14 15
ATOM     15  C   LEU E   3       7.609  -3.204 -13.571  1.00 32.33 LIG 0.24  C 
ATOM     16 O    LEU E   3       8.549  -4.006 -13.525  1.00 31.45 LIG-0.27  OA
ATOM     17  N   ALA E   4       7.379  -2.406 -14.610  1.00 33.58 LIG-0.34  N 
ATOM     18 H    ALA E   4       6.731  -1.841 -14.643  1.00 33.58 LIG 0.16  HD
BRANCH 17 19
ATOM     19  CA  ALA E   4       8.221  -2.423 -15.804  1.00 35.71 LIG 0.18  C 
ATOM     20  CB  ALA E   4       7.915  -3.649 -16.649  1.00 36.03 LIG 0.04  C 
BRANCH 19 21
ATOM     21  C   ALA E   4       8.013  -1.157 -16.622  1.00 37.05 LIG 0.20  C 
ATOM     22 OXT  ALA E   4       8.761  -0.887 -17.560  1.00 36.72 LIG-0.65  OA
ATOM     23 O    ALA E   4       7.092  -0.377 -16.368  1.00 37.61 LIG-0.65  OA
ENDBRANCH 19 21
ENDBRANCH 17 19
ENDBRANCH 14 15
BRANCH 14 24
ATOM     24  CB  LEU E   3       7.213  -2.362 -11.230  1.00 30.03 LIG 0.04  C 
BRANCH 24 25
ATOM     25  CG  LEU E   3       6.663  -0.995 -10.836  1.00 29.85 LIG-0.02  C 
ATOM     26  CD1 LEU E   3       7.569  -0.278  -9.851  1.00 29.46 LIG 0.01  C 
ATOM     27  CD2 LEU E   3       6.465  -0.175 -12.099  1.00 29.65 LIG 0.01  C 
ENDBRANCH 24 25
ENDBRANCH 14 24
ENDBRANCH 12 14
ENDBRANCH 5 10
ENDBRANCH 3 5
BRANCH 1 28
ATOM     28  CA  LEU E   1       1.625  -6.280 -12.647  1.00 29.46 LIG 0.18  C 
BRANCH 28 29
ATOM     29  CB  LEU E   1       1.264  -5.417 -13.856  1.00 29.35 LIG 0.04  C 
BRANCH 29 30
ATOM     30  CG  LEU E   1       0.418  -6.125 -14.924  1.00 30.22 LIG-0.02  C 
ATOM     31  CD2 LEU E   1       0.162  -5.214 -16.117  1.00 31.32 LIG 0.01  C 
ATOM     32  CD1 LEU E   1      -0.889  -6.629 -14.339  1.00 30.06 LIG 0.01  C 
ENDBRANCH 29 30
ENDBRANCH 28 29
BRANCH 28 33
ATOM     33  N   LEU E   1       0.704  -6.056 -11.536  1.00 28.73 LIG-0.35  N 
ATOM     34  C   GLN E   0       0.579  -6.953 -10.565  1.00 28.95 LIG 0.24  C 
ATOM     35 O    GLN E   0       1.124  -8.054 -10.598  1.00 30.73 LIG-0.27  OA
ATOM     36 H    LEU E   1       0.267  -5.316 -11.573  1.00 28.73 LIG 0.16  HD
BRANCH 34 37
ATOM     37  CA  GLN E   0      -0.290  -6.571  -9.378  1.00 28.12 LIG 0.18  C 
BRANCH 37 38
ATOM     38  CB  GLN E   0      -1.284  -7.705  -9.096  1.00 27.70 LIG 0.04  C 
BRANCH 38 39
ATOM     39  CG  GLN E   0      -2.700  -7.250  -8.751  1.00 26.51 LIG 0.10  C 
BRANCH 39 40
ATOM     40  CD  GLN E   0      -2.784  -6.599  -7.383  1.00 26.51 LIG 0.21  C 
ATOM     41 OE1  GLN E   0      -1.770  -6.144  -6.842  1.00 26.66 LIG-0.27  OA
ATOM     42  NE2 GLN E   0      -3.988  -6.546  -6.815  1.00 24.64 LIG-0.37  N 
ATOM     43 22HE GLN E   0      -4.082  -6.183  -6.040  1.00 24.64 LIG 0.16  HD
ATOM     44 21HE GLN E   0      -4.671  -6.873  -7.222  1.00 24.64 LIG 0.16  HD
ENDBRANCH 39 40
ENDBRANCH 38 39
ENDBRANCH 37 38
BRANCH 37 45
ATOM     45  N   GLN E   0      -1.022  -5.289  -9.674  1.00 28.94 LIG-0.35  N 
ATOM     46  C   ACE E  -1      -0.655  -4.093  -9.152  1.00 29.25 LIG 0.21  C 
ATOM     47 O    ACE E  -1       0.552  -3.928  -8.950  1.00 28.69 LIG-0.27  OA
ATOM     48  CH3 ACE E  -1      -1.363  -2.943  -9.848  1.00 29.73 LIG 0.12  C 
ATOM     49 H    GLN E   0      -1.692  -5.387 -10.202  1.00 28.94 LIG 0.16  HD
ENDBRANCH 37 45
ENDBRANCH 34 37
ENDBRANCH 28 33
ENDBRANCH 1 28
TORSDOF 19
ENDMDL
MODEL 48
USER: ADFR SOLUTION from run 198
USER: SCORE 14.541250 LL:  -3.288 LR: -11.590 RR:   0.000 FEB:  -5.922
USER: RMSD 3.957488
USER: SEED 197
USER: STATUS 1 or 2 clusters left
USER: GENES 21
USER: genes 0 Translation |==|  0.51625 0.47216 0.43149
USER: genes 1 Rotation |==|  0.08435 0.51065 0.24020 0.59812
USER: genes 2 Torsion [C]-N--CA-[CB] |==|  0.86619
USER: genes 3 Torsion [N]-CA--CB-[CG] |==|  0.79477
USER: genes 4 Torsion [CA]-CB--CG-[OD2] |==|  0.64014
USER: genes 5 Torsion [N]-CA--C-[N] |==|  0.35163
USER: genes 6 Torsion [C]-N--CA-[C] |==|  0.75615
USER: genes 7 Torsion [N]-CA--C-[N] |==|  0.98194
USER: genes 8 Torsion [C]-N--CA-[CB] |==|  0.17930
USER: genes 9 Torsion [N]-CA--C-[OXT] |==|  0.25314
USER: genes 10 Torsion [N]-CA--CB-[CG] |==|  0.58766
USER: genes 11 Torsion [CA]-CB--CG-[CD2] |==|  0.57020
USER: genes 12 Torsion [N]-C--CA-[N] |==|  0.94664
USER: genes 13 Torsion [C]-CA--CB-[CG] |==|  0.46171
USER: genes 14 Torsion [CA]-CB--CG-[CD2] |==|  0.32354
USER: genes 15 Torsion [C]-CA--N-[C] |==|  0.75549
USER: genes 16 Torsion [N]-C--CA-[N] |==|  0.93347
USER: genes 17 Torsion [C]-CA--CB-[CG] |==|  0.41384
USER: genes 18 Torsion [CA]-CB--CG-[CD] |==|  0.56497
USER: genes 19 Torsion [CB]-CG--CD-[OE1] |==|  0.96919
USER: genes 20 Torsion [C]-CA--N-[C] |==|  0.74996
ROOT
ATOM      1  C   LEU E   1       3.128  -6.293 -14.354  1.00 28.67 LIG 0.24  C 
ATOM      2 O    LEU E   1       4.112  -6.704 -14.977  1.00 26.53 LIG-0.27  OA
ATOM      3  N   ASP E   2       3.168  -5.947 -13.071  1.00 29.47 LIG-0.35  N 
ATOM      4 H    ASP E   2       2.518  -5.573 -12.652  1.00 29.47 LIG 0.16  HD
ENDROOT
BRANCH 3 5
ATOM      5  CA  ASP E   2       4.350  -6.185 -12.261  1.00 30.54 LIG 0.19  C 
BRANCH 5 6
ATOM      6  CB  ASP E   2       4.867  -7.617 -12.430  1.00 32.40 LIG 0.15  C 
BRANCH 6 7
ATOM      7  CG  ASP E   2       3.999  -8.636 -11.726  1.00 34.09 LIG 0.17  C 
ATOM      8 OD2  ASP E   2       4.549  -9.460 -10.970  1.00 37.71 LIG-0.65  OA
ATOM      9 OD1  ASP E   2       2.763  -8.611 -11.921  1.00 36.77 LIG-0.65  OA
ENDBRANCH 6 7
ENDBRANCH 5 6
BRANCH 5 10
ATOM     10  C   ASP E   2       5.405  -5.199 -12.698  1.00 30.01 LIG 0.24  C 
ATOM     11 O    ASP E   2       5.722  -5.102 -13.884  1.00 27.94 LIG-0.27  OA
ATOM     12  N   LEU E   3       5.936  -4.464 -11.730  1.00 30.14 LIG-0.35  N 
ATOM     13 H    LEU E   3       5.702  -4.524 -10.905  1.00 30.14 LIG 0.16  HD
BRANCH 12 14
ATOM     14  CA  LEU E   3       6.973  -3.481 -11.982  1.00 30.90 LIG 0.18  C 
BRANCH 14 15
ATOM     15  C   LEU E   3       8.347  -4.149 -11.914  1.00 32.33 LIG 0.24  C 
ATOM     16 O    LEU E   3       9.374  -3.517 -12.188  1.00 31.45 LIG-0.27  OA
ATOM     17  N   ALA E   4       8.353  -5.418 -11.517  1.00 33.58 LIG-0.34  N 
ATOM     18 H    ALA E   4       7.641  -5.865 -11.334  1.00 33.58 LIG 0.16  HD
BRANCH 17 19
ATOM     19  CA  ALA E   4       9.593  -6.175 -11.356  1.00 35.71 LIG 0.18  C 
ATOM     20  CB  ALA E   4      10.438  -5.574 -10.245  1.00 36.03 LIG 0.04  C 
BRANCH 19 21
ATOM     21  C   ALA E   4       9.291  -7.636 -11.053  1.00 37.05 LIG 0.20  C 
ATOM     22 OXT  ALA E   4       9.191  -8.457 -11.962  1.00 36.72 LIG-0.65  OA
ATOM     23 O    ALA E   4       9.144  -8.030  -9.894  1.00 37.61 LIG-0.65  OA
ENDBRANCH 19 21
ENDBRANCH 17 19
ENDBRANCH 14 15
BRANCH 14 24
ATOM     24  CB  LEU E   3       6.864  -2.352 -10.956  1.00 30.03 LIG 0.04  C 
BRANCH 24 25
ATOM     25  CG  LEU E   3       7.266  -0.934 -11.350  1.00 29.85 LIG-0.02  C 
ATOM     26  CD1 LEU E   3       6.156  -0.211 -12.092  1.00 29.46 LIG 0.01  C 
ATOM     27  CD2 LEU E   3       7.667  -0.183 -10.092  1.00 29.65 LIG 0.01  C 
ENDBRANCH 24 25
ENDBRANCH 14 24
ENDBRANCH 12 14
ENDBRANCH 5 10
ENDBRANCH 3 5
BRANCH 1 28
ATOM     28  CA  LEU E   1       1.782  -6.139 -15.039  1.00 29.46 LIG 0.18  C 
BRANCH 28 29
ATOM     29  CB  LEU E   1       1.774  -4.899 -15.934  1.00 29.35 LIG 0.04  C 
BRANCH 29 30
ATOM     30  CG  LEU E   1       0.601  -4.823 -16.922  1.00 30.22 LIG-0.02  C 
ATOM     31  CD2 LEU E   1      -0.289  -3.623 -16.628  1.00 31.32 LIG 0.01  C 
ATOM     32  CD1 LEU E   1      -0.205  -6.109 -16.913  1.00 30.06 LIG 0.01  C 
ENDBRANCH 29 30
ENDBRANCH 28 29
BRANCH 28 33
ATOM     33  N   LEU E   1       0.731  -6.075 -14.028  1.00 28.73 LIG-0.35  N 
ATOM     34  C   GLN E   0       0.160  -7.183 -13.570  1.00 28.95 LIG 0.24  C 
ATOM     35 O    GLN E   0       0.385  -8.295 -14.041  1.00 30.73 LIG-0.27  OA
ATOM     36 H    LEU E   1       0.527  -5.280 -13.769  1.00 28.73 LIG 0.16  HD
BRANCH 34 37
ATOM     37  CA  GLN E   0      -0.816  -7.032 -12.414  1.00 28.12 LIG 0.18  C 
BRANCH 37 38
ATOM     38  CB  GLN E   0      -2.247  -6.995 -12.966  1.00 27.70 LIG 0.04  C 
BRANCH 38 39
ATOM     39  CG  GLN E   0      -3.313  -7.574 -12.038  1.00 26.51 LIG 0.10  C 
BRANCH 39 40
ATOM     40  CD  GLN E   0      -4.549  -8.034 -12.788  1.00 26.51 LIG 0.21  C 
ATOM     41 OE1  GLN E   0      -4.705  -7.741 -13.978  1.00 26.66 LIG-0.27  OA
ATOM     42  NE2 GLN E   0      -5.432  -8.760 -12.104  1.00 24.64 LIG-0.37  N 
ATOM     43 22HE GLN E   0      -6.146  -9.044 -12.490  1.00 24.64 LIG 0.16  HD
ATOM     44 21HE GLN E   0      -5.289  -8.944 -11.276  1.00 24.64 LIG 0.16  HD
ENDBRANCH 39 40
ENDBRANCH 38 39
ENDBRANCH 37 38
BRANCH 37 45
ATOM     45  N   GLN E   0      -0.512  -5.770 -11.652  1.00 28.94 LIG-0.35  N 
ATOM     46  C   ACE E  -1       0.346  -5.730 -10.604  1.00 29.25 LIG 0.21  C 
ATOM     47 O    ACE E  -1       1.296  -6.516 -10.641  1.00 28.69 LIG-0.27  OA
ATOM     48  CH3 ACE E  -1       0.696  -4.300 -10.226  1.00 29.73 LIG 0.12  C 
ATOM     49 H    GLN E   0      -0.933  -5.078 -11.943  1.00 28.94 LIG 0.16  HD
ENDBRANCH 37 45
ENDBRANCH 34 37
ENDBRANCH 28 33
ENDBRANCH 1 28
TORSDOF 19
ENDMDL
MODEL 49
USER: ADFR SOLUTION from run 179
USER: SCORE 13.996894 LL:  -4.413 LR: -11.545 RR:   0.000 FEB:  -5.878
USER: RMSD 8.097505
USER: SEED 178
USER: STATUS no improvement in best in 6 clusters for 5 generations
USER: GENES 21
USER: genes 0 Translation |==|  0.70835 0.37775 0.53381
USER: genes 1 Rotation |==|  0.62337 0.12523 0.80607 0.52558
USER: genes 2 Torsion [C]-N--CA-[CB] |==|  0.41653
USER: genes 3 Torsion [N]-CA--CB-[CG] |==|  0.95136
USER: genes 4 Torsion [CA]-CB--CG-[OD2] |==|  0.90541
USER: genes 5 Torsion [N]-CA--C-[N] |==|  0.90412
USER: genes 6 Torsion [C]-N--CA-[C] |==|  0.76430
USER: genes 7 Torsion [N]-CA--C-[N] |==|  0.98054
USER: genes 8 Torsion [C]-N--CA-[CB] |==|  0.37883
USER: genes 9 Torsion [N]-CA--C-[OXT] |==|  0.49672
USER: genes 10 Torsion [N]-CA--CB-[CG] |==|  0.64331
USER: genes 11 Torsion [CA]-CB--CG-[CD2] |==|  0.86472
USER: genes 12 Torsion [N]-C--CA-[N] |==|  0.94602
USER: genes 13 Torsion [C]-CA--CB-[CG] |==|  0.69900
USER: genes 14 Torsion [CA]-CB--CG-[CD2] |==|  0.65198
USER: genes 15 Torsion [C]-CA--N-[C] |==|  0.60317
USER: genes 16 Torsion [N]-C--CA-[N] |==|  0.32079
USER: genes 17 Torsion [C]-CA--CB-[CG] |==|  0.70240
USER: genes 18 Torsion [CA]-CB--CG-[CD] |==|  0.78569
USER: genes 19 Torsion [CB]-CG--CD-[OE1] |==|  0.32885
USER: genes 20 Torsion [C]-CA--N-[C] |==|  0.76786
ROOT
ATOM      1  C   LEU E   1       7.450  -7.993 -12.666  1.00 28.67 LIG 0.24  C 
ATOM      2 O    LEU E   1       7.324  -8.816 -13.578  1.00 26.53 LIG-0.27  OA
ATOM      3  N   ASP E   2       6.796  -8.077 -11.511  1.00 29.47 LIG-0.35  N 
ATOM      4 H    ASP E   2       6.944  -7.566 -10.835  1.00 29.47 LIG 0.16  HD
ENDROOT
BRANCH 3 5
ATOM      5  CA  ASP E   2       5.756  -9.067 -11.302  1.00 30.54 LIG 0.19  C 
BRANCH 5 6
ATOM      6  CB  ASP E   2       5.670  -9.490  -9.832  1.00 32.40 LIG 0.15  C 
BRANCH 6 7
ATOM      7  CG  ASP E   2       6.912  -9.126  -9.049  1.00 34.09 LIG 0.17  C 
ATOM      8 OD2  ASP E   2       8.012  -9.165  -9.635  1.00 37.71 LIG-0.65  OA
ATOM      9 OD1  ASP E   2       6.792  -8.792  -7.850  1.00 36.77 LIG-0.65  OA
ENDBRANCH 6 7
ENDBRANCH 5 6
BRANCH 5 10
ATOM     10  C   ASP E   2       4.449  -8.452 -11.740  1.00 30.01 LIG 0.24  C 
ATOM     11 O    ASP E   2       3.571  -9.141 -12.259  1.00 27.94 LIG-0.27  OA
ATOM     12  N   LEU E   3       4.329  -7.150 -11.516  1.00 30.14 LIG-0.35  N 
ATOM     13 H    LEU E   3       4.938  -6.673 -11.140  1.00 30.14 LIG 0.16  HD
BRANCH 12 14
ATOM     14  CA  LEU E   3       3.141  -6.405 -11.892  1.00 30.90 LIG 0.18  C 
BRANCH 14 15
ATOM     15  C   LEU E   3       3.243  -5.974 -13.355  1.00 32.33 LIG 0.24  C 
ATOM     16 O    LEU E   3       2.296  -5.411 -13.918  1.00 31.45 LIG-0.27  OA
ATOM     17  N   ALA E   4       4.408  -6.214 -13.949  1.00 33.58 LIG-0.34  N 
ATOM     18 H    ALA E   4       5.067  -6.612 -13.565  1.00 33.58 LIG 0.16  HD
BRANCH 17 19
ATOM     19  CA  ALA E   4       4.673  -5.815 -15.330  1.00 35.71 LIG 0.18  C 
ATOM     20  CB  ALA E   4       6.058  -5.201 -15.446  1.00 36.03 LIG 0.04  C 
BRANCH 19 21
ATOM     21  C   ALA E   4       4.549  -7.009 -16.265  1.00 37.05 LIG 0.20  C 
ATOM     22 OXT  ALA E   4       4.713  -6.877 -17.475  1.00 36.72 LIG-0.65  OA
ATOM     23 O    ALA E   4       4.285  -8.133 -15.832  1.00 37.61 LIG-0.65  OA
ENDBRANCH 19 21
ENDBRANCH 17 19
ENDBRANCH 14 15
BRANCH 14 24
ATOM     24  CB  LEU E   3       2.992  -5.190 -10.974  1.00 30.03 LIG 0.04  C 
BRANCH 24 25
ATOM     25  CG  LEU E   3       1.665  -4.943 -10.262  1.00 29.85 LIG-0.02  C 
ATOM     26  CD1 LEU E   3       1.637  -3.598  -9.559  1.00 29.46 LIG 0.01  C 
ATOM     27  CD2 LEU E   3       0.545  -5.054 -11.282  1.00 29.65 LIG 0.01  C 
ENDBRANCH 24 25
ENDBRANCH 14 24
ENDBRANCH 12 14
ENDBRANCH 5 10
ENDBRANCH 3 5
BRANCH 1 28
ATOM     28  CA  LEU E   1       8.395  -6.812 -12.808  1.00 29.46 LIG 0.18  C 
BRANCH 28 29
ATOM     29  CB  LEU E   1       9.846  -7.264 -12.637  1.00 29.35 LIG 0.04  C 
BRANCH 29 30
ATOM     30  CG  LEU E   1      10.510  -6.819 -11.326  1.00 30.22 LIG-0.02  C 
ATOM     31  CD2 LEU E   1      11.804  -6.064 -11.595  1.00 31.32 LIG 0.01  C 
ATOM     32  CD1 LEU E   1      10.755  -8.003 -10.408  1.00 30.06 LIG 0.01  C 
ENDBRANCH 29 30
ENDBRANCH 28 29
BRANCH 28 33
ATOM     33  N   LEU E   1       8.035  -5.788 -11.832  1.00 28.73 LIG-0.35  N 
ATOM     34  C   GLN E   0       8.119  -4.498 -12.138  1.00 28.95 LIG 0.24  C 
ATOM     35 O    GLN E   0       8.606  -4.092 -13.190  1.00 30.73 LIG-0.27  OA
ATOM     36 H    LEU E   1       7.776  -6.091 -11.070  1.00 28.73 LIG 0.16  HD
BRANCH 34 37
ATOM     37  CA  GLN E   0       7.586  -3.508 -11.115  1.00 28.12 LIG 0.18  C 
BRANCH 37 38
ATOM     38  CB  GLN E   0       6.514  -2.631 -11.775  1.00 27.70 LIG 0.04  C 
BRANCH 38 39
ATOM     39  CG  GLN E   0       6.941  -1.192 -12.057  1.00 26.51 LIG 0.10  C 
BRANCH 39 40
ATOM     40  CD  GLN E   0       6.934  -0.328 -10.810  1.00 26.51 LIG 0.21  C 
ATOM     41 OE1  GLN E   0       7.978   0.193 -10.402  1.00 26.66 LIG-0.27  OA
ATOM     42  NE2 GLN E   0       5.762  -0.167 -10.197  1.00 24.64 LIG-0.37  N 
ATOM     43 22HE GLN E   0       5.711   0.317  -9.487  1.00 24.64 LIG 0.16  HD
ATOM     44 21HE GLN E   0       5.057  -0.546 -10.511  1.00 24.64 LIG 0.16  HD
ENDBRANCH 39 40
ENDBRANCH 38 39
ENDBRANCH 37 38
BRANCH 37 45
ATOM     45  N   GLN E   0       8.714  -2.659 -10.592  1.00 28.94 LIG-0.35  N 
ATOM     46  C   ACE E  -1       9.532  -3.057  -9.588  1.00 29.25 LIG 0.21  C 
ATOM     47 O    ACE E  -1       9.759  -4.268  -9.511  1.00 28.69 LIG-0.27  OA
ATOM     48  CH3 ACE E  -1      10.751  -2.156  -9.474  1.00 29.73 LIG 0.12  C 
ATOM     49 H    GLN E   0       8.790  -1.900 -10.989  1.00 28.94 LIG 0.16  HD
ENDBRANCH 37 45
ENDBRANCH 34 37
ENDBRANCH 28 33
ENDBRANCH 1 28
TORSDOF 19
ENDMDL
MODEL 50
USER: ADFR SOLUTION from run 107
USER: SCORE 12.836323 LL:  -3.513 LR: -11.546 RR:   0.000 FEB:  -5.878
USER: RMSD 3.214174
USER: SEED 106
USER: STATUS no improvement in best in 4 clusters for 5 generations
USER: GENES 21
USER: genes 0 Translation |==|  0.51553 0.46361 0.54159
USER: genes 1 Rotation |==|  0.38607 0.47467 0.41698 0.97905
USER: genes 2 Torsion [C]-N--CA-[CB] |==|  0.46333
USER: genes 3 Torsion [N]-CA--CB-[CG] |==|  0.56672
USER: genes 4 Torsion [CA]-CB--CG-[OD2] |==|  0.70256
USER: genes 5 Torsion [N]-CA--C-[N] |==|  0.26784
USER: genes 6 Torsion [C]-N--CA-[C] |==|  0.56816
USER: genes 7 Torsion [N]-CA--C-[N] |==|  0.98333
USER: genes 8 Torsion [C]-N--CA-[CB] |==|  0.84284
USER: genes 9 Torsion [N]-CA--C-[OXT] |==|  0.01893
USER: genes 10 Torsion [N]-CA--CB-[CG] |==|  0.59381
USER: genes 11 Torsion [CA]-CB--CG-[CD2] |==|  0.70686
USER: genes 12 Torsion [N]-C--CA-[N] |==|  0.34839
USER: genes 13 Torsion [C]-CA--CB-[CG] |==|  0.60365
USER: genes 14 Torsion [CA]-CB--CG-[CD2] |==|  0.82206
USER: genes 15 Torsion [C]-CA--N-[C] |==|  0.73149
USER: genes 16 Torsion [N]-C--CA-[N] |==|  0.39236
USER: genes 17 Torsion [C]-CA--CB-[CG] |==|  0.39540
USER: genes 18 Torsion [CA]-CB--CG-[CD] |==|  0.80280
USER: genes 19 Torsion [CB]-CG--CD-[OE1] |==|  0.87844
USER: genes 20 Torsion [C]-CA--N-[C] |==|  0.80147
ROOT
ATOM      1  C   LEU E   1       3.111  -6.447 -12.538  1.00 28.67 LIG 0.24  C 
ATOM      2 O    LEU E   1       3.368  -5.371 -11.988  1.00 26.53 LIG-0.27  OA
ATOM      3  N   ASP E   2       3.832  -7.550 -12.353  1.00 29.47 LIG-0.35  N 
ATOM      4 H    ASP E   2       3.611  -8.325 -12.653  1.00 29.47 LIG 0.16  HD
ENDROOT
BRANCH 3 5
ATOM      5  CA  ASP E   2       5.078  -7.523 -11.610  1.00 30.54 LIG 0.19  C 
BRANCH 5 6
ATOM      6  CB  ASP E   2       5.551  -8.936 -11.255  1.00 32.40 LIG 0.15  C 
BRANCH 6 7
ATOM      7  CG  ASP E   2       6.461  -8.959 -10.047  1.00 34.09 LIG 0.17  C 
ATOM      8 OD2  ASP E   2       7.677  -9.166 -10.228  1.00 37.71 LIG-0.65  OA
ATOM      9 OD1  ASP E   2       5.966  -8.761  -8.916  1.00 36.77 LIG-0.65  OA
ENDBRANCH 6 7
ENDBRANCH 5 6
BRANCH 5 10
ATOM     10  C   ASP E   2       6.107  -6.835 -12.474  1.00 30.01 LIG 0.24  C 
ATOM     11 O    ASP E   2       6.718  -7.460 -13.342  1.00 27.94 LIG-0.27  OA
ATOM     12  N   LEU E   3       6.283  -5.543 -12.233  1.00 30.14 LIG-0.35  N 
ATOM     13 H    LEU E   3       5.845  -5.106 -11.636  1.00 30.14 LIG 0.16  HD
BRANCH 12 14
ATOM     14  CA  LEU E   3       7.245  -4.741 -12.966  1.00 30.90 LIG 0.18  C 
BRANCH 14 15
ATOM     15  C   LEU E   3       7.664  -3.537 -12.123  1.00 32.33 LIG 0.24  C 
ATOM     16 O    LEU E   3       8.541  -2.760 -12.519  1.00 31.45 LIG-0.27  OA
ATOM     17  N   ALA E   4       7.008  -3.377 -10.978  1.00 33.58 LIG-0.34  N 
ATOM     18 H    ALA E   4       6.403  -3.918 -10.694  1.00 33.58 LIG 0.16  HD
BRANCH 17 19
ATOM     19  CA  ALA E   4       7.262  -2.245 -10.088  1.00 35.71 LIG 0.18  C 
ATOM     20  CB  ALA E   4       8.731  -2.199  -9.699  1.00 36.03 LIG 0.04  C 
BRANCH 19 21
ATOM     21  C   ALA E   4       6.856  -0.939 -10.756  1.00 37.05 LIG 0.20  C 
ATOM     22 OXT  ALA E   4       6.273  -0.943 -11.838  1.00 36.72 LIG-0.65  OA
ATOM     23 O    ALA E   4       7.098   0.149 -10.229  1.00 37.61 LIG-0.65  OA
ENDBRANCH 19 21
ENDBRANCH 17 19
ENDBRANCH 14 15
BRANCH 14 24
ATOM     24  CB  LEU E   3       6.628  -4.291 -14.291  1.00 30.03 LIG 0.04  C 
BRANCH 24 25
ATOM     25  CG  LEU E   3       7.513  -4.147 -15.525  1.00 29.85 LIG-0.02  C 
ATOM     26  CD1 LEU E   3       6.918  -4.836 -16.739  1.00 29.46 LIG 0.01  C 
ATOM     27  CD2 LEU E   3       7.734  -2.666 -15.786  1.00 29.65 LIG 0.01  C 
ENDBRANCH 24 25
ENDBRANCH 14 24
ENDBRANCH 12 14
ENDBRANCH 5 10
ENDBRANCH 3 5
BRANCH 1 28
ATOM     28  CA  LEU E   1       1.919  -6.582 -13.468  1.00 29.46 LIG 0.18  C 
BRANCH 28 29
ATOM     29  CB  LEU E   1       2.153  -5.792 -14.756  1.00 29.35 LIG 0.04  C 
BRANCH 29 30
ATOM     30  CG  LEU E   1       0.905  -5.097 -15.322  1.00 30.22 LIG-0.02  C 
ATOM     31  CD2 LEU E   1      -0.147  -6.114 -15.742  1.00 31.32 LIG 0.01  C 
ATOM     32  CD1 LEU E   1       1.266  -4.184 -16.479  1.00 30.06 LIG 0.01  C 
ENDBRANCH 29 30
ENDBRANCH 28 29
BRANCH 28 33
ATOM     33  N   LEU E   1       0.715  -6.133 -12.776  1.00 28.73 LIG-0.35  N 
ATOM     34  C   GLN E   0      -0.094  -7.005 -12.184  1.00 28.95 LIG 0.24  C 
ATOM     35 O    GLN E   0       0.049  -8.221 -12.281  1.00 30.73 LIG-0.27  OA
ATOM     36 H    LEU E   1       0.586  -5.283 -12.791  1.00 28.73 LIG 0.16  HD
BRANCH 34 37
ATOM     37  CA  GLN E   0      -1.241  -6.438 -11.364  1.00 28.12 LIG 0.18  C 
BRANCH 37 38
ATOM     38  CB  GLN E   0      -0.837  -6.412  -9.884  1.00 27.70 LIG 0.04  C 
BRANCH 38 39
ATOM     39  CG  GLN E   0      -1.329  -5.195  -9.102  1.00 26.51 LIG 0.10  C 
BRANCH 39 40
ATOM     40  CD  GLN E   0      -0.607  -3.921  -9.496  1.00 26.51 LIG 0.21  C 
ATOM     41 OE1  GLN E   0       0.620  -3.917  -9.650  1.00 26.66 LIG-0.27  OA
ATOM     42  NE2 GLN E   0      -1.356  -2.832  -9.665  1.00 24.64 LIG-0.37  N 
ATOM     43 22HE GLN E   0      -0.988  -2.088  -9.891  1.00 24.64 LIG 0.16  HD
ATOM     44 21HE GLN E   0      -2.207  -2.874  -9.549  1.00 24.64 LIG 0.16  HD
ENDBRANCH 39 40
ENDBRANCH 38 39
ENDBRANCH 37 38
BRANCH 37 45
ATOM     45  N   GLN E   0      -2.473  -7.281 -11.559  1.00 28.94 LIG-0.35  N 
ATOM     46  C   ACE E  -1      -3.183  -7.292 -12.713  1.00 29.25 LIG 0.21  C 
ATOM     47 O    ACE E  -1      -2.543  -7.117 -13.754  1.00 28.69 LIG-0.27  OA
ATOM     48  CH3 ACE E  -1      -4.176  -8.442 -12.743  1.00 29.73 LIG 0.12  C 
ATOM     49 H    GLN E   0      -2.683  -7.754 -10.872  1.00 28.94 LIG 0.16  HD
ENDBRANCH 37 45
ENDBRANCH 34 37
ENDBRANCH 28 33
ENDBRANCH 1 28
TORSDOF 19
ENDMDL
MODEL 51
USER: ADFR SOLUTION from run 92
USER: SCORE 14.700319 LL:  -5.040 LR: -11.539 RR:   0.000 FEB:  -5.872
USER: RMSD 4.401843
USER: SEED 91
USER: STATUS no improvement in best in 13 clusters for 5 generations
USER: GENES 21
USER: genes 0 Translation |==|  0.49051 0.52255 0.60639
USER: genes 1 Rotation |==|  0.54270 0.65423 0.37706 0.95747
USER: genes 2 Torsion [C]-N--CA-[CB] |==|  0.50085
USER: genes 3 Torsion [N]-CA--CB-[CG] |==|  0.90009
USER: genes 4 Torsion [CA]-CB--CG-[OD2] |==|  0.79692
USER: genes 5 Torsion [N]-CA--C-[N] |==|  0.27524
USER: genes 6 Torsion [C]-N--CA-[C] |==|  0.69207
USER: genes 7 Torsion [N]-CA--C-[N] |==|  0.95141
USER: genes 8 Torsion [C]-N--CA-[CB] |==|  0.19584
USER: genes 9 Torsion [N]-CA--C-[OXT] |==|  0.36404
USER: genes 10 Torsion [N]-CA--CB-[CG] |==|  0.48970
USER: genes 11 Torsion [CA]-CB--CG-[CD2] |==|  0.61725
USER: genes 12 Torsion [N]-C--CA-[N] |==|  0.07062
USER: genes 13 Torsion [C]-CA--CB-[CG] |==|  0.56674
USER: genes 14 Torsion [CA]-CB--CG-[CD2] |==|  0.65215
USER: genes 15 Torsion [C]-CA--N-[C] |==|  0.16929
USER: genes 16 Torsion [N]-C--CA-[N] |==|  0.17388
USER: genes 17 Torsion [C]-CA--CB-[CG] |==|  0.79331
USER: genes 18 Torsion [CA]-CB--CG-[CD] |==|  0.75968
USER: genes 19 Torsion [CB]-CG--CD-[OE1] |==|  0.83221
USER: genes 20 Torsion [C]-CA--N-[C] |==|  0.60875
ROOT
ATOM      1  C   LEU E   1       2.549  -5.386 -11.469  1.00 28.67 LIG 0.24  C 
ATOM      2 O    LEU E   1       3.452  -5.034 -10.703  1.00 26.53 LIG-0.27  OA
ATOM      3  N   ASP E   2       2.696  -6.345 -12.378  1.00 29.47 LIG-0.35  N 
ATOM      4 H    ASP E   2       2.052  -6.663 -12.851  1.00 29.47 LIG 0.16  HD
ENDROOT
BRANCH 3 5
ATOM      5  CA  ASP E   2       3.993  -6.940 -12.646  1.00 30.54 LIG 0.19  C 
BRANCH 5 6
ATOM      6  CB  ASP E   2       3.904  -8.012 -13.737  1.00 32.40 LIG 0.15  C 
BRANCH 6 7
ATOM      7  CG  ASP E   2       2.616  -8.803 -13.671  1.00 34.09 LIG 0.17  C 
ATOM      8 OD2  ASP E   2       2.477  -9.631 -12.751  1.00 37.71 LIG-0.65  OA
ATOM      9 OD1  ASP E   2       1.735  -8.592 -14.534  1.00 36.77 LIG-0.65  OA
ENDBRANCH 6 7
ENDBRANCH 5 6
BRANCH 5 10
ATOM     10  C   ASP E   2       4.918  -5.832 -13.084  1.00 30.01 LIG 0.24  C 
ATOM     11 O    ASP E   2       4.895  -5.414 -14.243  1.00 27.94 LIG-0.27  OA
ATOM     12  N   LEU E   3       5.724  -5.356 -12.145  1.00 30.14 LIG-0.35  N 
ATOM     13 H    LEU E   3       5.729  -5.639 -11.333  1.00 30.14 LIG 0.16  HD
BRANCH 12 14
ATOM     14  CA  LEU E   3       6.685  -4.300 -12.408  1.00 30.90 LIG 0.18  C 
BRANCH 14 15
ATOM     15  C   LEU E   3       8.104  -4.863 -12.340  1.00 32.33 LIG 0.24  C 
ATOM     16 O    LEU E   3       9.059  -4.233 -12.810  1.00 31.45 LIG-0.27  OA
ATOM     17  N   ALA E   4       8.232  -6.034 -11.724  1.00 33.58 LIG-0.34  N 
ATOM     18 H    ALA E   4       7.571  -6.480 -11.403  1.00 33.58 LIG 0.16  HD
BRANCH 17 19
ATOM     19  CA  ALA E   4       9.533  -6.675 -11.537  1.00 35.71 LIG 0.18  C 
ATOM     20  CB  ALA E   4      10.357  -5.908 -10.515  1.00 36.03 LIG 0.04  C 
BRANCH 19 21
ATOM     21  C   ALA E   4       9.357  -8.120 -11.091  1.00 37.05 LIG 0.20  C 
ATOM     22 OXT  ALA E   4       9.969  -9.026 -11.651  1.00 36.72 LIG-0.65  OA
ATOM     23 O    ALA E   4       8.604  -8.413 -10.161  1.00 37.61 LIG-0.65  OA
ENDBRANCH 19 21
ENDBRANCH 17 19
ENDBRANCH 14 15
BRANCH 14 24
ATOM     24  CB  LEU E   3       6.494  -3.174 -11.390  1.00 30.03 LIG 0.04  C 
BRANCH 24 25
ATOM     25  CG  LEU E   3       7.443  -1.980 -11.401  1.00 29.85 LIG-0.02  C 
ATOM     26  CD1 LEU E   3       6.846  -0.783 -12.121  1.00 29.46 LIG 0.01  C 
ATOM     27  CD2 LEU E   3       7.798  -1.636  -9.964  1.00 29.65 LIG 0.01  C 
ENDBRANCH 24 25
ENDBRANCH 14 24
ENDBRANCH 12 14
ENDBRANCH 5 10
ENDBRANCH 3 5
BRANCH 1 28
ATOM     28  CA  LEU E   1       1.177  -4.739 -11.404  1.00 29.46 LIG 0.18  C 
BRANCH 28 29
ATOM     29  CB  LEU E   1       0.859  -4.297  -9.975  1.00 29.35 LIG 0.04  C 
BRANCH 29 30
ATOM     30  CG  LEU E   1      -0.638  -4.175  -9.655  1.00 30.22 LIG-0.02  C 
ATOM     31  CD2 LEU E   1      -0.974  -2.791  -9.116  1.00 31.32 LIG 0.01  C 
ATOM     32  CD1 LEU E   1      -1.078  -5.255  -8.684  1.00 30.06 LIG 0.01  C 
ENDBRANCH 29 30
ENDBRANCH 28 29
BRANCH 28 33
ATOM     33  N   LEU E   1       0.178  -5.678 -11.907  1.00 28.73 LIG-0.35  N 
ATOM     34  C   GLN E   0      -0.016  -6.849 -11.311  1.00 28.95 LIG 0.24  C 
ATOM     35 O    GLN E   0       0.697  -7.259 -10.398  1.00 30.73 LIG-0.27  OA
ATOM     36 H    LEU E   1      -0.255  -5.407 -12.600  1.00 28.73 LIG 0.16  HD
BRANCH 34 37
ATOM     37  CA  GLN E   0      -1.174  -7.697 -11.810  1.00 28.12 LIG 0.18  C 
BRANCH 37 38
ATOM     38  CB  GLN E   0      -1.290  -8.954 -10.939  1.00 27.70 LIG 0.04  C 
BRANCH 38 39
ATOM     39  CG  GLN E   0      -0.221 -10.015 -11.192  1.00 26.51 LIG 0.10  C 
BRANCH 39 40
ATOM     40  CD  GLN E   0      -0.599 -10.964 -12.315  1.00 26.51 LIG 0.21  C 
ATOM     41 OE1  GLN E   0      -1.620 -11.656 -12.234  1.00 26.66 LIG-0.27  OA
ATOM     42  NE2 GLN E   0       0.214 -11.002 -13.369  1.00 24.64 LIG-0.37  N 
ATOM     43 22HE GLN E   0       0.038 -11.523 -14.030  1.00 24.64 LIG 0.16  HD
ATOM     44 21HE GLN E   0       0.916 -10.505 -13.389  1.00 24.64 LIG 0.16  HD
ENDBRANCH 39 40
ENDBRANCH 38 39
ENDBRANCH 37 38
BRANCH 37 45
ATOM     45  N   GLN E   0      -0.947  -8.072 -13.251  1.00 28.94 LIG-0.35  N 
ATOM     46  C   ACE E  -1      -1.942  -8.106 -14.170  1.00 29.25 LIG 0.21  C 
ATOM     47 O    ACE E  -1      -2.858  -7.292 -14.018  1.00 28.69 LIG-0.27  OA
ATOM     48  CH3 ACE E  -1      -1.390  -8.212 -15.582  1.00 29.73 LIG 0.12  C 
ATOM     49 H    GLN E   0      -0.129  -8.263 -13.435  1.00 28.94 LIG 0.16  HD
ENDBRANCH 37 45
ENDBRANCH 34 37
ENDBRANCH 28 33
ENDBRANCH 1 28
TORSDOF 19
ENDMDL
MODEL 52
USER: ADFR SOLUTION from run 174
USER: SCORE 13.192649 LL:  -4.153 LR: -11.541 RR:   0.000 FEB:  -5.874
USER: RMSD 9.212173
USER: SEED 173
USER: STATUS no improvement in best in 18 clusters for 5 generations
USER: GENES 21
USER: genes 0 Translation |==|  0.31487 0.42596 0.48851
USER: genes 1 Rotation |==|  0.56127 0.04245 0.63791 0.63371
USER: genes 2 Torsion [C]-N--CA-[CB] |==|  0.24247
USER: genes 3 Torsion [N]-CA--CB-[CG] |==|  0.14312
USER: genes 4 Torsion [CA]-CB--CG-[OD2] |==|  0.25254
USER: genes 5 Torsion [N]-CA--C-[N] |==|  0.04824
USER: genes 6 Torsion [C]-N--CA-[C] |==|  0.54225
USER: genes 7 Torsion [N]-CA--C-[N] |==|  0.08405
USER: genes 8 Torsion [C]-N--CA-[CB] |==|  0.28463
USER: genes 9 Torsion [N]-CA--C-[OXT] |==|  0.91676
USER: genes 10 Torsion [N]-CA--CB-[CG] |==|  0.62878
USER: genes 11 Torsion [CA]-CB--CG-[CD2] |==|  0.90822
USER: genes 12 Torsion [N]-C--CA-[N] |==|  0.54444
USER: genes 13 Torsion [C]-CA--CB-[CG] |==|  0.34220
USER: genes 14 Torsion [CA]-CB--CG-[CD2] |==|  0.25278
USER: genes 15 Torsion [C]-CA--N-[C] |==|  0.76422
USER: genes 16 Torsion [N]-C--CA-[N] |==|  0.92520
USER: genes 17 Torsion [C]-CA--CB-[CG] |==|  0.30340
USER: genes 18 Torsion [CA]-CB--CG-[CD] |==|  0.07942
USER: genes 19 Torsion [CB]-CG--CD-[OE1] |==|  0.23151
USER: genes 20 Torsion [C]-CA--N-[C] |==|  0.64594
ROOT
ATOM      1  C   LEU E   1      -1.403  -7.125 -13.414  1.00 28.67 LIG 0.24  C 
ATOM      2 O    LEU E   1      -2.112  -7.057 -14.423  1.00 26.53 LIG-0.27  OA
ATOM      3  N   ASP E   2      -1.828  -7.625 -12.257  1.00 29.47 LIG-0.35  N 
ATOM      4 H    ASP E   2      -1.321  -7.764 -11.577  1.00 29.47 LIG 0.16  HD
ENDROOT
BRANCH 3 5
ATOM      5  CA  ASP E   2      -3.220  -7.982 -12.054  1.00 30.54 LIG 0.19  C 
BRANCH 5 6
ATOM      6  CB  ASP E   2      -3.503  -9.418 -12.508  1.00 32.40 LIG 0.15  C 
BRANCH 6 7
ATOM      7  CG  ASP E   2      -2.539 -10.418 -11.910  1.00 34.09 LIG 0.17  C 
ATOM      8 OD2  ASP E   2      -2.843 -10.959 -10.830  1.00 37.71 LIG-0.65  OA
ATOM      9 OD1  ASP E   2      -1.478 -10.672 -12.523  1.00 36.77 LIG-0.65  OA
ENDBRANCH 6 7
ENDBRANCH 5 6
BRANCH 5 10
ATOM     10  C   ASP E   2      -3.515  -7.838 -10.581  1.00 30.01 LIG 0.24  C 
ATOM     11 O    ASP E   2      -4.503  -8.377 -10.081  1.00 27.94 LIG-0.27  OA
ATOM     12  N   LEU E   3      -2.643  -7.114  -9.892  1.00 30.14 LIG-0.35  N 
ATOM     13 H    LEU E   3      -1.945  -6.751 -10.240  1.00 30.14 LIG 0.16  HD
BRANCH 12 14
ATOM     14  CA  LEU E   3      -2.790  -6.868  -8.469  1.00 30.90 LIG 0.18  C 
BRANCH 14 15
ATOM     15  C   LEU E   3      -1.873  -5.721  -8.046  1.00 32.33 LIG 0.24  C 
ATOM     16 O    LEU E   3      -1.375  -5.692  -6.914  1.00 31.45 LIG-0.27  OA
ATOM     17  N   ALA E   4      -1.632  -4.800  -8.974  1.00 33.58 LIG-0.34  N 
ATOM     18 H    ALA E   4      -1.982  -4.811  -9.759  1.00 33.58 LIG 0.16  HD
BRANCH 17 19
ATOM     19  CA  ALA E   4      -0.736  -3.670  -8.733  1.00 35.71 LIG 0.18  C 
ATOM     20  CB  ALA E   4       0.608  -3.912  -9.400  1.00 36.03 LIG 0.04  C 
BRANCH 19 21
ATOM     21  C   ALA E   4      -1.353  -2.379  -9.250  1.00 37.05 LIG 0.20  C 
ATOM     22 OXT  ALA E   4      -2.120  -2.392 -10.211  1.00 36.72 LIG-0.65  OA
ATOM     23 O    ALA E   4      -1.103  -1.295  -8.719  1.00 37.61 LIG-0.65  OA
ENDBRANCH 19 21
ENDBRANCH 17 19
ENDBRANCH 14 15
BRANCH 14 24
ATOM     24  CB  LEU E   3      -2.460  -8.145  -7.695  1.00 30.03 LIG 0.04  C 
BRANCH 24 25
ATOM     25  CG  LEU E   3      -3.387  -8.608  -6.575  1.00 29.85 LIG-0.02  C 
ATOM     26  CD1 LEU E   3      -2.670  -9.490  -5.569  1.00 29.46 LIG 0.01  C 
ATOM     27  CD2 LEU E   3      -3.979  -7.379  -5.905  1.00 29.65 LIG 0.01  C 
ENDBRANCH 24 25
ENDBRANCH 14 24
ENDBRANCH 12 14
ENDBRANCH 5 10
ENDBRANCH 3 5
BRANCH 1 28
ATOM     28  CA  LEU E   1       0.036  -6.643 -13.438  1.00 29.46 LIG 0.18  C 
BRANCH 28 29
ATOM     29  CB  LEU E   1       0.375  -5.901 -12.144  1.00 29.35 LIG 0.04  C 
BRANCH 29 30
ATOM     30  CG  LEU E   1       1.571  -6.472 -11.368  1.00 30.22 LIG-0.02  C 
ATOM     31  CD2 LEU E   1       2.871  -5.802 -11.792  1.00 31.32 LIG 0.01  C 
ATOM     32  CD1 LEU E   1       1.661  -7.978 -11.532  1.00 30.06 LIG 0.01  C 
ENDBRANCH 29 30
ENDBRANCH 28 29
BRANCH 28 33
ATOM     33  N   LEU E   1       0.240  -5.794 -14.609  1.00 28.73 LIG-0.35  N 
ATOM     34  C   GLN E   0       0.533  -6.326 -15.790  1.00 28.95 LIG 0.24  C 
ATOM     35 O    GLN E   0       0.766  -7.522 -15.945  1.00 30.73 LIG-0.27  OA
ATOM     36 H    LEU E   1       0.155  -4.951 -14.462  1.00 28.73 LIG 0.16  HD
BRANCH 34 37
ATOM     37  CA  GLN E   0       0.581  -5.381 -16.981  1.00 28.12 LIG 0.18  C 
BRANCH 37 38
ATOM     38  CB  GLN E   0       2.028  -4.919 -17.198  1.00 27.70 LIG 0.04  C 
BRANCH 38 39
ATOM     39  CG  GLN E   0       2.708  -5.487 -18.441  1.00 26.51 LIG 0.10  C 
BRANCH 39 40
ATOM     40  CD  GLN E   0       1.721  -5.805 -19.549  1.00 26.51 LIG 0.21  C 
ATOM     41 OE1  GLN E   0       1.336  -4.918 -20.319  1.00 26.66 LIG-0.27  OA
ATOM     42  NE2 GLN E   0       1.306  -7.068 -19.641  1.00 24.64 LIG-0.37  N 
ATOM     43 22HE GLN E   0       0.748  -7.293 -20.255  1.00 24.64 LIG 0.16  HD
ATOM     44 21HE GLN E   0       1.596  -7.657 -19.086  1.00 24.64 LIG 0.16  HD
ENDBRANCH 39 40
ENDBRANCH 38 39
ENDBRANCH 37 38
BRANCH 37 45
ATOM     45  N   GLN E   0      -0.319  -4.200 -16.731  1.00 28.94 LIG-0.35  N 
ATOM     46  C   ACE E  -1      -1.275  -3.804 -17.606  1.00 29.25 LIG 0.21  C 
ATOM     47 O    ACE E  -1      -1.814  -4.693 -18.271  1.00 28.69 LIG-0.27  OA
ATOM     48  CH3 ACE E  -1      -2.222  -2.797 -16.974  1.00 29.73 LIG 0.12  C 
ATOM     49 H    GLN E   0      -0.169  -3.801 -15.984  1.00 28.94 LIG 0.16  HD
ENDBRANCH 37 45
ENDBRANCH 34 37
ENDBRANCH 28 33
ENDBRANCH 1 28
TORSDOF 19
ENDMDL
MODEL 53
USER: ADFR SOLUTION from run 35
USER: SCORE 12.903737 LL:  -3.572 LR: -11.533 RR:   0.000 FEB:  -5.865
USER: RMSD 9.363471
USER: SEED 34
USER: STATUS no improvement in best in 10 clusters for 5 generations
USER: GENES 21
USER: genes 0 Translation |==|  0.39867 0.48715 0.62437
USER: genes 1 Rotation |==|  0.50152 0.20273 0.73862 0.82356
USER: genes 2 Torsion [C]-N--CA-[CB] |==|  0.89007
USER: genes 3 Torsion [N]-CA--CB-[CG] |==|  0.69426
USER: genes 4 Torsion [CA]-CB--CG-[OD2] |==|  0.53823
USER: genes 5 Torsion [N]-CA--C-[N] |==|  0.81111
USER: genes 6 Torsion [C]-N--CA-[C] |==|  0.69107
USER: genes 7 Torsion [N]-CA--C-[N] |==|  0.36841
USER: genes 8 Torsion [C]-N--CA-[CB] |==|  0.31387
USER: genes 9 Torsion [N]-CA--C-[OXT] |==|  0.54377
USER: genes 10 Torsion [N]-CA--CB-[CG] |==|  0.77743
USER: genes 11 Torsion [CA]-CB--CG-[CD2] |==|  0.17982
USER: genes 12 Torsion [N]-C--CA-[N] |==|  0.57477
USER: genes 13 Torsion [C]-CA--CB-[CG] |==|  0.39279
USER: genes 14 Torsion [CA]-CB--CG-[CD2] |==|  0.85408
USER: genes 15 Torsion [C]-CA--N-[C] |==|  0.66163
USER: genes 16 Torsion [N]-C--CA-[N] |==|  0.66212
USER: genes 17 Torsion [C]-CA--CB-[CG] |==|  0.39155
USER: genes 18 Torsion [CA]-CB--CG-[CD] |==|  0.75386
USER: genes 19 Torsion [CB]-CG--CD-[OE1] |==|  0.85146
USER: genes 20 Torsion [C]-CA--N-[C] |==|  0.14839
ROOT
ATOM      1  C   LEU E   1       0.482  -6.023 -11.172  1.00 28.67 LIG 0.24  C 
ATOM      2 O    LEU E   1      -0.739  -6.153 -11.303  1.00 26.53 LIG-0.27  OA
ATOM      3  N   ASP E   2       1.055  -5.601 -10.048  1.00 29.47 LIG-0.35  N 
ATOM      4 H    ASP E   2       1.904  -5.596  -9.913  1.00 29.47 LIG 0.16  HD
ENDROOT
BRANCH 3 5
ATOM      5  CA  ASP E   2       0.264  -5.104  -8.937  1.00 30.54 LIG 0.19  C 
BRANCH 5 6
ATOM      6  CB  ASP E   2      -0.912  -4.251  -9.423  1.00 32.40 LIG 0.15  C 
BRANCH 6 7
ATOM      7  CG  ASP E   2      -0.741  -2.784  -9.096  1.00 34.09 LIG 0.17  C 
ATOM      8 OD2  ASP E   2      -1.731  -2.035  -9.202  1.00 37.71 LIG-0.65  OA
ATOM      9 OD1  ASP E   2       0.382  -2.377  -8.724  1.00 36.77 LIG-0.65  OA
ENDBRANCH 6 7
ENDBRANCH 5 6
BRANCH 5 10
ATOM     10  C   ASP E   2      -0.247  -6.301  -8.173  1.00 30.01 LIG 0.24  C 
ATOM     11 O    ASP E   2       0.153  -6.537  -7.032  1.00 27.94 LIG-0.27  OA
ATOM     12  N   LEU E   3      -1.140  -7.047  -8.810  1.00 30.14 LIG-0.35  N 
ATOM     13 H    LEU E   3      -1.428  -6.872  -9.601  1.00 30.14 LIG 0.16  HD
BRANCH 12 14
ATOM     14  CA  LEU E   3      -1.717  -8.240  -8.220  1.00 30.90 LIG 0.18  C 
BRANCH 14 15
ATOM     15  C   LEU E   3      -1.216  -9.479  -8.963  1.00 32.33 LIG 0.24  C 
ATOM     16 O    LEU E   3      -1.199  -9.512 -10.200  1.00 31.45 LIG-0.27  OA
ATOM     17  N   ALA E   4      -0.782 -10.476  -8.199  1.00 33.58 LIG-0.34  N 
ATOM     18 H    ALA E   4      -0.799 -10.461  -7.339  1.00 33.58 LIG 0.16  HD
BRANCH 17 19
ATOM     19  CA  ALA E   4      -0.228 -11.704  -8.766  1.00 35.71 LIG 0.18  C 
ATOM     20  CB  ALA E   4       1.254 -11.814  -8.442  1.00 36.03 LIG 0.04  C 
BRANCH 19 21
ATOM     21  C   ALA E   4      -0.971 -12.921  -8.234  1.00 37.05 LIG 0.20  C 
ATOM     22 OXT  ALA E   4      -0.494 -14.047  -8.351  1.00 36.72 LIG-0.65  OA
ATOM     23 O    ALA E   4      -2.064 -12.806  -7.674  1.00 37.61 LIG-0.65  OA
ENDBRANCH 19 21
ENDBRANCH 17 19
ENDBRANCH 14 15
BRANCH 14 24
ATOM     24  CB  LEU E   3      -3.242  -8.149  -8.277  1.00 30.03 LIG 0.04  C 
BRANCH 24 25
ATOM     25  CG  LEU E   3      -3.987  -7.318  -7.236  1.00 29.85 LIG-0.02  C 
ATOM     26  CD1 LEU E   3      -3.707  -7.792  -5.821  1.00 29.46 LIG 0.01  C 
ATOM     27  CD2 LEU E   3      -3.594  -5.861  -7.415  1.00 29.65 LIG 0.01  C 
ENDBRANCH 24 25
ENDBRANCH 14 24
ENDBRANCH 12 14
ENDBRANCH 5 10
ENDBRANCH 3 5
BRANCH 1 28
ATOM     28  CA  LEU E   1       1.428  -6.362 -12.311  1.00 29.46 LIG 0.18  C 
BRANCH 28 29
ATOM     29  CB  LEU E   1       2.689  -5.500 -12.234  1.00 29.35 LIG 0.04  C 
BRANCH 29 30
ATOM     30  CG  LEU E   1       3.991  -6.229 -12.598  1.00 30.22 LIG-0.02  C 
ATOM     31  CD2 LEU E   1       4.147  -7.511 -11.792  1.00 31.32 LIG 0.01  C 
ATOM     32  CD1 LEU E   1       5.194  -5.323 -12.411  1.00 30.06 LIG 0.01  C 
ENDBRANCH 29 30
ENDBRANCH 28 29
BRANCH 28 33
ATOM     33  N   LEU E   1       0.734  -6.181 -13.582  1.00 28.73 LIG-0.35  N 
ATOM     34  C   GLN E   0       0.613  -7.189 -14.440  1.00 28.95 LIG 0.24  C 
ATOM     35 O    GLN E   0       1.167  -8.273 -14.278  1.00 30.73 LIG-0.27  OA
ATOM     36 H    LEU E   1       0.424  -5.390 -13.716  1.00 28.73 LIG 0.16  HD
BRANCH 34 37
ATOM     37  CA  GLN E   0      -0.250  -6.952 -15.668  1.00 28.12 LIG 0.18  C 
BRANCH 37 38
ATOM     38  CB  GLN E   0      -0.816  -5.527 -15.620  1.00 27.70 LIG 0.04  C 
BRANCH 38 39
ATOM     39  CG  GLN E   0      -0.865  -4.805 -16.965  1.00 26.51 LIG 0.10  C 
BRANCH 39 40
ATOM     40  CD  GLN E   0       0.419  -4.055 -17.267  1.00 26.51 LIG 0.21  C 
ATOM     41 OE1  GLN E   0       0.876  -3.242 -16.456  1.00 26.66 LIG-0.27  OA
ATOM     42  NE2 GLN E   0       1.010  -4.319 -18.431  1.00 24.64 LIG-0.37  N 
ATOM     43 22HE GLN E   0       1.741  -3.918 -18.643  1.00 24.64 LIG 0.16  HD
ATOM     44 21HE GLN E   0       0.661  -4.890 -18.971  1.00 24.64 LIG 0.16  HD
ENDBRANCH 39 40
ENDBRANCH 38 39
ENDBRANCH 37 38
BRANCH 37 45
ATOM     45  N   GLN E   0      -1.367  -7.962 -15.709  1.00 28.94 LIG-0.35  N 
ATOM     46  C   ACE E  -1      -2.215  -8.165 -14.672  1.00 29.25 LIG 0.21  C 
ATOM     47 O    ACE E  -1      -2.475  -7.181 -13.973  1.00 28.69 LIG-0.27  OA
ATOM     48  CH3 ACE E  -1      -3.413  -9.002 -15.090  1.00 29.73 LIG 0.12  C 
ATOM     49 H    GLN E   0      -1.415  -8.396 -16.449  1.00 28.94 LIG 0.16  HD
ENDBRANCH 37 45
ENDBRANCH 34 37
ENDBRANCH 28 33
ENDBRANCH 1 28
TORSDOF 19
ENDMDL
MODEL 54
USER: ADFR SOLUTION from run 73
USER: SCORE 13.165595 LL:  -3.296 LR: -11.476 RR:   0.000 FEB:  -5.808
USER: RMSD 9.084718
USER: SEED 72
USER: STATUS no improvement in best in 23 clusters for 5 generations
USER: GENES 21
USER: genes 0 Translation |==|  0.68292 0.54523 0.54328
USER: genes 1 Rotation |==|  0.40501 0.88047 0.24580 0.67776
USER: genes 2 Torsion [C]-N--CA-[CB] |==|  0.26438
USER: genes 3 Torsion [N]-CA--CB-[CG] |==|  0.83513
USER: genes 4 Torsion [CA]-CB--CG-[OD2] |==|  0.76853
USER: genes 5 Torsion [N]-CA--C-[N] |==|  0.02182
USER: genes 6 Torsion [C]-N--CA-[C] |==|  0.82030
USER: genes 7 Torsion [N]-CA--C-[N] |==|  0.95552
USER: genes 8 Torsion [C]-N--CA-[CB] |==|  0.20813
USER: genes 9 Torsion [N]-CA--C-[OXT] |==|  0.00466
USER: genes 10 Torsion [N]-CA--CB-[CG] |==|  0.60590
USER: genes 11 Torsion [CA]-CB--CG-[CD2] |==|  0.41392
USER: genes 12 Torsion [N]-C--CA-[N] |==|  0.34575
USER: genes 13 Torsion [C]-CA--CB-[CG] |==|  0.52986
USER: genes 14 Torsion [CA]-CB--CG-[CD2] |==|  0.83597
USER: genes 15 Torsion [C]-CA--N-[C] |==|  0.62778
USER: genes 16 Torsion [N]-C--CA-[N] |==|  0.86955
USER: genes 17 Torsion [C]-CA--CB-[CG] |==|  0.68663
USER: genes 18 Torsion [CA]-CB--CG-[CD] |==|  0.51529
USER: genes 19 Torsion [CB]-CG--CD-[OE1] |==|  0.11102
USER: genes 20 Torsion [C]-CA--N-[C] |==|  0.62924
ROOT
ATOM      1  C   LEU E   1       6.878  -4.978 -12.510  1.00 28.67 LIG 0.24  C 
ATOM      2 O    LEU E   1       7.634  -5.297 -13.432  1.00 26.53 LIG-0.27  OA
ATOM      3  N   ASP E   2       5.867  -5.738 -12.099  1.00 29.47 LIG-0.35  N 
ATOM      4 H    ASP E   2       5.393  -5.574 -11.401  1.00 29.47 LIG 0.16  HD
ENDROOT
BRANCH 3 5
ATOM      5  CA  ASP E   2       5.480  -6.937 -12.821  1.00 30.54 LIG 0.19  C 
BRANCH 5 6
ATOM      6  CB  ASP E   2       6.135  -8.187 -12.225  1.00 32.40 LIG 0.15  C 
BRANCH 6 7
ATOM      7  CG  ASP E   2       7.646  -8.118 -12.244  1.00 34.09 LIG 0.17  C 
ATOM      8 OD2  ASP E   2       8.238  -8.442 -13.292  1.00 37.71 LIG-0.65  OA
ATOM      9 OD1  ASP E   2       8.244  -7.732 -11.216  1.00 36.77 LIG-0.65  OA
ENDBRANCH 6 7
ENDBRANCH 5 6
BRANCH 5 10
ATOM     10  C   ASP E   2       3.978  -7.050 -12.740  1.00 30.01 LIG 0.24  C 
ATOM     11 O    ASP E   2       3.401  -8.061 -13.142  1.00 27.94 LIG-0.27  OA
ATOM     12  N   LEU E   3       3.355  -6.008 -12.208  1.00 30.14 LIG-0.35  N 
ATOM     13 H    LEU E   3       3.761  -5.309 -11.915  1.00 30.14 LIG 0.16  HD
BRANCH 12 14
ATOM     14  CA  LEU E   3       1.911  -5.953 -12.071  1.00 30.90 LIG 0.18  C 
BRANCH 14 15
ATOM     15  C   LEU E   3       1.261  -5.945 -13.455  1.00 32.33 LIG 0.24  C 
ATOM     16 O    LEU E   3       0.052  -6.168 -13.589  1.00 31.45 LIG-0.27  OA
ATOM     17  N   ALA E   4       2.068  -5.656 -14.471  1.00 33.58 LIG-0.34  N 
ATOM     18 H    ALA E   4       2.911  -5.508 -14.384  1.00 33.58 LIG 0.16  HD
BRANCH 17 19
ATOM     19  CA  ALA E   4       1.582  -5.562 -15.846  1.00 35.71 LIG 0.18  C 
ATOM     20  CB  ALA E   4       0.811  -4.267 -16.046  1.00 36.03 LIG 0.04  C 
BRANCH 19 21
ATOM     21  C   ALA E   4       2.742  -5.638 -16.829  1.00 37.05 LIG 0.20  C 
ATOM     22 OXT  ALA E   4       3.893  -5.793 -16.429  1.00 36.72 LIG-0.65  OA
ATOM     23 O    ALA E   4       2.555  -5.550 -18.044  1.00 37.61 LIG-0.65  OA
ENDBRANCH 19 21
ENDBRANCH 17 19
ENDBRANCH 14 15
BRANCH 14 24
ATOM     24  CB  LEU E   3       1.522  -4.705 -11.278  1.00 30.03 LIG 0.04  C 
BRANCH 24 25
ATOM     25  CG  LEU E   3       0.373  -4.776 -10.277  1.00 29.85 LIG-0.02  C 
ATOM     26  CD1 LEU E   3       0.167  -6.182  -9.743  1.00 29.46 LIG 0.01  C 
ATOM     27  CD2 LEU E   3       0.656  -3.796  -9.151  1.00 29.65 LIG 0.01  C 
ENDBRANCH 24 25
ENDBRANCH 14 24
ENDBRANCH 12 14
ENDBRANCH 5 10
ENDBRANCH 3 5
BRANCH 1 28
ATOM     28  CA  LEU E   1       7.071  -3.671 -11.761  1.00 29.46 LIG 0.18  C 
BRANCH 28 29
ATOM     29  CB  LEU E   1       6.763  -2.482 -12.671  1.00 29.35 LIG 0.04  C 
BRANCH 29 30
ATOM     30  CG  LEU E   1       7.171  -1.114 -12.104  1.00 30.22 LIG-0.02  C 
ATOM     31  CD2 LEU E   1       6.473  -0.836 -10.780  1.00 31.32 LIG 0.01  C 
ATOM     32  CD1 LEU E   1       6.895  -0.005 -13.103  1.00 30.06 LIG 0.01  C 
ENDBRANCH 29 30
ENDBRANCH 28 29
BRANCH 28 33
ATOM     33  N   LEU E   1       8.435  -3.610 -11.244  1.00 28.73 LIG-0.35  N 
ATOM     34  C   GLN E   0       8.671  -3.232  -9.992  1.00 28.95 LIG 0.24  C 
ATOM     35 O    GLN E   0       7.793  -2.804  -9.247  1.00 30.73 LIG-0.27  OA
ATOM     36 H    LEU E   1       9.045  -3.833 -11.807  1.00 28.73 LIG 0.16  HD
BRANCH 34 37
ATOM     37  CA  GLN E   0      10.103  -3.339  -9.495  1.00 28.12 LIG 0.18  C 
BRANCH 37 38
ATOM     38  CB  GLN E   0      10.939  -2.214 -10.120  1.00 27.70 LIG 0.04  C 
BRANCH 38 39
ATOM     39  CG  GLN E   0      12.009  -2.676 -11.107  1.00 26.51 LIG 0.10  C 
BRANCH 39 40
ATOM     40  CD  GLN E   0      12.887  -1.536 -11.587  1.00 26.51 LIG 0.21  C 
ATOM     41 OE1  GLN E   0      13.256  -0.655 -10.802  1.00 26.66 LIG-0.27  OA
ATOM     42  NE2 GLN E   0      13.230  -1.541 -12.874  1.00 24.64 LIG-0.37  N 
ATOM     43 22HE GLN E   0      13.728  -0.915 -13.189  1.00 24.64 LIG 0.16  HD
ATOM     44 21HE GLN E   0      12.953  -2.171 -13.391  1.00 24.64 LIG 0.16  HD
ENDBRANCH 39 40
ENDBRANCH 38 39
ENDBRANCH 37 38
BRANCH 37 45
ATOM     45  N   GLN E   0      10.671  -4.685  -9.864  1.00 28.94 LIG-0.35  N 
ATOM     46  C   ACE E  -1      11.355  -5.461  -8.989  1.00 29.25 LIG 0.21  C 
ATOM     47 O    ACE E  -1      11.016  -5.384  -7.805  1.00 28.69 LIG-0.27  OA
ATOM     48  CH3 ACE E  -1      11.540  -6.871  -9.525  1.00 29.73 LIG 0.12  C 
ATOM     49 H    GLN E   0      10.521  -4.913 -10.679  1.00 28.94 LIG 0.16  HD
ENDBRANCH 37 45
ENDBRANCH 34 37
ENDBRANCH 28 33
ENDBRANCH 1 28
TORSDOF 19
ENDMDL
MODEL 55
USER: ADFR SOLUTION from run 103
USER: SCORE 14.336604 LL:  -3.228 LR: -11.481 RR:   0.000 FEB:  -5.814
USER: RMSD 4.440211
USER: SEED 102
USER: STATUS no improvement in best in 6 clusters for 5 generations
USER: GENES 21
USER: genes 0 Translation |==|  0.52192 0.48403 0.54399
USER: genes 1 Rotation |==|  0.96457 0.45634 0.53456 0.67628
USER: genes 2 Torsion [C]-N--CA-[CB] |==|  0.16667
USER: genes 3 Torsion [N]-CA--CB-[CG] |==|  0.63905
USER: genes 4 Torsion [CA]-CB--CG-[OD2] |==|  0.80164
USER: genes 5 Torsion [N]-CA--C-[N] |==|  0.14643
USER: genes 6 Torsion [C]-N--CA-[C] |==|  0.81291
USER: genes 7 Torsion [N]-CA--C-[N] |==|  0.43028
USER: genes 8 Torsion [C]-N--CA-[CB] |==|  0.16710
USER: genes 9 Torsion [N]-CA--C-[OXT] |==|  0.76335
USER: genes 10 Torsion [N]-CA--CB-[CG] |==|  0.68119
USER: genes 11 Torsion [CA]-CB--CG-[CD2] |==|  0.06016
USER: genes 12 Torsion [N]-C--CA-[N] |==|  0.35856
USER: genes 13 Torsion [C]-CA--CB-[CG] |==|  0.50349
USER: genes 14 Torsion [CA]-CB--CG-[CD2] |==|  0.66439
USER: genes 15 Torsion [C]-CA--N-[C] |==|  0.86072
USER: genes 16 Torsion [N]-C--CA-[N] |==|  0.01982
USER: genes 17 Torsion [C]-CA--CB-[CG] |==|  0.54471
USER: genes 18 Torsion [CA]-CB--CG-[CD] |==|  0.36630
USER: genes 19 Torsion [CB]-CG--CD-[OE1] |==|  0.90766
USER: genes 20 Torsion [C]-CA--N-[C] |==|  0.72278
ROOT
ATOM      1  C   LEU E   1       3.255  -6.080 -12.498  1.00 28.67 LIG 0.24  C 
ATOM      2 O    LEU E   1       3.177  -7.291 -12.726  1.00 26.53 LIG-0.27  OA
ATOM      3  N   ASP E   2       4.400  -5.404 -12.529  1.00 29.47 LIG-0.35  N 
ATOM      4 H    ASP E   2       4.457  -4.549 -12.466  1.00 29.47 LIG 0.16  HD
ENDROOT
BRANCH 3 5
ATOM      5  CA  ASP E   2       5.675  -6.083 -12.677  1.00 30.54 LIG 0.19  C 
BRANCH 5 6
ATOM      6  CB  ASP E   2       5.740  -6.876 -13.986  1.00 32.40 LIG 0.15  C 
BRANCH 6 7
ATOM      7  CG  ASP E   2       6.196  -8.304 -13.780  1.00 34.09 LIG 0.17  C 
ATOM      8 OD2  ASP E   2       7.390  -8.505 -13.486  1.00 37.71 LIG-0.65  OA
ATOM      9 OD1  ASP E   2       5.361  -9.227 -13.901  1.00 36.77 LIG-0.65  OA
ENDBRANCH 6 7
ENDBRANCH 5 6
BRANCH 5 10
ATOM     10  C   ASP E   2       6.755  -5.030 -12.657  1.00 30.01 LIG 0.24  C 
ATOM     11 O    ASP E   2       7.589  -4.966 -13.560  1.00 27.94 LIG-0.27  OA
ATOM     12  N   LEU E   3       6.724  -4.200 -11.622  1.00 30.14 LIG-0.35  N 
ATOM     13 H    LEU E   3       6.132  -4.238 -10.999  1.00 30.14 LIG 0.16  HD
BRANCH 12 14
ATOM     14  CA  LEU E   3       7.701  -3.141 -11.447  1.00 30.90 LIG 0.18  C 
BRANCH 14 15
ATOM     15  C   LEU E   3       9.076  -3.748 -11.165  1.00 32.33 LIG 0.24  C 
ATOM     16 O    LEU E   3       9.182  -4.886 -10.693  1.00 31.45 LIG-0.27  OA
ATOM     17  N   ALA E   4      10.120  -2.991 -11.489  1.00 33.58 LIG-0.34  N 
ATOM     18 H    ALA E   4      10.051  -2.196 -11.810  1.00 33.58 LIG 0.16  HD
BRANCH 17 19
ATOM     19  CA  ALA E   4      11.496  -3.454 -11.326  1.00 35.71 LIG 0.18  C 
ATOM     20  CB  ALA E   4      11.735  -4.703 -12.158  1.00 36.03 LIG 0.04  C 
BRANCH 19 21
ATOM     21  C   ALA E   4      12.478  -2.362 -11.724  1.00 37.05 LIG 0.20  C 
ATOM     22 OXT  ALA E   4      12.812  -2.218 -12.898  1.00 36.72 LIG-0.65  OA
ATOM     23 O    ALA E   4      12.958  -1.599 -10.884  1.00 37.61 LIG-0.65  OA
ENDBRANCH 19 21
ENDBRANCH 17 19
ENDBRANCH 14 15
BRANCH 14 24
ATOM     24  CB  LEU E   3       7.262  -2.229 -10.300  1.00 30.03 LIG 0.04  C 
BRANCH 24 25
ATOM     25  CG  LEU E   3       6.892  -0.778 -10.591  1.00 29.85 LIG-0.02  C 
ATOM     26  CD1 LEU E   3       8.011   0.180 -10.225  1.00 29.46 LIG 0.01  C 
ATOM     27  CD2 LEU E   3       6.528  -0.662 -12.062  1.00 29.65 LIG 0.01  C 
ENDBRANCH 24 25
ENDBRANCH 14 24
ENDBRANCH 12 14
ENDBRANCH 5 10
ENDBRANCH 3 5
BRANCH 1 28
ATOM     28  CA  LEU E   1       2.015  -5.266 -12.176  1.00 29.46 LIG 0.18  C 
BRANCH 28 29
ATOM     29  CB  LEU E   1       1.512  -5.590 -10.768  1.00 29.35 LIG 0.04  C 
BRANCH 29 30
ATOM     30  CG  LEU E   1       0.238  -4.841 -10.350  1.00 30.22 LIG-0.02  C 
ATOM     31  CD2 LEU E   1       0.479  -4.002  -9.103  1.00 31.32 LIG 0.01  C 
ATOM     32  CD1 LEU E   1      -0.917  -5.803 -10.139  1.00 30.06 LIG 0.01  C 
ENDBRANCH 29 30
ENDBRANCH 28 29
BRANCH 28 33
ATOM     33  N   LEU E   1       0.991  -5.530 -13.183  1.00 28.73 LIG-0.35  N 
ATOM     34  C   GLN E   0       1.276  -5.453 -14.478  1.00 28.95 LIG 0.24  C 
ATOM     35 O    GLN E   0       2.355  -5.047 -14.901  1.00 30.73 LIG-0.27  OA
ATOM     36 H    LEU E   1       0.217  -5.731 -12.866  1.00 28.73 LIG 0.16  HD
BRANCH 34 37
ATOM     37  CA  GLN E   0       0.192  -5.886 -15.452  1.00 28.12 LIG 0.18  C 
BRANCH 37 38
ATOM     38  CB  GLN E   0      -0.025  -4.779 -16.490  1.00 27.70 LIG 0.04  C 
BRANCH 38 39
ATOM     39  CG  GLN E   0      -1.320  -4.889 -17.291  1.00 26.51 LIG 0.10  C 
BRANCH 39 40
ATOM     40  CD  GLN E   0      -2.081  -3.577 -17.348  1.00 26.51 LIG 0.21  C 
ATOM     41 OE1  GLN E   0      -2.050  -2.792 -16.393  1.00 26.66 LIG-0.27  OA
ATOM     42  NE2 GLN E   0      -2.765  -3.326 -18.463  1.00 24.64 LIG-0.37  N 
ATOM     43 22HE GLN E   0      -3.209  -2.593 -18.540  1.00 24.64 LIG 0.16  HD
ATOM     44 21HE GLN E   0      -2.763  -3.897 -19.107  1.00 24.64 LIG 0.16  HD
ENDBRANCH 39 40
ENDBRANCH 38 39
ENDBRANCH 37 38
BRANCH 37 45
ATOM     45  N   GLN E   0      -1.085  -6.164 -14.703  1.00 28.94 LIG-0.35  N 
ATOM     46  C   ACE E  -1      -1.488  -7.415 -14.371  1.00 29.25 LIG 0.21  C 
ATOM     47 O    ACE E  -1      -0.596  -8.234 -14.132  1.00 28.69 LIG-0.27  OA
ATOM     48  CH3 ACE E  -1      -2.630  -7.382 -13.368  1.00 29.73 LIG 0.12  C 
ATOM     49 H    GLN E   0      -1.533  -5.457 -14.506  1.00 28.94 LIG 0.16  HD
ENDBRANCH 37 45
ENDBRANCH 34 37
ENDBRANCH 28 33
ENDBRANCH 1 28
TORSDOF 19
ENDMDL
MODEL 56
USER: ADFR SOLUTION from run 26
USER: SCORE 13.920391 LL:  -3.668 LR: -11.448 RR:   0.000 FEB:  -5.781
USER: RMSD 9.144601
USER: SEED 25
USER: STATUS searching
USER: GENES 21
USER: genes 0 Translation |==|  0.55769 0.50121 0.54293
USER: genes 1 Rotation |==|  0.55241 0.22040 0.08889 0.50815
USER: genes 2 Torsion [C]-N--CA-[CB] |==|  0.51230
USER: genes 3 Torsion [N]-CA--CB-[CG] |==|  0.84143
USER: genes 4 Torsion [CA]-CB--CG-[OD2] |==|  0.22509
USER: genes 5 Torsion [N]-CA--C-[N] |==|  0.42307
USER: genes 6 Torsion [C]-N--CA-[C] |==|  0.75337
USER: genes 7 Torsion [N]-CA--C-[N] |==|  0.97493
USER: genes 8 Torsion [C]-N--CA-[CB] |==|  0.15789
USER: genes 9 Torsion [N]-CA--C-[OXT] |==|  0.55512
USER: genes 10 Torsion [N]-CA--CB-[CG] |==|  0.96021
USER: genes 11 Torsion [CA]-CB--CG-[CD2] |==|  0.78189
USER: genes 12 Torsion [N]-C--CA-[N] |==|  0.37225
USER: genes 13 Torsion [C]-CA--CB-[CG] |==|  0.23489
USER: genes 14 Torsion [CA]-CB--CG-[CD2] |==|  0.03663
USER: genes 15 Torsion [C]-CA--N-[C] |==|  0.77829
USER: genes 16 Torsion [N]-C--CA-[N] |==|  0.78646
USER: genes 17 Torsion [C]-CA--CB-[CG] |==|  0.49577
USER: genes 18 Torsion [CA]-CB--CG-[CD] |==|  0.27710
USER: genes 19 Torsion [CB]-CG--CD-[OE1] |==|  0.92299
USER: genes 20 Torsion [C]-CA--N-[C] |==|  0.62430
ROOT
ATOM      1  C   LEU E   1       4.060  -5.770 -12.516  1.00 28.67 LIG 0.24  C 
ATOM      2 O    LEU E   1       3.788  -5.167 -11.472  1.00 26.53 LIG-0.27  OA
ATOM      3  N   ASP E   2       3.185  -5.957 -13.499  1.00 29.47 LIG-0.35  N 
ATOM      4 H    ASP E   2       3.386  -6.290 -14.266  1.00 29.47 LIG 0.16  HD
ENDROOT
BRANCH 3 5
ATOM      5  CA  ASP E   2       1.786  -5.600 -13.344  1.00 30.54 LIG 0.19  C 
BRANCH 5 6
ATOM      6  CB  ASP E   2       0.963  -6.010 -14.570  1.00 32.40 LIG 0.15  C 
BRANCH 6 7
ATOM      7  CG  ASP E   2       1.488  -5.402 -15.852  1.00 34.09 LIG 0.17  C 
ATOM      8 OD2  ASP E   2       2.461  -5.947 -16.409  1.00 37.71 LIG-0.65  OA
ATOM      9 OD1  ASP E   2       0.925  -4.384 -16.311  1.00 36.77 LIG-0.65  OA
ENDBRANCH 6 7
ENDBRANCH 5 6
BRANCH 5 10
ATOM     10  C   ASP E   2       1.271  -6.308 -12.116  1.00 30.01 LIG 0.24  C 
ATOM     11 O    ASP E   2       1.779  -7.366 -11.740  1.00 27.94 LIG-0.27  OA
ATOM     12  N   LEU E   3       0.266  -5.710 -11.491  1.00 30.14 LIG-0.35  N 
ATOM     13 H    LEU E   3      -0.078  -4.965 -11.747  1.00 30.14 LIG 0.16  HD
BRANCH 12 14
ATOM     14  CA  LEU E   3      -0.353  -6.270 -10.303  1.00 30.90 LIG 0.18  C 
BRANCH 14 15
ATOM     15  C   LEU E   3      -1.491  -7.207 -10.706  1.00 32.33 LIG 0.24  C 
ATOM     16 O    LEU E   3      -2.070  -7.902  -9.862  1.00 31.45 LIG-0.27  OA
ATOM     17  N   ALA E   4      -1.823  -7.194 -11.994  1.00 33.58 LIG-0.34  N 
ATOM     18 H    ALA E   4      -1.419  -6.720 -12.586  1.00 33.58 LIG 0.16  HD
BRANCH 17 19
ATOM     19  CA  ALA E   4      -2.923  -7.999 -12.521  1.00 35.71 LIG 0.18  C 
ATOM     20  CB  ALA E   4      -4.216  -7.668 -11.792  1.00 36.03 LIG 0.04  C 
BRANCH 19 21
ATOM     21  C   ALA E   4      -3.089  -7.764 -14.015  1.00 37.05 LIG 0.20  C 
ATOM     22 OXT  ALA E   4      -4.145  -8.042 -14.579  1.00 36.72 LIG-0.65  OA
ATOM     23 O    ALA E   4      -2.175  -7.290 -14.692  1.00 37.61 LIG-0.65  OA
ENDBRANCH 19 21
ENDBRANCH 17 19
ENDBRANCH 14 15
BRANCH 14 24
ATOM     24  CB  LEU E   3      -0.868  -5.135  -9.416  1.00 30.03 LIG 0.04  C 
BRANCH 24 25
ATOM     25  CG  LEU E   3      -0.405  -3.706  -9.677  1.00 29.85 LIG-0.02  C 
ATOM     26  CD1 LEU E   3      -1.363  -2.680  -9.098  1.00 29.46 LIG 0.01  C 
ATOM     27  CD2 LEU E   3       0.991  -3.541  -9.099  1.00 29.65 LIG 0.01  C 
ENDBRANCH 24 25
ENDBRANCH 14 24
ENDBRANCH 12 14
ENDBRANCH 5 10
ENDBRANCH 3 5
BRANCH 1 28
ATOM     28  CA  LEU E   1       5.450  -6.335 -12.749  1.00 29.46 LIG 0.18  C 
BRANCH 28 29
ATOM     29  CB  LEU E   1       5.639  -7.634 -11.964  1.00 29.35 LIG 0.04  C 
BRANCH 29 30
ATOM     30  CG  LEU E   1       5.119  -8.896 -12.668  1.00 30.22 LIG-0.02  C 
ATOM     31  CD2 LEU E   1       4.818  -8.622 -14.135  1.00 31.32 LIG 0.01  C 
ATOM     32  CD1 LEU E   1       3.898  -9.452 -11.960  1.00 30.06 LIG 0.01  C 
ENDBRANCH 29 30
ENDBRANCH 28 29
BRANCH 28 33
ATOM     33  N   LEU E   1       6.446  -5.335 -12.376  1.00 28.73 LIG-0.35  N 
ATOM     34  C   GLN E   0       6.749  -4.338 -13.200  1.00 28.95 LIG 0.24  C 
ATOM     35 O    GLN E   0       6.315  -4.264 -14.346  1.00 30.73 LIG-0.27  OA
ATOM     36 H    LEU E   1       6.801  -5.451 -11.601  1.00 28.73 LIG 0.16  HD
BRANCH 34 37
ATOM     37  CA  GLN E   0       7.685  -3.263 -12.670  1.00 28.12 LIG 0.18  C 
BRANCH 37 38
ATOM     38  CB  GLN E   0       8.851  -3.931 -11.931  1.00 27.70 LIG 0.04  C 
BRANCH 38 39
ATOM     39  CG  GLN E   0       9.897  -2.968 -11.372  1.00 26.51 LIG 0.10  C 
BRANCH 39 40
ATOM     40  CD  GLN E   0       9.712  -2.707  -9.889  1.00 26.51 LIG 0.21  C 
ATOM     41 OE1  GLN E   0       8.593  -2.792  -9.372  1.00 26.66 LIG-0.27  OA
ATOM     42  NE2 GLN E   0      10.803  -2.390  -9.193  1.00 24.64 LIG-0.37  N 
ATOM     43 22HE GLN E   0      10.745  -2.236  -8.349  1.00 24.64 LIG 0.16  HD
ATOM     44 21HE GLN E   0      11.566  -2.340  -9.588  1.00 24.64 LIG 0.16  HD
ENDBRANCH 39 40
ENDBRANCH 38 39
ENDBRANCH 37 38
BRANCH 37 45
ATOM     45  N   GLN E   0       6.932  -2.343 -11.746  1.00 28.94 LIG-0.35  N 
ATOM     46  C   ACE E  -1       7.049  -0.994 -11.793  1.00 29.25 LIG 0.21  C 
ATOM     47 O    ACE E  -1       7.262  -0.499 -12.904  1.00 28.69 LIG-0.27  OA
ATOM     48  CH3 ACE E  -1       5.964  -0.314 -10.973  1.00 29.73 LIG 0.12  C 
ATOM     49 H    GLN E   0       6.423  -2.753 -11.187  1.00 28.94 LIG 0.16  HD
ENDBRANCH 37 45
ENDBRANCH 34 37
ENDBRANCH 28 33
ENDBRANCH 1 28
TORSDOF 19
ENDMDL
MODEL 57
USER: ADFR SOLUTION from run 158
USER: SCORE 12.453298 LL:  -3.619 LR: -11.437 RR:   0.000 FEB:  -5.769
USER: RMSD 9.312973
USER: SEED 157
USER: STATUS no improvement in best in 33 clusters for 5 generations
USER: GENES 21
USER: genes 0 Translation |==|  0.41976 0.49081 0.59903
USER: genes 1 Rotation |==|  0.45723 0.19147 0.73885 0.80973
USER: genes 2 Torsion [C]-N--CA-[CB] |==|  0.88866
USER: genes 3 Torsion [N]-CA--CB-[CG] |==|  0.49654
USER: genes 4 Torsion [CA]-CB--CG-[OD2] |==|  0.30265
USER: genes 5 Torsion [N]-CA--C-[N] |==|  0.77524
USER: genes 6 Torsion [C]-N--CA-[C] |==|  0.57924
USER: genes 7 Torsion [N]-CA--C-[N] |==|  0.91440
USER: genes 8 Torsion [C]-N--CA-[CB] |==|  0.22708
USER: genes 9 Torsion [N]-CA--C-[OXT] |==|  0.53885
USER: genes 10 Torsion [N]-CA--CB-[CG] |==|  0.64466
USER: genes 11 Torsion [CA]-CB--CG-[CD2] |==|  0.13096
USER: genes 12 Torsion [N]-C--CA-[N] |==|  0.58063
USER: genes 13 Torsion [C]-CA--CB-[CG] |==|  0.45545
USER: genes 14 Torsion [CA]-CB--CG-[CD2] |==|  0.82270
USER: genes 15 Torsion [C]-CA--N-[C] |==|  0.59812
USER: genes 16 Torsion [N]-C--CA-[N] |==|  0.05339
USER: genes 17 Torsion [C]-CA--CB-[CG] |==|  0.73284
USER: genes 18 Torsion [CA]-CB--CG-[CD] |==|  0.75582
USER: genes 19 Torsion [CB]-CG--CD-[OE1] |==|  0.92806
USER: genes 20 Torsion [C]-CA--N-[C] |==|  0.67778
ROOT
ATOM      1  C   LEU E   1       0.957  -5.957 -11.590  1.00 28.67 LIG 0.24  C 
ATOM      2 O    LEU E   1      -0.240  -6.012 -11.890  1.00 26.53 LIG-0.27  OA
ATOM      3  N   ASP E   2       1.397  -5.468 -10.435  1.00 29.47 LIG-0.35  N 
ATOM      4 H    ASP E   2       2.216  -5.510 -10.175  1.00 29.47 LIG 0.16  HD
ENDROOT
BRANCH 3 5
ATOM      5  CA  ASP E   2       0.501  -4.808  -9.502  1.00 30.54 LIG 0.19  C 
BRANCH 5 6
ATOM      6  CB  ASP E   2      -0.509  -3.916 -10.230  1.00 32.40 LIG 0.15  C 
BRANCH 6 7
ATOM      7  CG  ASP E   2      -1.475  -3.239  -9.284  1.00 34.09 LIG 0.17  C 
ATOM      8 OD2  ASP E   2      -1.363  -2.011  -9.104  1.00 37.71 LIG-0.65  OA
ATOM      9 OD1  ASP E   2      -2.354  -3.930  -8.724  1.00 36.77 LIG-0.65  OA
ENDBRANCH 6 7
ENDBRANCH 5 6
BRANCH 5 10
ATOM     10  C   ASP E   2      -0.222  -5.885  -8.730  1.00 30.01 LIG 0.24  C 
ATOM     11 O    ASP E   2       0.146  -6.202  -7.598  1.00 27.94 LIG-0.27  OA
ATOM     12  N   LEU E   3      -1.257  -6.434  -9.350  1.00 30.14 LIG-0.35  N 
ATOM     13 H    LEU E   3      -1.521  -6.201 -10.135  1.00 30.14 LIG 0.16  HD
BRANCH 12 14
ATOM     14  CA  LEU E   3      -2.048  -7.493  -8.750  1.00 30.90 LIG 0.18  C 
BRANCH 14 15
ATOM     15  C   LEU E   3      -2.646  -8.376  -9.846  1.00 32.33 LIG 0.24  C 
ATOM     16 O    LEU E   3      -2.880  -9.573  -9.639  1.00 31.45 LIG-0.27  OA
ATOM     17  N   ALA E   4      -2.917  -7.766 -10.997  1.00 33.58 LIG-0.34  N 
ATOM     18 H    ALA E   4      -2.748  -6.937 -11.148  1.00 33.58 LIG 0.16  HD
BRANCH 17 19
ATOM     19  CA  ALA E   4      -3.535  -8.467 -12.120  1.00 35.71 LIG 0.18  C 
ATOM     20  CB  ALA E   4      -5.041  -8.544 -11.930  1.00 36.03 LIG 0.04  C 
BRANCH 19 21
ATOM     21  C   ALA E   4      -3.208  -7.768 -13.432  1.00 37.05 LIG 0.20  C 
ATOM     22 OXT  ALA E   4      -3.829  -8.038 -14.457  1.00 36.72 LIG-0.65  OA
ATOM     23 O    ALA E   4      -2.318  -6.917 -13.496  1.00 37.61 LIG-0.65  OA
ENDBRANCH 19 21
ENDBRANCH 17 19
ENDBRANCH 14 15
BRANCH 14 24
ATOM     24  CB  LEU E   3      -3.149  -6.877  -7.885  1.00 30.03 LIG 0.04  C 
BRANCH 24 25
ATOM     25  CG  LEU E   3      -3.313  -7.333  -6.438  1.00 29.85 LIG-0.02  C 
ATOM     26  CD1 LEU E   3      -3.977  -8.695  -6.340  1.00 29.46 LIG 0.01  C 
ATOM     27  CD2 LEU E   3      -1.943  -7.341  -5.780  1.00 29.65 LIG 0.01  C 
ENDBRANCH 24 25
ENDBRANCH 14 24
ENDBRANCH 12 14
ENDBRANCH 5 10
ENDBRANCH 3 5
BRANCH 1 28
ATOM     28  CA  LEU E   1       2.022  -6.473 -12.540  1.00 29.46 LIG 0.18  C 
BRANCH 28 29
ATOM     29  CB  LEU E   1       3.343  -5.736 -12.316  1.00 29.35 LIG 0.04  C 
BRANCH 29 30
ATOM     30  CG  LEU E   1       4.575  -6.418 -12.930  1.00 30.22 LIG-0.02  C 
ATOM     31  CD2 LEU E   1       4.831  -7.773 -12.287  1.00 31.32 LIG 0.01  C 
ATOM     32  CD1 LEU E   1       5.800  -5.528 -12.824  1.00 30.06 LIG 0.01  C 
ENDBRANCH 29 30
ENDBRANCH 28 29
BRANCH 28 33
ATOM     33  N   LEU E   1       1.554  -6.324 -13.915  1.00 28.73 LIG-0.35  N 
ATOM     34  C   GLN E   0       1.865  -7.225 -14.840  1.00 28.95 LIG 0.24  C 
ATOM     35 O    GLN E   0       2.645  -8.152 -14.635  1.00 30.73 LIG-0.27  OA
ATOM     36 H    LEU E   1       1.078  -5.623 -14.060  1.00 28.73 LIG 0.16  HD
BRANCH 34 37
ATOM     37  CA  GLN E   0       1.214  -7.068 -16.205  1.00 28.12 LIG 0.18  C 
BRANCH 37 38
ATOM     38  CB  GLN E   0       2.242  -7.401 -17.295  1.00 27.70 LIG 0.04  C 
BRANCH 38 39
ATOM     39  CG  GLN E   0       2.963  -6.195 -17.892  1.00 26.51 LIG 0.10  C 
BRANCH 39 40
ATOM     40  CD  GLN E   0       2.212  -5.592 -19.065  1.00 26.51 LIG 0.21  C 
ATOM     41 OE1  GLN E   0       1.444  -6.286 -19.742  1.00 26.66 LIG-0.27  OA
ATOM     42  NE2 GLN E   0       2.421  -4.300 -19.314  1.00 24.64 LIG-0.37  N 
ATOM     43 22HE GLN E   0       2.014  -3.917 -19.968  1.00 24.64 LIG 0.16  HD
ATOM     44 21HE GLN E   0       2.963  -3.850 -18.821  1.00 24.64 LIG 0.16  HD
ENDBRANCH 39 40
ENDBRANCH 38 39
ENDBRANCH 37 38
BRANCH 37 45
ATOM     45  N   GLN E   0       0.709  -5.659 -16.370  1.00 28.94 LIG-0.35  N 
ATOM     46  C   ACE E  -1      -0.605  -5.359 -16.509  1.00 29.25 LIG 0.21  C 
ATOM     47 O    ACE E  -1      -1.403  -6.096 -15.922  1.00 28.69 LIG-0.27  OA
ATOM     48  CH3 ACE E  -1      -0.854  -3.868 -16.348  1.00 29.73 LIG 0.12  C 
ATOM     49 H    GLN E   0       1.330  -5.065 -16.368  1.00 28.94 LIG 0.16  HD
ENDBRANCH 37 45
ENDBRANCH 34 37
ENDBRANCH 28 33
ENDBRANCH 1 28
TORSDOF 19
ENDMDL
MODEL 58
USER: ADFR SOLUTION from run 136
USER: SCORE 14.160295 LL:  -3.818 LR: -11.438 RR:   0.000 FEB:  -5.770
USER: RMSD 9.471193
USER: SEED 135
USER: STATUS no improvement in best in 11 clusters for 5 generations
USER: GENES 21
USER: genes 0 Translation |==|  0.67694 0.57038 0.52283
USER: genes 1 Rotation |==|  0.71753 0.05443 0.56441 0.50133
USER: genes 2 Torsion [C]-N--CA-[CB] |==|  0.51333
USER: genes 3 Torsion [N]-CA--CB-[CG] |==|  0.84738
USER: genes 4 Torsion [CA]-CB--CG-[OD2] |==|  0.87804
USER: genes 5 Torsion [N]-CA--C-[N] |==|  0.33662
USER: genes 6 Torsion [C]-N--CA-[C] |==|  0.80070
USER: genes 7 Torsion [N]-CA--C-[N] |==|  0.43154
USER: genes 8 Torsion [C]-N--CA-[CB] |==|  0.33344
USER: genes 9 Torsion [N]-CA--C-[OXT] |==|  0.56290
USER: genes 10 Torsion [N]-CA--CB-[CG] |==|  0.52136
USER: genes 11 Torsion [CA]-CB--CG-[CD2] |==|  0.47682
USER: genes 12 Torsion [N]-C--CA-[N] |==|  0.28155
USER: genes 13 Torsion [C]-CA--CB-[CG] |==|  0.35599
USER: genes 14 Torsion [CA]-CB--CG-[CD2] |==|  0.45597
USER: genes 15 Torsion [C]-CA--N-[C] |==|  0.78043
USER: genes 16 Torsion [N]-C--CA-[N] |==|  0.91884
USER: genes 17 Torsion [C]-CA--CB-[CG] |==|  0.09918
USER: genes 18 Torsion [CA]-CB--CG-[CD] |==|  0.71052
USER: genes 19 Torsion [CB]-CG--CD-[OE1] |==|  0.92211
USER: genes 20 Torsion [C]-CA--N-[C] |==|  0.79969
ROOT
ATOM      1  C   LEU E   1       6.743  -4.525 -12.847  1.00 28.67 LIG 0.24  C 
ATOM      2 O    LEU E   1       6.245  -4.316 -13.958  1.00 26.53 LIG-0.27  OA
ATOM      3  N   ASP E   2       6.652  -5.691 -12.215  1.00 29.47 LIG-0.35  N 
ATOM      4 H    ASP E   2       7.071  -5.879 -11.488  1.00 29.47 LIG 0.16  HD
ENDROOT
BRANCH 3 5
ATOM      5  CA  ASP E   2       5.813  -6.762 -12.721  1.00 30.54 LIG 0.19  C 
BRANCH 5 6
ATOM      6  CB  ASP E   2       5.783  -7.955 -11.759  1.00 32.40 LIG 0.15  C 
BRANCH 6 7
ATOM      7  CG  ASP E   2       7.167  -8.471 -11.430  1.00 34.09 LIG 0.17  C 
ATOM      8 OD2  ASP E   2       7.988  -8.595 -12.360  1.00 37.71 LIG-0.65  OA
ATOM      9 OD1  ASP E   2       7.440  -8.745 -10.241  1.00 36.77 LIG-0.65  OA
ENDBRANCH 6 7
ENDBRANCH 5 6
BRANCH 5 10
ATOM     10  C   ASP E   2       4.422  -6.205 -12.896  1.00 30.01 LIG 0.24  C 
ATOM     11 O    ASP E   2       3.814  -5.719 -11.941  1.00 27.94 LIG-0.27  OA
ATOM     12  N   LEU E   3       3.930  -6.272 -14.126  1.00 30.14 LIG-0.35  N 
ATOM     13 H    LEU E   3       4.362  -6.599 -14.794  1.00 30.14 LIG 0.16  HD
BRANCH 12 14
ATOM     14  CA  LEU E   3       2.601  -5.793 -14.458  1.00 30.90 LIG 0.18  C 
BRANCH 14 15
ATOM     15  C   LEU E   3       1.551  -6.738 -13.874  1.00 32.33 LIG 0.24  C 
ATOM     16 O    LEU E   3       1.831  -7.913 -13.611  1.00 31.45 LIG-0.27  OA
ATOM     17  N   ALA E   4       0.355  -6.203 -13.646  1.00 33.58 LIG-0.34  N 
ATOM     18 H    ALA E   4       0.152  -5.388 -13.834  1.00 33.58 LIG 0.16  HD
BRANCH 17 19
ATOM     19  CA  ALA E   4      -0.736  -6.968 -13.045  1.00 35.71 LIG 0.18  C 
ATOM     20  CB  ALA E   4      -1.182  -6.318 -11.745  1.00 36.03 LIG 0.04  C 
BRANCH 19 21
ATOM     21  C   ALA E   4      -1.910  -7.072 -14.008  1.00 37.05 LIG 0.20  C 
ATOM     22 OXT  ALA E   4      -3.045  -7.292 -13.591  1.00 36.72 LIG-0.65  OA
ATOM     23 O    ALA E   4      -1.752  -6.936 -15.223  1.00 37.61 LIG-0.65  OA
ENDBRANCH 19 21
ENDBRANCH 17 19
ENDBRANCH 14 15
BRANCH 14 24
ATOM     24  CB  LEU E   3       2.461  -5.693 -15.978  1.00 30.03 LIG 0.04  C 
BRANCH 24 25
ATOM     25  CG  LEU E   3       1.217  -5.047 -16.579  1.00 29.85 LIG-0.02  C 
ATOM     26  CD1 LEU E   3       0.897  -3.712 -15.931  1.00 29.46 LIG 0.01  C 
ATOM     27  CD2 LEU E   3       1.432  -4.894 -18.075  1.00 29.65 LIG 0.01  C 
ENDBRANCH 24 25
ENDBRANCH 14 24
ENDBRANCH 12 14
ENDBRANCH 5 10
ENDBRANCH 3 5
BRANCH 1 28
ATOM     28  CA  LEU E   1       7.522  -3.440 -12.126  1.00 29.46 LIG 0.18  C 
BRANCH 28 29
ATOM     29  CB  LEU E   1       6.779  -2.106 -12.203  1.00 29.35 LIG 0.04  C 
BRANCH 29 30
ATOM     30  CG  LEU E   1       6.567  -1.406 -10.852  1.00 30.22 LIG-0.02  C 
ATOM     31  CD2 LEU E   1       6.184   0.055 -11.043  1.00 31.32 LIG 0.01  C 
ATOM     32  CD1 LEU E   1       7.798  -1.532  -9.973  1.00 30.06 LIG 0.01  C 
ENDBRANCH 29 30
ENDBRANCH 28 29
BRANCH 28 33
ATOM     33  N   LEU E   1       8.859  -3.340 -12.706  1.00 28.73 LIG-0.35  N 
ATOM     34  C   GLN E   0       9.807  -4.211 -12.379  1.00 28.95 LIG 0.24  C 
ATOM     35 O    GLN E   0       9.663  -5.058 -11.501  1.00 30.73 LIG-0.27  OA
ATOM     36 H    LEU E   1       8.966  -2.688 -13.257  1.00 28.73 LIG 0.16  HD
BRANCH 34 37
ATOM     37  CA  GLN E   0      11.120  -4.122 -13.141  1.00 28.12 LIG 0.18  C 
BRANCH 37 38
ATOM     38  CB  GLN E   0      12.084  -3.205 -12.377  1.00 27.70 LIG 0.04  C 
BRANCH 38 39
ATOM     39  CG  GLN E   0      11.989  -3.293 -10.855  1.00 26.51 LIG 0.10  C 
BRANCH 39 40
ATOM     40  CD  GLN E   0      11.265  -2.104 -10.249  1.00 26.51 LIG 0.21  C 
ATOM     41 OE1  GLN E   0      11.280  -1.006 -10.816  1.00 26.66 LIG-0.27  OA
ATOM     42  NE2 GLN E   0      10.626  -2.311  -9.099  1.00 24.64 LIG-0.37  N 
ATOM     43 22HE GLN E   0      10.201  -1.665  -8.721  1.00 24.64 LIG 0.16  HD
ATOM     44 21HE GLN E   0      10.639  -3.090  -8.734  1.00 24.64 LIG 0.16  HD
ENDBRANCH 39 40
ENDBRANCH 38 39
ENDBRANCH 37 38
BRANCH 37 45
ATOM     45  N   GLN E   0      10.870  -3.587 -14.526  1.00 28.94 LIG-0.35  N 
ATOM     46  C   ACE E  -1      10.264  -4.312 -15.498  1.00 29.25 LIG 0.21  C 
ATOM     47 O    ACE E  -1       9.409  -5.121 -15.128  1.00 28.69 LIG-0.27  OA
ATOM     48  CH3 ACE E  -1       9.869  -3.438 -16.677  1.00 29.73 LIG 0.12  C 
ATOM     49 H    GLN E   0      11.148  -2.782 -14.642  1.00 28.94 LIG 0.16  HD
ENDBRANCH 37 45
ENDBRANCH 34 37
ENDBRANCH 28 33
ENDBRANCH 1 28
TORSDOF 19
ENDMDL
MODEL 59
USER: ADFR SOLUTION from run 141
USER: SCORE 13.374631 LL:  -3.744 LR: -11.434 RR:   0.000 FEB:  -5.766
USER: RMSD 9.560207
USER: SEED 140
USER: STATUS no improvement in best in 11 clusters for 5 generations
USER: GENES 21
USER: genes 0 Translation |==|  0.42592 0.50633 0.60266
USER: genes 1 Rotation |==|  0.41852 0.26177 0.20831 0.81863
USER: genes 2 Torsion [C]-N--CA-[CB] |==|  0.14701
USER: genes 3 Torsion [N]-CA--CB-[CG] |==|  0.52246
USER: genes 4 Torsion [CA]-CB--CG-[OD2] |==|  0.58808
USER: genes 5 Torsion [N]-CA--C-[N] |==|  0.69213
USER: genes 6 Torsion [C]-N--CA-[C] |==|  0.73746
USER: genes 7 Torsion [N]-CA--C-[N] |==|  0.03208
USER: genes 8 Torsion [C]-N--CA-[CB] |==|  0.18316
USER: genes 9 Torsion [N]-CA--C-[OXT] |==|  0.90997
USER: genes 10 Torsion [N]-CA--CB-[CG] |==|  0.80299
USER: genes 11 Torsion [CA]-CB--CG-[CD2] |==|  0.33911
USER: genes 12 Torsion [N]-C--CA-[N] |==|  0.76170
USER: genes 13 Torsion [C]-CA--CB-[CG] |==|  0.43653
USER: genes 14 Torsion [CA]-CB--CG-[CD2] |==|  0.95095
USER: genes 15 Torsion [C]-CA--N-[C] |==|  0.85207
USER: genes 16 Torsion [N]-C--CA-[N] |==|  0.39489
USER: genes 17 Torsion [C]-CA--CB-[CG] |==|  0.48513
USER: genes 18 Torsion [CA]-CB--CG-[CD] |==|  0.29542
USER: genes 19 Torsion [CB]-CG--CD-[OE1] |==|  0.31156
USER: genes 20 Torsion [C]-CA--N-[C] |==|  0.78950
ROOT
ATOM      1  C   LEU E   1       1.095  -5.678 -11.530  1.00 28.67 LIG 0.24  C 
ATOM      2 O    LEU E   1       1.372  -4.744 -10.771  1.00 26.53 LIG-0.27  OA
ATOM      3  N   ASP E   2       0.420  -6.756 -11.143  1.00 29.47 LIG-0.35  N 
ATOM      4 H    ASP E   2       0.140  -7.368 -11.679  1.00 29.47 LIG 0.16  HD
ENDROOT
BRANCH 3 5
ATOM      5  CA  ASP E   2       0.098  -6.985  -9.746  1.00 30.54 LIG 0.19  C 
BRANCH 5 6
ATOM      6  CB  ASP E   2      -0.610  -5.776  -9.128  1.00 32.40 LIG 0.15  C 
BRANCH 6 7
ATOM      7  CG  ASP E   2      -0.783  -5.906  -7.631  1.00 34.09 LIG 0.17  C 
ATOM      8 OD2  ASP E   2      -1.783  -5.381  -7.104  1.00 37.71 LIG-0.65  OA
ATOM      9 OD1  ASP E   2       0.075  -6.539  -6.978  1.00 36.77 LIG-0.65  OA
ENDBRANCH 6 7
ENDBRANCH 5 6
BRANCH 5 10
ATOM     10  C   ASP E   2      -0.797  -8.198  -9.680  1.00 30.01 LIG 0.24  C 
ATOM     11 O    ASP E   2      -0.357  -9.320  -9.932  1.00 27.94 LIG-0.27  OA
ATOM     12  N   LEU E   3      -2.055  -7.961  -9.331  1.00 30.14 LIG-0.35  N 
ATOM     13 H    LEU E   3      -2.357  -7.178  -9.142  1.00 30.14 LIG 0.16  HD
BRANCH 12 14
ATOM     14  CA  LEU E   3      -3.046  -9.017  -9.236  1.00 30.90 LIG 0.18  C 
BRANCH 14 15
ATOM     15  C   LEU E   3      -3.822  -9.117 -10.550  1.00 32.33 LIG 0.24  C 
ATOM     16 O    LEU E   3      -4.867  -9.775 -10.620  1.00 31.45 LIG-0.27  OA
ATOM     17  N   ALA E   4      -3.318  -8.433 -11.573  1.00 33.58 LIG-0.34  N 
ATOM     18 H    ALA E   4      -2.588  -7.980 -11.531  1.00 33.58 LIG 0.16  HD
BRANCH 17 19
ATOM     19  CA  ALA E   4      -3.974  -8.391 -12.878  1.00 35.71 LIG 0.18  C 
ATOM     20  CB  ALA E   4      -5.307  -7.667 -12.775  1.00 36.03 LIG 0.04  C 
BRANCH 19 21
ATOM     21  C   ALA E   4      -3.083  -7.705 -13.903  1.00 37.05 LIG 0.20  C 
ATOM     22 OXT  ALA E   4      -2.323  -6.800 -13.566  1.00 36.72 LIG-0.65  OA
ATOM     23 O    ALA E   4      -3.098  -8.042 -15.088  1.00 37.61 LIG-0.65  OA
ENDBRANCH 19 21
ENDBRANCH 17 19
ENDBRANCH 14 15
BRANCH 14 24
ATOM     24  CB  LEU E   3      -3.988  -8.726  -8.067  1.00 30.03 LIG 0.04  C 
BRANCH 24 25
ATOM     25  CG  LEU E   3      -3.475  -8.861  -6.636  1.00 29.85 LIG-0.02  C 
ATOM     26  CD1 LEU E   3      -2.027  -9.313  -6.588  1.00 29.46 LIG 0.01  C 
ATOM     27  CD2 LEU E   3      -3.657  -7.526  -5.934  1.00 29.65 LIG 0.01  C 
ENDBRANCH 24 25
ENDBRANCH 14 24
ENDBRANCH 12 14
ENDBRANCH 5 10
ENDBRANCH 3 5
BRANCH 1 28
ATOM     28  CA  LEU E   1       1.506  -5.643 -12.991  1.00 29.46 LIG 0.18  C 
BRANCH 28 29
ATOM     29  CB  LEU E   1       0.413  -6.252 -13.870  1.00 29.35 LIG 0.04  C 
BRANCH 29 30
ATOM     30  CG  LEU E   1       0.437  -5.798 -15.337  1.00 30.22 LIG-0.02  C 
ATOM     31  CD2 LEU E   1       1.261  -4.529 -15.507  1.00 31.32 LIG 0.01  C 
ATOM     32  CD1 LEU E   1      -0.970  -5.605 -15.873  1.00 30.06 LIG 0.01  C 
ENDBRANCH 29 30
ENDBRANCH 28 29
BRANCH 28 33
ATOM     33  N   LEU E   1       2.775  -6.348 -13.152  1.00 28.73 LIG-0.35  N 
ATOM     34  C   GLN E   0       3.829  -6.027 -12.410  1.00 28.95 LIG 0.24  C 
ATOM     35 O    GLN E   0       3.842  -5.062 -11.650  1.00 30.73 LIG-0.27  OA
ATOM     36 H    LEU E   1       2.771  -6.966 -13.750  1.00 28.73 LIG 0.16  HD
BRANCH 34 37
ATOM     37  CA  GLN E   0       5.061  -6.908 -12.540  1.00 28.12 LIG 0.18  C 
BRANCH 37 38
ATOM     38  CB  GLN E   0       5.058  -7.946 -11.410  1.00 27.70 LIG 0.04  C 
BRANCH 38 39
ATOM     39  CG  GLN E   0       6.173  -8.987 -11.487  1.00 26.51 LIG 0.10  C 
BRANCH 39 40
ATOM     40  CD  GLN E   0       7.257  -8.754 -10.451  1.00 26.51 LIG 0.21  C 
ATOM     41 OE1  GLN E   0       7.415  -9.550  -9.518  1.00 26.66 LIG-0.27  OA
ATOM     42  NE2 GLN E   0       8.012  -7.667 -10.604  1.00 24.64 LIG-0.37  N 
ATOM     43 22HE GLN E   0       8.640  -7.497 -10.041  1.00 24.64 LIG 0.16  HD
ATOM     44 21HE GLN E   0       7.872  -7.136 -11.266  1.00 24.64 LIG 0.16  HD
ENDBRANCH 39 40
ENDBRANCH 38 39
ENDBRANCH 37 38
BRANCH 37 45
ATOM     45  N   GLN E   0       6.304  -6.061 -12.474  1.00 28.94 LIG-0.35  N 
ATOM     46  C   ACE E  -1       6.728  -5.293 -13.507  1.00 29.25 LIG 0.21  C 
ATOM     47 O    ACE E  -1       5.852  -4.815 -14.233  1.00 28.69 LIG-0.27  OA
ATOM     48  CH3 ACE E  -1       7.813  -4.323 -13.069  1.00 29.73 LIG 0.12  C 
ATOM     49 H    GLN E   0       6.718  -6.110 -11.722  1.00 28.94 LIG 0.16  HD
ENDBRANCH 37 45
ENDBRANCH 34 37
ENDBRANCH 28 33
ENDBRANCH 1 28
TORSDOF 19
ENDMDL
MODEL 60
USER: ADFR SOLUTION from run 165
USER: SCORE 13.628453 LL:  -3.870 LR: -11.417 RR:   0.000 FEB:  -5.749
USER: RMSD 3.268976
USER: SEED 164
USER: STATUS no improvement in best in 8 clusters for 5 generations
USER: GENES 21
USER: genes 0 Translation |==|  0.48469 0.49513 0.55455
USER: genes 1 Rotation |==|  0.06430 0.61100 0.41460 0.70137
USER: genes 2 Torsion [C]-N--CA-[CB] |==|  0.82777
USER: genes 3 Torsion [N]-CA--CB-[CG] |==|  0.66856
USER: genes 4 Torsion [CA]-CB--CG-[OD2] |==|  0.69665
USER: genes 5 Torsion [N]-CA--C-[N] |==|  0.23619
USER: genes 6 Torsion [C]-N--CA-[C] |==|  0.84755
USER: genes 7 Torsion [N]-CA--C-[N] |==|  0.36738
USER: genes 8 Torsion [C]-N--CA-[CB] |==|  0.20649
USER: genes 9 Torsion [N]-CA--C-[OXT] |==|  0.52240
USER: genes 10 Torsion [N]-CA--CB-[CG] |==|  0.65924
USER: genes 11 Torsion [CA]-CB--CG-[CD2] |==|  0.87528
USER: genes 12 Torsion [N]-C--CA-[N] |==|  0.88210
USER: genes 13 Torsion [C]-CA--CB-[CG] |==|  0.68851
USER: genes 14 Torsion [CA]-CB--CG-[CD2] |==|  0.73673
USER: genes 15 Torsion [C]-CA--N-[C] |==|  0.59617
USER: genes 16 Torsion [N]-C--CA-[N] |==|  0.91023
USER: genes 17 Torsion [C]-CA--CB-[CG] |==|  0.22370
USER: genes 18 Torsion [CA]-CB--CG-[CD] |==|  0.59423
USER: genes 19 Torsion [CB]-CG--CD-[OE1] |==|  0.01973
USER: genes 20 Torsion [C]-CA--N-[C] |==|  0.79905
ROOT
ATOM      1  C   LEU E   1       2.418  -5.880 -12.324  1.00 28.67 LIG 0.24  C 
ATOM      2 O    LEU E   1       2.706  -5.720 -13.514  1.00 26.53 LIG-0.27  OA
ATOM      3  N   ASP E   2       3.311  -6.204 -11.394  1.00 29.47 LIG-0.35  N 
ATOM      4 H    ASP E   2       3.143  -6.226 -10.551  1.00 29.47 LIG 0.16  HD
ENDROOT
BRANCH 3 5
ATOM      5  CA  ASP E   2       4.675  -6.554 -11.746  1.00 30.54 LIG 0.19  C 
BRANCH 5 6
ATOM      6  CB  ASP E   2       4.724  -7.806 -12.628  1.00 32.40 LIG 0.15  C 
BRANCH 6 7
ATOM      7  CG  ASP E   2       5.501  -8.936 -11.991  1.00 34.09 LIG 0.17  C 
ATOM      8 OD2  ASP E   2       6.609  -9.238 -12.476  1.00 37.71 LIG-0.65  OA
ATOM      9 OD1  ASP E   2       5.012  -9.520 -10.999  1.00 36.77 LIG-0.65  OA
ENDBRANCH 6 7
ENDBRANCH 5 6
BRANCH 5 10
ATOM     10  C   ASP E   2       5.269  -5.379 -12.484  1.00 30.01 LIG 0.24  C 
ATOM     11 O    ASP E   2       5.249  -5.334 -13.714  1.00 27.94 LIG-0.27  OA
ATOM     12  N   LEU E   3       5.788  -4.428 -11.719  1.00 30.14 LIG-0.35  N 
ATOM     13 H    LEU E   3       5.788  -4.456 -10.859  1.00 30.14 LIG 0.16  HD
BRANCH 12 14
ATOM     14  CA  LEU E   3       6.411  -3.240 -12.273  1.00 30.90 LIG 0.18  C 
BRANCH 14 15
ATOM     15  C   LEU E   3       7.513  -3.643 -13.253  1.00 32.33 LIG 0.24  C 
ATOM     16 O    LEU E   3       8.335  -4.519 -12.957  1.00 31.45 LIG-0.27  OA
ATOM     17  N   ALA E   4       7.500  -3.020 -14.427  1.00 33.58 LIG-0.34  N 
ATOM     18 H    ALA E   4       6.936  -2.404 -14.634  1.00 33.58 LIG 0.16  HD
BRANCH 17 19
ATOM     19  CA  ALA E   4       8.460  -3.334 -15.484  1.00 35.71 LIG 0.18  C 
ATOM     20  CB  ALA E   4       8.112  -4.663 -16.134  1.00 36.03 LIG 0.04  C 
BRANCH 19 21
ATOM     21  C   ALA E   4       8.483  -2.229 -16.530  1.00 37.05 LIG 0.20  C 
ATOM     22 OXT  ALA E   4       9.114  -2.368 -17.575  1.00 36.72 LIG-0.65  OA
ATOM     23 O    ALA E   4       7.870  -1.173 -16.356  1.00 37.61 LIG-0.65  OA
ENDBRANCH 19 21
ENDBRANCH 17 19
ENDBRANCH 14 15
BRANCH 14 24
ATOM     24  CB  LEU E   3       6.976  -2.386 -11.137  1.00 30.03 LIG 0.04  C 
BRANCH 24 25
ATOM     25  CG  LEU E   3       6.515  -0.940 -10.981  1.00 29.85 LIG-0.02  C 
ATOM     26  CD1 LEU E   3       7.380  -0.167 -10.002  1.00 29.46 LIG 0.01  C 
ATOM     27  CD2 LEU E   3       6.517  -0.285 -12.352  1.00 29.65 LIG 0.01  C 
ENDBRANCH 24 25
ENDBRANCH 14 24
ENDBRANCH 12 14
ENDBRANCH 5 10
ENDBRANCH 3 5
BRANCH 1 28
ATOM     28  CA  LEU E   1       0.992  -5.695 -11.836  1.00 29.46 LIG 0.18  C 
BRANCH 28 29
ATOM     29  CB  LEU E   1       0.813  -4.310 -11.214  1.00 29.35 LIG 0.04  C 
BRANCH 29 30
ATOM     30  CG  LEU E   1       0.567  -4.311  -9.698  1.00 30.22 LIG-0.02  C 
ATOM     31  CD2 LEU E   1      -0.922  -4.271  -9.383  1.00 31.32 LIG 0.01  C 
ATOM     32  CD1 LEU E   1       1.293  -3.159  -9.026  1.00 30.06 LIG 0.01  C 
ENDBRANCH 29 30
ENDBRANCH 28 29
BRANCH 28 33
ATOM     33  N   LEU E   1       0.667  -6.754 -10.885  1.00 28.73 LIG-0.35  N 
ATOM     34  C   GLN E   0      -0.560  -7.260 -10.824  1.00 28.95 LIG 0.24  C 
ATOM     35 O    GLN E   0      -1.505  -6.798 -11.458  1.00 30.73 LIG-0.27  OA
ATOM     36 H    LEU E   1       1.323  -7.008 -10.389  1.00 28.73 LIG 0.16  HD
BRANCH 34 37
ATOM     37  CA  GLN E   0      -0.770  -8.457  -9.911  1.00 28.12 LIG 0.18  C 
BRANCH 37 38
ATOM     38  CB  GLN E   0      -1.126  -7.961  -8.503  1.00 27.70 LIG 0.04  C 
BRANCH 38 39
ATOM     39  CG  GLN E   0      -2.586  -7.555  -8.312  1.00 26.51 LIG 0.10  C 
BRANCH 39 40
ATOM     40  CD  GLN E   0      -2.744  -6.398  -7.343  1.00 26.51 LIG 0.21  C 
ATOM     41 OE1  GLN E   0      -1.751  -5.805  -6.907  1.00 26.66 LIG-0.27  OA
ATOM     42  NE2 GLN E   0      -3.988  -6.065  -7.002  1.00 24.64 LIG-0.37  N 
ATOM     43 22HE GLN E   0      -4.125  -5.413  -6.457  1.00 24.64 LIG 0.16  HD
ATOM     44 21HE GLN E   0      -4.655  -6.501  -7.326  1.00 24.64 LIG 0.16  HD
ENDBRANCH 39 40
ENDBRANCH 38 39
ENDBRANCH 37 38
BRANCH 37 45
ATOM     45  N   GLN E   0       0.480  -9.295  -9.874  1.00 28.94 LIG-0.35  N 
ATOM     46  C   ACE E  -1       0.883 -10.064 -10.915  1.00 29.25 LIG 0.21  C 
ATOM     47 O    ACE E  -1       0.611  -9.647 -12.044  1.00 28.69 LIG-0.27  OA
ATOM     48  CH3 ACE E  -1       2.311 -10.550 -10.725  1.00 29.73 LIG 0.12  C 
ATOM     49 H    GLN E   0       0.913  -9.241  -9.133  1.00 28.94 LIG 0.16  HD
ENDBRANCH 37 45
ENDBRANCH 34 37
ENDBRANCH 28 33
ENDBRANCH 1 28
TORSDOF 19
ENDMDL
MODEL 61
USER: ADFR SOLUTION from run 142
USER: SCORE 13.055763 LL:  -3.553 LR: -11.413 RR:   0.000 FEB:  -5.746
USER: RMSD 4.861999
USER: SEED 141
USER: STATUS no improvement in best in 17 clusters for 5 generations
USER: GENES 21
USER: genes 0 Translation |==|  0.49673 0.52027 0.60297
USER: genes 1 Rotation |==|  0.47754 0.58014 0.40985 0.98471
USER: genes 2 Torsion [C]-N--CA-[CB] |==|  0.48448
USER: genes 3 Torsion [N]-CA--CB-[CG] |==|  0.74891
USER: genes 4 Torsion [CA]-CB--CG-[OD2] |==|  0.29208
USER: genes 5 Torsion [N]-CA--C-[N] |==|  0.25535
USER: genes 6 Torsion [C]-N--CA-[C] |==|  0.79539
USER: genes 7 Torsion [N]-CA--C-[N] |==|  0.92743
USER: genes 8 Torsion [C]-N--CA-[CB] |==|  0.16388
USER: genes 9 Torsion [N]-CA--C-[OXT] |==|  0.62536
USER: genes 10 Torsion [N]-CA--CB-[CG] |==|  0.33382
USER: genes 11 Torsion [CA]-CB--CG-[CD2] |==|  0.75831
USER: genes 12 Torsion [N]-C--CA-[N] |==|  0.85289
USER: genes 13 Torsion [C]-CA--CB-[CG] |==|  0.30447
USER: genes 14 Torsion [CA]-CB--CG-[CD2] |==|  0.95300
USER: genes 15 Torsion [C]-CA--N-[C] |==|  0.21756
USER: genes 16 Torsion [N]-C--CA-[N] |==|  0.44296
USER: genes 17 Torsion [C]-CA--CB-[CG] |==|  0.36695
USER: genes 18 Torsion [CA]-CB--CG-[CD] |==|  0.98431
USER: genes 19 Torsion [CB]-CG--CD-[OE1] |==|  0.78142
USER: genes 20 Torsion [C]-CA--N-[C] |==|  0.78094
ROOT
ATOM      1  C   LEU E   1       2.689  -5.427 -11.525  1.00 28.67 LIG 0.24  C 
ATOM      2 O    LEU E   1       3.278  -4.696 -10.723  1.00 26.53 LIG-0.27  OA
ATOM      3  N   ASP E   2       3.233  -6.520 -12.051  1.00 29.47 LIG-0.35  N 
ATOM      4 H    ASP E   2       2.804  -7.087 -12.535  1.00 29.47 LIG 0.16  HD
ENDROOT
BRANCH 3 5
ATOM      5  CA  ASP E   2       4.632  -6.845 -11.839  1.00 30.54 LIG 0.19  C 
BRANCH 5 6
ATOM      6  CB  ASP E   2       4.986  -8.215 -12.427  1.00 32.40 LIG 0.15  C 
BRANCH 6 7
ATOM      7  CG  ASP E   2       4.804  -9.339 -11.432  1.00 34.09 LIG 0.17  C 
ATOM      8 OD2  ASP E   2       3.817 -10.089 -11.561  1.00 37.71 LIG-0.65  OA
ATOM      9 OD1  ASP E   2       5.652  -9.482 -10.524  1.00 36.77 LIG-0.65  OA
ENDBRANCH 6 7
ENDBRANCH 5 6
BRANCH 5 10
ATOM     10  C   ASP E   2       5.453  -5.769 -12.506  1.00 30.01 LIG 0.24  C 
ATOM     11 O    ASP E   2       5.765  -5.860 -13.694  1.00 27.94 LIG-0.27  OA
ATOM     12  N   LEU E   3       5.791  -4.746 -11.731  1.00 30.14 LIG-0.35  N 
ATOM     13 H    LEU E   3       5.560  -4.678 -10.906  1.00 30.14 LIG 0.16  HD
BRANCH 12 14
ATOM     14  CA  LEU E   3       6.591  -3.637 -12.216  1.00 30.90 LIG 0.18  C 
BRANCH 14 15
ATOM     15  C   LEU E   3       8.046  -4.080 -12.377  1.00 32.33 LIG 0.24  C 
ATOM     16 O    LEU E   3       8.801  -3.501 -13.166  1.00 31.45 LIG-0.27  OA
ATOM     17  N   ALA E   4       8.432  -5.088 -11.600  1.00 33.58 LIG-0.34  N 
ATOM     18 H    ALA E   4       7.908  -5.499 -11.056  1.00 33.58 LIG 0.16  HD
BRANCH 17 19
ATOM     19  CA  ALA E   4       9.805  -5.590 -11.605  1.00 35.71 LIG 0.18  C 
ATOM     20  CB  ALA E   4      10.774  -4.480 -11.233  1.00 36.03 LIG 0.04  C 
BRANCH 19 21
ATOM     21  C   ALA E   4       9.950  -6.758 -10.641  1.00 37.05 LIG 0.20  C 
ATOM     22 OXT  ALA E   4      10.907  -6.822  -9.873  1.00 36.72 LIG-0.65  OA
ATOM     23 O    ALA E   4       9.113  -7.663 -10.604  1.00 37.61 LIG-0.65  OA
ENDBRANCH 19 21
ENDBRANCH 17 19
ENDBRANCH 14 15
BRANCH 14 24
ATOM     24  CB  LEU E   3       6.483  -2.466 -11.238  1.00 30.03 LIG 0.04  C 
BRANCH 24 25
ATOM     25  CG  LEU E   3       7.741  -1.929 -10.563  1.00 29.85 LIG-0.02  C 
ATOM     26  CD1 LEU E   3       7.635  -0.447 -10.254  1.00 29.46 LIG 0.01  C 
ATOM     27  CD2 LEU E   3       7.990  -2.737  -9.300  1.00 29.65 LIG 0.01  C 
ENDBRANCH 24 25
ENDBRANCH 14 24
ENDBRANCH 12 14
ENDBRANCH 5 10
ENDBRANCH 3 5
BRANCH 1 28
ATOM     28  CA  LEU E   1       1.266  -5.122 -11.958  1.00 29.46 LIG 0.18  C 
BRANCH 28 29
ATOM     29  CB  LEU E   1       0.294  -6.143 -11.363  1.00 29.35 LIG 0.04  C 
BRANCH 29 30
ATOM     30  CG  LEU E   1      -0.630  -5.592 -10.267  1.00 30.22 LIG-0.02  C 
ATOM     31  CD2 LEU E   1      -0.108  -4.270  -9.721  1.00 31.32 LIG 0.01  C 
ATOM     32  CD1 LEU E   1      -0.815  -6.603  -9.150  1.00 30.06 LIG 0.01  C 
ENDBRANCH 29 30
ENDBRANCH 28 29
BRANCH 28 33
ATOM     33  N   LEU E   1       1.198  -5.107 -13.416  1.00 28.73 LIG-0.35  N 
ATOM     34  C   GLN E   0       1.159  -6.241 -14.106  1.00 28.95 LIG 0.24  C 
ATOM     35 O    GLN E   0       1.295  -7.345 -13.585  1.00 30.73 LIG-0.27  OA
ATOM     36 H    LEU E   1       1.188  -4.322 -13.769  1.00 28.73 LIG 0.16  HD
BRANCH 34 37
ATOM     37  CA  GLN E   0       0.940  -6.130 -15.607  1.00 28.12 LIG 0.18  C 
BRANCH 37 38
ATOM     38  CB  GLN E   0      -0.551  -5.897 -15.883  1.00 27.70 LIG 0.04  C 
BRANCH 38 39
ATOM     39  CG  GLN E   0      -0.856  -4.762 -16.858  1.00 26.51 LIG 0.10  C 
BRANCH 39 40
ATOM     40  CD  GLN E   0       0.387  -3.992 -17.261  1.00 26.51 LIG 0.21  C 
ATOM     41 OE1  GLN E   0       0.875  -3.146 -16.502  1.00 26.66 LIG-0.27  OA
ATOM     42  NE2 GLN E   0       0.912  -4.277 -18.452  1.00 24.64 LIG-0.37  N 
ATOM     43 22HE GLN E   0       1.619  -3.867 -18.720  1.00 24.64 LIG 0.16  HD
ATOM     44 21HE GLN E   0       0.544  -4.872 -18.952  1.00 24.64 LIG 0.16  HD
ENDBRANCH 39 40
ENDBRANCH 38 39
ENDBRANCH 37 38
BRANCH 37 45
ATOM     45  N   GLN E   0       1.411  -7.390 -16.284  1.00 28.94 LIG-0.35  N 
ATOM     46  C   ACE E  -1       2.718  -7.647 -16.536  1.00 29.25 LIG 0.21  C 
ATOM     47 O    ACE E  -1       3.533  -7.197 -15.726  1.00 28.69 LIG-0.27  OA
ATOM     48  CH3 ACE E  -1       2.930  -9.098 -16.939  1.00 29.73 LIG 0.12  C 
ATOM     49 H    GLN E   0       0.776  -7.929 -16.495  1.00 28.94 LIG 0.16  HD
ENDBRANCH 37 45
ENDBRANCH 34 37
ENDBRANCH 28 33
ENDBRANCH 1 28
TORSDOF 19
ENDMDL
MODEL 62
USER: ADFR SOLUTION from run 165
USER: SCORE 13.758158 LL:  -3.839 LR: -11.397 RR:   0.000 FEB:  -5.729
USER: RMSD 3.426576
USER: SEED 164
USER: STATUS no improvement in best in 8 clusters for 5 generations
USER: GENES 21
USER: genes 0 Translation |==|  0.48182 0.50249 0.56534
USER: genes 1 Rotation |==|  0.08239 0.63830 0.43303 0.72801
USER: genes 2 Torsion [C]-N--CA-[CB] |==|  0.81667
USER: genes 3 Torsion [N]-CA--CB-[CG] |==|  0.90464
USER: genes 4 Torsion [CA]-CB--CG-[OD2] |==|  0.82185
USER: genes 5 Torsion [N]-CA--C-[N] |==|  0.22304
USER: genes 6 Torsion [C]-N--CA-[C] |==|  0.84086
USER: genes 7 Torsion [N]-CA--C-[N] |==|  0.37019
USER: genes 8 Torsion [C]-N--CA-[CB] |==|  0.20541
USER: genes 9 Torsion [N]-CA--C-[OXT] |==|  0.52238
USER: genes 10 Torsion [N]-CA--CB-[CG] |==|  0.63287
USER: genes 11 Torsion [CA]-CB--CG-[CD2] |==|  0.91139
USER: genes 12 Torsion [N]-C--CA-[N] |==|  0.81621
USER: genes 13 Torsion [C]-CA--CB-[CG] |==|  0.51345
USER: genes 14 Torsion [CA]-CB--CG-[CD2] |==|  0.62401
USER: genes 15 Torsion [C]-CA--N-[C] |==|  0.58388
USER: genes 16 Torsion [N]-C--CA-[N] |==|  0.41535
USER: genes 17 Torsion [C]-CA--CB-[CG] |==|  0.04387
USER: genes 18 Torsion [CA]-CB--CG-[CD] |==|  0.76518
USER: genes 19 Torsion [CB]-CG--CD-[OE1] |==|  0.83194
USER: genes 20 Torsion [C]-CA--N-[C] |==|  0.74846
ROOT
ATOM      1  C   LEU E   1       2.353  -5.747 -12.146  1.00 28.67 LIG 0.24  C 
ATOM      2 O    LEU E   1       2.571  -5.418 -13.316  1.00 26.53 LIG-0.27  OA
ATOM      3  N   ASP E   2       3.283  -6.265 -11.349  1.00 29.47 LIG-0.35  N 
ATOM      4 H    ASP E   2       3.170  -6.411 -10.509  1.00 29.47 LIG 0.16  HD
ENDROOT
BRANCH 3 5
ATOM      5  CA  ASP E   2       4.593  -6.633 -11.854  1.00 30.54 LIG 0.19  C 
BRANCH 5 6
ATOM      6  CB  ASP E   2       4.505  -7.797 -12.847  1.00 32.40 LIG 0.15  C 
BRANCH 6 7
ATOM      7  CG  ASP E   2       3.412  -8.782 -12.493  1.00 34.09 LIG 0.17  C 
ATOM      8 OD2  ASP E   2       3.512  -9.417 -11.425  1.00 37.71 LIG-0.65  OA
ATOM      9 OD1  ASP E   2       2.447  -8.917 -13.276  1.00 36.77 LIG-0.65  OA
ENDBRANCH 6 7
ENDBRANCH 5 6
BRANCH 5 10
ATOM     10  C   ASP E   2       5.174  -5.418 -12.533  1.00 30.01 LIG 0.24  C 
ATOM     11 O    ASP E   2       5.125  -5.297 -13.758  1.00 27.94 LIG-0.27  OA
ATOM     12  N   LEU E   3       5.716  -4.516 -11.725  1.00 30.14 LIG-0.35  N 
ATOM     13 H    LEU E   3       5.736  -4.596 -10.869  1.00 30.14 LIG 0.16  HD
BRANCH 12 14
ATOM     14  CA  LEU E   3       6.331  -3.299 -12.221  1.00 30.90 LIG 0.18  C 
BRANCH 14 15
ATOM     15  C   LEU E   3       7.448  -3.648 -13.205  1.00 32.33 LIG 0.24  C 
ATOM     16 O    LEU E   3       8.265  -4.539 -12.946  1.00 31.45 LIG-0.27  OA
ATOM     17  N   ALA E   4       7.452  -2.960 -14.343  1.00 33.58 LIG-0.34  N 
ATOM     18 H    ALA E   4       6.891  -2.333 -14.524  1.00 33.58 LIG 0.16  HD
BRANCH 17 19
ATOM     19  CA  ALA E   4       8.427  -3.215 -15.401  1.00 35.71 LIG 0.18  C 
ATOM     20  CB  ALA E   4       8.095  -4.511 -16.124  1.00 36.03 LIG 0.04  C 
BRANCH 19 21
ATOM     21  C   ALA E   4       8.459  -2.058 -16.389  1.00 37.05 LIG 0.20  C 
ATOM     22 OXT  ALA E   4       9.105  -2.141 -17.431  1.00 36.72 LIG-0.65  OA
ATOM     23 O    ALA E   4       7.838  -1.015 -16.170  1.00 37.61 LIG-0.65  OA
ENDBRANCH 19 21
ENDBRANCH 17 19
ENDBRANCH 14 15
BRANCH 14 24
ATOM     24  CB  LEU E   3       6.874  -2.488 -11.044  1.00 30.03 LIG 0.04  C 
BRANCH 24 25
ATOM     25  CG  LEU E   3       6.568  -0.996 -10.952  1.00 29.85 LIG-0.02  C 
ATOM     26  CD1 LEU E   3       7.612  -0.248 -10.142  1.00 29.46 LIG 0.01  C 
ATOM     27  CD2 LEU E   3       6.464  -0.440 -12.362  1.00 29.65 LIG 0.01  C 
ENDBRANCH 24 25
ENDBRANCH 14 24
ENDBRANCH 12 14
ENDBRANCH 5 10
ENDBRANCH 3 5
BRANCH 1 28
ATOM     28  CA  LEU E   1       0.979  -5.561 -11.528  1.00 29.46 LIG 0.18  C 
BRANCH 28 29
ATOM     29  CB  LEU E   1       1.068  -4.686 -10.277  1.00 29.35 LIG 0.04  C 
BRANCH 29 30
ATOM     30  CG  LEU E   1      -0.250  -4.528  -9.504  1.00 30.22 LIG-0.02  C 
ATOM     31  CD2 LEU E   1      -0.479  -3.078  -9.099  1.00 31.32 LIG 0.01  C 
ATOM     32  CD1 LEU E   1      -0.284  -5.440  -8.291  1.00 30.06 LIG 0.01  C 
ENDBRANCH 29 30
ENDBRANCH 28 29
BRANCH 28 33
ATOM     33  N   LEU E   1       0.406  -6.869 -11.224  1.00 28.73 LIG-0.35  N 
ATOM     34  C   GLN E   0      -0.909  -7.058 -11.252  1.00 28.95 LIG 0.24  C 
ATOM     35 O    GLN E   0      -1.712  -6.142 -11.409  1.00 30.73 LIG-0.27  OA
ATOM     36 H    LEU E   1       0.981  -7.480 -11.034  1.00 28.73 LIG 0.16  HD
BRANCH 34 37
ATOM     37  CA  GLN E   0      -1.407  -8.482 -11.069  1.00 28.12 LIG 0.18  C 
BRANCH 37 38
ATOM     38  CB  GLN E   0      -1.494  -9.165 -12.440  1.00 27.70 LIG 0.04  C 
BRANCH 38 39
ATOM     39  CG  GLN E   0      -0.739  -8.457 -13.563  1.00 26.51 LIG 0.10  C 
BRANCH 39 40
ATOM     40  CD  GLN E   0      -1.556  -7.349 -14.203  1.00 26.51 LIG 0.21  C 
ATOM     41 OE1  GLN E   0      -2.633  -7.602 -14.753  1.00 26.66 LIG-0.27  OA
ATOM     42  NE2 GLN E   0      -1.055  -6.117 -14.134  1.00 24.64 LIG-0.37  N 
ATOM     43 22HE GLN E   0      -1.486  -5.458 -14.481  1.00 24.64 LIG 0.16  HD
ATOM     44 21HE GLN E   0      -0.302  -5.980 -13.742  1.00 24.64 LIG 0.16  HD
ENDBRANCH 39 40
ENDBRANCH 38 39
ENDBRANCH 37 38
BRANCH 37 45
ATOM     45  N   GLN E   0      -2.756  -8.468 -10.400  1.00 28.94 LIG-0.35  N 
ATOM     46  C   ACE E  -1      -2.913  -8.518  -9.055  1.00 29.25 LIG 0.21  C 
ATOM     47 O    ACE E  -1      -2.029  -7.984  -8.379  1.00 28.69 LIG-0.27  OA
ATOM     48  CH3 ACE E  -1      -4.339  -8.183  -8.649  1.00 29.73 LIG 0.12  C 
ATOM     49 H    GLN E   0      -3.416  -8.426 -10.950  1.00 28.94 LIG 0.16  HD
ENDBRANCH 37 45
ENDBRANCH 34 37
ENDBRANCH 28 33
ENDBRANCH 1 28
TORSDOF 19
ENDMDL
MODEL 63
USER: ADFR SOLUTION from run 135
USER: SCORE 13.520046 LL:  -4.010 LR: -11.387 RR:   0.000 FEB:  -5.719
USER: RMSD 5.834546
USER: SEED 134
USER: STATUS no improvement in best in 3 clusters for 5 generations
USER: GENES 21
USER: genes 0 Translation |==|  0.34854 0.44365 0.44076
USER: genes 1 Rotation |==|  0.09859 0.56793 0.62473 0.76209
USER: genes 2 Torsion [C]-N--CA-[CB] |==|  0.17873
USER: genes 3 Torsion [N]-CA--CB-[CG] |==|  0.65913
USER: genes 4 Torsion [CA]-CB--CG-[OD2] |==|  0.87304
USER: genes 5 Torsion [N]-CA--C-[N] |==|  0.91111
USER: genes 6 Torsion [C]-N--CA-[C] |==|  0.65183
USER: genes 7 Torsion [N]-CA--C-[N] |==|  0.51085
USER: genes 8 Torsion [C]-N--CA-[CB] |==|  0.20539
USER: genes 9 Torsion [N]-CA--C-[OXT] |==|  0.86249
USER: genes 10 Torsion [N]-CA--CB-[CG] |==|  0.68041
USER: genes 11 Torsion [CA]-CB--CG-[CD2] |==|  0.86411
USER: genes 12 Torsion [N]-C--CA-[N] |==|  0.23961
USER: genes 13 Torsion [C]-CA--CB-[CG] |==|  0.63843
USER: genes 14 Torsion [CA]-CB--CG-[CD2] |==|  0.75323
USER: genes 15 Torsion [C]-CA--N-[C] |==|  0.65081
USER: genes 16 Torsion [N]-C--CA-[N] |==|  0.48655
USER: genes 17 Torsion [C]-CA--CB-[CG] |==|  0.78560
USER: genes 18 Torsion [CA]-CB--CG-[CD] |==|  0.35698
USER: genes 19 Torsion [CB]-CG--CD-[OE1] |==|  0.43357
USER: genes 20 Torsion [C]-CA--N-[C] |==|  0.57317
ROOT
ATOM      1  C   LEU E   1      -0.646  -6.806 -14.201  1.00 28.67 LIG 0.24  C 
ATOM      2 O    LEU E   1      -1.247  -6.237 -15.118  1.00 26.53 LIG-0.27  OA
ATOM      3  N   ASP E   2       0.676  -6.767 -14.061  1.00 29.47 LIG-0.35  N 
ATOM      4 H    ASP E   2       1.097  -7.078 -13.380  1.00 29.47 LIG 0.16  HD
ENDROOT
BRANCH 3 5
ATOM      5  CA  ASP E   2       1.527  -6.178 -15.079  1.00 30.54 LIG 0.19  C 
BRANCH 5 6
ATOM      6  CB  ASP E   2       1.262  -4.676 -15.232  1.00 32.40 LIG 0.15  C 
BRANCH 6 7
ATOM      7  CG  ASP E   2       0.872  -4.296 -16.643  1.00 34.09 LIG 0.17  C 
ATOM      8 OD2  ASP E   2       1.537  -4.765 -17.587  1.00 37.71 LIG-0.65  OA
ATOM      9 OD1  ASP E   2      -0.105  -3.534 -16.813  1.00 36.77 LIG-0.65  OA
ENDBRANCH 6 7
ENDBRANCH 5 6
BRANCH 5 10
ATOM     10  C   ASP E   2       2.959  -6.411 -14.663  1.00 30.01 LIG 0.24  C 
ATOM     11 O    ASP E   2       3.843  -6.561 -15.508  1.00 27.94 LIG-0.27  OA
ATOM     12  N   LEU E   3       3.177  -6.430 -13.355  1.00 30.14 LIG-0.35  N 
ATOM     13 H    LEU E   3       2.561  -6.311 -12.768  1.00 30.14 LIG 0.16  HD
BRANCH 12 14
ATOM     14  CA  LEU E   3       4.496  -6.658 -12.792  1.00 30.90 LIG 0.18  C 
BRANCH 14 15
ATOM     15  C   LEU E   3       4.442  -7.826 -11.807  1.00 32.33 LIG 0.24  C 
ATOM     16 O    LEU E   3       3.407  -8.488 -11.665  1.00 31.45 LIG-0.27  OA
ATOM     17  N   ALA E   4       5.573  -8.087 -11.158  1.00 33.58 LIG-0.34  N 
ATOM     18 H    ALA E   4       6.292  -7.624 -11.247  1.00 33.58 LIG 0.16  HD
BRANCH 17 19
ATOM     19  CA  ALA E   4       5.690  -9.203 -10.221  1.00 35.71 LIG 0.18  C 
ATOM     20  CB  ALA E   4       5.756 -10.521 -10.976  1.00 36.03 LIG 0.04  C 
BRANCH 19 21
ATOM     21  C   ALA E   4       6.924  -9.038  -9.346  1.00 37.05 LIG 0.20  C 
ATOM     22 OXT  ALA E   4       8.019  -8.788  -9.847  1.00 36.72 LIG-0.65  OA
ATOM     23 O    ALA E   4       6.856  -9.147  -8.120  1.00 37.61 LIG-0.65  OA
ENDBRANCH 19 21
ENDBRANCH 17 19
ENDBRANCH 14 15
BRANCH 14 24
ATOM     24  CB  LEU E   3       4.980  -5.382 -12.101  1.00 30.03 LIG 0.04  C 
BRANCH 24 25
ATOM     25  CG  LEU E   3       6.199  -4.646 -12.647  1.00 29.85 LIG-0.02  C 
ATOM     26  CD1 LEU E   3       6.647  -3.523 -11.729  1.00 29.46 LIG 0.01  C 
ATOM     27  CD2 LEU E   3       7.313  -5.657 -12.862  1.00 29.65 LIG 0.01  C 
ENDBRANCH 24 25
ENDBRANCH 14 24
ENDBRANCH 12 14
ENDBRANCH 5 10
ENDBRANCH 3 5
BRANCH 1 28
ATOM     28  CA  LEU E   1      -1.401  -7.593 -13.145  1.00 29.46 LIG 0.18  C 
BRANCH 28 29
ATOM     29  CB  LEU E   1      -2.688  -8.177 -13.730  1.00 29.35 LIG 0.04  C 
BRANCH 29 30
ATOM     30  CG  LEU E   1      -3.953  -7.910 -12.900  1.00 30.22 LIG-0.02  C 
ATOM     31  CD2 LEU E   1      -4.171  -9.004 -11.863  1.00 31.32 LIG 0.01  C 
ATOM     32  CD1 LEU E   1      -5.171  -7.762 -13.793  1.00 30.06 LIG 0.01  C 
ENDBRANCH 29 30
ENDBRANCH 28 29
BRANCH 28 33
ATOM     33  N   LEU E   1      -1.678  -6.725 -12.004  1.00 28.73 LIG-0.35  N 
ATOM     34  C   GLN E   0      -1.310  -7.077 -10.777  1.00 28.95 LIG 0.24  C 
ATOM     35 O    GLN E   0      -0.836  -8.179 -10.512  1.00 30.73 LIG-0.27  OA
ATOM     36 H    LEU E   1      -2.087  -5.993 -12.198  1.00 28.73 LIG 0.16  HD
BRANCH 34 37
ATOM     37  CA  GLN E   0      -1.506  -6.049  -9.675  1.00 28.12 LIG 0.18  C 
BRANCH 37 38
ATOM     38  CB  GLN E   0      -0.623  -4.827  -9.963  1.00 27.70 LIG 0.04  C 
BRANCH 38 39
ATOM     39  CG  GLN E   0       0.858  -5.010  -9.637  1.00 26.51 LIG 0.10  C 
BRANCH 39 40
ATOM     40  CD  GLN E   0       1.758  -4.632 -10.799  1.00 26.51 LIG 0.21  C 
ATOM     41 OE1  GLN E   0       2.931  -4.297 -10.599  1.00 26.66 LIG-0.27  OA
ATOM     42  NE2 GLN E   0       1.223  -4.686 -12.017  1.00 24.64 LIG-0.37  N 
ATOM     43 22HE GLN E   0       1.698  -4.483 -12.705  1.00 24.64 LIG 0.16  HD
ATOM     44 21HE GLN E   0       0.402  -4.924 -12.117  1.00 24.64 LIG 0.16  HD
ENDBRANCH 39 40
ENDBRANCH 38 39
ENDBRANCH 37 38
BRANCH 37 45
ATOM     45  N   GLN E   0      -1.149  -6.656  -8.343  1.00 28.94 LIG-0.35  N 
ATOM     46  C   ACE E  -1      -1.678  -6.226  -7.172  1.00 29.25 LIG 0.21  C 
ATOM     47 O    ACE E  -1      -2.833  -5.795  -7.216  1.00 28.69 LIG-0.27  OA
ATOM     48  CH3 ACE E  -1      -1.386  -7.199  -6.041  1.00 29.73 LIG 0.12  C 
ATOM     49 H    GLN E   0      -0.580  -7.298  -8.396  1.00 28.94 LIG 0.16  HD
ENDBRANCH 37 45
ENDBRANCH 34 37
ENDBRANCH 28 33
ENDBRANCH 1 28
TORSDOF 19
ENDMDL
MODEL 64
USER: ADFR SOLUTION from run 120
USER: SCORE 14.004109 LL:  -3.477 LR: -11.390 RR:   0.000 FEB:  -5.722
USER: RMSD 10.421820
USER: SEED 119
USER: STATUS no improvement in best in 6 clusters for 5 generations
USER: GENES 21
USER: genes 0 Translation |==|  0.31549 0.43835 0.57931
USER: genes 1 Rotation |==|  0.56148 0.01607 0.51332 0.60890
USER: genes 2 Torsion [C]-N--CA-[CB] |==|  0.22014
USER: genes 3 Torsion [N]-CA--CB-[CG] |==|  0.73612
USER: genes 4 Torsion [CA]-CB--CG-[OD2] |==|  0.26199
USER: genes 5 Torsion [N]-CA--C-[N] |==|  0.87116
USER: genes 6 Torsion [C]-N--CA-[C] |==|  0.81637
USER: genes 7 Torsion [N]-CA--C-[N] |==|  0.91722
USER: genes 8 Torsion [C]-N--CA-[CB] |==|  0.21664
USER: genes 9 Torsion [N]-CA--C-[OXT] |==|  0.76342
USER: genes 10 Torsion [N]-CA--CB-[CG] |==|  0.61626
USER: genes 11 Torsion [CA]-CB--CG-[CD2] |==|  0.16932
USER: genes 12 Torsion [N]-C--CA-[N] |==|  0.46785
USER: genes 13 Torsion [C]-CA--CB-[CG] |==|  0.74793
USER: genes 14 Torsion [CA]-CB--CG-[CD2] |==|  0.67377
USER: genes 15 Torsion [C]-CA--N-[C] |==|  0.76590
USER: genes 16 Torsion [N]-C--CA-[N] |==|  0.37417
USER: genes 17 Torsion [C]-CA--CB-[CG] |==|  0.35910
USER: genes 18 Torsion [CA]-CB--CG-[CD] |==|  0.51267
USER: genes 19 Torsion [CB]-CG--CD-[OE1] |==|  0.98516
USER: genes 20 Torsion [C]-CA--N-[C] |==|  0.80052
ROOT
ATOM      1  C   LEU E   1      -1.389  -6.902 -11.915  1.00 28.67 LIG 0.24  C 
ATOM      2 O    LEU E   1      -1.999  -6.270 -12.785  1.00 26.53 LIG-0.27  OA
ATOM      3  N   ASP E   2      -1.959  -7.834 -11.157  1.00 29.47 LIG-0.35  N 
ATOM      4 H    ASP E   2      -1.528  -8.345 -10.616  1.00 29.47 LIG 0.16  HD
ENDROOT
BRANCH 3 5
ATOM      5  CA  ASP E   2      -3.392  -8.063 -11.189  1.00 30.54 LIG 0.19  C 
BRANCH 5 6
ATOM      6  CB  ASP E   2      -3.800  -8.898 -12.407  1.00 32.40 LIG 0.15  C 
BRANCH 6 7
ATOM      7  CG  ASP E   2      -4.240  -8.045 -13.576  1.00 34.09 LIG 0.17  C 
ATOM      8 OD2  ASP E   2      -3.395  -7.749 -14.443  1.00 37.71 LIG-0.65  OA
ATOM      9 OD1  ASP E   2      -5.434  -7.675 -13.636  1.00 36.77 LIG-0.65  OA
ENDBRANCH 6 7
ENDBRANCH 5 6
BRANCH 5 10
ATOM     10  C   ASP E   2      -3.764  -8.786  -9.918  1.00 30.01 LIG 0.24  C 
ATOM     11 O    ASP E   2      -4.739  -8.431  -9.254  1.00 27.94 LIG-0.27  OA
ATOM     12  N   LEU E   3      -2.984  -9.809  -9.594  1.00 30.14 LIG-0.35  N 
ATOM     13 H    LEU E   3      -2.312 -10.064 -10.067  1.00 30.14 LIG 0.16  HD
BRANCH 12 14
ATOM     14  CA  LEU E   3      -3.197 -10.598  -8.395  1.00 30.90 LIG 0.18  C 
BRANCH 14 15
ATOM     15  C   LEU E   3      -2.949  -9.736  -7.157  1.00 32.33 LIG 0.24  C 
ATOM     16 O    LEU E   3      -3.531  -9.973  -6.092  1.00 31.45 LIG-0.27  OA
ATOM     17  N   ALA E   4      -2.059  -8.758  -7.303  1.00 33.58 LIG-0.34  N 
ATOM     18 H    ALA E   4      -1.658  -8.584  -8.043  1.00 33.58 LIG 0.16  HD
BRANCH 17 19
ATOM     19  CA  ALA E   4      -1.680  -7.882  -6.196  1.00 35.71 LIG 0.18  C 
ATOM     20  CB  ALA E   4      -0.705  -8.593  -5.270  1.00 36.03 LIG 0.04  C 
BRANCH 19 21
ATOM     21  C   ALA E   4      -1.060  -6.595  -6.721  1.00 37.05 LIG 0.20  C 
ATOM     22 OXT  ALA E   4       0.137  -6.542  -6.993  1.00 36.72 LIG-0.65  OA
ATOM     23 O    ALA E   4      -1.741  -5.582  -6.888  1.00 37.61 LIG-0.65  OA
ENDBRANCH 19 21
ENDBRANCH 17 19
ENDBRANCH 14 15
BRANCH 14 24
ATOM     24  CB  LEU E   3      -2.265 -11.810  -8.412  1.00 30.03 LIG 0.04  C 
BRANCH 24 25
ATOM     25  CG  LEU E   3      -2.792 -13.172  -7.971  1.00 29.85 LIG-0.02  C 
ATOM     26  CD1 LEU E   3      -3.238 -13.170  -6.520  1.00 29.46 LIG 0.01  C 
ATOM     27  CD2 LEU E   3      -3.932 -13.567  -8.895  1.00 29.65 LIG 0.01  C 
ENDBRANCH 24 25
ENDBRANCH 14 24
ENDBRANCH 12 14
ENDBRANCH 5 10
ENDBRANCH 3 5
BRANCH 1 28
ATOM     28  CA  LEU E   1       0.088  -6.656 -11.665  1.00 29.46 LIG 0.18  C 
BRANCH 28 29
ATOM     29  CB  LEU E   1       0.299  -6.009 -10.296  1.00 29.35 LIG 0.04  C 
BRANCH 29 30
ATOM     30  CG  LEU E   1       0.293  -4.473 -10.300  1.00 30.22 LIG-0.02  C 
ATOM     31  CD2 LEU E   1       1.637  -3.917  -9.849  1.00 31.32 LIG 0.01  C 
ATOM     32  CD1 LEU E   1      -0.833  -3.928  -9.441  1.00 30.06 LIG 0.01  C 
ENDBRANCH 29 30
ENDBRANCH 28 29
BRANCH 28 33
ATOM     33  N   LEU E   1       0.626  -5.824 -12.738  1.00 28.73 LIG-0.35  N 
ATOM     34  C   GLN E   0       1.030  -6.367 -13.881  1.00 28.95 LIG 0.24  C 
ATOM     35 O    GLN E   0       1.090  -7.581 -14.059  1.00 30.73 LIG-0.27  OA
ATOM     36 H    LEU E   1       0.654  -4.982 -12.562  1.00 28.73 LIG 0.16  HD
BRANCH 34 37
ATOM     37  CA  GLN E   0       1.436  -5.414 -14.994  1.00 28.12 LIG 0.18  C 
BRANCH 37 38
ATOM     38  CB  GLN E   0       0.319  -5.361 -16.044  1.00 27.70 LIG 0.04  C 
BRANCH 38 39
ATOM     39  CG  GLN E   0      -0.139  -3.955 -16.428  1.00 26.51 LIG 0.10  C 
BRANCH 39 40
ATOM     40  CD  GLN E   0      -1.317  -3.970 -17.385  1.00 26.51 LIG 0.21  C 
ATOM     41 OE1  GLN E   0      -1.738  -5.037 -17.845  1.00 26.66 LIG-0.27  OA
ATOM     42  NE2 GLN E   0      -1.860  -2.792 -17.689  1.00 24.64 LIG-0.37  N 
ATOM     43 22HE GLN E   0      -2.531  -2.753 -18.226  1.00 24.64 LIG 0.16  HD
ATOM     44 21HE GLN E   0      -1.539  -2.070 -17.349  1.00 24.64 LIG 0.16  HD
ENDBRANCH 39 40
ENDBRANCH 38 39
ENDBRANCH 37 38
BRANCH 37 45
ATOM     45  N   GLN E   0       2.725  -5.880 -15.618  1.00 28.94 LIG-0.35  N 
ATOM     46  C   ACE E  -1       3.922  -5.792 -14.990  1.00 29.25 LIG 0.21  C 
ATOM     47 O    ACE E  -1       3.908  -5.907 -13.761  1.00 28.69 LIG-0.27  OA
ATOM     48  CH3 ACE E  -1       4.987  -6.604 -15.709  1.00 29.73 LIG 0.12  C 
ATOM     49 H    GLN E   0       2.630  -6.206 -16.408  1.00 28.94 LIG 0.16  HD
ENDBRANCH 37 45
ENDBRANCH 34 37
ENDBRANCH 28 33
ENDBRANCH 1 28
TORSDOF 19
ENDMDL
MODEL 65
USER: ADFR SOLUTION from run 199
USER: SCORE 13.812446 LL:  -4.026 LR: -11.359 RR:   0.000 FEB:  -5.691
USER: RMSD 8.739052
USER: SEED 198
USER: STATUS no improvement in best in 7 clusters for 5 generations
USER: GENES 21
USER: genes 0 Translation |==|  0.63241 0.48860 0.49707
USER: genes 1 Rotation |==|  0.74769 0.11488 0.69494 0.54832
USER: genes 2 Torsion [C]-N--CA-[CB] |==|  0.46425
USER: genes 3 Torsion [N]-CA--CB-[CG] |==|  0.81515
USER: genes 4 Torsion [CA]-CB--CG-[OD2] |==|  0.40278
USER: genes 5 Torsion [N]-CA--C-[N] |==|  0.90925
USER: genes 6 Torsion [C]-N--CA-[C] |==|  0.79676
USER: genes 7 Torsion [N]-CA--C-[N] |==|  0.35982
USER: genes 8 Torsion [C]-N--CA-[CB] |==|  0.19452
USER: genes 9 Torsion [N]-CA--C-[OXT] |==|  0.60787
USER: genes 10 Torsion [N]-CA--CB-[CG] |==|  0.61165
USER: genes 11 Torsion [CA]-CB--CG-[CD2] |==|  0.92577
USER: genes 12 Torsion [N]-C--CA-[N] |==|  0.07716
USER: genes 13 Torsion [C]-CA--CB-[CG] |==|  0.56409
USER: genes 14 Torsion [CA]-CB--CG-[CD2] |==|  0.84940
USER: genes 15 Torsion [C]-CA--N-[C] |==|  0.18333
USER: genes 16 Torsion [N]-C--CA-[N] |==|  0.02350
USER: genes 17 Torsion [C]-CA--CB-[CG] |==|  0.44433
USER: genes 18 Torsion [CA]-CB--CG-[CD] |==|  0.28309
USER: genes 19 Torsion [CB]-CG--CD-[OE1] |==|  0.30014
USER: genes 20 Torsion [C]-CA--N-[C] |==|  0.72732
ROOT
ATOM      1  C   LEU E   1       5.741  -5.997 -13.272  1.00 28.67 LIG 0.24  C 
ATOM      2 O    LEU E   1       5.324  -6.530 -14.306  1.00 26.53 LIG-0.27  OA
ATOM      3  N   ASP E   2       5.787  -6.620 -12.098  1.00 29.47 LIG-0.35  N 
ATOM      4 H    ASP E   2       6.160  -6.295 -11.395  1.00 29.47 LIG 0.16  HD
ENDROOT
BRANCH 3 5
ATOM      5  CA  ASP E   2       5.193  -7.932 -11.914  1.00 30.54 LIG 0.19  C 
BRANCH 5 6
ATOM      6  CB  ASP E   2       5.641  -8.571 -10.596  1.00 32.40 LIG 0.15  C 
BRANCH 6 7
ATOM      7  CG  ASP E   2       7.117  -8.901 -10.582  1.00 34.09 LIG 0.17  C 
ATOM      8 OD2  ASP E   2       7.739  -8.783  -9.508  1.00 37.71 LIG-0.65  OA
ATOM      9 OD1  ASP E   2       7.659  -9.286 -11.641  1.00 36.77 LIG-0.65  OA
ENDBRANCH 6 7
ENDBRANCH 5 6
BRANCH 5 10
ATOM     10  C   ASP E   2       3.695  -7.755 -11.921  1.00 30.01 LIG 0.24  C 
ATOM     11 O    ASP E   2       2.959  -8.639 -12.363  1.00 27.94 LIG-0.27  OA
ATOM     12  N   LEU E   3       3.252  -6.611 -11.418  1.00 30.14 LIG-0.35  N 
ATOM     13 H    LEU E   3       3.767  -6.001 -11.096  1.00 30.14 LIG 0.16  HD
BRANCH 12 14
ATOM     14  CA  LEU E   3       1.840  -6.281 -11.365  1.00 30.90 LIG 0.18  C 
BRANCH 14 15
ATOM     15  C   LEU E   3       1.334  -5.947 -12.768  1.00 32.33 LIG 0.24  C 
ATOM     16 O    LEU E   3       1.947  -5.153 -13.491  1.00 31.45 LIG-0.27  OA
ATOM     17  N   ALA E   4       0.232  -6.585 -13.153  1.00 33.58 LIG-0.34  N 
ATOM     18 H    ALA E   4      -0.202  -7.132 -12.651  1.00 33.58 LIG 0.16  HD
BRANCH 17 19
ATOM     19  CA  ALA E   4      -0.343  -6.408 -14.485  1.00 35.71 LIG 0.18  C 
ATOM     20  CB  ALA E   4       0.552  -7.045 -15.535  1.00 36.03 LIG 0.04  C 
BRANCH 19 21
ATOM     21  C   ALA E   4      -1.738  -7.012 -14.549  1.00 37.05 LIG 0.20  C 
ATOM     22 OXT  ALA E   4      -2.116  -7.611 -15.553  1.00 36.72 LIG-0.65  OA
ATOM     23 O    ALA E   4      -2.518  -6.918 -13.599  1.00 37.61 LIG-0.65  OA
ENDBRANCH 19 21
ENDBRANCH 17 19
ENDBRANCH 14 15
BRANCH 14 24
ATOM     24  CB  LEU E   3       1.629  -5.102 -10.414  1.00 30.03 LIG 0.04  C 
BRANCH 24 25
ATOM     25  CG  LEU E   3       0.426  -5.096  -9.476  1.00 29.85 LIG-0.02  C 
ATOM     26  CD1 LEU E   3      -0.057  -3.689  -9.174  1.00 29.46 LIG 0.01  C 
ATOM     27  CD2 LEU E   3      -0.677  -5.932 -10.105  1.00 29.65 LIG 0.01  C 
ENDBRANCH 24 25
ENDBRANCH 14 24
ENDBRANCH 12 14
ENDBRANCH 5 10
ENDBRANCH 3 5
BRANCH 1 28
ATOM     28  CA  LEU E   1       6.254  -4.568 -13.285  1.00 29.46 LIG 0.18  C 
BRANCH 28 29
ATOM     29  CB  LEU E   1       6.825  -4.216 -14.659  1.00 29.35 LIG 0.04  C 
BRANCH 29 30
ATOM     30  CG  LEU E   1       7.841  -3.064 -14.659  1.00 30.22 LIG-0.02  C 
ATOM     31  CD2 LEU E   1       7.262  -1.820 -14.000  1.00 31.32 LIG 0.01  C 
ATOM     32  CD1 LEU E   1       8.318  -2.757 -16.067  1.00 30.06 LIG 0.01  C 
ENDBRANCH 29 30
ENDBRANCH 28 29
BRANCH 28 33
ATOM     33  N   LEU E   1       7.253  -4.405 -12.233  1.00 28.73 LIG-0.35  N 
ATOM     34  C   GLN E   0       8.413  -5.049 -12.293  1.00 28.95 LIG 0.24  C 
ATOM     35 O    GLN E   0       8.665  -5.894 -13.148  1.00 30.73 LIG-0.27  OA
ATOM     36 H    LEU E   1       7.024  -3.873 -11.597  1.00 28.73 LIG 0.16  HD
BRANCH 34 37
ATOM     37  CA  GLN E   0       9.450  -4.707 -11.235  1.00 28.12 LIG 0.18  C 
BRANCH 37 38
ATOM     38  CB  GLN E   0       9.969  -6.004 -10.601  1.00 27.70 LIG 0.04  C 
BRANCH 38 39
ATOM     39  CG  GLN E   0      11.315  -5.881  -9.890  1.00 26.51 LIG 0.10  C 
BRANCH 39 40
ATOM     40  CD  GLN E   0      11.171  -5.802  -8.382  1.00 26.51 LIG 0.21  C 
ATOM     41 OE1  GLN E   0      11.500  -6.757  -7.669  1.00 26.66 LIG-0.27  OA
ATOM     42  NE2 GLN E   0      10.682  -4.668  -7.883  1.00 24.64 LIG-0.37  N 
ATOM     43 22HE GLN E   0      10.586  -4.578  -7.033  1.00 24.64 LIG 0.16  HD
ATOM     44 21HE GLN E   0      10.464  -4.025  -8.411  1.00 24.64 LIG 0.16  HD
ENDBRANCH 39 40
ENDBRANCH 38 39
ENDBRANCH 37 38
BRANCH 37 45
ATOM     45  N   GLN E   0       8.834  -3.818 -10.187  1.00 28.94 LIG-0.35  N 
ATOM     46  C   ACE E  -1       8.978  -2.470 -10.187  1.00 29.25 LIG 0.21  C 
ATOM     47 O    ACE E  -1       9.072  -1.927 -11.292  1.00 28.69 LIG-0.27  OA
ATOM     48  CH3 ACE E  -1       8.015  -1.809  -9.215  1.00 29.73 LIG 0.12  C 
ATOM     49 H    GLN E   0       8.385  -4.244  -9.591  1.00 28.94 LIG 0.16  HD
ENDBRANCH 37 45
ENDBRANCH 34 37
ENDBRANCH 28 33
ENDBRANCH 1 28
TORSDOF 19
ENDMDL
MODEL 66
USER: ADFR SOLUTION from run 96
USER: SCORE 13.375434 LL:  -3.612 LR: -11.347 RR:   0.000 FEB:  -5.679
USER: RMSD 4.408769
USER: SEED 95
USER: STATUS no improvement in best in 11 clusters for 5 generations
USER: GENES 21
USER: genes 0 Translation |==|  0.52807 0.45954 0.59029
USER: genes 1 Rotation |==|  0.36205 0.53910 0.40908 0.97029
USER: genes 2 Torsion [C]-N--CA-[CB] |==|  0.45556
USER: genes 3 Torsion [N]-CA--CB-[CG] |==|  0.59894
USER: genes 4 Torsion [CA]-CB--CG-[OD2] |==|  0.31548
USER: genes 5 Torsion [N]-CA--C-[N] |==|  0.40974
USER: genes 6 Torsion [C]-N--CA-[C] |==|  0.64451
USER: genes 7 Torsion [N]-CA--C-[N] |==|  0.02818
USER: genes 8 Torsion [C]-N--CA-[CB] |==|  0.28085
USER: genes 9 Torsion [N]-CA--C-[OXT] |==|  0.07269
USER: genes 10 Torsion [N]-CA--CB-[CG] |==|  0.06080
USER: genes 11 Torsion [CA]-CB--CG-[CD2] |==|  0.61420
USER: genes 12 Torsion [N]-C--CA-[N] |==|  0.31405
USER: genes 13 Torsion [C]-CA--CB-[CG] |==|  0.44450
USER: genes 14 Torsion [CA]-CB--CG-[CD2] |==|  0.85914
USER: genes 15 Torsion [C]-CA--N-[C] |==|  0.76099
USER: genes 16 Torsion [N]-C--CA-[N] |==|  0.07471
USER: genes 17 Torsion [C]-CA--CB-[CG] |==|  0.60500
USER: genes 18 Torsion [CA]-CB--CG-[CD] |==|  0.81126
USER: genes 19 Torsion [CB]-CG--CD-[OE1] |==|  0.05570
USER: genes 20 Torsion [C]-CA--N-[C] |==|  0.69197
ROOT
ATOM      1  C   LEU E   1       3.394  -6.520 -11.734  1.00 28.67 LIG 0.24  C 
ATOM      2 O    LEU E   1       3.879  -5.455 -11.340  1.00 26.53 LIG-0.27  OA
ATOM      3  N   ASP E   2       4.033  -7.684 -11.660  1.00 29.47 LIG-0.35  N 
ATOM      4 H    ASP E   2       3.674  -8.443 -11.843  1.00 29.47 LIG 0.16  HD
ENDROOT
BRANCH 3 5
ATOM      5  CA  ASP E   2       5.425  -7.758 -11.254  1.00 30.54 LIG 0.19  C 
BRANCH 5 6
ATOM      6  CB  ASP E   2       5.822  -9.186 -10.867  1.00 32.40 LIG 0.15  C 
BRANCH 6 7
ATOM      7  CG  ASP E   2       6.809  -9.225  -9.721  1.00 34.09 LIG 0.17  C 
ATOM      8 OD2  ASP E   2       6.436  -9.712  -8.636  1.00 37.71 LIG-0.65  OA
ATOM      9 OD1  ASP E   2       7.962  -8.776  -9.905  1.00 36.77 LIG-0.65  OA
ENDBRANCH 6 7
ENDBRANCH 5 6
BRANCH 5 10
ATOM     10  C   ASP E   2       6.262  -7.285 -12.417  1.00 30.01 LIG 0.24  C 
ATOM     11 O    ASP E   2       5.895  -7.479 -13.576  1.00 27.94 LIG-0.27  OA
ATOM     12  N   LEU E   3       7.384  -6.657 -12.094  1.00 30.14 LIG-0.35  N 
ATOM     13 H    LEU E   3       7.632  -6.510 -11.284  1.00 30.14 LIG 0.16  HD
BRANCH 12 14
ATOM     14  CA  LEU E   3       8.308  -6.154 -13.095  1.00 30.90 LIG 0.18  C 
BRANCH 14 15
ATOM     15  C   LEU E   3       9.718  -6.664 -12.799  1.00 32.33 LIG 0.24  C 
ATOM     16 O    LEU E   3      10.699  -6.194 -13.389  1.00 31.45 LIG-0.27  OA
ATOM     17  N   ALA E   4       9.810  -7.601 -11.860  1.00 33.58 LIG-0.34  N 
ATOM     18 H    ALA E   4       9.130  -7.937 -11.453  1.00 33.58 LIG 0.16  HD
BRANCH 17 19
ATOM     19  CA  ALA E   4      11.095  -8.150 -11.433  1.00 35.71 LIG 0.18  C 
ATOM     20  CB  ALA E   4      11.528  -7.520 -10.119  1.00 36.03 LIG 0.04  C 
BRANCH 19 21
ATOM     21  C   ALA E   4      11.008  -9.662 -11.286  1.00 37.05 LIG 0.20  C 
ATOM     22 OXT  ALA E   4      10.186 -10.309 -11.933  1.00 36.72 LIG-0.65  OA
ATOM     23 O    ALA E   4      11.757 -10.273 -10.520  1.00 37.61 LIG-0.65  OA
ENDBRANCH 19 21
ENDBRANCH 17 19
ENDBRANCH 14 15
BRANCH 14 24
ATOM     24  CB  LEU E   3       8.269  -4.625 -13.100  1.00 30.03 LIG 0.04  C 
BRANCH 24 25
ATOM     25  CG  LEU E   3       7.770  -3.881 -11.866  1.00 29.85 LIG-0.02  C 
ATOM     26  CD1 LEU E   3       8.912  -3.396 -10.990  1.00 29.46 LIG 0.01  C 
ATOM     27  CD2 LEU E   3       6.900  -2.722 -12.324  1.00 29.65 LIG 0.01  C 
ENDBRANCH 24 25
ENDBRANCH 14 24
ENDBRANCH 12 14
ENDBRANCH 5 10
ENDBRANCH 3 5
BRANCH 1 28
ATOM     28  CA  LEU E   1       1.997  -6.568 -12.328  1.00 29.46 LIG 0.18  C 
BRANCH 28 29
ATOM     29  CB  LEU E   1       1.888  -5.614 -13.518  1.00 29.35 LIG 0.04  C 
BRANCH 29 30
ATOM     30  CG  LEU E   1       0.727  -5.911 -14.479  1.00 30.22 LIG-0.02  C 
ATOM     31  CD2 LEU E   1       0.722  -7.374 -14.899  1.00 31.32 LIG 0.01  C 
ATOM     32  CD1 LEU E   1       0.775  -5.000 -15.692  1.00 30.06 LIG 0.01  C 
ENDBRANCH 29 30
ENDBRANCH 28 29
BRANCH 28 33
ATOM     33  N   LEU E   1       1.022  -6.243 -11.291  1.00 28.73 LIG-0.35  N 
ATOM     34  C   GLN E   0       0.548  -7.185 -10.484  1.00 28.95 LIG 0.24  C 
ATOM     35 O    GLN E   0       0.799  -8.379 -10.631  1.00 30.73 LIG-0.27  OA
ATOM     36 H    LEU E   1       0.794  -5.414 -11.257  1.00 28.73 LIG 0.16  HD
BRANCH 34 37
ATOM     37  CA  GLN E   0      -0.347  -6.733  -9.342  1.00 28.12 LIG 0.18  C 
BRANCH 37 38
ATOM     38  CB  GLN E   0      -1.379  -7.829  -9.046  1.00 27.70 LIG 0.04  C 
BRANCH 38 39
ATOM     39  CG  GLN E   0      -2.774  -7.322  -8.684  1.00 26.51 LIG 0.10  C 
BRANCH 39 40
ATOM     40  CD  GLN E   0      -2.802  -6.610  -7.344  1.00 26.51 LIG 0.21  C 
ATOM     41 OE1  GLN E   0      -1.761  -6.163  -6.849  1.00 26.66 LIG-0.27  OA
ATOM     42  NE2 GLN E   0      -3.988  -6.494  -6.749  1.00 24.64 LIG-0.37  N 
ATOM     43 22HE GLN E   0      -4.051  -6.095  -5.989  1.00 24.64 LIG 0.16  HD
ATOM     44 21HE GLN E   0      -4.691  -6.817  -7.124  1.00 24.64 LIG 0.16  HD
ENDBRANCH 39 40
ENDBRANCH 38 39
ENDBRANCH 37 38
BRANCH 37 45
ATOM     45  N   GLN E   0      -1.036  -5.446  -9.714  1.00 28.94 LIG-0.35  N 
ATOM     46  C   ACE E  -1      -0.753  -4.261  -9.122  1.00 29.25 LIG 0.21  C 
ATOM     47 O    ACE E  -1       0.412  -4.097  -8.747  1.00 28.69 LIG-0.27  OA
ATOM     48  CH3 ACE E  -1      -1.360  -3.098  -9.890  1.00 29.73 LIG 0.12  C 
ATOM     49 H    GLN E   0      -1.624  -5.535 -10.335  1.00 28.94 LIG 0.16  HD
ENDBRANCH 37 45
ENDBRANCH 34 37
ENDBRANCH 28 33
ENDBRANCH 1 28
TORSDOF 19
ENDMDL
MODEL 67
USER: ADFR SOLUTION from run 154
USER: SCORE 13.738151 LL:  -4.349 LR: -11.345 RR:   0.000 FEB:  -5.678
USER: RMSD 5.523482
USER: SEED 153
USER: STATUS no improvement in best in 10 clusters for 5 generations
USER: GENES 21
USER: genes 0 Translation |==|  0.61232 0.53589 0.55146
USER: genes 1 Rotation |==|  0.06617 0.32248 0.54629 0.66774
USER: genes 2 Torsion [C]-N--CA-[CB] |==|  0.44577
USER: genes 3 Torsion [N]-CA--CB-[CG] |==|  0.55287
USER: genes 4 Torsion [CA]-CB--CG-[OD2] |==|  0.10270
USER: genes 5 Torsion [N]-CA--C-[N] |==|  0.89059
USER: genes 6 Torsion [C]-N--CA-[C] |==|  0.69444
USER: genes 7 Torsion [N]-CA--C-[N] |==|  0.87351
USER: genes 8 Torsion [C]-N--CA-[CB] |==|  0.14621
USER: genes 9 Torsion [N]-CA--C-[OXT] |==|  0.38998
USER: genes 10 Torsion [N]-CA--CB-[CG] |==|  0.80945
USER: genes 11 Torsion [CA]-CB--CG-[CD2] |==|  0.18745
USER: genes 12 Torsion [N]-C--CA-[N] |==|  0.31080
USER: genes 13 Torsion [C]-CA--CB-[CG] |==|  0.85136
USER: genes 14 Torsion [CA]-CB--CG-[CD2] |==|  0.68127
USER: genes 15 Torsion [C]-CA--N-[C] |==|  0.81053
USER: genes 16 Torsion [N]-C--CA-[N] |==|  0.00618
USER: genes 17 Torsion [C]-CA--CB-[CG] |==|  0.15952
USER: genes 18 Torsion [CA]-CB--CG-[CD] |==|  0.36388
USER: genes 19 Torsion [CB]-CG--CD-[OE1] |==|  0.22669
USER: genes 20 Torsion [C]-CA--N-[C] |==|  0.75902
ROOT
ATOM      1  C   LEU E   1       5.289  -5.146 -12.375  1.00 28.67 LIG 0.24  C 
ATOM      2 O    LEU E   1       5.337  -5.030 -13.604  1.00 26.53 LIG-0.27  OA
ATOM      3  N   ASP E   2       5.764  -4.229 -11.537  1.00 29.47 LIG-0.35  N 
ATOM      4 H    ASP E   2       5.654  -4.252 -10.685  1.00 29.47 LIG 0.16  HD
ENDROOT
BRANCH 3 5
ATOM      5  CA  ASP E   2       6.525  -3.089 -12.016  1.00 30.54 LIG 0.19  C 
BRANCH 5 6
ATOM      6  CB  ASP E   2       6.549  -1.957 -10.984  1.00 32.40 LIG 0.15  C 
BRANCH 6 7
ATOM      7  CG  ASP E   2       6.916  -0.622 -11.594  1.00 34.09 LIG 0.17  C 
ATOM      8 OD2  ASP E   2       6.494  -0.360 -12.738  1.00 37.71 LIG-0.65  OA
ATOM      9 OD1  ASP E   2       7.618   0.171 -10.930  1.00 36.77 LIG-0.65  OA
ENDBRANCH 6 7
ENDBRANCH 5 6
BRANCH 5 10
ATOM     10  C   ASP E   2       7.930  -3.566 -12.293  1.00 30.01 LIG 0.24  C 
ATOM     11 O    ASP E   2       8.553  -3.153 -13.271  1.00 27.94 LIG-0.27  OA
ATOM     12  N   LEU E   3       8.422  -4.433 -11.417  1.00 30.14 LIG-0.35  N 
ATOM     13 H    LEU E   3       7.990  -4.709 -10.727  1.00 30.14 LIG 0.16  HD
BRANCH 12 14
ATOM     14  CA  LEU E   3       9.752  -4.999 -11.549  1.00 30.90 LIG 0.18  C 
BRANCH 14 15
ATOM     15  C   LEU E   3       9.649  -6.481 -11.909  1.00 32.33 LIG 0.24  C 
ATOM     16 O    LEU E   3      10.372  -6.972 -12.784  1.00 31.45 LIG-0.27  OA
ATOM     17  N   ALA E   4       8.770  -7.188 -11.205  1.00 33.58 LIG-0.34  N 
ATOM     18 H    ALA E   4       8.260  -6.849 -10.602  1.00 33.58 LIG 0.16  HD
BRANCH 17 19
ATOM     19  CA  ALA E   4       8.595  -8.625 -11.401  1.00 35.71 LIG 0.18  C 
ATOM     20  CB  ALA E   4       9.933  -9.339 -11.301  1.00 36.03 LIG 0.04  C 
BRANCH 19 21
ATOM     21  C   ALA E   4       7.622  -9.189 -10.376  1.00 37.05 LIG 0.20  C 
ATOM     22 OXT  ALA E   4       6.799 -10.044 -10.697  1.00 36.72 LIG-0.65  OA
ATOM     23 O    ALA E   4       7.637  -8.807  -9.204  1.00 37.61 LIG-0.65  OA
ENDBRANCH 19 21
ENDBRANCH 17 19
ENDBRANCH 14 15
BRANCH 14 24
ATOM     24  CB  LEU E   3      10.518  -4.807 -10.239  1.00 30.03 LIG 0.04  C 
BRANCH 24 25
ATOM     25  CG  LEU E   3      10.932  -3.404  -9.808  1.00 29.85 LIG-0.02  C 
ATOM     26  CD1 LEU E   3      11.757  -2.700 -10.870  1.00 29.46 LIG 0.01  C 
ATOM     27  CD2 LEU E   3       9.678  -2.614  -9.474  1.00 29.65 LIG 0.01  C 
ENDBRANCH 24 25
ENDBRANCH 14 24
ENDBRANCH 12 14
ENDBRANCH 5 10
ENDBRANCH 3 5
BRANCH 1 28
ATOM     28  CA  LEU E   1       4.655  -6.366 -11.731  1.00 29.46 LIG 0.18  C 
BRANCH 28 29
ATOM     29  CB  LEU E   1       5.311  -7.647 -12.250  1.00 29.35 LIG 0.04  C 
BRANCH 29 30
ATOM     30  CG  LEU E   1       5.340  -7.784 -13.779  1.00 30.22 LIG-0.02  C 
ATOM     31  CD2 LEU E   1       4.484  -8.954 -14.243  1.00 31.32 LIG 0.01  C 
ATOM     32  CD1 LEU E   1       6.763  -7.920 -14.289  1.00 30.06 LIG 0.01  C 
ENDBRANCH 29 30
ENDBRANCH 28 29
BRANCH 28 33
ATOM     33  N   LEU E   1       3.219  -6.358 -11.994  1.00 28.73 LIG-0.35  N 
ATOM     34  C   GLN E   0       2.433  -5.440 -11.442  1.00 28.95 LIG 0.24  C 
ATOM     35 O    GLN E   0       2.832  -4.637 -10.603  1.00 30.73 LIG-0.27  OA
ATOM     36 H    LEU E   1       2.944  -6.981 -12.519  1.00 28.73 LIG 0.16  HD
BRANCH 34 37
ATOM     37  CA  GLN E   0       0.980  -5.416 -11.886  1.00 28.12 LIG 0.18  C 
BRANCH 37 38
ATOM     38  CB  GLN E   0       0.075  -5.568 -10.656  1.00 27.70 LIG 0.04  C 
BRANCH 38 39
ATOM     39  CG  GLN E   0       0.275  -4.511  -9.573  1.00 26.51 LIG 0.10  C 
BRANCH 39 40
ATOM     40  CD  GLN E   0      -1.033  -3.895  -9.114  1.00 26.51 LIG 0.21  C 
ATOM     41 OE1  GLN E   0      -1.741  -4.474  -8.282  1.00 26.66 LIG-0.27  OA
ATOM     42  NE2 GLN E   0      -1.364  -2.719  -9.646  1.00 24.64 LIG-0.37  N 
ATOM     43 22HE GLN E   0      -2.096  -2.332  -9.412  1.00 24.64 LIG 0.16  HD
ATOM     44 21HE GLN E   0      -0.846  -2.346 -10.222  1.00 24.64 LIG 0.16  HD
ENDBRANCH 39 40
ENDBRANCH 38 39
ENDBRANCH 37 38
BRANCH 37 45
ATOM     45  N   GLN E   0       0.728  -6.531 -12.867  1.00 28.94 LIG-0.35  N 
ATOM     46  C   ACE E  -1       0.940  -6.403 -14.199  1.00 29.25 LIG 0.21  C 
ATOM     47 O    ACE E  -1       1.860  -5.654 -14.540  1.00 28.69 LIG-0.27  OA
ATOM     48  CH3 ACE E  -1       0.902  -7.752 -14.899  1.00 29.73 LIG 0.12  C 
ATOM     49 H    GLN E   0       0.438  -7.255 -12.503  1.00 28.94 LIG 0.16  HD
ENDBRANCH 37 45
ENDBRANCH 34 37
ENDBRANCH 28 33
ENDBRANCH 1 28
TORSDOF 19
ENDMDL
MODEL 68
USER: ADFR SOLUTION from run 77
USER: SCORE 12.994689 LL:  -3.432 LR: -11.325 RR:   0.000 FEB:  -5.657
USER: RMSD 3.367337
USER: SEED 76
USER: STATUS no improvement in best in 11 clusters for 5 generations
USER: GENES 21
USER: genes 0 Translation |==|  0.49165 0.50272 0.54632
USER: genes 1 Rotation |==|  0.07465 0.61622 0.39594 0.71152
USER: genes 2 Torsion [C]-N--CA-[CB] |==|  0.81667
USER: genes 3 Torsion [N]-CA--CB-[CG] |==|  0.71019
USER: genes 4 Torsion [CA]-CB--CG-[OD2] |==|  0.94533
USER: genes 5 Torsion [N]-CA--C-[N] |==|  0.21981
USER: genes 6 Torsion [C]-N--CA-[C] |==|  0.86546
USER: genes 7 Torsion [N]-CA--C-[N] |==|  0.35164
USER: genes 8 Torsion [C]-N--CA-[CB] |==|  0.25207
USER: genes 9 Torsion [N]-CA--C-[OXT] |==|  0.39610
USER: genes 10 Torsion [N]-CA--CB-[CG] |==|  0.67312
USER: genes 11 Torsion [CA]-CB--CG-[CD2] |==|  0.86778
USER: genes 12 Torsion [N]-C--CA-[N] |==|  0.61199
USER: genes 13 Torsion [C]-CA--CB-[CG] |==|  0.42056
USER: genes 14 Torsion [CA]-CB--CG-[CD2] |==|  0.79682
USER: genes 15 Torsion [C]-CA--N-[C] |==|  0.15585
USER: genes 16 Torsion [N]-C--CA-[N] |==|  0.84546
USER: genes 17 Torsion [C]-CA--CB-[CG] |==|  0.79226
USER: genes 18 Torsion [CA]-CB--CG-[CD] |==|  0.36124
USER: genes 19 Torsion [CB]-CG--CD-[OE1] |==|  0.25373
USER: genes 20 Torsion [C]-CA--N-[C] |==|  0.78757
ROOT
ATOM      1  C   LEU E   1       2.574  -5.743 -12.460  1.00 28.67 LIG 0.24  C 
ATOM      2 O    LEU E   1       2.957  -5.555 -13.619  1.00 26.53 LIG-0.27  OA
ATOM      3  N   ASP E   2       3.380  -6.147 -11.482  1.00 29.47 LIG-0.35  N 
ATOM      4 H    ASP E   2       3.149  -6.192 -10.655  1.00 29.47 LIG 0.16  HD
ENDROOT
BRANCH 3 5
ATOM      5  CA  ASP E   2       4.747  -6.555 -11.750  1.00 30.54 LIG 0.19  C 
BRANCH 5 6
ATOM      6  CB  ASP E   2       4.798  -7.832 -12.595  1.00 32.40 LIG 0.15  C 
BRANCH 6 7
ATOM      7  CG  ASP E   2       5.160  -9.054 -11.781  1.00 34.09 LIG 0.17  C 
ATOM      8 OD2  ASP E   2       5.727  -8.886 -10.684  1.00 37.71 LIG-0.65  OA
ATOM      9 OD1  ASP E   2       4.873 -10.185 -12.232  1.00 36.77 LIG-0.65  OA
ENDBRANCH 6 7
ENDBRANCH 5 6
BRANCH 5 10
ATOM     10  C   ASP E   2       5.422  -5.422 -12.483  1.00 30.01 LIG 0.24  C 
ATOM     11 O    ASP E   2       5.566  -5.461 -13.706  1.00 27.94 LIG-0.27  OA
ATOM     12  N   LEU E   3       5.825  -4.411 -11.725  1.00 30.14 LIG-0.35  N 
ATOM     13 H    LEU E   3       5.711  -4.379 -10.874  1.00 30.14 LIG 0.16  HD
BRANCH 12 14
ATOM     14  CA  LEU E   3       6.505  -3.252 -12.275  1.00 30.90 LIG 0.18  C 
BRANCH 14 15
ATOM     15  C   LEU E   3       7.635  -3.705 -13.199  1.00 32.33 LIG 0.24  C 
ATOM     16 O    LEU E   3       8.480  -4.522 -12.814  1.00 31.45 LIG-0.27  OA
ATOM     17  N   ALA E   4       7.620  -3.192 -14.426  1.00 33.58 LIG-0.34  N 
ATOM     18 H    ALA E   4       7.040  -2.617 -14.696  1.00 33.58 LIG 0.16  HD
BRANCH 17 19
ATOM     19  CA  ALA E   4       8.606  -3.568 -15.437  1.00 35.71 LIG 0.18  C 
ATOM     20  CB  ALA E   4       8.105  -4.753 -16.247  1.00 36.03 LIG 0.04  C 
BRANCH 19 21
ATOM     21  C   ALA E   4       8.904  -2.392 -16.356  1.00 37.05 LIG 0.20  C 
ATOM     22 OXT  ALA E   4      10.044  -2.196 -16.773  1.00 36.72 LIG-0.65  OA
ATOM     23 O    ALA E   4       8.014  -1.614 -16.705  1.00 37.61 LIG-0.65  OA
ENDBRANCH 19 21
ENDBRANCH 17 19
ENDBRANCH 14 15
BRANCH 14 24
ATOM     24  CB  LEU E   3       7.046  -2.391 -11.132  1.00 30.03 LIG 0.04  C 
BRANCH 24 25
ATOM     25  CG  LEU E   3       6.533  -0.965 -10.956  1.00 29.85 LIG-0.02  C 
ATOM     26  CD1 LEU E   3       7.336  -0.193  -9.924  1.00 29.46 LIG 0.01  C 
ATOM     27  CD2 LEU E   3       6.565  -0.272 -12.308  1.00 29.65 LIG 0.01  C 
ENDBRANCH 24 25
ENDBRANCH 14 24
ENDBRANCH 12 14
ENDBRANCH 5 10
ENDBRANCH 3 5
BRANCH 1 28
ATOM     28  CA  LEU E   1       1.127  -5.503 -12.068  1.00 29.46 LIG 0.18  C 
BRANCH 28 29
ATOM     29  CB  LEU E   1       0.817  -6.169 -10.727  1.00 29.35 LIG 0.04  C 
BRANCH 29 30
ATOM     30  CG  LEU E   1      -0.288  -5.486  -9.907  1.00 30.22 LIG-0.02  C 
ATOM     31  CD2 LEU E   1       0.203  -4.176  -9.307  1.00 31.32 LIG 0.01  C 
ATOM     32  CD1 LEU E   1      -0.817  -6.411  -8.827  1.00 30.06 LIG 0.01  C 
ENDBRANCH 29 30
ENDBRANCH 28 29
BRANCH 28 33
ATOM     33  N   LEU E   1       0.253  -6.002 -13.126  1.00 28.73 LIG-0.35  N 
ATOM     34  C   GLN E   0       0.329  -7.264 -13.532  1.00 28.95 LIG 0.24  C 
ATOM     35 O    GLN E   0       1.198  -8.040 -13.142  1.00 30.73 LIG-0.27  OA
ATOM     36 H    LEU E   1      -0.293  -5.420 -13.448  1.00 28.73 LIG 0.16  HD
BRANCH 34 37
ATOM     37  CA  GLN E   0      -0.716  -7.734 -14.531  1.00 28.12 LIG 0.18  C 
BRANCH 37 38
ATOM     38  CB  GLN E   0      -0.525  -6.979 -15.853  1.00 27.70 LIG 0.04  C 
BRANCH 38 39
ATOM     39  CG  GLN E   0      -0.999  -5.527 -15.841  1.00 26.51 LIG 0.10  C 
BRANCH 39 40
ATOM     40  CD  GLN E   0       0.050  -4.570 -16.376  1.00 26.51 LIG 0.21  C 
ATOM     41 OE1  GLN E   0       0.075  -4.275 -17.576  1.00 26.66 LIG-0.27  OA
ATOM     42  NE2 GLN E   0       0.918  -4.075 -15.496  1.00 24.64 LIG-0.37  N 
ATOM     43 22HE GLN E   0       1.528  -3.527 -15.755  1.00 24.64 LIG 0.16  HD
ATOM     44 21HE GLN E   0       0.869  -4.304 -14.668  1.00 24.64 LIG 0.16  HD
ENDBRANCH 39 40
ENDBRANCH 38 39
ENDBRANCH 37 38
BRANCH 37 45
ATOM     45  N   GLN E   0      -2.095  -7.490 -13.978  1.00 28.94 LIG-0.35  N 
ATOM     46  C   ACE E  -1      -2.655  -8.271 -13.023  1.00 29.25 LIG 0.21  C 
ATOM     47 O    ACE E  -1      -1.884  -8.772 -12.200  1.00 28.69 LIG-0.27  OA
ATOM     48  CH3 ACE E  -1      -3.903  -7.627 -12.440  1.00 29.73 LIG 0.12  C 
ATOM     49 H    GLN E   0      -2.493  -6.811 -14.325  1.00 28.94 LIG 0.16  HD
ENDBRANCH 37 45
ENDBRANCH 34 37
ENDBRANCH 28 33
ENDBRANCH 1 28
TORSDOF 19
ENDMDL
MODEL 69
USER: ADFR SOLUTION from run 94
USER: SCORE 14.942391 LL:  -4.128 LR: -11.316 RR:   0.000 FEB:  -5.648
USER: RMSD 5.692639
USER: SEED 93
USER: STATUS no improvement in best in 5 clusters for 5 generations
USER: GENES 21
USER: genes 0 Translation |==|  0.61099 0.44523 0.53051
USER: genes 1 Rotation |==|  0.02543 0.41597 0.60380 0.58334
USER: genes 2 Torsion [C]-N--CA-[CB] |==|  0.16504
USER: genes 3 Torsion [N]-CA--CB-[CG] |==|  0.67874
USER: genes 4 Torsion [CA]-CB--CG-[OD2] |==|  0.36621
USER: genes 5 Torsion [N]-CA--C-[N] |==|  0.08426
USER: genes 6 Torsion [C]-N--CA-[C] |==|  0.65851
USER: genes 7 Torsion [N]-CA--C-[N] |==|  0.93831
USER: genes 8 Torsion [C]-N--CA-[CB] |==|  0.18093
USER: genes 9 Torsion [N]-CA--C-[OXT] |==|  0.94737
USER: genes 10 Torsion [N]-CA--CB-[CG] |==|  0.73702
USER: genes 11 Torsion [CA]-CB--CG-[CD2] |==|  0.15297
USER: genes 12 Torsion [N]-C--CA-[N] |==|  0.35729
USER: genes 13 Torsion [C]-CA--CB-[CG] |==|  0.19715
USER: genes 14 Torsion [CA]-CB--CG-[CD2] |==|  0.68443
USER: genes 15 Torsion [C]-CA--N-[C] |==|  0.79556
USER: genes 16 Torsion [N]-C--CA-[N] |==|  0.42316
USER: genes 17 Torsion [C]-CA--CB-[CG] |==|  0.97278
USER: genes 18 Torsion [CA]-CB--CG-[CD] |==|  0.56611
USER: genes 19 Torsion [CB]-CG--CD-[OE1] |==|  0.12977
USER: genes 20 Torsion [C]-CA--N-[C] |==|  0.80844
ROOT
ATOM      1  C   LEU E   1       5.259  -6.778 -12.721  1.00 28.67 LIG 0.24  C 
ATOM      2 O    LEU E   1       5.027  -7.208 -13.855  1.00 26.53 LIG-0.27  OA
ATOM      3  N   ASP E   2       6.114  -5.789 -12.476  1.00 29.47 LIG-0.35  N 
ATOM      4 H    ASP E   2       6.215  -5.418 -11.707  1.00 29.47 LIG 0.16  HD
ENDROOT
BRANCH 3 5
ATOM      5  CA  ASP E   2       6.964  -5.248 -13.521  1.00 30.54 LIG 0.19  C 
BRANCH 5 6
ATOM      6  CB  ASP E   2       6.137  -4.686 -14.682  1.00 32.40 LIG 0.15  C 
BRANCH 6 7
ATOM      7  CG  ASP E   2       6.356  -5.444 -15.973  1.00 34.09 LIG 0.17  C 
ATOM      8 OD2  ASP E   2       5.356  -5.801 -16.625  1.00 37.71 LIG-0.65  OA
ATOM      9 OD1  ASP E   2       7.528  -5.676 -16.343  1.00 36.77 LIG-0.65  OA
ENDBRANCH 6 7
ENDBRANCH 5 6
BRANCH 5 10
ATOM     10  C   ASP E   2       7.801  -4.154 -12.905  1.00 30.01 LIG 0.24  C 
ATOM     11 O    ASP E   2       8.166  -3.188 -13.575  1.00 27.94 LIG-0.27  OA
ATOM     12  N   LEU E   3       8.091  -4.313 -11.620  1.00 30.14 LIG-0.35  N 
ATOM     13 H    LEU E   3       7.822  -4.981 -11.150  1.00 30.14 LIG 0.16  HD
BRANCH 12 14
ATOM     14  CA  LEU E   3       8.899  -3.358 -10.883  1.00 30.90 LIG 0.18  C 
BRANCH 14 15
ATOM     15  C   LEU E   3      10.110  -4.066 -10.276  1.00 32.33 LIG 0.24  C 
ATOM     16 O    LEU E   3      11.115  -3.428  -9.941  1.00 31.45 LIG-0.27  OA
ATOM     17  N   ALA E   4       9.990  -5.380 -10.112  1.00 33.58 LIG-0.34  N 
ATOM     18 H    ALA E   4       9.296  -5.830 -10.351  1.00 33.58 LIG 0.16  HD
BRANCH 17 19
ATOM     19  CA  ALA E   4      11.044  -6.186  -9.499  1.00 35.71 LIG 0.18  C 
ATOM     20  CB  ALA E   4      11.231  -5.791  -8.043  1.00 36.03 LIG 0.04  C 
BRANCH 19 21
ATOM     21  C   ALA E   4      10.711  -7.667  -9.601  1.00 37.05 LIG 0.20  C 
ATOM     22 OXT  ALA E   4       9.559  -8.038  -9.815  1.00 36.72 LIG-0.65  OA
ATOM     23 O    ALA E   4      11.586  -8.527  -9.476  1.00 37.61 LIG-0.65  OA
ENDBRANCH 19 21
ENDBRANCH 17 19
ENDBRANCH 14 15
BRANCH 14 24
ATOM     24  CB  LEU E   3       8.046  -2.704  -9.795  1.00 30.03 LIG 0.04  C 
BRANCH 24 25
ATOM     25  CG  LEU E   3       7.359  -1.371 -10.075  1.00 29.85 LIG-0.02  C 
ATOM     26  CD1 LEU E   3       8.356  -0.235 -10.224  1.00 29.46 LIG 0.01  C 
ATOM     27  CD2 LEU E   3       6.509  -1.523 -11.326  1.00 29.65 LIG 0.01  C 
ENDBRANCH 24 25
ENDBRANCH 14 24
ENDBRANCH 12 14
ENDBRANCH 5 10
ENDBRANCH 3 5
BRANCH 1 28
ATOM     28  CA  LEU E   1       4.552  -7.358 -11.508  1.00 29.46 LIG 0.18  C 
BRANCH 28 29
ATOM     29  CB  LEU E   1       5.085  -8.757 -11.196  1.00 29.35 LIG 0.04  C 
BRANCH 29 30
ATOM     30  CG  LEU E   1       6.512  -8.792 -10.630  1.00 30.22 LIG-0.02  C 
ATOM     31  CD2 LEU E   1       7.473  -9.460 -11.603  1.00 31.32 LIG 0.01  C 
ATOM     32  CD1 LEU E   1       6.547  -9.481  -9.278  1.00 30.06 LIG 0.01  C 
ENDBRANCH 29 30
ENDBRANCH 28 29
BRANCH 28 33
ATOM     33  N   LEU E   1       3.113  -7.376 -11.754  1.00 28.73 LIG-0.35  N 
ATOM     34  C   GLN E   0       2.405  -6.253 -11.730  1.00 28.95 LIG 0.24  C 
ATOM     35 O    GLN E   0       2.879  -5.172 -11.388  1.00 30.73 LIG-0.27  OA
ATOM     36 H    LEU E   1       2.783  -8.156 -11.908  1.00 28.73 LIG 0.16  HD
BRANCH 34 37
ATOM     37  CA  GLN E   0       0.945  -6.346 -12.141  1.00 28.12 LIG 0.18  C 
BRANCH 37 38
ATOM     38  CB  GLN E   0       0.840  -6.204 -13.665  1.00 27.70 LIG 0.04  C 
BRANCH 38 39
ATOM     39  CG  GLN E   0       2.130  -5.778 -14.363  1.00 26.51 LIG 0.10  C 
BRANCH 39 40
ATOM     40  CD  GLN E   0       1.872  -5.109 -15.700  1.00 26.51 LIG 0.21  C 
ATOM     41 OE1  GLN E   0       1.010  -4.230 -15.806  1.00 26.66 LIG-0.27  OA
ATOM     42  NE2 GLN E   0       2.616  -5.514 -16.729  1.00 24.64 LIG-0.37  N 
ATOM     43 22HE GLN E   0       2.505  -5.160 -17.505  1.00 24.64 LIG 0.16  HD
ATOM     44 21HE GLN E   0       3.206  -6.129 -16.617  1.00 24.64 LIG 0.16  HD
ENDBRANCH 39 40
ENDBRANCH 38 39
ENDBRANCH 37 38
BRANCH 37 45
ATOM     45  N   GLN E   0       0.152  -5.265 -11.455  1.00 28.94 LIG-0.35  N 
ATOM     46  C   ACE E  -1      -0.084  -5.258 -10.120  1.00 29.25 LIG 0.21  C 
ATOM     47 O    ACE E  -1       0.795  -5.745  -9.404  1.00 28.69 LIG-0.27  OA
ATOM     48  CH3 ACE E  -1      -0.633  -3.917  -9.661  1.00 29.73 LIG 0.12  C 
ATOM     49 H    GLN E   0      -0.137  -4.655 -11.988  1.00 28.94 LIG 0.16  HD
ENDBRANCH 37 45
ENDBRANCH 34 37
ENDBRANCH 28 33
ENDBRANCH 1 28
TORSDOF 19
ENDMDL
MODEL 70
USER: ADFR SOLUTION from run 187
USER: SCORE 13.164456 LL:  -3.263 LR: -11.305 RR:   0.000 FEB:  -5.637
USER: RMSD 4.808049
USER: SEED 186
USER: STATUS no improvement in best in 5 clusters for 5 generations
USER: GENES 21
USER: genes 0 Translation |==|  0.50995 0.47669 0.57862
USER: genes 1 Rotation |==|  0.88406 0.50345 0.51871 0.81959
USER: genes 2 Torsion [C]-N--CA-[CB] |==|  0.23321
USER: genes 3 Torsion [N]-CA--CB-[CG] |==|  0.60784
USER: genes 4 Torsion [CA]-CB--CG-[OD2] |==|  0.10723
USER: genes 5 Torsion [N]-CA--C-[N] |==|  0.21601
USER: genes 6 Torsion [C]-N--CA-[C] |==|  0.75873
USER: genes 7 Torsion [N]-CA--C-[N] |==|  0.47751
USER: genes 8 Torsion [C]-N--CA-[CB] |==|  0.17905
USER: genes 9 Torsion [N]-CA--C-[OXT] |==|  0.26736
USER: genes 10 Torsion [N]-CA--CB-[CG] |==|  0.59485
USER: genes 11 Torsion [CA]-CB--CG-[CD2] |==|  0.59804
USER: genes 12 Torsion [N]-C--CA-[N] |==|  0.14444
USER: genes 13 Torsion [C]-CA--CB-[CG] |==|  0.33138
USER: genes 14 Torsion [CA]-CB--CG-[CD2] |==|  0.99830
USER: genes 15 Torsion [C]-CA--N-[C] |==|  0.15198
USER: genes 16 Torsion [N]-C--CA-[N] |==|  0.40163
USER: genes 17 Torsion [C]-CA--CB-[CG] |==|  0.47068
USER: genes 18 Torsion [CA]-CB--CG-[CD] |==|  0.83557
USER: genes 19 Torsion [CB]-CG--CD-[OE1] |==|  0.16554
USER: genes 20 Torsion [C]-CA--N-[C] |==|  0.75791
ROOT
ATOM      1  C   LEU E   1       2.986  -6.212 -11.927  1.00 28.67 LIG 0.24  C 
ATOM      2 O    LEU E   1       3.040  -7.304 -11.352  1.00 26.53 LIG-0.27  OA
ATOM      3  N   ASP E   2       4.022  -5.668 -12.559  1.00 29.47 LIG-0.35  N 
ATOM      4 H    ASP E   2       3.974  -4.957 -13.040  1.00 29.47 LIG 0.16  HD
ENDROOT
BRANCH 3 5
ATOM      5  CA  ASP E   2       5.348  -6.253 -12.479  1.00 30.54 LIG 0.19  C 
BRANCH 5 6
ATOM      6  CB  ASP E   2       5.526  -7.380 -13.501  1.00 32.40 LIG 0.15  C 
BRANCH 6 7
ATOM      7  CG  ASP E   2       6.321  -8.544 -12.951  1.00 34.09 LIG 0.17  C 
ATOM      8 OD2  ASP E   2       6.132  -8.881 -11.766  1.00 37.71 LIG-0.65  OA
ATOM      9 OD1  ASP E   2       7.130  -9.130 -13.703  1.00 36.77 LIG-0.65  OA
ENDBRANCH 6 7
ENDBRANCH 5 6
BRANCH 5 10
ATOM     10  C   ASP E   2       6.346  -5.153 -12.744  1.00 30.01 LIG 0.24  C 
ATOM     11 O    ASP E   2       6.891  -5.048 -13.843  1.00 27.94 LIG-0.27  OA
ATOM     12  N   LEU E   3       6.571  -4.330 -11.728  1.00 30.14 LIG-0.35  N 
ATOM     13 H    LEU E   3       6.178  -4.396 -10.966  1.00 30.14 LIG 0.16  HD
BRANCH 12 14
ATOM     14  CA  LEU E   3       7.513  -3.229 -11.815  1.00 30.90 LIG 0.18  C 
BRANCH 14 15
ATOM     15  C   LEU E   3       8.915  -3.719 -11.454  1.00 32.33 LIG 0.24  C 
ATOM     16 O    LEU E   3       9.096  -4.868 -11.032  1.00 31.45 LIG-0.27  OA
ATOM     17  N   ALA E   4       9.901  -2.850 -11.655  1.00 33.58 LIG-0.34  N 
ATOM     18 H    ALA E   4       9.780  -2.048 -11.941  1.00 33.58 LIG 0.16  HD
BRANCH 17 19
ATOM     19  CA  ALA E   4      11.300  -3.192 -11.404  1.00 35.71 LIG 0.18  C 
ATOM     20  CB  ALA E   4      11.753  -4.292 -12.350  1.00 36.03 LIG 0.04  C 
BRANCH 19 21
ATOM     21  C   ALA E   4      12.186  -1.965 -11.565  1.00 37.05 LIG 0.20  C 
ATOM     22 OXT  ALA E   4      12.516  -1.297 -10.587  1.00 36.72 LIG-0.65  OA
ATOM     23 O    ALA E   4      12.595  -1.615 -12.674  1.00 37.61 LIG-0.65  OA
ENDBRANCH 19 21
ENDBRANCH 17 19
ENDBRANCH 14 15
BRANCH 14 24
ATOM     24  CB  LEU E   3       7.069  -2.105 -10.877  1.00 30.03 LIG 0.04  C 
BRANCH 24 25
ATOM     25  CG  LEU E   3       7.317  -0.653 -11.272  1.00 29.85 LIG-0.02  C 
ATOM     26  CD1 LEU E   3       6.135  -0.053 -12.014  1.00 29.46 LIG 0.01  C 
ATOM     27  CD2 LEU E   3       7.635   0.139 -10.015  1.00 29.65 LIG 0.01  C 
ENDBRANCH 24 25
ENDBRANCH 14 24
ENDBRANCH 12 14
ENDBRANCH 5 10
ENDBRANCH 3 5
BRANCH 1 28
ATOM     28  CA  LEU E   1       1.696  -5.411 -11.959  1.00 29.46 LIG 0.18  C 
BRANCH 28 29
ATOM     29  CB  LEU E   1       0.560  -6.200 -11.307  1.00 29.35 LIG 0.04  C 
BRANCH 29 30
ATOM     30  CG  LEU E   1      -0.072  -5.527 -10.080  1.00 30.22 LIG-0.02  C 
ATOM     31  CD2 LEU E   1       0.605  -4.198  -9.773  1.00 31.32 LIG 0.01  C 
ATOM     32  CD1 LEU E   1      -0.031  -6.446  -8.872  1.00 30.06 LIG 0.01  C 
ENDBRANCH 29 30
ENDBRANCH 28 29
BRANCH 28 33
ATOM     33  N   LEU E   1       1.380  -5.063 -13.341  1.00 28.73 LIG-0.35  N 
ATOM     34  C   GLN E   0       1.289  -6.003 -14.275  1.00 28.95 LIG 0.24  C 
ATOM     35 O    GLN E   0       1.577  -7.179 -14.070  1.00 30.73 LIG-0.27  OA
ATOM     36 H    LEU E   1       1.264  -4.222 -13.484  1.00 28.73 LIG 0.16  HD
BRANCH 34 37
ATOM     37  CA  GLN E   0       0.812  -5.567 -15.651  1.00 28.12 LIG 0.18  C 
BRANCH 37 38
ATOM     38  CB  GLN E   0      -0.704  -5.779 -15.749  1.00 27.70 LIG 0.04  C 
BRANCH 38 39
ATOM     39  CG  GLN E   0      -1.366  -5.155 -16.976  1.00 26.51 LIG 0.10  C 
BRANCH 39 40
ATOM     40  CD  GLN E   0      -1.161  -3.654 -17.045  1.00 26.51 LIG 0.21  C 
ATOM     41 OE1  GLN E   0      -0.022  -3.177 -17.096  1.00 26.66 LIG-0.27  OA
ATOM     42  NE2 GLN E   0      -2.258  -2.897 -17.051  1.00 24.64 LIG-0.37  N 
ATOM     43 22HE GLN E   0      -2.189  -2.040 -17.092  1.00 24.64 LIG 0.16  HD
ATOM     44 21HE GLN E   0      -3.034  -3.265 -17.014  1.00 24.64 LIG 0.16  HD
ENDBRANCH 39 40
ENDBRANCH 38 39
ENDBRANCH 37 38
BRANCH 37 45
ATOM     45  N   GLN E   0       1.525  -6.362 -16.713  1.00 28.94 LIG-0.35  N 
ATOM     46  C   ACE E  -1       2.723  -5.994 -17.229  1.00 29.25 LIG 0.21  C 
ATOM     47 O    ACE E  -1       3.492  -5.402 -16.466  1.00 28.69 LIG-0.27  OA
ATOM     48  CH3 ACE E  -1       3.346  -7.117 -18.042  1.00 29.73 LIG 0.12  C 
ATOM     49 H    GLN E   0       1.102  -7.068 -16.961  1.00 28.94 LIG 0.16  HD
ENDBRANCH 37 45
ENDBRANCH 34 37
ENDBRANCH 28 33
ENDBRANCH 1 28
TORSDOF 19
ENDMDL
MODEL 71
USER: ADFR SOLUTION from run 86
USER: SCORE 13.237688 LL:  -3.955 LR: -11.313 RR:   0.000 FEB:  -5.645
USER: RMSD 6.110849
USER: SEED 85
USER: STATUS no improvement in best in 11 clusters for 5 generations
USER: GENES 21
USER: genes 0 Translation |==|  0.40023 0.45478 0.54226
USER: genes 1 Rotation |==|  0.92677 0.60395 0.32697 0.66469
USER: genes 2 Torsion [C]-N--CA-[CB] |==|  0.45857
USER: genes 3 Torsion [N]-CA--CB-[CG] |==|  0.78248
USER: genes 4 Torsion [CA]-CB--CG-[OD2] |==|  0.87971
USER: genes 5 Torsion [N]-CA--C-[N] |==|  0.91339
USER: genes 6 Torsion [C]-N--CA-[C] |==|  0.75968
USER: genes 7 Torsion [N]-CA--C-[N] |==|  0.47222
USER: genes 8 Torsion [C]-N--CA-[CB] |==|  0.28435
USER: genes 9 Torsion [N]-CA--C-[OXT] |==|  0.84370
USER: genes 10 Torsion [N]-CA--CB-[CG] |==|  0.70185
USER: genes 11 Torsion [CA]-CB--CG-[CD2] |==|  0.05662
USER: genes 12 Torsion [N]-C--CA-[N] |==|  0.54760
USER: genes 13 Torsion [C]-CA--CB-[CG] |==|  0.48519
USER: genes 14 Torsion [CA]-CB--CG-[CD2] |==|  0.84196
USER: genes 15 Torsion [C]-CA--N-[C] |==|  0.62714
USER: genes 16 Torsion [N]-C--CA-[N] |==|  0.36570
USER: genes 17 Torsion [C]-CA--CB-[CG] |==|  0.71805
USER: genes 18 Torsion [CA]-CB--CG-[CD] |==|  0.19515
USER: genes 19 Torsion [CB]-CG--CD-[OE1] |==|  0.15333
USER: genes 20 Torsion [C]-CA--N-[C] |==|  0.79787
ROOT
ATOM      1  C   LEU E   1       0.517  -6.606 -12.527  1.00 28.67 LIG 0.24  C 
ATOM      2 O    LEU E   1       0.532  -7.821 -12.749  1.00 26.53 LIG-0.27  OA
ATOM      3  N   ASP E   2       0.931  -5.698 -13.406  1.00 29.47 LIG-0.35  N 
ATOM      4 H    ASP E   2       0.839  -4.850 -13.302  1.00 29.47 LIG 0.16  HD
ENDROOT
BRANCH 3 5
ATOM      5  CA  ASP E   2       1.587  -6.087 -14.641  1.00 30.54 LIG 0.19  C 
BRANCH 5 6
ATOM      6  CB  ASP E   2       1.638  -4.925 -15.639  1.00 32.40 LIG 0.15  C 
BRANCH 6 7
ATOM      7  CG  ASP E   2       0.319  -4.710 -16.348  1.00 34.09 LIG 0.17  C 
ATOM      8 OD2  ASP E   2      -0.301  -5.710 -16.760  1.00 37.71 LIG-0.65  OA
ATOM      9 OD1  ASP E   2      -0.107  -3.542 -16.487  1.00 36.77 LIG-0.65  OA
ENDBRANCH 6 7
ENDBRANCH 5 6
BRANCH 5 10
ATOM     10  C   ASP E   2       2.987  -6.529 -14.292  1.00 30.01 LIG 0.24  C 
ATOM     11 O    ASP E   2       3.559  -7.392 -14.958  1.00 27.94 LIG-0.27  OA
ATOM     12  N   LEU E   3       3.532  -5.923 -13.246  1.00 30.14 LIG-0.35  N 
ATOM     13 H    LEU E   3       3.136  -5.310 -12.790  1.00 30.14 LIG 0.16  HD
BRANCH 12 14
ATOM     14  CA  LEU E   3       4.866  -6.245 -12.771  1.00 30.90 LIG 0.18  C 
BRANCH 14 15
ATOM     15  C   LEU E   3       4.797  -7.421 -11.797  1.00 32.33 LIG 0.24  C 
ATOM     16 O    LEU E   3       3.709  -7.852 -11.398  1.00 31.45 LIG-0.27  OA
ATOM     17  N   ALA E   4       5.966  -7.950 -11.446  1.00 33.58 LIG-0.34  N 
ATOM     18 H    ALA E   4       6.726  -7.649 -11.714  1.00 33.58 LIG 0.16  HD
BRANCH 17 19
ATOM     19  CA  ALA E   4       6.059  -9.110 -10.561  1.00 35.71 LIG 0.18  C 
ATOM     20  CB  ALA E   4       6.344 -10.367 -11.367  1.00 36.03 LIG 0.04  C 
BRANCH 19 21
ATOM     21  C   ALA E   4       7.145  -8.899  -9.517  1.00 37.05 LIG 0.20  C 
ATOM     22 OXT  ALA E   4       8.300  -8.649  -9.855  1.00 36.72 LIG-0.65  OA
ATOM     23 O    ALA E   4       6.893  -8.971  -8.312  1.00 37.61 LIG-0.65  OA
ENDBRANCH 19 21
ENDBRANCH 17 19
ENDBRANCH 14 15
BRANCH 14 24
ATOM     24  CB  LEU E   3       5.477  -5.014 -12.099  1.00 30.03 LIG 0.04  C 
BRANCH 24 25
ATOM     25  CG  LEU E   3       6.591  -4.247 -12.803  1.00 29.85 LIG-0.02  C 
ATOM     26  CD1 LEU E   3       7.957  -4.559 -12.219  1.00 29.46 LIG 0.01  C 
ATOM     27  CD2 LEU E   3       6.539  -4.578 -14.285  1.00 29.65 LIG 0.01  C 
ENDBRANCH 24 25
ENDBRANCH 14 24
ENDBRANCH 12 14
ENDBRANCH 5 10
ENDBRANCH 3 5
BRANCH 1 28
ATOM     28  CA  LEU E   1      -0.003  -6.062 -11.208  1.00 29.46 LIG 0.18  C 
BRANCH 28 29
ATOM     29  CB  LEU E   1       0.859  -4.890 -10.735  1.00 29.35 LIG 0.04  C 
BRANCH 29 30
ATOM     30  CG  LEU E   1       0.346  -4.180  -9.473  1.00 30.22 LIG-0.02  C 
ATOM     31  CD2 LEU E   1      -1.077  -3.674  -9.667  1.00 31.32 LIG 0.01  C 
ATOM     32  CD1 LEU E   1       1.272  -3.048  -9.069  1.00 30.06 LIG 0.01  C 
ENDBRANCH 29 30
ENDBRANCH 28 29
BRANCH 28 33
ATOM     33  N   LEU E   1      -0.030  -7.138 -10.221  1.00 28.73 LIG-0.35  N 
ATOM     34  C   GLN E   0      -1.090  -7.317  -9.441  1.00 28.95 LIG 0.24  C 
ATOM     35 O    GLN E   0      -2.040  -6.539  -9.415  1.00 30.73 LIG-0.27  OA
ATOM     36 H    LEU E   1       0.680  -7.623 -10.195  1.00 28.73 LIG 0.16  HD
BRANCH 34 37
ATOM     37  CA  GLN E   0      -1.092  -8.548  -8.548  1.00 28.12 LIG 0.18  C 
BRANCH 37 38
ATOM     38  CB  GLN E   0      -2.089  -9.572  -9.105  1.00 27.70 LIG 0.04  C 
BRANCH 38 39
ATOM     39  CG  GLN E   0      -3.431  -9.627  -8.378  1.00 26.51 LIG 0.10  C 
BRANCH 39 40
ATOM     40  CD  GLN E   0      -4.278  -8.393  -8.627  1.00 26.51 LIG 0.21  C 
ATOM     41 OE1  GLN E   0      -4.550  -8.042  -9.781  1.00 26.66 LIG-0.27  OA
ATOM     42  NE2 GLN E   0      -4.702  -7.727  -7.554  1.00 24.64 LIG-0.37  N 
ATOM     43 22HE GLN E   0      -5.186  -7.022  -7.649  1.00 24.64 LIG 0.16  HD
ATOM     44 21HE GLN E   0      -4.491  -8.001  -6.767  1.00 24.64 LIG 0.16  HD
ENDBRANCH 39 40
ENDBRANCH 38 39
ENDBRANCH 37 38
BRANCH 37 45
ATOM     45  N   GLN E   0      -1.466  -8.157  -7.143  1.00 28.94 LIG-0.35  N 
ATOM     46  C   ACE E  -1      -0.631  -7.478  -6.320  1.00 29.25 LIG 0.21  C 
ATOM     47 O    ACE E  -1       0.141  -6.678  -6.857  1.00 28.69 LIG-0.27  OA
ATOM     48  CH3 ACE E  -1      -1.363  -6.954  -5.095  1.00 29.73 LIG 0.12  C 
ATOM     49 H    GLN E   0      -2.256  -8.405  -6.912  1.00 28.94 LIG 0.16  HD
ENDBRANCH 37 45
ENDBRANCH 34 37
ENDBRANCH 28 33
ENDBRANCH 1 28
TORSDOF 19
ENDMDL
MODEL 72
USER: ADFR SOLUTION from run 194
USER: SCORE 13.140229 LL:  -3.695 LR: -11.295 RR:   0.000 FEB:  -5.627
USER: RMSD 9.887628
USER: SEED 193
USER: STATUS no improvement in best in 20 clusters for 5 generations
USER: GENES 21
USER: genes 0 Translation |==|  0.66547 0.57378 0.54928
USER: genes 1 Rotation |==|  0.45894 0.94085 0.27926 0.57236
USER: genes 2 Torsion [C]-N--CA-[CB] |==|  0.21120
USER: genes 3 Torsion [N]-CA--CB-[CG] |==|  0.58891
USER: genes 4 Torsion [CA]-CB--CG-[OD2] |==|  0.58334
USER: genes 5 Torsion [N]-CA--C-[N] |==|  0.51048
USER: genes 6 Torsion [C]-N--CA-[C] |==|  0.48889
USER: genes 7 Torsion [N]-CA--C-[N] |==|  0.50183
USER: genes 8 Torsion [C]-N--CA-[CB] |==|  0.45582
USER: genes 9 Torsion [N]-CA--C-[OXT] |==|  0.17086
USER: genes 10 Torsion [N]-CA--CB-[CG] |==|  0.56699
USER: genes 11 Torsion [CA]-CB--CG-[CD2] |==|  0.44577
USER: genes 12 Torsion [N]-C--CA-[N] |==|  0.42557
USER: genes 13 Torsion [C]-CA--CB-[CG] |==|  0.39310
USER: genes 14 Torsion [CA]-CB--CG-[CD2] |==|  0.39146
USER: genes 15 Torsion [C]-CA--N-[C] |==|  0.75749
USER: genes 16 Torsion [N]-C--CA-[N] |==|  0.95928
USER: genes 17 Torsion [C]-CA--CB-[CG] |==|  0.77987
USER: genes 18 Torsion [CA]-CB--CG-[CD] |==|  0.24235
USER: genes 19 Torsion [CB]-CG--CD-[OE1] |==|  0.61397
USER: genes 20 Torsion [C]-CA--N-[C] |==|  0.75637
ROOT
ATOM      1  C   LEU E   1       6.485  -4.464 -12.411  1.00 28.67 LIG 0.24  C 
ATOM      2 O    LEU E   1       6.774  -4.748 -13.578  1.00 26.53 LIG-0.27  OA
ATOM      3  N   ASP E   2       5.406  -4.934 -11.791  1.00 29.47 LIG-0.35  N 
ATOM      4 H    ASP E   2       5.244  -4.821 -10.955  1.00 29.47 LIG 0.16  HD
ENDROOT
BRANCH 3 5
ATOM      5  CA  ASP E   2       4.396  -5.694 -12.505  1.00 30.54 LIG 0.19  C 
BRANCH 5 6
ATOM      6  CB  ASP E   2       4.863  -7.127 -12.782  1.00 32.40 LIG 0.15  C 
BRANCH 6 7
ATOM      7  CG  ASP E   2       4.302  -7.681 -14.072  1.00 34.09 LIG 0.17  C 
ATOM      8 OD2  ASP E   2       4.109  -8.910 -14.152  1.00 37.71 LIG-0.65  OA
ATOM      9 OD1  ASP E   2       4.046  -6.891 -15.007  1.00 36.77 LIG-0.65  OA
ENDBRANCH 6 7
ENDBRANCH 5 6
BRANCH 5 10
ATOM     10  C   ASP E   2       3.153  -5.711 -11.649  1.00 30.01 LIG 0.24  C 
ATOM     11 O    ASP E   2       3.107  -5.077 -10.594  1.00 27.94 LIG-0.27  OA
ATOM     12  N   LEU E   3       2.146  -6.435 -12.119  1.00 30.14 LIG-0.35  N 
ATOM     13 H    LEU E   3       2.176  -6.865 -12.863  1.00 30.14 LIG 0.16  HD
BRANCH 12 14
ATOM     14  CA  LEU E   3       0.887  -6.567 -11.408  1.00 30.90 LIG 0.18  C 
BRANCH 14 15
ATOM     15  C   LEU E   3      -0.098  -7.378 -12.250  1.00 32.33 LIG 0.24  C 
ATOM     16 O    LEU E   3       0.238  -7.848 -13.343  1.00 31.45 LIG-0.27  OA
ATOM     17  N   ALA E   4      -1.302  -7.561 -11.714  1.00 33.58 LIG-0.34  N 
ATOM     18 H    ALA E   4      -1.544  -7.229 -10.958  1.00 33.58 LIG 0.16  HD
BRANCH 17 19
ATOM     19  CA  ALA E   4      -2.334  -8.356 -12.377  1.00 35.71 LIG 0.18  C 
ATOM     20  CB  ALA E   4      -3.434  -8.718 -11.393  1.00 36.03 LIG 0.04  C 
BRANCH 19 21
ATOM     21  C   ALA E   4      -2.917  -7.595 -13.559  1.00 37.05 LIG 0.20  C 
ATOM     22 OXT  ALA E   4      -2.206  -7.266 -14.505  1.00 36.72 LIG-0.65  OA
ATOM     23 O    ALA E   4      -4.112  -7.295 -13.597  1.00 37.61 LIG-0.65  OA
ENDBRANCH 19 21
ENDBRANCH 17 19
ENDBRANCH 14 15
BRANCH 14 24
ATOM     24  CB  LEU E   3       0.329  -5.177 -11.101  1.00 30.03 LIG 0.04  C 
BRANCH 24 25
ATOM     25  CG  LEU E   3      -0.638  -4.994  -9.935  1.00 29.85 LIG-0.02  C 
ATOM     26  CD1 LEU E   3      -0.273  -5.869  -8.749  1.00 29.46 LIG 0.01  C 
ATOM     27  CD2 LEU E   3      -0.652  -3.524  -9.550  1.00 29.65 LIG 0.01  C 
ENDBRANCH 24 25
ENDBRANCH 14 24
ENDBRANCH 12 14
ENDBRANCH 5 10
ENDBRANCH 3 5
BRANCH 1 28
ATOM     28  CA  LEU E   1       7.376  -3.550 -11.588  1.00 29.46 LIG 0.18  C 
BRANCH 28 29
ATOM     29  CB  LEU E   1       6.848  -2.115 -11.622  1.00 29.35 LIG 0.04  C 
BRANCH 29 30
ATOM     30  CG  LEU E   1       6.967  -1.353 -10.294  1.00 30.22 LIG-0.02  C 
ATOM     31  CD2 LEU E   1       7.362   0.099 -10.526  1.00 31.32 LIG 0.01  C 
ATOM     32  CD1 LEU E   1       7.948  -2.037  -9.358  1.00 30.06 LIG 0.01  C 
ENDBRANCH 29 30
ENDBRANCH 28 29
BRANCH 28 33
ATOM     33  N   LEU E   1       8.744  -3.629 -12.094  1.00 28.73 LIG-0.35  N 
ATOM     34  C   GLN E   0       9.581  -4.559 -11.647  1.00 28.95 LIG 0.24  C 
ATOM     35 O    GLN E   0       9.306  -5.314 -10.719  1.00 30.73 LIG-0.27  OA
ATOM     36 H    LEU E   1       8.945  -3.037 -12.684  1.00 28.73 LIG 0.16  HD
BRANCH 34 37
ATOM     37  CA  GLN E   0      10.933  -4.659 -12.334  1.00 28.12 LIG 0.18  C 
BRANCH 37 38
ATOM     38  CB  GLN E   0      12.014  -4.094 -11.404  1.00 27.70 LIG 0.04  C 
BRANCH 38 39
ATOM     39  CG  GLN E   0      12.107  -2.570 -11.373  1.00 26.51 LIG 0.10  C 
BRANCH 39 40
ATOM     40  CD  GLN E   0      11.168  -1.951 -10.354  1.00 26.51 LIG 0.21  C 
ATOM     41 OE1  GLN E   0      10.537  -0.923 -10.625  1.00 26.66 LIG-0.27  OA
ATOM     42  NE2 GLN E   0      11.063  -2.570  -9.179  1.00 24.64 LIG-0.37  N 
ATOM     43 22HE GLN E   0      10.540  -2.255  -8.572  1.00 24.64 LIG 0.16  HD
ATOM     44 21HE GLN E   0      11.518  -3.284  -9.026  1.00 24.64 LIG 0.16  HD
ENDBRANCH 39 40
ENDBRANCH 38 39
ENDBRANCH 37 38
BRANCH 37 45
ATOM     45  N   GLN E   0      10.903  -3.896 -13.632  1.00 28.94 LIG-0.35  N 
ATOM     46  C   ACE E  -1      10.500  -4.448 -14.803  1.00 29.25 LIG 0.21  C 
ATOM     47 O    ACE E  -1       9.625  -5.316 -14.729  1.00 28.69 LIG-0.27  OA
ATOM     48  CH3 ACE E  -1      10.279  -3.388 -15.869  1.00 29.73 LIG 0.12  C 
ATOM     49 H    GLN E   0      11.166  -3.081 -13.562  1.00 28.94 LIG 0.16  HD
ENDBRANCH 37 45
ENDBRANCH 34 37
ENDBRANCH 28 33
ENDBRANCH 1 28
TORSDOF 19
ENDMDL
MODEL 73
USER: ADFR SOLUTION from run 53
USER: SCORE 13.123956 LL:  -4.303 LR: -11.284 RR:   0.000 FEB:  -5.616
USER: RMSD 9.420165
USER: SEED 52
USER: STATUS no improvement in best in 7 clusters for 5 generations
USER: GENES 21
USER: genes 0 Translation |==|  0.66912 0.56380 0.54429
USER: genes 1 Rotation |==|  0.24129 0.92782 0.50606 0.50035
USER: genes 2 Torsion [C]-N--CA-[CB] |==|  0.45146
USER: genes 3 Torsion [N]-CA--CB-[CG] |==|  0.71537
USER: genes 4 Torsion [CA]-CB--CG-[OD2] |==|  0.28135
USER: genes 5 Torsion [N]-CA--C-[N] |==|  0.25000
USER: genes 6 Torsion [C]-N--CA-[C] |==|  0.58908
USER: genes 7 Torsion [N]-CA--C-[N] |==|  0.35097
USER: genes 8 Torsion [C]-N--CA-[CB] |==|  0.25268
USER: genes 9 Torsion [N]-CA--C-[OXT] |==|  0.10021
USER: genes 10 Torsion [N]-CA--CB-[CG] |==|  0.59792
USER: genes 11 Torsion [CA]-CB--CG-[CD2] |==|  0.85783
USER: genes 12 Torsion [N]-C--CA-[N] |==|  0.14745
USER: genes 13 Torsion [C]-CA--CB-[CG] |==|  0.38656
USER: genes 14 Torsion [CA]-CB--CG-[CD2] |==|  0.54967
USER: genes 15 Torsion [C]-CA--N-[C] |==|  0.62604
USER: genes 16 Torsion [N]-C--CA-[N] |==|  0.30009
USER: genes 17 Torsion [C]-CA--CB-[CG] |==|  0.30120
USER: genes 18 Torsion [CA]-CB--CG-[CD] |==|  0.82851
USER: genes 19 Torsion [CB]-CG--CD-[OE1] |==|  0.73441
USER: genes 20 Torsion [C]-CA--N-[C] |==|  0.74589
ROOT
ATOM      1  C   LEU E   1       6.567  -4.644 -12.493  1.00 28.67 LIG 0.24  C 
ATOM      2 O    LEU E   1       5.873  -4.285 -13.450  1.00 26.53 LIG-0.27  OA
ATOM      3  N   ASP E   2       6.763  -5.919 -12.172  1.00 29.47 LIG-0.35  N 
ATOM      4 H    ASP E   2       7.316  -6.185 -11.570  1.00 29.47 LIG 0.16  HD
ENDROOT
BRANCH 3 5
ATOM      5  CA  ASP E   2       6.035  -6.986 -12.835  1.00 30.54 LIG 0.19  C 
BRANCH 5 6
ATOM      6  CB  ASP E   2       6.712  -8.344 -12.623  1.00 32.40 LIG 0.15  C 
BRANCH 6 7
ATOM      7  CG  ASP E   2       7.496  -8.798 -13.834  1.00 34.09 LIG 0.17  C 
ATOM      8 OD2  ASP E   2       8.735  -8.658 -13.822  1.00 37.71 LIG-0.65  OA
ATOM      9 OD1  ASP E   2       6.879  -9.304 -14.796  1.00 36.77 LIG-0.65  OA
ENDBRANCH 6 7
ENDBRANCH 5 6
BRANCH 5 10
ATOM     10  C   ASP E   2       4.640  -7.008 -12.259  1.00 30.01 LIG 0.24  C 
ATOM     11 O    ASP E   2       4.379  -7.692 -11.269  1.00 27.94 LIG-0.27  OA
ATOM     12  N   LEU E   3       3.752  -6.247 -12.885  1.00 30.14 LIG-0.35  N 
ATOM     13 H    LEU E   3       3.940  -5.760 -13.568  1.00 30.14 LIG 0.16  HD
BRANCH 12 14
ATOM     14  CA  LEU E   3       2.365  -6.169 -12.466  1.00 30.90 LIG 0.18  C 
BRANCH 14 15
ATOM     15  C   LEU E   3       1.470  -5.937 -13.683  1.00 32.33 LIG 0.24  C 
ATOM     16 O    LEU E   3       1.701  -5.014 -14.473  1.00 31.45 LIG-0.27  OA
ATOM     17  N   ALA E   4       0.471  -6.801 -13.840  1.00 33.58 LIG-0.34  N 
ATOM     18 H    ALA E   4       0.301  -7.439 -13.289  1.00 33.58 LIG 0.16  HD
BRANCH 17 19
ATOM     19  CA  ALA E   4      -0.439  -6.738 -14.982  1.00 35.71 LIG 0.18  C 
ATOM     20  CB  ALA E   4       0.083  -7.598 -16.121  1.00 36.03 LIG 0.04  C 
BRANCH 19 21
ATOM     21  C   ALA E   4      -1.835  -7.191 -14.580  1.00 37.05 LIG 0.20  C 
ATOM     22 OXT  ALA E   4      -2.282  -6.927 -13.466  1.00 36.72 LIG-0.65  OA
ATOM     23 O    ALA E   4      -2.547  -7.829 -15.358  1.00 37.61 LIG-0.65  OA
ENDBRANCH 19 21
ENDBRANCH 17 19
ENDBRANCH 14 15
BRANCH 14 24
ATOM     24  CB  LEU E   3       2.204  -5.041 -11.447  1.00 30.03 LIG 0.04  C 
BRANCH 24 25
ATOM     25  CG  LEU E   3       1.211  -5.197 -10.299  1.00 29.85 LIG-0.02  C 
ATOM     26  CD1 LEU E   3       1.087  -3.929  -9.474  1.00 29.46 LIG 0.01  C 
ATOM     27  CD2 LEU E   3      -0.132  -5.608 -10.880  1.00 29.65 LIG 0.01  C 
ENDBRANCH 24 25
ENDBRANCH 14 24
ENDBRANCH 12 14
ENDBRANCH 5 10
ENDBRANCH 3 5
BRANCH 1 28
ATOM     28  CA  LEU E   1       7.269  -3.624 -11.614  1.00 29.46 LIG 0.18  C 
BRANCH 28 29
ATOM     29  CB  LEU E   1       7.040  -2.209 -12.148  1.00 29.35 LIG 0.04  C 
BRANCH 29 30
ATOM     30  CG  LEU E   1       6.774  -1.148 -11.070  1.00 30.22 LIG-0.02  C 
ATOM     31  CD2 LEU E   1       6.137   0.098 -11.671  1.00 31.32 LIG 0.01  C 
ATOM     32  CD1 LEU E   1       8.047  -0.797 -10.322  1.00 30.06 LIG 0.01  C 
ENDBRANCH 29 30
ENDBRANCH 28 29
BRANCH 28 33
ATOM     33  N   LEU E   1       8.691  -3.945 -11.544  1.00 28.73 LIG-0.35  N 
ATOM     34  C   GLN E   0       9.335  -3.929 -10.382  1.00 28.95 LIG 0.24  C 
ATOM     35 O    GLN E   0       8.820  -3.535  -9.339  1.00 30.73 LIG-0.27  OA
ATOM     36 H    LEU E   1       9.055  -4.138 -12.299  1.00 28.73 LIG 0.16  HD
BRANCH 34 37
ATOM     37  CA  GLN E   0      10.773  -4.420 -10.382  1.00 28.12 LIG 0.18  C 
BRANCH 37 38
ATOM     38  CB  GLN E   0      10.959  -5.435  -9.246  1.00 27.70 LIG 0.04  C 
BRANCH 38 39
ATOM     39  CG  GLN E   0      11.126  -6.884  -9.697  1.00 26.51 LIG 0.10  C 
BRANCH 39 40
ATOM     40  CD  GLN E   0       9.911  -7.403 -10.443  1.00 26.51 LIG 0.21  C 
ATOM     41 OE1  GLN E   0       9.036  -8.043  -9.849  1.00 26.66 LIG-0.27  OA
ATOM     42  NE2 GLN E   0       9.844  -7.133 -11.746  1.00 24.64 LIG-0.37  N 
ATOM     43 22HE GLN E   0       9.172  -7.406 -12.208  1.00 24.64 LIG 0.16  HD
ATOM     44 21HE GLN E   0      10.473  -6.685 -12.125  1.00 24.64 LIG 0.16  HD
ENDBRANCH 39 40
ENDBRANCH 38 39
ENDBRANCH 37 38
BRANCH 37 45
ATOM     45  N   GLN E   0      11.709  -3.253 -10.205  1.00 28.94 LIG-0.35  N 
ATOM     46  C   ACE E  -1      12.237  -2.567 -11.247  1.00 29.25 LIG 0.21  C 
ATOM     47 O    ACE E  -1      11.534  -2.477 -12.258  1.00 28.69 LIG-0.27  OA
ATOM     48  CH3 ACE E  -1      12.887  -1.272 -10.787  1.00 29.73 LIG 0.12  C 
ATOM     49 H    GLN E   0      11.878  -3.065  -9.383  1.00 28.94 LIG 0.16  HD
ENDBRANCH 37 45
ENDBRANCH 34 37
ENDBRANCH 28 33
ENDBRANCH 1 28
TORSDOF 19
ENDMDL
MODEL 74
USER: ADFR SOLUTION from run 12
USER: SCORE 14.190588 LL:  -3.647 LR: -11.267 RR:   0.000 FEB:  -5.599
USER: RMSD 9.112123
USER: SEED 52013
USER: STATUS no improvement in best in 8 clusters for 5 generations
USER: GENES 21
USER: genes 0 Translation |==|  0.59057 0.50191 0.49342
USER: genes 1 Rotation |==|  0.59111 0.20811 0.10519 0.52489
USER: genes 2 Torsion [C]-N--CA-[CB] |==|  0.55015
USER: genes 3 Torsion [N]-CA--CB-[CG] |==|  0.05593
USER: genes 4 Torsion [CA]-CB--CG-[OD2] |==|  0.28555
USER: genes 5 Torsion [N]-CA--C-[N] |==|  0.34285
USER: genes 6 Torsion [C]-N--CA-[C] |==|  0.81909
USER: genes 7 Torsion [N]-CA--C-[N] |==|  0.89317
USER: genes 8 Torsion [C]-N--CA-[CB] |==|  0.16743
USER: genes 9 Torsion [N]-CA--C-[OXT] |==|  0.58778
USER: genes 10 Torsion [N]-CA--CB-[CG] |==|  0.40973
USER: genes 11 Torsion [CA]-CB--CG-[CD2] |==|  0.50502
USER: genes 12 Torsion [N]-C--CA-[N] |==|  0.45434
USER: genes 13 Torsion [C]-CA--CB-[CG] |==|  0.83560
USER: genes 14 Torsion [CA]-CB--CG-[CD2] |==|  0.66755
USER: genes 15 Torsion [C]-CA--N-[C] |==|  0.78950
USER: genes 16 Torsion [N]-C--CA-[N] |==|  0.28911
USER: genes 17 Torsion [C]-CA--CB-[CG] |==|  0.46969
USER: genes 18 Torsion [CA]-CB--CG-[CD] |==|  0.97777
USER: genes 19 Torsion [CB]-CG--CD-[OE1] |==|  0.78930
USER: genes 20 Torsion [C]-CA--N-[C] |==|  0.73001
ROOT
ATOM      1  C   LEU E   1       4.800  -5.758 -13.333  1.00 28.67 LIG 0.24  C 
ATOM      2 O    LEU E   1       4.345  -5.123 -12.375  1.00 26.53 LIG-0.27  OA
ATOM      3  N   ASP E   2       4.063  -6.138 -14.372  1.00 29.47 LIG-0.35  N 
ATOM      4 H    ASP E   2       4.384  -6.496 -15.085  1.00 29.47 LIG 0.16  HD
ENDROOT
BRANCH 3 5
ATOM      5  CA  ASP E   2       2.621  -5.972 -14.378  1.00 30.54 LIG 0.19  C 
BRANCH 5 6
ATOM      6  CB  ASP E   2       1.958  -6.857 -15.437  1.00 32.40 LIG 0.15  C 
BRANCH 6 7
ATOM      7  CG  ASP E   2       2.840  -8.007 -15.869  1.00 34.09 LIG 0.17  C 
ATOM      8 OD2  ASP E   2       2.593  -9.143 -15.418  1.00 37.71 LIG-0.65  OA
ATOM      9 OD1  ASP E   2       3.777  -7.782 -16.666  1.00 36.77 LIG-0.65  OA
ENDBRANCH 6 7
ENDBRANCH 5 6
BRANCH 5 10
ATOM     10  C   ASP E   2       2.116  -6.342 -13.005  1.00 30.01 LIG 0.24  C 
ATOM     11 O    ASP E   2       2.363  -7.448 -12.521  1.00 27.94 LIG-0.27  OA
ATOM     12  N   LEU E   3       1.417  -5.404 -12.381  1.00 30.14 LIG-0.35  N 
ATOM     13 H    LEU E   3       1.258  -4.628 -12.715  1.00 30.14 LIG 0.16  HD
BRANCH 12 14
ATOM     14  CA  LEU E   3       0.849  -5.608 -11.061  1.00 30.90 LIG 0.18  C 
BRANCH 14 15
ATOM     15  C   LEU E   3      -0.221  -6.698 -11.121  1.00 32.33 LIG 0.24  C 
ATOM     16 O    LEU E   3      -0.361  -7.502 -10.191  1.00 31.45 LIG-0.27  OA
ATOM     17  N   ALA E   4      -0.990  -6.695 -12.207  1.00 33.58 LIG-0.34  N 
ATOM     18 H    ALA E   4      -0.891  -6.144 -12.859  1.00 33.58 LIG 0.16  HD
BRANCH 17 19
ATOM     19  CA  ALA E   4      -2.087  -7.644 -12.384  1.00 35.71 LIG 0.18  C 
ATOM     20  CB  ALA E   4      -3.109  -7.484 -11.270  1.00 36.03 LIG 0.04  C 
BRANCH 19 21
ATOM     21  C   ALA E   4      -2.752  -7.444 -13.738  1.00 37.05 LIG 0.20  C 
ATOM     22 OXT  ALA E   4      -3.952  -7.667 -13.886  1.00 36.72 LIG-0.65  OA
ATOM     23 O    ALA E   4      -2.108  -7.053 -14.714  1.00 37.61 LIG-0.65  OA
ENDBRANCH 19 21
ENDBRANCH 17 19
ENDBRANCH 14 15
BRANCH 14 24
ATOM     24  CB  LEU E   3       0.259  -4.292 -10.552  1.00 30.03 LIG 0.04  C 
BRANCH 24 25
ATOM     25  CG  LEU E   3      -0.970  -4.316  -9.649  1.00 29.85 LIG-0.02  C 
ATOM     26  CD1 LEU E   3      -0.729  -5.111  -8.378  1.00 29.46 LIG 0.01  C 
ATOM     27  CD2 LEU E   3      -1.363  -2.883  -9.335  1.00 29.65 LIG 0.01  C 
ENDBRANCH 24 25
ENDBRANCH 14 24
ENDBRANCH 12 14
ENDBRANCH 5 10
ENDBRANCH 3 5
BRANCH 1 28
ATOM     28  CA  LEU E   1       6.269  -6.137 -13.388  1.00 29.46 LIG 0.18  C 
BRANCH 28 29
ATOM     29  CB  LEU E   1       6.445  -7.635 -13.135  1.00 29.35 LIG 0.04  C 
BRANCH 29 30
ATOM     30  CG  LEU E   1       5.911  -8.128 -11.782  1.00 30.22 LIG-0.02  C 
ATOM     31  CD2 LEU E   1       7.023  -8.743 -10.943  1.00 31.32 LIG 0.01  C 
ATOM     32  CD1 LEU E   1       4.770  -9.112 -11.971  1.00 30.06 LIG 0.01  C 
ENDBRANCH 29 30
ENDBRANCH 28 29
BRANCH 28 33
ATOM     33  N   LEU E   1       7.009  -5.340 -12.414  1.00 28.73 LIG-0.35  N 
ATOM     34  C   GLN E   0       7.288  -4.064 -12.652  1.00 28.95 LIG 0.24  C 
ATOM     35 O    GLN E   0       7.056  -3.519 -13.728  1.00 30.73 LIG-0.27  OA
ATOM     36 H    LEU E   1       7.237  -5.763 -11.700  1.00 28.73 LIG 0.16  HD
BRANCH 34 37
ATOM     37  CA  GLN E   0       7.930  -3.274 -11.523  1.00 28.12 LIG 0.18  C 
BRANCH 37 38
ATOM     38  CB  GLN E   0       7.229  -1.915 -11.397  1.00 27.70 LIG 0.04  C 
BRANCH 38 39
ATOM     39  CG  GLN E   0       7.587  -1.117 -10.145  1.00 26.51 LIG 0.10  C 
BRANCH 39 40
ATOM     40  CD  GLN E   0       8.428  -1.918  -9.167  1.00 26.51 LIG 0.21  C 
ATOM     41 OE1  GLN E   0       7.909  -2.792  -8.463  1.00 26.66 LIG-0.27  OA
ATOM     42  NE2 GLN E   0       9.728  -1.631  -9.117  1.00 24.64 LIG-0.37  N 
ATOM     43 22HE GLN E   0      10.242  -2.062  -8.579  1.00 24.64 LIG 0.16  HD
ATOM     44 21HE GLN E   0      10.053  -1.016  -9.622  1.00 24.64 LIG 0.16  HD
ENDBRANCH 39 40
ENDBRANCH 38 39
ENDBRANCH 37 38
BRANCH 37 45
ATOM     45  N   GLN E   0       9.398  -3.086 -11.803  1.00 28.94 LIG-0.35  N 
ATOM     46  C   ACE E  -1      10.357  -3.884 -11.274  1.00 29.25 LIG 0.21  C 
ATOM     47 O    ACE E  -1      10.047  -5.062 -11.079  1.00 28.69 LIG-0.27  OA
ATOM     48  CH3 ACE E  -1      11.698  -3.666 -11.956  1.00 29.73 LIG 0.12  C 
ATOM     49 H    GLN E   0       9.569  -2.427 -12.328  1.00 28.94 LIG 0.16  HD
ENDBRANCH 37 45
ENDBRANCH 34 37
ENDBRANCH 28 33
ENDBRANCH 1 28
TORSDOF 19
ENDMDL
MODEL 75
USER: ADFR SOLUTION from run 96
USER: SCORE 13.864512 LL:  -3.427 LR: -11.260 RR:   0.000 FEB:  -5.592
USER: RMSD 3.165329
USER: SEED 95
USER: STATUS no improvement in best in 11 clusters for 5 generations
USER: GENES 21
USER: genes 0 Translation |==|  0.51128 0.48626 0.56434
USER: genes 1 Rotation |==|  0.42471 0.55891 0.48417 0.99052
USER: genes 2 Torsion [C]-N--CA-[CB] |==|  0.51675
USER: genes 3 Torsion [N]-CA--CB-[CG] |==|  0.82119
USER: genes 4 Torsion [CA]-CB--CG-[OD2] |==|  0.23912
USER: genes 5 Torsion [N]-CA--C-[N] |==|  0.31940
USER: genes 6 Torsion [C]-N--CA-[C] |==|  0.83808
USER: genes 7 Torsion [N]-CA--C-[N] |==|  0.89222
USER: genes 8 Torsion [C]-N--CA-[CB] |==|  0.23988
USER: genes 9 Torsion [N]-CA--C-[OXT] |==|  0.95038
USER: genes 10 Torsion [N]-CA--CB-[CG] |==|  0.61089
USER: genes 11 Torsion [CA]-CB--CG-[CD2] |==|  0.87389
USER: genes 12 Torsion [N]-C--CA-[N] |==|  0.37023
USER: genes 13 Torsion [C]-CA--CB-[CG] |==|  0.39152
USER: genes 14 Torsion [CA]-CB--CG-[CD2] |==|  0.50558
USER: genes 15 Torsion [C]-CA--N-[C] |==|  0.78915
USER: genes 16 Torsion [N]-C--CA-[N] |==|  0.02213
USER: genes 17 Torsion [C]-CA--CB-[CG] |==|  0.60694
USER: genes 18 Torsion [CA]-CB--CG-[CD] |==|  0.80740
USER: genes 19 Torsion [CB]-CG--CD-[OE1] |==|  0.06065
USER: genes 20 Torsion [C]-CA--N-[C] |==|  0.71351
ROOT
ATOM      1  C   LEU E   1       3.016  -6.039 -12.162  1.00 28.67 LIG 0.24  C 
ATOM      2 O    LEU E   1       3.287  -5.035 -11.496  1.00 26.53 LIG-0.27  OA
ATOM      3  N   ASP E   2       3.914  -6.964 -12.487  1.00 29.47 LIG-0.35  N 
ATOM      4 H    ASP E   2       3.721  -7.711 -12.867  1.00 29.47 LIG 0.16  HD
ENDROOT
BRANCH 3 5
ATOM      5  CA  ASP E   2       5.327  -6.774 -12.214  1.00 30.54 LIG 0.19  C 
BRANCH 5 6
ATOM      6  CB  ASP E   2       6.171  -7.905 -12.811  1.00 32.40 LIG 0.15  C 
BRANCH 6 7
ATOM      7  CG  ASP E   2       5.872  -9.248 -12.182  1.00 34.09 LIG 0.17  C 
ATOM      8 OD2  ASP E   2       4.930  -9.920 -12.645  1.00 37.71 LIG-0.65  OA
ATOM      9 OD1  ASP E   2       6.582  -9.639 -11.230  1.00 36.77 LIG-0.65  OA
ENDBRANCH 6 7
ENDBRANCH 5 6
BRANCH 5 10
ATOM     10  C   ASP E   2       5.732  -5.452 -12.819  1.00 30.01 LIG 0.24  C 
ATOM     11 O    ASP E   2       5.693  -5.280 -14.038  1.00 27.94 LIG-0.27  OA
ATOM     12  N   LEU E   3       6.111  -4.521 -11.954  1.00 30.14 LIG-0.35  N 
ATOM     13 H    LEU E   3       6.124  -4.639 -11.102  1.00 30.14 LIG 0.16  HD
BRANCH 12 14
ATOM     14  CA  LEU E   3       6.545  -3.201 -12.375  1.00 30.90 LIG 0.18  C 
BRANCH 14 15
ATOM     15  C   LEU E   3       7.740  -3.327 -13.320  1.00 32.33 LIG 0.24  C 
ATOM     16 O    LEU E   3       7.866  -2.566 -14.287  1.00 31.45 LIG-0.27  OA
ATOM     17  N   ALA E   4       8.625  -4.270 -13.011  1.00 33.58 LIG-0.34  N 
ATOM     18 H    ALA E   4       8.538  -4.807 -12.344  1.00 33.58 LIG 0.16  HD
BRANCH 17 19
ATOM     19  CA  ALA E   4       9.843  -4.477 -13.791  1.00 35.71 LIG 0.18  C 
ATOM     20  CB  ALA E   4      10.951  -3.562 -13.294  1.00 36.03 LIG 0.04  C 
BRANCH 19 21
ATOM     21  C   ALA E   4      10.288  -5.930 -13.711  1.00 37.05 LIG 0.20  C 
ATOM     22 OXT  ALA E   4       9.865  -6.667 -12.822  1.00 36.72 LIG-0.65  OA
ATOM     23 O    ALA E   4      11.078  -6.402 -14.532  1.00 37.61 LIG-0.65  OA
ENDBRANCH 19 21
ENDBRANCH 17 19
ENDBRANCH 14 15
BRANCH 14 24
ATOM     24  CB  LEU E   3       6.907  -2.369 -11.145  1.00 30.03 LIG 0.04  C 
BRANCH 24 25
ATOM     25  CG  LEU E   3       6.520  -0.894 -11.092  1.00 29.85 LIG-0.02  C 
ATOM     26  CD1 LEU E   3       7.194  -0.167  -9.942  1.00 29.46 LIG 0.01  C 
ATOM     27  CD2 LEU E   3       6.872  -0.258 -12.426  1.00 29.65 LIG 0.01  C 
ENDBRANCH 24 25
ENDBRANCH 14 24
ENDBRANCH 12 14
ENDBRANCH 5 10
ENDBRANCH 3 5
BRANCH 1 28
ATOM     28  CA  LEU E   1       1.600  -6.291 -12.650  1.00 29.46 LIG 0.18  C 
BRANCH 28 29
ATOM     29  CB  LEU E   1       1.282  -5.403 -13.853  1.00 29.35 LIG 0.04  C 
BRANCH 29 30
ATOM     30  CG  LEU E   1       0.451  -6.080 -14.953  1.00 30.22 LIG-0.02  C 
ATOM     31  CD2 LEU E   1       0.225  -5.139 -16.129  1.00 31.32 LIG 0.01  C 
ATOM     32  CD1 LEU E   1      -0.870  -6.587 -14.406  1.00 30.06 LIG 0.01  C 
ENDBRANCH 29 30
ENDBRANCH 28 29
BRANCH 28 33
ATOM     33  N   LEU E   1       0.665  -6.060 -11.553  1.00 28.73 LIG-0.35  N 
ATOM     34  C   GLN E   0       0.528  -6.951 -10.577  1.00 28.95 LIG 0.24  C 
ATOM     35 O    GLN E   0       1.074  -8.052 -10.597  1.00 30.73 LIG-0.27  OA
ATOM     36 H    LEU E   1       0.229  -5.320 -11.600  1.00 28.73 LIG 0.16  HD
BRANCH 34 37
ATOM     37  CA  GLN E   0      -0.355  -6.562  -9.403  1.00 28.12 LIG 0.18  C 
BRANCH 37 38
ATOM     38  CB  GLN E   0      -1.371  -7.682  -9.144  1.00 27.70 LIG 0.04  C 
BRANCH 38 39
ATOM     39  CG  GLN E   0      -2.770  -7.207  -8.755  1.00 26.51 LIG 0.10  C 
BRANCH 39 40
ATOM     40  CD  GLN E   0      -2.806  -6.578  -7.375  1.00 26.51 LIG 0.21  C 
ATOM     41 OE1  GLN E   0      -1.775  -6.126  -6.865  1.00 26.66 LIG-0.27  OA
ATOM     42  NE2 GLN E   0      -3.988  -6.539  -6.762  1.00 24.64 LIG-0.37  N 
ATOM     43 22HE GLN E   0      -4.055  -6.189  -5.979  1.00 24.64 LIG 0.16  HD
ATOM     44 21HE GLN E   0      -4.684  -6.865  -7.149  1.00 24.64 LIG 0.16  HD
ENDBRANCH 39 40
ENDBRANCH 38 39
ENDBRANCH 37 38
BRANCH 37 45
ATOM     45  N   GLN E   0      -1.062  -5.267  -9.705  1.00 28.94 LIG-0.35  N 
ATOM     46  C   ACE E  -1      -0.683  -4.079  -9.175  1.00 29.25 LIG 0.21  C 
ATOM     47 O    ACE E  -1       0.524  -3.934  -8.957  1.00 28.69 LIG-0.27  OA
ATOM     48  CH3 ACE E  -1      -1.363  -2.915  -9.878  1.00 29.73 LIG 0.12  C 
ATOM     49 H    GLN E   0      -1.728  -5.353 -10.243  1.00 28.94 LIG 0.16  HD
ENDBRANCH 37 45
ENDBRANCH 34 37
ENDBRANCH 28 33
ENDBRANCH 1 28
TORSDOF 19
ENDMDL
MODEL 76
USER: ADFR SOLUTION from run 33
USER: SCORE 14.058672 LL:  -3.970 LR: -11.231 RR:   0.000 FEB:  -5.563
USER: RMSD 5.859665
USER: SEED 32
USER: STATUS no improvement in best in 15 clusters for 5 generations
USER: GENES 21
USER: genes 0 Translation |==|  0.39318 0.46203 0.51568
USER: genes 1 Rotation |==|  0.46510 0.77836 0.60272 0.90093
USER: genes 2 Torsion [C]-N--CA-[CB] |==|  0.89186
USER: genes 3 Torsion [N]-CA--CB-[CG] |==|  0.73018
USER: genes 4 Torsion [CA]-CB--CG-[OD2] |==|  0.12162
USER: genes 5 Torsion [N]-CA--C-[N] |==|  0.84364
USER: genes 6 Torsion [C]-N--CA-[C] |==|  0.70963
USER: genes 7 Torsion [N]-CA--C-[N] |==|  0.50000
USER: genes 8 Torsion [C]-N--CA-[CB] |==|  0.22020
USER: genes 9 Torsion [N]-CA--C-[OXT] |==|  0.36562
USER: genes 10 Torsion [N]-CA--CB-[CG] |==|  0.64743
USER: genes 11 Torsion [CA]-CB--CG-[CD2] |==|  0.48514
USER: genes 12 Torsion [N]-C--CA-[N] |==|  0.47755
USER: genes 13 Torsion [C]-CA--CB-[CG] |==|  0.53539
USER: genes 14 Torsion [CA]-CB--CG-[CD2] |==|  0.85855
USER: genes 15 Torsion [C]-CA--N-[C] |==|  0.74679
USER: genes 16 Torsion [N]-C--CA-[N] |==|  0.98123
USER: genes 17 Torsion [C]-CA--CB-[CG] |==|  0.86136
USER: genes 18 Torsion [CA]-CB--CG-[CD] |==|  0.72563
USER: genes 19 Torsion [CB]-CG--CD-[OE1] |==|  0.09407
USER: genes 20 Torsion [C]-CA--N-[C] |==|  0.75059
ROOT
ATOM      1  C   LEU E   1       0.359  -6.475 -12.965  1.00 28.67 LIG 0.24  C 
ATOM      2 O    LEU E   1       0.894  -5.449 -12.533  1.00 26.53 LIG-0.27  OA
ATOM      3  N   ASP E   2       0.670  -7.022 -14.137  1.00 29.47 LIG-0.35  N 
ATOM      4 H    ASP E   2       0.375  -7.783 -14.407  1.00 29.47 LIG 0.16  HD
ENDROOT
BRANCH 3 5
ATOM      5  CA  ASP E   2       1.557  -6.353 -15.072  1.00 30.54 LIG 0.19  C 
BRANCH 5 6
ATOM      6  CB  ASP E   2       1.304  -4.842 -15.101  1.00 32.40 LIG 0.15  C 
BRANCH 6 7
ATOM      7  CG  ASP E   2       0.401  -4.425 -16.240  1.00 34.09 LIG 0.17  C 
ATOM      8 OD2  ASP E   2      -0.614  -5.111 -16.471  1.00 37.71 LIG-0.65  OA
ATOM      9 OD1  ASP E   2       0.699  -3.407 -16.903  1.00 36.77 LIG-0.65  OA
ENDBRANCH 6 7
ENDBRANCH 5 6
BRANCH 5 10
ATOM     10  C   ASP E   2       2.973  -6.632 -14.632  1.00 30.01 LIG 0.24  C 
ATOM     11 O    ASP E   2       3.782  -7.146 -15.406  1.00 27.94 LIG-0.27  OA
ATOM     12  N   LEU E   3       3.264  -6.281 -13.387  1.00 30.14 LIG-0.35  N 
ATOM     13 H    LEU E   3       2.701  -5.910 -12.853  1.00 30.14 LIG 0.16  HD
BRANCH 12 14
ATOM     14  CA  LEU E   3       4.577  -6.496 -12.806  1.00 30.90 LIG 0.18  C 
BRANCH 14 15
ATOM     15  C   LEU E   3       4.528  -7.681 -11.842  1.00 32.33 LIG 0.24  C 
ATOM     16 O    LEU E   3       3.482  -8.319 -11.674  1.00 31.45 LIG-0.27  OA
ATOM     17  N   ALA E   4       5.674  -7.985 -11.240  1.00 33.58 LIG-0.34  N 
ATOM     18 H    ALA E   4       6.402  -7.539 -11.347  1.00 33.58 LIG 0.16  HD
BRANCH 17 19
ATOM     19  CA  ALA E   4       5.796  -9.121 -10.329  1.00 35.71 LIG 0.18  C 
ATOM     20  CB  ALA E   4       5.931 -10.415 -11.115  1.00 36.03 LIG 0.04  C 
BRANCH 19 21
ATOM     21  C   ALA E   4       6.993  -8.941  -9.406  1.00 37.05 LIG 0.20  C 
ATOM     22 OXT  ALA E   4       6.881  -9.110  -8.194  1.00 36.72 LIG-0.65  OA
ATOM     23 O    ALA E   4       8.099  -8.625  -9.851  1.00 37.61 LIG-0.65  OA
ENDBRANCH 19 21
ENDBRANCH 17 19
ENDBRANCH 14 15
BRANCH 14 24
ATOM     24  CB  LEU E   3       5.029  -5.225 -12.087  1.00 30.03 LIG 0.04  C 
BRANCH 24 25
ATOM     25  CG  LEU E   3       6.385  -4.611 -12.421  1.00 29.85 LIG-0.02  C 
ATOM     26  CD1 LEU E   3       6.566  -4.406 -13.915  1.00 29.46 LIG 0.01  C 
ATOM     27  CD2 LEU E   3       6.517  -3.299 -11.667  1.00 29.65 LIG 0.01  C 
ENDBRANCH 24 25
ENDBRANCH 14 24
ENDBRANCH 12 14
ENDBRANCH 5 10
ENDBRANCH 3 5
BRANCH 1 28
ATOM     28  CA  LEU E   1      -0.703  -7.200 -12.157  1.00 29.46 LIG 0.18  C 
BRANCH 28 29
ATOM     29  CB  LEU E   1      -2.048  -7.162 -12.884  1.00 29.35 LIG 0.04  C 
BRANCH 29 30
ATOM     30  CG  LEU E   1      -3.253  -7.589 -12.033  1.00 30.22 LIG-0.02  C 
ATOM     31  CD2 LEU E   1      -2.999  -8.926 -11.351  1.00 31.32 LIG 0.01  C 
ATOM     32  CD1 LEU E   1      -4.520  -7.641 -12.867  1.00 30.06 LIG 0.01  C 
ENDBRANCH 29 30
ENDBRANCH 28 29
BRANCH 28 33
ATOM     33  N   LEU E   1      -0.795  -6.597 -10.831  1.00 28.73 LIG-0.35  N 
ATOM     34  C   GLN E   0      -0.064  -7.058  -9.823  1.00 28.95 LIG 0.24  C 
ATOM     35 O    GLN E   0       0.626  -8.071  -9.906  1.00 30.73 LIG-0.27  OA
ATOM     36 H    LEU E   1      -1.347  -5.940 -10.771  1.00 28.73 LIG 0.16  HD
BRANCH 34 37
ATOM     37  CA  GLN E   0      -0.112  -6.277  -8.519  1.00 28.12 LIG 0.18  C 
BRANCH 37 38
ATOM     38  CB  GLN E   0      -0.765  -7.146  -7.436  1.00 27.70 LIG 0.04  C 
BRANCH 38 39
ATOM     39  CG  GLN E   0      -2.092  -7.787  -7.836  1.00 26.51 LIG 0.10  C 
BRANCH 39 40
ATOM     40  CD  GLN E   0      -3.290  -7.014  -7.317  1.00 26.51 LIG 0.21  C 
ATOM     41 OE1  GLN E   0      -3.249  -5.782  -7.223  1.00 26.66 LIG-0.27  OA
ATOM     42  NE2 GLN E   0      -4.365  -7.726  -6.978  1.00 24.64 LIG-0.37  N 
ATOM     43 22HE GLN E   0      -5.068  -7.328  -6.682  1.00 24.64 LIG 0.16  HD
ATOM     44 21HE GLN E   0      -4.356  -8.582  -7.057  1.00 24.64 LIG 0.16  HD
ENDBRANCH 39 40
ENDBRANCH 38 39
ENDBRANCH 37 38
BRANCH 37 45
ATOM     45  N   GLN E   0      -0.892  -5.004  -8.716  1.00 28.94 LIG-0.35  N 
ATOM     46  C   ACE E  -1      -0.318  -3.840  -9.106  1.00 29.25 LIG 0.21  C 
ATOM     47 O    ACE E  -1       0.658  -3.933  -9.855  1.00 28.69 LIG-0.27  OA
ATOM     48  CH3 ACE E  -1      -1.363  -2.817  -9.518  1.00 29.73 LIG 0.12  C 
ATOM     49 H    GLN E   0      -1.734  -5.085  -8.558  1.00 28.94 LIG 0.16  HD
ENDBRANCH 37 45
ENDBRANCH 34 37
ENDBRANCH 28 33
ENDBRANCH 1 28
TORSDOF 19
ENDMDL
MODEL 77
USER: ADFR SOLUTION from run 170
USER: SCORE 14.155328 LL:  -4.419 LR: -11.225 RR:   0.000 FEB:  -5.557
USER: RMSD 9.379011
USER: SEED 169
USER: STATUS no improvement in best in 14 clusters for 5 generations
USER: GENES 21
USER: genes 0 Translation |==|  0.36657 0.41550 0.72007
USER: genes 1 Rotation |==|  0.65682 0.34709 0.22723 0.85724
USER: genes 2 Torsion [C]-N--CA-[CB] |==|  0.89962
USER: genes 3 Torsion [N]-CA--CB-[CG] |==|  0.39381
USER: genes 4 Torsion [CA]-CB--CG-[OD2] |==|  0.22320
USER: genes 5 Torsion [N]-CA--C-[N] |==|  0.88175
USER: genes 6 Torsion [C]-N--CA-[C] |==|  0.77222
USER: genes 7 Torsion [N]-CA--C-[N] |==|  0.97233
USER: genes 8 Torsion [C]-N--CA-[CB] |==|  0.14610
USER: genes 9 Torsion [N]-CA--C-[OXT] |==|  0.40098
USER: genes 10 Torsion [N]-CA--CB-[CG] |==|  0.96045
USER: genes 11 Torsion [CA]-CB--CG-[CD2] |==|  0.63585
USER: genes 12 Torsion [N]-C--CA-[N] |==|  0.01772
USER: genes 13 Torsion [C]-CA--CB-[CG] |==|  0.28745
USER: genes 14 Torsion [CA]-CB--CG-[CD2] |==|  0.41983
USER: genes 15 Torsion [C]-CA--N-[C] |==|  0.58695
USER: genes 16 Torsion [N]-C--CA-[N] |==|  0.33134
USER: genes 17 Torsion [C]-CA--CB-[CG] |==|  0.09915
USER: genes 18 Torsion [CA]-CB--CG-[CD] |==|  0.69635
USER: genes 19 Torsion [CB]-CG--CD-[OE1] |==|  0.83737
USER: genes 20 Torsion [C]-CA--N-[C] |==|  0.59836
ROOT
ATOM      1  C   LEU E   1      -0.240  -7.313  -9.593  1.00 28.67 LIG 0.24  C 
ATOM      2 O    LEU E   1      -0.546  -7.283  -8.396  1.00 26.53 LIG-0.27  OA
ATOM      3  N   ASP E   2      -0.188  -8.435 -10.305  1.00 29.47 LIG-0.35  N 
ATOM      4 H    ASP E   2      -0.069  -8.461 -11.156  1.00 29.47 LIG 0.16  HD
ENDROOT
BRANCH 3 5
ATOM      5  CA  ASP E   2      -0.331  -9.736  -9.676  1.00 30.54 LIG 0.19  C 
BRANCH 5 6
ATOM      6  CB  ASP E   2       0.322  -9.766  -8.291  1.00 32.40 LIG 0.15  C 
BRANCH 6 7
ATOM      7  CG  ASP E   2      -0.475 -10.570  -7.289  1.00 34.09 LIG 0.17  C 
ATOM      8 OD2  ASP E   2      -0.363 -11.812  -7.305  1.00 37.71 LIG-0.65  OA
ATOM      9 OD1  ASP E   2      -1.209  -9.965  -6.477  1.00 36.77 LIG-0.65  OA
ENDBRANCH 6 7
ENDBRANCH 5 6
BRANCH 5 10
ATOM     10  C   ASP E   2      -1.808 -10.021  -9.558  1.00 30.01 LIG 0.24  C 
ATOM     11 O    ASP E   2      -2.255 -11.141  -9.811  1.00 27.94 LIG-0.27  OA
ATOM     12  N   LEU E   3      -2.557  -9.000  -9.162  1.00 30.14 LIG-0.35  N 
ATOM     13 H    LEU E   3      -2.241  -8.224  -8.972  1.00 30.14 LIG 0.16  HD
BRANCH 12 14
ATOM     14  CA  LEU E   3      -3.997  -9.106  -9.013  1.00 30.90 LIG 0.18  C 
BRANCH 14 15
ATOM     15  C   LEU E   3      -4.672  -8.934 -10.374  1.00 32.33 LIG 0.24  C 
ATOM     16 O    LEU E   3      -5.883  -9.140 -10.512  1.00 31.45 LIG-0.27  OA
ATOM     17  N   ALA E   4      -3.882  -8.526 -11.363  1.00 33.58 LIG-0.34  N 
ATOM     18 H    ALA E   4      -3.038  -8.389 -11.275  1.00 33.58 LIG 0.16  HD
BRANCH 17 19
ATOM     19  CA  ALA E   4      -4.393  -8.269 -12.709  1.00 35.71 LIG 0.18  C 
ATOM     20  CB  ALA E   4      -5.576  -7.318 -12.652  1.00 36.03 LIG 0.04  C 
BRANCH 19 21
ATOM     21  C   ALA E   4      -3.298  -7.692 -13.594  1.00 37.05 LIG 0.20  C 
ATOM     22 OXT  ALA E   4      -3.237  -7.985 -14.786  1.00 36.72 LIG-0.65  OA
ATOM     23 O    ALA E   4      -2.452  -6.918 -13.140  1.00 37.61 LIG-0.65  OA
ENDBRANCH 19 21
ENDBRANCH 17 19
ENDBRANCH 14 15
BRANCH 14 24
ATOM     24  CB  LEU E   3      -4.484  -8.046  -8.024  1.00 30.03 LIG 0.04  C 
BRANCH 24 25
ATOM     25  CG  LEU E   3      -3.476  -7.321  -7.139  1.00 29.85 LIG-0.02  C 
ATOM     26  CD1 LEU E   3      -3.234  -5.895  -7.598  1.00 29.46 LIG 0.01  C 
ATOM     27  CD2 LEU E   3      -3.981  -7.359  -5.706  1.00 29.65 LIG 0.01  C 
ENDBRANCH 24 25
ENDBRANCH 14 24
ENDBRANCH 12 14
ENDBRANCH 5 10
ENDBRANCH 3 5
BRANCH 1 28
ATOM     28  CA  LEU E   1       0.087  -6.035 -10.345  1.00 29.46 LIG 0.18  C 
BRANCH 28 29
ATOM     29  CB  LEU E   1      -1.001  -4.985 -10.117  1.00 29.35 LIG 0.04  C 
BRANCH 29 30
ATOM     30  CG  LEU E   1      -0.624  -3.870  -9.130  1.00 30.22 LIG-0.02  C 
ATOM     31  CD2 LEU E   1      -1.354  -2.575  -9.459  1.00 31.32 LIG 0.01  C 
ATOM     32  CD1 LEU E   1       0.878  -3.652  -9.100  1.00 30.06 LIG 0.01  C 
ENDBRANCH 29 30
ENDBRANCH 28 29
BRANCH 28 33
ATOM     33  N   LEU E   1       0.247  -6.340 -11.764  1.00 28.73 LIG-0.35  N 
ATOM     34  C   GLN E   0       1.085  -5.638 -12.519  1.00 28.95 LIG 0.24  C 
ATOM     35 O    GLN E   0       1.672  -4.639 -12.114  1.00 30.73 LIG-0.27  OA
ATOM     36 H    LEU E   1      -0.237  -6.991 -12.050  1.00 28.73 LIG 0.16  HD
BRANCH 34 37
ATOM     37  CA  GLN E   0       1.297  -6.118 -13.946  1.00 28.12 LIG 0.18  C 
BRANCH 37 38
ATOM     38  CB  GLN E   0       2.778  -6.467 -14.145  1.00 27.70 LIG 0.04  C 
BRANCH 38 39
ATOM     39  CG  GLN E   0       3.465  -7.086 -12.930  1.00 26.51 LIG 0.10  C 
BRANCH 39 40
ATOM     40  CD  GLN E   0       4.463  -6.143 -12.284  1.00 26.51 LIG 0.21  C 
ATOM     41 OE1  GLN E   0       5.413  -5.694 -12.936  1.00 26.66 LIG-0.27  OA
ATOM     42  NE2 GLN E   0       4.258  -5.834 -11.005  1.00 24.64 LIG-0.37  N 
ATOM     43 22HE GLN E   0       4.798  -5.301 -10.600  1.00 24.64 LIG 0.16  HD
ATOM     44 21HE GLN E   0       3.586  -6.167 -10.584  1.00 24.64 LIG 0.16  HD
ENDBRANCH 39 40
ENDBRANCH 38 39
ENDBRANCH 37 38
BRANCH 37 45
ATOM     45  N   GLN E   0       0.873  -5.044 -14.913  1.00 28.94 LIG-0.35  N 
ATOM     46  C   ACE E  -1       0.287  -5.314 -16.104  1.00 29.25 LIG 0.21  C 
ATOM     47 O    ACE E  -1      -0.429  -6.319 -16.149  1.00 28.69 LIG-0.27  OA
ATOM     48  CH3 ACE E  -1      -0.306  -4.061 -16.728  1.00 29.73 LIG 0.12  C 
ATOM     49 H    GLN E   0       1.039  -4.246 -14.639  1.00 28.94 LIG 0.16  HD
ENDBRANCH 37 45
ENDBRANCH 34 37
ENDBRANCH 28 33
ENDBRANCH 1 28
TORSDOF 19
ENDMDL
MODEL 78
USER: ADFR SOLUTION from run 7
USER: SCORE 13.047035 LL:  -4.154 LR: -11.234 RR:   0.000 FEB:  -5.566
USER: RMSD 9.801439
USER: SEED 210561
USER: STATUS no improvement in best in 26 clusters for 5 generations
USER: GENES 21
USER: genes 0 Translation |==|  0.49044 0.53218 0.62727
USER: genes 1 Rotation |==|  0.40991 0.17459 0.16779 0.66009
USER: genes 2 Torsion [C]-N--CA-[CB] |==|  0.26039
USER: genes 3 Torsion [N]-CA--CB-[CG] |==|  0.56465
USER: genes 4 Torsion [CA]-CB--CG-[OD2] |==|  0.95201
USER: genes 5 Torsion [N]-CA--C-[N] |==|  0.59408
USER: genes 6 Torsion [C]-N--CA-[C] |==|  0.75719
USER: genes 7 Torsion [N]-CA--C-[N] |==|  1.00000
USER: genes 8 Torsion [C]-N--CA-[CB] |==|  0.19852
USER: genes 9 Torsion [N]-CA--C-[OXT] |==|  0.51884
USER: genes 10 Torsion [N]-CA--CB-[CG] |==|  0.76053
USER: genes 11 Torsion [CA]-CB--CG-[CD2] |==|  0.05422
USER: genes 12 Torsion [N]-C--CA-[N] |==|  0.53266
USER: genes 13 Torsion [C]-CA--CB-[CG] |==|  0.26446
USER: genes 14 Torsion [CA]-CB--CG-[CD2] |==|  0.01719
USER: genes 15 Torsion [C]-CA--N-[C] |==|  0.60586
USER: genes 16 Torsion [N]-C--CA-[N] |==|  0.89109
USER: genes 17 Torsion [C]-CA--CB-[CG] |==|  0.16745
USER: genes 18 Torsion [CA]-CB--CG-[CD] |==|  0.73018
USER: genes 19 Torsion [CB]-CG--CD-[OE1] |==|  0.46528
USER: genes 20 Torsion [C]-CA--N-[C] |==|  0.64060
ROOT
ATOM      1  C   LEU E   1       2.547  -5.213 -11.124  1.00 28.67 LIG 0.24  C 
ATOM      2 O    LEU E   1       2.864  -4.224 -10.456  1.00 26.53 LIG-0.27  OA
ATOM      3  N   ASP E   2       1.353  -5.794 -11.045  1.00 29.47 LIG-0.35  N 
ATOM      4 H    ASP E   2       1.088  -6.421 -11.569  1.00 29.47 LIG 0.16  HD
ENDROOT
BRANCH 3 5
ATOM      5  CA  ASP E   2       0.385  -5.398 -10.039  1.00 30.54 LIG 0.19  C 
BRANCH 5 6
ATOM      6  CB  ASP E   2      -0.581  -4.337 -10.575  1.00 32.40 LIG 0.15  C 
BRANCH 6 7
ATOM      7  CG  ASP E   2      -1.207  -3.511  -9.474  1.00 34.09 LIG 0.17  C 
ATOM      8 OD2  ASP E   2      -1.162  -3.949  -8.308  1.00 37.71 LIG-0.65  OA
ATOM      9 OD1  ASP E   2      -1.738  -2.417  -9.769  1.00 36.77 LIG-0.65  OA
ENDBRANCH 6 7
ENDBRANCH 5 6
BRANCH 5 10
ATOM     10  C   ASP E   2      -0.378  -6.635  -9.633  1.00 30.01 LIG 0.24  C 
ATOM     11 O    ASP E   2       0.177  -7.734  -9.598  1.00 27.94 LIG-0.27  OA
ATOM     12  N   LEU E   3      -1.653  -6.442  -9.320  1.00 30.14 LIG-0.35  N 
ATOM     13 H    LEU E   3      -2.035  -5.672  -9.332  1.00 30.14 LIG 0.16  HD
BRANCH 12 14
ATOM     14  CA  LEU E   3      -2.528  -7.531  -8.925  1.00 30.90 LIG 0.18  C 
BRANCH 14 15
ATOM     15  C   LEU E   3      -3.159  -8.164 -10.166  1.00 32.33 LIG 0.24  C 
ATOM     16 O    LEU E   3      -3.965  -9.096 -10.062  1.00 31.45 LIG-0.27  OA
ATOM     17  N   ALA E   4      -2.808  -7.627 -11.330  1.00 33.58 LIG-0.34  N 
ATOM     18 H    ALA E   4      -2.241  -6.984 -11.409  1.00 33.58 LIG 0.16  HD
BRANCH 17 19
ATOM     19  CA  ALA E   4      -3.365  -8.092 -12.599  1.00 35.71 LIG 0.18  C 
ATOM     20  CB  ALA E   4      -4.819  -7.667 -12.724  1.00 36.03 LIG 0.04  C 
BRANCH 19 21
ATOM     21  C   ALA E   4      -2.558  -7.547 -13.769  1.00 37.05 LIG 0.20  C 
ATOM     22 OXT  ALA E   4      -2.936  -7.720 -14.925  1.00 36.72 LIG-0.65  OA
ATOM     23 O    ALA E   4      -1.513  -6.920 -13.585  1.00 37.61 LIG-0.65  OA
ENDBRANCH 19 21
ENDBRANCH 17 19
ENDBRANCH 14 15
BRANCH 14 24
ATOM     24  CB  LEU E   3      -3.603  -6.999  -7.976  1.00 30.03 LIG 0.04  C 
BRANCH 24 25
ATOM     25  CG  LEU E   3      -3.313  -6.913  -6.481  1.00 29.85 LIG-0.02  C 
ATOM     26  CD1 LEU E   3      -3.988  -8.029  -5.703  1.00 29.46 LIG 0.01  C 
ATOM     27  CD2 LEU E   3      -1.807  -6.938  -6.283  1.00 29.65 LIG 0.01  C 
ENDBRANCH 24 25
ENDBRANCH 14 24
ENDBRANCH 12 14
ENDBRANCH 5 10
ENDBRANCH 3 5
BRANCH 1 28
ATOM     28  CA  LEU E   1       3.521  -5.830 -12.112  1.00 29.46 LIG 0.18  C 
BRANCH 28 29
ATOM     29  CB  LEU E   1       3.520  -7.354 -11.983  1.00 29.35 LIG 0.04  C 
BRANCH 29 30
ATOM     30  CG  LEU E   1       2.595  -8.085 -12.967  1.00 30.22 LIG-0.02  C 
ATOM     31  CD2 LEU E   1       1.985  -7.117 -13.971  1.00 31.32 LIG 0.01  C 
ATOM     32  CD1 LEU E   1       1.513  -8.854 -12.231  1.00 30.06 LIG 0.01  C 
ENDBRANCH 29 30
ENDBRANCH 28 29
BRANCH 28 33
ATOM     33  N   LEU E   1       4.852  -5.275 -11.887  1.00 28.73 LIG-0.35  N 
ATOM     34  C   GLN E   0       5.658  -5.007 -12.908  1.00 28.95 LIG 0.24  C 
ATOM     35 O    GLN E   0       5.391  -5.313 -14.068  1.00 30.73 LIG-0.27  OA
ATOM     36 H    LEU E   1       5.054  -5.145 -11.061  1.00 28.73 LIG 0.16  HD
BRANCH 34 37
ATOM     37  CA  GLN E   0       6.963  -4.295 -12.592  1.00 28.12 LIG 0.18  C 
BRANCH 37 38
ATOM     38  CB  GLN E   0       7.995  -5.325 -12.114  1.00 27.70 LIG 0.04  C 
BRANCH 38 39
ATOM     39  CG  GLN E   0       8.330  -6.420 -13.125  1.00 26.51 LIG 0.10  C 
BRANCH 39 40
ATOM     40  CD  GLN E   0       7.544  -7.695 -12.881  1.00 26.51 LIG 0.21  C 
ATOM     41 OE1  GLN E   0       7.521  -8.591 -13.733  1.00 26.66 LIG-0.27  OA
ATOM     42  NE2 GLN E   0       6.898  -7.791 -11.720  1.00 24.64 LIG-0.37  N 
ATOM     43 22HE GLN E   0       6.442  -8.497 -11.538  1.00 24.64 LIG 0.16  HD
ATOM     44 21HE GLN E   0       6.937  -7.146 -11.151  1.00 24.64 LIG 0.16  HD
ENDBRANCH 39 40
ENDBRANCH 38 39
ENDBRANCH 37 38
BRANCH 37 45
ATOM     45  N   GLN E   0       6.730  -3.252 -11.531  1.00 28.94 LIG-0.35  N 
ATOM     46  C   ACE E  -1       7.142  -1.967 -11.659  1.00 29.25 LIG 0.21  C 
ATOM     47 O    ACE E  -1       7.152  -1.503 -12.803  1.00 28.69 LIG-0.27  OA
ATOM     48  CH3 ACE E  -1       6.514  -1.075 -10.599  1.00 29.73 LIG 0.12  C 
ATOM     49 H    GLN E   0       6.313  -3.547 -10.840  1.00 28.94 LIG 0.16  HD
ENDBRANCH 37 45
ENDBRANCH 34 37
ENDBRANCH 28 33
ENDBRANCH 1 28
TORSDOF 19
ENDMDL
MODEL 79
USER: ADFR SOLUTION from run 73
USER: SCORE 12.521828 LL:  -3.876 LR: -11.222 RR:   0.000 FEB:  -5.554
USER: RMSD 6.395093
USER: SEED 72
USER: STATUS no improvement in best in 23 clusters for 5 generations
USER: GENES 21
USER: genes 0 Translation |==|  0.33212 0.44054 0.63150
USER: genes 1 Rotation |==|  0.88985 0.63137 0.69371 0.70792
USER: genes 2 Torsion [C]-N--CA-[CB] |==|  0.85838
USER: genes 3 Torsion [N]-CA--CB-[CG] |==|  0.88144
USER: genes 4 Torsion [CA]-CB--CG-[OD2] |==|  0.93298
USER: genes 5 Torsion [N]-CA--C-[N] |==|  0.63295
USER: genes 6 Torsion [C]-N--CA-[C] |==|  0.64975
USER: genes 7 Torsion [N]-CA--C-[N] |==|  0.68630
USER: genes 8 Torsion [C]-N--CA-[CB] |==|  0.23406
USER: genes 9 Torsion [N]-CA--C-[OXT] |==|  0.26823
USER: genes 10 Torsion [N]-CA--CB-[CG] |==|  0.61483
USER: genes 11 Torsion [CA]-CB--CG-[CD2] |==|  0.81683
USER: genes 12 Torsion [N]-C--CA-[N] |==|  0.36432
USER: genes 13 Torsion [C]-CA--CB-[CG] |==|  0.94214
USER: genes 14 Torsion [CA]-CB--CG-[CD2] |==|  0.75325
USER: genes 15 Torsion [C]-CA--N-[C] |==|  0.70500
USER: genes 16 Torsion [N]-C--CA-[N] |==|  0.39857
USER: genes 17 Torsion [C]-CA--CB-[CG] |==|  0.01425
USER: genes 18 Torsion [CA]-CB--CG-[CD] |==|  0.76385
USER: genes 19 Torsion [CB]-CG--CD-[OE1] |==|  0.88424
USER: genes 20 Torsion [C]-CA--N-[C] |==|  0.81670
ROOT
ATOM      1  C   LEU E   1      -1.015  -6.862 -11.054  1.00 28.67 LIG 0.24  C 
ATOM      2 O    LEU E   1      -0.139  -7.675 -10.742  1.00 26.53 LIG-0.27  OA
ATOM      3  N   ASP E   2      -0.790  -5.558 -11.178  1.00 29.47 LIG-0.35  N 
ATOM      4 H    ASP E   2      -1.364  -4.996 -11.484  1.00 29.47 LIG 0.16  HD
ENDROOT
BRANCH 3 5
ATOM      5  CA  ASP E   2       0.481  -4.970 -10.793  1.00 30.54 LIG 0.19  C 
BRANCH 5 6
ATOM      6  CB  ASP E   2       0.887  -5.389  -9.377  1.00 32.40 LIG 0.15  C 
BRANCH 6 7
ATOM      7  CG  ASP E   2      -0.272  -5.353  -8.405  1.00 34.09 LIG 0.17  C 
ATOM      8 OD2  ASP E   2      -1.235  -4.605  -8.662  1.00 37.71 LIG-0.65  OA
ATOM      9 OD1  ASP E   2      -0.227  -6.078  -7.387  1.00 36.77 LIG-0.65  OA
ENDBRANCH 6 7
ENDBRANCH 5 6
BRANCH 5 10
ATOM     10  C   ASP E   2       1.516  -5.438 -11.787  1.00 30.01 LIG 0.24  C 
ATOM     11 O    ASP E   2       1.300  -5.372 -12.998  1.00 27.94 LIG-0.27  OA
ATOM     12  N   LEU E   3       2.642  -5.901 -11.263  1.00 30.14 LIG-0.35  N 
ATOM     13 H    LEU E   3       2.796  -5.933 -10.417  1.00 30.14 LIG 0.16  HD
BRANCH 12 14
ATOM     14  CA  LEU E   3       3.731  -6.403 -12.082  1.00 30.90 LIG 0.18  C 
BRANCH 14 15
ATOM     15  C   LEU E   3       4.109  -7.814 -11.631  1.00 32.33 LIG 0.24  C 
ATOM     16 O    LEU E   3       3.337  -8.764 -11.808  1.00 31.45 LIG-0.27  OA
ATOM     17  N   ALA E   4       5.312  -7.942 -11.079  1.00 33.58 LIG-0.34  N 
ATOM     18 H    ALA E   4       5.849  -7.284 -10.946  1.00 33.58 LIG 0.16  HD
BRANCH 17 19
ATOM     19  CA  ALA E   4       5.833  -9.237 -10.644  1.00 35.71 LIG 0.18  C 
ATOM     20  CB  ALA E   4       6.468  -9.970 -11.814  1.00 36.03 LIG 0.04  C 
BRANCH 19 21
ATOM     21  C   ALA E   4       6.848  -9.055  -9.525  1.00 37.05 LIG 0.20  C 
ATOM     22 OXT  ALA E   4       6.512  -9.171  -8.349  1.00 36.72 LIG-0.65  OA
ATOM     23 O    ALA E   4       8.027  -8.791  -9.771  1.00 37.61 LIG-0.65  OA
ENDBRANCH 19 21
ENDBRANCH 17 19
ENDBRANCH 14 15
BRANCH 14 24
ATOM     24  CB  LEU E   3       4.927  -5.457 -11.974  1.00 30.03 LIG 0.04  C 
BRANCH 24 25
ATOM     25  CG  LEU E   3       5.732  -5.113 -13.223  1.00 29.85 LIG-0.02  C 
ATOM     26  CD1 LEU E   3       6.733  -4.001 -12.969  1.00 29.46 LIG 0.01  C 
ATOM     27  CD2 LEU E   3       6.424  -6.375 -13.710  1.00 29.65 LIG 0.01  C 
ENDBRANCH 24 25
ENDBRANCH 14 24
ENDBRANCH 12 14
ENDBRANCH 5 10
ENDBRANCH 3 5
BRANCH 1 28
ATOM     28  CA  LEU E   1      -2.435  -7.319 -11.337  1.00 29.46 LIG 0.18  C 
BRANCH 28 29
ATOM     29  CB  LEU E   1      -3.156  -7.667 -10.034  1.00 29.35 LIG 0.04  C 
BRANCH 29 30
ATOM     30  CG  LEU E   1      -2.231  -7.976  -8.848  1.00 30.22 LIG-0.02  C 
ATOM     31  CD2 LEU E   1      -1.868  -9.454  -8.803  1.00 31.32 LIG 0.01  C 
ATOM     32  CD1 LEU E   1      -2.856  -7.533  -7.538  1.00 30.06 LIG 0.01  C 
ENDBRANCH 29 30
ENDBRANCH 28 29
BRANCH 28 33
ATOM     33  N   LEU E   1      -2.402  -8.457 -12.251  1.00 28.73 LIG-0.35  N 
ATOM     34  C   GLN E   0      -2.754  -8.317 -13.524  1.00 28.95 LIG 0.24  C 
ATOM     35 O    GLN E   0      -3.234  -7.280 -13.974  1.00 30.73 LIG-0.27  OA
ATOM     36 H    LEU E   1      -2.143  -9.197 -11.897  1.00 28.73 LIG 0.16  HD
BRANCH 34 37
ATOM     37  CA  GLN E   0      -2.548  -9.517 -14.435  1.00 28.12 LIG 0.18  C 
BRANCH 37 38
ATOM     38  CB  GLN E   0      -1.201  -9.377 -15.155  1.00 27.70 LIG 0.04  C 
BRANCH 38 39
ATOM     39  CG  GLN E   0      -0.355  -8.184 -14.716  1.00 26.51 LIG 0.10  C 
BRANCH 39 40
ATOM     40  CD  GLN E   0      -0.725  -6.908 -15.449  1.00 26.51 LIG 0.21  C 
ATOM     41 OE1  GLN E   0      -0.961  -6.929 -16.663  1.00 26.66 LIG-0.27  OA
ATOM     42  NE2 GLN E   0      -0.783  -5.792 -14.724  1.00 24.64 LIG-0.37  N 
ATOM     43 22HE GLN E   0      -0.992  -5.046 -15.099  1.00 24.64 LIG 0.16  HD
ATOM     44 21HE GLN E   0      -0.612  -5.817 -13.882  1.00 24.64 LIG 0.16  HD
ENDBRANCH 39 40
ENDBRANCH 38 39
ENDBRANCH 37 38
BRANCH 37 45
ATOM     45  N   GLN E   0      -3.673  -9.598 -15.433  1.00 28.94 LIG-0.35  N 
ATOM     46  C   ACE E  -1      -4.956  -9.852 -15.078  1.00 29.25 LIG 0.21  C 
ATOM     47 O    ACE E  -1      -5.315  -9.431 -13.974  1.00 28.69 LIG-0.27  OA
ATOM     48  CH3 ACE E  -1      -5.915  -9.575 -16.225  1.00 29.73 LIG 0.12  C 
ATOM     49 H    GLN E   0      -3.426  -9.469 -16.246  1.00 28.94 LIG 0.16  HD
ENDBRANCH 37 45
ENDBRANCH 34 37
ENDBRANCH 28 33
ENDBRANCH 1 28
TORSDOF 19
ENDMDL
MODEL 80
USER: ADFR SOLUTION from run 36
USER: SCORE 13.665735 LL:  -3.391 LR: -11.191 RR:   0.000 FEB:  -5.524
USER: RMSD 9.275964
USER: SEED 35
USER: STATUS no improvement in best in 4 clusters for 5 generations
USER: GENES 21
USER: genes 0 Translation |==|  0.51848 0.50705 0.53680
USER: genes 1 Rotation |==|  0.57894 0.18788 0.12432 0.57223
USER: genes 2 Torsion [C]-N--CA-[CB] |==|  0.53220
USER: genes 3 Torsion [N]-CA--CB-[CG] |==|  0.60078
USER: genes 4 Torsion [CA]-CB--CG-[OD2] |==|  0.75941
USER: genes 5 Torsion [N]-CA--C-[N] |==|  0.50413
USER: genes 6 Torsion [C]-N--CA-[C] |==|  0.18889
USER: genes 7 Torsion [N]-CA--C-[N] |==|  0.10961
USER: genes 8 Torsion [C]-N--CA-[CB] |==|  0.24620
USER: genes 9 Torsion [N]-CA--C-[OXT] |==|  0.47181
USER: genes 10 Torsion [N]-CA--CB-[CG] |==|  0.90540
USER: genes 11 Torsion [CA]-CB--CG-[CD2] |==|  0.84137
USER: genes 12 Torsion [N]-C--CA-[N] |==|  0.48289
USER: genes 13 Torsion [C]-CA--CB-[CG] |==|  0.86496
USER: genes 14 Torsion [CA]-CB--CG-[CD2] |==|  0.64560
USER: genes 15 Torsion [C]-CA--N-[C] |==|  0.64153
USER: genes 16 Torsion [N]-C--CA-[N] |==|  0.37693
USER: genes 17 Torsion [C]-CA--CB-[CG] |==|  0.45114
USER: genes 18 Torsion [CA]-CB--CG-[CD] |==|  0.12976
USER: genes 19 Torsion [CB]-CG--CD-[OE1] |==|  0.26264
USER: genes 20 Torsion [C]-CA--N-[C] |==|  0.78896
ROOT
ATOM      1  C   LEU E   1       3.178  -5.665 -12.617  1.00 28.67 LIG 0.24  C 
ATOM      2 O    LEU E   1       2.771  -4.941 -11.702  1.00 26.53 LIG-0.27  OA
ATOM      3  N   ASP E   2       2.370  -6.271 -13.482  1.00 29.47 LIG-0.35  N 
ATOM      4 H    ASP E   2       2.641  -6.699 -14.176  1.00 29.47 LIG 0.16  HD
ENDROOT
BRANCH 3 5
ATOM      5  CA  ASP E   2       0.928  -6.252 -13.311  1.00 30.54 LIG 0.19  C 
BRANCH 5 6
ATOM      6  CB  ASP E   2       0.238  -7.242 -14.255  1.00 32.40 LIG 0.15  C 
BRANCH 6 7
ATOM      7  CG  ASP E   2      -1.086  -6.725 -14.773  1.00 34.09 LIG 0.17  C 
ATOM      8 OD2  ASP E   2      -2.107  -6.926 -14.087  1.00 37.71 LIG-0.65  OA
ATOM      9 OD1  ASP E   2      -1.108  -6.109 -15.861  1.00 36.77 LIG-0.65  OA
ENDBRANCH 6 7
ENDBRANCH 5 6
BRANCH 5 10
ATOM     10  C   ASP E   2       0.637  -6.617 -11.876  1.00 30.01 LIG 0.24  C 
ATOM     11 O    ASP E   2       1.555  -6.831 -11.083  1.00 27.94 LIG-0.27  OA
ATOM     12  N   LEU E   3      -0.647  -6.678 -11.552  1.00 30.14 LIG-0.35  N 
ATOM     13 H    LEU E   3      -1.286  -6.515 -12.104  1.00 30.14 LIG 0.16  HD
BRANCH 12 14
ATOM     14  CA  LEU E   3      -1.095  -7.031 -10.217  1.00 30.90 LIG 0.18  C 
BRANCH 14 15
ATOM     15  C   LEU E   3      -0.714  -5.923  -9.235  1.00 32.33 LIG 0.24  C 
ATOM     16 O    LEU E   3      -0.281  -6.195  -8.109  1.00 31.45 LIG-0.27  OA
ATOM     17  N   ALA E   4      -0.850  -4.679  -9.685  1.00 33.58 LIG-0.34  N 
ATOM     18 H    ALA E   4      -1.158  -4.484 -10.464  1.00 33.58 LIG 0.16  HD
BRANCH 17 19
ATOM     19  CA  ALA E   4      -0.480  -3.517  -8.880  1.00 35.71 LIG 0.18  C 
ATOM     20  CB  ALA E   4       0.984  -3.167  -9.099  1.00 36.03 LIG 0.04  C 
BRANCH 19 21
ATOM     21  C   ALA E   4      -1.361  -2.325  -9.226  1.00 37.05 LIG 0.20  C 
ATOM     22 OXT  ALA E   4      -1.337  -1.308  -8.536  1.00 36.72 LIG-0.65  OA
ATOM     23 O    ALA E   4      -2.112  -2.349 -10.202  1.00 37.61 LIG-0.65  OA
ENDBRANCH 19 21
ENDBRANCH 17 19
ENDBRANCH 14 15
BRANCH 14 24
ATOM     24  CB  LEU E   3      -0.467  -8.364  -9.806  1.00 30.03 LIG 0.04  C 
BRANCH 24 25
ATOM     25  CG  LEU E   3      -0.220  -9.437 -10.862  1.00 29.85 LIG-0.02  C 
ATOM     26  CD1 LEU E   3       0.411 -10.685 -10.270  1.00 29.46 LIG 0.01  C 
ATOM     27  CD2 LEU E   3      -1.543  -9.758 -11.538  1.00 29.65 LIG 0.01  C 
ENDBRANCH 24 25
ENDBRANCH 14 24
ENDBRANCH 12 14
ENDBRANCH 5 10
ENDBRANCH 3 5
BRANCH 1 28
ATOM     28  CA  LEU E   1       4.664  -5.900 -12.822  1.00 29.46 LIG 0.18  C 
BRANCH 28 29
ATOM     29  CB  LEU E   1       5.003  -7.380 -12.638  1.00 29.35 LIG 0.04  C 
BRANCH 29 30
ATOM     30  CG  LEU E   1       4.426  -8.020 -11.366  1.00 30.22 LIG-0.02  C 
ATOM     31  CD2 LEU E   1       5.512  -8.722 -10.563  1.00 31.32 LIG 0.01  C 
ATOM     32  CD1 LEU E   1       3.298  -8.978 -11.702  1.00 30.06 LIG 0.01  C 
ENDBRANCH 29 30
ENDBRANCH 28 29
BRANCH 28 33
ATOM     33  N   LEU E   1       5.416  -5.060 -11.895  1.00 28.73 LIG-0.35  N 
ATOM     34  C   GLN E   0       6.402  -4.282 -12.329  1.00 28.95 LIG 0.24  C 
ATOM     35 O    GLN E   0       6.814  -4.310 -13.486  1.00 30.73 LIG-0.27  OA
ATOM     36 H    LEU E   1       5.168  -5.117 -11.073  1.00 28.73 LIG 0.16  HD
BRANCH 34 37
ATOM     37  CA  GLN E   0       7.031  -3.334 -11.322  1.00 28.12 LIG 0.18  C 
BRANCH 37 38
ATOM     38  CB  GLN E   0       6.503  -1.914 -11.569  1.00 27.70 LIG 0.04  C 
BRANCH 38 39
ATOM     39  CG  GLN E   0       6.701  -0.941 -10.408  1.00 26.51 LIG 0.10  C 
BRANCH 39 40
ATOM     40  CD  GLN E   0       8.105  -0.996  -9.837  1.00 26.51 LIG 0.21  C 
ATOM     41 OE1  GLN E   0       8.973  -0.207 -10.228  1.00 26.66 LIG-0.27  OA
ATOM     42  NE2 GLN E   0       8.341  -1.922  -8.909  1.00 24.64 LIG-0.37  N 
ATOM     43 22HE GLN E   0       9.123  -1.987  -8.556  1.00 24.64 LIG 0.16  HD
ATOM     44 21HE GLN E   0       7.712  -2.454  -8.662  1.00 24.64 LIG 0.16  HD
ENDBRANCH 39 40
ENDBRANCH 38 39
ENDBRANCH 37 38
BRANCH 37 45
ATOM     45  N   GLN E   0       8.530  -3.370 -11.455  1.00 28.94 LIG-0.35  N 
ATOM     46  C   ACE E  -1       9.288  -4.390 -10.983  1.00 29.25 LIG 0.21  C 
ATOM     47 O    ACE E  -1       8.772  -5.511 -10.997  1.00 28.69 LIG-0.27  OA
ATOM     48  CH3 ACE E  -1      10.709  -4.319 -11.517  1.00 29.73 LIG 0.12  C 
ATOM     49 H    GLN E   0       8.859  -2.685 -11.857  1.00 28.94 LIG 0.16  HD
ENDBRANCH 37 45
ENDBRANCH 34 37
ENDBRANCH 28 33
ENDBRANCH 1 28
TORSDOF 19
ENDMDL
MODEL 81
USER: ADFR SOLUTION from run 155
USER: SCORE 12.822882 LL:  -3.907 LR: -11.181 RR:   0.000 FEB:  -5.513
USER: RMSD 8.953549
USER: SEED 154
USER: STATUS no improvement in best in 11 clusters for 5 generations
USER: GENES 21
USER: genes 0 Translation |==|  0.51467 0.47739 0.58178
USER: genes 1 Rotation |==|  0.55133 0.37092 0.97819 0.54514
USER: genes 2 Torsion [C]-N--CA-[CB] |==|  0.50826
USER: genes 3 Torsion [N]-CA--CB-[CG] |==|  0.60347
USER: genes 4 Torsion [CA]-CB--CG-[OD2] |==|  0.98525
USER: genes 5 Torsion [N]-CA--C-[N] |==|  0.76264
USER: genes 6 Torsion [C]-N--CA-[C] |==|  0.62222
USER: genes 7 Torsion [N]-CA--C-[N] |==|  0.02384
USER: genes 8 Torsion [C]-N--CA-[CB] |==|  0.22645
USER: genes 9 Torsion [N]-CA--C-[OXT] |==|  0.91846
USER: genes 10 Torsion [N]-CA--CB-[CG] |==|  0.66236
USER: genes 11 Torsion [CA]-CB--CG-[CD2] |==|  0.50469
USER: genes 12 Torsion [N]-C--CA-[N] |==|  0.25079
USER: genes 13 Torsion [C]-CA--CB-[CG] |==|  0.25336
USER: genes 14 Torsion [CA]-CB--CG-[CD2] |==|  0.17633
USER: genes 15 Torsion [C]-CA--N-[C] |==|  0.55890
USER: genes 16 Torsion [N]-C--CA-[N] |==|  0.41900
USER: genes 17 Torsion [C]-CA--CB-[CG] |==|  0.42366
USER: genes 18 Torsion [CA]-CB--CG-[CD] |==|  0.34569
USER: genes 19 Torsion [CB]-CG--CD-[OE1] |==|  0.75990
USER: genes 20 Torsion [C]-CA--N-[C] |==|  0.62780
ROOT
ATOM      1  C   LEU E   1       3.092  -6.199 -11.875  1.00 28.67 LIG 0.24  C 
ATOM      2 O    LEU E   1       3.048  -7.343 -11.410  1.00 26.53 LIG-0.27  OA
ATOM      3  N   ASP E   2       2.215  -5.250 -11.559  1.00 29.47 LIG-0.35  N 
ATOM      4 H    ASP E   2       2.288  -4.428 -11.800  1.00 29.47 LIG 0.16  HD
ENDROOT
BRANCH 3 5
ATOM      5  CA  ASP E   2       1.038  -5.543 -10.762  1.00 30.54 LIG 0.19  C 
BRANCH 5 6
ATOM      6  CB  ASP E   2       0.150  -4.306 -10.597  1.00 32.40 LIG 0.15  C 
BRANCH 6 7
ATOM      7  CG  ASP E   2      -0.480  -4.221  -9.225  1.00 34.09 LIG 0.17  C 
ATOM      8 OD2  ASP E   2      -0.309  -5.171  -8.436  1.00 37.71 LIG-0.65  OA
ATOM      9 OD1  ASP E   2      -1.140  -3.201  -8.927  1.00 36.77 LIG-0.65  OA
ENDBRANCH 6 7
ENDBRANCH 5 6
BRANCH 5 10
ATOM     10  C   ASP E   2       0.275  -6.638 -11.467  1.00 30.01 LIG 0.24  C 
ATOM     11 O    ASP E   2       0.438  -7.818 -11.156  1.00 27.94 LIG-0.27  OA
ATOM     12  N   LEU E   3      -0.565  -6.232 -12.410  1.00 30.14 LIG-0.35  N 
ATOM     13 H    LEU E   3      -0.687  -5.406 -12.615  1.00 30.14 LIG 0.16  HD
BRANCH 12 14
ATOM     14  CA  LEU E   3      -1.362  -7.160 -13.191  1.00 30.90 LIG 0.18  C 
BRANCH 14 15
ATOM     15  C   LEU E   3      -1.329  -6.757 -14.665  1.00 32.33 LIG 0.24  C 
ATOM     16 O    LEU E   3      -2.084  -7.292 -15.486  1.00 31.45 LIG-0.27  OA
ATOM     17  N   ALA E   4      -0.472  -5.791 -14.981  1.00 33.58 LIG-0.34  N 
ATOM     18 H    ALA E   4       0.061  -5.421 -14.416  1.00 33.58 LIG 0.16  HD
BRANCH 17 19
ATOM     19  CA  ALA E   4      -0.362  -5.264 -16.340  1.00 35.71 LIG 0.18  C 
ATOM     20  CB  ALA E   4      -1.454  -4.240 -16.599  1.00 36.03 LIG 0.04  C 
BRANCH 19 21
ATOM     21  C   ALA E   4       1.008  -4.638 -16.561  1.00 37.05 LIG 0.20  C 
ATOM     22 OXT  ALA E   4       1.625  -4.135 -15.625  1.00 36.72 LIG-0.65  OA
ATOM     23 O    ALA E   4       1.529  -4.622 -17.678  1.00 37.61 LIG-0.65  OA
ENDBRANCH 19 21
ENDBRANCH 17 19
ENDBRANCH 14 15
BRANCH 14 24
ATOM     24  CB  LEU E   3      -2.796  -7.170 -12.659  1.00 30.03 LIG 0.04  C 
BRANCH 24 25
ATOM     25  CG  LEU E   3      -3.407  -8.477 -12.164  1.00 29.85 LIG-0.02  C 
ATOM     26  CD1 LEU E   3      -2.603  -9.089 -11.030  1.00 29.46 LIG 0.01  C 
ATOM     27  CD2 LEU E   3      -4.840  -8.206 -11.737  1.00 29.65 LIG 0.01  C 
ENDBRANCH 24 25
ENDBRANCH 14 24
ENDBRANCH 12 14
ENDBRANCH 5 10
ENDBRANCH 3 5
BRANCH 1 28
ATOM     28  CA  LEU E   1       4.187  -5.794 -12.846  1.00 29.46 LIG 0.18  C 
BRANCH 28 29
ATOM     29  CB  LEU E   1       4.577  -6.975 -13.735  1.00 29.35 LIG 0.04  C 
BRANCH 29 30
ATOM     30  CG  LEU E   1       3.796  -7.075 -15.054  1.00 30.22 LIG-0.02  C 
ATOM     31  CD2 LEU E   1       4.064  -5.870 -15.945  1.00 31.32 LIG 0.01  C 
ATOM     32  CD1 LEU E   1       2.309  -7.238 -14.797  1.00 30.06 LIG 0.01  C 
ENDBRANCH 29 30
ENDBRANCH 28 29
BRANCH 28 33
ATOM     33  N   LEU E   1       5.332  -5.287 -12.096  1.00 28.73 LIG-0.35  N 
ATOM     34  C   GLN E   0       6.229  -4.498 -12.677  1.00 28.95 LIG 0.24  C 
ATOM     35 O    GLN E   0       6.221  -4.250 -13.880  1.00 30.73 LIG-0.27  OA
ATOM     36 H    LEU E   1       5.367  -5.541 -11.275  1.00 28.73 LIG 0.16  HD
BRANCH 34 37
ATOM     37  CA  GLN E   0       7.305  -3.900 -11.785  1.00 28.12 LIG 0.18  C 
BRANCH 37 38
ATOM     38  CB  GLN E   0       6.794  -2.579 -11.196  1.00 27.70 LIG 0.04  C 
BRANCH 38 39
ATOM     39  CG  GLN E   0       7.401  -2.194  -9.849  1.00 26.51 LIG 0.10  C 
BRANCH 39 40
ATOM     40  CD  GLN E   0       8.039  -0.818  -9.871  1.00 26.51 LIG 0.21  C 
ATOM     41 OE1  GLN E   0       9.212  -0.676 -10.238  1.00 26.66 LIG-0.27  OA
ATOM     42  NE2 GLN E   0       7.278   0.205  -9.485  1.00 24.64 LIG-0.37  N 
ATOM     43 22HE GLN E   0       7.598   1.003  -9.484  1.00 24.64 LIG 0.16  HD
ATOM     44 21HE GLN E   0       6.466   0.067  -9.236  1.00 24.64 LIG 0.16  HD
ENDBRANCH 39 40
ENDBRANCH 38 39
ENDBRANCH 37 38
BRANCH 37 45
ATOM     45  N   GLN E   0       8.560  -3.670 -12.585  1.00 28.94 LIG-0.35  N 
ATOM     46  C   ACE E  -1       9.792  -4.022 -12.141  1.00 29.25 LIG 0.21  C 
ATOM     47 O    ACE E  -1       9.851  -5.022 -11.420  1.00 28.69 LIG-0.27  OA
ATOM     48  CH3 ACE E  -1      10.822  -3.960 -13.257  1.00 29.73 LIG 0.12  C 
ATOM     49 H    GLN E   0       8.423  -3.295 -13.346  1.00 28.94 LIG 0.16  HD
ENDBRANCH 37 45
ENDBRANCH 34 37
ENDBRANCH 28 33
ENDBRANCH 1 28
TORSDOF 19
ENDMDL
MODEL 82
USER: ADFR SOLUTION from run 158
USER: SCORE 13.787301 LL:  -4.290 LR: -11.179 RR:   0.000 FEB:  -5.512
USER: RMSD 10.137103
USER: SEED 157
USER: STATUS no improvement in best in 33 clusters for 5 generations
USER: GENES 21
USER: genes 0 Translation |==|  0.37758 0.48644 0.58393
USER: genes 1 Rotation |==|  0.15161 0.38388 0.21411 0.68277
USER: genes 2 Torsion [C]-N--CA-[CB] |==|  0.27128
USER: genes 3 Torsion [N]-CA--CB-[CG] |==|  0.14697
USER: genes 4 Torsion [CA]-CB--CG-[OD2] |==|  0.56532
USER: genes 5 Torsion [N]-CA--C-[N] |==|  0.02787
USER: genes 6 Torsion [C]-N--CA-[C] |==|  0.60108
USER: genes 7 Torsion [N]-CA--C-[N] |==|  0.47207
USER: genes 8 Torsion [C]-N--CA-[CB] |==|  0.17392
USER: genes 9 Torsion [N]-CA--C-[OXT] |==|  0.54405
USER: genes 10 Torsion [N]-CA--CB-[CG] |==|  0.64060
USER: genes 11 Torsion [CA]-CB--CG-[CD2] |==|  0.08577
USER: genes 12 Torsion [N]-C--CA-[N] |==|  0.51265
USER: genes 13 Torsion [C]-CA--CB-[CG] |==|  0.31379
USER: genes 14 Torsion [CA]-CB--CG-[CD2] |==|  0.70044
USER: genes 15 Torsion [C]-CA--N-[C] |==|  0.53931
USER: genes 16 Torsion [N]-C--CA-[N] |==|  0.46893
USER: genes 17 Torsion [C]-CA--CB-[CG] |==|  0.91047
USER: genes 18 Torsion [CA]-CB--CG-[CD] |==|  0.76556
USER: genes 19 Torsion [CB]-CG--CD-[OE1] |==|  0.02141
USER: genes 20 Torsion [C]-CA--N-[C] |==|  0.78048
ROOT
ATOM      1  C   LEU E   1       0.008  -6.036 -11.839  1.00 28.67 LIG 0.24  C 
ATOM      2 O    LEU E   1       1.187  -5.761 -12.084  1.00 26.53 LIG-0.27  OA
ATOM      3  N   ASP E   2      -0.529  -5.931 -10.627  1.00 29.47 LIG-0.35  N 
ATOM      4 H    ASP E   2      -1.367  -6.029 -10.461  1.00 29.47 LIG 0.16  HD
ENDROOT
BRANCH 3 5
ATOM      5  CA  ASP E   2       0.286  -5.636  -9.462  1.00 30.54 LIG 0.19  C 
BRANCH 5 6
ATOM      6  CB  ASP E   2       0.244  -4.145  -9.111  1.00 32.40 LIG 0.15  C 
BRANCH 6 7
ATOM      7  CG  ASP E   2      -1.168  -3.621  -8.967  1.00 34.09 LIG 0.17  C 
ATOM      8 OD2  ASP E   2      -1.364  -2.401  -9.128  1.00 37.71 LIG-0.65  OA
ATOM      9 OD1  ASP E   2      -2.086  -4.428  -8.703  1.00 36.77 LIG-0.65  OA
ENDBRANCH 6 7
ENDBRANCH 5 6
BRANCH 5 10
ATOM     10  C   ASP E   2      -0.252  -6.453  -8.314  1.00 30.01 LIG 0.24  C 
ATOM     11 O    ASP E   2       0.135  -6.251  -7.162  1.00 27.94 LIG-0.27  OA
ATOM     12  N   LEU E   3      -1.153  -7.371  -8.639  1.00 30.14 LIG-0.35  N 
ATOM     13 H    LEU E   3      -1.432  -7.501  -9.442  1.00 30.14 LIG 0.16  HD
BRANCH 12 14
ATOM     14  CA  LEU E   3      -1.756  -8.250  -7.653  1.00 30.90 LIG 0.18  C 
BRANCH 14 15
ATOM     15  C   LEU E   3      -1.973  -9.636  -8.260  1.00 32.33 LIG 0.24  C 
ATOM     16 O    LEU E   3      -1.796  -9.833  -9.468  1.00 31.45 LIG-0.27  OA
ATOM     17  N   ALA E   4      -2.325 -10.592  -7.407  1.00 33.58 LIG-0.34  N 
ATOM     18 H    ALA E   4      -2.458 -10.458  -6.568  1.00 33.58 LIG 0.16  HD
BRANCH 17 19
ATOM     19  CA  ALA E   4      -2.520 -11.978  -7.830  1.00 35.71 LIG 0.18  C 
ATOM     20  CB  ALA E   4      -1.220 -12.553  -8.367  1.00 36.03 LIG 0.04  C 
BRANCH 19 21
ATOM     21  C   ALA E   4      -3.029 -12.824  -6.672  1.00 37.05 LIG 0.20  C 
ATOM     22 OXT  ALA E   4      -2.984 -14.051  -6.725  1.00 36.72 LIG-0.65  OA
ATOM     23 O    ALA E   4      -3.494 -12.301  -5.657  1.00 37.61 LIG-0.65  OA
ENDBRANCH 19 21
ENDBRANCH 17 19
ENDBRANCH 14 15
BRANCH 14 24
ATOM     24  CB  LEU E   3      -3.080  -7.648  -7.179  1.00 30.03 LIG 0.04  C 
BRANCH 24 25
ATOM     25  CG  LEU E   3      -3.352  -7.510  -5.684  1.00 29.85 LIG-0.02  C 
ATOM     26  CD1 LEU E   3      -4.080  -8.718  -5.122  1.00 29.46 LIG 0.01  C 
ATOM     27  CD2 LEU E   3      -2.027  -7.288  -4.974  1.00 29.65 LIG 0.01  C 
ENDBRANCH 24 25
ENDBRANCH 14 24
ENDBRANCH 12 14
ENDBRANCH 5 10
ENDBRANCH 3 5
BRANCH 1 28
ATOM     28  CA  LEU E   1      -0.927  -6.508 -12.939  1.00 29.46 LIG 0.18  C 
BRANCH 28 29
ATOM     29  CB  LEU E   1      -1.623  -7.807 -12.530  1.00 29.35 LIG 0.04  C 
BRANCH 29 30
ATOM     30  CG  LEU E   1      -3.138  -7.685 -12.310  1.00 30.22 LIG-0.02  C 
ATOM     31  CD2 LEU E   1      -3.487  -7.769 -10.830  1.00 31.32 LIG 0.01  C 
ATOM     32  CD1 LEU E   1      -3.891  -8.738 -13.103  1.00 30.06 LIG 0.01  C 
ENDBRANCH 29 30
ENDBRANCH 28 29
BRANCH 28 33
ATOM     33  N   LEU E   1      -0.170  -6.675 -14.176  1.00 28.73 LIG-0.35  N 
ATOM     34  C   GLN E   0      -0.793  -6.807 -15.341  1.00 28.95 LIG 0.24  C 
ATOM     35 O    GLN E   0      -2.012  -6.919 -15.438  1.00 30.73 LIG-0.27  OA
ATOM     36 H    LEU E   1       0.685  -6.679 -14.078  1.00 28.73 LIG 0.16  HD
BRANCH 34 37
ATOM     37  CA  GLN E   0       0.073  -6.827 -16.591  1.00 28.12 LIG 0.18  C 
BRANCH 37 38
ATOM     38  CB  GLN E   0       0.658  -5.427 -16.819  1.00 27.70 LIG 0.04  C 
BRANCH 38 39
ATOM     39  CG  GLN E   0      -0.233  -4.273 -16.368  1.00 26.51 LIG 0.10  C 
BRANCH 39 40
ATOM     40  CD  GLN E   0      -1.256  -3.884 -17.419  1.00 26.51 LIG 0.21  C 
ATOM     41 OE1  GLN E   0      -1.399  -4.568 -18.438  1.00 26.66 LIG-0.27  OA
ATOM     42  NE2 GLN E   0      -1.976  -2.788 -17.181  1.00 24.64 LIG-0.37  N 
ATOM     43 22HE GLN E   0      -2.569  -2.532 -17.749  1.00 24.64 LIG 0.16  HD
ATOM     44 21HE GLN E   0      -1.848  -2.337 -16.460  1.00 24.64 LIG 0.16  HD
ENDBRANCH 39 40
ENDBRANCH 38 39
ENDBRANCH 37 38
BRANCH 37 45
ATOM     45  N   GLN E   0      -0.752  -7.253 -17.776  1.00 28.94 LIG-0.35  N 
ATOM     46  C   ACE E  -1      -1.065  -8.548 -18.029  1.00 29.25 LIG 0.21  C 
ATOM     47 O    ACE E  -1      -1.211  -9.280 -17.046  1.00 28.69 LIG-0.27  OA
ATOM     48  CH3 ACE E  -1      -2.145  -8.660 -19.092  1.00 29.73 LIG 0.12  C 
ATOM     49 H    GLN E   0      -1.005  -6.601 -18.276  1.00 28.94 LIG 0.16  HD
ENDBRANCH 37 45
ENDBRANCH 34 37
ENDBRANCH 28 33
ENDBRANCH 1 28
TORSDOF 19
ENDMDL
MODEL 83
USER: ADFR SOLUTION from run 136
USER: SCORE 13.465432 LL:  -3.675 LR: -11.183 RR:   0.000 FEB:  -5.516
USER: RMSD 6.311263
USER: SEED 135
USER: STATUS no improvement in best in 11 clusters for 5 generations
USER: GENES 21
USER: genes 0 Translation |==|  0.63791 0.53192 0.53111
USER: genes 1 Rotation |==|  0.08251 0.29812 0.52652 0.68505
USER: genes 2 Torsion [C]-N--CA-[CB] |==|  0.41054
USER: genes 3 Torsion [N]-CA--CB-[CG] |==|  0.54104
USER: genes 4 Torsion [CA]-CB--CG-[OD2] |==|  0.11907
USER: genes 5 Torsion [N]-CA--C-[N] |==|  0.91391
USER: genes 6 Torsion [C]-N--CA-[C] |==|  0.62141
USER: genes 7 Torsion [N]-CA--C-[N] |==|  0.45051
USER: genes 8 Torsion [C]-N--CA-[CB] |==|  0.39394
USER: genes 9 Torsion [N]-CA--C-[OXT] |==|  0.49697
USER: genes 10 Torsion [N]-CA--CB-[CG] |==|  0.78919
USER: genes 11 Torsion [CA]-CB--CG-[CD2] |==|  0.21875
USER: genes 12 Torsion [N]-C--CA-[N] |==|  0.35001
USER: genes 13 Torsion [C]-CA--CB-[CG] |==|  0.43471
USER: genes 14 Torsion [CA]-CB--CG-[CD2] |==|  0.09315
USER: genes 15 Torsion [C]-CA--N-[C] |==|  0.80149
USER: genes 16 Torsion [N]-C--CA-[N] |==|  0.43888
USER: genes 17 Torsion [C]-CA--CB-[CG] |==|  0.49574
USER: genes 18 Torsion [CA]-CB--CG-[CD] |==|  0.44586
USER: genes 19 Torsion [CB]-CG--CD-[OE1] |==|  0.67741
USER: genes 20 Torsion [C]-CA--N-[C] |==|  0.80824
ROOT
ATOM      1  C   LEU E   1       5.865  -5.217 -12.711  1.00 28.67 LIG 0.24  C 
ATOM      2 O    LEU E   1       5.984  -4.950 -13.911  1.00 26.53 LIG-0.27  OA
ATOM      3  N   ASP E   2       6.210  -4.378 -11.739  1.00 29.47 LIG-0.35  N 
ATOM      4 H    ASP E   2       6.046  -4.512 -10.906  1.00 29.47 LIG 0.16  HD
ENDROOT
BRANCH 3 5
ATOM      5  CA  ASP E   2       6.909  -3.138 -12.024  1.00 30.54 LIG 0.19  C 
BRANCH 5 6
ATOM      6  CB  ASP E   2       6.525  -2.036 -11.030  1.00 32.40 LIG 0.15  C 
BRANCH 6 7
ATOM      7  CG  ASP E   2       6.945  -0.660 -11.497  1.00 34.09 LIG 0.17  C 
ATOM      8 OD2  ASP E   2       6.764  -0.361 -12.693  1.00 37.71 LIG-0.65  OA
ATOM      9 OD1  ASP E   2       7.450   0.129 -10.668  1.00 36.77 LIG-0.65  OA
ENDBRANCH 6 7
ENDBRANCH 5 6
BRANCH 5 10
ATOM     10  C   ASP E   2       8.388  -3.421 -11.937  1.00 30.01 LIG 0.24  C 
ATOM     11 O    ASP E   2       9.191  -2.793 -12.628  1.00 27.94 LIG-0.27  OA
ATOM     12  N   LEU E   3       8.739  -4.365 -11.074  1.00 30.14 LIG-0.35  N 
ATOM     13 H    LEU E   3       8.178  -4.793 -10.582  1.00 30.14 LIG 0.16  HD
BRANCH 12 14
ATOM     14  CA  LEU E   3      10.121  -4.767 -10.882  1.00 30.90 LIG 0.18  C 
BRANCH 14 15
ATOM     15  C   LEU E   3      10.210  -6.292 -10.812  1.00 32.33 LIG 0.24  C 
ATOM     16 O    LEU E   3       9.201  -6.978 -10.614  1.00 31.45 LIG-0.27  OA
ATOM     17  N   ALA E   4      11.420  -6.809 -11.007  1.00 33.58 LIG-0.34  N 
ATOM     18 H    ALA E   4      12.126  -6.336 -11.137  1.00 33.58 LIG 0.16  HD
BRANCH 17 19
ATOM     19  CA  ALA E   4      11.654  -8.252 -11.019  1.00 35.71 LIG 0.18  C 
ATOM     20  CB  ALA E   4      12.681  -8.611 -12.080  1.00 36.03 LIG 0.04  C 
BRANCH 19 21
ATOM     21  C   ALA E   4      12.125  -8.728  -9.652  1.00 37.05 LIG 0.20  C 
ATOM     22 OXT  ALA E   4      12.358  -9.917  -9.449  1.00 36.72 LIG-0.65  OA
ATOM     23 O    ALA E   4      12.285  -7.935  -8.722  1.00 37.61 LIG-0.65  OA
ENDBRANCH 19 21
ENDBRANCH 17 19
ENDBRANCH 14 15
BRANCH 14 24
ATOM     24  CB  LEU E   3      10.663  -4.129  -9.603  1.00 30.03 LIG 0.04  C 
BRANCH 24 25
ATOM     25  CG  LEU E   3      11.035  -2.649  -9.598  1.00 29.85 LIG-0.02  C 
ATOM     26  CD1 LEU E   3      11.820  -2.254 -10.837  1.00 29.46 LIG 0.01  C 
ATOM     27  CD2 LEU E   3       9.758  -1.834  -9.474  1.00 29.65 LIG 0.01  C 
ENDBRANCH 24 25
ENDBRANCH 14 24
ENDBRANCH 12 14
ENDBRANCH 5 10
ENDBRANCH 3 5
BRANCH 1 28
ATOM     28  CA  LEU E   1       5.288  -6.549 -12.263  1.00 29.46 LIG 0.18  C 
BRANCH 28 29
ATOM     29  CB  LEU E   1       6.260  -7.687 -12.577  1.00 29.35 LIG 0.04  C 
BRANCH 29 30
ATOM     30  CG  LEU E   1       6.085  -8.942 -11.710  1.00 30.22 LIG-0.02  C 
ATOM     31  CD2 LEU E   1       4.623  -9.159 -11.345  1.00 31.32 LIG 0.01  C 
ATOM     32  CD1 LEU E   1       6.948  -8.870 -10.463  1.00 30.06 LIG 0.01  C 
ENDBRANCH 29 30
ENDBRANCH 28 29
BRANCH 28 33
ATOM     33  N   LEU E   1       3.996  -6.756 -12.910  1.00 28.73 LIG-0.35  N 
ATOM     34  C   GLN E   0       2.935  -6.041 -12.553  1.00 28.95 LIG 0.24  C 
ATOM     35 O    GLN E   0       2.941  -5.267 -11.599  1.00 30.73 LIG-0.27  OA
ATOM     36 H    LEU E   1       3.991  -7.362 -13.520  1.00 28.73 LIG 0.16  HD
BRANCH 34 37
ATOM     37  CA  GLN E   0       1.671  -6.218 -13.379  1.00 28.12 LIG 0.18  C 
BRANCH 37 38
ATOM     38  CB  GLN E   0       1.782  -5.376 -14.656  1.00 27.70 LIG 0.04  C 
BRANCH 38 39
ATOM     39  CG  GLN E   0       0.591  -5.486 -15.607  1.00 26.51 LIG 0.10  C 
BRANCH 39 40
ATOM     40  CD  GLN E   0       0.517  -4.325 -16.581  1.00 26.51 LIG 0.21  C 
ATOM     41 OE1  GLN E   0      -0.440  -3.544 -16.554  1.00 26.66 LIG-0.27  OA
ATOM     42  NE2 GLN E   0       1.524  -4.199 -17.444  1.00 24.64 LIG-0.37  N 
ATOM     43 22HE GLN E   0       1.524  -3.553 -18.013  1.00 24.64 LIG 0.16  HD
ATOM     44 21HE GLN E   0       2.173  -4.763 -17.433  1.00 24.64 LIG 0.16  HD
ENDBRANCH 39 40
ENDBRANCH 38 39
ENDBRANCH 37 38
BRANCH 37 45
ATOM     45  N   GLN E   0       0.471  -5.797 -12.572  1.00 28.94 LIG-0.35  N 
ATOM     46  C   ACE E  -1       0.026  -6.491 -11.496  1.00 29.25 LIG 0.21  C 
ATOM     47 O    ACE E  -1       0.883  -7.074 -10.825  1.00 28.69 LIG-0.27  OA
ATOM     48  CH3 ACE E  -1      -0.991  -5.688 -10.700  1.00 29.73 LIG 0.12  C 
ATOM     49 H    GLN E   0       0.096  -5.078 -12.857  1.00 28.94 LIG 0.16  HD
ENDBRANCH 37 45
ENDBRANCH 34 37
ENDBRANCH 28 33
ENDBRANCH 1 28
TORSDOF 19
ENDMDL
MODEL 84
USER: ADFR SOLUTION from run 86
USER: SCORE 13.511620 LL:  -3.905 LR: -11.160 RR:   0.000 FEB:  -5.492
USER: RMSD 9.884945
USER: SEED 85
USER: STATUS no improvement in best in 11 clusters for 5 generations
USER: GENES 21
USER: genes 0 Translation |==|  0.30249 0.45824 0.66627
USER: genes 1 Rotation |==|  0.68169 0.31023 0.13006 0.71005
USER: genes 2 Torsion [C]-N--CA-[CB] |==|  0.52061
USER: genes 3 Torsion [N]-CA--CB-[CG] |==|  0.83479
USER: genes 4 Torsion [CA]-CB--CG-[OD2] |==|  0.13824
USER: genes 5 Torsion [N]-CA--C-[N] |==|  0.39445
USER: genes 6 Torsion [C]-N--CA-[C] |==|  0.22564
USER: genes 7 Torsion [N]-CA--C-[N] |==|  0.84961
USER: genes 8 Torsion [C]-N--CA-[CB] |==|  0.27488
USER: genes 9 Torsion [N]-CA--C-[OXT] |==|  0.73344
USER: genes 10 Torsion [N]-CA--CB-[CG] |==|  0.72016
USER: genes 11 Torsion [CA]-CB--CG-[CD2] |==|  0.13657
USER: genes 12 Torsion [N]-C--CA-[N] |==|  0.98962
USER: genes 13 Torsion [C]-CA--CB-[CG] |==|  0.29162
USER: genes 14 Torsion [CA]-CB--CG-[CD2] |==|  0.51106
USER: genes 15 Torsion [C]-CA--N-[C] |==|  0.78948
USER: genes 16 Torsion [N]-C--CA-[N] |==|  0.01380
USER: genes 17 Torsion [C]-CA--CB-[CG] |==|  0.81002
USER: genes 18 Torsion [CA]-CB--CG-[CD] |==|  0.22513
USER: genes 19 Torsion [CB]-CG--CD-[OE1] |==|  0.74324
USER: genes 20 Torsion [C]-CA--N-[C] |==|  0.63889
ROOT
ATOM      1  C   LEU E   1      -1.682  -6.544 -10.481  1.00 28.67 LIG 0.24  C 
ATOM      2 O    LEU E   1      -2.258  -6.584  -9.389  1.00 26.53 LIG-0.27  OA
ATOM      3  N   ASP E   2      -2.040  -7.289 -11.522  1.00 29.47 LIG-0.35  N 
ATOM      4 H    ASP E   2      -1.710  -7.204 -12.311  1.00 29.47 LIG 0.16  HD
ENDROOT
BRANCH 3 5
ATOM      5  CA  ASP E   2      -3.043  -8.332 -11.397  1.00 30.54 LIG 0.19  C 
BRANCH 5 6
ATOM      6  CB  ASP E   2      -3.149  -9.165 -12.678  1.00 32.40 LIG 0.15  C 
BRANCH 6 7
ATOM      7  CG  ASP E   2      -3.518  -8.333 -13.885  1.00 34.09 LIG 0.17  C 
ATOM      8 OD2  ASP E   2      -2.869  -7.291 -14.105  1.00 37.71 LIG-0.65  OA
ATOM      9 OD1  ASP E   2      -4.451  -8.720 -14.621  1.00 36.77 LIG-0.65  OA
ENDBRANCH 6 7
ENDBRANCH 5 6
BRANCH 5 10
ATOM     10  C   ASP E   2      -2.640  -9.211 -10.239  1.00 30.01 LIG 0.24  C 
ATOM     11 O    ASP E   2      -1.455  -9.475 -10.031  1.00 27.94 LIG-0.27  OA
ATOM     12  N   LEU E   3      -3.636  -9.653  -9.484  1.00 30.14 LIG-0.35  N 
ATOM     13 H    LEU E   3      -4.462  -9.457  -9.622  1.00 30.14 LIG 0.16  HD
BRANCH 12 14
ATOM     14  CA  LEU E   3      -3.419 -10.522  -8.341  1.00 30.90 LIG 0.18  C 
BRANCH 14 15
ATOM     15  C   LEU E   3      -2.994  -9.688  -7.132  1.00 32.33 LIG 0.24  C 
ATOM     16 O    LEU E   3      -3.588  -9.789  -6.052  1.00 31.45 LIG-0.27  OA
ATOM     17  N   ALA E   4      -1.945  -8.892  -7.318  1.00 33.58 LIG-0.34  N 
ATOM     18 H    ALA E   4      -1.533  -8.812  -8.069  1.00 33.58 LIG 0.16  HD
BRANCH 17 19
ATOM     19  CA  ALA E   4      -1.392  -8.072  -6.242  1.00 35.71 LIG 0.18  C 
ATOM     20  CB  ALA E   4      -0.176  -8.751  -5.633  1.00 36.03 LIG 0.04  C 
BRANCH 19 21
ATOM     21  C   ALA E   4      -1.017  -6.692  -6.761  1.00 37.05 LIG 0.20  C 
ATOM     22 OXT  ALA E   4       0.137  -6.444  -7.105  1.00 36.72 LIG-0.65  OA
ATOM     23 O    ALA E   4      -1.857  -5.794  -6.852  1.00 37.61 LIG-0.65  OA
ENDBRANCH 19 21
ENDBRANCH 17 19
ENDBRANCH 14 15
BRANCH 14 24
ATOM     24  CB  LEU E   3      -2.352 -11.561  -8.689  1.00 30.03 LIG 0.04  C 
BRANCH 24 25
ATOM     25  CG  LEU E   3      -2.776 -12.977  -9.069  1.00 29.85 LIG-0.02  C 
ATOM     26  CD1 LEU E   3      -3.244 -13.776  -7.866  1.00 29.46 LIG 0.01  C 
ATOM     27  CD2 LEU E   3      -3.866 -12.884 -10.124  1.00 29.65 LIG 0.01  C 
ENDBRANCH 24 25
ENDBRANCH 14 24
ENDBRANCH 12 14
ENDBRANCH 5 10
ENDBRANCH 3 5
BRANCH 1 28
ATOM     28  CA  LEU E   1      -0.511  -5.605 -10.709  1.00 29.46 LIG 0.18  C 
BRANCH 28 29
ATOM     29  CB  LEU E   1      -0.940  -4.152 -10.499  1.00 29.35 LIG 0.04  C 
BRANCH 29 30
ATOM     30  CG  LEU E   1      -0.458  -3.521  -9.184  1.00 30.22 LIG-0.02  C 
ATOM     31  CD2 LEU E   1      -1.011  -2.113  -9.015  1.00 31.32 LIG 0.01  C 
ATOM     32  CD1 LEU E   1       1.057  -3.520  -9.101  1.00 30.06 LIG 0.01  C 
ENDBRANCH 29 30
ENDBRANCH 28 29
BRANCH 28 33
ATOM     33  N   LEU E   1       0.021  -5.816 -12.052  1.00 28.73 LIG-0.35  N 
ATOM     34  C   GLN E   0       0.767  -6.880 -12.328  1.00 28.95 LIG 0.24  C 
ATOM     35 O    GLN E   0       1.150  -7.668 -11.468  1.00 30.73 LIG-0.27  OA
ATOM     36 H    LEU E   1      -0.189  -5.208 -12.623  1.00 28.73 LIG 0.16  HD
BRANCH 34 37
ATOM     37  CA  GLN E   0       1.153  -7.096 -13.783  1.00 28.12 LIG 0.18  C 
BRANCH 37 38
ATOM     38  CB  GLN E   0       2.677  -7.239 -13.884  1.00 27.70 LIG 0.04  C 
BRANCH 38 39
ATOM     39  CG  GLN E   0       3.466  -5.967 -13.582  1.00 26.51 LIG 0.10  C 
BRANCH 39 40
ATOM     40  CD  GLN E   0       3.635  -5.728 -12.093  1.00 26.51 LIG 0.21  C 
ATOM     41 OE1  GLN E   0       2.823  -5.033 -11.473  1.00 26.66 LIG-0.27  OA
ATOM     42  NE2 GLN E   0       4.685  -6.302 -11.507  1.00 24.64 LIG-0.37  N 
ATOM     43 22HE GLN E   0       4.819  -6.195 -10.664  1.00 24.64 LIG 0.16  HD
ATOM     44 21HE GLN E   0       5.230  -6.779 -11.972  1.00 24.64 LIG 0.16  HD
ENDBRANCH 39 40
ENDBRANCH 38 39
ENDBRANCH 37 38
BRANCH 37 45
ATOM     45  N   GLN E   0       0.676  -5.935 -14.614  1.00 28.94 LIG-0.35  N 
ATOM     46  C   ACE E  -1      -0.033  -6.090 -15.759  1.00 29.25 LIG 0.21  C 
ATOM     47 O    ACE E  -1      -0.786  -7.066 -15.812  1.00 28.69 LIG-0.27  OA
ATOM     48  CH3 ACE E  -1      -0.639  -4.773 -16.219  1.00 29.73 LIG 0.12  C 
ATOM     49 H    GLN E   0       0.895  -5.167 -14.296  1.00 28.94 LIG 0.16  HD
ENDBRANCH 37 45
ENDBRANCH 34 37
ENDBRANCH 28 33
ENDBRANCH 1 28
TORSDOF 19
ENDMDL
MODEL 85
USER: ADFR SOLUTION from run 113
USER: SCORE 14.369157 LL:  -3.898 LR: -11.161 RR:   0.000 FEB:  -5.493
USER: RMSD 9.182124
USER: SEED 112
USER: STATUS no improvement in best in 8 clusters for 5 generations
USER: GENES 21
USER: genes 0 Translation |==|  0.43278 0.42253 0.48633
USER: genes 1 Rotation |==|  0.54287 0.41189 0.98881 0.53826
USER: genes 2 Torsion [C]-N--CA-[CB] |==|  0.86612
USER: genes 3 Torsion [N]-CA--CB-[CG] |==|  0.74765
USER: genes 4 Torsion [CA]-CB--CG-[OD2] |==|  0.21748
USER: genes 5 Torsion [N]-CA--C-[N] |==|  0.39318
USER: genes 6 Torsion [C]-N--CA-[C] |==|  0.68055
USER: genes 7 Torsion [N]-CA--C-[N] |==|  0.05507
USER: genes 8 Torsion [C]-N--CA-[CB] |==|  0.44014
USER: genes 9 Torsion [N]-CA--C-[OXT] |==|  0.85925
USER: genes 10 Torsion [N]-CA--CB-[CG] |==|  0.89171
USER: genes 11 Torsion [CA]-CB--CG-[CD2] |==|  0.77608
USER: genes 12 Torsion [N]-C--CA-[N] |==|  0.89762
USER: genes 13 Torsion [C]-CA--CB-[CG] |==|  0.10192
USER: genes 14 Torsion [CA]-CB--CG-[CD2] |==|  0.70279
USER: genes 15 Torsion [C]-CA--N-[C] |==|  0.74449
USER: genes 16 Torsion [N]-C--CA-[N] |==|  0.40242
USER: genes 17 Torsion [C]-CA--CB-[CG] |==|  0.23983
USER: genes 18 Torsion [CA]-CB--CG-[CD] |==|  0.15173
USER: genes 19 Torsion [CB]-CG--CD-[OE1] |==|  0.81259
USER: genes 20 Torsion [C]-CA--N-[C] |==|  0.62260
ROOT
ATOM      1  C   LEU E   1       1.249  -7.187 -13.449  1.00 28.67 LIG 0.24  C 
ATOM      2 O    LEU E   1       1.232  -8.238 -12.801  1.00 26.53 LIG-0.27  OA
ATOM      3  N   ASP E   2       0.330  -6.235 -13.321  1.00 29.47 LIG-0.35  N 
ATOM      4 H    ASP E   2       0.381  -5.462 -13.694  1.00 29.47 LIG 0.16  HD
ENDROOT
BRANCH 3 5
ATOM      5  CA  ASP E   2      -0.861  -6.438 -12.516  1.00 30.54 LIG 0.19  C 
BRANCH 5 6
ATOM      6  CB  ASP E   2      -1.538  -7.773 -12.843  1.00 32.40 LIG 0.15  C 
BRANCH 6 7
ATOM      7  CG  ASP E   2      -2.579  -7.645 -13.933  1.00 34.09 LIG 0.17  C 
ATOM      8 OD2  ASP E   2      -2.191  -7.577 -15.116  1.00 37.71 LIG-0.65  OA
ATOM      9 OD1  ASP E   2      -3.788  -7.621 -13.612  1.00 36.77 LIG-0.65  OA
ENDBRANCH 6 7
ENDBRANCH 5 6
BRANCH 5 10
ATOM     10  C   ASP E   2      -0.439  -6.414 -11.068  1.00 30.01 LIG 0.24  C 
ATOM     11 O    ASP E   2       0.626  -6.921 -10.714  1.00 27.94 LIG-0.27  OA
ATOM     12  N   LEU E   3      -1.281  -5.811 -10.238  1.00 30.14 LIG-0.35  N 
ATOM     13 H    LEU E   3      -2.017  -5.445 -10.490  1.00 30.14 LIG 0.16  HD
BRANCH 12 14
ATOM     14  CA  LEU E   3      -1.029  -5.715  -8.812  1.00 30.90 LIG 0.18  C 
BRANCH 14 15
ATOM     15  C   LEU E   3      -2.088  -6.509  -8.046  1.00 32.33 LIG 0.24  C 
ATOM     16 O    LEU E   3      -2.322  -6.269  -6.855  1.00 31.45 LIG-0.27  OA
ATOM     17  N   ALA E   4      -2.742  -7.429  -8.749  1.00 33.58 LIG-0.34  N 
ATOM     18 H    ALA E   4      -2.577  -7.605  -9.574  1.00 33.58 LIG 0.16  HD
BRANCH 17 19
ATOM     19  CA  ALA E   4      -3.815  -8.232  -8.167  1.00 35.71 LIG 0.18  C 
ATOM     20  CB  ALA E   4      -4.711  -8.788  -9.263  1.00 36.03 LIG 0.04  C 
BRANCH 19 21
ATOM     21  C   ALA E   4      -3.241  -9.369  -7.334  1.00 37.05 LIG 0.20  C 
ATOM     22 OXT  ALA E   4      -2.381 -10.113  -7.798  1.00 36.72 LIG-0.65  OA
ATOM     23 O    ALA E   4      -3.621  -9.567  -6.178  1.00 37.61 LIG-0.65  OA
ENDBRANCH 19 21
ENDBRANCH 17 19
ENDBRANCH 14 15
BRANCH 14 24
ATOM     24  CB  LEU E   3      -1.039  -4.245  -8.391  1.00 30.03 LIG 0.04  C 
BRANCH 24 25
ATOM     25  CG  LEU E   3      -0.415  -3.196  -9.307  1.00 29.85 LIG-0.02  C 
ATOM     26  CD1 LEU E   3      -0.988  -1.811  -9.062  1.00 29.46 LIG 0.01  C 
ATOM     27  CD2 LEU E   3       1.090  -3.212  -9.099  1.00 29.65 LIG 0.01  C 
ENDBRANCH 24 25
ENDBRANCH 14 24
ENDBRANCH 12 14
ENDBRANCH 5 10
ENDBRANCH 3 5
BRANCH 1 28
ATOM     28  CA  LEU E   1       2.359  -6.905 -14.446  1.00 29.46 LIG 0.18  C 
BRANCH 28 29
ATOM     29  CB  LEU E   1       3.486  -6.111 -13.784  1.00 29.35 LIG 0.04  C 
BRANCH 29 30
ATOM     30  CG  LEU E   1       3.772  -6.493 -12.324  1.00 30.22 LIG-0.02  C 
ATOM     31  CD2 LEU E   1       3.276  -5.417 -11.367  1.00 31.32 LIG 0.01  C 
ATOM     32  CD1 LEU E   1       5.249  -6.767 -12.110  1.00 30.06 LIG 0.01  C 
ENDBRANCH 29 30
ENDBRANCH 28 29
BRANCH 28 33
ATOM     33  N   LEU E   1       1.806  -6.191 -15.594  1.00 28.73 LIG-0.35  N 
ATOM     34  C   GLN E   0       1.373  -6.853 -16.661  1.00 28.95 LIG 0.24  C 
ATOM     35 O    GLN E   0       1.518  -8.065 -16.800  1.00 30.73 LIG-0.27  OA
ATOM     36 H    LEU E   1       1.790  -5.335 -15.513  1.00 28.73 LIG 0.16  HD
BRANCH 34 37
ATOM     37  CA  GLN E   0       0.679  -6.041 -17.743  1.00 28.12 LIG 0.18  C 
BRANCH 37 38
ATOM     38  CB  GLN E   0      -0.836  -6.072 -17.503  1.00 27.70 LIG 0.04  C 
BRANCH 38 39
ATOM     39  CG  GLN E   0      -1.359  -5.003 -16.546  1.00 26.51 LIG 0.10  C 
BRANCH 39 40
ATOM     40  CD  GLN E   0      -0.958  -3.602 -16.966  1.00 26.51 LIG 0.21  C 
ATOM     41 OE1  GLN E   0       0.227  -3.251 -16.929  1.00 26.66 LIG-0.27  OA
ATOM     42  NE2 GLN E   0      -1.936  -2.792 -17.371  1.00 24.64 LIG-0.37  N 
ATOM     43 22HE GLN E   0      -1.753  -1.989 -17.620  1.00 24.64 LIG 0.16  HD
ATOM     44 21HE GLN E   0      -2.749  -3.072 -17.383  1.00 24.64 LIG 0.16  HD
ENDBRANCH 39 40
ENDBRANCH 38 39
ENDBRANCH 37 38
BRANCH 37 45
ATOM     45  N   GLN E   0       1.010  -6.611 -19.098  1.00 28.94 LIG-0.35  N 
ATOM     46  C   ACE E  -1       1.342  -5.839 -20.161  1.00 29.25 LIG 0.21  C 
ATOM     47 O    ACE E  -1       1.947  -4.792 -19.913  1.00 28.69 LIG-0.27  OA
ATOM     48  CH3 ACE E  -1       1.917  -6.672 -21.294  1.00 29.73 LIG 0.12  C 
ATOM     49 H    GLN E   0       0.968  -7.469 -19.133  1.00 28.94 LIG 0.16  HD
ENDBRANCH 37 45
ENDBRANCH 34 37
ENDBRANCH 28 33
ENDBRANCH 1 28
TORSDOF 19
ENDMDL
MODEL 86
USER: ADFR SOLUTION from run 34
USER: SCORE 13.873477 LL:  -4.329 LR: -11.140 RR:   0.000 FEB:  -5.472
USER: RMSD 8.630926
USER: SEED 33
USER: STATUS no improvement in best in 8 clusters for 5 generations
USER: GENES 21
USER: genes 0 Translation |==|  0.30967 0.43786 0.46358
USER: genes 1 Rotation |==|  0.61593 0.10719 0.70467 0.70093
USER: genes 2 Torsion [C]-N--CA-[CB] |==|  0.19671
USER: genes 3 Torsion [N]-CA--CB-[CG] |==|  0.41312
USER: genes 4 Torsion [CA]-CB--CG-[OD2] |==|  0.69797
USER: genes 5 Torsion [N]-CA--C-[N] |==|  0.39232
USER: genes 6 Torsion [C]-N--CA-[C] |==|  0.15825
USER: genes 7 Torsion [N]-CA--C-[N] |==|  0.07802
USER: genes 8 Torsion [C]-N--CA-[CB] |==|  0.28745
USER: genes 9 Torsion [N]-CA--C-[OXT] |==|  0.86203
USER: genes 10 Torsion [N]-CA--CB-[CG] |==|  0.56439
USER: genes 11 Torsion [CA]-CB--CG-[CD2] |==|  0.38559
USER: genes 12 Torsion [N]-C--CA-[N] |==|  0.15772
USER: genes 13 Torsion [C]-CA--CB-[CG] |==|  0.38083
USER: genes 14 Torsion [CA]-CB--CG-[CD2] |==|  0.09474
USER: genes 15 Torsion [C]-CA--N-[C] |==|  0.75393
USER: genes 16 Torsion [N]-C--CA-[N] |==|  0.87242
USER: genes 17 Torsion [C]-CA--CB-[CG] |==|  0.14942
USER: genes 18 Torsion [CA]-CB--CG-[CD] |==|  0.18711
USER: genes 19 Torsion [CB]-CG--CD-[OE1] |==|  0.78297
USER: genes 20 Torsion [C]-CA--N-[C] |==|  0.81405
ROOT
ATOM      1  C   LEU E   1      -1.521  -6.910 -13.825  1.00 28.67 LIG 0.24  C 
ATOM      2 O    LEU E   1      -2.488  -7.293 -14.491  1.00 26.53 LIG-0.27  OA
ATOM      3  N   ASP E   2      -1.428  -7.079 -12.509  1.00 29.47 LIG-0.35  N 
ATOM      4 H    ASP E   2      -0.723  -6.903 -12.049  1.00 29.47 LIG 0.16  HD
ENDROOT
BRANCH 3 5
ATOM      5  CA  ASP E   2      -2.544  -7.586 -11.732  1.00 30.54 LIG 0.19  C 
BRANCH 5 6
ATOM      6  CB  ASP E   2      -2.795  -9.071 -12.013  1.00 32.40 LIG 0.15  C 
BRANCH 6 7
ATOM      7  CG  ASP E   2      -3.345  -9.806 -10.811  1.00 34.09 LIG 0.17  C 
ATOM      8 OD2  ASP E   2      -2.601 -10.613 -10.220  1.00 37.71 LIG-0.65  OA
ATOM      9 OD1  ASP E   2      -4.519  -9.572 -10.447  1.00 36.77 LIG-0.65  OA
ENDBRANCH 6 7
ENDBRANCH 5 6
BRANCH 5 10
ATOM     10  C   ASP E   2      -2.210  -7.385 -10.274  1.00 30.01 LIG 0.24  C 
ATOM     11 O    ASP E   2      -1.062  -7.555  -9.863  1.00 27.94 LIG-0.27  OA
ATOM     12  N   LEU E   3      -3.222  -7.013  -9.502  1.00 30.14 LIG-0.35  N 
ATOM     13 H    LEU E   3      -4.020  -6.881  -9.794  1.00 30.14 LIG 0.16  HD
BRANCH 12 14
ATOM     14  CA  LEU E   3      -3.071  -6.793  -8.075  1.00 30.90 LIG 0.18  C 
BRANCH 14 15
ATOM     15  C   LEU E   3      -1.989  -5.742  -7.827  1.00 32.33 LIG 0.24  C 
ATOM     16 O    LEU E   3      -1.309  -5.764  -6.794  1.00 31.45 LIG-0.27  OA
ATOM     17  N   ALA E   4      -1.818  -4.847  -8.796  1.00 33.58 LIG-0.34  N 
ATOM     18 H    ALA E   4      -2.294  -4.823  -9.512  1.00 33.58 LIG 0.16  HD
BRANCH 17 19
ATOM     19  CA  ALA E   4      -0.790  -3.811  -8.724  1.00 35.71 LIG 0.18  C 
ATOM     20  CB  ALA E   4       0.384  -4.170  -9.621  1.00 36.03 LIG 0.04  C 
BRANCH 19 21
ATOM     21  C   ALA E   4      -1.363  -2.460  -9.127  1.00 37.05 LIG 0.20  C 
ATOM     22 OXT  ALA E   4      -2.011  -2.339 -10.164  1.00 36.72 LIG-0.65  OA
ATOM     23 O    ALA E   4      -1.194  -1.461  -8.424  1.00 37.61 LIG-0.65  OA
ENDBRANCH 19 21
ENDBRANCH 17 19
ENDBRANCH 14 15
BRANCH 14 24
ATOM     24  CB  LEU E   3      -2.715  -8.115  -7.392  1.00 30.03 LIG 0.04  C 
BRANCH 24 25
ATOM     25  CG  LEU E   3      -3.012  -8.299  -5.907  1.00 29.85 LIG-0.02  C 
ATOM     26  CD1 LEU E   3      -3.980  -7.252  -5.385  1.00 29.46 LIG 0.01  C 
ATOM     27  CD2 LEU E   3      -3.555  -9.702  -5.698  1.00 29.65 LIG 0.01  C 
ENDBRANCH 24 25
ENDBRANCH 14 24
ENDBRANCH 12 14
ENDBRANCH 5 10
ENDBRANCH 3 5
BRANCH 1 28
ATOM     28  CA  LEU E   1      -0.342  -6.222 -14.489  1.00 29.46 LIG 0.18  C 
BRANCH 28 29
ATOM     29  CB  LEU E   1      -0.573  -6.097 -15.995  1.00 29.35 LIG 0.04  C 
BRANCH 29 30
ATOM     30  CG  LEU E   1      -0.183  -4.739 -16.598  1.00 30.22 LIG-0.02  C 
ATOM     31  CD2 LEU E   1       1.026  -4.149 -15.887  1.00 31.32 LIG 0.01  C 
ATOM     32  CD1 LEU E   1      -1.353  -3.772 -16.568  1.00 30.06 LIG 0.01  C 
ENDBRANCH 29 30
ENDBRANCH 28 29
BRANCH 28 33
ATOM     33  N   LEU E   1       0.879  -6.967 -14.196  1.00 28.73 LIG-0.35  N 
ATOM     34  C   GLN E   0       1.592  -6.702 -13.107  1.00 28.95 LIG 0.24  C 
ATOM     35 O    GLN E   0       1.346  -5.757 -12.361  1.00 30.73 LIG-0.27  OA
ATOM     36 H    LEU E   1       1.082  -7.569 -14.775  1.00 28.73 LIG 0.16  HD
BRANCH 34 37
ATOM     37  CA  GLN E   0       2.763  -7.623 -12.805  1.00 28.12 LIG 0.18  C 
BRANCH 37 38
ATOM     38  CB  GLN E   0       3.919  -7.298 -13.759  1.00 27.70 LIG 0.04  C 
BRANCH 38 39
ATOM     39  CG  GLN E   0       4.349  -5.832 -13.777  1.00 26.51 LIG 0.10  C 
BRANCH 39 40
ATOM     40  CD  GLN E   0       4.984  -5.398 -12.469  1.00 26.51 LIG 0.21  C 
ATOM     41 OE1  GLN E   0       4.280  -5.140 -11.486  1.00 26.66 LIG-0.27  OA
ATOM     42  NE2 GLN E   0       6.313  -5.315 -12.443  1.00 24.64 LIG-0.37  N 
ATOM     43 22HE GLN E   0       6.715  -5.075 -11.722  1.00 24.64 LIG 0.16  HD
ATOM     44 21HE GLN E   0       6.769  -5.502 -13.148  1.00 24.64 LIG 0.16  HD
ENDBRANCH 39 40
ENDBRANCH 38 39
ENDBRANCH 37 38
BRANCH 37 45
ATOM     45  N   GLN E   0       2.336  -9.058 -12.963  1.00 28.94 LIG-0.35  N 
ATOM     46  C   ACE E  -1       1.435  -9.654 -12.144  1.00 29.25 LIG 0.21  C 
ATOM     47 O    ACE E  -1       0.547  -8.931 -11.685  1.00 28.69 LIG-0.27  OA
ATOM     48  CH3 ACE E  -1       0.966 -10.985 -12.710  1.00 29.73 LIG 0.12  C 
ATOM     49 H    GLN E   0       2.716  -9.463 -13.620  1.00 28.94 LIG 0.16  HD
ENDBRANCH 37 45
ENDBRANCH 34 37
ENDBRANCH 28 33
ENDBRANCH 1 28
TORSDOF 19
ENDMDL
MODEL 87
USER: ADFR SOLUTION from run 33
USER: SCORE 13.683586 LL:  -4.182 LR: -11.136 RR:   0.000 FEB:  -5.468
USER: RMSD 6.077130
USER: SEED 32
USER: STATUS no improvement in best in 15 clusters for 5 generations
USER: GENES 21
USER: genes 0 Translation |==|  0.38312 0.43468 0.52460
USER: genes 1 Rotation |==|  0.93848 0.62275 0.36490 0.65625
USER: genes 2 Torsion [C]-N--CA-[CB] |==|  0.46383
USER: genes 3 Torsion [N]-CA--CB-[CG] |==|  0.79986
USER: genes 4 Torsion [CA]-CB--CG-[OD2] |==|  0.99194
USER: genes 5 Torsion [N]-CA--C-[N] |==|  0.88969
USER: genes 6 Torsion [C]-N--CA-[C] |==|  0.78148
USER: genes 7 Torsion [N]-CA--C-[N] |==|  0.48887
USER: genes 8 Torsion [C]-N--CA-[CB] |==|  0.23565
USER: genes 9 Torsion [N]-CA--C-[OXT] |==|  0.34184
USER: genes 10 Torsion [N]-CA--CB-[CG] |==|  0.68588
USER: genes 11 Torsion [CA]-CB--CG-[CD2] |==|  0.86779
USER: genes 12 Torsion [N]-C--CA-[N] |==|  0.45000
USER: genes 13 Torsion [C]-CA--CB-[CG] |==|  0.27222
USER: genes 14 Torsion [CA]-CB--CG-[CD2] |==|  0.62042
USER: genes 15 Torsion [C]-CA--N-[C] |==|  0.56611
USER: genes 16 Torsion [N]-C--CA-[N] |==|  0.42165
USER: genes 17 Torsion [C]-CA--CB-[CG] |==|  0.16982
USER: genes 18 Torsion [CA]-CB--CG-[CD] |==|  0.70170
USER: genes 19 Torsion [CB]-CG--CD-[OE1] |==|  0.36098
USER: genes 20 Torsion [C]-CA--N-[C] |==|  0.80428
ROOT
ATOM      1  C   LEU E   1       0.132  -6.968 -12.818  1.00 28.67 LIG 0.24  C 
ATOM      2 O    LEU E   1       0.291  -8.146 -13.153  1.00 26.53 LIG-0.27  OA
ATOM      3  N   ASP E   2       0.548  -5.939 -13.551  1.00 29.47 LIG-0.35  N 
ATOM      4 H    ASP E   2       0.363  -5.118 -13.377  1.00 29.47 LIG 0.16  HD
ENDROOT
BRANCH 3 5
ATOM      5  CA  ASP E   2       1.370  -6.135 -14.732  1.00 30.54 LIG 0.19  C 
BRANCH 5 6
ATOM      6  CB  ASP E   2       1.452  -4.859 -15.576  1.00 32.40 LIG 0.15  C 
BRANCH 6 7
ATOM      7  CG  ASP E   2       0.157  -4.555 -16.297  1.00 34.09 LIG 0.17  C 
ATOM      8 OD2  ASP E   2      -0.785  -5.362 -16.185  1.00 37.71 LIG-0.65  OA
ATOM      9 OD1  ASP E   2       0.075  -3.504 -16.970  1.00 36.77 LIG-0.65  OA
ENDBRANCH 6 7
ENDBRANCH 5 6
BRANCH 5 10
ATOM     10  C   ASP E   2       2.747  -6.535 -14.264  1.00 30.01 LIG 0.24  C 
ATOM     11 O    ASP E   2       3.391  -7.395 -14.867  1.00 27.94 LIG-0.27  OA
ATOM     12  N   LEU E   3       3.193  -5.897 -13.190  1.00 30.14 LIG-0.35  N 
ATOM     13 H    LEU E   3       2.748  -5.287 -12.780  1.00 30.14 LIG 0.16  HD
BRANCH 12 14
ATOM     14  CA  LEU E   3       4.492  -6.176 -12.605  1.00 30.90 LIG 0.18  C 
BRANCH 14 15
ATOM     15  C   LEU E   3       4.418  -7.454 -11.769  1.00 32.33 LIG 0.24  C 
ATOM     16 O    LEU E   3       3.350  -8.061 -11.632  1.00 31.45 LIG-0.27  OA
ATOM     17  N   ALA E   4       5.567  -7.868 -11.243  1.00 33.58 LIG-0.34  N 
ATOM     18 H    ALA E   4       6.312  -7.446 -11.329  1.00 33.58 LIG 0.16  HD
BRANCH 17 19
ATOM     19  CA  ALA E   4       5.665  -9.099 -10.462  1.00 35.71 LIG 0.18  C 
ATOM     20  CB  ALA E   4       5.853 -10.295 -11.381  1.00 36.03 LIG 0.04  C 
BRANCH 19 21
ATOM     21  C   ALA E   4       6.816  -9.014  -9.471  1.00 37.05 LIG 0.20  C 
ATOM     22 OXT  ALA E   4       6.620  -9.167  -8.267  1.00 36.72 LIG-0.65  OA
ATOM     23 O    ALA E   4       7.968  -8.792  -9.850  1.00 37.61 LIG-0.65  OA
ENDBRANCH 19 21
ENDBRANCH 17 19
ENDBRANCH 14 15
BRANCH 14 24
ATOM     24  CB  LEU E   3       4.930  -4.988 -11.749  1.00 30.03 LIG 0.04  C 
BRANCH 24 25
ATOM     25  CG  LEU E   3       6.131  -4.151 -12.178  1.00 29.85 LIG-0.02  C 
ATOM     26  CD1 LEU E   3       6.554  -3.166 -11.104  1.00 29.46 LIG 0.01  C 
ATOM     27  CD2 LEU E   3       7.268  -5.094 -12.538  1.00 29.65 LIG 0.01  C 
ENDBRANCH 24 25
ENDBRANCH 14 24
ENDBRANCH 12 14
ENDBRANCH 5 10
ENDBRANCH 3 5
BRANCH 1 28
ATOM     28  CA  LEU E   1      -0.579  -6.615 -11.524  1.00 29.46 LIG 0.18  C 
BRANCH 28 29
ATOM     29  CB  LEU E   1       0.426  -6.143 -10.472  1.00 29.35 LIG 0.04  C 
BRANCH 29 30
ATOM     30  CG  LEU E   1       0.554  -4.618 -10.340  1.00 30.22 LIG-0.02  C 
ATOM     31  CD2 LEU E   1       2.012  -4.196 -10.224  1.00 31.32 LIG 0.01  C 
ATOM     32  CD1 LEU E   1      -0.253  -4.103  -9.162  1.00 30.06 LIG 0.01  C 
ENDBRANCH 29 30
ENDBRANCH 28 29
BRANCH 28 33
ATOM     33  N   LEU E   1      -1.335  -7.774 -11.058  1.00 28.73 LIG-0.35  N 
ATOM     34  C   GLN E   0      -2.382  -7.624 -10.255  1.00 28.95 LIG 0.24  C 
ATOM     35 O    GLN E   0      -2.699  -6.542  -9.766  1.00 30.73 LIG-0.27  OA
ATOM     36 H    LEU E   1      -1.046  -8.532 -11.344  1.00 28.73 LIG 0.16  HD
BRANCH 34 37
ATOM     37  CA  GLN E   0      -3.197  -8.868  -9.941  1.00 28.12 LIG 0.18  C 
BRANCH 37 38
ATOM     38  CB  GLN E   0      -4.262  -9.060 -11.028  1.00 27.70 LIG 0.04  C 
BRANCH 38 39
ATOM     39  CG  GLN E   0      -3.715  -9.263 -12.439  1.00 26.51 LIG 0.10  C 
BRANCH 39 40
ATOM     40  CD  GLN E   0      -3.930  -8.050 -13.325  1.00 26.51 LIG 0.21  C 
ATOM     41 OE1  GLN E   0      -2.992  -7.573 -13.974  1.00 26.66 LIG-0.27  OA
ATOM     42  NE2 GLN E   0      -5.162  -7.544 -13.364  1.00 24.64 LIG-0.37  N 
ATOM     43 22HE GLN E   0      -5.329  -6.858 -13.855  1.00 24.64 LIG 0.16  HD
ATOM     44 21HE GLN E   0      -5.789  -7.903 -12.899  1.00 24.64 LIG 0.16  HD
ENDBRANCH 39 40
ENDBRANCH 38 39
ENDBRANCH 37 38
BRANCH 37 45
ATOM     45  N   GLN E   0      -3.844  -8.725  -8.588  1.00 28.94 LIG-0.35  N 
ATOM     46  C   ACE E  -1      -3.143  -8.759  -7.429  1.00 29.25 LIG 0.21  C 
ATOM     47 O    ACE E  -1      -1.994  -8.310  -7.468  1.00 28.69 LIG-0.27  OA
ATOM     48  CH3 ACE E  -1      -3.988  -8.288  -6.256  1.00 29.73 LIG 0.12  C 
ATOM     49 H    GLN E   0      -4.697  -8.621  -8.621  1.00 28.94 LIG 0.16  HD
ENDBRANCH 37 45
ENDBRANCH 34 37
ENDBRANCH 28 33
ENDBRANCH 1 28
TORSDOF 19
ENDMDL
MODEL 88
USER: ADFR SOLUTION from run 142
USER: SCORE 14.220542 LL:  -4.168 LR: -11.136 RR:   0.000 FEB:  -5.468
USER: RMSD 4.690735
USER: SEED 141
USER: STATUS no improvement in best in 17 clusters for 5 generations
USER: GENES 21
USER: genes 0 Translation |==|  0.50442 0.52143 0.61228
USER: genes 1 Rotation |==|  0.38697 0.66474 0.33560 0.92785
USER: genes 2 Torsion [C]-N--CA-[CB] |==|  0.53333
USER: genes 3 Torsion [N]-CA--CB-[CG] |==|  0.88264
USER: genes 4 Torsion [CA]-CB--CG-[OD2] |==|  0.65230
USER: genes 5 Torsion [N]-CA--C-[N] |==|  0.28607
USER: genes 6 Torsion [C]-N--CA-[C] |==|  0.66645
USER: genes 7 Torsion [N]-CA--C-[N] |==|  0.93948
USER: genes 8 Torsion [C]-N--CA-[CB] |==|  0.25326
USER: genes 9 Torsion [N]-CA--C-[OXT] |==|  0.95153
USER: genes 10 Torsion [N]-CA--CB-[CG] |==|  0.19696
USER: genes 11 Torsion [CA]-CB--CG-[CD2] |==|  0.56055
USER: genes 12 Torsion [N]-C--CA-[N] |==|  0.90868
USER: genes 13 Torsion [C]-CA--CB-[CG] |==|  0.55142
USER: genes 14 Torsion [CA]-CB--CG-[CD2] |==|  0.69309
USER: genes 15 Torsion [C]-CA--N-[C] |==|  0.85361
USER: genes 16 Torsion [N]-C--CA-[N] |==|  0.45640
USER: genes 17 Torsion [C]-CA--CB-[CG] |==|  0.32555
USER: genes 18 Torsion [CA]-CB--CG-[CD] |==|  0.96234
USER: genes 19 Torsion [CB]-CG--CD-[OE1] |==|  0.23839
USER: genes 20 Torsion [C]-CA--N-[C] |==|  0.77664
ROOT
ATOM      1  C   LEU E   1       2.861  -5.406 -11.371  1.00 28.67 LIG 0.24  C 
ATOM      2 O    LEU E   1       3.879  -4.734 -11.177  1.00 26.53 LIG-0.27  OA
ATOM      3  N   ASP E   2       2.883  -6.719 -11.582  1.00 29.47 LIG-0.35  N 
ATOM      4 H    ASP E   2       2.180  -7.212 -11.624  1.00 29.47 LIG 0.16  HD
ENDROOT
BRANCH 3 5
ATOM      5  CA  ASP E   2       4.133  -7.436 -11.759  1.00 30.54 LIG 0.19  C 
BRANCH 5 6
ATOM      6  CB  ASP E   2       3.896  -8.859 -12.274  1.00 32.40 LIG 0.15  C 
BRANCH 6 7
ATOM      7  CG  ASP E   2       2.734  -9.540 -11.587  1.00 34.09 LIG 0.17  C 
ATOM      8 OD2  ASP E   2       2.934 -10.643 -11.042  1.00 37.71 LIG-0.65  OA
ATOM      9 OD1  ASP E   2       1.620  -8.971 -11.581  1.00 36.77 LIG-0.65  OA
ENDBRANCH 6 7
ENDBRANCH 5 6
BRANCH 5 10
ATOM     10  C   ASP E   2       4.964  -6.659 -12.750  1.00 30.01 LIG 0.24  C 
ATOM     11 O    ASP E   2       4.714  -6.706 -13.955  1.00 27.94 LIG-0.27  OA
ATOM     12  N   LEU E   3       5.948  -5.938 -12.229  1.00 30.14 LIG-0.35  N 
ATOM     13 H    LEU E   3       6.113  -5.895 -11.386  1.00 30.14 LIG 0.16  HD
BRANCH 12 14
ATOM     14  CA  LEU E   3       6.848  -5.146 -13.048  1.00 30.90 LIG 0.18  C 
BRANCH 14 15
ATOM     15  C   LEU E   3       8.286  -5.625 -12.848  1.00 32.33 LIG 0.24  C 
ATOM     16 O    LEU E   3       9.161  -5.373 -13.685  1.00 31.45 LIG-0.27  OA
ATOM     17  N   ALA E   4       8.523  -6.286 -11.719  1.00 33.58 LIG-0.34  N 
ATOM     18 H    ALA E   4       7.917  -6.471 -11.137  1.00 33.58 LIG 0.16  HD
BRANCH 17 19
ATOM     19  CA  ALA E   4       9.858  -6.763 -11.364  1.00 35.71 LIG 0.18  C 
ATOM     20  CB  ALA E   4      10.592  -5.715 -10.544  1.00 36.03 LIG 0.04  C 
BRANCH 19 21
ATOM     21  C   ALA E   4       9.770  -8.069 -10.587  1.00 37.05 LIG 0.20  C 
ATOM     22 OXT  ALA E   4       8.714  -8.417 -10.064  1.00 36.72 LIG-0.65  OA
ATOM     23 O    ALA E   4      10.750  -8.806 -10.466  1.00 37.61 LIG-0.65  OA
ENDBRANCH 19 21
ENDBRANCH 17 19
ENDBRANCH 14 15
BRANCH 14 24
ATOM     24  CB  LEU E   3       6.707  -3.669 -12.676  1.00 30.03 LIG 0.04  C 
BRANCH 24 25
ATOM     25  CG  LEU E   3       7.239  -3.177 -11.334  1.00 29.85 LIG-0.02  C 
ATOM     26  CD1 LEU E   3       8.745  -2.985 -11.352  1.00 29.46 LIG 0.01  C 
ATOM     27  CD2 LEU E   3       6.525  -1.883 -10.980  1.00 29.65 LIG 0.01  C 
ENDBRANCH 24 25
ENDBRANCH 14 24
ENDBRANCH 12 14
ENDBRANCH 5 10
ENDBRANCH 3 5
BRANCH 1 28
ATOM     28  CA  LEU E   1       1.488  -4.759 -11.366  1.00 29.46 LIG 0.18  C 
BRANCH 28 29
ATOM     29  CB  LEU E   1       0.903  -4.755  -9.954  1.00 29.35 LIG 0.04  C 
BRANCH 29 30
ATOM     30  CG  LEU E   1      -0.618  -4.547  -9.886  1.00 30.22 LIG-0.02  C 
ATOM     31  CD2 LEU E   1      -0.961  -3.188  -9.293  1.00 31.32 LIG 0.01  C 
ATOM     32  CD1 LEU E   1      -1.287  -5.662  -9.103  1.00 30.06 LIG 0.01  C 
ENDBRANCH 29 30
ENDBRANCH 28 29
BRANCH 28 33
ATOM     33  N   LEU E   1       0.619  -5.466 -12.303  1.00 28.73 LIG-0.35  N 
ATOM     34  C   GLN E   0       0.995  -5.664 -13.562  1.00 28.95 LIG 0.24  C 
ATOM     35 O    GLN E   0       2.015  -5.173 -14.039  1.00 30.73 LIG-0.27  OA
ATOM     36 H    LEU E   1      -0.130  -5.729 -11.972  1.00 28.73 LIG 0.16  HD
BRANCH 34 37
ATOM     37  CA  GLN E   0       0.096  -6.535 -14.423  1.00 28.12 LIG 0.18  C 
BRANCH 37 38
ATOM     38  CB  GLN E   0       0.275  -8.003 -14.015  1.00 27.70 LIG 0.04  C 
BRANCH 38 39
ATOM     39  CG  GLN E   0      -0.977  -8.675 -13.456  1.00 26.51 LIG 0.10  C 
BRANCH 39 40
ATOM     40  CD  GLN E   0      -2.066  -7.677 -13.109  1.00 26.51 LIG 0.21  C 
ATOM     41 OE1  GLN E   0      -2.862  -7.292 -13.972  1.00 26.66 LIG-0.27  OA
ATOM     42  NE2 GLN E   0      -2.112  -7.253 -11.847  1.00 24.64 LIG-0.37  N 
ATOM     43 22HE GLN E   0      -2.715  -6.689 -11.605  1.00 24.64 LIG 0.16  HD
ATOM     44 21HE GLN E   0      -1.540  -7.543 -11.274  1.00 24.64 LIG 0.16  HD
ENDBRANCH 39 40
ENDBRANCH 38 39
ENDBRANCH 37 38
BRANCH 37 45
ATOM     45  N   GLN E   0       0.444  -6.346 -15.876  1.00 28.94 LIG-0.35  N 
ATOM     46  C   ACE E  -1       0.005  -5.293 -16.608  1.00 29.25 LIG 0.21  C 
ATOM     47 O    ACE E  -1      -0.149  -4.228 -16.003  1.00 28.69 LIG-0.27  OA
ATOM     48  CH3 ACE E  -1       0.745  -5.189 -17.932  1.00 29.73 LIG 0.12  C 
ATOM     49 H    GLN E   0       0.945  -6.966 -16.197  1.00 28.94 LIG 0.16  HD
ENDBRANCH 37 45
ENDBRANCH 34 37
ENDBRANCH 28 33
ENDBRANCH 1 28
TORSDOF 19
ENDMDL
MODEL 89
USER: ADFR SOLUTION from run 34
USER: SCORE 13.409787 LL:  -3.908 LR: -11.132 RR:   0.000 FEB:  -5.464
USER: RMSD 8.671182
USER: SEED 33
USER: STATUS no improvement in best in 8 clusters for 5 generations
USER: GENES 21
USER: genes 0 Translation |==|  0.31144 0.43819 0.44893
USER: genes 1 Rotation |==|  0.63609 0.12403 0.70650 0.71791
USER: genes 2 Torsion [C]-N--CA-[CB] |==|  0.19469
USER: genes 3 Torsion [N]-CA--CB-[CG] |==|  0.46379
USER: genes 4 Torsion [CA]-CB--CG-[OD2] |==|  0.66576
USER: genes 5 Torsion [N]-CA--C-[N] |==|  0.41229
USER: genes 6 Torsion [C]-N--CA-[C] |==|  0.14190
USER: genes 7 Torsion [N]-CA--C-[N] |==|  0.13203
USER: genes 8 Torsion [C]-N--CA-[CB] |==|  0.20799
USER: genes 9 Torsion [N]-CA--C-[OXT] |==|  0.88256
USER: genes 10 Torsion [N]-CA--CB-[CG] |==|  0.63738
USER: genes 11 Torsion [CA]-CB--CG-[CD2] |==|  0.35598
USER: genes 12 Torsion [N]-C--CA-[N] |==|  0.20840
USER: genes 13 Torsion [C]-CA--CB-[CG] |==|  0.43309
USER: genes 14 Torsion [CA]-CB--CG-[CD2] |==|  0.99436
USER: genes 15 Torsion [C]-CA--N-[C] |==|  0.69629
USER: genes 16 Torsion [N]-C--CA-[N] |==|  0.37059
USER: genes 17 Torsion [C]-CA--CB-[CG] |==|  0.87690
USER: genes 18 Torsion [CA]-CB--CG-[CD] |==|  0.79783
USER: genes 19 Torsion [CB]-CG--CD-[OE1] |==|  0.94306
USER: genes 20 Torsion [C]-CA--N-[C] |==|  0.78954
ROOT
ATOM      1  C   LEU E   1      -1.481  -6.905 -14.067  1.00 28.67 LIG 0.24  C 
ATOM      2 O    LEU E   1      -2.494  -7.351 -14.614  1.00 26.53 LIG-0.27  OA
ATOM      3  N   ASP E   2      -1.234  -7.042 -12.767  1.00 29.47 LIG-0.35  N 
ATOM      4 H    ASP E   2      -0.493  -6.820 -12.392  1.00 29.47 LIG 0.16  HD
ENDROOT
BRANCH 3 5
ATOM      5  CA  ASP E   2      -2.227  -7.592 -11.863  1.00 30.54 LIG 0.19  C 
BRANCH 5 6
ATOM      6  CB  ASP E   2      -2.439  -9.090 -12.106  1.00 32.40 LIG 0.15  C 
BRANCH 6 7
ATOM      7  CG  ASP E   2      -3.219  -9.755 -10.994  1.00 34.09 LIG 0.17  C 
ATOM      8 OD2  ASP E   2      -2.678 -10.689 -10.370  1.00 37.71 LIG-0.65  OA
ATOM      9 OD1  ASP E   2      -4.370  -9.342 -10.735  1.00 36.77 LIG-0.65  OA
ENDBRANCH 6 7
ENDBRANCH 5 6
BRANCH 5 10
ATOM     10  C   ASP E   2      -1.736  -7.361 -10.455  1.00 30.01 LIG 0.24  C 
ATOM     11 O    ASP E   2      -0.530  -7.344 -10.204  1.00 27.94 LIG-0.27  OA
ATOM     12  N   LEU E   3      -2.681  -7.176  -9.544  1.00 30.14 LIG-0.35  N 
ATOM     13 H    LEU E   3      -3.522  -7.174  -9.724  1.00 30.14 LIG 0.16  HD
BRANCH 12 14
ATOM     14  CA  LEU E   3      -2.376  -6.956  -8.142  1.00 30.90 LIG 0.18  C 
BRANCH 14 15
ATOM     15  C   LEU E   3      -1.342  -5.837  -8.007  1.00 32.33 LIG 0.24  C 
ATOM     16 O    LEU E   3      -0.336  -5.985  -7.304  1.00 31.45 LIG-0.27  OA
ATOM     17  N   ALA E   4      -1.587  -4.736  -8.712  1.00 33.58 LIG-0.34  N 
ATOM     18 H    ALA E   4      -2.289  -4.626  -9.196  1.00 33.58 LIG 0.16  HD
BRANCH 17 19
ATOM     19  CA  ALA E   4      -0.666  -3.601  -8.724  1.00 35.71 LIG 0.18  C 
ATOM     20  CB  ALA E   4       0.551  -3.918  -9.577  1.00 36.03 LIG 0.04  C 
BRANCH 19 21
ATOM     21  C   ALA E   4      -1.363  -2.354  -9.248  1.00 37.05 LIG 0.20  C 
ATOM     22 OXT  ALA E   4      -2.112  -2.416 -10.220  1.00 36.72 LIG-0.65  OA
ATOM     23 O    ALA E   4      -1.196  -1.257  -8.711  1.00 37.61 LIG-0.65  OA
ENDBRANCH 19 21
ENDBRANCH 17 19
ENDBRANCH 14 15
BRANCH 14 24
ATOM     24  CB  LEU E   3      -1.856  -8.256  -7.525  1.00 30.03 LIG 0.04  C 
BRANCH 24 25
ATOM     25  CG  LEU E   3      -2.454  -8.759  -6.215  1.00 29.85 LIG-0.02  C 
ATOM     26  CD1 LEU E   3      -3.621  -7.904  -5.754  1.00 29.46 LIG 0.01  C 
ATOM     27  CD2 LEU E   3      -2.874 -10.207  -6.404  1.00 29.65 LIG 0.01  C 
ENDBRANCH 24 25
ENDBRANCH 14 24
ENDBRANCH 12 14
ENDBRANCH 5 10
ENDBRANCH 3 5
BRANCH 1 28
ATOM     28  CA  LEU E   1      -0.422  -6.167 -14.868  1.00 29.46 LIG 0.18  C 
BRANCH 28 29
ATOM     29  CB  LEU E   1      -0.997  -5.688 -16.201  1.00 29.35 LIG 0.04  C 
BRANCH 29 30
ATOM     30  CG  LEU E   1      -0.271  -4.486 -16.822  1.00 30.22 LIG-0.02  C 
ATOM     31  CD2 LEU E   1       0.857  -4.000 -15.922  1.00 31.32 LIG 0.01  C 
ATOM     32  CD1 LEU E   1      -1.242  -3.359 -17.128  1.00 30.06 LIG 0.01  C 
ENDBRANCH 29 30
ENDBRANCH 28 29
BRANCH 28 33
ATOM     33  N   LEU E   1       0.729  -7.043 -15.066  1.00 28.73 LIG-0.35  N 
ATOM     34  C   GLN E   0       1.876  -6.811 -14.438  1.00 28.95 LIG 0.24  C 
ATOM     35 O    GLN E   0       2.076  -5.803 -13.764  1.00 30.73 LIG-0.27  OA
ATOM     36 H    LEU E   1       0.595  -7.698 -15.608  1.00 28.73 LIG 0.16  HD
BRANCH 34 37
ATOM     37  CA  GLN E   0       2.971  -7.854 -14.588  1.00 28.12 LIG 0.18  C 
BRANCH 37 38
ATOM     38  CB  GLN E   0       3.081  -8.659 -13.286  1.00 27.70 LIG 0.04  C 
BRANCH 38 39
ATOM     39  CG  GLN E   0       3.047  -7.825 -12.007  1.00 26.51 LIG 0.10  C 
BRANCH 39 40
ATOM     40  CD  GLN E   0       4.330  -7.045 -11.788  1.00 26.51 LIG 0.21  C 
ATOM     41 OE1  GLN E   0       5.376  -7.387 -12.351  1.00 26.66 LIG-0.27  OA
ATOM     42  NE2 GLN E   0       4.262  -5.993 -10.974  1.00 24.64 LIG-0.37  N 
ATOM     43 22HE GLN E   0       4.965  -5.520 -10.823  1.00 24.64 LIG 0.16  HD
ATOM     44 21HE GLN E   0       3.516  -5.786 -10.599  1.00 24.64 LIG 0.16  HD
ENDBRANCH 39 40
ENDBRANCH 38 39
ENDBRANCH 37 38
BRANCH 37 45
ATOM     45  N   GLN E   0       4.279  -7.178 -14.903  1.00 28.94 LIG-0.35  N 
ATOM     46  C   ACE E  -1       4.573  -6.675 -16.126  1.00 29.25 LIG 0.21  C 
ATOM     47 O    ACE E  -1       3.625  -6.227 -16.779  1.00 28.69 LIG-0.27  OA
ATOM     48  CH3 ACE E  -1       5.809  -5.791 -16.081  1.00 29.73 LIG 0.12  C 
ATOM     49 H    GLN E   0       4.821  -7.143 -14.236  1.00 28.94 LIG 0.16  HD
ENDBRANCH 37 45
ENDBRANCH 34 37
ENDBRANCH 28 33
ENDBRANCH 1 28
TORSDOF 19
ENDMDL
MODEL 90
USER: ADFR SOLUTION from run 81
USER: SCORE 12.405484 LL:  -4.149 LR: -11.106 RR:   0.000 FEB:  -5.438
USER: RMSD 10.373337
USER: SEED 80
USER: STATUS no improvement in best in 14 clusters for 5 generations
USER: GENES 21
USER: genes 0 Translation |==|  0.68892 0.54717 0.53566
USER: genes 1 Rotation |==|  0.42855 0.89303 0.22982 0.63199
USER: genes 2 Torsion [C]-N--CA-[CB] |==|  0.31750
USER: genes 3 Torsion [N]-CA--CB-[CG] |==|  0.49117
USER: genes 4 Torsion [CA]-CB--CG-[OD2] |==|  0.08165
USER: genes 5 Torsion [N]-CA--C-[N] |==|  0.77769
USER: genes 6 Torsion [C]-N--CA-[C] |==|  0.62778
USER: genes 7 Torsion [N]-CA--C-[N] |==|  0.65158
USER: genes 8 Torsion [C]-N--CA-[CB] |==|  0.25719
USER: genes 9 Torsion [N]-CA--C-[OXT] |==|  0.15983
USER: genes 10 Torsion [N]-CA--CB-[CG] |==|  0.60789
USER: genes 11 Torsion [CA]-CB--CG-[CD2] |==|  0.11562
USER: genes 12 Torsion [N]-C--CA-[N] |==|  0.45986
USER: genes 13 Torsion [C]-CA--CB-[CG] |==|  0.41307
USER: genes 14 Torsion [CA]-CB--CG-[CD2] |==|  0.39003
USER: genes 15 Torsion [C]-CA--N-[C] |==|  0.73614
USER: genes 16 Torsion [N]-C--CA-[N] |==|  0.34904
USER: genes 17 Torsion [C]-CA--CB-[CG] |==|  0.28332
USER: genes 18 Torsion [CA]-CB--CG-[CD] |==|  0.02063
USER: genes 19 Torsion [CB]-CG--CD-[OE1] |==|  0.24459
USER: genes 20 Torsion [C]-CA--N-[C] |==|  0.61535
ROOT
ATOM      1  C   LEU E   1       7.013  -4.943 -12.636  1.00 28.67 LIG 0.24  C 
ATOM      2 O    LEU E   1       7.598  -5.419 -13.614  1.00 26.53 LIG-0.27  OA
ATOM      3  N   ASP E   2       5.919  -5.483 -12.106  1.00 29.47 LIG-0.35  N 
ATOM      4 H    ASP E   2       5.558  -5.218 -11.372  1.00 29.47 LIG 0.16  HD
ENDROOT
BRANCH 3 5
ATOM      5  CA  ASP E   2       5.237  -6.593 -12.748  1.00 30.54 LIG 0.19  C 
BRANCH 5 6
ATOM      6  CB  ASP E   2       5.313  -7.865 -11.898  1.00 32.40 LIG 0.15  C 
BRANCH 6 7
ATOM      7  CG  ASP E   2       4.545  -9.018 -12.506  1.00 34.09 LIG 0.17  C 
ATOM      8 OD2  ASP E   2       4.433  -9.063 -13.747  1.00 37.71 LIG-0.65  OA
ATOM      9 OD1  ASP E   2       4.059  -9.885 -11.748  1.00 36.77 LIG-0.65  OA
ENDBRANCH 6 7
ENDBRANCH 5 6
BRANCH 5 10
ATOM     10  C   ASP E   2       3.797  -6.187 -12.944  1.00 30.01 LIG 0.24  C 
ATOM     11 O    ASP E   2       3.398  -5.793 -14.040  1.00 27.94 LIG-0.27  OA
ATOM     12  N   LEU E   3       3.022  -6.296 -11.873  1.00 30.14 LIG-0.35  N 
ATOM     13 H    LEU E   3       3.300  -6.585 -11.112  1.00 30.14 LIG 0.16  HD
BRANCH 12 14
ATOM     14  CA  LEU E   3       1.617  -5.932 -11.891  1.00 30.90 LIG 0.18  C 
BRANCH 14 15
ATOM     15  C   LEU E   3       1.285  -5.092 -10.658  1.00 32.33 LIG 0.24  C 
ATOM     16 O    LEU E   3       1.906  -4.050 -10.414  1.00 31.45 LIG-0.27  OA
ATOM     17  N   ALA E   4       0.283  -5.538  -9.907  1.00 33.58 LIG-0.34  N 
ATOM     18 H    ALA E   4      -0.147  -6.266 -10.067  1.00 33.58 LIG 0.16  HD
BRANCH 17 19
ATOM     19  CA  ALA E   4      -0.183  -4.817  -8.724  1.00 35.71 LIG 0.18  C 
ATOM     20  CB  ALA E   4      -1.321  -3.879  -9.092  1.00 36.03 LIG 0.04  C 
BRANCH 19 21
ATOM     21  C   ALA E   4      -0.635  -5.792  -7.647  1.00 37.05 LIG 0.20  C 
ATOM     22 OXT  ALA E   4       0.136  -6.643  -7.209  1.00 36.72 LIG-0.65  OA
ATOM     23 O    ALA E   4      -1.778  -5.750  -7.188  1.00 37.61 LIG-0.65  OA
ENDBRANCH 19 21
ENDBRANCH 17 19
ENDBRANCH 14 15
BRANCH 14 24
ATOM     24  CB  LEU E   3       0.764  -7.201 -11.933  1.00 30.03 LIG 0.04  C 
BRANCH 24 25
ATOM     25  CG  LEU E   3      -0.498  -7.231 -12.790  1.00 29.85 LIG-0.02  C 
ATOM     26  CD1 LEU E   3      -1.679  -6.582 -12.090  1.00 29.46 LIG 0.01  C 
ATOM     27  CD2 LEU E   3      -0.198  -6.545 -14.111  1.00 29.65 LIG 0.01  C 
ENDBRANCH 24 25
ENDBRANCH 14 24
ENDBRANCH 12 14
ENDBRANCH 5 10
ENDBRANCH 3 5
BRANCH 1 28
ATOM     28  CA  LEU E   1       7.530  -3.689 -11.953  1.00 29.46 LIG 0.18  C 
BRANCH 28 29
ATOM     29  CB  LEU E   1       6.599  -2.507 -12.227  1.00 29.35 LIG 0.04  C 
BRANCH 29 30
ATOM     30  CG  LEU E   1       6.527  -1.468 -11.099  1.00 30.22 LIG-0.02  C 
ATOM     31  CD2 LEU E   1       6.478  -0.052 -11.658  1.00 31.32 LIG 0.01  C 
ATOM     32  CD1 LEU E   1       7.688  -1.628 -10.134  1.00 30.06 LIG 0.01  C 
ENDBRANCH 29 30
ENDBRANCH 28 29
BRANCH 28 33
ATOM     33  N   LEU E   1       8.889  -3.417 -12.411  1.00 28.73 LIG-0.35  N 
ATOM     34  C   GLN E   0       9.938  -3.842 -11.717  1.00 28.95 LIG 0.24  C 
ATOM     35 O    GLN E   0       9.839  -4.371 -10.613  1.00 30.73 LIG-0.27  OA
ATOM     36 H    LEU E   1       8.939  -2.971 -13.145  1.00 28.73 LIG 0.16  HD
BRANCH 34 37
ATOM     37  CA  GLN E   0      11.309  -3.643 -12.344  1.00 28.12 LIG 0.18  C 
BRANCH 37 38
ATOM     38  CB  GLN E   0      11.910  -5.012 -12.686  1.00 27.70 LIG 0.04  C 
BRANCH 38 39
ATOM     39  CG  GLN E   0      11.830  -5.402 -14.161  1.00 26.51 LIG 0.10  C 
BRANCH 39 40
ATOM     40  CD  GLN E   0      11.324  -4.269 -15.034  1.00 26.51 LIG 0.21  C 
ATOM     41 OE1  GLN E   0      12.113  -3.444 -15.509  1.00 26.66 LIG-0.27  OA
ATOM     42  NE2 GLN E   0      10.012  -4.219 -15.256  1.00 24.64 LIG-0.37  N 
ATOM     43 22HE GLN E   0       9.682  -3.595 -15.747  1.00 24.64 LIG 0.16  HD
ATOM     44 21HE GLN E   0       9.494  -4.811 -14.907  1.00 24.64 LIG 0.16  HD
ENDBRANCH 39 40
ENDBRANCH 38 39
ENDBRANCH 37 38
BRANCH 37 45
ATOM     45  N   GLN E   0      12.203  -2.899 -11.387  1.00 28.94 LIG-0.35  N 
ATOM     46  C   ACE E  -1      13.044  -1.912 -11.781  1.00 29.25 LIG 0.21  C 
ATOM     47 O    ACE E  -1      12.676  -1.224 -12.737  1.00 28.69 LIG-0.27  OA
ATOM     48  CH3 ACE E  -1      13.588  -1.138 -10.591  1.00 29.73 LIG 0.12  C 
ATOM     49 H    GLN E   0      12.130  -3.158 -10.571  1.00 28.94 LIG 0.16  HD
ENDBRANCH 37 45
ENDBRANCH 34 37
ENDBRANCH 28 33
ENDBRANCH 1 28
TORSDOF 19
ENDMDL
MODEL 91
USER: ADFR SOLUTION from run 167
USER: SCORE 12.696741 LL:  -3.248 LR: -11.104 RR:   0.000 FEB:  -5.436
USER: RMSD 10.289717
USER: SEED 166
USER: STATUS no improvement in best in 29 clusters for 5 generations
USER: GENES 21
USER: genes 0 Translation |==|  0.48906 0.53212 0.63018
USER: genes 1 Rotation |==|  0.43790 0.17664 0.15943 0.65997
USER: genes 2 Torsion [C]-N--CA-[CB] |==|  0.20656
USER: genes 3 Torsion [N]-CA--CB-[CG] |==|  0.54351
USER: genes 4 Torsion [CA]-CB--CG-[OD2] |==|  0.48141
USER: genes 5 Torsion [N]-CA--C-[N] |==|  0.81331
USER: genes 6 Torsion [C]-N--CA-[C] |==|  0.52279
USER: genes 7 Torsion [N]-CA--C-[N] |==|  0.48333
USER: genes 8 Torsion [C]-N--CA-[CB] |==|  0.26134
USER: genes 9 Torsion [N]-CA--C-[OXT] |==|  0.79710
USER: genes 10 Torsion [N]-CA--CB-[CG] |==|  0.65880
USER: genes 11 Torsion [CA]-CB--CG-[CD2] |==|  0.37931
USER: genes 12 Torsion [N]-C--CA-[N] |==|  0.53532
USER: genes 13 Torsion [C]-CA--CB-[CG] |==|  0.64556
USER: genes 14 Torsion [CA]-CB--CG-[CD2] |==|  0.75461
USER: genes 15 Torsion [C]-CA--N-[C] |==|  0.61829
USER: genes 16 Torsion [N]-C--CA-[N] |==|  0.47996
USER: genes 17 Torsion [C]-CA--CB-[CG] |==|  0.53986
USER: genes 18 Torsion [CA]-CB--CG-[CD] |==|  0.51409
USER: genes 19 Torsion [CB]-CG--CD-[OE1] |==|  0.46073
USER: genes 20 Torsion [C]-CA--N-[C] |==|  0.77435
ROOT
ATOM      1  C   LEU E   1       2.516  -5.214 -11.076  1.00 28.67 LIG 0.24  C 
ATOM      2 O    LEU E   1       2.719  -4.254 -10.326  1.00 26.53 LIG-0.27  OA
ATOM      3  N   ASP E   2       1.359  -5.867 -11.128  1.00 29.47 LIG-0.35  N 
ATOM      4 H    ASP E   2       1.173  -6.473 -11.709  1.00 29.47 LIG 0.16  HD
ENDROOT
BRANCH 3 5
ATOM      5  CA  ASP E   2       0.294  -5.594 -10.180  1.00 30.54 LIG 0.19  C 
BRANCH 5 6
ATOM      6  CB  ASP E   2      -0.402  -4.264 -10.485  1.00 32.40 LIG 0.15  C 
BRANCH 6 7
ATOM      7  CG  ASP E   2      -1.241  -3.768  -9.328  1.00 34.09 LIG 0.17  C 
ATOM      8 OD2  ASP E   2      -1.752  -2.634  -9.412  1.00 37.71 LIG-0.65  OA
ATOM      9 OD1  ASP E   2      -1.399  -4.513  -8.335  1.00 36.77 LIG-0.65  OA
ENDBRANCH 6 7
ENDBRANCH 5 6
BRANCH 5 10
ATOM     10  C   ASP E   2      -0.697  -6.729 -10.272  1.00 30.01 LIG 0.24  C 
ATOM     11 O    ASP E   2      -0.855  -7.505  -9.329  1.00 27.94 LIG-0.27  OA
ATOM     12  N   LEU E   3      -1.366  -6.811 -11.415  1.00 30.14 LIG-0.35  N 
ATOM     13 H    LEU E   3      -1.263  -6.260 -12.067  1.00 30.14 LIG 0.16  HD
BRANCH 12 14
ATOM     14  CA  LEU E   3      -2.343  -7.854 -11.669  1.00 30.90 LIG 0.18  C 
BRANCH 14 15
ATOM     15  C   LEU E   3      -2.786  -7.802 -13.131  1.00 32.33 LIG 0.24  C 
ATOM     16 O    LEU E   3      -2.384  -6.907 -13.884  1.00 31.45 LIG-0.27  OA
ATOM     17  N   ALA E   4      -3.590  -8.785 -13.527  1.00 33.58 LIG-0.34  N 
ATOM     18 H    ALA E   4      -3.879  -9.405 -13.005  1.00 33.58 LIG 0.16  HD
BRANCH 17 19
ATOM     19  CA  ALA E   4      -4.057  -8.897 -14.907  1.00 35.71 LIG 0.18  C 
ATOM     20  CB  ALA E   4      -3.145  -9.820 -15.700  1.00 36.03 LIG 0.04  C 
BRANCH 19 21
ATOM     21  C   ALA E   4      -5.488  -9.415 -14.946  1.00 37.05 LIG 0.20  C 
ATOM     22 OXT  ALA E   4      -5.735 -10.592 -14.694  1.00 36.72 LIG-0.65  OA
ATOM     23 O    ALA E   4      -6.428  -8.669 -15.228  1.00 37.61 LIG-0.65  OA
ENDBRANCH 19 21
ENDBRANCH 17 19
ENDBRANCH 14 15
BRANCH 14 24
ATOM     24  CB  LEU E   3      -3.536  -7.672 -10.729  1.00 30.03 LIG 0.04  C 
BRANCH 24 25
ATOM     25  CG  LEU E   3      -3.943  -8.810  -9.799  1.00 29.85 LIG-0.02  C 
ATOM     26  CD1 LEU E   3      -2.875  -9.886  -9.712  1.00 29.46 LIG 0.01  C 
ATOM     27  CD2 LEU E   3      -4.246  -8.225  -8.430  1.00 29.65 LIG 0.01  C 
ENDBRANCH 24 25
ENDBRANCH 14 24
ENDBRANCH 12 14
ENDBRANCH 5 10
ENDBRANCH 3 5
BRANCH 1 28
ATOM     28  CA  LEU E   1       3.599  -5.709 -12.019  1.00 29.46 LIG 0.18  C 
BRANCH 28 29
ATOM     29  CB  LEU E   1       3.668  -7.236 -12.000  1.00 29.35 LIG 0.04  C 
BRANCH 29 30
ATOM     30  CG  LEU E   1       5.066  -7.815 -11.737  1.00 30.22 LIG-0.02  C 
ATOM     31  CD2 LEU E   1       5.842  -7.990 -13.035  1.00 31.32 LIG 0.01  C 
ATOM     32  CD1 LEU E   1       4.980  -9.127 -10.979  1.00 30.06 LIG 0.01  C 
ENDBRANCH 29 30
ENDBRANCH 28 29
BRANCH 28 33
ATOM     33  N   LEU E   1       4.876  -5.111 -11.641  1.00 28.73 LIG-0.35  N 
ATOM     34  C   GLN E   0       5.709  -4.648 -12.565  1.00 28.95 LIG 0.24  C 
ATOM     35 O    GLN E   0       5.521  -4.798 -13.770  1.00 30.73 LIG-0.27  OA
ATOM     36 H    LEU E   1       5.029  -5.090 -10.794  1.00 28.73 LIG 0.16  HD
BRANCH 34 37
ATOM     37  CA  GLN E   0       6.945  -3.910 -12.076  1.00 28.12 LIG 0.18  C 
BRANCH 37 38
ATOM     38  CB  GLN E   0       6.516  -2.609 -11.386  1.00 27.70 LIG 0.04  C 
BRANCH 38 39
ATOM     39  CG  GLN E   0       7.639  -1.603 -11.148  1.00 26.51 LIG 0.10  C 
BRANCH 39 40
ATOM     40  CD  GLN E   0       7.178  -0.394 -10.355  1.00 26.51 LIG 0.21  C 
ATOM     41 OE1  GLN E   0       8.002   0.379  -9.855  1.00 26.66 LIG-0.27  OA
ATOM     42  NE2 GLN E   0       5.863  -0.219 -10.235  1.00 24.64 LIG-0.37  N 
ATOM     43 22HE GLN E   0       5.557   0.454  -9.796  1.00 24.64 LIG 0.16  HD
ATOM     44 21HE GLN E   0       5.320  -0.780 -10.597  1.00 24.64 LIG 0.16  HD
ENDBRANCH 39 40
ENDBRANCH 38 39
ENDBRANCH 37 38
BRANCH 37 45
ATOM     45  N   GLN E   0       7.856  -3.615 -13.238  1.00 28.94 LIG-0.35  N 
ATOM     46  C   ACE E  -1       8.712  -4.529 -13.755  1.00 29.25 LIG 0.21  C 
ATOM     47 O    ACE E  -1       8.351  -5.709 -13.709  1.00 28.69 LIG-0.27  OA
ATOM     48  CH3 ACE E  -1       9.274  -4.071 -15.092  1.00 29.73 LIG 0.12  C 
ATOM     49 H    GLN E   0       7.782  -2.814 -13.542  1.00 28.94 LIG 0.16  HD
ENDBRANCH 37 45
ENDBRANCH 34 37
ENDBRANCH 28 33
ENDBRANCH 1 28
TORSDOF 19
ENDMDL
MODEL 92
USER: ADFR SOLUTION from run 77
USER: SCORE 13.829514 LL:  -4.551 LR: -11.097 RR:   0.000 FEB:  -5.429
USER: RMSD 7.324589
USER: SEED 76
USER: STATUS no improvement in best in 11 clusters for 5 generations
USER: GENES 21
USER: genes 0 Translation |==|  0.33674 0.47456 0.74945
USER: genes 1 Rotation |==|  0.75621 0.78749 0.66226 0.77456
USER: genes 2 Torsion [C]-N--CA-[CB] |==|  0.82222
USER: genes 3 Torsion [N]-CA--CB-[CG] |==|  0.74094
USER: genes 4 Torsion [CA]-CB--CG-[OD2] |==|  0.49032
USER: genes 5 Torsion [N]-CA--C-[N] |==|  0.21749
USER: genes 6 Torsion [C]-N--CA-[C] |==|  0.60204
USER: genes 7 Torsion [N]-CA--C-[N] |==|  0.97160
USER: genes 8 Torsion [C]-N--CA-[CB] |==|  0.17641
USER: genes 9 Torsion [N]-CA--C-[OXT] |==|  0.89294
USER: genes 10 Torsion [N]-CA--CB-[CG] |==|  0.58501
USER: genes 11 Torsion [CA]-CB--CG-[CD2] |==|  0.06349
USER: genes 12 Torsion [N]-C--CA-[N] |==|  0.25014
USER: genes 13 Torsion [C]-CA--CB-[CG] |==|  0.39823
USER: genes 14 Torsion [CA]-CB--CG-[CD2] |==|  0.34603
USER: genes 15 Torsion [C]-CA--N-[C] |==|  0.68434
USER: genes 16 Torsion [N]-C--CA-[N] |==|  0.35546
USER: genes 17 Torsion [C]-CA--CB-[CG] |==|  0.14649
USER: genes 18 Torsion [CA]-CB--CG-[CD] |==|  0.60587
USER: genes 19 Torsion [CB]-CG--CD-[OE1] |==|  0.92013
USER: genes 20 Torsion [C]-CA--N-[C] |==|  0.80263
ROOT
ATOM      1  C   LEU E   1      -0.911  -6.250  -9.108  1.00 28.67 LIG 0.24  C 
ATOM      2 O    LEU E   1       0.205  -6.216  -8.581  1.00 26.53 LIG-0.27  OA
ATOM      3  N   ASP E   2      -1.294  -5.406 -10.062  1.00 29.47 LIG-0.35  N 
ATOM      4 H    ASP E   2      -2.030  -5.477 -10.501  1.00 29.47 LIG 0.16  HD
ENDROOT
BRANCH 3 5
ATOM      5  CA  ASP E   2      -0.472  -4.271 -10.442  1.00 30.54 LIG 0.19  C 
BRANCH 5 6
ATOM      6  CB  ASP E   2      -0.320  -3.277  -9.286  1.00 32.40 LIG 0.15  C 
BRANCH 6 7
ATOM      7  CG  ASP E   2      -1.355  -2.174  -9.329  1.00 34.09 LIG 0.17  C 
ATOM      8 OD2  ASP E   2      -1.371  -1.343  -8.400  1.00 37.71 LIG-0.65  OA
ATOM      9 OD1  ASP E   2      -2.149  -2.130 -10.294  1.00 36.77 LIG-0.65  OA
ENDBRANCH 6 7
ENDBRANCH 5 6
BRANCH 5 10
ATOM     10  C   ASP E   2       0.880  -4.806 -10.845  1.00 30.01 LIG 0.24  C 
ATOM     11 O    ASP E   2       1.837  -4.746 -10.071  1.00 27.94 LIG-0.27  OA
ATOM     12  N   LEU E   3       0.946  -5.336 -12.058  1.00 30.14 LIG-0.35  N 
ATOM     13 H    LEU E   3       0.273  -5.390 -12.591  1.00 30.14 LIG 0.16  HD
BRANCH 12 14
ATOM     14  CA  LEU E   3       2.177  -5.881 -12.602  1.00 30.90 LIG 0.18  C 
BRANCH 14 15
ATOM     15  C   LEU E   3       2.261  -5.575 -14.098  1.00 32.33 LIG 0.24  C 
ATOM     16 O    LEU E   3       3.296  -5.804 -14.734  1.00 31.45 LIG-0.27  OA
ATOM     17  N   ALA E   4       1.154  -5.088 -14.651  1.00 33.58 LIG-0.34  N 
ATOM     18 H    ALA E   4       0.435  -4.920 -14.212  1.00 33.58 LIG 0.16  HD
BRANCH 17 19
ATOM     19  CA  ALA E   4       1.066  -4.794 -16.080  1.00 35.71 LIG 0.18  C 
ATOM     20  CB  ALA E   4       1.221  -6.070 -16.892  1.00 36.03 LIG 0.04  C 
BRANCH 19 21
ATOM     21  C   ALA E   4      -0.261  -4.124 -16.406  1.00 37.05 LIG 0.20  C 
ATOM     22 OXT  ALA E   4      -1.297  -4.479 -15.848  1.00 36.72 LIG-0.65  OA
ATOM     23 O    ALA E   4      -0.328  -3.211 -17.232  1.00 37.61 LIG-0.65  OA
ENDBRANCH 19 21
ENDBRANCH 17 19
ENDBRANCH 14 15
BRANCH 14 24
ATOM     24  CB  LEU E   3       2.221  -7.388 -12.349  1.00 30.03 LIG 0.04  C 
BRANCH 24 25
ATOM     25  CG  LEU E   3       3.567  -8.080 -12.154  1.00 29.85 LIG-0.02  C 
ATOM     26  CD1 LEU E   3       4.035  -8.784 -13.415  1.00 29.46 LIG 0.01  C 
ATOM     27  CD2 LEU E   3       4.578  -7.042 -11.697  1.00 29.65 LIG 0.01  C 
ENDBRANCH 24 25
ENDBRANCH 14 24
ENDBRANCH 12 14
ENDBRANCH 5 10
ENDBRANCH 3 5
BRANCH 1 28
ATOM     28  CA  LEU E   1      -1.935  -7.294  -8.698  1.00 29.46 LIG 0.18  C 
BRANCH 28 29
ATOM     29  CB  LEU E   1      -1.799  -7.621  -7.210  1.00 29.35 LIG 0.04  C 
BRANCH 29 30
ATOM     30  CG  LEU E   1      -3.126  -7.887  -6.484  1.00 30.22 LIG-0.02  C 
ATOM     31  CD2 LEU E   1      -3.113  -9.245  -5.795  1.00 31.32 LIG 0.01  C 
ATOM     32  CD1 LEU E   1      -4.302  -7.776  -7.438  1.00 30.06 LIG 0.01  C 
ENDBRANCH 29 30
ENDBRANCH 28 29
BRANCH 28 33
ATOM     33  N   LEU E   1      -1.766  -8.485  -9.525  1.00 28.73 LIG-0.35  N 
ATOM     34  C   GLN E   0      -2.708  -8.854 -10.385  1.00 28.95 LIG 0.24  C 
ATOM     35 O    GLN E   0      -3.804  -8.304 -10.452  1.00 30.73 LIG-0.27  OA
ATOM     36 H    LEU E   1      -1.026  -8.907  -9.403  1.00 28.73 LIG 0.16  HD
BRANCH 34 37
ATOM     37  CA  GLN E   0      -2.385 -10.018 -11.308  1.00 28.12 LIG 0.18  C 
BRANCH 37 38
ATOM     38  CB  GLN E   0      -2.245  -9.498 -12.744  1.00 27.70 LIG 0.04  C 
BRANCH 38 39
ATOM     39  CG  GLN E   0      -1.271  -8.334 -12.918  1.00 26.51 LIG 0.10  C 
BRANCH 39 40
ATOM     40  CD  GLN E   0      -1.763  -7.312 -13.925  1.00 26.51 LIG 0.21  C 
ATOM     41 OE1  GLN E   0      -2.497  -7.654 -14.859  1.00 26.66 LIG-0.27  OA
ATOM     42  NE2 GLN E   0      -1.368  -6.052 -13.746  1.00 24.64 LIG-0.37  N 
ATOM     43 22HE GLN E   0      -1.625  -5.439 -14.292  1.00 24.64 LIG 0.16  HD
ATOM     44 21HE GLN E   0      -0.857  -5.852 -13.084  1.00 24.64 LIG 0.16  HD
ENDBRANCH 39 40
ENDBRANCH 38 39
ENDBRANCH 37 38
BRANCH 37 45
ATOM     45  N   GLN E   0      -3.477 -11.052 -11.225  1.00 28.94 LIG-0.35  N 
ATOM     46  C   ACE E  -1      -3.666 -11.838 -10.138  1.00 29.25 LIG 0.21  C 
ATOM     47 O    ACE E  -1      -3.384 -11.342  -9.044  1.00 28.69 LIG-0.27  OA
ATOM     48  CH3 ACE E  -1      -5.003 -12.560 -10.201  1.00 29.73 LIG 0.12  C 
ATOM     49 H    GLN E   0      -3.966 -11.097 -11.930  1.00 28.94 LIG 0.16  HD
ENDBRANCH 37 45
ENDBRANCH 34 37
ENDBRANCH 28 33
ENDBRANCH 1 28
TORSDOF 19
ENDMDL
MODEL 93
USER: ADFR SOLUTION from run 196
USER: SCORE 13.704295 LL:  -3.783 LR: -11.091 RR:   0.000 FEB:  -5.423
USER: RMSD 4.656688
USER: SEED 195
USER: STATUS no improvement in best in 5 clusters for 5 generations
USER: GENES 21
USER: genes 0 Translation |==|  0.47076 0.47624 0.57924
USER: genes 1 Rotation |==|  0.98662 0.45662 0.44435 0.59065
USER: genes 2 Torsion [C]-N--CA-[CB] |==|  0.13502
USER: genes 3 Torsion [N]-CA--CB-[CG] |==|  0.64837
USER: genes 4 Torsion [CA]-CB--CG-[OD2] |==|  0.73891
USER: genes 5 Torsion [N]-CA--C-[N] |==|  0.16572
USER: genes 6 Torsion [C]-N--CA-[C] |==|  0.74926
USER: genes 7 Torsion [N]-CA--C-[N] |==|  0.94142
USER: genes 8 Torsion [C]-N--CA-[CB] |==|  0.16366
USER: genes 9 Torsion [N]-CA--C-[OXT] |==|  0.83025
USER: genes 10 Torsion [N]-CA--CB-[CG] |==|  0.55464
USER: genes 11 Torsion [CA]-CB--CG-[CD2] |==|  0.66698
USER: genes 12 Torsion [N]-C--CA-[N] |==|  0.66137
USER: genes 13 Torsion [C]-CA--CB-[CG] |==|  0.54006
USER: genes 14 Torsion [CA]-CB--CG-[CD2] |==|  0.86131
USER: genes 15 Torsion [C]-CA--N-[C] |==|  0.67750
USER: genes 16 Torsion [N]-C--CA-[N] |==|  0.39810
USER: genes 17 Torsion [C]-CA--CB-[CG] |==|  0.09637
USER: genes 18 Torsion [CA]-CB--CG-[CD] |==|  0.71371
USER: genes 19 Torsion [CB]-CG--CD-[OE1] |==|  0.97338
USER: genes 20 Torsion [C]-CA--N-[C] |==|  0.75940
ROOT
ATOM      1  C   LEU E   1       2.104  -6.220 -11.917  1.00 28.67 LIG 0.24  C 
ATOM      2 O    LEU E   1       1.782  -7.248 -12.520  1.00 26.53 LIG-0.27  OA
ATOM      3  N   ASP E   2       3.282  -5.621 -12.071  1.00 29.47 LIG-0.35  N 
ATOM      4 H    ASP E   2       3.482  -4.858 -11.731  1.00 29.47 LIG 0.16  HD
ENDROOT
BRANCH 3 5
ATOM      5  CA  ASP E   2       4.344  -6.233 -12.849  1.00 30.54 LIG 0.19  C 
BRANCH 5 6
ATOM      6  CB  ASP E   2       3.834  -6.721 -14.209  1.00 32.40 LIG 0.15  C 
BRANCH 6 7
ATOM      7  CG  ASP E   2       4.159  -8.175 -14.464  1.00 34.09 LIG 0.17  C 
ATOM      8 OD2  ASP E   2       5.201  -8.447 -15.093  1.00 37.71 LIG-0.65  OA
ATOM      9 OD1  ASP E   2       3.380  -9.052 -14.030  1.00 36.77 LIG-0.65  OA
ENDBRANCH 6 7
ENDBRANCH 5 6
BRANCH 5 10
ATOM     10  C   ASP E   2       5.420  -5.193 -13.043  1.00 30.01 LIG 0.24  C 
ATOM     11 O    ASP E   2       5.748  -4.830 -14.173  1.00 27.94 LIG-0.27  OA
ATOM     12  N   LEU E   3       5.958  -4.714 -11.929  1.00 30.14 LIG-0.35  N 
ATOM     13 H    LEU E   3       5.717  -4.958 -11.141  1.00 30.14 LIG 0.16  HD
BRANCH 12 14
ATOM     14  CA  LEU E   3       7.015  -3.719 -11.943  1.00 30.90 LIG 0.18  C 
BRANCH 14 15
ATOM     15  C   LEU E   3       8.377  -4.413 -11.966  1.00 32.33 LIG 0.24  C 
ATOM     16 O    LEU E   3       9.390  -3.808 -12.336  1.00 31.45 LIG-0.27  OA
ATOM     17  N   ALA E   4       8.392  -5.672 -11.539  1.00 33.58 LIG-0.34  N 
ATOM     18 H    ALA E   4       7.689  -6.099 -11.288  1.00 33.58 LIG 0.16  HD
BRANCH 17 19
ATOM     19  CA  ALA E   4       9.627  -6.449 -11.456  1.00 35.71 LIG 0.18  C 
ATOM     20  CB  ALA E   4      10.622  -5.762 -10.535  1.00 36.03 LIG 0.04  C 
BRANCH 19 21
ATOM     21  C   ALA E   4       9.338  -7.858 -10.958  1.00 37.05 LIG 0.20  C 
ATOM     22 OXT  ALA E   4       8.842  -8.042  -9.849  1.00 36.72 LIG-0.65  OA
ATOM     23 O    ALA E   4       9.591  -8.844 -11.654  1.00 37.61 LIG-0.65  OA
ENDBRANCH 19 21
ENDBRANCH 17 19
ENDBRANCH 14 15
BRANCH 14 24
ATOM     24  CB  LEU E   3       6.881  -2.818 -10.715  1.00 30.03 LIG 0.04  C 
BRANCH 24 25
ATOM     25  CG  LEU E   3       7.555  -1.450 -10.707  1.00 29.85 LIG-0.02  C 
ATOM     26  CD1 LEU E   3       6.549  -0.318 -10.604  1.00 29.46 LIG 0.01  C 
ATOM     27  CD2 LEU E   3       8.547  -1.409  -9.557  1.00 29.65 LIG 0.01  C 
ENDBRANCH 24 25
ENDBRANCH 14 24
ENDBRANCH 12 14
ENDBRANCH 5 10
ENDBRANCH 3 5
BRANCH 1 28
ATOM     28  CA  LEU E   1       1.144  -5.552 -10.948  1.00 29.46 LIG 0.18  C 
BRANCH 28 29
ATOM     29  CB  LEU E   1       1.765  -4.280 -10.370  1.00 29.35 LIG 0.04  C 
BRANCH 29 30
ATOM     30  CG  LEU E   1       1.045  -3.714  -9.137  1.00 30.22 LIG-0.02  C 
ATOM     31  CD2 LEU E   1      -0.452  -3.591  -9.382  1.00 31.32 LIG 0.01  C 
ATOM     32  CD1 LEU E   1       1.637  -2.379  -8.724  1.00 30.06 LIG 0.01  C 
ENDBRANCH 29 30
ENDBRANCH 28 29
BRANCH 28 33
ATOM     33  N   LEU E   1       0.786  -6.498  -9.896  1.00 28.73 LIG-0.35  N 
ATOM     34  C   GLN E   0      -0.468  -6.916  -9.756  1.00 28.95 LIG 0.24  C 
ATOM     35 O    GLN E   0      -1.402  -6.454 -10.405  1.00 30.73 LIG-0.27  OA
ATOM     36 H    LEU E   1       1.440  -6.747  -9.396  1.00 28.73 LIG 0.16  HD
BRANCH 34 37
ATOM     37  CA  GLN E   0      -0.721  -8.010  -8.732  1.00 28.12 LIG 0.18  C 
BRANCH 37 38
ATOM     38  CB  GLN E   0      -0.719  -9.372  -9.438  1.00 27.70 LIG 0.04  C 
BRANCH 38 39
ATOM     39  CG  GLN E   0       0.259  -9.492 -10.605  1.00 26.51 LIG 0.10  C 
BRANCH 39 40
ATOM     40  CD  GLN E   0      -0.430  -9.394 -11.953  1.00 26.51 LIG 0.21  C 
ATOM     41 OE1  GLN E   0      -1.664  -9.411 -12.029  1.00 26.66 LIG-0.27  OA
ATOM     42  NE2 GLN E   0       0.355  -9.287 -13.024  1.00 24.64 LIG-0.37  N 
ATOM     43 22HE GLN E   0       0.007  -9.226 -13.808  1.00 24.64 LIG 0.16  HD
ATOM     44 21HE GLN E   0       1.211  -9.278 -12.931  1.00 24.64 LIG 0.16  HD
ENDBRANCH 39 40
ENDBRANCH 38 39
ENDBRANCH 37 38
BRANCH 37 45
ATOM     45  N   GLN E   0      -2.043  -7.773  -8.049  1.00 28.94 LIG-0.35  N 
ATOM     46  C   ACE E  -1      -2.177  -6.980  -6.959  1.00 29.25 LIG 0.21  C 
ATOM     47 O    ACE E  -1      -1.411  -6.015  -6.882  1.00 28.69 LIG-0.27  OA
ATOM     48  CH3 ACE E  -1      -3.638  -6.676  -6.669  1.00 29.73 LIG 0.12  C 
ATOM     49 H    GLN E   0      -2.702  -8.187  -8.415  1.00 28.94 LIG 0.16  HD
ENDBRANCH 37 45
ENDBRANCH 34 37
ENDBRANCH 28 33
ENDBRANCH 1 28
TORSDOF 19
ENDMDL
MODEL 94
USER: ADFR SOLUTION from run 75
USER: SCORE 13.119252 LL:  -3.994 LR: -11.079 RR:   0.000 FEB:  -5.411
USER: RMSD 8.744838
USER: SEED 74
USER: STATUS no improvement in best in 18 clusters for 5 generations
USER: GENES 21
USER: genes 0 Translation |==|  0.44540 0.52938 0.64858
USER: genes 1 Rotation |==|  0.34049 0.18408 0.23096 0.72884
USER: genes 2 Torsion [C]-N--CA-[CB] |==|  0.26109
USER: genes 3 Torsion [N]-CA--CB-[CG] |==|  0.71995
USER: genes 4 Torsion [CA]-CB--CG-[OD2] |==|  0.97865
USER: genes 5 Torsion [N]-CA--C-[N] |==|  0.84460
USER: genes 6 Torsion [C]-N--CA-[C] |==|  0.68213
USER: genes 7 Torsion [N]-CA--C-[N] |==|  0.02229
USER: genes 8 Torsion [C]-N--CA-[CB] |==|  0.16046
USER: genes 9 Torsion [N]-CA--C-[OXT] |==|  0.62314
USER: genes 10 Torsion [N]-CA--CB-[CG] |==|  0.79446
USER: genes 11 Torsion [CA]-CB--CG-[CD2] |==|  0.18173
USER: genes 12 Torsion [N]-C--CA-[N] |==|  0.19809
USER: genes 13 Torsion [C]-CA--CB-[CG] |==|  0.36187
USER: genes 14 Torsion [CA]-CB--CG-[CD2] |==|  0.89359
USER: genes 15 Torsion [C]-CA--N-[C] |==|  0.54751
USER: genes 16 Torsion [N]-C--CA-[N] |==|  0.88758
USER: genes 17 Torsion [C]-CA--CB-[CG] |==|  0.62345
USER: genes 18 Torsion [CA]-CB--CG-[CD] |==|  0.44485
USER: genes 19 Torsion [CB]-CG--CD-[OE1] |==|  0.98306
USER: genes 20 Torsion [C]-CA--N-[C] |==|  0.79004
ROOT
ATOM      1  C   LEU E   1       1.534  -5.263 -10.772  1.00 28.67 LIG 0.24  C 
ATOM      2 O    LEU E   1       1.981  -4.154 -10.462  1.00 26.53 LIG-0.27  OA
ATOM      3  N   ASP E   2       0.546  -5.862 -10.113  1.00 29.47 LIG-0.35  N 
ATOM      4 H    ASP E   2       0.163  -6.587 -10.373  1.00 29.47 LIG 0.16  HD
ENDROOT
BRANCH 3 5
ATOM      5  CA  ASP E   2       0.028  -5.318  -8.871  1.00 30.54 LIG 0.19  C 
BRANCH 5 6
ATOM      6  CB  ASP E   2      -1.188  -4.419  -9.116  1.00 32.40 LIG 0.15  C 
BRANCH 6 7
ATOM      7  CG  ASP E   2      -0.840  -2.947  -9.081  1.00 34.09 LIG 0.17  C 
ATOM      8 OD2  ASP E   2       0.309  -2.620  -8.724  1.00 37.71 LIG-0.65  OA
ATOM      9 OD1  ASP E   2      -1.710  -2.114  -9.418  1.00 36.77 LIG-0.65  OA
ENDBRANCH 6 7
ENDBRANCH 5 6
BRANCH 5 10
ATOM     10  C   ASP E   2      -0.359  -6.482  -7.993  1.00 30.01 LIG 0.24  C 
ATOM     11 O    ASP E   2       0.108  -6.597  -6.859  1.00 27.94 LIG-0.27  OA
ATOM     12  N   LEU E   3      -1.222  -7.338  -8.525  1.00 30.14 LIG-0.35  N 
ATOM     13 H    LEU E   3      -1.557  -7.248  -9.312  1.00 30.14 LIG 0.16  HD
BRANCH 12 14
ATOM     14  CA  LEU E   3      -1.682  -8.518  -7.817  1.00 30.90 LIG 0.18  C 
BRANCH 14 15
ATOM     15  C   LEU E   3      -1.191  -9.775  -8.534  1.00 32.33 LIG 0.24  C 
ATOM     16 O    LEU E   3      -1.608 -10.894  -8.210  1.00 31.45 LIG-0.27  OA
ATOM     17  N   ALA E   4      -0.330  -9.576  -9.527  1.00 33.58 LIG-0.34  N 
ATOM     18 H    ALA E   4      -0.030  -8.801  -9.751  1.00 33.58 LIG 0.16  HD
BRANCH 17 19
ATOM     19  CA  ALA E   4       0.190 -10.676 -10.337  1.00 35.71 LIG 0.18  C 
ATOM     20  CB  ALA E   4      -0.952 -11.434 -10.993  1.00 36.03 LIG 0.04  C 
BRANCH 19 21
ATOM     21  C   ALA E   4       1.149 -10.152 -11.396  1.00 37.05 LIG 0.20  C 
ATOM     22 OXT  ALA E   4       1.089 -10.562 -12.553  1.00 36.72 LIG-0.65  OA
ATOM     23 O    ALA E   4       2.003  -9.307 -11.121  1.00 37.61 LIG-0.65  OA
ENDBRANCH 19 21
ENDBRANCH 17 19
ENDBRANCH 14 15
BRANCH 14 24
ATOM     24  CB  LEU E   3      -3.209  -8.497  -7.734  1.00 30.03 LIG 0.04  C 
BRANCH 24 25
ATOM     25  CG  LEU E   3      -3.899  -7.534  -6.773  1.00 29.85 LIG-0.02  C 
ATOM     26  CD1 LEU E   3      -3.452  -7.743  -5.337  1.00 29.46 LIG 0.01  C 
ATOM     27  CD2 LEU E   3      -3.620  -6.114  -7.234  1.00 29.65 LIG 0.01  C 
ENDBRANCH 24 25
ENDBRANCH 14 24
ENDBRANCH 12 14
ENDBRANCH 5 10
ENDBRANCH 3 5
BRANCH 1 28
ATOM     28  CA  LEU E   1       2.089  -6.021 -11.965  1.00 29.46 LIG 0.18  C 
BRANCH 28 29
ATOM     29  CB  LEU E   1       3.421  -5.417 -12.411  1.00 29.35 LIG 0.04  C 
BRANCH 29 30
ATOM     30  CG  LEU E   1       4.559  -6.430 -12.599  1.00 30.22 LIG-0.02  C 
ATOM     31  CD2 LEU E   1       4.513  -7.513 -11.529  1.00 31.32 LIG 0.01  C 
ATOM     32  CD1 LEU E   1       5.910  -5.739 -12.610  1.00 30.06 LIG 0.01  C 
ENDBRANCH 29 30
ENDBRANCH 28 29
BRANCH 28 33
ATOM     33  N   LEU E   1       1.107  -6.006 -13.045  1.00 28.73 LIG-0.35  N 
ATOM     34  C   GLN E   0       1.195  -6.864 -14.055  1.00 28.95 LIG 0.24  C 
ATOM     35 O    GLN E   0       2.149  -7.623 -14.206  1.00 30.73 LIG-0.27  OA
ATOM     36 H    LEU E   1       0.491  -5.411 -12.965  1.00 28.73 LIG 0.16  HD
BRANCH 34 37
ATOM     37  CA  GLN E   0       0.050  -6.876 -15.055  1.00 28.12 LIG 0.18  C 
BRANCH 37 38
ATOM     38  CB  GLN E   0       0.237  -5.722 -16.049  1.00 27.70 LIG 0.04  C 
BRANCH 38 39
ATOM     39  CG  GLN E   0      -1.026  -4.919 -16.352  1.00 26.51 LIG 0.10  C 
BRANCH 39 40
ATOM     40  CD  GLN E   0      -0.719  -3.549 -16.927  1.00 26.51 LIG 0.21  C 
ATOM     41 OE1  GLN E   0       0.447  -3.146 -16.998  1.00 26.66 LIG-0.27  OA
ATOM     42  NE2 GLN E   0      -1.757  -2.825 -17.343  1.00 24.64 LIG-0.37  N 
ATOM     43 22HE GLN E   0      -1.629  -2.043 -17.679  1.00 24.64 LIG 0.16  HD
ATOM     44 21HE GLN E   0      -2.555  -3.139 -17.277  1.00 24.64 LIG 0.16  HD
ENDBRANCH 39 40
ENDBRANCH 38 39
ENDBRANCH 37 38
BRANCH 37 45
ATOM     45  N   GLN E   0      -1.262  -6.738 -14.329  1.00 28.94 LIG-0.35  N 
ATOM     46  C   ACE E  -1      -1.833  -7.755 -13.638  1.00 29.25 LIG 0.21  C 
ATOM     47 O    ACE E  -1      -1.062  -8.556 -13.101  1.00 28.69 LIG-0.27  OA
ATOM     48  CH3 ACE E  -1      -2.974  -7.261 -12.763  1.00 29.73 LIG 0.12  C 
ATOM     49 H    GLN E   0      -1.615  -5.956 -14.394  1.00 28.94 LIG 0.16  HD
ENDBRANCH 37 45
ENDBRANCH 34 37
ENDBRANCH 28 33
ENDBRANCH 1 28
TORSDOF 19
ENDMDL
MODEL 95
USER: ADFR SOLUTION from run 105
USER: SCORE 13.752056 LL:  -3.683 LR: -11.058 RR:   0.000 FEB:  -5.390
USER: RMSD 4.626203
USER: SEED 104
USER: STATUS no improvement in best in 12 clusters for 5 generations
USER: GENES 21
USER: genes 0 Translation |==|  0.46895 0.50246 0.61185
USER: genes 1 Rotation |==|  0.42303 0.66809 0.37768 0.94818
USER: genes 2 Torsion [C]-N--CA-[CB] |==|  0.55000
USER: genes 3 Torsion [N]-CA--CB-[CG] |==|  0.46164
USER: genes 4 Torsion [CA]-CB--CG-[OD2] |==|  0.62733
USER: genes 5 Torsion [N]-CA--C-[N] |==|  0.32941
USER: genes 6 Torsion [C]-N--CA-[C] |==|  0.65048
USER: genes 7 Torsion [N]-CA--C-[N] |==|  0.92160
USER: genes 8 Torsion [C]-N--CA-[CB] |==|  0.18338
USER: genes 9 Torsion [N]-CA--C-[OXT] |==|  0.47601
USER: genes 10 Torsion [N]-CA--CB-[CG] |==|  0.44973
USER: genes 11 Torsion [CA]-CB--CG-[CD2] |==|  0.62019
USER: genes 12 Torsion [N]-C--CA-[N] |==|  0.07193
USER: genes 13 Torsion [C]-CA--CB-[CG] |==|  0.56158
USER: genes 14 Torsion [CA]-CB--CG-[CD2] |==|  0.61641
USER: genes 15 Torsion [C]-CA--N-[C] |==|  0.69753
USER: genes 16 Torsion [N]-C--CA-[N] |==|  0.97428
USER: genes 17 Torsion [C]-CA--CB-[CG] |==|  0.25748
USER: genes 18 Torsion [CA]-CB--CG-[CD] |==|  0.02496
USER: genes 19 Torsion [CB]-CG--CD-[OE1] |==|  0.75140
USER: genes 20 Torsion [C]-CA--N-[C] |==|  0.76638
ROOT
ATOM      1  C   LEU E   1       2.063  -5.748 -11.378  1.00 28.67 LIG 0.24  C 
ATOM      2 O    LEU E   1       2.990  -5.014 -11.017  1.00 26.53 LIG-0.27  OA
ATOM      3  N   ASP E   2       2.248  -6.980 -11.844  1.00 29.47 LIG-0.35  N 
ATOM      4 H    ASP E   2       1.610  -7.532 -12.010  1.00 29.47 LIG 0.16  HD
ENDROOT
BRANCH 3 5
ATOM      5  CA  ASP E   2       3.578  -7.494 -12.115  1.00 30.54 LIG 0.19  C 
BRANCH 5 6
ATOM      6  CB  ASP E   2       3.530  -8.719 -13.034  1.00 32.40 LIG 0.15  C 
BRANCH 6 7
ATOM      7  CG  ASP E   2       4.886  -9.075 -13.601  1.00 34.09 LIG 0.17  C 
ATOM      8 OD2  ASP E   2       4.970  -9.331 -14.818  1.00 37.71 LIG-0.65  OA
ATOM      9 OD1  ASP E   2       5.874  -9.090 -12.834  1.00 36.77 LIG-0.65  OA
ENDBRANCH 6 7
ENDBRANCH 5 6
BRANCH 5 10
ATOM     10  C   ASP E   2       4.368  -6.387 -12.769  1.00 30.01 LIG 0.24  C 
ATOM     11 O    ASP E   2       4.007  -5.907 -13.844  1.00 27.94 LIG-0.27  OA
ATOM     12  N   LEU E   3       5.443  -5.984 -12.104  1.00 30.14 LIG-0.35  N 
ATOM     13 H    LEU E   3       5.685  -6.311 -11.347  1.00 30.14 LIG 0.16  HD
BRANCH 12 14
ATOM     14  CA  LEU E   3       6.318  -4.939 -12.604  1.00 30.90 LIG 0.18  C 
BRANCH 14 15
ATOM     15  C   LEU E   3       7.758  -5.450 -12.651  1.00 32.33 LIG 0.24  C 
ATOM     16 O    LEU E   3       8.572  -4.977 -13.453  1.00 31.45 LIG-0.27  OA
ATOM     17  N   ALA E   4       8.066  -6.392 -11.766  1.00 33.58 LIG-0.34  N 
ATOM     18 H    ALA E   4       7.502  -6.730 -11.211  1.00 33.58 LIG 0.16  HD
BRANCH 17 19
ATOM     19  CA  ALA E   4       9.416  -6.943 -11.656  1.00 35.71 LIG 0.18  C 
ATOM     20  CB  ALA E   4      10.384  -5.875 -11.174  1.00 36.03 LIG 0.04  C 
BRANCH 19 21
ATOM     21  C   ALA E   4       9.432  -8.133 -10.707  1.00 37.05 LIG 0.20  C 
ATOM     22 OXT  ALA E   4      10.435  -8.834 -10.599  1.00 36.72 LIG-0.65  OA
ATOM     23 O    ALA E   4       8.445  -8.418 -10.025  1.00 37.61 LIG-0.65  OA
ENDBRANCH 19 21
ENDBRANCH 17 19
ENDBRANCH 14 15
BRANCH 14 24
ATOM     24  CB  LEU E   3       6.204  -3.707 -11.705  1.00 30.03 LIG 0.04  C 
BRANCH 24 25
ATOM     25  CG  LEU E   3       7.293  -2.640 -11.749  1.00 29.85 LIG-0.02  C 
ATOM     26  CD1 LEU E   3       6.887  -1.444 -12.592  1.00 29.46 LIG 0.01  C 
ATOM     27  CD2 LEU E   3       7.614  -2.224 -10.323  1.00 29.65 LIG 0.01  C 
ENDBRANCH 24 25
ENDBRANCH 14 24
ENDBRANCH 12 14
ENDBRANCH 5 10
ENDBRANCH 3 5
BRANCH 1 28
ATOM     28  CA  LEU E   1       0.622  -5.280 -11.295  1.00 29.46 LIG 0.18  C 
BRANCH 28 29
ATOM     29  CB  LEU E   1       0.441  -4.303 -10.132  1.00 29.35 LIG 0.04  C 
BRANCH 29 30
ATOM     30  CG  LEU E   1      -0.998  -4.176  -9.613  1.00 30.22 LIG-0.02  C 
ATOM     31  CD2 LEU E   1      -1.352  -2.724  -9.323  1.00 31.32 LIG 0.01  C 
ATOM     32  CD1 LEU E   1      -1.214  -5.041  -8.384  1.00 30.06 LIG 0.01  C 
ENDBRANCH 29 30
ENDBRANCH 28 29
BRANCH 28 33
ATOM     33  N   LEU E   1      -0.254  -6.440 -11.159  1.00 28.73 LIG-0.35  N 
ATOM     34  C   GLN E   0      -1.039  -6.821 -12.161  1.00 28.95 LIG 0.24  C 
ATOM     35 O    GLN E   0      -1.167  -6.168 -13.194  1.00 30.73 LIG-0.27  OA
ATOM     36 H    LEU E   1      -0.213  -6.836 -10.396  1.00 28.73 LIG 0.16  HD
BRANCH 34 37
ATOM     37  CA  GLN E   0      -1.805  -8.122 -11.984  1.00 28.12 LIG 0.18  C 
BRANCH 37 38
ATOM     38  CB  GLN E   0      -3.303  -7.813 -11.873  1.00 27.70 LIG 0.04  C 
BRANCH 38 39
ATOM     39  CG  GLN E   0      -4.072  -7.859 -13.192  1.00 26.51 LIG 0.10  C 
BRANCH 39 40
ATOM     40  CD  GLN E   0      -3.238  -8.416 -14.330  1.00 26.51 LIG 0.21  C 
ATOM     41 OE1  GLN E   0      -2.546  -7.665 -15.027  1.00 26.66 LIG-0.27  OA
ATOM     42  NE2 GLN E   0      -3.291  -9.733 -14.527  1.00 24.64 LIG-0.37  N 
ATOM     43 22HE GLN E   0      -2.833 -10.092 -15.160  1.00 24.64 LIG 0.16  HD
ATOM     44 21HE GLN E   0      -3.785 -10.224 -14.022  1.00 24.64 LIG 0.16  HD
ENDBRANCH 39 40
ENDBRANCH 38 39
ENDBRANCH 37 38
BRANCH 37 45
ATOM     45  N   GLN E   0      -1.320  -8.835 -10.750  1.00 28.94 LIG-0.35  N 
ATOM     46  C   ACE E  -1      -0.229  -9.639 -10.743  1.00 29.25 LIG 0.21  C 
ATOM     47 O    ACE E  -1       0.683  -9.335 -11.519  1.00 28.69 LIG-0.27  OA
ATOM     48  CH3 ACE E  -1       0.205  -9.974  -9.326  1.00 29.73 LIG 0.12  C 
ATOM     49 H    GLN E   0      -1.799  -8.685 -10.051  1.00 28.94 LIG 0.16  HD
ENDBRANCH 37 45
ENDBRANCH 34 37
ENDBRANCH 28 33
ENDBRANCH 1 28
TORSDOF 19
ENDMDL
MODEL 96
USER: ADFR SOLUTION from run 91
USER: SCORE 13.118708 LL:  -4.205 LR: -11.056 RR:   0.000 FEB:  -5.388
USER: RMSD 4.533880
USER: SEED 90
USER: STATUS no improvement in best in 12 clusters for 5 generations
USER: GENES 21
USER: genes 0 Translation |==|  0.52866 0.51689 0.57894
USER: genes 1 Rotation |==|  0.63758 0.65253 0.43811 0.95163
USER: genes 2 Torsion [C]-N--CA-[CB] |==|  0.48333
USER: genes 3 Torsion [N]-CA--CB-[CG] |==|  0.05497
USER: genes 4 Torsion [CA]-CB--CG-[OD2] |==|  0.27679
USER: genes 5 Torsion [N]-CA--C-[N] |==|  0.25241
USER: genes 6 Torsion [C]-N--CA-[C] |==|  0.67612
USER: genes 7 Torsion [N]-CA--C-[N] |==|  0.45171
USER: genes 8 Torsion [C]-N--CA-[CB] |==|  0.30479
USER: genes 9 Torsion [N]-CA--C-[OXT] |==|  0.19292
USER: genes 10 Torsion [N]-CA--CB-[CG] |==|  0.58824
USER: genes 11 Torsion [CA]-CB--CG-[CD2] |==|  0.08190
USER: genes 12 Torsion [N]-C--CA-[N] |==|  0.00393
USER: genes 13 Torsion [C]-CA--CB-[CG] |==|  0.37500
USER: genes 14 Torsion [CA]-CB--CG-[CD2] |==|  0.20841
USER: genes 15 Torsion [C]-CA--N-[C] |==|  0.21881
USER: genes 16 Torsion [N]-C--CA-[N] |==|  0.11478
USER: genes 17 Torsion [C]-CA--CB-[CG] |==|  0.23170
USER: genes 18 Torsion [CA]-CB--CG-[CD] |==|  0.15919
USER: genes 19 Torsion [CB]-CG--CD-[OE1] |==|  0.82422
USER: genes 20 Torsion [C]-CA--N-[C] |==|  0.63153
ROOT
ATOM      1  C   LEU E   1       3.407  -5.488 -11.921  1.00 28.67 LIG 0.24  C 
ATOM      2 O    LEU E   1       4.189  -5.422 -10.967  1.00 26.53 LIG-0.27  OA
ATOM      3  N   ASP E   2       3.750  -5.965 -13.114  1.00 29.47 LIG-0.35  N 
ATOM      4 H    ASP E   2       3.195  -6.104 -13.756  1.00 29.47 LIG 0.16  HD
ENDROOT
BRANCH 3 5
ATOM      5  CA  ASP E   2       5.128  -6.297 -13.428  1.00 30.54 LIG 0.19  C 
BRANCH 5 6
ATOM      6  CB  ASP E   2       5.246  -6.963 -14.803  1.00 32.40 LIG 0.15  C 
BRANCH 6 7
ATOM      7  CG  ASP E   2       4.047  -6.693 -15.684  1.00 34.09 LIG 0.17  C 
ATOM      8 OD2  ASP E   2       4.140  -5.802 -16.550  1.00 37.71 LIG-0.65  OA
ATOM      9 OD1  ASP E   2       3.013  -7.377 -15.520  1.00 36.77 LIG-0.65  OA
ENDBRANCH 6 7
ENDBRANCH 5 6
BRANCH 5 10
ATOM     10  C   ASP E   2       5.920  -5.013 -13.405  1.00 30.01 LIG 0.24  C 
ATOM     11 O    ASP E   2       6.030  -4.324 -14.420  1.00 27.94 LIG-0.27  OA
ATOM     12  N   LEU E   3       6.461  -4.696 -12.236  1.00 30.14 LIG-0.35  N 
ATOM     13 H    LEU E   3       6.371  -5.172 -11.526  1.00 30.14 LIG 0.16  HD
BRANCH 12 14
ATOM     14  CA  LEU E   3       7.265  -3.502 -12.051  1.00 30.90 LIG 0.18  C 
BRANCH 14 15
ATOM     15  C   LEU E   3       8.694  -3.893 -11.675  1.00 32.33 LIG 0.24  C 
ATOM     16 O    LEU E   3       8.956  -5.038 -11.287  1.00 31.45 LIG-0.27  OA
ATOM     17  N   ALA E   4       9.612  -2.944 -11.826  1.00 33.58 LIG-0.34  N 
ATOM     18 H    ALA E   4       9.434  -2.144 -12.088  1.00 33.58 LIG 0.16  HD
BRANCH 17 19
ATOM     19  CA  ALA E   4      11.028  -3.183 -11.554  1.00 35.71 LIG 0.18  C 
ATOM     20  CB  ALA E   4      11.820  -3.191 -12.852  1.00 36.03 LIG 0.04  C 
BRANCH 19 21
ATOM     21  C   ALA E   4      11.578  -2.123 -10.611  1.00 37.05 LIG 0.20  C 
ATOM     22 OXT  ALA E   4      11.227  -2.089  -9.434  1.00 36.72 LIG-0.65  OA
ATOM     23 O    ALA E   4      12.387  -1.279 -11.002  1.00 37.61 LIG-0.65  OA
ENDBRANCH 19 21
ENDBRANCH 17 19
ENDBRANCH 14 15
BRANCH 14 24
ATOM     24  CB  LEU E   3       6.634  -2.628 -10.966  1.00 30.03 LIG 0.04  C 
BRANCH 24 25
ATOM     25  CG  LEU E   3       6.771  -1.111 -11.046  1.00 29.85 LIG-0.02  C 
ATOM     26  CD1 LEU E   3       7.964  -0.603 -10.256  1.00 29.46 LIG 0.01  C 
ATOM     27  CD2 LEU E   3       6.872  -0.715 -12.509  1.00 29.65 LIG 0.01  C 
ENDBRANCH 24 25
ENDBRANCH 14 24
ENDBRANCH 12 14
ENDBRANCH 5 10
ENDBRANCH 3 5
BRANCH 1 28
ATOM     28  CA  LEU E   1       1.966  -5.030 -11.781  1.00 29.46 LIG 0.18  C 
BRANCH 28 29
ATOM     29  CB  LEU E   1       1.286  -5.750 -10.615  1.00 29.35 LIG 0.04  C 
BRANCH 29 30
ATOM     30  CG  LEU E   1       0.453  -4.845  -9.696  1.00 30.22 LIG-0.02  C 
ATOM     31  CD2 LEU E   1      -0.862  -4.454 -10.355  1.00 31.32 LIG 0.01  C 
ATOM     32  CD1 LEU E   1       1.238  -3.614  -9.284  1.00 30.06 LIG 0.01  C 
ENDBRANCH 29 30
ENDBRANCH 28 29
BRANCH 28 33
ATOM     33  N   LEU E   1       1.262  -5.264 -13.038  1.00 28.73 LIG-0.35  N 
ATOM     34  C   GLN E   0       0.829  -6.478 -13.358  1.00 28.95 LIG 0.24  C 
ATOM     35 O    GLN E   0       1.093  -7.478 -12.695  1.00 30.73 LIG-0.27  OA
ATOM     36 H    LEU E   1       1.159  -4.566 -13.530  1.00 28.73 LIG 0.16  HD
BRANCH 34 37
ATOM     37  CA  GLN E   0      -0.022  -6.601 -14.612  1.00 28.12 LIG 0.18  C 
BRANCH 37 38
ATOM     38  CB  GLN E   0      -0.056  -8.070 -15.056  1.00 27.70 LIG 0.04  C 
BRANCH 38 39
ATOM     39  CG  GLN E   0      -1.092  -8.935 -14.343  1.00 26.51 LIG 0.10  C 
BRANCH 39 40
ATOM     40  CD  GLN E   0      -2.502  -8.396 -14.494  1.00 26.51 LIG 0.21  C 
ATOM     41 OE1  GLN E   0      -2.805  -7.292 -14.028  1.00 26.66 LIG-0.27  OA
ATOM     42  NE2 GLN E   0      -3.373  -9.164 -15.148  1.00 24.64 LIG-0.37  N 
ATOM     43 22HE GLN E   0      -4.183  -8.896 -15.259  1.00 24.64 LIG 0.16  HD
ATOM     44 21HE GLN E   0      -3.126  -9.927 -15.458  1.00 24.64 LIG 0.16  HD
ENDBRANCH 39 40
ENDBRANCH 38 39
ENDBRANCH 37 38
BRANCH 37 45
ATOM     45  N   GLN E   0       0.550  -5.734 -15.703  1.00 28.94 LIG-0.35  N 
ATOM     46  C   ACE E  -1      -0.208  -4.897 -16.452  1.00 29.25 LIG 0.21  C 
ATOM     47 O    ACE E  -1      -1.187  -4.394 -15.894  1.00 28.69 LIG-0.27  OA
ATOM     48  CH3 ACE E  -1       0.655  -3.934 -17.251  1.00 29.73 LIG 0.12  C 
ATOM     49 H    GLN E   0       1.399  -5.820 -15.805  1.00 28.94 LIG 0.16  HD
ENDBRANCH 37 45
ENDBRANCH 34 37
ENDBRANCH 28 33
ENDBRANCH 1 28
TORSDOF 19
ENDMDL
MODEL 97
USER: ADFR SOLUTION from run 7
USER: SCORE 13.028296 LL:  -3.633 LR: -11.050 RR:   0.000 FEB:  -5.383
USER: RMSD 10.809341
USER: SEED 210561
USER: STATUS no improvement in best in 26 clusters for 5 generations
USER: GENES 21
USER: genes 0 Translation |==|  0.48949 0.54168 0.64193
USER: genes 1 Rotation |==|  0.43131 0.16365 0.17747 0.66771
USER: genes 2 Torsion [C]-N--CA-[CB] |==|  0.19442
USER: genes 3 Torsion [N]-CA--CB-[CG] |==|  0.53389
USER: genes 4 Torsion [CA]-CB--CG-[OD2] |==|  0.48350
USER: genes 5 Torsion [N]-CA--C-[N] |==|  0.22963
USER: genes 6 Torsion [C]-N--CA-[C] |==|  0.61353
USER: genes 7 Torsion [N]-CA--C-[N] |==|  0.45692
USER: genes 8 Torsion [C]-N--CA-[CB] |==|  0.25489
USER: genes 9 Torsion [N]-CA--C-[OXT] |==|  0.52475
USER: genes 10 Torsion [N]-CA--CB-[CG] |==|  0.68377
USER: genes 11 Torsion [CA]-CB--CG-[CD2] |==|  0.18917
USER: genes 12 Torsion [N]-C--CA-[N] |==|  0.54443
USER: genes 13 Torsion [C]-CA--CB-[CG] |==|  0.26755
USER: genes 14 Torsion [CA]-CB--CG-[CD2] |==|  0.02150
USER: genes 15 Torsion [C]-CA--N-[C] |==|  0.60097
USER: genes 16 Torsion [N]-C--CA-[N] |==|  0.46411
USER: genes 17 Torsion [C]-CA--CB-[CG] |==|  0.44184
USER: genes 18 Torsion [CA]-CB--CG-[CD] |==|  0.51291
USER: genes 19 Torsion [CB]-CG--CD-[OE1] |==|  0.58673
USER: genes 20 Torsion [C]-CA--N-[C] |==|  0.61835
ROOT
ATOM      1  C   LEU E   1       2.525  -5.042 -10.882  1.00 28.67 LIG 0.24  C 
ATOM      2 O    LEU E   1       2.716  -4.014 -10.224  1.00 26.53 LIG-0.27  OA
ATOM      3  N   ASP E   2       1.391  -5.734 -10.841  1.00 29.47 LIG-0.35  N 
ATOM      4 H    ASP E   2       1.210  -6.394 -11.361  1.00 29.47 LIG 0.16  HD
ENDROOT
BRANCH 3 5
ATOM      5  CA  ASP E   2       0.344  -5.414  -9.886  1.00 30.54 LIG 0.19  C 
BRANCH 5 6
ATOM      6  CB  ASP E   2      -0.334  -4.083 -10.222  1.00 32.40 LIG 0.15  C 
BRANCH 6 7
ATOM      7  CG  ASP E   2      -1.214  -3.579  -9.100  1.00 34.09 LIG 0.17  C 
ATOM      8 OD2  ASP E   2      -1.729  -2.449  -9.214  1.00 37.71 LIG-0.65  OA
ATOM      9 OD1  ASP E   2      -1.401  -4.313  -8.105  1.00 36.77 LIG-0.65  OA
ENDBRANCH 6 7
ENDBRANCH 5 6
BRANCH 5 10
ATOM     10  C   ASP E   2      -0.665  -6.535  -9.929  1.00 30.01 LIG 0.24  C 
ATOM     11 O    ASP E   2      -1.687  -6.435 -10.610  1.00 27.94 LIG-0.27  OA
ATOM     12  N   LEU E   3      -0.364  -7.603  -9.203  1.00 30.14 LIG-0.35  N 
ATOM     13 H    LEU E   3       0.357  -7.675  -8.739  1.00 30.14 LIG 0.16  HD
BRANCH 12 14
ATOM     14  CA  LEU E   3      -1.238  -8.760  -9.124  1.00 30.90 LIG 0.18  C 
BRANCH 14 15
ATOM     15  C   LEU E   3      -1.280  -9.279  -7.687  1.00 32.33 LIG 0.24  C 
ATOM     16 O    LEU E   3      -0.450  -8.900  -6.852  1.00 31.45 LIG-0.27  OA
ATOM     17  N   ALA E   4      -2.271 -10.119  -7.404  1.00 33.58 LIG-0.34  N 
ATOM     18 H    ALA E   4      -2.845 -10.392  -7.984  1.00 33.58 LIG 0.16  HD
BRANCH 17 19
ATOM     19  CA  ALA E   4      -2.471 -10.661  -6.062  1.00 35.71 LIG 0.18  C 
ATOM     20  CB  ALA E   4      -3.422  -9.777  -5.272  1.00 36.03 LIG 0.04  C 
BRANCH 19 21
ATOM     21  C   ALA E   4      -3.013 -12.081  -6.134  1.00 37.05 LIG 0.20  C 
ATOM     22 OXT  ALA E   4      -3.402 -12.655  -5.119  1.00 36.72 LIG-0.65  OA
ATOM     23 O    ALA E   4      -3.077 -12.686  -7.206  1.00 37.61 LIG-0.65  OA
ENDBRANCH 19 21
ENDBRANCH 17 19
ENDBRANCH 14 15
BRANCH 14 24
ATOM     24  CB  LEU E   3      -0.735  -9.842 -10.081  1.00 30.03 LIG 0.04  C 
BRANCH 24 25
ATOM     25  CG  LEU E   3      -1.582 -10.233 -11.288  1.00 29.85 LIG-0.02  C 
ATOM     26  CD1 LEU E   3      -2.988 -10.645 -10.889  1.00 29.46 LIG 0.01  C 
ATOM     27  CD2 LEU E   3      -1.607  -9.062 -12.256  1.00 29.65 LIG 0.01  C 
ENDBRANCH 24 25
ENDBRANCH 14 24
ENDBRANCH 12 14
ENDBRANCH 5 10
ENDBRANCH 3 5
BRANCH 1 28
ATOM     28  CA  LEU E   1       3.597  -5.581 -11.812  1.00 29.46 LIG 0.18  C 
BRANCH 28 29
ATOM     29  CB  LEU E   1       3.665  -7.107 -11.724  1.00 29.35 LIG 0.04  C 
BRANCH 29 30
ATOM     30  CG  LEU E   1       2.872  -7.851 -12.809  1.00 30.22 LIG-0.02  C 
ATOM     31  CD2 LEU E   1       2.338  -6.887 -13.859  1.00 31.32 LIG 0.01  C 
ATOM     32  CD1 LEU E   1       1.745  -8.665 -12.199  1.00 30.06 LIG 0.01  C 
ENDBRANCH 29 30
ENDBRANCH 28 29
BRANCH 28 33
ATOM     33  N   LEU E   1       4.879  -4.970 -11.476  1.00 28.73 LIG-0.35  N 
ATOM     34  C   GLN E   0       5.756  -4.663 -12.426  1.00 28.95 LIG 0.24  C 
ATOM     35 O    GLN E   0       5.602  -4.978 -13.603  1.00 30.73 LIG-0.27  OA
ATOM     36 H    LEU E   1       5.005  -4.833 -10.636  1.00 28.73 LIG 0.16  HD
BRANCH 34 37
ATOM     37  CA  GLN E   0       6.998  -3.897 -12.001  1.00 28.12 LIG 0.18  C 
BRANCH 37 38
ATOM     38  CB  GLN E   0       6.605  -2.455 -11.652  1.00 27.70 LIG 0.04  C 
BRANCH 38 39
ATOM     39  CG  GLN E   0       7.594  -1.715 -10.755  1.00 26.51 LIG 0.10  C 
BRANCH 39 40
ATOM     40  CD  GLN E   0       7.098  -0.339 -10.354  1.00 26.51 LIG 0.21  C 
ATOM     41 OE1  GLN E   0       7.898   0.583 -10.155  1.00 26.66 LIG-0.27  OA
ATOM     42  NE2 GLN E   0       5.780  -0.185 -10.235  1.00 24.64 LIG-0.37  N 
ATOM     43 22HE GLN E   0       5.454   0.579 -10.012  1.00 24.64 LIG 0.16  HD
ATOM     44 21HE GLN E   0       5.255  -0.851 -10.381  1.00 24.64 LIG 0.16  HD
ENDBRANCH 39 40
ENDBRANCH 38 39
ENDBRANCH 37 38
BRANCH 37 45
ATOM     45  N   GLN E   0       8.012  -3.912 -13.114  1.00 28.94 LIG-0.35  N 
ATOM     46  C   ACE E  -1       9.335  -4.116 -12.902  1.00 29.25 LIG 0.21  C 
ATOM     47 O    ACE E  -1       9.634  -4.857 -11.962  1.00 28.69 LIG-0.27  OA
ATOM     48  CH3 ACE E  -1      10.070  -4.385 -14.205  1.00 29.73 LIG 0.12  C 
ATOM     49 H    GLN E   0       7.674  -3.779 -13.893  1.00 28.94 LIG 0.16  HD
ENDBRANCH 37 45
ENDBRANCH 34 37
ENDBRANCH 28 33
ENDBRANCH 1 28
TORSDOF 19
ENDMDL
MODEL 98
USER: ADFR SOLUTION from run 154
USER: SCORE 14.181865 LL:  -4.094 LR: -11.044 RR:   0.000 FEB:  -5.377
USER: RMSD 9.248226
USER: SEED 153
USER: STATUS no improvement in best in 10 clusters for 5 generations
USER: GENES 21
USER: genes 0 Translation |==|  0.29700 0.43886 0.52620
USER: genes 1 Rotation |==|  0.43637 0.18018 0.21567 0.75064
USER: genes 2 Torsion [C]-N--CA-[CB] |==|  0.50135
USER: genes 3 Torsion [N]-CA--CB-[CG] |==|  0.19056
USER: genes 4 Torsion [CA]-CB--CG-[OD2] |==|  0.88294
USER: genes 5 Torsion [N]-CA--C-[N] |==|  0.44855
USER: genes 6 Torsion [C]-N--CA-[C] |==|  0.18176
USER: genes 7 Torsion [N]-CA--C-[N] |==|  0.09228
USER: genes 8 Torsion [C]-N--CA-[CB] |==|  0.25350
USER: genes 9 Torsion [N]-CA--C-[OXT] |==|  0.29926
USER: genes 10 Torsion [N]-CA--CB-[CG] |==|  0.74060
USER: genes 11 Torsion [CA]-CB--CG-[CD2] |==|  0.30050
USER: genes 12 Torsion [N]-C--CA-[N] |==|  0.39117
USER: genes 13 Torsion [C]-CA--CB-[CG] |==|  0.86859
USER: genes 14 Torsion [CA]-CB--CG-[CD2] |==|  0.73638
USER: genes 15 Torsion [C]-CA--N-[C] |==|  0.57222
USER: genes 16 Torsion [N]-C--CA-[N] |==|  0.38868
USER: genes 17 Torsion [C]-CA--CB-[CG] |==|  0.36751
USER: genes 18 Torsion [CA]-CB--CG-[CD] |==|  0.48471
USER: genes 19 Torsion [CB]-CG--CD-[OE1] |==|  0.89681
USER: genes 20 Torsion [C]-CA--N-[C] |==|  0.81931
ROOT
ATOM      1  C   LEU E   1      -1.805  -6.892 -12.792  1.00 28.67 LIG 0.24  C 
ATOM      2 O    LEU E   1      -1.738  -5.824 -12.175  1.00 26.53 LIG-0.27  OA
ATOM      3  N   ASP E   2      -2.668  -7.857 -12.487  1.00 29.47 LIG-0.35  N 
ATOM      4 H    ASP E   2      -2.790  -8.563 -12.962  1.00 29.47 LIG 0.16  HD
ENDROOT
BRANCH 3 5
ATOM      5  CA  ASP E   2      -3.491  -7.786 -11.293  1.00 30.54 LIG 0.19  C 
BRANCH 5 6
ATOM      6  CB  ASP E   2      -4.391  -9.018 -11.157  1.00 32.40 LIG 0.15  C 
BRANCH 6 7
ATOM      7  CG  ASP E   2      -3.610 -10.279 -10.860  1.00 34.09 LIG 0.17  C 
ATOM      8 OD2  ASP E   2      -2.545 -10.473 -11.478  1.00 37.71 LIG-0.65  OA
ATOM      9 OD1  ASP E   2      -4.053 -11.075 -10.003  1.00 36.77 LIG-0.65  OA
ENDBRANCH 6 7
ENDBRANCH 5 6
BRANCH 5 10
ATOM     10  C   ASP E   2      -2.563  -7.690 -10.107  1.00 30.01 LIG 0.24  C 
ATOM     11 O    ASP E   2      -1.378  -8.011 -10.209  1.00 27.94 LIG-0.27  OA
ATOM     12  N   LEU E   3      -3.111  -7.239  -8.987  1.00 30.14 LIG-0.35  N 
ATOM     13 H    LEU E   3      -3.935  -7.003  -8.922  1.00 30.14 LIG 0.16  HD
BRANCH 12 14
ATOM     14  CA  LEU E   3      -2.357  -7.102  -7.754  1.00 30.90 LIG 0.18  C 
BRANCH 14 15
ATOM     15  C   LEU E   3      -1.275  -6.036  -7.925  1.00 32.33 LIG 0.24  C 
ATOM     16 O    LEU E   3      -0.179  -6.150  -7.364  1.00 31.45 LIG-0.27  OA
ATOM     17  N   ALA E   4      -1.584  -5.022  -8.729  1.00 33.58 LIG-0.34  N 
ATOM     18 H    ALA E   4      -2.348  -4.935  -9.115  1.00 33.58 LIG 0.16  HD
BRANCH 17 19
ATOM     19  CA  ALA E   4      -0.635  -3.953  -9.029  1.00 35.71 LIG 0.18  C 
ATOM     20  CB  ALA E   4       0.167  -4.293 -10.275  1.00 36.03 LIG 0.04  C 
BRANCH 19 21
ATOM     21  C   ALA E   4      -1.363  -2.630  -9.220  1.00 37.05 LIG 0.20  C 
ATOM     22 OXT  ALA E   4      -1.288  -1.745  -8.370  1.00 36.72 LIG-0.65  OA
ATOM     23 O    ALA E   4      -2.040  -2.414 -10.227  1.00 37.61 LIG-0.65  OA
ENDBRANCH 19 21
ENDBRANCH 17 19
ENDBRANCH 14 15
BRANCH 14 24
ATOM     24  CB  LEU E   3      -1.740  -8.452  -7.383  1.00 30.03 LIG 0.04  C 
BRANCH 24 25
ATOM     25  CG  LEU E   3      -2.489  -9.389  -6.440  1.00 29.85 LIG-0.02  C 
ATOM     26  CD1 LEU E   3      -3.613  -8.680  -5.706  1.00 29.46 LIG 0.01  C 
ATOM     27  CD2 LEU E   3      -3.015 -10.563  -7.249  1.00 29.65 LIG 0.01  C 
ENDBRANCH 24 25
ENDBRANCH 14 24
ENDBRANCH 12 14
ENDBRANCH 5 10
ENDBRANCH 3 5
BRANCH 1 28
ATOM     28  CA  LEU E   1      -0.894  -7.168 -13.974  1.00 29.46 LIG 0.18  C 
BRANCH 28 29
ATOM     29  CB  LEU E   1       0.454  -7.710 -13.497  1.00 29.35 LIG 0.04  C 
BRANCH 29 30
ATOM     30  CG  LEU E   1       1.093  -6.924 -12.342  1.00 30.22 LIG-0.02  C 
ATOM     31  CD2 LEU E   1       2.079  -5.888 -12.861  1.00 31.32 LIG 0.01  C 
ATOM     32  CD1 LEU E   1       1.762  -7.858 -11.350  1.00 30.06 LIG 0.01  C 
ENDBRANCH 29 30
ENDBRANCH 28 29
BRANCH 28 33
ATOM     33  N   LEU E   1      -0.733  -5.944 -14.754  1.00 28.73 LIG-0.35  N 
ATOM     34  C   GLN E   0      -0.442  -5.997 -16.049  1.00 28.95 LIG 0.24  C 
ATOM     35 O    GLN E   0      -0.177  -7.045 -16.632  1.00 30.73 LIG-0.27  OA
ATOM     36 H    LEU E   1      -0.840  -5.216 -14.309  1.00 28.73 LIG 0.16  HD
BRANCH 34 37
ATOM     37  CA  GLN E   0      -0.439  -4.682 -16.811  1.00 28.12 LIG 0.18  C 
BRANCH 37 38
ATOM     38  CB  GLN E   0      -1.773  -4.527 -17.554  1.00 27.70 LIG 0.04  C 
BRANCH 38 39
ATOM     39  CG  GLN E   0      -2.449  -3.168 -17.390  1.00 26.51 LIG 0.10  C 
BRANCH 39 40
ATOM     40  CD  GLN E   0      -3.691  -3.029 -18.251  1.00 26.51 LIG 0.21  C 
ATOM     41 OE1  GLN E   0      -3.725  -3.521 -19.385  1.00 26.66 LIG-0.27  OA
ATOM     42  NE2 GLN E   0      -4.718  -2.365 -17.724  1.00 24.64 LIG-0.37  N 
ATOM     43 22HE GLN E   0      -5.443  -2.264 -18.176  1.00 24.64 LIG 0.16  HD
ATOM     44 21HE GLN E   0      -4.656  -2.036 -16.931  1.00 24.64 LIG 0.16  HD
ENDBRANCH 39 40
ENDBRANCH 38 39
ENDBRANCH 37 38
BRANCH 37 45
ATOM     45  N   GLN E   0       0.711  -4.659 -17.782  1.00 28.94 LIG-0.35  N 
ATOM     46  C   ACE E  -1       2.008  -4.667 -17.389  1.00 29.25 LIG 0.21  C 
ATOM     47 O    ACE E  -1       2.263  -5.280 -16.348  1.00 28.69 LIG-0.27  OA
ATOM     48  CH3 ACE E  -1       2.941  -4.948 -18.556  1.00 29.73 LIG 0.12  C 
ATOM     49 H    GLN E   0       0.469  -4.639 -18.607  1.00 28.94 LIG 0.16  HD
ENDBRANCH 37 45
ENDBRANCH 34 37
ENDBRANCH 28 33
ENDBRANCH 1 28
TORSDOF 19
ENDMDL
MODEL 99
USER: ADFR SOLUTION from run 173
USER: SCORE 13.334987 LL:  -3.602 LR: -11.041 RR:   0.000 FEB:  -5.374
USER: RMSD 3.556439
USER: SEED 172
USER: STATUS no improvement in best in 8 clusters for 5 generations
USER: GENES 21
USER: genes 0 Translation |==|  0.50851 0.48475 0.52199
USER: genes 1 Rotation |==|  0.46042 0.48453 0.48267 0.99789
USER: genes 2 Torsion [C]-N--CA-[CB] |==|  0.48334
USER: genes 3 Torsion [N]-CA--CB-[CG] |==|  0.66278
USER: genes 4 Torsion [CA]-CB--CG-[OD2] |==|  0.17661
USER: genes 5 Torsion [N]-CA--C-[N] |==|  0.46288
USER: genes 6 Torsion [C]-N--CA-[C] |==|  0.54471
USER: genes 7 Torsion [N]-CA--C-[N] |==|  0.42909
USER: genes 8 Torsion [C]-N--CA-[CB] |==|  0.40295
USER: genes 9 Torsion [N]-CA--C-[OXT] |==|  0.57079
USER: genes 10 Torsion [N]-CA--CB-[CG] |==|  0.35826
USER: genes 11 Torsion [CA]-CB--CG-[CD2] |==|  0.78136
USER: genes 12 Torsion [N]-C--CA-[N] |==|  0.37715
USER: genes 13 Torsion [C]-CA--CB-[CG] |==|  0.53145
USER: genes 14 Torsion [CA]-CB--CG-[CD2] |==|  0.79858
USER: genes 15 Torsion [C]-CA--N-[C] |==|  0.82586
USER: genes 16 Torsion [N]-C--CA-[N] |==|  0.87666
USER: genes 17 Torsion [C]-CA--CB-[CG] |==|  0.10549
USER: genes 18 Torsion [CA]-CB--CG-[CD] |==|  0.66884
USER: genes 19 Torsion [CB]-CG--CD-[OE1] |==|  0.06971
USER: genes 20 Torsion [C]-CA--N-[C] |==|  0.66156
ROOT
ATOM      1  C   LEU E   1       2.953  -6.067 -12.861  1.00 28.67 LIG 0.24  C 
ATOM      2 O    LEU E   1       2.973  -5.162 -12.021  1.00 26.53 LIG-0.27  OA
ATOM      3  N   ASP E   2       3.947  -6.937 -13.020  1.00 29.47 LIG-0.35  N 
ATOM      4 H    ASP E   2       3.907  -7.625 -13.533  1.00 29.47 LIG 0.16  HD
ENDROOT
BRANCH 3 5
ATOM      5  CA  ASP E   2       5.207  -6.782 -12.316  1.00 30.54 LIG 0.19  C 
BRANCH 5 6
ATOM      6  CB  ASP E   2       6.130  -7.982 -12.548  1.00 32.40 LIG 0.15  C 
BRANCH 6 7
ATOM      7  CG  ASP E   2       6.521  -8.673 -11.260  1.00 34.09 LIG 0.17  C 
ATOM      8 OD2  ASP E   2       5.623  -9.209 -10.582  1.00 37.71 LIG-0.65  OA
ATOM      9 OD1  ASP E   2       7.726  -8.690 -10.927  1.00 36.77 LIG-0.65  OA
ENDBRANCH 6 7
ENDBRANCH 5 6
BRANCH 5 10
ATOM     10  C   ASP E   2       5.859  -5.521 -12.826  1.00 30.01 LIG 0.24  C 
ATOM     11 O    ASP E   2       5.442  -4.964 -13.842  1.00 27.94 LIG-0.27  OA
ATOM     12  N   LEU E   3       6.879  -5.074 -12.106  1.00 30.14 LIG-0.35  N 
ATOM     13 H    LEU E   3       7.160  -5.457 -11.388  1.00 30.14 LIG 0.16  HD
BRANCH 12 14
ATOM     14  CA  LEU E   3       7.624  -3.882 -12.470  1.00 30.90 LIG 0.18  C 
BRANCH 14 15
ATOM     15  C   LEU E   3       8.949  -3.848 -11.708  1.00 32.33 LIG 0.24  C 
ATOM     16 O    LEU E   3       9.081  -4.455 -10.639  1.00 31.45 LIG-0.27  OA
ATOM     17  N   ALA E   4       9.930  -3.160 -12.285  1.00 33.58 LIG-0.34  N 
ATOM     18 H    ALA E   4       9.840  -2.729 -13.024  1.00 33.58 LIG 0.16  HD
BRANCH 17 19
ATOM     19  CA  ALA E   4      11.267  -3.077 -11.702  1.00 35.71 LIG 0.18  C 
ATOM     20  CB  ALA E   4      12.320  -3.042 -12.798  1.00 36.03 LIG 0.04  C 
BRANCH 19 21
ATOM     21  C   ALA E   4      11.389  -1.844 -10.818  1.00 37.05 LIG 0.20  C 
ATOM     22 OXT  ALA E   4      12.485  -1.326 -10.614  1.00 36.72 LIG-0.65  OA
ATOM     23 O    ALA E   4      10.397  -1.336 -10.292  1.00 37.61 LIG-0.65  OA
ENDBRANCH 19 21
ENDBRANCH 17 19
ENDBRANCH 14 15
BRANCH 14 24
ATOM     24  CB  LEU E   3       6.783  -2.643 -12.159  1.00 30.03 LIG 0.04  C 
BRANCH 24 25
ATOM     25  CG  LEU E   3       7.388  -1.508 -11.340  1.00 29.85 LIG-0.02  C 
ATOM     26  CD1 LEU E   3       6.666  -0.192 -11.566  1.00 29.46 LIG 0.01  C 
ATOM     27  CD2 LEU E   3       7.359  -1.906  -9.874  1.00 29.65 LIG 0.01  C 
ENDBRANCH 24 25
ENDBRANCH 14 24
ENDBRANCH 12 14
ENDBRANCH 5 10
ENDBRANCH 3 5
BRANCH 1 28
ATOM     28  CA  LEU E   1       1.757  -6.253 -13.777  1.00 29.46 LIG 0.18  C 
BRANCH 28 29
ATOM     29  CB  LEU E   1       1.803  -5.250 -14.930  1.00 29.35 LIG 0.04  C 
BRANCH 29 30
ATOM     30  CG  LEU E   1       0.514  -5.162 -15.761  1.00 30.22 LIG-0.02  C 
ATOM     31  CD2 LEU E   1       0.338  -6.397 -16.635  1.00 31.32 LIG 0.01  C 
ATOM     32  CD1 LEU E   1       0.490  -3.898 -16.600  1.00 30.06 LIG 0.01  C 
ENDBRANCH 29 30
ENDBRANCH 28 29
BRANCH 28 33
ATOM     33  N   LEU E   1       0.529  -6.117 -12.998  1.00 28.73 LIG-0.35  N 
ATOM     34  C   GLN E   0       0.251  -6.964 -12.014  1.00 28.95 LIG 0.24  C 
ATOM     35 O    GLN E   0       0.928  -7.962 -11.781  1.00 30.73 LIG-0.27  OA
ATOM     36 H    LEU E   1       0.025  -5.460 -13.232  1.00 28.73 LIG 0.16  HD
BRANCH 34 37
ATOM     37  CA  GLN E   0      -0.971  -6.660 -11.163  1.00 28.12 LIG 0.18  C 
BRANCH 37 38
ATOM     38  CB  GLN E   0      -2.236  -7.048 -11.941  1.00 27.70 LIG 0.04  C 
BRANCH 38 39
ATOM     39  CG  GLN E   0      -2.115  -8.322 -12.775  1.00 26.51 LIG 0.10  C 
BRANCH 39 40
ATOM     40  CD  GLN E   0      -2.332  -8.070 -14.255  1.00 26.51 LIG 0.21  C 
ATOM     41 OE1  GLN E   0      -2.119  -6.952 -14.739  1.00 26.66 LIG-0.27  OA
ATOM     42  NE2 GLN E   0      -2.754  -9.101 -14.986  1.00 24.64 LIG-0.37  N 
ATOM     43 22HE GLN E   0      -2.887  -9.004 -15.830  1.00 24.64 LIG 0.16  HD
ATOM     44 21HE GLN E   0      -2.891  -9.864 -14.613  1.00 24.64 LIG 0.16  HD
ENDBRANCH 39 40
ENDBRANCH 38 39
ENDBRANCH 37 38
BRANCH 37 45
ATOM     45  N   GLN E   0      -0.996  -5.195 -10.813  1.00 28.94 LIG-0.35  N 
ATOM     46  C   ACE E  -1      -1.007  -4.743  -9.536  1.00 29.25 LIG 0.21  C 
ATOM     47 O    ACE E  -1      -0.409  -5.431  -8.704  1.00 28.69 LIG-0.27  OA
ATOM     48  CH3 ACE E  -1      -0.723  -3.251  -9.473  1.00 29.73 LIG 0.12  C 
ATOM     49 H    GLN E   0      -1.004  -4.675 -11.498  1.00 28.94 LIG 0.16  HD
ENDBRANCH 37 45
ENDBRANCH 34 37
ENDBRANCH 28 33
ENDBRANCH 1 28
TORSDOF 19
ENDMDL
MODEL 100
USER: ADFR SOLUTION from run 171
USER: SCORE 12.270728 LL:  -4.194 LR: -11.042 RR:   0.000 FEB:  -5.375
USER: RMSD 9.601119
USER: SEED 170
USER: STATUS no improvement in best in 16 clusters for 5 generations
USER: GENES 21
USER: genes 0 Translation |==|  0.30711 0.41901 0.51889
USER: genes 1 Rotation |==|  0.55800 0.07779 0.57961 0.74907
USER: genes 2 Torsion [C]-N--CA-[CB] |==|  0.33158
USER: genes 3 Torsion [N]-CA--CB-[CG] |==|  0.56813
USER: genes 4 Torsion [CA]-CB--CG-[OD2] |==|  0.36379
USER: genes 5 Torsion [N]-CA--C-[N] |==|  0.91110
USER: genes 6 Torsion [C]-N--CA-[C] |==|  0.16307
USER: genes 7 Torsion [N]-CA--C-[N] |==|  0.09188
USER: genes 8 Torsion [C]-N--CA-[CB] |==|  0.17212
USER: genes 9 Torsion [N]-CA--C-[OXT] |==|  0.05799
USER: genes 10 Torsion [N]-CA--CB-[CG] |==|  0.87994
USER: genes 11 Torsion [CA]-CB--CG-[CD2] |==|  0.80231
USER: genes 12 Torsion [N]-C--CA-[N] |==|  0.50104
USER: genes 13 Torsion [C]-CA--CB-[CG] |==|  0.42583
USER: genes 14 Torsion [CA]-CB--CG-[CD2] |==|  0.88746
USER: genes 15 Torsion [C]-CA--N-[C] |==|  0.72892
USER: genes 16 Torsion [N]-C--CA-[N] |==|  0.98181
USER: genes 17 Torsion [C]-CA--CB-[CG] |==|  0.88386
USER: genes 18 Torsion [CA]-CB--CG-[CD] |==|  0.84902
USER: genes 19 Torsion [CB]-CG--CD-[OE1] |==|  0.34693
USER: genes 20 Torsion [C]-CA--N-[C] |==|  0.51667
ROOT
ATOM      1  C   LEU E   1      -1.578  -7.250 -12.912  1.00 28.67 LIG 0.24  C 
ATOM      2 O    LEU E   1      -2.638  -6.921 -13.454  1.00 26.53 LIG-0.27  OA
ATOM      3  N   ASP E   2      -1.520  -7.853 -11.729  1.00 29.47 LIG-0.35  N 
ATOM      4 H    ASP E   2      -0.798  -8.171 -11.385  1.00 29.47 LIG 0.16  HD
ENDROOT
BRANCH 3 5
ATOM      5  CA  ASP E   2      -2.705  -8.025 -10.909  1.00 30.54 LIG 0.19  C 
BRANCH 5 6
ATOM      6  CB  ASP E   2      -2.999  -9.507 -10.651  1.00 32.40 LIG 0.15  C 
BRANCH 6 7
ATOM      7  CG  ASP E   2      -4.457  -9.765 -10.343  1.00 34.09 LIG 0.17  C 
ATOM      8 OD2  ASP E   2      -5.038 -10.679 -10.960  1.00 37.71 LIG-0.65  OA
ATOM      9 OD1  ASP E   2      -5.024  -9.062  -9.478  1.00 36.77 LIG-0.65  OA
ENDBRANCH 6 7
ENDBRANCH 5 6
BRANCH 5 10
ATOM     10  C   ASP E   2      -2.459  -7.312  -9.602  1.00 30.01 LIG 0.24  C 
ATOM     11 O    ASP E   2      -3.390  -6.796  -8.982  1.00 27.94 LIG-0.27  OA
ATOM     12  N   LEU E   3      -1.199  -7.296  -9.188  1.00 30.14 LIG-0.35  N 
ATOM     13 H    LEU E   3      -0.553  -7.669  -9.616  1.00 30.14 LIG 0.16  HD
BRANCH 12 14
ATOM     14  CA  LEU E   3      -0.794  -6.638  -7.959  1.00 30.90 LIG 0.18  C 
BRANCH 14 15
ATOM     15  C   LEU E   3      -1.549  -7.243  -6.776  1.00 32.33 LIG 0.24  C 
ATOM     16 O    LEU E   3      -1.888  -6.542  -5.815  1.00 31.45 LIG-0.27  OA
ATOM     17  N   ALA E   4      -1.834  -8.538  -6.873  1.00 33.58 LIG-0.34  N 
ATOM     18 H    ALA E   4      -1.594  -9.032  -7.535  1.00 33.58 LIG 0.16  HD
BRANCH 17 19
ATOM     19  CA  ALA E   4      -2.594  -9.245  -5.844  1.00 35.71 LIG 0.18  C 
ATOM     20  CB  ALA E   4      -3.988  -8.653  -5.717  1.00 36.03 LIG 0.04  C 
BRANCH 19 21
ATOM     21  C   ALA E   4      -2.682 -10.729  -6.170  1.00 37.05 LIG 0.20  C 
ATOM     22 OXT  ALA E   4      -1.874 -11.252  -6.934  1.00 36.72 LIG-0.65  OA
ATOM     23 O    ALA E   4      -3.561 -11.439  -5.676  1.00 37.61 LIG-0.65  OA
ENDBRANCH 19 21
ENDBRANCH 17 19
ENDBRANCH 14 15
BRANCH 14 24
ATOM     24  CB  LEU E   3      -1.068  -5.137  -8.072  1.00 30.03 LIG 0.04  C 
BRANCH 24 25
ATOM     25  CG  LEU E   3      -0.718  -4.403  -9.363  1.00 29.85 LIG-0.02  C 
ATOM     26  CD1 LEU E   3      -1.362  -3.030  -9.431  1.00 29.46 LIG 0.01  C 
ATOM     27  CD2 LEU E   3       0.795  -4.305  -9.464  1.00 29.65 LIG 0.01  C 
ENDBRANCH 24 25
ENDBRANCH 14 24
ENDBRANCH 12 14
ENDBRANCH 5 10
ENDBRANCH 3 5
BRANCH 1 28
ATOM     28  CA  LEU E   1      -0.244  -6.991 -13.590  1.00 29.46 LIG 0.18  C 
BRANCH 28 29
ATOM     29  CB  LEU E   1       0.668  -6.167 -12.681  1.00 29.35 LIG 0.04  C 
BRANCH 29 30
ATOM     30  CG  LEU E   1       2.171  -6.370 -12.919  1.00 30.22 LIG-0.02  C 
ATOM     31  CD2 LEU E   1       2.494  -7.837 -13.173  1.00 31.32 LIG 0.01  C 
ATOM     32  CD1 LEU E   1       2.987  -5.831 -11.758  1.00 30.06 LIG 0.01  C 
ENDBRANCH 29 30
ENDBRANCH 28 29
BRANCH 28 33
ATOM     33  N   LEU E   1      -0.475  -6.319 -14.866  1.00 28.73 LIG-0.35  N 
ATOM     34  C   GLN E   0      -0.501  -7.008 -16.002  1.00 28.95 LIG 0.24  C 
ATOM     35 O    GLN E   0      -0.220  -8.202 -16.065  1.00 30.73 LIG-0.27  OA
ATOM     36 H    LEU E   1      -0.587  -5.468 -14.811  1.00 28.73 LIG 0.16  HD
BRANCH 34 37
ATOM     37  CA  GLN E   0      -0.894  -6.252 -17.260  1.00 28.12 LIG 0.18  C 
BRANCH 37 38
ATOM     38  CB  GLN E   0       0.306  -6.207 -18.215  1.00 27.70 LIG 0.04  C 
BRANCH 38 39
ATOM     39  CG  GLN E   0       1.652  -5.930 -17.548  1.00 26.51 LIG 0.10  C 
BRANCH 39 40
ATOM     40  CD  GLN E   0       1.636  -4.664 -16.712  1.00 26.51 LIG 0.21  C 
ATOM     41 OE1  GLN E   0       1.963  -4.695 -15.521  1.00 26.66 LIG-0.27  OA
ATOM     42  NE2 GLN E   0       1.260  -3.542 -17.326  1.00 24.64 LIG-0.37  N 
ATOM     43 22HE GLN E   0       1.239  -2.801 -16.890  1.00 24.64 LIG 0.16  HD
ATOM     44 21HE GLN E   0       1.039  -3.560 -18.157  1.00 24.64 LIG 0.16  HD
ENDBRANCH 39 40
ENDBRANCH 38 39
ENDBRANCH 37 38
BRANCH 37 45
ATOM     45  N   GLN E   0      -1.335  -4.858 -16.901  1.00 28.94 LIG-0.35  N 
ATOM     46  C   ACE E  -1      -1.854  -3.993 -17.806  1.00 29.25 LIG 0.21  C 
ATOM     47 O    ACE E  -1      -2.511  -4.488 -18.726  1.00 28.69 LIG-0.27  OA
ATOM     48  CH3 ACE E  -1      -2.490  -2.792 -17.124  1.00 29.73 LIG 0.12  C 
ATOM     49 H    GLN E   0      -1.227  -4.663 -16.071  1.00 28.94 LIG 0.16  HD
ENDBRANCH 37 45
ENDBRANCH 34 37
ENDBRANCH 28 33
ENDBRANCH 1 28
TORSDOF 19
ENDMDL
MODEL 101
USER: ADFR SOLUTION from run 76
USER: SCORE 12.799002 LL:  -3.449 LR: -11.025 RR:   0.000 FEB:  -5.357
USER: RMSD 9.727123
USER: SEED 75
USER: STATUS no improvement in best in 14 clusters for 5 generations
USER: GENES 21
USER: genes 0 Translation |==|  0.65465 0.56323 0.52272
USER: genes 1 Rotation |==|  0.66144 0.03478 0.58228 0.52724
USER: genes 2 Torsion [C]-N--CA-[CB] |==|  0.46667
USER: genes 3 Torsion [N]-CA--CB-[CG] |==|  0.88531
USER: genes 4 Torsion [CA]-CB--CG-[OD2] |==|  0.90877
USER: genes 5 Torsion [N]-CA--C-[N] |==|  0.40054
USER: genes 6 Torsion [C]-N--CA-[C] |==|  0.84751
USER: genes 7 Torsion [N]-CA--C-[N] |==|  0.38196
USER: genes 8 Torsion [C]-N--CA-[CB] |==|  0.17245
USER: genes 9 Torsion [N]-CA--C-[OXT] |==|  0.58101
USER: genes 10 Torsion [N]-CA--CB-[CG] |==|  0.87039
USER: genes 11 Torsion [CA]-CB--CG-[CD2] |==|  0.80204
USER: genes 12 Torsion [N]-C--CA-[N] |==|  0.22783
USER: genes 13 Torsion [C]-CA--CB-[CG] |==|  0.37926
USER: genes 14 Torsion [CA]-CB--CG-[CD2] |==|  0.99068
USER: genes 15 Torsion [C]-CA--N-[C] |==|  0.67273
USER: genes 16 Torsion [N]-C--CA-[N] |==|  0.28539
USER: genes 17 Torsion [C]-CA--CB-[CG] |==|  0.71959
USER: genes 18 Torsion [CA]-CB--CG-[CD] |==|  0.24660
USER: genes 19 Torsion [CB]-CG--CD-[OE1] |==|  0.29572
USER: genes 20 Torsion [C]-CA--N-[C] |==|  0.76242
ROOT
ATOM      1  C   LEU E   1       6.242  -4.654 -12.849  1.00 28.67 LIG 0.24  C 
ATOM      2 O    LEU E   1       5.761  -4.434 -13.966  1.00 26.53 LIG-0.27  OA
ATOM      3  N   ASP E   2       5.897  -5.696 -12.099  1.00 29.47 LIG-0.35  N 
ATOM      4 H    ASP E   2       6.290  -5.912 -11.365  1.00 29.47 LIG 0.16  HD
ENDROOT
BRANCH 3 5
ATOM      5  CA  ASP E   2       4.801  -6.570 -12.476  1.00 30.54 LIG 0.19  C 
BRANCH 5 6
ATOM      6  CB  ASP E   2       4.785  -7.848 -11.631  1.00 32.40 LIG 0.15  C 
BRANCH 6 7
ATOM      7  CG  ASP E   2       6.170  -8.414 -11.406  1.00 34.09 LIG 0.17  C 
ATOM      8 OD2  ASP E   2       7.020  -8.272 -12.307  1.00 37.71 LIG-0.65  OA
ATOM      9 OD1  ASP E   2       6.416  -8.993 -10.325  1.00 36.77 LIG-0.65  OA
ENDBRANCH 6 7
ENDBRANCH 5 6
BRANCH 5 10
ATOM     10  C   ASP E   2       3.519  -5.801 -12.276  1.00 30.01 LIG 0.24  C 
ATOM     11 O    ASP E   2       3.402  -5.004 -11.345  1.00 27.94 LIG-0.27  OA
ATOM     12  N   LEU E   3       2.563  -6.043 -13.164  1.00 30.14 LIG-0.35  N 
ATOM     13 H    LEU E   3       2.652  -6.590 -13.821  1.00 30.14 LIG 0.16  HD
BRANCH 12 14
ATOM     14  CA  LEU E   3       1.265  -5.397 -13.102  1.00 30.90 LIG 0.18  C 
BRANCH 14 15
ATOM     15  C   LEU E   3       0.636  -5.631 -11.729  1.00 32.33 LIG 0.24  C 
ATOM     16 O    LEU E   3       0.717  -6.734 -11.174  1.00 31.45 LIG-0.27  OA
ATOM     17  N   ALA E   4       0.038  -4.578 -11.179  1.00 33.58 LIG-0.34  N 
ATOM     18 H    ALA E   4      -0.028  -3.812 -11.564  1.00 33.58 LIG 0.16  HD
BRANCH 17 19
ATOM     19  CA  ALA E   4      -0.565  -4.635  -9.849  1.00 35.71 LIG 0.18  C 
ATOM     20  CB  ALA E   4       0.493  -4.942  -8.802  1.00 36.03 LIG 0.04  C 
BRANCH 19 21
ATOM     21  C   ALA E   4      -1.261  -3.321  -9.522  1.00 37.05 LIG 0.20  C 
ATOM     22 OXT  ALA E   4      -1.360  -2.937  -8.359  1.00 36.72 LIG-0.65  OA
ATOM     23 O    ALA E   4      -1.737  -2.613 -10.412  1.00 37.61 LIG-0.65  OA
ENDBRANCH 19 21
ENDBRANCH 17 19
ENDBRANCH 14 15
BRANCH 14 24
ATOM     24  CB  LEU E   3       0.371  -5.946 -14.214  1.00 30.03 LIG 0.04  C 
BRANCH 24 25
ATOM     25  CG  LEU E   3       0.922  -6.072 -15.631  1.00 29.85 LIG-0.02  C 
ATOM     26  CD1 LEU E   3       0.042  -6.942 -16.511  1.00 29.46 LIG 0.01  C 
ATOM     27  CD2 LEU E   3       1.071  -4.676 -16.213  1.00 29.65 LIG 0.01  C 
ENDBRANCH 24 25
ENDBRANCH 14 24
ENDBRANCH 12 14
ENDBRANCH 5 10
ENDBRANCH 3 5
BRANCH 1 28
ATOM     28  CA  LEU E   1       7.293  -3.731 -12.259  1.00 29.46 LIG 0.18  C 
BRANCH 28 29
ATOM     29  CB  LEU E   1       7.166  -2.326 -12.850  1.00 29.35 LIG 0.04  C 
BRANCH 29 30
ATOM     30  CG  LEU E   1       7.285  -1.184 -11.830  1.00 30.22 LIG-0.02  C 
ATOM     31  CD2 LEU E   1       7.426  -1.724 -10.413  1.00 31.32 LIG 0.01  C 
ATOM     32  CD1 LEU E   1       6.104  -0.236 -11.931  1.00 30.06 LIG 0.01  C 
ENDBRANCH 29 30
ENDBRANCH 28 29
BRANCH 28 33
ATOM     33  N   LEU E   1       8.618  -4.294 -12.500  1.00 28.73 LIG-0.35  N 
ATOM     34  C   GLN E   0       9.404  -4.641 -11.486  1.00 28.95 LIG 0.24  C 
ATOM     35 O    GLN E   0       9.125  -4.404 -10.314  1.00 30.73 LIG-0.27  OA
ATOM     36 H    LEU E   1       8.831  -4.375 -13.329  1.00 28.73 LIG 0.16  HD
BRANCH 34 37
ATOM     37  CA  GLN E   0      10.702  -5.354 -11.829  1.00 28.12 LIG 0.18  C 
BRANCH 37 38
ATOM     38  CB  GLN E   0      10.898  -6.534 -10.868  1.00 27.70 LIG 0.04  C 
BRANCH 38 39
ATOM     39  CG  GLN E   0      11.878  -6.279  -9.726  1.00 26.51 LIG 0.10  C 
BRANCH 39 40
ATOM     40  CD  GLN E   0      11.205  -5.681  -8.505  1.00 26.51 LIG 0.21  C 
ATOM     41 OE1  GLN E   0      11.013  -6.367  -7.495  1.00 26.66 LIG-0.27  OA
ATOM     42  NE2 GLN E   0      10.843  -4.401  -8.584  1.00 24.64 LIG-0.37  N 
ATOM     43 22HE GLN E   0      10.460  -4.020  -7.914  1.00 24.64 LIG 0.16  HD
ATOM     44 21HE GLN E   0      10.993  -3.956  -9.304  1.00 24.64 LIG 0.16  HD
ENDBRANCH 39 40
ENDBRANCH 38 39
ENDBRANCH 37 38
BRANCH 37 45
ATOM     45  N   GLN E   0      11.855  -4.391 -11.724  1.00 28.94 LIG-0.35  N 
ATOM     46  C   ACE E  -1      12.229  -3.575 -12.740  1.00 29.25 LIG 0.21  C 
ATOM     47 O    ACE E  -1      11.329  -3.176 -13.485  1.00 28.69 LIG-0.27  OA
ATOM     48  CH3 ACE E  -1      13.204  -2.510 -12.266  1.00 29.73 LIG 0.12  C 
ATOM     49 H    GLN E   0      12.253  -4.408 -10.962  1.00 28.94 LIG 0.16  HD
ENDBRANCH 37 45
ENDBRANCH 34 37
ENDBRANCH 28 33
ENDBRANCH 1 28
TORSDOF 19
ENDMDL
MODEL 102
USER: ADFR SOLUTION from run 161
USER: SCORE 13.173594 LL:  -3.743 LR: -11.027 RR:   0.000 FEB:  -5.360
USER: RMSD 10.241521
USER: SEED 160
USER: STATUS no improvement in best in 32 clusters for 5 generations
USER: GENES 21
USER: genes 0 Translation |==|  0.42375 0.46105 0.62022
USER: genes 1 Rotation |==|  0.29967 0.15267 0.34215 0.75360
USER: genes 2 Torsion [C]-N--CA-[CB] |==|  0.19233
USER: genes 3 Torsion [N]-CA--CB-[CG] |==|  0.63098
USER: genes 4 Torsion [CA]-CB--CG-[OD2] |==|  0.56563
USER: genes 5 Torsion [N]-CA--C-[N] |==|  0.88131
USER: genes 6 Torsion [C]-N--CA-[C] |==|  0.65088
USER: genes 7 Torsion [N]-CA--C-[N] |==|  0.52174
USER: genes 8 Torsion [C]-N--CA-[CB] |==|  0.18896
USER: genes 9 Torsion [N]-CA--C-[OXT] |==|  0.92401
USER: genes 10 Torsion [N]-CA--CB-[CG] |==|  0.77946
USER: genes 11 Torsion [CA]-CB--CG-[CD2] |==|  0.18966
USER: genes 12 Torsion [N]-C--CA-[N] |==|  0.40556
USER: genes 13 Torsion [C]-CA--CB-[CG] |==|  0.75502
USER: genes 14 Torsion [CA]-CB--CG-[CD2] |==|  0.55646
USER: genes 15 Torsion [C]-CA--N-[C] |==|  0.84180
USER: genes 16 Torsion [N]-C--CA-[N] |==|  0.15191
USER: genes 17 Torsion [C]-CA--CB-[CG] |==|  0.42600
USER: genes 18 Torsion [CA]-CB--CG-[CD] |==|  0.00818
USER: genes 19 Torsion [CB]-CG--CD-[OE1] |==|  0.78470
USER: genes 20 Torsion [C]-CA--N-[C] |==|  0.74985
ROOT
ATOM      1  C   LEU E   1       1.046  -6.493 -11.240  1.00 28.67 LIG 0.24  C 
ATOM      2 O    LEU E   1       1.273  -5.302 -11.477  1.00 26.53 LIG-0.27  OA
ATOM      3  N   ASP E   2       0.369  -6.909 -10.174  1.00 29.47 LIG-0.35  N 
ATOM      4 H    ASP E   2       0.125  -7.723 -10.047  1.00 29.47 LIG 0.16  HD
ENDROOT
BRANCH 3 5
ATOM      5  CA  ASP E   2      -0.016  -5.991  -9.118  1.00 30.54 LIG 0.19  C 
BRANCH 5 6
ATOM      6  CB  ASP E   2      -1.093  -5.010  -9.593  1.00 32.40 LIG 0.15  C 
BRANCH 6 7
ATOM      7  CG  ASP E   2      -0.783  -3.579  -9.217  1.00 34.09 LIG 0.17  C 
ATOM      8 OD2  ASP E   2      -1.729  -2.771  -9.132  1.00 37.71 LIG-0.65  OA
ATOM      9 OD1  ASP E   2       0.406  -3.258  -8.996  1.00 36.77 LIG-0.65  OA
ENDBRANCH 6 7
ENDBRANCH 5 6
BRANCH 5 10
ATOM     10  C   ASP E   2      -0.539  -6.817  -7.968  1.00 30.01 LIG 0.24  C 
ATOM     11 O    ASP E   2      -0.233  -6.544  -6.807  1.00 27.94 LIG-0.27  OA
ATOM     12  N   LEU E   3      -1.337  -7.822  -8.304  1.00 30.14 LIG-0.35  N 
ATOM     13 H    LEU E   3      -1.561  -8.002  -9.114  1.00 30.14 LIG 0.16  HD
BRANCH 12 14
ATOM     14  CA  LEU E   3      -1.911  -8.719  -7.318  1.00 30.90 LIG 0.18  C 
BRANCH 14 15
ATOM     15  C   LEU E   3      -1.576 -10.166  -7.679  1.00 32.33 LIG 0.24  C 
ATOM     16 O    LEU E   3      -0.769 -10.424  -8.580  1.00 31.45 LIG-0.27  OA
ATOM     17  N   ALA E   4      -2.177 -11.100  -6.947  1.00 33.58 LIG-0.34  N 
ATOM     18 H    ALA E   4      -2.745 -10.926  -6.325  1.00 33.58 LIG 0.16  HD
BRANCH 17 19
ATOM     19  CA  ALA E   4      -1.919 -12.525  -7.142  1.00 35.71 LIG 0.18  C 
ATOM     20  CB  ALA E   4      -0.498 -12.866  -6.721  1.00 36.03 LIG 0.04  C 
BRANCH 19 21
ATOM     21  C   ALA E   4      -2.915 -13.361  -6.351  1.00 37.05 LIG 0.20  C 
ATOM     22 OXT  ALA E   4      -3.432 -12.918  -5.328  1.00 36.72 LIG-0.65  OA
ATOM     23 O    ALA E   4      -3.227 -14.496  -6.718  1.00 37.61 LIG-0.65  OA
ENDBRANCH 19 21
ENDBRANCH 17 19
ENDBRANCH 14 15
BRANCH 14 24
ATOM     24  CB  LEU E   3      -3.425  -8.508  -7.259  1.00 30.03 LIG 0.04  C 
BRANCH 24 25
ATOM     25  CG  LEU E   3      -3.991  -7.324  -6.480  1.00 29.85 LIG-0.02  C 
ATOM     26  CD1 LEU E   3      -3.504  -7.301  -5.042  1.00 29.46 LIG 0.01  C 
ATOM     27  CD2 LEU E   3      -3.612  -6.046  -7.209  1.00 29.65 LIG 0.01  C 
ENDBRANCH 24 25
ENDBRANCH 14 24
ENDBRANCH 12 14
ENDBRANCH 5 10
ENDBRANCH 3 5
BRANCH 1 28
ATOM     28  CA  LEU E   1       1.527  -7.580 -12.186  1.00 29.46 LIG 0.18  C 
BRANCH 28 29
ATOM     29  CB  LEU E   1       2.931  -8.046 -11.796  1.00 29.35 LIG 0.04  C 
BRANCH 29 30
ATOM     30  CG  LEU E   1       4.076  -7.245 -12.432  1.00 30.22 LIG-0.02  C 
ATOM     31  CD2 LEU E   1       5.377  -8.036 -12.414  1.00 31.32 LIG 0.01  C 
ATOM     32  CD1 LEU E   1       4.251  -5.903 -11.744  1.00 30.06 LIG 0.01  C 
ENDBRANCH 29 30
ENDBRANCH 28 29
BRANCH 28 33
ATOM     33  N   LEU E   1       1.492  -7.077 -13.556  1.00 28.73 LIG-0.35  N 
ATOM     34  C   GLN E   0       0.364  -6.612 -14.080  1.00 28.95 LIG 0.24  C 
ATOM     35 O    GLN E   0      -0.719  -6.686 -13.506  1.00 30.73 LIG-0.27  OA
ATOM     36 H    LEU E   1       2.244  -7.110 -13.972  1.00 28.73 LIG 0.16  HD
BRANCH 34 37
ATOM     37  CA  GLN E   0       0.453  -5.973 -15.457  1.00 28.12 LIG 0.18  C 
BRANCH 37 38
ATOM     38  CB  GLN E   0      -0.957  -5.595 -15.928  1.00 27.70 LIG 0.04  C 
BRANCH 38 39
ATOM     39  CG  GLN E   0      -1.017  -4.433 -16.917  1.00 26.51 LIG 0.10  C 
BRANCH 39 40
ATOM     40  CD  GLN E   0       0.360  -3.921 -17.296  1.00 26.51 LIG 0.21  C 
ATOM     41 OE1  GLN E   0       0.994  -3.195 -16.523  1.00 26.66 LIG-0.27  OA
ATOM     42  NE2 GLN E   0       0.836  -4.296 -18.483  1.00 24.64 LIG-0.37  N 
ATOM     43 22HE GLN E   0       1.614  -4.031 -18.738  1.00 24.64 LIG 0.16  HD
ATOM     44 21HE GLN E   0       0.365  -4.802 -18.995  1.00 24.64 LIG 0.16  HD
ENDBRANCH 39 40
ENDBRANCH 38 39
ENDBRANCH 37 38
BRANCH 37 45
ATOM     45  N   GLN E   0       1.092  -6.934 -16.424  1.00 28.94 LIG-0.35  N 
ATOM     46  C   ACE E  -1       2.429  -6.984 -16.638  1.00 29.25 LIG 0.21  C 
ATOM     47 O    ACE E  -1       3.151  -6.713 -15.674  1.00 28.69 LIG-0.27  OA
ATOM     48  CH3 ACE E  -1       2.821  -8.230 -17.416  1.00 29.73 LIG 0.12  C 
ATOM     49 H    GLN E   0       0.531  -7.446 -16.827  1.00 28.94 LIG 0.16  HD
ENDBRANCH 37 45
ENDBRANCH 34 37
ENDBRANCH 28 33
ENDBRANCH 1 28
TORSDOF 19
ENDMDL
MODEL 103
USER: ADFR SOLUTION from run 11
USER: SCORE 11.884495 LL:  -3.798 LR: -11.028 RR:   0.000 FEB:  -5.360
USER: RMSD 10.514442
USER: SEED 499758
USER: STATUS no improvement in best in 17 clusters for 5 generations
USER: GENES 21
USER: genes 0 Translation |==|  0.32690 0.44824 0.60591
USER: genes 1 Rotation |==|  0.52603 0.12286 0.21594 0.66249
USER: genes 2 Torsion [C]-N--CA-[CB] |==|  0.38706
USER: genes 3 Torsion [N]-CA--CB-[CG] |==|  0.99848
USER: genes 4 Torsion [CA]-CB--CG-[OD2] |==|  0.21551
USER: genes 5 Torsion [N]-CA--C-[N] |==|  0.09372
USER: genes 6 Torsion [C]-N--CA-[C] |==|  0.16345
USER: genes 7 Torsion [N]-CA--C-[N] |==|  0.53891
USER: genes 8 Torsion [C]-N--CA-[CB] |==|  0.24828
USER: genes 9 Torsion [N]-CA--C-[OXT] |==|  0.91743
USER: genes 10 Torsion [N]-CA--CB-[CG] |==|  0.81254
USER: genes 11 Torsion [CA]-CB--CG-[CD2] |==|  0.26399
USER: genes 12 Torsion [N]-C--CA-[N] |==|  0.28273
USER: genes 13 Torsion [C]-CA--CB-[CG] |==|  0.69943
USER: genes 14 Torsion [CA]-CB--CG-[CD2] |==|  0.69714
USER: genes 15 Torsion [C]-CA--N-[C] |==|  0.71415
USER: genes 16 Torsion [N]-C--CA-[N] |==|  0.34025
USER: genes 17 Torsion [C]-CA--CB-[CG] |==|  0.47713
USER: genes 18 Torsion [CA]-CB--CG-[CD] |==|  0.80880
USER: genes 19 Torsion [CB]-CG--CD-[OE1] |==|  0.10631
USER: genes 20 Torsion [C]-CA--N-[C] |==|  0.75473
ROOT
ATOM      1  C   LEU E   1      -1.133  -6.724 -11.476  1.00 28.67 LIG 0.24  C 
ATOM      2 O    LEU E   1      -1.459  -5.666 -10.929  1.00 26.53 LIG-0.27  OA
ATOM      3  N   ASP E   2      -1.970  -7.741 -11.657  1.00 29.47 LIG-0.35  N 
ATOM      4 H    ASP E   2      -1.784  -8.442 -12.117  1.00 29.47 LIG 0.16  HD
ENDROOT
BRANCH 3 5
ATOM      5  CA  ASP E   2      -3.299  -7.738 -11.071  1.00 30.54 LIG 0.19  C 
BRANCH 5 6
ATOM      6  CB  ASP E   2      -4.342  -8.296 -12.045  1.00 32.40 LIG 0.15  C 
BRANCH 6 7
ATOM      7  CG  ASP E   2      -3.741  -8.698 -13.374  1.00 34.09 LIG 0.17  C 
ATOM      8 OD2  ASP E   2      -3.118  -9.776 -13.438  1.00 37.71 LIG-0.65  OA
ATOM      9 OD1  ASP E   2      -3.897  -7.943 -14.358  1.00 36.77 LIG-0.65  OA
ENDBRANCH 6 7
ENDBRANCH 5 6
BRANCH 5 10
ATOM     10  C   ASP E   2      -3.247  -8.589  -9.826  1.00 30.01 LIG 0.24  C 
ATOM     11 O    ASP E   2      -4.218  -9.266  -9.486  1.00 27.94 LIG-0.27  OA
ATOM     12  N   LEU E   3      -2.102  -8.553  -9.157  1.00 30.14 LIG-0.35  N 
ATOM     13 H    LEU E   3      -1.421  -8.090  -9.405  1.00 30.14 LIG 0.16  HD
BRANCH 12 14
ATOM     14  CA  LEU E   3      -1.896  -9.302  -7.931  1.00 30.90 LIG 0.18  C 
BRANCH 14 15
ATOM     15  C   LEU E   3      -2.103 -10.793  -8.196  1.00 32.33 LIG 0.24  C 
ATOM     16 O    LEU E   3      -2.117 -11.236  -9.350  1.00 31.45 LIG-0.27  OA
ATOM     17  N   ALA E   4      -2.230 -11.560  -7.116  1.00 33.58 LIG-0.34  N 
ATOM     18 H    ALA E   4      -2.229 -11.255  -6.312  1.00 33.58 LIG 0.16  HD
BRANCH 17 19
ATOM     19  CA  ALA E   4      -2.385 -13.010  -7.208  1.00 35.71 LIG 0.18  C 
ATOM     20  CB  ALA E   4      -1.024 -13.688  -7.199  1.00 36.03 LIG 0.04  C 
BRANCH 19 21
ATOM     21  C   ALA E   4      -3.237 -13.530  -6.059  1.00 37.05 LIG 0.20  C 
ATOM     22 OXT  ALA E   4      -3.245 -12.953  -4.974  1.00 36.72 LIG-0.65  OA
ATOM     23 O    ALA E   4      -3.938 -14.536  -6.189  1.00 37.61 LIG-0.65  OA
ENDBRANCH 19 21
ENDBRANCH 17 19
ENDBRANCH 14 15
BRANCH 14 24
ATOM     24  CB  LEU E   3      -2.862  -8.798  -6.859  1.00 30.03 LIG 0.04  C 
BRANCH 24 25
ATOM     25  CG  LEU E   3      -2.696  -7.389  -6.297  1.00 29.85 LIG-0.02  C 
ATOM     26  CD1 LEU E   3      -1.255  -6.917  -6.357  1.00 29.46 LIG 0.01  C 
ATOM     27  CD2 LEU E   3      -3.613  -6.454  -7.068  1.00 29.65 LIG 0.01  C 
ENDBRANCH 24 25
ENDBRANCH 14 24
ENDBRANCH 12 14
ENDBRANCH 5 10
ENDBRANCH 3 5
BRANCH 1 28
ATOM     28  CA  LEU E   1       0.277  -6.925 -12.003  1.00 29.46 LIG 0.18  C 
BRANCH 28 29
ATOM     29  CB  LEU E   1       1.306  -6.453 -10.975  1.00 29.35 LIG 0.04  C 
BRANCH 29 30
ATOM     30  CG  LEU E   1       2.037  -5.154 -11.344  1.00 30.22 LIG-0.02  C 
ATOM     31  CD2 LEU E   1       3.490  -5.424 -11.706  1.00 31.32 LIG 0.01  C 
ATOM     32  CD1 LEU E   1       1.940  -4.136 -10.222  1.00 30.06 LIG 0.01  C 
ENDBRANCH 29 30
ENDBRANCH 28 29
BRANCH 28 33
ATOM     33  N   LEU E   1       0.424  -6.216 -13.271  1.00 28.73 LIG-0.35  N 
ATOM     34  C   GLN E   0       0.399  -6.873 -14.425  1.00 28.95 LIG 0.24  C 
ATOM     35 O    GLN E   0       0.375  -8.099 -14.494  1.00 30.73 LIG-0.27  OA
ATOM     36 H    LEU E   1       0.524  -5.364 -13.198  1.00 28.73 LIG 0.16  HD
BRANCH 34 37
ATOM     37  CA  GLN E   0       0.410  -6.040 -15.696  1.00 28.12 LIG 0.18  C 
BRANCH 37 38
ATOM     38  CB  GLN E   0      -0.902  -6.269 -16.459  1.00 27.70 LIG 0.04  C 
BRANCH 38 39
ATOM     39  CG  GLN E   0      -1.120  -5.348 -17.658  1.00 26.51 LIG 0.10  C 
BRANCH 39 40
ATOM     40  CD  GLN E   0      -1.359  -3.907 -17.248  1.00 26.51 LIG 0.21  C 
ATOM     41 OE1  GLN E   0      -0.735  -3.412 -16.303  1.00 26.66 LIG-0.27  OA
ATOM     42  NE2 GLN E   0      -2.259  -3.223 -17.953  1.00 24.64 LIG-0.37  N 
ATOM     43 22HE GLN E   0      -2.424  -2.402 -17.757  1.00 24.64 LIG 0.16  HD
ATOM     44 21HE GLN E   0      -2.674  -3.601 -18.604  1.00 24.64 LIG 0.16  HD
ENDBRANCH 39 40
ENDBRANCH 38 39
ENDBRANCH 37 38
BRANCH 37 45
ATOM     45  N   GLN E   0       1.589  -6.427 -16.548  1.00 28.94 LIG-0.35  N 
ATOM     46  C   ACE E  -1       2.810  -5.852 -16.422  1.00 29.25 LIG 0.21  C 
ATOM     47 O    ACE E  -1       3.130  -5.485 -15.288  1.00 28.69 LIG-0.27  OA
ATOM     48  CH3 ACE E  -1       3.873  -6.633 -17.178  1.00 29.73 LIG 0.12  C 
ATOM     49 H    GLN E   0       1.416  -7.044 -17.121  1.00 28.94 LIG 0.16  HD
ENDBRANCH 37 45
ENDBRANCH 34 37
ENDBRANCH 28 33
ENDBRANCH 1 28
TORSDOF 19
ENDMDL
MODEL 104
USER: ADFR SOLUTION from run 182
USER: SCORE 13.412292 LL:  -3.663 LR: -11.030 RR:   0.000 FEB:  -5.363
USER: RMSD 10.428009
USER: SEED 181
USER: STATUS no improvement in best in 14 clusters for 5 generations
USER: GENES 21
USER: genes 0 Translation |==|  0.39122 0.47654 0.57740
USER: genes 1 Rotation |==|  0.50216 0.98758 0.40442 0.55591
USER: genes 2 Torsion [C]-N--CA-[CB] |==|  0.21176
USER: genes 3 Torsion [N]-CA--CB-[CG] |==|  0.56957
USER: genes 4 Torsion [CA]-CB--CG-[OD2] |==|  0.31039
USER: genes 5 Torsion [N]-CA--C-[N] |==|  0.96692
USER: genes 6 Torsion [C]-N--CA-[C] |==|  0.51291
USER: genes 7 Torsion [N]-CA--C-[N] |==|  0.36210
USER: genes 8 Torsion [C]-N--CA-[CB] |==|  0.80575
USER: genes 9 Torsion [N]-CA--C-[OXT] |==|  0.13740
USER: genes 10 Torsion [N]-CA--CB-[CG] |==|  0.09579
USER: genes 11 Torsion [CA]-CB--CG-[CD2] |==|  0.63451
USER: genes 12 Torsion [N]-C--CA-[N] |==|  0.38172
USER: genes 13 Torsion [C]-CA--CB-[CG] |==|  0.24584
USER: genes 14 Torsion [CA]-CB--CG-[CD2] |==|  0.04951
USER: genes 15 Torsion [C]-CA--N-[C] |==|  0.82745
USER: genes 16 Torsion [N]-C--CA-[N] |==|  0.03522
USER: genes 17 Torsion [C]-CA--CB-[CG] |==|  0.51063
USER: genes 18 Torsion [CA]-CB--CG-[CD] |==|  0.29987
USER: genes 19 Torsion [CB]-CG--CD-[OE1] |==|  0.29136
USER: genes 20 Torsion [C]-CA--N-[C] |==|  0.68704
ROOT
ATOM      1  C   LEU E   1       0.314  -6.214 -11.947  1.00 28.67 LIG 0.24  C 
ATOM      2 O    LEU E   1       0.546  -5.872 -13.111  1.00 26.53 LIG-0.27  OA
ATOM      3  N   ASP E   2      -0.809  -6.822 -11.575  1.00 29.47 LIG-0.35  N 
ATOM      4 H    ASP E   2      -0.943  -7.149 -10.791  1.00 29.47 LIG 0.16  HD
ENDROOT
BRANCH 3 5
ATOM      5  CA  ASP E   2      -1.921  -6.983 -12.494  1.00 30.54 LIG 0.19  C 
BRANCH 5 6
ATOM      6  CB  ASP E   2      -1.655  -8.100 -13.508  1.00 32.40 LIG 0.15  C 
BRANCH 6 7
ATOM      7  CG  ASP E   2      -2.435  -7.919 -14.791  1.00 34.09 LIG 0.17  C 
ATOM      8 OD2  ASP E   2      -1.806  -7.650 -15.833  1.00 37.71 LIG-0.65  OA
ATOM      9 OD1  ASP E   2      -3.678  -8.054 -14.764  1.00 36.77 LIG-0.65  OA
ENDBRANCH 6 7
ENDBRANCH 5 6
BRANCH 5 10
ATOM     10  C   ASP E   2      -3.144  -7.310 -11.673  1.00 30.01 LIG 0.24  C 
ATOM     11 O    ASP E   2      -4.266  -7.290 -12.180  1.00 27.94 LIG-0.27  OA
ATOM     12  N   LEU E   3      -2.913  -7.619 -10.404  1.00 30.14 LIG-0.35  N 
ATOM     13 H    LEU E   3      -2.127  -7.646 -10.056  1.00 30.14 LIG 0.16  HD
BRANCH 12 14
ATOM     14  CA  LEU E   3      -3.982  -7.944  -9.477  1.00 30.90 LIG 0.18  C 
BRANCH 14 15
ATOM     15  C   LEU E   3      -3.408  -8.139  -8.074  1.00 32.33 LIG 0.24  C 
ATOM     16 O    LEU E   3      -2.415  -8.853  -7.889  1.00 31.45 LIG-0.27  OA
ATOM     17  N   ALA E   4      -4.022  -7.474  -7.100  1.00 33.58 LIG-0.34  N 
ATOM     18 H    ALA E   4      -4.718  -6.983  -7.222  1.00 33.58 LIG 0.16  HD
BRANCH 17 19
ATOM     19  CA  ALA E   4      -3.559  -7.522  -5.715  1.00 35.71 LIG 0.18  C 
ATOM     20  CB  ALA E   4      -3.815  -8.897  -5.120  1.00 36.03 LIG 0.04  C 
BRANCH 19 21
ATOM     21  C   ALA E   4      -2.077  -7.184  -5.635  1.00 37.05 LIG 0.20  C 
ATOM     22 OXT  ALA E   4      -1.631  -6.186  -6.197  1.00 36.72 LIG-0.65  OA
ATOM     23 O    ALA E   4      -1.293  -7.898  -5.006  1.00 37.61 LIG-0.65  OA
ENDBRANCH 19 21
ENDBRANCH 17 19
ENDBRANCH 14 15
BRANCH 14 24
ATOM     24  CB  LEU E   3      -4.701  -9.206  -9.954  1.00 30.03 LIG 0.04  C 
BRANCH 24 25
ATOM     25  CG  LEU E   3      -3.908 -10.309 -10.648  1.00 29.85 LIG-0.02  C 
ATOM     26  CD1 LEU E   3      -3.687 -11.509  -9.744  1.00 29.46 LIG 0.01  C 
ATOM     27  CD2 LEU E   3      -4.645 -10.705 -11.916  1.00 29.65 LIG 0.01  C 
ENDBRANCH 24 25
ENDBRANCH 14 24
ENDBRANCH 12 14
ENDBRANCH 5 10
ENDBRANCH 3 5
BRANCH 1 28
ATOM     28  CA  LEU E   1       1.330  -5.969 -10.846  1.00 29.46 LIG 0.18  C 
BRANCH 28 29
ATOM     29  CB  LEU E   1       1.244  -4.525 -10.349  1.00 29.35 LIG 0.04  C 
BRANCH 29 30
ATOM     30  CG  LEU E   1       0.240  -4.293  -9.210  1.00 30.22 LIG-0.02  C 
ATOM     31  CD2 LEU E   1      -0.132  -5.604  -8.530  1.00 31.32 LIG 0.01  C 
ATOM     32  CD1 LEU E   1      -0.998  -3.574  -9.712  1.00 30.06 LIG 0.01  C 
ENDBRANCH 29 30
ENDBRANCH 28 29
BRANCH 28 33
ATOM     33  N   LEU E   1       2.666  -6.284 -11.344  1.00 28.73 LIG-0.35  N 
ATOM     34  C   GLN E   0       2.972  -7.515 -11.737  1.00 28.95 LIG 0.24  C 
ATOM     35 O    GLN E   0       2.211  -8.469 -11.597  1.00 30.73 LIG-0.27  OA
ATOM     36 H    LEU E   1       3.213  -5.619 -11.356  1.00 28.73 LIG 0.16  HD
BRANCH 34 37
ATOM     37  CA  GLN E   0       4.335  -7.718 -12.378  1.00 28.12 LIG 0.18  C 
BRANCH 37 38
ATOM     38  CB  GLN E   0       4.998  -8.961 -11.770  1.00 27.70 LIG 0.04  C 
BRANCH 38 39
ATOM     39  CG  GLN E   0       6.419  -9.238 -12.256  1.00 26.51 LIG 0.10  C 
BRANCH 39 40
ATOM     40  CD  GLN E   0       7.462  -8.948 -11.193  1.00 26.51 LIG 0.21  C 
ATOM     41 OE1  GLN E   0       8.017  -9.874 -10.591  1.00 26.66 LIG-0.27  OA
ATOM     42  NE2 GLN E   0       7.740  -7.667 -10.956  1.00 24.64 LIG-0.37  N 
ATOM     43 22HE GLN E   0       8.327  -7.457 -10.363  1.00 24.64 LIG 0.16  HD
ATOM     44 21HE GLN E   0       7.333  -7.050 -11.396  1.00 24.64 LIG 0.16  HD
ENDBRANCH 39 40
ENDBRANCH 38 39
ENDBRANCH 37 38
BRANCH 37 45
ATOM     45  N   GLN E   0       5.191  -6.500 -12.152  1.00 28.94 LIG-0.35  N 
ATOM     46  C   ACE E  -1       5.580  -5.676 -13.155  1.00 29.25 LIG 0.21  C 
ATOM     47 O    ACE E  -1       4.795  -5.549 -14.098  1.00 28.69 LIG-0.27  OA
ATOM     48  CH3 ACE E  -1       6.165  -4.381 -12.614  1.00 29.73 LIG 0.12  C 
ATOM     49 H    GLN E   0       5.410  -6.377 -11.329  1.00 28.94 LIG 0.16  HD
ENDBRANCH 37 45
ENDBRANCH 34 37
ENDBRANCH 28 33
ENDBRANCH 1 28
TORSDOF 19
ENDMDL
MODEL 105
USER: ADFR SOLUTION from run 107
USER: SCORE 12.931442 LL:  -3.479 LR: -11.025 RR:   0.000 FEB:  -5.357
USER: RMSD 2.252968
USER: SEED 106
USER: STATUS no improvement in best in 4 clusters for 5 generations
USER: GENES 21
USER: genes 0 Translation |==|  0.48850 0.48361 0.53686
USER: genes 1 Rotation |==|  0.47436 0.48189 0.51166 0.99888
USER: genes 2 Torsion [C]-N--CA-[CB] |==|  0.46606
USER: genes 3 Torsion [N]-CA--CB-[CG] |==|  0.14915
USER: genes 4 Torsion [CA]-CB--CG-[OD2] |==|  0.82311
USER: genes 5 Torsion [N]-CA--C-[N] |==|  0.38288
USER: genes 6 Torsion [C]-N--CA-[C] |==|  0.82697
USER: genes 7 Torsion [N]-CA--C-[N] |==|  0.90321
USER: genes 8 Torsion [C]-N--CA-[CB] |==|  0.84914
USER: genes 9 Torsion [N]-CA--C-[OXT] |==|  0.56762
USER: genes 10 Torsion [N]-CA--CB-[CG] |==|  0.62264
USER: genes 11 Torsion [CA]-CB--CG-[CD2] |==|  0.91999
USER: genes 12 Torsion [N]-C--CA-[N] |==|  0.40410
USER: genes 13 Torsion [C]-CA--CB-[CG] |==|  0.55701
USER: genes 14 Torsion [CA]-CB--CG-[CD2] |==|  0.82046
USER: genes 15 Torsion [C]-CA--N-[C] |==|  0.81693
USER: genes 16 Torsion [N]-C--CA-[N] |==|  0.27719
USER: genes 17 Torsion [C]-CA--CB-[CG] |==|  0.60501
USER: genes 18 Torsion [CA]-CB--CG-[CD] |==|  0.69251
USER: genes 19 Torsion [CB]-CG--CD-[OE1] |==|  0.00244
USER: genes 20 Torsion [C]-CA--N-[C] |==|  0.80375
ROOT
ATOM      1  C   LEU E   1       2.503  -6.087 -12.616  1.00 28.67 LIG 0.24  C 
ATOM      2 O    LEU E   1       2.416  -5.231 -11.730  1.00 26.53 LIG-0.27  OA
ATOM      3  N   ASP E   2       3.592  -6.824 -12.813  1.00 29.47 LIG-0.35  N 
ATOM      4 H    ASP E   2       3.634  -7.485 -13.362  1.00 29.47 LIG 0.16  HD
ENDROOT
BRANCH 3 5
ATOM      5  CA  ASP E   2       4.825  -6.559 -12.094  1.00 30.54 LIG 0.19  C 
BRANCH 5 6
ATOM      6  CB  ASP E   2       5.829  -7.705 -12.259  1.00 32.40 LIG 0.15  C 
BRANCH 6 7
ATOM      7  CG  ASP E   2       6.092  -8.042 -13.710  1.00 34.09 LIG 0.17  C 
ATOM      8 OD2  ASP E   2       5.147  -8.475 -14.397  1.00 37.71 LIG-0.65  OA
ATOM      9 OD1  ASP E   2       7.242  -7.868 -14.170  1.00 36.77 LIG-0.65  OA
ENDBRANCH 6 7
ENDBRANCH 5 6
BRANCH 5 10
ATOM     10  C   ASP E   2       5.405  -5.280 -12.645  1.00 30.01 LIG 0.24  C 
ATOM     11 O    ASP E   2       5.398  -5.057 -13.857  1.00 27.94 LIG-0.27  OA
ATOM     12  N   LEU E   3       5.897  -4.441 -11.744  1.00 30.14 LIG-0.35  N 
ATOM     13 H    LEU E   3       5.888  -4.593 -10.897  1.00 30.14 LIG 0.16  HD
BRANCH 12 14
ATOM     14  CA  LEU E   3       6.504  -3.175 -12.111  1.00 30.90 LIG 0.18  C 
BRANCH 14 15
ATOM     15  C   LEU E   3       7.739  -3.426 -12.977  1.00 32.33 LIG 0.24  C 
ATOM     16 O    LEU E   3       8.056  -2.635 -13.874  1.00 31.45 LIG-0.27  OA
ATOM     17  N   ALA E   4       8.444  -4.513 -12.678  1.00 33.58 LIG-0.34  N 
ATOM     18 H    ALA E   4       8.223  -5.070 -12.061  1.00 33.58 LIG 0.16  HD
BRANCH 17 19
ATOM     19  CA  ALA E   4       9.676  -4.858 -13.384  1.00 35.71 LIG 0.18  C 
ATOM     20  CB  ALA E   4       9.427  -4.913 -14.883  1.00 36.03 LIG 0.04  C 
BRANCH 19 21
ATOM     21  C   ALA E   4      10.772  -3.849 -13.071  1.00 37.05 LIG 0.20  C 
ATOM     22 OXT  ALA E   4      11.704  -3.674 -13.853  1.00 36.72 LIG-0.65  OA
ATOM     23 O    ALA E   4      10.750  -3.186 -12.033  1.00 37.61 LIG-0.65  OA
ENDBRANCH 19 21
ENDBRANCH 17 19
ENDBRANCH 14 15
BRANCH 14 24
ATOM     24  CB  LEU E   3       6.873  -2.401 -10.845  1.00 30.03 LIG 0.04  C 
BRANCH 24 25
ATOM     25  CG  LEU E   3       6.562  -0.910 -10.755  1.00 29.85 LIG-0.02  C 
ATOM     26  CD1 LEU E   3       7.528  -0.180  -9.839  1.00 29.46 LIG 0.01  C 
ATOM     27  CD2 LEU E   3       6.591  -0.329 -12.159  1.00 29.65 LIG 0.01  C 
ENDBRANCH 24 25
ENDBRANCH 14 24
ENDBRANCH 12 14
ENDBRANCH 5 10
ENDBRANCH 3 5
BRANCH 1 28
ATOM     28  CA  LEU E   1       1.337  -6.366 -13.547  1.00 29.46 LIG 0.18  C 
BRANCH 28 29
ATOM     29  CB  LEU E   1       1.403  -5.457 -14.775  1.00 29.35 LIG 0.04  C 
BRANCH 29 30
ATOM     30  CG  LEU E   1       0.072  -5.283 -15.522  1.00 30.22 LIG-0.02  C 
ATOM     31  CD2 LEU E   1      -0.396  -6.601 -16.123  1.00 31.32 LIG 0.01  C 
ATOM     32  CD1 LEU E   1       0.181  -4.211 -16.590  1.00 30.06 LIG 0.01  C 
ENDBRANCH 29 30
ENDBRANCH 28 29
BRANCH 28 33
ATOM     33  N   LEU E   1       0.085  -6.188 -12.818  1.00 28.73 LIG-0.35  N 
ATOM     34  C   GLN E   0      -0.240  -6.999 -11.817  1.00 28.95 LIG 0.24  C 
ATOM     35 O    GLN E   0       0.415  -7.998 -11.528  1.00 30.73 LIG-0.27  OA
ATOM     36 H    LEU E   1      -0.402  -5.533 -13.090  1.00 28.73 LIG 0.16  HD
BRANCH 34 37
ATOM     37  CA  GLN E   0      -1.486  -6.651 -11.020  1.00 28.12 LIG 0.18  C 
BRANCH 37 38
ATOM     38  CB  GLN E   0      -1.215  -6.889  -9.530  1.00 27.70 LIG 0.04  C 
BRANCH 38 39
ATOM     39  CG  GLN E   0      -2.390  -7.464  -8.743  1.00 26.51 LIG 0.10  C 
BRANCH 39 40
ATOM     40  CD  GLN E   0      -2.976  -6.466  -7.762  1.00 26.51 LIG 0.21  C 
ATOM     41 OE1  GLN E   0      -2.512  -5.324  -7.677  1.00 26.66 LIG-0.27  OA
ATOM     42  NE2 GLN E   0      -4.000  -6.883  -7.018  1.00 24.64 LIG-0.37  N 
ATOM     43 22HE GLN E   0      -4.364  -6.350  -6.450  1.00 24.64 LIG 0.16  HD
ATOM     44 21HE GLN E   0      -4.296  -7.686  -7.105  1.00 24.64 LIG 0.16  HD
ENDBRANCH 39 40
ENDBRANCH 38 39
ENDBRANCH 37 38
BRANCH 37 45
ATOM     45  N   GLN E   0      -2.642  -7.496 -11.488  1.00 28.94 LIG-0.35  N 
ATOM     46  C   ACE E  -1      -3.238  -7.328 -12.693  1.00 29.25 LIG 0.21  C 
ATOM     47 O    ACE E  -1      -2.513  -6.943 -13.616  1.00 28.69 LIG-0.27  OA
ATOM     48  CH3 ACE E  -1      -4.154  -8.495 -13.027  1.00 29.73 LIG 0.12  C 
ATOM     49 H    GLN E   0      -2.888  -8.092 -10.919  1.00 28.94 LIG 0.16  HD
ENDBRANCH 37 45
ENDBRANCH 34 37
ENDBRANCH 28 33
ENDBRANCH 1 28
TORSDOF 19
ENDMDL
