MODEL 1
USER: ADFR SOLUTION from run 12
USER: SCORE 13.628950 LL:  -2.979 LR: -10.874 RR:   0.000 FEB:  -6.400
USER: RMSD 2.103840
USER: SEED 646170
USER: STATUS no improvement in best in 10 clusters for 5 generations
USER: GENES 17
USER: genes 0 Translation |==|  0.45684 0.42391 0.40767
USER: genes 1 Rotation |==|  0.46875 0.52572 0.50552 0.99833
USER: genes 2 Torsion [C]-N--CA-[C] |==|  0.75086
USER: genes 3 Torsion [N]-CA--CB-[CG1] |==|  0.81228
USER: genes 4 Torsion [CA]-CB--CG1-[CD1] |==|  0.55055
USER: genes 5 Torsion [N]-CA--C-[N] |==|  0.41438
USER: genes 6 Torsion [C]-N--CA-[CB] |==|  0.27626
USER: genes 7 Torsion [N]-CA--CB-[CG2] |==|  0.62108
USER: genes 8 Torsion [CA]-CB--CG1-[CD1] |==|  0.68828
USER: genes 9 Torsion [N]-CA--C-[O] |==|  0.39483
USER: genes 10 Torsion [N]-C--CA-[N] |==|  0.40686
USER: genes 11 Torsion [C]-CA--N-[C] |==|  0.61111
USER: genes 12 Torsion [N]-C--CA-[N] |==|  0.87860
USER: genes 13 Torsion [C]-CA--CB-[CG] |==|  0.53958
USER: genes 14 Torsion [CA]-CB--CG-[OD2] |==|  0.94960
USER: genes 15 Torsion [C]-CA--CB-[OG] |==|  0.53287
USER: genes 16 Torsion [CA]-CB--OG-[HG] |==|  0.17712
ROOT
ATOM      1  C   SER C   8      -0.047  23.331  45.447  1.00 23.80 LIG 0.24  C 
ATOM      2 O    SER C   8       0.373  24.154  44.635  1.00 21.47 LIG-0.27  OA
ATOM      3  N   ILE C   9       0.409  23.240  46.695  1.00 23.49 LIG-0.35  N 
ATOM      4 H    ILE C   9       0.095  22.695  47.282  1.00 23.49 LIG 0.16  HD
ENDROOT
BRANCH 3 5
ATOM      5  CA  ILE C   9       1.504  24.077  47.176  1.00 20.80 LIG 0.18  C 
BRANCH 5 6
ATOM      6  CB  ILE C   9       1.407  24.327  48.690  1.00 28.93 LIG 0.01  C 
ATOM      7  CG2 ILE C   9       2.726  24.907  49.228  1.00 27.59 LIG 0.01  C 
BRANCH 6 8
ATOM      8  CG1 ILE C   9       0.192  25.195  49.037  1.00 40.08 LIG 0.00  C 
ATOM      9  CD1 ILE C   9       0.245  25.844  50.398  1.00 35.68 LIG 0.01  C 
ENDBRANCH 6 8
ENDBRANCH 5 6
BRANCH 5 10
ATOM     10  C   ILE C   9       2.826  23.375  46.917  1.00 29.58 LIG 0.24  C 
ATOM     11  N   ILE C  10       3.879  24.153  46.688  1.00 24.64 LIG-0.34  N 
ATOM     12 H    ILE C  10       3.846  25.012  46.669  1.00 24.64 LIG 0.16  HD
ATOM     13 O    ILE C   9       2.892  22.146  46.929  1.00 37.49 LIG-0.27  OA
BRANCH 11 14
ATOM     14  CA  ILE C  10       5.203  23.597  46.445  1.00 23.95 LIG 0.19  C 
BRANCH 14 15
ATOM     15  CB  ILE C  10       5.554  23.548  44.935  1.00 22.27 LIG 0.01  C 
ATOM     16  CG2 ILE C  10       6.205  22.212  44.582  1.00 24.85 LIG 0.01  C 
BRANCH 15 17
ATOM     17  CG1 ILE C  10       4.311  23.793  44.075  1.00 32.35 LIG 0.00  C 
ATOM     18  CD1 ILE C  10       3.873  22.562  43.282  1.00 31.42 LIG 0.01  C 
ENDBRANCH 15 17
ENDBRANCH 14 15
BRANCH 14 19
ATOM     19  C   ILE C  10       6.263  24.431  47.148  1.00 24.88 LIG 0.20  C 
ATOM     20 OXT  ILE C  10       6.149  25.654  47.213  1.00 25.96 LIG-0.65  OA
ATOM     21 O    ILE C  10       7.235  23.893  47.675  1.00 20.25 LIG-0.65  OA
ENDBRANCH 14 19
ENDBRANCH 11 14
ENDBRANCH 5 10
ENDBRANCH 3 5
BRANCH 1 22
ATOM     22  CA  SER C   8      -1.131  22.333  45.054  1.00 22.40 LIG 0.20  C 
BRANCH 22 23
ATOM     23  N   SER C   8      -2.087  22.893  44.106  1.00 32.61 LIG-0.34  N 
ATOM     24 H    SER C   8      -1.769  23.396  43.484  1.00 32.61 LIG 0.16  HD
ATOM     25  C   ASP C   7      -3.361  22.573  44.294  1.00 44.43 LIG 0.26  C 
ATOM     26 O    ASP C   7      -3.711  21.703  45.070  1.00 41.29 LIG-0.27  OA
BRANCH 25 27
ATOM     27  CA  ASP C   7      -4.425  23.302  43.552  1.00 57.36 LIG 0.41  C 
ATOM     28  N   ASP C   7      -4.079  24.698  43.608  1.00 63.06 LIG 0.61  N 
BRANCH 27 29
ATOM     29  CB  ASP C   7      -4.414  22.879  42.104  1.00 56.13 LIG 0.16  C 
BRANCH 29 30
ATOM     30  CG  ASP C   7      -5.199  23.794  41.272  1.00 57.80 LIG 0.17  C 
ATOM     31 OD2  ASP C   7      -6.000  24.530  41.761  1.00 66.43 LIG-0.65  OA
ATOM     32 OD1  ASP C   7      -4.973  23.769  40.080  1.00 48.55 LIG-0.65  OA
ENDBRANCH 29 30
ENDBRANCH 27 29
ENDBRANCH 25 27
ENDBRANCH 22 23
BRANCH 22 33
ATOM     33  CB  SER C   8      -0.480  21.097  44.449  1.00 17.52 LIG 0.20  C 
BRANCH 33 34
ATOM     34 OG   SER C   8      -1.450  20.277  43.832  1.00 22.08 LIG-0.40  OA
ATOM     35 HG   SER C   8      -1.798  20.691  43.189  1.00 22.08 LIG 0.21  HD
ENDBRANCH 33 34
ENDBRANCH 22 33
ENDBRANCH 1 22
TORSDOF 15
ENDMDL
MODEL 2
USER: ADFR SOLUTION from run 162
USER: SCORE 13.627970 LL:  -3.187 LR: -10.700 RR:   0.000 FEB:  -6.226
USER: RMSD 1.181987
USER: SEED 161
USER: STATUS no improvement in best in 9 clusters for 5 generations
USER: GENES 17
USER: genes 0 Translation |==|  0.48237 0.46482 0.42673
USER: genes 1 Rotation |==|  0.44644 0.47877 0.42521 0.99101
USER: genes 2 Torsion [C]-N--CA-[C] |==|  0.80725
USER: genes 3 Torsion [N]-CA--CB-[CG1] |==|  0.83682
USER: genes 4 Torsion [CA]-CB--CG1-[CD1] |==|  0.55751
USER: genes 5 Torsion [N]-CA--C-[N] |==|  0.38671
USER: genes 6 Torsion [C]-N--CA-[CB] |==|  0.29155
USER: genes 7 Torsion [N]-CA--CB-[CG2] |==|  0.59897
USER: genes 8 Torsion [CA]-CB--CG1-[CD1] |==|  0.70177
USER: genes 9 Torsion [N]-CA--C-[O] |==|  0.96246
USER: genes 10 Torsion [N]-C--CA-[N] |==|  0.25862
USER: genes 11 Torsion [C]-CA--N-[C] |==|  0.77206
USER: genes 12 Torsion [N]-C--CA-[N] |==|  0.68096
USER: genes 13 Torsion [C]-CA--CB-[CG] |==|  0.52622
USER: genes 14 Torsion [CA]-CB--CG-[OD2] |==|  0.19076
USER: genes 15 Torsion [C]-CA--CB-[OG] |==|  0.33398
USER: genes 16 Torsion [CA]-CB--OG-[HG] |==|  0.29561
ROOT
ATOM      1  C   SER C   8       0.489  23.975  45.733  1.00 23.80 LIG 0.24  C 
ATOM      2 O    SER C   8       1.287  24.526  44.976  1.00 21.47 LIG-0.27  OA
ATOM      3  N   ILE C   9       0.653  23.926  47.053  1.00 23.49 LIG-0.35  N 
ATOM      4 H    ILE C   9       0.082  23.578  47.595  1.00 23.49 LIG 0.16  HD
ENDROOT
BRANCH 3 5
ATOM      5  CA  ILE C   9       1.843  24.470  47.701  1.00 20.80 LIG 0.18  C 
BRANCH 5 6
ATOM      6  CB  ILE C   9       1.707  24.472  49.233  1.00 28.93 LIG 0.01  C 
ATOM      7  CG2 ILE C   9       3.018  24.934  49.892  1.00 27.59 LIG 0.01  C 
BRANCH 6 8
ATOM      8  CG1 ILE C   9       0.495  25.292  49.686  1.00 40.08 LIG 0.00  C 
ATOM      9  CD1 ILE C   9       0.545  25.760  51.119  1.00 35.68 LIG 0.01  C 
ENDBRANCH 6 8
ENDBRANCH 5 6
BRANCH 5 10
ATOM     10  C   ILE C   9       3.044  23.608  47.355  1.00 29.58 LIG 0.24  C 
ATOM     11  N   ILE C  10       4.180  24.247  47.091  1.00 24.64 LIG-0.34  N 
ATOM     12 H    ILE C  10       4.262  25.102  47.096  1.00 24.64 LIG 0.16  HD
ATOM     13 O    ILE C   9       2.945  22.382  47.330  1.00 37.49 LIG-0.27  OA
BRANCH 11 14
ATOM     14  CA  ILE C  10       5.404  23.527  46.764  1.00 23.95 LIG 0.19  C 
BRANCH 14 15
ATOM     15  CB  ILE C  10       5.743  23.599  45.252  1.00 22.27 LIG 0.01  C 
ATOM     16  CG2 ILE C  10       6.369  22.287  44.784  1.00 24.85 LIG 0.01  C 
BRANCH 15 17
ATOM     17  CG1 ILE C  10       4.499  23.937  44.426  1.00 32.35 LIG 0.00  C 
ATOM     18  CD1 ILE C  10       3.965  22.749  43.627  1.00 31.42 LIG 0.01  C 
ENDBRANCH 15 17
ENDBRANCH 14 15
BRANCH 14 19
ATOM     19  C   ILE C  10       6.578  24.105  47.538  1.00 24.88 LIG 0.20  C 
ATOM     20 OXT  ILE C  10       7.651  23.503  47.582  1.00 25.96 LIG-0.65  OA
ATOM     21 O    ILE C  10       6.478  25.187  48.112  1.00 20.25 LIG-0.65  OA
ENDBRANCH 14 19
ENDBRANCH 11 14
ENDBRANCH 5 10
ENDBRANCH 3 5
BRANCH 1 22
ATOM     22  CA  SER C   8      -0.756  23.287  45.185  1.00 22.40 LIG 0.20  C 
BRANCH 22 23
ATOM     23  N   SER C   8      -1.883  24.202  45.045  1.00 32.61 LIG-0.34  N 
ATOM     24 H    SER C   8      -2.022  24.531  44.263  1.00 32.61 LIG 0.16  HD
ATOM     25  C   ASP C   7      -2.588  24.440  46.144  1.00 44.43 LIG 0.26  C 
ATOM     26 O    ASP C   7      -2.454  23.791  47.164  1.00 41.29 LIG-0.27  OA
BRANCH 25 27
ATOM     27  CA  ASP C   7      -3.577  25.553  46.161  1.00 57.36 LIG 0.41  C 
ATOM     28  N   ASP C   7      -3.093  26.514  47.117  1.00 63.06 LIG 0.61  N 
BRANCH 27 29
ATOM     29  CB  ASP C   7      -3.612  26.221  44.809  1.00 56.13 LIG 0.16  C 
BRANCH 29 30
ATOM     30  CG  ASP C   7      -4.401  27.455  44.840  1.00 57.80 LIG 0.17  C 
ATOM     31 OD2  ASP C   7      -4.016  28.411  45.439  1.00 66.43 LIG-0.65  OA
ATOM     32 OD1  ASP C   7      -5.440  27.448  44.214  1.00 48.55 LIG-0.65  OA
ENDBRANCH 29 30
ENDBRANCH 27 29
ENDBRANCH 25 27
ENDBRANCH 22 23
BRANCH 22 33
ATOM     33  CB  SER C   8      -0.433  22.667  43.832  1.00 17.52 LIG 0.20  C 
BRANCH 33 34
ATOM     34 OG   SER C   8      -0.645  21.272  43.863  1.00 22.08 LIG-0.40  OA
ATOM     35 HG   SER C   8      -1.344  21.085  43.435  1.00 22.08 LIG 0.21  HD
ENDBRANCH 33 34
ENDBRANCH 22 33
ENDBRANCH 1 22
TORSDOF 15
ENDMDL
MODEL 3
USER: ADFR SOLUTION from run 3
USER: SCORE 13.137574 LL:  -3.142 LR: -10.344 RR:   0.000 FEB:  -5.870
USER: RMSD 3.756946
USER: SEED 941695
USER: STATUS no improvement in best in 13 clusters for 5 generations
USER: GENES 17
USER: genes 0 Translation |==|  0.48185 0.44973 0.51411
USER: genes 1 Rotation |==|  0.07438 0.67470 0.36066 0.63751
USER: genes 2 Torsion [C]-N--CA-[C] |==|  0.69061
USER: genes 3 Torsion [N]-CA--CB-[CG1] |==|  0.49493
USER: genes 4 Torsion [CA]-CB--CG1-[CD1] |==|  0.65983
USER: genes 5 Torsion [N]-CA--C-[N] |==|  0.90000
USER: genes 6 Torsion [C]-N--CA-[CB] |==|  0.13387
USER: genes 7 Torsion [N]-CA--CB-[CG2] |==|  0.15563
USER: genes 8 Torsion [CA]-CB--CG1-[CD1] |==|  0.54982
USER: genes 9 Torsion [N]-CA--C-[O] |==|  0.88119
USER: genes 10 Torsion [N]-C--CA-[N] |==|  0.37082
USER: genes 11 Torsion [C]-CA--N-[C] |==|  0.84882
USER: genes 12 Torsion [N]-C--CA-[N] |==|  0.08690
USER: genes 13 Torsion [C]-CA--CB-[CG] |==|  0.69568
USER: genes 14 Torsion [CA]-CB--CG-[OD2] |==|  0.22730
USER: genes 15 Torsion [C]-CA--CB-[OG] |==|  0.47688
USER: genes 16 Torsion [CA]-CB--OG-[HG] |==|  0.93826
ROOT
ATOM      1  C   SER C   8       0.478  23.737  47.044  1.00 23.80 LIG 0.24  C 
ATOM      2 O    SER C   8      -0.049  22.626  47.043  1.00 21.47 LIG-0.27  OA
ATOM      3  N   ILE C   9       1.629  23.997  46.427  1.00 23.49 LIG-0.35  N 
ATOM      4 H    ILE C   9       1.986  24.779  46.388  1.00 23.49 LIG 0.16  HD
ENDROOT
BRANCH 3 5
ATOM      5  CA  ILE C   9       2.395  22.952  45.755  1.00 20.80 LIG 0.18  C 
BRANCH 5 6
ATOM      6  CB  ILE C   9       2.786  23.363  44.325  1.00 28.93 LIG 0.01  C 
ATOM      7  CG2 ILE C   9       3.476  24.737  44.328  1.00 27.59 LIG 0.01  C 
BRANCH 6 8
ATOM      8  CG1 ILE C   9       3.627  22.279  43.642  1.00 40.08 LIG 0.00  C 
ATOM      9  CD1 ILE C   9       4.981  22.738  43.160  1.00 35.68 LIG 0.01  C 
ENDBRANCH 6 8
ENDBRANCH 5 6
BRANCH 5 10
ATOM     10  C   ILE C   9       3.682  22.699  46.520  1.00 29.58 LIG 0.24  C 
ATOM     11  N   ILE C  10       4.263  23.757  47.075  1.00 24.64 LIG-0.34  N 
ATOM     12 H    ILE C  10       3.959  24.559  47.015  1.00 24.64 LIG 0.16  HD
ATOM     13 O    ILE C   9       4.141  21.560  46.609  1.00 37.49 LIG-0.27  OA
BRANCH 11 14
ATOM     14  CA  ILE C  10       5.492  23.637  47.849  1.00 23.95 LIG 0.19  C 
BRANCH 14 15
ATOM     15  CB  ILE C  10       6.570  22.796  47.118  1.00 22.27 LIG 0.01  C 
ATOM     16  CG2 ILE C  10       6.859  23.385  45.738  1.00 24.85 LIG 0.01  C 
BRANCH 15 17
ATOM     17  CG1 ILE C  10       7.850  22.702  47.951  1.00 32.35 LIG 0.00  C 
ATOM     18  CD1 ILE C  10       9.072  22.279  47.135  1.00 31.42 LIG 0.01  C 
ENDBRANCH 15 17
ENDBRANCH 14 15
BRANCH 14 19
ATOM     19  C   ILE C  10       6.076  25.013  48.128  1.00 24.88 LIG 0.20  C 
ATOM     20 OXT  ILE C  10       6.542  25.279  49.235  1.00 25.96 LIG-0.65  OA
ATOM     21 O    ILE C  10       6.109  25.870  47.246  1.00 20.25 LIG-0.65  OA
ENDBRANCH 14 19
ENDBRANCH 11 14
ENDBRANCH 5 10
ENDBRANCH 3 5
BRANCH 1 22
ATOM     22  CA  SER C   8      -0.167  24.904  47.782  1.00 22.40 LIG 0.20  C 
BRANCH 22 23
ATOM     23  N   SER C   8      -1.592  25.023  47.499  1.00 32.61 LIG-0.34  N 
ATOM     24 H    SER C   8      -2.124  25.035  48.175  1.00 32.61 LIG 0.16  HD
ATOM     25  C   ASP C   7      -1.935  25.103  46.219  1.00 44.43 LIG 0.26  C 
ATOM     26 O    ASP C   7      -1.121  25.279  45.332  1.00 41.29 LIG-0.27  OA
BRANCH 25 27
ATOM     27  CA  ASP C   7      -3.363  24.957  45.824  1.00 57.36 LIG 0.41  C 
ATOM     28  N   ASP C   7      -4.144  25.476  46.916  1.00 63.06 LIG 0.61  N 
BRANCH 27 29
ATOM     29  CB  ASP C   7      -3.641  25.808  44.609  1.00 56.13 LIG 0.16  C 
BRANCH 29 30
ATOM     30  CG  ASP C   7      -4.487  26.957  44.942  1.00 57.80 LIG 0.17  C 
ATOM     31 OD2  ASP C   7      -4.016  27.945  45.416  1.00 66.43 LIG-0.65  OA
ATOM     32 OD1  ASP C   7      -5.668  26.849  44.691  1.00 48.55 LIG-0.65  OA
ENDBRANCH 29 30
ENDBRANCH 27 29
ENDBRANCH 25 27
ENDBRANCH 22 23
BRANCH 22 33
ATOM     33  CB  SER C   8       0.041  24.727  49.280  1.00 17.52 LIG 0.20  C 
BRANCH 33 34
ATOM     34 OG   SER C   8      -0.377  25.882  49.978  1.00 22.08 LIG-0.40  OA
ATOM     35 HG   SER C   8      -0.372  26.541  49.457  1.00 22.08 LIG 0.21  HD
ENDBRANCH 33 34
ENDBRANCH 22 33
ENDBRANCH 1 22
TORSDOF 15
ENDMDL
MODEL 4
USER: ADFR SOLUTION from run 33
USER: SCORE 13.362798 LL:  -3.410 LR: -10.310 RR:   0.000 FEB:  -5.835
USER: RMSD 7.304012
USER: SEED 32
USER: STATUS no improvement in best in 12 clusters for 5 generations
USER: GENES 17
USER: genes 0 Translation |==|  0.62328 0.36614 0.47249
USER: genes 1 Rotation |==|  0.15859 0.63751 0.29553 0.76967
USER: genes 2 Torsion [C]-N--CA-[C] |==|  0.55799
USER: genes 3 Torsion [N]-CA--CB-[CG1] |==|  0.09764
USER: genes 4 Torsion [CA]-CB--CG1-[CD1] |==|  0.69036
USER: genes 5 Torsion [N]-CA--C-[N] |==|  0.37543
USER: genes 6 Torsion [C]-N--CA-[CB] |==|  0.44492
USER: genes 7 Torsion [N]-CA--CB-[CG2] |==|  0.37277
USER: genes 8 Torsion [CA]-CB--CG1-[CD1] |==|  0.67363
USER: genes 9 Torsion [N]-CA--C-[O] |==|  0.89446
USER: genes 10 Torsion [N]-C--CA-[N] |==|  0.95652
USER: genes 11 Torsion [C]-CA--N-[C] |==|  0.80030
USER: genes 12 Torsion [N]-C--CA-[N] |==|  0.64624
USER: genes 13 Torsion [C]-CA--CB-[CG] |==|  0.74190
USER: genes 14 Torsion [CA]-CB--CG-[OD2] |==|  0.80661
USER: genes 15 Torsion [C]-CA--CB-[OG] |==|  0.83545
USER: genes 16 Torsion [CA]-CB--OG-[HG] |==|  0.89635
ROOT
ATOM      1  C   SER C   8       3.448  22.421  46.419  1.00 23.80 LIG 0.24  C 
ATOM      2 O    SER C   8       3.212  21.423  45.739  1.00 21.47 LIG-0.27  OA
ATOM      3  N   ILE C   9       4.680  22.873  46.645  1.00 23.49 LIG-0.35  N 
ATOM      4 H    ILE C   9       4.853  23.592  47.086  1.00 23.49 LIG 0.16  HD
ENDROOT
BRANCH 3 5
ATOM      5  CA  ILE C   9       5.860  22.170  46.151  1.00 20.80 LIG 0.18  C 
BRANCH 5 6
ATOM      6  CB  ILE C   9       6.151  22.510  44.680  1.00 28.93 LIG 0.01  C 
ATOM      7  CG2 ILE C   9       5.444  21.514  43.745  1.00 27.59 LIG 0.01  C 
BRANCH 6 8
ATOM      8  CG1 ILE C   9       5.803  23.969  44.364  1.00 40.08 LIG 0.00  C 
ATOM      9  CD1 ILE C   9       4.622  24.154  43.444  1.00 35.68 LIG 0.01  C 
ENDBRANCH 6 8
ENDBRANCH 5 6
BRANCH 5 10
ATOM     10  C   ILE C   9       7.074  22.592  46.961  1.00 29.58 LIG 0.24  C 
ATOM     11  N   ILE C  10       7.890  21.623  47.360  1.00 24.64 LIG-0.34  N 
ATOM     12 H    ILE C  10       7.762  20.789  47.195  1.00 24.64 LIG 0.16  HD
ATOM     13 O    ILE C   9       7.269  23.780  47.218  1.00 37.49 LIG-0.27  OA
BRANCH 11 14
ATOM     14  CA  ILE C  10       9.096  21.905  48.128  1.00 23.95 LIG 0.19  C 
BRANCH 14 15
ATOM     15  CB  ILE C  10       9.616  20.658  48.889  1.00 22.27 LIG 0.01  C 
ATOM     16  CG2 ILE C  10      11.125  20.514  48.707  1.00 24.85 LIG 0.01  C 
BRANCH 15 17
ATOM     17  CG1 ILE C  10       9.249  20.730  50.373  1.00 32.35 LIG 0.00  C 
ATOM     18  CD1 ILE C  10      10.467  20.779  51.295  1.00 31.42 LIG 0.01  C 
ENDBRANCH 15 17
ENDBRANCH 14 15
BRANCH 14 19
ATOM     19  C   ILE C  10      10.205  22.392  47.207  1.00 24.88 LIG 0.20  C 
ATOM     20 OXT  ILE C  10      10.984  23.268  47.582  1.00 25.96 LIG-0.65  OA
ATOM     21 O    ILE C  10      10.350  21.904  46.088  1.00 20.25 LIG-0.65  OA
ENDBRANCH 14 19
ENDBRANCH 11 14
ENDBRANCH 5 10
ENDBRANCH 3 5
BRANCH 1 22
ATOM     22  CA  SER C   8       2.315  23.204  47.071  1.00 22.40 LIG 0.20  C 
BRANCH 22 23
ATOM     23  N   SER C   8       2.787  24.098  48.122  1.00 32.61 LIG-0.34  N 
ATOM     24 H    SER C   8       2.774  24.941  47.950  1.00 32.61 LIG 0.16  HD
ATOM     25  C   ASP C   7       3.193  23.523  49.247  1.00 44.43 LIG 0.26  C 
ATOM     26 O    ASP C   7       2.998  22.347  49.490  1.00 41.29 LIG-0.27  OA
BRANCH 25 27
ATOM     27  CA  ASP C   7       3.934  24.322  50.260  1.00 57.36 LIG 0.41  C 
ATOM     28  N   ASP C   7       5.142  23.595  50.550  1.00 63.06 LIG 0.61  N 
BRANCH 27 29
ATOM     29  CB  ASP C   7       4.325  25.654  49.668  1.00 56.13 LIG 0.16  C 
BRANCH 29 30
ATOM     30  CG  ASP C   7       5.667  25.607  49.083  1.00 57.80 LIG 0.17  C 
ATOM     31 OD2  ASP C   7       6.633  25.509  49.776  1.00 66.43 LIG-0.65  OA
ATOM     32 OD1  ASP C   7       5.731  25.654  47.873  1.00 48.55 LIG-0.65  OA
ENDBRANCH 29 30
ENDBRANCH 27 29
ENDBRANCH 25 27
ENDBRANCH 22 23
BRANCH 22 33
ATOM     33  CB  SER C   8       1.584  24.011  46.006  1.00 17.52 LIG 0.20  C 
BRANCH 33 34
ATOM     34 OG   SER C   8       2.472  24.904  45.366  1.00 22.08 LIG-0.40  OA
ATOM     35 HG   SER C   8       3.015  25.210  45.928  1.00 22.08 LIG 0.21  HD
ENDBRANCH 33 34
ENDBRANCH 22 33
ENDBRANCH 1 22
TORSDOF 15
ENDMDL
MODEL 5
USER: ADFR SOLUTION from run 96
USER: SCORE 13.224515 LL:  -3.522 LR: -10.242 RR:   0.000 FEB:  -5.768
USER: RMSD 8.714459
USER: SEED 95
USER: STATUS no improvement in best in 11 clusters for 5 generations
USER: GENES 17
USER: genes 0 Translation |==|  0.72847 0.52151 0.55226
USER: genes 1 Rotation |==|  0.70748 0.87860 0.29796 0.65096
USER: genes 2 Torsion [C]-N--CA-[C] |==|  0.68893
USER: genes 3 Torsion [N]-CA--CB-[CG1] |==|  0.24763
USER: genes 4 Torsion [CA]-CB--CG1-[CD1] |==|  0.79271
USER: genes 5 Torsion [N]-CA--C-[N] |==|  0.01800
USER: genes 6 Torsion [C]-N--CA-[CB] |==|  0.21619
USER: genes 7 Torsion [N]-CA--CB-[CG2] |==|  0.15312
USER: genes 8 Torsion [CA]-CB--CG1-[CD1] |==|  0.66244
USER: genes 9 Torsion [N]-CA--C-[O] |==|  0.46011
USER: genes 10 Torsion [N]-C--CA-[N] |==|  0.52196
USER: genes 11 Torsion [C]-CA--N-[C] |==|  0.54098
USER: genes 12 Torsion [N]-C--CA-[N] |==|  0.47575
USER: genes 13 Torsion [C]-CA--CB-[CG] |==|  0.77583
USER: genes 14 Torsion [CA]-CB--CG-[OD2] |==|  0.61460
USER: genes 15 Torsion [C]-CA--CB-[OG] |==|  0.77280
USER: genes 16 Torsion [CA]-CB--OG-[HG] |==|  0.25312
ROOT
ATOM      1  C   SER C   8       5.657  24.868  47.616  1.00 23.80 LIG 0.24  C 
ATOM      2 O    SER C   8       6.123  25.928  47.202  1.00 21.47 LIG-0.27  OA
ATOM      3  N   ILE C   9       5.434  23.815  46.831  1.00 23.49 LIG-0.35  N 
ATOM      4 H    ILE C   9       5.146  23.057  47.117  1.00 23.49 LIG 0.16  HD
ENDROOT
BRANCH 3 5
ATOM      5  CA  ILE C   9       5.666  23.867  45.390  1.00 20.80 LIG 0.18  C 
BRANCH 5 6
ATOM      6  CB  ILE C   9       6.530  22.689  44.910  1.00 28.93 LIG 0.01  C 
ATOM      7  CG2 ILE C   9       7.610  22.351  45.951  1.00 27.59 LIG 0.01  C 
BRANCH 6 8
ATOM      8  CG1 ILE C   9       5.666  21.479  44.538  1.00 40.08 LIG 0.00  C 
ATOM      9  CD1 ILE C   9       5.096  20.722  45.712  1.00 35.68 LIG 0.01  C 
ENDBRANCH 6 8
ENDBRANCH 5 6
BRANCH 5 10
ATOM     10  C   ILE C   9       4.336  23.779  44.663  1.00 29.58 LIG 0.24  C 
ATOM     11  N   ILE C  10       3.241  23.809  45.416  1.00 24.64 LIG-0.34  N 
ATOM     12 H    ILE C  10       3.251  23.865  46.274  1.00 24.64 LIG 0.16  HD
ATOM     13 O    ILE C   9       4.302  23.688  43.436  1.00 37.49 LIG-0.27  OA
BRANCH 11 14
ATOM     14  CA  ILE C  10       1.908  23.750  44.831  1.00 23.95 LIG 0.19  C 
BRANCH 14 15
ATOM     15  CB  ILE C  10       1.514  22.312  44.408  1.00 22.27 LIG 0.01  C 
ATOM     16  CG2 ILE C  10       1.644  21.354  45.591  1.00 24.85 LIG 0.01  C 
BRANCH 15 17
ATOM     17  CG1 ILE C  10       0.096  22.279  43.832  1.00 32.35 LIG 0.00  C 
ATOM     18  CD1 ILE C  10      -0.843  21.341  44.591  1.00 31.42 LIG 0.01  C 
ENDBRANCH 15 17
ENDBRANCH 14 15
BRANCH 14 19
ATOM     19  C   ILE C  10       0.873  24.249  45.827  1.00 24.88 LIG 0.20  C 
ATOM     20 OXT  ILE C  10       1.170  24.396  47.012  1.00 25.96 LIG-0.65  OA
ATOM     21 O    ILE C  10      -0.266  24.530  45.460  1.00 20.25 LIG-0.65  OA
ENDBRANCH 14 19
ENDBRANCH 11 14
ENDBRANCH 5 10
ENDBRANCH 3 5
BRANCH 1 22
ATOM     22  CA  SER C   8       5.285  24.701  49.084  1.00 22.40 LIG 0.20  C 
BRANCH 22 23
ATOM     23  N   SER C   8       5.387  25.950  49.830  1.00 32.61 LIG-0.34  N 
ATOM     24 H    SER C   8       5.445  26.674  49.370  1.00 32.61 LIG 0.16  HD
ATOM     25  C   ASP C   7       5.380  25.849  51.153  1.00 44.43 LIG 0.26  C 
ATOM     26 O    ASP C   7       5.098  24.816  51.731  1.00 41.29 LIG-0.27  OA
BRANCH 25 27
ATOM     27  CA  ASP C   7       5.747  27.026  51.988  1.00 57.36 LIG 0.41  C 
ATOM     28  N   ASP C   7       5.446  26.671  53.350  1.00 63.06 LIG 0.61  N 
BRANCH 27 29
ATOM     29  CB  ASP C   7       7.232  27.272  51.890  1.00 56.13 LIG 0.16  C 
BRANCH 29 30
ATOM     30  CG  ASP C   7       7.984  26.377  52.773  1.00 57.80 LIG 0.17  C 
ATOM     31 OD2  ASP C   7       8.914  26.779  53.403  1.00 66.43 LIG-0.65  OA
ATOM     32 OD1  ASP C   7       7.596  25.230  52.837  1.00 48.55 LIG-0.65  OA
ENDBRANCH 29 30
ENDBRANCH 27 29
ENDBRANCH 25 27
ENDBRANCH 22 23
BRANCH 22 33
ATOM     33  CB  SER C   8       3.864  24.163  49.185  1.00 17.52 LIG 0.20  C 
BRANCH 33 34
ATOM     34 OG   SER C   8       2.927  25.211  49.051  1.00 22.08 LIG-0.40  OA
ATOM     35 HG   SER C   8       2.716  25.297  48.243  1.00 22.08 LIG 0.21  HD
ENDBRANCH 33 34
ENDBRANCH 22 33
ENDBRANCH 1 22
TORSDOF 15
ENDMDL
MODEL 6
USER: ADFR SOLUTION from run 176
USER: SCORE 13.092634 LL:  -3.318 LR: -10.137 RR:   0.000 FEB:  -5.662
USER: RMSD 4.378267
USER: SEED 175
USER: STATUS no improvement in best in 7 clusters for 5 generations
USER: GENES 17
USER: genes 0 Translation |==|  0.43105 0.45221 0.37820
USER: genes 1 Rotation |==|  0.71052 0.62461 0.66006 0.90563
USER: genes 2 Torsion [C]-N--CA-[C] |==|  0.55204
USER: genes 3 Torsion [N]-CA--CB-[CG1] |==|  0.57510
USER: genes 4 Torsion [CA]-CB--CG1-[CD1] |==|  0.70890
USER: genes 5 Torsion [N]-CA--C-[N] |==|  0.42229
USER: genes 6 Torsion [C]-N--CA-[CB] |==|  0.23723
USER: genes 7 Torsion [N]-CA--CB-[CG2] |==|  0.63379
USER: genes 8 Torsion [CA]-CB--CG1-[CD1] |==|  0.70886
USER: genes 9 Torsion [N]-CA--C-[O] |==|  0.91896
USER: genes 10 Torsion [N]-C--CA-[N] |==|  0.06438
USER: genes 11 Torsion [C]-CA--N-[C] |==|  0.17672
USER: genes 12 Torsion [N]-C--CA-[N] |==|  0.78104
USER: genes 13 Torsion [C]-CA--CB-[CG] |==|  0.62980
USER: genes 14 Torsion [CA]-CB--CG-[OD2] |==|  0.33670
USER: genes 15 Torsion [C]-CA--CB-[OG] |==|  0.38064
USER: genes 16 Torsion [CA]-CB--OG-[HG] |==|  0.85889
ROOT
ATOM      1  C   SER C   8      -0.589  23.776  45.005  1.00 23.80 LIG 0.24  C 
ATOM      2 O    SER C   8      -0.965  24.894  45.357  1.00 21.47 LIG-0.27  OA
ATOM      3  N   ILE C   9       0.561  23.236  45.405  1.00 23.49 LIG-0.35  N 
ATOM      4 H    ILE C   9       0.814  22.440  45.197  1.00 23.49 LIG 0.16  HD
ENDROOT
BRANCH 3 5
ATOM      5  CA  ILE C   9       1.503  23.967  46.247  1.00 20.80 LIG 0.18  C 
BRANCH 5 6
ATOM      6  CB  ILE C   9       1.082  23.943  47.726  1.00 28.93 LIG 0.01  C 
ATOM      7  CG2 ILE C   9       1.501  22.618  48.385  1.00 27.59 LIG 0.01  C 
BRANCH 6 8
ATOM      8  CG1 ILE C   9       1.608  25.171  48.476  1.00 40.08 LIG 0.00  C 
ATOM      9  CD1 ILE C   9       2.783  24.904  49.385  1.00 35.68 LIG 0.01  C 
ENDBRANCH 6 8
ENDBRANCH 5 6
BRANCH 5 10
ATOM     10  C   ILE C   9       2.871  23.315  46.155  1.00 29.58 LIG 0.24  C 
ATOM     11  N   ILE C  10       3.922  24.104  46.353  1.00 24.64 LIG-0.34  N 
ATOM     12 H    ILE C  10       3.866  24.947  46.515  1.00 24.64 LIG 0.16  HD
ATOM     13 O    ILE C   9       2.974  22.112  45.913  1.00 37.49 LIG-0.27  OA
BRANCH 11 14
ATOM     14  CA  ILE C  10       5.284  23.590  46.308  1.00 23.95 LIG 0.19  C 
BRANCH 14 15
ATOM     15  CB  ILE C  10       5.853  23.550  44.866  1.00 22.27 LIG 0.01  C 
ATOM     16  CG2 ILE C  10       6.492  22.192  44.582  1.00 24.85 LIG 0.01  C 
BRANCH 15 17
ATOM     17  CG1 ILE C  10       4.763  23.866  43.839  1.00 32.35 LIG 0.00  C 
ATOM     18  CD1 ILE C  10       4.268  22.632  43.084  1.00 31.42 LIG 0.01  C 
ENDBRANCH 15 17
ENDBRANCH 14 15
BRANCH 14 19
ATOM     19  C   ILE C  10       6.204  24.458  47.153  1.00 24.88 LIG 0.20  C 
ATOM     20 OXT  ILE C  10       7.209  23.976  47.674  1.00 25.96 LIG-0.65  OA
ATOM     21 O    ILE C  10       5.967  25.654  47.310  1.00 20.25 LIG-0.65  OA
ENDBRANCH 14 19
ENDBRANCH 11 14
ENDBRANCH 5 10
ENDBRANCH 3 5
BRANCH 1 22
ATOM     22  CA  SER C   8      -1.433  22.934  44.055  1.00 22.40 LIG 0.20  C 
BRANCH 22 23
ATOM     23  N   SER C   8      -1.134  21.511  44.157  1.00 32.61 LIG-0.34  N 
ATOM     24 H    SER C   8      -0.806  21.131  43.459  1.00 32.61 LIG 0.16  HD
ATOM     25  C   ASP C   7      -1.398  20.935  45.323  1.00 44.43 LIG 0.26  C 
ATOM     26 O    ASP C   7      -1.674  21.573  46.322  1.00 41.29 LIG-0.27  OA
BRANCH 25 27
ATOM     27  CA  ASP C   7      -1.381  19.451  45.437  1.00 57.36 LIG 0.41  C 
ATOM     28  N   ASP C   7      -2.629  18.985  44.892  1.00 63.06 LIG 0.61  N 
BRANCH 27 29
ATOM     29  CB  ASP C   7      -0.266  18.891  44.588  1.00 56.13 LIG 0.16  C 
BRANCH 29 30
ATOM     30  CG  ASP C   7      -0.725  17.761  43.778  1.00 57.80 LIG 0.17  C 
ATOM     31 OD2  ASP C   7      -0.645  17.789  42.588  1.00 66.43 LIG-0.65  OA
ATOM     32 OD1  ASP C   7      -1.164  16.805  44.382  1.00 48.55 LIG-0.65  OA
ENDBRANCH 29 30
ENDBRANCH 27 29
ENDBRANCH 25 27
ENDBRANCH 22 23
BRANCH 22 33
ATOM     33  CB  SER C   8      -2.908  23.168  44.352  1.00 17.52 LIG 0.20  C 
BRANCH 33 34
ATOM     34 OG   SER C   8      -3.639  23.305  43.153  1.00 22.08 LIG-0.40  OA
ATOM     35 HG   SER C   8      -3.266  23.875  42.660  1.00 22.08 LIG 0.21  HD
ENDBRANCH 33 34
ENDBRANCH 22 33
ENDBRANCH 1 22
TORSDOF 15
ENDMDL
MODEL 7
USER: ADFR SOLUTION from run 88
USER: SCORE 12.019553 LL:  -2.230 LR: -10.114 RR:   0.000 FEB:  -5.639
USER: RMSD 9.483848
USER: SEED 87
USER: STATUS no improvement in best in 14 clusters for 5 generations
USER: GENES 17
USER: genes 0 Translation |==|  0.72194 0.49571 0.57805
USER: genes 1 Rotation |==|  0.66558 0.93873 0.33681 0.55889
USER: genes 2 Torsion [C]-N--CA-[C] |==|  0.70275
USER: genes 3 Torsion [N]-CA--CB-[CG1] |==|  0.44597
USER: genes 4 Torsion [CA]-CB--CG1-[CD1] |==|  0.67557
USER: genes 5 Torsion [N]-CA--C-[N] |==|  0.92265
USER: genes 6 Torsion [C]-N--CA-[CB] |==|  0.81174
USER: genes 7 Torsion [N]-CA--CB-[CG2] |==|  0.55292
USER: genes 8 Torsion [CA]-CB--CG1-[CD1] |==|  0.69987
USER: genes 9 Torsion [N]-CA--C-[O] |==|  0.12915
USER: genes 10 Torsion [N]-C--CA-[N] |==|  0.11835
USER: genes 11 Torsion [C]-CA--N-[C] |==|  0.15001
USER: genes 12 Torsion [N]-C--CA-[N] |==|  0.13722
USER: genes 13 Torsion [C]-CA--CB-[CG] |==|  0.23913
USER: genes 14 Torsion [CA]-CB--CG-[OD2] |==|  0.66267
USER: genes 15 Torsion [C]-CA--CB-[OG] |==|  0.13150
USER: genes 16 Torsion [CA]-CB--OG-[HG] |==|  0.30162
ROOT
ATOM      1  C   SER C   8       5.520  24.461  48.003  1.00 23.80 LIG 0.24  C 
ATOM      2 O    SER C   8       5.734  25.661  47.834  1.00 21.47 LIG-0.27  OA
ATOM      3  N   ILE C   9       5.096  23.654  47.032  1.00 23.49 LIG-0.35  N 
ATOM      4 H    ILE C   9       4.981  22.807  47.129  1.00 23.49 LIG 0.16  HD
ENDROOT
BRANCH 3 5
ATOM      5  CA  ILE C   9       4.784  24.155  45.697  1.00 20.80 LIG 0.18  C 
BRANCH 5 6
ATOM      6  CB  ILE C   9       5.387  23.263  44.599  1.00 28.93 LIG 0.01  C 
ATOM      7  CG2 ILE C   9       5.380  21.789  45.036  1.00 27.59 LIG 0.01  C 
BRANCH 6 8
ATOM      8  CG1 ILE C   9       4.690  23.485  43.252  1.00 40.08 LIG 0.00  C 
ATOM      9  CD1 ILE C   9       3.967  22.279  42.706  1.00 35.68 LIG 0.01  C 
ENDBRANCH 6 8
ENDBRANCH 5 6
BRANCH 5 10
ATOM     10  C   ILE C   9       3.278  24.159  45.499  1.00 29.58 LIG 0.24  C 
ATOM     11  N   ILE C  10       2.584  23.263  46.192  1.00 24.64 LIG-0.34  N 
ATOM     12 H    ILE C  10       2.938  22.689  46.725  1.00 24.64 LIG 0.16  HD
ATOM     13 O    ILE C   9       2.752  24.965  44.732  1.00 37.49 LIG-0.27  OA
BRANCH 11 14
ATOM     14  CA  ILE C  10       1.132  23.181  46.100  1.00 23.95 LIG 0.19  C 
BRANCH 14 15
ATOM     15  CB  ILE C  10       0.432  24.422  46.712  1.00 22.27 LIG 0.01  C 
ATOM     16  CG2 ILE C  10      -1.029  24.109  47.026  1.00 24.85 LIG 0.01  C 
BRANCH 15 17
ATOM     17  CG1 ILE C  10       1.169  24.905  47.964  1.00 32.35 LIG 0.00  C 
ATOM     18  CD1 ILE C  10       0.411  24.616  49.260  1.00 31.42 LIG 0.01  C 
ENDBRANCH 15 17
ENDBRANCH 14 15
BRANCH 14 19
ATOM     19  C   ILE C  10       0.701  23.067  44.646  1.00 24.88 LIG 0.20  C 
ATOM     20 OXT  ILE C  10      -0.201  23.779  44.207  1.00 25.96 LIG-0.65  OA
ATOM     21 O    ILE C  10       1.261  22.279  43.886  1.00 20.25 LIG-0.65  OA
ENDBRANCH 14 19
ENDBRANCH 11 14
ENDBRANCH 5 10
ENDBRANCH 3 5
BRANCH 1 22
ATOM     22  CA  SER C   8       5.719  23.820  49.371  1.00 22.40 LIG 0.20  C 
BRANCH 22 23
ATOM     23  N   SER C   8       6.368  22.517  49.286  1.00 32.61 LIG-0.34  N 
ATOM     24 H    SER C   8       5.966  21.857  49.665  1.00 32.61 LIG 0.16  HD
ATOM     25  C   ASP C   7       7.520  22.473  48.630  1.00 44.43 LIG 0.26  C 
ATOM     26 O    ASP C   7       7.927  23.401  47.956  1.00 41.29 LIG-0.27  OA
BRANCH 25 27
ATOM     27  CA  ASP C   7       8.379  21.261  48.721  1.00 57.36 LIG 0.41  C 
ATOM     28  N   ASP C   7       7.524  20.133  48.458  1.00 63.06 LIG 0.61  N 
BRANCH 27 29
ATOM     29  CB  ASP C   7       9.433  21.305  47.643  1.00 56.13 LIG 0.16  C 
BRANCH 29 30
ATOM     30  CG  ASP C   7      10.612  22.059  48.076  1.00 57.80 LIG 0.17  C 
ATOM     31 OD2  ASP C   7      10.982  23.016  47.468  1.00 66.43 LIG-0.65  OA
ATOM     32 OD1  ASP C   7      11.165  21.667  49.082  1.00 48.55 LIG-0.65  OA
ENDBRANCH 29 30
ENDBRANCH 27 29
ENDBRANCH 25 27
ENDBRANCH 22 23
BRANCH 22 33
ATOM     33  CB  SER C   8       6.552  24.748  50.245  1.00 17.52 LIG 0.20  C 
BRANCH 33 34
ATOM     34 OG   SER C   8       6.059  26.069  50.176  1.00 22.08 LIG-0.40  OA
ATOM     35 HG   SER C   8       5.687  26.267  50.903  1.00 22.08 LIG 0.21  HD
ENDBRANCH 33 34
ENDBRANCH 22 33
ENDBRANCH 1 22
TORSDOF 15
ENDMDL
MODEL 8
USER: ADFR SOLUTION from run 156
USER: SCORE 13.151539 LL:  -3.528 LR: -10.067 RR:   0.000 FEB:  -5.592
USER: RMSD 5.751829
USER: SEED 155
USER: STATUS no improvement in best in 13 clusters for 5 generations
USER: GENES 17
USER: genes 0 Translation |==|  0.48689 0.39774 0.46013
USER: genes 1 Rotation |==|  0.08759 0.62670 0.34058 0.69609
USER: genes 2 Torsion [C]-N--CA-[C] |==|  0.69573
USER: genes 3 Torsion [N]-CA--CB-[CG1] |==|  0.42196
USER: genes 4 Torsion [CA]-CB--CG1-[CD1] |==|  0.18310
USER: genes 5 Torsion [N]-CA--C-[N] |==|  0.84379
USER: genes 6 Torsion [C]-N--CA-[CB] |==|  0.13826
USER: genes 7 Torsion [N]-CA--CB-[CG2] |==|  0.15151
USER: genes 8 Torsion [CA]-CB--CG1-[CD1] |==|  0.56705
USER: genes 9 Torsion [N]-CA--C-[O] |==|  0.40939
USER: genes 10 Torsion [N]-C--CA-[N] |==|  0.91218
USER: genes 11 Torsion [C]-CA--N-[C] |==|  0.83034
USER: genes 12 Torsion [N]-C--CA-[N] |==|  0.27509
USER: genes 13 Torsion [C]-CA--CB-[CG] |==|  0.69345
USER: genes 14 Torsion [CA]-CB--CG-[OD2] |==|  0.79368
USER: genes 15 Torsion [C]-CA--CB-[OG] |==|  0.99583
USER: genes 16 Torsion [CA]-CB--OG-[HG] |==|  0.46896
ROOT
ATOM      1  C   SER C   8       0.584  22.918  46.234  1.00 23.80 LIG 0.24  C 
ATOM      2 O    SER C   8       0.301  21.746  45.991  1.00 21.47 LIG-0.27  OA
ATOM      3  N   ILE C   9       1.760  23.462  45.928  1.00 23.49 LIG-0.35  N 
ATOM      4 H    ILE C   9       1.953  24.290  46.057  1.00 23.49 LIG 0.16  HD
ENDROOT
BRANCH 3 5
ATOM      5  CA  ILE C   9       2.840  22.677  45.336  1.00 20.80 LIG 0.18  C 
BRANCH 5 6
ATOM      6  CB  ILE C   9       3.452  23.382  44.114  1.00 28.93 LIG 0.01  C 
ATOM      7  CG2 ILE C   9       3.253  24.904  44.212  1.00 27.59 LIG 0.01  C 
BRANCH 6 8
ATOM      8  CG1 ILE C   9       4.920  22.988  43.920  1.00 40.08 LIG 0.00  C 
ATOM      9  CD1 ILE C   9       5.146  21.540  43.561  1.00 35.68 LIG 0.01  C 
ENDBRANCH 6 8
ENDBRANCH 5 6
BRANCH 5 10
ATOM     10  C   ILE C   9       3.950  22.497  46.357  1.00 29.58 LIG 0.24  C 
ATOM     11  N   ILE C  10       4.466  23.605  46.878  1.00 24.64 LIG-0.34  N 
ATOM     12 H    ILE C  10       4.215  24.399  46.663  1.00 24.64 LIG 0.16  HD
ATOM     13 O    ILE C   9       4.331  21.369  46.671  1.00 37.49 LIG-0.27  OA
BRANCH 11 14
ATOM     14  CA  ILE C  10       5.523  23.559  47.880  1.00 23.95 LIG 0.19  C 
BRANCH 14 15
ATOM     15  CB  ILE C  10       6.696  22.637  47.457  1.00 22.27 LIG 0.01  C 
ATOM     16  CG2 ILE C  10       7.232  23.051  46.088  1.00 24.85 LIG 0.01  C 
BRANCH 15 17
ATOM     17  CG1 ILE C  10       7.809  22.651  48.507  1.00 32.35 LIG 0.00  C 
ATOM     18  CD1 ILE C  10       9.179  22.278  47.940  1.00 31.42 LIG 0.01  C 
ENDBRANCH 15 17
ENDBRANCH 14 15
BRANCH 14 19
ATOM     19  C   ILE C  10       6.082  24.953  48.121  1.00 24.88 LIG 0.20  C 
ATOM     20 OXT  ILE C  10       6.110  25.778  47.208  1.00 25.96 LIG-0.65  OA
ATOM     21 O    ILE C  10       6.494  25.279  49.232  1.00 20.25 LIG-0.65  OA
ENDBRANCH 14 19
ENDBRANCH 11 14
ENDBRANCH 5 10
ENDBRANCH 3 5
BRANCH 1 22
ATOM     22  CA  SER C   8      -0.418  23.832  46.930  1.00 22.40 LIG 0.20  C 
BRANCH 22 23
ATOM     23  N   SER C   8       0.230  24.827  47.776  1.00 32.61 LIG-0.34  N 
ATOM     24 H    SER C   8       0.096  25.653  47.578  1.00 32.61 LIG 0.16  HD
ATOM     25  C   ASP C   7       0.965  24.361  48.778  1.00 44.43 LIG 0.26  C 
ATOM     26 O    ASP C   7       0.948  23.192  49.116  1.00 41.29 LIG-0.27  OA
BRANCH 25 27
ATOM     27  CA  ASP C   7       1.871  25.279  49.521  1.00 57.36 LIG 0.41  C 
ATOM     28  N   ASP C   7       1.176  25.653  50.725  1.00 63.06 LIG 0.61  N 
BRANCH 27 29
ATOM     29  CB  ASP C   7       3.124  24.540  49.920  1.00 56.13 LIG 0.16  C 
BRANCH 29 30
ATOM     30  CG  ASP C   7       3.183  24.326  51.368  1.00 57.80 LIG 0.17  C 
ATOM     31 OD2  ASP C   7       3.436  25.225  52.109  1.00 66.43 LIG-0.65  OA
ATOM     32 OD1  ASP C   7       2.944  23.203  51.758  1.00 48.55 LIG-0.65  OA
ENDBRANCH 29 30
ENDBRANCH 27 29
ENDBRANCH 25 27
ENDBRANCH 22 23
BRANCH 22 33
ATOM     33  CB  SER C   8      -1.271  24.534  45.882  1.00 17.52 LIG 0.20  C 
BRANCH 33 34
ATOM     34 OG   SER C   8      -0.865  24.161  44.582  1.00 22.08 LIG-0.40  OA
ATOM     35 HG   SER C   8      -1.432  24.429  44.023  1.00 22.08 LIG 0.21  HD
ENDBRANCH 33 34
ENDBRANCH 22 33
ENDBRANCH 1 22
TORSDOF 15
ENDMDL
MODEL 9
USER: ADFR SOLUTION from run 104
USER: SCORE 12.180294 LL:  -2.825 LR: -10.002 RR:   0.000 FEB:  -5.528
USER: RMSD 5.562367
USER: SEED 103
USER: STATUS no improvement in best in 6 clusters for 5 generations
USER: GENES 17
USER: genes 0 Translation |==|  0.51062 0.38249 0.39966
USER: genes 1 Rotation |==|  0.90938 0.62083 0.63671 0.72164
USER: genes 2 Torsion [C]-N--CA-[C] |==|  0.86149
USER: genes 3 Torsion [N]-CA--CB-[CG1] |==|  0.53457
USER: genes 4 Torsion [CA]-CB--CG1-[CD1] |==|  0.73634
USER: genes 5 Torsion [N]-CA--C-[N] |==|  0.36454
USER: genes 6 Torsion [C]-N--CA-[CB] |==|  0.41698
USER: genes 7 Torsion [N]-CA--CB-[CG2] |==|  0.45345
USER: genes 8 Torsion [CA]-CB--CG1-[CD1] |==|  0.95877
USER: genes 9 Torsion [N]-CA--C-[O] |==|  0.34668
USER: genes 10 Torsion [N]-C--CA-[N] |==|  0.19442
USER: genes 11 Torsion [C]-CA--N-[C] |==|  0.15556
USER: genes 12 Torsion [N]-C--CA-[N] |==|  0.93410
USER: genes 13 Torsion [C]-CA--CB-[CG] |==|  0.65121
USER: genes 14 Torsion [CA]-CB--CG-[OD2] |==|  0.32052
USER: genes 15 Torsion [C]-CA--CB-[OG] |==|  0.29212
USER: genes 16 Torsion [CA]-CB--OG-[HG] |==|  0.16232
ROOT
ATOM      1  C   SER C   8       1.082  22.678  45.327  1.00 23.80 LIG 0.24  C 
ATOM      2 O    SER C   8       1.165  22.952  46.523  1.00 21.47 LIG-0.27  OA
ATOM      3  N   ILE C   9       2.118  22.259  44.603  1.00 23.49 LIG-0.35  N 
ATOM      4 H    ILE C   9       2.062  22.027  43.776  1.00 23.49 LIG 0.16  HD
ENDROOT
BRANCH 3 5
ATOM      5  CA  ILE C   9       3.460  22.157  45.167  1.00 20.80 LIG 0.18  C 
BRANCH 5 6
ATOM      6  CB  ILE C   9       4.520  21.927  44.077  1.00 28.93 LIG 0.01  C 
ATOM      7  CG2 ILE C   9       4.630  23.158  43.161  1.00 27.59 LIG 0.01  C 
BRANCH 6 8
ATOM      8  CG1 ILE C   9       5.867  21.518  44.684  1.00 40.08 LIG 0.00  C 
ATOM      9  CD1 ILE C   9       6.834  22.654  44.904  1.00 35.68 LIG 0.01  C 
ENDBRANCH 6 8
ENDBRANCH 5 6
BRANCH 5 10
ATOM     10  C   ILE C   9       3.811  23.457  45.871  1.00 29.58 LIG 0.24  C 
ATOM     11  N   ILE C  10       4.304  23.354  47.100  1.00 24.64 LIG-0.34  N 
ATOM     12 H    ILE C  10       4.421  22.607  47.510  1.00 24.64 LIG 0.16  HD
ATOM     13 O    ILE C   9       3.639  24.537  45.306  1.00 37.49 LIG-0.27  OA
BRANCH 11 14
ATOM     14  CA  ILE C  10       4.694  24.529  47.869  1.00 23.95 LIG 0.19  C 
BRANCH 14 15
ATOM     15  CB  ILE C  10       4.528  24.316  49.396  1.00 22.27 LIG 0.01  C 
ATOM     16  CG2 ILE C  10       5.315  25.372  50.169  1.00 24.85 LIG 0.01  C 
BRANCH 15 17
ATOM     17  CG1 ILE C  10       3.051  24.335  49.794  1.00 32.35 LIG 0.00  C 
ATOM     18  CD1 ILE C  10       2.139  24.903  48.707  1.00 31.42 LIG 0.01  C 
ENDBRANCH 15 17
ENDBRANCH 14 15
BRANCH 14 19
ATOM     19  C   ILE C  10       6.149  24.878  47.597  1.00 24.88 LIG 0.20  C 
ATOM     20 OXT  ILE C  10       7.030  24.032  47.746  1.00 25.96 LIG-0.65  OA
ATOM     21 O    ILE C  10       6.462  26.001  47.207  1.00 20.25 LIG-0.65  OA
ENDBRANCH 14 19
ENDBRANCH 11 14
ENDBRANCH 5 10
ENDBRANCH 3 5
BRANCH 1 22
ATOM     22  CA  SER C   8      -0.242  22.823  44.586  1.00 22.40 LIG 0.20  C 
BRANCH 22 23
ATOM     23  N   SER C   8      -0.812  21.536  44.207  1.00 32.61 LIG-0.34  N 
ATOM     24 H    SER C   8      -0.985  21.417  43.373  1.00 32.61 LIG 0.16  HD
ATOM     25  C   ASP C   7      -1.010  20.666  45.189  1.00 44.43 LIG 0.26  C 
ATOM     26 O    ASP C   7      -0.561  20.827  46.308  1.00 41.29 LIG-0.27  OA
BRANCH 25 27
ATOM     27  CA  ASP C   7      -1.826  19.446  44.945  1.00 57.36 LIG 0.41  C 
ATOM     28  N   ASP C   7      -2.688  19.746  43.832  1.00 63.06 LIG 0.61  N 
BRANCH 27 29
ATOM     29  CB  ASP C   7      -0.924  18.307  44.538  1.00 56.13 LIG 0.16  C 
BRANCH 29 30
ATOM     30  CG  ASP C   7      -1.348  17.714  43.267  1.00 57.80 LIG 0.17  C 
ATOM     31 OD2  ASP C   7      -0.649  17.774  42.302  1.00 66.43 LIG-0.65  OA
ATOM     32 OD1  ASP C   7      -2.423  17.154  43.263  1.00 48.55 LIG-0.65  OA
ENDBRANCH 29 30
ENDBRANCH 27 29
ENDBRANCH 25 27
ENDBRANCH 22 23
BRANCH 22 33
ATOM     33  CB  SER C   8      -1.230  23.579  45.464  1.00 17.52 LIG 0.20  C 
BRANCH 33 34
ATOM     34 OG   SER C   8      -1.391  24.903  45.003  1.00 22.08 LIG-0.40  OA
ATOM     35 HG   SER C   8      -1.660  24.892  44.207  1.00 22.08 LIG 0.21  HD
ENDBRANCH 33 34
ENDBRANCH 22 33
ENDBRANCH 1 22
TORSDOF 15
ENDMDL
MODEL 10
USER: ADFR SOLUTION from run 21
USER: SCORE 13.984416 LL:  -4.340 LR:  -9.958 RR:   0.000 FEB:  -5.484
USER: RMSD 6.455408
USER: SEED 20
USER: STATUS no improvement in best in 4 clusters for 5 generations
USER: GENES 17
USER: genes 0 Translation |==|  0.53870 0.37884 0.41899
USER: genes 1 Rotation |==|  0.16810 0.71708 0.31552 0.74225
USER: genes 2 Torsion [C]-N--CA-[C] |==|  0.66667
USER: genes 3 Torsion [N]-CA--CB-[CG1] |==|  0.26547
USER: genes 4 Torsion [CA]-CB--CG1-[CD1] |==|  0.78194
USER: genes 5 Torsion [N]-CA--C-[N] |==|  0.94140
USER: genes 6 Torsion [C]-N--CA-[CB] |==|  0.33090
USER: genes 7 Torsion [N]-CA--CB-[CG2] |==|  0.46688
USER: genes 8 Torsion [CA]-CB--CG1-[CD1] |==|  0.63190
USER: genes 9 Torsion [N]-CA--C-[O] |==|  0.38091
USER: genes 10 Torsion [N]-C--CA-[N] |==|  0.99318
USER: genes 11 Torsion [C]-CA--N-[C] |==|  0.76202
USER: genes 12 Torsion [N]-C--CA-[N] |==|  0.46403
USER: genes 13 Torsion [C]-CA--CB-[CG] |==|  0.42821
USER: genes 14 Torsion [CA]-CB--CG-[OD2] |==|  0.16834
USER: genes 15 Torsion [C]-CA--CB-[OG] |==|  0.04456
USER: genes 16 Torsion [CA]-CB--OG-[HG] |==|  0.44400
ROOT
ATOM      1  C   SER C   8       1.672  22.621  45.617  1.00 23.80 LIG 0.24  C 
ATOM      2 O    SER C   8       1.058  21.789  44.950  1.00 21.47 LIG-0.27  OA
ATOM      3  N   ILE C   9       2.994  22.767  45.560  1.00 23.49 LIG-0.35  N 
ATOM      4 H    ILE C   9       3.428  23.371  45.992  1.00 23.49 LIG 0.16  HD
ENDROOT
BRANCH 3 5
ATOM      5  CA  ILE C   9       3.830  21.894  44.741  1.00 20.80 LIG 0.18  C 
BRANCH 5 6
ATOM      6  CB  ILE C   9       4.635  22.690  43.700  1.00 28.93 LIG 0.01  C 
ATOM      7  CG2 ILE C   9       3.864  23.948  43.267  1.00 27.59 LIG 0.01  C 
BRANCH 6 8
ATOM      8  CG1 ILE C   9       6.047  23.005  44.207  1.00 40.08 LIG 0.00  C 
ATOM      9  CD1 ILE C   9       6.128  24.154  45.182  1.00 35.68 LIG 0.01  C 
ENDBRANCH 6 8
ENDBRANCH 5 6
BRANCH 5 10
ATOM     10  C   ILE C   9       4.829  21.174  45.631  1.00 29.58 LIG 0.24  C 
ATOM     11  N   ILE C  10       5.083  21.729  46.811  1.00 24.64 LIG-0.34  N 
ATOM     12 H    ILE C  10       4.726  22.462  47.084  1.00 24.64 LIG 0.16  HD
ATOM     13 O    ILE C   9       5.359  20.129  45.254  1.00 37.49 LIG-0.27  OA
BRANCH 11 14
ATOM     14  CA  ILE C  10       6.009  21.121  47.758  1.00 23.95 LIG 0.19  C 
BRANCH 14 15
ATOM     15  CB  ILE C  10       7.211  22.046  48.083  1.00 22.27 LIG 0.01  C 
ATOM     16  CG2 ILE C  10       7.988  21.508  49.282  1.00 24.85 LIG 0.01  C 
BRANCH 15 17
ATOM     17  CG1 ILE C  10       8.125  22.203  46.865  1.00 32.35 LIG 0.00  C 
ATOM     18  CD1 ILE C  10       9.606  22.011  47.193  1.00 31.42 LIG 0.01  C 
ENDBRANCH 15 17
ENDBRANCH 14 15
BRANCH 14 19
ATOM     19  C   ILE C  10       5.295  20.802  49.063  1.00 24.88 LIG 0.20  C 
ATOM     20 OXT  ILE C  10       4.496  21.603  49.547  1.00 25.96 LIG-0.65  OA
ATOM     21 O    ILE C  10       5.491  19.734  49.639  1.00 20.25 LIG-0.65  OA
ENDBRANCH 14 19
ENDBRANCH 11 14
ENDBRANCH 5 10
ENDBRANCH 3 5
BRANCH 1 22
ATOM     22  CA  SER C   8       0.935  23.542  46.582  1.00 22.40 LIG 0.20  C 
BRANCH 22 23
ATOM     23  N   SER C   8       1.840  24.404  47.331  1.00 32.61 LIG-0.34  N 
ATOM     24 H    SER C   8       1.984  25.189  47.011  1.00 32.61 LIG 0.16  HD
ATOM     25  C   ASP C   7       2.359  23.893  48.440  1.00 44.43 LIG 0.26  C 
ATOM     26 O    ASP C   7       1.960  22.855  48.933  1.00 41.29 LIG-0.27  OA
BRANCH 25 27
ATOM     27  CA  ASP C   7       3.488  24.587  49.119  1.00 57.36 LIG 0.41  C 
ATOM     28  N   ASP C   7       3.617  23.983  50.419  1.00 63.06 LIG 0.61  N 
BRANCH 27 29
ATOM     29  CB  ASP C   7       4.767  24.333  48.360  1.00 56.13 LIG 0.16  C 
BRANCH 29 30
ATOM     30  CG  ASP C   7       5.739  25.408  48.573  1.00 57.80 LIG 0.17  C 
ATOM     31 OD2  ASP C   7       6.148  25.654  49.666  1.00 66.43 LIG-0.65  OA
ATOM     32 OD1  ASP C   7       6.109  26.007  47.585  1.00 48.55 LIG-0.65  OA
ENDBRANCH 29 30
ENDBRANCH 27 29
ENDBRANCH 25 27
ENDBRANCH 22 23
BRANCH 22 33
ATOM     33  CB  SER C   8      -0.055  24.398  45.803  1.00 17.52 LIG 0.20  C 
BRANCH 33 34
ATOM     34 OG   SER C   8      -0.272  23.858  44.516  1.00 22.08 LIG-0.40  OA
ATOM     35 HG   SER C   8      -0.994  24.154  44.206  1.00 22.08 LIG 0.21  HD
ENDBRANCH 33 34
ENDBRANCH 22 33
ENDBRANCH 1 22
TORSDOF 15
ENDMDL
MODEL 11
USER: ADFR SOLUTION from run 9
USER: SCORE 11.512172 LL:  -2.672 LR:  -9.931 RR:   0.000 FEB:  -5.456
USER: RMSD 3.513950
USER: SEED 183695
USER: STATUS no improvement in best in 15 clusters for 5 generations
USER: GENES 17
USER: genes 0 Translation |==|  0.49918 0.41208 0.39554
USER: genes 1 Rotation |==|  0.65815 0.69842 0.43761 0.92629
USER: genes 2 Torsion [C]-N--CA-[C] |==|  0.21220
USER: genes 3 Torsion [N]-CA--CB-[CG1] |==|  0.64695
USER: genes 4 Torsion [CA]-CB--CG1-[CD1] |==|  0.87329
USER: genes 5 Torsion [N]-CA--C-[N] |==|  0.43850
USER: genes 6 Torsion [C]-N--CA-[CB] |==|  0.45844
USER: genes 7 Torsion [N]-CA--CB-[CG2] |==|  0.77832
USER: genes 8 Torsion [CA]-CB--CG1-[CD1] |==|  0.49251
USER: genes 9 Torsion [N]-CA--C-[O] |==|  0.38782
USER: genes 10 Torsion [N]-C--CA-[N] |==|  0.47777
USER: genes 11 Torsion [C]-CA--N-[C] |==|  0.63392
USER: genes 12 Torsion [N]-C--CA-[N] |==|  0.73799
USER: genes 13 Torsion [C]-CA--CB-[CG] |==|  0.44012
USER: genes 14 Torsion [CA]-CB--CG-[OD2] |==|  0.72312
USER: genes 15 Torsion [C]-CA--CB-[OG] |==|  0.58739
USER: genes 16 Torsion [CA]-CB--OG-[HG] |==|  0.45795
ROOT
ATOM      1  C   SER C   8       0.842  23.144  45.265  1.00 23.80 LIG 0.24  C 
ATOM      2 O    SER C   8       1.207  24.278  44.957  1.00 21.47 LIG-0.27  OA
ATOM      3  N   ILE C   9       1.691  22.151  45.522  1.00 23.49 LIG-0.35  N 
ATOM      4 H    ILE C   9       1.447  21.366  45.777  1.00 23.49 LIG 0.16  HD
ENDROOT
BRANCH 3 5
ATOM      5  CA  ILE C   9       3.135  22.319  45.388  1.00 20.80 LIG 0.18  C 
BRANCH 5 6
ATOM      6  CB  ILE C   9       3.501  23.106  44.118  1.00 28.93 LIG 0.01  C 
ATOM      7  CG2 ILE C   9       3.960  24.529  44.479  1.00 27.59 LIG 0.01  C 
BRANCH 6 8
ATOM      8  CG1 ILE C   9       4.528  22.350  43.269  1.00 40.08 LIG 0.00  C 
ATOM      9  CD1 ILE C   9       5.685  21.767  44.042  1.00 35.68 LIG 0.01  C 
ENDBRANCH 6 8
ENDBRANCH 5 6
BRANCH 5 10
ATOM     10  C   ILE C   9       3.663  23.105  46.575  1.00 29.58 LIG 0.24  C 
ATOM     11  N   ILE C  10       4.954  22.965  46.856  1.00 24.64 LIG-0.34  N 
ATOM     12 H    ILE C  10       5.489  22.456  46.415  1.00 24.64 LIG 0.16  HD
ATOM     13 O    ILE C   9       2.911  23.831  47.226  1.00 37.49 LIG-0.27  OA
BRANCH 11 14
ATOM     14  CA  ILE C  10       5.579  23.682  47.959  1.00 23.95 LIG 0.19  C 
BRANCH 14 15
ATOM     15  CB  ILE C  10       6.968  23.099  48.329  1.00 22.27 LIG 0.01  C 
ATOM     16  CG2 ILE C  10       6.808  21.848  49.190  1.00 24.85 LIG 0.01  C 
BRANCH 15 17
ATOM     17  CG1 ILE C  10       7.788  22.796  47.073  1.00 32.35 LIG 0.00  C 
ATOM     18  CD1 ILE C  10       9.193  22.280  47.379  1.00 31.42 LIG 0.01  C 
ENDBRANCH 15 17
ENDBRANCH 14 15
BRANCH 14 19
ATOM     19  C   ILE C  10       5.765  25.148  47.599  1.00 24.88 LIG 0.20  C 
ATOM     20 OXT  ILE C  10       6.109  25.470  46.462  1.00 25.96 LIG-0.65  OA
ATOM     21 O    ILE C  10       5.555  26.029  48.430  1.00 20.25 LIG-0.65  OA
ENDBRANCH 14 19
ENDBRANCH 11 14
ENDBRANCH 5 10
ENDBRANCH 3 5
BRANCH 1 22
ATOM     22  CA  SER C   8      -0.641  22.802  45.357  1.00 22.40 LIG 0.20  C 
BRANCH 22 23
ATOM     23  N   SER C   8      -1.492  23.980  45.246  1.00 32.61 LIG-0.34  N 
ATOM     24 H    SER C   8      -1.325  24.522  44.599  1.00 32.61 LIG 0.16  HD
ATOM     25  C   ASP C   7      -2.449  24.104  46.158  1.00 44.43 LIG 0.26  C 
ATOM     26 O    ASP C   7      -2.750  23.205  46.919  1.00 41.29 LIG-0.27  OA
BRANCH 25 27
ATOM     27  CA  ASP C   7      -3.186  25.391  46.287  1.00 57.36 LIG 0.41  C 
ATOM     28  N   ASP C   7      -2.516  26.144  47.315  1.00 63.06 LIG 0.61  N 
BRANCH 27 29
ATOM     29  CB  ASP C   7      -3.077  26.168  44.998  1.00 56.13 LIG 0.16  C 
BRANCH 29 30
ATOM     30  CG  ASP C   7      -4.154  27.154  44.874  1.00 57.80 LIG 0.17  C 
ATOM     31 OD2  ASP C   7      -5.117  26.927  44.207  1.00 66.43 LIG-0.65  OA
ATOM     32 OD1  ASP C   7      -4.016  28.186  45.495  1.00 48.55 LIG-0.65  OA
ENDBRANCH 29 30
ENDBRANCH 27 29
ENDBRANCH 25 27
ENDBRANCH 22 23
BRANCH 22 33
ATOM     33  CB  SER C   8      -0.997  21.811  44.257  1.00 17.52 LIG 0.20  C 
BRANCH 33 34
ATOM     34 OG   SER C   8      -2.330  22.001  43.832  1.00 22.08 LIG-0.40  OA
ATOM     35 HG   SER C   8      -2.450  21.604  43.102  1.00 22.08 LIG 0.21  HD
ENDBRANCH 33 34
ENDBRANCH 22 33
ENDBRANCH 1 22
TORSDOF 15
ENDMDL
MODEL 12
USER: ADFR SOLUTION from run 86
USER: SCORE 13.555913 LL:  -3.967 LR:  -9.919 RR:   0.000 FEB:  -5.444
USER: RMSD 7.074906
USER: SEED 85
USER: STATUS no improvement in best in 14 clusters for 5 generations
USER: GENES 17
USER: genes 0 Translation |==|  0.61447 0.38350 0.49541
USER: genes 1 Rotation |==|  0.15965 0.65972 0.29471 0.75789
USER: genes 2 Torsion [C]-N--CA-[C] |==|  0.58920
USER: genes 3 Torsion [N]-CA--CB-[CG1] |==|  0.03417
USER: genes 4 Torsion [CA]-CB--CG1-[CD1] |==|  0.68087
USER: genes 5 Torsion [N]-CA--C-[N] |==|  0.35707
USER: genes 6 Torsion [C]-N--CA-[CB] |==|  0.86938
USER: genes 7 Torsion [N]-CA--CB-[CG2] |==|  0.52873
USER: genes 8 Torsion [CA]-CB--CG1-[CD1] |==|  0.59627
USER: genes 9 Torsion [N]-CA--C-[O] |==|  0.48465
USER: genes 10 Torsion [N]-C--CA-[N] |==|  0.95705
USER: genes 11 Torsion [C]-CA--N-[C] |==|  0.79982
USER: genes 12 Torsion [N]-C--CA-[N] |==|  0.64238
USER: genes 13 Torsion [C]-CA--CB-[CG] |==|  0.77782
USER: genes 14 Torsion [CA]-CB--CG-[OD2] |==|  0.80065
USER: genes 15 Torsion [C]-CA--CB-[OG] |==|  0.44566
USER: genes 16 Torsion [CA]-CB--OG-[HG] |==|  0.26043
ROOT
ATOM      1  C   SER C   8       3.263  22.694  46.763  1.00 23.80 LIG 0.24  C 
ATOM      2 O    SER C   8       2.907  21.725  46.094  1.00 21.47 LIG-0.27  OA
ATOM      3  N   ILE C   9       4.539  23.042  46.920  1.00 23.49 LIG-0.35  N 
ATOM      4 H    ILE C   9       4.796  23.740  47.352  1.00 23.49 LIG 0.16  HD
ENDROOT
BRANCH 3 5
ATOM      5  CA  ILE C   9       5.627  22.247  46.357  1.00 20.80 LIG 0.18  C 
BRANCH 5 6
ATOM      6  CB  ILE C   9       6.047  22.760  44.969  1.00 28.93 LIG 0.01  C 
ATOM      7  CG2 ILE C   9       5.721  21.717  43.887  1.00 27.59 LIG 0.01  C 
BRANCH 6 8
ATOM      8  CG1 ILE C   9       5.435  24.133  44.672  1.00 40.08 LIG 0.00  C 
ATOM      9  CD1 ILE C   9       4.449  24.154  43.530  1.00 35.68 LIG 0.01  C 
ENDBRANCH 6 8
ENDBRANCH 5 6
BRANCH 5 10
ATOM     10  C   ILE C   9       6.843  22.346  47.262  1.00 29.58 LIG 0.24  C 
ATOM     11  N   ILE C  10       7.402  21.199  47.636  1.00 24.64 LIG-0.34  N 
ATOM     12 H    ILE C  10       7.109  20.425  47.405  1.00 24.64 LIG 0.16  HD
ATOM     13 O    ILE C   9       7.270  23.445  47.614  1.00 37.49 LIG-0.27  OA
BRANCH 11 14
ATOM     14  CA  ILE C  10       8.583  21.166  48.488  1.00 23.95 LIG 0.19  C 
BRANCH 14 15
ATOM     15  CB  ILE C  10       9.681  22.152  48.012  1.00 22.27 LIG 0.01  C 
ATOM     16  CG2 ILE C  10      10.984  21.904  48.769  1.00 24.85 LIG 0.01  C 
BRANCH 15 17
ATOM     17  CG1 ILE C  10       9.898  22.042  46.501  1.00 32.35 LIG 0.00  C 
ATOM     18  CD1 ILE C  10      11.352  22.256  46.082  1.00 31.42 LIG 0.01  C 
ENDBRANCH 15 17
ENDBRANCH 14 15
BRANCH 14 19
ATOM     19  C   ILE C  10       8.212  21.529  49.918  1.00 24.88 LIG 0.20  C 
ATOM     20 OXT  ILE C  10       7.064  21.876  50.194  1.00 25.96 LIG-0.65  OA
ATOM     21 O    ILE C  10       9.047  21.462  50.818  1.00 20.25 LIG-0.65  OA
ENDBRANCH 14 19
ENDBRANCH 11 14
ENDBRANCH 5 10
ENDBRANCH 3 5
BRANCH 1 22
ATOM     22  CA  SER C   8       2.237  23.563  47.481  1.00 22.40 LIG 0.20  C 
BRANCH 22 23
ATOM     23  N   SER C   8       2.841  24.410  48.503  1.00 32.61 LIG-0.34  N 
ATOM     24 H    SER C   8       2.889  25.252  48.332  1.00 32.61 LIG 0.16  HD
ATOM     25  C   ASP C   7       3.261  23.799  49.603  1.00 44.43 LIG 0.26  C 
ATOM     26 O    ASP C   7       2.983  22.642  49.858  1.00 41.29 LIG-0.27  OA
BRANCH 25 27
ATOM     27  CA  ASP C   7       4.123  24.528  50.573  1.00 57.36 LIG 0.41  C 
ATOM     28  N   ASP C   7       5.264  23.687  50.819  1.00 63.06 LIG 0.61  N 
BRANCH 27 29
ATOM     29  CB  ASP C   7       4.617  25.809  49.946  1.00 56.13 LIG 0.16  C 
BRANCH 29 30
ATOM     30  CG  ASP C   7       5.752  25.566  49.053  1.00 57.80 LIG 0.17  C 
ATOM     31 OD2  ASP C   7       6.824  25.279  49.491  1.00 66.43 LIG-0.65  OA
ATOM     32 OD1  ASP C   7       5.533  25.654  47.864  1.00 48.55 LIG-0.65  OA
ENDBRANCH 29 30
ENDBRANCH 27 29
ENDBRANCH 25 27
ENDBRANCH 22 23
BRANCH 22 33
ATOM     33  CB  SER C   8       1.514  24.433  46.461  1.00 17.52 LIG 0.20  C 
BRANCH 33 34
ATOM     34 OG   SER C   8       0.292  24.904  46.990  1.00 22.08 LIG-0.40  OA
ATOM     35 HG   SER C   8       0.409  25.661  47.334  1.00 22.08 LIG 0.21  HD
ENDBRANCH 33 34
ENDBRANCH 22 33
ENDBRANCH 1 22
TORSDOF 15
ENDMDL
MODEL 13
USER: ADFR SOLUTION from run 81
USER: SCORE 12.366237 LL:  -2.856 LR:  -9.838 RR:   0.000 FEB:  -5.363
USER: RMSD 8.857561
USER: SEED 80
USER: STATUS no improvement in best in 9 clusters for 5 generations
USER: GENES 17
USER: genes 0 Translation |==|  0.73838 0.51198 0.59418
USER: genes 1 Rotation |==|  0.61607 0.82534 0.29060 0.79467
USER: genes 2 Torsion [C]-N--CA-[C] |==|  0.74244
USER: genes 3 Torsion [N]-CA--CB-[CG1] |==|  0.96215
USER: genes 4 Torsion [CA]-CB--CG1-[CD1] |==|  0.60796
USER: genes 5 Torsion [N]-CA--C-[N] |==|  0.04944
USER: genes 6 Torsion [C]-N--CA-[CB] |==|  0.50243
USER: genes 7 Torsion [N]-CA--CB-[CG2] |==|  0.23271
USER: genes 8 Torsion [CA]-CB--CG1-[CD1] |==|  0.61045
USER: genes 9 Torsion [N]-CA--C-[O] |==|  0.90899
USER: genes 10 Torsion [N]-C--CA-[N] |==|  0.38618
USER: genes 11 Torsion [C]-CA--N-[C] |==|  0.61146
USER: genes 12 Torsion [N]-C--CA-[N] |==|  0.48885
USER: genes 13 Torsion [C]-CA--CB-[CG] |==|  0.77702
USER: genes 14 Torsion [CA]-CB--CG-[OD2] |==|  0.62542
USER: genes 15 Torsion [C]-CA--CB-[OG] |==|  0.05011
USER: genes 16 Torsion [CA]-CB--OG-[HG] |==|  0.67904
ROOT
ATOM      1  C   SER C   8       5.865  24.718  48.245  1.00 23.80 LIG 0.24  C 
ATOM      2 O    SER C   8       6.108  25.645  47.474  1.00 21.47 LIG-0.27  OA
ATOM      3  N   ILE C   9       6.321  23.480  48.061  1.00 23.49 LIG-0.35  N 
ATOM      4 H    ILE C   9       6.191  22.834  48.614  1.00 23.49 LIG 0.16  HD
ENDROOT
BRANCH 3 5
ATOM      5  CA  ILE C   9       7.098  23.114  46.881  1.00 20.80 LIG 0.18  C 
BRANCH 5 6
ATOM      6  CB  ILE C   9       8.118  22.006  47.192  1.00 28.93 LIG 0.01  C 
ATOM      7  CG2 ILE C   9       9.449  22.279  46.471  1.00 27.59 LIG 0.01  C 
BRANCH 6 8
ATOM      8  CG1 ILE C   9       8.290  21.813  48.702  1.00 40.08 LIG 0.00  C 
ATOM      9  CD1 ILE C   9       9.706  21.543  49.149  1.00 35.68 LIG 0.01  C 
ENDBRANCH 6 8
ENDBRANCH 5 6
BRANCH 5 10
ATOM     10  C   ILE C   9       6.163  22.580  45.809  1.00 29.58 LIG 0.24  C 
ATOM     11  N   ILE C  10       4.873  22.868  45.946  1.00 24.64 LIG-0.34  N 
ATOM     12 H    ILE C  10       4.550  23.321  46.601  1.00 24.64 LIG 0.16  HD
ATOM     13 O    ILE C   9       6.606  21.919  44.869  1.00 37.49 LIG-0.27  OA
BRANCH 11 14
ATOM     14  CA  ILE C  10       3.883  22.427  44.973  1.00 23.95 LIG 0.19  C 
BRANCH 14 15
ATOM     15  CB  ILE C  10       2.451  22.900  45.333  1.00 22.27 LIG 0.01  C 
ATOM     16  CG2 ILE C  10       2.219  24.325  44.835  1.00 24.85 LIG 0.01  C 
BRANCH 15 17
ATOM     17  CG1 ILE C  10       1.399  21.944  44.765  1.00 32.35 LIG 0.00  C 
ATOM     18  CD1 ILE C  10       0.170  22.662  44.207  1.00 31.42 LIG 0.01  C 
ENDBRANCH 15 17
ENDBRANCH 14 15
BRANCH 14 19
ATOM     19  C   ILE C  10       4.224  22.966  43.592  1.00 24.88 LIG 0.20  C 
ATOM     20 OXT  ILE C  10       3.938  22.320  42.585  1.00 25.96 LIG-0.65  OA
ATOM     21 O    ILE C  10       4.770  24.060  43.464  1.00 20.25 LIG-0.65  OA
ENDBRANCH 14 19
ENDBRANCH 11 14
ENDBRANCH 5 10
ENDBRANCH 3 5
BRANCH 1 22
ATOM     22  CA  SER C   8       4.992  24.936  49.475  1.00 22.40 LIG 0.20  C 
BRANCH 22 23
ATOM     23  N   SER C   8       5.289  26.192  50.153  1.00 32.61 LIG-0.34  N 
ATOM     24 H    SER C   8       5.445  26.876  49.655  1.00 32.61 LIG 0.16  HD
ATOM     25  C   ASP C   7       5.290  26.161  51.479  1.00 44.43 LIG 0.26  C 
ATOM     26 O    ASP C   7       4.870  25.212  52.113  1.00 41.29 LIG-0.27  OA
BRANCH 25 27
ATOM     27  CA  ASP C   7       5.840  27.312  52.247  1.00 57.36 LIG 0.41  C 
ATOM     28  N   ASP C   7       5.614  27.021  53.638  1.00 63.06 LIG 0.61  N 
BRANCH 27 29
ATOM     29  CB  ASP C   7       7.330  27.400  52.028  1.00 56.13 LIG 0.16  C 
BRANCH 29 30
ATOM     30  CG  ASP C   7       8.054  26.445  52.871  1.00 57.80 LIG 0.17  C 
ATOM     31 OD2  ASP C   7       9.030  26.776  53.471  1.00 66.43 LIG-0.65  OA
ATOM     32 OD1  ASP C   7       7.596  25.324  52.932  1.00 48.55 LIG-0.65  OA
ENDBRANCH 29 30
ENDBRANCH 27 29
ENDBRANCH 25 27
ENDBRANCH 22 23
BRANCH 22 33
ATOM     33  CB  SER C   8       3.527  24.916  49.061  1.00 17.52 LIG 0.20  C 
BRANCH 33 34
ATOM     34 OG   SER C   8       3.377  24.307  47.796  1.00 22.08 LIG-0.40  OA
ATOM     35 HG   SER C   8       3.090  24.873  47.245  1.00 22.08 LIG 0.21  HD
ENDBRANCH 33 34
ENDBRANCH 22 33
ENDBRANCH 1 22
TORSDOF 15
ENDMDL
MODEL 14
USER: ADFR SOLUTION from run 140
USER: SCORE 12.230943 LL:  -3.222 LR:  -9.725 RR:   0.000 FEB:  -5.251
USER: RMSD 5.940410
USER: SEED 139
USER: STATUS no improvement in best in 11 clusters for 5 generations
USER: GENES 17
USER: genes 0 Translation |==|  0.59020 0.40582 0.47061
USER: genes 1 Rotation |==|  0.12919 0.49671 0.27349 0.74735
USER: genes 2 Torsion [C]-N--CA-[C] |==|  0.59558
USER: genes 3 Torsion [N]-CA--CB-[CG1] |==|  0.96497
USER: genes 4 Torsion [CA]-CB--CG1-[CD1] |==|  0.72590
USER: genes 5 Torsion [N]-CA--C-[N] |==|  0.26817
USER: genes 6 Torsion [C]-N--CA-[CB] |==|  0.17271
USER: genes 7 Torsion [N]-CA--CB-[CG2] |==|  0.18246
USER: genes 8 Torsion [CA]-CB--CG1-[CD1] |==|  0.60492
USER: genes 9 Torsion [N]-CA--C-[O] |==|  0.95791
USER: genes 10 Torsion [N]-C--CA-[N] |==|  0.93662
USER: genes 11 Torsion [C]-CA--N-[C] |==|  0.69087
USER: genes 12 Torsion [N]-C--CA-[N] |==|  0.36449
USER: genes 13 Torsion [C]-CA--CB-[CG] |==|  0.63872
USER: genes 14 Torsion [CA]-CB--CG-[OD2] |==|  0.75064
USER: genes 15 Torsion [C]-CA--CB-[OG] |==|  0.50837
USER: genes 16 Torsion [CA]-CB--OG-[HG] |==|  0.47988
ROOT
ATOM      1  C   SER C   8       2.753  23.046  46.391  1.00 23.80 LIG 0.24  C 
ATOM      2 O    SER C   8       3.035  21.873  46.147  1.00 21.47 LIG-0.27  OA
ATOM      3  N   ILE C   9       3.668  23.972  46.671  1.00 23.49 LIG-0.35  N 
ATOM      4 H    ILE C   9       3.485  24.802  46.803  1.00 23.49 LIG 0.16  HD
ENDROOT
BRANCH 3 5
ATOM      5  CA  ILE C   9       5.087  23.644  46.777  1.00 20.80 LIG 0.18  C 
BRANCH 5 6
ATOM      6  CB  ILE C   9       5.833  23.911  45.458  1.00 28.93 LIG 0.01  C 
ATOM      7  CG2 ILE C   9       6.835  22.782  45.167  1.00 27.59 LIG 0.01  C 
BRANCH 6 8
ATOM      8  CG1 ILE C   9       4.856  24.149  44.302  1.00 40.08 LIG 0.00  C 
ATOM      9  CD1 ILE C   9       4.607  22.948  43.424  1.00 35.68 LIG 0.01  C 
ENDBRANCH 6 8
ENDBRANCH 5 6
BRANCH 5 10
ATOM     10  C   ILE C   9       5.727  24.516  47.843  1.00 29.58 LIG 0.24  C 
ATOM     11  N   ILE C  10       5.848  23.984  49.054  1.00 24.64 LIG-0.34  N 
ATOM     12 H    ILE C  10       5.579  23.193  49.261  1.00 24.64 LIG 0.16  HD
ATOM     13 O    ILE C   9       6.109  25.654  47.571  1.00 37.49 LIG-0.27  OA
BRANCH 11 14
ATOM     14  CA  ILE C  10       6.462  24.716  50.154  1.00 23.95 LIG 0.19  C 
BRANCH 14 15
ATOM     15  CB  ILE C  10       5.679  26.005  50.513  1.00 22.27 LIG 0.01  C 
ATOM     16  CG2 ILE C  10       4.299  25.654  51.064  1.00 24.85 LIG 0.01  C 
BRANCH 15 17
ATOM     17  CG1 ILE C  10       6.463  26.862  51.510  1.00 32.35 LIG 0.00  C 
ATOM     18  CD1 ILE C  10       5.575  27.538  52.554  1.00 31.42 LIG 0.01  C 
ENDBRANCH 15 17
ENDBRANCH 14 15
BRANCH 14 19
ATOM     19  C   ILE C  10       6.528  23.843  51.397  1.00 24.88 LIG 0.20  C 
ATOM     20 OXT  ILE C  10       7.234  24.170  52.351  1.00 25.96 LIG-0.65  OA
ATOM     21 O    ILE C  10       5.864  22.811  51.475  1.00 20.25 LIG-0.65  OA
ENDBRANCH 14 19
ENDBRANCH 11 14
ENDBRANCH 5 10
ENDBRANCH 3 5
BRANCH 1 22
ATOM     22  CA  SER C   8       1.302  23.511  46.402  1.00 22.40 LIG 0.20  C 
BRANCH 22 23
ATOM     23  N   SER C   8       1.107  24.709  47.208  1.00 32.61 LIG-0.34  N 
ATOM     24 H    SER C   8       1.452  25.439  46.911  1.00 32.61 LIG 0.16  HD
ATOM     25  C   ASP C   7       0.412  24.560  48.329  1.00 44.43 LIG 0.26  C 
ATOM     26 O    ASP C   7      -0.210  23.547  48.585  1.00 41.29 LIG-0.27  OA
BRANCH 25 27
ATOM     27  CA  ASP C   7       0.391  25.654  49.338  1.00 57.36 LIG 0.41  C 
ATOM     28  N   ASP C   7      -0.990  25.864  49.685  1.00 63.06 LIG 0.61  N 
BRANCH 27 29
ATOM     29  CB  ASP C   7       1.119  25.208  50.583  1.00 56.13 LIG 0.16  C 
BRANCH 29 30
ATOM     30  CG  ASP C   7       0.321  25.451  51.787  1.00 57.80 LIG 0.17  C 
ATOM     31 OD2  ASP C   7       0.403  26.485  52.376  1.00 66.43 LIG-0.65  OA
ATOM     32 OD1  ASP C   7      -0.428  24.560  52.128  1.00 48.55 LIG-0.65  OA
ENDBRANCH 29 30
ENDBRANCH 27 29
ENDBRANCH 25 27
ENDBRANCH 22 23
BRANCH 22 33
ATOM     33  CB  SER C   8       0.849  23.779  44.973  1.00 17.52 LIG 0.20  C 
BRANCH 33 34
ATOM     34 OG   SER C   8      -0.472  24.278  44.957  1.00 22.08 LIG-0.40  OA
ATOM     35 HG   SER C   8      -0.673  24.514  44.176  1.00 22.08 LIG 0.21  HD
ENDBRANCH 33 34
ENDBRANCH 22 33
ENDBRANCH 1 22
TORSDOF 15
ENDMDL
MODEL 15
USER: ADFR SOLUTION from run 163
USER: SCORE 12.577224 LL:  -2.914 LR:  -9.726 RR:   0.000 FEB:  -5.252
USER: RMSD 5.383226
USER: SEED 162
USER: STATUS no improvement in best in 17 clusters for 5 generations
USER: GENES 17
USER: genes 0 Translation |==|  0.56107 0.44140 0.50422
USER: genes 1 Rotation |==|  0.03104 0.53630 0.35829 0.59315
USER: genes 2 Torsion [C]-N--CA-[C] |==|  0.73192
USER: genes 3 Torsion [N]-CA--CB-[CG1] |==|  0.85422
USER: genes 4 Torsion [CA]-CB--CG1-[CD1] |==|  0.86297
USER: genes 5 Torsion [N]-CA--C-[N] |==|  0.99866
USER: genes 6 Torsion [C]-N--CA-[CB] |==|  0.52353
USER: genes 7 Torsion [N]-CA--CB-[CG2] |==|  0.13336
USER: genes 8 Torsion [CA]-CB--CG1-[CD1] |==|  0.46570
USER: genes 9 Torsion [N]-CA--C-[O] |==|  0.23671
USER: genes 10 Torsion [N]-C--CA-[N] |==|  0.36667
USER: genes 11 Torsion [C]-CA--N-[C] |==|  0.80720
USER: genes 12 Torsion [N]-C--CA-[N] |==|  0.52110
USER: genes 13 Torsion [C]-CA--CB-[CG] |==|  0.73363
USER: genes 14 Torsion [CA]-CB--CG-[OD2] |==|  0.26012
USER: genes 15 Torsion [C]-CA--CB-[OG] |==|  0.55261
USER: genes 16 Torsion [CA]-CB--OG-[HG] |==|  0.81377
ROOT
ATOM      1  C   SER C   8       2.141  23.606  46.895  1.00 23.80 LIG 0.24  C 
ATOM      2 O    SER C   8       2.175  22.447  47.306  1.00 21.47 LIG-0.27  OA
ATOM      3  N   ILE C   9       3.124  24.155  46.184  1.00 23.49 LIG-0.35  N 
ATOM      4 H    ILE C   9       3.094  24.950  45.858  1.00 23.49 LIG 0.16  HD
ENDROOT
BRANCH 3 5
ATOM      5  CA  ILE C   9       4.360  23.433  45.894  1.00 20.80 LIG 0.18  C 
BRANCH 5 6
ATOM      6  CB  ILE C   9       4.908  23.780  44.499  1.00 28.93 LIG 0.01  C 
ATOM      7  CG2 ILE C   9       6.189  22.981  44.208  1.00 27.59 LIG 0.01  C 
BRANCH 6 8
ATOM      8  CG1 ILE C   9       3.838  23.599  43.417  1.00 40.08 LIG 0.00  C 
ATOM      9  CD1 ILE C   9       3.107  22.279  43.463  1.00 35.68 LIG 0.01  C 
ENDBRANCH 6 8
ENDBRANCH 5 6
BRANCH 5 10
ATOM     10  C   ILE C   9       5.421  23.823  46.907  1.00 29.58 LIG 0.24  C 
ATOM     11  N   ILE C  10       5.067  24.714  47.827  1.00 24.64 LIG-0.34  N 
ATOM     12 H    ILE C  10       4.290  25.078  47.869  1.00 24.64 LIG 0.16  HD
ATOM     13 O    ILE C   9       6.545  23.322  46.858  1.00 37.49 LIG-0.27  OA
BRANCH 11 14
ATOM     14  CA  ILE C  10       5.993  25.154  48.863  1.00 23.95 LIG 0.19  C 
BRANCH 14 15
ATOM     15  CB  ILE C  10       5.301  26.029  49.940  1.00 22.27 LIG 0.01  C 
ATOM     16  CG2 ILE C  10       4.009  25.367  50.414  1.00 24.85 LIG 0.01  C 
BRANCH 15 17
ATOM     17  CG1 ILE C  10       6.242  26.297  51.116  1.00 32.35 LIG 0.00  C 
ATOM     18  CD1 ILE C  10       5.734  27.387  52.060  1.00 31.42 LIG 0.01  C 
ENDBRANCH 15 17
ENDBRANCH 14 15
BRANCH 14 19
ATOM     19  C   ILE C  10       6.614  23.953  49.560  1.00 24.88 LIG 0.20  C 
ATOM     20 OXT  ILE C  10       6.114  23.505  50.591  1.00 25.96 LIG-0.65  OA
ATOM     21 O    ILE C  10       7.609  23.403  49.093  1.00 20.25 LIG-0.65  OA
ENDBRANCH 14 19
ENDBRANCH 11 14
ENDBRANCH 5 10
ENDBRANCH 3 5
BRANCH 1 22
ATOM     22  CA  SER C   8       0.949  24.505  47.200  1.00 22.40 LIG 0.20  C 
BRANCH 22 23
ATOM     23  N   SER C   8      -0.325  23.858  46.914  1.00 32.61 LIG-0.34  N 
ATOM     24 H    SER C   8      -0.817  23.652  47.588  1.00 32.61 LIG 0.16  HD
ATOM     25  C   ASP C   7      -0.606  23.647  45.634  1.00 44.43 LIG 0.26  C 
ATOM     26 O    ASP C   7       0.043  24.139  44.730  1.00 41.29 LIG-0.27  OA
BRANCH 25 27
ATOM     27  CA  ASP C   7      -1.742  22.761  45.261  1.00 57.36 LIG 0.41  C 
ATOM     28  N   ASP C   7      -1.677  22.590  43.834  1.00 63.06 LIG 0.61  N 
BRANCH 27 29
ATOM     29  CB  ASP C   7      -1.559  21.406  45.900  1.00 56.13 LIG 0.16  C 
BRANCH 29 30
ATOM     30  CG  ASP C   7      -0.927  20.459  44.977  1.00 57.80 LIG 0.17  C 
ATOM     31 OD2  ASP C   7       0.255  20.303  44.977  1.00 66.43 LIG-0.65  OA
ATOM     32 OD1  ASP C   7      -1.670  19.844  44.243  1.00 48.55 LIG-0.65  OA
ENDBRANCH 29 30
ENDBRANCH 27 29
ENDBRANCH 25 27
ENDBRANCH 22 23
BRANCH 22 33
ATOM     33  CB  SER C   8       0.993  24.919  48.665  1.00 17.52 LIG 0.20  C 
BRANCH 33 34
ATOM     34 OG   SER C   8      -0.276  25.372  49.089  1.00 22.08 LIG-0.40  OA
ATOM     35 HG   SER C   8      -0.464  26.089  48.694  1.00 22.08 LIG 0.21  HD
ENDBRANCH 33 34
ENDBRANCH 22 33
ENDBRANCH 1 22
TORSDOF 15
ENDMDL
MODEL 16
USER: ADFR SOLUTION from run 90
USER: SCORE 12.918721 LL:  -3.325 LR:  -9.706 RR:   0.000 FEB:  -5.231
USER: RMSD 9.124690
USER: SEED 89
USER: STATUS no improvement in best in 3 clusters for 5 generations
USER: GENES 17
USER: genes 0 Translation |==|  0.71562 0.49969 0.56046
USER: genes 1 Rotation |==|  0.69914 0.90090 0.33703 0.65185
USER: genes 2 Torsion [C]-N--CA-[C] |==|  0.70261
USER: genes 3 Torsion [N]-CA--CB-[CG1] |==|  0.23647
USER: genes 4 Torsion [CA]-CB--CG1-[CD1] |==|  0.77011
USER: genes 5 Torsion [N]-CA--C-[N] |==|  0.01235
USER: genes 6 Torsion [C]-N--CA-[CB] |==|  0.24278
USER: genes 7 Torsion [N]-CA--CB-[CG2] |==|  0.13256
USER: genes 8 Torsion [CA]-CB--CG1-[CD1] |==|  0.65977
USER: genes 9 Torsion [N]-CA--C-[O] |==|  0.94121
USER: genes 10 Torsion [N]-C--CA-[N] |==|  0.11669
USER: genes 11 Torsion [C]-CA--N-[C] |==|  0.14924
USER: genes 12 Torsion [N]-C--CA-[N] |==|  0.19768
USER: genes 13 Torsion [C]-CA--CB-[CG] |==|  0.78426
USER: genes 14 Torsion [CA]-CB--CG-[OD2] |==|  0.81985
USER: genes 15 Torsion [C]-CA--CB-[OG] |==|  0.87647
USER: genes 16 Torsion [CA]-CB--OG-[HG] |==|  0.12324
ROOT
ATOM      1  C   SER C   8       5.387  24.524  47.739  1.00 23.80 LIG 0.24  C 
ATOM      2 O    SER C   8       5.739  25.678  47.495  1.00 21.47 LIG-0.27  OA
ATOM      3  N   ILE C   9       5.299  23.578  46.806  1.00 23.49 LIG-0.35  N 
ATOM      4 H    ILE C   9       5.093  22.759  46.972  1.00 23.49 LIG 0.16  HD
ENDROOT
BRANCH 3 5
ATOM      5  CA  ILE C   9       5.551  23.861  45.396  1.00 20.80 LIG 0.18  C 
BRANCH 5 6
ATOM      6  CB  ILE C   9       6.455  22.795  44.754  1.00 28.93 LIG 0.01  C 
ATOM      7  CG2 ILE C   9       7.588  22.398  45.715  1.00 27.59 LIG 0.01  C 
BRANCH 6 8
ATOM      8  CG1 ILE C   9       5.640  21.591  44.269  1.00 40.08 LIG 0.00  C 
ATOM      9  CD1 ILE C   9       5.317  20.573  45.335  1.00 35.68 LIG 0.01  C 
ENDBRANCH 6 8
ENDBRANCH 5 6
BRANCH 5 10
ATOM     10  C   ILE C   9       4.235  23.854  44.638  1.00 29.58 LIG 0.24  C 
ATOM     11  N   ILE C  10       3.131  23.696  45.362  1.00 24.64 LIG-0.34  N 
ATOM     12 H    ILE C  10       3.128  23.590  46.215  1.00 24.64 LIG 0.16  HD
ATOM     13 O    ILE C   9       4.219  23.994  43.415  1.00 37.49 LIG-0.27  OA
BRANCH 11 14
ATOM     14  CA  ILE C  10       1.809  23.691  44.750  1.00 23.95 LIG 0.19  C 
BRANCH 14 15
ATOM     15  CB  ILE C  10       1.389  22.279  44.267  1.00 22.27 LIG 0.01  C 
ATOM     16  CG2 ILE C  10       1.645  21.244  45.360  1.00 24.85 LIG 0.01  C 
BRANCH 15 17
ATOM     17  CG1 ILE C  10      -0.078  22.263  43.832  1.00 32.35 LIG 0.00  C 
ATOM     18  CD1 ILE C  10      -0.923  21.243  44.595  1.00 31.42 LIG 0.01  C 
ENDBRANCH 15 17
ENDBRANCH 14 15
BRANCH 14 19
ATOM     19  C   ILE C  10       0.766  24.179  45.743  1.00 24.88 LIG 0.20  C 
ATOM     20 OXT  ILE C  10      -0.320  24.600  45.347  1.00 25.96 LIG-0.65  OA
ATOM     21 O    ILE C  10       0.987  24.143  46.952  1.00 20.25 LIG-0.65  OA
ENDBRANCH 14 19
ENDBRANCH 11 14
ENDBRANCH 5 10
ENDBRANCH 3 5
BRANCH 1 22
ATOM     22  CA  SER C   8       5.008  24.109  49.156  1.00 22.40 LIG 0.20  C 
BRANCH 22 23
ATOM     23  N   SER C   8       5.529  22.794  49.509  1.00 32.61 LIG-0.34  N 
ATOM     24 H    SER C   8       4.962  22.216  49.799  1.00 32.61 LIG 0.16  HD
ATOM     25  C   ASP C   7       6.834  22.613  49.349  1.00 44.43 LIG 0.26  C 
ATOM     26 O    ASP C   7       7.537  23.406  48.751  1.00 41.29 LIG-0.27  OA
BRANCH 25 27
ATOM     27  CA  ASP C   7       7.492  21.411  49.929  1.00 57.36 LIG 0.41  C 
ATOM     28  N   ASP C   7       7.054  20.286  49.144  1.00 63.06 LIG 0.61  N 
BRANCH 27 29
ATOM     29  CB  ASP C   7       8.988  21.529  49.775  1.00 56.13 LIG 0.16  C 
BRANCH 29 30
ATOM     30  CG  ASP C   7       9.413  21.219  48.407  1.00 57.80 LIG 0.17  C 
ATOM     31 OD2  ASP C   7       9.270  20.123  47.957  1.00 66.43 LIG-0.65  OA
ATOM     32 OD1  ASP C   7       9.891  22.132  47.769  1.00 48.55 LIG-0.65  OA
ENDBRANCH 29 30
ENDBRANCH 27 29
ENDBRANCH 25 27
ENDBRANCH 22 23
BRANCH 22 33
ATOM     33  CB  SER C   8       5.533  25.145  50.140  1.00 17.52 LIG 0.20  C 
BRANCH 33 34
ATOM     34 OG   SER C   8       6.859  25.508  49.819  1.00 22.08 LIG-0.40  OA
ATOM     35 HG   SER C   8       6.924  25.628  48.990  1.00 22.08 LIG 0.21  HD
ENDBRANCH 33 34
ENDBRANCH 22 33
ENDBRANCH 1 22
TORSDOF 15
ENDMDL
MODEL 17
USER: ADFR SOLUTION from run 119
USER: SCORE 12.852860 LL:  -3.404 LR:  -9.605 RR:   0.000 FEB:  -5.131
USER: RMSD 8.596243
USER: SEED 118
USER: STATUS no improvement in best in 9 clusters for 5 generations
USER: GENES 17
USER: genes 0 Translation |==|  0.70551 0.52904 0.64221
USER: genes 1 Rotation |==|  0.63636 0.84814 0.33466 0.78787
USER: genes 2 Torsion [C]-N--CA-[C] |==|  0.81999
USER: genes 3 Torsion [N]-CA--CB-[CG1] |==|  0.83206
USER: genes 4 Torsion [CA]-CB--CG1-[CD1] |==|  0.71995
USER: genes 5 Torsion [N]-CA--C-[N] |==|  0.93560
USER: genes 6 Torsion [C]-N--CA-[CB] |==|  0.19254
USER: genes 7 Torsion [N]-CA--CB-[CG2] |==|  0.73112
USER: genes 8 Torsion [CA]-CB--CG1-[CD1] |==|  0.67247
USER: genes 9 Torsion [N]-CA--C-[O] |==|  0.03170
USER: genes 10 Torsion [N]-C--CA-[N] |==|  0.38382
USER: genes 11 Torsion [C]-CA--N-[C] |==|  0.66036
USER: genes 12 Torsion [N]-C--CA-[N] |==|  0.55746
USER: genes 13 Torsion [C]-CA--CB-[CG] |==|  0.82597
USER: genes 14 Torsion [CA]-CB--CG-[OD2] |==|  0.75648
USER: genes 15 Torsion [C]-CA--CB-[OG] |==|  0.57504
USER: genes 16 Torsion [CA]-CB--OG-[HG] |==|  0.46171
ROOT
ATOM      1  C   SER C   8       5.175  24.986  48.965  1.00 23.80 LIG 0.24  C 
ATOM      2 O    SER C   8       5.359  26.066  48.404  1.00 21.47 LIG-0.27  OA
ATOM      3  N   ILE C   9       5.705  23.843  48.536  1.00 23.49 LIG-0.35  N 
ATOM      4 H    ILE C   9       5.615  23.090  48.943  1.00 23.49 LIG 0.16  HD
ENDROOT
BRANCH 3 5
ATOM      5  CA  ILE C   9       6.499  23.775  47.312  1.00 20.80 LIG 0.18  C 
BRANCH 5 6
ATOM      6  CB  ILE C   9       7.068  22.365  47.081  1.00 28.93 LIG 0.01  C 
ATOM      7  CG2 ILE C   9       7.758  22.279  45.709  1.00 27.59 LIG 0.01  C 
BRANCH 6 8
ATOM      8  CG1 ILE C   9       7.983  21.935  48.232  1.00 40.08 LIG 0.00  C 
ATOM      9  CD1 ILE C   9       9.460  22.064  47.950  1.00 35.68 LIG 0.01  C 
ENDBRANCH 6 8
ENDBRANCH 5 6
BRANCH 5 10
ATOM     10  C   ILE C   9       5.618  24.108  46.121  1.00 29.58 LIG 0.24  C 
ATOM     11  N   ILE C  10       4.311  23.925  46.276  1.00 24.64 LIG-0.34  N 
ATOM     12 H    ILE C  10       3.951  23.625  46.997  1.00 24.64 LIG 0.16  HD
ATOM     13 O    ILE C   9       6.116  24.529  45.076  1.00 37.49 LIG-0.27  OA
BRANCH 11 14
ATOM     14  CA  ILE C  10       3.364  24.227  45.211  1.00 23.95 LIG 0.19  C 
BRANCH 14 15
ATOM     15  CB  ILE C  10       3.484  23.242  44.020  1.00 22.27 LIG 0.01  C 
ATOM     16  CG2 ILE C  10       4.359  23.840  42.920  1.00 24.85 LIG 0.01  C 
BRANCH 15 17
ATOM     17  CG1 ILE C  10       4.033  21.890  44.479  1.00 32.35 LIG 0.00  C 
ATOM     18  CD1 ILE C  10       5.370  21.529  43.832  1.00 31.42 LIG 0.01  C 
ENDBRANCH 15 17
ENDBRANCH 14 15
BRANCH 14 19
ATOM     19  C   ILE C  10       1.939  24.158  45.738  1.00 24.88 LIG 0.20  C 
ATOM     20 OXT  ILE C  10       0.988  24.154  44.957  1.00 25.96 LIG-0.65  OA
ATOM     21 O    ILE C  10       1.720  24.087  46.945  1.00 20.25 LIG-0.65  OA
ENDBRANCH 14 19
ENDBRANCH 11 14
ENDBRANCH 5 10
ENDBRANCH 3 5
BRANCH 1 22
ATOM     22  CA  SER C   8       4.294  24.894  50.205  1.00 22.40 LIG 0.20  C 
BRANCH 22 23
ATOM     23  N   SER C   8       4.530  25.989  51.139  1.00 32.61 LIG-0.34  N 
ATOM     24 H    SER C   8       4.420  26.787  50.839  1.00 32.61 LIG 0.16  HD
ATOM     25  C   ASP C   7       4.892  25.647  52.369  1.00 44.43 LIG 0.26  C 
ATOM     26 O    ASP C   7       4.835  24.501  52.775  1.00 41.29 LIG-0.27  OA
BRANCH 25 27
ATOM     27  CA  ASP C   7       5.410  26.683  53.303  1.00 57.36 LIG 0.41  C 
ATOM     28  N   ASP C   7       6.155  25.984  54.318  1.00 63.06 LIG 0.61  N 
BRANCH 27 29
ATOM     29  CB  ASP C   7       6.366  27.593  52.571  1.00 56.13 LIG 0.16  C 
BRANCH 29 30
ATOM     30  CG  ASP C   7       7.536  26.859  52.082  1.00 57.80 LIG 0.17  C 
ATOM     31 OD2  ASP C   7       8.497  26.712  52.772  1.00 66.43 LIG-0.65  OA
ATOM     32 OD1  ASP C   7       7.459  26.404  50.960  1.00 48.55 LIG-0.65  OA
ENDBRANCH 29 30
ENDBRANCH 27 29
ENDBRANCH 25 27
ENDBRANCH 22 23
BRANCH 22 33
ATOM     33  CB  SER C   8       2.830  24.892  49.783  1.00 17.52 LIG 0.20  C 
BRANCH 33 34
ATOM     34 OG   SER C   8       2.017  25.416  50.812  1.00 22.08 LIG-0.40  OA
ATOM     35 HG   SER C   8       1.253  25.585  50.506  1.00 22.08 LIG 0.21  HD
ENDBRANCH 33 34
ENDBRANCH 22 33
ENDBRANCH 1 22
TORSDOF 15
ENDMDL
MODEL 18
USER: ADFR SOLUTION from run 62
USER: SCORE 12.549479 LL:  -3.252 LR:  -9.595 RR:   0.000 FEB:  -5.121
USER: RMSD 4.270321
USER: SEED 61
USER: STATUS no improvement in best in 17 clusters for 5 generations
USER: GENES 17
USER: genes 0 Translation |==|  0.49687 0.44951 0.51608
USER: genes 1 Rotation |==|  0.05373 0.64548 0.37112 0.61434
USER: genes 2 Torsion [C]-N--CA-[C] |==|  0.73018
USER: genes 3 Torsion [N]-CA--CB-[CG1] |==|  0.39374
USER: genes 4 Torsion [CA]-CB--CG1-[CD1] |==|  0.30742
USER: genes 5 Torsion [N]-CA--C-[N] |==|  0.88700
USER: genes 6 Torsion [C]-N--CA-[CB] |==|  0.13352
USER: genes 7 Torsion [N]-CA--CB-[CG2] |==|  0.15826
USER: genes 8 Torsion [CA]-CB--CG1-[CD1] |==|  0.56985
USER: genes 9 Torsion [N]-CA--C-[O] |==|  0.42387
USER: genes 10 Torsion [N]-C--CA-[N] |==|  0.36689
USER: genes 11 Torsion [C]-CA--N-[C] |==|  0.84919
USER: genes 12 Torsion [N]-C--CA-[N] |==|  0.43515
USER: genes 13 Torsion [C]-CA--CB-[CG] |==|  0.73673
USER: genes 14 Torsion [CA]-CB--CG-[OD2] |==|  0.76744
USER: genes 15 Torsion [C]-CA--CB-[OG] |==|  0.50851
USER: genes 16 Torsion [CA]-CB--OG-[HG] |==|  0.93412
ROOT
ATOM      1  C   SER C   8       0.793  23.734  47.073  1.00 23.80 LIG 0.24  C 
ATOM      2 O    SER C   8       0.401  22.579  47.236  1.00 21.47 LIG-0.27  OA
ATOM      3  N   ILE C   9       1.873  24.041  46.357  1.00 23.49 LIG-0.35  N 
ATOM      4 H    ILE C   9       2.133  24.847  46.204  1.00 23.49 LIG 0.16  HD
ENDROOT
BRANCH 3 5
ATOM      5  CA  ILE C   9       2.720  23.012  45.761  1.00 20.80 LIG 0.18  C 
BRANCH 5 6
ATOM      6  CB  ILE C   9       3.273  23.451  44.395  1.00 28.93 LIG 0.01  C 
ATOM      7  CG2 ILE C   9       3.109  24.968  44.207  1.00 27.59 LIG 0.01  C 
BRANCH 6 8
ATOM      8  CG1 ILE C   9       4.720  22.983  44.201  1.00 40.08 LIG 0.00  C 
ATOM      9  CD1 ILE C   9       4.903  21.904  43.163  1.00 35.68 LIG 0.01  C 
ENDBRANCH 6 8
ENDBRANCH 5 6
BRANCH 5 10
ATOM     10  C   ILE C   9       3.910  22.752  46.668  1.00 29.58 LIG 0.24  C 
ATOM     11  N   ILE C  10       4.474  23.815  47.231  1.00 24.64 LIG-0.34  N 
ATOM     12 H    ILE C  10       4.211  24.623  47.101  1.00 24.64 LIG 0.16  HD
ATOM     13 O    ILE C   9       4.309  21.603  46.858  1.00 37.49 LIG-0.27  OA
BRANCH 11 14
ATOM     14  CA  ILE C  10       5.610  23.690  48.134  1.00 23.95 LIG 0.19  C 
BRANCH 14 15
ATOM     15  CB  ILE C  10       6.720  22.772  47.561  1.00 22.27 LIG 0.01  C 
ATOM     16  CG2 ILE C  10       7.191  23.289  46.203  1.00 24.85 LIG 0.01  C 
BRANCH 15 17
ATOM     17  CG1 ILE C  10       7.893  22.655  48.538  1.00 32.35 LIG 0.00  C 
ATOM     18  CD1 ILE C  10       9.217  22.313  47.854  1.00 31.42 LIG 0.01  C 
ENDBRANCH 15 17
ENDBRANCH 14 15
BRANCH 14 19
ATOM     19  C   ILE C  10       6.221  25.056  48.405  1.00 24.88 LIG 0.20  C 
ATOM     20 OXT  ILE C  10       6.109  25.962  47.580  1.00 25.96 LIG-0.65  OA
ATOM     21 O    ILE C  10       6.817  25.279  49.457  1.00 20.25 LIG-0.65  OA
ENDBRANCH 14 19
ENDBRANCH 11 14
ENDBRANCH 5 10
ENDBRANCH 3 5
BRANCH 1 22
ATOM     22  CA  SER C   8       0.055  24.904  47.712  1.00 22.40 LIG 0.20  C 
BRANCH 22 23
ATOM     23  N   SER C   8      -1.384  24.848  47.483  1.00 32.61 LIG-0.34  N 
ATOM     24 H    SER C   8      -1.890  24.882  48.178  1.00 32.61 LIG 0.16  HD
ATOM     25  C   ASP C   7      -1.776  24.749  46.219  1.00 44.43 LIG 0.26  C 
ATOM     26 O    ASP C   7      -1.016  24.904  45.282  1.00 41.29 LIG-0.27  OA
BRANCH 25 27
ATOM     27  CA  ASP C   7      -3.194  24.417  45.908  1.00 57.36 LIG 0.41  C 
ATOM     28  N   ASP C   7      -3.447  24.912  44.580  1.00 63.06 LIG 0.61  N 
BRANCH 27 29
ATOM     29  CB  ASP C   7      -3.370  22.918  45.886  1.00 56.13 LIG 0.16  C 
BRANCH 29 30
ATOM     30  CG  ASP C   7      -3.247  22.384  44.528  1.00 57.80 LIG 0.17  C 
ATOM     31 OD2  ASP C   7      -4.180  22.384  43.785  1.00 66.43 LIG-0.65  OA
ATOM     32 OD1  ASP C   7      -2.154  21.968  44.207  1.00 48.55 LIG-0.65  OA
ENDBRANCH 29 30
ENDBRANCH 27 29
ENDBRANCH 25 27
ENDBRANCH 22 23
BRANCH 22 33
ATOM     33  CB  SER C   8       0.332  24.916  49.210  1.00 17.52 LIG 0.20  C 
BRANCH 33 34
ATOM     34 OG   SER C   8      -0.396  25.948  49.840  1.00 22.08 LIG-0.40  OA
ATOM     35 HG   SER C   8      -0.577  26.546  49.279  1.00 22.08 LIG 0.21  HD
ENDBRANCH 33 34
ENDBRANCH 22 33
ENDBRANCH 1 22
TORSDOF 15
ENDMDL
MODEL 19
USER: ADFR SOLUTION from run 63
USER: SCORE 12.291544 LL:  -2.965 LR:  -9.578 RR:   0.000 FEB:  -5.103
USER: RMSD 5.077679
USER: SEED 62
USER: STATUS no improvement in best in 11 clusters for 5 generations
USER: GENES 17
USER: genes 0 Translation |==|  0.56410 0.44414 0.50022
USER: genes 1 Rotation |==|  0.03029 0.51672 0.34448 0.57003
USER: genes 2 Torsion [C]-N--CA-[C] |==|  0.75559
USER: genes 3 Torsion [N]-CA--CB-[CG1] |==|  0.86561
USER: genes 4 Torsion [CA]-CB--CG1-[CD1] |==|  0.80411
USER: genes 5 Torsion [N]-CA--C-[N] |==|  0.18956
USER: genes 6 Torsion [C]-N--CA-[CB] |==|  0.81248
USER: genes 7 Torsion [N]-CA--CB-[CG2] |==|  0.63720
USER: genes 8 Torsion [CA]-CB--CG1-[CD1] |==|  0.36458
USER: genes 9 Torsion [N]-CA--C-[O] |==|  0.53523
USER: genes 10 Torsion [N]-C--CA-[N] |==|  0.37223
USER: genes 11 Torsion [C]-CA--N-[C] |==|  0.80721
USER: genes 12 Torsion [N]-C--CA-[N] |==|  0.43047
USER: genes 13 Torsion [C]-CA--CB-[CG] |==|  0.58601
USER: genes 14 Torsion [CA]-CB--CG-[OD2] |==|  0.88649
USER: genes 15 Torsion [C]-CA--CB-[OG] |==|  0.59447
USER: genes 16 Torsion [CA]-CB--OG-[HG] |==|  0.72109
ROOT
ATOM      1  C   SER C   8       2.205  23.649  46.835  1.00 23.80 LIG 0.24  C 
ATOM      2 O    SER C   8       2.252  22.546  47.377  1.00 21.47 LIG-0.27  OA
ATOM      3  N   ILE C   9       3.210  24.154  46.123  1.00 23.49 LIG-0.35  N 
ATOM      4 H    ILE C   9       3.173  24.906  45.707  1.00 23.49 LIG 0.16  HD
ENDROOT
BRANCH 3 5
ATOM      5  CA  ILE C   9       4.485  23.454  45.987  1.00 20.80 LIG 0.18  C 
BRANCH 5 6
ATOM      6  CB  ILE C   9       5.205  23.831  44.682  1.00 28.93 LIG 0.01  C 
ATOM      7  CG2 ILE C   9       6.474  22.982  44.500  1.00 27.59 LIG 0.01  C 
BRANCH 6 8
ATOM      8  CG1 ILE C   9       4.260  23.748  43.478  1.00 40.08 LIG 0.00  C 
ATOM      9  CD1 ILE C   9       3.859  22.349  43.082  1.00 35.68 LIG 0.01  C 
ENDBRANCH 6 8
ENDBRANCH 5 6
BRANCH 5 10
ATOM     10  C   ILE C   9       5.398  23.845  47.136  1.00 29.58 LIG 0.24  C 
ATOM     11  N   ILE C  10       5.046  23.424  48.347  1.00 24.64 LIG-0.34  N 
ATOM     12 H    ILE C  10       4.339  22.962  48.507  1.00 24.64 LIG 0.16  HD
ATOM     13 O    ILE C   9       6.409  24.515  46.929  1.00 37.49 LIG-0.27  OA
BRANCH 11 14
ATOM     14  CA  ILE C  10       5.852  23.720  49.524  1.00 23.95 LIG 0.19  C 
BRANCH 14 15
ATOM     15  CB  ILE C  10       7.222  22.995  49.497  1.00 22.27 LIG 0.01  C 
ATOM     16  CG2 ILE C  10       7.472  22.279  50.823  1.00 24.85 LIG 0.01  C 
BRANCH 15 17
ATOM     17  CG1 ILE C  10       7.301  22.015  48.325  1.00 32.35 LIG 0.00  C 
ATOM     18  CD1 ILE C  10       8.583  22.156  47.504  1.00 31.42 LIG 0.01  C 
ENDBRANCH 15 17
ENDBRANCH 14 15
BRANCH 14 19
ATOM     19  C   ILE C  10       6.112  25.215  49.623  1.00 24.88 LIG 0.20  C 
ATOM     20 OXT  ILE C  10       5.465  26.006  48.937  1.00 25.96 LIG-0.65  OA
ATOM     21 O    ILE C  10       6.955  25.654  50.402  1.00 20.25 LIG-0.65  OA
ENDBRANCH 14 19
ENDBRANCH 11 14
ENDBRANCH 5 10
ENDBRANCH 3 5
BRANCH 1 22
ATOM     22  CA  SER C   8       0.967  24.528  46.967  1.00 22.40 LIG 0.20  C 
BRANCH 22 23
ATOM     23  N   SER C   8      -0.268  23.790  46.731  1.00 32.61 LIG-0.34  N 
ATOM     24 H    SER C   8      -0.779  23.660  47.410  1.00 32.61 LIG 0.16  HD
ATOM     25  C   ASP C   7      -0.487  23.390  45.485  1.00 44.43 LIG 0.26  C 
ATOM     26 O    ASP C   7       0.179  23.779  44.544  1.00 41.29 LIG-0.27  OA
BRANCH 25 27
ATOM     27  CA  ASP C   7      -1.572  22.411  45.202  1.00 57.36 LIG 0.41  C 
ATOM     28  N   ASP C   7      -1.962  22.617  43.832  1.00 63.06 LIG 0.61  N 
BRANCH 27 29
ATOM     29  CB  ASP C   7      -1.031  21.007  45.323  1.00 56.13 LIG 0.16  C 
BRANCH 29 30
ATOM     30  CG  ASP C   7      -1.722  20.086  44.417  1.00 57.80 LIG 0.17  C 
ATOM     31 OD2  ASP C   7      -2.902  20.152  44.261  1.00 66.43 LIG-0.65  OA
ATOM     32 OD1  ASP C   7      -1.028  19.282  43.832  1.00 48.55 LIG-0.65  OA
ENDBRANCH 29 30
ENDBRANCH 27 29
ENDBRANCH 25 27
ENDBRANCH 22 23
BRANCH 22 33
ATOM     33  CB  SER C   8       0.934  25.144  48.359  1.00 17.52 LIG 0.20  C 
BRANCH 33 34
ATOM     34 OG   SER C   8      -0.398  25.279  48.810  1.00 22.08 LIG-0.40  OA
ATOM     35 HG   SER C   8      -0.650  26.074  48.706  1.00 22.08 LIG 0.21  HD
ENDBRANCH 33 34
ENDBRANCH 22 33
ENDBRANCH 1 22
TORSDOF 15
ENDMDL
MODEL 20
USER: ADFR SOLUTION from run 138
USER: SCORE 13.105360 LL:  -4.006 LR:  -9.568 RR:   0.000 FEB:  -5.093
USER: RMSD 6.647900
USER: SEED 137
USER: STATUS no improvement in best in 8 clusters for 5 generations
USER: GENES 17
USER: genes 0 Translation |==|  0.50778 0.45064 0.66372
USER: genes 1 Rotation |==|  0.08159 0.74927 0.50862 0.61277
USER: genes 2 Torsion [C]-N--CA-[C] |==|  0.67920
USER: genes 3 Torsion [N]-CA--CB-[CG1] |==|  0.85576
USER: genes 4 Torsion [CA]-CB--CG1-[CD1] |==|  0.71441
USER: genes 5 Torsion [N]-CA--C-[N] |==|  0.86847
USER: genes 6 Torsion [C]-N--CA-[CB] |==|  0.25291
USER: genes 7 Torsion [N]-CA--CB-[CG2] |==|  0.65013
USER: genes 8 Torsion [CA]-CB--CG1-[CD1] |==|  0.67760
USER: genes 9 Torsion [N]-CA--C-[O] |==|  0.36136
USER: genes 10 Torsion [N]-C--CA-[N] |==|  0.88472
USER: genes 11 Torsion [C]-CA--N-[C] |==|  0.85271
USER: genes 12 Torsion [N]-C--CA-[N] |==|  0.89471
USER: genes 13 Torsion [C]-CA--CB-[CG] |==|  0.60100
USER: genes 14 Torsion [CA]-CB--CG-[OD2] |==|  0.33922
USER: genes 15 Torsion [C]-CA--CB-[OG] |==|  0.00979
USER: genes 16 Torsion [CA]-CB--OG-[HG] |==|  0.62699
ROOT
ATOM      1  C   SER C   8       1.022  23.752  49.288  1.00 23.80 LIG 0.24  C 
ATOM      2 O    SER C   8       0.391  22.704  49.419  1.00 21.47 LIG-0.27  OA
ATOM      3  N   ILE C   9       1.649  24.087  48.162  1.00 23.49 LIG-0.35  N 
ATOM      4 H    ILE C   9       2.060  24.835  48.047  1.00 23.49 LIG 0.16  HD
ENDROOT
BRANCH 3 5
ATOM      5  CA  ILE C   9       1.690  23.194  47.008  1.00 20.80 LIG 0.18  C 
BRANCH 5 6
ATOM      6  CB  ILE C   9       1.178  23.886  45.734  1.00 28.93 LIG 0.01  C 
ATOM      7  CG2 ILE C   9       1.188  22.908  44.547  1.00 27.59 LIG 0.01  C 
BRANCH 6 8
ATOM      8  CG1 ILE C   9      -0.194  24.529  45.960  1.00 40.08 LIG 0.00  C 
ATOM      9  CD1 ILE C   9      -1.358  23.757  45.388  1.00 35.68 LIG 0.01  C 
ENDBRANCH 6 8
ENDBRANCH 5 6
BRANCH 5 10
ATOM     10  C   ILE C   9       3.126  22.772  46.748  1.00 29.58 LIG 0.24  C 
ATOM     11  N   ILE C  10       4.039  23.738  46.743  1.00 24.64 LIG-0.34  N 
ATOM     12 H    ILE C  10       3.858  24.569  46.866  1.00 24.64 LIG 0.16  HD
ATOM     13 O    ILE C   9       3.403  21.588  46.558  1.00 37.49 LIG-0.27  OA
BRANCH 11 14
ATOM     14  CA  ILE C  10       5.451  23.455  46.523  1.00 23.95 LIG 0.19  C 
BRANCH 14 15
ATOM     15  CB  ILE C  10       5.841  23.534  45.024  1.00 22.27 LIG 0.01  C 
ATOM     16  CG2 ILE C  10       6.524  22.242  44.582  1.00 24.85 LIG 0.01  C 
BRANCH 15 17
ATOM     17  CG1 ILE C  10       4.617  23.831  44.154  1.00 32.35 LIG 0.00  C 
ATOM     18  CD1 ILE C  10       4.276  22.699  43.185  1.00 31.42 LIG 0.01  C 
ENDBRANCH 15 17
ENDBRANCH 14 15
BRANCH 14 19
ATOM     19  C   ILE C  10       6.313  24.447  47.288  1.00 24.88 LIG 0.20  C 
ATOM     20 OXT  ILE C  10       6.090  25.654  47.210  1.00 25.96 LIG-0.65  OA
ATOM     21 O    ILE C  10       7.230  24.055  48.007  1.00 20.25 LIG-0.65  OA
ENDBRANCH 14 19
ENDBRANCH 11 14
ENDBRANCH 5 10
ENDBRANCH 3 5
BRANCH 1 22
ATOM     22  CA  SER C   8       1.138  24.740  50.442  1.00 22.40 LIG 0.20  C 
BRANCH 22 23
ATOM     23  N   SER C   8       2.483  25.288  50.573  1.00 32.61 LIG-0.34  N 
ATOM     24 H    SER C   8       2.554  26.146  50.592  1.00 32.61 LIG 0.16  HD
ATOM     25  C   ASP C   7       3.473  24.409  50.653  1.00 44.43 LIG 0.26  C 
ATOM     26 O    ASP C   7       3.282  23.219  50.819  1.00 41.29 LIG-0.27  OA
BRANCH 25 27
ATOM     27  CA  ASP C   7       4.883  24.867  50.519  1.00 57.36 LIG 0.41  C 
ATOM     28  N   ASP C   7       4.885  25.896  49.512  1.00 63.06 LIG 0.61  N 
BRANCH 27 29
ATOM     29  CB  ASP C   7       5.339  25.488  51.817  1.00 56.13 LIG 0.16  C 
BRANCH 29 30
ATOM     30  CG  ASP C   7       6.228  26.628  51.583  1.00 57.80 LIG 0.17  C 
ATOM     31 OD2  ASP C   7       5.960  27.709  52.010  1.00 66.43 LIG-0.65  OA
ATOM     32 OD1  ASP C   7       7.242  26.404  50.957  1.00 48.55 LIG-0.65  OA
ENDBRANCH 29 30
ENDBRANCH 27 29
ENDBRANCH 25 27
ENDBRANCH 22 23
BRANCH 22 33
ATOM     33  CB  SER C   8       0.144  25.875  50.233  1.00 17.52 LIG 0.20  C 
BRANCH 33 34
ATOM     34 OG   SER C   8      -0.643  25.640  49.085  1.00 22.08 LIG-0.40  OA
ATOM     35 HG   SER C   8      -0.688  26.343  48.627  1.00 22.08 LIG 0.21  HD
ENDBRANCH 33 34
ENDBRANCH 22 33
ENDBRANCH 1 22
TORSDOF 15
ENDMDL
MODEL 21
USER: ADFR SOLUTION from run 46
USER: SCORE 12.335488 LL:  -3.064 LR:  -9.557 RR:   0.000 FEB:  -5.083
USER: RMSD 5.558628
USER: SEED 45
USER: STATUS no improvement in best in 5 clusters for 5 generations
USER: GENES 17
USER: genes 0 Translation |==|  0.51331 0.40950 0.46320
USER: genes 1 Rotation |==|  0.09148 0.54255 0.31123 0.71370
USER: genes 2 Torsion [C]-N--CA-[C] |==|  0.69077
USER: genes 3 Torsion [N]-CA--CB-[CG1] |==|  0.77294
USER: genes 4 Torsion [CA]-CB--CG1-[CD1] |==|  0.79870
USER: genes 5 Torsion [N]-CA--C-[N] |==|  0.93920
USER: genes 6 Torsion [C]-N--CA-[CB] |==|  0.83629
USER: genes 7 Torsion [N]-CA--CB-[CG2] |==|  0.92990
USER: genes 8 Torsion [CA]-CB--CG1-[CD1] |==|  0.34089
USER: genes 9 Torsion [N]-CA--C-[O] |==|  0.98541
USER: genes 10 Torsion [N]-C--CA-[N] |==|  0.90372
USER: genes 11 Torsion [C]-CA--N-[C] |==|  0.81206
USER: genes 12 Torsion [N]-C--CA-[N] |==|  0.22667
USER: genes 13 Torsion [C]-CA--CB-[CG] |==|  0.66700
USER: genes 14 Torsion [CA]-CB--CG-[OD2] |==|  0.28733
USER: genes 15 Torsion [C]-CA--CB-[OG] |==|  0.02380
USER: genes 16 Torsion [CA]-CB--OG-[HG] |==|  0.44970
ROOT
ATOM      1  C   SER C   8       1.138  23.104  46.280  1.00 23.80 LIG 0.24  C 
ATOM      2 O    SER C   8       1.214  21.889  46.099  1.00 21.47 LIG-0.27  OA
ATOM      3  N   ILE C   9       2.191  23.917  46.209  1.00 23.49 LIG-0.35  N 
ATOM      4 H    ILE C   9       2.142  24.771  46.295  1.00 23.49 LIG 0.16  HD
ENDROOT
BRANCH 3 5
ATOM      5  CA  ILE C   9       3.540  23.410  45.976  1.00 20.80 LIG 0.18  C 
BRANCH 5 6
ATOM      6  CB  ILE C   9       4.244  24.170  44.839  1.00 28.93 LIG 0.01  C 
ATOM      7  CG2 ILE C   9       5.769  24.154  45.042  1.00 27.59 LIG 0.01  C 
BRANCH 6 8
ATOM      8  CG1 ILE C   9       3.824  23.635  43.466  1.00 40.08 LIG 0.00  C 
ATOM      9  CD1 ILE C   9       4.385  22.279  43.114  1.00 35.68 LIG 0.01  C 
ENDBRANCH 6 8
ENDBRANCH 5 6
BRANCH 5 10
ATOM     10  C   ILE C   9       4.374  23.601  47.231  1.00 29.58 LIG 0.24  C 
ATOM     11  N   ILE C  10       3.959  24.529  48.087  1.00 24.64 LIG-0.34  N 
ATOM     12 H    ILE C  10       3.265  25.021  47.962  1.00 24.64 LIG 0.16  HD
ATOM     13 O    ILE C   9       5.377  22.914  47.423  1.00 37.49 LIG-0.27  OA
BRANCH 11 14
ATOM     14  CA  ILE C  10       4.665  24.791  49.334  1.00 23.95 LIG 0.19  C 
BRANCH 14 15
ATOM     15  CB  ILE C  10       4.747  23.534  50.239  1.00 22.27 LIG 0.01  C 
ATOM     16  CG2 ILE C  10       3.598  22.577  49.928  1.00 24.85 LIG 0.01  C 
BRANCH 15 17
ATOM     17  CG1 ILE C  10       6.099  22.834  50.083  1.00 32.35 LIG 0.00  C 
ATOM     18  CD1 ILE C  10       6.861  22.692  51.401  1.00 31.42 LIG 0.01  C 
ENDBRANCH 15 17
ENDBRANCH 14 15
BRANCH 14 19
ATOM     19  C   ILE C  10       6.083  25.259  49.048  1.00 24.88 LIG 0.20  C 
ATOM     20 OXT  ILE C  10       6.821  25.606  49.970  1.00 25.96 LIG-0.65  OA
ATOM     21 O    ILE C  10       6.517  25.279  47.898  1.00 20.25 LIG-0.65  OA
ENDBRANCH 14 19
ENDBRANCH 11 14
ENDBRANCH 5 10
ENDBRANCH 3 5
BRANCH 1 22
ATOM     22  CA  SER C   8      -0.195  23.759  46.619  1.00 22.40 LIG 0.20  C 
BRANCH 22 23
ATOM     23  N   SER C   8      -0.048  24.875  47.545  1.00 32.61 LIG-0.34  N 
ATOM     24 H    SER C   8      -0.219  25.661  47.238  1.00 32.61 LIG 0.16  HD
ATOM     25  C   ASP C   7       0.336  24.573  48.778  1.00 44.43 LIG 0.26  C 
ATOM     26 O    ASP C   7       0.368  23.430  49.194  1.00 41.29 LIG-0.27  OA
BRANCH 25 27
ATOM     27  CA  ASP C   7       0.769  25.654  49.705  1.00 57.36 LIG 0.41  C 
ATOM     28  N   ASP C   7      -0.432  26.229  50.252  1.00 63.06 LIG 0.61  N 
BRANCH 27 29
ATOM     29  CB  ASP C   7       1.558  25.058  50.845  1.00 56.13 LIG 0.16  C 
BRANCH 29 30
ATOM     30  CG  ASP C   7       0.924  25.332  52.137  1.00 57.80 LIG 0.17  C 
ATOM     31 OD2  ASP C   7       0.309  24.485  52.709  1.00 66.43 LIG-0.65  OA
ATOM     32 OD1  ASP C   7       1.078  26.447  52.589  1.00 48.55 LIG-0.65  OA
ENDBRANCH 29 30
ENDBRANCH 27 29
ENDBRANCH 25 27
ENDBRANCH 22 23
BRANCH 22 33
ATOM     33  CB  SER C   8      -0.857  24.244  45.337  1.00 17.52 LIG 0.20  C 
BRANCH 33 34
ATOM     34 OG   SER C   8      -0.150  23.779  44.207  1.00 22.08 LIG-0.40  OA
ATOM     35 HG   SER C   8      -0.640  23.834  43.527  1.00 22.08 LIG 0.21  HD
ENDBRANCH 33 34
ENDBRANCH 22 33
ENDBRANCH 1 22
TORSDOF 15
ENDMDL
MODEL 22
USER: ADFR SOLUTION from run 175
USER: SCORE 11.804316 LL:  -2.672 LR:  -9.477 RR:   0.000 FEB:  -5.003
USER: RMSD 8.314762
USER: SEED 174
USER: STATUS no improvement in best in 14 clusters for 5 generations
USER: GENES 17
USER: genes 0 Translation |==|  0.64505 0.50771 0.69636
USER: genes 1 Rotation |==|  0.79850 0.21974 0.22013 0.56341
USER: genes 2 Torsion [C]-N--CA-[C] |==|  0.70556
USER: genes 3 Torsion [N]-CA--CB-[CG1] |==|  0.79295
USER: genes 4 Torsion [CA]-CB--CG1-[CD1] |==|  0.47272
USER: genes 5 Torsion [N]-CA--C-[N] |==|  0.87660
USER: genes 6 Torsion [C]-N--CA-[CB] |==|  0.81392
USER: genes 7 Torsion [N]-CA--CB-[CG2] |==|  0.56438
USER: genes 8 Torsion [CA]-CB--CG1-[CD1] |==|  0.58404
USER: genes 9 Torsion [N]-CA--C-[O] |==|  0.64773
USER: genes 10 Torsion [N]-C--CA-[N] |==|  0.41516
USER: genes 11 Torsion [C]-CA--N-[C] |==|  0.80682
USER: genes 12 Torsion [N]-C--CA-[N] |==|  0.72691
USER: genes 13 Torsion [C]-CA--CB-[CG] |==|  0.21523
USER: genes 14 Torsion [CA]-CB--CG-[OD2] |==|  0.37258
USER: genes 15 Torsion [C]-CA--CB-[OG] |==|  0.22847
USER: genes 16 Torsion [CA]-CB--OG-[HG] |==|  0.88939
ROOT
ATOM      1  C   SER C   8       3.905  24.650  49.777  1.00 23.80 LIG 0.24  C 
ATOM      2 O    SER C   8       3.827  23.614  50.435  1.00 21.47 LIG-0.27  OA
ATOM      3  N   ILE C   9       2.932  25.078  48.975  1.00 23.49 LIG-0.35  N 
ATOM      4 H    ILE C   9       2.960  25.821  48.542  1.00 23.49 LIG 0.16  HD
ENDROOT
BRANCH 3 5
ATOM      5  CA  ILE C   9       1.714  24.303  48.762  1.00 20.80 LIG 0.18  C 
BRANCH 5 6
ATOM      6  CB  ILE C   9       0.457  25.187  48.827  1.00 28.93 LIG 0.01  C 
ATOM      7  CG2 ILE C   9      -0.722  24.504  48.114  1.00 27.59 LIG 0.01  C 
BRANCH 6 8
ATOM      8  CG1 ILE C   9       0.127  25.586  50.269  1.00 40.08 LIG 0.00  C 
ATOM      9  CD1 ILE C   9      -0.946  26.637  50.407  1.00 35.68 LIG 0.01  C 
ENDBRANCH 6 8
ENDBRANCH 5 6
BRANCH 5 10
ATOM     10  C   ILE C   9       1.753  23.673  47.381  1.00 29.58 LIG 0.24  C 
ATOM     11  N   ILE C  10       2.153  24.452  46.382  1.00 24.64 LIG-0.34  N 
ATOM     12 H    ILE C  10       2.376  25.277  46.476  1.00 24.64 LIG 0.16  HD
ATOM     13 O    ILE C   9       1.427  22.496  47.223  1.00 37.49 LIG-0.27  OA
BRANCH 11 14
ATOM     14  CA  ILE C  10       2.249  23.955  45.016  1.00 23.95 LIG 0.19  C 
BRANCH 14 15
ATOM     15  CB  ILE C  10       3.363  22.888  44.853  1.00 22.27 LIG 0.01  C 
ATOM     16  CG2 ILE C  10       3.823  22.814  43.399  1.00 24.85 LIG 0.01  C 
BRANCH 15 17
ATOM     17  CG1 ILE C  10       4.542  23.180  45.784  1.00 32.35 LIG 0.00  C 
ATOM     18  CD1 ILE C  10       5.884  22.705  45.227  1.00 31.42 LIG 0.01  C 
ENDBRANCH 15 17
ENDBRANCH 14 15
BRANCH 14 19
ATOM     19  C   ILE C  10       0.931  23.329  44.588  1.00 24.88 LIG 0.20  C 
ATOM     20 OXT  ILE C  10      -0.117  23.968  44.672  1.00 25.96 LIG-0.65  OA
ATOM     21 O    ILE C  10       0.898  22.187  44.135  1.00 20.25 LIG-0.65  OA
ENDBRANCH 14 19
ENDBRANCH 11 14
ENDBRANCH 5 10
ENDBRANCH 3 5
BRANCH 1 22
ATOM     22  CA  SER C   8       5.158  25.516  49.835  1.00 22.40 LIG 0.20  C 
BRANCH 22 23
ATOM     23  N   SER C   8       5.822  25.451  51.131  1.00 32.61 LIG-0.34  N 
ATOM     24 H    SER C   8       6.582  25.048  51.159  1.00 32.61 LIG 0.16  HD
ATOM     25  C   ASP C   7       5.189  26.021  52.148  1.00 44.43 LIG 0.26  C 
ATOM     26 O    ASP C   7       4.219  26.740  51.996  1.00 41.29 LIG-0.27  OA
BRANCH 25 27
ATOM     27  CA  ASP C   7       5.652  25.774  53.541  1.00 57.36 LIG 0.41  C 
ATOM     28  N   ASP C   7       4.800  24.746  54.078  1.00 63.06 LIG 0.61  N 
BRANCH 27 29
ATOM     29  CB  ASP C   7       7.063  25.241  53.518  1.00 56.13 LIG 0.16  C 
BRANCH 29 30
ATOM     30  CG  ASP C   7       8.036  26.311  53.280  1.00 57.80 LIG 0.17  C 
ATOM     31 OD2  ASP C   7       9.027  26.394  53.939  1.00 66.43 LIG-0.65  OA
ATOM     32 OD1  ASP C   7       7.785  27.078  52.375  1.00 48.55 LIG-0.65  OA
ENDBRANCH 29 30
ENDBRANCH 27 29
ENDBRANCH 25 27
ENDBRANCH 22 23
BRANCH 22 33
ATOM     33  CB  SER C   8       6.125  25.074  48.745  1.00 17.52 LIG 0.20  C 
BRANCH 33 34
ATOM     34 OG   SER C   8       5.775  25.654  47.506  1.00 22.08 LIG-0.40  OA
ATOM     35 HG   SER C   8       4.939  25.654  47.423  1.00 22.08 LIG 0.21  HD
ENDBRANCH 33 34
ENDBRANCH 22 33
ENDBRANCH 1 22
TORSDOF 15
ENDMDL
MODEL 23
USER: ADFR SOLUTION from run 183
USER: SCORE 11.168270 LL:  -2.871 LR:  -9.472 RR:   0.000 FEB:  -4.998
USER: RMSD 8.866193
USER: SEED 182
USER: STATUS no improvement in best in 17 clusters for 5 generations
USER: GENES 17
USER: genes 0 Translation |==|  0.74443 0.50247 0.58312
USER: genes 1 Rotation |==|  0.56395 0.95282 0.30374 0.54839
USER: genes 2 Torsion [C]-N--CA-[C] |==|  0.70732
USER: genes 3 Torsion [N]-CA--CB-[CG1] |==|  0.47397
USER: genes 4 Torsion [CA]-CB--CG1-[CD1] |==|  0.15198
USER: genes 5 Torsion [N]-CA--C-[N] |==|  0.27265
USER: genes 6 Torsion [C]-N--CA-[CB] |==|  0.38378
USER: genes 7 Torsion [N]-CA--CB-[CG2] |==|  0.60247
USER: genes 8 Torsion [CA]-CB--CG1-[CD1] |==|  0.59030
USER: genes 9 Torsion [N]-CA--C-[O] |==|  0.11357
USER: genes 10 Torsion [N]-C--CA-[N] |==|  0.53300
USER: genes 11 Torsion [C]-CA--N-[C] |==|  0.18787
USER: genes 12 Torsion [N]-C--CA-[N] |==|  0.54647
USER: genes 13 Torsion [C]-CA--CB-[CG] |==|  0.22242
USER: genes 14 Torsion [CA]-CB--CG-[OD2] |==|  0.53962
USER: genes 15 Torsion [C]-CA--CB-[OG] |==|  0.47858
USER: genes 16 Torsion [CA]-CB--OG-[HG] |==|  0.09135
ROOT
ATOM      1  C   SER C   8       5.992  24.568  48.079  1.00 23.80 LIG 0.24  C 
ATOM      2 O    SER C   8       5.733  25.727  47.757  1.00 21.47 LIG-0.27  OA
ATOM      3  N   ILE C   9       5.701  23.517  47.314  1.00 23.49 LIG-0.35  N 
ATOM      4 H    ILE C   9       5.914  22.707  47.511  1.00 23.49 LIG 0.16  HD
ENDROOT
BRANCH 3 5
ATOM      5  CA  ILE C   9       4.983  23.661  46.051  1.00 20.80 LIG 0.18  C 
BRANCH 5 6
ATOM      6  CB  ILE C   9       5.615  22.810  44.937  1.00 28.93 LIG 0.01  C 
ATOM      7  CG2 ILE C   9       5.954  21.403  45.457  1.00 27.59 LIG 0.01  C 
BRANCH 6 8
ATOM      8  CG1 ILE C   9       4.731  22.782  43.685  1.00 40.08 LIG 0.00  C 
ATOM      9  CD1 ILE C   9       4.363  24.139  43.138  1.00 35.68 LIG 0.01  C 
ENDBRANCH 6 8
ENDBRANCH 5 6
BRANCH 5 10
ATOM     10  C   ILE C   9       3.552  23.182  46.228  1.00 29.58 LIG 0.24  C 
ATOM     11  N   ILE C  10       2.634  24.117  46.445  1.00 24.64 LIG-0.34  N 
ATOM     12 H    ILE C  10       2.808  24.958  46.498  1.00 24.64 LIG 0.16  HD
ATOM     13 O    ILE C   9       3.285  21.982  46.166  1.00 37.49 LIG-0.27  OA
BRANCH 11 14
ATOM     14  CA  ILE C  10       1.226  23.783  46.612  1.00 23.95 LIG 0.19  C 
BRANCH 14 15
ATOM     15  CB  ILE C  10       0.558  24.595  47.752  1.00 22.27 LIG 0.01  C 
ATOM     16  CG2 ILE C  10      -0.452  23.730  48.502  1.00 24.85 LIG 0.01  C 
BRANCH 15 17
ATOM     17  CG1 ILE C  10       1.610  25.161  48.710  1.00 32.35 LIG 0.00  C 
ATOM     18  CD1 ILE C  10       1.122  25.255  50.155  1.00 31.42 LIG 0.01  C 
ENDBRANCH 15 17
ENDBRANCH 14 15
BRANCH 14 19
ATOM     19  C   ILE C  10       0.461  24.060  45.327  1.00 24.88 LIG 0.20  C 
ATOM     20 OXT  ILE C  10      -0.649  24.588  45.365  1.00 25.96 LIG-0.65  OA
ATOM     21 O    ILE C  10       0.950  23.778  44.234  1.00 20.25 LIG-0.65  OA
ENDBRANCH 14 19
ENDBRANCH 11 14
ENDBRANCH 5 10
ENDBRANCH 3 5
BRANCH 1 22
ATOM     22  CA  SER C   8       6.663  24.263  49.413  1.00 22.40 LIG 0.20  C 
BRANCH 22 23
ATOM     23  N   SER C   8       6.695  25.420  50.298  1.00 32.61 LIG-0.34  N 
ATOM     24 H    SER C   8       7.467  25.761  50.466  1.00 32.61 LIG 0.16  HD
ATOM     25  C   ASP C   7       5.526  25.840  50.763  1.00 44.43 LIG 0.26  C 
ATOM     26 O    ASP C   7       4.464  25.435  50.330  1.00 41.29 LIG-0.27  OA
BRANCH 25 27
ATOM     27  CA  ASP C   7       5.482  26.832  51.872  1.00 57.36 LIG 0.41  C 
ATOM     28  N   ASP C   7       4.149  26.785  52.411  1.00 63.06 LIG 0.61  N 
BRANCH 27 29
ATOM     29  CB  ASP C   7       6.438  26.414  52.963  1.00 56.13 LIG 0.16  C 
BRANCH 29 30
ATOM     30  CG  ASP C   7       7.819  26.779  52.635  1.00 57.80 LIG 0.17  C 
ATOM     31 OD2  ASP C   7       8.734  26.315  53.243  1.00 66.43 LIG-0.65  OA
ATOM     32 OD1  ASP C   7       7.969  27.551  51.712  1.00 48.55 LIG-0.65  OA
ENDBRANCH 29 30
ENDBRANCH 27 29
ENDBRANCH 25 27
ENDBRANCH 22 23
BRANCH 22 33
ATOM     33  CB  SER C   8       5.926  23.119  50.096  1.00 17.52 LIG 0.20  C 
BRANCH 33 34
ATOM     34 OG   SER C   8       6.626  22.696  51.248  1.00 22.08 LIG-0.40  OA
ATOM     35 HG   SER C   8       7.013  23.354  51.598  1.00 22.08 LIG 0.21  HD
ENDBRANCH 33 34
ENDBRANCH 22 33
ENDBRANCH 1 22
TORSDOF 15
ENDMDL
MODEL 24
USER: ADFR SOLUTION from run 66
USER: SCORE 13.130124 LL:  -3.987 LR:  -9.465 RR:   0.000 FEB:  -4.991
USER: RMSD 5.617450
USER: SEED 65
USER: STATUS no improvement in best in 10 clusters for 5 generations
USER: GENES 17
USER: genes 0 Translation |==|  0.52322 0.46599 0.50802
USER: genes 1 Rotation |==|  0.34433 0.28118 0.09781 0.62700
USER: genes 2 Torsion [C]-N--CA-[C] |==|  0.18240
USER: genes 3 Torsion [N]-CA--CB-[CG1] |==|  0.90043
USER: genes 4 Torsion [CA]-CB--CG1-[CD1] |==|  0.78690
USER: genes 5 Torsion [N]-CA--C-[N] |==|  0.05556
USER: genes 6 Torsion [C]-N--CA-[CB] |==|  0.30263
USER: genes 7 Torsion [N]-CA--CB-[CG2] |==|  0.02167
USER: genes 8 Torsion [CA]-CB--CG1-[CD1] |==|  0.45462
USER: genes 9 Torsion [N]-CA--C-[O] |==|  0.86088
USER: genes 10 Torsion [N]-C--CA-[N] |==|  0.32872
USER: genes 11 Torsion [C]-CA--N-[C] |==|  0.72121
USER: genes 12 Torsion [N]-C--CA-[N] |==|  0.73974
USER: genes 13 Torsion [C]-CA--CB-[CG] |==|  0.67211
USER: genes 14 Torsion [CA]-CB--CG-[OD2] |==|  0.33012
USER: genes 15 Torsion [C]-CA--CB-[OG] |==|  0.28002
USER: genes 16 Torsion [CA]-CB--OG-[HG] |==|  0.31797
ROOT
ATOM      1  C   SER C   8       1.347  23.993  46.952  1.00 23.80 LIG 0.24  C 
ATOM      2 O    SER C   8       1.432  22.917  47.542  1.00 21.47 LIG-0.27  OA
ATOM      3  N   ILE C   9       1.305  25.166  47.581  1.00 23.49 LIG-0.35  N 
ATOM      4 H    ILE C   9       1.286  25.926  47.178  1.00 23.49 LIG 0.16  HD
ENDROOT
BRANCH 3 5
ATOM      5  CA  ILE C   9       1.290  25.258  49.038  1.00 20.80 LIG 0.18  C 
BRANCH 5 6
ATOM      6  CB  ILE C   9       0.169  24.401  49.650  1.00 28.93 LIG 0.01  C 
ATOM      7  CG2 ILE C   9      -0.121  24.842  51.095  1.00 27.59 LIG 0.01  C 
BRANCH 6 8
ATOM      8  CG1 ILE C   9      -1.084  24.406  48.767  1.00 40.08 LIG 0.00  C 
ATOM      9  CD1 ILE C   9      -1.914  25.663  48.850  1.00 35.68 LIG 0.01  C 
ENDBRANCH 6 8
ENDBRANCH 5 6
BRANCH 5 10
ATOM     10  C   ILE C   9       2.607  24.740  49.590  1.00 29.58 LIG 0.24  C 
ATOM     11  N   ILE C  10       3.633  24.703  48.746  1.00 24.64 LIG-0.34  N 
ATOM     12 H    ILE C  10       3.585  24.942  47.921  1.00 24.64 LIG 0.16  HD
ATOM     13 O    ILE C   9       2.693  24.382  50.764  1.00 37.49 LIG-0.27  OA
BRANCH 11 14
ATOM     14  CA  ILE C  10       4.950  24.243  49.163  1.00 23.95 LIG 0.19  C 
BRANCH 14 15
ATOM     15  CB  ILE C  10       5.314  22.864  48.554  1.00 22.27 LIG 0.01  C 
ATOM     16  CG2 ILE C  10       4.268  22.445  47.522  1.00 24.85 LIG 0.01  C 
BRANCH 15 17
ATOM     17  CG1 ILE C  10       6.713  22.891  47.933  1.00 32.35 LIG 0.00  C 
ATOM     18  CD1 ILE C  10       7.286  21.498  47.676  1.00 31.42 LIG 0.01  C 
ENDBRANCH 15 17
ENDBRANCH 14 15
BRANCH 14 19
ATOM     19  C   ILE C  10       6.016  25.241  48.739  1.00 24.88 LIG 0.20  C 
ATOM     20 OXT  ILE C  10       6.858  25.633  49.547  1.00 25.96 LIG-0.65  OA
ATOM     21 O    ILE C  10       6.064  25.654  47.582  1.00 20.25 LIG-0.65  OA
ENDBRANCH 14 19
ENDBRANCH 11 14
ENDBRANCH 5 10
ENDBRANCH 3 5
BRANCH 1 22
ATOM     22  CA  SER C   8       1.265  24.043  45.431  1.00 22.40 LIG 0.20  C 
BRANCH 22 23
ATOM     23  N   SER C   8       2.456  23.498  44.791  1.00 32.61 LIG-0.34  N 
ATOM     24 H    SER C   8       2.512  22.641  44.739  1.00 32.61 LIG 0.16  HD
ATOM     25  C   ASP C   7       3.345  24.379  44.349  1.00 44.43 LIG 0.26  C 
ATOM     26 O    ASP C   7       3.109  25.570  44.281  1.00 41.29 LIG-0.27  OA
BRANCH 25 27
ATOM     27  CA  ASP C   7       4.698  23.920  43.931  1.00 57.36 LIG 0.41  C 
ATOM     28  N   ASP C   7       5.551  24.060  45.081  1.00 63.06 LIG 0.61  N 
BRANCH 27 29
ATOM     29  CB  ASP C   7       4.646  22.456  43.567  1.00 56.13 LIG 0.16  C 
BRANCH 29 30
ATOM     30  CG  ASP C   7       5.507  21.656  44.441  1.00 57.80 LIG 0.17  C 
ATOM     31 OD2  ASP C   7       5.048  20.796  45.130  1.00 66.43 LIG-0.65  OA
ATOM     32 OD1  ASP C   7       6.693  21.904  44.406  1.00 48.55 LIG-0.65  OA
ENDBRANCH 29 30
ENDBRANCH 27 29
ENDBRANCH 25 27
ENDBRANCH 22 23
BRANCH 22 33
ATOM     33  CB  SER C   8       0.039  23.269  44.967  1.00 17.52 LIG 0.20  C 
BRANCH 33 34
ATOM     34 OG   SER C   8      -1.016  24.154  44.654  1.00 22.08 LIG-0.40  OA
ATOM     35 HG   SER C   8      -1.182  24.112  43.832  1.00 22.08 LIG 0.21  HD
ENDBRANCH 33 34
ENDBRANCH 22 33
ENDBRANCH 1 22
TORSDOF 15
ENDMDL
MODEL 25
USER: ADFR SOLUTION from run 7
USER: SCORE 12.042613 LL:  -3.052 LR:  -9.400 RR:   0.000 FEB:  -4.925
USER: RMSD 4.489086
USER: SEED 368599
USER: STATUS no improvement in best in 12 clusters for 5 generations
USER: GENES 17
USER: genes 0 Translation |==|  0.50976 0.45079 0.51830
USER: genes 1 Rotation |==|  0.05442 0.61011 0.33500 0.61004
USER: genes 2 Torsion [C]-N--CA-[C] |==|  0.70000
USER: genes 3 Torsion [N]-CA--CB-[CG1] |==|  0.38734
USER: genes 4 Torsion [CA]-CB--CG1-[CD1] |==|  0.27043
USER: genes 5 Torsion [N]-CA--C-[N] |==|  0.87297
USER: genes 6 Torsion [C]-N--CA-[CB] |==|  0.80115
USER: genes 7 Torsion [N]-CA--CB-[CG2] |==|  0.57360
USER: genes 8 Torsion [CA]-CB--CG1-[CD1] |==|  0.63445
USER: genes 9 Torsion [N]-CA--C-[O] |==|  0.15452
USER: genes 10 Torsion [N]-C--CA-[N] |==|  0.36425
USER: genes 11 Torsion [C]-CA--N-[C] |==|  0.86045
USER: genes 12 Torsion [N]-C--CA-[N] |==|  0.28225
USER: genes 13 Torsion [C]-CA--CB-[CG] |==|  0.55015
USER: genes 14 Torsion [CA]-CB--CG-[OD2] |==|  0.19541
USER: genes 15 Torsion [C]-CA--CB-[OG] |==|  0.53961
USER: genes 16 Torsion [CA]-CB--OG-[HG] |==|  0.87888
ROOT
ATOM      1  C   SER C   8       1.064  23.754  47.107  1.00 23.80 LIG 0.24  C 
ATOM      2 O    SER C   8       0.744  22.586  47.322  1.00 21.47 LIG-0.27  OA
ATOM      3  N   ILE C   9       2.216  24.100  46.536  1.00 23.49 LIG-0.35  N 
ATOM      4 H    ILE C   9       2.432  24.911  46.344  1.00 23.49 LIG 0.16  HD
ENDROOT
BRANCH 3 5
ATOM      5  CA  ILE C   9       3.227  23.108  46.181  1.00 20.80 LIG 0.18  C 
BRANCH 5 6
ATOM      6  CB  ILE C   9       3.766  23.328  44.757  1.00 28.93 LIG 0.01  C 
ATOM      7  CG2 ILE C   9       3.341  24.708  44.226  1.00 27.59 LIG 0.01  C 
BRANCH 6 8
ATOM      8  CG1 ILE C   9       5.281  23.109  44.693  1.00 40.08 LIG 0.00  C 
ATOM      9  CD1 ILE C   9       5.704  21.742  44.216  1.00 35.68 LIG 0.01  C 
ENDBRANCH 6 8
ENDBRANCH 5 6
BRANCH 5 10
ATOM     10  C   ILE C   9       4.405  23.227  47.133  1.00 29.58 LIG 0.24  C 
ATOM     11  N   ILE C  10       4.851  24.455  47.379  1.00 24.64 LIG-0.34  N 
ATOM     12 H    ILE C  10       4.520  25.165  47.026  1.00 24.64 LIG 0.16  HD
ATOM     13 O    ILE C   9       4.900  22.221  47.640  1.00 37.49 LIG-0.27  OA
BRANCH 11 14
ATOM     14  CA  ILE C  10       5.962  24.697  48.289  1.00 23.95 LIG 0.19  C 
BRANCH 14 15
ATOM     15  CB  ILE C  10       5.574  24.459  49.771  1.00 22.27 LIG 0.01  C 
ATOM     16  CG2 ILE C  10       6.453  25.300  50.694  1.00 24.85 LIG 0.01  C 
BRANCH 15 17
ATOM     17  CG1 ILE C  10       4.091  24.761  50.004  1.00 32.35 LIG 0.00  C 
ATOM     18  CD1 ILE C  10       3.841  25.654  51.219  1.00 31.42 LIG 0.01  C 
ENDBRANCH 15 17
ENDBRANCH 14 15
BRANCH 14 19
ATOM     19  C   ILE C  10       7.128  23.779  47.954  1.00 24.88 LIG 0.20  C 
ATOM     20 OXT  ILE C  10       7.591  23.026  48.809  1.00 25.96 LIG-0.65  OA
ATOM     21 O    ILE C  10       7.608  23.763  46.823  1.00 20.25 LIG-0.65  OA
ENDBRANCH 14 19
ENDBRANCH 11 14
ENDBRANCH 5 10
ENDBRANCH 3 5
BRANCH 1 22
ATOM     22  CA  SER C   8       0.141  24.899  47.506  1.00 22.40 LIG 0.20  C 
BRANCH 22 23
ATOM     23  N   SER C   8      -1.228  24.698  47.048  1.00 32.61 LIG-0.34  N 
ATOM     24 H    SER C   8      -1.852  24.793  47.633  1.00 32.61 LIG 0.16  HD
ATOM     25  C   ASP C   7      -1.382  24.385  45.768  1.00 44.43 LIG 0.26  C 
ATOM     26 O    ASP C   7      -0.475  24.462  44.960  1.00 41.29 LIG-0.27  OA
BRANCH 25 27
ATOM     27  CA  ASP C   7      -2.702  23.902  45.277  1.00 57.36 LIG 0.41  C 
ATOM     28  N   ASP C   7      -3.328  25.019  44.619  1.00 63.06 LIG 0.61  N 
BRANCH 27 29
ATOM     29  CB  ASP C   7      -2.493  22.817  44.249  1.00 56.13 LIG 0.16  C 
BRANCH 29 30
ATOM     30  CG  ASP C   7      -3.695  22.607  43.439  1.00 57.80 LIG 0.17  C 
ATOM     31 OD2  ASP C   7      -4.047  23.425  42.645  1.00 66.43 LIG-0.65  OA
ATOM     32 OD1  ASP C   7      -4.286  21.562  43.608  1.00 48.55 LIG-0.65  OA
ENDBRANCH 29 30
ENDBRANCH 27 29
ENDBRANCH 25 27
ENDBRANCH 22 23
BRANCH 22 33
ATOM     33  CB  SER C   8       0.154  25.050  49.021  1.00 17.52 LIG 0.20  C 
BRANCH 33 34
ATOM     34 OG   SER C   8      -0.916  25.867  49.447  1.00 22.08 LIG-0.40  OA
ATOM     35 HG   SER C   8      -0.979  26.534  48.940  1.00 22.08 LIG 0.21  HD
ENDBRANCH 33 34
ENDBRANCH 22 33
ENDBRANCH 1 22
TORSDOF 15
ENDMDL
MODEL 26
USER: ADFR SOLUTION from run 48
USER: SCORE 12.402008 LL:  -3.426 LR:  -9.314 RR:   0.000 FEB:  -4.840
USER: RMSD 8.174510
USER: SEED 47
USER: STATUS no improvement in best in 11 clusters for 5 generations
USER: GENES 17
USER: genes 0 Translation |==|  0.63395 0.46887 0.65541
USER: genes 1 Rotation |==|  0.91672 0.33145 0.28180 0.51803
USER: genes 2 Torsion [C]-N--CA-[C] |==|  0.83724
USER: genes 3 Torsion [N]-CA--CB-[CG1] |==|  0.79854
USER: genes 4 Torsion [CA]-CB--CG1-[CD1] |==|  0.82837
USER: genes 5 Torsion [N]-CA--C-[N] |==|  0.92046
USER: genes 6 Torsion [C]-N--CA-[CB] |==|  0.25399
USER: genes 7 Torsion [N]-CA--CB-[CG2] |==|  0.77418
USER: genes 8 Torsion [CA]-CB--CG1-[CD1] |==|  0.73924
USER: genes 9 Torsion [N]-CA--C-[O] |==|  0.47886
USER: genes 10 Torsion [N]-C--CA-[N] |==|  0.49444
USER: genes 11 Torsion [C]-CA--N-[C] |==|  0.53415
USER: genes 12 Torsion [N]-C--CA-[N] |==|  0.08639
USER: genes 13 Torsion [C]-CA--CB-[CG] |==|  0.75918
USER: genes 14 Torsion [CA]-CB--CG-[OD2] |==|  0.77993
USER: genes 15 Torsion [C]-CA--CB-[OG] |==|  0.74374
USER: genes 16 Torsion [CA]-CB--OG-[HG] |==|  0.34770
ROOT
ATOM      1  C   SER C   8       3.672  24.039  49.163  1.00 23.80 LIG 0.24  C 
ATOM      2 O    SER C   8       3.886  22.883  49.525  1.00 21.47 LIG-0.27  OA
ATOM      3  N   ILE C   9       2.983  24.341  48.064  1.00 23.49 LIG-0.35  N 
ATOM      4 H    ILE C   9       2.794  25.145  47.824  1.00 23.49 LIG 0.16  HD
ENDROOT
BRANCH 3 5
ATOM      5  CA  ILE C   9       2.483  23.309  47.161  1.00 20.80 LIG 0.18  C 
BRANCH 5 6
ATOM      6  CB  ILE C   9       1.781  23.917  45.935  1.00 28.93 LIG 0.01  C 
ATOM      7  CG2 ILE C   9       1.682  22.882  44.801  1.00 27.59 LIG 0.01  C 
BRANCH 6 8
ATOM      8  CG1 ILE C   9       0.422  24.517  46.310  1.00 40.08 LIG 0.00  C 
ATOM      9  CD1 ILE C   9      -0.578  23.529  46.859  1.00 35.68 LIG 0.01  C 
ENDBRANCH 6 8
ENDBRANCH 5 6
BRANCH 5 10
ATOM     10  C   ILE C   9       3.649  22.480  46.650  1.00 29.58 LIG 0.24  C 
ATOM     11  N   ILE C  10       4.826  23.092  46.569  1.00 24.64 LIG-0.34  N 
ATOM     12 H    ILE C  10       4.953  23.917  46.778  1.00 24.64 LIG 0.16  HD
ATOM     13 O    ILE C   9       3.485  21.301  46.335  1.00 37.49 LIG-0.27  OA
BRANCH 11 14
ATOM     14  CA  ILE C  10       6.020  22.397  46.111  1.00 23.95 LIG 0.19  C 
BRANCH 14 15
ATOM     15  CB  ILE C  10       6.230  22.531  44.580  1.00 22.27 LIG 0.01  C 
ATOM     16  CG2 ILE C  10       5.359  21.524  43.832  1.00 24.85 LIG 0.01  C 
BRANCH 15 17
ATOM     17  CG1 ILE C  10       5.940  23.959  44.111  1.00 32.35 LIG 0.00  C 
ATOM     18  CD1 ILE C  10       4.504  24.154  43.623  1.00 31.42 LIG 0.01  C 
ENDBRANCH 15 17
ENDBRANCH 14 15
BRANCH 14 19
ATOM     19  C   ILE C  10       7.254  22.952  46.806  1.00 24.88 LIG 0.20  C 
ATOM     20 OXT  ILE C  10       7.166  23.940  47.534  1.00 25.96 LIG-0.65  OA
ATOM     21 O    ILE C  10       8.349  22.411  46.666  1.00 20.25 LIG-0.65  OA
ENDBRANCH 14 19
ENDBRANCH 11 14
ENDBRANCH 5 10
ENDBRANCH 3 5
BRANCH 1 22
ATOM     22  CA  SER C   8       4.211  25.218  49.964  1.00 22.40 LIG 0.20  C 
BRANCH 22 23
ATOM     23  N   SER C   8       4.910  24.798  51.173  1.00 32.61 LIG-0.34  N 
ATOM     24 H    SER C   8       5.099  23.961  51.242  1.00 32.61 LIG 0.16  HD
ATOM     25  C   ASP C   7       5.190  25.750  52.054  1.00 44.43 LIG 0.26  C 
ATOM     26 O    ASP C   7       5.069  26.934  51.801  1.00 41.29 LIG-0.27  OA
BRANCH 25 27
ATOM     27  CA  ASP C   7       5.654  25.382  53.419  1.00 57.36 LIG 0.41  C 
ATOM     28  N   ASP C   7       6.381  24.147  53.285  1.00 63.06 LIG 0.61  N 
BRANCH 27 29
ATOM     29  CB  ASP C   7       6.612  26.431  53.928  1.00 56.13 LIG 0.16  C 
BRANCH 29 30
ATOM     30  CG  ASP C   7       7.986  26.155  53.502  1.00 57.80 LIG 0.17  C 
ATOM     31 OD2  ASP C   7       8.649  25.341  54.068  1.00 66.43 LIG-0.65  OA
ATOM     32 OD1  ASP C   7       8.391  26.780  52.545  1.00 48.55 LIG-0.65  OA
ENDBRANCH 29 30
ENDBRANCH 27 29
ENDBRANCH 25 27
ENDBRANCH 22 23
BRANCH 22 33
ATOM     33  CB  SER C   8       5.153  26.032  49.088  1.00 17.52 LIG 0.20  C 
BRANCH 33 34
ATOM     34 OG   SER C   8       6.484  25.590  49.248  1.00 22.08 LIG-0.40  OA
ATOM     35 HG   SER C   8       6.806  25.393  48.497  1.00 22.08 LIG 0.21  HD
ENDBRANCH 33 34
ENDBRANCH 22 33
ENDBRANCH 1 22
TORSDOF 15
ENDMDL
MODEL 27
USER: ADFR SOLUTION from run 88
USER: SCORE 11.620025 LL:  -2.518 LR:  -9.302 RR:   0.000 FEB:  -4.828
USER: RMSD 9.352817
USER: SEED 87
USER: STATUS no improvement in best in 14 clusters for 5 generations
USER: GENES 17
USER: genes 0 Translation |==|  0.71693 0.48294 0.55414
USER: genes 1 Rotation |==|  0.66526 0.91975 0.29085 0.55252
USER: genes 2 Torsion [C]-N--CA-[C] |==|  0.76705
USER: genes 3 Torsion [N]-CA--CB-[CG1] |==|  0.78108
USER: genes 4 Torsion [CA]-CB--CG1-[CD1] |==|  0.07697
USER: genes 5 Torsion [N]-CA--C-[N] |==|  0.92143
USER: genes 6 Torsion [C]-N--CA-[CB] |==|  0.28397
USER: genes 7 Torsion [N]-CA--CB-[CG2] |==|  0.60971
USER: genes 8 Torsion [CA]-CB--CG1-[CD1] |==|  0.68362
USER: genes 9 Torsion [N]-CA--C-[O] |==|  0.05876
USER: genes 10 Torsion [N]-C--CA-[N] |==|  0.13858
USER: genes 11 Torsion [C]-CA--N-[C] |==|  0.15950
USER: genes 12 Torsion [N]-C--CA-[N] |==|  0.10385
USER: genes 13 Torsion [C]-CA--CB-[CG] |==|  0.25742
USER: genes 14 Torsion [CA]-CB--CG-[OD2] |==|  0.62504
USER: genes 15 Torsion [C]-CA--CB-[OG] |==|  0.17359
USER: genes 16 Torsion [CA]-CB--OG-[HG] |==|  0.27772
ROOT
ATOM      1  C   SER C   8       5.415  24.260  47.644  1.00 23.80 LIG 0.24  C 
ATOM      2 O    SER C   8       5.671  25.397  47.250  1.00 21.47 LIG-0.27  OA
ATOM      3  N   ILE C   9       4.877  23.323  46.866  1.00 23.49 LIG-0.35  N 
ATOM      4 H    ILE C   9       4.731  22.514  47.120  1.00 23.49 LIG 0.16  HD
ENDROOT
BRANCH 3 5
ATOM      5  CA  ILE C   9       4.485  23.601  45.487  1.00 20.80 LIG 0.18  C 
BRANCH 5 6
ATOM      6  CB  ILE C   9       4.424  22.316  44.643  1.00 28.93 LIG 0.01  C 
ATOM      7  CG2 ILE C   9       3.461  22.494  43.457  1.00 27.59 LIG 0.01  C 
BRANCH 6 8
ATOM      8  CG1 ILE C   9       5.824  21.868  44.208  1.00 40.08 LIG 0.00  C 
ATOM      9  CD1 ILE C   9       6.939  22.280  45.136  1.00 35.68 LIG 0.01  C 
ENDBRANCH 6 8
ENDBRANCH 5 6
BRANCH 5 10
ATOM     10  C   ILE C   9       3.096  24.216  45.473  1.00 29.58 LIG 0.24  C 
ATOM     11  N   ILE C  10       2.286  23.883  46.472  1.00 24.64 LIG-0.34  N 
ATOM     12 H    ILE C  10       2.502  23.341  47.104  1.00 24.64 LIG 0.16  HD
ATOM     13 O    ILE C   9       2.765  24.986  44.571  1.00 37.49 LIG-0.27  OA
BRANCH 11 14
ATOM     14  CA  ILE C  10       0.938  24.423  46.577  1.00 23.95 LIG 0.19  C 
BRANCH 14 15
ATOM     15  CB  ILE C  10      -0.141  23.408  46.119  1.00 22.27 LIG 0.01  C 
ATOM     16  CG2 ILE C  10      -1.240  24.117  45.330  1.00 24.85 LIG 0.01  C 
BRANCH 15 17
ATOM     17  CG1 ILE C  10       0.483  22.281  45.293  1.00 32.35 LIG 0.00  C 
ATOM     18  CD1 ILE C  10       0.029  22.279  43.833  1.00 31.42 LIG 0.01  C 
ENDBRANCH 15 17
ENDBRANCH 14 15
BRANCH 14 19
ATOM     19  C   ILE C  10       0.636  24.814  48.015  1.00 24.88 LIG 0.20  C 
ATOM     20 OXT  ILE C  10      -0.528  24.901  48.405  1.00 25.96 LIG-0.65  OA
ATOM     21 O    ILE C  10       1.548  25.030  48.810  1.00 20.25 LIG-0.65  OA
ENDBRANCH 14 19
ENDBRANCH 11 14
ENDBRANCH 5 10
ENDBRANCH 3 5
BRANCH 1 22
ATOM     22  CA  SER C   8       5.691  23.857  49.088  1.00 22.40 LIG 0.20  C 
BRANCH 22 23
ATOM     23  N   SER C   8       6.422  22.599  49.185  1.00 32.61 LIG-0.34  N 
ATOM     24 H    SER C   8       6.053  21.969  49.639  1.00 32.61 LIG 0.16  HD
ATOM     25  C   ASP C   7       7.591  22.547  48.560  1.00 44.43 LIG 0.26  C 
ATOM     26 O    ASP C   7       7.956  23.404  47.777  1.00 41.29 LIG-0.27  OA
BRANCH 25 27
ATOM     27  CA  ASP C   7       8.521  21.414  48.823  1.00 57.36 LIG 0.41  C 
ATOM     28  N   ASP C   7       7.703  20.241  48.978  1.00 63.06 LIG 0.61  N 
BRANCH 27 29
ATOM     29  CB  ASP C   7       9.413  21.203  47.624  1.00 56.13 LIG 0.16  C 
BRANCH 29 30
ATOM     30  CG  ASP C   7      10.668  21.948  47.752  1.00 57.80 LIG 0.17  C 
ATOM     31 OD2  ASP C   7      11.102  22.575  46.834  1.00 66.43 LIG-0.65  OA
ATOM     32 OD1  ASP C   7      11.216  21.904  48.833  1.00 48.55 LIG-0.65  OA
ENDBRANCH 29 30
ENDBRANCH 27 29
ENDBRANCH 25 27
ENDBRANCH 22 23
BRANCH 22 33
ATOM     33  CB  SER C   8       6.484  24.961  49.775  1.00 17.52 LIG 0.20  C 
BRANCH 33 34
ATOM     34 OG   SER C   8       5.734  26.157  49.817  1.00 22.08 LIG-0.40  OA
ATOM     35 HG   SER C   8       5.389  26.245  50.577  1.00 22.08 LIG 0.21  HD
ENDBRANCH 33 34
ENDBRANCH 22 33
ENDBRANCH 1 22
TORSDOF 15
ENDMDL
MODEL 28
USER: ADFR SOLUTION from run 163
USER: SCORE 12.415030 LL:  -3.392 LR:  -9.198 RR:   0.000 FEB:  -4.724
USER: RMSD 4.035773
USER: SEED 162
USER: STATUS no improvement in best in 17 clusters for 5 generations
USER: GENES 17
USER: genes 0 Translation |==|  0.53258 0.44202 0.60959
USER: genes 1 Rotation |==|  0.99498 0.44449 0.46377 0.52445
USER: genes 2 Torsion [C]-N--CA-[C] |==|  0.84551
USER: genes 3 Torsion [N]-CA--CB-[CG1] |==|  0.47927
USER: genes 4 Torsion [CA]-CB--CG1-[CD1] |==|  0.56334
USER: genes 5 Torsion [N]-CA--C-[N] |==|  0.88075
USER: genes 6 Torsion [C]-N--CA-[CB] |==|  0.18938
USER: genes 7 Torsion [N]-CA--CB-[CG2] |==|  0.72267
USER: genes 8 Torsion [CA]-CB--CG1-[CD1] |==|  0.60980
USER: genes 9 Torsion [N]-CA--C-[O] |==|  0.85341
USER: genes 10 Torsion [N]-C--CA-[N] |==|  0.11930
USER: genes 11 Torsion [C]-CA--N-[C] |==|  0.17218
USER: genes 12 Torsion [N]-C--CA-[N] |==|  0.96747
USER: genes 13 Torsion [C]-CA--CB-[CG] |==|  0.80970
USER: genes 14 Torsion [CA]-CB--CG-[OD2] |==|  0.76486
USER: genes 15 Torsion [C]-CA--CB-[OG] |==|  0.56204
USER: genes 16 Torsion [CA]-CB--OG-[HG] |==|  0.73966
ROOT
ATOM      1  C   SER C   8       1.543  23.616  48.476  1.00 23.80 LIG 0.24  C 
ATOM      2 O    SER C   8       1.949  22.673  49.155  1.00 21.47 LIG-0.27  OA
ATOM      3  N   ILE C   9       1.714  23.690  47.157  1.00 23.49 LIG-0.35  N 
ATOM      4 H    ILE C   9       1.400  24.324  46.668  1.00 23.49 LIG 0.16  HD
ENDROOT
BRANCH 3 5
ATOM      5  CA  ILE C   9       2.465  22.677  46.421  1.00 20.80 LIG 0.18  C 
BRANCH 5 6
ATOM      6  CB  ILE C   9       2.639  23.061  44.942  1.00 28.93 LIG 0.01  C 
ATOM      7  CG2 ILE C   9       3.084  24.527  44.813  1.00 27.59 LIG 0.01  C 
BRANCH 6 8
ATOM      8  CG1 ILE C   9       3.580  22.090  44.220  1.00 40.08 LIG 0.00  C 
ATOM      9  CD1 ILE C   9       4.233  22.646  42.979  1.00 35.68 LIG 0.01  C 
ENDBRANCH 6 8
ENDBRANCH 5 6
BRANCH 5 10
ATOM     10  C   ILE C   9       3.854  22.545  47.020  1.00 29.58 LIG 0.24  C 
ATOM     11  N   ILE C  10       4.477  23.677  47.335  1.00 24.64 LIG-0.34  N 
ATOM     12 H    ILE C  10       4.144  24.459  47.209  1.00 24.64 LIG 0.16  HD
ATOM     13 O    ILE C   9       4.354  21.435  47.198  1.00 37.49 LIG-0.27  OA
BRANCH 11 14
ATOM     14  CA  ILE C  10       5.806  23.678  47.933  1.00 23.95 LIG 0.19  C 
BRANCH 14 15
ATOM     15  CB  ILE C  10       6.896  23.182  46.947  1.00 22.27 LIG 0.01  C 
ATOM     16  CG2 ILE C  10       7.242  21.721  47.226  1.00 24.85 LIG 0.01  C 
BRANCH 15 17
ATOM     17  CG1 ILE C  10       6.449  23.370  45.496  1.00 32.35 LIG 0.00  C 
ATOM     18  CD1 ILE C  10       6.844  22.207  44.586  1.00 31.42 LIG 0.01  C 
ENDBRANCH 15 17
ENDBRANCH 14 15
BRANCH 14 19
ATOM     19  C   ILE C  10       6.180  25.081  48.383  1.00 24.88 LIG 0.20  C 
ATOM     20 OXT  ILE C  10       6.577  25.281  49.530  1.00 25.96 LIG-0.65  OA
ATOM     21 O    ILE C  10       6.111  26.029  47.603  1.00 20.25 LIG-0.65  OA
ENDBRANCH 14 19
ENDBRANCH 11 14
ENDBRANCH 5 10
ENDBRANCH 3 5
BRANCH 1 22
ATOM     22  CA  SER C   8       0.818  24.788  49.126  1.00 22.40 LIG 0.20  C 
BRANCH 22 23
ATOM     23  N   SER C   8      -0.340  25.224  48.355  1.00 32.61 LIG-0.34  N 
ATOM     24 H    SER C   8      -0.324  26.029  48.051  1.00 32.61 LIG 0.16  HD
ATOM     25  C   ASP C   7      -1.311  24.335  48.194  1.00 44.43 LIG 0.26  C 
ATOM     26 O    ASP C   7      -1.179  23.160  48.482  1.00 41.29 LIG-0.27  OA
BRANCH 25 27
ATOM     27  CA  ASP C   7      -2.631  24.768  47.661  1.00 57.36 LIG 0.41  C 
ATOM     28  N   ASP C   7      -2.630  26.207  47.685  1.00 63.06 LIG 0.61  N 
BRANCH 27 29
ATOM     29  CB  ASP C   7      -2.765  24.329  46.223  1.00 56.13 LIG 0.16  C 
BRANCH 29 30
ATOM     30  CG  ASP C   7      -1.844  25.062  45.351  1.00 57.80 LIG 0.17  C 
ATOM     31 OD2  ASP C   7      -2.139  26.130  44.910  1.00 66.43 LIG-0.65  OA
ATOM     32 OD1  ASP C   7      -0.776  24.532  45.125  1.00 48.55 LIG-0.65  OA
ENDBRANCH 29 30
ENDBRANCH 27 29
ENDBRANCH 25 27
ENDBRANCH 22 23
BRANCH 22 33
ATOM     33  CB  SER C   8       0.375  24.390  50.528  1.00 17.52 LIG 0.20  C 
BRANCH 33 34
ATOM     34 OG   SER C   8      -0.698  25.202  50.958  1.00 22.08 LIG-0.40  OA
ATOM     35 HG   SER C   8      -0.398  25.852  51.396  1.00 22.08 LIG 0.21  HD
ENDBRANCH 33 34
ENDBRANCH 22 33
ENDBRANCH 1 22
TORSDOF 15
ENDMDL
MODEL 29
USER: ADFR SOLUTION from run 188
USER: SCORE 12.064106 LL:  -3.338 LR:  -9.189 RR:   0.000 FEB:  -4.715
USER: RMSD 5.011484
USER: SEED 187
USER: STATUS no improvement in best in 15 clusters for 5 generations
USER: GENES 17
USER: genes 0 Translation |==|  0.46380 0.41371 0.50240
USER: genes 1 Rotation |==|  0.10222 0.57642 0.26900 0.68048
USER: genes 2 Torsion [C]-N--CA-[C] |==|  0.60871
USER: genes 3 Torsion [N]-CA--CB-[CG1] |==|  0.19941
USER: genes 4 Torsion [CA]-CB--CG1-[CD1] |==|  0.44454
USER: genes 5 Torsion [N]-CA--C-[N] |==|  0.52723
USER: genes 6 Torsion [C]-N--CA-[CB] |==|  0.51654
USER: genes 7 Torsion [N]-CA--CB-[CG2] |==|  0.81310
USER: genes 8 Torsion [CA]-CB--CG1-[CD1] |==|  0.75918
USER: genes 9 Torsion [N]-CA--C-[O] |==|  0.88742
USER: genes 10 Torsion [N]-C--CA-[N] |==|  0.90394
USER: genes 11 Torsion [C]-CA--N-[C] |==|  0.82736
USER: genes 12 Torsion [N]-C--CA-[N] |==|  0.19770
USER: genes 13 Torsion [C]-CA--CB-[CG] |==|  0.66765
USER: genes 14 Torsion [CA]-CB--CG-[OD2] |==|  0.28266
USER: genes 15 Torsion [C]-CA--CB-[OG] |==|  0.99189
USER: genes 16 Torsion [CA]-CB--OG-[HG] |==|  0.42630
ROOT
ATOM      1  C   SER C   8       0.099  23.170  46.868  1.00 23.80 LIG 0.24  C 
ATOM      2 O    SER C   8      -0.102  21.962  46.747  1.00 21.47 LIG-0.27  OA
ATOM      3  N   ILE C   9       1.316  23.710  46.858  1.00 23.49 LIG-0.35  N 
ATOM      4 H    ILE C   9       1.465  24.556  46.902  1.00 23.49 LIG 0.16  HD
ENDROOT
BRANCH 3 5
ATOM      5  CA  ILE C   9       2.521  22.890  46.770  1.00 20.80 LIG 0.18  C 
BRANCH 5 6
ATOM      6  CB  ILE C   9       3.089  22.866  45.341  1.00 28.93 LIG 0.01  C 
ATOM      7  CG2 ILE C   9       2.012  22.421  44.338  1.00 27.59 LIG 0.01  C 
BRANCH 6 8
ATOM      8  CG1 ILE C   9       3.726  24.210  44.970  1.00 40.08 LIG 0.00  C 
ATOM      9  CD1 ILE C   9       4.702  24.154  43.821  1.00 35.68 LIG 0.01  C 
ENDBRANCH 6 8
ENDBRANCH 5 6
BRANCH 5 10
ATOM     10  C   ILE C   9       3.594  23.472  47.674  1.00 29.58 LIG 0.24  C 
ATOM     11  N   ILE C  10       4.814  22.961  47.556  1.00 24.64 LIG-0.34  N 
ATOM     12 H    ILE C  10       5.018  22.325  47.013  1.00 24.64 LIG 0.16  HD
ATOM     13 O    ILE C   9       3.320  24.375  48.465  1.00 37.49 LIG-0.27  OA
BRANCH 11 14
ATOM     14  CA  ILE C  10       5.930  23.449  48.355  1.00 23.95 LIG 0.19  C 
BRANCH 14 15
ATOM     15  CB  ILE C  10       7.278  22.806  47.941  1.00 22.27 LIG 0.01  C 
ATOM     16  CG2 ILE C  10       7.285  21.317  48.280  1.00 24.85 LIG 0.01  C 
BRANCH 15 17
ATOM     17  CG1 ILE C  10       7.558  23.029  46.453  1.00 32.35 LIG 0.00  C 
ATOM     18  CD1 ILE C  10       6.934  21.961  45.555  1.00 31.42 LIG 0.01  C 
ENDBRANCH 15 17
ENDBRANCH 14 15
BRANCH 14 19
ATOM     19  C   ILE C  10       6.062  24.957  48.209  1.00 24.88 LIG 0.20  C 
ATOM     20 OXT  ILE C  10       6.344  25.654  49.183  1.00 25.96 LIG-0.65  OA
ATOM     21 O    ILE C  10       5.909  25.497  47.115  1.00 20.25 LIG-0.65  OA
ENDBRANCH 14 19
ENDBRANCH 11 14
ENDBRANCH 5 10
ENDBRANCH 3 5
BRANCH 1 22
ATOM     22  CA  SER C   8      -1.064  24.137  47.057  1.00 22.40 LIG 0.20  C 
BRANCH 22 23
ATOM     23  N   SER C   8      -0.728  25.246  47.941  1.00 32.61 LIG-0.34  N 
ATOM     24 H    SER C   8      -0.756  26.036  47.603  1.00 32.61 LIG 0.16  HD
ATOM     25  C   ASP C   7      -0.412  24.930  49.191  1.00 44.43 LIG 0.26  C 
ATOM     26 O    ASP C   7      -0.586  23.816  49.649  1.00 41.29 LIG-0.27  OA
BRANCH 25 27
ATOM     27  CA  ASP C   7       0.198  25.953  50.082  1.00 57.36 LIG 0.41  C 
ATOM     28  N   ASP C   7      -0.842  26.899  50.391  1.00 63.06 LIG 0.61  N 
BRANCH 27 29
ATOM     29  CB  ASP C   7       0.633  25.305  51.374  1.00 56.13 LIG 0.16  C 
BRANCH 29 30
ATOM     30  CG  ASP C   7      -0.051  25.894  52.527  1.00 57.80 LIG 0.17  C 
ATOM     31 OD2  ASP C   7      -0.969  25.334  53.044  1.00 66.43 LIG-0.65  OA
ATOM     32 OD1  ASP C   7       0.378  26.955  52.927  1.00 48.55 LIG-0.65  OA
ENDBRANCH 29 30
ENDBRANCH 27 29
ENDBRANCH 25 27
ENDBRANCH 22 23
BRANCH 22 33
ATOM     33  CB  SER C   8      -1.491  24.680  45.700  1.00 17.52 LIG 0.20  C 
BRANCH 33 34
ATOM     34 OG   SER C   8      -0.649  24.185  44.680  1.00 22.08 LIG-0.40  OA
ATOM     35 HG   SER C   8      -1.068  24.172  43.952  1.00 22.08 LIG 0.21  HD
ENDBRANCH 33 34
ENDBRANCH 22 33
ENDBRANCH 1 22
TORSDOF 15
ENDMDL
MODEL 30
USER: ADFR SOLUTION from run 123
USER: SCORE 11.165611 LL:  -2.829 LR:  -9.148 RR:   0.000 FEB:  -4.673
USER: RMSD 9.383140
USER: SEED 122
USER: STATUS no improvement in best in 12 clusters for 5 generations
USER: GENES 17
USER: genes 0 Translation |==|  0.66144 0.45592 0.54411
USER: genes 1 Rotation |==|  0.34459 0.95782 0.50860 0.62719
USER: genes 2 Torsion [C]-N--CA-[C] |==|  0.84413
USER: genes 3 Torsion [N]-CA--CB-[CG1] |==|  0.22603
USER: genes 4 Torsion [CA]-CB--CG1-[CD1] |==|  0.78646
USER: genes 5 Torsion [N]-CA--C-[N] |==|  0.38770
USER: genes 6 Torsion [C]-N--CA-[CB] |==|  0.11722
USER: genes 7 Torsion [N]-CA--CB-[CG2] |==|  0.19452
USER: genes 8 Torsion [CA]-CB--CG1-[CD1] |==|  0.18186
USER: genes 9 Torsion [N]-CA--C-[O] |==|  0.43479
USER: genes 10 Torsion [N]-C--CA-[N] |==|  0.90000
USER: genes 11 Torsion [C]-CA--N-[C] |==|  0.22083
USER: genes 12 Torsion [N]-C--CA-[N] |==|  0.46261
USER: genes 13 Torsion [C]-CA--CB-[CG] |==|  0.63310
USER: genes 14 Torsion [CA]-CB--CG-[OD2] |==|  0.71951
USER: genes 15 Torsion [C]-CA--CB-[OG] |==|  0.97715
USER: genes 16 Torsion [CA]-CB--OG-[HG] |==|  0.15186
ROOT
ATOM      1  C   SER C   8       4.249  23.835  47.494  1.00 23.80 LIG 0.24  C 
ATOM      2 O    SER C   8       3.079  24.152  47.703  1.00 21.47 LIG-0.27  OA
ATOM      3  N   ILE C   9       4.755  23.687  46.271  1.00 23.49 LIG-0.35  N 
ATOM      4 H    ILE C   9       5.581  23.505  46.113  1.00 23.49 LIG 0.16  HD
ENDROOT
BRANCH 3 5
ATOM      5  CA  ILE C   9       3.929  23.825  45.075  1.00 20.80 LIG 0.18  C 
BRANCH 5 6
ATOM      6  CB  ILE C   9       4.715  23.482  43.798  1.00 28.93 LIG 0.01  C 
ATOM      7  CG2 ILE C   9       6.106  24.137  43.827  1.00 27.59 LIG 0.01  C 
BRANCH 6 8
ATOM      8  CG1 ILE C   9       4.778  21.967  43.570  1.00 40.08 LIG 0.00  C 
ATOM      9  CD1 ILE C   9       5.765  21.235  44.445  1.00 35.68 LIG 0.01  C 
ENDBRANCH 6 8
ENDBRANCH 5 6
BRANCH 5 10
ATOM     10  C   ILE C   9       2.758  22.861  45.157  1.00 29.58 LIG 0.24  C 
ATOM     11  N   ILE C  10       1.581  23.316  44.739  1.00 24.64 LIG-0.34  N 
ATOM     12 H    ILE C  10       1.453  24.113  44.442  1.00 24.64 LIG 0.16  HD
ATOM     13 O    ILE C   9       2.919  21.720  45.590  1.00 37.49 LIG-0.27  OA
BRANCH 11 14
ATOM     14  CA  ILE C  10       0.389  22.480  44.753  1.00 23.95 LIG 0.19  C 
BRANCH 14 15
ATOM     15  CB  ILE C  10       0.274  21.638  46.050  1.00 22.27 LIG 0.01  C 
ATOM     16  CG2 ILE C  10      -0.038  22.538  47.244  1.00 24.85 LIG 0.01  C 
BRANCH 15 17
ATOM     17  CG1 ILE C  10      -0.783  20.542  45.900  1.00 32.35 LIG 0.00  C 
ATOM     18  CD1 ILE C  10      -0.417  19.487  44.856  1.00 31.42 LIG 0.01  C 
ENDBRANCH 15 17
ENDBRANCH 14 15
BRANCH 14 19
ATOM     19  C   ILE C  10      -0.860  23.340  44.638  1.00 24.88 LIG 0.20  C 
ATOM     20 OXT  ILE C  10      -0.829  24.528  44.957  1.00 25.96 LIG-0.65  OA
ATOM     21 O    ILE C  10      -1.910  22.866  44.207  1.00 20.25 LIG-0.65  OA
ENDBRANCH 14 19
ENDBRANCH 11 14
ENDBRANCH 5 10
ENDBRANCH 3 5
BRANCH 1 22
ATOM     22  CA  SER C   8       5.204  23.573  48.652  1.00 22.40 LIG 0.20  C 
BRANCH 22 23
ATOM     23  N   SER C   8       6.136  22.487  48.372  1.00 32.61 LIG-0.34  N 
ATOM     24 H    SER C   8       5.953  21.719  48.714  1.00 32.61 LIG 0.16  HD
ATOM     25  C   ASP C   7       7.181  22.789  47.612  1.00 44.43 LIG 0.26  C 
ATOM     26 O    ASP C   7       7.270  23.839  47.004  1.00 41.29 LIG-0.27  OA
BRANCH 25 27
ATOM     27  CA  ASP C   7       8.313  21.829  47.495  1.00 57.36 LIG 0.41  C 
ATOM     28  N   ASP C   7       9.114  22.275  46.386  1.00 63.06 LIG 0.61  N 
BRANCH 27 29
ATOM     29  CB  ASP C   7       9.165  21.898  48.739  1.00 56.13 LIG 0.16  C 
BRANCH 29 30
ATOM     30  CG  ASP C   7      10.589  22.003  48.409  1.00 57.80 LIG 0.17  C 
ATOM     31 OD2  ASP C   7      11.301  21.048  48.466  1.00 66.43 LIG-0.65  OA
ATOM     32 OD1  ASP C   7      10.984  23.096  48.064  1.00 48.55 LIG-0.65  OA
ENDBRANCH 29 30
ENDBRANCH 27 29
ENDBRANCH 25 27
ENDBRANCH 22 23
BRANCH 22 33
ATOM     33  CB  SER C   8       5.982  24.845  48.960  1.00 17.52 LIG 0.20  C 
BRANCH 33 34
ATOM     34 OG   SER C   8       5.735  25.827  47.976  1.00 22.08 LIG-0.40  OA
ATOM     35 HG   SER C   8       4.907  25.954  47.909  1.00 22.08 LIG 0.21  HD
ENDBRANCH 33 34
ENDBRANCH 22 33
ENDBRANCH 1 22
TORSDOF 15
ENDMDL
MODEL 31
USER: ADFR SOLUTION from run 185
USER: SCORE 12.366102 LL:  -3.339 LR:  -9.148 RR:   0.000 FEB:  -4.673
USER: RMSD 4.710928
USER: SEED 184
USER: STATUS no improvement in best in 5 clusters for 5 generations
USER: GENES 17
USER: genes 0 Translation |==|  0.51836 0.44273 0.48321
USER: genes 1 Rotation |==|  0.04461 0.53364 0.32407 0.60266
USER: genes 2 Torsion [C]-N--CA-[C] |==|  0.78084
USER: genes 3 Torsion [N]-CA--CB-[CG1] |==|  0.77870
USER: genes 4 Torsion [CA]-CB--CG1-[CD1] |==|  0.82184
USER: genes 5 Torsion [N]-CA--C-[N] |==|  0.90490
USER: genes 6 Torsion [C]-N--CA-[CB] |==|  0.86916
USER: genes 7 Torsion [N]-CA--CB-[CG2] |==|  0.41053
USER: genes 8 Torsion [CA]-CB--CG1-[CD1] |==|  0.03496
USER: genes 9 Torsion [N]-CA--C-[O] |==|  0.38224
USER: genes 10 Torsion [N]-C--CA-[N] |==|  0.36351
USER: genes 11 Torsion [C]-CA--N-[C] |==|  0.84789
USER: genes 12 Torsion [N]-C--CA-[N] |==|  0.69794
USER: genes 13 Torsion [C]-CA--CB-[CG] |==|  0.68822
USER: genes 14 Torsion [CA]-CB--CG-[OD2] |==|  0.22724
USER: genes 15 Torsion [C]-CA--CB-[OG] |==|  0.51850
USER: genes 16 Torsion [CA]-CB--OG-[HG] |==|  0.72706
ROOT
ATOM      1  C   SER C   8       1.245  23.627  46.580  1.00 23.80 LIG 0.24  C 
ATOM      2 O    SER C   8       1.209  22.455  46.952  1.00 21.47 LIG-0.27  OA
ATOM      3  N   ILE C   9       2.325  24.187  46.041  1.00 23.49 LIG-0.35  N 
ATOM      4 H    ILE C   9       2.348  24.993  45.741  1.00 23.49 LIG 0.16  HD
ENDROOT
BRANCH 3 5
ATOM      5  CA  ILE C   9       3.586  23.461  45.913  1.00 20.80 LIG 0.18  C 
BRANCH 5 6
ATOM      6  CB  ILE C   9       4.528  24.131  44.899  1.00 28.93 LIG 0.01  C 
ATOM      7  CG2 ILE C   9       5.994  23.796  45.221  1.00 27.59 LIG 0.01  C 
BRANCH 6 8
ATOM      8  CG1 ILE C   9       4.142  23.778  43.458  1.00 40.08 LIG 0.00  C 
ATOM      9  CD1 ILE C   9       4.273  22.316  43.108  1.00 35.68 LIG 0.01  C 
ENDBRANCH 6 8
ENDBRANCH 5 6
BRANCH 5 10
ATOM     10  C   ILE C   9       4.299  23.449  47.254  1.00 29.58 LIG 0.24  C 
ATOM     11  N   ILE C  10       4.154  24.529  48.015  1.00 24.64 LIG-0.34  N 
ATOM     12 H    ILE C  10       3.696  25.220  47.786  1.00 24.64 LIG 0.16  HD
ATOM     13 O    ILE C   9       4.968  22.475  47.595  1.00 37.49 LIG-0.27  OA
BRANCH 11 14
ATOM     14  CA  ILE C  10       4.775  24.627  49.329  1.00 23.95 LIG 0.19  C 
BRANCH 14 15
ATOM     15  CB  ILE C  10       4.551  23.353  50.184  1.00 22.27 LIG 0.01  C 
ATOM     16  CG2 ILE C  10       5.746  23.111  51.103  1.00 24.85 LIG 0.01  C 
BRANCH 15 17
ATOM     17  CG1 ILE C  10       3.253  23.454  50.989  1.00 32.35 LIG 0.00  C 
ATOM     18  CD1 ILE C  10       2.354  24.606  50.544  1.00 31.42 LIG 0.01  C 
ENDBRANCH 15 17
ENDBRANCH 14 15
BRANCH 14 19
ATOM     19  C   ILE C  10       6.274  24.844  49.190  1.00 24.88 LIG 0.20  C 
ATOM     20 OXT  ILE C  10       6.915  24.223  48.343  1.00 25.96 LIG-0.65  OA
ATOM     21 O    ILE C  10       6.859  25.654  49.905  1.00 20.25 LIG-0.65  OA
ENDBRANCH 14 19
ENDBRANCH 11 14
ENDBRANCH 5 10
ENDBRANCH 3 5
BRANCH 1 22
ATOM     22  CA  SER C   8       0.026  24.529  46.735  1.00 22.40 LIG 0.20  C 
BRANCH 22 23
ATOM     23  N   SER C   8      -1.191  23.916  46.218  1.00 32.61 LIG-0.34  N 
ATOM     24 H    SER C   8      -1.860  23.863  46.756  1.00 32.61 LIG 0.16  HD
ATOM     25  C   ASP C   7      -1.152  23.495  44.960  1.00 44.43 LIG 0.26  C 
ATOM     26 O    ASP C   7      -0.243  23.779  44.201  1.00 41.29 LIG-0.27  OA
BRANCH 25 27
ATOM     27  CA  ASP C   7      -2.239  22.625  44.436  1.00 57.36 LIG 0.41  C 
ATOM     28  N   ASP C   7      -1.670  21.313  44.272  1.00 63.06 LIG 0.61  N 
BRANCH 27 29
ATOM     29  CB  ASP C   7      -3.345  22.526  45.457  1.00 56.13 LIG 0.16  C 
BRANCH 29 30
ATOM     30  CG  ASP C   7      -3.443  21.174  46.013  1.00 57.80 LIG 0.17  C 
ATOM     31 OD2  ASP C   7      -2.718  20.821  46.893  1.00 66.43 LIG-0.65  OA
ATOM     32 OD1  ASP C   7      -4.302  20.457  45.545  1.00 48.55 LIG-0.65  OA
ENDBRANCH 29 30
ENDBRANCH 27 29
ENDBRANCH 25 27
ENDBRANCH 22 23
BRANCH 22 33
ATOM     33  CB  SER C   8      -0.162  24.872  48.206  1.00 17.52 LIG 0.20  C 
BRANCH 33 34
ATOM     34 OG   SER C   8      -1.368  25.581  48.400  1.00 22.08 LIG-0.40  OA
ATOM     35 HG   SER C   8      -1.206  26.404  48.441  1.00 22.08 LIG 0.21  HD
ENDBRANCH 33 34
ENDBRANCH 22 33
ENDBRANCH 1 22
TORSDOF 15
ENDMDL
MODEL 32
USER: ADFR SOLUTION from run 77
USER: SCORE 13.196823 LL:  -4.157 LR:  -9.141 RR:   0.000 FEB:  -4.667
USER: RMSD 4.172362
USER: SEED 76
USER: STATUS no improvement in best in 8 clusters for 5 generations
USER: GENES 17
USER: genes 0 Translation |==|  0.47124 0.42870 0.39946
USER: genes 1 Rotation |==|  0.45961 0.47975 0.48108 0.99759
USER: genes 2 Torsion [C]-N--CA-[C] |==|  0.77805
USER: genes 3 Torsion [N]-CA--CB-[CG1] |==|  0.83298
USER: genes 4 Torsion [CA]-CB--CG1-[CD1] |==|  0.60829
USER: genes 5 Torsion [N]-CA--C-[N] |==|  0.36844
USER: genes 6 Torsion [C]-N--CA-[CB] |==|  0.30340
USER: genes 7 Torsion [N]-CA--CB-[CG2] |==|  0.63210
USER: genes 8 Torsion [CA]-CB--CG1-[CD1] |==|  0.69516
USER: genes 9 Torsion [N]-CA--C-[O] |==|  0.90357
USER: genes 10 Torsion [N]-C--CA-[N] |==|  0.90765
USER: genes 11 Torsion [C]-CA--N-[C] |==|  0.84867
USER: genes 12 Torsion [N]-C--CA-[N] |==|  0.60351
USER: genes 13 Torsion [C]-CA--CB-[CG] |==|  0.79554
USER: genes 14 Torsion [CA]-CB--CG-[OD2] |==|  0.79457
USER: genes 15 Torsion [C]-CA--CB-[OG] |==|  0.05130
USER: genes 16 Torsion [CA]-CB--OG-[HG] |==|  0.21033
ROOT
ATOM      1  C   SER C   8       0.255  23.406  45.324  1.00 23.80 LIG 0.24  C 
ATOM      2 O    SER C   8       0.890  24.154  44.582  1.00 21.47 LIG-0.27  OA
ATOM      3  N   ILE C   9       0.461  23.338  46.638  1.00 23.49 LIG-0.35  N 
ATOM      4 H    ILE C   9      -0.004  22.849  47.171  1.00 23.49 LIG 0.16  HD
ENDROOT
BRANCH 3 5
ATOM      5  CA  ILE C   9       1.515  24.107  47.292  1.00 20.80 LIG 0.18  C 
BRANCH 5 6
ATOM      6  CB  ILE C   9       1.276  24.228  48.806  1.00 28.93 LIG 0.01  C 
ATOM      7  CG2 ILE C   9       2.476  24.904  49.491  1.00 27.59 LIG 0.01  C 
BRANCH 6 8
ATOM      8  CG1 ILE C   9      -0.052  24.932  49.108  1.00 40.08 LIG 0.00  C 
ATOM      9  CD1 ILE C   9      -0.014  25.882  50.279  1.00 35.68 LIG 0.01  C 
ENDBRANCH 6 8
ENDBRANCH 5 6
BRANCH 5 10
ATOM     10  C   ILE C   9       2.846  23.402  47.100  1.00 29.58 LIG 0.24  C 
ATOM     11  N   ILE C  10       3.868  24.154  46.704  1.00 24.64 LIG-0.34  N 
ATOM     12 H    ILE C  10       3.810  24.997  46.545  1.00 24.64 LIG 0.16  HD
ATOM     13 O    ILE C   9       2.947  22.193  47.310  1.00 37.49 LIG-0.27  OA
BRANCH 11 14
ATOM     14  CA  ILE C  10       5.198  23.594  46.503  1.00 23.95 LIG 0.19  C 
BRANCH 14 15
ATOM     15  CB  ILE C  10       5.590  23.530  45.004  1.00 22.27 LIG 0.01  C 
ATOM     16  CG2 ILE C  10       6.160  22.155  44.661  1.00 24.85 LIG 0.01  C 
BRANCH 15 17
ATOM     17  CG1 ILE C  10       4.393  23.863  44.110  1.00 32.35 LIG 0.00  C 
ATOM     18  CD1 ILE C  10       3.859  22.656  43.340  1.00 31.42 LIG 0.01  C 
ENDBRANCH 15 17
ENDBRANCH 14 15
BRANCH 14 19
ATOM     19  C   ILE C  10       6.239  24.434  47.226  1.00 24.88 LIG 0.20  C 
ATOM     20 OXT  ILE C  10       7.234  23.904  47.718  1.00 25.96 LIG-0.65  OA
ATOM     21 O    ILE C  10       6.110  25.654  47.312  1.00 20.25 LIG-0.65  OA
ENDBRANCH 14 19
ENDBRANCH 11 14
ENDBRANCH 5 10
ENDBRANCH 3 5
BRANCH 1 22
ATOM     22  CA  SER C   8      -0.819  22.481  44.763  1.00 22.40 LIG 0.20  C 
BRANCH 22 23
ATOM     23  N   SER C   8      -0.899  21.218  45.487  1.00 32.61 LIG-0.34  N 
ATOM     24 H    SER C   8      -1.669  20.997  45.801  1.00 32.61 LIG 0.16  HD
ATOM     25  C   ASP C   7       0.228  20.525  45.592  1.00 44.43 LIG 0.26  C 
ATOM     26 O    ASP C   7       1.229  20.801  44.958  1.00 41.29 LIG-0.27  OA
BRANCH 25 27
ATOM     27  CA  ASP C   7       0.304  19.372  46.531  1.00 57.36 LIG 0.41  C 
ATOM     28  N   ASP C   7       1.626  19.395  47.100  1.00 63.06 LIG 0.61  N 
BRANCH 27 29
ATOM     29  CB  ASP C   7      -0.687  19.566  47.652  1.00 56.13 LIG 0.16  C 
BRANCH 29 30
ATOM     30  CG  ASP C   7      -0.239  20.597  48.592  1.00 57.80 LIG 0.17  C 
ATOM     31 OD2  ASP C   7       0.648  20.380  49.360  1.00 66.43 LIG-0.65  OA
ATOM     32 OD1  ASP C   7      -0.802  21.669  48.527  1.00 48.55 LIG-0.65  OA
ENDBRANCH 29 30
ENDBRANCH 27 29
ENDBRANCH 25 27
ENDBRANCH 22 23
BRANCH 22 33
ATOM     33  CB  SER C   8      -2.168  23.185  44.818  1.00 17.52 LIG 0.20  C 
BRANCH 33 34
ATOM     34 OG   SER C   8      -1.993  24.579  44.957  1.00 22.08 LIG-0.40  OA
ATOM     35 HG   SER C   8      -1.757  24.907  44.221  1.00 22.08 LIG 0.21  HD
ENDBRANCH 33 34
ENDBRANCH 22 33
ENDBRANCH 1 22
TORSDOF 15
ENDMDL
MODEL 33
USER: ADFR SOLUTION from run 3
USER: SCORE 12.597043 LL:  -3.673 LR:  -9.135 RR:   0.000 FEB:  -4.661
USER: RMSD 6.361151
USER: SEED 941695
USER: STATUS no improvement in best in 13 clusters for 5 generations
USER: GENES 17
USER: genes 0 Translation |==|  0.44768 0.47022 0.51951
USER: genes 1 Rotation |==|  0.68295 0.82604 0.18384 0.60131
USER: genes 2 Torsion [C]-N--CA-[C] |==|  0.15741
USER: genes 3 Torsion [N]-CA--CB-[CG1] |==|  0.94090
USER: genes 4 Torsion [CA]-CB--CG1-[CD1] |==|  0.37824
USER: genes 5 Torsion [N]-CA--C-[N] |==|  0.07778
USER: genes 6 Torsion [C]-N--CA-[CB] |==|  0.17019
USER: genes 7 Torsion [N]-CA--CB-[CG2] |==|  0.17351
USER: genes 8 Torsion [CA]-CB--CG1-[CD1] |==|  0.67825
USER: genes 9 Torsion [N]-CA--C-[O] |==|  0.43895
USER: genes 10 Torsion [N]-C--CA-[N] |==|  0.41814
USER: genes 11 Torsion [C]-CA--N-[C] |==|  0.75563
USER: genes 12 Torsion [N]-C--CA-[N] |==|  0.32435
USER: genes 13 Torsion [C]-CA--CB-[CG] |==|  0.49112
USER: genes 14 Torsion [CA]-CB--CG-[OD2] |==|  0.68378
USER: genes 15 Torsion [C]-CA--CB-[OG] |==|  0.61021
USER: genes 16 Torsion [CA]-CB--OG-[HG] |==|  0.30311
ROOT
ATOM      1  C   SER C   8      -0.240  24.060  47.125  1.00 23.80 LIG 0.24  C 
ATOM      2 O    SER C   8       0.219  24.750  46.216  1.00 21.47 LIG-0.27  OA
ATOM      3  N   ILE C   9      -0.889  22.917  46.914  1.00 23.49 LIG-0.35  N 
ATOM      4 H    ILE C   9      -1.179  22.407  47.544  1.00 23.49 LIG 0.16  HD
ENDROOT
BRANCH 3 5
ATOM      5  CA  ILE C   9      -1.168  22.427  45.567  1.00 20.80 LIG 0.18  C 
BRANCH 5 6
ATOM      6  CB  ILE C   9      -2.067  23.398  44.783  1.00 28.93 LIG 0.01  C 
ATOM      7  CG2 ILE C   9      -2.977  22.626  43.812  1.00 27.59 LIG 0.01  C 
BRANCH 6 8
ATOM      8  CG1 ILE C   9      -2.850  24.318  45.725  1.00 40.08 LIG 0.00  C 
ATOM      9  CD1 ILE C   9      -2.890  25.768  45.307  1.00 35.68 LIG 0.01  C 
ENDBRANCH 6 8
ENDBRANCH 5 6
BRANCH 5 10
ATOM     10  C   ILE C   9       0.136  22.298  44.799  1.00 29.58 LIG 0.24  C 
ATOM     11  N   ILE C  10       1.230  22.064  45.516  1.00 24.64 LIG-0.34  N 
ATOM     12 H    ILE C  10       1.236  21.994  46.373  1.00 24.64 LIG 0.16  HD
ATOM     13 O    ILE C   9       0.150  22.406  43.573  1.00 37.49 LIG-0.27  OA
BRANCH 11 14
ATOM     14  CA  ILE C  10       2.536  21.903  44.890  1.00 23.95 LIG 0.19  C 
BRANCH 14 15
ATOM     15  CB  ILE C  10       2.978  23.171  44.116  1.00 22.27 LIG 0.01  C 
ATOM     16  CG2 ILE C  10       3.125  24.355  45.070  1.00 24.85 LIG 0.01  C 
BRANCH 15 17
ATOM     17  CG1 ILE C  10       4.281  22.921  43.353  1.00 32.35 LIG 0.00  C 
ATOM     18  CD1 ILE C  10       5.445  23.779  43.847  1.00 31.42 LIG 0.01  C 
ENDBRANCH 15 17
ENDBRANCH 14 15
BRANCH 14 19
ATOM     19  C   ILE C  10       3.591  21.601  45.943  1.00 24.88 LIG 0.20  C 
ATOM     20 OXT  ILE C  10       3.395  21.893  47.122  1.00 25.96 LIG-0.65  OA
ATOM     21 O    ILE C  10       4.643  21.046  45.633  1.00 20.25 LIG-0.65  OA
ENDBRANCH 14 19
ENDBRANCH 11 14
ENDBRANCH 5 10
ENDBRANCH 3 5
BRANCH 1 22
ATOM     22  CA  SER C   8      -0.099  24.495  48.579  1.00 22.40 LIG 0.20  C 
BRANCH 22 23
ATOM     23  N   SER C   8       1.108  25.278  48.812  1.00 32.61 LIG-0.34  N 
ATOM     24 H    SER C   8       1.036  26.133  48.746  1.00 32.61 LIG 0.16  HD
ATOM     25  C   ASP C   7       2.207  24.595  49.106  1.00 44.43 LIG 0.26  C 
ATOM     26 O    ASP C   7       2.189  23.409  49.376  1.00 41.29 LIG-0.27  OA
BRANCH 25 27
ATOM     27  CA  ASP C   7       3.529  25.279  49.095  1.00 57.36 LIG 0.41  C 
ATOM     28  N   ASP C   7       4.029  25.223  50.444  1.00 63.06 LIG 0.61  N 
BRANCH 27 29
ATOM     29  CB  ASP C   7       4.486  24.516  48.213  1.00 56.13 LIG 0.16  C 
BRANCH 29 30
ATOM     30  CG  ASP C   7       5.780  25.195  48.112  1.00 57.80 LIG 0.17  C 
ATOM     31 OD2  ASP C   7       6.150  25.654  47.075  1.00 66.43 LIG-0.65  OA
ATOM     32 OD1  ASP C   7       6.429  25.276  49.134  1.00 48.55 LIG-0.65  OA
ENDBRANCH 29 30
ENDBRANCH 27 29
ENDBRANCH 25 27
ENDBRANCH 22 23
BRANCH 22 33
ATOM     33  CB  SER C   8      -1.321  25.311  48.979  1.00 17.52 LIG 0.20  C 
BRANCH 33 34
ATOM     34 OG   SER C   8      -0.944  26.400  49.795  1.00 22.08 LIG-0.40  OA
ATOM     35 HG   SER C   8      -1.032  27.116  49.365  1.00 22.08 LIG 0.21  HD
ENDBRANCH 33 34
ENDBRANCH 22 33
ENDBRANCH 1 22
TORSDOF 15
ENDMDL
MODEL 34
USER: ADFR SOLUTION from run 89
USER: SCORE 11.965292 LL:  -3.258 LR:  -9.132 RR:   0.000 FEB:  -4.657
USER: RMSD 6.459880
USER: SEED 88
USER: STATUS no improvement in best in 11 clusters for 5 generations
USER: GENES 17
USER: genes 0 Translation |==|  0.45764 0.44805 0.58191
USER: genes 1 Rotation |==|  0.08105 0.73152 0.50729 0.64432
USER: genes 2 Torsion [C]-N--CA-[C] |==|  0.59038
USER: genes 3 Torsion [N]-CA--CB-[CG1] |==|  0.95754
USER: genes 4 Torsion [CA]-CB--CG1-[CD1] |==|  0.62707
USER: genes 5 Torsion [N]-CA--C-[N] |==|  0.30283
USER: genes 6 Torsion [C]-N--CA-[CB] |==|  0.48866
USER: genes 7 Torsion [N]-CA--CB-[CG2] |==|  0.56892
USER: genes 8 Torsion [CA]-CB--CG1-[CD1] |==|  0.73077
USER: genes 9 Torsion [N]-CA--C-[O] |==|  0.80327
USER: genes 10 Torsion [N]-C--CA-[N] |==|  0.90768
USER: genes 11 Torsion [C]-CA--N-[C] |==|  0.82557
USER: genes 12 Torsion [N]-C--CA-[N] |==|  0.33760
USER: genes 13 Torsion [C]-CA--CB-[CG] |==|  0.50236
USER: genes 14 Torsion [CA]-CB--CG-[OD2] |==|  0.15777
USER: genes 15 Torsion [C]-CA--CB-[OG] |==|  0.58145
USER: genes 16 Torsion [CA]-CB--OG-[HG] |==|  0.36857
ROOT
ATOM      1  C   SER C   8      -0.031  23.711  48.061  1.00 23.80 LIG 0.24  C 
ATOM      2 O    SER C   8      -0.606  22.624  48.031  1.00 21.47 LIG-0.27  OA
ATOM      3  N   ILE C   9       0.663  24.196  47.033  1.00 23.49 LIG-0.35  N 
ATOM      4 H    ILE C   9       1.035  24.972  47.029  1.00 23.49 LIG 0.16  HD
ENDROOT
BRANCH 3 5
ATOM      5  CA  ILE C   9       0.851  23.433  45.802  1.00 20.80 LIG 0.18  C 
BRANCH 5 6
ATOM      6  CB  ILE C   9      -0.217  23.778  44.750  1.00 28.93 LIG 0.01  C 
ATOM      7  CG2 ILE C   9      -0.652  22.515  43.988  1.00 27.59 LIG 0.01  C 
BRANCH 6 8
ATOM      8  CG1 ILE C   9      -1.397  24.528  45.377  1.00 40.08 LIG 0.00  C 
ATOM      9  CD1 ILE C   9      -2.759  24.031  44.957  1.00 35.68 LIG 0.01  C 
ENDBRANCH 6 8
ENDBRANCH 5 6
BRANCH 5 10
ATOM     10  C   ILE C   9       2.204  23.772  45.201  1.00 29.58 LIG 0.24  C 
ATOM     11  N   ILE C  10       3.136  22.826  45.262  1.00 24.64 LIG-0.34  N 
ATOM     12 H    ILE C  10       3.016  22.056  45.625  1.00 24.64 LIG 0.16  HD
ATOM     13 O    ILE C   9       2.399  24.872  44.687  1.00 37.49 LIG-0.27  OA
BRANCH 11 14
ATOM     14  CA  ILE C  10       4.467  23.027  44.704  1.00 23.95 LIG 0.19  C 
BRANCH 14 15
ATOM     15  CB  ILE C  10       5.410  21.828  44.983  1.00 22.27 LIG 0.01  C 
ATOM     16  CG2 ILE C  10       6.868  22.280  44.957  1.00 24.85 LIG 0.01  C 
BRANCH 15 17
ATOM     17  CG1 ILE C  10       5.068  21.161  46.317  1.00 32.35 LIG 0.00  C 
ATOM     18  CD1 ILE C  10       5.947  21.638  47.473  1.00 31.42 LIG 0.01  C 
ENDBRANCH 15 17
ENDBRANCH 14 15
BRANCH 14 19
ATOM     19  C   ILE C  10       4.383  23.220  43.197  1.00 24.88 LIG 0.20  C 
ATOM     20 OXT  ILE C  10       4.621  24.319  42.697  1.00 25.96 LIG-0.65  OA
ATOM     21 O    ILE C  10       4.097  22.279  42.460  1.00 20.25 LIG-0.65  OA
ENDBRANCH 14 19
ENDBRANCH 11 14
ENDBRANCH 5 10
ENDBRANCH 3 5
BRANCH 1 22
ATOM     22  CA  SER C   8      -0.068  24.577  49.314  1.00 22.40 LIG 0.20  C 
BRANCH 22 23
ATOM     23  N   SER C   8       1.165  25.329  49.510  1.00 32.61 LIG-0.34  N 
ATOM     24 H    SER C   8       1.105  26.187  49.491  1.00 32.61 LIG 0.16  HD
ATOM     25  C   ASP C   7       2.267  24.615  49.700  1.00 44.43 LIG 0.26  C 
ATOM     26 O    ASP C   7       2.245  23.417  49.910  1.00 41.29 LIG-0.27  OA
BRANCH 25 27
ATOM     27  CA  ASP C   7       3.598  25.279  49.639  1.00 57.36 LIG 0.41  C 
ATOM     28  N   ASP C   7       4.228  25.048  50.913  1.00 63.06 LIG 0.61  N 
BRANCH 27 29
ATOM     29  CB  ASP C   7       4.445  24.620  48.578  1.00 56.13 LIG 0.16  C 
BRANCH 29 30
ATOM     30  CG  ASP C   7       5.774  25.229  48.497  1.00 57.80 LIG 0.17  C 
ATOM     31 OD2  ASP C   7       6.483  25.279  49.455  1.00 66.43 LIG-0.65  OA
ATOM     32 OD1  ASP C   7       6.109  25.654  47.411  1.00 48.55 LIG-0.65  OA
ENDBRANCH 29 30
ENDBRANCH 27 29
ENDBRANCH 25 27
ENDBRANCH 22 23
BRANCH 22 33
ATOM     33  CB  SER C   8      -1.244  25.541  49.224  1.00 17.52 LIG 0.20  C 
BRANCH 33 34
ATOM     34 OG   SER C   8      -0.965  26.730  49.933  1.00 22.08 LIG-0.40  OA
ATOM     35 HG   SER C   8      -1.163  27.393  49.457  1.00 22.08 LIG 0.21  HD
ENDBRANCH 33 34
ENDBRANCH 22 33
ENDBRANCH 1 22
TORSDOF 15
ENDMDL
MODEL 35
USER: ADFR SOLUTION from run 53
USER: SCORE 11.312916 LL:  -3.179 LR:  -9.132 RR:   0.000 FEB:  -4.658
USER: RMSD 8.625964
USER: SEED 52
USER: STATUS searching
USER: GENES 17
USER: genes 0 Translation |==|  0.73431 0.49631 0.52227
USER: genes 1 Rotation |==|  0.40598 0.06036 0.71658 0.53106
USER: genes 2 Torsion [C]-N--CA-[C] |==|  0.66776
USER: genes 3 Torsion [N]-CA--CB-[CG1] |==|  0.04858
USER: genes 4 Torsion [CA]-CB--CG1-[CD1] |==|  0.77388
USER: genes 5 Torsion [N]-CA--C-[N] |==|  0.27358
USER: genes 6 Torsion [C]-N--CA-[CB] |==|  0.40700
USER: genes 7 Torsion [N]-CA--CB-[CG2] |==|  0.57412
USER: genes 8 Torsion [CA]-CB--CG1-[CD1] |==|  0.84004
USER: genes 9 Torsion [N]-CA--C-[O] |==|  0.13249
USER: genes 10 Torsion [N]-C--CA-[N] |==|  0.77291
USER: genes 11 Torsion [C]-CA--N-[C] |==|  0.72208
USER: genes 12 Torsion [N]-C--CA-[N] |==|  0.30762
USER: genes 13 Torsion [C]-CA--CB-[CG] |==|  0.72154
USER: genes 14 Torsion [CA]-CB--CG-[OD2] |==|  0.27245
USER: genes 15 Torsion [C]-CA--CB-[OG] |==|  0.26765
USER: genes 16 Torsion [CA]-CB--OG-[HG] |==|  0.69732
ROOT
ATOM      1  C   SER C   8       5.779  24.471  47.166  1.00 23.80 LIG 0.24  C 
ATOM      2 O    SER C   8       5.734  25.654  46.832  1.00 21.47 LIG-0.27  OA
ATOM      3  N   ILE C   9       5.066  23.518  46.569  1.00 23.49 LIG-0.35  N 
ATOM      4 H    ILE C   9       5.121  22.683  46.768  1.00 23.49 LIG 0.16  HD
ENDROOT
BRANCH 3 5
ATOM      5  CA  ILE C   9       4.113  23.822  45.506  1.00 20.80 LIG 0.18  C 
BRANCH 5 6
ATOM      6  CB  ILE C   9       4.451  23.071  44.207  1.00 28.93 LIG 0.01  C 
ATOM      7  CG2 ILE C   9       4.986  24.044  43.143  1.00 27.59 LIG 0.01  C 
BRANCH 6 8
ATOM      8  CG1 ILE C   9       5.404  21.899  44.471  1.00 40.08 LIG 0.00  C 
ATOM      9  CD1 ILE C   9       6.860  22.279  44.582  1.00 35.68 LIG 0.01  C 
ENDBRANCH 6 8
ENDBRANCH 5 6
BRANCH 5 10
ATOM     10  C   ILE C   9       2.724  23.383  45.933  1.00 29.58 LIG 0.24  C 
ATOM     11  N   ILE C  10       1.924  24.327  46.421  1.00 24.64 LIG-0.34  N 
ATOM     12 H    ILE C  10       2.154  25.150  46.513  1.00 24.64 LIG 0.16  HD
ATOM     13 O    ILE C   9       2.379  22.207  45.820  1.00 37.49 LIG-0.27  OA
BRANCH 11 14
ATOM     14  CA  ILE C  10       0.563  24.031  46.847  1.00 23.95 LIG 0.19  C 
BRANCH 14 15
ATOM     15  CB  ILE C  10       0.119  24.904  48.049  1.00 22.27 LIG 0.01  C 
ATOM     16  CG2 ILE C  10      -0.951  24.183  48.865  1.00 24.85 LIG 0.01  C 
BRANCH 15 17
ATOM     17  CG1 ILE C  10       1.316  25.278  48.927  1.00 32.35 LIG 0.00  C 
ATOM     18  CD1 ILE C  10       2.076  24.063  49.461  1.00 31.42 LIG 0.01  C 
ENDBRANCH 15 17
ENDBRANCH 14 15
BRANCH 14 19
ATOM     19  C   ILE C  10      -0.411  24.272  45.704  1.00 24.88 LIG 0.20  C 
ATOM     20 OXT  ILE C  10      -1.432  24.935  45.887  1.00 25.96 LIG-0.65  OA
ATOM     21 O    ILE C  10      -0.184  23.825  44.582  1.00 20.25 LIG-0.65  OA
ENDBRANCH 14 19
ENDBRANCH 11 14
ENDBRANCH 5 10
ENDBRANCH 3 5
BRANCH 1 22
ATOM     22  CA  SER C   8       6.667  24.022  48.321  1.00 22.40 LIG 0.20  C 
BRANCH 22 23
ATOM     23  N   SER C   8       5.929  23.892  49.572  1.00 32.61 LIG-0.34  N 
ATOM     24 H    SER C   8       5.469  23.173  49.680  1.00 32.61 LIG 0.16  HD
ATOM     25  C   ASP C   7       6.039  24.899  50.429  1.00 44.43 LIG 0.26  C 
ATOM     26 O    ASP C   7       6.859  25.788  50.296  1.00 41.29 LIG-0.27  OA
BRANCH 25 27
ATOM     27  CA  ASP C   7       5.122  24.979  51.599  1.00 57.36 LIG 0.41  C 
ATOM     28  N   ASP C   7       5.925  24.725  52.766  1.00 63.06 LIG 0.61  N 
BRANCH 27 29
ATOM     29  CB  ASP C   7       4.568  26.378  51.713  1.00 56.13 LIG 0.16  C 
BRANCH 29 30
ATOM     30  CG  ASP C   7       5.276  27.153  52.735  1.00 57.80 LIG 0.17  C 
ATOM     31 OD2  ASP C   7       6.148  27.909  52.433  1.00 66.43 LIG-0.65  OA
ATOM     32 OD1  ASP C   7       4.913  26.996  53.881  1.00 48.55 LIG-0.65  OA
ENDBRANCH 29 30
ENDBRANCH 27 29
ENDBRANCH 25 27
ENDBRANCH 22 23
BRANCH 22 33
ATOM     33  CB  SER C   8       7.313  22.689  47.970  1.00 17.52 LIG 0.20  C 
BRANCH 33 34
ATOM     34 OG   SER C   8       8.610  22.889  47.450  1.00 22.08 LIG-0.40  OA
ATOM     35 HG   SER C   8       8.611  22.718  46.627  1.00 22.08 LIG 0.21  HD
ENDBRANCH 33 34
ENDBRANCH 22 33
ENDBRANCH 1 22
TORSDOF 15
ENDMDL
MODEL 36
USER: ADFR SOLUTION from run 49
USER: SCORE 12.329666 LL:  -3.360 LR:  -9.124 RR:   0.000 FEB:  -4.650
USER: RMSD 5.562045
USER: SEED 48
USER: STATUS no improvement in best in 8 clusters for 5 generations
USER: GENES 17
USER: genes 0 Translation |==|  0.59270 0.43408 0.50582
USER: genes 1 Rotation |==|  0.07846 0.60136 0.30674 0.65709
USER: genes 2 Torsion [C]-N--CA-[C] |==|  0.64710
USER: genes 3 Torsion [N]-CA--CB-[CG1] |==|  0.92834
USER: genes 4 Torsion [CA]-CB--CG1-[CD1] |==|  0.77574
USER: genes 5 Torsion [N]-CA--C-[N] |==|  0.42210
USER: genes 6 Torsion [C]-N--CA-[CB] |==|  0.37172
USER: genes 7 Torsion [N]-CA--CB-[CG2] |==|  0.94402
USER: genes 8 Torsion [CA]-CB--CG1-[CD1] |==|  0.30774
USER: genes 9 Torsion [N]-CA--C-[O] |==|  0.96496
USER: genes 10 Torsion [N]-C--CA-[N] |==|  0.42193
USER: genes 11 Torsion [C]-CA--N-[C] |==|  0.83333
USER: genes 12 Torsion [N]-C--CA-[N] |==|  0.52332
USER: genes 13 Torsion [C]-CA--CB-[CG] |==|  0.66168
USER: genes 14 Torsion [CA]-CB--CG-[OD2] |==|  0.21453
USER: genes 15 Torsion [C]-CA--CB-[OG] |==|  0.53296
USER: genes 16 Torsion [CA]-CB--OG-[HG] |==|  0.91831
ROOT
ATOM      1  C   SER C   8       2.806  23.491  46.919  1.00 23.80 LIG 0.24  C 
ATOM      2 O    SER C   8       2.525  22.293  46.898  1.00 21.47 LIG-0.27  OA
ATOM      3  N   ILE C   9       4.017  23.959  46.627  1.00 23.49 LIG-0.35  N 
ATOM      4 H    ILE C   9       4.214  24.796  46.600  1.00 23.49 LIG 0.16  HD
ENDROOT
BRANCH 3 5
ATOM      5  CA  ILE C   9       5.134  23.069  46.323  1.00 20.80 LIG 0.18  C 
BRANCH 5 6
ATOM      6  CB  ILE C   9       5.602  23.221  44.866  1.00 28.93 LIG 0.01  C 
ATOM      7  CG2 ILE C   9       6.223  21.909  44.358  1.00 27.59 LIG 0.01  C 
BRANCH 6 8
ATOM      8  CG1 ILE C   9       4.471  23.729  43.965  1.00 40.08 LIG 0.00  C 
ATOM      9  CD1 ILE C   9       3.496  22.670  43.514  1.00 35.68 LIG 0.01  C 
ENDBRANCH 6 8
ENDBRANCH 5 6
BRANCH 5 10
ATOM     10  C   ILE C   9       6.313  23.416  47.215  1.00 29.58 LIG 0.24  C 
ATOM     11  N   ILE C  10       7.155  22.428  47.501  1.00 24.64 LIG-0.34  N 
ATOM     12 H    ILE C  10       7.061  21.621  47.220  1.00 24.64 LIG 0.16  HD
ATOM     13 O    ILE C   9       6.459  24.563  47.637  1.00 37.49 LIG-0.27  OA
BRANCH 11 14
ATOM     14  CA  ILE C  10       8.332  22.642  48.332  1.00 23.95 LIG 0.19  C 
BRANCH 14 15
ATOM     15  CB  ILE C  10       8.498  21.543  49.413  1.00 22.27 LIG 0.01  C 
ATOM     16  CG2 ILE C  10       7.171  20.827  49.654  1.00 24.85 LIG 0.01  C 
BRANCH 15 17
ATOM     17  CG1 ILE C  10       9.591  20.547  49.018  1.00 32.35 LIG 0.00  C 
ATOM     18  CD1 ILE C  10      10.838  20.639  49.897  1.00 31.42 LIG 0.01  C 
ENDBRANCH 15 17
ENDBRANCH 14 15
BRANCH 14 19
ATOM     19  C   ILE C  10       9.588  22.654  47.475  1.00 24.88 LIG 0.20  C 
ATOM     20 OXT  ILE C  10      10.660  23.029  47.948  1.00 25.96 LIG-0.65  OA
ATOM     21 O    ILE C  10       9.553  22.272  46.307  1.00 20.25 LIG-0.65  OA
ENDBRANCH 14 19
ENDBRANCH 11 14
ENDBRANCH 5 10
ENDBRANCH 3 5
BRANCH 1 22
ATOM     22  CA  SER C   8       1.759  24.529  47.306  1.00 22.40 LIG 0.20  C 
BRANCH 22 23
ATOM     23  N   SER C   8       0.404  24.102  46.981  1.00 32.61 LIG-0.34  N 
ATOM     24 H    SER C   8      -0.152  24.038  47.635  1.00 32.61 LIG 0.16  HD
ATOM     25  C   ASP C   7       0.155  23.853  45.701  1.00 44.43 LIG 0.26  C 
ATOM     26 O    ASP C   7       0.928  24.154  44.812  1.00 41.29 LIG-0.27  OA
BRANCH 25 27
ATOM     27  CA  ASP C   7      -1.105  23.162  45.313  1.00 57.36 LIG 0.41  C 
ATOM     28  N   ASP C   7      -0.991  22.862  43.910  1.00 63.06 LIG 0.61  N 
BRANCH 27 29
ATOM     29  CB  ASP C   7      -1.216  21.855  46.059  1.00 56.13 LIG 0.16  C 
BRANCH 29 30
ATOM     30  CG  ASP C   7      -1.322  20.720  45.140  1.00 57.80 LIG 0.17  C 
ATOM     31 OD2  ASP C   7      -0.359  20.300  44.574  1.00 66.43 LIG-0.65  OA
ATOM     32 OD1  ASP C   7      -2.424  20.232  45.008  1.00 48.55 LIG-0.65  OA
ENDBRANCH 29 30
ENDBRANCH 27 29
ENDBRANCH 25 27
ENDBRANCH 22 23
BRANCH 22 33
ATOM     33  CB  SER C   8       1.859  24.811  48.799  1.00 17.52 LIG 0.20  C 
BRANCH 33 34
ATOM     34 OG   SER C   8       0.742  25.554  49.239  1.00 22.08 LIG-0.40  OA
ATOM     35 HG   SER C   8       0.458  26.032  48.609  1.00 22.08 LIG 0.21  HD
ENDBRANCH 33 34
ENDBRANCH 22 33
ENDBRANCH 1 22
TORSDOF 15
ENDMDL
MODEL 37
USER: ADFR SOLUTION from run 135
USER: SCORE 12.314038 LL:  -3.508 LR:  -9.068 RR:   0.000 FEB:  -4.593
USER: RMSD 3.789849
USER: SEED 134
USER: STATUS searching
USER: GENES 17
USER: genes 0 Translation |==|  0.45227 0.40606 0.39236
USER: genes 1 Rotation |==|  0.43593 0.56097 0.52502 0.99148
USER: genes 2 Torsion [C]-N--CA-[C] |==|  0.71404
USER: genes 3 Torsion [N]-CA--CB-[CG1] |==|  0.26898
USER: genes 4 Torsion [CA]-CB--CG1-[CD1] |==|  0.30987
USER: genes 5 Torsion [N]-CA--C-[N] |==|  0.45544
USER: genes 6 Torsion [C]-N--CA-[CB] |==|  0.28331
USER: genes 7 Torsion [N]-CA--CB-[CG2] |==|  0.63494
USER: genes 8 Torsion [CA]-CB--CG1-[CD1] |==|  0.73747
USER: genes 9 Torsion [N]-CA--C-[O] |==|  0.41229
USER: genes 10 Torsion [N]-C--CA-[N] |==|  0.06919
USER: genes 11 Torsion [C]-CA--N-[C] |==|  0.17280
USER: genes 12 Torsion [N]-C--CA-[N] |==|  0.81463
USER: genes 13 Torsion [C]-CA--CB-[CG] |==|  0.72698
USER: genes 14 Torsion [CA]-CB--CG-[OD2] |==|  0.22539
USER: genes 15 Torsion [C]-CA--CB-[OG] |==|  0.90299
USER: genes 16 Torsion [CA]-CB--OG-[HG] |==|  0.19255
ROOT
ATOM      1  C   SER C   8      -0.143  23.049  45.217  1.00 23.80 LIG 0.24  C 
ATOM      2 O    SER C   8       0.088  23.782  44.256  1.00 21.47 LIG-0.27  OA
ATOM      3  N   ILE C   9       0.489  23.158  46.384  1.00 23.49 LIG-0.35  N 
ATOM      4 H    ILE C   9       0.307  22.678  47.075  1.00 23.49 LIG 0.16  HD
ENDROOT
BRANCH 3 5
ATOM      5  CA  ILE C   9       1.565  24.123  46.589  1.00 20.80 LIG 0.18  C 
BRANCH 5 6
ATOM      6  CB  ILE C   9       1.460  24.811  47.960  1.00 28.93 LIG 0.01  C 
ATOM      7  CG2 ILE C   9      -0.008  24.890  48.414  1.00 27.59 LIG 0.01  C 
BRANCH 6 8
ATOM      8  CG1 ILE C   9       2.364  24.134  48.996  1.00 40.08 LIG 0.00  C 
ATOM      9  CD1 ILE C   9       3.537  24.966  49.453  1.00 35.68 LIG 0.01  C 
ENDBRANCH 6 8
ENDBRANCH 5 6
BRANCH 5 10
ATOM     10  C   ILE C   9       2.902  23.404  46.546  1.00 29.58 LIG 0.24  C 
ATOM     11  N   ILE C  10       3.982  24.162  46.386  1.00 24.64 LIG-0.34  N 
ATOM     12 H    ILE C  10       3.959  25.017  46.298  1.00 24.64 LIG 0.16  HD
ATOM     13 O    ILE C   9       2.955  22.179  46.659  1.00 37.49 LIG-0.27  OA
BRANCH 11 14
ATOM     14  CA  ILE C  10       5.320  23.588  46.347  1.00 23.95 LIG 0.19  C 
BRANCH 14 15
ATOM     15  CB  ILE C  10       5.875  23.481  44.903  1.00 22.27 LIG 0.01  C 
ATOM     16  CG2 ILE C  10       6.443  22.086  44.652  1.00 24.85 LIG 0.01  C 
BRANCH 15 17
ATOM     17  CG1 ILE C  10       4.794  23.824  43.875  1.00 32.35 LIG 0.00  C 
ATOM     18  CD1 ILE C  10       4.058  22.596  43.340  1.00 31.42 LIG 0.01  C 
ENDBRANCH 15 17
ENDBRANCH 14 15
BRANCH 14 19
ATOM     19  C   ILE C  10       6.283  24.440  47.160  1.00 24.88 LIG 0.20  C 
ATOM     20 OXT  ILE C  10       6.107  25.654  47.259  1.00 25.96 LIG-0.65  OA
ATOM     21 O    ILE C  10       7.236  23.927  47.742  1.00 20.25 LIG-0.65  OA
ENDBRANCH 14 19
ENDBRANCH 11 14
ENDBRANCH 5 10
ENDBRANCH 3 5
BRANCH 1 22
ATOM     22  CA  SER C   8      -1.182  21.939  45.117  1.00 22.40 LIG 0.20  C 
BRANCH 22 23
ATOM     23  N   SER C   8      -1.725  21.564  46.417  1.00 32.61 LIG-0.34  N 
ATOM     24 H    SER C   8      -1.589  20.756  46.678  1.00 32.61 LIG 0.16  HD
ATOM     25  C   ASP C   7      -2.380  22.510  47.078  1.00 44.43 LIG 0.26  C 
ATOM     26 O    ASP C   7      -2.363  23.679  46.739  1.00 41.29 LIG-0.27  OA
BRANCH 25 27
ATOM     27  CA  ASP C   7      -3.191  22.153  48.274  1.00 57.36 LIG 0.41  C 
ATOM     28  N   ASP C   7      -4.286  21.348  47.800  1.00 63.06 LIG 0.61  N 
BRANCH 27 29
ATOM     29  CB  ASP C   7      -2.364  21.306  49.211  1.00 56.13 LIG 0.16  C 
BRANCH 29 30
ATOM     30  CG  ASP C   7      -2.654  19.880  49.042  1.00 57.80 LIG 0.17  C 
ATOM     31 OD2  ASP C   7      -2.153  19.255  48.159  1.00 66.43 LIG-0.65  OA
ATOM     32 OD1  ASP C   7      -3.406  19.382  49.853  1.00 48.55 LIG-0.65  OA
ENDBRANCH 29 30
ENDBRANCH 27 29
ENDBRANCH 25 27
ENDBRANCH 22 23
BRANCH 22 33
ATOM     33  CB  SER C   8      -2.314  22.390  44.204  1.00 17.52 LIG 0.20  C 
BRANCH 33 34
ATOM     34 OG   SER C   8      -2.548  23.775  44.352  1.00 22.08 LIG-0.40  OA
ATOM     35 HG   SER C   8      -1.899  24.204  44.033  1.00 22.08 LIG 0.21  HD
ENDBRANCH 33 34
ENDBRANCH 22 33
ENDBRANCH 1 22
TORSDOF 15
ENDMDL
MODEL 38
USER: ADFR SOLUTION from run 4
USER: SCORE 12.485915 LL:  -3.499 LR:  -9.064 RR:   0.000 FEB:  -4.590
USER: RMSD 6.686647
USER: SEED 311602
USER: STATUS no improvement in best in 12 clusters for 5 generations
USER: GENES 17
USER: genes 0 Translation |==|  0.53976 0.38111 0.42695
USER: genes 1 Rotation |==|  0.13180 0.70874 0.34231 0.71447
USER: genes 2 Torsion [C]-N--CA-[C] |==|  0.71752
USER: genes 3 Torsion [N]-CA--CB-[CG1] |==|  0.26418
USER: genes 4 Torsion [CA]-CB--CG1-[CD1] |==|  0.76346
USER: genes 5 Torsion [N]-CA--C-[N] |==|  0.98896
USER: genes 6 Torsion [C]-N--CA-[CB] |==|  0.85978
USER: genes 7 Torsion [N]-CA--CB-[CG2] |==|  0.53184
USER: genes 8 Torsion [CA]-CB--CG1-[CD1] |==|  0.87656
USER: genes 9 Torsion [N]-CA--C-[O] |==|  0.95362
USER: genes 10 Torsion [N]-C--CA-[N] |==|  0.95879
USER: genes 11 Torsion [C]-CA--N-[C] |==|  0.80074
USER: genes 12 Torsion [N]-C--CA-[N] |==|  0.47627
USER: genes 13 Torsion [C]-CA--CB-[CG] |==|  0.56407
USER: genes 14 Torsion [CA]-CB--CG-[OD2] |==|  0.89621
USER: genes 15 Torsion [C]-CA--CB-[OG] |==|  0.00685
USER: genes 16 Torsion [CA]-CB--OG-[HG] |==|  0.46471
ROOT
ATOM      1  C   SER C   8       1.694  22.656  45.736  1.00 23.80 LIG 0.24  C 
ATOM      2 O    SER C   8       1.077  21.703  45.265  1.00 21.47 LIG-0.27  OA
ATOM      3  N   ILE C   9       2.970  22.910  45.452  1.00 23.49 LIG-0.35  N 
ATOM      4 H    ILE C   9       3.399  23.596  45.745  1.00 23.49 LIG 0.16  HD
ENDROOT
BRANCH 3 5
ATOM      5  CA  ILE C   9       3.760  22.023  44.603  1.00 20.80 LIG 0.18  C 
BRANCH 5 6
ATOM      6  CB  ILE C   9       4.669  22.813  43.646  1.00 28.93 LIG 0.01  C 
ATOM      7  CG2 ILE C   9       4.019  24.154  43.267  1.00 27.59 LIG 0.01  C 
BRANCH 6 8
ATOM      8  CG1 ILE C   9       6.078  22.979  44.224  1.00 40.08 LIG 0.00  C 
ATOM      9  CD1 ILE C   9       6.247  24.154  45.155  1.00 35.68 LIG 0.01  C 
ENDBRANCH 6 8
ENDBRANCH 5 6
BRANCH 5 10
ATOM     10  C   ILE C   9       4.659  21.161  45.472  1.00 29.58 LIG 0.24  C 
ATOM     11  N   ILE C  10       4.638  21.407  46.778  1.00 24.64 LIG-0.34  N 
ATOM     12 H    ILE C  10       4.160  22.021  47.143  1.00 24.64 LIG 0.16  HD
ATOM     13 O    ILE C   9       5.359  20.284  44.967  1.00 37.49 LIG-0.27  OA
BRANCH 11 14
ATOM     14  CA  ILE C  10       5.443  20.634  47.715  1.00 23.95 LIG 0.19  C 
BRANCH 14 15
ATOM     15  CB  ILE C  10       5.265  19.106  47.524  1.00 22.27 LIG 0.01  C 
ATOM     16  CG2 ILE C  10       5.893  18.346  48.690  1.00 24.85 LIG 0.01  C 
BRANCH 15 17
ATOM     17  CG1 ILE C  10       3.786  18.741  47.367  1.00 32.35 LIG 0.00  C 
ATOM     18  CD1 ILE C  10       2.880  19.451  48.372  1.00 31.42 LIG 0.01  C 
ENDBRANCH 15 17
ENDBRANCH 14 15
BRANCH 14 19
ATOM     19  C   ILE C  10       6.917  20.962  47.539  1.00 24.88 LIG 0.20  C 
ATOM     20 OXT  ILE C  10       7.732  20.647  48.404  1.00 25.96 LIG-0.65  OA
ATOM     21 O    ILE C  10       7.316  21.528  46.523  1.00 20.25 LIG-0.65  OA
ENDBRANCH 14 19
ENDBRANCH 11 14
ENDBRANCH 5 10
ENDBRANCH 3 5
BRANCH 1 22
ATOM     22  CA  SER C   8       1.019  23.616  46.709  1.00 22.40 LIG 0.20  C 
BRANCH 22 23
ATOM     23  N   SER C   8       1.977  24.447  47.427  1.00 32.61 LIG-0.34  N 
ATOM     24 H    SER C   8       2.010  25.279  47.211  1.00 32.61 LIG 0.16  HD
ATOM     25  C   ASP C   7       2.710  23.839  48.351  1.00 44.43 LIG 0.26  C 
ATOM     26 O    ASP C   7       2.472  22.710  48.738  1.00 41.29 LIG-0.27  OA
BRANCH 25 27
ATOM     27  CA  ASP C   7       3.887  24.534  48.940  1.00 57.36 LIG 0.41  C 
ATOM     28  N   ASP C   7       4.340  23.717  50.034  1.00 63.06 LIG 0.61  N 
BRANCH 27 29
ATOM     29  CB  ASP C   7       4.997  24.602  47.920  1.00 56.13 LIG 0.16  C 
BRANCH 29 30
ATOM     30  CG  ASP C   7       6.305  24.761  48.561  1.00 57.80 LIG 0.17  C 
ATOM     31 OD2  ASP C   7       6.431  25.440  49.533  1.00 66.43 LIG-0.65  OA
ATOM     32 OD1  ASP C   7       7.228  24.154  48.062  1.00 48.55 LIG-0.65  OA
ENDBRANCH 29 30
ENDBRANCH 27 29
ENDBRANCH 25 27
ENDBRANCH 22 23
BRANCH 22 33
ATOM     33  CB  SER C   8       0.047  24.505  45.944  1.00 17.52 LIG 0.20  C 
BRANCH 33 34
ATOM     34 OG   SER C   8       0.015  24.145  44.579  1.00 22.08 LIG-0.40  OA
ATOM     35 HG   SER C   8      -0.641  24.516  44.207  1.00 22.08 LIG 0.21  HD
ENDBRANCH 33 34
ENDBRANCH 22 33
ENDBRANCH 1 22
TORSDOF 15
ENDMDL
MODEL 39
USER: ADFR SOLUTION from run 3
USER: SCORE 11.829740 LL:  -3.201 LR:  -9.052 RR:   0.000 FEB:  -4.577
USER: RMSD 7.989929
USER: SEED 941695
USER: STATUS no improvement in best in 13 clusters for 5 generations
USER: GENES 17
USER: genes 0 Translation |==|  0.54704 0.43948 0.53592
USER: genes 1 Rotation |==|  0.07298 0.67712 0.58983 0.66797
USER: genes 2 Torsion [C]-N--CA-[C] |==|  0.14445
USER: genes 3 Torsion [N]-CA--CB-[CG1] |==|  0.89574
USER: genes 4 Torsion [CA]-CB--CG1-[CD1] |==|  0.56928
USER: genes 5 Torsion [N]-CA--C-[N] |==|  0.11111
USER: genes 6 Torsion [C]-N--CA-[CB] |==|  0.21095
USER: genes 7 Torsion [N]-CA--CB-[CG2] |==|  0.25294
USER: genes 8 Torsion [CA]-CB--CG1-[CD1] |==|  0.30615
USER: genes 9 Torsion [N]-CA--C-[O] |==|  0.47355
USER: genes 10 Torsion [N]-C--CA-[N] |==|  0.90511
USER: genes 11 Torsion [C]-CA--N-[C] |==|  0.66806
USER: genes 12 Torsion [N]-C--CA-[N] |==|  0.35229
USER: genes 13 Torsion [C]-CA--CB-[CG] |==|  0.23936
USER: genes 14 Torsion [CA]-CB--CG-[OD2] |==|  0.05859
USER: genes 15 Torsion [C]-CA--CB-[OG] |==|  0.64535
USER: genes 16 Torsion [CA]-CB--OG-[HG] |==|  0.34798
ROOT
ATOM      1  C   SER C   8       1.847  23.576  47.371  1.00 23.80 LIG 0.24  C 
ATOM      2 O    SER C   8       1.588  22.393  47.151  1.00 21.47 LIG-0.27  OA
ATOM      3  N   ILE C   9       2.167  24.441  46.411  1.00 23.49 LIG-0.35  N 
ATOM      4 H    ILE C   9       2.311  25.278  46.549  1.00 23.49 LIG 0.16  HD
ENDROOT
BRANCH 3 5
ATOM      5  CA  ILE C   9       2.303  24.029  45.017  1.00 20.80 LIG 0.18  C 
BRANCH 5 6
ATOM      6  CB  ILE C   9       3.500  23.085  44.816  1.00 28.93 LIG 0.01  C 
ATOM      7  CG2 ILE C   9       3.868  22.988  43.326  1.00 27.59 LIG 0.01  C 
BRANCH 6 8
ATOM      8  CG1 ILE C   9       4.687  23.493  45.695  1.00 40.08 LIG 0.00  C 
ATOM      9  CD1 ILE C   9       6.036  23.053  45.183  1.00 35.68 LIG 0.01  C 
ENDBRANCH 6 8
ENDBRANCH 5 6
BRANCH 5 10
ATOM     10  C   ILE C   9       1.055  23.274  44.592  1.00 29.58 LIG 0.24  C 
ATOM     11  N   ILE C  10      -0.106  23.747  45.031  1.00 24.64 LIG-0.34  N 
ATOM     12 H    ILE C  10      -0.182  24.436  45.540  1.00 24.64 LIG 0.16  HD
ATOM     13 O    ILE C   9       1.144  22.279  43.873  1.00 37.49 LIG-0.27  OA
BRANCH 11 14
ATOM     14  CA  ILE C  10      -1.372  23.119  44.676  1.00 23.95 LIG 0.19  C 
BRANCH 14 15
ATOM     15  CB  ILE C  10      -1.622  21.808  45.465  1.00 22.27 LIG 0.01  C 
ATOM     16  CG2 ILE C  10      -2.390  22.100  46.753  1.00 24.85 LIG 0.01  C 
BRANCH 15 17
ATOM     17  CG1 ILE C  10      -2.366  20.784  44.605  1.00 32.35 LIG 0.00  C 
ATOM     18  CD1 ILE C  10      -1.502  19.588  44.207  1.00 31.42 LIG 0.01  C 
ENDBRANCH 15 17
ENDBRANCH 14 15
BRANCH 14 19
ATOM     19  C   ILE C  10      -2.528  24.066  44.957  1.00 24.88 LIG 0.20  C 
ATOM     20 OXT  ILE C  10      -2.335  25.120  45.562  1.00 25.96 LIG-0.65  OA
ATOM     21 O    ILE C  10      -3.664  23.802  44.568  1.00 20.25 LIG-0.65  OA
ENDBRANCH 14 19
ENDBRANCH 11 14
ENDBRANCH 5 10
ENDBRANCH 3 5
BRANCH 1 22
ATOM     22  CA  SER C   8       1.830  24.125  48.793  1.00 22.40 LIG 0.20  C 
BRANCH 22 23
ATOM     23  N   SER C   8       2.847  25.147  49.007  1.00 32.61 LIG-0.34  N 
ATOM     24 H    SER C   8       2.797  25.854  48.519  1.00 32.61 LIG 0.16  HD
ATOM     25  C   ASP C   7       3.756  24.890  49.939  1.00 44.43 LIG 0.26  C 
ATOM     26 O    ASP C   7       3.649  23.964  50.721  1.00 41.29 LIG-0.27  OA
BRANCH 25 27
ATOM     27  CA  ASP C   7       4.973  25.740  50.041  1.00 57.36 LIG 0.41  C 
ATOM     28  N   ASP C   7       5.045  26.189  51.406  1.00 63.06 LIG 0.61  N 
BRANCH 27 29
ATOM     29  CB  ASP C   7       6.198  24.904  49.762  1.00 56.13 LIG 0.16  C 
BRANCH 29 30
ATOM     30  CG  ASP C   7       6.484  24.833  48.327  1.00 57.80 LIG 0.17  C 
ATOM     31 OD2  ASP C   7       6.053  25.654  47.577  1.00 66.43 LIG-0.65  OA
ATOM     32 OD1  ASP C   7       7.187  23.915  47.961  1.00 48.55 LIG-0.65  OA
ENDBRANCH 29 30
ENDBRANCH 27 29
ENDBRANCH 25 27
ENDBRANCH 22 23
BRANCH 22 33
ATOM     33  CB  SER C   8       0.454  24.704  49.091  1.00 17.52 LIG 0.20  C 
BRANCH 33 34
ATOM     34 OG   SER C   8       0.567  26.026  49.575  1.00 22.08 LIG-0.40  OA
ATOM     35 HG   SER C   8       0.098  26.539  49.103  1.00 22.08 LIG 0.21  HD
ENDBRANCH 33 34
ENDBRANCH 22 33
ENDBRANCH 1 22
TORSDOF 15
ENDMDL
MODEL 40
USER: ADFR SOLUTION from run 17
USER: SCORE 11.361438 LL:  -2.733 LR:  -9.001 RR:   0.000 FEB:  -4.526
USER: RMSD 5.809045
USER: SEED 16
USER: STATUS no improvement in best in 19 clusters for 5 generations
USER: GENES 17
USER: genes 0 Translation |==|  0.56824 0.42859 0.53306
USER: genes 1 Rotation |==|  0.07999 0.48042 0.25127 0.60649
USER: genes 2 Torsion [C]-N--CA-[C] |==|  0.64444
USER: genes 3 Torsion [N]-CA--CB-[CG1] |==|  0.40966
USER: genes 4 Torsion [CA]-CB--CG1-[CD1] |==|  0.32646
USER: genes 5 Torsion [N]-CA--C-[N] |==|  0.33025
USER: genes 6 Torsion [C]-N--CA-[CB] |==|  0.16327
USER: genes 7 Torsion [N]-CA--CB-[CG2] |==|  0.14602
USER: genes 8 Torsion [CA]-CB--CG1-[CD1] |==|  0.12963
USER: genes 9 Torsion [N]-CA--C-[O] |==|  0.42257
USER: genes 10 Torsion [N]-C--CA-[N] |==|  0.43885
USER: genes 11 Torsion [C]-CA--N-[C] |==|  0.69539
USER: genes 12 Torsion [N]-C--CA-[N] |==|  0.43193
USER: genes 13 Torsion [C]-CA--CB-[CG] |==|  0.49358
USER: genes 14 Torsion [CA]-CB--CG-[OD2] |==|  0.50505
USER: genes 15 Torsion [C]-CA--CB-[OG] |==|  0.07471
USER: genes 16 Torsion [CA]-CB--OG-[HG] |==|  0.13051
ROOT
ATOM      1  C   SER C   8       2.292  23.404  47.328  1.00 23.80 LIG 0.24  C 
ATOM      2 O    SER C   8       2.265  22.249  47.750  1.00 21.47 LIG-0.27  OA
ATOM      3  N   ILE C   9       3.420  24.092  47.161  1.00 23.49 LIG-0.35  N 
ATOM      4 H    ILE C   9       3.453  24.886  46.829  1.00 23.49 LIG 0.16  HD
ENDROOT
BRANCH 3 5
ATOM      5  CA  ILE C   9       4.719  23.542  47.535  1.00 20.80 LIG 0.18  C 
BRANCH 5 6
ATOM      6  CB  ILE C   9       5.609  23.296  46.305  1.00 28.93 LIG 0.01  C 
ATOM      7  CG2 ILE C   9       5.138  24.152  45.118  1.00 27.59 LIG 0.01  C 
BRANCH 6 8
ATOM      8  CG1 ILE C   9       7.091  23.506  46.637  1.00 40.08 LIG 0.00  C 
ATOM      9  CD1 ILE C   9       7.955  22.279  46.481  1.00 35.68 LIG 0.01  C 
ENDBRANCH 6 8
ENDBRANCH 5 6
BRANCH 5 10
ATOM     10  C   ILE C   9       5.447  24.532  48.429  1.00 29.58 LIG 0.24  C 
ATOM     11  N   ILE C  10       5.748  24.118  49.655  1.00 24.64 LIG-0.34  N 
ATOM     12 H    ILE C  10       5.547  23.340  49.962  1.00 24.64 LIG 0.16  HD
ATOM     13 O    ILE C   9       5.734  25.654  48.012  1.00 37.49 LIG-0.27  OA
BRANCH 11 14
ATOM     14  CA  ILE C  10       6.461  24.970  50.597  1.00 23.95 LIG 0.19  C 
BRANCH 14 15
ATOM     15  CB  ILE C  10       5.706  26.295  50.880  1.00 22.27 LIG 0.01  C 
ATOM     16  CG2 ILE C  10       4.265  26.010  51.297  1.00 24.85 LIG 0.01  C 
BRANCH 15 17
ATOM     17  CG1 ILE C  10       6.430  27.121  51.945  1.00 32.35 LIG 0.00  C 
ATOM     18  CD1 ILE C  10       7.936  27.230  51.706  1.00 31.42 LIG 0.01  C 
ENDBRANCH 15 17
ENDBRANCH 14 15
BRANCH 14 19
ATOM     19  C   ILE C  10       6.655  24.247  51.921  1.00 24.88 LIG 0.20  C 
ATOM     20 OXT  ILE C  10       5.868  23.369  52.270  1.00 25.96 LIG-0.65  OA
ATOM     21 O    ILE C  10       7.609  24.516  52.648  1.00 20.25 LIG-0.65  OA
ENDBRANCH 14 19
ENDBRANCH 11 14
ENDBRANCH 5 10
ENDBRANCH 3 5
BRANCH 1 22
ATOM     22  CA  SER C   8       1.001  24.135  46.979  1.00 22.40 LIG 0.20  C 
BRANCH 22 23
ATOM     23  N   SER C   8      -0.097  23.221  46.692  1.00 32.61 LIG-0.34  N 
ATOM     24 H    SER C   8      -0.421  22.780  47.356  1.00 32.61 LIG 0.16  HD
ATOM     25  C   ASP C   7      -0.496  23.156  45.428  1.00 44.43 LIG 0.26  C 
ATOM     26 O    ASP C   7      -0.127  23.949  44.582  1.00 41.29 LIG-0.27  OA
BRANCH 25 27
ATOM     27  CA  ASP C   7      -1.415  22.068  44.997  1.00 57.36 LIG 0.41  C 
ATOM     28  N   ASP C   7      -2.107  22.555  43.833  1.00 63.06 LIG 0.61  N 
BRANCH 27 29
ATOM     29  CB  ASP C   7      -0.611  20.859  44.586  1.00 56.13 LIG 0.16  C 
BRANCH 29 30
ATOM     30  CG  ASP C   7      -1.479  19.742  44.204  1.00 57.80 LIG 0.17  C 
ATOM     31 OD2  ASP C   7      -1.016  18.691  43.881  1.00 66.43 LIG-0.65  OA
ATOM     32 OD1  ASP C   7      -2.674  19.943  44.256  1.00 48.55 LIG-0.65  OA
ENDBRANCH 29 30
ENDBRANCH 27 29
ENDBRANCH 25 27
ENDBRANCH 22 23
BRANCH 22 33
ATOM     33  CB  SER C   8       0.614  25.049  48.134  1.00 17.52 LIG 0.20  C 
BRANCH 33 34
ATOM     34 OG   SER C   8       1.758  25.439  48.864  1.00 22.08 LIG-0.40  OA
ATOM     35 HG   SER C   8       2.359  25.687  48.331  1.00 22.08 LIG 0.21  HD
ENDBRANCH 33 34
ENDBRANCH 22 33
ENDBRANCH 1 22
TORSDOF 15
ENDMDL
MODEL 41
USER: ADFR SOLUTION from run 52
USER: SCORE 11.504195 LL:  -3.003 LR:  -8.994 RR:   0.000 FEB:  -4.519
USER: RMSD 6.479413
USER: SEED 51
USER: STATUS no improvement in best in 12 clusters for 5 generations
USER: GENES 17
USER: genes 0 Translation |==|  0.73205 0.51256 0.56032
USER: genes 1 Rotation |==|  0.62018 0.78861 0.29612 0.83270
USER: genes 2 Torsion [C]-N--CA-[C] |==|  0.74166
USER: genes 3 Torsion [N]-CA--CB-[CG1] |==|  0.95440
USER: genes 4 Torsion [CA]-CB--CG1-[CD1] |==|  0.53028
USER: genes 5 Torsion [N]-CA--C-[N] |==|  0.01666
USER: genes 6 Torsion [C]-N--CA-[CB] |==|  0.48070
USER: genes 7 Torsion [N]-CA--CB-[CG2] |==|  0.88873
USER: genes 8 Torsion [CA]-CB--CG1-[CD1] |==|  0.83388
USER: genes 9 Torsion [N]-CA--C-[O] |==|  0.97806
USER: genes 10 Torsion [N]-C--CA-[N] |==|  0.85579
USER: genes 11 Torsion [C]-CA--N-[C] |==|  0.64125
USER: genes 12 Torsion [N]-C--CA-[N] |==|  0.24712
USER: genes 13 Torsion [C]-CA--CB-[CG] |==|  0.35087
USER: genes 14 Torsion [CA]-CB--CG-[OD2] |==|  0.16107
USER: genes 15 Torsion [C]-CA--CB-[OG] |==|  0.10909
USER: genes 16 Torsion [CA]-CB--OG-[HG] |==|  0.15593
ROOT
ATOM      1  C   SER C   8       5.732  24.727  47.737  1.00 23.80 LIG 0.24  C 
ATOM      2 O    SER C   8       6.100  25.608  46.961  1.00 21.47 LIG-0.27  OA
ATOM      3  N   ILE C   9       6.246  23.498  47.740  1.00 23.49 LIG-0.35  N 
ATOM      4 H    ILE C   9       6.024  22.888  48.304  1.00 23.49 LIG 0.16  HD
ENDROOT
BRANCH 3 5
ATOM      5  CA  ILE C   9       7.249  23.082  46.765  1.00 20.80 LIG 0.18  C 
BRANCH 5 6
ATOM      6  CB  ILE C   9       8.219  22.043  47.354  1.00 28.93 LIG 0.01  C 
ATOM      7  CG2 ILE C   9       9.646  22.279  46.831  1.00 27.59 LIG 0.01  C 
BRANCH 6 8
ATOM      8  CG1 ILE C   9       8.146  22.016  48.885  1.00 40.08 LIG 0.00  C 
ATOM      9  CD1 ILE C   9       9.237  21.220  49.557  1.00 35.68 LIG 0.01  C 
ENDBRANCH 6 8
ENDBRANCH 5 6
BRANCH 5 10
ATOM     10  C   ILE C   9       6.559  22.433  45.578  1.00 29.58 LIG 0.24  C 
ATOM     11  N   ILE C  10       5.230  22.469  45.569  1.00 24.64 LIG-0.34  N 
ATOM     12 H    ILE C  10       4.756  22.823  46.192  1.00 24.64 LIG 0.16  HD
ATOM     13 O    ILE C   9       7.221  21.909  44.682  1.00 37.49 LIG-0.27  OA
BRANCH 11 14
ATOM     14  CA  ILE C  10       4.457  21.896  44.475  1.00 23.95 LIG 0.19  C 
BRANCH 14 15
ATOM     15  CB  ILE C  10       2.934  21.903  44.764  1.00 22.27 LIG 0.01  C 
ATOM     16  CG2 ILE C  10       2.666  21.540  46.223  1.00 24.85 LIG 0.01  C 
BRANCH 15 17
ATOM     17  CG1 ILE C  10       2.316  23.260  44.416  1.00 32.35 LIG 0.00  C 
ATOM     18  CD1 ILE C  10       2.922  24.419  45.206  1.00 31.42 LIG 0.01  C 
ENDBRANCH 15 17
ENDBRANCH 14 15
BRANCH 14 19
ATOM     19  C   ILE C  10       4.697  22.678  43.193  1.00 24.88 LIG 0.20  C 
ATOM     20 OXT  ILE C  10       4.234  22.279  42.125  1.00 25.96 LIG-0.65  OA
ATOM     21 O    ILE C  10       5.339  23.726  43.209  1.00 20.25 LIG-0.65  OA
ENDBRANCH 14 19
ENDBRANCH 11 14
ENDBRANCH 5 10
ENDBRANCH 3 5
BRANCH 1 22
ATOM     22  CA  SER C   8       4.628  24.996  48.753  1.00 22.40 LIG 0.20  C 
BRANCH 22 23
ATOM     23  N   SER C   8       3.559  24.007  48.690  1.00 32.61 LIG-0.34  N 
ATOM     24 H    SER C   8       3.793  23.179  48.715  1.00 32.61 LIG 0.16  HD
ATOM     25  C   ASP C   7       2.323  24.479  48.599  1.00 44.43 LIG 0.26  C 
ATOM     26 O    ASP C   7       2.055  25.654  48.767  1.00 41.29 LIG-0.27  OA
BRANCH 25 27
ATOM     27  CA  ASP C   7       1.202  23.560  48.262  1.00 57.36 LIG 0.41  C 
ATOM     28  N   ASP C   7       0.715  23.034  49.510  1.00 63.06 LIG 0.61  N 
BRANCH 27 29
ATOM     29  CB  ASP C   7       0.082  24.341  47.619  1.00 56.13 LIG 0.16  C 
BRANCH 29 30
ATOM     30  CG  ASP C   7      -0.304  23.763  46.330  1.00 57.80 LIG 0.17  C 
ATOM     31 OD2  ASP C   7      -0.671  22.630  46.254  1.00 66.43 LIG-0.65  OA
ATOM     32 OD1  ASP C   7      -0.247  24.499  45.368  1.00 48.55 LIG-0.65  OA
ENDBRANCH 29 30
ENDBRANCH 27 29
ENDBRANCH 25 27
ENDBRANCH 22 23
BRANCH 22 33
ATOM     33  CB  SER C   8       5.226  25.011  50.153  1.00 17.52 LIG 0.20  C 
BRANCH 33 34
ATOM     34 OG   SER C   8       6.485  25.650  50.147  1.00 22.08 LIG-0.40  OA
ATOM     35 HG   SER C   8       6.405  26.424  49.831  1.00 22.08 LIG 0.21  HD
ENDBRANCH 33 34
ENDBRANCH 22 33
ENDBRANCH 1 22
TORSDOF 15
ENDMDL
MODEL 42
USER: ADFR SOLUTION from run 12
USER: SCORE 11.663487 LL:  -2.832 LR:  -8.968 RR:   0.000 FEB:  -4.493
USER: RMSD 3.167468
USER: SEED 646170
USER: STATUS no improvement in best in 10 clusters for 5 generations
USER: GENES 17
USER: genes 0 Translation |==|  0.44619 0.42225 0.40350
USER: genes 1 Rotation |==|  0.48599 0.56555 0.49108 0.99541
USER: genes 2 Torsion [C]-N--CA-[C] |==|  0.80068
USER: genes 3 Torsion [N]-CA--CB-[CG1] |==|  0.60319
USER: genes 4 Torsion [CA]-CB--CG1-[CD1] |==|  0.71682
USER: genes 5 Torsion [N]-CA--C-[N] |==|  0.42178
USER: genes 6 Torsion [C]-N--CA-[CB] |==|  0.82593
USER: genes 7 Torsion [N]-CA--CB-[CG2] |==|  0.48963
USER: genes 8 Torsion [CA]-CB--CG1-[CD1] |==|  0.61507
USER: genes 9 Torsion [N]-CA--C-[O] |==|  0.23638
USER: genes 10 Torsion [N]-C--CA-[N] |==|  0.44686
USER: genes 11 Torsion [C]-CA--N-[C] |==|  0.59514
USER: genes 12 Torsion [N]-C--CA-[N] |==|  0.87123
USER: genes 13 Torsion [C]-CA--CB-[CG] |==|  0.51944
USER: genes 14 Torsion [CA]-CB--CG-[OD2] |==|  0.94805
USER: genes 15 Torsion [C]-CA--CB-[OG] |==|  0.57363
USER: genes 16 Torsion [CA]-CB--OG-[HG] |==|  0.19735
ROOT
ATOM      1  C   SER C   8      -0.271  23.305  45.385  1.00 23.80 LIG 0.24  C 
ATOM      2 O    SER C   8       0.080  24.152  44.565  1.00 21.47 LIG-0.27  OA
ATOM      3  N   ILE C   9       0.364  23.099  46.537  1.00 23.49 LIG-0.35  N 
ATOM      4 H    ILE C   9       0.103  22.537  47.134  1.00 23.49 LIG 0.16  HD
ENDROOT
BRANCH 3 5
ATOM      5  CA  ILE C   9       1.580  23.827  46.886  1.00 20.80 LIG 0.18  C 
BRANCH 5 6
ATOM      6  CB  ILE C   9       1.974  23.605  48.356  1.00 28.93 LIG 0.01  C 
ATOM      7  CG2 ILE C   9       2.924  22.403  48.485  1.00 27.59 LIG 0.01  C 
BRANCH 6 8
ATOM      8  CG1 ILE C   9       2.546  24.883  48.980  1.00 40.08 LIG 0.00  C 
ATOM      9  CD1 ILE C   9       4.050  24.911  49.099  1.00 35.68 LIG 0.01  C 
ENDBRANCH 6 8
ENDBRANCH 5 6
BRANCH 5 10
ATOM     10  C   ILE C   9       2.730  23.327  46.030  1.00 29.58 LIG 0.24  C 
ATOM     11  N   ILE C  10       3.707  24.193  45.779  1.00 24.64 LIG-0.34  N 
ATOM     12 H    ILE C  10       3.713  25.005  46.063  1.00 24.64 LIG 0.16  HD
ATOM     13 O    ILE C   9       2.734  22.172  45.604  1.00 37.49 LIG-0.27  OA
BRANCH 11 14
ATOM     14  CA  ILE C  10       4.871  23.825  44.985  1.00 23.95 LIG 0.19  C 
BRANCH 14 15
ATOM     15  CB  ILE C  10       5.701  22.694  45.646  1.00 22.27 LIG 0.01  C 
ATOM     16  CG2 ILE C  10       6.856  22.279  44.736  1.00 24.85 LIG 0.01  C 
BRANCH 15 17
ATOM     17  CG1 ILE C  10       6.217  23.125  47.021  1.00 32.35 LIG 0.00  C 
ATOM     18  CD1 ILE C  10       7.660  22.695  47.287  1.00 31.42 LIG 0.01  C 
ENDBRANCH 15 17
ENDBRANCH 14 15
BRANCH 14 19
ATOM     19  C   ILE C  10       4.440  23.349  43.607  1.00 24.88 LIG 0.20  C 
ATOM     20 OXT  ILE C  10       4.265  22.150  43.389  1.00 25.96 LIG-0.65  OA
ATOM     21 O    ILE C  10       4.241  24.154  42.699  1.00 20.25 LIG-0.65  OA
ENDBRANCH 14 19
ENDBRANCH 11 14
ENDBRANCH 5 10
ENDBRANCH 3 5
BRANCH 1 22
ATOM     22  CA  SER C   8      -1.474  22.410  45.111  1.00 22.40 LIG 0.20  C 
BRANCH 22 23
ATOM     23  N   SER C   8      -2.360  22.963  44.094  1.00 32.61 LIG-0.34  N 
ATOM     24 H    SER C   8      -1.991  23.406  43.455  1.00 32.61 LIG 0.16  HD
ATOM     25  C   ASP C   7      -3.657  22.728  44.250  1.00 44.43 LIG 0.26  C 
ATOM     26 O    ASP C   7      -4.086  21.931  45.063  1.00 41.29 LIG-0.27  OA
BRANCH 25 27
ATOM     27  CA  ASP C   7      -4.648  23.469  43.423  1.00 57.36 LIG 0.41  C 
ATOM     28  N   ASP C   7      -4.257  24.854  43.459  1.00 63.06 LIG 0.61  N 
BRANCH 27 29
ATOM     29  CB  ASP C   7      -4.564  23.000  41.991  1.00 56.13 LIG 0.16  C 
BRANCH 29 30
ATOM     30  CG  ASP C   7      -5.404  23.816  41.110  1.00 57.80 LIG 0.17  C 
ATOM     31 OD2  ASP C   7      -6.284  24.488  41.554  1.00 66.43 LIG-0.65  OA
ATOM     32 OD1  ASP C   7      -5.141  23.779  39.927  1.00 48.55 LIG-0.65  OA
ENDBRANCH 29 30
ENDBRANCH 27 29
ENDBRANCH 25 27
ENDBRANCH 22 23
BRANCH 22 33
ATOM     33  CB  SER C   8      -0.989  21.035  44.670  1.00 17.52 LIG 0.20  C 
BRANCH 33 34
ATOM     34 OG   SER C   8      -1.957  20.404  43.859  1.00 22.08 LIG-0.40  OA
ATOM     35 HG   SER C   8      -1.991  20.789  43.113  1.00 22.08 LIG 0.21  HD
ENDBRANCH 33 34
ENDBRANCH 22 33
ENDBRANCH 1 22
TORSDOF 15
ENDMDL
MODEL 43
USER: ADFR SOLUTION from run 14
USER: SCORE 12.216475 LL:  -3.360 LR:  -8.965 RR:   0.000 FEB:  -4.490
USER: RMSD 2.359432
USER: SEED 104274
USER: STATUS no improvement in best in 7 clusters for 5 generations
USER: GENES 17
USER: genes 0 Translation |==|  0.47911 0.43401 0.43264
USER: genes 1 Rotation |==|  0.37889 0.48415 0.43624 0.98064
USER: genes 2 Torsion [C]-N--CA-[C] |==|  0.80556
USER: genes 3 Torsion [N]-CA--CB-[CG1] |==|  0.33256
USER: genes 4 Torsion [CA]-CB--CG1-[CD1] |==|  0.30320
USER: genes 5 Torsion [N]-CA--C-[N] |==|  0.40342
USER: genes 6 Torsion [C]-N--CA-[CB] |==|  0.31012
USER: genes 7 Torsion [N]-CA--CB-[CG2] |==|  0.62626
USER: genes 8 Torsion [CA]-CB--CG1-[CD1] |==|  0.65350
USER: genes 9 Torsion [N]-CA--C-[O] |==|  0.95497
USER: genes 10 Torsion [N]-C--CA-[N] |==|  0.14253
USER: genes 11 Torsion [C]-CA--N-[C] |==|  0.14932
USER: genes 12 Torsion [N]-C--CA-[N] |==|  0.79289
USER: genes 13 Torsion [C]-CA--CB-[CG] |==|  0.73310
USER: genes 14 Torsion [CA]-CB--CG-[OD2] |==|  0.76539
USER: genes 15 Torsion [C]-CA--CB-[OG] |==|  0.62566
USER: genes 16 Torsion [CA]-CB--OG-[HG] |==|  0.28026
ROOT
ATOM      1  C   SER C   8       0.420  23.490  45.822  1.00 23.80 LIG 0.24  C 
ATOM      2 O    SER C   8       1.153  23.830  44.894  1.00 21.47 LIG-0.27  OA
ATOM      3  N   ILE C   9       0.666  23.797  47.094  1.00 23.49 LIG-0.35  N 
ATOM      4 H    ILE C   9       0.140  23.598  47.745  1.00 23.49 LIG 0.16  HD
ENDROOT
BRANCH 3 5
ATOM      5  CA  ILE C   9       1.875  24.511  47.493  1.00 20.80 LIG 0.18  C 
BRANCH 5 6
ATOM      6  CB  ILE C   9       1.826  24.932  48.971  1.00 28.93 LIG 0.01  C 
ATOM      7  CG2 ILE C   9       0.446  24.622  49.576  1.00 27.59 LIG 0.01  C 
BRANCH 6 8
ATOM      8  CG1 ILE C   9       2.976  24.307  49.768  1.00 40.08 LIG 0.00  C 
ATOM      9  CD1 ILE C   9       4.047  25.277  50.204  1.00 35.68 LIG 0.01  C 
ENDBRANCH 6 8
ENDBRANCH 5 6
BRANCH 5 10
ATOM     10  C   ILE C   9       3.078  23.600  47.322  1.00 29.58 LIG 0.24  C 
ATOM     11  N   ILE C  10       4.213  24.177  46.941  1.00 24.64 LIG-0.34  N 
ATOM     12 H    ILE C  10       4.294  25.018  46.781  1.00 24.64 LIG 0.16  HD
ATOM     13 O    ILE C   9       2.981  22.392  47.535  1.00 37.49 LIG-0.27  OA
BRANCH 11 14
ATOM     14  CA  ILE C  10       5.439  23.411  46.761  1.00 23.95 LIG 0.19  C 
BRANCH 14 15
ATOM     15  CB  ILE C  10       5.871  23.330  45.274  1.00 22.27 LIG 0.01  C 
ATOM     16  CG2 ILE C  10       6.268  21.900  44.911  1.00 24.85 LIG 0.01  C 
BRANCH 15 17
ATOM     17  CG1 ILE C  10       4.760  23.838  44.352  1.00 32.35 LIG 0.00  C 
ATOM     18  CD1 ILE C  10       4.350  22.825  43.284  1.00 31.42 LIG 0.01  C 
ENDBRANCH 15 17
ENDBRANCH 14 15
BRANCH 14 19
ATOM     19  C   ILE C  10       6.577  24.042  47.548  1.00 24.88 LIG 0.20  C 
ATOM     20 OXT  ILE C  10       7.612  23.412  47.759  1.00 25.96 LIG-0.65  OA
ATOM     21 O    ILE C  10       6.485  25.195  47.966  1.00 20.25 LIG-0.65  OA
ENDBRANCH 14 19
ENDBRANCH 11 14
ENDBRANCH 5 10
ENDBRANCH 3 5
BRANCH 1 22
ATOM     22  CA  SER C   8      -0.833  22.663  45.560  1.00 22.40 LIG 0.20  C 
BRANCH 22 23
ATOM     23  N   SER C   8      -2.019  23.235  46.185  1.00 32.61 LIG-0.34  N 
ATOM     24 H    SER C   8      -2.476  22.719  46.700  1.00 32.61 LIG 0.16  HD
ATOM     25  C   ASP C   7      -2.282  24.504  45.900  1.00 44.43 LIG 0.26  C 
ATOM     26 O    ASP C   7      -1.488  25.226  45.326  1.00 41.29 LIG-0.27  OA
BRANCH 25 27
ATOM     27  CA  ASP C   7      -3.600  25.089  46.270  1.00 57.36 LIG 0.41  C 
ATOM     28  N   ASP C   7      -4.558  24.560  45.335  1.00 63.06 LIG 0.61  N 
BRANCH 27 29
ATOM     29  CB  ASP C   7      -3.992  24.621  47.650  1.00 56.13 LIG 0.16  C 
BRANCH 29 30
ATOM     30  CG  ASP C   7      -4.881  23.458  47.590  1.00 57.80 LIG 0.17  C 
ATOM     31 OD2  ASP C   7      -6.057  23.595  47.447  1.00 66.43 LIG-0.65  OA
ATOM     32 OD1  ASP C   7      -4.353  22.370  47.675  1.00 48.55 LIG-0.65  OA
ENDBRANCH 29 30
ENDBRANCH 27 29
ENDBRANCH 25 27
ENDBRANCH 22 23
BRANCH 22 33
ATOM     33  CB  SER C   8      -1.055  22.547  44.058  1.00 17.52 LIG 0.20  C 
BRANCH 33 34
ATOM     34 OG   SER C   8      -2.410  22.781  43.738  1.00 22.08 LIG-0.40  OA
ATOM     35 HG   SER C   8      -2.499  23.565  43.449  1.00 22.08 LIG 0.21  HD
ENDBRANCH 33 34
ENDBRANCH 22 33
ENDBRANCH 1 22
TORSDOF 15
ENDMDL
MODEL 44
USER: ADFR SOLUTION from run 95
USER: SCORE 12.205951 LL:  -3.462 LR:  -8.939 RR:   0.000 FEB:  -4.465
USER: RMSD 8.444984
USER: SEED 94
USER: STATUS no improvement in best in 8 clusters for 5 generations
USER: GENES 17
USER: genes 0 Translation |==|  0.59923 0.40630 0.31724
USER: genes 1 Rotation |==|  0.70212 0.54036 0.04471 0.51503
USER: genes 2 Torsion [C]-N--CA-[C] |==|  0.61027
USER: genes 3 Torsion [N]-CA--CB-[CG1] |==|  0.52497
USER: genes 4 Torsion [CA]-CB--CG1-[CD1] |==|  0.41356
USER: genes 5 Torsion [N]-CA--C-[N] |==|  0.47123
USER: genes 6 Torsion [C]-N--CA-[CB] |==|  0.45208
USER: genes 7 Torsion [N]-CA--CB-[CG2] |==|  0.27527
USER: genes 8 Torsion [CA]-CB--CG1-[CD1] |==|  0.40593
USER: genes 9 Torsion [N]-CA--C-[O] |==|  0.94389
USER: genes 10 Torsion [N]-C--CA-[N] |==|  0.11690
USER: genes 11 Torsion [C]-CA--N-[C] |==|  0.16111
USER: genes 12 Torsion [N]-C--CA-[N] |==|  0.68555
USER: genes 13 Torsion [C]-CA--CB-[CG] |==|  0.75564
USER: genes 14 Torsion [CA]-CB--CG-[OD2] |==|  0.22211
USER: genes 15 Torsion [C]-CA--CB-[OG] |==|  0.57537
USER: genes 16 Torsion [CA]-CB--OG-[HG] |==|  0.98142
ROOT
ATOM      1  C   SER C   8       2.943  23.053  44.091  1.00 23.80 LIG 0.24  C 
ATOM      2 O    SER C   8       3.185  22.279  43.165  1.00 21.47 LIG-0.27  OA
ATOM      3  N   ILE C   9       1.769  23.093  44.718  1.00 23.49 LIG-0.35  N 
ATOM      4 H    ILE C   9       1.603  23.602  45.392  1.00 23.49 LIG 0.16  HD
ENDROOT
BRANCH 3 5
ATOM      5  CA  ILE C   9       0.646  22.257  44.304  1.00 20.80 LIG 0.18  C 
BRANCH 5 6
ATOM      6  CB  ILE C   9       0.487  21.026  45.213  1.00 28.93 LIG 0.01  C 
ATOM      7  CG2 ILE C   9       0.169  21.458  46.655  1.00 27.59 LIG 0.01  C 
BRANCH 6 8
ATOM      8  CG1 ILE C   9      -0.544  20.044  44.648  1.00 40.08 LIG 0.00  C 
ATOM      9  CD1 ILE C   9      -0.279  18.593  44.969  1.00 35.68 LIG 0.01  C 
ENDBRANCH 6 8
ENDBRANCH 5 6
BRANCH 5 10
ATOM     10  C   ILE C   9      -0.640  23.058  44.399  1.00 29.58 LIG 0.24  C 
ATOM     11  N   ILE C  10      -1.724  22.512  43.857  1.00 24.64 LIG-0.34  N 
ATOM     12 H    ILE C  10      -1.728  21.750  43.457  1.00 24.64 LIG 0.16  HD
ATOM     13 O    ILE C   9      -0.652  24.155  44.957  1.00 37.49 LIG-0.27  OA
BRANCH 11 14
ATOM     14  CA  ILE C  10      -3.019  23.176  43.900  1.00 23.95 LIG 0.19  C 
BRANCH 14 15
ATOM     15  CB  ILE C  10      -4.017  22.591  42.868  1.00 22.27 LIG 0.01  C 
ATOM     16  CG2 ILE C  10      -4.965  21.602  43.544  1.00 24.85 LIG 0.01  C 
BRANCH 15 17
ATOM     17  CG1 ILE C  10      -4.799  23.705  42.168  1.00 32.35 LIG 0.00  C 
ATOM     18  CD1 ILE C  10      -5.131  23.386  40.711  1.00 31.42 LIG 0.01  C 
ENDBRANCH 15 17
ENDBRANCH 14 15
BRANCH 14 19
ATOM     19  C   ILE C  10      -3.637  23.038  45.283  1.00 24.88 LIG 0.20  C 
ATOM     20 OXT  ILE C  10      -4.535  23.799  45.642  1.00 25.96 LIG-0.65  OA
ATOM     21 O    ILE C  10      -3.262  22.154  46.051  1.00 20.25 LIG-0.65  OA
ENDBRANCH 14 19
ENDBRANCH 11 14
ENDBRANCH 5 10
ENDBRANCH 3 5
BRANCH 1 22
ATOM     22  CA  SER C   8       3.996  24.045  44.571  1.00 22.40 LIG 0.20  C 
BRANCH 22 23
ATOM     23  N   SER C   8       4.037  24.154  46.024  1.00 32.61 LIG-0.34  N 
ATOM     24 H    SER C   8       3.907  24.936  46.359  1.00 32.61 LIG 0.16  HD
ATOM     25  C   ASP C   7       4.273  23.033  46.693  1.00 44.43 LIG 0.26  C 
ATOM     26 O    ASP C   7       4.251  21.937  46.165  1.00 41.29 LIG-0.27  OA
BRANCH 25 27
ATOM     27  CA  ASP C   7       4.598  23.091  48.144  1.00 57.36 LIG 0.41  C 
ATOM     28  N   ASP C   7       5.964  22.657  48.275  1.00 63.06 LIG 0.61  N 
BRANCH 27 29
ATOM     29  CB  ASP C   7       4.517  24.519  48.624  1.00 56.13 LIG 0.16  C 
BRANCH 29 30
ATOM     30  CG  ASP C   7       5.793  25.218  48.448  1.00 57.80 LIG 0.17  C 
ATOM     31 OD2  ASP C   7       6.109  25.654  47.384  1.00 66.43 LIG-0.65  OA
ATOM     32 OD1  ASP C   7       6.484  25.338  49.437  1.00 48.55 LIG-0.65  OA
ENDBRANCH 29 30
ENDBRANCH 27 29
ENDBRANCH 25 27
ENDBRANCH 22 23
BRANCH 22 33
ATOM     33  CB  SER C   8       5.362  23.618  44.053  1.00 17.52 LIG 0.20  C 
BRANCH 33 34
ATOM     34 OG   SER C   8       6.384  24.075  44.914  1.00 22.08 LIG-0.40  OA
ATOM     35 HG   SER C   8       6.052  24.575  45.501  1.00 22.08 LIG 0.21  HD
ENDBRANCH 33 34
ENDBRANCH 22 33
ENDBRANCH 1 22
TORSDOF 15
ENDMDL
MODEL 45
USER: ADFR SOLUTION from run 187
USER: SCORE 12.083876 LL:  -3.275 LR:  -8.893 RR:   0.000 FEB:  -4.419
USER: RMSD 4.897291
USER: SEED 186
USER: STATUS no improvement in best in 11 clusters for 5 generations
USER: GENES 17
USER: genes 0 Translation |==|  0.62361 0.50371 0.64787
USER: genes 1 Rotation |==|  0.09135 0.40664 0.25485 0.61913
USER: genes 2 Torsion [C]-N--CA-[C] |==|  0.14444
USER: genes 3 Torsion [N]-CA--CB-[CG1] |==|  0.94488
USER: genes 4 Torsion [CA]-CB--CG1-[CD1] |==|  0.35988
USER: genes 5 Torsion [N]-CA--C-[N] |==|  0.13848
USER: genes 6 Torsion [C]-N--CA-[CB] |==|  0.47429
USER: genes 7 Torsion [N]-CA--CB-[CG2] |==|  0.70090
USER: genes 8 Torsion [CA]-CB--CG1-[CD1] |==|  0.53896
USER: genes 9 Torsion [N]-CA--C-[O] |==|  0.11962
USER: genes 10 Torsion [N]-C--CA-[N] |==|  0.36866
USER: genes 11 Torsion [C]-CA--N-[C] |==|  0.83237
USER: genes 12 Torsion [N]-C--CA-[N] |==|  0.01167
USER: genes 13 Torsion [C]-CA--CB-[CG] |==|  0.77757
USER: genes 14 Torsion [CA]-CB--CG-[OD2] |==|  0.24302
USER: genes 15 Torsion [C]-CA--CB-[OG] |==|  0.50104
USER: genes 16 Torsion [CA]-CB--OG-[HG] |==|  0.85853
ROOT
ATOM      1  C   SER C   8       3.455  24.587  49.050  1.00 23.80 LIG 0.24  C 
ATOM      2 O    SER C   8       3.707  23.510  49.588  1.00 21.47 LIG-0.27  OA
ATOM      3  N   ILE C   9       4.363  25.545  48.877  1.00 23.49 LIG-0.35  N 
ATOM      4 H    ILE C   9       4.208  26.285  48.467  1.00 23.49 LIG 0.16  HD
ENDROOT
BRANCH 3 5
ATOM      5  CA  ILE C   9       5.727  25.412  49.381  1.00 20.80 LIG 0.18  C 
BRANCH 5 6
ATOM      6  CB  ILE C   9       5.768  25.399  50.918  1.00 28.93 LIG 0.01  C 
ATOM      7  CG2 ILE C   9       7.047  26.082  51.431  1.00 27.59 LIG 0.01  C 
BRANCH 6 8
ATOM      8  CG1 ILE C   9       4.493  26.005  51.515  1.00 40.08 LIG 0.00  C 
ATOM      9  CD1 ILE C   9       3.823  25.158  52.570  1.00 35.68 LIG 0.01  C 
ENDBRANCH 6 8
ENDBRANCH 5 6
BRANCH 5 10
ATOM     10  C   ILE C   9       6.314  24.095  48.902  1.00 29.58 LIG 0.24  C 
ATOM     11  N   ILE C  10       6.206  23.831  47.604  1.00 24.64 LIG-0.34  N 
ATOM     12 H    ILE C  10       5.820  24.352  47.039  1.00 24.64 LIG 0.16  HD
ATOM     13 O    ILE C   9       6.861  23.331  49.698  1.00 37.49 LIG-0.27  OA
BRANCH 11 14
ATOM     14  CA  ILE C  10       6.746  22.609  47.025  1.00 23.95 LIG 0.19  C 
BRANCH 14 15
ATOM     15  CB  ILE C  10       6.304  22.410  45.552  1.00 22.27 LIG 0.01  C 
ATOM     16  CG2 ILE C  10       5.277  21.283  45.451  1.00 24.85 LIG 0.01  C 
BRANCH 15 17
ATOM     17  CG1 ILE C  10       5.748  23.710  44.966  1.00 32.35 LIG 0.00  C 
ATOM     18  CD1 ILE C  10       4.990  23.506  43.654  1.00 31.42 LIG 0.01  C 
ENDBRANCH 15 17
ENDBRANCH 14 15
BRANCH 14 19
ATOM     19  C   ILE C  10       8.266  22.634  47.061  1.00 24.88 LIG 0.20  C 
ATOM     20 OXT  ILE C  10       8.918  22.279  46.079  1.00 25.96 LIG-0.65  OA
ATOM     21 O    ILE C  10       8.863  23.028  48.061  1.00 20.25 LIG-0.65  OA
ENDBRANCH 14 19
ENDBRANCH 11 14
ENDBRANCH 5 10
ENDBRANCH 3 5
BRANCH 1 22
ATOM     22  CA  SER C   8       2.048  24.899  48.554  1.00 22.40 LIG 0.20  C 
BRANCH 22 23
ATOM     23  N   SER C   8       1.482  23.811  47.765  1.00 32.61 LIG-0.34  N 
ATOM     24 H    SER C   8       0.757  23.453  48.059  1.00 32.61 LIG 0.16  HD
ATOM     25  C   ASP C   7       2.141  23.477  46.663  1.00 44.43 LIG 0.26  C 
ATOM     26 O    ASP C   7       3.043  24.154  46.207  1.00 41.29 LIG-0.27  OA
BRANCH 25 27
ATOM     27  CA  ASP C   7       1.795  22.219  45.946  1.00 57.36 LIG 0.41  C 
ATOM     28  N   ASP C   7       0.661  21.656  46.631  1.00 63.06 LIG 0.61  N 
BRANCH 27 29
ATOM     29  CB  ASP C   7       1.371  22.541  44.534  1.00 56.13 LIG 0.16  C 
BRANCH 29 30
ATOM     30  CG  ASP C   7      -0.019  23.001  44.483  1.00 57.80 LIG 0.17  C 
ATOM     31 OD2  ASP C   7      -0.287  24.153  44.632  1.00 66.43 LIG-0.65  OA
ATOM     32 OD1  ASP C   7      -0.861  22.155  44.265  1.00 48.55 LIG-0.65  OA
ENDBRANCH 29 30
ENDBRANCH 27 29
ENDBRANCH 25 27
ENDBRANCH 22 23
BRANCH 22 33
ATOM     33  CB  SER C   8       1.146  25.185  49.747  1.00 17.52 LIG 0.20  C 
BRANCH 33 34
ATOM     34 OG   SER C   8      -0.169  25.468  49.318  1.00 22.08 LIG-0.40  OA
ATOM     35 HG   SER C   8      -0.148  26.060  48.721  1.00 22.08 LIG 0.21  HD
ENDBRANCH 33 34
ENDBRANCH 22 33
ENDBRANCH 1 22
TORSDOF 15
ENDMDL
