MODEL 1
USER: ADFR SOLUTION from run 168
USER: SCORE 22.518266 LL:  -5.131 LR: -18.849 RR:   0.000 FEB: -10.497
USER: RMSD 14.950034
USER: SEED 167
USER: STATUS searching
USER: GENES 30
USER: genes 0 Translation |==|  0.29757 0.46433 0.32735
USER: genes 1 Rotation |==|  0.30759 0.19235 0.77767 0.70305
USER: genes 2 Torsion [N]-CA--C-[N] |==|  0.12515
USER: genes 3 Torsion [C]-N--CA-[CB] |==|  0.20000
USER: genes 4 Torsion [N]-CA--CB-[CG2] |==|  0.53810
USER: genes 5 Torsion [CA]-CB--OG1-[HG1] |==|  0.23447
USER: genes 6 Torsion [N]-CA--C-[N] |==|  0.20851
USER: genes 7 Torsion [C]-N--CA-[C] |==|  0.80563
USER: genes 8 Torsion [N]-CA--C-[N] |==|  0.95478
USER: genes 9 Torsion [C]-N--CA-[CB] |==|  0.28318
USER: genes 10 Torsion [N]-CA--CB-[CG] |==|  0.91460
USER: genes 11 Torsion [CA]-CB--CG-[CD1] |==|  0.44712
USER: genes 12 Torsion [N]-CA--C-[OXT] |==|  0.62247
USER: genes 13 Torsion [N]-CA--CB-[CG] |==|  0.77886
USER: genes 14 Torsion [CA]-CB--CG-[CD] |==|  0.81505
USER: genes 15 Torsion [CB]-CG--CD-[NE] |==|  0.37009
USER: genes 16 Torsion [CG]-CD--NE-[CZ] |==|  0.35526
USER: genes 17 Torsion [C]-CA--CB-[CG2] |==|  0.23027
USER: genes 18 Torsion [CA]-CB--OG1-[HG1] |==|  0.97628
USER: genes 19 Torsion [C]-CA--N-[C] |==|  0.13952
USER: genes 20 Torsion [N]-C--CA-[N] |==|  0.74882
USER: genes 21 Torsion [N]-C--CA-[N] |==|  0.18779
USER: genes 22 Torsion [C]-CA--CB-[CG] |==|  0.20560
USER: genes 23 Torsion [CA]-CB--CG-[CD1] |==|  0.92251
USER: genes 24 Torsion [C]-CA--N-[C] |==|  0.68356
USER: genes 25 Torsion [N]-C--CA-[N] |==|  0.32577
USER: genes 26 Torsion [C]-CA--CB-[CG] |==|  0.19333
USER: genes 27 Torsion [CA]-CB--CG-[CD] |==|  0.61464
USER: genes 28 Torsion [CB]-CG--CD-[NE] |==|  0.96080
USER: genes 29 Torsion [CG]-CD--NE-[HE] |==|  0.19305
ROOT
ATOM      1  CA  THR G   7      37.844  14.170  -5.060  1.00 26.40 LIG 0.20  C 
ENDROOT
BRANCH 1 2
ATOM      2  C   THR G   7      39.257  14.081  -5.615  1.00 25.30 LIG 0.24  C 
ATOM      3  N   THR G   8      40.159  14.903  -5.089  1.00 15.59 LIG-0.34  N 
ATOM      4 H    THR G   8      39.996  15.478  -4.471  1.00 15.59 LIG 0.16  HD
ATOM      5 O    THR G   7      39.529  13.284  -6.515  1.00 25.63 LIG-0.27  OA
BRANCH 3 6
ATOM      6  CA  THR G   8      41.540  14.875  -5.554  1.00 11.76 LIG 0.20  C 
BRANCH 6 7
ATOM      7  CB  THR G   8      41.698  15.473  -6.970  1.00 16.39 LIG 0.15  C 
ATOM      8  CG2 THR G   8      43.060  15.121  -7.542  1.00 20.98 LIG 0.04  C 
BRANCH 7 9
ATOM      9 OG1  THR G   8      40.682  14.965  -7.843  1.00 14.98 LIG-0.39  OA
ATOM     10 HG1  THR G   8      39.983  15.422  -7.756  1.00 14.98 LIG 0.21  HD
ENDBRANCH 7 9
ENDBRANCH 6 7
BRANCH 6 11
ATOM     11  C   THR G   8      42.432  15.640  -4.600  1.00 14.98 LIG 0.24  C 
ATOM     12 O    THR G   8      42.856  16.759  -4.896  1.00 17.64 LIG-0.27  OA
ATOM     13  N   ARG G   9      42.726  15.049  -3.448  1.00 15.79 LIG-0.35  N 
ATOM     14 H    ARG G   9      42.434  14.278  -3.203  1.00 15.79 LIG 0.16  HD
BRANCH 13 15
ATOM     15  CA  ARG G   9      43.601  15.712  -2.498  1.00 12.84 LIG 0.18  C 
BRANCH 15 16
ATOM     16  C   ARG G   9      45.018  15.739  -3.043  1.00 12.32 LIG 0.24  C 
ATOM     17  N   LEU G  10      45.276  14.909  -4.047  1.00 12.88 LIG-0.34  N 
ATOM     18 H    LEU G  10      44.684  14.408  -4.419  1.00 12.88 LIG 0.16  HD
ATOM     19 O    ARG G   9      45.865  16.484  -2.545  1.00 17.68 LIG-0.27  OA
BRANCH 17 20
ATOM     20  CA  LEU G  10      46.613  14.782  -4.609  1.00 16.59 LIG 0.18  C 
BRANCH 20 21
ATOM     21  CB  LEU G  10      47.301  13.520  -4.100  1.00 15.66 LIG 0.04  C 
BRANCH 21 22
ATOM     22  CG  LEU G  10      46.922  13.051  -2.702  1.00 23.51 LIG-0.02  C 
ATOM     23  CD1 LEU G  10      47.306  11.602  -2.546  1.00 20.87 LIG 0.01  C 
ATOM     24  CD2 LEU G  10      47.619  13.921  -1.665  1.00 22.37 LIG 0.01  C 
ENDBRANCH 21 22
ENDBRANCH 20 21
BRANCH 20 25
ATOM     25  C   LEU G  10      46.565  14.724  -6.116  1.00 15.89 LIG 0.20  C 
ATOM     26 OXT  LEU G  10      47.254  13.897  -6.703  1.00 24.01 LIG-0.65  OA
ATOM     27 O    LEU G  10      45.828  15.475  -6.765  1.00 15.92 LIG-0.65  OA
ENDBRANCH 20 25
ENDBRANCH 17 20
ENDBRANCH 15 16
BRANCH 15 28
ATOM     28  CB  ARG G   9      43.570  15.028  -1.132  1.00 18.79 LIG 0.04  C 
BRANCH 28 29
ATOM     29  CG  ARG G   9      42.356  15.413  -0.312  1.00 22.18 LIG 0.02  C 
BRANCH 29 30
ATOM     30  CD  ARG G   9      42.382  16.874   0.089  1.00 31.14 LIG 0.14  C 
BRANCH 30 31
ATOM     31  NE  ARG G   9      41.094  17.512  -0.158  1.00 29.63 LIG-0.23  N 
ATOM     32  CZ  ARG G   9      40.426  18.205   0.756  1.00 25.64 LIG 0.67  C 
ATOM     33  NH2 ARG G   9      39.259  18.757   0.454  1.00 30.24 LIG-0.23  N 
ATOM     34  NH1 ARG G   9      40.925  18.334   1.975  1.00 28.33 LIG-0.23  N 
ATOM     35 1HH2 ARG G   9      38.932  18.666  -0.337  1.00 30.24 LIG 0.17  HD
ATOM     36 2HH2 ARG G   9      38.829  19.205   1.048  1.00 30.24 LIG 0.17  HD
ATOM     37 1HH1 ARG G   9      41.679  17.971   2.173  1.00 28.33 LIG 0.17  HD
ATOM     38 2HH1 ARG G   9      40.495  18.782   2.571  1.00 28.33 LIG 0.17  HD
ATOM     39 HE   ARG G   9      40.746  17.435  -0.940  1.00 29.63 LIG 0.18  HD
ENDBRANCH 30 31
ENDBRANCH 29 30
ENDBRANCH 28 29
ENDBRANCH 15 28
ENDBRANCH 13 15
ENDBRANCH 6 11
ENDBRANCH 3 6
ENDBRANCH 1 2
BRANCH 1 40
ATOM     40  CB  THR G   7      36.887  13.392  -5.986  1.00 34.82 LIG 0.15  C 
ATOM     41  CG2 THR G   7      36.913  11.909  -5.657  1.00 38.74 LIG 0.04  C 
BRANCH 40 42
ATOM     42 OG1  THR G   7      35.550  13.886  -5.820  1.00 40.69 LIG-0.39  OA
ATOM     43 HG1  THR G   7      35.527  14.419  -5.171  1.00 40.69 LIG 0.21  HD
ENDBRANCH 40 42
ENDBRANCH 1 40
BRANCH 1 44
ATOM     44  N   THR G   7      37.463  15.571  -4.946  1.00 22.98 LIG-0.34  N 
ATOM     45  C   PRO G   6      37.598  16.433  -5.947  1.00 24.87 LIG 0.24  C 
ATOM     46 O    PRO G   6      38.133  16.163  -7.022  1.00 25.14 LIG-0.27  OA
ATOM     47 H    THR G   7      37.144  15.784  -4.177  1.00 22.98 LIG 0.16  HD
BRANCH 45 48
ATOM     48  CA  PRO G   6      37.077  17.840  -5.711  1.00 32.16 LIG 0.18  C 
ATOM     49  N   PRO G   6      35.678  17.915  -6.137  1.00 31.00 LIG-0.34  N 
ATOM     50  CD  PRO G   6      34.765  18.103  -4.999  1.00 36.67 LIG 0.13  C 
ATOM     51  C   TRP G   5      35.351  17.659  -7.410  1.00 25.71 LIG 0.24  C 
ATOM     52  CG  PRO G   6      35.620  17.726  -3.820  1.00 44.45 LIG 0.02  C 
ATOM     53  CB  PRO G   6      37.003  18.119  -4.206  1.00 38.26 LIG 0.04  C 
ATOM     54 O    TRP G   5      36.193  17.415  -8.278  1.00 31.33 LIG-0.27  OA
BRANCH 51 55
ATOM     55  CA  TRP G   5      33.873  17.676  -7.756  1.00 33.03 LIG 0.18  C 
BRANCH 55 56
ATOM     56  CB  TRP G   5      33.677  17.143  -9.175  1.00 34.46 LIG 0.07  C 
BRANCH 56 57
ATOM     57  CG  TRP G   5      33.844  15.659  -9.298  1.00 31.46 LIG-0.03  A 
ATOM     58  CD2 TRP G   5      33.230  14.806 -10.276  1.00 33.83 LIG-0.00  A 
ATOM     59  CE3 TRP G   5      32.344  15.028 -11.334  1.00 34.43 LIG 0.01  A 
ATOM     60  CE2 TRP G   5      33.665  13.490 -10.017  1.00 38.54 LIG 0.04  A 
ATOM     61  CZ3 TRP G   5      31.930  13.948 -12.094  1.00 33.62 LIG 0.00  A 
ATOM     62  CH2 TRP G   5      32.381  12.653 -11.818  1.00 35.83 LIG 0.00  A 
ATOM     63  CZ2 TRP G   5      33.252  12.402 -10.790  1.00 36.99 LIG 0.03  A 
ATOM     64  NE1 TRP G   5      34.514  13.541  -8.941  1.00 38.15 LIG-0.36  N 
ATOM     65  CD1 TRP G   5      34.617  14.848  -8.516  1.00 30.20 LIG 0.10  A 
ATOM     66 HE1  TRP G   5      34.916  12.868  -8.589  1.00 38.15 LIG 0.17  HD
ENDBRANCH 56 57
ENDBRANCH 55 56
BRANCH 55 67
ATOM     67  N   TRP G   5      33.360  19.034  -7.639  1.00 35.55 LIG-0.34  N 
ATOM     68 H    TRP G   5      33.684  19.588  -8.210  1.00 35.55 LIG 0.16  HD
ATOM     69  C   ARG G   4      32.463  19.362  -6.715  1.00 46.16 LIG 0.26  C 
ATOM     70 O    ARG G   4      31.926  18.535  -5.973  1.00 51.01 LIG-0.27  OA
BRANCH 69 71
ATOM     71  CA  ARG G   4      32.100  20.839  -6.635  1.00 46.30 LIG 0.40  C 
ATOM     72  N   ARG G   4      30.688  21.054  -6.942  1.00 41.08 LIG 0.61  N 
BRANCH 71 73
ATOM     73  CB  ARG G   4      32.433  21.389  -5.247  1.00 45.78 LIG 0.05  C 
BRANCH 73 74
ATOM     74  CG  ARG G   4      33.928  21.480  -4.989  1.00 42.28 LIG 0.02  C 
BRANCH 74 75
ATOM     75  CD  ARG G   4      34.250  21.030  -3.572  1.00 34.41 LIG 0.14  C 
BRANCH 75 76
ATOM     76  NE  ARG G   4      33.051  20.950  -2.743  1.00 34.91 LIG-0.23  N 
ATOM     77 HE   ARG G   4      32.480  20.330  -2.913  1.00 34.91 LIG 0.18  HD
ATOM     78  CZ  ARG G   4      32.792  21.782  -1.740  1.00 31.49 LIG 0.67  C 
ATOM     79  NH1 ARG G   4      33.650  22.750  -1.446  1.00 30.98 LIG-0.23  N 
ATOM     80  NH2 ARG G   4      31.683  21.650  -1.029  1.00 25.73 LIG-0.23  N 
ATOM     81 2HH1 ARG G   4      33.484  23.289  -0.797  1.00 30.98 LIG 0.17  HD
ATOM     82 1HH1 ARG G   4      34.372  22.839  -1.905  1.00 30.98 LIG 0.17  HD
ATOM     83 1HH2 ARG G   4      31.125  21.023  -1.215  1.00 25.73 LIG 0.17  HD
ATOM     84 2HH2 ARG G   4      31.522  22.191  -0.381  1.00 25.73 LIG 0.17  HD
ENDBRANCH 75 76
ENDBRANCH 74 75
ENDBRANCH 73 74
ENDBRANCH 71 73
ENDBRANCH 69 71
ENDBRANCH 55 67
ENDBRANCH 51 55
ENDBRANCH 45 48
ENDBRANCH 1 44
TORSDOF 28
ENDMDL
MODEL 2
USER: ADFR SOLUTION from run 75
USER: SCORE 23.589936 LL:  -6.801 LR: -18.416 RR:   0.000 FEB: -10.063
USER: RMSD 3.884762
USER: SEED 74
USER: STATUS searching
USER: GENES 30
USER: genes 0 Translation |==|  0.46668 0.49689 0.47926
USER: genes 1 Rotation |==|  0.51997 0.46227 0.51989 0.99778
USER: genes 2 Torsion [N]-CA--C-[N] |==|  0.40101
USER: genes 3 Torsion [C]-N--CA-[CB] |==|  0.30000
USER: genes 4 Torsion [N]-CA--CB-[CG2] |==|  0.47125
USER: genes 5 Torsion [CA]-CB--OG1-[HG1] |==|  0.21449
USER: genes 6 Torsion [N]-CA--C-[N] |==|  0.37114
USER: genes 7 Torsion [C]-N--CA-[C] |==|  0.79176
USER: genes 8 Torsion [N]-CA--C-[N] |==|  0.35246
USER: genes 9 Torsion [C]-N--CA-[CB] |==|  0.32250
USER: genes 10 Torsion [N]-CA--CB-[CG] |==|  0.72667
USER: genes 11 Torsion [CA]-CB--CG-[CD1] |==|  0.84831
USER: genes 12 Torsion [N]-CA--C-[OXT] |==|  0.83262
USER: genes 13 Torsion [N]-CA--CB-[CG] |==|  0.73933
USER: genes 14 Torsion [CA]-CB--CG-[CD] |==|  0.73611
USER: genes 15 Torsion [CB]-CG--CD-[NE] |==|  0.09128
USER: genes 16 Torsion [CG]-CD--NE-[CZ] |==|  0.59358
USER: genes 17 Torsion [C]-CA--CB-[CG2] |==|  0.03920
USER: genes 18 Torsion [CA]-CB--OG1-[HG1] |==|  0.93602
USER: genes 19 Torsion [C]-CA--N-[C] |==|  0.67272
USER: genes 20 Torsion [N]-C--CA-[N] |==|  0.42329
USER: genes 21 Torsion [N]-C--CA-[N] |==|  0.44131
USER: genes 22 Torsion [C]-CA--CB-[CG] |==|  0.62739
USER: genes 23 Torsion [CA]-CB--CG-[CD1] |==|  0.30834
USER: genes 24 Torsion [C]-CA--N-[C] |==|  0.65824
USER: genes 25 Torsion [N]-C--CA-[N] |==|  0.65531
USER: genes 26 Torsion [C]-CA--CB-[CG] |==|  0.20468
USER: genes 27 Torsion [CA]-CB--CG-[CD] |==|  0.54978
USER: genes 28 Torsion [CB]-CG--CD-[NE] |==|  0.16757
USER: genes 29 Torsion [CG]-CD--NE-[HE] |==|  0.11416
ROOT
ATOM      1  CA  THR G   7      43.551  14.951  -1.528  1.00 26.40 LIG 0.20  C 
ENDROOT
BRANCH 1 2
ATOM      2  C   THR G   7      43.044  15.584  -2.815  1.00 25.30 LIG 0.24  C 
ATOM      3  N   THR G   8      42.001  15.000  -3.397  1.00 15.59 LIG-0.34  N 
ATOM      4 H    THR G   8      41.606  14.295  -3.102  1.00 15.59 LIG 0.16  HD
ATOM      5 O    THR G   7      43.592  16.583  -3.282  1.00 25.63 LIG-0.27  OA
BRANCH 3 6
ATOM      6  CA  THR G   8      41.443  15.548  -4.626  1.00 11.76 LIG 0.20  C 
BRANCH 6 7
ATOM      7  CB  THR G   8      41.757  14.671  -5.859  1.00 16.39 LIG 0.15  C 
ATOM      8  CG2 THR G   8      40.950  15.139  -7.058  1.00 20.98 LIG 0.04  C 
BRANCH 7 9
ATOM      9 OG1  THR G   8      43.151  14.742  -6.181  1.00 14.98 LIG-0.39  OA
ATOM     10 HG1  THR G   8      43.587  14.263  -5.646  1.00 14.98 LIG 0.21  HD
ENDBRANCH 7 9
ENDBRANCH 6 7
BRANCH 6 11
ATOM     11  C   THR G   8      39.941  15.695  -4.503  1.00 14.98 LIG 0.24  C 
ATOM     12 O    THR G   8      39.256  14.778  -4.046  1.00 17.64 LIG-0.27  OA
ATOM     13  N   ARG G   9      39.416  16.845  -4.906  1.00 15.79 LIG-0.35  N 
ATOM     14 H    ARG G   9      39.865  17.511  -5.213  1.00 15.79 LIG 0.16  HD
BRANCH 13 15
ATOM     15  CA  ARG G   9      37.979  17.044  -4.844  1.00 12.84 LIG 0.18  C 
BRANCH 15 16
ATOM     16  C   ARG G   9      37.308  16.267  -5.963  1.00 12.32 LIG 0.24  C 
ATOM     17  N   LEU G  10      36.331  15.444  -5.602  1.00 12.88 LIG-0.34  N 
ATOM     18 H    LEU G  10      36.040  15.370  -4.796  1.00 12.88 LIG 0.16  HD
ATOM     19 O    ARG G   9      37.688  16.397  -7.129  1.00 17.68 LIG-0.27  OA
BRANCH 17 20
ATOM     20  CA  LEU G  10      35.659  14.585  -6.566  1.00 16.59 LIG 0.18  C 
BRANCH 20 21
ATOM     21  CB  LEU G  10      35.901  13.114  -6.248  1.00 15.66 LIG 0.04  C 
BRANCH 21 22
ATOM     22  CG  LEU G  10      36.998  12.415  -7.040  1.00 23.51 LIG-0.02  C 
ATOM     23  CD1 LEU G  10      36.730  12.586  -8.513  1.00 20.87 LIG 0.01  C 
ATOM     24  CD2 LEU G  10      38.353  12.993  -6.655  1.00 22.37 LIG 0.01  C 
ENDBRANCH 21 22
ENDBRANCH 20 21
BRANCH 20 25
ATOM     25  C   LEU G  10      34.170  14.833  -6.570  1.00 15.89 LIG 0.20  C 
ATOM     26 OXT  LEU G  10      33.534  14.651  -5.538  1.00 24.01 LIG-0.65  OA
ATOM     27 O    LEU G  10      33.589  15.238  -7.583  1.00 15.92 LIG-0.65  OA
ENDBRANCH 20 25
ENDBRANCH 17 20
ENDBRANCH 15 16
BRANCH 15 28
ATOM     28  CB  ARG G   9      37.610  18.525  -4.932  1.00 18.79 LIG 0.04  C 
BRANCH 28 29
ATOM     29  CG  ARG G   9      37.452  19.169  -3.570  1.00 22.18 LIG 0.02  C 
BRANCH 29 30
ATOM     30  CD  ARG G   9      36.009  19.180  -3.111  1.00 31.14 LIG 0.14  C 
BRANCH 30 31
ATOM     31  NE  ARG G   9      35.291  18.006  -3.596  1.00 29.63 LIG-0.23  N 
ATOM     32  CZ  ARG G   9      34.007  18.011  -3.930  1.00 25.64 LIG 0.67  C 
ATOM     33  NH2 ARG G   9      33.426  16.901  -4.365  1.00 30.24 LIG-0.23  N 
ATOM     34  NH1 ARG G   9      33.304  19.127  -3.817  1.00 28.33 LIG-0.23  N 
ATOM     35 1HH2 ARG G   9      33.882  16.175  -4.431  1.00 30.24 LIG 0.17  HD
ATOM     36 2HH2 ARG G   9      32.594  16.908  -4.581  1.00 30.24 LIG 0.17  HD
ATOM     37 1HH1 ARG G   9      33.681  19.845  -3.529  1.00 28.33 LIG 0.17  HD
ATOM     38 2HH1 ARG G   9      32.472  19.135  -4.032  1.00 28.33 LIG 0.17  HD
ATOM     39 HE   ARG G   9      35.726  17.267  -3.670  1.00 29.63 LIG 0.18  HD
ENDBRANCH 30 31
ENDBRANCH 29 30
ENDBRANCH 28 29
ENDBRANCH 15 28
ENDBRANCH 13 15
ENDBRANCH 6 11
ENDBRANCH 3 6
ENDBRANCH 1 2
BRANCH 1 40
ATOM     40  CB  THR G   7      42.878  15.643  -0.326  1.00 34.82 LIG 0.15  C 
ATOM     41  CG2 THR G   7      41.691  16.473  -0.783  1.00 38.74 LIG 0.04  C 
BRANCH 40 42
ATOM     42 OG1  THR G   7      42.426  14.652   0.608  1.00 40.69 LIG-0.39  OA
ATOM     43 HG1  THR G   7      42.320  13.919   0.210  1.00 40.69 LIG 0.21  HD
ENDBRANCH 40 42
ENDBRANCH 1 40
BRANCH 1 44
ATOM     44  N   THR G   7      45.002  15.072  -1.476  1.00 22.98 LIG-0.34  N 
ATOM     45  C   PRO G   6      45.807  14.016  -1.452  1.00 24.87 LIG 0.24  C 
ATOM     46 O    PRO G   6      45.416  12.852  -1.382  1.00 25.14 LIG-0.27  OA
ATOM     47 H    THR G   7      45.284  15.884  -1.462  1.00 22.98 LIG 0.16  HD
BRANCH 45 48
ATOM     48  CA  PRO G   6      47.299  14.296  -1.486  1.00 32.16 LIG 0.18  C 
ATOM     49  N   PRO G   6      48.011  13.205  -0.818  1.00 31.00 LIG-0.34  N 
ATOM     50  CD  PRO G   6      48.815  12.412  -1.761  1.00 36.67 LIG 0.13  C 
ATOM     51  C   TRP G   5      47.763  12.933   0.470  1.00 25.71 LIG 0.24  C 
ATOM     52  CG  PRO G   6      48.244  12.804  -3.097  1.00 44.45 LIG 0.02  C 
ATOM     53  CB  PRO G   6      47.809  14.217  -2.929  1.00 38.26 LIG 0.04  C 
ATOM     54 O    TRP G   5      46.991  13.607   1.156  1.00 31.33 LIG-0.27  OA
BRANCH 51 55
ATOM     55  CA  TRP G   5      48.479  11.736   1.070  1.00 33.03 LIG 0.18  C 
BRANCH 55 56
ATOM     56  CB  TRP G   5      47.760  10.453   0.655  1.00 34.46 LIG 0.07  C 
BRANCH 56 57
ATOM     57  CG  TRP G   5      47.540   9.486   1.779  1.00 31.46 LIG-0.03  A 
ATOM     58  CD2 TRP G   5      48.547   8.741   2.478  1.00 33.83 LIG-0.00  A 
ATOM     59  CE3 TRP G   5      49.937   8.651   2.365  1.00 34.43 LIG 0.01  A 
ATOM     60  CE2 TRP G   5      47.892   7.959   3.452  1.00 38.54 LIG 0.04  A 
ATOM     61  CZ3 TRP G   5      50.622   7.800   3.216  1.00 33.62 LIG 0.00  A 
ATOM     62  CH2 TRP G   5      49.946   7.039   4.176  1.00 35.83 LIG 0.00  A 
ATOM     63  CZ2 TRP G   5      48.584   7.107   4.315  1.00 36.99 LIG 0.03  A 
ATOM     64  NE1 TRP G   5      46.549   8.225   3.357  1.00 38.15 LIG-0.36  N 
ATOM     65  CD1 TRP G   5      46.346   9.145   2.351  1.00 30.20 LIG 0.10  A 
ATOM     66 HE1  TRP G   5      45.935   7.876   3.846  1.00 38.15 LIG 0.17  HD
ENDBRANCH 56 57
ENDBRANCH 55 56
BRANCH 55 67
ATOM     67  N   TRP G   5      48.514  11.864   2.520  1.00 35.55 LIG-0.34  N 
ATOM     68 H    TRP G   5      47.742  11.945   2.889  1.00 35.55 LIG 0.16  HD
ATOM     69  C   ARG G   4      49.660  11.853   3.192  1.00 46.16 LIG 0.26  C 
ATOM     70 O    ARG G   4      50.751  11.627   2.663  1.00 51.01 LIG-0.27  OA
BRANCH 69 71
ATOM     71  CA  ARG G   4      49.554  12.109   4.691  1.00 46.30 LIG 0.40  C 
ATOM     72  N   ARG G   4      50.392  13.236   5.094  1.00 41.08 LIG 0.61  N 
BRANCH 71 73
ATOM     73  CB  ARG G   4      48.097  12.362   5.081  1.00 45.78 LIG 0.05  C 
BRANCH 73 74
ATOM     74  CG  ARG G   4      47.252  11.098   5.069  1.00 42.28 LIG 0.02  C 
BRANCH 74 75
ATOM     75  CD  ARG G   4      45.772  11.449   5.024  1.00 34.41 LIG 0.14  C 
BRANCH 75 76
ATOM     76  NE  ARG G   4      45.434  12.216   3.829  1.00 34.91 LIG-0.23  N 
ATOM     77 HE   ARG G   4      45.792  11.983   3.082  1.00 34.91 LIG 0.18  HD
ATOM     78  CZ  ARG G   4      44.604  13.252   3.829  1.00 31.49 LIG 0.67  C 
ATOM     79  NH1 ARG G   4      44.031  13.641   4.960  1.00 30.98 LIG-0.23  N 
ATOM     80  NH2 ARG G   4      44.341  13.901   2.705  1.00 25.73 LIG-0.23  N 
ATOM     81 2HH1 ARG G   4      43.493  14.311   4.962  1.00 30.98 LIG 0.17  HD
ATOM     82 1HH1 ARG G   4      44.198  13.221   5.693  1.00 30.98 LIG 0.17  HD
ATOM     83 1HH2 ARG G   4      44.709  13.652   1.968  1.00 25.73 LIG 0.17  HD
ATOM     84 2HH2 ARG G   4      43.803  14.571   2.711  1.00 25.73 LIG 0.17  HD
ENDBRANCH 75 76
ENDBRANCH 74 75
ENDBRANCH 73 74
ENDBRANCH 71 73
ENDBRANCH 69 71
ENDBRANCH 55 67
ENDBRANCH 51 55
ENDBRANCH 45 48
ENDBRANCH 1 44
TORSDOF 28
ENDMDL
MODEL 3
USER: ADFR SOLUTION from run 79
USER: SCORE 21.003082 LL:  -5.211 LR: -17.993 RR:   0.000 FEB:  -9.641
USER: RMSD 15.591743
USER: SEED 78
USER: STATUS no improvement in best in 9 clusters for 5 generations
USER: GENES 30
USER: genes 0 Translation |==|  0.28903 0.46409 0.33029
USER: genes 1 Rotation |==|  0.29328 0.17886 0.75922 0.69221
USER: genes 2 Torsion [N]-CA--C-[N] |==|  0.14160
USER: genes 3 Torsion [C]-N--CA-[CB] |==|  0.19457
USER: genes 4 Torsion [N]-CA--CB-[CG2] |==|  0.15224
USER: genes 5 Torsion [CA]-CB--OG1-[HG1] |==|  0.62399
USER: genes 6 Torsion [N]-CA--C-[N] |==|  0.40314
USER: genes 7 Torsion [C]-N--CA-[C] |==|  0.60000
USER: genes 8 Torsion [N]-CA--C-[N] |==|  0.99644
USER: genes 9 Torsion [C]-N--CA-[CB] |==|  0.25652
USER: genes 10 Torsion [N]-CA--CB-[CG] |==|  0.84562
USER: genes 11 Torsion [CA]-CB--CG-[CD1] |==|  0.40088
USER: genes 12 Torsion [N]-CA--C-[OXT] |==|  0.71937
USER: genes 13 Torsion [N]-CA--CB-[CG] |==|  0.66736
USER: genes 14 Torsion [CA]-CB--CG-[CD] |==|  0.25212
USER: genes 15 Torsion [CB]-CG--CD-[NE] |==|  0.62915
USER: genes 16 Torsion [CG]-CD--NE-[CZ] |==|  0.63477
USER: genes 17 Torsion [C]-CA--CB-[CG2] |==|  0.21183
USER: genes 18 Torsion [CA]-CB--OG1-[HG1] |==|  0.96305
USER: genes 19 Torsion [C]-CA--N-[C] |==|  0.14590
USER: genes 20 Torsion [N]-C--CA-[N] |==|  0.74017
USER: genes 21 Torsion [N]-C--CA-[N] |==|  0.19035
USER: genes 22 Torsion [C]-CA--CB-[CG] |==|  0.23430
USER: genes 23 Torsion [CA]-CB--CG-[CD1] |==|  0.26984
USER: genes 24 Torsion [C]-CA--N-[C] |==|  0.69250
USER: genes 25 Torsion [N]-C--CA-[N] |==|  0.55358
USER: genes 26 Torsion [C]-CA--CB-[CG] |==|  0.37586
USER: genes 27 Torsion [CA]-CB--CG-[CD] |==|  0.07472
USER: genes 28 Torsion [CB]-CG--CD-[NE] |==|  0.65738
USER: genes 29 Torsion [CG]-CD--NE-[HE] |==|  0.85558
ROOT
ATOM      1  CA  THR G   7      37.556  14.164  -4.992  1.00 26.40 LIG 0.20  C 
ENDROOT
BRANCH 1 2
ATOM      2  C   THR G   7      39.019  14.063  -5.394  1.00 25.30 LIG 0.24  C 
ATOM      3  N   THR G   8      39.889  14.754  -4.664  1.00 15.59 LIG-0.34  N 
ATOM      4 H    THR G   8      39.680  15.252  -3.995  1.00 15.59 LIG 0.16  HD
ATOM      5 O    THR G   7      39.359  13.374  -6.357  1.00 25.63 LIG-0.27  OA
BRANCH 3 6
ATOM      6  CA  THR G   8      41.312  14.703  -4.972  1.00 11.76 LIG 0.20  C 
BRANCH 6 7
ATOM      7  CB  THR G   8      41.656  15.428  -6.293  1.00 16.39 LIG 0.15  C 
ATOM      8  CG2 THR G   8      41.143  16.857  -6.258  1.00 20.98 LIG 0.04  C 
BRANCH 7 9
ATOM      9 OG1  THR G   8      43.073  15.447  -6.499  1.00 14.98 LIG-0.39  OA
ATOM     10 HG1  THR G   8      43.310  16.213  -6.749  1.00 14.98 LIG 0.21  HD
ENDBRANCH 7 9
ENDBRANCH 6 7
BRANCH 6 11
ATOM     11  C   THR G   8      42.116  15.326  -3.851  1.00 14.98 LIG 0.24  C 
ATOM     12 O    THR G   8      41.675  16.290  -3.223  1.00 17.64 LIG-0.27  OA
ATOM     13  N   ARG G   9      43.300  14.785  -3.589  1.00 15.79 LIG-0.35  N 
ATOM     14 H    ARG G   9      43.630  14.104  -3.996  1.00 15.79 LIG 0.16  HD
BRANCH 13 15
ATOM     15  CA  ARG G   9      44.137  15.351  -2.547  1.00 12.84 LIG 0.18  C 
BRANCH 15 16
ATOM     16  C   ARG G   9      45.596  15.257  -2.958  1.00 12.32 LIG 0.24  C 
ATOM     17  N   LEU G  10      45.839  14.679  -4.128  1.00 12.88 LIG-0.34  N 
ATOM     18 H    LEU G  10      45.225  14.406  -4.665  1.00 12.88 LIG 0.16  HD
ATOM     19 O    ARG G   9      46.484  15.683  -2.216  1.00 17.68 LIG-0.27  OA
BRANCH 17 20
ATOM     20  CA  LEU G  10      47.197  14.457  -4.604  1.00 16.59 LIG 0.18  C 
BRANCH 20 21
ATOM     21  CB  LEU G  10      47.699  13.076  -4.199  1.00 15.66 LIG 0.04  C 
BRANCH 21 22
ATOM     22  CG  LEU G  10      47.658  12.742  -2.714  1.00 23.51 LIG-0.02  C 
ATOM     23  CD1 LEU G  10      47.320  11.284  -2.545  1.00 20.87 LIG 0.01  C 
ATOM     24  CD2 LEU G  10      49.001  13.074  -2.079  1.00 22.37 LIG 0.01  C 
ENDBRANCH 21 22
ENDBRANCH 20 21
BRANCH 20 25
ATOM     25  C   LEU G  10      47.270  14.569  -6.108  1.00 15.89 LIG 0.20  C 
ATOM     26 OXT  LEU G  10      47.302  13.544  -6.780  1.00 24.01 LIG-0.65  OA
ATOM     27 O    LEU G  10      47.275  15.669  -6.671  1.00 15.92 LIG-0.65  OA
ENDBRANCH 20 25
ENDBRANCH 17 20
ENDBRANCH 15 16
BRANCH 15 28
ATOM     28  CB  ARG G   9      43.918  14.651  -1.206  1.00 18.79 LIG 0.04  C 
BRANCH 28 29
ATOM     29  CG  ARG G   9      43.429  15.595  -0.127  1.00 22.18 LIG 0.02  C 
BRANCH 29 30
ATOM     30  CD  ARG G   9      41.917  15.659  -0.071  1.00 31.14 LIG 0.14  C 
BRANCH 30 31
ATOM     31  NE  ARG G   9      41.450  17.039   0.006  1.00 29.63 LIG-0.23  N 
ATOM     32  CZ  ARG G   9      40.551  17.466   0.884  1.00 25.64 LIG 0.67  C 
ATOM     33  NH2 ARG G   9      40.177  18.739   0.892  1.00 30.24 LIG-0.23  N 
ATOM     34  NH1 ARG G   9      40.019  16.614   1.746  1.00 28.33 LIG-0.23  N 
ATOM     35 1HH2 ARG G   9      40.518  19.290   0.327  1.00 30.24 LIG 0.17  HD
ATOM     36 2HH2 ARG G   9      39.595  19.012   1.462  1.00 30.24 LIG 0.17  HD
ATOM     37 1HH1 ARG G   9      40.257  15.787   1.737  1.00 28.33 LIG 0.17  HD
ATOM     38 2HH1 ARG G   9      39.436  16.886   2.317  1.00 28.33 LIG 0.17  HD
ATOM     39 HE   ARG G   9      41.775  17.609  -0.549  1.00 29.63 LIG 0.18  HD
ENDBRANCH 30 31
ENDBRANCH 29 30
ENDBRANCH 28 29
ENDBRANCH 15 28
ENDBRANCH 13 15
ENDBRANCH 6 11
ENDBRANCH 3 6
ENDBRANCH 1 2
BRANCH 1 40
ATOM     40  CB  THR G   7      36.691  13.440  -6.044  1.00 34.82 LIG 0.15  C 
ATOM     41  CG2 THR G   7      36.785  11.934  -5.867  1.00 38.74 LIG 0.04  C 
BRANCH 40 42
ATOM     42 OG1  THR G   7      35.322  13.845  -5.901  1.00 40.69 LIG-0.39  OA
ATOM     43 HG1  THR G   7      35.223  14.248  -5.171  1.00 40.69 LIG 0.21  HD
ENDBRANCH 40 42
ENDBRANCH 1 40
BRANCH 1 44
ATOM     44  N   THR G   7      37.190  15.568  -4.869  1.00 22.98 LIG-0.34  N 
ATOM     45  C   PRO G   6      37.410  16.452  -5.835  1.00 24.87 LIG 0.24  C 
ATOM     46 O    PRO G   6      38.014  16.199  -6.877  1.00 25.14 LIG-0.27  OA
ATOM     47 H    THR G   7      36.822  15.769  -4.119  1.00 22.98 LIG 0.16  HD
BRANCH 45 48
ATOM     48  CA  PRO G   6      36.896  17.862  -5.600  1.00 32.16 LIG 0.18  C 
ATOM     49  N   PRO G   6      35.561  17.994  -6.186  1.00 31.00 LIG-0.34  N 
ATOM     50  CD  PRO G   6      34.522  18.160  -5.158  1.00 36.67 LIG 0.13  C 
ATOM     51  C   TRP G   5      35.385  17.802  -7.500  1.00 25.71 LIG 0.24  C 
ATOM     52  CG  PRO G   6      35.219  17.710  -3.904  1.00 44.45 LIG 0.02  C 
ATOM     53  CB  PRO G   6      36.647  18.079  -4.104  1.00 38.26 LIG 0.04  C 
ATOM     54 O    TRP G   5      36.319  17.571  -8.271  1.00 31.33 LIG-0.27  OA
BRANCH 51 55
ATOM     55  CA  TRP G   5      33.960  17.875  -8.019  1.00 33.03 LIG 0.18  C 
BRANCH 55 56
ATOM     56  CB  TRP G   5      33.920  17.386  -9.466  1.00 34.46 LIG 0.07  C 
BRANCH 56 57
ATOM     57  CG  TRP G   5      33.813  15.897  -9.606  1.00 31.46 LIG-0.03  A 
ATOM     58  CD2 TRP G   5      34.889  14.951  -9.534  1.00 33.83 LIG-0.00  A 
ATOM     59  CE3 TRP G   5      36.268  15.066  -9.344  1.00 34.43 LIG 0.01  A 
ATOM     60  CE2 TRP G   5      34.333  13.668  -9.721  1.00 38.54 LIG 0.04  A 
ATOM     61  CZ3 TRP G   5      37.040  13.917  -9.341  1.00 33.62 LIG 0.00  A 
ATOM     62  CH2 TRP G   5      36.461  12.656  -9.524  1.00 35.83 LIG 0.00  A 
ATOM     63  CZ2 TRP G   5      35.111  12.508  -9.709  1.00 36.99 LIG 0.03  A 
ATOM     64  NE1 TRP G   5      32.980  13.826  -9.886  1.00 38.15 LIG-0.36  N 
ATOM     65  CD1 TRP G   5      32.675  15.168  -9.814  1.00 30.20 LIG 0.10  A 
ATOM     66 HE1  TRP G   5      32.414  13.192 -10.013  1.00 38.15 LIG 0.17  HD
ENDBRANCH 56 57
ENDBRANCH 55 56
BRANCH 55 67
ATOM     67  N   TRP G   5      33.475  19.245  -7.923  1.00 35.55 LIG-0.34  N 
ATOM     68 H    TRP G   5      33.851  19.795  -8.466  1.00 35.55 LIG 0.16  HD
ATOM     69  C   ARG G   4      32.526  19.588  -7.059  1.00 46.16 LIG 0.26  C 
ATOM     70 O    ARG G   4      31.919  18.770  -6.363  1.00 51.01 LIG-0.27  OA
BRANCH 69 71
ATOM     71  CA  ARG G   4      32.197  21.074  -6.988  1.00 46.30 LIG 0.40  C 
ATOM     72  N   ARG G   4      31.510  21.405  -5.742  1.00 41.08 LIG 0.61  N 
BRANCH 71 73
ATOM     73  CB  ARG G   4      33.474  21.904  -7.128  1.00 45.78 LIG 0.05  C 
BRANCH 73 74
ATOM     74  CG  ARG G   4      33.315  23.081  -8.077  1.00 42.28 LIG 0.02  C 
BRANCH 74 75
ATOM     75  CD  ARG G   4      31.863  23.531  -8.125  1.00 34.41 LIG 0.14  C 
BRANCH 75 76
ATOM     76  NE  ARG G   4      31.334  23.509  -9.486  1.00 34.91 LIG-0.23  N 
ATOM     77 HE   ARG G   4      31.777  23.917 -10.100  1.00 34.91 LIG 0.18  HD
ATOM     78  CZ  ARG G   4      30.207  22.896  -9.828  1.00 31.49 LIG 0.67  C 
ATOM     79  NH1 ARG G   4      29.497  22.256  -8.908  1.00 30.98 LIG-0.23  N 
ATOM     80  NH2 ARG G   4      29.787  22.916 -11.084  1.00 25.73 LIG-0.23  N 
ATOM     81 2HH1 ARG G   4      28.767  21.858  -9.128  1.00 30.98 LIG 0.17  HD
ATOM     82 1HH1 ARG G   4      29.766  22.240  -8.091  1.00 30.98 LIG 0.17  HD
ATOM     83 1HH2 ARG G   4      30.245  23.328 -11.684  1.00 25.73 LIG 0.17  HD
ATOM     84 2HH2 ARG G   4      29.057  22.517 -11.299  1.00 25.73 LIG 0.17  HD
ENDBRANCH 75 76
ENDBRANCH 74 75
ENDBRANCH 73 74
ENDBRANCH 71 73
ENDBRANCH 69 71
ENDBRANCH 55 67
ENDBRANCH 51 55
ENDBRANCH 45 48
ENDBRANCH 1 44
TORSDOF 28
ENDMDL
MODEL 4
USER: ADFR SOLUTION from run 102
USER: SCORE 20.482503 LL:  -4.462 LR: -17.941 RR:   0.000 FEB:  -9.588
USER: RMSD 14.933063
USER: SEED 101
USER: STATUS no improvement in best in 22 clusters for 5 generations
USER: GENES 30
USER: genes 0 Translation |==|  0.30512 0.47868 0.33429
USER: genes 1 Rotation |==|  0.27605 0.20171 0.74435 0.72619
USER: genes 2 Torsion [N]-CA--C-[N] |==|  0.13483
USER: genes 3 Torsion [C]-N--CA-[CB] |==|  0.15686
USER: genes 4 Torsion [N]-CA--CB-[CG2] |==|  0.15416
USER: genes 5 Torsion [CA]-CB--OG1-[HG1] |==|  0.01058
USER: genes 6 Torsion [N]-CA--C-[N] |==|  0.23862
USER: genes 7 Torsion [C]-N--CA-[C] |==|  0.75849
USER: genes 8 Torsion [N]-CA--C-[N] |==|  0.13321
USER: genes 9 Torsion [C]-N--CA-[CB] |==|  0.16147
USER: genes 10 Torsion [N]-CA--CB-[CG] |==|  0.59707
USER: genes 11 Torsion [CA]-CB--CG-[CD1] |==|  0.69944
USER: genes 12 Torsion [N]-CA--C-[OXT] |==|  0.18553
USER: genes 13 Torsion [N]-CA--CB-[CG] |==|  0.72597
USER: genes 14 Torsion [CA]-CB--CG-[CD] |==|  0.19473
USER: genes 15 Torsion [CB]-CG--CD-[NE] |==|  0.57238
USER: genes 16 Torsion [CG]-CD--NE-[CZ] |==|  0.72858
USER: genes 17 Torsion [C]-CA--CB-[CG2] |==|  0.24811
USER: genes 18 Torsion [CA]-CB--OG1-[HG1] |==|  0.90711
USER: genes 19 Torsion [C]-CA--N-[C] |==|  0.13338
USER: genes 20 Torsion [N]-C--CA-[N] |==|  0.87495
USER: genes 21 Torsion [N]-C--CA-[N] |==|  0.23292
USER: genes 22 Torsion [C]-CA--CB-[CG] |==|  0.85059
USER: genes 23 Torsion [CA]-CB--CG-[CD1] |==|  0.84382
USER: genes 24 Torsion [C]-CA--N-[C] |==|  0.66449
USER: genes 25 Torsion [N]-C--CA-[N] |==|  0.19306
USER: genes 26 Torsion [C]-CA--CB-[CG] |==|  0.76479
USER: genes 27 Torsion [CA]-CB--CG-[CD] |==|  0.36079
USER: genes 28 Torsion [CB]-CG--CD-[NE] |==|  0.40973
USER: genes 29 Torsion [CG]-CD--NE-[HE] |==|  0.71988
ROOT
ATOM      1  CA  THR G   7      38.099  14.514  -4.899  1.00 26.40 LIG 0.20  C 
ENDROOT
BRANCH 1 2
ATOM      2  C   THR G   7      39.494  14.170  -5.394  1.00 25.30 LIG 0.24  C 
ATOM      3  N   THR G   8      40.514  14.721  -4.742  1.00 15.59 LIG-0.34  N 
ATOM      4 H    THR G   8      40.435  15.256  -4.073  1.00 15.59 LIG 0.16  HD
ATOM      5 O    THR G   7      39.651  13.422  -6.361  1.00 25.63 LIG-0.27  OA
BRANCH 3 6
ATOM      6  CA  THR G   8      41.885  14.435  -5.143  1.00 11.76 LIG 0.20  C 
BRANCH 6 7
ATOM      7  CB  THR G   8      42.149  14.777  -6.626  1.00 16.39 LIG 0.15  C 
ATOM      8  CG2 THR G   8      41.792  16.227  -6.903  1.00 20.98 LIG 0.04  C 
BRANCH 7 9
ATOM      9 OG1  THR G   8      43.529  14.569  -6.949  1.00 14.98 LIG-0.39  OA
ATOM     10 HG1  THR G   8      43.927  14.248  -6.282  1.00 14.98 LIG 0.21  HD
ENDBRANCH 7 9
ENDBRANCH 6 7
BRANCH 6 11
ATOM     11  C   THR G   8      42.858  15.212  -4.282  1.00 14.98 LIG 0.24  C 
ATOM     12 O    THR G   8      43.286  16.307  -4.650  1.00 17.64 LIG-0.27  OA
ATOM     13  N   ARG G   9      43.216  14.657  -3.130  1.00 15.79 LIG-0.35  N 
ATOM     14 H    ARG G   9      42.924  13.904  -2.836  1.00 15.79 LIG 0.16  HD
BRANCH 13 15
ATOM     15  CA  ARG G   9      44.169  15.332  -2.268  1.00 12.84 LIG 0.18  C 
BRANCH 15 16
ATOM     16  C   ARG G   9      45.582  14.952  -2.675  1.00 12.32 LIG 0.24  C 
ATOM     17  N   LEU G  10      45.859  15.024  -3.971  1.00 12.88 LIG-0.34  N 
ATOM     18 H    LEU G  10      45.306  15.311  -4.564  1.00 12.88 LIG 0.16  HD
ATOM     19 O    ARG G   9      46.397  14.580  -1.827  1.00 17.68 LIG-0.27  OA
BRANCH 17 20
ATOM     20  CA  LEU G  10      47.151  14.614  -4.501  1.00 16.59 LIG 0.18  C 
BRANCH 20 21
ATOM     21  CB  LEU G  10      47.445  13.159  -4.158  1.00 15.66 LIG 0.04  C 
BRANCH 21 22
ATOM     22  CG  LEU G  10      48.898  12.803  -3.873  1.00 23.51 LIG-0.02  C 
ATOM     23  CD1 LEU G  10      49.444  11.995  -5.021  1.00 20.87 LIG 0.01  C 
ATOM     24  CD2 LEU G  10      49.704  14.078  -3.664  1.00 22.37 LIG 0.01  C 
ENDBRANCH 21 22
ENDBRANCH 20 21
BRANCH 20 25
ATOM     25  C   LEU G  10      47.196  14.769  -6.001  1.00 15.89 LIG 0.20  C 
ATOM     26 OXT  LEU G  10      47.152  15.894  -6.486  1.00 24.01 LIG-0.65  OA
ATOM     27 O    LEU G  10      47.300  13.788  -6.746  1.00 15.92 LIG-0.65  OA
ENDBRANCH 20 25
ENDBRANCH 17 20
ENDBRANCH 15 16
BRANCH 15 28
ATOM     28  CB  ARG G   9      43.932  14.999  -0.796  1.00 18.79 LIG 0.04  C 
BRANCH 28 29
ATOM     29  CG  ARG G   9      43.144  16.071  -0.073  1.00 22.18 LIG 0.02  C 
BRANCH 29 30
ATOM     30  CD  ARG G   9      41.699  16.116  -0.525  1.00 31.14 LIG 0.14  C 
BRANCH 30 31
ATOM     31  NE  ARG G   9      41.126  17.444  -0.331  1.00 29.63 LIG-0.23  N 
ATOM     32  CZ  ARG G   9      40.385  17.783   0.715  1.00 25.64 LIG 0.67  C 
ATOM     33  NH2 ARG G   9      39.900  19.013   0.820  1.00 30.24 LIG-0.23  N 
ATOM     34  NH1 ARG G   9      40.121  16.884   1.651  1.00 28.33 LIG-0.23  N 
ATOM     35 1HH2 ARG G   9      40.066  19.594   0.208  1.00 30.24 LIG 0.17  HD
ATOM     36 2HH2 ARG G   9      39.420  19.229   1.500  1.00 30.24 LIG 0.17  HD
ATOM     37 1HH1 ARG G   9      40.430  16.085   1.579  1.00 28.33 LIG 0.17  HD
ATOM     38 2HH1 ARG G   9      39.640  17.099   2.331  1.00 28.33 LIG 0.17  HD
ATOM     39 HE   ARG G   9      41.278  18.042  -0.931  1.00 29.63 LIG 0.18  HD
ENDBRANCH 30 31
ENDBRANCH 29 30
ENDBRANCH 28 29
ENDBRANCH 15 28
ENDBRANCH 13 15
ENDBRANCH 6 11
ENDBRANCH 3 6
ENDBRANCH 1 2
BRANCH 1 40
ATOM     40  CB  THR G   7      37.059  13.979  -5.904  1.00 34.82 LIG 0.15  C 
ATOM     41  CG2 THR G   7      36.660  12.556  -5.553  1.00 38.74 LIG 0.04  C 
BRANCH 40 42
ATOM     42 OG1  THR G   7      35.892  14.814  -5.879  1.00 40.69 LIG-0.39  OA
ATOM     43 HG1  THR G   7      35.773  15.106  -5.100  1.00 40.69 LIG 0.21  HD
ENDBRANCH 40 42
ENDBRANCH 1 40
BRANCH 1 44
ATOM     44  N   THR G   7      37.993  15.957  -4.732  1.00 22.98 LIG-0.34  N 
ATOM     45  C   PRO G   6      38.388  16.816  -5.665  1.00 24.87 LIG 0.24  C 
ATOM     46 O    PRO G   6      38.954  16.490  -6.707  1.00 25.14 LIG-0.27  OA
ATOM     47 H    THR G   7      37.654  16.197  -3.979  1.00 22.98 LIG 0.16  HD
BRANCH 45 48
ATOM     48  CA  PRO G   6      38.135  18.288  -5.387  1.00 32.16 LIG 0.18  C 
ATOM     49  N   PRO G   6      36.774  18.456  -4.873  1.00 31.00 LIG-0.34  N 
ATOM     50  CD  PRO G   6      36.765  18.875  -3.463  1.00 36.67 LIG 0.13  C 
ATOM     51  C   TRP G   5      35.727  18.085  -5.620  1.00 25.71 LIG 0.24  C 
ATOM     52  CG  PRO G   6      38.164  18.556  -3.012  1.00 44.45 LIG 0.02  C 
ATOM     53  CB  PRO G   6      39.012  18.752  -4.219  1.00 38.26 LIG 0.04  C 
ATOM     54 O    TRP G   5      35.847  17.651  -6.768  1.00 31.33 LIG-0.27  OA
BRANCH 51 55
ATOM     55  CA  TRP G   5      34.352  18.214  -4.988  1.00 33.03 LIG 0.18  C 
BRANCH 55 56
ATOM     56  CB  TRP G   5      33.395  17.218  -5.642  1.00 34.46 LIG 0.07  C 
BRANCH 56 57
ATOM     57  CG  TRP G   5      33.335  17.320  -7.137  1.00 31.46 LIG-0.03  A 
ATOM     58  CD2 TRP G   5      33.571  16.263  -8.077  1.00 33.83 LIG-0.00  A 
ATOM     59  CE3 TRP G   5      33.918  14.915  -7.951  1.00 34.43 LIG 0.01  A 
ATOM     60  CE2 TRP G   5      33.409  16.805  -9.369  1.00 38.54 LIG 0.04  A 
ATOM     61  CZ3 TRP G   5      34.085  14.159  -9.098  1.00 33.62 LIG 0.00  A 
ATOM     62  CH2 TRP G   5      33.913  14.722 -10.367  1.00 35.83 LIG 0.00  A 
ATOM     63  CZ2 TRP G   5      33.570  16.039 -10.526  1.00 36.99 LIG 0.03  A 
ATOM     64  NE1 TRP G   5      33.077  18.128  -9.220  1.00 38.15 LIG-0.36  N 
ATOM     65  CD1 TRP G   5      33.033  18.429  -7.876  1.00 30.20 LIG 0.10  A 
ATOM     66 HE1  TRP G   5      32.921  18.679  -9.861  1.00 38.15 LIG 0.17  HD
ENDBRANCH 56 57
ENDBRANCH 55 56
BRANCH 55 67
ATOM     67  N   TRP G   5      33.867  19.578  -5.148  1.00 35.55 LIG-0.34  N 
ATOM     68 H    TRP G   5      33.801  19.839  -5.964  1.00 35.55 LIG 0.16  HD
ATOM     69  C   ARG G   4      33.560  20.335  -4.100  1.00 46.16 LIG 0.26  C 
ATOM     70 O    ARG G   4      33.556  19.912  -2.941  1.00 51.01 LIG-0.27  OA
BRANCH 69 71
ATOM     71  CA  ARG G   4      33.174  21.776  -4.411  1.00 46.30 LIG 0.40  C 
ATOM     72  N   ARG G   4      31.882  21.842  -5.090  1.00 41.08 LIG 0.61  N 
BRANCH 71 73
ATOM     73  CB  ARG G   4      33.143  22.602  -3.124  1.00 45.78 LIG 0.05  C 
BRANCH 73 74
ATOM     74  CG  ARG G   4      31.820  22.495  -2.383  1.00 42.28 LIG 0.02  C 
BRANCH 74 75
ATOM     75  CD  ARG G   4      32.058  22.163  -0.918  1.00 34.41 LIG 0.14  C 
BRANCH 75 76
ATOM     76  NE  ARG G   4      31.044  22.763  -0.055  1.00 34.91 LIG-0.23  N 
ATOM     77 HE   ARG G   4      31.247  23.483   0.369  1.00 34.91 LIG 0.18  HD
ATOM     78  CZ  ARG G   4      29.827  22.259   0.112  1.00 31.49 LIG 0.67  C 
ATOM     79  NH1 ARG G   4      29.478  21.149  -0.526  1.00 30.98 LIG-0.23  N 
ATOM     80  NH2 ARG G   4      28.957  22.857   0.911  1.00 25.73 LIG-0.23  N 
ATOM     81 2HH1 ARG G   4      28.690  20.821  -0.419  1.00 30.98 LIG 0.17  HD
ATOM     82 1HH1 ARG G   4      30.040  20.758  -1.046  1.00 30.98 LIG 0.17  HD
ATOM     83 1HH2 ARG G   4      29.179  23.577   1.326  1.00 25.73 LIG 0.17  HD
ATOM     84 2HH2 ARG G   4      28.171  22.526   1.015  1.00 25.73 LIG 0.17  HD
ENDBRANCH 75 76
ENDBRANCH 74 75
ENDBRANCH 73 74
ENDBRANCH 71 73
ENDBRANCH 69 71
ENDBRANCH 55 67
ENDBRANCH 51 55
ENDBRANCH 45 48
ENDBRANCH 1 44
TORSDOF 28
ENDMDL
MODEL 5
USER: ADFR SOLUTION from run 55
USER: SCORE 21.127910 LL:  -6.226 LR: -17.561 RR:   0.000 FEB:  -9.209
USER: RMSD 14.135084
USER: SEED 54
USER: STATUS no improvement in best in 3 clusters for 5 generations
USER: GENES 30
USER: genes 0 Translation |==|  0.38786 0.50428 0.31333
USER: genes 1 Rotation |==|  0.55383 0.00455 0.50761 0.53971
USER: genes 2 Torsion [N]-CA--C-[N] |==|  0.14595
USER: genes 3 Torsion [C]-N--CA-[CB] |==|  0.46189
USER: genes 4 Torsion [N]-CA--CB-[CG2] |==|  0.61739
USER: genes 5 Torsion [CA]-CB--OG1-[HG1] |==|  0.04924
USER: genes 6 Torsion [N]-CA--C-[N] |==|  0.83112
USER: genes 7 Torsion [C]-N--CA-[C] |==|  0.74164
USER: genes 8 Torsion [N]-CA--C-[N] |==|  0.14870
USER: genes 9 Torsion [C]-N--CA-[CB] |==|  0.48864
USER: genes 10 Torsion [N]-CA--CB-[CG] |==|  0.56761
USER: genes 11 Torsion [CA]-CB--CG-[CD1] |==|  0.11958
USER: genes 12 Torsion [N]-CA--C-[OXT] |==|  0.81222
USER: genes 13 Torsion [N]-CA--CB-[CG] |==|  0.58304
USER: genes 14 Torsion [CA]-CB--CG-[CD] |==|  0.83703
USER: genes 15 Torsion [CB]-CG--CD-[NE] |==|  0.78494
USER: genes 16 Torsion [CG]-CD--NE-[CZ] |==|  0.41513
USER: genes 17 Torsion [C]-CA--CB-[CG2] |==|  0.43931
USER: genes 18 Torsion [CA]-CB--OG1-[HG1] |==|  0.17168
USER: genes 19 Torsion [C]-CA--N-[C] |==|  0.55119
USER: genes 20 Torsion [N]-C--CA-[N] |==|  0.27570
USER: genes 21 Torsion [N]-C--CA-[N] |==|  0.40959
USER: genes 22 Torsion [C]-CA--CB-[CG] |==|  0.24913
USER: genes 23 Torsion [CA]-CB--CG-[CD1] |==|  0.68505
USER: genes 24 Torsion [C]-CA--N-[C] |==|  0.75223
USER: genes 25 Torsion [N]-C--CA-[N] |==|  0.54329
USER: genes 26 Torsion [C]-CA--CB-[CG] |==|  0.82700
USER: genes 27 Torsion [CA]-CB--CG-[CD] |==|  0.55482
USER: genes 28 Torsion [CB]-CG--CD-[NE] |==|  0.49472
USER: genes 29 Torsion [CG]-CD--NE-[HE] |==|  0.12567
ROOT
ATOM      1  CA  THR G   7      40.891  15.129  -5.386  1.00 26.40 LIG 0.20  C 
ENDROOT
BRANCH 1 2
ATOM      2  C   THR G   7      41.587  15.888  -4.267  1.00 25.30 LIG 0.24  C 
ATOM      3  N   THR G   8      41.544  15.341  -3.056  1.00 15.59 LIG-0.34  N 
ATOM      4 H    THR G   8      41.149  14.601  -2.867  1.00 15.59 LIG 0.16  HD
ATOM      5 O    THR G   7      42.149  16.961  -4.492  1.00 25.63 LIG-0.27  OA
BRANCH 3 6
ATOM      6  CA  THR G   8      42.196  15.996  -1.930  1.00 11.76 LIG 0.20  C 
BRANCH 6 7
ATOM      7  CB  THR G   8      41.760  15.404  -0.570  1.00 16.39 LIG 0.15  C 
ATOM      8  CG2 THR G   8      41.527  16.516   0.438  1.00 20.98 LIG 0.04  C 
BRANCH 7 9
ATOM      9 OG1  THR G   8      40.551  14.651  -0.718  1.00 14.98 LIG-0.39  OA
ATOM     10 HG1  THR G   8      40.433  14.465  -1.529  1.00 14.98 LIG 0.21  HD
ENDBRANCH 7 9
ENDBRANCH 6 7
BRANCH 6 11
ATOM     11  C   THR G   8      43.701  15.880  -2.052  1.00 14.98 LIG 0.24  C 
ATOM     12 O    THR G   8      44.404  16.888  -2.135  1.00 17.64 LIG-0.27  OA
ATOM     13  N   ARG G   9      44.208  14.653  -2.063  1.00 15.79 LIG-0.35  N 
ATOM     14 H    ARG G   9      43.749  13.930  -1.990  1.00 15.79 LIG 0.16  HD
BRANCH 13 15
ATOM     15  CA  ARG G   9      45.641  14.466  -2.208  1.00 12.84 LIG 0.18  C 
BRANCH 15 16
ATOM     16  C   ARG G   9      45.984  14.277  -3.675  1.00 12.32 LIG 0.24  C 
ATOM     17  N   LEU G  10      45.547  15.216  -4.505  1.00 12.88 LIG-0.34  N 
ATOM     18 H    LEU G  10      45.132  15.925  -4.251  1.00 12.88 LIG 0.16  HD
ATOM     19 O    ARG G   9      46.616  13.285  -4.046  1.00 17.68 LIG-0.27  OA
BRANCH 17 20
ATOM     20  CA  LEU G  10      45.742  15.115  -5.944  1.00 16.59 LIG 0.18  C 
BRANCH 20 21
ATOM     21  CB  LEU G  10      45.059  16.268  -6.670  1.00 15.66 LIG 0.04  C 
BRANCH 21 22
ATOM     22  CG  LEU G  10      44.675  16.030  -8.124  1.00 23.51 LIG-0.02  C 
ATOM     23  CD1 LEU G  10      44.072  14.655  -8.256  1.00 20.87 LIG 0.01  C 
ATOM     24  CD2 LEU G  10      43.698  17.106  -8.577  1.00 22.37 LIG 0.01  C 
ENDBRANCH 21 22
ENDBRANCH 20 21
BRANCH 20 25
ATOM     25  C   LEU G  10      47.209  15.132  -6.296  1.00 15.89 LIG 0.20  C 
ATOM     26 OXT  LEU G  10      47.854  16.158  -6.112  1.00 24.01 LIG-0.65  OA
ATOM     27 O    LEU G  10      47.775  14.127  -6.742  1.00 15.92 LIG-0.65  OA
ENDBRANCH 20 25
ENDBRANCH 17 20
ENDBRANCH 15 16
BRANCH 15 28
ATOM     28  CB  ARG G   9      46.139  13.276  -1.389  1.00 18.79 LIG 0.04  C 
BRANCH 28 29
ATOM     29  CG  ARG G   9      47.569  13.448  -0.919  1.00 22.18 LIG 0.02  C 
BRANCH 29 30
ATOM     30  CD  ARG G   9      48.528  13.637  -2.076  1.00 31.14 LIG 0.14  C 
BRANCH 30 31
ATOM     31  NE  ARG G   9      48.816  12.368  -2.735  1.00 29.63 LIG-0.23  N 
ATOM     32  CZ  ARG G   9      49.101  12.255  -4.026  1.00 25.64 LIG 0.67  C 
ATOM     33  NH2 ARG G   9      49.353  11.064  -4.553  1.00 30.24 LIG-0.23  N 
ATOM     34  NH1 ARG G   9      49.122  13.335  -4.791  1.00 28.33 LIG-0.23  N 
ATOM     35 1HH2 ARG G   9      49.332  10.361  -4.057  1.00 30.24 LIG 0.17  HD
ATOM     36 2HH2 ARG G   9      49.538  10.994  -5.389  1.00 30.24 LIG 0.17  HD
ATOM     37 1HH1 ARG G   9      48.952  14.107  -4.450  1.00 28.33 LIG 0.17  HD
ATOM     38 2HH1 ARG G   9      49.306  13.267  -5.628  1.00 28.33 LIG 0.17  HD
ATOM     39 HE   ARG G   9      48.801  11.651  -2.260  1.00 29.63 LIG 0.18  HD
ENDBRANCH 30 31
ENDBRANCH 29 30
ENDBRANCH 28 29
ENDBRANCH 15 28
ENDBRANCH 13 15
ENDBRANCH 6 11
ENDBRANCH 3 6
ENDBRANCH 1 2
BRANCH 1 40
ATOM     40  CB  THR G   7      40.935  15.974  -6.675  1.00 34.82 LIG 0.15  C 
ATOM     41  CG2 THR G   7      40.759  15.092  -7.899  1.00 38.74 LIG 0.04  C 
BRANCH 40 42
ATOM     42 OG1  THR G   7      39.885  16.951  -6.645  1.00 40.69 LIG-0.39  OA
ATOM     43 HG1  THR G   7      40.000  17.468  -5.993  1.00 40.69 LIG 0.21  HD
ENDBRANCH 40 42
ENDBRANCH 1 40
BRANCH 1 44
ATOM     44  N   THR G   7      39.524  14.832  -4.984  1.00 22.98 LIG-0.34  N 
ATOM     45  C   PRO G   6      38.792  13.894  -5.574  1.00 24.87 LIG 0.24  C 
ATOM     46 O    PRO G   6      39.156  13.254  -6.560  1.00 25.14 LIG-0.27  OA
ATOM     47 H    THR G   7      39.238  15.317  -4.334  1.00 22.98 LIG 0.16  HD
BRANCH 45 48
ATOM     48  CA  PRO G   6      37.414  13.636  -4.991  1.00 32.16 LIG 0.18  C 
ATOM     49  N   PRO G   6      36.410  14.337  -5.795  1.00 31.00 LIG-0.34  N 
ATOM     50  CD  PRO G   6      35.541  13.403  -6.527  1.00 36.67 LIG 0.13  C 
ATOM     51  C   TRP G   5      36.463  15.669  -5.920  1.00 25.71 LIG 0.24  C 
ATOM     52  CG  PRO G   6      36.313  12.113  -6.468  1.00 44.45 LIG 0.02  C 
ATOM     53  CB  PRO G   6      37.042  12.161  -5.171  1.00 38.26 LIG 0.04  C 
ATOM     54 O    TRP G   5      37.299  16.360  -5.333  1.00 31.33 LIG-0.27  OA
BRANCH 51 55
ATOM     55  CA  TRP G   5      35.438  16.314  -6.835  1.00 33.03 LIG 0.18  C 
BRANCH 55 56
ATOM     56  CB  TRP G   5      36.007  16.409  -8.250  1.00 34.46 LIG 0.07  C 
BRANCH 56 57
ATOM     57  CG  TRP G   5      35.724  15.211  -9.104  1.00 31.46 LIG-0.03  A 
ATOM     58  CD2 TRP G   5      34.441  14.787  -9.587  1.00 33.83 LIG-0.00  A 
ATOM     59  CE3 TRP G   5      33.141  15.277  -9.437  1.00 34.43 LIG 0.01  A 
ATOM     60  CE2 TRP G   5      34.644  13.616 -10.346  1.00 38.54 LIG 0.04  A 
ATOM     61  CZ3 TRP G   5      32.098  14.598 -10.045  1.00 33.62 LIG 0.00  A 
ATOM     62  CH2 TRP G   5      32.329  13.441 -10.797  1.00 35.83 LIG 0.00  A 
ATOM     63  CZ2 TRP G   5      33.592  12.937 -10.966  1.00 36.99 LIG 0.03  A 
ATOM     64  NE1 TRP G   5      35.989  13.348 -10.337  1.00 38.15 LIG-0.36  N 
ATOM     65  CD1 TRP G   5      36.631  14.311  -9.590  1.00 30.20 LIG 0.10  A 
ATOM     66 HE1  TRP G   5      36.370  12.686 -10.733  1.00 38.15 LIG 0.17  HD
ENDBRANCH 56 57
ENDBRANCH 55 56
BRANCH 55 67
ATOM     67  N   TRP G   5      35.092  17.635  -6.327  1.00 35.55 LIG-0.34  N 
ATOM     68 H    TRP G   5      35.578  18.273  -6.636  1.00 35.55 LIG 0.16  HD
ATOM     69  C   ARG G   4      34.103  17.809  -5.458  1.00 46.16 LIG 0.26  C 
ATOM     70 O    ARG G   4      33.345  16.901  -5.106  1.00 51.01 LIG-0.27  OA
BRANCH 69 71
ATOM     71  CA  ARG G   4      33.927  19.226  -4.926  1.00 46.30 LIG 0.40  C 
ATOM     72  N   ARG G   4      33.082  19.243  -3.734  1.00 41.08 LIG 0.61  N 
BRANCH 71 73
ATOM     73  CB  ARG G   4      35.290  19.848  -4.621  1.00 45.78 LIG 0.05  C 
BRANCH 73 74
ATOM     74  CG  ARG G   4      36.054  19.100  -3.540  1.00 42.28 LIG 0.02  C 
BRANCH 74 75
ATOM     75  CD  ARG G   4      37.132  19.991  -2.940  1.00 34.41 LIG 0.14  C 
BRANCH 75 76
ATOM     76  NE  ARG G   4      37.856  19.316  -1.866  1.00 34.91 LIG-0.23  N 
ATOM     77 HE   ARG G   4      38.111  18.505  -1.996  1.00 34.91 LIG 0.18  HD
ATOM     78  CZ  ARG G   4      38.143  19.884  -0.701  1.00 31.49 LIG 0.67  C 
ATOM     79  NH1 ARG G   4      37.767  21.134  -0.465  1.00 30.98 LIG-0.23  N 
ATOM     80  NH2 ARG G   4      38.804  19.211   0.228  1.00 25.73 LIG-0.23  N 
ATOM     81 2HH1 ARG G   4      37.953  21.504   0.289  1.00 30.98 LIG 0.17  HD
ATOM     82 1HH1 ARG G   4      37.338  21.575  -1.066  1.00 30.98 LIG 0.17  HD
ATOM     83 1HH2 ARG G   4      39.051  18.401   0.079  1.00 25.73 LIG 0.17  HD
ATOM     84 2HH2 ARG G   4      38.987  19.585   0.980  1.00 25.73 LIG 0.17  HD
ENDBRANCH 75 76
ENDBRANCH 74 75
ENDBRANCH 73 74
ENDBRANCH 71 73
ENDBRANCH 69 71
ENDBRANCH 55 67
ENDBRANCH 51 55
ENDBRANCH 45 48
ENDBRANCH 1 44
TORSDOF 28
ENDMDL
MODEL 6
USER: ADFR SOLUTION from run 95
USER: SCORE 21.565936 LL:  -6.200 LR: -17.519 RR:   0.000 FEB:  -9.167
USER: RMSD 11.210826
USER: SEED 94
USER: STATUS no improvement in best in 6 clusters for 5 generations
USER: GENES 30
USER: genes 0 Translation |==|  0.40752 0.53150 0.48230
USER: genes 1 Rotation |==|  0.36958 0.08159 0.62355 0.70653
USER: genes 2 Torsion [N]-CA--C-[N] |==|  0.41967
USER: genes 3 Torsion [C]-N--CA-[CB] |==|  0.44876
USER: genes 4 Torsion [N]-CA--CB-[CG2] |==|  0.60843
USER: genes 5 Torsion [CA]-CB--OG1-[HG1] |==|  0.56732
USER: genes 6 Torsion [N]-CA--C-[N] |==|  0.62466
USER: genes 7 Torsion [C]-N--CA-[C] |==|  0.76548
USER: genes 8 Torsion [N]-CA--C-[N] |==|  0.23182
USER: genes 9 Torsion [C]-N--CA-[CB] |==|  0.48289
USER: genes 10 Torsion [N]-CA--CB-[CG] |==|  0.64648
USER: genes 11 Torsion [CA]-CB--CG-[CD1] |==|  0.15387
USER: genes 12 Torsion [N]-CA--C-[OXT] |==|  0.35585
USER: genes 13 Torsion [N]-CA--CB-[CG] |==|  0.97539
USER: genes 14 Torsion [CA]-CB--CG-[CD] |==|  0.36215
USER: genes 15 Torsion [CB]-CG--CD-[NE] |==|  0.94007
USER: genes 16 Torsion [CG]-CD--NE-[CZ] |==|  0.63468
USER: genes 17 Torsion [C]-CA--CB-[CG2] |==|  0.97208
USER: genes 18 Torsion [CA]-CB--OG1-[HG1] |==|  0.91246
USER: genes 19 Torsion [C]-CA--N-[C] |==|  0.81865
USER: genes 20 Torsion [N]-C--CA-[N] |==|  0.51904
USER: genes 21 Torsion [N]-C--CA-[N] |==|  0.30000
USER: genes 22 Torsion [C]-CA--CB-[CG] |==|  0.12714
USER: genes 23 Torsion [CA]-CB--CG-[CD1] |==|  0.63507
USER: genes 24 Torsion [C]-CA--N-[C] |==|  0.78230
USER: genes 25 Torsion [N]-C--CA-[N] |==|  0.56800
USER: genes 26 Torsion [C]-CA--CB-[CG] |==|  0.52890
USER: genes 27 Torsion [CA]-CB--CG-[CD] |==|  0.36324
USER: genes 28 Torsion [CB]-CG--CD-[NE] |==|  0.81297
USER: genes 29 Torsion [CG]-CD--NE-[HE] |==|  0.07239
ROOT
ATOM      1  CA  THR G   7      41.555  15.782  -1.457  1.00 26.40 LIG 0.20  C 
ENDROOT
BRANCH 1 2
ATOM      2  C   THR G   7      43.052  16.040  -1.517  1.00 25.30 LIG 0.24  C 
ATOM      3  N   THR G   8      43.830  14.992  -1.773  1.00 15.59 LIG-0.34  N 
ATOM      4 H    THR G   8      43.545  14.190  -1.897  1.00 15.59 LIG 0.16  HD
ATOM      5 O    THR G   7      43.503  17.171  -1.328  1.00 25.63 LIG-0.27  OA
BRANCH 3 6
ATOM      6  CA  THR G   8      45.275  15.153  -1.860  1.00 11.76 LIG 0.20  C 
BRANCH 6 7
ATOM      7  CB  THR G   8      46.028  13.812  -1.706  1.00 16.39 LIG 0.15  C 
ATOM      8  CG2 THR G   8      47.290  14.008  -0.884  1.00 20.98 LIG 0.04  C 
BRANCH 7 9
ATOM      9 OG1  THR G   8      45.196  12.844  -1.058  1.00 14.98 LIG-0.39  OA
ATOM     10 HG1  THR G   8      45.678  12.264  -0.687  1.00 14.98 LIG 0.21  HD
ENDBRANCH 7 9
ENDBRANCH 6 7
BRANCH 6 11
ATOM     11  C   THR G   8      45.656  15.776  -3.187  1.00 14.98 LIG 0.24  C 
ATOM     12 O    THR G   8      45.032  16.742  -3.629  1.00 17.64 LIG-0.27  OA
ATOM     13  N   ARG G   9      46.680  15.233  -3.833  1.00 15.79 LIG-0.35  N 
ATOM     14 H    ARG G   9      47.147  14.570  -3.546  1.00 15.79 LIG 0.16  HD
BRANCH 13 15
ATOM     15  CA  ARG G   9      47.081  15.760  -5.125  1.00 12.84 LIG 0.18  C 
BRANCH 15 16
ATOM     16  C   ARG G   9      46.232  15.134  -6.217  1.00 12.32 LIG 0.24  C 
ATOM     17  N   LEU G  10      45.048  15.693  -6.433  1.00 12.88 LIG-0.34  N 
ATOM     18 H    LEU G  10      44.770  16.399  -6.028  1.00 12.88 LIG 0.16  HD
ATOM     19 O    ARG G   9      46.638  14.147  -6.835  1.00 17.68 LIG-0.27  OA
BRANCH 17 20
ATOM     20  CA  LEU G  10      44.107  15.143  -7.398  1.00 16.59 LIG 0.18  C 
BRANCH 20 21
ATOM     21  CB  LEU G  10      42.774  15.881  -7.342  1.00 15.66 LIG 0.04  C 
BRANCH 21 22
ATOM     22  CG  LEU G  10      41.526  15.026  -7.167  1.00 23.51 LIG-0.02  C 
ATOM     23  CD1 LEU G  10      41.679  14.176  -5.932  1.00 20.87 LIG 0.01  C 
ATOM     24  CD2 LEU G  10      40.302  15.925  -7.069  1.00 22.37 LIG 0.01  C 
ENDBRANCH 21 22
ENDBRANCH 20 21
BRANCH 20 25
ATOM     25  C   LEU G  10      44.649  15.242  -8.803  1.00 15.89 LIG 0.20  C 
ATOM     26 OXT  LEU G  10      44.670  14.238  -9.505  1.00 24.01 LIG-0.65  OA
ATOM     27 O    LEU G  10      45.047  16.318  -9.263  1.00 15.92 LIG-0.65  OA
ENDBRANCH 20 25
ENDBRANCH 17 20
ENDBRANCH 15 16
BRANCH 15 28
ATOM     28  CB  ARG G   9      48.564  15.514  -5.398  1.00 18.79 LIG 0.04  C 
BRANCH 28 29
ATOM     29  CG  ARG G   9      49.301  14.980  -4.187  1.00 22.18 LIG 0.02  C 
BRANCH 29 30
ATOM     30  CD  ARG G   9      50.127  13.754  -4.519  1.00 31.14 LIG 0.14  C 
BRANCH 30 31
ATOM     31  NE  ARG G   9      49.639  13.101  -5.730  1.00 29.63 LIG-0.23  N 
ATOM     32  CZ  ARG G   9      49.407  11.798  -5.823  1.00 25.64 LIG 0.67  C 
ATOM     33  NH2 ARG G   9      48.963  11.279  -6.959  1.00 30.24 LIG-0.23  N 
ATOM     34  NH1 ARG G   9      49.631  11.015  -4.779  1.00 28.33 LIG-0.23  N 
ATOM     35 1HH2 ARG G   9      48.824  11.787  -7.639  1.00 30.24 LIG 0.17  HD
ATOM     36 2HH2 ARG G   9      48.813  10.434  -7.016  1.00 30.24 LIG 0.17  HD
ATOM     37 1HH1 ARG G   9      49.926  11.352  -4.044  1.00 28.33 LIG 0.17  HD
ATOM     38 2HH1 ARG G   9      49.483  10.170  -4.835  1.00 28.33 LIG 0.17  HD
ATOM     39 HE   ARG G   9      49.494  13.589  -6.423  1.00 29.63 LIG 0.18  HD
ENDBRANCH 30 31
ENDBRANCH 29 30
ENDBRANCH 28 29
ENDBRANCH 15 28
ENDBRANCH 13 15
ENDBRANCH 6 11
ENDBRANCH 3 6
ENDBRANCH 1 2
BRANCH 1 40
ATOM     40  CB  THR G   7      40.967  15.883  -2.880  1.00 34.82 LIG 0.15  C 
ATOM     41  CG2 THR G   7      41.998  16.444  -3.845  1.00 38.74 LIG 0.04  C 
BRANCH 40 42
ATOM     42 OG1  THR G   7      40.566  14.581  -3.327  1.00 40.69 LIG-0.39  OA
ATOM     43 HG1  THR G   7      41.070  14.000  -2.989  1.00 40.69 LIG 0.21  HD
ENDBRANCH 40 42
ENDBRANCH 1 40
BRANCH 1 44
ATOM     44  N   THR G   7      40.940  16.743  -0.552  1.00 22.98 LIG-0.34  N 
ATOM     45  C   PRO G   6      41.199  16.765   0.751  1.00 24.87 LIG 0.24  C 
ATOM     46 O    PRO G   6      41.900  15.936   1.329  1.00 25.14 LIG-0.27  OA
ATOM     47 H    THR G   7      40.399  17.289  -0.937  1.00 22.98 LIG 0.16  HD
BRANCH 45 48
ATOM     48  CA  PRO G   6      40.551  17.878   1.555  1.00 32.16 LIG 0.18  C 
ATOM     49  N   PRO G   6      41.069  17.849   2.925  1.00 31.00 LIG-0.34  N 
ATOM     50  CD  PRO G   6      41.902  19.024   3.224  1.00 36.67 LIG 0.13  C 
ATOM     51  C   TRP G   5      40.894  16.759   3.683  1.00 25.71 LIG 0.24  C 
ATOM     52  CG  PRO G   6      42.215  19.568   1.857  1.00 44.45 LIG 0.02  C 
ATOM     53  CB  PRO G   6      41.022  19.238   1.030  1.00 38.26 LIG 0.04  C 
ATOM     54 O    TRP G   5      40.254  15.777   3.301  1.00 31.33 LIG-0.27  OA
BRANCH 51 55
ATOM     55  CA  TRP G   5      41.530  16.773   5.062  1.00 33.03 LIG 0.18  C 
BRANCH 55 56
ATOM     56  CB  TRP G   5      42.325  15.485   5.268  1.00 34.46 LIG 0.07  C 
BRANCH 56 57
ATOM     57  CG  TRP G   5      43.193  15.109   4.105  1.00 31.46 LIG-0.03  A 
ATOM     58  CD2 TRP G   5      44.111  15.964   3.410  1.00 33.83 LIG-0.00  A 
ATOM     59  CE3 TRP G   5      44.475  17.306   3.545  1.00 34.43 LIG 0.01  A 
ATOM     60  CE2 TRP G   5      44.709  15.196   2.389  1.00 38.54 LIG 0.04  A 
ATOM     61  CZ3 TRP G   5      45.413  17.834   2.673  1.00 33.62 LIG 0.00  A 
ATOM     62  CH2 TRP G   5      45.993  17.048   1.672  1.00 35.83 LIG 0.00  A 
ATOM     63  CZ2 TRP G   5      45.661  15.728   1.516  1.00 36.99 LIG 0.03  A 
ATOM     64  NE1 TRP G   5      44.187  13.930   2.467  1.00 38.15 LIG-0.36  N 
ATOM     65  CD1 TRP G   5      43.278  13.885   3.502  1.00 30.20 LIG 0.10  A 
ATOM     66 HE1  TRP G   5      44.393  13.271   1.955  1.00 38.15 LIG 0.17  HD
ENDBRANCH 56 57
ENDBRANCH 55 56
BRANCH 55 67
ATOM     67  N   TRP G   5      40.494  16.909   6.076  1.00 35.55 LIG-0.34  N 
ATOM     68 H    TRP G   5      40.287  16.176   6.474  1.00 35.55 LIG 0.16  HD
ATOM     69  C   ARG G   4      39.932  18.083   6.345  1.00 46.16 LIG 0.26  C 
ATOM     70 O    ARG G   4      40.314  19.144   5.844  1.00 51.01 LIG-0.27  OA
BRANCH 69 71
ATOM     71  CA  ARG G   4      38.785  18.057   7.347  1.00 46.30 LIG 0.40  C 
ATOM     72  N   ARG G   4      37.890  19.197   7.155  1.00 41.08 LIG 0.61  N 
BRANCH 71 73
ATOM     73  CB  ARG G   4      38.009  16.745   7.227  1.00 45.78 LIG 0.05  C 
BRANCH 73 74
ATOM     74  CG  ARG G   4      36.708  16.752   8.014  1.00 42.28 LIG 0.02  C 
BRANCH 74 75
ATOM     75  CD  ARG G   4      35.558  16.271   7.141  1.00 34.41 LIG 0.14  C 
BRANCH 75 76
ATOM     76  NE  ARG G   4      35.264  17.213   6.065  1.00 34.91 LIG-0.23  N 
ATOM     77 HE   ARG G   4      35.898  17.724   5.789  1.00 34.91 LIG 0.18  HD
ATOM     78  CZ  ARG G   4      34.073  17.326   5.490  1.00 31.49 LIG 0.67  C 
ATOM     79  NH1 ARG G   4      33.070  16.555   5.890  1.00 30.98 LIG-0.23  N 
ATOM     80  NH2 ARG G   4      33.878  18.203   4.518  1.00 25.73 LIG-0.23  N 
ATOM     81 2HH1 ARG G   4      32.298  16.626   5.518  1.00 30.98 LIG 0.17  HD
ATOM     82 1HH1 ARG G   4      33.193  15.983   6.520  1.00 30.98 LIG 0.17  HD
ATOM     83 1HH2 ARG G   4      34.525  18.705   4.255  1.00 25.73 LIG 0.17  HD
ATOM     84 2HH2 ARG G   4      33.104  18.271   4.149  1.00 25.73 LIG 0.17  HD
ENDBRANCH 75 76
ENDBRANCH 74 75
ENDBRANCH 73 74
ENDBRANCH 71 73
ENDBRANCH 69 71
ENDBRANCH 55 67
ENDBRANCH 51 55
ENDBRANCH 45 48
ENDBRANCH 1 44
TORSDOF 28
ENDMDL
MODEL 7
USER: ADFR SOLUTION from run 196
USER: SCORE 21.457405 LL:  -6.355 LR: -17.285 RR:   0.000 FEB:  -8.932
USER: RMSD 11.828766
USER: SEED 195
USER: STATUS no improvement in best in 10 clusters for 5 generations
USER: GENES 30
USER: genes 0 Translation |==|  0.34011 0.56733 0.34638
USER: genes 1 Rotation |==|  0.72665 0.60136 0.92987 0.55970
USER: genes 2 Torsion [N]-CA--C-[N] |==|  0.01781
USER: genes 3 Torsion [C]-N--CA-[CB] |==|  0.25175
USER: genes 4 Torsion [N]-CA--CB-[CG2] |==|  0.67455
USER: genes 5 Torsion [CA]-CB--OG1-[HG1] |==|  0.07773
USER: genes 6 Torsion [N]-CA--C-[N] |==|  0.20570
USER: genes 7 Torsion [C]-N--CA-[C] |==|  0.61616
USER: genes 8 Torsion [N]-CA--C-[N] |==|  0.26427
USER: genes 9 Torsion [C]-N--CA-[CB] |==|  0.40548
USER: genes 10 Torsion [N]-CA--CB-[CG] |==|  0.05288
USER: genes 11 Torsion [CA]-CB--CG-[CD1] |==|  0.37565
USER: genes 12 Torsion [N]-CA--C-[OXT] |==|  0.65949
USER: genes 13 Torsion [N]-CA--CB-[CG] |==|  0.17575
USER: genes 14 Torsion [CA]-CB--CG-[CD] |==|  0.37609
USER: genes 15 Torsion [CB]-CG--CD-[NE] |==|  0.82559
USER: genes 16 Torsion [CG]-CD--NE-[CZ] |==|  0.39593
USER: genes 17 Torsion [C]-CA--CB-[CG2] |==|  0.58249
USER: genes 18 Torsion [CA]-CB--OG1-[HG1] |==|  0.54842
USER: genes 19 Torsion [C]-CA--N-[C] |==|  0.68945
USER: genes 20 Torsion [N]-C--CA-[N] |==|  0.33898
USER: genes 21 Torsion [N]-C--CA-[N] |==|  0.29260
USER: genes 22 Torsion [C]-CA--CB-[CG] |==|  0.08894
USER: genes 23 Torsion [CA]-CB--CG-[CD1] |==|  0.65897
USER: genes 24 Torsion [C]-CA--N-[C] |==|  0.61701
USER: genes 25 Torsion [N]-C--CA-[N] |==|  0.28007
USER: genes 26 Torsion [C]-CA--CB-[CG] |==|  0.11347
USER: genes 27 Torsion [CA]-CB--CG-[CD] |==|  0.33406
USER: genes 28 Torsion [CB]-CG--CD-[NE] |==|  0.92065
USER: genes 29 Torsion [CG]-CD--NE-[HE] |==|  0.05765
ROOT
ATOM      1  CA  THR G   7      39.280  16.642  -4.618  1.00 26.40 LIG 0.20  C 
ENDROOT
BRANCH 1 2
ATOM      2  C   THR G   7      38.600  15.576  -5.462  1.00 25.30 LIG 0.24  C 
ATOM      3  N   THR G   8      37.294  15.409  -5.277  1.00 15.59 LIG-0.34  N 
ATOM      4 H    THR G   8      36.819  15.853  -4.714  1.00 15.59 LIG 0.16  HD
ATOM      5 O    THR G   7      39.247  14.905  -6.267  1.00 25.63 LIG-0.27  OA
BRANCH 3 6
ATOM      6  CA  THR G   8      36.561  14.418  -6.053  1.00 11.76 LIG 0.20  C 
BRANCH 6 7
ATOM      7  CB  THR G   8      36.519  13.038  -5.359  1.00 16.39 LIG 0.15  C 
ATOM      8  CG2 THR G   8      37.231  11.999  -6.208  1.00 20.98 LIG 0.04  C 
BRANCH 7 9
ATOM      9 OG1  THR G   8      37.154  13.104  -4.077  1.00 14.98 LIG-0.39  OA
ATOM     10 HG1  THR G   8      37.089  13.884  -3.772  1.00 14.98 LIG 0.21  HD
ENDBRANCH 7 9
ENDBRANCH 6 7
BRANCH 6 11
ATOM     11  C   THR G   8      35.142  14.884  -6.297  1.00 14.98 LIG 0.24  C 
ATOM     12 O    THR G   8      34.200  14.377  -5.684  1.00 17.64 LIG-0.27  OA
ATOM     13  N   ARG G   9      34.973  15.851  -7.191  1.00 15.79 LIG-0.35  N 
ATOM     14 H    ARG G   9      35.608  16.237  -7.623  1.00 15.79 LIG 0.16  HD
BRANCH 13 15
ATOM     15  CA  ARG G   9      33.636  16.327  -7.496  1.00 12.84 LIG 0.18  C 
BRANCH 15 16
ATOM     16  C   ARG G   9      33.499  16.536  -8.994  1.00 12.32 LIG 0.24  C 
ATOM     17  N   LEU G  10      32.976  15.529  -9.682  1.00 12.88 LIG-0.34  N 
ATOM     18 H    LEU G  10      32.678  14.806  -9.323  1.00 12.88 LIG 0.16  HD
ATOM     19 O    ARG G   9      33.884  17.585  -9.516  1.00 17.68 LIG-0.27  OA
BRANCH 17 20
ATOM     20  CA  LEU G  10      32.861  15.571 -11.133  1.00 16.59 LIG 0.18  C 
BRANCH 20 21
ATOM     21  CB  LEU G  10      33.050  14.184 -11.736  1.00 15.66 LIG 0.04  C 
BRANCH 21 22
ATOM     22  CG  LEU G  10      32.868  12.999 -10.797  1.00 23.51 LIG-0.02  C 
ATOM     23  CD1 LEU G  10      32.035  11.948 -11.484  1.00 20.87 LIG 0.01  C 
ATOM     24  CD2 LEU G  10      34.231  12.450 -10.399  1.00 22.37 LIG 0.01  C 
ENDBRANCH 21 22
ENDBRANCH 20 21
BRANCH 20 25
ATOM     25  C   LEU G  10      31.510  16.095 -11.556  1.00 15.89 LIG 0.20  C 
ATOM     26 OXT  LEU G  10      30.801  15.401 -12.275  1.00 24.01 LIG-0.65  OA
ATOM     27 O    LEU G  10      31.099  17.196 -11.172  1.00 15.92 LIG-0.65  OA
ENDBRANCH 20 25
ENDBRANCH 17 20
ENDBRANCH 15 16
BRANCH 15 28
ATOM     28  CB  ARG G   9      33.312  17.619  -6.748  1.00 18.79 LIG 0.04  C 
BRANCH 28 29
ATOM     29  CG  ARG G   9      34.214  18.768  -7.151  1.00 22.18 LIG 0.02  C 
BRANCH 29 30
ATOM     30  CD  ARG G   9      33.437  20.050  -7.370  1.00 31.14 LIG 0.14  C 
BRANCH 30 31
ATOM     31  NE  ARG G   9      32.487  19.911  -8.469  1.00 29.63 LIG-0.23  N 
ATOM     32  CZ  ARG G   9      31.278  20.457  -8.473  1.00 25.64 LIG 0.67  C 
ATOM     33  NH2 ARG G   9      30.471  20.285  -9.511  1.00 30.24 LIG-0.23  N 
ATOM     34  NH1 ARG G   9      30.874  21.166  -7.430  1.00 28.33 LIG-0.23  N 
ATOM     35 1HH2 ARG G   9      30.732  19.818 -10.185  1.00 30.24 LIG 0.17  HD
ATOM     36 2HH2 ARG G   9      29.689  20.640  -9.511  1.00 30.24 LIG 0.17  HD
ATOM     37 1HH1 ARG G   9      31.395  21.272  -6.754  1.00 28.33 LIG 0.17  HD
ATOM     38 2HH1 ARG G   9      30.091  21.521  -7.429  1.00 28.33 LIG 0.17  HD
ATOM     39 HE   ARG G   9      32.724  19.448  -9.153  1.00 29.63 LIG 0.18  HD
ENDBRANCH 30 31
ENDBRANCH 29 30
ENDBRANCH 28 29
ENDBRANCH 15 28
ENDBRANCH 13 15
ENDBRANCH 6 11
ENDBRANCH 3 6
ENDBRANCH 1 2
BRANCH 1 40
ATOM     40  CB  THR G   7      40.516  16.029  -3.929  1.00 34.82 LIG 0.15  C 
ATOM     41  CG2 THR G   7      40.787  16.721  -2.604  1.00 38.74 LIG 0.04  C 
BRANCH 40 42
ATOM     42 OG1  THR G   7      40.290  14.632  -3.691  1.00 40.69 LIG-0.39  OA
ATOM     43 HG1  THR G   7      40.838  14.353  -3.119  1.00 40.69 LIG 0.21  HD
ENDBRANCH 40 42
ENDBRANCH 1 40
BRANCH 1 44
ATOM     44  N   THR G   7      38.327  17.163  -3.648  1.00 22.98 LIG-0.34  N 
ATOM     45  C   PRO G   6      37.855  18.403  -3.704  1.00 24.87 LIG 0.24  C 
ATOM     46 O    PRO G   6      38.234  19.250  -4.511  1.00 25.14 LIG-0.27  OA
ATOM     47 H    THR G   7      38.101  16.597  -3.041  1.00 22.98 LIG 0.16  HD
BRANCH 45 48
ATOM     48  CA  PRO G   6      36.802  18.779  -2.676  1.00 32.16 LIG 0.18  C 
ATOM     49  N   PRO G   6      37.272  19.927  -1.899  1.00 31.00 LIG-0.34  N 
ATOM     50  CD  PRO G   6      36.481  21.138  -2.169  1.00 36.67 LIG 0.13  C 
ATOM     51  C   TRP G   5      38.401  19.834  -1.184  1.00 25.71 LIG 0.24  C 
ATOM     52  CG  PRO G   6      35.771  20.792  -3.450  1.00 44.45 LIG 0.02  C 
ATOM     53  CB  PRO G   6      35.556  19.321  -3.385  1.00 38.26 LIG 0.04  C 
ATOM     54 O    TRP G   5      39.050  18.790  -1.097  1.00 31.33 LIG-0.27  OA
BRANCH 51 55
ATOM     55  CA  TRP G   5      38.868  21.091  -0.471  1.00 33.03 LIG 0.18  C 
BRANCH 55 56
ATOM     56  CB  TRP G   5      40.360  21.297  -0.728  1.00 34.46 LIG 0.07  C 
BRANCH 56 57
ATOM     57  CG  TRP G   5      40.823  20.810  -2.068  1.00 31.46 LIG-0.03  A 
ATOM     58  CD2 TRP G   5      40.329  21.228  -3.349  1.00 33.83 LIG-0.00  A 
ATOM     59  CE3 TRP G   5      39.342  22.127  -3.759  1.00 34.43 LIG 0.01  A 
ATOM     60  CE2 TRP G   5      41.047  20.511  -4.329  1.00 38.54 LIG 0.04  A 
ATOM     61  CZ3 TRP G   5      39.106  22.287  -5.114  1.00 33.62 LIG 0.00  A 
ATOM     62  CH2 TRP G   5      39.836  21.567  -6.065  1.00 35.83 LIG 0.00  A 
ATOM     63  CZ2 TRP G   5      40.813  20.680  -5.696  1.00 36.99 LIG 0.03  A 
ATOM     64  NE1 TRP G   5      41.943  19.705  -3.676  1.00 38.15 LIG-0.36  N 
ATOM     65  CD1 TRP G   5      41.803  19.891  -2.317  1.00 30.20 LIG 0.10  A 
ATOM     66 HE1  TRP G   5      42.501  19.170  -4.052  1.00 38.15 LIG 0.17  HD
ENDBRANCH 56 57
ENDBRANCH 55 56
BRANCH 55 67
ATOM     67  N   TRP G   5      38.601  20.971   0.956  1.00 35.55 LIG-0.34  N 
ATOM     68 H    TRP G   5      38.782  20.199   1.288  1.00 35.55 LIG 0.16  HD
ATOM     69  C   ARG G   4      38.118  21.987   1.661  1.00 46.16 LIG 0.26  C 
ATOM     70 O    ARG G   4      37.966  23.120   1.196  1.00 51.01 LIG-0.27  OA
BRANCH 69 71
ATOM     71  CA  ARG G   4      37.781  21.686   3.116  1.00 46.30 LIG 0.40  C 
ATOM     72  N   ARG G   4      38.832  22.165   4.012  1.00 41.08 LIG 0.61  N 
BRANCH 71 73
ATOM     73  CB  ARG G   4      36.437  22.314   3.487  1.00 45.78 LIG 0.05  C 
BRANCH 73 74
ATOM     74  CG  ARG G   4      35.395  22.174   2.390  1.00 42.28 LIG 0.02  C 
BRANCH 74 75
ATOM     75  CD  ARG G   4      34.187  21.402   2.901  1.00 34.41 LIG 0.14  C 
BRANCH 75 76
ATOM     76  NE  ARG G   4      34.551  20.464   3.959  1.00 34.91 LIG-0.23  N 
ATOM     77 HE   ARG G   4      35.285  20.600   4.386  1.00 34.91 LIG 0.18  HD
ATOM     78  CZ  ARG G   4      33.813  19.415   4.299  1.00 31.49 LIG 0.67  C 
ATOM     79  NH1 ARG G   4      32.673  19.174   3.663  1.00 30.98 LIG-0.23  N 
ATOM     80  NH2 ARG G   4      34.205  18.605   5.271  1.00 25.73 LIG-0.23  N 
ATOM     81 2HH1 ARG G   4      32.194  18.495   3.883  1.00 30.98 LIG 0.17  HD
ATOM     82 1HH1 ARG G   4      32.414  19.698   3.032  1.00 30.98 LIG 0.17  HD
ATOM     83 1HH2 ARG G   4      34.942  18.758   5.686  1.00 25.73 LIG 0.17  HD
ATOM     84 2HH2 ARG G   4      33.722  17.927   5.486  1.00 25.73 LIG 0.17  HD
ENDBRANCH 75 76
ENDBRANCH 74 75
ENDBRANCH 73 74
ENDBRANCH 71 73
ENDBRANCH 69 71
ENDBRANCH 55 67
ENDBRANCH 51 55
ENDBRANCH 45 48
ENDBRANCH 1 44
TORSDOF 28
ENDMDL
MODEL 8
USER: ADFR SOLUTION from run 154
USER: SCORE 22.738378 LL:  -7.188 LR: -17.162 RR:   0.000 FEB:  -8.809
USER: RMSD 11.142110
USER: SEED 153
USER: STATUS no improvement in best in 2 clusters for 5 generations
USER: GENES 30
USER: genes 0 Translation |==|  0.21396 0.52583 0.25579
USER: genes 1 Rotation |==|  0.81277 0.39141 0.71836 0.80447
USER: genes 2 Torsion [N]-CA--C-[N] |==|  0.00718
USER: genes 3 Torsion [C]-N--CA-[CB] |==|  0.49444
USER: genes 4 Torsion [N]-CA--CB-[CG2] |==|  0.16732
USER: genes 5 Torsion [CA]-CB--OG1-[HG1] |==|  0.91861
USER: genes 6 Torsion [N]-CA--C-[N] |==|  0.44355
USER: genes 7 Torsion [C]-N--CA-[C] |==|  0.23707
USER: genes 8 Torsion [N]-CA--C-[N] |==|  0.83902
USER: genes 9 Torsion [C]-N--CA-[CB] |==|  0.45366
USER: genes 10 Torsion [N]-CA--CB-[CG] |==|  0.13916
USER: genes 11 Torsion [CA]-CB--CG-[CD1] |==|  0.32752
USER: genes 12 Torsion [N]-CA--C-[OXT] |==|  0.16343
USER: genes 13 Torsion [N]-CA--CB-[CG] |==|  0.42431
USER: genes 14 Torsion [CA]-CB--CG-[CD] |==|  0.67885
USER: genes 15 Torsion [CB]-CG--CD-[NE] |==|  0.00607
USER: genes 16 Torsion [CG]-CD--NE-[CZ] |==|  0.71650
USER: genes 17 Torsion [C]-CA--CB-[CG2] |==|  0.46556
USER: genes 18 Torsion [CA]-CB--OG1-[HG1] |==|  0.90242
USER: genes 19 Torsion [C]-CA--N-[C] |==|  0.77619
USER: genes 20 Torsion [N]-C--CA-[N] |==|  0.30474
USER: genes 21 Torsion [N]-C--CA-[N] |==|  0.29113
USER: genes 22 Torsion [C]-CA--CB-[CG] |==|  0.11135
USER: genes 23 Torsion [CA]-CB--CG-[CD1] |==|  0.14276
USER: genes 24 Torsion [C]-CA--N-[C] |==|  0.75502
USER: genes 25 Torsion [N]-C--CA-[N] |==|  0.26604
USER: genes 26 Torsion [C]-CA--CB-[CG] |==|  0.72092
USER: genes 27 Torsion [CA]-CB--CG-[CD] |==|  0.33921
USER: genes 28 Torsion [CB]-CG--CD-[NE] |==|  0.11126
USER: genes 29 Torsion [CG]-CD--NE-[HE] |==|  0.21937
ROOT
ATOM      1  CA  THR G   7      35.022  15.646  -6.724  1.00 26.40 LIG 0.20  C 
ENDROOT
BRANCH 1 2
ATOM      2  C   THR G   7      33.866  16.568  -7.075  1.00 25.30 LIG 0.24  C 
ATOM      3  N   THR G   8      33.741  17.675  -6.348  1.00 15.59 LIG-0.34  N 
ATOM      4 H    THR G   8      34.260  17.894  -5.699  1.00 15.59 LIG 0.16  HD
ATOM      5 O    THR G   7      33.089  16.282  -7.987  1.00 25.63 LIG-0.27  OA
BRANCH 3 6
ATOM      6  CA  THR G   8      32.668  18.621  -6.626  1.00 11.76 LIG 0.20  C 
BRANCH 6 7
ATOM      7  CB  THR G   8      32.664  19.813  -5.643  1.00 16.39 LIG 0.15  C 
ATOM      8  CG2 THR G   8      33.975  20.576  -5.735  1.00 20.98 LIG 0.04  C 
BRANCH 7 9
ATOM      9 OG1  THR G   8      31.586  20.705  -5.945  1.00 14.98 LIG-0.39  OA
ATOM     10 HG1  THR G   8      31.413  20.670  -6.766  1.00 14.98 LIG 0.21  HD
ENDBRANCH 7 9
ENDBRANCH 6 7
BRANCH 6 11
ATOM     11  C   THR G   8      32.789  19.153  -8.038  1.00 14.98 LIG 0.24  C 
ATOM     12 O    THR G   8      33.860  19.091  -8.644  1.00 17.64 LIG-0.27  OA
ATOM     13  N   ARG G   9      31.695  19.680  -8.576  1.00 15.79 LIG-0.35  N 
ATOM     14 H    ARG G   9      30.929  19.724  -8.189  1.00 15.79 LIG 0.16  HD
BRANCH 13 15
ATOM     15  CA  ARG G   9      31.746  20.237  -9.916  1.00 12.84 LIG 0.18  C 
BRANCH 15 16
ATOM     16  C   ARG G   9      31.529  19.132 -10.935  1.00 12.32 LIG 0.24  C 
ATOM     17  N   LEU G  10      32.385  18.119 -10.892  1.00 12.88 LIG-0.34  N 
ATOM     18 H    LEU G  10      33.007  18.041 -10.304  1.00 12.88 LIG 0.16  HD
ATOM     19 O    ARG G   9      30.614  19.213 -11.758  1.00 17.68 LIG-0.27  OA
BRANCH 17 20
ATOM     20  CA  LEU G  10      32.335  17.034 -11.862  1.00 16.59 LIG 0.18  C 
BRANCH 20 21
ATOM     21  CB  LEU G  10      33.634  16.237 -11.857  1.00 15.66 LIG 0.04  C 
BRANCH 21 22
ATOM     22  CG  LEU G  10      34.142  15.766 -10.501  1.00 23.51 LIG-0.02  C 
ATOM     23  CD1 LEU G  10      34.176  14.259 -10.483  1.00 20.87 LIG 0.01  C 
ATOM     24  CD2 LEU G  10      35.523  16.352 -10.242  1.00 22.37 LIG 0.01  C 
ENDBRANCH 21 22
ENDBRANCH 20 21
BRANCH 20 25
ATOM     25  C   LEU G  10      31.196  16.091 -11.564  1.00 15.89 LIG 0.20  C 
ATOM     26 OXT  LEU G  10      30.051  16.529 -11.540  1.00 24.01 LIG-0.65  OA
ATOM     27 O    LEU G  10      31.393  14.886 -11.368  1.00 15.92 LIG-0.65  OA
ENDBRANCH 20 25
ENDBRANCH 17 20
ENDBRANCH 15 16
BRANCH 15 28
ATOM     28  CB  ARG G   9      33.071  20.951 -10.180  1.00 18.79 LIG 0.04  C 
BRANCH 28 29
ATOM     29  CG  ARG G   9      33.447  20.959 -11.648  1.00 22.18 LIG 0.02  C 
BRANCH 29 30
ATOM     30  CD  ARG G   9      34.715  20.175 -11.913  1.00 31.14 LIG 0.14  C 
BRANCH 30 31
ATOM     31  NE  ARG G   9      35.225  19.565 -10.690  1.00 29.63 LIG-0.23  N 
ATOM     32  CZ  ARG G   9      36.246  20.049  -9.994  1.00 25.64 LIG 0.67  C 
ATOM     33  NH2 ARG G   9      36.651  19.437  -8.889  1.00 30.24 LIG-0.23  N 
ATOM     34  NH1 ARG G   9      36.867  21.140 -10.413  1.00 28.33 LIG-0.23  N 
ATOM     35 1HH2 ARG G   9      36.251  18.724  -8.622  1.00 30.24 LIG 0.17  HD
ATOM     36 2HH2 ARG G   9      37.312  19.753  -8.440  1.00 30.24 LIG 0.17  HD
ATOM     37 1HH1 ARG G   9      36.609  21.533 -11.133  1.00 28.33 LIG 0.17  HD
ATOM     38 2HH1 ARG G   9      37.530  21.457  -9.965  1.00 28.33 LIG 0.17  HD
ATOM     39 HE   ARG G   9      34.842  18.850 -10.403  1.00 29.63 LIG 0.18  HD
ENDBRANCH 30 31
ENDBRANCH 29 30
ENDBRANCH 28 29
ENDBRANCH 15 28
ENDBRANCH 13 15
ENDBRANCH 6 11
ENDBRANCH 3 6
ENDBRANCH 1 2
BRANCH 1 40
ATOM     40  CB  THR G   7      34.474  14.232  -6.444  1.00 34.82 LIG 0.15  C 
ATOM     41  CG2 THR G   7      35.607  13.221  -6.390  1.00 38.74 LIG 0.04  C 
BRANCH 40 42
ATOM     42 OG1  THR G   7      33.780  14.226  -5.188  1.00 40.69 LIG-0.39  OA
ATOM     43 HG1  THR G   7      34.164  14.746  -4.652  1.00 40.69 LIG 0.21  HD
ENDBRANCH 40 42
ENDBRANCH 1 40
BRANCH 1 44
ATOM     44  N   THR G   7      35.732  16.186  -5.573  1.00 22.98 LIG-0.34  N 
ATOM     45  C   PRO G   6      36.624  17.164  -5.676  1.00 24.87 LIG 0.24  C 
ATOM     46 O    PRO G   6      37.002  17.642  -6.745  1.00 25.14 LIG-0.27  OA
ATOM     47 H    THR G   7      35.520  15.815  -4.827  1.00 22.98 LIG 0.16  HD
BRANCH 45 48
ATOM     48  CA  PRO G   6      37.220  17.684  -4.379  1.00 32.16 LIG 0.18  C 
ATOM     49  N   PRO G   6      38.623  17.273  -4.292  1.00 31.00 LIG-0.34  N 
ATOM     50  CD  PRO G   6      39.540  18.418  -4.394  1.00 36.67 LIG 0.13  C 
ATOM     51  C   TRP G   5      38.940  15.972  -4.294  1.00 25.71 LIG 0.24  C 
ATOM     52  CG  PRO G   6      38.661  19.499  -4.962  1.00 44.45 LIG 0.02  C 
ATOM     53  CB  PRO G   6      37.303  19.213  -4.424  1.00 38.26 LIG 0.04  C 
ATOM     54 O    TRP G   5      38.090  15.078  -4.306  1.00 31.33 LIG-0.27  OA
BRANCH 51 55
ATOM     55  CA  TRP G   5      40.418  15.625  -4.284  1.00 33.03 LIG 0.18  C 
BRANCH 55 56
ATOM     56  CB  TRP G   5      40.695  14.547  -5.330  1.00 34.46 LIG 0.07  C 
BRANCH 56 57
ATOM     57  CG  TRP G   5      39.943  14.732  -6.613  1.00 31.46 LIG-0.03  A 
ATOM     58  CD2 TRP G   5      39.128  13.754  -7.276  1.00 33.83 LIG-0.00  A 
ATOM     59  CE3 TRP G   5      38.794  12.425  -7.001  1.00 34.43 LIG 0.01  A 
ATOM     60  CE2 TRP G   5      38.617  14.356  -8.444  1.00 38.54 LIG 0.04  A 
ATOM     61  CZ3 TRP G   5      37.969  11.749  -7.884  1.00 33.62 LIG 0.00  A 
ATOM     62  CH2 TRP G   5      37.473  12.373  -9.033  1.00 35.83 LIG 0.00  A 
ATOM     63  CZ2 TRP G   5      37.778  13.675  -9.329  1.00 36.99 LIG 0.03  A 
ATOM     64  NE1 TRP G   5      39.089  15.644  -8.483  1.00 38.15 LIG-0.36  N 
ATOM     65  CD1 TRP G   5      39.883  15.862  -7.379  1.00 30.20 LIG 0.10  A 
ATOM     66 HE1  TRP G   5      38.917  16.221  -9.097  1.00 38.15 LIG 0.17  HD
ENDBRANCH 56 57
ENDBRANCH 55 56
BRANCH 55 67
ATOM     67  N   TRP G   5      40.804  15.169  -2.955  1.00 35.55 LIG-0.34  N 
ATOM     68 H    TRP G   5      40.750  14.318  -2.842  1.00 35.55 LIG 0.16  HD
ATOM     69  C   ARG G   4      41.202  16.019  -2.015  1.00 46.16 LIG 0.26  C 
ATOM     70 O    ARG G   4      41.377  17.222  -2.224  1.00 51.01 LIG-0.27  OA
BRANCH 69 71
ATOM     71  CA  ARG G   4      41.465  15.415  -0.642  1.00 46.30 LIG 0.40  C 
ATOM     72  N   ARG G   4      42.883  15.107  -0.463  1.00 41.08 LIG 0.61  N 
BRANCH 71 73
ATOM     73  CB  ARG G   4      40.985  16.368   0.454  1.00 45.78 LIG 0.05  C 
BRANCH 73 74
ATOM     74  CG  ARG G   4      42.116  17.168   1.080  1.00 42.28 LIG 0.02  C 
BRANCH 74 75
ATOM     75  CD  ARG G   4      41.855  18.660   0.932  1.00 34.41 LIG 0.14  C 
BRANCH 75 76
ATOM     76  NE  ARG G   4      40.449  18.988   1.148  1.00 34.91 LIG-0.23  N 
ATOM     77 HE   ARG G   4      40.163  19.035   1.958  1.00 34.91 LIG 0.18  HD
ATOM     78  CZ  ARG G   4      39.587  19.219   0.165  1.00 31.49 LIG 0.67  C 
ATOM     79  NH1 ARG G   4      39.991  19.156  -1.097  1.00 30.98 LIG-0.23  N 
ATOM     80  NH2 ARG G   4      38.324  19.512   0.435  1.00 25.73 LIG-0.23  N 
ATOM     81 2HH1 ARG G   4      39.434  19.306  -1.735  1.00 30.98 LIG 0.17  HD
ATOM     82 1HH1 ARG G   4      40.811  18.967  -1.277  1.00 30.98 LIG 0.17  HD
ATOM     83 1HH2 ARG G   4      38.057  19.555   1.251  1.00 25.73 LIG 0.17  HD
ATOM     84 2HH2 ARG G   4      37.771  19.661  -0.206  1.00 25.73 LIG 0.17  HD
ENDBRANCH 75 76
ENDBRANCH 74 75
ENDBRANCH 73 74
ENDBRANCH 71 73
ENDBRANCH 69 71
ENDBRANCH 55 67
ENDBRANCH 51 55
ENDBRANCH 45 48
ENDBRANCH 1 44
TORSDOF 28
ENDMDL
MODEL 9
USER: ADFR SOLUTION from run 103
USER: SCORE 20.100238 LL:  -5.223 LR: -17.053 RR:   0.000 FEB:  -8.701
USER: RMSD 13.643608
USER: SEED 102
USER: STATUS searching
USER: GENES 30
USER: genes 0 Translation |==|  0.26107 0.45316 0.30645
USER: genes 1 Rotation |==|  0.28434 0.22711 0.85723 0.53754
USER: genes 2 Torsion [N]-CA--C-[N] |==|  0.91900
USER: genes 3 Torsion [C]-N--CA-[CB] |==|  0.51739
USER: genes 4 Torsion [N]-CA--CB-[CG2] |==|  0.90921
USER: genes 5 Torsion [CA]-CB--OG1-[HG1] |==|  0.04154
USER: genes 6 Torsion [N]-CA--C-[N] |==|  0.33283
USER: genes 7 Torsion [C]-N--CA-[C] |==|  0.66757
USER: genes 8 Torsion [N]-CA--C-[N] |==|  0.86766
USER: genes 9 Torsion [C]-N--CA-[CB] |==|  0.32083
USER: genes 10 Torsion [N]-CA--CB-[CG] |==|  0.82491
USER: genes 11 Torsion [CA]-CB--CG-[CD1] |==|  0.89396
USER: genes 12 Torsion [N]-CA--C-[OXT] |==|  0.62948
USER: genes 13 Torsion [N]-CA--CB-[CG] |==|  0.67809
USER: genes 14 Torsion [CA]-CB--CG-[CD] |==|  0.66001
USER: genes 15 Torsion [CB]-CG--CD-[NE] |==|  0.64548
USER: genes 16 Torsion [CG]-CD--NE-[CZ] |==|  0.69533
USER: genes 17 Torsion [C]-CA--CB-[CG2] |==|  0.75951
USER: genes 18 Torsion [CA]-CB--OG1-[HG1] |==|  0.75310
USER: genes 19 Torsion [C]-CA--N-[C] |==|  0.55016
USER: genes 20 Torsion [N]-C--CA-[N] |==|  0.76863
USER: genes 21 Torsion [N]-C--CA-[N] |==|  0.86667
USER: genes 22 Torsion [C]-CA--CB-[CG] |==|  0.51703
USER: genes 23 Torsion [CA]-CB--CG-[CD1] |==|  0.36967
USER: genes 24 Torsion [C]-CA--N-[C] |==|  0.81880
USER: genes 25 Torsion [N]-C--CA-[N] |==|  0.84211
USER: genes 26 Torsion [C]-CA--CB-[CG] |==|  0.21037
USER: genes 27 Torsion [CA]-CB--CG-[CD] |==|  0.72568
USER: genes 28 Torsion [CB]-CG--CD-[NE] |==|  0.56116
USER: genes 29 Torsion [CG]-CD--NE-[HE] |==|  0.31245
ROOT
ATOM      1  CA  THR G   7      36.612  13.902  -5.546  1.00 26.40 LIG 0.20  C 
ENDROOT
BRANCH 1 2
ATOM      2  C   THR G   7      38.094  14.190  -5.726  1.00 25.30 LIG 0.24  C 
ATOM      3  N   THR G   8      38.461  14.738  -6.881  1.00 15.59 LIG-0.34  N 
ATOM      4 H    THR G   8      37.924  14.929  -7.524  1.00 15.59 LIG 0.16  HD
ATOM      5 O    THR G   7      38.900  13.915  -4.835  1.00 25.63 LIG-0.27  OA
BRANCH 3 6
ATOM      6  CA  THR G   8      39.860  15.059  -7.131  1.00 11.76 LIG 0.20  C 
BRANCH 6 7
ATOM      7  CB  THR G   8      40.061  15.825  -8.457  1.00 16.39 LIG 0.15  C 
ATOM      8  CG2 THR G   8      39.035  15.378  -9.485  1.00 20.98 LIG 0.04  C 
BRANCH 7 9
ATOM      9 OG1  THR G   8      39.924  17.235  -8.246  1.00 14.98 LIG-0.39  OA
ATOM     10 HG1  THR G   8      39.963  17.401  -7.424  1.00 14.98 LIG 0.21  HD
ENDBRANCH 7 9
ENDBRANCH 6 7
BRANCH 6 11
ATOM     11  C   THR G   8      40.419  15.893  -5.997  1.00 14.98 LIG 0.24  C 
ATOM     12 O    THR G   8      39.929  16.989  -5.722  1.00 17.64 LIG-0.27  OA
ATOM     13  N   ARG G   9      41.448  15.384  -5.329  1.00 15.79 LIG-0.35  N 
ATOM     14 H    ARG G   9      41.803  14.616  -5.483  1.00 15.79 LIG 0.16  HD
BRANCH 13 15
ATOM     15  CA  ARG G   9      42.054  16.142  -4.249  1.00 12.84 LIG 0.18  C 
BRANCH 15 16
ATOM     16  C   ARG G   9      43.514  16.408  -4.570  1.00 12.32 LIG 0.24  C 
ATOM     17  N   LEU G  10      44.222  15.365  -4.987  1.00 12.88 LIG-0.34  N 
ATOM     18 H    LEU G  10      43.890  14.584  -5.123  1.00 12.88 LIG 0.16  HD
ATOM     19 O    ARG G   9      43.991  17.535  -4.419  1.00 17.68 LIG-0.27  OA
BRANCH 17 20
ATOM     20  CA  LEU G  10      45.649  15.468  -5.254  1.00 16.59 LIG 0.18  C 
BRANCH 20 21
ATOM     21  CB  LEU G  10      46.449  14.597  -4.292  1.00 15.66 LIG 0.04  C 
BRANCH 21 22
ATOM     22  CG  LEU G  10      46.362  14.953  -2.815  1.00 23.51 LIG-0.02  C 
ATOM     23  CD1 LEU G  10      46.336  16.452  -2.668  1.00 20.87 LIG 0.01  C 
ATOM     24  CD2 LEU G  10      45.118  14.318  -2.209  1.00 22.37 LIG 0.01  C 
ENDBRANCH 21 22
ENDBRANCH 20 21
BRANCH 20 25
ATOM     25  C   LEU G  10      45.970  15.039  -6.665  1.00 15.89 LIG 0.20  C 
ATOM     26 OXT  LEU G  10      46.908  14.273  -6.856  1.00 24.01 LIG-0.65  OA
ATOM     27 O    LEU G  10      45.292  15.425  -7.624  1.00 15.92 LIG-0.65  OA
ENDBRANCH 20 25
ENDBRANCH 17 20
ENDBRANCH 15 16
BRANCH 15 28
ATOM     28  CB  ARG G   9      41.928  15.415  -2.911  1.00 18.79 LIG 0.04  C 
BRANCH 28 29
ATOM     29  CG  ARG G   9      41.077  16.172  -1.912  1.00 22.18 LIG 0.02  C 
BRANCH 29 30
ATOM     30  CD  ARG G   9      41.833  16.473  -0.635  1.00 31.14 LIG 0.14  C 
BRANCH 30 31
ATOM     31  NE  ARG G   9      41.088  16.026   0.538  1.00 29.63 LIG-0.23  N 
ATOM     32  CZ  ARG G   9      40.518  16.849   1.408  1.00 25.64 LIG 0.67  C 
ATOM     33  NH2 ARG G   9      39.856  16.364   2.450  1.00 30.24 LIG-0.23  N 
ATOM     34  NH1 ARG G   9      40.621  18.158   1.239  1.00 28.33 LIG-0.23  N 
ATOM     35 1HH2 ARG G   9      39.796  15.514   2.563  1.00 30.24 LIG 0.17  HD
ATOM     36 2HH2 ARG G   9      39.487  16.900   3.012  1.00 30.24 LIG 0.17  HD
ATOM     37 1HH1 ARG G   9      41.056  18.471   0.566  1.00 28.33 LIG 0.17  HD
ATOM     38 2HH1 ARG G   9      40.253  18.695   1.800  1.00 28.33 LIG 0.17  HD
ATOM     39 HE   ARG G   9      41.015  15.180   0.673  1.00 29.63 LIG 0.18  HD
ENDBRANCH 30 31
ENDBRANCH 29 30
ENDBRANCH 28 29
ENDBRANCH 15 28
ENDBRANCH 13 15
ENDBRANCH 6 11
ENDBRANCH 3 6
ENDBRANCH 1 2
BRANCH 1 40
ATOM     40  CB  THR G   7      36.323  12.451  -5.981  1.00 34.82 LIG 0.15  C 
ATOM     41  CG2 THR G   7      36.058  12.385  -7.476  1.00 38.74 LIG 0.04  C 
BRANCH 40 42
ATOM     42 OG1  THR G   7      37.451  11.622  -5.668  1.00 40.69 LIG-0.39  OA
ATOM     43 HG1  THR G   7      37.989  11.624  -6.314  1.00 40.69 LIG 0.21  HD
ENDBRANCH 40 42
ENDBRANCH 1 40
BRANCH 1 44
ATOM     44  N   THR G   7      35.840  14.861  -6.324  1.00 22.98 LIG-0.34  N 
ATOM     45  C   PRO G   6      34.551  15.089  -6.103  1.00 24.87 LIG 0.24  C 
ATOM     46 O    PRO G   6      33.868  14.462  -5.295  1.00 25.14 LIG-0.27  OA
ATOM     47 H    THR G   7      36.295  15.261  -6.934  1.00 22.98 LIG 0.16  HD
BRANCH 45 48
ATOM     48  CA  PRO G   6      33.899  16.179  -6.936  1.00 32.16 LIG 0.18  C 
ATOM     49  N   PRO G   6      34.160  17.481  -6.317  1.00 31.00 LIG-0.34  N 
ATOM     50  CD  PRO G   6      35.053  18.313  -7.139  1.00 36.67 LIG 0.13  C 
ATOM     51  C   TRP G   5      33.734  17.727  -5.072  1.00 25.71 LIG 0.24  C 
ATOM     52  CG  PRO G   6      35.661  17.314  -8.086  1.00 44.45 LIG 0.02  C 
ATOM     53  CB  PRO G   6      34.604  16.287  -8.292  1.00 38.26 LIG 0.04  C 
ATOM     54 O    TRP G   5      33.067  16.918  -4.423  1.00 31.33 LIG-0.27  OA
BRANCH 51 55
ATOM     55  CA  TRP G   5      34.114  19.068  -4.469  1.00 33.03 LIG 0.18  C 
BRANCH 55 56
ATOM     56  CB  TRP G   5      33.277  20.172  -5.114  1.00 34.46 LIG 0.07  C 
BRANCH 56 57
ATOM     57  CG  TRP G   5      33.669  21.558  -4.698  1.00 31.46 LIG-0.03  A 
ATOM     58  CD2 TRP G   5      33.924  22.011  -3.361  1.00 33.83 LIG-0.00  A 
ATOM     59  CE3 TRP G   5      33.890  21.395  -2.108  1.00 34.43 LIG 0.01  A 
ATOM     60  CE2 TRP G   5      34.258  23.379  -3.438  1.00 38.54 LIG 0.04  A 
ATOM     61  CZ3 TRP G   5      34.189  22.149  -0.986  1.00 33.62 LIG 0.00  A 
ATOM     62  CH2 TRP G   5      34.521  23.504  -1.092  1.00 35.83 LIG 0.00  A 
ATOM     63  CZ2 TRP G   5      34.568  24.137  -2.306  1.00 36.99 LIG 0.03  A 
ATOM     64  NE1 TRP G   5      34.219  23.738  -4.762  1.00 38.15 LIG-0.36  N 
ATOM     65  CD1 TRP G   5      33.866  22.638  -5.513  1.00 30.20 LIG 0.10  A 
ATOM     66 HE1  TRP G   5      34.388  24.522  -5.073  1.00 38.15 LIG 0.17  HD
ENDBRANCH 56 57
ENDBRANCH 55 56
BRANCH 55 67
ATOM     67  N   TRP G   5      35.535  19.311  -4.673  1.00 35.55 LIG-0.34  N 
ATOM     68 H    TRP G   5      35.712  19.976  -5.187  1.00 35.55 LIG 0.16  HD
ATOM     69  C   ARG G   4      36.461  18.549  -4.100  1.00 46.16 LIG 0.26  C 
ATOM     70 O    ARG G   4      36.195  17.666  -3.280  1.00 51.01 LIG-0.27  OA
BRANCH 69 71
ATOM     71  CA  ARG G   4      37.903  18.847  -4.492  1.00 46.30 LIG 0.40  C 
ATOM     72  N   ARG G   4      38.088  18.751  -5.938  1.00 41.08 LIG 0.61  N 
BRANCH 71 73
ATOM     73  CB  ARG G   4      38.309  20.235  -3.994  1.00 45.78 LIG 0.05  C 
BRANCH 73 74
ATOM     74  CG  ARG G   4      38.581  20.272  -2.499  1.00 42.28 LIG 0.02  C 
BRANCH 74 75
ATOM     75  CD  ARG G   4      37.368  20.807  -1.752  1.00 34.41 LIG 0.14  C 
BRANCH 75 76
ATOM     76  NE  ARG G   4      37.730  21.339  -0.441  1.00 34.91 LIG-0.23  N 
ATOM     77 HE   ARG G   4      37.656  22.186  -0.313  1.00 34.91 LIG 0.18  HD
ATOM     78  CZ  ARG G   4      38.167  20.589   0.563  1.00 31.49 LIG 0.67  C 
ATOM     79  NH1 ARG G   4      38.294  19.278   0.403  1.00 30.98 LIG-0.23  N 
ATOM     80  NH2 ARG G   4      38.477  21.139   1.727  1.00 25.73 LIG-0.23  N 
ATOM     81 2HH1 ARG G   4      38.576  18.790   1.052  1.00 30.98 LIG 0.17  HD
ATOM     82 1HH1 ARG G   4      38.092  18.916  -0.351  1.00 30.98 LIG 0.17  HD
ATOM     83 1HH2 ARG G   4      38.396  21.989   1.836  1.00 25.73 LIG 0.17  HD
ATOM     84 2HH2 ARG G   4      38.759  20.648   2.373  1.00 25.73 LIG 0.17  HD
ENDBRANCH 75 76
ENDBRANCH 74 75
ENDBRANCH 73 74
ENDBRANCH 71 73
ENDBRANCH 69 71
ENDBRANCH 55 67
ENDBRANCH 51 55
ENDBRANCH 45 48
ENDBRANCH 1 44
TORSDOF 28
ENDMDL
